drugbank_target|Q9H1R3 Myosin light chain kinase 2, skeletal/cardiac muscle (DB04825; DB12010)
 OpenBabel12092121013D

  0  0  0     0  0            999 V3000
M  V30 BEGIN CTAB
M  V30 COUNTS 9085 9177 0 0 0
M  V30 BEGIN ATOM
M  V30 1 H -0.908 1.98254 -0.117106 0
M  V30 2 N 0 1.576 0 0
M  V30 3 C 0.933 2.03868 1.02534 0
M  V30 4 C 1.911 0.928543 1.3348 0
M  V30 5 O 3.095 1.19667 1.45644 0
M  V30 6 C 0.222 2.43627 2.35294 0
M  V30 7 C -0.732 3.65373 2.2001 0
M  V30 8 S 0.101 5.13292 1.52614 0
M  V30 9 C 1.257 5.56322 2.86805 0
M  V30 10 H 1.49 2.90518 0.631377 0
M  V30 11 H -0.977 1.52953 0.210867 0
M  V30 12 H 0.981 2.67203 3.11629 0
M  V30 13 H -0.358 1.57376 2.7183 0
M  V30 14 H -1.165 3.90944 3.18086 0
M  V30 15 H -1.563 3.418 1.51819 0
M  V30 16 H 0.729 5.58782 3.83104 0
M  V30 17 H 1.672 6.56266 2.65933 0
M  V30 18 H 2.08 4.83886 2.90714 0
M  V30 19 N 1.4781 -0.272755 1.55222 0
M  V30 20 C 2.4411 -1.32041 1.87344 0
M  V30 21 C 3.4411 -1.42342 0.74803 0
M  V30 22 O 4.6311 -1.41488 1.0162 0
M  V30 23 C 1.7631 -2.70173 2.07893 0
M  V30 24 H 2.9561 -1.04789 2.80997 0
M  V30 25 H 0.5091 -0.51083 1.47717 0
M  V30 26 H 1.2441 -3.02605 1.16622 0
M  V30 27 H 1.0291 -2.64082 2.89833 0
M  V30 28 H 2.5191 -3.45869 2.34017 0
M  V30 29 N 2.9562 -1.48159 -0.537278 0
M  V30 30 C 4.1842 -1.59454 -1.31841 0
M  V30 31 C 4.5992 -0.252065 -1.8711 0
M  V30 32 O 3.9562 0.757621 -1.66031 0
M  V30 33 C 4.0072 -2.63546 -2.47439 0
M  V30 34 O 3.7282 -3.92583 -1.94449 0
M  V30 35 C 5.2292 -2.85212 -3.39366 0
M  V30 36 H 2.4492 -0.53785 -0.401196 0
M  V30 37 H 4.9932 -1.93932 -0.648891 0
M  V30 38 H 3.1482 -2.31946 -3.1029 0
M  V30 39 H 3.5622 -4.49629 -2.70063 0
M  V30 40 H 5.0362 -3.61863 -4.16844 0
M  V30 41 H 5.5132 -1.93765 -3.94147 0
M  V30 42 H 6.1192 -3.18086 -2.82314 0
M  V30 43 N 4.4343 0.785586 -1.36625 0
M  V30 44 C 5.3443 1.92964 -1.33425 0
M  V30 45 C 6.3603 1.72394 -0.235851 0
M  V30 46 O 7.5363 1.95866 -0.468878 0
M  V30 47 C 4.6013 3.27884 -1.12662 0
M  V30 48 C 3.6623 3.61204 -2.32013 0
M  V30 49 C 2.8953 4.89687 -2.12231 0
M  V30 50 O 3.1183 5.59704 -1.09945 0
M  V30 51 O 2.0523 5.21752 -3.00098 0
M  V30 52 H 5.8783 1.98613 -2.29753 0
M  V30 53 H 3.4633 0.926384 -1.17211 0
M  V30 54 H 5.3453 4.08614 -1.03016 0
M  V30 55 H 4.0203 3.23118 -0.193991 0
M  V30 56 H 2.9273 2.80765 -2.47228 0
M  V30 57 H 4.2603 3.70698 -3.23796 0
M  V30 58 N 5.9124 1.20967 1.01018 0
M  V30 59 C 6.8604 0.961223 2.1181 0
M  V30 60 C 7.8544 -0.0897034 1.69162 0
M  V30 61 O 9.0604 0.0612271 1.79896 0
M  V30 62 H 5.4354 0.29355 0.692338 0
M  V30 63 H 7.4064 1.90178 2.29946 0
M  V30 64 C 6.1554 0.536854 3.4353 0
M  V30 65 H 5.4784 1.33713 3.76777 0
M  V30 66 H 6.9184 0.402286 4.22087 0
M  V30 67 C 5.3774 -0.751574 3.2841 0
M  V30 68 O 5.9074 -1.80841 3.58691 0
M  V30 69 N 4.1134 -0.716079 2.81639 0
M  V30 70 H 3.6604 0.144236 2.57196 0
M  V30 71 H 3.6184 -1.57847 2.71904 0
M  V30 72 N 7.3905 -1.2043 1.01659 0
M  V30 73 C 8.6385 -1.89423 0.704522 0
M  V30 74 C 8.9595 -1.79231 -0.768197 0
M  V30 75 O 8.2295 -1.1947 -1.55254 0
M  V30 76 H 6.8095 -0.701178 0.257602 0
M  V30 77 H 9.4715 -1.4626 1.28818 0
M  V30 78 H 8.5675 -2.96052 0.987916 0
M  V30 79 N 8.8686 -0.792821 -1.36206 0
M  V30 80 C 9.8316 -0.199459 -2.2833 0
M  V30 81 C 10.8316 0.605189 -1.48977 0
M  V30 82 O 12.0216 0.425685 -1.68919 0
M  V30 83 C 9.1536 0.723523 -3.33134 0
M  V30 84 H 10.3466 -1.01181 -2.82316 0
M  V30 85 H 7.8996 -0.562485 -1.45828 0
M  V30 86 H 8.6346 1.56008 -2.84309 0
M  V30 87 H 8.4196 0.148436 -3.91819 0
M  V30 88 H 9.9096 1.13344 -4.01924 0
M  V30 89 N 10.3467 1.47872 -0.545128 0
M  V30 90 C 11.5927 2.02793 -0.0166104 0
M  V30 91 C 11.9257 1.41987 1.32489 0
M  V30 92 O 11.2007 0.571045 1.85928 0
M  V30 93 C 11.4837 3.59989 0.0893294 0
M  V30 94 C 11.3367 4.3125 -1.27841 0
M  V30 95 C 12.6557 4.32606 0.808724 0
M  V30 96 H 9.7747 0.736962 -0.00751035 0
M  V30 97 H 12.4167 1.76433 -0.705085 0
M  V30 98 H 10.5667 3.82579 0.675681 0
M  V30 99 H 12.2387 4.20035 -1.90704 0
M  V30 100 H 10.4817 3.92076 -1.85632 0
M  V30 101 H 11.1527 5.39736 -1.15713 0
M  V30 102 H 13.6287 4.14936 0.310992 0
M  V30 103 H 12.5047 5.42251 0.851782 0
M  V30 104 H 12.7657 4.00963 1.86229 0
M  V30 105 N 11.8248 0.280983 1.55075 0
M  V30 106 C 12.7348 -0.61388 2.26426 0
M  V30 107 C 13.7508 -1.16521 1.29224 0
M  V30 108 O 14.9268 -1.19426 1.62171 0
M  V30 109 C 11.9918 -1.7788 2.9759 0
M  V30 110 C 11.0528 -1.26355 4.10284 0
M  V30 111 C 10.2858 -2.37295 4.78045 0
M  V30 112 O 10.5088 -3.56777 4.45047 0
M  V30 113 O 9.4428 -2.05119 5.65871 0
M  V30 114 H 13.2688 -0.0356932 3.03679 0
M  V30 115 H 10.8538 0.0481686 1.49322 0
M  V30 116 H 12.7358 -2.45791 3.42293 0
M  V30 117 H 11.4108 -2.34397 2.23249 0
M  V30 118 H 10.3178 -0.550735 3.70024 0
M  V30 119 H 11.6508 -0.744065 4.86543 0
M  V30 120 N 13.3029 -1.57598 0.00835791 0
M  V30 121 C 14.2329 -2.1198 -0.979113 0
M  V30 122 C 15.2139 -1.03091 -1.35301 0
M  V30 123 O 16.3989 -1.30818 -1.43528 0
M  V30 124 C 13.5289 -2.62995 -2.26828 0
M  V30 125 C 12.4829 -3.76485 -2.03576 0
M  V30 126 C 11.8089 -4.13846 -3.38579 0
M  V30 127 C 13.1089 -5.0342 -1.39161 0
M  V30 128 H 14.8029 -2.94738 -0.526281 0
M  V30 129 H 12.3489 -1.41783 -0.251704 0
M  V30 130 H 14.3019 -2.99669 -2.96271 0
M  V30 131 H 13.0259 -1.7737 -2.7424 0
M  V30 132 H 11.6849 -3.40217 -1.36557 0
M  V30 133 H 11.3329 -3.25232 -3.83709 0
M  V30 134 H 11.0329 -4.90312 -3.23834 0
M  V30 135 H 12.5569 -4.53086 -4.09323 0
M  V30 136 H 13.9709 -5.37812 -1.98573 0
M  V30 137 H 12.3679 -5.84746 -1.34878 0
M  V30 138 H 13.4379 -4.83548 -0.361868 0
M  V30 139 N 14.781 0.264519 -1.55364 0
M  V30 140 C 16.029 0.993021 -1.76021 0
M  V30 141 C 16.35 1.86511 -0.569099 0
M  V30 142 O 15.62 1.91438 0.415735 0
M  V30 143 H 14.2 0.369639 -0.649135 0
M  V30 144 H 16.862 0.286707 -1.9278 0
M  V30 145 H 15.958 1.62502 -2.66457 0
M  V30 146 N 16.2591 1.48442 0.529413 0
M  V30 147 C 17.5081 1.55742 1.28169 0
M  V30 148 C 17.8211 0.236511 1.94165 0
M  V30 149 O 19.0271 0.187761 2.7085 0
M  V30 150 C 17.4831 2.74667 2.32564 0
M  V30 151 C 17.0911 4.13402 1.72636 0
M  V30 152 C 18.8351 2.9128 3.08798 0
M  V30 153 C 16.7421 5.23587 2.74975 0
M  V30 154 H 15.6721 0.579796 0.48203 0
M  V30 155 H 18.3231 1.74776 0.559056 0
M  V30 156 H 16.7051 2.49067 3.07866 0
M  V30 157 H 17.8791 4.49022 1.03519 0
M  V30 158 H 16.1941 4.0191 1.08892 0
M  V30 159 H 18.7911 3.70767 3.85274 0
M  V30 160 H 19.1341 2.00757 3.64695 0
M  V30 161 H 19.6671 3.16782 2.40611 0
M  V30 162 H 16.4061 6.16076 2.23897 0
M  V30 163 H 15.9261 4.92454 3.42417 0
M  V30 164 H 17.6051 5.51724 3.37949 0
M  V30 165 N 17.7372 -0.778329 1.37039 0
M  V30 166 C 18.6692 -1.90034 1.2814 0
M  V30 167 C 19.6822 -1.61585 0.198558 0
M  V30 168 O 20.8712 -1.72625 0.454175 0
M  V30 169 C 17.9712 -3.25108 0.956968 0
M  V30 170 C 17.1442 -3.81253 2.14394 0
M  V30 171 C 16.2032 -4.94789 1.79082 0
M  V30 172 O 15.2292 -5.10721 2.51301 0
M  V30 173 N 16.4312 -5.75878 0.731043 0
M  V30 174 H 19.1962 -1.98186 2.24816 0
M  V30 175 H 16.7572 -0.957129 1.30578 0
M  V30 176 H 18.7492 -3.9857 0.701701 0
M  V30 177 H 17.3192 -3.125 0.0789812 0
M  V30 178 H 16.5392 -2.99647 2.56135 0
M  V30 179 H 17.8272 -4.15495 2.93668 0
M  V30 180 H 17.2252 -5.65547 0.131618 0
M  V30 181 H 15.7822 -6.49596 0.535622 0
M  V30 182 N 19.2153 -1.21501 -1.00376 0
M  V30 183 C 20.1633 -0.972442 -2.11297 0
M  V30 184 C 21.1573 0.080731 -1.69208 0
M  V30 185 O 22.3633 -0.0707666 -1.79861 0
M  V30 186 H 18.7383 -0.297218 -0.690772 0
M  V30 187 H 20.7093 -1.91394 -2.28934 0
M  V30 188 C 19.4583 -0.555065 -3.43241 0
M  V30 189 H 18.7813 -1.35709 -3.76062 0
M  V30 190 H 20.2213 -0.424664 -4.21868 0
M  V30 191 C 18.6803 0.734147 -3.28804 0
M  V30 192 O 19.2103 1.78937 -3.59645 0
M  V30 193 N 17.4163 0.701133 -2.82015 0
M  V30 194 H 16.9633 -0.157874 -2.57116 0
M  V30 195 H 16.9213 1.56403 -2.72737 0
M  V30 196 N 20.6934 1.19889 -1.02296 0
M  V30 197 C 22.1044 1.71124 -0.746568 0
M  V30 198 C 22.4554 1.81939 0.734335 0
M  V30 199 O 21.5804 1.48639 1.57275 0
M  V30 200 C 22.1754 3.10804 -1.34857 0
M  V30 201 C 20.7344 3.59323 -1.1209 0
M  V30 202 C 19.8814 2.3635 -1.45031 0
M  V30 203 H 22.8324 1.04813 -1.19163 0
M  V30 204 H 22.8534 3.73186 -0.742437 0
M  V30 205 H 22.3654 3.029 -2.42638 0
M  V30 206 H 20.4664 3.7255 -0.0610337 0
M  V30 207 H 20.5794 4.4378 -1.80544 0
M  V30 208 H 18.9434 2.39399 -0.869487 0
M  V30 209 H 19.7264 2.31081 -2.53883 0
M  V30 210 N 22.1715 0.800033 1.35784 0
M  V30 211 C 23.3965 0.388511 2.03729 0
M  V30 212 C 23.8215 -0.990481 1.5991 0
M  V30 213 O 23.1795 -1.64013 0.772612 0
M  V30 214 C 23.2275 0.4726 3.5749 0
M  V30 215 O 22.3315 -0.51646 4.09153 0
M  V30 216 H 21.6725 0.163271 0.643614 0
M  V30 217 H 24.2025 1.0841 1.73518 0
M  V30 218 H 24.2125 0.34003 4.06581 0
M  V30 219 H 22.8875 1.47848 3.88734 0
M  V30 220 H 21.4645 -0.344673 3.71304 0
M  V30 221 N 23.6496 -1.47581 0.552962 0
M  V30 222 C 24.8776 -2.06875 0.0320556 0
M  V30 223 C 25.2926 -1.40625 -1.25976 0
M  V30 224 O 24.6496 -0.501349 -1.75479 0
M  V30 225 C 24.7006 -3.61092 -0.17167 0
M  V30 226 O 24.4216 -4.24858 1.06899 0
M  V30 227 C 25.9226 -4.37242 -0.730344 0
M  V30 228 H 23.1426 -0.669561 0.043915 0
M  V30 229 H 25.6866 -1.89646 0.765163 0
M  V30 230 H 23.8416 -3.7785 -0.854894 0
M  V30 231 H 24.2556 -5.17334 0.864059 0
M  V30 232 H 25.7296 -5.45842 -0.822203 0
M  V30 233 H 26.2066 -4.03235 -1.74064 0
M  V30 234 H 26.8126 -4.25219 -0.0829543 0
M  V30 235 N 25.1277 -0.289203 -1.54924 0
M  V30 236 C 26.4047 0.376032 -1.91951 0
M  V30 237 C 26.7847 1.72622 -1.21511 0
M  V30 238 O 26.1327 2.25853 -0.346767 0
M  V30 239 C 26.3427 0.502378 -3.45365 0
M  V30 240 C 27.6907 0.778741 -4.17398 0
M  V30 241 O 28.7147 0.586647 -3.51336 0
M  V30 242 O 27.5737 1.14698 -5.34328 0
M  V30 243 H 24.6677 0.208167 -0.800372 0
M  V30 244 H 27.2137 -0.336394 -1.66332 0
M  V30 245 H 25.9857 -0.447255 -3.88736 0
M  V30 246 H 25.6087 1.26373 -3.76982 0
M  V30 247 N 26.6058 1.57591 -0.0167156 0
M  V30 248 C 27.5528 2.09462 0.969251 0
M  V30 249 C 28.5228 0.99381 1.33089 0
M  V30 250 O 29.7078 1.26726 1.42636 0
M  V30 251 C 26.8478 2.61622 2.25051 0
M  V30 252 C 25.9608 3.85666 1.94642 0
M  V30 253 C 25.0958 4.26266 3.16972 0
M  V30 254 C 24.1348 5.43101 2.82326 0
M  V30 255 N 23.2718 5.78915 3.97243 0
M  V30 256 H 28.1118 2.93428 0.519997 0
M  V30 257 H 25.6488 1.45044 0.245087 0
M  V30 258 H 27.6068 2.89949 2.99976 0
M  V30 259 H 26.2368 1.80505 2.67615 0
M  V30 260 H 25.2888 3.64145 1.10013 0
M  V30 261 H 26.6008 4.70678 1.65117 0
M  V30 262 H 25.7548 4.55963 4.00228 0
M  V30 263 H 24.4938 3.39996 3.49648 0
M  V30 264 H 23.4988 5.1311 1.97479 0
M  V30 265 H 24.7238 6.3106 2.50879 0
M  V30 266 H 22.6698 4.95602 4.29785 0
M  V30 267 H 22.5868 6.58539 3.71299 0
M  V30 268 H 23.8548 6.13212 4.81239 0
M  V30 269 N 28.0839 -0.256276 1.55502 0
M  V30 270 C 29.0469 -1.30047 1.88734 0
M  V30 271 C 30.0469 -1.4154 0.763086 0
M  V30 272 O 31.2369 -1.40403 1.03115 0
M  V30 273 C 28.3689 -2.67953 2.10747 0
M  V30 274 H 29.5619 -1.01802 2.82093 0
M  V30 275 H 27.1149 -0.495134 1.4825 0
M  V30 276 H 27.8499 -3.01351 1.19825 0
M  V30 277 H 27.6349 -2.60993 2.92617 0
M  V30 278 H 29.1249 -3.43368 2.37673 0
M  V30 279 N 29.562 -1.4872 -0.521534 0
M  V30 280 C 30.973 -1.50607 -1.10337 0
M  V30 281 C 31.324 -0.280612 -1.94183 0
M  V30 282 O 30.449 0.611507 -2.0758 0
M  V30 283 C 31.044 -2.72903 -2.00772 0
M  V30 284 C 29.603 -2.77634 -2.54158 0
M  V30 285 C 28.75 -2.44241 -1.31307 0
M  V30 286 H 31.701 -1.55714 -0.306388 0
M  V30 287 H 31.722 -2.519 -2.85178 0
M  V30 288 H 31.234 -3.62077 -1.39721 0
M  V30 289 H 29.335 -1.92689 -3.18907 0
M  V30 290 H 29.448 -3.79283 -2.92714 0
M  V30 291 H 27.812 -1.95577 -1.63161 0
M  V30 292 H 28.595 -3.35666 -0.719943 0
M  V30 293 N 31.0401 0.771051 -1.3745 0
M  V30 294 C 31.9871 1.88435 -1.3327 0
M  V30 295 C 32.9571 1.64914 -0.198136 0
M  V30 296 O 34.1421 1.86821 -0.387606 0
M  V30 297 C 31.2821 3.25509 -1.14622 0
M  V30 298 C 30.3951 3.60979 -2.37314 0
M  V30 299 C 29.5301 4.87265 -2.11533 0
M  V30 300 C 28.5691 5.15469 -3.30088 0
M  V30 301 N 27.7061 6.32944 -3.03853 0
M  V30 302 H 32.5461 1.91344 -2.28455 0
M  V30 303 H 30.0831 0.935466 -1.13523 0
M  V30 304 H 32.0411 4.04582 -1.01831 0
M  V30 305 H 30.6711 3.21974 -0.230837 0
M  V30 306 H 29.7231 2.76885 -2.60842 0
M  V30 307 H 31.0351 3.77759 -3.25729 0
M  V30 308 H 30.1891 5.74244 -1.95777 0
M  V30 309 H 28.9281 4.7259 -1.20457 0
M  V30 310 H 27.9331 4.26966 -3.46382 0
M  V30 311 H 29.1581 5.32052 -4.22016 0
M  V30 312 H 27.1041 6.19625 -2.15407 0
M  V30 313 H 27.0211 6.50143 -3.85812 0
M  V30 314 H 28.2891 7.22857 -2.91716 0
M  V30 315 N 32.5182 1.22032 0.997298 0
M  V30 316 C 33.7662 1.04016 1.73278 0
M  V30 317 C 34.0872 -0.426255 1.90284 0
M  V30 318 O 33.3572 -1.30694 1.45931 0
M  V30 319 H 31.9372 0.381897 0.642 0
M  V30 320 H 34.5992 1.5347 1.20137 0
M  V30 321 H 33.6952 1.51441 2.72896 0
M  V30 322 N 33.9963 -1.19345 1.0293 0
M  V30 323 C 35.4073 -1.70725 0.755633 0
M  V30 324 C 35.7583 -1.82326 -0.724676 0
M  V30 325 O 34.8833 -1.49471 -1.56484 0
M  V30 326 C 35.4783 -3.10084 1.36503 0
M  V30 327 C 34.0373 -3.58723 1.13994 0
M  V30 328 C 33.1843 -2.35577 1.46283 0
M  V30 329 H 36.1353 -1.0418 1.19718 0
M  V30 330 H 36.1563 -3.72787 0.762217 0
M  V30 331 H 35.6683 -3.01609 2.44241 0
M  V30 332 H 33.7693 -3.72512 0.0807901 0
M  V30 333 H 33.8823 -4.42816 1.82894 0
M  V30 334 H 32.2463 -2.38935 0.88217 0
M  V30 335 H 33.0293 -2.29731 2.55105 0
M  V30 336 N 35.4744 -0.807222 -1.35358 0
M  V30 337 C 36.7024 -0.400377 -2.02989 0
M  V30 338 C 37.1174 0.988859 -1.60832 0
M  V30 339 O 36.4744 1.63729 -0.806175 0
M  V30 340 C 36.5254 -0.474867 -3.58368 0
M  V30 341 O 36.2464 -1.80933 -3.98992 0
M  V30 342 C 37.7474 -0.0609112 -4.43258 0
M  V30 343 H 34.9674 -0.162587 -0.651004 0
M  V30 344 H 37.5114 -1.09102 -1.72965 0
M  V30 345 H 35.6664 0.167534 -3.87038 0
M  V30 346 H 36.0804 -1.77256 -4.9364 0
M  V30 347 H 37.5544 -0.164145 -5.51756 0
M  V30 348 H 38.0314 0.993831 -4.27808 0
M  V30 349 H 38.6374 -0.676492 -4.19885 0
M  V30 350 N 36.9525 1.47285 -0.560781 0
M  V30 351 C 38.2005 2.02064 -0.0379868 0
M  V30 352 C 38.5215 1.43711 1.31803 0
M  V30 353 O 37.7915 0.61362 1.86042 0
M  V30 354 H 36.3715 0.746918 -0.0110531 0
M  V30 355 H 39.0335 1.80648 -0.731598 0
M  V30 356 H 38.1295 3.12064 0.0474463 0
M  V30 357 N 38.4306 0.297415 1.54768 0
M  V30 358 C 39.3406 -0.58983 2.27064 0
M  V30 359 C 40.3566 -1.15144 1.30453 0
M  V30 360 O 41.5326 -1.17699 1.63428 0
M  V30 361 C 38.5976 -1.74714 2.9946 0
M  V30 362 C 37.6586 -1.21997 4.11601 0
M  V30 363 C 36.8916 -2.32212 4.80535 0
M  V30 364 O 37.1146 -3.52036 4.48806 0
M  V30 365 O 36.0486 -1.99106 5.68014 0
M  V30 366 H 39.8746 -0.00348199 3.037 0
M  V30 367 H 37.4596 0.0640035 1.49263 0
M  V30 368 H 39.3416 -2.42147 3.44881 0
M  V30 369 H 38.0166 -2.32016 2.25722 0
M  V30 370 H 36.9236 -0.511458 3.70587 0
M  V30 371 H 38.2566 -0.692419 4.87305 0
M  V30 372 N 39.9087 -1.5758 0.0250728 0
M  V30 373 C 41.3247 -1.56124 -0.331282 0
M  V30 374 C 41.5247 -1.03029 -1.73169 0
M  V30 375 O 40.5807 -0.675215 -2.43305 0
M  V30 376 C 41.8937 -3.00139 -0.183584 0
M  V30 377 C 43.4417 -3.11946 -0.256654 0
M  V30 378 C 43.9167 -4.57793 -0.137792 0
M  V30 379 N 45.4077 -4.6279 -0.194904 0
M  V30 380 C 46.1427 -5.7326 -0.126655 0
M  V30 381 N 45.6387 -6.928 -0.00755288 0
M  V30 382 N 47.4317 -5.61811 -0.180348 0
M  V30 383 H 39.5827 -1.90424 0.94087 0
M  V30 384 H 41.8457 -0.875761 0.362968 0
M  V30 385 H 41.5517 -3.4292 0.780927 0
M  V30 386 H 41.4257 -3.64899 -0.955448 0
M  V30 387 H 43.8127 -2.69079 -1.21162 0
M  V30 388 H 43.8937 -2.49915 0.545517 0
M  V30 389 H 43.5377 -5.01339 0.813739 0
M  V30 390 H 43.4677 -5.17798 -0.958775 0
M  V30 391 H 45.9587 -3.76807 -0.287267 0
M  V30 392 H 46.2717 -7.72791 0.0379428 0
M  V30 393 H 44.6167 -6.94995 0.0271731 0
M  V30 394 H 47.8077 -4.6731 -0.271767 0
M  V30 395 H 47.9807 -6.47882 -0.123697 0
M  V30 396 N 41.3868 0.248026 -1.55636 0
M  V30 397 C 42.7978 0.817177 -1.67866 0
M  V30 398 C 43.1488 1.86069 -0.622322 0
M  V30 399 O 42.2738 2.15157 0.231618 0
M  V30 400 C 42.8688 1.489 -3.04326 0
M  V30 401 C 41.4278 2.00587 -3.185 0
M  V30 402 C 40.5748 0.856573 -2.63739 0
M  V30 403 H 43.5258 0.0238579 -1.58682 0
M  V30 404 H 43.5468 2.35698 -2.98708 0
M  V30 405 H 43.0588 0.729279 -3.81186 0
M  V30 406 H 41.1598 2.79443 -2.4646 0
M  V30 407 H 41.2728 2.20402 -4.25393 0
M  V30 408 H 39.6368 1.25678 -2.21534 0
M  V30 409 H 40.4198 0.109953 -3.43124 0
M  V30 410 N 42.8649 1.48995 0.513639 0
M  V30 411 C 43.7949 1.67636 1.62544 0
M  V30 412 C 44.7759 0.525087 1.61793 0
M  V30 413 O 45.9609 0.759502 1.78732 0
M  V30 414 C 43.0909 1.73114 3.01079 0
M  V30 415 C 42.0449 2.87905 3.16693 0
M  V30 416 C 41.3709 2.78486 4.56453 0
M  V30 417 C 42.6709 4.29005 2.97913 0
M  V30 418 H 44.3649 2.60716 1.47198 0
M  V30 419 H 41.9109 1.25465 0.706714 0
M  V30 420 H 43.8639 1.84742 3.78746 0
M  V30 421 H 42.5879 0.766241 3.17484 0
M  V30 422 H 41.2469 2.75859 2.41448 0
M  V30 423 H 40.8949 1.7993 4.69717 0
M  V30 424 H 40.5949 3.55523 4.67843 0
M  V30 425 H 42.1189 2.92104 5.36197 0
M  V30 426 H 43.5329 4.41798 3.65359 0
M  V30 427 H 41.9299 5.07166 3.20785 0
M  V30 428 H 42.9999 4.44329 1.94165 0
M  V30 429 N 44.343 -0.763751 1.37857 0
M  V30 430 C 45.306 -1.85889 1.34081 0
M  V30 431 C 46.306 -1.58949 0.243277 0
M  V30 432 O 47.496 -1.66882 0.499589 0
M  V30 433 C 44.628 -3.23176 1.08489 0
M  V30 434 H 45.821 -1.90648 2.31502 0
M  V30 435 H 43.374 -0.964367 1.23003 0
M  V30 436 H 44.109 -3.24091 0.116318 0
M  V30 437 H 43.894 -3.44124 1.8794 0
M  V30 438 H 45.384 -4.03254 1.08517 0
M  V30 439 N 45.8211 -1.22559 -0.990812 0
M  V30 440 C 46.7841 -0.998863 -2.0629 0
M  V30 441 C 47.7841 0.0354834 -1.60761 0
M  V30 442 O 48.9741 -0.203231 -1.7301 0
M  V30 443 C 46.1061 -0.509203 -3.37076 0
M  V30 444 H 47.2991 -1.95014 -2.27837 0
M  V30 445 H 44.8521 -1.04456 -1.16269 0
M  V30 446 H 45.5871 0.446335 -3.21214 0
M  V30 447 H 45.3721 -1.25547 -3.71457 0
M  V30 448 H 46.8621 -0.370888 -4.1595 0
M  V30 449 N 47.2992 1.18797 -1.03562 0
M  V30 450 C 48.5472 1.88278 -0.734569 0
M  V30 451 C 48.8682 1.8043 0.739586 0
M  V30 452 O 48.1382 1.21925 1.53333 0
M  V30 453 H 46.7182 0.696991 -0.268725 0
M  V30 454 H 49.3802 1.44192 -1.31129 0
M  V30 455 H 48.4762 2.94443 -1.03489 0
M  V30 456 N 48.7773 0.814389 1.34928 0
M  V30 457 C 49.7243 0.22822 2.29669 0
M  V30 458 C 50.6943 -0.642164 1.53184 0
M  V30 459 O 51.8793 -0.585605 1.81591 0
M  V30 460 C 49.0193 -0.61089 3.3965 0
M  V30 461 C 48.1323 0.280792 4.31086 0
M  V30 462 C 47.2673 -0.567067 5.28165 0
M  V30 463 C 46.3063 0.324531 6.11239 0
M  V30 464 N 45.4433 -0.483756 7.00431 0
M  V30 465 H 50.2833 1.04153 2.79206 0
M  V30 466 H 47.8203 0.525133 1.37407 0
M  V30 467 H 49.7783 -1.11263 4.0209 0
M  V30 468 H 48.4083 -1.38939 2.91369 0
M  V30 469 H 47.4603 0.900688 3.69583 0
M  V30 470 H 48.7723 0.966723 4.89342 0
M  V30 471 H 47.9263 -1.13363 5.96015 0
M  V30 472 H 46.6653 -1.28654 4.70425 0
M  V30 473 H 45.6703 0.903298 5.42329 0
M  V30 474 H 46.8953 1.04198 6.71059 0
M  V30 475 H 44.8413 -1.18706 6.45171 0
M  V30 476 H 44.7583 0.143965 7.55863 0
M  V30 477 H 46.0263 -1.03334 7.7262 0
M  V30 478 N 50.2554 -1.46986 0.568584 0
M  V30 479 C 51.5324 -1.95592 -0.0174074 0
M  V30 480 C 51.9124 -1.51124 -1.47393 0
M  V30 481 O 51.2604 -0.755329 -2.15655 0
M  V30 482 C 51.4704 -3.48719 0.139913 0
M  V30 483 C 52.8184 -4.246 0.000426376 0
M  V30 484 O 53.8424 -3.56135 0.0680316 0
M  V30 485 O 52.7014 -5.46302 -0.146988 0
M  V30 486 H 49.7954 -0.82498 -0.0577599 0
M  V30 487 H 52.3414 -1.57335 0.635909 0
M  V30 488 H 51.1134 -3.73927 1.15301 0
M  V30 489 H 50.7364 -3.93771 -0.550491 0
M  V30 490 N 51.7335 -0.305618 -1.54608 0
M  V30 491 C 53.1445 0.186098 -1.8577 0
M  V30 492 C 53.4955 1.53058 -1.22751 0
M  V30 493 O 52.6205 2.09888 -0.526893 0
M  V30 494 C 53.2155 0.344449 -3.37044 0
M  V30 495 C 51.7745 0.780384 -3.68221 0
M  V30 496 C 50.9215 -0.108554 -2.77087 0
M  V30 497 H 53.8725 -0.526485 -1.49712 0
M  V30 498 H 53.8935 1.17828 -3.61796 0
M  V30 499 H 53.4055 -0.634235 -3.82883 0
M  V30 500 H 51.5065 1.76945 -3.27904 0
M  V30 501 H 51.6195 0.596572 -4.75371 0
M  V30 502 H 49.9835 0.412931 -2.5133 0
M  V30 503 H 50.7665 -1.08368 -3.25747 0
M  V30 504 N 53.2116 1.57565 -0.0334293 0
M  V30 505 C 54.4596 1.91598 0.642999 0
M  V30 506 C 54.7806 0.910847 1.7242 0
M  V30 507 O 54.0506 -0.0469931 1.95844 0
M  V30 508 H 52.6306 0.707228 0.240496 0
M  V30 509 H 55.2926 1.94726 -0.0822488 0
M  V30 510 H 54.3886 2.92336 1.09298 0
M  V30 511 N 54.6897 -0.239769 1.55765 0
M  V30 512 C 56.1007 -0.808263 1.68297 0
M  V30 513 C 56.4517 -1.85736 0.632181 0
M  V30 514 O 55.5767 -2.15277 -0.220204 0
M  V30 515 C 56.1717 -1.47284 3.05111 0
M  V30 516 C 54.7307 -1.98895 3.19559 0
M  V30 517 C 53.8777 -0.842575 2.64189 0
M  V30 518 H 56.8287 -0.0154422 1.58692 0
M  V30 519 H 56.8497 -2.34111 2.99954 0
M  V30 520 H 56.3617 -0.709053 3.81568 0
M  V30 521 H 54.4627 -2.78132 2.47938 0
M  V30 522 H 54.5757 -2.18143 4.26556 0
M  V30 523 H 52.9397 -1.24501 2.22197 0
M  V30 524 H 53.7227 -0.0917552 3.43177 0
M  V30 525 N 56.1678 -1.49265 -0.50573 0
M  V30 526 C 57.5788 -1.51769 -1.08734 0
M  V30 527 C 57.9298 -0.301192 -1.93874 0
M  V30 528 O 57.0548 0.589456 -2.08217 0
M  V30 529 C 57.6498 -2.75017 -1.97867 0
M  V30 530 C 56.2088 -2.80314 -2.51199 0
M  V30 531 C 55.3558 -2.4562 -1.28709 0
M  V30 532 H 58.3068 -1.56031 -0.289855 0
M  V30 533 H 58.3278 -2.5491 -2.82491 0
M  V30 534 H 57.8398 -3.63539 -1.35873 0
M  V30 535 H 55.9408 -1.96061 -3.16845 0
M  V30 536 H 56.0538 -3.82366 -2.88675 0
M  V30 537 H 54.4178 -1.97297 -1.61078 0
M  V30 538 H 55.2008 -3.36411 -0.6843 0
M  V30 539 N 57.6459 0.756429 -1.3826 0
M  V30 540 C 58.9229 1.50584 -1.24835 0
M  V30 541 C 59.3029 2.10556 0.151485 0
M  V30 542 O 58.6509 1.96825 1.1607 0
M  V30 543 C 58.8609 2.57448 -2.3563 0
M  V30 544 C 60.2089 3.24429 -2.73917 0
M  V30 545 O 61.2329 2.67751 -2.34921 0
M  V30 546 O 60.0919 4.26937 -3.41156 0
M  V30 547 H 57.1859 0.667664 -0.48801 0
M  V30 548 H 59.7319 0.792083 -1.5008 0
M  V30 549 H 58.5039 2.11362 -3.29305 0
M  V30 550 H 58.1269 3.36408 -2.11933 0
M  V30 551 N 59.124 1.23083 0.984299 0
M  V30 552 C 60.535 1.05609 1.5396 0
M  V30 553 C 60.886 -0.377793 1.92528 0
M  V30 554 O 60.011 -1.26398 1.75649 0
M  V30 555 C 60.606 1.91087 2.7977 0
M  V30 556 C 59.165 1.77885 3.31713 0
M  V30 557 C 58.312 1.87028 2.04733 0
M  V30 558 H 61.263 1.36802 0.804419 0
M  V30 559 H 61.284 1.43336 3.5247 0
M  V30 560 H 60.796 2.9544 2.51668 0
M  V30 561 H 58.897 0.762995 3.64704 0
M  V30 562 H 59.01 2.61047 4.01735 0
M  V30 563 H 57.374 1.30565 2.18689 0
M  V30 564 H 58.157 2.92929 1.79017 0
M  V30 565 N 60.6021 -1.18246 1.0419 0
M  V30 566 C 61.5491 -2.2192 0.634037 0
M  V30 567 C 62.5191 -1.62179 -0.358765 0
M  V30 568 O 63.7041 -1.89122 -0.252466 0
M  V30 569 C 60.8441 -3.451 0.00445535 0
M  V30 570 C 59.9571 -4.19174 1.04487 0
M  V30 571 C 59.0921 -5.29813 0.383676 0
M  V30 572 C 58.1311 -5.9566 1.4091 0
M  V30 573 N 57.2681 -6.97834 0.772784 0
M  V30 574 H 62.1081 -2.56164 1.52263 0
M  V30 575 H 59.6451 -1.25843 0.761701 0
M  V30 576 H 61.6031 -4.15485 -0.377919 0
M  V30 577 H 60.2331 -3.11472 -0.847652 0
M  V30 578 H 59.2851 -3.47604 1.54518 0
M  V30 579 H 60.5971 -4.64267 1.82368 0
M  V30 580 H 59.7511 -6.06677 -0.0528366 0
M  V30 581 H 58.4901 -4.85825 -0.427208 0
M  V30 582 H 57.4951 -5.17535 1.85574 0
M  V30 583 H 58.7201 -6.4173 2.22171 0
M  V30 584 H 56.6661 -6.55998 -0.0177708 0
M  V30 585 H 56.5831 -7.41186 1.48928 0
M  V30 586 H 57.8511 -7.78665 0.36071 0
M  V30 587 N 62.0802 -0.821533 -1.34494 0
M  V30 588 C 63.0272 -0.240397 -2.29545 0
M  V30 589 C 63.9972 0.634031 -1.53523 0
M  V30 590 O 65.1822 0.575966 -1.81899 0
M  V30 591 C 62.3222 0.592869 -3.39969 0
M  V30 592 C 61.4352 -0.30365 -4.30932 0
M  V30 593 C 60.5702 0.539049 -5.28458 0
M  V30 594 C 59.6092 -0.356942 -6.11058 0
M  V30 595 N 58.7462 0.446603 -7.00678 0
M  V30 596 H 63.5862 -1.05632 -2.7865 0
M  V30 597 H 61.1232 -0.532413 -1.37127 0
M  V30 598 H 63.0812 1.09129 -4.02675 0
M  V30 599 H 61.7112 1.37392 -2.92102 0
M  V30 600 H 60.7632 -0.920276 -3.691 0
M  V30 601 H 62.0752 -0.992661 -4.88823 0
M  V30 602 H 61.2292 1.102 -5.96608 0
M  V30 603 H 59.9682 1.26157 -4.71101 0
M  V30 604 H 58.9732 -0.932047 -5.41842 0
M  V30 605 H 60.1982 -1.07755 -6.70497 0
M  V30 606 H 58.1442 1.15282 -6.45791 0
M  V30 607 H 58.0612 -0.184048 -7.55776 0
M  V30 608 H 59.3292 0.992352 -7.73158 0
M  V30 609 N 63.5583 1.46682 -0.576371 0
M  V30 610 C 64.5213 2.28707 0.150239 0
M  V30 611 C 65.5213 1.38035 0.824794 0
M  V30 612 O 66.7113 1.60476 0.677719 0
M  V30 613 C 63.8433 3.18248 1.22192 0
M  V30 614 H 65.0363 2.94423 -0.570521 0
M  V30 615 H 62.5893 1.52688 -0.334078 0
M  V30 616 H 63.3243 2.57265 1.97447 0
M  V30 617 H 63.1093 3.85 0.742812 0
M  V30 618 H 64.5993 3.80001 1.73172 0
M  V30 619 N 65.0364 0.313813 1.54444 0
M  V30 620 C 66.4474 -0.176243 1.85866 0
M  V30 621 C 66.7984 -1.52405 1.23561 0
M  V30 622 O 65.9234 -2.09605 0.538016 0
M  V30 623 C 66.5184 -0.32657 3.37222 0
M  V30 624 C 65.0774 -0.760846 3.6863 0
M  V30 625 C 64.2244 0.123247 2.77026 0
M  V30 626 H 67.1754 0.534418 1.49431 0
M  V30 627 H 67.1964 -1.15908 3.62416 0
M  V30 628 H 66.7084 0.654531 3.82541 0
M  V30 629 H 64.8094 -1.75204 3.28838 0
M  V30 630 H 64.9224 -0.571353 4.75681 0
M  V30 631 H 63.2864 -0.399597 2.51546 0
M  V30 632 H 64.0694 1.10094 3.25168 0
M  V30 633 N 66.5145 -1.57545 0.0417849 0
M  V30 634 C 67.7915 -1.83642 -0.673433 0
M  V30 635 C 68.1715 -0.928298 -1.89594 0
M  V30 636 O 67.5195 0.0129955 -2.28496 0
M  V30 637 C 67.7295 -3.33155 -1.03964 0
M  V30 638 C 69.0775 -3.99941 -1.42592 0
M  V30 639 O 70.1015 -3.37725 -1.13226 0
M  V30 640 O 68.9605 -5.09619 -1.9736 0
M  V30 641 H 66.0545 -0.757638 -0.331533 0
M  V30 642 H 68.6005 -1.69554 0.070433 0
M  V30 643 H 67.3725 -3.9093 -0.170098 0
M  V30 644 H 66.9955 -3.52396 -1.84126 0
M  V30 645 N 67.9926 0.231505 -1.5589 0
M  V30 646 C 69.4036 0.799327 -1.68724 0
M  V30 647 C 69.7546 1.85398 -0.642022 0
M  V30 648 O 68.8796 2.1539 0.208784 0
M  V30 649 C 69.4746 1.45664 -3.05888 0
M  V30 650 C 68.0336 1.97197 -3.20609 0
M  V30 651 C 67.1806 0.828552 -2.64632 0
M  V30 652 H 70.1316 0.00702616 -1.58698 0
M  V30 653 H 70.1526 2.32517 -3.01191 0
M  V30 654 H 69.6646 0.688808 -3.81939 0
M  V30 655 H 67.7656 2.76813 -2.4941 0
M  V30 656 H 67.8786 2.15878 -4.27707 0
M  V30 657 H 66.2426 1.23321 -2.22854 0
M  V30 658 H 67.0256 0.0735544 -3.43221 0
M  V30 659 N 69.4707 1.49531 0.497807 0
M  V30 660 C 70.8817 1.52344 1.07927 0
M  V30 661 C 71.2327 0.311469 1.93712 0
M  V30 662 O 70.3577 -0.578405 2.08527 0
M  V30 663 C 70.9527 2.76062 1.96405 0
M  V30 664 C 69.5117 2.81643 2.49709 0
M  V30 665 C 68.6587 2.46299 1.27404 0
M  V30 666 H 71.6097 1.56182 0.281576 0
M  V30 667 H 71.6307 2.56405 2.81135 0
M  V30 668 H 71.1427 3.64254 1.33943 0
M  V30 669 H 69.2437 1.97739 3.15801 0
M  V30 670 H 69.3567 3.83891 2.86643 0
M  V30 671 H 67.7207 1.98148 1.60029 0
M  V30 672 H 68.5037 3.36769 0.66645 0
M  V30 673 N 70.9488 -0.749086 1.3866 0
M  V30 674 C 72.1768 -1.53834 1.38358 0
M  V30 675 C 72.5918 -1.88783 -0.0255219 0
M  V30 676 O 71.9488 -1.53101 -0.993292 0
M  V30 677 C 71.9998 -2.83468 2.2434 0
M  V30 678 O 71.7208 -2.50008 3.5976 0
M  V30 679 C 73.2218 -3.7758 2.32267 0
M  V30 680 H 70.4418 -0.47585 0.473083 0
M  V30 681 H 72.9858 -0.926726 1.82297 0
M  V30 682 H 71.1408 -3.40995 1.83851 0
M  V30 683 H 71.5548 -3.33182 4.05081 0
M  V30 684 H 73.0288 -4.65478 2.96706 0
M  V30 685 H 73.5058 -4.18334 1.33765 0
M  V30 686 H 74.1118 -3.25976 2.73166 0
M  V30 687 N 72.4269 -1.23603 -0.977757 0
M  V30 688 C 73.3569 -1.04401 -2.0886 0
M  V30 689 C 74.3379 0.0399052 -1.70053 0
M  V30 690 O 75.5229 -0.125246 -1.93796 0
M  V30 691 C 72.6529 -0.637269 -3.41403 0
M  V30 692 C 71.6069 -1.66883 -3.94124 0
M  V30 693 C 70.9329 -1.11745 -5.22893 0
M  V30 694 C 72.2329 -3.06247 -4.23096 0
M  V30 695 H 73.9269 -1.97316 -2.25182 0
M  V30 696 H 71.4729 -0.950096 -1.08209 0
M  V30 697 H 73.4259 -0.48998 -4.18542 0
M  V30 698 H 72.1499 0.327557 -3.24953 0
M  V30 699 H 70.8089 -1.80416 -3.19133 0
M  V30 700 H 70.4569 -0.143527 -5.02795 0
M  V30 701 H 70.1569 -1.80672 -5.59134 0
M  V30 702 H 71.6809 -0.982067 -6.02651 0
M  V30 703 H 73.0949 -2.96001 -4.90975 0
M  V30 704 H 71.4919 -3.72436 -4.70544 0
M  V30 705 H 72.5619 -3.55041 -3.30263 0
M  V30 706 N 73.905 1.17692 -1.04816 0
M  V30 707 C 74.852 2.21581 -0.645797 0
M  V30 708 C 75.822 1.62367 0.350159 0
M  V30 709 O 77.007 1.89254 0.242433 0
M  V30 710 C 74.147 3.45092 -0.0227568 0
M  V30 711 C 73.26 4.18613 -1.06709 0
M  V30 712 C 72.395 5.29602 -0.411767 0
M  V30 713 C 71.434 5.94904 -1.44067 0
M  V30 714 N 70.571 6.97414 -0.809781 0
M  V30 715 H 75.411 2.55353 -1.5362 0
M  V30 716 H 72.948 1.25438 -0.768364 0
M  V30 717 H 74.906 4.15679 0.35588 0
M  V30 718 H 73.536 3.11917 0.831122 0
M  V30 719 H 72.588 3.46779 -1.5636 0
M  V30 720 H 73.9 4.63293 -1.84827 0
M  V30 721 H 73.054 6.06696 0.0206623 0
M  V30 722 H 71.793 4.86045 0.401438 0
M  V30 723 H 70.798 5.16544 -1.88316 0
M  V30 724 H 72.023 6.40542 -2.25571 0
M  V30 725 H 69.969 6.55998 -0.0170186 0
M  V30 726 H 69.886 7.40386 -1.52856 0
M  V30 727 H 71.154 7.78463 -0.401999 0
M  V30 728 N 75.3831 0.828654 1.34056 0
M  V30 729 C 76.3301 0.252567 2.29414 0
M  V30 730 C 77.3001 -0.62588 1.53857 0
M  V30 731 O 78.4851 -0.566312 1.82202 0
M  V30 732 C 75.6251 -0.574831 3.40279 0
M  V30 733 C 74.7381 0.326499 4.30764 0
M  V30 734 C 73.8731 -0.511016 5.28736 0
M  V30 735 C 72.9121 0.389342 6.1086 0
M  V30 736 N 72.0491 -0.409439 7.00905 0
M  V30 737 H 76.8891 1.07108 2.78086 0
M  V30 738 H 74.4261 0.539677 1.36843 0
M  V30 739 H 76.3841 -1.06992 4.03248 0
M  V30 740 H 75.0141 -1.35841 2.92826 0
M  V30 741 H 74.0661 0.939837 3.68607 0
M  V30 742 H 75.3781 1.01857 4.88289 0
M  V30 743 H 74.5321 -1.07035 5.97184 0
M  V30 744 H 73.2711 -1.23657 4.71763 0
M  V30 745 H 72.2761 0.960769 5.4134 0
M  V30 746 H 73.5011 1.1131 6.69916 0
M  V30 747 H 71.4471 -1.11856 6.46393 0
M  V30 748 H 71.3641 0.224126 7.55668 0
M  V30 749 H 72.6321 -0.951336 7.73673 0
M  V30 750 N 76.8612 -1.46375 0.584142 0
M  V30 751 C 78.1382 -1.956 0.0033388 0
M  V30 752 C 78.5182 -1.52679 -1.45782 0
M  V30 753 O 77.8662 -0.77816 -2.14842 0
M  V30 754 C 78.0762 -3.48551 0.176891 0
M  V30 755 C 79.4242 -4.24576 0.0454609 0
M  V30 756 O 80.4482 -3.56043 0.105801 0
M  V30 757 O 79.3072 -5.46427 -0.0890376 0
M  V30 758 H 76.4012 -0.825547 -0.0490066 0
M  V30 759 H 78.9472 -1.56652 0.65256 0
M  V30 760 H 77.7192 -3.72683 1.1926 0
M  V30 761 H 77.3422 -3.94332 -0.508695 0
M  V30 762 N 78.3393 -0.321999 -1.54275 0
M  V30 763 C 79.3023 0.531975 -2.22941 0
M  V30 764 C 80.3023 1.04478 -1.22234 0
M  V30 765 O 81.4923 0.937452 -1.46825 0
M  V30 766 C 78.6243 1.73874 -2.93224 0
M  V30 767 H 79.8173 -0.0682612 -2.99822 0
M  V30 768 H 77.3703 -0.0730644 -1.56129 0
M  V30 769 H 78.1053 2.37825 -2.20476 0
M  V30 770 H 77.8903 1.37847 -3.6707 0
M  V30 771 H 79.3803 2.34496 -3.45545 0
M  V30 772 N 79.8174 1.5752 -0.0501392 0
M  V30 773 C 80.7644 2.1147 0.924603 0
M  V30 774 C 81.7344 1.02182 1.30951 0
M  V30 775 O 82.9194 1.29723 1.39916 0
M  V30 776 C 80.0594 2.66337 2.19451 0
M  V30 777 C 79.1724 3.89708 1.86418 0
M  V30 778 C 78.3074 4.32893 3.07859 0
M  V30 779 C 77.3464 5.48967 2.70742 0
M  V30 780 N 76.4834 5.87211 3.84874 0
M  V30 781 H 81.3234 2.94465 0.457639 0
M  V30 782 H 78.8604 1.45531 0.214266 0
M  V30 783 H 80.8184 2.96247 2.93758 0
M  V30 784 H 79.4484 1.86141 2.63726 0
M  V30 785 H 78.5004 3.66396 1.02264 0
M  V30 786 H 79.8124 4.74074 1.55096 0
M  V30 787 H 78.9664 4.6435 3.90466 0
M  V30 788 H 77.7054 3.47336 3.42358 0
M  V30 789 H 76.7104 5.17183 1.86551 0
M  V30 790 H 77.9354 6.3624 2.37436 0
M  V30 791 H 75.8814 5.04607 4.19175 0
M  V30 792 H 75.7984 6.66266 3.57247 0
M  V30 793 H 77.0664 6.23282 4.68123 0
M  V30 794 N 81.2955 -0.223234 1.56011 0
M  V30 795 C 82.2585 -1.26014 1.9145 0
M  V30 796 C 83.2585 -1.3989 0.792937 0
M  V30 797 O 84.4485 -1.38184 1.0607 0
M  V30 798 C 81.5805 -2.63422 2.16383 0
M  V30 799 H 82.7735 -0.95796 2.84189 0
M  V30 800 H 80.3265 -0.463576 1.49267 0
M  V30 801 H 81.0615 -2.98741 1.2619 0
M  V30 802 H 80.8465 -2.54728 2.98088 0
M  V30 803 H 82.3365 -3.38249 2.44903 0
M  V30 804 N 82.7736 -1.49793 -0.48987 0
M  V30 805 C 84.1846 -1.52914 -1.07118 0
M  V30 806 C 84.5356 -0.321738 -1.93544 0
M  V30 807 O 83.6606 0.567338 -2.08831 0
M  V30 808 C 84.2556 -2.771 -1.94938 0
M  V30 809 C 82.8146 -2.82963 -2.48212 0
M  V30 810 C 81.9616 -2.46972 -1.26096 0
M  V30 811 H 84.9126 -1.56329 -0.273289 0
M  V30 812 H 84.9336 -2.57892 -2.79771 0
M  V30 813 H 84.4456 -3.64959 -1.32009 0
M  V30 814 H 82.5466 -1.99411 -3.14748 0
M  V30 815 H 82.6596 -3.85406 -2.84603 0
M  V30 816 H 81.0236 -1.98994 -1.58976 0
M  V30 817 H 81.8066 -3.37118 -0.648581 0
M  V30 818 N 84.2517 0.741722 -1.39055 0
M  V30 819 C 85.2147 1.83733 -1.37021 0
M  V30 820 C 86.2147 1.58542 -0.268534 0
M  V30 821 O 87.4047 1.66067 -0.526076 0
M  V30 822 C 84.5367 3.2141 -1.13617 0
M  V30 823 H 85.7297 1.86941 -2.34506 0
M  V30 824 H 83.2827 0.944676 -1.24521 0
M  V30 825 H 84.0177 3.23865 -0.167863 0
M  V30 826 H 83.8027 3.4109 -1.93391 0
M  V30 827 H 85.2927 4.01477 -1.14918 0
M  V30 828 N 85.7298 1.2412 0.971189 0
M  V30 829 C 86.9548 1.10667 1.75407 0
M  V30 830 C 87.3798 -0.337048 1.85056 0
M  V30 831 O 86.7378 -1.24396 1.31892 0
M  V30 832 C 86.7858 1.74726 3.15441 0
M  V30 833 O 85.8898 1.01566 3.99697 0
M  V30 834 H 85.2308 0.387341 0.539317 0
M  V30 835 H 87.7608 1.64358 1.2185 0
M  V30 836 H 87.7708 1.80341 3.6598 0
M  V30 837 H 86.4458 2.79773 3.07734 0
M  V30 838 H 85.0228 1.03713 3.58187 0
M  V30 839 N 87.2079 -1.17134 1.05439 0
M  V30 840 C 88.1179 -2.24878 0.668365 0
M  V30 841 C 89.1339 -1.71186 -0.311687 0
M  V30 842 O 90.3099 -2.00738 -0.163161 0
M  V30 843 C 87.3749 -3.46662 0.051648 0
M  V30 844 C 86.4359 -4.15429 1.08246 0
M  V30 845 C 85.6689 -5.31399 0.495082 0
M  V30 846 O 85.8919 -5.66153 -0.694743 0
M  V30 847 O 84.8259 -5.89187 1.23056 0
M  V30 848 H 88.6519 -2.60189 1.56637 0
M  V30 849 H 86.2369 -1.24482 0.826104 0
M  V30 850 H 88.1189 -4.20394 -0.290966 0
M  V30 851 H 86.7939 -3.13142 -0.819971 0
M  V30 852 H 85.7009 -3.43704 1.47711 0
M  V30 853 H 87.0339 -4.52982 1.92532 0
M  V30 854 N 88.686 -0.835752 -1.33615 0
M  V30 855 C 89.633 -0.26473 -2.29277 0
M  V30 856 C 90.603 0.617712 -1.54187 0
M  V30 857 O 91.788 0.556641 -1.825 0
M  V30 858 C 88.928 0.556777 -3.40579 0
M  V30 859 C 88.041 -0.349339 -4.30585 0
M  V30 860 C 87.176 0.482969 -5.29 0
M  V30 861 C 86.215 -0.421732 -6.10645 0
M  V30 862 N 85.352 0.372262 -7.01112 0
M  V30 863 H 90.192 -1.08582 -2.77514 0
M  V30 864 H 87.729 -0.546927 -1.36554 0
M  V30 865 H 89.687 1.04852 -4.03809 0
M  V30 866 H 88.317 1.34286 -2.93542 0
M  V30 867 H 87.369 -0.959372 -3.68104 0
M  V30 868 H 88.681 -1.04445 -4.87742 0
M  V30 869 H 87.835 1.03866 -5.97743 0
M  V30 870 H 86.574 1.21153 -4.72412 0
M  V30 871 H 85.579 -0.989464 -5.40823 0
M  V30 872 H 86.804 -1.14861 -6.69316 0
M  V30 873 H 84.75 1.08426 -6.46977 0
M  V30 874 H 84.667 -0.264198 -7.55538 0
M  V30 875 H 85.935 0.910293 -7.74167 0
M  V30 876 N 90.1641 1.46063 -0.591896 0
M  V30 877 C 91.4121 2.01938 -0.0808391 0
M  V30 878 C 91.7331 1.46475 1.28725 0
M  V30 879 O 91.0031 0.652944 1.84698 0
M  V30 880 H 89.5831 0.746516 -0.0268938 0
M  V30 881 H 92.2451 1.79055 -0.769752 0
M  V30 882 H 91.3411 3.12094 -0.0187578 0
M  V30 883 N 91.6422 0.330177 1.54103 0
M  V30 884 C 92.9192 -0.325007 1.92881 0
M  V30 885 C 93.2992 -1.6934 1.26045 0
M  V30 886 O 92.6472 -2.24855 0.406526 0
M  V30 887 C 92.8572 -0.410634 3.46576 0
M  V30 888 C 94.2052 -0.667801 4.19316 0
M  V30 889 O 95.2292 -0.49329 3.52768 0
M  V30 890 O 94.0882 -1.00491 5.37181 0
M  V30 891 H 91.1822 -0.186873 0.80561 0
M  V30 892 H 93.7282 0.380376 1.65382 0
M  V30 893 H 92.5002 0.550164 3.87413 0
M  V30 894 H 92.1232 -1.16333 3.802 0
M  V30 895 N 93.1203 -1.57491 0.0584922 0
M  V30 896 C 94.3683 -1.92597 -0.612436 0
M  V30 897 C 94.6893 -0.938162 -1.70949 0
M  V30 898 O 93.9593 0.0158301 -1.95894 0
M  V30 899 H 92.5393 -0.710964 -0.229214 0
M  V30 900 H 95.2013 -1.94571 0.113218 0
M  V30 901 H 94.2973 -2.94038 -1.04633 0
M  V30 902 N 94.5984 0.214957 -1.56127 0
M  V30 903 C 95.8264 0.955092 -1.83536 0
M  V30 904 C 96.2414 1.77677 -0.638472 0
M  V30 905 O 95.5984 1.78219 0.392968 0
M  V30 906 C 95.6494 1.86734 -3.09536 0
M  V30 907 O 95.3704 1.07887 -4.24608 0
M  V30 908 C 96.8714 2.72082 -3.4998 0
M  V30 909 H 94.0914 0.279611 -0.609966 0
M  V30 910 H 96.6354 0.228197 -2.03223 0
M  V30 911 H 94.7904 2.5481 -2.91806 0
M  V30 912 H 95.2044 1.69872 -4.9623 0
M  V30 913 H 96.6784 3.31782 -4.41163 0
M  V30 914 H 97.1554 3.44806 -2.7204 0
M  V30 915 H 97.7614 2.09409 -3.70173 0
M  V30 916 N 96.0765 1.50051 0.48192 0
M  V30 917 C 97.0065 1.71046 1.58951 0
M  V30 918 C 97.9875 0.559288 1.60642 0
M  V30 919 O 99.1725 0.797243 1.77081 0
M  V30 920 C 96.3025 1.79462 2.97339 0
M  V30 921 C 95.2565 2.94558 3.10515 0
M  V30 922 C 94.5825 2.88105 4.50444 0
M  V30 923 C 95.8825 4.35227 2.88747 0
M  V30 924 H 97.5765 2.6378 1.41635 0
M  V30 925 H 95.1225 1.26936 0.679942 0
M  V30 926 H 97.0755 1.92734 3.74742 0
M  V30 927 H 95.7995 0.833412 3.15788 0
M  V30 928 H 94.4585 2.80918 2.35543 0
M  V30 929 H 94.1065 1.89853 4.65795 0
M  V30 930 H 93.8065 3.65366 4.60197 0
M  V30 931 H 95.3305 3.03412 5.29881 0
M  V30 932 H 96.7445 4.49449 3.55905 0
M  V30 933 H 95.1415 5.13856 3.09955 0
M  V30 934 H 96.2115 4.48347 1.84696 0
M  V30 935 N 97.5546 -0.734337 1.39446 0
M  V30 936 C 98.5176 -1.83004 1.37994 0
M  V30 937 C 99.5176 -1.58397 0.276938 0
M  V30 938 O 100.708 -1.65785 0.534875 0
M  V30 939 C 97.8396 -3.20802 1.1532 0
M  V30 940 H 99.0326 -1.85694 2.35494 0
M  V30 941 H 96.5856 -0.938059 1.25021 0
M  V30 942 H 97.3206 -3.23772 0.185036 0
M  V30 943 H 97.1056 -3.4006 1.95197 0
M  V30 944 H 98.5956 -4.00862 1.17046 0
M  V30 945 N 99.0327 -1.24633 -0.964593 0
M  V30 946 C 99.9647 -0.999302 -2.06268 0
M  V30 947 C 100.978 0.0323226 -1.62768 0
M  V30 948 O 102.167 -0.205079 -1.77318 0
M  V30 949 C 99.2667 -0.486816 -3.35385 0
M  V30 950 C 98.4397 -1.5823 -4.07777 0
M  V30 951 C 97.4987 -1.07191 -5.15166 0
M  V30 952 O 96.5247 -1.76426 -5.41168 0
M  V30 953 N 97.7267 0.0920373 -5.80427 0
M  V30 954 H 100.492 -1.94477 -2.28033 0
M  V30 955 H 98.0527 -1.15704 -1.13244 0
M  V30 956 H 100.045 -0.130066 -4.04491 0
M  V30 957 H 98.6147 0.364459 -3.10468 0
M  V30 958 H 97.8347 -2.11109 -3.32906 0
M  V30 959 H 99.1227 -2.31854 -4.52903 0
M  V30 960 H 98.5207 0.670784 -5.61709 0
M  V30 961 H 97.0777 0.389905 -6.50633 0
M  V30 962 N 100.511 1.16574 -1.06058 0
M  V30 963 C 101.922 1.68662 -0.800632 0
M  V30 964 C 102.273 1.84184 0.67608 0
M  V30 965 O 101.398 1.53568 1.52466 0
M  V30 966 C 101.993 3.06356 -1.44676 0
M  V30 967 C 100.552 3.55575 -1.23465 0
M  V30 968 C 99.6988 2.31616 -1.52477 0
M  V30 969 H 102.65 1.00969 -1.22438 0
M  V30 970 H 102.671 3.70636 -0.860788 0
M  V30 971 H 102.183 2.95027 -2.52152 0
M  V30 972 H 100.284 3.72167 -0.179527 0
M  V30 973 H 100.397 4.37812 -1.94571 0
M  V30 974 H 98.7608 2.36512 -0.945209 0
M  V30 975 H 99.5438 2.22887 -2.61106 0
M  V30 976 N 101.989 0.842826 1.3317 0
M  V30 977 C 103.214 0.453129 2.02389 0
M  V30 978 C 103.639 -0.939105 1.6298 0
M  V30 979 O 102.997 -1.61472 0.8244 0
M  V30 980 C 103.045 0.586094 3.55805 0
M  V30 981 O 102.149 -0.386029 4.10589 0
M  V30 982 H 101.49 0.183664 0.638094 0
M  V30 983 H 104.02 1.13875 1.69981 0
M  V30 984 H 104.03 0.469209 4.05293 0
M  V30 985 H 102.705 1.6014 3.83833 0
M  V30 986 H 101.282 -0.226371 3.72212 0
M  V30 987 N 103.467 -1.45747 0.599634 0
M  V30 988 C 104.695 -2.06668 0.0978551 0
M  V30 989 C 105.11 -1.44562 -1.21439 0
M  V30 990 O 104.467 -0.556923 -1.73795 0
M  V30 991 C 104.518 -3.61456 -0.0567044 0
M  V30 992 O 104.239 -4.21242 1.20361 0
M  V30 993 C 105.74 -4.39345 -0.590869 0
M  V30 994 H 102.96 -0.667825 0.0651943 0
M  V30 995 H 105.504 -1.87115 0.82511 0
M  V30 996 H 103.659 -3.80378 -0.734251 0
M  V30 997 H 104.073 -5.14323 1.02821 0
M  V30 998 H 105.547 -5.48182 -0.648131 0
M  V30 999 H 106.024 -4.08568 -1.61147 0
M  V30 1000 H 106.63 -4.25268 0.0523679 0
M  V30 1001 N 104.945 -0.338344 -1.53925 0
M  V30 1002 C 106.17 0.263987 -2.05713 0
M  V30 1003 C 106.595 1.43847 -1.21201 0
M  V30 1004 O 105.953 1.79904 -0.224535 0
M  V30 1005 C 106.001 0.662 -3.54471 0
M  V30 1006 O 105.105 1.76265 -3.72833 0
M  V30 1007 H 104.446 0.0448722 -0.662482 0
M  V30 1008 H 106.976 -0.491048 -1.9862 0
M  V30 1009 H 106.986 0.940594 -3.9701 0
M  V30 1010 H 105.661 -0.196937 -4.15433 0
M  V30 1011 H 104.238 1.48173 -3.42198 0
M  V30 1012 N 106.423 1.57458 -0.0668435 0
M  V30 1013 C 107.648 1.9804 0.616027 0
M  V30 1014 C 108.073 0.944771 1.62652 0
M  V30 1015 O 107.431 -0.0902094 1.81075 0
M  V30 1016 C 107.479 3.37665 1.26549 0
M  V30 1017 O 106.583 3.36701 2.38131 0
M  V30 1018 H 105.924 0.644719 0.158849 0
M  V30 1019 H 108.454 2.04121 -0.139891 0
M  V30 1020 H 108.464 3.7474 1.6135 0
M  V30 1021 H 107.139 4.12573 0.525016 0
M  V30 1022 H 105.716 3.1139 2.0516 0
M  V30 1023 N 107.901 -0.206675 1.56239 0
M  V30 1024 C 108.833 -1.27997 1.9013 0
M  V30 1025 C 109.846 -1.42299 0.790883 0
M  V30 1026 O 111.035 -1.42931 1.06925 0
M  V30 1027 C 108.135 -2.65368 2.10792 0
M  V30 1028 C 107.308 -2.72824 3.41886 0
M  V30 1029 C 106.367 -3.9131 3.51799 0
M  V30 1030 O 105.393 -3.78953 4.24716 0
M  V30 1031 N 106.595 -5.06265 2.84035 0
M  V30 1032 H 109.36 -0.992444 2.82791 0
M  V30 1033 H 106.921 -0.396652 1.56966 0
M  V30 1034 H 108.913 -3.43039 2.14724 0
M  V30 1035 H 107.483 -2.86657 1.24685 0
M  V30 1036 H 106.703 -1.81515 3.49923 0
M  V30 1037 H 107.991 -2.74786 4.28217 0
M  V30 1038 H 107.389 -5.19203 2.246 0
M  V30 1039 H 105.946 -5.81925 2.93609 0
M  V30 1040 N 109.379 -1.50304 -0.473955 0
M  V30 1041 C 110.627 -1.60832 -1.22382 0
M  V30 1042 C 110.948 -0.30939 -1.9253 0
M  V30 1043 O 110.218 0.67296 -1.83978 0
M  V30 1044 H 108.798 -0.592652 -0.454723 0
M  V30 1045 H 111.46 -1.87068 -0.546968 0
M  V30 1046 H 110.556 -2.41803 -1.97327 0
M  V30 1047 N 110.857 0.726932 -1.39834 0
M  V30 1048 C 112.268 1.30558 -1.3346 0
M  V30 1049 C 112.619 1.962 -0.00273003 0
M  V30 1050 O 111.744 1.96826 0.899371 0
M  V30 1051 C 112.339 2.37404 -2.41713 0
M  V30 1052 C 110.898 2.90921 -2.38835 0
M  V30 1053 C 110.045 1.64578 -2.2318 0
M  V30 1054 H 112.996 0.523862 -1.49804 0
M  V30 1055 H 113.017 3.17984 -2.08966 0
M  V30 1056 H 112.529 1.89599 -3.38635 0
M  V30 1057 H 110.63 3.42985 -1.45575 0
M  V30 1058 H 110.743 3.43487 -3.33997 0
M  V30 1059 H 109.107 1.89219 -1.70494 0
M  V30 1060 H 109.89 1.18814 -3.22084 0
M  V30 1061 N 112.336 1.25143 0.95797 0
M  V30 1062 C 113.283 1.05235 2.05412 0
M  V30 1063 C 114.253 -0.0374561 1.66058 0
M  V30 1064 O 115.438 0.119073 1.90428 0
M  V30 1065 C 112.578 0.673589 3.38462 0
M  V30 1066 C 111.691 1.8379 3.90954 0
M  V30 1067 C 110.826 1.40381 5.12315 0
M  V30 1068 C 109.865 2.53746 5.57027 0
M  V30 1069 N 109.002 2.11136 6.69601 0
M  V30 1070 H 113.842 1.99048 2.21774 0
M  V30 1071 H 111.379 0.991277 1.08683 0
M  V30 1072 H 113.337 0.434964 4.14926 0
M  V30 1073 H 111.967 -0.227554 3.21997 0
M  V30 1074 H 111.019 2.18992 3.11041 0
M  V30 1075 H 112.331 2.68937 4.20089 0
M  V30 1076 H 111.485 1.12464 5.96185 0
M  V30 1077 H 110.224 0.523015 4.84887 0
M  V30 1078 H 109.229 2.82412 4.71724 0
M  V30 1079 H 110.454 3.42398 5.86464 0
M  V30 1080 H 108.4 1.25468 6.4389 0
M  V30 1081 H 108.317 2.89832 6.98236 0
M  V30 1082 H 109.585 1.86385 7.56889 0
M  V30 1083 N 113.814 -1.1601 1.06675 0
M  V30 1084 C 115.062 -1.86264 0.784229 0
M  V30 1085 C 115.383 -1.82328 -0.691488 0
M  V30 1086 O 114.653 -1.25947 -1.50047 0
M  V30 1087 H 113.233 -0.689621 0.28711 0
M  V30 1088 H 115.895 -1.40664 1.34906 0
M  V30 1089 H 114.991 -2.91595 1.11259 0
M  V30 1090 N 115.292 -0.849877 -1.32721 0
M  V30 1091 C 116.202 -0.293791 -2.32753 0
M  V30 1092 C 117.218 0.585906 -1.63839 0
M  V30 1093 O 118.394 0.487413 -1.95413 0
M  V30 1094 C 115.459 0.512752 -3.42887 0
M  V30 1095 C 114.52 -0.39252 -4.27502 0
M  V30 1096 C 113.753 0.375625 -5.32377 0
M  V30 1097 O 113.976 1.60613 -5.4732 0
M  V30 1098 O 112.91 -0.256094 -6.01355 0
M  V30 1099 H 116.736 -1.12242 -2.82197 0
M  V30 1100 H 114.321 -0.612685 -1.36259 0
M  V30 1101 H 116.203 0.970704 -4.10067 0
M  V30 1102 H 114.878 1.31826 -2.95641 0
M  V30 1103 H 113.785 -0.898547 -3.63149 0
M  V30 1104 H 115.118 -1.16309 -4.7826 0
M  V30 1105 N 116.77 1.45427 -0.607355 0
M  V30 1106 C 118.018 2.01841 -0.102253 0
M  V30 1107 C 118.339 1.47832 1.27164 0
M  V30 1108 O 117.609 0.672497 1.83995 0
M  V30 1109 H 116.189 0.746188 -0.0348101 0
M  V30 1110 H 118.851 1.78229 -0.7887 0
M  V30 1111 H 117.947 3.12057 -0.0518585 0
M  V30 1112 N 118.248 0.346503 1.53744 0
M  V30 1113 C 119.525 -0.304532 1.93215 0
M  V30 1114 C 119.905 -1.67993 1.27834 0
M  V30 1115 O 119.253 -2.24411 0.430352 0
M  V30 1116 C 119.463 -0.373852 3.46992 0
M  V30 1117 C 120.811 -0.62329 4.2 0
M  V30 1118 O 121.835 -0.455847 3.53271 0
M  V30 1119 O 120.694 -0.947879 5.38217 0
M  V30 1120 H 117.788 -0.178318 0.807547 0
M  V30 1121 H 120.334 0.397895 1.64969 0
M  V30 1122 H 119.106 0.591224 3.86808 0
M  V30 1123 H 118.729 -1.12294 3.81413 0
M  V30 1124 N 119.726 -1.57421 0.075193 0
M  V30 1125 C 121.142 -1.57099 -0.281444 0
M  V30 1126 C 121.342 -1.08486 -1.69803 0
M  V30 1127 O 120.398 -0.752279 -2.41033 0
M  V30 1128 C 121.711 -3.00571 -0.0880041 0
M  V30 1129 C 123.259 -3.12605 -0.157281 0
M  V30 1130 C 123.734 -4.57999 0.0079207 0
M  V30 1131 N 125.225 -4.63176 -0.0475725 0
M  V30 1132 C 125.96 -5.73373 0.0557876 0
M  V30 1133 N 125.456 -6.92473 0.21286 0
M  V30 1134 N 127.249 -5.621 -0.00152098 0
M  V30 1135 H 119.4 -1.87335 1.00098 0
M  V30 1136 H 121.663 -0.86377 0.390646 0
M  V30 1137 H 121.369 -3.40262 0.889629 0
M  V30 1138 H 121.243 -3.67754 -0.838875 0
M  V30 1139 H 123.63 -2.72798 -1.1254 0
M  V30 1140 H 123.711 -2.48053 0.62475 0
M  V30 1141 H 123.355 -4.98496 0.972824 0
M  V30 1142 H 123.285 -5.20586 -0.793556 0
M  V30 1143 H 125.776 -3.7753 -0.167244 0
M  V30 1144 H 126.089 -7.72279 0.283781 0
M  V30 1145 H 124.434 -6.94556 0.248267 0
M  V30 1146 H 127.625 -4.67938 -0.122958 0
M  V30 1147 H 127.798 -6.47948 0.0824844 0
M  V30 1148 N 121.204 0.198386 -1.56346 0
M  V30 1149 C 122.452 0.91747 -1.80075 0
M  V30 1150 C 122.773 1.83929 -0.647692 0
M  V30 1151 O 122.043 1.93029 0.334166 0
M  V30 1152 H 120.623 0.341774 -0.664228 0
M  V30 1153 H 123.285 0.204684 -1.93822 0
M  V30 1154 H 122.381 1.51055 -2.7311 0
M  V30 1155 N 122.682 1.50554 0.465978 0
M  V30 1156 C 123.93 1.61479 1.21528 0
M  V30 1157 C 124.251 0.319596 1.92363 0
M  V30 1158 O 123.521 -0.663194 1.84333 0
M  V30 1159 H 122.101 0.595055 0.451573 0
M  V30 1160 H 124.763 1.87355 0.53704 0
M  V30 1161 H 123.859 2.42846 1.96042 0
M  V30 1162 N 124.16 -0.719506 1.40217 0
M  V30 1163 C 125.408 -1.47641 1.3801 0
M  V30 1164 C 125.729 -1.94992 -0.018145 0
M  V30 1165 O 124.999 -1.70073 -0.972207 0
M  V30 1166 H 123.579 -0.547744 0.507923 0
M  V30 1167 H 126.241 -0.853187 1.75233 0
M  V30 1168 H 125.337 -2.35112 2.05253 0
M  V30 1169 N 125.638 -1.25649 -0.95132 0
M  V30 1170 C 127.049 -1.09654 -1.51106 0
M  V30 1171 C 127.4 0.326615 -1.93462 0
M  V30 1172 O 126.525 1.21697 -1.78938 0
M  V30 1173 C 127.12 -1.98437 -2.74605 0
M  V30 1174 C 125.679 -1.86618 -3.2688 0
M  V30 1175 C 124.826 -1.9239 -1.99703 0
M  V30 1176 H 127.777 -1.38887 -0.767865 0
M  V30 1177 H 127.798 -1.5263 -3.48546 0
M  V30 1178 H 127.31 -3.02009 -2.43746 0
M  V30 1179 H 125.411 -0.859421 -3.62553 0
M  V30 1180 H 125.524 -2.71607 -3.94673 0
M  V30 1181 H 123.888 -1.36317 -2.15151 0
M  V30 1182 H 124.671 -2.97573 -1.71188 0
M  V30 1183 N 127.117 1.15442 -1.07289 0
M  V30 1184 C 128.08 2.18358 -0.696591 0
M  V30 1185 C 129.08 1.58637 0.262837 0
M  V30 1186 O 130.27 1.74145 0.0438809 0
M  V30 1187 C 127.402 3.4089 -0.0266151 0
M  V30 1188 H 128.595 2.53162 -1.60776 0
M  V30 1189 H 126.148 1.29893 -0.869342 0
M  V30 1190 H 126.883 3.11653 0.896822 0
M  V30 1191 H 126.668 3.85495 -0.716657 0
M  V30 1192 H 128.158 4.17009 0.222028 0
M  V30 1193 N 128.595 0.856903 1.32268 0
M  V30 1194 C 129.505 0.306131 2.32594 0
M  V30 1195 C 130.521 -0.577209 1.64147 0
M  V30 1196 O 131.697 -0.477043 1.95669 0
M  V30 1197 C 128.762 -0.494561 3.43154 0
M  V30 1198 C 127.823 0.415186 4.27288 0
M  V30 1199 C 127.056 -0.347387 5.32568 0
M  V30 1200 O 127.279 -1.57708 5.48165 0
M  V30 1201 O 126.213 0.287982 6.01211 0
M  V30 1202 H 130.039 1.13737 2.81598 0
M  V30 1203 H 127.624 0.619902 1.35932 0
M  V30 1204 H 129.506 -0.948944 4.10576 0
M  V30 1205 H 128.181 -1.30257 2.96336 0
M  V30 1206 H 127.088 0.917793 3.62667 0
M  V30 1207 H 128.421 1.18844 4.77637 0
M  V30 1208 N 130.073 -1.45103 0.615059 0
M  V30 1209 C 131.321 -2.01784 0.112955 0
M  V30 1210 C 131.642 -1.48504 -1.26378 0
M  V30 1211 O 130.912 -0.682245 -1.83636 0
M  V30 1212 H 129.492 -0.745993 0.0387668 0
M  V30 1213 H 132.154 -1.77808 0.798141 0
M  V30 1214 H 131.25 -3.12025 0.0684069 0
M  V30 1215 N 131.551 -0.354651 -1.53558 0
M  V30 1216 C 132.776 0.242153 -2.05981 0
M  V30 1217 C 133.201 1.42553 -1.2272 0
M  V30 1218 O 132.559 1.79656 -0.243604 0
M  V30 1219 C 132.607 0.624367 -3.55154 0
M  V30 1220 O 131.711 1.72301 -3.74681 0
M  V30 1221 H 131.052 0.0378432 -0.662921 0
M  V30 1222 H 133.582 -0.512087 -1.98088 0
M  V30 1223 H 133.592 0.898433 -3.97985 0
M  V30 1224 H 132.267 -0.240989 -4.15201 0
M  V30 1225 H 130.844 1.44535 -3.4375 0
M  V30 1226 N 133.029 1.57378 -0.0835403 0
M  V30 1227 C 133.992 2.12252 0.864959 0
M  V30 1228 C 134.992 1.04916 1.21858 0
M  V30 1229 O 136.182 1.30853 1.14991 0
M  V30 1230 C 133.314 2.63358 2.16461 0
M  V30 1231 H 134.507 2.97371 0.388676 0
M  V30 1232 H 132.06 1.55423 0.165317 0
M  V30 1233 H 132.795 1.81727 2.686 0
M  V30 1234 H 132.58 3.41826 1.92087 0
M  V30 1235 H 134.07 3.05847 2.84337 0
M  V30 1236 N 134.507 -0.190092 1.56449 0
M  V30 1237 C 135.755 -0.907908 1.80559 0
M  V30 1238 C 136.076 -1.83583 0.657438 0
M  V30 1239 O 135.346 -1.93203 -0.323924 0
M  V30 1240 H 133.926 -0.338247 0.666032 0
M  V30 1241 H 136.588 -0.194403 1.93928 0
M  V30 1242 H 135.684 -1.49604 2.73907 0
M  V30 1243 N 135.985 -1.50799 -0.457987 0
M  V30 1244 C 137.396 -1.55152 -1.0385 0
M  V30 1245 C 137.747 -0.362719 -1.92818 0
M  V30 1246 O 136.872 0.522915 -2.09987 0
M  V30 1247 C 137.467 -2.81173 -1.89017 0
M  V30 1248 C 136.026 -2.88164 -2.42154 0
M  V30 1249 C 135.173 -2.49591 -1.20829 0
M  V30 1250 H 138.124 -1.56874 -0.240068 0
M  V30 1251 H 138.145 -2.63769 -2.74238 0
M  V30 1252 H 137.657 -3.67677 -1.24238 0
M  V30 1253 H 135.758 -2.06042 -3.10447 0
M  V30 1254 H 135.871 -3.91356 -2.76364 0
M  V30 1255 H 134.235 -2.02322 -1.54719 0
M  V30 1256 H 135.018 -3.38418 -0.576927 0
M  V30 1257 N 137.463 0.71206 -1.40597 0
M  V30 1258 C 138.874 1.29135 -1.34837 0
M  V30 1259 C 139.225 1.96186 -0.0235395 0
M  V30 1260 O 138.35 1.97768 0.878444 0
M  V30 1261 C 138.945 2.34827 -2.44217 0
M  V30 1262 C 137.504 2.88371 -2.41907 0
M  V30 1263 C 136.651 1.62202 -2.24913 0
M  V30 1264 H 139.602 0.507944 -1.50352 0
M  V30 1265 H 139.623 3.15749 -2.12327 0
M  V30 1266 H 139.135 1.85996 -3.40627 0
M  V30 1267 H 137.236 3.41422 -1.49204 0
M  V30 1268 H 137.349 3.39925 -3.37621 0
M  V30 1269 H 135.713 1.874 -1.72492 0
M  V30 1270 H 136.496 1.15391 -3.23326 0
M  V30 1271 N 138.941 1.26152 0.944643 0
M  V30 1272 C 139.904 1.07474 2.0244 0
M  V30 1273 C 140.904 0.0242064 1.60782 0
M  V30 1274 O 142.094 0.267302 1.72137 0
M  V30 1275 C 139.226 0.633956 3.34953 0
M  V30 1276 H 140.419 2.03336 2.20442 0
M  V30 1277 H 137.972 1.087 1.12312 0
M  V30 1278 H 138.707 -0.326811 3.22649 0
M  V30 1279 H 138.492 1.39247 3.66542 0
M  V30 1280 H 139.982 0.52501 4.14287 0
M  V30 1281 N 140.419 -1.14872 1.07899 0
M  V30 1282 C 141.382 -2.17986 0.708161 0
M  V30 1283 C 142.382 -1.58775 -0.25442 0
M  V30 1284 O 143.572 -1.74166 -0.034645 0
M  V30 1285 C 140.704 -3.40871 0.0446929 0
M  V30 1286 H 141.897 -2.52306 1.62116 0
M  V30 1287 H 139.45 -1.2943 0.876218 0
M  V30 1288 H 140.185 -3.12124 -0.880281 0
M  V30 1289 H 139.97 -3.8511 0.737091 0
M  V30 1290 H 141.46 -4.17121 -0.19991 0
M  V30 1291 N 141.898 -0.863906 -1.31812 0
M  V30 1292 C 142.828 -0.330843 -2.31144 0
M  V30 1293 C 143.809 0.575005 -1.60087 0
M  V30 1294 O 144.994 0.493304 -1.8783 0
M  V30 1295 C 142.124 0.47374 -3.44054 0
M  V30 1296 C 141.078 -0.338481 -4.26659 0
M  V30 1297 C 140.404 0.591412 -5.31419 0
M  V30 1298 C 141.704 -1.56926 -4.98168 0
M  V30 1299 H 143.398 -1.16086 -2.75979 0
M  V30 1300 H 140.944 -0.559657 -1.32679 0
M  V30 1301 H 142.897 0.857143 -4.12591 0
M  V30 1302 H 141.621 1.33721 -2.9797 0
M  V30 1303 H 140.28 -0.703754 -3.59782 0
M  V30 1304 H 139.928 1.45199 -4.81587 0
M  V30 1305 H 139.628 0.0519022 -5.87577 0
M  V30 1306 H 141.152 0.97179 -6.02817 0
M  V30 1307 H 142.566 -1.25764 -5.59336 0
M  V30 1308 H 140.963 -2.04739 -5.64094 0
M  V30 1309 H 142.033 -2.32544 -4.25501 0
M  V30 1310 N 143.376 1.44774 -0.622745 0
M  V30 1311 C 144.787 1.85546 -0.207226 0
M  V30 1312 C 145.138 1.52093 1.23944 0
M  V30 1313 O 144.263 0.95492 1.94191 0
M  V30 1314 C 144.858 3.36781 -0.369313 0
M  V30 1315 C 143.417 3.76399 -0.00836847 0
M  V30 1316 C 142.564 2.68664 -0.686651 0
M  V30 1317 H 145.515 1.3536 -0.828454 0
M  V30 1318 H 145.536 3.78453 0.394162 0
M  V30 1319 H 145.048 3.61098 -1.42231 0
M  V30 1320 H 143.149 3.57698 1.04322 0
M  V30 1321 H 143.262 4.7732 -0.412584 0
M  V30 1322 H 141.626 2.54404 -0.122777 0
M  V30 1323 H 142.409 2.95815 -1.74208 0
M  V30 1324 N 144.854 0.36279 1.53368 0
M  V30 1325 C 145.786 -0.519668 2.23231 0
M  V30 1326 C 146.799 -1.04844 1.24546 0
M  V30 1327 O 147.988 -0.955296 1.50786 0
M  V30 1328 C 145.088 -1.72995 2.9142 0
M  V30 1329 C 144.261 -1.33316 4.16588 0
M  V30 1330 C 143.32 -2.40521 4.68013 0
M  V30 1331 O 142.346 -2.03027 5.3176 0
M  V30 1332 N 143.548 -3.72065 4.45587 0
M  V30 1333 H 146.313 0.078751 2.99597 0
M  V30 1334 H 143.874 0.187833 1.60807 0
M  V30 1335 H 145.866 -2.44184 3.22733 0
M  V30 1336 H 144.436 -2.2353 2.18525 0
M  V30 1337 H 143.656 -0.451236 3.91609 0
M  V30 1338 H 144.944 -1.04432 4.97967 0
M  V30 1339 H 144.342 -4.05304 3.94646 0
M  V30 1340 H 142.899 -4.39366 4.81457 0
M  V30 1341 N 146.332 -1.57332 0.0918853 0
M  V30 1342 C 147.264 -2.10869 -0.898168 0
M  V30 1343 C 148.277 -1.04521 -1.24817 0
M  V30 1344 O 149.466 -1.31977 -1.20184 0
M  V30 1345 C 146.566 -2.57083 -2.2082 0
M  V30 1346 C 145.739 -3.87229 -2.03402 0
M  V30 1347 C 144.798 -4.19324 -3.17889 0
M  V30 1348 O 143.824 -4.88598 -2.91994 0
M  V30 1349 N 145.026 -3.74471 -4.43567 0
M  V30 1350 H 147.791 -2.96439 -0.440943 0
M  V30 1351 H 145.352 -1.61631 -0.0933064 0
M  V30 1352 H 147.344 -2.75602 -2.96354 0
M  V30 1353 H 145.914 -1.76541 -2.57977 0
M  V30 1354 H 145.134 -3.7789 -1.12218 0
M  V30 1355 H 146.422 -4.72379 -1.89038 0
M  V30 1356 H 145.82 -3.18546 -4.67488 0
M  V30 1357 H 144.377 -3.98151 -5.16061 0
M  V30 1358 N 147.81 0.181792 -1.56548 0
M  V30 1359 C 149.038 0.915947 -1.85521 0
M  V30 1360 C 149.453 1.76282 -0.676016 0
M  V30 1361 O 148.81 1.79012 0.355077 0
M  V30 1362 C 148.861 1.80126 -3.13427 0
M  V30 1363 O 148.582 0.988562 -4.26801 0
M  V30 1364 C 150.083 2.64597 -3.55673 0
M  V30 1365 H 147.303 0.26661 -0.61576 0
M  V30 1366 H 149.847 0.185039 -2.03661 0
M  V30 1367 H 148.002 2.48563 -2.97145 0
M  V30 1368 H 148.416 1.59308 -4.99721 0
M  V30 1369 H 149.89 3.2235 -4.48101 0
M  V30 1370 H 150.367 3.38958 -2.79292 0
M  V30 1371 H 150.973 2.0151 -3.74532 0
M  V30 1372 N 149.288 1.51039 0.449983 0
M  V30 1373 C 150.251 1.70863 1.5277 0
M  V30 1374 C 151.251 0.578846 1.5002 0
M  V30 1375 O 152.441 0.846213 1.52266 0
M  V30 1376 C 149.573 1.75341 2.9235 0
M  V30 1377 H 150.766 2.67034 1.36502 0
M  V30 1378 H 148.319 1.40838 0.677812 0
M  V30 1379 H 149.054 0.809383 3.14037 0
M  V30 1380 H 148.839 2.57436 2.95752 0
M  V30 1381 H 150.329 1.92559 3.70555 0
M  V30 1382 N 150.766 -0.704594 1.40972 0
M  V30 1383 C 151.994 -1.49354 1.43182 0
M  V30 1384 C 152.409 -1.88768 0.0345508 0
M  V30 1385 O 151.766 -1.56184 -0.944081 0
M  V30 1386 C 151.817 -2.76187 2.33244 0
M  V30 1387 O 151.538 -2.38436 3.67532 0
M  V30 1388 C 153.039 -3.7 2.44162 0
M  V30 1389 H 150.259 -0.460559 0.487982 0
M  V30 1390 H 152.803 -0.868261 1.85153 0
M  V30 1391 H 150.958 -3.34974 1.94606 0
M  V30 1392 H 151.372 -3.20126 4.15475 0
M  V30 1393 H 152.846 -4.55803 3.11364 0
M  V30 1394 H 153.323 -4.13867 1.47006 0
M  V30 1395 H 153.929 -3.17121 2.83398 0
M  V30 1396 N 152.244 -1.26651 -0.937939 0
M  V30 1397 C 153.655 -1.1125 -1.49934 0
M  V30 1398 C 154.006 0.306077 -1.93798 0
M  V30 1399 O 153.131 1.19792 -1.80219 0
M  V30 1400 C 153.726 -2.01339 -2.72485 0
M  V30 1401 C 152.285 -1.90074 -3.24883 0
M  V30 1402 C 151.432 -1.94498 -1.97651 0
M  V30 1403 H 154.383 -1.39693 -0.753091 0
M  V30 1404 H 154.404 -1.56319 -3.46907 0
M  V30 1405 H 153.916 -3.04577 -2.40529 0
M  V30 1406 H 152.017 -0.897827 -3.61621 0
M  V30 1407 H 152.13 -2.75778 -3.9177 0
M  V30 1408 H 150.494 -1.38591 -2.13693 0
M  V30 1409 H 151.277 -2.99372 -1.68022 0
M  V30 1410 N 153.722 1.14298 -1.08507 0
M  V30 1411 C 154.632 2.23027 -0.727753 0
M  V30 1412 C 155.648 1.71952 0.26619 0
M  V30 1413 O 156.824 2.011 0.109882 0
M  V30 1414 C 153.889 3.46403 -0.143541 0
M  V30 1415 C 152.95 4.12413 -1.19223 0
M  V30 1416 C 152.183 5.29899 -0.635798 0
M  V30 1417 O 152.406 5.67796 0.544393 0
M  V30 1418 O 151.34 5.85717 -1.38634 0
M  V30 1419 H 155.166 2.55945 -1.63481 0
M  V30 1420 H 152.751 1.22248 -0.858817 0
M  V30 1421 H 154.633 4.21018 0.179404 0
M  V30 1422 H 153.308 3.15206 0.736659 0
M  V30 1423 H 152.215 3.39667 -1.56772 0
M  V30 1424 H 153.548 4.47718 -2.04474 0
M  V30 1425 N 155.201 0.870884 1.31352 0
M  V30 1426 C 156.429 0.49677 2.00848 0
M  V30 1427 C 156.844 -0.910998 1.65367 0
M  V30 1428 O 156.201 -1.59696 0.883374 0
M  V30 1429 C 156.252 0.645308 3.55694 0
M  V30 1430 O 155.973 1.99764 3.89905 0
M  V30 1431 C 157.474 0.272326 4.42463 0
M  V30 1432 H 154.694 0.193462 0.642506 0
M  V30 1433 H 157.238 1.1723 1.67563 0
M  V30 1434 H 155.393 0.0173176 3.87396 0
M  V30 1435 H 155.807 2.00607 4.84621 0
M  V30 1436 H 157.281 0.427208 5.50344 0
M  V30 1437 H 157.758 -0.788587 4.32062 0
M  V30 1438 H 158.364 0.876054 4.1618 0
M  V30 1439 N 156.679 -1.44442 0.630414 0
M  V30 1440 C 157.904 -2.06927 0.139944 0
M  V30 1441 C 158.329 -1.46795 -1.17613 0
M  V30 1442 O 157.687 -0.569144 -1.72135 0
M  V30 1443 C 157.735 -3.6058 0.0379581 0
M  V30 1444 O 156.839 -3.99937 -1.0062 0
M  V30 1445 H 156.18 -0.658608 0.0844483 0
M  V30 1446 H 158.71 -1.85327 0.866891 0
M  V30 1447 H 158.72 -4.07714 -0.152856 0
M  V30 1448 H 157.395 -4.03728 0.998809 0
M  V30 1449 H 155.972 -3.64436 -0.79001 0
M  V30 1450 N 158.157 -0.370918 -1.53173 0
M  V30 1451 C 159.403 0.217423 -2.01631 0
M  V30 1452 C 159.736 1.47983 -1.25756 0
M  V30 1453 O 159.011 1.91274 -0.352764 0
M  V30 1454 C 159.294 0.503982 -3.56556 0
M  V30 1455 C 159.147 -0.77243 -4.43118 0
M  V30 1456 C 160.466 1.30234 -4.20389 0
M  V30 1457 H 157.585 0.0775486 -0.732909 0
M  V30 1458 H 160.227 -0.496863 -1.83388 0
M  V30 1459 H 158.377 1.11248 -3.72231 0
M  V30 1460 H 160.049 -1.4098 -4.39229 0
M  V30 1461 H 158.292 -1.39167 -4.10871 0
M  V30 1462 H 158.963 -0.526815 -5.4948 0
M  V30 1463 H 161.439 0.787546 -4.08579 0
M  V30 1464 H 160.315 1.47158 -5.28806 0
M  V30 1465 H 160.576 2.31237 -3.76805 0
M  V30 1466 N 159.635 1.57281 -0.100228 0
M  V30 1467 C 160.582 2.14305 0.856858 0
M  V30 1468 C 161.552 1.06296 1.27634 0
M  V30 1469 O 162.737 1.34109 1.35718 0
M  V30 1470 C 159.877 2.73184 2.10866 0
M  V30 1471 C 158.99 3.95442 1.73925 0
M  V30 1472 C 158.125 4.42468 2.93931 0
M  V30 1473 C 157.164 5.57303 2.5314 0
M  V30 1474 N 156.301 5.99158 3.65997 0
M  V30 1475 H 161.141 2.95772 0.363726 0
M  V30 1476 H 158.678 1.46139 0.167858 0
M  V30 1477 H 160.636 3.05442 2.84185 0
M  V30 1478 H 159.266 1.94437 2.57671 0
M  V30 1479 H 158.318 3.69464 0.905554 0
M  V30 1480 H 159.63 4.78769 1.39935 0
M  V30 1481 H 158.784 4.76537 3.75496 0
M  V30 1482 H 157.523 3.58052 3.31134 0
M  V30 1483 H 156.528 5.22857 1.70003 0
M  V30 1484 H 157.753 6.43471 2.17075 0
M  V30 1485 H 155.699 5.17687 4.02909 0
M  V30 1486 H 155.616 6.77295 3.35869 0
M  V30 1487 H 156.884 6.3786 4.48057 0
M  V30 1488 N 161.113 -0.173488 1.56642 0
M  V30 1489 C 162.06 -1.21482 1.96242 0
M  V30 1490 C 163.03 -1.44104 0.826027 0
M  V30 1491 O 164.215 -1.5688 1.08597 0
M  V30 1492 C 161.355 -2.54964 2.32567 0
M  V30 1493 C 160.468 -2.39739 3.59373 0
M  V30 1494 C 159.603 -3.66072 3.84921 0
M  V30 1495 C 158.642 -3.45771 5.05083 0
M  V30 1496 N 157.779 -4.64169 5.26775 0
M  V30 1497 H 162.619 -0.870123 2.85014 0
M  V30 1498 H 160.156 -0.418245 1.41029 0
M  V30 1499 H 162.114 -3.32758 2.5165 0
M  V30 1500 H 160.744 -2.87433 1.46908 0
M  V30 1501 H 159.796 -1.53131 3.48217 0
M  V30 1502 H 161.108 -2.20683 4.47326 0
M  V30 1503 H 160.262 -4.52303 4.0436 0
M  V30 1504 H 159.001 -3.88105 2.9534 0
M  V30 1505 H 158.006 -2.57927 4.85545 0
M  V30 1506 H 159.231 -3.25163 5.96193 0
M  V30 1507 H 157.177 -4.86425 4.40144 0
M  V30 1508 H 157.094 -4.48019 6.08946 0
M  V30 1509 H 158.362 -5.51689 5.5069 0
M  V30 1510 N 162.591 -1.51276 -0.441967 0
M  V30 1511 C 164.002 -1.56244 -1.02199 0
M  V30 1512 C 164.353 -0.383149 -1.92422 0
M  V30 1513 O 163.478 0.500613 -2.1053 0
M  V30 1514 C 164.073 -2.83162 -1.86024 0
M  V30 1515 C 162.632 -2.90716 -2.39084 0
M  V30 1516 C 161.779 -2.50858 -1.18175 0
M  V30 1517 H 164.73 -1.5712 -0.223416 0
M  V30 1518 H 164.751 -2.66663 -2.71425 0
M  V30 1519 H 164.263 -3.68974 -1.20331 0
M  V30 1520 H 162.364 -2.09323 -3.08244 0
M  V30 1521 H 162.477 -3.94266 -2.72198 0
M  V30 1522 H 160.841 -2.03951 -1.52565 0
M  V30 1523 H 161.624 -3.3901 -0.541001 0
M  V30 1524 N 164.069 0.697108 -1.41344 0
M  V30 1525 C 165.016 1.81106 -1.43071 0
M  V30 1526 C 165.986 1.63632 -0.285275 0
M  V30 1527 O 167.171 1.84504 -0.486091 0
M  V30 1528 C 164.311 3.18975 -1.31715 0
M  V30 1529 C 163.424 3.47892 -2.56115 0
M  V30 1530 C 162.559 4.75367 -2.37064 0
M  V30 1531 C 161.598 4.97247 -3.56948 0
M  V30 1532 N 160.735 6.15947 -3.36977 0
M  V30 1533 H 165.575 1.78965 -2.38276 0
M  V30 1534 H 163.112 0.873975 -1.18322 0
M  V30 1535 H 165.07 3.98615 -1.23133 0
M  V30 1536 H 163.7 3.20297 -0.401183 0
M  V30 1537 H 162.752 2.62669 -2.75153 0
M  V30 1538 H 164.064 3.59962 -3.45295 0
M  V30 1539 H 163.218 5.63059 -2.25941 0
M  V30 1540 H 161.957 4.65541 -1.45338 0
M  V30 1541 H 160.962 4.08004 -3.68527 0
M  V30 1542 H 162.187 5.08934 -4.49626 0
M  V30 1543 H 160.133 6.07336 -2.47949 0
M  V30 1544 H 160.05 6.28777 -4.19732 0
M  V30 1545 H 161.318 7.06377 -3.29623 0
M  V30 1546 N 165.547 1.27147 0.931209 0
M  V30 1547 C 166.51 1.09615 2.01289 0
M  V30 1548 C 167.51 0.0412581 1.60747 0
M  V30 1549 O 168.7 0.285545 1.71844 0
M  V30 1550 C 165.832 0.669447 3.34262 0
M  V30 1551 H 167.025 2.05662 2.18273 0
M  V30 1552 H 164.578 1.09885 1.11153 0
M  V30 1553 H 165.313 -0.292572 3.22978 0
M  V30 1554 H 165.098 1.43127 3.65044 0
M  V30 1555 H 166.588 0.568921 4.13706 0
M  V30 1556 N 167.025 -1.13721 1.09112 0
M  V30 1557 C 167.935 -2.22638 0.73957 0
M  V30 1558 C 168.951 -1.72091 -0.257068 0
M  V30 1559 O 170.127 -2.01155 -0.0992154 0
M  V30 1560 C 167.192 -3.46322 0.16191 0
M  V30 1561 C 166.253 -4.11775 1.21408 0
M  V30 1562 C 165.486 -5.29555 0.663891 0
M  V30 1563 O 165.709 -5.68077 -0.514274 0
M  V30 1564 O 164.643 -5.84973 1.41738 0
M  V30 1565 H 168.469 -2.55074 1.64836 0
M  V30 1566 H 166.054 -1.21791 0.865289 0
M  V30 1567 H 167.936 -4.21107 -0.157073 0
M  V30 1568 H 166.611 -3.15593 -0.719932 0
M  V30 1569 H 165.518 -3.3883 1.58571 0
M  V30 1570 H 166.851 -4.46627 2.06845 0
M  V30 1571 N 168.503 -0.877838 -1.30888 0
M  V30 1572 C 169.435 -0.296607 -2.27273 0
M  V30 1573 C 170.448 0.544799 -1.53414 0
M  V30 1574 O 171.637 0.365511 -1.74718 0
M  V30 1575 C 168.737 0.597481 -3.33592 0
M  V30 1576 C 167.91 -0.213251 -4.3688 0
M  V30 1577 C 166.969 0.610208 -5.2265 0
M  V30 1578 O 165.995 0.035441 -5.69189 0
M  V30 1579 N 167.197 1.92071 -5.47804 0
M  V30 1580 H 169.962 -1.12492 -2.77787 0
M  V30 1581 H 167.523 -0.740105 -1.43993 0
M  V30 1582 H 169.515 1.15425 -3.87891 0
M  V30 1583 H 168.085 1.32647 -2.83061 0
M  V30 1584 H 167.305 -0.951466 -3.82545 0
M  V30 1585 H 168.593 -0.769262 -5.02951 0
M  V30 1586 H 167.991 2.4107 -5.11763 0
M  V30 1587 H 166.548 2.42508 -6.05007 0
M  V30 1588 N 169.982 1.44106 -0.638065 0
M  V30 1589 C 171.23 2.01579 -0.145043 0
M  V30 1590 C 171.551 1.50496 1.24 0
M  V30 1591 O 170.821 0.711374 1.82527 0
M  V30 1592 H 169.401 0.745282 -0.05063 0
M  V30 1593 H 172.063 1.76516 -0.826327 0
M  V30 1594 H 171.159 3.11877 -0.118039 0
M  V30 1595 N 171.46 0.379036 1.52974 0
M  V30 1596 C 172.423 -0.448865 2.24762 0
M  V30 1597 C 173.423 -0.998689 1.26027 0
M  V30 1598 O 174.613 -0.882313 1.50203 0
M  V30 1599 C 171.745 -1.62872 2.99476 0
M  V30 1600 H 172.938 0.179491 2.99362 0
M  V30 1601 H 170.491 0.13096 1.5575 0
M  V30 1602 H 171.226 -2.29479 2.29151 0
M  V30 1603 H 171.011 -1.24128 3.71934 0
M  V30 1604 H 172.501 -2.2151 3.5401 0
M  V30 1605 N 172.938 -1.57226 0.108567 0
M  V30 1606 C 174.163 -1.99604 -0.563303 0
M  V30 1607 C 174.588 -0.987563 -1.6009 0
M  V30 1608 O 173.946 0.0421687 -1.81251 0
M  V30 1609 C 173.994 -3.40902 -1.17552 0
M  V30 1610 O 173.098 -3.42896 -2.2912 0
M  V30 1611 H 172.439 -0.648704 -0.1417 0
M  V30 1612 H 174.969 -2.03679 0.193961 0
M  V30 1613 H 174.979 -3.78886 -1.51357 0
M  V30 1614 H 173.654 -4.1382 -0.415445 0
M  V30 1615 H 172.231 -3.1672 -1.96832 0
M  V30 1616 N 174.416 0.165178 -1.56732 0
M  V30 1617 C 175.664 0.879068 -1.8198 0
M  V30 1618 C 175.985 1.82514 -0.686561 0
M  V30 1619 O 175.255 1.93694 0.293146 0
M  V30 1620 H 173.835 0.327608 -0.671329 0
M  V30 1621 H 176.497 0.163526 -1.94213 0
M  V30 1622 H 175.593 1.45228 -2.76252 0
M  V30 1623 N 175.894 1.51508 0.433938 0
M  V30 1624 C 177.119 1.68443 1.21003 0
M  V30 1625 C 177.544 0.382636 1.84167 0
M  V30 1626 O 176.902 -0.65755 1.68956 0
M  V30 1627 C 176.95 2.80405 2.26727 0
M  V30 1628 O 176.054 2.44245 3.32292 0
M  V30 1629 H 175.395 0.561536 0.354363 0
M  V30 1630 H 177.925 1.9809 0.512024 0
M  V30 1631 H 177.935 3.0459 2.71457 0
M  V30 1632 H 176.61 3.74867 1.80132 0
M  V30 1633 H 175.187 2.30644 2.93015 0
M  V30 1634 N 177.372 -0.689602 1.41712 0
M  V30 1635 C 178.304 -1.815 1.39966 0
M  V30 1636 C 179.317 -1.59995 0.300917 0
M  V30 1637 O 180.506 -1.69387 0.563039 0
M  V30 1638 C 177.606 -3.18364 1.16179 0
M  V30 1639 C 176.779 -3.66847 2.38206 0
M  V30 1640 C 175.838 -4.82398 2.10186 0
M  V30 1641 O 174.864 -4.93706 2.83272 0
M  V30 1642 N 176.066 -5.70064 1.0958 0
M  V30 1643 H 178.831 -1.83488 2.36965 0
M  V30 1644 H 176.392 -0.872149 1.36401 0
M  V30 1645 H 178.384 -3.93301 0.953756 0
M  V30 1646 H 176.954 -3.11365 0.27756 0
M  V30 1647 H 176.174 -2.82751 2.74673 0
M  V30 1648 H 177.462 -3.95978 3.19498 0
M  V30 1649 H 176.86 -5.63565 0.491019 0
M  V30 1650 H 175.417 -6.44874 0.947656 0
M  V30 1651 N 178.85 -1.27639 -0.924453 0
M  V30 1652 C 180.127 -1.04887 -1.651 0
M  V30 1653 C 180.507 0.415327 -2.06974 0
M  V30 1654 O 179.855 1.39923 -1.80648 0
M  V30 1655 C 180.065 -2.01348 -2.85061 0
M  V30 1656 C 181.413 -2.30899 -3.56329 0
M  V30 1657 O 182.437 -1.99348 -2.95193 0
M  V30 1658 O 181.296 -2.84699 -4.66485 0
M  V30 1659 H 178.39 -0.400083 -0.723784 0
M  V30 1660 H 180.936 -1.38916 -0.974703 0
M  V30 1661 H 179.708 -3.0008 -2.51133 0
M  V30 1662 H 179.331 -1.679 -3.6041 0
M  V30 1663 N 180.328 1.1314 -1.09713 0
M  V30 1664 C 181.739 1.66029 -0.853885 0
M  V30 1665 C 182.09 1.86241 0.617142 0
M  V30 1666 O 181.215 1.5834 1.47503 0
M  V30 1667 C 181.81 3.01599 -1.5435 0
M  V30 1668 C 180.369 3.51467 -1.34714 0
M  V30 1669 C 179.516 2.26648 -1.59769 0
M  V30 1670 H 182.467 0.970226 -1.25588 0
M  V30 1671 H 182.488 3.67709 -0.978267 0
M  V30 1672 H 182 2.86856 -2.6141 0
M  V30 1673 H 180.101 3.71408 -0.297838 0
M  V30 1674 H 180.214 4.314 -2.08401 0
M  V30 1675 H 178.578 2.33385 -1.01998 0
M  V30 1676 H 179.361 2.14467 -2.68065 0
M  V30 1677 N 181.806 0.884767 1.30421 0
M  V30 1678 C 183.054 0.502112 1.95763 0
M  V30 1679 C 183.375 -0.951815 1.70192 0
M  V30 1680 O 182.645 -1.6692 1.0254 0
M  V30 1681 H 181.225 0.182694 0.724315 0
M  V30 1682 H 183.887 1.1278 1.58955 0
M  V30 1683 H 182.983 0.672188 3.04775 0
M  V30 1684 N 183.284 -1.43765 0.645699 0
M  V30 1685 C 184.231 -2.30745 -0.0504648 0
M  V30 1686 C 185.201 -1.4432 -0.822241 0
M  V30 1687 O 186.386 -1.73202 -0.800358 0
M  V30 1688 C 183.526 -3.29802 -1.0161 0
M  V30 1689 C 182.639 -4.31326 -0.241219 0
M  V30 1690 C 181.774 -5.17469 -1.19998 0
M  V30 1691 C 180.813 -6.10691 -0.415094 0
M  V30 1692 N 179.95 -6.89483 -1.32506 0
M  V30 1693 H 184.79 -2.8973 0.697155 0
M  V30 1694 H 182.327 -1.42738 0.355563 0
M  V30 1695 H 184.285 -3.85734 -1.58949 0
M  V30 1696 H 182.915 -2.72483 -1.73069 0
M  V30 1697 H 181.967 -3.77749 0.448334 0
M  V30 1698 H 183.279 -4.9743 0.369437 0
M  V30 1699 H 182.433 -5.7799 -1.84424 0
M  V30 1700 H 181.172 -4.51473 -1.84455 0
M  V30 1701 H 180.177 -5.49265 0.242565 0
M  V30 1702 H 181.402 -6.78727 0.224966 0
M  V30 1703 H 179.348 -6.26142 -1.95657 0
M  V30 1704 H 179.265 -7.52081 -0.768783 0
M  V30 1705 H 180.533 -7.54516 -1.9577 0
M  V30 1706 N 184.763 -0.387143 -1.52771 0
M  V30 1707 C 186.174 0.0873634 -1.86495 0
M  V30 1708 C 186.525 1.46336 -1.30691 0
M  V30 1709 O 185.65 2.068 -0.637409 0
M  V30 1710 C 186.245 0.165305 -3.38396 0
M  V30 1711 C 184.804 0.584101 -3.7184 0
M  V30 1712 C 183.951 -0.255279 -2.76122 0
M  V30 1713 H 186.902 -0.605104 -1.46711 0
M  V30 1714 H 186.923 0.984848 -3.67534 0
M  V30 1715 H 186.435 -0.836301 -3.78982 0
M  V30 1716 H 184.536 1.59315 -3.36823 0
M  V30 1717 H 184.649 0.343749 -4.77865 0
M  V30 1718 H 183.013 0.279126 -2.53166 0
M  V30 1719 H 183.796 -1.25482 -3.19545 0
M  V30 1720 N 186.241 1.57166 -0.116904 0
M  V30 1721 C 187.657 1.5779 0.239693 0
M  V30 1722 C 187.857 1.1295 1.66867 0
M  V30 1723 O 186.913 0.81592 2.38954 0
M  V30 1724 C 188.226 3.00699 0.00828202 0
M  V30 1725 C 189.774 3.12912 0.0743438 0
M  V30 1726 C 190.249 4.57817 -0.129348 0
M  V30 1727 N 191.74 4.63139 -0.075247 0
M  V30 1728 C 192.475 5.73023 -0.207788 0
M  V30 1729 N 191.971 6.91665 -0.396382 0
M  V30 1730 N 193.764 5.61906 -0.14751 0
M  V30 1731 H 185.915 1.84615 -1.05029 0
M  V30 1732 H 188.178 0.85311 -0.41341 0
M  V30 1733 H 187.884 3.37784 -0.979531 0
M  V30 1734 H 187.758 3.69848 0.741077 0
M  V30 1735 H 190.145 2.75686 1.05268 0
M  V30 1736 H 190.226 2.4631 -0.690297 0
M  V30 1737 H 189.87 4.95742 -1.10465 0
M  V30 1738 H 189.8 5.22507 0.655253 0
M  V30 1739 H 192.291 3.7784 0.0670898 0
M  V30 1740 H 192.604 7.71255 -0.488437 0
M  V30 1741 H 190.949 6.93654 -0.432329 0
M  V30 1742 H 194.14 4.681 -0.00115036 0
M  V30 1743 H 194.313 6.47501 -0.254247 0
M  V30 1744 N 187.719 -0.156864 1.56817 0
M  V30 1745 C 188.965 -0.872416 1.83076 0
M  V30 1746 C 189.298 -1.81261 0.697001 0
M  V30 1747 O 188.573 -1.92171 -0.30008 0
M  V30 1748 C 188.856 -1.65551 3.19789 0
M  V30 1749 C 188.709 -0.737467 4.43713 0
M  V30 1750 C 190.028 -2.62012 3.53606 0
M  V30 1751 H 187.147 -0.315715 0.665953 0
M  V30 1752 H 189.789 -0.138004 1.89498 0
M  V30 1753 H 187.939 -2.28159 3.14445 0
M  V30 1754 H 189.611 -0.123143 4.61136 0
M  V30 1755 H 187.854 -0.0464067 4.33775 0
M  V30 1756 H 188.525 -1.32122 5.35955 0
M  V30 1757 H 191.001 -2.09525 3.59497 0
M  V30 1758 H 189.877 -3.13861 4.50314 0
M  V30 1759 H 190.138 -3.42902 2.79053 0
M  V30 1760 N 189.197 -1.51736 -0.425897 0
M  V30 1761 C 190.445 -1.64644 -1.17204 0
M  V30 1762 C 190.766 -0.370486 -1.91448 0
M  V30 1763 O 190.036 0.614088 -1.86026 0
M  V30 1764 H 188.616 -0.606819 -0.435638 0
M  V30 1765 H 191.278 -1.88713 -0.487177 0
M  V30 1766 H 190.374 -2.47958 -1.89534 0
M  V30 1767 N 190.675 0.682077 -1.42076 0
M  V30 1768 C 191.622 1.79578 -1.44984 0
M  V30 1769 C 192.592 1.6332 -0.302614 0
M  V30 1770 O 193.777 1.83978 -0.505633 0
M  V30 1771 C 190.917 3.1756 -1.35091 0
M  V30 1772 C 190.03 3.45156 -2.59791 0
M  V30 1773 C 189.165 4.72826 -2.42093 0
M  V30 1774 C 188.204 4.93433 -3.62202 0
M  V30 1775 N 187.341 6.12338 -3.43491 0
M  V30 1776 H 192.181 1.76427 -2.40161 0
M  V30 1777 H 189.718 0.861376 -1.19242 0
M  V30 1778 H 191.676 3.97287 -1.27354 0
M  V30 1779 H 190.306 3.19854 -0.435133 0
M  V30 1780 H 189.358 2.59736 -2.77923 0
M  V30 1781 H 190.67 3.5628 -3.49094 0
M  V30 1782 H 189.824 5.60631 -2.319 0
M  V30 1783 H 188.563 4.63973 -1.50268 0
M  V30 1784 H 187.568 4.04073 -3.72834 0
M  V30 1785 H 188.793 5.04136 -4.54998 0
M  V30 1786 H 186.739 6.04672 -2.54377 0
M  V30 1787 H 186.656 6.2429 -4.26377 0
M  V30 1788 H 187.924 7.02841 -3.37097 0
M  V30 1789 N 192.153 1.28127 0.917671 0
M  V30 1790 C 193.1 1.11717 2.0196 0
M  V30 1791 C 194.07 0.0153929 1.66093 0
M  V30 1792 O 195.255 0.179596 1.89953 0
M  V30 1793 C 192.395 0.780927 3.36148 0
M  V30 1794 C 191.508 1.96135 3.84909 0
M  V30 1795 C 190.643 1.56609 5.0759 0
M  V30 1796 C 189.682 2.71339 5.48673 0
M  V30 1797 N 188.819 2.32332 6.62545 0
M  V30 1798 H 193.659 2.06003 2.15329 0
M  V30 1799 H 191.196 1.02535 1.05475 0
M  V30 1800 H 193.154 0.56675 4.13333 0
M  V30 1801 H 191.784 -0.124998 3.22558 0
M  V30 1802 H 190.836 2.28777 3.03916 0
M  V30 1803 H 192.148 2.82165 4.1132 0
M  V30 1804 H 191.302 1.31374 5.92305 0
M  V30 1805 H 190.041 0.677014 4.82978 0
M  V30 1806 H 189.046 2.97276 4.62501 0
M  V30 1807 H 190.271 3.60882 5.75274 0
M  V30 1808 H 188.217 1.45889 6.39572 0
M  V30 1809 H 188.134 3.11899 6.88662 0
M  V30 1810 H 189.402 2.10371 7.50576 0
M  V30 1811 N 193.631 -1.12557 1.10312 0
M  V30 1812 C 194.594 -2.16434 0.75424 0
M  V30 1813 C 195.594 -1.59278 -0.220685 0
M  V30 1814 O 196.784 -1.742 0.00230591 0
M  V30 1815 C 193.916 -3.40699 0.116987 0
M  V30 1816 H 195.109 -2.48811 1.67431 0
M  V30 1817 H 192.662 -1.27542 0.903475 0
M  V30 1818 H 193.397 -3.13921 -0.813877 0
M  V30 1819 H 193.182 -3.83459 0.818613 0
M  V30 1820 H 194.672 -4.17451 -0.111387 0
M  V30 1821 N 195.109 -0.891671 -1.2995 0
M  V30 1822 C 196.072 -0.36828 -2.26222 0
M  V30 1823 C 197.072 0.493014 -1.53056 0
M  V30 1824 O 198.262 0.299213 -1.71611 0
M  V30 1825 C 195.394 0.47442 -3.37583 0
M  V30 1826 H 196.587 -1.21844 -2.74033 0
M  V30 1827 H 194.14 -0.669107 -1.41254 0
M  V30 1828 H 194.875 1.34489 -2.95099 0
M  V30 1829 H 194.66 -0.142615 -3.91841 0
M  V30 1830 H 196.15 0.83218 -4.09224 0
M  V30 1831 N 196.587 1.43421 -0.653314 0
M  V30 1832 C 197.497 2.34568 0.0388565 0
M  V30 1833 C 198.513 1.53888 0.81207 0
M  V30 1834 O 199.689 1.86539 0.759294 0
M  V30 1835 C 196.754 3.32167 0.993269 0
M  V30 1836 C 195.815 4.28751 0.216977 0
M  V30 1837 C 195.048 5.21688 1.12593 0
M  V30 1838 O 195.271 5.19052 2.36519 0
M  V30 1839 O 194.205 5.98919 0.598284 0
M  V30 1840 H 198.031 2.95251 -0.711386 0
M  V30 1841 H 195.616 1.43564 -0.413502 0
M  V30 1842 H 197.498 3.92183 1.54176 0
M  V30 1843 H 196.173 2.73987 1.72374 0
M  V30 1844 H 195.08 3.72215 -0.375101 0
M  V30 1845 H 196.413 4.89913 -0.473924 0
M  V30 1846 N 198.065 0.39524 1.52563 0
M  V30 1847 C 199.313 -0.184678 2.01254 0
M  V30 1848 C 199.634 -1.46822 1.28329 0
M  V30 1849 O 198.904 -1.91666 0.405094 0
M  V30 1850 H 197.484 -0.0712355 0.743596 0
M  V30 1851 H 200.146 0.528293 1.87603 0
M  V30 1852 H 199.242 -0.390681 3.09645 0
M  V30 1853 N 199.544 -1.57102 0.125237 0
M  V30 1854 C 200.476 -2.12726 -0.853237 0
M  V30 1855 C 201.489 -1.07145 -1.22571 0
M  V30 1856 O 202.678 -1.34497 -1.17358 0
M  V30 1857 C 199.778 -2.61709 -2.15317 0
M  V30 1858 C 198.951 -3.91456 -1.95143 0
M  V30 1859 C 198.01 -4.25973 -3.08923 0
M  V30 1860 O 197.036 -4.94682 -2.81564 0
M  V30 1861 N 198.238 -3.83795 -4.35524 0
M  V30 1862 H 201.003 -2.97307 -0.377964 0
M  V30 1863 H 198.564 -1.61792 -0.0590011 0
M  V30 1864 H 200.556 -2.81826 -2.90441 0
M  V30 1865 H 199.126 -1.81974 -2.54174 0
M  V30 1866 H 198.346 -3.80185 -1.04177 0
M  V30 1867 H 199.634 -4.76283 -1.78976 0
M  V30 1868 H 199.032 -3.2839 -4.60626 0
M  V30 1869 H 197.589 -4.09008 -5.07499 0
M  V30 1870 N 201.022 0.148545 -1.56898 0
M  V30 1871 C 201.985 1.16736 -1.97244 0
M  V30 1872 C 202.985 1.35947 -0.858777 0
M  V30 1873 O 204.175 1.32966 -1.12542 0
M  V30 1874 C 201.307 2.52798 -2.28705 0
M  V30 1875 H 202.5 0.821279 -2.88435 0
M  V30 1876 H 200.053 0.391831 -1.51309 0
M  V30 1877 H 200.788 2.92381 -1.403 0
M  V30 1878 H 200.573 2.40216 -3.09901 0
M  V30 1879 H 202.063 3.26179 -2.60762 0
M  V30 1880 N 202.5 1.5196 0.417844 0
M  V30 1881 C 203.463 1.74065 1.49111 0
M  V30 1882 C 204.463 0.610537 1.48758 0
M  V30 1883 O 205.653 0.87832 1.50437 0
M  V30 1884 C 202.785 1.81502 2.88565 0
M  V30 1885 H 203.978 2.69869 1.30807 0
M  V30 1886 H 201.531 1.42244 0.647785 0
M  V30 1887 H 202.266 0.875813 3.1225 0
M  V30 1888 H 202.051 2.63651 2.90225 0
M  V30 1889 H 203.541 2.00376 3.66387 0
M  V30 1890 N 203.978 -0.674533 1.42435 0
M  V30 1891 C 204.941 -1.76986 1.45632 0
M  V30 1892 C 205.941 -1.5708 0.343871 0
M  V30 1893 O 207.131 -1.63367 0.604709 0
M  V30 1894 C 204.263 -3.15623 1.28822 0
M  V30 1895 H 205.456 -1.75539 2.43158 0
M  V30 1896 H 203.009 -0.884189 1.28887 0
M  V30 1897 H 203.744 -3.22696 0.322193 0
M  V30 1898 H 203.529 -3.31475 2.09444 0
M  V30 1899 H 205.019 -3.95537 1.33942 0
M  V30 1900 N 205.456 -1.28612 -0.910864 0
M  V30 1901 C 206.872 -1.06381 -1.18976 0
M  V30 1902 C 207.072 0.191998 -2.00583 0
M  V30 1903 O 206.128 0.892869 -2.36187 0
M  V30 1904 C 207.441 -2.31295 -1.92154 0
M  V30 1905 C 208.989 -2.36503 -2.05025 0
M  V30 1906 C 209.464 -3.61191 -2.81612 0
M  V30 1907 N 210.955 -3.61847 -2.89172 0
M  V30 1908 C 211.69 -4.55004 -3.4894 0
M  V30 1909 N 211.186 -5.58482 -4.09963 0
M  V30 1910 N 212.979 -4.42594 -3.46506 0
M  V30 1911 H 205.13 -2.09221 -0.366094 0
M  V30 1912 H 207.393 -0.921003 -0.224629 0
M  V30 1913 H 207.099 -3.228 -1.39618 0
M  V30 1914 H 206.973 -2.37934 -2.9269 0
M  V30 1915 H 209.36 -1.45494 -2.5674 0
M  V30 1916 H 209.441 -2.33857 -1.03657 0
M  V30 1917 H 209.085 -4.52545 -2.30576 0
M  V30 1918 H 209.015 -3.61092 -3.83302 0
M  V30 1919 H 211.506 -2.87022 -2.45819 0
M  V30 1920 H 211.819 -6.25704 -4.53557 0
M  V30 1921 H 210.164 -5.62305 -4.08459 0
M  V30 1922 H 213.355 -3.60953 -2.98045 0
M  V30 1923 H 213.528 -5.15381 -3.92793 0
M  V30 1924 N 206.934 1.1197 -1.10907 0
M  V30 1925 C 208.35 1.35591 -0.841852 0
M  V30 1926 C 208.55 1.94233 0.536246 0
M  V30 1927 O 207.606 2.1717 1.28816 0
M  V30 1928 C 208.919 2.29284 -1.94549 0
M  V30 1929 C 210.467 2.42862 -1.97451 0
M  V30 1930 C 210.942 3.39873 -3.07002 0
M  V30 1931 N 212.433 3.47433 -3.06341 0
M  V30 1932 C 213.168 4.22421 -3.87748 0
M  V30 1933 N 212.664 5.00432 -4.79103 0
M  V30 1934 N 214.457 4.17876 -3.75946 0
M  V30 1935 H 206.608 0.722664 -1.99728 0
M  V30 1936 H 208.871 0.380635 -0.868229 0
M  V30 1937 H 208.577 1.93378 -2.93765 0
M  V30 1938 H 208.451 3.29452 -1.83688 0
M  V30 1939 H 210.838 2.78046 -0.988645 0
M  V30 1940 H 210.919 1.42566 -2.12388 0
M  V30 1941 H 210.563 3.05417 -4.05811 0
M  V30 1942 H 210.493 4.40011 -2.89306 0
M  V30 1943 H 212.984 2.91784 -2.40147 0
M  V30 1944 H 213.297 5.55002 -5.37766 0
M  V30 1945 H 211.642 4.99612 -4.83128 0
M  V30 1946 H 214.833 3.56016 -3.03924 0
M  V30 1947 H 215.006 4.76061 -4.39624 0
M  V30 1948 N 208.412 0.89855 1.29475 0
M  V30 1949 C 209.66 0.522847 1.9522 0
M  V30 1950 C 209.981 -0.93371 1.71192 0
M  V30 1951 O 209.251 -1.65823 1.04305 0
M  V30 1952 H 207.831 0.190366 0.722336 0
M  V30 1953 H 210.493 1.14459 1.5775 0
M  V30 1954 H 209.589 0.704476 3.04045 0
M  V30 1955 N 209.89 -1.43072 0.660911 0
M  V30 1956 C 211.115 -2.06584 0.183805 0
M  V30 1957 C 211.54 -1.49257 -1.14472 0
M  V30 1958 O 210.898 -0.605528 -1.70889 0
M  V30 1959 C 210.946 -3.60418 0.114434 0
M  V30 1960 O 210.05 -4.01981 -0.921137 0
M  V30 1961 H 209.391 -0.656669 0.0983994 0
M  V30 1962 H 211.921 -1.83447 0.906006 0
M  V30 1963 H 211.931 -4.07946 -0.0663394 0
M  V30 1964 H 210.606 -4.01519 1.08422 0
M  V30 1965 H 209.183 -3.66029 -0.71253 0
M  V30 1966 N 211.368 -0.403325 -1.52352 0
M  V30 1967 C 212.779 0.0675782 -1.86578 0
M  V30 1968 C 213.13 1.44941 -1.32236 0
M  V30 1969 O 212.255 2.06112 -0.659307 0
M  V30 1970 C 212.85 0.129404 -3.38553 0
M  V30 1971 C 211.409 0.544629 -3.72439 0
M  V30 1972 C 210.556 -0.284551 -2.75836 0
M  V30 1973 H 213.507 -0.620631 -1.46061 0
M  V30 1974 H 213.528 0.94581 -3.68558 0
M  V30 1975 H 213.04 -0.87645 -3.78074 0
M  V30 1976 H 211.141 1.55734 -3.38493 0
M  V30 1977 H 211.254 0.293046 -4.78203 0
M  V30 1978 H 209.618 0.252258 -2.53448 0
M  V30 1979 H 210.401 -1.28865 -3.18196 0
M  V30 1980 N 212.846 1.57033 -0.133567 0
M  V30 1981 C 213.809 2.14897 0.796995 0
M  V30 1982 C 214.809 1.0874 1.18458 0
M  V30 1983 O 215.999 1.34446 1.1077 0
M  V30 1984 C 213.131 2.70112 2.07973 0
M  V30 1985 H 214.324 2.98457 0.293873 0
M  V30 1986 H 211.877 1.55871 0.115787 0
M  V30 1987 H 212.612 1.9018 2.62682 0
M  V30 1988 H 212.397 3.47764 1.81115 0
M  V30 1989 H 213.887 3.14738 2.74462 0
M  V30 1990 N 214.325 -0.140222 1.56975 0
M  V30 1991 C 215.572 -0.851687 1.83719 0
M  V30 1992 C 215.9 -1.80862 0.715485 0
M  V30 1993 O 215.155 -1.93464 -0.294956 0
M  V30 1994 C 215.454 -1.65386 3.16832 0
M  V30 1995 C 215.12 -0.843112 4.42947 0
M  V30 1996 C 213.782 -0.619464 4.77196 0
M  V30 1997 C 216.134 -0.276582 5.20466 0
M  V30 1998 C 213.462 0.181312 5.8642 0
M  V30 1999 C 215.814 0.51127 6.30531 0
M  V30 2000 C 214.478 0.745432 6.63325 0
M  V30 2001 H 213.748 -0.311654 0.672274 0
M  V30 2002 H 216.395 -0.115006 1.91154 0
M  V30 2003 H 214.7 -2.46084 3.04877 0
M  V30 2004 H 216.397 -2.20793 3.34741 0
M  V30 2005 H 212.987 -1.0275 4.16101 0
M  V30 2006 H 217.171 -0.436632 4.94376 0
M  V30 2007 H 212.427 0.372165 6.10266 0
M  V30 2008 H 216.601 0.957354 6.89788 0
M  V30 2009 H 214.228 1.36778 7.47794 0
M  V30 2010 N 215.803 -1.52179 -0.40978 0
M  V30 2011 C 216.733 -1.78435 -1.5061 0
M  V30 2012 C 217.714 -0.635295 -1.57791 0
M  V30 2013 O 218.899 -0.880823 -1.73076 0
M  V30 2014 C 216.029 -1.93444 -2.88439 0
M  V30 2015 C 214.983 -3.09038 -2.96108 0
M  V30 2016 C 214.309 -3.09268 -4.36185 0
M  V30 2017 C 215.609 -4.48508 -2.67652 0
M  V30 2018 H 217.303 -2.70237 -1.28889 0
M  V30 2019 H 214.849 -1.30036 -0.618605 0
M  V30 2020 H 216.802 -2.10394 -3.65119 0
M  V30 2021 H 215.526 -0.983129 -3.11452 0
M  V30 2022 H 214.185 -2.91837 -2.21872 0
M  V30 2023 H 213.833 -2.11861 -4.56206 0
M  V30 2024 H 213.533 -3.86907 -4.42241 0
M  V30 2025 H 215.057 -3.28348 -5.14801 0
M  V30 2026 H 216.471 -4.65918 -3.34056 0
M  V30 2027 H 214.868 -5.28059 -2.85085 0
M  V30 2028 H 215.938 -4.56649 -1.63095 0
M  V30 2029 N 217.281 0.66697 -1.42791 0
M  V30 2030 C 218.231 1.77313 -1.43332 0
M  V30 2031 C 219.215 1.5801 -0.303586 0
M  V30 2032 O 220.407 1.68356 -0.546385 0
M  V30 2033 C 217.536 3.15822 -1.34578 0
M  V30 2034 C 216.622 3.40721 -2.52528 0
M  V30 2035 N 217.013 3.36162 -3.77927 0
M  V30 2036 C 215.311 3.71387 -2.46956 0
M  V30 2037 C 216.012 3.60762 -4.56318 0
M  V30 2038 N 214.988 3.81908 -3.86843 0
M  V30 2039 H 218.79 1.72193 -2.38174 0
M  V30 2040 H 216.304 0.868114 -1.3725 0
M  V30 2041 H 218.301 3.951 -1.33048 0
M  V30 2042 H 216.961 3.22133 -0.407453 0
M  V30 2043 H 217.972 3.15885 -4.10411 0
M  V30 2044 H 214.649 3.84897 -1.61743 0
M  V30 2045 H 216.039 3.63132 -5.65318 0
M  V30 2046 N 218.759 1.29093 0.90403 0
M  V30 2047 C 219.984 1.19809 1.69294 0
M  V30 2048 C 220.409 -0.238481 1.86582 0
M  V30 2049 O 219.767 -1.1723 1.383 0
M  V30 2050 C 219.815 1.91202 3.05736 0
M  V30 2051 O 218.919 1.22611 3.93752 0
M  V30 2052 H 218.26 0.415385 0.518027 0
M  V30 2053 H 220.79 1.70586 1.12967 0
M  V30 2054 H 220.8 1.99487 3.55906 0
M  V30 2055 H 219.475 2.95692 2.92471 0
M  V30 2056 H 218.052 1.22554 3.52186 0
M  V30 2057 N 220.237 -1.11381 1.11499 0
M  V30 2058 C 221.648 -1.6465 0.880191 0
M  V30 2059 C 221.999 -1.87199 -0.587434 0
M  V30 2060 O 221.124 -1.60667 -1.44966 0
M  V30 2061 C 221.719 -2.99105 1.59128 0
M  V30 2062 C 220.278 -3.49279 1.40289 0
M  V30 2063 C 219.425 -2.24077 1.63354 0
M  V30 2064 H 222.376 -0.950123 1.27116 0
M  V30 2065 H 222.397 -3.66107 1.03664 0
M  V30 2066 H 221.909 -2.82661 2.65941 0
M  V30 2067 H 220.01 -3.70887 0.356888 0
M  V30 2068 H 220.123 -4.2803 2.15238 0
M  V30 2069 H 218.487 -2.31733 1.05698 0
M  V30 2070 H 219.27 -2.10175 2.71443 0
M  V30 2071 N 221.715 -0.905404 -1.28997 0
M  V30 2072 C 222.94 -0.549175 -1.99997 0
M  V30 2073 C 223.365 0.860276 -1.67275 0
M  V30 2074 O 222.723 1.57355 -0.900502 0
M  V30 2075 C 222.771 -0.755185 -3.52604 0
M  V30 2076 O 221.875 0.189692 -4.11964 0
M  V30 2077 H 221.216 -0.213899 -0.628604 0
M  V30 2078 H 223.746 -1.21856 -1.64354 0
M  V30 2079 H 223.756 -0.662045 -4.02593 0
M  V30 2080 H 222.431 -1.78271 -3.75755 0
M  V30 2081 H 221.008 0.0485257 -3.72868 0
M  V30 2082 N 223.193 1.4272 -0.668489 0
M  V30 2083 C 224.433 2.03497 -0.19194 0
M  V30 2084 C 224.797 1.51684 1.17712 0
M  V30 2085 O 225.998 2.04205 1.74796 0
M  V30 2086 C 224.269 3.56734 -0.218032 0
M  V30 2087 S 225.828 4.38395 0.188438 0
M  V30 2088 H 222.646 0.706542 -0.0794959 0
M  V30 2089 H 225.248 1.74563 -0.880235 0
M  V30 2090 H 223.952 3.91943 -1.2169 0
M  V30 2091 H 223.483 3.90333 0.490303 0
M  V30 2092 H 225.498 4.75345 1.42345 0
M  V30 2093 N 224.671 0.411399 1.52136 0
M  V30 2094 C 226.082 -0.0576826 1.86611 0
M  V30 2095 C 226.433 -1.44238 1.33003 0
M  V30 2096 O 225.558 -2.05759 0.670228 0
M  V30 2097 C 226.153 -0.111448 3.38617 0
M  V30 2098 C 224.712 -0.52487 3.72723 0
M  V30 2099 C 223.859 0.299176 2.75681 0
M  V30 2100 H 226.81 0.628368 1.4573 0
M  V30 2101 H 226.831 -0.926252 3.69054 0
M  V30 2102 H 226.343 0.896488 3.77604 0
M  V30 2103 H 224.444 -1.53936 3.39315 0
M  V30 2104 H 224.557 -0.267681 4.78352 0
M  V30 2105 H 222.921 -0.238814 2.53578 0
M  V30 2106 H 223.704 1.3055 3.17508 0
M  V30 2107 N 226.149 -1.5696 0.141893 0
M  V30 2108 C 227.112 -2.15316 -0.785587 0
M  V30 2109 C 228.112 -1.09366 -1.1788 0
M  V30 2110 O 229.302 -1.35031 -1.10056 0
M  V30 2111 C 226.434 -2.71211 -2.06537 0
M  V30 2112 H 227.627 -2.98608 -0.278041 0
M  V30 2113 H 225.18 -1.5593 -0.107519 0
M  V30 2114 H 225.915 -1.91571 -2.6167 0
M  V30 2115 H 225.7 -3.4872 -1.79268 0
M  V30 2116 H 227.19 -3.16189 -2.72789 0
M  V30 2117 N 227.627 0.131896 -1.57047 0
M  V30 2118 C 228.876 0.84044 -1.83356 0
M  V30 2119 C 229.189 1.81646 -0.725535 0
M  V30 2120 O 230.395 2.57025 -0.874659 0
M  V30 2121 C 228.851 1.54528 -3.25037 0
M  V30 2122 C 228.459 0.610902 -4.43815 0
M  V30 2123 C 230.203 2.23972 -3.60606 0
M  V30 2124 C 228.11 1.31823 -5.76521 0
M  V30 2125 H 227.04 0.317599 -0.683847 0
M  V30 2126 H 229.691 0.0931561 -1.83263 0
M  V30 2127 H 228.073 2.33873 -3.19561 0
M  V30 2128 H 229.247 -0.148407 -4.60561 0
M  V30 2129 H 227.562 0.0241016 -4.16393 0
M  V30 2130 H 230.159 2.77558 -4.57018 0
M  V30 2131 H 230.502 3.01173 -2.87403 0
M  V30 2132 H 231.035 1.51529 -3.6781 0
M  V30 2133 H 227.774 0.587771 -6.52859 0
M  V30 2134 H 227.294 2.04987 -5.63685 0
M  V30 2135 H 228.973 1.855 -6.19838 0
M  V30 2136 N 229.106 1.52395 0.401703 0
M  V30 2137 C 230.355 1.66044 1.14509 0
M  V30 2138 C 230.668 0.400216 1.91462 0
M  V30 2139 O 231.874 0.416632 2.68284 0
M  V30 2140 C 230.33 2.93388 2.0845 0
M  V30 2141 C 229.938 4.26545 1.36978 0
M  V30 2142 C 231.682 3.16402 2.83001 0
M  V30 2143 C 229.589 5.45007 2.29611 0
M  V30 2144 H 228.519 0.618562 0.431158 0
M  V30 2145 H 231.17 1.78886 0.40892 0
M  V30 2146 H 229.552 2.74263 2.8565 0
M  V30 2147 H 230.726 4.56179 0.650916 0
M  V30 2148 H 229.041 4.09692 0.74438 0
M  V30 2149 H 231.638 4.02085 3.52465 0
M  V30 2150 H 231.981 2.30943 3.46368 0
M  V30 2151 H 232.514 3.36034 2.12898 0
M  V30 2152 H 229.253 6.32835 1.70879 0
M  V30 2153 H 228.773 5.19702 2.9945 0
M  V30 2154 H 230.452 5.7838 2.89974 0
M  V30 2155 N 230.584 -0.659388 1.43143 0
M  V30 2156 C 231.809 -1.45221 1.48073 0
M  V30 2157 C 232.234 -1.87845 0.097995 0
M  V30 2158 O 231.592 -1.56985 -0.90694 0
M  V30 2159 C 231.64 -2.66748 2.42647 0
M  V30 2160 O 230.744 -3.65583 1.90848 0
M  V30 2161 H 230.085 -0.435669 0.501088 0
M  V30 2162 H 232.615 -0.807432 1.87994 0
M  V30 2163 H 232.625 -3.14637 2.59745 0
M  V30 2164 H 231.3 -2.35067 3.43098 0
M  V30 2165 H 229.877 -3.24693 1.83381 0
M  V30 2166 N 232.062 -1.29571 -0.897171 0
M  V30 2167 C 233.287 -1.20705 -1.68656 0
M  V30 2168 C 233.712 0.228582 -1.86706 0
M  V30 2169 O 233.07 1.16494 -1.3892 0
M  V30 2170 C 233.118 -1.9282 -3.04717 0
M  V30 2171 O 232.222 -1.24697 -3.93096 0
M  V30 2172 H 231.563 -0.418126 -0.515816 0
M  V30 2173 H 234.093 -1.71183 -1.12061 0
M  V30 2174 H 234.103 -2.01372 -3.54843 0
M  V30 2175 H 232.778 -2.97239 -2.90899 0
M  V30 2176 H 231.355 -1.2442 -3.51531 0
M  V30 2177 N 233.54 1.10788 -1.12088 0
M  V30 2178 C 234.765 1.87002 -0.896949 0
M  V30 2179 C 235.19 1.79933 0.548261 0
M  V30 2180 O 234.548 1.16662 1.38779 0
M  V30 2181 C 234.596 3.3349 -1.37174 0
M  V30 2182 O 233.7 4.08745 -0.547831 0
M  V30 2183 H 233.041 0.580397 -0.322545 0
M  V30 2184 H 235.571 1.39996 -1.49206 0
M  V30 2185 H 235.581 3.84339 -1.36922 0
M  V30 2186 H 234.256 3.37951 -2.42408 0
M  V30 2187 H 232.833 3.6776 -0.617034 0
M  V30 2188 N 235.018 0.912232 1.28515 0
M  V30 2189 C 235.928 0.404506 2.31086 0
M  V30 2190 C 236.944 -0.50707 1.66448 0
M  V30 2191 O 238.12 -0.393624 1.97516 0
M  V30 2192 C 235.185 -0.348572 3.44943 0
M  V30 2193 C 234.246 0.59604 4.25142 0
M  V30 2194 C 233.479 -0.121194 5.33562 0
M  V30 2195 O 233.702 -1.34317 5.5436 0
M  V30 2196 O 232.636 0.542716 5.99448 0
M  V30 2197 H 236.462 1.25579 2.76521 0
M  V30 2198 H 234.047 0.676998 1.33181 0
M  V30 2199 H 235.929 -0.77395 4.14232 0
M  V30 2200 H 234.604 -1.17571 3.01594 0
M  V30 2201 H 233.511 1.07079 3.58448 0
M  V30 2202 H 234.844 1.38995 4.72167 0
M  V30 2203 N 236.496 -1.42363 0.676048 0
M  V30 2204 C 237.443 -2.308 -0.00150904 0
M  V30 2205 C 238.413 -1.46032 -0.791444 0
M  V30 2206 O 239.598 -1.74861 -0.76344 0
M  V30 2207 C 236.738 -3.31883 -0.945919 0
M  V30 2208 C 235.851 -4.31741 -0.149675 0
M  V30 2209 C 234.986 -5.19898 -1.08995 0
M  V30 2210 C 234.025 -6.11434 -0.285465 0
M  V30 2211 N 233.162 -6.92138 -1.17851 0
M  V30 2212 H 238.002 -2.88187 0.758455 0
M  V30 2213 H 235.539 -1.41952 0.38576 0
M  V30 2214 H 237.497 -3.89019 -1.50731 0
M  V30 2215 H 236.127 -2.76093 -1.6725 0
M  V30 2216 H 235.179 -3.76713 0.528359 0
M  V30 2217 H 236.491 -4.96534 0.474866 0
M  V30 2218 H 235.645 -5.81772 -1.72123 0
M  V30 2219 H 234.384 -4.55284 -1.74837 0
M  V30 2220 H 233.389 -5.48627 0.359018 0
M  V30 2221 H 234.614 -6.78097 0.368883 0
M  V30 2222 H 232.56 -6.30152 -1.82332 0
M  V30 2223 H 232.477 -7.53542 -0.609082 0
M  V30 2224 H 233.745 -7.58499 -1.79722 0
M  V30 2225 N 237.974 -0.419461 -1.51915 0
M  V30 2226 C 238.904 0.391813 -2.30189 0
M  V30 2227 C 239.885 1.03699 -1.34836 0
M  V30 2228 O 241.07 1.04403 -1.63748 0
M  V30 2229 C 238.2 1.50312 -3.13087 0
M  V30 2230 C 237.154 0.9824 -4.16573 0
M  V30 2231 C 236.48 2.18809 -4.8788 0
M  V30 2232 C 237.78 0.0292356 -5.22292 0
M  V30 2233 H 239.474 -0.26135 -2.98257 0
M  V30 2234 H 237.02 -0.127134 -1.43438 0
M  V30 2235 H 238.973 2.07773 -3.66617 0
M  V30 2236 H 237.697 2.18431 -2.42807 0
M  V30 2237 H 236.356 0.430119 -3.64068 0
M  V30 2238 H 236.004 2.85507 -4.14119 0
M  V30 2239 H 235.704 1.84615 -5.57845 0
M  V30 2240 H 237.228 2.76858 -5.44226 0
M  V30 2241 H 238.642 0.512976 -5.71 0
M  V30 2242 H 237.039 -0.2244 -5.9968 0
M  V30 2243 H 238.109 -0.912931 -4.76228 0
M  V30 2244 N 239.452 1.56882 -0.150215 0
M  V30 2245 C 240.382 2.19935 0.784284 0
M  V30 2246 C 241.363 1.14854 1.25469 0
M  V30 2247 O 242.548 1.43209 1.31168 0
M  V30 2248 C 239.678 2.82349 2.02229 0
M  V30 2249 C 238.632 3.93285 1.68853 0
M  V30 2250 C 237.958 4.42649 2.99944 0
M  V30 2251 C 239.258 5.13904 0.932714 0
M  V30 2252 H 240.952 2.9828 0.258781 0
M  V30 2253 H 238.498 1.43473 0.123029 0
M  V30 2254 H 240.451 3.25126 2.68088 0
M  V30 2255 H 239.175 2.0134 2.57157 0
M  V30 2256 H 237.834 3.5113 1.05371 0
M  V30 2257 H 237.482 3.58458 3.52869 0
M  V30 2258 H 237.182 5.17476 2.78374 0
M  V30 2259 H 238.706 4.88099 3.66868 0
M  V30 2260 H 240.12 5.53506 1.49345 0
M  V30 2261 H 238.517 5.94515 0.81684 0
M  V30 2262 H 239.587 4.84842 -0.0749568 0
M  V30 2263 N 240.93 -0.123565 1.57115 0
M  V30 2264 C 241.893 -1.13583 1.99076 0
M  V30 2265 C 242.893 -1.34564 0.880296 0
M  V30 2266 O 244.083 -1.31158 1.14644 0
M  V30 2267 C 241.215 -2.49128 2.32698 0
M  V30 2268 H 242.408 -0.775287 2.89706 0
M  V30 2269 H 239.961 -0.36771 1.51913 0
M  V30 2270 H 240.696 -2.90111 1.44934 0
M  V30 2271 H 240.481 -2.35255 3.13684 0
M  V30 2272 H 241.971 -3.2199 2.65918 0
M  V30 2273 N 242.408 -1.52605 -0.393616 0
M  V30 2274 C 243.355 -1.77055 -1.48054 0
M  V30 2275 C 244.325 -0.61358 -1.54352 0
M  V30 2276 O 245.51 -0.852806 -1.70681 0
M  V30 2277 C 242.65 -1.94108 -2.85335 0
M  V30 2278 C 241.763 -3.21792 -2.88226 0
M  V30 2279 C 240.898 -3.29188 -4.16904 0
M  V30 2280 C 239.937 -4.51013 -4.13828 0
M  V30 2281 N 239.074 -4.55716 -5.34105 0
M  V30 2282 H 243.914 -2.69815 -1.26506 0
M  V30 2283 H 241.451 -1.33683 -0.61379 0
M  V30 2284 H 243.409 -2.01979 -3.65049 0
M  V30 2285 H 242.039 -1.04713 -3.05344 0
M  V30 2286 H 241.091 -3.23015 -2.00911 0
M  V30 2287 H 242.403 -4.11557 -2.8182 0
M  V30 2288 H 241.557 -3.36216 -5.05018 0
M  V30 2289 H 240.296 -2.37389 -4.26026 0
M  V30 2290 H 239.301 -4.44115 -3.24102 0
M  V30 2291 H 240.526 -5.44123 -4.06333 0
M  V30 2292 H 238.472 -3.66807 -5.43865 0
M  V30 2293 H 238.389 -5.39346 -5.29756 0
M  V30 2294 H 239.657 -4.66993 -6.2413 0
M  V30 2295 N 243.887 0.651787 -1.4349 0
M  V30 2296 C 244.834 1.76462 -1.4876 0
M  V30 2297 C 245.804 1.62641 -0.337189 0
M  V30 2298 O 246.989 1.82864 -0.544544 0
M  V30 2299 C 244.129 3.14623 -1.41796 0
M  V30 2300 C 243.242 3.39568 -2.67053 0
M  V30 2301 C 242.377 4.67585 -2.52068 0
M  V30 2302 C 241.416 4.85639 -3.72587 0
M  V30 2303 N 240.553 6.04915 -3.56402 0
M  V30 2304 H 245.393 1.71293 -2.43849 0
M  V30 2305 H 242.93 0.835889 -1.21043 0
M  V30 2306 H 244.888 3.94496 -1.35753 0
M  V30 2307 H 243.518 3.18859 -0.50288 0
M  V30 2308 H 242.57 2.53783 -2.8337 0
M  V30 2309 H 243.882 3.48795 -3.56572 0
M  V30 2310 H 243.036 5.55586 -2.4374 0
M  V30 2311 H 241.775 4.60681 -1.60075 0
M  V30 2312 H 240.78 3.96073 -3.81321 0
M  V30 2313 H 242.005 4.94372 -4.65589 0
M  V30 2314 H 239.951 5.9914 -2.67146 0
M  V30 2315 H 239.868 6.15106 -4.39524 0
M  V30 2316 H 241.136 6.95533 -3.51929 0
M  V30 2317 N 245.365 1.30045 0.890287 0
M  V30 2318 C 246.776 1.16738 1.45702 0
M  V30 2319 C 247.127 -0.233939 1.948 0
M  V30 2320 O 246.252 -1.13021 1.84541 0
M  V30 2321 C 246.847 2.11313 2.64825 0
M  V30 2322 C 245.406 2.02001 3.17604 0
M  V30 2323 C 244.553 2.01699 1.90296 0
M  V30 2324 H 247.504 1.42392 0.700726 0
M  V30 2325 H 247.525 1.69086 3.40867 0
M  V30 2326 H 247.037 3.13294 2.2906 0
M  V30 2327 H 245.138 1.03142 3.5804 0
M  V30 2328 H 245.251 2.90128 3.81264 0
M  V30 2329 H 243.615 1.46427 2.08402 0
M  V30 2330 H 244.398 3.05402 1.56795 0
M  V30 2331 N 246.843 -1.10192 1.12674 0
M  V30 2332 C 248.254 -1.63707 0.897604 0
M  V30 2333 C 248.605 -1.87812 -0.567546 0
M  V30 2334 O 247.73 -1.62196 -1.43253 0
M  V30 2335 C 248.325 -2.974 1.62292 0
M  V30 2336 C 246.884 -3.47772 1.43986 0
M  V30 2337 C 246.031 -2.22332 1.65722 0
M  V30 2338 H 248.982 -0.936587 1.28116 0
M  V30 2339 H 249.003 -3.64986 1.07541 0
M  V30 2340 H 248.515 -2.79824 2.68924 0
M  V30 2341 H 246.616 -3.70487 0.396206 0
M  V30 2342 H 246.729 -4.25723 2.19765 0
M  V30 2343 H 245.093 -2.30599 1.08149 0
M  V30 2344 H 245.876 -2.07285 2.73657 0
M  V30 2345 N 248.321 -0.919034 -1.28029 0
M  V30 2346 C 249.546 -0.570357 -1.99403 0
M  V30 2347 C 249.971 0.842486 -1.68178 0
M  V30 2348 O 249.329 1.56391 -0.917141 0
M  V30 2349 C 249.377 -0.792541 -3.51783 0
M  V30 2350 O 248.481 0.145988 -4.12142 0
M  V30 2351 H 247.822 -0.220555 -0.6263 0
M  V30 2352 H 250.352 -1.23592 -1.63053 0
M  V30 2353 H 250.362 -0.704708 -4.01868 0
M  V30 2354 H 249.037 -1.82247 -3.73844 0
M  V30 2355 H 247.614 0.00897528 -3.72899 0
M  V30 2356 N 249.799 1.42003 -0.683588 0
M  V30 2357 C 250.709 2.34597 -0.0109075 0
M  V30 2358 C 251.725 1.55576 0.779245 0
M  V30 2359 O 252.901 1.88107 0.719555 0
M  V30 2360 C 249.966 3.34199 0.922588 0
M  V30 2361 C 249.027 4.29115 0.125984 0
M  V30 2362 C 248.26 5.23959 1.01502 0
M  V30 2363 O 248.483 5.23952 2.25456 0
M  V30 2364 O 247.417 6.00053 0.47111 0
M  V30 2365 H 251.243 2.93675 -0.773853 0
M  V30 2366 H 248.828 1.42654 -0.443861 0
M  V30 2367 H 250.71 3.95365 1.45823 0
M  V30 2368 H 249.385 2.77582 1.66523 0
M  V30 2369 H 248.292 3.71335 -0.453969 0
M  V30 2370 H 249.625 4.88798 -0.577736 0
M  V30 2371 N 251.277 0.427512 1.51691 0
M  V30 2372 C 252.24 -0.377132 2.26076 0
M  V30 2373 C 253.24 -0.958089 1.29141 0
M  V30 2374 O 254.43 -0.83408 1.52934 0
M  V30 2375 C 251.562 -1.53262 3.04506 0
M  V30 2376 H 252.755 0.27464 2.9864 0
M  V30 2377 H 250.308 0.180445 1.55255 0
M  V30 2378 H 251.043 -2.22072 2.36335 0
M  V30 2379 H 250.828 -1.12232 3.75694 0
M  V30 2380 H 252.318 -2.10135 3.60878 0
M  V30 2381 N 252.755 -1.56801 0.158532 0
M  V30 2382 C 253.98 -2.01295 -0.499516 0
M  V30 2383 C 254.405 -1.03799 -1.56867 0
M  V30 2384 O 253.763 -0.0155162 -1.81293 0
M  V30 2385 C 253.811 -3.44469 -1.06647 0
M  V30 2386 O 252.915 -3.50012 -2.18095 0
M  V30 2387 H 252.256 -0.652884 -0.12099 0
M  V30 2388 H 254.786 -2.02958 0.258661 0
M  V30 2389 H 254.796 -3.8351 -1.39227 0
M  V30 2390 H 253.471 -4.14932 -0.283581 0
M  V30 2391 H 252.048 -3.22822 -1.86656 0
M  V30 2392 N 254.233 0.115231 -1.57178 0
M  V30 2393 C 255.143 1.15994 -2.03918 0
M  V30 2394 C 256.159 1.45103 -0.960268 0
M  V30 2395 O 257.335 1.56144 -1.27204 0
M  V30 2396 C 254.4 2.46568 -2.43732 0
M  V30 2397 C 253.461 2.24822 -3.65723 0
M  V30 2398 C 252.694 3.4917 -4.03629 0
M  V30 2399 O 252.917 4.56623 -3.41835 0
M  V30 2400 O 251.851 3.39949 -4.96708 0
M  V30 2401 H 255.677 0.793019 -2.93164 0
M  V30 2402 H 253.262 0.3263 -1.45793 0
M  V30 2403 H 255.144 3.23492 -2.70057 0
M  V30 2404 H 253.819 2.82726 -1.57631 0
M  V30 2405 H 252.726 1.45744 -3.44542 0
M  V30 2406 H 254.059 1.93566 -4.52541 0
M  V30 2407 N 255.711 1.52812 0.385517 0
M  V30 2408 C 256.641 1.80808 1.47752 0
M  V30 2409 C 257.622 0.660318 1.5676 0
M  V30 2410 O 258.807 0.908246 1.71652 0
M  V30 2411 C 255.937 1.98008 2.85324 0
M  V30 2412 C 254.891 3.13709 2.91154 0
M  V30 2413 C 254.217 3.16169 4.31209 0
M  V30 2414 C 255.517 4.52709 2.60483 0
M  V30 2415 H 257.211 2.72253 1.24573 0
M  V30 2416 H 254.757 1.31003 0.597839 0
M  V30 2417 H 256.71 2.16176 3.61726 0
M  V30 2418 H 255.434 1.03255 3.09848 0
M  V30 2419 H 254.093 2.95329 2.17201 0
M  V30 2420 H 253.741 2.19092 4.52778 0
M  V30 2421 H 253.441 3.93894 4.36029 0
M  V30 2422 H 254.965 3.36496 5.09512 0
M  V30 2423 H 256.379 4.71173 3.26602 0
M  V30 2424 H 254.776 5.32528 2.76648 0
M  V30 2425 H 255.846 4.59186 1.55809 0
M  V30 2426 N 257.189 -0.644168 1.43834 0
M  V30 2427 C 258.417 -1.43147 1.49387 0
M  V30 2428 C 258.832 -1.88452 0.114583 0
M  V30 2429 O 258.189 -1.60047 -0.876989 0
M  V30 2430 C 258.24 -2.66046 2.44748 0
M  V30 2431 O 257.961 -2.22633 3.77314 0
M  V30 2432 C 259.462 -3.59311 2.59635 0
M  V30 2433 H 256.682 -0.439447 0.507077 0
M  V30 2434 H 259.226 -0.78895 1.88669 0
M  V30 2435 H 257.381 -3.26418 2.08638 0
M  V30 2436 H 257.795 -3.02216 4.28679 0
M  V30 2437 H 259.269 -4.42187 3.30416 0
M  V30 2438 H 259.746 -4.07259 1.64427 0
M  V30 2439 H 260.352 -3.04816 2.96593 0
M  V30 2440 N 258.668 -1.30515 -0.883378 0
M  V30 2441 C 259.915 -1.1943 -1.63532 0
M  V30 2442 C 260.243 0.250627 -1.92878 0
M  V30 2443 O 259.498 1.19556 -1.54935 0
M  V30 2444 C 259.797 -1.96994 -2.98209 0
M  V30 2445 C 259.463 -3.466 -2.88408 0
M  V30 2446 C 258.125 -3.87397 -2.85442 0
M  V30 2447 C 260.477 -4.41863 -2.76418 0
M  V30 2448 C 257.805 -5.21745 -2.68327 0
M  V30 2449 C 260.157 -5.7632 -2.60841 0
M  V30 2450 C 258.821 -6.16354 -2.56251 0
M  V30 2451 H 258.091 -0.437025 -0.598406 0
M  V30 2452 H 260.738 -1.61635 -1.02696 0
M  V30 2453 H 259.043 -1.47429 -3.63004 0
M  V30 2454 H 260.74 -1.85808 -3.55354 0
M  V30 2455 H 257.33 -3.14182 -2.91527 0
M  V30 2456 H 261.514 -4.11285 -2.77775 0
M  V30 2457 H 256.77 -5.51853 -2.63189 0
M  V30 2458 H 260.944 -6.49772 -2.50538 0
M  V30 2459 H 258.571 -7.20401 -2.42748 0
M  V30 2460 N 260.146 1.09593 -1.13257 0
M  V30 2461 C 261.056 2.19739 -0.821691 0
M  V30 2462 C 262.072 1.72926 0.19302 0
M  V30 2463 O 263.248 2.01385 0.0244895 0
M  V30 2464 C 260.313 3.45482 -0.290333 0
M  V30 2465 C 259.374 4.06985 -1.36607 0
M  V30 2466 C 258.607 5.26726 -0.859975 0
M  V30 2467 O 258.83 5.69594 0.303082 0
M  V30 2468 O 257.764 5.7931 -1.63351 0
M  V30 2469 H 261.59 2.48781 -1.74189 0
M  V30 2470 H 259.175 1.18496 -0.909894 0
M  V30 2471 H 261.057 4.214 0.000674022 0
M  V30 2472 H 259.732 3.18047 0.602306 0
M  V30 2473 H 258.639 3.32712 -1.71037 0
M  V30 2474 H 259.972 4.38643 -2.23279 0
M  V30 2475 N 261.624 0.925811 1.2754 0
M  V30 2476 C 262.872 0.564138 1.94067 0
M  V30 2477 C 263.193 -0.897188 1.73134 0
M  V30 2478 O 262.463 -1.63573 1.07799 0
M  V30 2479 H 261.043 0.205645 0.718136 0
M  V30 2480 H 263.705 1.1778 1.55287 0
M  V30 2481 H 262.801 0.76881 3.02483 0
M  V30 2482 N 263.102 -1.41638 0.69111 0
M  V30 2483 C 264.348 -2.01598 0.220519 0
M  V30 2484 C 264.681 -1.54594 -1.17535 0
M  V30 2485 O 263.956 -0.755177 -1.79241 0
M  V30 2486 C 264.239 -3.59062 0.273243 0
M  V30 2487 C 264.092 -4.16203 1.70573 0
M  V30 2488 C 265.411 -4.38546 -0.369457 0
M  V30 2489 H 262.53 -0.732468 0.0816045 0
M  V30 2490 H 265.172 -1.68445 0.878986 0
M  V30 2491 H 263.322 -3.87435 -0.287411 0
M  V30 2492 H 264.994 -3.98722 2.31989 0
M  V30 2493 H 263.237 -3.71414 2.2413 0
M  V30 2494 H 263.908 -5.25358 1.69419 0
M  V30 2495 H 266.384 -4.1596 0.107977 0
M  V30 2496 H 265.26 -5.48069 -0.302002 0
M  V30 2497 H 265.521 -4.17662 -1.44951 0
M  V30 2498 N 264.58 -0.43555 -1.51462 0
M  V30 2499 C 265.991 0.0279871 -1.86679 0
M  V30 2500 C 266.342 1.42104 -1.35281 0
M  V30 2501 O 265.467 2.04667 -0.702878 0
M  V30 2502 C 266.062 0.0575626 -3.38751 0
M  V30 2503 C 264.621 0.465507 -3.7351 0
M  V30 2504 C 263.768 -0.342996 -2.75171 0
M  V30 2505 H 266.719 -0.651473 -1.44712 0
M  V30 2506 H 266.74 0.867421 -3.70481 0
M  V30 2507 H 266.252 -0.956448 -3.7613 0
M  V30 2508 H 264.353 1.48519 -3.41721 0
M  V30 2509 H 264.466 0.191546 -4.78717 0
M  V30 2510 H 262.83 0.198442 -2.53926 0
M  V30 2511 H 263.613 -1.35585 -3.15391 0
M  V30 2512 N 266.058 1.56714 -0.166846 0
M  V30 2513 C 266.991 2.13577 0.80375 0
M  V30 2514 C 267.969 1.06464 1.22899 0
M  V30 2515 O 269.153 1.34413 1.32157 0
M  V30 2516 C 266.28 2.67168 2.0818 0
M  V30 2517 C 265.326 3.86612 1.80093 0
M  V30 2518 S 266.159 5.26565 0.97416 0
M  V30 2519 C 267.315 5.83558 2.26297 0
M  V30 2520 H 267.548 2.9557 0.320267 0
M  V30 2521 H 265.081 1.54326 0.0477555 0
M  V30 2522 H 267.039 2.98692 2.8159 0
M  V30 2523 H 265.7 1.85269 2.53642 0
M  V30 2524 H 264.893 4.22422 2.7491 0
M  V30 2525 H 264.495 3.55951 1.14781 0
M  V30 2526 H 266.787 5.962 3.21795 0
M  V30 2527 H 267.73 6.80731 1.94962 0
M  V30 2528 H 268.138 5.11944 2.37853 0
M  V30 2529 N 267.536 -0.106894 1.57237 0
M  V30 2530 C 268.764 -0.826389 1.8968 0
M  V30 2531 C 269.179 -1.72856 0.759353 0
M  V30 2532 O 268.536 -1.80503 -0.269263 0
M  V30 2533 C 268.587 -1.64967 3.21665 0
M  V30 2534 O 268.308 -0.783804 4.31031 0
M  V30 2535 C 269.809 -2.47326 3.67892 0
M  V30 2536 H 267.029 -0.236927 0.627779 0
M  V30 2537 H 269.573 -0.0876593 2.04312 0
M  V30 2538 H 267.728 -2.34103 3.08666 0
M  V30 2539 H 268.142 -1.35284 5.06753 0
M  V30 2540 H 269.616 -3.00604 4.6297 0
M  V30 2541 H 270.093 -3.25247 2.95146 0
M  V30 2542 H 270.699 -1.83411 3.83719 0
M  V30 2543 N 269.014 -1.53014 -0.377408 0
M  V30 2544 C 269.964 -1.74996 -1.46152 0
M  V30 2545 C 270.948 -0.604236 -1.49123 0
M  V30 2546 O 272.14 -0.862489 -1.54564 0
M  V30 2547 C 269.269 -1.93267 -2.8373 0
M  V30 2548 C 268.355 -3.13807 -2.85283 0
M  V30 2549 N 268.746 -4.35941 -2.56493 0
M  V30 2550 C 267.044 -3.14288 -3.16448 0
M  V30 2551 C 267.745 -5.17615 -2.65424 0
M  V30 2552 N 266.721 -4.53559 -2.99641 0
M  V30 2553 H 270.523 -2.67044 -1.22738 0
M  V30 2554 H 268.037 -1.51479 -0.585479 0
M  V30 2555 H 270.034 -2.0714 -3.61799 0
M  V30 2556 H 268.694 -1.0244 -3.08117 0
M  V30 2557 H 269.705 -4.63876 -2.30302 0
M  V30 2558 H 266.382 -2.33312 -3.46225 0
M  V30 2559 H 267.772 -6.25006 -2.46612 0
M  V30 2560 N 270.492 0.636531 -1.44174 0
M  V30 2561 C 271.717 1.42847 -1.50364 0
M  V30 2562 C 272.142 1.87665 -0.127867 0
M  V30 2563 O 271.5 1.58408 0.88185 0
M  V30 2564 C 271.548 2.62854 -2.4686 0
M  V30 2565 O 270.652 3.62501 -1.9664 0
M  V30 2566 H 269.993 0.427642 -0.507955 0
M  V30 2567 H 272.523 0.777422 -1.89255 0
M  V30 2568 H 272.533 3.10465 -2.64718 0
M  V30 2569 H 271.208 2.29578 -3.46795 0
M  V30 2570 H 269.785 3.21735 -1.88523 0
M  V30 2571 N 271.97 1.30982 0.876444 0
M  V30 2572 C 273.381 1.18277 1.44456 0
M  V30 2573 C 273.732 -0.213265 1.95037 0
M  V30 2574 O 272.857 -1.11057 1.85729 0
M  V30 2575 C 273.452 2.1411 2.62569 0
M  V30 2576 C 272.011 2.05358 3.15444 0
M  V30 2577 C 271.158 2.03706 1.88146 0
M  V30 2578 H 274.109 1.43127 0.685584 0
M  V30 2579 H 274.13 1.72692 3.39054 0
M  V30 2580 H 273.642 3.15706 2.25724 0
M  V30 2581 H 271.743 1.06934 3.56926 0
M  V30 2582 H 271.856 2.94156 3.78166 0
M  V30 2583 H 270.22 1.48629 2.06837 0
M  V30 2584 H 271.003 3.07047 1.53547 0
M  V30 2585 N 273.449 -1.08991 1.13837 0
M  V30 2586 C 274.677 -1.85011 0.926202 0
M  V30 2587 C 275.092 -1.8135 -0.525127 0
M  V30 2588 O 274.449 -1.21287 -1.36366 0
M  V30 2589 C 274.5 -3.32802 1.41155 0
M  V30 2590 O 274.221 -3.36444 2.80601 0
M  V30 2591 C 275.722 -4.25649 1.23847 0
M  V30 2592 H 272.942 -0.584249 0.32999 0
M  V30 2593 H 275.486 -1.37688 1.51202 0
M  V30 2594 H 273.641 -3.77536 0.868631 0
M  V30 2595 H 274.055 -4.28657 3.02248 0
M  V30 2596 H 275.529 -5.27485 1.62675 0
M  V30 2597 H 276.006 -4.38828 0.18065 0
M  V30 2598 H 276.612 -3.86735 1.76964 0
M  V30 2599 N 274.927 -0.932562 -1.27047 0
M  V30 2600 C 276.204 -0.49377 -1.89265 0
M  V30 2601 C 276.584 1.02833 -1.8436 0
M  V30 2602 O 275.932 1.88461 -1.29209 0
M  V30 2603 C 276.142 -1.04536 -3.32976 0
M  V30 2604 C 277.49 -1.10879 -4.09867 0
M  V30 2605 O 278.514 -0.995327 -3.42011 0
M  V30 2606 O 277.373 -1.28417 -5.31198 0
M  V30 2607 H 274.467 -0.159596 -0.811454 0
M  V30 2608 H 277.013 -1.02457 -1.3528 0
M  V30 2609 H 275.785 -2.08913 -3.30864 0
M  V30 2610 H 275.408 -0.496494 -3.94488 0
M  V30 2611 N 276.405 1.4127 -0.698611 0
M  V30 2612 C 277.816 1.84187 -0.305289 0
M  V30 2613 C 278.167 1.58449 1.15708 0
M  V30 2614 O 277.292 1.05651 1.88856 0
M  V30 2615 C 277.887 3.3435 -0.547314 0
M  V30 2616 C 276.446 3.75826 -0.207878 0
M  V30 2617 C 275.593 2.64647 -0.828099 0
M  V30 2618 H 278.544 1.30778 -0.89904 0
M  V30 2619 H 278.565 3.8001 0.192998 0
M  V30 2620 H 278.077 3.53051 -1.61172 0
M  V30 2621 H 276.178 3.62725 0.852143 0
M  V30 2622 H 276.291 4.74462 -0.665021 0
M  V30 2623 H 274.655 2.53395 -0.257458 0
M  V30 2624 H 275.438 2.86165 -1.89643 0
M  V30 2625 N 277.883 0.443576 1.51229 0
M  V30 2626 C 279.299 0.0962001 1.5931 0
M  V30 2627 C 279.499 -1.39501 1.45402 0
M  V30 2628 O 278.555 -2.16557 1.29843 0
M  V30 2629 C 279.868 0.621875 2.94199 0
M  V30 2630 C 281.416 0.582865 3.07525 0
M  V30 2631 C 281.891 1.08562 4.44948 0
M  V30 2632 N 283.382 1.04387 4.51284 0
M  V30 2633 C 284.117 1.40368 5.55954 0
M  V30 2634 N 283.613 1.83664 6.68011 0
M  V30 2635 N 285.406 1.32145 5.46346 0
M  V30 2636 H 277.557 1.41376 1.58514 0
M  V30 2637 H 279.82 0.582965 0.747567 0
M  V30 2638 H 279.526 1.66546 3.09767 0
M  V30 2639 H 279.4 0.0502125 3.77167 0
M  V30 2640 H 281.787 -0.451749 2.91622 0
M  V30 2641 H 281.868 1.191 2.26382 0
M  V30 2642 H 281.512 2.11873 4.61598 0
M  V30 2643 H 281.442 0.453956 5.2464 0
M  V30 2644 H 283.933 0.725986 3.70861 0
M  V30 2645 H 284.246 2.0934 7.43906 0
M  V30 2646 H 282.591 1.87596 6.69203 0
M  V30 2647 H 285.782 0.981808 4.57688 0
M  V30 2648 H 285.955 1.60514 6.27805 0
M  V30 2649 N 279.361 -1.56624 0.175154 0
M  V30 2650 C 280.772 -1.83561 -0.340916 0
M  V30 2651 C 281.123 -1.09511 -1.62794 0
M  V30 2652 O 280.248 -0.349389 -2.13561 0
M  V30 2653 C 280.843 -3.32979 -0.625313 0
M  V30 2654 C 279.402 -3.60399 -1.08581 0
M  V30 2655 C 278.549 -2.77024 -0.123722 0
M  V30 2656 H 281.5 -1.53593 0.399344 0
M  V30 2657 H 281.521 -3.50666 -1.47694 0
M  V30 2658 H 281.033 -3.86847 0.311575 0
M  V30 2659 H 279.134 -3.11945 -2.03767 0
M  V30 2660 H 279.247 -4.68711 -0.992317 0
M  V30 2661 H 277.611 -2.46993 -0.621821 0
M  V30 2662 H 278.394 -3.33674 0.807256 0
M  V30 2663 N 280.839 0.0985539 -1.57292 0
M  V30 2664 C 281.802 1.10402 -2.00858 0
M  V30 2665 C 282.802 1.33146 -0.901593 0
M  V30 2666 O 283.992 1.29318 -1.16716 0
M  V30 2667 C 281.124 2.45394 -2.36632 0
M  V30 2668 H 282.317 0.729099 -2.90902 0
M  V30 2669 H 279.87 0.343495 -1.52479 0
M  V30 2670 H 280.605 2.87769 -1.49531 0
M  V30 2671 H 280.39 2.30235 -3.17387 0
M  V30 2672 H 281.88 3.17718 -2.71007 0
M  V30 2673 N 282.317 1.53212 0.369288 0
M  V30 2674 C 283.264 1.79388 1.45219 0
M  V30 2675 C 284.234 0.638059 1.53356 0
M  V30 2676 O 285.419 0.879852 1.69302 0
M  V30 2677 C 282.559 1.98623 2.82211 0
M  V30 2678 C 281.672 3.26337 2.8307 0
M  V30 2679 C 280.807 3.35779 4.11614 0
M  V30 2680 C 279.846 4.5754 4.06601 0
M  V30 2681 N 278.983 4.64155 5.26787 0
M  V30 2682 H 283.823 2.71794 1.22198 0
M  V30 2683 H 281.36 1.34642 0.592444 0
M  V30 2684 H 283.318 2.07761 3.61789 0
M  V30 2685 H 281.948 1.09558 3.03639 0
M  V30 2686 H 281 3.26171 1.95747 0
M  V30 2687 H 282.312 4.15988 2.75237 0
M  V30 2688 H 281.466 3.44208 4.99606 0
M  V30 2689 H 280.205 2.44137 4.22195 0
M  V30 2690 H 279.21 4.49215 3.16996 0
M  V30 2691 H 280.435 5.50519 3.97625 0
M  V30 2692 H 278.381 3.75413 5.3796 0
M  V30 2693 H 278.298 5.47706 5.21109 0
M  V30 2694 H 279.566 4.76863 6.16621 0
M  V30 2695 N 283.795 -0.628877 1.44509 0
M  V30 2696 C 284.758 -1.72263 1.51188 0
M  V30 2697 C 285.758 -1.55907 0.39367 0
M  V30 2698 O 286.948 -1.61361 0.656377 0
M  V30 2699 C 284.08 -3.11365 1.38798 0
M  V30 2700 H 285.273 -1.67714 2.4862 0
M  V30 2701 H 282.826 -0.842737 1.31634 0
M  V30 2702 H 283.561 -3.21507 0.424693 0
M  V30 2703 H 283.346 -3.24644 2.19884 0
M  V30 2704 H 284.836 -3.91075 1.46458 0
M  V30 2705 N 285.273 -1.31445 -0.869486 0
M  V30 2706 C 286.183 -1.21097 -2.0093 0
M  V30 2707 C 287.199 -0.127584 -1.73532 0
M  V30 2708 O 288.375 -0.345477 -1.98415 0
M  V30 2709 C 285.44 -0.919378 -3.34288 0
M  V30 2710 C 284.501 -2.08971 -3.75006 0
M  V30 2711 C 283.734 -1.81194 -5.02001 0
M  V30 2712 O 283.957 -0.747296 -5.65484 0
M  V30 2713 O 282.891 -2.66883 -5.39497 0
M  V30 2714 H 286.717 -2.16883 -2.12592 0
M  V30 2715 H 284.302 -1.11189 -0.997868 0
M  V30 2716 H 286.184 -0.772625 -4.14257 0
M  V30 2717 H 284.859 0.00844772 -3.23699 0
M  V30 2718 H 283.766 -2.29187 -2.95676 0
M  V30 2719 H 285.099 -2.9998 -3.90221 0
M  V30 2720 N 286.751 1.08385 -1.14413 0
M  V30 2721 C 287.661 2.18856 -0.844951 0
M  V30 2722 C 288.677 1.73121 0.174668 0
M  V30 2723 O 289.853 2.014 0.00312857 0
M  V30 2724 C 286.918 3.45155 -0.32696 0
M  V30 2725 C 285.979 4.05513 -1.40916 0
M  V30 2726 C 285.212 5.25784 -0.915793 0
M  V30 2727 O 285.435 5.69884 0.242651 0
M  V30 2728 O 284.369 5.77545 -1.69487 0
M  V30 2729 H 288.195 2.46919 -1.76818 0
M  V30 2730 H 285.78 1.17524 -0.922411 0
M  V30 2731 H 287.662 4.21377 -0.0440211 0
M  V30 2732 H 286.337 3.18668 0.568539 0
M  V30 2733 H 285.244 3.30879 -1.74556 0
M  V30 2734 H 286.577 4.3625 -2.27919 0
M  V30 2735 N 288.23 0.939286 1.26551 0
M  V30 2736 C 289.478 0.58469 1.93457 0
M  V30 2737 C 289.799 -0.878774 1.74076 0
M  V30 2738 O 289.069 -1.62421 1.09528 0
M  V30 2739 H 287.649 0.21325 0.715914 0
M  V30 2740 H 290.311 1.1942 1.54029 0
M  V30 2741 H 289.407 0.800849 3.0165 0
M  V30 2742 N 289.708 -1.40897 0.706093 0
M  V30 2743 C 290.655 -2.30751 0.0474474 0
M  V30 2744 C 291.625 -1.47678 -0.76029 0
M  V30 2745 O 292.81 -1.76441 -0.726177 0
M  V30 2746 C 289.95 -3.33815 -0.875309 0
M  V30 2747 C 289.063 -4.31961 -0.0580623 0
M  V30 2748 C 288.198 -5.22093 -0.979425 0
M  V30 2749 C 287.237 -6.11902 -0.155706 0
M  V30 2750 N 286.374 -6.94482 -1.03144 0
M  V30 2751 H 291.214 -2.86513 0.819413 0
M  V30 2752 H 288.751 -1.41102 0.415783 0
M  V30 2753 H 290.709 -3.92129 -1.42446 0
M  V30 2754 H 289.339 -2.79579 -1.61356 0
M  V30 2755 H 288.391 -3.75507 0.608147 0
M  V30 2756 H 289.703 -4.95415 0.580082 0
M  V30 2757 H 288.857 -5.85292 -1.59744 0
M  V30 2758 H 287.596 -4.5889 -1.65141 0
M  V30 2759 H 286.601 -5.47742 0.475309 0
M  V30 2760 H 287.826 -6.77162 0.512635 0
M  V30 2761 H 285.772 -6.33877 -1.68924 0
M  V30 2762 H 285.689 -7.54665 -0.449108 0
M  V30 2763 H 286.957 -7.6214 -1.63593 0
M  V30 2764 N 291.186 -0.45159 -1.50991 0
M  V30 2765 C 292.134 0.366864 -2.29689 0
M  V30 2766 C 293.128 1.00809 -1.36139 0
M  V30 2767 O 294.334 0.941427 -1.53418 0
M  V30 2768 H 290.709 0.137133 -0.739391 0
M  V30 2769 H 292.68 -0.317538 -2.96706 0
M  V30 2770 C 291.429 1.44751 -3.16137 0
M  V30 2771 H 290.752 0.963473 -3.88017 0
M  V30 2772 H 292.192 1.99315 -3.74232 0
M  V30 2773 C 290.651 2.43869 -2.32442 0
M  V30 2774 O 291.181 3.4872 -1.99392 0
M  V30 2775 N 289.387 2.15105 -1.95392 0
M  V30 2776 H 288.934 1.29866 -2.22469 0
M  V30 2777 H 288.892 2.81661 -1.39693 0
M  V30 2778 N 292.664 1.56529 -0.183458 0
M  V30 2779 C 293.913 1.96419 0.458511 0
M  V30 2780 C 294.226 1.0727 1.63562 0
M  V30 2781 O 295.432 1.36893 2.34462 0
M  V30 2782 C 293.888 3.49298 0.867122 0
M  V30 2783 C 293.496 4.47092 -0.285057 0
M  V30 2784 C 295.24 3.97983 1.47683 0
M  V30 2785 C 293.147 5.91225 0.143862 0
M  V30 2786 H 292.077 0.733394 0.175071 0
M  V30 2787 H 294.728 1.81448 -0.273624 0
M  V30 2788 H 293.11 3.59731 1.65559 0
M  V30 2789 H 294.284 4.48383 -1.0625 0
M  V30 2790 H 292.599 4.08535 -0.805503 0
M  V30 2791 H 295.196 5.03134 1.80999 0
M  V30 2792 H 295.539 3.41618 2.37914 0
M  V30 2793 H 296.072 3.90617 0.752562 0
M  V30 2794 H 292.811 6.5149 -0.723974 0
M  V30 2795 H 292.331 5.93214 0.886413 0
M  V30 2796 H 294.01 6.44362 0.583628 0
M  V30 2797 N 294.142 -0.090211 1.57342 0
M  V30 2798 C 295.072 -1.10976 2.05443 0
M  V30 2799 C 296.053 -1.41482 0.944284 0
M  V30 2800 O 297.238 -1.51428 1.21586 0
M  V30 2801 C 294.368 -2.42831 2.48295 0
M  V30 2802 C 293.322 -2.26721 3.63018 0
M  V30 2803 C 292.648 -3.63796 3.91863 0
M  V30 2804 C 293.948 -1.7037 4.93732 0
M  V30 2805 H 295.642 -0.709564 2.9087 0
M  V30 2806 H 293.188 -0.339874 1.39932 0
M  V30 2807 H 295.141 -3.14431 2.80555 0
M  V30 2808 H 293.865 -2.84795 1.59873 0
M  V30 2809 H 292.524 -1.57565 3.31012 0
M  V30 2810 H 292.172 -4.03297 3.00601 0
M  V30 2811 H 291.872 -3.53861 4.69101 0
M  V30 2812 H 293.396 -4.36855 4.26603 0
M  V30 2813 H 294.81 -2.31816 5.24342 0
M  V30 2814 H 293.207 -1.71181 5.75167 0
M  V30 2815 H 294.277 -0.663542 4.80339 0
M  V30 2816 N 295.62 -1.53406 -0.361157 0
M  V30 2817 C 296.583 -1.79479 -1.42548 0
M  V30 2818 C 297.583 -0.665327 -1.4639 0
M  V30 2819 O 298.773 -0.933549 -1.47073 0
M  V30 2820 C 295.905 -1.92087 -2.8163 0
M  V30 2821 H 297.098 -2.74538 -1.20701 0
M  V30 2822 H 294.651 -1.4455 -0.594546 0
M  V30 2823 H 295.386 -0.991099 -3.08784 0
M  V30 2824 H 295.171 -2.74241 -2.80239 0
M  V30 2825 H 296.661 -2.13836 -3.58697 0
M  V30 2826 N 297.098 0.621204 -1.44841 0
M  V30 2827 C 298.008 1.7612 -1.5498 0
M  V30 2828 C 299.024 1.68477 -0.434927 0
M  V30 2829 O 300.2 1.89076 -0.693693 0
M  V30 2830 C 297.265 3.1254 -1.50065 0
M  V30 2831 C 296.326 3.31741 -2.72482 0
M  V30 2832 C 295.559 4.61653 -2.67792 0
M  V30 2833 O 295.782 5.431 -1.74352 0
M  V30 2834 O 294.716 4.83271 -3.58794 0
M  V30 2835 H 298.542 1.70518 -2.51311 0
M  V30 2836 H 296.127 0.783643 -1.27198 0
M  V30 2837 H 298.009 3.93844 -1.49882 0
M  V30 2838 H 296.684 3.18663 -0.568806 0
M  V30 2839 H 295.591 2.50077 -2.7823 0
M  V30 2840 H 296.924 3.30486 -3.64746 0
M  V30 2841 N 298.576 1.31904 0.862503 0
M  V30 2842 C 299.801 1.25135 1.65397 0
M  V30 2843 C 300.226 -0.179 1.87246 0
M  V30 2844 O 299.584 -1.1277 1.4196 0
M  V30 2845 C 299.632 2.00832 2.99498 0
M  V30 2846 O 298.736 1.35075 3.89652 0
M  V30 2847 H 298.077 0.431655 0.504549 0
M  V30 2848 H 300.607 1.74094 1.07483 0
M  V30 2849 H 300.617 2.10709 3.49379 0
M  V30 2850 H 299.292 3.04847 2.82916 0
M  V30 2851 H 297.869 1.33696 3.48109 0
M  V30 2852 N 300.054 -1.07777 1.14986 0
M  V30 2853 C 300.986 -2.14769 0.800436 0
M  V30 2854 C 301.999 -1.61739 -0.185595 0
M  V30 2855 O 303.188 -1.78462 0.0370358 0
M  V30 2856 C 300.288 -3.38481 0.168533 0
M  V30 2857 C 299.461 -4.20876 1.1909 0
M  V30 2858 C 298.52 -5.22976 0.581575 0
M  V30 2859 O 297.546 -5.55388 1.24633 0
M  V30 2860 N 298.748 -5.76976 -0.638706 0
M  V30 2861 H 301.513 -2.45348 1.72118 0
M  V30 2862 H 299.074 -1.23645 1.04515 0
M  V30 2863 H 301.066 -4.03916 -0.251764 0
M  V30 2864 H 299.636 -3.05651 -0.655467 0
M  V30 2865 H 298.856 -3.51322 1.78791 0
M  V30 2866 H 300.144 -4.7274 1.88133 0
M  V30 2867 H 299.542 -5.52886 -1.19723 0
M  V30 2868 H 298.099 -6.44061 -1.00142 0
M  V30 2869 N 301.532 -0.945985 -1.26051 0
M  V30 2870 C 302.479 -0.45809 -2.26208 0
M  V30 2871 C 303.449 0.484816 -1.58867 0
M  V30 2872 O 304.634 0.399969 -1.86561 0
M  V30 2873 C 301.774 0.266131 -3.44072 0
M  V30 2874 C 300.887 -0.713005 -4.26075 0
M  V30 2875 C 300.022 0.0329013 -5.3119 0
M  V30 2876 C 299.061 -0.93774 -6.04874 0
M  V30 2877 N 298.198 -0.223274 -7.01745 0
M  V30 2878 H 303.038 -1.3171 -2.67313 0
M  V30 2879 H 300.575 -0.66069 -1.31428 0
M  V30 2880 H 302.533 0.702514 -4.11243 0
M  V30 2881 H 301.163 1.08925 -3.03867 0
M  V30 2882 H 300.215 -1.26789 -3.58648 0
M  V30 2883 H 301.527 -1.45406 -4.77136 0
M  V30 2884 H 300.681 0.528335 -6.04395 0
M  V30 2885 H 299.42 0.806801 -4.8098 0
M  V30 2886 H 298.425 -1.44425 -5.30492 0
M  V30 2887 H 299.65 -1.71172 -6.57173 0
M  V30 2888 H 297.596 0.532046 -6.53839 0
M  V30 2889 H 297.513 -0.90357 -7.50581 0
M  V30 2890 H 298.781 0.250907 -7.79096 0
M  V30 2891 N 303.011 1.40521 -0.713556 0
M  V30 2892 C 303.921 2.34522 -0.0606667 0
M  V30 2893 C 304.937 1.57193 0.74607 0
M  V30 2894 O 306.113 1.89591 0.679493 0
M  V30 2895 C 303.178 3.36081 0.851491 0
M  V30 2896 C 302.239 4.29286 0.0349339 0
M  V30 2897 C 301.472 5.25994 0.903649 0
M  V30 2898 O 301.695 5.28616 2.14292 0
M  V30 2899 O 300.629 6.00918 0.343723 0
M  V30 2900 H 304.455 2.91968 -0.835972 0
M  V30 2901 H 302.04 1.41681 -0.47402 0
M  V30 2902 H 303.922 3.98369 1.37404 0
M  V30 2903 H 302.597 2.81052 1.60598 0
M  V30 2904 H 301.504 3.70289 -0.532633 0
M  V30 2905 H 302.837 4.87462 -0.681287 0
M  V30 2906 N 304.489 0.459591 1.5075 0
M  V30 2907 C 305.735 -0.0994966 2.02556 0
M  V30 2908 C 306.068 -1.40399 1.3417 0
M  V30 2909 O 305.343 -1.88892 0.463683 0
M  V30 2910 C 305.626 -0.295242 3.58888 0
M  V30 2911 C 305.479 1.02947 4.37861 0
M  V30 2912 C 306.798 -1.05502 4.27267 0
M  V30 2913 H 303.917 -0.034686 0.736183 0
M  V30 2914 H 306.559 0.602938 1.8018 0
M  V30 2915 H 304.709 -0.893563 3.78084 0
M  V30 2916 H 306.381 1.66348 4.30263 0
M  V30 2917 H 304.624 1.62885 4.02058 0
M  V30 2918 H 305.295 0.846281 5.45474 0
M  V30 2919 H 307.771 -0.547993 4.12476 0
M  V30 2920 H 306.647 -1.16077 5.36486 0
M  V30 2921 H 306.908 -2.08875 3.89645 0
M  V30 2922 N 305.967 -1.56429 0.191757 0
M  V30 2923 C 307.215 -1.97095 -0.447006 0
M  V30 2924 C 307.536 -1.07967 -1.62383 0
M  V30 2925 O 306.806 -0.150248 -1.95323 0
M  V30 2926 H 305.386 -0.727832 -0.168135 0
M  V30 2927 H 308.048 -1.92911 0.27771 0
M  V30 2928 H 307.144 -3.01848 -0.793371 0
M  V30 2929 N 307.445 0.0818655 -1.57387 0
M  V30 2930 C 308.355 1.11642 -2.06333 0
M  V30 2931 C 309.371 1.43033 -0.99083 0
M  V30 2932 O 310.547 1.53411 -1.30488 0
M  V30 2933 C 307.612 2.41342 -2.48907 0
M  V30 2934 C 306.673 2.17014 -3.7041 0
M  V30 2935 C 305.906 3.4053 -4.10944 0
M  V30 2936 O 306.129 4.4927 -3.51444 0
M  V30 2937 O 305.063 3.29336 -5.03807 0
M  V30 2938 H 308.889 0.730657 -2.9478 0
M  V30 2939 H 306.474 0.295301 -1.46452 0
M  V30 2940 H 308.356 3.17691 -2.76858 0
M  V30 2941 H 307.031 2.79319 -1.63593 0
M  V30 2942 H 305.938 1.38403 -3.47556 0
M  V30 2943 H 307.271 1.83923 -4.56545 0
M  V30 2944 N 308.923 1.53595 0.353017 0
M  V30 2945 C 309.87 1.80919 1.43308 0
M  V30 2946 C 310.84 0.654288 1.5267 0
M  V30 2947 O 312.025 0.897759 1.6836 0
M  V30 2948 C 309.165 2.01605 2.80089 0
M  V30 2949 C 308.278 3.29321 2.79593 0
M  V30 2950 C 307.413 3.40125 4.0803 0
M  V30 2951 C 306.452 4.61826 4.01725 0
M  V30 2952 N 305.589 4.69716 5.21834 0
M  V30 2953 H 310.429 2.73074 1.19308 0
M  V30 2954 H 307.966 1.35263 0.578131 0
M  V30 2955 H 309.924 2.11586 3.59565 0
M  V30 2956 H 308.554 1.12772 3.0246 0
M  V30 2957 H 307.606 3.28229 1.92276 0
M  V30 2958 H 308.918 4.18884 2.70809 0
M  V30 2959 H 308.072 3.49488 4.95927 0
M  V30 2960 H 306.811 2.48601 4.19582 0
M  V30 2961 H 305.816 4.52552 3.12213 0
M  V30 2962 H 307.041 5.54705 3.91764 0
M  V30 2963 H 304.987 3.81097 5.33948 0
M  V30 2964 H 304.904 5.53202 5.1527 0
M  V30 2965 H 306.172 4.83376 6.11529 0
M  V30 2966 N 310.401 -0.613514 1.45168 0
M  V30 2967 C 311.629 -1.39946 1.5239 0
M  V30 2968 C 312.044 -1.88167 0.154531 0
M  V30 2969 O 311.401 -1.61872 -0.842843 0
M  V30 2970 C 311.452 -2.60795 2.50337 0
M  V30 2971 O 311.173 -2.1458 3.81952 0
M  V30 2972 C 312.674 -3.53723 2.67198 0
M  V30 2973 H 309.894 -0.428593 0.516284 0
M  V30 2974 H 312.438 -0.748753 1.903 0
M  V30 2975 H 310.593 -3.21919 2.15515 0
M  V30 2976 H 311.007 -2.93055 4.34993 0
M  V30 2977 H 312.481 -4.35079 3.39721 0
M  V30 2978 H 312.958 -4.0368 1.73029 0
M  V30 2979 H 313.564 -2.98456 3.02992 0
M  V30 2980 N 311.879 -1.3236 -0.855495 0
M  V30 2981 C 313.29 -1.2056 -1.42556 0
M  V30 2982 C 313.641 0.182209 -1.95352 0
M  V30 2983 O 312.766 1.08088 -1.87472 0
M  V30 2984 C 313.361 -2.1826 -2.59129 0
M  V30 2985 C 311.92 -2.10351 -3.12137 0
M  V30 2986 C 311.067 -2.06674 -1.84882 0
M  V30 2987 H 314.018 -1.442 -0.662727 0
M  V30 2988 H 314.039 -1.78064 -3.36264 0
M  V30 2989 H 313.551 -3.19257 -2.20673 0
M  V30 2990 H 311.652 -1.12599 -3.55179 0
M  V30 2991 H 311.765 -3.00135 -3.73438 0
M  V30 2992 H 310.129 -1.51901 -2.04446 0
M  V30 2993 H 310.912 -3.09451 -1.48643 0
M  V30 2994 N 313.357 1.07166 -1.15556 0
M  V30 2995 C 314.605 1.79443 -0.929764 0
M  V30 2996 C 314.926 1.87246 0.544414 0
M  V30 2997 O 314.196 1.37473 1.39564 0
M  V30 2998 H 312.776 0.664625 -0.341003 0
M  V30 2999 H 315.438 1.29499 -1.45657 0
M  V30 3000 H 314.534 2.81832 -1.34079 0
M  V30 3001 N 314.835 0.952656 1.25548 0
M  V30 3002 C 315.767 0.428609 2.25157 0
M  V30 3003 C 316.78 -0.454428 1.56329 0
M  V30 3004 O 317.969 -0.263023 1.76552 0
M  V30 3005 C 315.069 -0.401972 3.36508 0
M  V30 3006 C 314.242 0.467601 4.34893 0
M  V30 3007 C 313.301 -0.30445 5.25319 0
M  V30 3008 O 312.327 0.296473 5.68427 0
M  V30 3009 N 313.529 -1.59805 5.5807 0
M  V30 3010 H 316.294 1.28497 2.70756 0
M  V30 3011 H 313.855 0.822798 1.39433 0
M  V30 3012 H 315.847 -0.926134 3.9396 0
M  V30 3013 H 314.417 -1.15918 2.90313 0
M  V30 3014 H 313.637 1.17288 3.76347 0
M  V30 3015 H 314.925 1.06119 4.97611 0
M  V30 3016 H 314.323 -2.10823 5.24948 0
M  V30 3017 H 312.88 -2.06822 6.18116 0
M  V30 3018 N 316.313 -1.40141 0.720998 0
M  V30 3019 C 317.276 -2.29058 0.0805834 0
M  V30 3020 C 318.276 -1.45632 -0.681758 0
M  V30 3021 O 319.466 -1.6648 -0.512856 0
M  V30 3022 C 316.598 -3.28925 -0.895593 0
M  V30 3023 H 317.791 -2.87191 0.863793 0
M  V30 3024 H 315.344 -1.48553 0.485975 0
M  V30 3025 H 316.079 -2.75822 -1.70566 0
M  V30 3026 H 315.864 -3.90519 -0.351766 0
M  V30 3027 H 317.354 -3.95494 -1.34069 0
M  V30 3028 N 317.792 -0.46758 -1.50504 0
M  V30 3029 C 319.04 0.0884469 -2.01906 0
M  V30 3030 C 319.361 1.40532 -1.35188 0
M  V30 3031 O 318.631 1.89515 -0.496079 0
M  V30 3032 H 317.211 0.0356765 -0.746148 0
M  V30 3033 H 319.873 -0.6172 -1.84869 0
M  V30 3034 H 318.969 0.2425 -3.11156 0
M  V30 3035 N 319.27 1.56325 -0.20005 0
M  V30 3036 C 320.202 2.16555 0.750771 0
M  V30 3037 C 321.215 1.12871 1.1732 0
M  V30 3038 O 322.404 1.39943 1.10807 0
M  V30 3039 C 319.504 2.71684 2.02586 0
M  V30 3040 C 318.677 4.00321 1.76244 0
M  V30 3041 C 317.736 4.40227 2.88248 0
M  V30 3042 O 316.762 5.07552 2.57642 0
M  V30 3043 N 317.964 4.04138 4.16717 0
M  V30 3044 H 320.729 2.98772 0.235685 0
M  V30 3045 H 318.29 1.6189 -0.0182594 0
M  V30 3046 H 320.282 2.95363 2.76664 0
M  V30 3047 H 318.852 1.93893 2.45202 0
M  V30 3048 H 318.072 3.84723 0.85919 0
M  V30 3049 H 319.36 4.84279 1.56048 0
M  V30 3050 H 318.758 3.49993 4.44434 0
M  V30 3051 H 317.315 4.32756 4.87407 0
M  V30 3052 N 320.748 -0.0735177 1.57428 0
M  V30 3053 C 321.711 -1.07192 2.02589 0
M  V30 3054 C 322.711 -1.31695 0.922661 0
M  V30 3055 O 323.901 -1.27445 1.18758 0
M  V30 3056 C 321.033 -2.41599 2.40506 0
M  V30 3057 H 322.226 -0.682727 2.92025 0
M  V30 3058 H 319.779 -0.319193 1.53006 0
M  V30 3059 H 320.514 -2.85354 1.5409 0
M  V30 3060 H 320.299 -2.25156 3.21009 0
M  V30 3061 H 321.789 -3.13367 2.76027 0
M  V30 3062 N 322.226 -1.5378 -0.344866 0
M  V30 3063 C 323.173 -1.81676 -1.42346 0
M  V30 3064 C 324.143 -0.662376 -1.52321 0
M  V30 3065 O 325.328 -0.906675 -1.67881 0
M  V30 3066 C 322.468 -2.03087 -2.79015 0
M  V30 3067 C 321.581 -3.30799 -2.77842 0
M  V30 3068 C 320.716 -3.42285 -4.0622 0
M  V30 3069 C 319.755 -4.6395 -3.9927 0
M  V30 3070 N 318.892 -4.72477 -5.19336 0
M  V30 3071 H 323.732 -2.73703 -1.17858 0
M  V30 3072 H 321.269 -1.35568 -0.570949 0
M  V30 3073 H 323.227 -2.1349 -3.58438 0
M  V30 3074 H 321.857 -1.14375 -3.01858 0
M  V30 3075 H 320.909 -3.29244 -1.90533 0
M  V30 3076 H 322.221 -4.20314 -2.68584 0
M  V30 3077 H 321.375 -3.52113 -4.94066 0
M  V30 3078 H 320.114 -2.50823 -4.18258 0
M  V30 3079 H 319.119 -4.54201 -3.09809 0
M  V30 3080 H 320.344 -5.56775 -3.88817 0
M  V30 3081 H 318.29 -3.83924 -5.3192 0
M  V30 3082 H 318.207 -5.55927 -5.12329 0
M  V30 3083 H 319.475 -4.86613 -6.08957 0
M  V30 3084 N 323.704 0.605807 -1.45491 0
M  V30 3085 C 324.637 1.73022 -1.48791 0
M  V30 3086 C 325.615 1.58917 -0.344112 0
M  V30 3087 O 326.799 1.80453 -0.544876 0
M  V30 3088 C 323.926 3.10865 -1.34463 0
M  V30 3089 C 322.972 3.43554 -2.5273 0
M  V30 3090 S 323.805 3.38196 -4.15191 0
M  V30 3091 C 324.961 4.78616 -4.03333 0
M  V30 3092 H 325.194 1.69961 -2.43928 0
M  V30 3093 H 322.727 0.782611 -1.33096 0
M  V30 3094 H 324.685 3.90398 -1.26884 0
M  V30 3095 H 323.346 3.1144 -0.40794 0
M  V30 3096 H 322.539 4.43924 -2.38637 0
M  V30 3097 H 322.141 2.71541 -2.5718 0
M  V30 3098 H 324.433 5.68463 -3.68587 0
M  V30 3099 H 325.376 4.97767 -5.03621 0
M  V30 3100 H 325.784 4.54381 -3.34959 0
M  V30 3101 N 325.182 1.32811 0.848464 0
M  V30 3102 C 326.114 1.18095 1.96433 0
M  V30 3103 C 327.127 0.114354 1.62398 0
M  V30 3104 O 328.316 0.363892 1.74751 0
M  V30 3105 C 325.416 0.786798 3.2964 0
M  V30 3106 C 324.589 1.943 3.91875 0
M  V30 3107 C 323.648 1.53138 5.03423 0
M  V30 3108 O 322.674 2.24432 5.23086 0
M  V30 3109 N 323.876 0.430915 5.78898 0
M  V30 3110 H 326.641 2.14218 2.09597 0
M  V30 3111 H 324.202 1.2543 1.02367 0
M  V30 3112 H 326.194 0.493715 4.01677 0
M  V30 3113 H 324.764 -0.0834541 3.12489 0
M  V30 3114 H 323.984 2.40224 3.12547 0
M  V30 3115 H 325.272 2.71689 4.30189 0
M  V30 3116 H 324.67 -0.162333 5.65467 0
M  V30 3117 H 323.227 0.197466 6.51501 0
M  V30 3118 N 326.66 -1.06551 1.16123 0
M  V30 3119 C 327.908 -1.78947 0.939267 0
M  V30 3120 C 328.229 -1.87532 -0.534476 0
M  V30 3121 O 327.499 -1.38211 -1.38833 0
M  V30 3122 H 326.079 -0.662807 0.344523 0
M  V30 3123 H 328.741 -1.28725 1.46342 0
M  V30 3124 H 327.837 -2.81117 1.35572 0
M  V30 3125 N 328.138 -0.959301 -1.25041 0
M  V30 3126 C 329.415 -0.533805 -1.88175 0
M  V30 3127 C 329.795 0.988994 -1.865 0
M  V30 3128 O 329.143 1.85677 -1.33177 0
M  V30 3129 C 329.353 -1.11575 -3.30684 0
M  V30 3130 C 330.701 -1.19548 -4.07423 0
M  V30 3131 O 331.725 -1.06765 -3.39823 0
M  V30 3132 O 330.584 -1.39656 -5.28354 0
M  V30 3133 H 327.678 -0.176772 -0.807887 0
M  V30 3134 H 330.224 -1.05303 -1.33076 0
M  V30 3135 H 328.996 -2.15884 -3.26358 0
M  V30 3136 H 328.619 -0.580059 -3.93346 0
M  V30 3137 N 329.616 1.39756 -0.72842 0
M  V30 3138 C 330.844 2.04948 -0.283528 0
M  V30 3139 C 331.259 1.54908 1.0793 0
M  V30 3140 O 330.616 0.711135 1.68075 0
M  V30 3141 C 330.667 3.60498 -0.268957 0
M  V30 3142 O 330.388 4.08695 -1.57798 0
M  V30 3143 C 331.889 4.4288 0.192912 0
M  V30 3144 H 329.109 0.659243 -0.125056 0
M  V30 3145 H 331.653 1.78927 -0.990226 0
M  V30 3146 H 329.808 3.85444 0.388801 0
M  V30 3147 H 330.222 5.02977 -1.48709 0
M  V30 3148 H 331.696 5.51791 0.151952 0
M  V30 3149 H 332.173 4.21418 1.23708 0
M  V30 3150 H 332.779 4.23069 -0.435039 0
M  V30 3151 N 331.094 0.475555 1.50254 0
M  V30 3152 C 332.319 -0.0777042 2.07254 0
M  V30 3153 C 332.744 -1.3235 1.3366 0
M  V30 3154 O 332.102 -1.77152 0.385597 0
M  V30 3155 C 332.15 -0.340169 3.58992 0
M  V30 3156 O 331.254 -1.41982 3.87188 0
M  V30 3157 H 330.595 0.0149556 0.663832 0
M  V30 3158 H 333.125 0.667878 1.93392 0
M  V30 3159 H 333.135 -0.579332 4.03866 0
M  V30 3160 H 331.81 0.570167 4.11973 0
M  V30 3161 H 330.387 -1.16762 3.54148 0
M  V30 3162 N 332.573 -1.56217 0.208337 0
M  V30 3163 C 333.989 -1.58919 -0.14729 0
M  V30 3164 C 334.189 -1.22486 -1.59998 0
M  V30 3165 O 333.245 -0.953849 -2.3379 0
M  V30 3166 C 334.558 -3.00236 0.167048 0
M  V30 3167 C 336.106 -3.12813 0.108219 0
M  V30 3168 C 336.581 -4.56284 0.396049 0
M  V30 3169 N 338.072 -4.61912 0.345142 0
M  V30 3170 C 338.807 -5.70837 0.541523 0
M  V30 3171 N 338.303 -6.88178 0.798968 0
M  V30 3172 N 340.096 -5.60091 0.474867 0
M  V30 3173 H 332.247 -1.78177 1.15614 0
M  V30 3174 H 334.51 -0.827555 0.462446 0
M  V30 3175 H 334.216 -3.31499 1.1748 0
M  V30 3176 H 334.09 -3.7354 -0.524184 0
M  V30 3177 H 336.477 -2.81354 -0.890157 0
M  V30 3178 H 336.558 -2.41866 0.832729 0
M  V30 3179 H 336.202 -4.88458 1.3918 0
M  V30 3180 H 336.132 -5.25439 -0.349502 0
M  V30 3181 H 338.623 -3.77589 0.153316 0
M  V30 3182 H 338.936 -7.67095 0.93727 0
M  V30 3183 H 337.281 -6.89953 0.836013 0
M  V30 3184 H 340.472 -4.67297 0.274064 0
M  V30 3185 H 340.645 -6.44917 0.631326 0
M  V30 3186 N 334.051 0.0651679 -1.57465 0
M  V30 3187 C 335.299 0.761555 -1.87202 0
M  V30 3188 C 335.62 1.77778 -0.801243 0
M  V30 3189 O 334.89 1.95166 0.16937 0
M  V30 3190 H 333.47 0.284251 -0.690804 0
M  V30 3191 H 336.132 0.0396827 -1.9486 0
M  V30 3192 H 335.228 1.27365 -2.84929 0
M  V30 3193 N 335.529 1.53961 0.336706 0
M  V30 3194 C 336.778 1.70751 1.07363 0
M  V30 3195 C 337.091 0.481061 1.89592 0
M  V30 3196 O 338.297 0.530046 2.66276 0
M  V30 3197 C 336.753 3.01965 1.95818 0
M  V30 3198 C 336.361 4.31971 1.18764 0
M  V30 3199 C 338.105 3.28121 2.69327 0
M  V30 3200 C 336.012 5.54255 2.06289 0
M  V30 3201 H 334.942 0.636292 0.404535 0
M  V30 3202 H 337.593 1.80459 0.332681 0
M  V30 3203 H 335.975 2.86132 2.7376 0
M  V30 3204 H 337.149 4.5853 0.456849 0
M  V30 3205 H 335.464 4.12481 0.569946 0
M  V30 3206 H 338.061 4.16673 3.35094 0
M  V30 3207 H 338.404 2.45426 3.36261 0
M  V30 3208 H 338.937 3.44762 1.98454 0
M  V30 3209 H 335.676 6.39513 1.43885 0
M  V30 3210 H 335.196 5.31935 2.77138 0
M  V30 3211 H 336.875 5.90159 2.65182 0
M  V30 3212 N 337.007 -0.598083 1.45811 0
M  V30 3213 C 337.917 -1.73632 1.57763 0
M  V30 3214 C 338.933 -1.67763 0.461676 0
M  V30 3215 O 340.109 -1.87949 0.723685 0
M  V30 3216 C 337.174 -3.10114 1.55018 0
M  V30 3217 C 336.235 -3.27364 2.77726 0
M  V30 3218 C 335.468 -4.57334 2.75102 0
M  V30 3219 O 335.691 -5.40258 1.8297 0
M  V30 3220 O 334.625 -4.77502 3.66437 0
M  V30 3221 H 338.451 -1.66498 2.53992 0
M  V30 3222 H 336.036 -0.763308 1.28429 0
M  V30 3223 H 337.918 -3.9141 1.56129 0
M  V30 3224 H 336.593 -3.17718 0.619431 0
M  V30 3225 H 335.5 -2.45619 2.82174 0
M  V30 3226 H 336.833 -3.24641 3.69958 0
M  V30 3227 N 338.485 -1.33259 -0.841409 0
M  V30 3228 C 339.732 -1.24572 -1.5965 0
M  V30 3229 C 340.06 0.189137 -1.93578 0
M  V30 3230 O 339.315 1.14566 -1.5866 0
M  V30 3231 C 339.614 -2.06381 -2.9179 0
M  V30 3232 C 339.28 -3.556 -2.77235 0
M  V30 3233 C 337.942 -3.96282 -2.72973 0
M  V30 3234 C 340.294 -4.50433 -2.62221 0
M  V30 3235 C 337.622 -5.30017 -2.51592 0
M  V30 3236 C 339.974 -5.84327 -2.42374 0
M  V30 3237 C 338.638 -6.24194 -2.36512 0
M  V30 3238 H 337.908 -0.455842 -0.5842 0
M  V30 3239 H 340.555 -1.6482 -0.975016 0
M  V30 3240 H 338.86 -1.58903 -3.5813 0
M  V30 3241 H 340.557 -1.97019 -3.49263 0
M  V30 3242 H 337.147 -3.23298 -2.81384 0
M  V30 3243 H 341.331 -4.19914 -2.64549 0
M  V30 3244 H 336.587 -5.59947 -2.45499 0
M  V30 3245 H 340.761 -6.57414 -2.29739 0
M  V30 3246 H 338.388 -7.27759 -2.19706 0
M  V30 3247 N 339.963 1.05934 -1.16686 0
M  V30 3248 C 340.895 2.13468 -0.834503 0
M  V30 3249 C 341.908 1.62013 0.15984 0
M  V30 3250 O 343.097 1.7838 -0.0654228 0
M  V30 3251 C 340.197 3.3817 -0.222361 0
M  V30 3252 C 339.37 4.18928 -1.25771 0
M  V30 3253 C 338.429 5.21985 -0.664703 0
M  V30 3254 O 337.455 5.53334 -1.33453 0
M  V30 3255 N 338.657 5.77919 0.546834 0
M  V30 3256 H 341.422 2.42578 -1.75999 0
M  V30 3257 H 338.983 1.21967 -1.06469 0
M  V30 3258 H 340.975 4.04266 0.187472 0
M  V30 3259 H 339.545 3.06655 0.606758 0
M  V30 3260 H 338.765 3.48433 -1.84358 0
M  V30 3261 H 340.053 4.69687 -1.95631 0
M  V30 3262 H 339.451 5.54721 1.10912 0
M  V30 3263 H 338.008 6.45573 0.898829 0
M  V30 3264 N 341.441 0.965919 1.2453 0
M  V30 3265 C 342.404 0.499547 2.2369 0
M  V30 3266 C 343.404 -0.40294 1.5567 0
M  V30 3267 O 344.594 -0.19865 1.73064 0
M  V30 3268 C 341.726 -0.276792 3.39774 0
M  V30 3269 H 342.919 1.37613 2.66463 0
M  V30 3270 H 340.472 0.750324 1.37112 0
M  V30 3271 H 341.207 -1.17055 3.02438 0
M  V30 3272 H 340.992 0.370826 3.90343 0
M  V30 3273 H 342.482 -0.592175 4.1338 0
M  V30 3274 N 342.919 -1.39368 0.735821 0
M  V30 3275 C 344.165 -2.00794 0.284544 0
M  V30 3276 C 344.498 -1.58255 -1.12557 0
M  V30 3277 O 343.773 -0.811819 -1.76748 0
M  V30 3278 C 344.056 -3.58011 0.387337 0
M  V30 3279 C 343.909 -4.10566 1.83728 0
M  V30 3280 C 345.228 -4.395 -0.22975 0
M  V30 3281 H 342.347 -0.729501 0.104866 0
M  V30 3282 H 344.989 -1.65564 0.93213 0
M  V30 3283 H 343.139 -3.88154 -0.164006 0
M  V30 3284 H 344.811 -3.91139 2.44556 0
M  V30 3285 H 343.054 -3.64095 2.35833 0
M  V30 3286 H 343.725 -5.19702 1.86047 0
M  V30 3287 H 346.201 -4.15406 0.240257 0
M  V30 3288 H 345.077 -5.48752 -0.127485 0
M  V30 3289 H 345.338 -4.22062 -1.3159 0
M  V30 3290 N 344.397 -0.483516 -1.5 0
M  V30 3291 C 345.808 -0.0314176 -1.86674 0
M  V30 3292 C 346.159 1.37728 -1.39733 0
M  V30 3293 O 345.284 2.02327 -0.767635 0
M  V30 3294 C 345.879 -0.0502376 -3.38763 0
M  V30 3295 C 344.438 0.346442 -3.74802 0
M  V30 3296 C 343.585 -0.430366 -2.7394 0
M  V30 3297 H 346.536 -0.697182 -1.42566 0
M  V30 3298 H 346.557 0.749116 -3.73053 0
M  V30 3299 H 346.069 -1.07563 -3.72897 0
M  V30 3300 H 344.17 1.37572 -3.46273 0
M  V30 3301 H 344.283 0.0391486 -4.79084 0
M  V30 3302 H 342.647 0.117557 -2.54429 0
M  V30 3303 H 343.43 -1.4555 -3.10918 0
M  V30 3304 N 345.875 1.56104 -0.216619 0
M  V30 3305 C 347.1 2.0301 0.424462 0
M  V30 3306 C 347.525 1.0955 1.52907 0
M  V30 3307 O 346.883 0.0827914 1.81111 0
M  V30 3308 C 346.931 3.4819 0.937883 0
M  V30 3309 O 346.035 3.57865 2.04955 0
M  V30 3310 H 345.376 0.656925 0.0966755 0
M  V30 3311 H 347.906 2.01859 -0.33381 0
M  V30 3312 H 347.916 3.88413 1.24897 0
M  V30 3313 H 346.591 4.15699 0.129387 0
M  V30 3314 H 345.168 3.29527 1.74546 0
M  V30 3315 N 347.353 -0.0568162 1.57498 0
M  V30 3316 C 348.263 -1.08346 2.08083 0
M  V30 3317 C 349.279 -1.41439 1.01346 0
M  V30 3318 O 350.455 -1.51316 1.32912 0
M  V30 3319 C 347.52 -2.37352 2.52715 0
M  V30 3320 C 346.581 -2.11093 3.73816 0
M  V30 3321 C 345.814 -3.33949 4.1631 0
M  V30 3322 O 346.037 -4.43622 3.58547 0
M  V30 3323 O 344.971 -3.21279 5.08983 0
M  V30 3324 H 348.797 -0.683667 2.95905 0
M  V30 3325 H 346.382 -0.271965 1.46904 0
M  V30 3326 H 348.264 -3.13246 2.81877 0
M  V30 3327 H 346.939 -2.76681 1.68016 0
M  V30 3328 H 345.846 -1.32856 3.49714 0
M  V30 3329 H 347.179 -1.76637 4.59413 0
M  V30 3330 N 348.832 -1.54138 -0.328536 0
M  V30 3331 C 349.779 -1.83176 -1.40411 0
M  V30 3332 C 350.749 -0.678494 -1.5161 0
M  V30 3333 O 351.934 -0.92443 -1.6691 0
M  V30 3334 C 349.074 -2.06035 -2.76846 0
M  V30 3335 C 348.187 -3.33727 -2.74318 0
M  V30 3336 C 347.322 -3.46574 -4.02567 0
M  V30 3337 C 346.361 -4.68159 -3.94327 0
M  V30 3338 N 345.498 -4.77959 -5.14296 0
M  V30 3339 H 350.338 -2.74938 -1.14948 0
M  V30 3340 H 347.875 -1.36166 -0.556538 0
M  V30 3341 H 349.833 -2.1728 -3.56153 0
M  V30 3342 H 348.463 -1.1757 -3.00628 0
M  V30 3343 H 347.515 -3.31246 -1.8703 0
M  V30 3344 H 348.827 -4.23139 -2.64111 0
M  V30 3345 H 347.981 -3.57333 -4.90304 0
M  V30 3346 H 346.72 -2.55245 -4.15574 0
M  V30 3347 H 345.725 -4.57461 -3.04974 0
M  V30 3348 H 346.95 -5.60868 -3.82889 0
M  V30 3349 H 344.896 -3.89544 -5.27818 0
M  V30 3350 H 344.813 -5.6133 -5.06404 0
M  V30 3351 H 346.081 -4.93044 -6.03761 0
M  V30 3352 N 350.31 0.590341 -1.46126 0
M  V30 3353 C 351.535 1.37991 -1.54833 0
M  V30 3354 C 351.96 1.87163 -0.187506 0
M  V30 3355 O 351.318 1.61133 0.831008 0
M  V30 3356 C 351.366 2.54867 -2.55098 0
M  V30 3357 O 350.47 3.56061 -2.08073 0
M  V30 3358 H 349.811 0.411265 -0.521303 0
M  V30 3359 H 352.341 0.716819 -1.91632 0
M  V30 3360 H 352.351 3.01886 -2.74461 0
M  V30 3361 H 351.026 2.18429 -3.53923 0
M  V30 3362 H 349.603 3.15574 -1.98664 0
M  V30 3363 N 351.788 1.33704 0.83433 0
M  V30 3364 C 352.698 1.26382 1.97648 0
M  V30 3365 C 353.714 0.173548 1.73132 0
M  V30 3366 O 354.89 0.397962 1.97429 0
M  V30 3367 C 351.955 1.00769 3.31733 0
M  V30 3368 C 351.016 2.1884 3.69334 0
M  V30 3369 C 350.249 1.9444 4.9702 0
M  V30 3370 O 350.472 0.896961 5.63303 0
M  V30 3371 O 349.406 2.81093 5.32231 0
M  V30 3372 H 353.232 2.22444 2.06767 0
M  V30 3373 H 350.817 1.13795 0.968037 0
M  V30 3374 H 352.699 0.882186 4.12062 0
M  V30 3375 H 351.374 0.0773783 3.23608 0
M  V30 3376 H 350.281 2.36946 2.89495 0
M  V30 3377 H 351.614 3.10221 3.82131 0
M  V30 3378 N 353.266 -1.05314 1.17247 0
M  V30 3379 C 354.512 -1.78557 0.961513 0
M  V30 3380 C 354.845 -1.87419 -0.508697 0
M  V30 3381 O 354.12 -1.37307 -1.37757 0
M  V30 3382 C 354.403 -3.22514 1.60176 0
M  V30 3383 C 354.256 -3.21673 3.14399 0
M  V30 3384 C 355.575 -4.20318 1.30463 0
M  V30 3385 H 352.694 -0.6482 0.350723 0
M  V30 3386 H 355.336 -1.23102 1.44727 0
M  V30 3387 H 353.486 -3.69867 1.18871 0
M  V30 3388 H 355.158 -2.82405 3.64753 0
M  V30 3389 H 353.401 -2.60048 3.47214 0
M  V30 3390 H 354.072 -4.23271 3.54324 0
M  V30 3391 H 356.548 -3.81454 1.66229 0
M  V30 3392 H 355.424 -5.19289 1.77848 0
M  V30 3393 H 355.685 -4.41526 0.22521 0
M  V30 3394 N 354.744 -0.972509 -1.24016 0
M  V30 3395 C 355.992 -0.635776 -1.91839 0
M  V30 3396 C 356.313 0.832312 -1.76345 0
M  V30 3397 O 355.583 1.5946 -1.13795 0
M  V30 3398 H 354.163 -0.232157 -0.710009 0
M  V30 3399 H 356.825 -1.23462 -1.50809 0
M  V30 3400 H 355.921 -0.880545 -2.99421 0
M  V30 3401 N 356.222 1.38976 -0.743202 0
M  V30 3402 C 357.154 2.29096 -0.0689228 0
M  V30 3403 C 358.167 1.47229 0.694791 0
M  V30 3404 O 359.356 1.70212 0.537597 0
M  V30 3405 C 356.456 3.25988 0.926548 0
M  V30 3406 C 355.629 4.36833 0.222647 0
M  V30 3407 C 354.688 5.13981 1.12739 0
M  V30 3408 O 353.714 5.6601 0.601795 0
M  V30 3409 N 354.916 5.25966 2.45641 0
M  V30 3410 H 357.681 2.87604 -0.842846 0
M  V30 3411 H 355.242 1.50645 -0.593109 0
M  V30 3412 H 357.234 3.74476 1.5346 0
M  V30 3413 H 355.804 2.68453 1.60162 0
M  V30 3414 H 355.024 3.90116 -0.565983 0
M  V30 3415 H 356.312 5.0811 -0.264841 0
M  V30 3416 H 355.71 4.85228 2.9081 0
M  V30 3417 H 354.267 5.77865 3.01522 0
M  V30 3418 N 357.7 0.491464 1.49741 0
M  V30 3419 C 358.663 -0.280906 2.27472 0
M  V30 3420 C 359.663 -0.902454 1.33088 0
M  V30 3421 O 360.853 -0.768465 1.56334 0
M  V30 3422 C 357.985 -1.40209 3.10732 0
M  V30 3423 H 359.178 0.401056 2.97206 0
M  V30 3424 H 356.731 0.246131 1.5435 0
M  V30 3425 H 357.466 -2.11849 2.45541 0
M  V30 3426 H 357.251 -0.961969 3.80117 0
M  V30 3427 H 358.741 -1.9464 3.69466 0
M  V30 3428 N 359.178 -1.55987 0.224894 0
M  V30 3429 C 360.108 -2.23426 -0.678457 0
M  V30 3430 C 361.089 -1.20709 -1.19847 0
M  V30 3431 O 362.274 -1.49304 -1.24186 0
M  V30 3432 C 359.404 -2.91676 -1.88527 0
M  V30 3433 C 358.358 -4.00893 -1.49896 0
M  V30 3434 C 357.684 -4.56455 -2.78483 0
M  V30 3435 C 358.984 -5.17769 -0.686461 0
M  V30 3436 H 360.678 -2.99175 -0.116173 0
M  V30 3437 H 358.224 -1.43897 -0.054436 0
M  V30 3438 H 360.177 -3.37547 -2.5227 0
M  V30 3439 H 358.901 -2.1338 -2.47258 0
M  V30 3440 H 357.56 -3.55758 -0.884985 0
M  V30 3441 H 357.208 -3.74886 -3.35365 0
M  V30 3442 H 356.908 -5.30169 -2.53368 0
M  V30 3443 H 358.432 -5.05047 -3.43162 0
M  V30 3444 H 359.846 -5.60001 -1.22767 0
M  V30 3445 H 358.243 -5.97735 -0.532259 0
M  V30 3446 H 359.313 -4.83932 0.306196 0
M  V30 3447 N 360.656 0.0484629 -1.57525 0
M  V30 3448 C 361.896 0.748196 -1.90214 0
M  V30 3449 C 362.26 1.73545 -0.821347 0
M  V30 3450 O 363.461 2.48201 -1.03198 0
M  V30 3451 C 361.732 1.41727 -3.28098 0
M  V30 3452 S 363.291 2.14884 -3.82584 0
M  V30 3453 H 360.109 0.248307 -0.666232 0
M  V30 3454 H 362.711 0.00343188 -1.955 0
M  V30 3455 H 361.415 0.685244 -4.04639 0
M  V30 3456 H 360.946 2.20099 -3.26068 0
M  V30 3457 H 362.961 3.41755 -3.59747 0
M  V30 3458 N 362.134 1.5431 0.320358 0
M  V30 3459 C 363.064 1.86912 1.3995 0
M  V30 3460 C 364.045 0.726211 1.53819 0
M  V30 3461 O 365.23 0.980233 1.67646 0
M  V30 3462 C 362.36 2.09932 2.7667 0
M  V30 3463 C 361.314 3.25776 2.77586 0
M  V30 3464 C 360.64 3.34173 4.17412 0
M  V30 3465 C 361.94 4.6335 2.41048 0
M  V30 3466 H 363.634 2.77292 1.12914 0
M  V30 3467 H 361.18 1.33421 0.541738 0
M  V30 3468 H 363.133 2.31324 3.52232 0
M  V30 3469 H 361.857 1.16304 3.0519 0
M  V30 3470 H 360.516 3.04276 2.04479 0
M  V30 3471 H 360.164 2.38098 4.43078 0
M  V30 3472 H 359.864 4.12033 4.18931 0
M  V30 3473 H 361.388 3.57803 4.94782 0
M  V30 3474 H 362.802 4.84602 3.06324 0
M  V30 3475 H 361.199 5.43782 2.53813 0
M  V30 3476 H 362.269 4.65381 1.36193 0
M  V30 3477 N 363.613 -0.582584 1.46437 0
M  V30 3478 C 364.841 -1.36682 1.55324 0
M  V30 3479 C 365.256 -1.87796 0.194409 0
M  V30 3480 O 364.613 -1.63623 -0.808318 0
M  V30 3481 C 364.664 -2.55426 2.55812 0
M  V30 3482 O 364.385 -2.0643 3.86417 0
M  V30 3483 C 365.886 -3.47976 2.74641 0
M  V30 3484 H 363.106 -0.417545 0.525259 0
M  V30 3485 H 365.65 -0.708219 1.91845 0
M  V30 3486 H 363.805 -3.17275 2.22295 0
M  V30 3487 H 364.219 -2.83762 4.41111 0
M  V30 3488 H 365.693 -4.27775 3.48874 0
M  V30 3489 H 366.17 -3.99919 1.81553 0
M  V30 3490 H 366.776 -2.91962 3.09255 0
M  V30 3491 N 365.091 -1.34144 -0.827227 0
M  V30 3492 C 366.054 -1.25264 -1.91942 0
M  V30 3493 C 367.054 -0.168866 -1.59911 0
M  V30 3494 O 368.244 -0.421198 -1.69031 0
M  V30 3495 C 365.376 -0.932952 -3.27885 0
M  V30 3496 H 366.569 -2.22357 -2.0124 0
M  V30 3497 H 364.122 -1.1837 -1.0207 0
M  V30 3498 H 364.857 0.0349917 -3.24281 0
M  V30 3499 H 364.642 -1.71682 -3.52516 0
M  V30 3500 H 366.132 -0.895874 -4.07877 0
M  V30 3501 N 366.569 1.04691 -1.17803 0
M  V30 3502 C 367.985 1.29963 -0.926379 0
M  V30 3503 C 368.185 1.97251 0.411635 0
M  V30 3504 O 367.241 2.24922 1.14744 0
M  V30 3505 C 368.554 2.16447 -2.08737 0
M  V30 3506 C 370.102 2.29814 -2.12496 0
M  V30 3507 C 370.577 3.19661 -3.27995 0
M  V30 3508 N 372.068 3.27247 -3.27816 0
M  V30 3509 C 372.803 3.96906 -4.13827 0
M  V30 3510 N 372.299 4.6895 -5.09959 0
M  V30 3511 N 374.092 3.93122 -4.01761 0
M  V30 3512 H 366.243 0.594182 -2.0392 0
M  V30 3513 H 368.506 0.324649 -0.890678 0
M  V30 3514 H 368.212 1.74304 -3.05469 0
M  V30 3515 H 368.086 3.17103 -2.04268 0
M  V30 3516 H 370.473 2.71196 -1.16347 0
M  V30 3517 H 370.554 1.2877 -2.21025 0
M  V30 3518 H 370.198 2.78991 -4.24413 0
M  V30 3519 H 370.128 4.20722 -3.16703 0
M  V30 3520 H 372.619 2.75921 -2.58217 0
M  V30 3521 H 372.932 5.19679 -5.71974 0
M  V30 3522 H 371.277 4.67875 -5.13924 0
M  V30 3523 H 374.468 3.35967 -3.2595 0
M  V30 3524 H 374.641 4.47139 -4.6901 0
M  V30 3525 N 368.047 0.979072 1.23499 0
M  V30 3526 C 368.957 0.526431 2.28617 0
M  V30 3527 C 369.973 -0.418126 1.68901 0
M  V30 3528 O 371.149 -0.288372 1.99325 0
M  V30 3529 C 368.214 -0.165235 3.46306 0
M  V30 3530 C 367.275 0.82056 4.21385 0
M  V30 3531 C 366.508 0.161807 5.33455 0
M  V30 3532 O 366.731 -1.04742 5.60701 0
M  V30 3533 O 365.665 0.859708 5.95729 0
M  V30 3534 H 369.491 1.4006 2.69475 0
M  V30 3535 H 367.076 0.746643 1.29405 0
M  V30 3536 H 368.958 -0.553287 4.17752 0
M  V30 3537 H 367.633 -1.01419 3.07402 0
M  V30 3538 H 366.54 1.25929 3.52268 0
M  V30 3539 H 367.873 1.63828 4.64135 0
M  V30 3540 N 369.525 -1.3858 0.750561 0
M  V30 3541 C 370.435 -2.34278 0.122825 0
M  V30 3542 C 371.451 -1.59116 -0.704131 0
M  V30 3543 O 372.627 -1.91326 -0.628987 0
M  V30 3544 C 369.692 -3.38221 -0.762086 0
M  V30 3545 C 368.753 -4.29227 0.078896 0
M  V30 3546 C 367.986 -5.28205 -0.763874 0
M  V30 3547 O 368.209 -5.34112 -2.00201 0
M  V30 3548 O 367.143 -6.01618 -0.18428 0
M  V30 3549 H 370.969 -2.89649 0.913088 0
M  V30 3550 H 368.554 -1.40374 0.511417 0
M  V30 3551 H 370.436 -4.01872 -1.26793 0
M  V30 3552 H 369.111 -2.85211 -1.5309 0
M  V30 3553 H 368.018 -3.68747 0.630621 0
M  V30 3554 H 369.351 -4.85484 0.810289 0
M  V30 3555 N 371.003 -0.499398 -1.49478 0
M  V30 3556 C 372.28 0.108629 -1.95298 0
M  V30 3557 C 372.66 1.54282 -1.44084 0
M  V30 3558 O 372.008 2.18944 -0.653908 0
M  V30 3559 C 372.218 0.0229111 -3.48992 0
M  V30 3560 C 373.566 0.197643 -4.2414 0
M  V30 3561 O 374.59 0.0981735 -3.56065 0
M  V30 3562 O 373.449 0.401669 -5.45022 0
M  V30 3563 H 370.543 0.096181 -0.821388 0
M  V30 3564 H 373.089 -0.561822 -1.6013 0
M  V30 3565 H 371.861 -0.977321 -3.78899 0
M  V30 3566 H 371.484 0.733579 -3.90774 0
M  V30 3567 N 372.481 1.55866 -0.233164 0
M  V30 3568 C 373.721 2.00506 0.397078 0
M  V30 3569 C 374.085 1.1176 1.56121 0
M  V30 3570 O 375.286 1.45796 2.25825 0
M  V30 3571 C 373.557 3.4811 0.809601 0
M  V30 3572 S 375.116 4.14765 1.43231 0
M  V30 3573 H 371.934 0.699828 0.125547 0
M  V30 3574 H 374.536 1.92429 -0.345177 0
M  V30 3575 H 373.24 4.10373 -0.0471601 0
M  V30 3576 H 372.771 3.60085 1.58438 0
M  V30 3577 H 374.786 4.14914 2.7214 0
M  V30 3578 N 373.959 -0.0401083 1.57549 0
M  V30 3579 C 375.206 -0.733125 1.88763 0
M  V30 3580 C 375.534 -1.75946 0.829058 0
M  V30 3581 O 374.789 -1.94949 -0.171323 0
M  V30 3582 C 375.088 -1.44902 3.26708 0
M  V30 3583 C 374.754 -0.559707 4.47413 0
M  V30 3584 C 373.416 -0.314731 4.8017 0
M  V30 3585 C 375.768 0.0549743 5.21171 0
M  V30 3586 C 373.096 0.553886 5.8408 0
M  V30 3587 C 375.448 0.911229 6.26003 0
M  V30 3588 C 374.112 1.16577 6.57241 0
M  V30 3589 H 373.382 -0.268269 0.690733 0
M  V30 3590 H 376.029 0.00679408 1.91499 0
M  V30 3591 H 374.334 -2.26197 3.1991 0
M  V30 3592 H 376.031 -1.99058 3.48105 0
M  V30 3593 H 372.621 -0.760793 4.21794 0
M  V30 3594 H 376.805 -0.121344 4.96152 0
M  V30 3595 H 372.061 0.759518 6.06664 0
M  V30 3596 H 376.235 1.3941 6.82303 0
M  V30 3597 H 373.862 1.84058 7.37582 0
M  V30 3598 N 375.437 -1.54477 -0.31217 0
M  V30 3599 C 376.369 -1.81011 -1.40598 0
M  V30 3600 C 377.382 -0.692546 -1.47335 0
M  V30 3601 O 378.571 -0.969847 -1.49854 0
M  V30 3602 C 375.671 -1.92307 -2.79054 0
M  V30 3603 C 374.844 -3.22594 -2.95384 0
M  V30 3604 C 373.903 -3.24448 -4.1427 0
M  V30 3605 O 372.929 -3.98035 -4.06887 0
M  V30 3606 N 374.131 -2.49042 -5.24365 0
M  V30 3607 H 376.896 -2.75408 -1.18196 0
M  V30 3608 H 374.457 -1.53914 -0.502202 0
M  V30 3609 H 376.449 -1.90962 -3.56813 0
M  V30 3610 H 375.019 -1.04955 -2.94454 0
M  V30 3611 H 374.239 -3.36806 -2.04831 0
M  V30 3612 H 375.527 -4.08593 -3.03198 0
M  V30 3613 H 374.925 -1.88867 -5.33241 0
M  V30 3614 H 373.482 -2.53463 -6.005 0
M  V30 3615 N 376.915 0.57481 -1.46744 0
M  V30 3616 C 378.164 1.32898 -1.51727 0
M  V30 3617 C 378.477 1.948 -0.176692 0
M  V30 3618 O 379.683 2.71299 -0.104385 0
M  V30 3619 C 378.139 2.40901 -2.67385 0
M  V30 3620 C 377.747 1.85266 -4.07898 0
M  V30 3621 C 379.491 3.17609 -2.81646 0
M  V30 3622 C 377.398 2.90945 -5.14883 0
M  V30 3623 H 376.328 0.499631 -0.564699 0
M  V30 3624 H 378.979 0.612536 -1.72975 0
M  V30 3625 H 377.361 3.15379 -2.39483 0
M  V30 3626 H 378.535 1.17278 -4.45626 0
M  V30 3627 H 376.85 1.21199 -3.98371 0
M  V30 3628 H 379.447 3.96493 -3.58744 0
M  V30 3629 H 379.79 3.70696 -1.89448 0
M  V30 3630 H 380.323 2.50239 -3.09233 0
M  V30 3631 H 377.062 2.42736 -6.089 0
M  V30 3632 H 376.582 3.57398 -4.81691 0
M  V30 3633 H 378.261 3.54755 -5.41071 0
M  V30 3634 N 378.394 1.34581 0.820102 0
M  V30 3635 C 379.324 1.29038 1.94606 0
M  V30 3636 C 380.305 0.1673 1.69275 0
M  V30 3637 O 381.49 0.360112 1.90832 0
M  V30 3638 C 378.62 1.04793 3.31113 0
M  V30 3639 C 377.574 2.13597 3.70891 0
M  V30 3640 C 376.9 1.74537 5.05412 0
M  V30 3641 C 378.2 3.55451 3.8269 0
M  V30 3642 H 379.894 2.23248 1.99501 0
M  V30 3643 H 377.44 1.0747 0.958449 0
M  V30 3644 H 379.393 0.995592 4.0947 0
M  V30 3645 H 378.117 0.0702565 3.26524 0
M  V30 3646 H 376.776 2.17905 2.9481 0
M  V30 3647 H 376.424 0.754226 4.97313 0
M  V30 3648 H 376.124 2.47361 5.32997 0
M  V30 3649 H 377.648 1.70803 5.86224 0
M  V30 3650 H 379.062 3.5354 4.51312 0
M  V30 3651 H 377.459 4.26922 4.21732 0
M  V30 3652 H 378.529 3.92587 2.84611 0
M  V30 3653 N 379.872 -1.04064 1.18357 0
M  V30 3654 C 381.149 -1.74252 0.888581 0
M  V30 3655 C 381.529 -2.02138 -0.60856 0
M  V30 3656 O 380.877 -1.66656 -1.56327 0
M  V30 3657 C 381.087 -3.0277 1.73584 0
M  V30 3658 C 382.435 -3.76506 1.96286 0
M  V30 3659 O 383.459 -3.12668 1.70637 0
M  V30 3660 O 382.318 -4.91243 2.39464 0
M  V30 3661 H 379.412 -0.758271 0.330082 0
M  V30 3662 H 381.958 -1.1013 1.2911 0
M  V30 3663 H 380.73 -2.78299 2.75073 0
M  V30 3664 H 380.353 -3.74631 1.33183 0
M  V30 3665 N 381.35 -0.985608 -1.22978 0
M  V30 3666 C 382.627 -0.573599 -1.87001 0
M  V30 3667 C 383.007 0.949213 -1.88555 0
M  V30 3668 O 382.355 1.82811 -1.37086 0
M  V30 3669 C 382.565 -1.18564 -3.28243 0
M  V30 3670 C 383.913 -1.28163 -4.04796 0
M  V30 3671 O 384.937 -1.13949 -3.37482 0
M  V30 3672 O 383.796 -1.50832 -5.25273 0
M  V30 3673 H 380.89 -0.193868 -0.803955 0
M  V30 3674 H 383.436 -1.08102 -1.30813 0
M  V30 3675 H 382.208 -2.22758 -3.21706 0
M  V30 3676 H 381.831 -0.663363 -3.92027 0
M  V30 3677 N 382.828 1.3818 -0.7579 0
M  V30 3678 C 384.068 2.01864 -0.320968 0
M  V30 3679 C 384.432 1.58863 1.07827 0
M  V30 3680 O 385.633 2.14908 1.61456 0
M  V30 3681 C 383.904 3.54626 -0.44446 0
M  V30 3682 S 385.463 4.38706 -0.0907467 0
M  V30 3683 H 382.281 0.700056 -0.124268 0
M  V30 3684 H 384.883 1.68611 -0.989468 0
M  V30 3685 H 383.587 3.83411 -1.4637 0
M  V30 3686 H 383.118 3.92661 0.241073 0
M  V30 3687 H 385.133 4.83435 1.11826 0
M  V30 3688 N 384.306 0.507319 1.49211 0
M  V30 3689 C 385.717 0.0611118 1.866 0
M  V30 3690 C 386.068 -1.35488 1.41907 0
M  V30 3691 O 385.193 -2.0108 0.799726 0
M  V30 3692 C 385.788 0.104125 3.3864 0
M  V30 3693 C 384.347 -0.28677 3.75306 0
M  V30 3694 C 383.494 0.473893 2.73221 0
M  V30 3695 H 386.445 0.719775 1.41439 0
M  V30 3696 H 386.466 -0.689672 3.74198 0
M  V30 3697 H 385.978 1.13482 3.71138 0
M  V30 3698 H 384.079 -1.32046 3.48417 0
M  V30 3699 H 384.192 0.0370745 4.79086 0
M  V30 3700 H 382.556 -0.0770644 2.54583 0
M  V30 3701 H 383.339 1.50478 3.08563 0
M  V30 3702 N 385.784 -1.5574 0.241426 0
M  V30 3703 C 387.195 -1.84842 -0.262755 0
M  V30 3704 C 387.546 -1.16317 -1.58003 0
M  V30 3705 O 386.671 -0.439653 -2.11887 0
M  V30 3706 C 387.266 -3.35332 -0.483523 0
M  V30 3707 C 385.825 -3.6468 -0.931977 0
M  V30 3708 C 384.972 -2.77299 -0.0061151 0
M  V30 3709 H 387.923 -1.51761 0.464129 0
M  V30 3710 H 387.944 -3.56615 -1.32688 0
M  V30 3711 H 387.456 -3.85178 0.47537 0
M  V30 3712 H 385.557 -3.20307 -1.90353 0
M  V30 3713 H 385.67 -4.72498 -0.792628 0
M  V30 3714 H 384.034 -2.49408 -0.516503 0
M  V30 3715 H 384.817 -3.2995 0.948052 0
M  V30 3716 N 387.262 0.0317525 -1.57568 0
M  V30 3717 C 388.673 0.578692 -1.77505 0
M  V30 3718 C 389.024 1.75749 -0.872164 0
M  V30 3719 O 388.149 2.16298 -0.0663106 0
M  V30 3720 C 388.744 1.05658 -3.21904 0
M  V30 3721 C 387.303 1.54906 -3.43047 0
M  V30 3722 C 386.45 0.485939 -2.73009 0
M  V30 3723 H 389.401 -0.194475 -1.57504 0
M  V30 3724 H 389.422 1.92404 -3.28269 0
M  V30 3725 H 388.934 0.198422 -3.87592 0
M  V30 3726 H 387.035 2.42915 -2.82529 0
M  V30 3727 H 387.148 1.59841 -4.5165 0
M  V30 3728 H 385.512 0.940354 -2.36705 0
M  V30 3729 H 386.295 -0.362709 -3.41379 0
M  V30 3730 N 388.74 1.54641 0.303973 0
M  V30 3731 C 390.151 1.64811 0.877163 0
M  V30 3732 C 390.502 0.554838 1.88191 0
M  V30 3733 O 389.627 -0.309033 2.14182 0
M  V30 3734 C 390.222 2.9876 1.59775 0
M  V30 3735 C 388.781 3.11061 2.11938 0
M  V30 3736 C 387.928 2.60479 0.951097 0
M  V30 3737 H 390.879 1.58493 0.0810486 0
M  V30 3738 H 390.9 2.90017 2.46314 0
M  V30 3739 H 390.412 3.7831 0.866226 0
M  V30 3740 H 388.513 2.36225 2.88146 0
M  V30 3741 H 388.626 4.17171 2.35595 0
M  V30 3742 H 386.99 2.16859 1.33583 0
M  V30 3743 H 387.773 3.42504 0.233581 0
M  V30 3744 N 390.218 -0.567019 1.47046 0
M  V30 3745 C 391.181 -1.65696 1.58359 0
M  V30 3746 C 392.181 -1.54097 0.459441 0
M  V30 3747 O 393.371 -1.58432 0.724225 0
M  V30 3748 C 390.503 -3.05197 1.51879 0
M  V30 3749 H 391.696 -1.57019 2.5551 0
M  V30 3750 H 389.249 -0.786148 1.3509 0
M  V30 3751 H 389.984 -3.19417 0.560673 0
M  V30 3752 H 389.769 -3.15025 2.33455 0
M  V30 3753 H 391.259 -3.84511 1.62913 0
M  V30 3754 N 391.696 -1.35014 -0.812953 0
M  V30 3755 C 393.107 -1.25035 -1.38648 0
M  V30 3756 C 393.458 0.119967 -1.95833 0
M  V30 3757 O 392.583 1.02069 -1.90816 0
M  V30 3758 C 393.178 -2.26394 -2.52054 0
M  V30 3759 C 391.737 -2.20175 -3.05287 0
M  V30 3760 C 390.884 -2.12451 -1.78213 0
M  V30 3761 H 393.835 -1.46235 -0.616516 0
M  V30 3762 H 393.856 -1.88672 -3.30429 0
M  V30 3763 H 393.368 -3.26116 -2.10404 0
M  V30 3764 H 391.469 -1.23841 -3.51417 0
M  V30 3765 H 391.582 -3.11863 -3.63701 0
M  V30 3766 H 389.946 -1.58328 -1.9951 0
M  V30 3767 H 390.729 -3.14024 -1.38723 0
M  V30 3768 N 393.175 1.03435 -1.18907 0
M  V30 3769 C 394.422 1.76743 -0.988334 0
M  V30 3770 C 394.75 1.88447 0.481441 0
M  V30 3771 O 394.005 1.39383 1.37371 0
M  V30 3772 C 394.304 3.19792 -1.59586 0
M  V30 3773 C 393.97 3.28108 -3.09283 0
M  V30 3774 C 392.632 3.30084 -3.5014 0
M  V30 3775 C 394.984 3.27696 -4.05296 0
M  V30 3776 C 392.312 3.29299 -4.85571 0
M  V30 3777 C 394.664 3.28451 -5.4065 0
M  V30 3778 C 393.328 3.28723 -5.80946 0
M  V30 3779 H 392.598 0.64675 -0.361657 0
M  V30 3780 H 395.245 1.21442 -1.48068 0
M  V30 3781 H 393.55 3.78136 -1.02568 0
M  V30 3782 H 395.247 3.75171 -1.41589 0
M  V30 3783 H 391.837 3.27294 -2.76725 0
M  V30 3784 H 396.021 3.25354 -3.74778 0
M  V30 3785 H 391.277 3.2783 -5.16079 0
M  V30 3786 H 395.451 3.27082 -6.14809 0
M  V30 3787 H 393.078 3.27868 -6.85862 0
M  V30 3788 N 394.653 0.992116 1.22453 0
M  V30 3789 C 396.064 0.702776 1.72968 0
M  V30 3790 C 396.415 -0.780399 1.80012 0
M  V30 3791 O 395.54 -1.61007 1.44589 0
M  V30 3792 C 396.135 1.26903 3.14135 0
M  V30 3793 C 394.694 1.02909 3.62059 0
M  V30 3794 C 393.841 1.38969 2.39964 0
M  V30 3795 H 396.792 1.16457 1.07812 0
M  V30 3796 H 396.813 0.647223 3.74955 0
M  V30 3797 H 396.325 2.34851 3.08977 0
M  V30 3798 H 394.426 -0.0337979 3.72585 0
M  V30 3799 H 394.539 1.69191 4.48231 0
M  V30 3800 H 392.903 0.808279 2.41535 0
M  V30 3801 H 393.686 2.4792 2.37467 0
M  V30 3802 N 396.131 -1.37776 0.765217 0
M  V30 3803 C 397.081 -2.2768 0.12075 0
M  V30 3804 C 398.065 -1.45778 -0.680988 0
M  V30 3805 O 399.257 -1.684 -0.545033 0
M  V30 3806 C 396.386 -3.34722 -0.762626 0
M  V30 3807 C 395.472 -4.24074 0.0465881 0
M  V30 3808 N 395.863 -4.93939 1.08892 0
M  V30 3809 C 394.161 -4.45643 -0.178418 0
M  V30 3810 C 394.862 -5.59845 1.57951 0
M  V30 3811 N 393.838 -5.36218 0.892797 0
M  V30 3812 H 397.64 -2.79166 0.918889 0
M  V30 3813 H 395.154 -1.50816 0.602353 0
M  V30 3814 H 397.151 -3.98031 -1.24005 0
M  V30 3815 H 395.811 -2.84793 -1.55959 0
M  V30 3816 H 396.822 -4.96572 1.47095 0
M  V30 3817 H 393.499 -4.06599 -0.9478 0
M  V30 3818 H 394.889 -6.25703 2.44838 0
M  V30 3819 N 397.609 -0.515225 -1.4894 0
M  V30 3820 C 399.025 -0.172099 -1.58669 0
M  V30 3821 C 399.225 1.32405 -1.51892 0
M  V30 3822 O 398.281 2.10116 -1.40027 0
M  V30 3823 C 399.594 -0.761533 -2.90897 0
M  V30 3824 C 401.142 -0.728926 -3.04394 0
M  V30 3825 C 401.617 -1.29667 -4.39261 0
M  V30 3826 N 403.108 -1.25799 -4.4579 0
M  V30 3827 C 403.843 -1.66733 -5.48623 0
M  V30 3828 N 403.339 -2.15327 -6.58488 0
M  V30 3829 N 405.132 -1.58061 -5.39419 0
M  V30 3830 H 397.283 -1.48778 -1.51588 0
M  V30 3831 H 399.546 -0.617968 -0.718901 0
M  V30 3832 H 399.252 -1.81136 -3.01468 0
M  V30 3833 H 399.126 -0.230106 -3.76497 0
M  V30 3834 H 401.513 0.312098 -2.93445 0
M  V30 3835 H 401.594 -1.29766 -2.20442 0
M  V30 3836 H 401.238 -2.33655 -4.50963 0
M  V30 3837 H 401.168 -0.703752 -5.21876 0
M  V30 3838 H 403.659 -0.902102 -3.66975 0
M  V30 3839 H 403.972 -2.44594 -7.33071 0
M  V30 3840 H 402.317 -2.19311 -6.59491 0
M  V30 3841 H 405.508 -1.19906 -4.52482 0
M  V30 3842 H 405.681 -1.90284 -6.19432 0
M  V30 3843 N 399.087 1.5561 -0.249682 0
M  V30 3844 C 400.02 2.17537 0.689408 0
M  V30 3845 C 400.998 1.12829 1.17083 0
M  V30 3846 O 402.182 1.41229 1.24846 0
M  V30 3847 C 399.309 2.77828 1.93725 0
M  V30 3848 C 398.355 3.95615 1.59346 0
M  V30 3849 S 399.188 5.30988 0.69367 0
M  V30 3850 C 400.344 5.94734 1.95046 0
M  V30 3851 H 400.577 2.96852 0.163142 0
M  V30 3852 H 398.11 1.54362 -0.0341166 0
M  V30 3853 H 400.068 3.13199 2.65361 0
M  V30 3854 H 398.729 1.98454 2.43465 0
M  V30 3855 H 397.922 4.364 2.52132 0
M  V30 3856 H 397.524 3.61535 0.957512 0
M  V30 3857 H 399.816 6.12419 2.89739 0
M  V30 3858 H 400.759 6.90109 1.58604 0
M  V30 3859 H 401.167 5.23832 2.10381 0
M  V30 3860 N 400.565 -0.0233959 1.57583 0
M  V30 3861 C 401.811 -0.714119 1.89811 0
M  V30 3862 C 402.144 -1.74702 0.848113 0
M  V30 3863 O 401.419 -1.94023 -0.136135 0
M  V30 3864 C 401.702 -1.37853 3.32669 0
M  V30 3865 C 401.555 -0.358764 4.48367 0
M  V30 3866 C 402.874 -2.31101 3.7454 0
M  V30 3867 H 399.993 -0.25814 0.690314 0
M  V30 3868 H 402.635 0.0230927 1.89986 0
M  V30 3869 H 400.785 -2.00689 3.3265 0
M  V30 3870 H 402.457 0.268115 4.6052 0
M  V30 3871 H 400.7 0.321387 4.32608 0
M  V30 3872 H 401.371 -0.862242 5.45224 0
M  V30 3873 H 403.847 -1.78304 3.75961 0
M  V30 3874 H 402.723 -2.74567 4.75294 0
M  V30 3875 H 402.984 -3.18018 3.0711 0
M  V30 3876 N 402.043 -1.548 -0.295768 0
M  V30 3877 C 402.953 -1.89177 -1.38742 0
M  V30 3878 C 403.969 -0.786481 -1.55211 0
M  V30 3879 O 405.145 -1.08344 -1.69775 0
M  V30 3880 C 402.21 -2.13663 -2.73036 0
M  V30 3881 C 401.271 -3.37349 -2.65508 0
M  V30 3882 C 400.504 -3.60658 -3.93398 0
M  V30 3883 O 400.727 -2.86882 -4.93006 0
M  V30 3884 O 399.661 -4.54179 -3.94975 0
M  V30 3885 H 403.487 -2.82059 -1.12589 0
M  V30 3886 H 401.072 -1.41056 -0.492295 0
M  V30 3887 H 402.954 -2.3094 -3.52484 0
M  V30 3888 H 401.629 -1.23967 -2.99022 0
M  V30 3889 H 400.536 -3.25431 -1.84514 0
M  V30 3890 H 401.869 -4.27192 -2.44474 0
M  V30 3891 N 403.521 0.559213 -1.47345 0
M  V30 3892 C 404.451 1.67622 -1.62558 0
M  V30 3893 C 405.432 1.63331 -0.475087 0
M  V30 3894 O 406.617 1.80983 -0.704182 0
M  V30 3895 C 403.747 3.0626 -1.63774 0
M  V30 3896 C 402.701 3.25397 -2.7803 0
M  V30 3897 C 402.027 4.64801 -2.64318 0
M  V30 3898 C 403.327 3.10965 -4.19641 0
M  V30 3899 H 405.021 1.55146 -2.56067 0
M  V30 3900 H 402.567 0.744961 -1.23233 0
M  V30 3901 H 404.52 3.84247 -1.73008 0
M  V30 3902 H 403.244 3.1969 -0.66825 0
M  V30 3903 H 401.903 2.49817 -2.68304 0
M  V30 3904 H 401.551 4.75028 -1.65401 0
M  V30 3905 H 401.251 4.78555 -3.40968 0
M  V30 3906 H 402.775 5.44926 -2.75478 0
M  V30 3907 H 404.189 3.78772 -4.30354 0
M  V30 3908 H 402.586 3.36229 -4.97062 0
M  V30 3909 H 403.656 2.07736 -4.38148 0
M  V30 3910 N 404.999 1.35443 0.805782 0
M  V30 3911 C 406.415 1.15499 1.10146 0
M  V30 3912 C 406.615 -0.0319975 2.01475 0
M  V30 3913 O 405.671 -0.70236 2.42535 0
M  V30 3914 C 406.984 2.45833 1.73166 0
M  V30 3915 C 408.532 2.52047 1.85583 0
M  V30 3916 C 409.007 3.82427 2.52019 0
M  V30 3917 N 410.498 3.83682 2.59504 0
M  V30 3918 C 411.233 4.81294 3.11679 0
M  V30 3919 N 410.729 5.89294 3.64287 0
M  V30 3920 N 412.522 4.6873 3.1024 0
M  V30 3921 H 404.673 2.11469 0.198678 0
M  V30 3922 H 406.936 0.93594 0.150731 0
M  V30 3923 H 406.642 3.32874 1.13526 0
M  V30 3924 H 406.516 2.6044 2.72857 0
M  V30 3925 H 408.903 1.65435 2.44367 0
M  V30 3926 H 408.984 2.41354 0.847455 0
M  V30 3927 H 408.628 4.69437 1.93885 0
M  V30 3928 H 408.558 3.90409 3.53395 0
M  V30 3929 H 411.049 3.05648 2.22234 0
M  V30 3930 H 411.362 6.59768 4.02401 0
M  V30 3931 H 409.707 5.92985 3.62483 0
M  V30 3932 H 412.898 3.83496 2.68419 0
M  V30 3933 H 413.071 5.44965 3.50596 0
M  V30 3934 N 406.477 -1.02803 1.19454 0
M  V30 3935 C 407.705 -1.79841 1.02297 0
M  V30 3936 C 408.12 -1.83879 -0.428259 0
M  V30 3937 O 407.477 -1.28345 -1.29745 0
M  V30 3938 C 407.528 -3.24852 1.58598 0
M  V30 3939 O 407.249 -3.21097 2.98041 0
M  V30 3940 C 408.75 -4.18485 1.46236 0
M  V30 3941 H 405.97 -0.565936 0.360496 0
M  V30 3942 H 408.514 -1.2948 1.58288 0
M  V30 3943 H 406.669 -3.72401 1.06753 0
M  V30 3944 H 407.083 -4.12033 3.24545 0
M  V30 3945 H 408.557 -5.18121 1.90407 0
M  V30 3946 H 409.034 -4.37254 0.41301 0
M  V30 3947 H 409.64 -3.76811 1.97215 0
M  V30 3948 N 407.956 -0.998596 -1.21925 0
M  V30 3949 C 409.204 -0.676325 -1.90448 0
M  V30 3950 C 409.525 0.794719 -1.78071 0
M  V30 3951 O 408.795 1.5701 -1.17152 0
M  V30 3952 H 407.375 -0.247165 -0.704925 0
M  V30 3953 H 410.037 -1.26633 -1.48156 0
M  V30 3954 H 409.133 -0.943858 -2.97486 0
M  V30 3955 N 409.434 1.37368 -0.772513 0
M  V30 3956 C 410.382 2.32134 -0.147111 0
M  V30 3957 C 411.376 1.54972 0.684106 0
M  V30 3958 O 412.582 1.70363 0.581083 0
M  V30 3959 H 408.957 0.751449 -0.028786 0
M  V30 3960 H 410.928 2.82464 -0.962112 0
M  V30 3961 C 409.677 3.40226 0.71703 0
M  V30 3962 H 409 3.99706 0.0867951 0
M  V30 3963 H 410.44 4.08897 1.12159 0
M  V30 3964 C 408.899 2.80372 1.86797 0
M  V30 3965 O 409.429 2.71183 2.96349 0
M  V30 3966 N 407.635 2.37904 1.66883 0
M  V30 3967 H 407.182 2.45578 0.777759 0
M  V30 3968 H 407.14 1.98202 2.44056 0
M  V30 3969 N 410.912 0.523116 1.48665 0
M  V30 3970 C 412.158 -0.0134963 2.02796 0
M  V30 3971 C 412.491 -1.34582 1.40004 0
M  V30 3972 O 411.766 -1.86756 0.543381 0
M  V30 3973 C 412.049 -0.14276 3.59817 0
M  V30 3974 C 411.902 1.21425 4.331 0
M  V30 3975 C 413.221 -0.872856 4.31357 0
M  V30 3976 H 410.34 -0.00343074 0.736992 0
M  V30 3977 H 412.982 0.678816 1.7746 0
M  V30 3978 H 411.132 -0.732401 3.81534 0
M  V30 3979 H 412.804 1.84447 4.2282 0
M  V30 3980 H 411.047 1.79791 3.94788 0
M  V30 3981 H 411.718 1.07687 5.41394 0
M  V30 3982 H 414.194 -0.372555 4.14429 0
M  V30 3983 H 413.07 -0.932185 5.40927 0
M  V30 3984 H 413.331 -1.92161 3.98154 0
M  V30 3985 N 412.39 -1.55475 0.257931 0
M  V30 3986 C 413.615 -2.04064 -0.370488 0
M  V30 3987 C 414.04 -1.13565 -1.49948 0
M  V30 3988 O 413.398 -0.130781 -1.80828 0
M  V30 3989 C 413.446 -3.50554 -0.845237 0
M  V30 3990 O 412.55 -3.63173 -1.95394 0
M  V30 3991 H 411.891 -0.659257 -0.0792243 0
M  V30 3992 H 414.421 -2.00903 0.387212 0
M  V30 3993 H 414.431 -3.91588 -1.14555 0
M  V30 3994 H 413.106 -4.15896 -0.0191259 0
M  V30 3995 H 411.683 -3.34039 -1.65748 0
M  V30 3996 N 413.868 0.0150385 -1.57593 0
M  V30 3997 C 415.093 0.718067 -1.94573 0
M  V30 3998 C 415.518 1.6734 -0.859005 0
M  V30 3999 O 414.876 1.80362 0.184147 0
M  V30 4000 C 414.924 1.43918 -3.30636 0
M  V30 4001 O 414.028 2.55299 -3.23876 0
M  V30 4002 H 413.369 0.192125 -0.635597 0
M  V30 4003 H 415.899 -0.0336708 -2.04572 0
M  V30 4004 H 415.909 1.80598 -3.65853 0
M  V30 4005 H 414.584 0.738619 -4.09289 0
M  V30 4006 H 413.161 2.21058 -3.00312 0
M  V30 4007 N 415.346 1.54954 0.287554 0
M  V30 4008 C 416.256 1.8991 1.37736 0
M  V30 4009 C 417.272 0.794701 1.54792 0
M  V30 4010 O 418.448 1.09243 1.69198 0
M  V30 4011 C 415.513 2.15108 2.71899 0
M  V30 4012 C 414.574 3.38752 2.63715 0
M  V30 4013 C 413.807 3.62739 3.91479 0
M  V30 4014 O 414.03 2.89492 4.91478 0
M  V30 4015 O 412.964 4.56267 3.92561 0
M  V30 4016 H 416.79 2.82652 1.11092 0
M  V30 4017 H 414.375 1.41315 0.484807 0
M  V30 4018 H 416.257 2.32806 3.51254 0
M  V30 4019 H 414.932 1.25551 2.9836 0
M  V30 4020 H 413.839 3.26405 1.82786 0
M  V30 4021 H 415.172 4.28483 2.42205 0
M  V30 4022 N 416.824 -0.551391 1.4764 0
M  V30 4023 C 418.071 -1.3083 1.54563 0
M  V30 4024 C 418.399 -1.93359 0.210361 0
M  V30 4025 O 417.654 -1.78721 -0.797332 0
M  V30 4026 C 417.953 -2.43469 2.61644 0
M  V30 4027 C 417.619 -1.98732 4.04742 0
M  V30 4028 C 416.281 -1.86248 4.43695 0
M  V30 4029 C 418.633 -1.64659 4.94507 0
M  V30 4030 C 415.961 -1.37995 5.70241 0
M  V30 4031 C 418.313 -1.17875 6.21521 0
M  V30 4032 C 416.977 -1.03992 6.5935 0
M  V30 4033 H 416.247 -0.478741 0.565587 0
M  V30 4034 H 418.894 -0.617697 1.81264 0
M  V30 4035 H 417.199 -3.18109 2.28722 0
M  V30 4036 H 418.896 -3.01642 2.64222 0
M  V30 4037 H 415.486 -2.09393 3.73968 0
M  V30 4038 H 419.67 -1.73174 4.65107 0
M  V30 4039 H 414.926 -1.25915 5.98294 0
M  V30 4040 H 419.1 -0.905739 6.90485 0
M  V30 4041 H 416.727 -0.663794 7.57296 0
M  V30 4042 N 418.302 -1.35869 -0.798587 0
M  V30 4043 C 419.527 -1.32883 -1.59238 0
M  V30 4044 C 419.952 0.0894587 -1.87887 0
M  V30 4045 O 419.31 1.05869 -1.47178 0
M  V30 4046 C 419.358 -2.14892 -2.89575 0
M  V30 4047 O 418.462 -1.53512 -3.82763 0
M  V30 4048 H 417.803 -0.455236 -0.48338 0
M  V30 4049 H 420.333 -1.79024 -0.990539 0
M  V30 4050 H 420.343 -2.27139 -3.38928 0
M  V30 4051 H 419.018 -3.17998 -2.68049 0
M  V30 4052 H 417.595 -1.50153 -3.41334 0
M  V30 4053 N 419.78 1.02168 -1.19998 0
M  V30 4054 C 420.713 2.10232 -0.887558 0
M  V30 4055 C 421.691 1.61827 0.158317 0
M  V30 4056 O 422.875 1.88471 0.0330249 0
M  V30 4057 C 420.002 3.37092 -0.32964 0
M  V30 4058 C 419.048 4.0438 -1.3557 0
M  V30 4059 S 419.881 4.48956 -2.91888 0
M  V30 4060 C 421.037 5.79024 -2.37658 0
M  V30 4061 H 421.27 2.36409 -1.80272 0
M  V30 4062 H 418.803 1.15211 -1.0279 0
M  V30 4063 H 420.761 4.10498 -0.0142824 0
M  V30 4064 H 419.422 3.08996 0.563941 0
M  V30 4065 H 418.615 4.95632 -0.9146 0
M  V30 4066 H 418.217 3.37176 -1.61828 0
M  V30 4067 H 420.509 6.53942 -1.77103 0
M  V30 4068 H 421.452 6.27924 -3.27287 0
M  V30 4069 H 421.86 5.35043 -1.79971 0
M  V30 4070 N 421.258 1.00505 1.21394 0
M  V30 4071 C 422.206 0.558623 2.25792 0
M  V30 4072 C 423.2 -0.396848 1.64686 0
M  V30 4073 O 424.406 -0.268035 1.77993 0
M  V30 4074 H 420.781 0.1623 0.734277 0
M  V30 4075 H 422.752 1.4503 2.60785 0
M  V30 4076 C 421.501 -0.0989574 3.47559 0
M  V30 4077 H 420.824 0.627225 3.94849 0
M  V30 4078 H 422.264 -0.3746 4.22342 0
M  V30 4079 C 420.723 -1.33817 3.09184 0
M  V30 4080 O 421.253 -2.43252 3.19674 0
M  V30 4081 N 419.459 -1.21793 2.63846 0
M  V30 4082 H 419.006 -0.32746 2.5551 0
M  V30 4083 H 418.964 -2.04809 2.38539 0
M  V30 4084 N 422.737 -1.36956 0.779787 0
M  V30 4085 C 423.962 -2.04283 0.358224 0
M  V30 4086 C 424.387 -1.58422 -1.01411 0
M  V30 4087 O 423.745 -0.748179 -1.65142 0
M  V30 4088 C 423.793 -3.58152 0.419479 0
M  V30 4089 O 422.897 -4.08342 -0.577142 0
M  V30 4090 H 422.238 -0.645967 0.153698 0
M  V30 4091 H 424.768 -1.75108 1.05822 0
M  V30 4092 H 424.778 -4.07041 0.279636 0
M  V30 4093 H 423.453 -3.90886 1.42061 0
M  V30 4094 H 422.03 -3.70751 -0.399755 0
M  V30 4095 N 424.215 -0.530993 -1.48385 0
M  V30 4096 C 425.162 0.231223 -2.29639 0
M  V30 4097 C 426.132 0.932864 -1.37429 0
M  V30 4098 O 427.317 0.933692 -1.66394 0
M  V30 4099 C 424.457 1.27155 -3.2082 0
M  V30 4100 C 423.57 0.578655 -4.28107 0
M  V30 4101 C 422.705 1.602 -5.06467 0
M  V30 4102 C 421.744 0.892625 -6.05556 0
M  V30 4103 N 420.881 1.86157 -6.76971 0
M  V30 4104 H 425.721 -0.467848 -2.94305 0
M  V30 4105 H 423.258 -0.242556 -1.45086 0
M  V30 4106 H 425.216 1.88703 -3.72085 0
M  V30 4107 H 423.846 1.939 -2.58075 0
M  V30 4108 H 422.898 -0.150782 -3.80101 0
M  V30 4109 H 424.21 0.0217065 -4.98795 0
M  V30 4110 H 423.364 2.29173 -5.61751 0
M  V30 4111 H 422.103 2.19285 -4.35621 0
M  V30 4112 H 421.108 0.188829 -5.49476 0
M  V30 4113 H 422.333 0.307878 -6.78402 0
M  V30 4114 H 420.279 2.44147 -6.08875 0
M  V30 4115 H 420.196 1.35608 -7.43738 0
M  V30 4116 H 421.464 2.54325 -7.36844 0
M  V30 4117 N 425.693 1.55336 -0.266172 0
M  V30 4118 C 426.603 2.2583 0.635458 0
M  V30 4119 C 427.619 1.28106 1.17749 0
M  V30 4120 O 428.795 1.61024 1.20968 0
M  V30 4121 C 425.86 2.95879 1.80712 0
M  V30 4122 C 424.921 4.09059 1.30265 0
M  V30 4123 C 424.154 4.75759 2.41846 0
M  V30 4124 O 424.377 4.41622 3.61007 0
M  V30 4125 O 423.311 5.63888 2.1051 0
M  V30 4126 H 427.137 3.03631 0.0646693 0
M  V30 4127 H 424.722 1.49361 -0.0339177 0
M  V30 4128 H 426.604 3.39932 2.49047 0
M  V30 4129 H 425.279 2.21002 2.36516 0
M  V30 4130 H 424.186 3.69482 0.586019 0
M  V30 4131 H 425.519 4.85811 0.790458 0
M  V30 4132 N 427.171 -0.0066808 1.57599 0
M  V30 4133 C 428.134 -0.985035 2.06953 0
M  V30 4134 C 429.134 -1.27663 0.977687 0
M  V30 4135 O 430.324 -1.22293 1.24057 0
M  V30 4136 C 427.456 -2.3118 2.50536 0
M  V30 4137 H 428.649 -0.558255 2.94658 0
M  V30 4138 H 426.202 -0.254011 1.54222 0
M  V30 4139 H 426.937 -2.78561 1.66054 0
M  V30 4140 H 426.722 -2.11338 3.3027 0
M  V30 4141 H 428.212 -3.01377 2.8907 0
M  V30 4142 N 428.649 -1.55105 -0.279332 0
M  V30 4143 C 429.579 -1.90557 -1.34945 0
M  V30 4144 C 430.56 -0.766738 -1.51839 0
M  V30 4145 O 431.745 -1.02434 -1.64988 0
M  V30 4146 C 428.875 -2.17193 -2.71006 0
M  V30 4147 C 427.829 -3.33021 -2.68851 0
M  V30 4148 C 427.155 -3.45123 -4.08405 0
M  V30 4149 C 428.455 -4.69578 -2.28678 0
M  V30 4150 H 430.149 -2.80188 -1.05522 0
M  V30 4151 H 427.695 -1.34811 -0.506173 0
M  V30 4152 H 429.648 -2.40581 -3.45975 0
M  V30 4153 H 428.372 -1.24355 -3.01999 0
M  V30 4154 H 427.031 -3.0959 -1.9634 0
M  V30 4155 H 426.679 -2.49762 -4.3661 0
M  V30 4156 H 426.379 -4.22995 -4.07859 0
M  V30 4157 H 427.903 -3.70796 -4.85121 0
M  V30 4158 H 429.317 -4.92553 -2.93368 0
M  V30 4159 H 427.714 -5.5032 -2.39306 0
M  V30 4160 H 428.784 -4.68828 -1.23807 0
M  V30 4161 N 430.127 0.543554 -1.4793 0
M  V30 4162 C 431.375 1.29752 -1.54948 0
M  V30 4163 C 431.696 1.93764 -0.219242 0
M  V30 4164 O 430.966 1.80639 0.75805 0
M  V30 4165 H 429.546 0.481874 -0.570795 0
M  V30 4166 H 432.208 0.633636 -1.84312 0
M  V30 4167 H 431.304 2.08392 -2.32334 0
M  V30 4168 N 431.605 1.3629 0.791371 0
M  V30 4169 C 432.853 1.30154 1.5461 0
M  V30 4170 C 433.174 -0.119409 1.94634 0
M  V30 4171 O 432.444 -1.05924 1.64794 0
M  V30 4172 H 431.024 0.478784 0.573389 0
M  V30 4173 H 433.686 1.70565 0.94306 0
M  V30 4174 H 432.782 1.92762 2.45457 0
M  V30 4175 N 433.083 -1.0153 1.20538 0
M  V30 4176 C 434.331 -1.74803 1.01432 0
M  V30 4177 C 434.652 -1.8963 -0.454456 0
M  V30 4178 O 433.922 -1.43975 -1.32846 0
M  V30 4179 H 432.502 -0.647598 0.372324 0
M  V30 4180 H 435.164 -1.22402 1.5167 0
M  V30 4181 H 434.26 -2.75114 1.47373 0
M  V30 4182 N 434.561 -1.01147 -1.20859 0
M  V30 4183 C 435.508 -0.577354 -2.23462 0
M  V30 4184 C 436.478 0.399922 -1.61214 0
M  V30 4185 O 437.663 0.300515 -1.88419 0
M  V30 4186 C 434.803 0.083372 -3.44999 0
M  V30 4187 C 433.916 -0.937856 -4.21697 0
M  V30 4188 C 433.051 -0.248717 -5.30617 0
M  V30 4189 C 432.09 -1.25705 -5.99053 0
M  V30 4190 N 431.227 -0.594939 -6.99575 0
M  V30 4191 H 436.067 -1.45695 -2.59956 0
M  V30 4192 H 433.604 -0.729428 -1.27741 0
M  V30 4193 H 435.562 0.483535 -4.14388 0
M  V30 4194 H 434.192 0.926645 -3.09214 0
M  V30 4195 H 433.244 -1.45622 -3.51423 0
M  V30 4196 H 434.556 -1.70493 -4.68757 0
M  V30 4197 H 433.71 0.207215 -6.06346 0
M  V30 4198 H 432.449 0.55071 -4.84581 0
M  V30 4199 H 431.454 -1.72343 -5.2209 0
M  V30 4200 H 432.679 -2.05767 -6.47176 0
M  V30 4201 H 430.625 0.184713 -6.5574 0
M  V30 4202 H 430.542 -1.30017 -7.44736 0
M  V30 4203 H 431.81 -0.162427 -7.79331 0
M  V30 4204 N 436.039 1.36541 -0.78704 0
M  V30 4205 C 437.286 1.99304 -0.358341 0
M  V30 4206 C 437.614 1.62467 1.06933 0
M  V30 4207 O 436.869 0.870019 1.75297 0
M  V30 4208 C 437.168 3.54343 -0.466485 0
M  V30 4209 C 436.834 4.10993 -1.85461 0
M  V30 4210 C 435.496 4.26177 -2.23443 0
M  V30 4211 C 437.848 4.41895 -2.76366 0
M  V30 4212 C 435.176 4.69573 -3.51736 0
M  V30 4213 C 437.528 4.86722 -4.04084 0
M  V30 4214 C 436.192 5.00112 -4.42091 0
M  V30 4215 H 435.462 0.729306 -0.131126 0
M  V30 4216 H 438.109 1.63068 -1.00404 0
M  V30 4217 H 436.414 3.90918 0.262719 0
M  V30 4218 H 438.111 4.00833 -0.115854 0
M  V30 4219 H 434.701 3.99612 -1.54946 0
M  V30 4220 H 438.885 4.29735 -2.48277 0
M  V30 4221 H 434.141 4.78127 -3.81057 0
M  V30 4222 H 438.315 5.09598 -4.7464 0
M  V30 4223 H 435.942 5.33498 -5.41557 0
M  V30 4224 N 437.518 0.538854 1.48102 0
M  V30 4225 C 438.766 0.00798599 2.02098 0
M  V30 4226 C 439.087 -1.33922 1.41739 0
M  V30 4227 O 438.357 -1.86932 0.585934 0
M  V30 4228 H 436.937 -3.62179e-05 0.747 0
M  V30 4229 H 439.599 0.7047 1.81714 0
M  V30 4230 H 438.695 -0.0937672 3.11959 0
M  V30 4231 N 438.996 -1.55193 0.274407 0
M  V30 4232 C 439.959 -2.212 -0.600279 0
M  V30 4233 C 440.959 -1.18963 -1.08187 0
M  V30 4234 O 442.149 -1.43873 -0.982158 0
M  V30 4235 C 439.281 -2.87739 -1.82809 0
M  V30 4236 H 440.474 -2.9989 -0.0239682 0
M  V30 4237 H 438.027 -1.5628 0.0250192 0
M  V30 4238 H 438.762 -2.13058 -2.44493 0
M  V30 4239 H 438.547 -3.62658 -1.49069 0
M  V30 4240 H 440.037 -3.38171 -2.45011 0
M  V30 4241 N 440.474 -0.00167713 -1.576 0
M  V30 4242 C 441.72 0.683832 -1.90923 0
M  V30 4243 C 442.053 1.7333 -0.875799 0
M  V30 4244 O 441.328 1.94215 0.10525 0
M  V30 4245 C 441.611 1.32543 -3.3482 0
M  V30 4246 C 441.464 0.287387 -4.48881 0
M  V30 4247 C 442.783 2.25114 -3.78169 0
M  V30 4248 H 439.902 0.247125 -0.694333 0
M  V30 4249 H 442.544 -0.0533149 -1.89925 0
M  V30 4250 H 440.694 1.95372 -3.35801 0
M  V30 4251 H 442.366 -0.341346 -4.60035 0
M  V30 4252 H 440.609 -0.39017 -4.32042 0
M  V30 4253 H 441.28 0.775393 -5.46527 0
M  V30 4254 H 443.756 1.723 -3.7875 0
M  V30 4255 H 442.632 2.66971 -4.79602 0
M  V30 4256 H 442.893 3.13092 -3.12131 0
M  V30 4257 N 441.952 1.55251 0.271103 0
M  V30 4258 C 443.192 1.77698 1.01008 0
M  V30 4259 C 443.556 0.567246 1.83429 0
M  V30 4260 O 444.757 0.670013 2.60316 0
M  V30 4261 C 443.028 3.04715 1.86772 0
M  V30 4262 S 444.587 3.48289 2.66909 0
M  V30 4263 H 441.405 0.624343 0.340172 0
M  V30 4264 H 444.007 1.9348 0.280315 0
M  V30 4265 H 442.711 3.90853 1.25149 0
M  V30 4266 H 442.242 2.91604 2.64066 0
M  V30 4267 H 444.257 3.07712 3.89266 0
M  V30 4268 N 443.43 -0.535701 1.48216 0
M  V30 4269 C 444.658 -1.31671 1.59594 0
M  V30 4270 C 445.073 -1.87083 0.254056 0
M  V30 4271 O 444.43 -1.66112 -0.755854 0
M  V30 4272 C 444.481 -2.47158 2.63809 0
M  V30 4273 O 444.202 -1.94032 3.92789 0
M  V30 4274 C 445.703 -3.39062 2.85573 0
M  V30 4275 H 442.923 -0.400623 0.538277 0
M  V30 4276 H 445.467 -0.646827 1.94001 0
M  V30 4277 H 443.622 -3.10043 2.32276 0
M  V30 4278 H 444.036 -2.69585 4.49916 0
M  V30 4279 H 445.51 -4.16459 3.62306 0
M  V30 4280 H 445.987 -3.93941 1.94184 0
M  V30 4281 H 446.593 -2.81975 3.18387 0
M  V30 4282 N 444.908 -1.36708 -0.784132 0
M  V30 4283 C 446.148 -1.32618 -1.55537 0
M  V30 4284 C 446.512 0.0920681 -1.91779 0
M  V30 4285 O 447.713 0.257573 -2.67563 0
M  V30 4286 C 445.984 -2.22788 -2.79464 0
M  V30 4287 S 447.543 -2.36432 -3.69656 0
M  V30 4288 H 444.361 -0.470973 -0.53264 0
M  V30 4289 H 446.963 -1.72333 -0.92312 0
M  V30 4290 H 445.667 -3.24774 -2.50899 0
M  V30 4291 H 445.198 -1.84112 -3.47658 0
M  V30 4292 H 447.213 -1.56573 -4.7085 0
M  V30 4293 N 446.386 1.0089 -1.21074 0
M  V30 4294 C 447.319 2.09279 -0.909806 0
M  V30 4295 C 448.297 1.61986 0.141145 0
M  V30 4296 O 449.481 1.88495 0.0130332 0
M  V30 4297 C 446.608 3.36723 -0.365374 0
M  V30 4298 C 445.654 4.02919 -1.39852 0
M  V30 4299 S 446.487 4.45835 -2.96633 0
M  V30 4300 C 447.643 5.76471 -2.43786 0
M  V30 4301 H 447.876 2.34484 -1.82769 0
M  V30 4302 H 445.409 1.14115 -1.04006 0
M  V30 4303 H 447.367 4.10459 -0.0578203 0
M  V30 4304 H 446.028 3.09577 0.531136 0
M  V30 4305 H 445.221 4.94634 -0.967117 0
M  V30 4306 H 444.823 3.35441 -1.65395 0
M  V30 4307 H 447.115 6.52027 -1.84029 0
M  V30 4308 H 448.058 6.24418 -3.33928 0
M  V30 4309 H 448.466 5.33104 -1.85636 0
M  V30 4310 N 447.864 1.01787 1.20321 0
M  V30 4311 C 448.774 0.598898 2.26827 0
M  V30 4312 C 449.79 -0.36418 1.70146 0
M  V30 4313 O 450.966 -0.224812 2.00141 0
M  V30 4314 C 448.031 -0.0549769 3.46656 0
M  V30 4315 C 447.092 0.954205 4.18561 0
M  V30 4316 C 446.325 0.331439 5.3267 0
M  V30 4317 O 446.548 -0.86851 5.63749 0
M  V30 4318 O 445.482 1.0488 5.92692 0
M  V30 4319 H 449.308 1.48562 2.64883 0
M  V30 4320 H 446.893 0.787434 1.26964 0
M  V30 4321 H 448.775 -0.420102 4.19301 0
M  V30 4322 H 447.45 -0.915876 3.10473 0
M  V30 4323 H 446.357 1.37072 3.48083 0
M  V30 4324 H 447.69 1.78511 4.58688 0
M  V30 4325 N 449.342 -1.36122 0.79427 0
M  V30 4326 C 450.289 -2.29982 0.194101 0
M  V30 4327 C 451.259 -1.52214 -0.664833 0
M  V30 4328 O 452.444 -1.80702 -0.612498 0
M  V30 4329 C 449.584 -3.38706 -0.661244 0
M  V30 4330 C 448.697 -4.31456 0.216766 0
M  V30 4331 C 447.832 -5.27265 -0.645411 0
M  V30 4332 C 446.871 -6.11653 0.233756 0
M  V30 4333 N 446.008 -6.99636 -0.587682 0
M  V30 4334 H 450.848 -2.80722 0.999965 0
M  V30 4335 H 448.385 -1.38172 0.504677 0
M  V30 4336 H 450.343 -4.00394 -1.17219 0
M  V30 4337 H 448.973 -2.89274 -1.43249 0
M  V30 4338 H 448.025 -3.7088 0.845724 0
M  V30 4339 H 449.337 -4.90724 0.893973 0
M  V30 4340 H 448.491 -5.94266 -1.22198 0
M  V30 4341 H 447.23 -4.68463 -1.35623 0
M  V30 4342 H 446.235 -5.4361 0.82269 0
M  V30 4343 H 447.46 -6.72531 0.942247 0
M  V30 4344 H 445.406 -6.43337 -1.2827 0
M  V30 4345 H 445.323 -7.55993 0.0317402 0
M  V30 4346 H 446.591 -7.71001 -1.14792 0
M  V30 4347 N 450.82 -0.546701 -1.47814 0
M  V30 4348 C 451.783 0.196287 -2.28358 0
M  V30 4349 C 452.783 0.852437 -1.36346 0
M  V30 4350 O 453.973 0.709913 -1.59078 0
M  V30 4351 C 451.105 1.28579 -3.15722 0
M  V30 4352 H 452.298 -0.511086 -2.95513 0
M  V30 4353 H 449.851 -0.303248 -1.5333 0
M  V30 4354 H 450.586 2.0259 -2.53235 0
M  V30 4355 H 450.371 0.820229 -3.83425 0
M  V30 4356 H 451.861 1.80793 -3.76435 0
M  V30 4357 N 452.299 1.55045 -0.282633 0
M  V30 4358 C 453.527 2.04168 0.33512 0
M  V30 4359 C 453.942 1.16071 1.48906 0
M  V30 4360 O 453.299 0.182391 1.81586 0
M  V30 4361 C 453.35 3.52332 0.808957 0
M  V30 4362 O 453.071 4.37078 -0.299038 0
M  V30 4363 C 454.572 4.17375 1.49375 0
M  V30 4364 H 451.792 0.666744 0.0754543 0
M  V30 4365 H 454.336 2.00205 -0.416918 0
M  V30 4366 H 452.491 3.56715 1.51106 0
M  V30 4367 H 452.905 5.24458 0.0665514 0
M  V30 4368 H 454.379 5.22627 1.77664 0
M  V30 4369 H 454.856 3.65999 2.42778 0
M  V30 4370 H 455.462 4.17016 0.835305 0
M  V30 4371 N 453.777 0.010035 1.57597 0
M  V30 4372 C 455.025 -0.671371 1.90623 0
M  V30 4373 C 455.346 -1.73753 0.885151 0
M  V30 4374 O 454.616 -1.95752 -0.0760611 0
M  V30 4375 H 453.196 -0.250968 0.703579 0
M  V30 4376 H 455.858 0.0533325 1.94827 0
M  V30 4377 H 454.954 -1.13626 2.90681 0
M  V30 4378 N 455.255 -1.55392 -0.262866 0
M  V30 4379 C 456.185 -1.91978 -1.32917 0
M  V30 4380 C 457.166 -0.7828 -1.51017 0
M  V30 4381 O 458.351 -1.04178 -1.63892 0
M  V30 4382 C 455.481 -2.20055 -2.68687 0
M  V30 4383 C 454.435 -3.35854 -2.65304 0
M  V30 4384 C 453.761 -3.49435 -4.04721 0
M  V30 4385 C 455.061 -4.71977 -2.23685 0
M  V30 4386 H 456.755 -2.81292 -1.02544 0
M  V30 4387 H 454.301 -1.3534 -0.491846 0
M  V30 4388 H 456.254 -2.44237 -3.43404 0
M  V30 4389 H 454.978 -1.27551 -3.00663 0
M  V30 4390 H 453.637 -3.11655 -1.93045 0
M  V30 4391 H 453.285 -2.54379 -4.33936 0
M  V30 4392 H 452.985 -4.27297 -4.0335 0
M  V30 4393 H 454.509 -3.7592 -4.81161 0
M  V30 4394 H 455.923 -4.95637 -2.88127 0
M  V30 4395 H 454.32 -5.52828 -2.33456 0
M  V30 4396 H 455.39 -4.70115 -1.18827 0
M  V30 4397 N 456.733 0.527833 -1.48498 0
M  V30 4398 C 457.68 1.6322 -1.6318 0
M  V30 4399 C 458.65 1.59199 -0.473815 0
M  V30 4400 O 459.835 1.77591 -0.697563 0
M  V30 4401 C 456.975 3.01474 -1.67951 0
M  V30 4402 C 456.088 3.15713 -2.94871 0
M  V30 4403 C 455.223 4.44539 -2.90789 0
M  V30 4404 C 454.262 4.52315 -4.12404 0
M  V30 4405 N 453.399 5.72533 -4.06387 0
M  V30 4406 H 458.239 1.50011 -2.57489 0
M  V30 4407 H 455.776 0.730298 -1.27691 0
M  V30 4408 H 457.734 3.81572 -1.68698 0
M  V30 4409 H 456.364 3.1345 -0.771306 0
M  V30 4410 H 455.416 2.28854 -3.03859 0
M  V30 4411 H 456.728 3.1732 -3.8485 0
M  V30 4412 H 455.882 5.3293 -2.89949 0
M  V30 4413 H 454.621 4.45457 -1.98542 0
M  V30 4414 H 453.626 3.62331 -4.13517 0
M  V30 4415 H 454.851 4.53134 -5.05812 0
M  V30 4416 H 452.797 5.74344 -3.16962 0
M  V30 4417 H 452.714 5.75643 -4.90073 0
M  V30 4418 H 453.982 6.63204 -4.0961 0
M  V30 4419 N 458.211 1.37122 0.776871 0
M  V30 4420 C 459.141 1.35164 1.90402 0
M  V30 4421 C 460.122 0.221069 1.68657 0
M  V30 4422 O 461.307 0.420642 1.8959 0
M  V30 4423 C 458.437 1.15274 3.27611 0
M  V30 4424 C 457.391 2.25289 3.63908 0
M  V30 4425 C 456.717 1.90527 4.99603 0
M  V30 4426 C 458.017 3.67446 3.71188 0
M  V30 4427 H 459.711 2.29482 1.92297 0
M  V30 4428 H 457.257 1.10465 0.923773 0
M  V30 4429 H 459.21 1.12536 4.06096 0
M  V30 4430 H 457.934 0.174102 3.26136 0
M  V30 4431 H 456.593 2.27174 2.87728 0
M  V30 4432 H 456.241 0.91206 4.94662 0
M  V30 4433 H 455.941 2.64193 5.24858 0
M  V30 4434 H 457.465 1.89367 5.80493 0
M  V30 4435 H 458.879 3.67719 4.39836 0
M  V30 4436 H 457.276 4.40123 4.07936 0
M  V30 4437 H 458.346 4.01443 2.71977 0
M  V30 4438 N 459.689 -1.00246 1.21608 0
M  V30 4439 C 460.652 -2.07233 0.979133 0
M  V30 4440 C 461.652 -1.6072 -0.0508219 0
M  V30 4441 O 462.842 -1.73196 0.186712 0
M  V30 4442 C 459.974 -3.37546 0.477016 0
M  V30 4443 H 461.167 -2.29687 1.92831 0
M  V30 4444 H 458.72 -1.17261 1.03342 0
M  V30 4445 H 459.455 -3.20773 -0.476966 0
M  V30 4446 H 459.24 -3.72638 1.21997 0
M  V30 4447 H 460.73 -4.16285 0.331181 0
M  V30 4448 N 461.167 -1.02423 -1.1978 0
M  V30 4449 C 462.13 -0.605703 -2.21052 0
M  V30 4450 C 463.13 0.328209 -1.57415 0
M  V30 4451 O 464.32 0.115853 -1.73814 0
M  V30 4452 C 461.452 0.114366 -3.40708 0
M  V30 4453 H 462.645 -1.5017 -2.59594 0
M  V30 4454 H 460.198 -0.814888 -1.33376 0
M  V30 4455 H 460.933 1.02492 -3.07678 0
M  V30 4456 H 460.718 -0.556641 -3.88129 0
M  V30 4457 H 462.208 0.394272 -4.15735 0
M  V30 4458 N 462.645 1.35699 -0.801477 0
M  V30 4459 C 463.592 2.29876 -0.206294 0
M  V30 4460 C 464.562 1.52565 0.656752 0
M  V30 4461 O 465.747 1.81024 0.602906 0
M  V30 4462 C 462.887 3.39052 0.643272 0
M  V30 4463 C 462 4.31335 -0.239644 0
M  V30 4464 C 461.135 5.27599 0.61744 0
M  V30 4465 C 460.174 6.11521 -0.26619 0
M  V30 4466 N 459.311 6.99938 0.550571 0
M  V30 4467 H 464.151 2.80187 -1.01484 0
M  V30 4468 H 461.688 1.37902 -0.511997 0
M  V30 4469 H 463.646 4.0101 1.15094 0
M  V30 4470 H 462.276 2.9003 1.41713 0
M  V30 4471 H 461.328 3.70426 -0.865381 0
M  V30 4472 H 462.64 4.90243 -0.919985 0
M  V30 4473 H 461.794 5.94906 1.19045 0
M  V30 4474 H 460.533 4.69176 1.33137 0
M  V30 4475 H 459.538 5.43166 -0.851507 0
M  V30 4476 H 460.763 6.72022 -0.9779 0
M  V30 4477 H 458.709 6.44008 1.24856 0
M  V30 4478 H 458.626 7.55966 -0.071832 0
M  V30 4479 H 459.894 7.71599 1.10702 0
M  V30 4480 N 464.123 0.554532 1.47522 0
M  V30 4481 C 465.369 0.0295227 2.02779 0
M  V30 4482 C 465.702 -1.31582 1.42828 0
M  V30 4483 O 464.977 -1.85561 0.582872 0
M  V30 4484 C 465.26 -0.0664057 3.60039 0
M  V30 4485 C 465.113 1.30585 4.30427 0
M  V30 4486 C 466.432 -0.781162 4.33112 0
M  V30 4487 H 463.551 0.0122027 0.736899 0
M  V30 4488 H 466.193 0.716305 1.7598 0
M  V30 4489 H 464.343 -0.651307 3.83002 0
M  V30 4490 H 466.015 1.93374 4.18813 0
M  V30 4491 H 464.258 1.88125 3.90886 0
M  V30 4492 H 464.929 1.19147 5.38988 0
M  V30 4493 H 467.405 -0.284565 4.15126 0
M  V30 4494 H 466.281 -0.817237 5.42782 0
M  V30 4495 H 466.542 -1.83672 4.0214 0
M  V30 4496 N 465.601 -1.54893 0.290851 0
M  V30 4497 C 466.85 -1.99111 -0.322113 0
M  V30 4498 C 467.163 -1.18283 -1.55784 0
M  V30 4499 O 468.369 -1.5272 -2.24475 0
M  V30 4500 C 466.825 -3.54442 -0.624438 0
M  V30 4501 C 466.433 -4.44066 0.592373 0
M  V30 4502 C 468.177 -4.07211 -1.19916 0
M  V30 4503 C 466.084 -5.90812 0.263762 0
M  V30 4504 H 465.014 -0.743712 -0.124133 0
M  V30 4505 H 467.665 -1.79132 0.39797 0
M  V30 4506 H 466.047 -3.70281 -1.40384 0
M  V30 4507 H 467.221 -4.39999 1.36886 0
M  V30 4508 H 465.536 -4.02015 1.08502 0
M  V30 4509 H 468.133 -5.14407 -1.45909 0
M  V30 4510 H 468.476 -3.57196 -2.13815 0
M  V30 4511 H 469.009 -3.94873 -0.481687 0
M  V30 4512 H 465.748 -6.44955 1.17105 0
M  V30 4513 H 465.268 -5.97911 -0.475655 0
M  V30 4514 H 466.947 -6.46852 -0.138354 0
M  V30 4515 N 467.08 -0.0183926 -1.57589 0
M  V30 4516 C 468.027 0.967022 -2.09565 0
M  V30 4517 C 468.997 1.32983 -0.995225 0
M  V30 4518 O 470.182 1.42501 -1.26878 0
M  V30 4519 C 467.322 2.24772 -2.61861 0
M  V30 4520 C 466.435 1.94232 -3.85873 0
M  V30 4521 C 465.57 3.16518 -4.26603 0
M  V30 4522 C 464.609 2.81748 -5.43401 0
M  V30 4523 N 463.746 3.96626 -5.79338 0
M  V30 4524 H 468.586 0.516874 -2.93483 0
M  V30 4525 H 466.123 0.243544 -1.4507 0
M  V30 4526 H 468.081 2.99667 -2.90268 0
M  V30 4527 H 466.711 2.67423 -1.8079 0
M  V30 4528 H 465.763 1.09625 -3.64262 0
M  V30 4529 H 467.075 1.64616 -4.70853 0
M  V30 4530 H 466.229 3.99743 -4.56389 0
M  V30 4531 H 464.968 3.49286 -3.40368 0
M  V30 4532 H 463.973 1.96933 -5.1332 0
M  V30 4533 H 465.198 2.50207 -6.31327 0
M  V30 4534 H 463.144 4.29257 -4.96059 0
M  V30 4535 H 463.061 3.70598 -6.58933 0
M  V30 4536 H 464.329 4.80586 -6.13724 0
M  V30 4537 N 468.558 1.5553 0.254621 0
M  V30 4538 C 469.505 1.89666 1.31512 0
M  V30 4539 C 470.475 0.750057 1.482 0
M  V30 4540 O 471.66 1.00301 1.62309 0
M  V30 4541 C 468.8 2.19009 2.667 0
M  V30 4542 C 467.913 3.46435 2.58083 0
M  V30 4543 C 467.048 3.65386 3.85573 0
M  V30 4544 C 466.087 4.8644 3.71541 0
M  V30 4545 N 465.224 5.01952 4.90906 0
M  V30 4546 H 470.064 2.80109 1.017 0
M  V30 4547 H 467.601 1.38666 0.490938 0
M  V30 4548 H 469.559 2.34025 3.45381 0
M  V30 4549 H 468.189 1.31779 2.94676 0
M  V30 4550 H 467.241 3.39792 1.71013 0
M  V30 4551 H 468.553 4.35258 2.43622 0
M  V30 4552 H 467.707 3.80319 4.72697 0
M  V30 4553 H 466.446 2.74781 4.02922 0
M  V30 4554 H 465.451 4.71491 2.82801 0
M  V30 4555 H 466.676 5.78497 3.55694 0
M  V30 4556 H 464.622 4.14283 5.08631 0
M  V30 4557 H 464.539 5.84851 4.79046 0
M  V30 4558 H 465.807 5.21289 5.7955 0
M  V30 4559 N 470.036 -0.519951 1.48776 0
M  V30 4560 C 470.968 -1.63973 1.60142 0
M  V30 4561 C 471.981 -1.55404 0.485117 0
M  V30 4562 O 473.17 -1.61682 0.756391 0
M  V30 4563 C 470.27 -3.02676 1.52449 0
M  V30 4564 C 469.443 -3.36624 2.79291 0
M  V30 4565 C 468.502 -4.54652 2.64912 0
M  V30 4566 O 467.528 -4.57374 3.38818 0
M  V30 4567 N 468.73 -5.53432 1.75195 0
M  V30 4568 H 471.495 -1.54656 2.56713 0
M  V30 4569 H 469.056 -0.707439 1.45626 0
M  V30 4570 H 471.048 -3.79525 1.4051 0
M  V30 4571 H 469.618 -3.06018 0.638125 0
M  V30 4572 H 468.838 -2.48855 3.0572 0
M  V30 4573 H 470.126 -3.56094 3.6342 0
M  V30 4574 H 469.524 -5.54018 1.14371 0
M  V30 4575 H 468.081 -6.29459 1.69189 0
M  V30 4576 N 471.514 -1.37532 -0.769588 0
M  V30 4577 C 472.742 -1.36059 -1.55871 0
M  V30 4578 C 473.157 0.053544 -1.88724 0
M  V30 4579 O 472.514 1.01591 -1.5161 0
M  V30 4580 C 472.565 -2.20107 -2.86767 0
M  V30 4581 O 472.286 -3.56009 -2.55321 0
M  V30 4582 C 473.787 -2.26636 -3.80987 0
M  V30 4583 H 471.007 -0.465967 -0.482821 0
M  V30 4584 H 473.551 -1.80901 -0.953686 0
M  V30 4585 H 471.706 -1.78768 -3.43687 0
M  V30 4586 H 472.12 -4.0009 -3.39158 0
M  V30 4587 H 473.594 -2.89763 -4.69831 0
M  V30 4588 H 474.071 -1.2754 -4.20274 0
M  V30 4589 H 474.677 -2.68296 -3.29996 0
M  V30 4590 N 472.992 0.995999 -1.22138 0
M  V30 4591 C 474.403 1.54961 -1.04135 0
M  V30 4592 C 474.754 1.92159 0.396147 0
M  V30 4593 O 473.879 1.74435 1.28069 0
M  V30 4594 C 474.474 2.81581 -1.88408 0
M  V30 4595 C 473.033 3.33396 -1.74712 0
M  V30 4596 C 472.18 2.06509 -1.85066 0
M  V30 4597 H 475.131 0.817436 -1.36028 0
M  V30 4598 H 475.152 3.53822 -1.39966 0
M  V30 4599 H 474.664 2.54476 -2.93025 0
M  V30 4600 H 472.765 3.65416 -0.728159 0
M  V30 4601 H 472.878 4.04208 -2.57202 0
M  V30 4602 H 471.242 2.19925 -1.28472 0
M  V30 4603 H 472.025 1.81804 -2.91208 0
M  V30 4604 N 474.47 1.03057 1.19235 0
M  V30 4605 C 475.417 0.612832 2.22515 0
M  V30 4606 C 476.387 -0.374224 1.61829 0
M  V30 4607 O 477.572 -0.270501 1.88873 0
M  V30 4608 C 474.712 -0.028475 3.45088 0
M  V30 4609 C 473.825 1.00483 4.20151 0
M  V30 4610 C 472.96 0.333102 5.30155 0
M  V30 4611 C 471.999 1.3522 5.96977 0
M  V30 4612 N 471.136 0.70616 6.9854 0
M  V30 4613 H 475.976 1.49812 2.57605 0
M  V30 4614 H 473.513 0.749658 1.26564 0
M  V30 4615 H 475.471 -0.417548 4.15105 0
M  V30 4616 H 474.101 -0.877334 3.10649 0
M  V30 4617 H 473.153 1.51194 3.49062 0
M  V30 4618 H 474.465 1.77929 4.65986 0
M  V30 4619 H 473.619 -0.110725 6.06599 0
M  V30 4620 H 472.358 -0.473547 4.85396 0
M  V30 4621 H 471.363 1.80627 5.19282 0
M  V30 4622 H 472.588 2.16037 6.4382 0
M  V30 4623 H 470.534 -0.0803667 6.55951 0
M  V30 4624 H 470.451 1.41848 7.42573 0
M  V30 4625 H 471.719 0.286391 7.78974 0
M  V30 4626 N 475.948 -1.35272 0.808662 0
M  V30 4627 C 477.225 -1.93077 0.313181 0
M  V30 4628 C 477.605 -1.73847 -1.19752 0
M  V30 4629 O 476.953 -1.1087 -1.998 0
M  V30 4630 C 477.163 -3.41347 0.726859 0
M  V30 4631 C 478.511 -4.18493 0.717532 0
M  V30 4632 O 479.535 -3.4987 0.668535 0
M  V30 4633 O 478.394 -5.40937 0.777779 0
M  V30 4634 H 475.488 -0.822885 0.0824018 0
M  V30 4635 H 478.034 -1.44335 0.892499 0
M  V30 4636 H 476.806 -3.49082 1.76797 0
M  V30 4637 H 476.429 -3.97411 0.122461 0
M  V30 4638 N 477.426 -0.562348 -1.47226 0
M  V30 4639 C 478.373 0.182461 -2.30078 0
M  V30 4640 C 479.343 0.903503 -1.39377 0
M  V30 4641 O 480.528 0.898188 -1.68337 0
M  V30 4642 C 477.668 1.20322 -3.23445 0
M  V30 4643 C 476.781 0.487717 -4.29238 0
M  V30 4644 C 475.916 1.49422 -5.09752 0
M  V30 4645 C 474.955 0.763976 -6.07314 0
M  V30 4646 N 474.092 1.71755 -6.80768 0
M  V30 4647 H 478.932 -0.530169 -2.93246 0
M  V30 4648 H 476.469 -0.273276 -1.44539 0
M  V30 4649 H 478.427 1.80768 -3.76004 0
M  V30 4650 H 477.057 1.88382 -2.6213 0
M  V30 4651 H 476.109 -0.231374 -3.79696 0
M  V30 4652 H 477.421 -0.0841003 -4.98729 0
M  V30 4653 H 476.575 2.17206 -5.66486 0
M  V30 4654 H 475.314 2.09995 -4.40174 0
M  V30 4655 H 474.319 0.0722344 -5.49753 0
M  V30 4656 H 475.544 0.16391 -6.78902 0
M  V30 4657 H 473.49 2.31177 -6.13916 0
M  V30 4658 H 473.407 1.19802 -7.46447 0
M  V30 4659 H 474.675 2.38638 -7.42073 0
M  V30 4660 N 478.904 1.54736 -0.299062 0
M  V30 4661 C 479.814 2.27127 0.587413 0
M  V30 4662 C 480.83 1.30575 1.15005 0
M  V30 4663 O 482.006 1.63554 1.17525 0
M  V30 4664 C 479.071 2.99645 1.74395 0
M  V30 4665 C 478.132 4.11731 1.21559 0
M  V30 4666 C 477.365 4.80781 2.317 0
M  V30 4667 O 477.588 4.4918 3.51558 0
M  V30 4668 O 476.522 5.68226 1.98501 0
M  V30 4669 H 480.348 3.037 0.000250109 0
M  V30 4670 H 477.933 1.49256 -0.0655919 0
M  V30 4671 H 479.815 3.45138 2.4178 0
M  V30 4672 H 478.49 2.25969 2.31775 0
M  V30 4673 H 477.397 3.70641 0.507514 0
M  V30 4674 H 478.73 4.87379 0.687233 0
M  V30 4675 N 480.382 0.0267497 1.57577 0
M  V30 4676 C 481.315 -0.99059 2.05579 0
M  V30 4677 C 482.293 -1.31884 0.951065 0
M  V30 4678 O 483.477 -1.43592 1.22121 0
M  V30 4679 C 480.604 -2.31125 2.47586 0
M  V30 4680 C 479.65 -2.13777 3.69055 0
M  V30 4681 S 480.483 -1.4388 5.15809 0
M  V30 4682 C 481.639 -2.77321 5.6111 0
M  V30 4683 H 481.872 -0.581976 2.91548 0
M  V30 4684 H 479.405 -0.184876 1.53289 0
M  V30 4685 H 481.363 -3.07049 2.72454 0
M  V30 4686 H 480.024 -2.6912 1.61967 0
M  V30 4687 H 479.217 -3.11405 3.96287 0
M  V30 4688 H 478.819 -1.45996 3.44327 0
M  V30 4689 H 481.111 -3.73565 5.65204 0
M  V30 4690 H 482.054 -2.54756 6.60685 0
M  V30 4691 H 482.462 -2.82459 4.88751 0
M  V30 4692 N 481.861 -1.55662 -0.24637 0
M  V30 4693 C 483.107 -1.77782 -0.975779 0
M  V30 4694 C 483.44 -0.592103 -1.84953 0
M  V30 4695 O 482.715 0.409588 -1.90138 0
M  V30 4696 C 482.998 -3.09788 -1.83584 0
M  V30 4697 C 482.851 -4.38764 -0.990241 0
M  V30 4698 C 484.17 -3.38029 -2.81823 0
M  V30 4699 H 481.289 -0.646789 -0.353317 0
M  V30 4700 H 483.931 -1.88398 -0.246248 0
M  V30 4701 H 482.081 -3.00869 -2.45784 0
M  V30 4702 H 483.753 -4.59675 -0.386897 0
M  V30 4703 H 481.996 -4.32798 -0.294626 0
M  V30 4704 H 482.667 -5.27514 -1.62584 0
M  V30 4705 H 485.143 -3.46915 -2.2976 0
M  V30 4706 H 484.019 -4.3161 -3.39122 0
M  V30 4707 H 484.28 -2.58968 -3.58313 0
M  V30 4708 N 483.339 0.512053 -1.4905 0
M  V30 4709 C 484.269 1.62365 -1.67809 0
M  V30 4710 C 485.25 1.61737 -0.526809 0
M  V30 4711 O 486.435 1.78651 -0.761404 0
M  V30 4712 C 483.565 3.00895 -1.73435 0
M  V30 4713 C 482.519 3.16387 -2.88242 0
M  V30 4714 C 481.845 4.56157 -2.78971 0
M  V30 4715 C 483.145 2.97457 -4.29321 0
M  V30 4716 H 484.839 1.46921 -2.60873 0
M  V30 4717 H 482.385 0.705379 -1.2554 0
M  V30 4718 H 484.338 3.78549 -1.85145 0
M  V30 4719 H 483.062 3.17403 -0.769619 0
M  V30 4720 H 481.721 2.41155 -2.76116 0
M  V30 4721 H 481.369 4.69525 -1.8043 0
M  V30 4722 H 481.069 4.67465 -3.5602 0
M  V30 4723 H 482.593 5.35886 -2.92675 0
M  V30 4724 H 484.007 3.64888 -4.42187 0
M  V30 4725 H 482.404 3.20245 -5.07507 0
M  V30 4726 H 483.474 1.93692 -4.44535 0
M  V30 4727 N 484.817 1.37938 0.762283 0
M  V30 4728 C 485.747 1.37176 1.88958 0
M  V30 4729 C 486.728 0.238945 1.68413 0
M  V30 4730 O 487.913 0.440726 1.89133 0
M  V30 4731 C 485.043 1.18742 3.2637 0
M  V30 4732 C 483.997 2.29136 3.61498 0
M  V30 4733 C 483.323 1.95816 4.97554 0
M  V30 4734 C 484.623 3.71363 3.6727 0
M  V30 4735 H 486.317 2.31509 1.89853 0
M  V30 4736 H 483.863 1.11438 0.912005 0
M  V30 4737 H 485.816 1.16837 4.04879 0
M  V30 4738 H 484.54 0.208683 3.25933 0
M  V30 4739 H 483.199 2.30213 2.85303 0
M  V30 4740 H 482.847 0.964475 4.93667 0
M  V30 4741 H 482.547 2.69745 5.22026 0
M  V30 4742 H 484.071 1.95513 5.78452 0
M  V30 4743 H 485.485 3.72364 4.35911 0
M  V30 4744 H 483.882 4.44425 4.03245 0
M  V30 4745 H 484.952 4.04305 2.67704 0
M  V30 4746 N 486.295 -0.989507 1.22664 0
M  V30 4747 C 487.205 -2.11449 1.01619 0
M  V30 4748 C 488.221 -1.73962 -0.036545 0
M  V30 4749 O 489.397 -2.00788 0.156924 0
M  V30 4750 C 486.462 -3.41465 0.600204 0
M  V30 4751 C 485.523 -3.93033 1.72695 0
M  V30 4752 C 484.756 -5.16844 1.33071 0
M  V30 4753 O 484.979 -5.7001 0.210975 0
M  V30 4754 O 483.913 -5.6225 2.14845 0
M  V30 4755 H 487.739 -2.32088 1.9588 0
M  V30 4756 H 485.324 -1.09823 1.01289 0
M  V30 4757 H 487.206 -4.19695 0.37873 0
M  V30 4758 H 485.881 -3.22178 -0.313511 0
M  V30 4759 H 484.788 -3.15961 2.00298 0
M  V30 4760 H 486.121 -4.16758 2.61865 0
M  V30 4761 N 487.773 -1.03688 -1.18687 0
M  V30 4762 C 489.022 -0.733235 -1.879 0
M  V30 4763 C 489.335 0.741745 -1.8099 0
M  V30 4764 O 490.541 1.15875 -2.4553 0
M  V30 4765 C 488.997 -1.26127 -3.37076 0
M  V30 4766 C 488.605 -2.76461 -3.52524 0
M  V30 4767 C 490.349 -1.03398 -4.11715 0
M  V30 4768 C 488.256 -3.22642 -4.95637 0
M  V30 4769 H 487.186 -0.270584 -0.703776 0
M  V30 4770 H 489.837 -1.25222 -1.34133 0
M  V30 4771 H 488.219 -0.670165 -3.90288 0
M  V30 4772 H 489.393 -3.41296 -3.09602 0
M  V30 4773 H 487.708 -2.97559 -2.91286 0
M  V30 4774 H 490.305 -1.3542 -5.17267 0
M  V30 4775 H 490.648 0.0289246 -4.1629 0
M  V30 4776 H 491.181 -1.5895 -3.64664 0
M  V30 4777 H 487.92 -4.28296 -4.96228 0
M  V30 4778 H 487.44 -2.62539 -5.39289 0
M  V30 4779 H 489.119 -3.16444 -5.64333 0
M  V30 4780 N 489.251 1.34841 -0.815825 0
M  V30 4781 C 490.161 2.33425 -0.234462 0
M  V30 4782 C 491.177 1.62295 0.627413 0
M  V30 4783 O 492.353 1.94109 0.536987 0
M  V30 4784 C 489.418 3.41471 0.599849 0
M  V30 4785 C 488.479 4.28362 -0.283596 0
M  V30 4786 C 487.712 5.31248 0.51099 0
M  V30 4787 O 487.935 5.43056 1.7449 0
M  V30 4788 O 486.869 6.01812 -0.10297 0
M  V30 4789 H 490.695 2.84962 -1.05024 0
M  V30 4790 H 488.28 1.37774 -0.577809 0
M  V30 4791 H 490.162 4.07464 1.07475 0
M  V30 4792 H 488.837 2.9219 1.39308 0
M  V30 4793 H 487.744 3.65318 -0.805836 0
M  V30 4794 H 489.077 4.81066 -1.041 0
M  V30 4795 N 490.729 0.570148 1.46925 0
M  V30 4796 C 491.975 0.0510284 2.02736 0
M  V30 4797 C 492.308 -1.3006 1.44215 0
M  V30 4798 O 491.583 -1.84932 0.602521 0
M  V30 4799 C 491.866 -0.028215 3.60089 0
M  V30 4800 C 491.719 1.35142 4.29018 0
M  V30 4801 C 493.038 -0.735181 4.33916 0
M  V30 4802 H 490.157 0.0200178 0.736728 0
M  V30 4803 H 492.799 0.73493 1.75211 0
M  V30 4804 H 490.949 -0.610648 3.83671 0
M  V30 4805 H 492.621 1.97806 4.16738 0
M  V30 4806 H 490.864 1.9226 3.88868 0
M  V30 4807 H 491.535 1.24857 5.37694 0
M  V30 4808 H 494.011 -0.240519 4.15404 0
M  V30 4809 H 492.887 -0.759622 5.43618 0
M  V30 4810 H 493.148 -1.79397 4.04066 0
M  V30 4811 N 492.207 -1.54576 0.307264 0
M  V30 4812 C 493.14 -2.19946 -0.608195 0
M  V30 4813 C 494.118 -1.17096 -1.12815 0
M  V30 4814 O 495.302 -1.45766 -1.19518 0
M  V30 4815 C 492.429 -2.84826 -1.8328 0
M  V30 4816 C 491.475 -4.01256 -1.44554 0
M  V30 4817 S 492.308 -5.33197 -0.49612 0
M  V30 4818 C 493.464 -6.01563 -1.72838 0
M  V30 4819 H 493.697 -2.97253 -0.0528544 0
M  V30 4820 H 491.23 -1.54129 0.0913837 0
M  V30 4821 H 493.188 -3.22832 -2.53554 0
M  V30 4822 H 491.849 -2.07353 -2.35931 0
M  V30 4823 H 491.042 -4.45457 -2.35762 0
M  V30 4824 H 490.644 -3.6484 -0.822671 0
M  V30 4825 H 492.936 -6.22751 -2.6681 0
M  V30 4826 H 493.879 -6.9552 -1.32882 0
M  V30 4827 H 494.287 -5.31279 -1.90795 0
M  V30 4828 N 493.685 -0.035106 -1.57561 0
M  V30 4829 C 494.633 0.962707 -2.11742 0
M  V30 4830 C 495.627 1.33296 -1.0454 0
M  V30 4831 O 496.833 1.31449 -1.22968 0
M  V30 4832 H 493.208 0.32826 -0.676572 0
M  V30 4833 H 495.179 0.48048 -2.94506 0
M  V30 4834 C 493.928 2.23388 -2.66445 0
M  V30 4835 H 493.251 1.95774 -3.48587 0
M  V30 4836 H 494.691 2.91402 -3.07995 0
M  V30 4837 C 493.15 2.96769 -1.59467 0
M  V30 4838 O 493.68 3.89105 -0.998 0
M  V30 4839 N 491.886 2.59212 -1.31369 0
M  V30 4840 H 491.433 1.84202 -1.80076 0
M  V30 4841 H 491.391 3.08618 -0.600173 0
M  V30 4842 N 495.163 1.55791 0.238111 0
M  V30 4843 C 496.095 1.87513 1.31802 0
M  V30 4844 C 497.108 0.762053 1.43863 0
M  V30 4845 O 498.297 1.04024 1.45056 0
M  V30 4846 C 495.397 2.05402 2.69561 0
M  V30 4847 C 494.57 3.3632 2.79656 0
M  V30 4848 C 493.629 3.43844 3.98319 0
M  V30 4849 O 492.655 4.16994 3.87433 0
M  V30 4850 N 493.857 2.73777 5.11885 0
M  V30 4851 H 496.622 2.80734 1.04922 0
M  V30 4852 H 494.183 1.56135 0.428196 0
M  V30 4853 H 496.175 2.07769 3.47296 0
M  V30 4854 H 494.745 1.18884 2.89111 0
M  V30 4855 H 493.965 3.46195 1.88528 0
M  V30 4856 H 495.253 4.22594 2.83358 0
M  V30 4857 H 494.651 2.14094 5.23622 0
M  V30 4858 H 493.208 2.81825 5.87723 0
M  V30 4859 N 496.642 -0.504142 1.49319 0
M  V30 4860 C 497.572 -1.61473 1.68667 0
M  V30 4861 C 498.553 -1.61455 0.535378 0
M  V30 4862 O 499.738 -1.78245 0.770868 0
M  V30 4863 C 496.868 -2.99971 1.75028 0
M  V30 4864 C 495.822 -3.14854 2.89916 0
M  V30 4865 C 495.148 -4.54671 2.81387 0
M  V30 4866 C 496.448 -2.95176 4.30893 0
M  V30 4867 H 498.142 -1.45535 2.61648 0
M  V30 4868 H 495.688 -0.698711 1.25913 0
M  V30 4869 H 497.641 -3.77562 1.8715 0
M  V30 4870 H 496.365 -3.1699 0.786441 0
M  V30 4871 H 495.024 -2.39687 2.77391 0
M  V30 4872 H 494.672 -4.68562 1.82917 0
M  V30 4873 H 494.372 -4.6557 3.58494 0
M  V30 4874 H 495.896 -5.34327 2.95512 0
M  V30 4875 H 497.31 -3.62538 4.44116 0
M  V30 4876 H 495.707 -3.17549 5.09198 0
M  V30 4877 H 496.777 -1.91332 4.45556 0
M  V30 4878 N 498.12 -1.38341 -0.754957 0
M  V30 4879 C 499.068 -1.35573 -1.89005 0
M  V30 4880 C 500.062 -0.241824 -1.67665 0
M  V30 4881 O 501.268 -0.410785 -1.7525 0
M  V30 4882 H 497.643 -0.422898 -0.621821 0
M  V30 4883 H 499.614 -2.31359 -1.88455 0
M  V30 4884 C 498.363 -1.19631 -3.26471 0
M  V30 4885 H 497.686 -2.04605 -3.43477 0
M  V30 4886 H 499.126 -1.21748 -4.06144 0
M  V30 4887 C 497.585 0.0968705 -3.36761 0
M  V30 4888 O 498.115 1.07439 -3.87066 0
M  V30 4889 N 496.321 0.153242 -2.90196 0
M  V30 4890 H 495.868 -0.642908 -2.49448 0
M  V30 4891 H 495.826 1.01807 -2.9746 0
M  V30 4892 N 499.598 0.982988 -1.23187 0
M  V30 4893 C 500.548 2.05962 -0.977942 0
M  V30 4894 C 501.532 1.60725 0.0751148 0
M  V30 4895 O 502.724 1.76471 -0.136683 0
M  V30 4896 C 499.853 3.38564 -0.568276 0
M  V30 4897 C 498.939 3.90407 -1.6566 0
M  V30 4898 N 499.33 4.15359 -2.88635 0
M  V30 4899 C 497.628 4.18915 -1.53058 0
M  V30 4900 C 498.329 4.57642 -3.5908 0
M  V30 4901 N 497.305 4.6192 -2.86584 0
M  V30 4902 H 501.107 2.23208 -1.91195 0
M  V30 4903 H 498.621 1.16555 -1.13087 0
M  V30 4904 H 500.618 4.15276 -0.36764 0
M  V30 4905 H 499.278 3.22712 0.358713 0
M  V30 4906 H 500.289 4.03258 -3.24966 0
M  V30 4907 H 496.966 4.12081 -0.670506 0
M  V30 4908 H 498.356 4.85488 -4.6449 0
M  V30 4909 N 501.076 1.04316 1.18135 0
M  V30 4910 C 502.492 0.762858 1.40188 0
M  V30 4911 C 502.692 -0.646547 1.90846 0
M  V30 4912 O 501.748 -1.41036 2.0944 0
M  V30 4913 C 503.061 1.81106 2.40044 0
M  V30 4914 C 504.609 1.83226 2.53766 0
M  V30 4915 C 505.084 2.87044 3.56889 0
M  V30 4916 N 506.575 2.85951 3.64398 0
M  V30 4917 C 507.31 3.62932 4.43923 0
M  V30 4918 N 506.806 4.49672 5.27036 0
M  V30 4919 N 508.599 3.51411 4.38711 0
M  V30 4920 H 500.75 1.95264 0.835805 0
M  V30 4921 H 503.013 0.845017 0.429709 0
M  V30 4922 H 502.719 2.82214 2.09876 0
M  V30 4923 H 502.593 1.64529 3.39426 0
M  V30 4924 H 504.98 0.827869 2.8325 0
M  V30 4925 H 505.061 2.03879 1.54489 0
M  V30 4926 H 504.705 3.87663 3.28145 0
M  V30 4927 H 504.635 2.63645 4.5585 0
M  V30 4928 H 507.126 2.23051 3.05052 0
M  V30 4929 H 507.439 5.05116 5.84874 0
M  V30 4930 H 505.784 4.53738 5.26447 0
M  V30 4931 H 508.975 2.83047 3.72829 0
M  V30 4932 H 509.148 4.11654 5.00445 0
M  V30 4933 N 502.554 -1.34406 0.822964 0
M  V30 4934 C 503.502 -2.31428 0.233165 0
M  V30 4935 C 504.496 -1.57404 -0.626118 0
M  V30 4936 O 505.702 -1.72402 -0.517453 0
M  V30 4937 H 502.077 -0.749863 0.0566557 0
M  V30 4938 H 504.048 -2.78699 1.06628 0
M  V30 4939 C 502.797 -3.42653 -0.590264 0
M  V30 4940 H 502.12 -3.99753 0.0616129 0
M  V30 4941 H 503.56 -4.12778 -0.969054 0
M  V30 4942 C 502.019 -2.87112 -1.76262 0
M  V30 4943 O 502.549 -2.81995 -2.8608 0
M  V30 4944 N 500.755 -2.43934 -1.57938 0
M  V30 4945 H 500.302 -2.48296 -0.686078 0
M  V30 4946 H 500.26 -2.07123 -2.36532 0
M  V30 4947 N 504.032 -0.577932 -1.46621 0
M  V30 4948 C 504.962 0.145917 -2.33044 0
M  V30 4949 C 505.943 0.888412 -1.45056 0
M  V30 4950 O 507.128 0.864812 -1.73881 0
M  V30 4951 C 504.258 1.16322 -3.27241 0
M  V30 4952 C 503.212 0.535868 -4.24632 0
M  V30 4953 C 502.538 1.65929 -5.08303 0
M  V30 4954 C 503.838 -0.523861 -5.19666 0
M  V30 4955 H 505.532 -0.575636 -2.93814 0
M  V30 4956 H 503.078 -0.278272 -1.41286 0
M  V30 4957 H 505.031 1.67793 -3.86553 0
M  V30 4958 H 503.755 1.91498 -2.64567 0
M  V30 4959 H 502.414 0.0422759 -3.66576 0
M  V30 4960 H 502.062 2.40061 -4.42018 0
M  V30 4961 H 501.762 1.2452 -5.74255 0
M  V30 4962 H 503.286 2.17686 -5.70478 0
M  V30 4963 H 504.7 -0.0944059 -5.73222 0
M  V30 4964 H 503.097 -0.858 -5.93935 0
M  V30 4965 H 504.167 -1.41197 -4.63887 0
M  V30 4966 N 505.51 1.54411 -0.315457 0
M  V30 4967 C 506.759 1.99599 0.290395 0
M  V30 4968 C 507.072 1.20746 1.53882 0
M  V30 4969 O 508.278 1.56272 2.22017 0
M  V30 4970 C 506.734 3.5539 0.56797 0
M  V30 4971 C 506.342 4.43068 -0.662945 0
M  V30 4972 C 508.086 4.09067 1.13422 0
M  V30 4973 C 505.993 5.90317 -0.357722 0
M  V30 4974 H 504.923 0.745592 0.112286 0
M  V30 4975 H 507.574 1.78477 -0.426418 0
M  V30 4976 H 505.956 3.72468 1.34476 0
M  V30 4977 H 507.13 4.37765 -1.43869 0
M  V30 4978 H 505.445 4.00238 -1.14884 0
M  V30 4979 H 508.042 5.16663 1.37707 0
M  V30 4980 H 508.385 3.60552 2.08106 0
M  V30 4981 H 508.918 3.95589 0.418805 0
M  V30 4982 H 505.657 6.4301 -1.27351 0
M  V30 4983 H 505.177 5.98592 0.380472 0
M  V30 4984 H 506.856 6.4699 0.0354284 0
M  V30 4985 N 506.988 0.0434614 1.5754 0
M  V30 4986 C 507.92 -0.962586 2.08007 0
M  V30 4987 C 508.933 -1.27972 1.00634 0
M  V30 4988 O 510.122 -1.24186 1.28219 0
M  V30 4989 C 507.222 -2.28621 2.50171 0
M  V30 4990 C 506.395 -2.15214 3.80791 0
M  V30 4991 C 505.454 -3.30633 4.09351 0
M  V30 4992 O 504.48 -3.0688 4.79388 0
M  V30 4993 N 505.682 -4.54873 3.60654 0
M  V30 4994 H 508.447 -0.531891 2.94942 0
M  V30 4995 H 506.008 -0.142965 1.61268 0
M  V30 4996 H 508 -3.04689 2.66359 0
M  V30 4997 H 506.57 -2.63283 1.68525 0
M  V30 4998 H 505.79 -1.23785 3.74261 0
M  V30 4999 H 507.078 -2.03475 4.66343 0
M  V30 5000 H 506.476 -4.77063 3.04019 0
M  V30 5001 H 505.033 -5.2806 3.82094 0
M  V30 5002 N 508.466 -1.55915 -0.229846 0
M  V30 5003 C 509.396 -1.94754 -1.28815 0
M  V30 5004 C 510.377 -0.814657 -1.49323 0
M  V30 5005 O 511.562 -1.07631 -1.61645 0
M  V30 5006 C 508.692 -2.25705 -2.63959 0
M  V30 5007 C 507.646 -3.41406 -2.5812 0
M  V30 5008 C 506.972 -3.57941 -3.97218 0
M  V30 5009 C 508.272 -4.76616 -2.13623 0
M  V30 5010 H 509.966 -2.83404 -0.965547 0
M  V30 5011 H 507.512 -1.36353 -0.463028 0
M  V30 5012 H 509.465 -2.51467 -3.38146 0
M  V30 5013 H 508.189 -1.339 -2.9789 0
M  V30 5014 H 506.848 -3.1568 -1.86391 0
M  V30 5015 H 506.496 -2.63526 -4.28443 0
M  V30 5016 H 506.196 -4.35757 -3.94195 0
M  V30 5017 H 507.72 -3.86042 -4.73079 0
M  V30 5018 H 509.134 -5.01637 -2.77549 0
M  V30 5019 H 507.531 -5.57655 -2.21677 0
M  V30 5020 H 508.601 -4.7253 -1.08829 0
M  V30 5021 N 509.944 0.496216 -1.49584 0
M  V30 5022 C 511.174 1.27209 -1.62793 0
M  V30 5023 C 511.582 1.86799 -0.300476 0
M  V30 5024 O 510.925 1.68802 0.724674 0
M  V30 5025 C 510.987 2.43812 -2.64189 0
M  V30 5026 C 510.651 2.05055 -4.08414 0
M  V30 5027 C 511.648 1.58752 -4.9507 0
M  V30 5028 C 509.333 2.14543 -4.54177 0
M  V30 5029 C 511.327 1.22448 -6.25528 0
M  V30 5030 C 509.014 1.77851 -5.84647 0
M  V30 5031 C 510.012 1.31878 -6.70147 0
M  V30 5032 O 509.7 0.956834 -7.98185 0
M  V30 5033 H 509.432 0.391848 -0.550846 0
M  V30 5034 H 511.986 0.601712 -1.96389 0
M  V30 5035 H 510.216 3.13941 -2.25783 0
M  V30 5036 H 511.905 3.05829 -2.66877 0
M  V30 5037 H 512.671 1.50863 -4.60939 0
M  V30 5038 H 508.55 2.49277 -3.87791 0
M  V30 5039 H 512.094 0.864933 -6.92217 0
M  V30 5040 H 507.991 1.8539 -6.18305 0
M  V30 5041 H 508.759 1.08789 -8.11238 0
M  V30 5042 N 511.423 1.38739 0.74761 0
M  V30 5043 C 512.386 1.36241 1.84312 0
M  V30 5044 C 513.386 0.261811 1.58654 0
M  V30 5045 O 514.576 0.519031 1.66288 0
M  V30 5046 C 511.708 1.12253 3.21888 0
M  V30 5047 H 512.901 2.33712 1.87933 0
M  V30 5048 H 510.454 1.2412 0.949946 0
M  V30 5049 H 511.189 0.154133 3.23934 0
M  V30 5050 H 510.974 1.91943 3.41907 0
M  V30 5051 H 512.464 1.13215 4.0196 0
M  V30 5052 N 512.901 -0.976442 1.23707 0
M  V30 5053 C 513.864 -2.0511 1.02287 0
M  V30 5054 C 514.864 -1.60791 -0.0167195 0
M  V30 5055 O 516.054 -1.72761 0.223408 0
M  V30 5056 C 513.186 -3.36458 0.548507 0
M  V30 5057 H 514.379 -2.25545 1.9766 0
M  V30 5058 H 511.932 -1.15042 1.05806 0
M  V30 5059 H 512.667 -3.21713 -0.408818 0
M  V30 5060 H 512.452 -3.69967 1.29874 0
M  V30 5061 H 513.942 -4.15489 0.419406 0
M  V30 5062 N 514.379 -1.04941 -1.1758 0
M  V30 5063 C 515.628 -0.753124 -1.87112 0
M  V30 5064 C 515.941 0.722507 -1.81767 0
M  V30 5065 O 517.147 1.13265 -2.46746 0
M  V30 5066 C 515.603 -1.29695 -3.35719 0
M  V30 5067 C 515.211 -2.80184 -3.49572 0
M  V30 5068 C 516.955 -1.07759 -4.10595 0
M  V30 5069 C 514.862 -3.2788 -4.92187 0
M  V30 5070 H 513.792 -0.278034 -0.700866 0
M  V30 5071 H 516.443 -1.26637 -1.32798 0
M  V30 5072 H 514.825 -0.711522 -3.89555 0
M  V30 5073 H 515.999 -3.44561 -3.05965 0
M  V30 5074 H 514.314 -3.00632 -2.88113 0
M  V30 5075 H 516.911 -1.40899 -5.15802 0
M  V30 5076 H 517.254 -0.0152302 -4.16297 0
M  V30 5077 H 517.787 -1.62809 -3.62957 0
M  V30 5078 H 514.526 -4.33535 -4.91658 0
M  V30 5079 H 514.046 -2.68245 -5.36475 0
M  V30 5080 H 515.725 -3.22412 -5.60945 0
M  V30 5081 N 515.857 1.33968 -0.830081 0
M  V30 5082 C 516.767 2.33164 -0.259207 0
M  V30 5083 C 517.783 1.62951 0.610164 0
M  V30 5084 O 518.959 1.94668 0.516369 0
M  V30 5085 C 516.024 3.42088 0.563598 0
M  V30 5086 C 515.085 4.28037 -0.329014 0
M  V30 5087 C 514.318 5.3176 0.454616 0
M  V30 5088 O 514.541 5.44876 1.6872 0
M  V30 5089 O 513.475 6.01669 -0.166794 0
M  V30 5090 H 517.301 2.83832 -1.08041 0
M  V30 5091 H 514.886 1.37154 -0.59239 0
M  V30 5092 H 516.768 4.08581 1.03147 0
M  V30 5093 H 515.443 2.93651 1.36201 0
M  V30 5094 H 514.35 3.64443 -0.844538 0
M  V30 5095 H 515.683 4.79934 -1.09196 0
M  V30 5096 N 517.335 0.585699 1.46312 0
M  V30 5097 C 518.563 0.0781299 2.06752 0
M  V30 5098 C 518.978 -1.22812 1.43396 0
M  V30 5099 O 518.335 -1.74318 0.540314 0
M  V30 5100 C 518.386 -0.0911927 3.61385 0
M  V30 5101 O 518.107 1.16336 4.22371 0
M  V30 5102 C 519.608 -0.632765 4.38761 0
M  V30 5103 H 516.828 0.0588188 0.668417 0
M  V30 5104 H 519.372 0.807218 1.87894 0
M  V30 5105 H 517.527 -0.770514 3.7966 0
M  V30 5106 H 517.941 0.979082 5.15281 0
M  V30 5107 H 519.415 -0.70041 5.47538 0
M  V30 5108 H 519.892 -1.65039 4.07012 0
M  V30 5109 H 520.498 0.0117856 4.25298 0
M  V30 5110 N 518.813 -1.54241 0.323641 0
M  V30 5111 C 520.224 -1.85975 -0.164405 0
M  V30 5112 C 520.575 -1.24529 -1.51615 0
M  V30 5113 O 519.7 -0.551351 -2.09258 0
M  V30 5114 C 520.295 -3.37424 -0.305091 0
M  V30 5115 C 518.854 -3.69107 -0.737358 0
M  V30 5116 C 518.001 -2.76942 0.140884 0
M  V30 5117 H 520.952 -1.49088 0.543922 0
M  V30 5118 H 520.973 -3.63147 -1.13598 0
M  V30 5119 H 520.485 -3.82116 0.678876 0
M  V30 5120 H 518.586 -3.29947 -1.73107 0
M  V30 5121 H 518.699 -4.76035 -0.541053 0
M  V30 5122 H 517.063 -2.51795 -0.383572 0
M  V30 5123 H 517.846 -3.24461 1.12162 0
M  V30 5124 N 520.291 -0.0518155 -1.57515 0
M  V30 5125 C 521.241 0.932017 -2.0808 0
M  V30 5126 C 522.225 1.27141 -0.986098 0
M  V30 5127 O 523.417 1.25373 -1.24943 0
M  V30 5128 C 520.546 2.20665 -2.62986 0
M  V30 5129 C 519.632 1.89462 -3.79427 0
M  V30 5130 N 520.023 1.28621 -4.89173 0
M  V30 5131 C 518.321 2.19327 -3.88345 0
M  V30 5132 C 519.022 1.15062 -5.70207 0
M  V30 5133 N 517.998 1.65372 -5.17835 0
M  V30 5134 H 521.8 0.456964 -2.90326 0
M  V30 5135 H 519.314 0.152619 -1.61681 0
M  V30 5136 H 521.311 2.92044 -2.97516 0
M  V30 5137 H 519.971 2.68776 -1.8218 0
M  V30 5138 H 520.982 0.958341 -5.08956 0
M  V30 5139 H 517.659 2.69955 -3.18482 0
M  V30 5140 H 519.049 0.678243 -6.68468 0
M  V30 5141 N 521.769 1.56035 0.221574 0
M  V30 5142 C 522.679 1.95581 1.29558 0
M  V30 5143 C 523.695 0.859639 1.51282 0
M  V30 5144 O 524.871 1.16321 1.64413 0
M  V30 5145 C 521.936 2.26447 2.62531 0
M  V30 5146 C 520.997 3.49632 2.4911 0
M  V30 5147 C 520.23 3.79017 3.75742 0
M  V30 5148 O 520.453 3.10077 4.78757 0
M  V30 5149 O 519.387 4.72507 3.72855 0
M  V30 5150 H 523.213 2.8711 0.990035 0
M  V30 5151 H 520.798 1.43244 0.424434 0
M  V30 5152 H 522.68 2.47494 3.41064 0
M  V30 5153 H 521.355 1.38092 2.92766 0
M  V30 5154 H 520.262 3.33864 1.68777 0
M  V30 5155 H 521.595 4.3837 2.23814 0
M  V30 5156 N 523.247 -0.488276 1.49845 0
M  V30 5157 C 524.496 -1.23826 1.59217 0
M  V30 5158 C 524.809 -1.93439 0.289966 0
M  V30 5159 O 526.015 -2.70229 0.262382 0
M  V30 5160 C 524.471 -2.24902 2.80976 0
M  V30 5161 C 524.079 -1.6117 4.18005 0
M  V30 5162 C 525.823 -3.00648 2.99685 0
M  V30 5163 C 523.73 -2.60431 5.3097 0
M  V30 5164 H 522.66 -0.465858 0.592868 0
M  V30 5165 H 525.311 -0.510645 1.76252 0
M  V30 5166 H 523.693 -3.0088 2.57463 0
M  V30 5167 H 524.867 -0.910968 4.51706 0
M  V30 5168 H 523.182 -0.97767 4.0476 0
M  V30 5169 H 525.779 -3.74903 3.81251 0
M  V30 5170 H 526.122 -3.5902 2.10738 0
M  V30 5171 H 526.655 -2.31784 3.23297 0
M  V30 5172 H 523.394 -2.06823 6.22017 0
M  V30 5173 H 522.914 -3.28707 5.01709 0
M  V30 5174 H 524.593 -3.22606 5.60834 0
M  V30 5175 N 524.725 -1.39134 -0.740242 0
M  V30 5176 C 525.971 -1.36273 -1.50192 0
M  V30 5177 C 526.304 0.0430136 -1.94152 0
M  V30 5178 O 525.579 1.00691 -1.66408 0
M  V30 5179 C 525.862 -2.33041 -2.74525 0
M  V30 5180 C 525.715 -3.82535 -2.36617 0
M  V30 5181 C 527.034 -2.27723 -3.76604 0
M  V30 5182 H 524.153 -0.496323 -0.544823 0
M  V30 5183 H 526.795 -1.70085 -0.846815 0
M  V30 5184 H 524.945 -2.04337 -3.30422 0
M  V30 5185 H 526.617 -4.21967 -1.86391 0
M  V30 5186 H 524.86 -3.99565 -1.68909 0
M  V30 5187 H 525.531 -4.45723 -3.2563 0
M  V30 5188 H 528.007 -2.53091 -3.30279 0
M  V30 5189 H 526.883 -2.97519 -4.61274 0
M  V30 5190 H 527.144 -1.28049 -4.2315 0
M  V30 5191 N 526.204 0.969867 -1.24223 0
M  V30 5192 C 527.134 2.08191 -1.05729 0
M  V30 5193 C 528.115 1.70075 0.0290765 0
M  V30 5194 O 529.3 1.93712 -0.137583 0
M  V30 5195 C 526.43 3.40991 -0.658995 0
M  V30 5196 C 525.384 3.93054 -1.69389 0
M  V30 5197 C 524.71 5.22171 -1.15072 0
M  V30 5198 C 526.01 4.21137 -3.08935 0
M  V30 5199 H 527.704 2.23921 -1.98746 0
M  V30 5200 H 525.25 1.07602 -0.956967 0
M  V30 5201 H 527.203 4.18221 -0.51662 0
M  V30 5202 H 525.927 3.25155 0.30686 0
M  V30 5203 H 524.586 3.17977 -1.82444 0
M  V30 5204 H 524.234 5.02694 -0.175539 0
M  V30 5205 H 523.934 5.57973 -1.84229 0
M  V30 5206 H 525.458 6.02013 -1.02042 0
M  V30 5207 H 526.872 4.8908 -2.99121 0
M  V30 5208 H 525.269 4.68163 -3.75425 0
M  V30 5209 H 526.339 3.27996 -3.57137 0
M  V30 5210 N 527.682 1.05563 1.17022 0
M  V30 5211 C 528.929 0.767937 1.87374 0
M  V30 5212 C 529.257 -0.705224 1.81265 0
M  V30 5213 O 528.512 -1.5318 1.21796 0
M  V30 5214 C 528.811 1.19849 3.36706 0
M  V30 5215 C 528.477 2.6745 3.63017 0
M  V30 5216 C 527.139 3.0777 3.69907 0
M  V30 5217 C 529.491 3.62811 3.74189 0
M  V30 5218 C 526.819 4.42307 3.85463 0
M  V30 5219 C 529.171 4.97087 3.91264 0
M  V30 5220 C 527.835 5.37055 3.96394 0
M  V30 5221 H 527.105 0.281008 0.68565 0
M  V30 5222 H 529.752 1.32339 1.38415 0
M  V30 5223 H 528.057 0.562096 3.87747 0
M  V30 5224 H 529.754 0.953038 3.8951 0
M  V30 5225 H 526.344 2.35228 3.58282 0
M  V30 5226 H 530.528 3.32798 3.68183 0
M  V30 5227 H 525.784 4.72769 3.87684 0
M  V30 5228 H 529.958 5.70869 3.9885 0
M  V30 5229 H 527.585 6.41308 4.082 0
M  V30 5230 N 529.16 -1.33526 0.837174 0
M  V30 5231 C 530.093 -2.27192 0.214233 0
M  V30 5232 C 531.071 -1.49575 -0.637657 0
M  V30 5233 O 532.255 -1.78753 -0.598291 0
M  V30 5234 C 529.382 -3.31401 -0.699367 0
M  V30 5235 C 528.428 -4.26431 0.0768429 0
M  V30 5236 S 529.261 -5.15954 1.4336 0
M  V30 5237 C 530.417 -6.23692 0.525251 0
M  V30 5238 H 530.65 -2.79679 1.00831 0
M  V30 5239 H 528.183 -1.4079 0.633834 0
M  V30 5240 H 530.141 -3.91924 -1.22088 0
M  V30 5241 H 528.802 -2.77732 -1.46709 0
M  V30 5242 H 527.995 -5.00193 -0.618268 0
M  V30 5243 H 527.597 -3.70235 0.529364 0
M  V30 5244 H 529.889 -6.76931 -0.277575 0
M  V30 5245 H 530.832 -6.97283 1.23299 0
M  V30 5246 H 531.24 -5.64398 0.107351 0
M  V30 5247 N 530.638 -0.59345 -1.46 0
M  V30 5248 C 531.548 0.135817 -2.34207 0
M  V30 5249 C 532.564 0.875008 -1.50398 0
M  V30 5250 O 533.74 0.835778 -1.83239 0
M  V30 5251 C 530.805 1.12977 -3.27776 0
M  V30 5252 C 529.866 0.394081 -4.27487 0
M  V30 5253 C 529.099 1.34068 -5.16586 0
M  V30 5254 O 529.322 2.5778 -5.08828 0
M  V30 5255 O 528.256 0.845426 -5.95933 0
M  V30 5256 H 532.082 -0.588691 -2.9794 0
M  V30 5257 H 529.667 -0.353784 -1.45151 0
M  V30 5258 H 531.549 1.70261 -3.85473 0
M  V30 5259 H 530.224 1.83556 -2.66625 0
M  V30 5260 H 529.131 -0.220869 -3.73447 0
M  V30 5261 H 530.464 -0.270939 -4.91454 0
M  V30 5262 N 532.116 1.54067 -0.331816 0
M  V30 5263 C 533.346 2.04833 0.269605 0
M  V30 5264 C 533.754 1.20714 1.45687 0
M  V30 5265 O 533.097 0.232539 1.82222 0
M  V30 5266 C 533.159 3.51386 0.759499 0
M  V30 5267 C 532.823 4.55971 -0.306557 0
M  V30 5268 C 533.82 5.07126 -1.14538 0
M  V30 5269 C 531.505 5.00216 -0.457116 0
M  V30 5270 C 533.499 6.01096 -2.12042 0
M  V30 5271 C 531.186 5.93999 -1.43556 0
M  V30 5272 C 532.184 6.44326 -2.26568 0
M  V30 5273 O 531.872 7.36267 -3.22749 0
M  V30 5274 H 531.604 0.673509 0.0579763 0
M  V30 5275 H 534.158 1.99748 -0.478521 0
M  V30 5276 H 532.388 3.53896 1.55867 0
M  V30 5277 H 534.077 3.85184 1.28017 0
M  V30 5278 H 534.843 4.73716 -1.04009 0
M  V30 5279 H 530.722 4.60652 0.179142 0
M  V30 5280 H 534.266 6.40302 -2.76873 0
M  V30 5281 H 530.163 6.26825 -1.54146 0
M  V30 5282 H 530.931 7.54165 -3.18083 0
M  V30 5283 N 533.594 0.0601682 1.57485 0
M  V30 5284 C 534.843 -0.611101 1.9222 0
M  V30 5285 C 535.156 -1.71469 0.941159 0
M  V30 5286 O 536.362 -2.44473 1.18089 0
M  V30 5287 C 534.818 -1.13832 3.41424 0
M  V30 5288 C 534.426 -0.0663596 4.47951 0
M  V30 5289 C 536.17 -1.78432 3.85178 0
M  V30 5290 C 534.077 -0.606965 5.88277 0
M  V30 5291 H 533.007 -0.232033 0.71741 0
M  V30 5292 H 535.658 0.130518 1.83035 0
M  V30 5293 H 534.04 -1.93254 3.45643 0
M  V30 5294 H 535.214 0.707682 4.55333 0
M  V30 5295 H 533.529 0.482715 4.13593 0
M  V30 5296 H 536.126 -2.1989 4.87394 0
M  V30 5297 H 536.469 -2.63966 3.21913 0
M  V30 5298 H 537.002 -1.05651 3.83514 0
M  V30 5299 H 533.741 0.21095 6.5516 0
M  V30 5300 H 533.261 -1.34879 5.84438 0
M  V30 5301 H 534.94 -1.08704 6.37803 0
M  V30 5302 N 535.072 -1.5615 -0.213296 0
M  V30 5303 C 535.982 -1.96265 -1.28519 0
M  V30 5304 C 536.998 -0.86765 -1.50824 0
M  V30 5305 O 538.174 -1.17191 -1.63793 0
M  V30 5306 C 535.239 -2.27836 -2.61327 0
M  V30 5307 C 534.3 -3.50949 -2.47252 0
M  V30 5308 C 533.533 -3.81004 -3.73727 0
M  V30 5309 O 533.756 -3.12612 -4.77106 0
M  V30 5310 O 532.69 -4.74477 -3.70344 0
M  V30 5311 H 536.516 -2.87631 -0.974795 0
M  V30 5312 H 534.101 -1.43467 -0.416832 0
M  V30 5313 H 535.983 -2.49299 -3.39747 0
M  V30 5314 H 534.658 -1.39643 -2.9203 0
M  V30 5315 H 533.565 -3.34754 -1.67004 0
M  V30 5316 H 534.898 -4.39551 -2.21486 0
M  V30 5317 N 536.55 0.480323 -1.50102 0
M  V30 5318 C 537.798 1.23063 -1.60312 0
M  V30 5319 C 538.119 1.92659 -0.301226 0
M  V30 5320 O 537.389 1.83691 0.680753 0
M  V30 5321 H 535.969 0.457231 -0.590719 0
M  V30 5322 H 538.631 0.554893 -1.86834 0
M  V30 5323 H 537.727 1.9835 -2.40964 0
M  V30 5324 N 538.028 1.39524 0.732853 0
M  V30 5325 C 539.276 1.36594 1.48951 0
M  V30 5326 C 539.597 -0.0367507 1.94965 0
M  V30 5327 O 538.867 -0.988391 1.69138 0
M  V30 5328 H 537.447 0.502673 0.552566 0
M  V30 5329 H 540.109 1.74411 0.869869 0
M  V30 5330 H 539.205 2.03 2.3706 0
M  V30 5331 N 539.506 -0.963266 1.24736 0
M  V30 5332 C 540.416 -2.09246 1.06082 0
M  V30 5333 C 541.432 -1.74 0.000363101 0
M  V30 5334 O 542.608 -2.0041 0.199479 0
M  V30 5335 C 539.673 -3.40115 0.672498 0
M  V30 5336 C 538.734 -3.89282 1.80993 0
M  V30 5337 C 537.967 -5.13905 1.44004 0
M  V30 5338 O 538.19 -5.69434 0.331835 0
M  V30 5339 O 537.124 -5.57566 2.26723 0
M  V30 5340 H 540.95 -2.27881 2.00759 0
M  V30 5341 H 538.535 -1.07649 1.03595 0
M  V30 5342 H 540.417 -4.18797 0.467668 0
M  V30 5343 H 539.092 -3.22771 -0.245102 0
M  V30 5344 H 537.999 -3.11642 2.06955 0
M  V30 5345 H 539.332 -4.1111 2.70646 0
M  V30 5346 N 540.985 -1.06182 -1.16461 0
M  V30 5347 C 541.915 -0.692861 -2.22984 0
M  V30 5348 C 542.896 0.314122 -1.67174 0
M  V30 5349 O 544.081 0.189499 -1.93273 0
M  V30 5350 C 541.211 -0.07732 -3.47214 0
M  V30 5351 C 540.165 -1.01015 -4.15909 0
M  V30 5352 C 539.491 -0.257973 -5.34077 0
M  V30 5353 C 540.791 -2.33868 -4.67015 0
M  V30 5354 H 542.485 -1.58343 -2.54102 0
M  V30 5355 H 540.031 -0.76279 -1.22137 0
M  V30 5356 H 541.984 0.19266 -4.20959 0
M  V30 5357 H 540.708 0.848254 -3.15392 0
M  V30 5358 H 539.367 -1.26486 -3.44088 0
M  V30 5359 H 539.015 0.670684 -4.98509 0
M  V30 5360 H 538.715 -0.879638 -5.80979 0
M  V30 5361 H 540.239 0.00448788 -6.106 0
M  V30 5362 H 541.653 -2.1279 -5.32347 0
M  V30 5363 H 540.05 -2.91522 -5.24533 0
M  V30 5364 H 541.12 -2.97019 -3.83286 0
M  V30 5365 N 542.463 1.3308 -0.844243 0
M  V30 5366 C 543.71 1.97605 -0.44255 0
M  V30 5367 C 544.038 1.66856 0.999458 0
M  V30 5368 O 543.293 0.943586 1.7145 0
M  V30 5369 C 543.592 3.52045 -0.616354 0
M  V30 5370 C 543.258 4.02757 -2.02726 0
M  V30 5371 C 541.92 4.16316 -2.41317 0
M  V30 5372 C 544.272 4.29776 -2.9486 0
M  V30 5373 C 541.6 4.54232 -3.71335 0
M  V30 5374 C 543.952 4.69146 -4.24364 0
M  V30 5375 C 542.616 4.80911 -4.62904 0
M  V30 5376 H 541.886 0.723088 -0.161941 0
M  V30 5377 H 544.533 1.58663 -1.0723 0
M  V30 5378 H 542.838 3.91681 0.0966812 0
M  V30 5379 H 544.535 3.99981 -0.285756 0
M  V30 5380 H 541.125 3.9268 -1.71756 0
M  V30 5381 H 545.309 4.18818 -2.6628 0
M  V30 5382 H 540.565 4.61535 -4.00993 0
M  V30 5383 H 544.739 4.89008 -4.95827 0
M  V30 5384 H 542.366 5.10048 -5.63698 0
M  V30 5385 N 543.941 0.601185 1.45683 0
M  V30 5386 C 544.851 -0.123395 2.34275 0
M  V30 5387 C 545.867 -0.86702 1.5086 0
M  V30 5388 O 547.043 -0.826049 1.8368 0
M  V30 5389 C 544.108 -1.11237 3.2837 0
M  V30 5390 C 543.169 -0.371405 4.2769 0
M  V30 5391 C 542.402 -1.31327 5.1729 0
M  V30 5392 O 542.625 -2.55078 5.10188 0
M  V30 5393 O 541.559 -0.813811 5.96373 0
M  V30 5394 H 545.385 0.604483 2.97623 0
M  V30 5395 H 542.97 0.361477 1.44961 0
M  V30 5396 H 544.852 -1.68214 3.8637 0
M  V30 5397 H 543.527 -1.82139 2.67595 0
M  V30 5398 H 542.434 0.24067 3.73325 0
M  V30 5399 H 543.767 0.296998 4.91303 0
M  V30 5400 N 545.419 -1.53889 0.339982 0
M  V30 5401 C 546.835 -1.59595 -0.0120752 0
M  V30 5402 C 547.035 -1.35605 -1.49042 0
M  V30 5403 O 546.091 -1.14856 -2.24865 0
M  V30 5404 C 547.404 -2.9774 0.420898 0
M  V30 5405 C 548.952 -3.1077 0.37294 0
M  V30 5406 C 549.427 -4.51286 0.781327 0
M  V30 5407 N 550.918 -4.57325 0.735374 0
M  V30 5408 C 551.653 -5.64194 1.02336 0
M  V30 5409 N 551.149 -6.7893 1.37933 0
M  V30 5410 N 552.942 -5.54051 0.947838 0
M  V30 5411 H 545.093 -1.67738 1.30299 0
M  V30 5412 H 547.356 -0.785385 0.530918 0
M  V30 5413 H 547.062 -3.20349 1.45152 0
M  V30 5414 H 546.936 -3.76639 -0.205721 0
M  V30 5415 H 549.323 -2.87886 -0.648505 0
M  V30 5416 H 549.404 -2.33939 1.03472 0
M  V30 5417 H 549.048 -4.74905 1.80077 0
M  V30 5418 H 548.978 -5.26511 0.0970679 0
M  V30 5419 H 551.469 -3.74931 0.472773 0
M  V30 5420 H 551.782 -7.56392 1.58402 0
M  V30 5421 H 550.127 -6.80386 1.41774 0
M  V30 5422 H 553.318 -4.63293 0.669115 0
M  V30 5423 H 553.491 -6.37246 1.17563 0
M  V30 5424 N 546.897 -0.0685191 -1.57451 0
M  V30 5425 C 548.146 0.600898 -1.92541 0
M  V30 5426 C 548.459 1.70967 -0.950239 0
M  V30 5427 O 549.665 2.43844 -1.19384 0
M  V30 5428 C 548.121 1.12019 -3.42023 0
M  V30 5429 C 547.729 0.0426028 -4.4798 0
M  V30 5430 C 549.473 1.76386 -3.86119 0
M  V30 5431 C 547.38 0.575759 -5.88591 0
M  V30 5432 H 546.31 0.228225 -0.71863 0
M  V30 5433 H 548.961 -0.140223 -1.82963 0
M  V30 5434 H 547.343 1.91418 -3.46663 0
M  V30 5435 H 548.517 -0.73182 -4.54952 0
M  V30 5436 H 546.832 -0.504642 -4.13331 0
M  V30 5437 H 549.429 2.17302 -4.88553 0
M  V30 5438 H 549.772 2.62255 -3.23308 0
M  V30 5439 H 550.305 1.03615 -3.84069 0
M  V30 5440 H 547.044 -0.245691 -6.55039 0
M  V30 5441 H 546.564 1.31778 -5.85145 0
M  V30 5442 H 548.243 1.0532 -6.3837 0
M  V30 5443 N 548.375 1.56261 0.205012 0
M  V30 5444 C 549.621 1.80306 0.9283 0
M  V30 5445 C 549.954 0.640932 1.83319 0
M  V30 5446 O 549.229 -0.359032 1.91158 0
M  V30 5447 C 549.512 3.14547 1.75306 0
M  V30 5448 C 549.365 4.41236 0.873562 0
M  V30 5449 C 550.684 3.45382 2.72762 0
M  V30 5450 H 547.803 0.655929 0.336044 0
M  V30 5451 H 550.445 1.88984 0.196211 0
M  V30 5452 H 548.595 3.0728 2.37721 0
M  V30 5453 H 550.267 4.60539 0.264887 0
M  V30 5454 H 548.51 4.33427 0.179773 0
M  V30 5455 H 549.181 5.31639 1.48541 0
M  V30 5456 H 551.657 3.52884 2.20481 0
M  V30 5457 H 550.533 4.40449 3.2756 0
M  V30 5458 H 550.794 2.68377 3.51321 0
M  V30 5459 N 549.853 -0.472356 1.50355 0
M  V30 5460 C 551.13 -1.23356 1.51798 0
M  V30 5461 C 551.51 -2.09469 0.26193 0
M  V30 5462 O 550.858 -2.15677 -0.754691 0
M  V30 5463 C 551.068 -2.06568 2.81302 0
M  V30 5464 C 552.416 -2.648 3.31913 0
M  V30 5465 O 553.44 -2.16812 2.82614 0
M  V30 5466 O 552.299 -3.52231 4.17846 0
M  V30 5467 H 549.393 -0.559707 0.608816 0
M  V30 5468 H 551.939 -0.48428 1.62643 0
M  V30 5469 H 550.711 -1.43103 3.64194 0
M  V30 5470 H 550.334 -2.88633 2.73454 0
M  V30 5471 N 551.331 -1.39911 -0.725443 0
M  V30 5472 C 552.241 -1.41688 -1.8698 0
M  V30 5473 C 553.257 -0.310579 -1.71206 0
M  V30 5474 O 554.433 -0.55359 -1.93642 0
M  V30 5475 C 551.498 -1.26811 -3.22676 0
M  V30 5476 C 550.559 -2.47497 -3.50776 0
M  V30 5477 C 549.792 -2.3332 -4.79997 0
M  V30 5478 O 550.015 -1.34175 -5.54394 0
M  V30 5479 O 548.949 -3.22498 -5.08211 0
M  V30 5480 H 552.775 -2.38171 -1.88436 0
M  V30 5481 H 550.36 -1.21128 -0.874548 0
M  V30 5482 H 552.242 -1.20684 -4.03749 0
M  V30 5483 H 550.917 -0.334289 -3.21969 0
M  V30 5484 H 549.824 -2.59201 -2.69751 0
M  V30 5485 H 551.157 -3.39606 -3.5627 0
M  V30 5486 N 552.809 0.956637 -1.25245 0
M  V30 5487 C 554.086 1.67716 -1.00651 0
M  V30 5488 C 554.466 2.0585 0.467866 0
M  V30 5489 O 553.814 1.77029 1.44475 0
M  V30 5490 C 554.024 2.90093 -1.94028 0
M  V30 5491 C 555.372 3.6209 -2.21756 0
M  V30 5492 O 556.396 3.00171 -1.9177 0
M  V30 5493 O 555.255 4.7358 -2.72735 0
M  V30 5494 H 552.349 0.733731 -0.381533 0
M  V30 5495 H 554.895 1.00974 -1.3639 0
M  V30 5496 H 553.667 2.58689 -2.93591 0
M  V30 5497 H 553.29 3.64566 -1.58674 0
M  V30 5498 N 554.287 1.06798 1.15896 0
M  V30 5499 C 555.517 0.807522 1.90165 0
M  V30 5500 C 555.925 -0.642417 1.7796 0
M  V30 5501 O 555.268 -1.45193 1.12537 0
M  V30 5502 C 555.33 1.12939 3.41299 0
M  V30 5503 C 554.994 2.57879 3.7729 0
M  V30 5504 C 555.991 3.56118 3.78782 0
M  V30 5505 C 553.676 2.93311 4.07767 0
M  V30 5506 C 555.67 4.87827 4.10248 0
M  V30 5507 C 553.357 4.25219 4.38899 0
M  V30 5508 C 554.355 5.22287 4.4012 0
M  V30 5509 O 554.043 6.51826 4.70508 0
M  V30 5510 H 553.775 0.291946 0.609708 0
M  V30 5511 H 556.329 1.42627 1.47806 0
M  V30 5512 H 554.559 0.45359 3.84031 0
M  V30 5513 H 556.248 0.852363 3.9685 0
M  V30 5514 H 557.014 3.30086 3.55342 0
M  V30 5515 H 552.893 2.18409 4.05979 0
M  V30 5516 H 556.437 5.63586 4.11116 0
M  V30 5517 H 552.334 4.51006 4.61805 0
M  V30 5518 H 553.102 6.56893 4.88298 0
M  V30 5519 N 555.766 -1.3263 0.851289 0
M  V30 5520 C 556.716 -2.26451 0.265302 0
M  V30 5521 C 557.7 -1.49814 -0.586899 0
M  V30 5522 O 558.892 -1.71525 -0.436834 0
M  V30 5523 C 556.021 -3.38895 -0.548212 0
M  V30 5524 C 555.107 -4.2292 0.316189 0
M  V30 5525 N 555.498 -4.86014 1.40084 0
M  V30 5526 C 553.796 -4.45876 0.105356 0
M  V30 5527 C 554.497 -5.48667 1.93235 0
M  V30 5528 N 553.473 -5.29455 1.232 0
M  V30 5529 H 557.275 -2.72757 1.09457 0
M  V30 5530 H 554.789 -1.4668 0.697047 0
M  V30 5531 H 556.786 -4.05111 -0.984402 0
M  V30 5532 H 555.446 -2.94135 -1.37531 0
M  V30 5533 H 556.457 -4.86212 1.78377 0
M  V30 5534 H 553.134 -4.11804 -0.687299 0
M  V30 5535 H 554.524 -6.08865 2.84135 0
M  V30 5536 N 557.244 -0.608902 -1.45362 0
M  V30 5537 C 558.174 0.0964526 -2.33301 0
M  V30 5538 C 559.155 0.857444 -1.46908 0
M  V30 5539 O 560.34 0.827735 -1.75676 0
M  V30 5540 C 557.47 1.09354 -3.29635 0
M  V30 5541 C 556.424 0.445676 -4.25673 0
M  V30 5542 C 555.75 1.5511 -5.11708 0
M  V30 5543 C 557.05 -0.633972 -5.18438 0
M  V30 5544 H 558.744 -0.637829 -2.92527 0
M  V30 5545 H 556.29 -0.308178 -1.40664 0
M  V30 5546 H 558.243 1.59556 -3.90025 0
M  V30 5547 H 556.967 1.85843 -2.6857 0
M  V30 5548 H 555.626 -0.0354897 -3.66583 0
M  V30 5549 H 555.274 2.30631 -4.4701 0
M  V30 5550 H 554.974 1.12311 -5.76767 0
M  V30 5551 H 556.498 2.05537 -5.74967 0
M  V30 5552 H 557.912 -0.215974 -5.72893 0
M  V30 5553 H 556.309 -0.983789 -5.91981 0
M  V30 5554 H 557.379 -1.51005 -4.60788 0
M  V30 5555 N 558.722 1.53707 -0.348139 0
M  V30 5556 C 559.95 2.05406 0.248224 0
M  V30 5557 C 560.365 1.22282 1.43849 0
M  V30 5558 O 559.722 0.259244 1.80649 0
M  V30 5559 C 559.773 3.55446 0.658793 0
M  V30 5560 O 559.494 4.35417 -0.484149 0
M  V30 5561 C 560.995 4.23335 1.31539 0
M  V30 5562 H 558.215 0.669344 0.0471075 0
M  V30 5563 H 560.759 1.98257 -0.501456 0
M  V30 5564 H 558.914 3.62803 1.35841 0
M  V30 5565 H 559.328 5.24268 -0.155949 0
M  V30 5566 H 560.802 5.29692 1.55338 0
M  V30 5567 H 561.279 3.75967 2.27036 0
M  V30 5568 H 561.885 4.20184 0.657683 0
M  V30 5569 N 560.2 0.0768682 1.57412 0
M  V30 5570 C 561.11 -0.903207 2.16516 0
M  V30 5571 C 562.126 -1.32341 1.12968 0
M  V30 5572 O 563.302 -1.39507 1.45258 0
M  V30 5573 C 560.367 -2.1508 2.71922 0
M  V30 5574 C 559.428 -1.78653 3.90361 0
M  V30 5575 C 558.661 -2.97465 4.43114 0
M  V30 5576 O 558.884 -4.11638 3.94854 0
M  V30 5577 O 557.818 -2.76987 5.3438 0
M  V30 5578 H 561.644 -0.430427 3.00634 0
M  V30 5579 H 559.229 -0.146485 1.4868 0
M  V30 5580 H 561.111 -2.8823 3.07411 0
M  V30 5581 H 559.786 -2.61446 1.9086 0
M  V30 5582 H 558.693 -1.0274 3.59716 0
M  V30 5583 H 560.026 -1.37066 4.7273 0
M  V30 5584 N 561.678 -1.56367 -0.196722 0
M  V30 5585 C 562.924 -1.80796 -0.918725 0
M  V30 5586 C 563.257 -0.650645 -1.82976 0
M  V30 5587 O 562.532 0.348889 -1.91345 0
M  V30 5588 C 562.815 -3.15472 -1.73636 0
M  V30 5589 C 562.668 -4.41693 -0.85015 0
M  V30 5590 C 563.987 -3.46824 -2.70927 0
M  V30 5591 H 561.106 -0.657702 -0.332561 0
M  V30 5592 H 563.748 -1.89086 -0.186186 0
M  V30 5593 H 561.898 -3.08536 -2.36088 0
M  V30 5594 H 563.57 -4.60673 -0.240459 0
M  V30 5595 H 561.813 -4.33517 -0.156785 0
M  V30 5596 H 562.484 -5.32419 -1.45719 0
M  V30 5597 H 564.96 -3.54049 -2.18607 0
M  V30 5598 H 563.836 -4.4218 -3.25219 0
M  V30 5599 H 564.097 -2.70236 -3.49893 0
M  V30 5600 N 563.156 0.464375 -1.50603 0
M  V30 5601 C 564.433 1.22549 -1.5245 0
M  V30 5602 C 564.813 2.09327 -0.273035 0
M  V30 5603 O 564.161 2.16074 0.743242 0
M  V30 5604 C 564.371 2.05074 -2.82393 0
M  V30 5605 C 565.719 2.63036 -3.33313 0
M  V30 5606 O 566.743 2.1531 -2.8376 0
M  V30 5607 O 565.602 3.5001 -4.19709 0
M  V30 5608 H 562.696 0.556471 -0.611775 0
M  V30 5609 H 565.242 0.475648 -1.62898 0
M  V30 5610 H 564.014 1.41169 -3.64948 0
M  V30 5611 H 563.637 2.87179 -2.7498 0
M  V30 5612 N 564.634 1.40294 0.718013 0
M  V30 5613 C 565.862 1.4175 1.50714 0
M  V30 5614 C 566.277 0.0165366 1.88793 0
M  V30 5615 O 565.634 -0.958942 1.55276 0
M  V30 5616 C 565.685 2.30598 2.784 0
M  V30 5617 O 565.406 3.6524 2.41932 0
M  V30 5618 C 566.907 2.4062 3.72313 0
M  V30 5619 H 564.127 0.483565 0.465194 0
M  V30 5620 H 566.671 1.84316 0.885889 0
M  V30 5621 H 564.826 1.91401 3.36815 0
M  V30 5622 H 565.24 4.12402 3.24076 0
M  V30 5623 H 566.714 3.07001 4.58753 0
M  V30 5624 H 567.191 1.4305 4.15251 0
M  V30 5625 H 567.797 2.80359 3.19811 0
M  V30 5626 N 566.112 -0.949982 1.2575 0
M  V30 5627 C 567.045 -2.047 1.00862 0
M  V30 5628 C 568.023 -1.62475 -0.0636982 0
M  V30 5629 O 569.207 -1.88343 0.0769153 0
M  V30 5630 C 566.334 -3.34597 0.525613 0
M  V30 5631 C 565.38 -3.95788 1.58916 0
M  V30 5632 S 566.213 -4.31175 3.17567 0
M  V30 5633 C 567.369 -5.64183 2.71013 0
M  V30 5634 H 567.602 -2.25497 1.93749 0
M  V30 5635 H 565.135 -1.09022 1.09332 0
M  V30 5636 H 567.093 -4.09716 0.25359 0
M  V30 5637 H 565.754 -3.11758 -0.382828 0
M  V30 5638 H 564.947 -4.89457 1.20201 0
M  V30 5639 H 564.549 -3.27168 1.81211 0
M  V30 5640 H 566.841 -6.42504 2.14928 0
M  V30 5641 H 567.784 -6.07774 3.6334 0
M  V30 5642 H 568.192 -5.2364 2.1086 0
M  V30 5643 N 567.59 -1.07411 -1.15328 0
M  V30 5644 C 568.836 -0.798831 -1.86404 0
M  V30 5645 C 569.169 0.673433 -1.8215 0
M  V30 5646 O 568.444 1.49428 -1.24505 0
M  V30 5647 C 568.727 -1.30846 -3.35487 0
M  V30 5648 C 568.58 -2.84532 -3.4837 0
M  V30 5649 C 569.899 -0.925486 -4.30259 0
M  V30 5650 H 567.018 -0.291659 -0.676834 0
M  V30 5651 H 569.66 -1.332 -1.35491 0
M  V30 5652 H 567.81 -0.854916 -3.78977 0
M  V30 5653 H 569.482 -3.3818 -3.13739 0
M  V30 5654 H 567.725 -3.22699 -2.8991 0
M  V30 5655 H 568.396 -3.15259 -4.53118 0
M  V30 5656 H 570.872 -1.3163 -3.94731 0
M  V30 5657 H 569.748 -1.3094 -5.33053 0
M  V30 5658 H 570.009 0.168525 -4.41779 0
M  V30 5659 N 569.068 1.32177 -0.85831 0
M  V30 5660 C 570.315 1.97125 -0.463484 0
M  V30 5661 C 570.643 1.67907 0.981705 0
M  V30 5662 O 569.898 0.961717 1.70439 0
M  V30 5663 C 570.197 3.51372 -0.653658 0
M  V30 5664 C 569.863 4.00584 -2.06987 0
M  V30 5665 C 568.525 4.13733 -2.4572 0
M  V30 5666 C 570.877 4.26624 -2.99402 0
M  V30 5667 C 568.205 4.50268 -3.76132 0
M  V30 5668 C 570.557 4.64618 -4.29316 0
M  V30 5669 C 569.221 4.75975 -4.67979 0
M  V30 5670 H 568.491 0.72133 -0.169601 0
M  V30 5671 H 571.138 1.57517 -1.08907 0
M  V30 5672 H 569.443 3.91761 0.0551328 0
M  V30 5673 H 571.14 3.99655 -0.328163 0
M  V30 5674 H 567.73 3.90837 -1.75911 0
M  V30 5675 H 571.914 4.1597 -2.70708 0
M  V30 5676 H 567.17 4.57256 -4.05865 0
M  V30 5677 H 571.344 4.83722 -5.00985 0
M  V30 5678 H 568.971 5.04041 -5.69076 0
M  V30 5679 N 570.547 0.616602 1.45037 0
M  V30 5680 C 571.793 0.115501 2.02471 0
M  V30 5681 C 572.126 -1.25406 1.4828 0
M  V30 5682 O 571.401 -1.82922 0.661051 0
M  V30 5683 C 571.684 0.0863588 3.59996 0
M  V30 5684 C 571.537 1.48723 4.24501 0
M  V30 5685 C 572.856 -0.596762 4.36035 0
M  V30 5686 H 569.975 0.0434461 0.735718 0
M  V30 5687 H 572.617 0.7903 1.72784 0
M  V30 5688 H 570.767 -0.488277 3.85419 0
M  V30 5689 H 572.439 2.10964 4.10234 0
M  V30 5690 H 570.682 2.04534 3.82555 0
M  V30 5691 H 571.353 1.419 5.3345 0
M  V30 5692 H 573.829 -0.10824 4.15959 0
M  V30 5693 H 572.705 -0.586289 5.4576 0
M  V30 5694 H 572.966 -1.66451 4.09569 0
M  V30 5695 N 572.025 -1.5352 0.356285 0
M  V30 5696 C 573.441 -1.59599 0.00485267 0
M  V30 5697 C 573.641 -1.37179 -1.47595 0
M  V30 5698 O 572.697 -1.17234 -2.23635 0
M  V30 5699 C 574.01 -2.97277 0.452454 0
M  V30 5700 C 575.558 -3.10357 0.405881 0
M  V30 5701 C 576.033 -4.50432 0.829148 0
M  V30 5702 N 577.524 -4.5652 0.783838 0
M  V30 5703 C 578.259 -5.63077 1.08315 0
M  V30 5704 N 577.755 -6.77429 1.45126 0
M  V30 5705 N 579.548 -5.53014 1.00655 0
M  V30 5706 H 571.699 -1.66346 1.32071 0
M  V30 5707 H 573.962 -0.77971 0.539218 0
M  V30 5708 H 573.668 -3.18792 1.48542 0
M  V30 5709 H 573.542 -3.76836 -0.165762 0
M  V30 5710 H 575.929 -2.88558 -0.617934 0
M  V30 5711 H 576.01 -2.32828 1.05947 0
M  V30 5712 H 575.654 -4.72968 1.85103 0
M  V30 5713 H 575.584 -5.26378 0.152906 0
M  V30 5714 H 578.075 -3.74408 0.512513 0
M  V30 5715 H 578.388 -7.54669 1.66415 0
M  V30 5716 H 576.733 -6.78844 1.48983 0
M  V30 5717 H 579.924 -4.62557 0.718215 0
M  V30 5718 H 580.097 -6.35964 1.24315 0
M  V30 5719 N 573.503 -0.0852151 -1.57369 0
M  V30 5720 C 574.435 0.907099 -2.10486 0
M  V30 5721 C 575.448 1.25259 -1.03991 0
M  V30 5722 O 576.637 1.20743 -1.31467 0
M  V30 5723 C 573.737 2.21908 -2.56145 0
M  V30 5724 C 572.91 2.05042 -3.86363 0
M  V30 5725 C 571.969 3.19664 -4.17973 0
M  V30 5726 O 570.995 2.94062 -4.87356 0
M  V30 5727 N 572.197 4.45151 -3.72587 0
M  V30 5728 H 574.962 0.453505 -2.96249 0
M  V30 5729 H 572.523 0.100157 -1.6159 0
M  V30 5730 H 574.515 2.97519 -2.74343 0
M  V30 5731 H 573.085 2.58723 -1.75446 0
M  V30 5732 H 572.305 1.13819 -3.77411 0
M  V30 5733 H 573.593 1.91039 -4.71574 0
M  V30 5734 H 572.991 4.68834 -3.16561 0
M  V30 5735 H 571.548 5.17744 -3.9596 0
M  V30 5736 N 574.981 1.5647 0.188427 0
M  V30 5737 C 576.23 1.80207 0.905995 0
M  V30 5738 C 576.543 0.659579 1.84144 0
M  V30 5739 O 577.749 0.781431 2.60011 0
M  V30 5740 C 576.205 3.19255 1.66145 0
M  V30 5741 C 575.813 4.41324 0.770504 0
M  V30 5742 C 577.557 3.52298 2.36826 0
M  V30 5743 C 575.464 5.71394 1.52521 0
M  V30 5744 H 574.394 0.671953 0.342045 0
M  V30 5745 H 577.045 1.82808 0.159164 0
M  V30 5746 H 575.427 3.10922 2.45242 0
M  V30 5747 H 576.601 4.60797 0.0177261 0
M  V30 5748 H 574.916 4.16035 0.174199 0
M  V30 5749 H 577.513 4.46715 2.93854 0
M  V30 5750 H 577.856 2.76359 3.11338 0
M  V30 5751 H 578.389 3.62108 1.6469 0
M  V30 5752 H 575.128 6.50316 0.82275 0
M  V30 5753 H 574.648 5.55928 2.25175 0
M  V30 5754 H 576.327 6.12747 2.07725 0
M  V30 5755 N 576.459 -0.456382 1.50847 0
M  V30 5756 C 577.699 -1.21704 1.64218 0
M  V30 5757 C 578.063 -1.88932 0.341859 0
M  V30 5758 O 579.264 -2.66497 0.351137 0
M  V30 5759 C 577.535 -2.22162 2.79962 0
M  V30 5760 S 579.094 -3.0697 3.13552 0
M  V30 5761 H 575.912 -0.412995 0.578754 0
M  V30 5762 H 578.514 -0.511637 1.88686 0
M  V30 5763 H 577.218 -1.71379 3.72904 0
M  V30 5764 H 576.749 -2.9731 2.57624 0
M  V30 5765 H 578.764 -4.23539 2.58513 0
M  V30 5766 N 577.937 -1.40673 -0.710563 0
M  V30 5767 C 579.214 -1.29718 -1.46398 0
M  V30 5768 C 579.594 0.082177 -2.1094 0
M  V30 5769 O 578.942 1.09536 -2.00534 0
M  V30 5770 C 579.152 -2.43967 -2.49562 0
M  V30 5771 C 580.5 -2.84436 -3.15248 0
M  V30 5772 O 581.524 -2.43597 -2.59883 0
M  V30 5773 O 580.383 -3.55008 -4.1549 0
M  V30 5774 H 577.477 -0.509697 -0.651258 0
M  V30 5775 H 580.023 -1.52603 -0.742312 0
M  V30 5776 H 578.795 -3.36076 -2.0042 0
M  V30 5777 H 578.418 -2.22879 -3.29258 0
M  V30 5778 N 579.415 0.9433 -1.26252 0
M  V30 5779 C 580.663 1.68592 -1.11451 0
M  V30 5780 C 580.984 1.91957 0.343123 0
M  V30 5781 O 580.254 1.51475 1.24226 0
M  V30 5782 H 578.834 0.624789 -0.409448 0
M  V30 5783 H 581.496 1.13351 -1.58548 0
M  V30 5784 H 580.592 2.66054 -1.63162 0
M  V30 5785 N 580.893 1.08022 1.14757 0
M  V30 5786 C 582.142 0.802468 1.8505 0
M  V30 5787 C 582.455 -0.674061 1.83619 0
M  V30 5788 O 583.661 -1.06683 2.49662 0
M  V30 5789 C 582.117 1.38551 3.32162 0
M  V30 5790 C 581.725 2.89354 3.42021 0
M  V30 5791 C 583.469 1.18608 4.07594 0
M  V30 5792 C 581.376 3.40815 4.83321 0
M  V30 5793 H 580.306 0.296518 0.693248 0
M  V30 5794 H 582.957 1.30114 1.29393 0
M  V30 5795 H 581.339 0.814556 3.87532 0
M  V30 5796 H 582.513 3.52552 2.96722 0
M  V30 5797 H 580.828 3.08165 2.80041 0
M  V30 5798 H 583.425 1.54525 5.11885 0
M  V30 5799 H 583.768 0.125599 4.1611 0
M  V30 5800 H 584.301 1.72375 3.58513 0
M  V30 5801 H 581.04 4.46418 4.79991 0
M  V30 5802 H 580.56 2.82374 5.29174 0
M  V30 5803 H 582.239 3.37171 5.522 0
M  V30 5804 N 582.371 -1.3172 0.865308 0
M  V30 5805 C 583.301 -2.31109 0.333302 0
M  V30 5806 C 584.282 -1.60148 -0.573301 0
M  V30 5807 O 585.467 -1.87882 -0.491305 0
M  V30 5808 C 582.597 -3.44104 -0.470078 0
M  V30 5809 C 581.551 -4.26623 0.343021 0
M  V30 5810 C 580.877 -5.31482 -0.585756 0
M  V30 5811 C 582.177 -4.98001 1.57456 0
M  V30 5812 H 583.871 -2.75855 1.1638 0
M  V30 5813 H 581.417 -1.3262 0.561069 0
M  V30 5814 H 583.37 -4.12682 -0.852752 0
M  V30 5815 H 582.094 -2.98112 -1.33404 0
M  V30 5816 H 580.753 -3.59707 0.707583 0
M  V30 5817 H 580.401 -4.81741 -1.44686 0
M  V30 5818 H 580.101 -5.87582 -0.0456494 0
M  V30 5819 H 581.625 -6.0292 -0.965375 0
M  V30 5820 H 583.039 -5.59201 1.26359 0
M  V30 5821 H 581.436 -5.63876 2.05339 0
M  V30 5822 H 582.506 -4.25253 2.32997 0
M  V30 5823 N 583.85 -0.624285 -1.44708 0
M  V30 5824 C 585.096 -0.126051 -2.02107 0
M  V30 5825 C 585.425 1.2496 -1.49048 0
M  V30 5826 O 584.68 1.84163 -0.662005 0
M  V30 5827 C 584.979 -0.0546353 -3.57358 0
M  V30 5828 C 584.644 -1.36815 -4.29642 0
M  V30 5829 C 583.307 -1.72792 -4.49106 0
M  V30 5830 C 585.659 -2.23549 -4.70824 0
M  V30 5831 C 582.986 -2.95222 -5.07012 0
M  V30 5832 C 585.339 -3.45243 -5.30085 0
M  V30 5833 C 584.003 -3.81452 -5.47769 0
M  V30 5834 H 583.273 -0.0461252 -0.739563 0
M  V30 5835 H 585.92 -0.809236 -1.73562 0
M  V30 5836 H 584.225 0.711891 -3.85278 0
M  V30 5837 H 585.922 0.347282 -3.99493 0
M  V30 5838 H 582.512 -1.07817 -4.14817 0
M  V30 5839 H 586.696 -1.9705 -4.55505 0
M  V30 5840 H 581.952 -3.23361 -5.18891 0
M  V30 5841 H 586.125 -4.12689 -5.60946 0
M  V30 5842 H 583.753 -4.76403 -5.92405 0
M  V30 5843 N 585.328 1.53329 -0.364422 0
M  V30 5844 C 586.261 2.22052 0.526145 0
M  V30 5845 C 587.239 1.21203 1.08391 0
M  V30 5846 O 588.423 1.50101 1.14026 0
M  V30 5847 C 585.55 2.91432 1.72583 0
M  V30 5848 C 584.596 4.06345 1.29562 0
M  V30 5849 S 585.429 5.34671 0.297885 0
M  V30 5850 C 586.585 6.07563 1.50392 0
M  V30 5851 H 586.818 2.97244 -0.0575055 0
M  V30 5852 H 584.351 1.53684 -0.148525 0
M  V30 5853 H 586.309 3.3202 2.41398 0
M  V30 5854 H 584.97 2.15966 2.28073 0
M  V30 5855 H 584.163 4.53901 2.19067 0
M  V30 5856 H 583.765 3.67642 0.686696 0
M  V30 5857 H 586.057 6.32224 2.43513 0
M  V30 5858 H 587 6.99973 1.06977 0
M  V30 5859 H 587.408 5.37994 1.70945 0
M  V30 5860 N 586.806 0.0935595 1.57322 0
M  V30 5861 C 587.756 -0.876521 2.10478 0
M  V30 5862 C 588.74 -1.24482 1.01946 0
M  V30 5863 O 589.932 -1.22016 1.28223 0
M  V30 5864 C 587.061 -2.13615 2.68745 0
M  V30 5865 C 586.147 -1.79335 3.84317 0
M  V30 5866 N 586.538 -1.15606 4.92411 0
M  V30 5867 C 584.836 -2.08954 3.94023 0
M  V30 5868 C 585.537 -0.999036 5.73057 0
M  V30 5869 N 584.513 -1.51585 5.22037 0
M  V30 5870 H 588.315 -0.379829 2.91435 0
M  V30 5871 H 585.829 -0.109699 1.62029 0
M  V30 5872 H 587.826 -2.84053 3.05155 0
M  V30 5873 H 586.486 -2.63851 1.89242 0
M  V30 5874 H 587.497 -0.823063 5.11318 0
M  V30 5875 H 584.174 -2.61416 3.25527 0
M  V30 5876 H 585.564 -0.500772 6.70031 0
M  V30 5877 N 588.284 -1.56567 -0.180126 0
M  V30 5878 C 589.231 -1.95725 -1.22313 0
M  V30 5879 C 590.201 -0.819911 -1.44453 0
M  V30 5880 O 591.386 -1.07931 -1.57339 0
M  V30 5881 C 588.526 -2.31484 -2.55947 0
M  V30 5882 C 587.639 -3.58354 -2.4126 0
M  V30 5883 C 586.774 -3.83366 -3.67701 0
M  V30 5884 C 585.813 -5.03612 -3.47909 0
M  V30 5885 N 584.95 -5.24802 -4.66398 0
M  V30 5886 H 589.79 -2.84642 -0.882198 0
M  V30 5887 H 587.327 -1.4085 -0.42422 0
M  V30 5888 H 589.285 -2.50237 -3.33822 0
M  V30 5889 H 587.915 -1.45689 -2.88053 0
M  V30 5890 H 586.967 -3.47565 -1.54606 0
M  V30 5891 H 588.279 -4.46386 -2.22577 0
M  V30 5892 H 587.433 -4.02439 -4.54013 0
M  V30 5893 H 586.172 -2.93692 -3.89353 0
M  V30 5894 H 585.177 -4.84447 -2.59983 0
M  V30 5895 H 586.402 -5.94809 -3.27688 0
M  V30 5896 H 584.348 -4.38079 -4.88286 0
M  V30 5897 H 584.265 -6.07041 -4.50596 0
M  V30 5898 H 585.533 -5.48346 -5.54019 0
M  V30 5899 N 589.762 0.448376 -1.51087 0
M  V30 5900 C 590.695 1.56298 -1.66272 0
M  V30 5901 C 591.673 1.54381 -0.510419 0
M  V30 5902 O 592.857 1.73671 -0.732854 0
M  V30 5903 C 589.984 2.94883 -1.66618 0
M  V30 5904 C 589.03 3.14868 -2.87681 0
M  V30 5905 S 589.863 2.9234 -4.48662 0
M  V30 5906 C 591.019 4.33227 -4.51735 0
M  V30 5907 H 591.252 1.43182 -2.6055 0
M  V30 5908 H 588.785 0.637309 -1.40633 0
M  V30 5909 H 590.743 3.74771 -1.67502 0
M  V30 5910 H 589.404 3.05371 -0.735358 0
M  V30 5911 H 588.597 4.16166 -2.84292 0
M  V30 5912 H 588.199 2.42788 -2.84482 0
M  V30 5913 H 590.491 5.26247 -4.26697 0
M  V30 5914 H 591.434 4.41653 -5.53487 0
M  V30 5915 H 591.842 4.16367 -3.81181 0
M  V30 5916 N 591.24 1.41047 0.703093 0
M  V30 5917 C 592.656 1.23351 1.01275 0
M  V30 5918 C 592.856 0.11754 2.01157 0
M  V30 5919 O 591.912 -0.520518 2.47077 0
M  V30 5920 C 593.225 2.58001 1.54454 0
M  V30 5921 C 594.773 2.65119 1.66376 0
M  V30 5922 C 595.248 4.00067 2.22958 0
M  V30 5923 N 596.739 4.01875 2.30328 0
M  V30 5924 C 597.474 5.03087 2.75119 0
M  V30 5925 N 596.97 6.14692 3.19571 0
M  V30 5926 N 598.763 4.90451 2.74616 0
M  V30 5927 H 590.914 2.1236 0.0412686 0
M  V30 5928 H 593.177 0.944543 0.08089 0
M  V30 5929 H 592.883 3.40378 0.88521 0
M  V30 5930 H 592.757 2.79962 2.52786 0
M  V30 5931 H 595.144 1.83106 2.31422 0
M  V30 5932 H 595.225 2.46975 0.666089 0
M  V30 5933 H 594.869 4.82526 1.58529 0
M  V30 5934 H 594.799 4.15547 3.23462 0
M  V30 5935 H 597.29 3.21291 1.98949 0
M  V30 5936 H 597.603 6.87799 3.52352 0
M  V30 5937 H 595.948 6.18239 3.17498 0
M  V30 5938 H 599.139 4.0235 2.39233 0
M  V30 5939 H 599.312 5.6947 3.09206 0
M  V30 5940 N 592.718 -0.936591 1.26751 0
M  V30 5941 C 593.964 -1.6858 1.12733 0
M  V30 5942 C 594.297 -1.91414 -0.327745 0
M  V30 5943 O 593.572 -1.49812 -1.24043 0
M  V30 5944 C 593.855 -3.05779 1.90187 0
M  V30 5945 C 593.708 -2.90242 3.43627 0
M  V30 5946 C 595.027 -4.0597 1.69931 0
M  V30 5947 H 592.146 -0.61182 0.410908 0
M  V30 5948 H 594.788 -1.08747 1.55801 0
M  V30 5949 H 592.938 -3.56853 1.53584 0
M  V30 5950 H 594.61 -2.46354 3.9001 0
M  V30 5951 H 592.853 -2.2577 3.70419 0
M  V30 5952 H 593.524 -3.87572 3.93055 0
M  V30 5953 H 596 -3.63874 2.0183 0
M  V30 5954 H 594.876 -4.99974 2.26534 0
M  V30 5955 H 595.137 -4.37369 0.64502 0
M  V30 5956 N 594.196 -1.08629 -1.14182 0
M  V30 5957 C 595.126 -0.740003 -2.21464 0
M  V30 5958 C 596.107 0.278591 -1.67803 0
M  V30 5959 O 597.292 0.148461 -1.93632 0
M  V30 5960 C 594.422 -0.150952 -3.46972 0
M  V30 5961 C 593.376 -1.09815 -4.13672 0
M  V30 5962 C 592.702 -0.3712 -5.3341 0
M  V30 5963 C 594.002 -2.43722 -4.61949 0
M  V30 5964 H 595.696 -1.63697 -2.50686 0
M  V30 5965 H 593.242 -0.788526 -1.20492 0
M  V30 5966 H 595.195 0.103325 -4.21273 0
M  V30 5967 H 593.919 0.781164 -3.1712 0
M  V30 5968 H 592.578 -1.33756 -3.41328 0
M  V30 5969 H 592.226 0.564792 -4.99819 0
M  V30 5970 H 591.926 -1.00267 -5.78982 0
M  V30 5971 H 593.45 -0.12503 -6.10472 0
M  V30 5972 H 594.864 -2.24034 -5.27714 0
M  V30 5973 H 593.261 -3.02582 -5.18232 0
M  V30 5974 H 594.331 -3.05082 -3.76899 0
M  V30 5975 N 595.674 1.31259 -0.872281 0
M  V30 5976 C 596.624 2.26 -0.301295 0
M  V30 5977 C 597.608 1.50729 0.562991 0
M  V30 5978 O 598.8 1.72198 0.40949 0
M  V30 5979 C 595.929 3.39724 0.494227 0
M  V30 5980 C 595.015 4.22363 -0.383432 0
M  V30 5981 N 595.406 4.83724 -1.47799 0
M  V30 5982 C 593.704 4.45652 -0.176278 0
M  V30 5983 C 594.405 5.45523 -2.01939 0
M  V30 5984 N 593.381 5.27428 -1.31608 0
M  V30 5985 H 597.183 2.70981 -1.13782 0
M  V30 5986 H 594.697 1.45552 -0.720294 0
M  V30 5987 H 596.694 4.06626 0.919828 0
M  V30 5988 H 595.354 2.96286 1.32834 0
M  V30 5989 H 596.365 4.83313 -1.8609 0
M  V30 5990 H 593.042 4.12845 0.621698 0
M  V30 5991 H 594.432 6.04268 -2.93786 0
M  V30 5992 N 597.152 0.631951 1.44375 0
M  V30 5993 C 598.082 -0.0593243 2.33425 0
M  V30 5994 C 599.063 -0.833964 1.48253 0
M  V30 5995 O 600.248 -0.799682 1.76971 0
M  V30 5996 C 597.378 -1.04096 3.31333 0
M  V30 5997 C 596.332 -0.377899 4.26328 0
M  V30 5998 C 595.658 -1.4695 5.14111 0
M  V30 5999 C 596.958 0.716371 5.17364 0
M  V30 6000 H 598.652 0.684287 2.91475 0
M  V30 6001 H 596.198 0.330518 1.40156 0
M  V30 6002 H 598.151 -1.53331 3.92514 0
M  V30 6003 H 596.875 -1.81547 2.71493 0
M  V30 6004 H 595.534 0.0938054 3.6648 0
M  V30 6005 H 595.182 -2.2349 4.50623 0
M  V30 6006 H 594.882 -1.03121 5.78481 0
M  V30 6007 H 596.406 -1.96363 5.78164 0
M  V30 6008 H 597.82 0.307089 5.72477 0
M  V30 6009 H 596.217 1.07784 5.90341 0
M  V30 6010 H 597.287 1.58316 4.58327 0
M  V30 6011 N 598.631 -1.53133 0.372548 0
M  V30 6012 C 599.908 -1.93704 -0.271693 0
M  V30 6013 C 600.288 -1.30667 -1.65799 0
M  V30 6014 O 599.636 -0.46838 -2.23648 0
M  V30 6015 C 599.846 -3.47576 -0.314903 0
M  V30 6016 C 601.194 -4.20998 -0.551912 0
M  V30 6017 O 602.218 -3.53994 -0.39582 0
M  V30 6018 O 601.077 -5.39748 -0.85639 0
M  V30 6019 H 598.171 -0.810457 -0.164586 0
M  V30 6020 H 600.717 -1.6427 0.425838 0
M  V30 6021 H 599.489 -3.85749 0.656792 0
M  V30 6022 H 599.112 -3.83264 -1.05804 0
M  V30 6023 N 600.109 -0.101901 -1.5727 0
M  V30 6024 C 601.039 0.851544 -2.17419 0
M  V30 6025 C 602.02 1.28942 -1.10941 0
M  V30 6026 O 603.205 1.35509 -1.39107 0
M  V30 6027 C 600.335 2.10816 -2.75996 0
M  V30 6028 C 599.289 1.80867 -3.87906 0
M  V30 6029 C 598.615 3.13413 -4.33216 0
M  V30 6030 C 599.915 1.0903 -5.10793 0
M  V30 6031 H 601.609 0.350381 -2.97343 0
M  V30 6032 H 599.155 0.16709 -1.43027 0
M  V30 6033 H 601.108 2.77959 -3.16729 0
M  V30 6034 H 599.832 2.63227 -1.93337 0
M  V30 6035 H 598.491 1.16119 -3.47724 0
M  V30 6036 H 598.139 3.63725 -3.47438 0
M  V30 6037 H 597.839 2.94155 -5.08671 0
M  V30 6038 H 599.363 3.81704 -4.76586 0
M  V30 6039 H 600.777 1.66295 -5.48652 0
M  V30 6040 H 599.174 0.99927 -5.91722 0
M  V30 6041 H 600.244 0.0741704 -4.84843 0
M  V30 6042 N 601.587 1.56661 0.17182 0
M  V30 6043 C 602.534 1.96371 1.21273 0
M  V30 6044 C 603.504 0.82756 1.44016 0
M  V30 6045 O 604.689 1.08764 1.56764 0
M  V30 6046 C 601.829 2.32838 2.54716 0
M  V30 6047 C 600.942 3.59628 2.39356 0
M  V30 6048 C 600.077 3.85311 3.65662 0
M  V30 6049 C 599.116 5.0545 3.45234 0
M  V30 6050 N 598.253 5.27268 4.63608 0
M  V30 6051 H 603.093 2.85106 0.86709 0
M  V30 6052 H 600.63 1.41073 0.416744 0
M  V30 6053 H 602.588 2.52004 3.3249 0
M  V30 6054 H 601.218 1.47214 2.87277 0
M  V30 6055 H 600.27 3.4838 1.52761 0
M  V30 6056 H 601.582 4.4756 2.20207 0
M  V30 6057 H 600.736 4.04841 4.51872 0
M  V30 6058 H 599.475 2.95753 3.8779 0
M  V30 6059 H 598.48 4.85819 2.5741 0
M  V30 6060 H 599.705 5.96538 3.24529 0
M  V30 6061 H 597.651 4.40662 4.85956 0
M  V30 6062 H 597.568 6.09422 4.4737 0
M  V30 6063 H 598.836 5.51277 5.51103 0
M  V30 6064 N 603.065 -0.440357 1.51323 0
M  V30 6065 C 604.476 -1.02032 1.56353 0
M  V30 6066 C 604.827 -1.92382 0.385197 0
M  V30 6067 O 603.952 -2.10583 -0.498373 0
M  V30 6068 C 604.547 -1.85723 2.83359 0
M  V30 6069 C 603.106 -2.38774 2.90971 0
M  V30 6070 C 602.253 -1.17908 2.50984 0
M  V30 6071 H 605.204 -0.221744 1.57143 0
M  V30 6072 H 605.225 -2.71141 2.66951 0
M  V30 6073 H 604.737 -1.19939 3.69102 0
M  V30 6074 H 602.838 -3.08021 2.09651 0
M  V30 6075 H 602.951 -2.71778 3.94555 0
M  V30 6076 H 601.315 -1.52347 2.04114 0
M  V30 6077 H 602.098 -0.537393 3.39068 0
M  V30 6078 N 604.543 -1.41418 -0.695603 0
M  V30 6079 C 605.453 -1.45622 -1.83933 0
M  V30 6080 C 606.469 -0.346825 -1.70508 0
M  V30 6081 O 607.645 -0.59454 -1.92424 0
M  V30 6082 C 604.71 -1.33627 -3.19914 0
M  V30 6083 C 603.771 -2.54882 -3.45447 0
M  V30 6084 C 603.004 -2.43449 -4.7494 0
M  V30 6085 O 603.227 -1.45905 -5.51424 0
M  V30 6086 O 602.161 -3.33206 -5.01256 0
M  V30 6087 H 605.987 -2.42114 -1.83342 0
M  V30 6088 H 603.572 -1.22956 -0.848658 0
M  V30 6089 H 605.454 -1.29221 -4.01098 0
M  V30 6090 H 604.129 -0.402508 -3.21188 0
M  V30 6091 H 603.036 -2.64865 -2.64192 0
M  V30 6092 H 604.369 -3.47087 -3.48987 0
M  V30 6093 N 606.021 0.929856 -1.27246 0
M  V30 6094 C 606.969 2.05151 -1.09616 0
M  V30 6095 C 607.963 1.69388 -0.0198617 0
M  V30 6096 O 609.169 1.79124 -0.177417 0
M  V30 6097 H 605.544 0.671909 -0.337701 0
M  V30 6098 H 607.515 2.17168 -2.04648 0
M  V30 6099 C 606.264 3.3934 -0.757851 0
M  V30 6100 H 605.587 3.67343 -1.57795 0
M  V30 6101 H 607.027 4.18603 -0.674358 0
M  V30 6102 C 605.486 3.32582 0.537658 0
M  V30 6103 O 606.016 3.69633 1.57271 0
M  V30 6104 N 604.222 2.8568 0.532478 0
M  V30 6105 H 603.769 2.55725 -0.310233 0
M  V30 6106 H 603.727 2.81541 1.39936 0
M  V30 6107 N 607.499 1.09233 1.13605 0
M  V30 6108 C 608.748 0.82205 1.84188 0
M  V30 6109 C 609.061 -0.654548 1.84323 0
M  V30 6110 O 610.267 -1.04029 2.50779 0
M  V30 6111 C 608.723 1.42066 3.30674 0
M  V30 6112 C 608.331 2.92965 3.38933 0
M  V30 6113 C 610.075 1.22924 4.06313 0
M  V30 6114 C 607.982 3.45922 4.79679 0
M  V30 6115 H 606.912 0.303854 0.690064 0
M  V30 6116 H 609.563 1.31479 1.28006 0
M  V30 6117 H 607.945 0.855613 3.86646 0
M  V30 6118 H 609.119 3.55679 2.92966 0
M  V30 6119 H 607.434 3.11118 2.76757 0
M  V30 6120 H 610.031 1.59945 5.10217 0
M  V30 6121 H 610.374 0.169726 4.15954 0
M  V30 6122 H 610.907 1.76168 3.56665 0
M  V30 6123 H 607.646 4.51484 4.75229 0
M  V30 6124 H 607.166 2.87971 5.26149 0
M  V30 6125 H 608.845 3.43009 5.48592 0
M  V30 6126 N 608.977 -1.30795 0.87923 0
M  V30 6127 C 609.907 -2.30742 0.357796 0
M  V30 6128 C 610.888 -1.60747 -0.556283 0
M  V30 6129 O 612.073 -1.88393 -0.47135 0
M  V30 6130 C 609.203 -3.44583 -0.433555 0
M  V30 6131 C 608.157 -4.26235 0.388251 0
M  V30 6132 C 607.483 -5.32073 -0.529352 0
M  V30 6133 C 608.783 -4.96303 1.62729 0
M  V30 6134 H 610.477 -2.74605 1.19299 0
M  V30 6135 H 608.023 -1.32017 0.575104 0
M  V30 6136 H 609.976 -4.13563 -0.808934 0
M  V30 6137 H 608.7 -2.99511 -1.30234 0
M  V30 6138 H 607.359 -3.58936 0.745695 0
M  V30 6139 H 607.007 -4.83249 -1.39569 0
M  V30 6140 H 606.707 -5.87598 0.0166741 0
M  V30 6141 H 608.231 -6.0391 -0.901373 0
M  V30 6142 H 609.645 -5.5783 1.32283 0
M  V30 6143 H 608.042 -5.61666 2.11309 0
M  V30 6144 H 609.112 -4.22758 2.37494 0
M  V30 6145 N 610.455 -0.639598 -1.44038 0
M  V30 6146 C 611.695 -0.150902 -2.03842 0
M  V30 6147 C 612.059 1.20744 -1.49281 0
M  V30 6148 O 613.26 1.78875 -2.00642 0
M  V30 6149 C 611.531 -0.146114 -3.57101 0
M  V30 6150 S 613.09 0.276725 -4.37927 0
M  V30 6151 H 609.908 -0.0652447 -0.708 0
M  V30 6152 H 612.51 -0.844886 -1.76301 0
M  V30 6153 H 611.214 -1.13769 -3.94316 0
M  V30 6154 H 610.745 0.568846 -3.89266 0
M  V30 6155 H 612.76 1.51893 -4.7238 0
M  V30 6156 N 611.933 1.52934 -0.380664 0
M  V30 6157 C 613.179 2.01765 0.20458 0
M  V30 6158 C 613.512 1.26696 1.47179 0
M  V30 6159 O 612.787 0.364936 1.91046 0
M  V30 6160 C 613.07 3.56869 0.481269 0
M  V30 6161 C 612.923 4.42617 -0.800629 0
M  V30 6162 C 614.242 4.2121 1.27554 0
M  V30 6163 H 611.361 0.733388 0.0728803 0
M  V30 6164 H 614.003 1.83068 -0.50853 0
M  V30 6165 H 612.153 3.72932 1.08875 0
M  V30 6166 H 613.825 4.38323 -1.43773 0
M  V30 6167 H 612.068 4.09977 -1.4178 0
M  V30 6168 H 612.739 5.49134 -0.561791 0
M  V30 6169 H 615.215 4.09072 0.761514 0
M  V30 6170 H 614.091 5.29732 1.43788 0
M  V30 6171 H 614.352 3.78269 2.28833 0
M  V30 6172 N 613.412 0.11024 1.57214 0
M  V30 6173 C 614.36 -0.860586 2.16094 0
M  V30 6174 C 615.354 -1.28156 1.1078 0
M  V30 6175 O 616.56 -1.25433 1.29099 0
M  V30 6176 H 612.935 -0.295606 0.691463 0
M  V30 6177 H 614.906 -0.33942 2.96463 0
M  V30 6178 C 613.655 -2.10421 2.768 0
M  V30 6179 H 612.978 -1.7892 3.5753 0
M  V30 6180 H 614.418 -2.76375 3.21547 0
M  V30 6181 C 612.877 -2.88823 1.73444 0
M  V30 6182 O 613.407 -3.839 1.18251 0
M  V30 6183 N 611.613 -2.52649 1.43586 0
M  V30 6184 H 611.16 -1.754 1.8866 0
M  V30 6185 H 611.118 -3.05403 0.746735 0
M  V30 6186 N 614.89 -1.56749 -0.16351 0
M  V30 6187 C 616.118 -1.86577 -0.894233 0
M  V30 6188 C 616.533 -0.696543 -1.75481 0
M  V30 6189 O 615.89 0.334161 -1.79415 0
M  V30 6190 C 615.941 -3.15508 -1.76456 0
M  V30 6191 O 615.662 -4.27926 -0.938685 0
M  V30 6192 C 617.163 -3.58737 -2.60428 0
M  V30 6193 H 614.383 -0.618829 -0.259405 0
M  V30 6194 H 616.927 -2.03863 -0.161259 0
M  V30 6195 H 615.082 -3.00025 -2.45079 0
M  V30 6196 H 615.496 -5.01546 -1.53465 0
M  V30 6197 H 616.97 -4.51832 -3.17099 0
M  V30 6198 H 617.447 -2.83229 -3.35675 0
M  V30 6199 H 618.053 -3.76858 -1.97125 0
M  V30 6200 N 616.368 0.432326 -1.51554 0
M  V30 6201 C 617.596 1.20364 -1.68286 0
M  V30 6202 C 618.011 1.84888 -0.38233 0
M  V30 6203 O 617.368 1.70924 0.639627 0
M  V30 6204 C 617.419 2.28398 -2.80208 0
M  V30 6205 O 617.14 1.66512 -4.05223 0
M  V30 6206 C 618.641 3.18584 -3.08251 0
M  V30 6207 H 615.861 0.36259 -0.564596 0
M  V30 6208 H 618.405 0.511647 -1.97996 0
M  V30 6209 H 616.56 2.93305 -2.53083 0
M  V30 6210 H 616.974 2.37951 -4.67418 0
M  V30 6211 H 618.448 3.90511 -3.90135 0
M  V30 6212 H 618.925 3.79628 -2.2086 0
M  V30 6213 H 619.531 2.59372 -3.37055 0
M  V30 6214 N 617.846 1.41785 0.688094 0
M  V30 6215 C 619.094 1.41264 1.4453 0
M  V30 6216 C 619.415 0.0252946 1.94984 0
M  V30 6217 O 618.685 -0.934081 1.72197 0
M  V30 6218 H 617.265 0.519998 0.536294 0
M  V30 6219 H 619.927 1.7709 0.813941 0
M  V30 6220 H 619.023 2.10439 2.30482 0
M  V30 6221 N 619.324 -0.923095 1.27737 0
M  V30 6222 C 620.274 -2.01061 1.0751 0
M  V30 6223 C 621.258 -1.609 0.00165451 0
M  V30 6224 O 622.45 -1.75618 0.220724 0
M  V30 6225 C 619.579 -3.35467 0.729162 0
M  V30 6226 C 618.665 -3.82059 1.84098 0
M  V30 6227 N 619.056 -4.01115 3.08124 0
M  V30 6228 C 617.354 -4.11135 1.7287 0
M  V30 6229 C 618.055 -4.39989 3.80506 0
M  V30 6230 N 617.031 -4.47721 3.08297 0
M  V30 6231 H 620.833 -2.13832 2.01626 0
M  V30 6232 H 618.347 -1.11027 1.18519 0
M  V30 6233 H 620.344 -4.13049 0.565355 0
M  V30 6234 H 619.004 -3.24056 -0.204334 0
M  V30 6235 H 620.015 -3.87294 3.43836 0
M  V30 6236 H 616.692 -4.08412 0.866352 0
M  V30 6237 H 618.082 -4.62773 4.87125 0
M  V30 6238 N 620.802 -1.09834 -1.13024 0
M  V30 6239 C 621.732 -0.763451 -2.20666 0
M  V30 6240 C 622.713 0.260778 -1.68089 0
M  V30 6241 O 623.898 0.127915 -1.93778 0
M  V30 6242 C 621.028 -0.187744 -3.46792 0
M  V30 6243 C 619.982 -1.14196 -4.12484 0
M  V30 6244 C 619.308 -0.427755 -5.32986 0
M  V30 6245 C 620.608 -2.48607 -4.59338 0
M  V30 6246 H 622.302 -1.66347 -2.48936 0
M  V30 6247 H 619.848 -0.801261 -1.19649 0
M  V30 6248 H 621.801 0.0586375 -4.21359 0
M  V30 6249 H 620.525 0.747485 -3.17931 0
M  V30 6250 H 619.184 -1.37369 -3.3989 0
M  V30 6251 H 618.832 0.511747 -5.0039 0
M  V30 6252 H 618.532 -1.06403 -5.77886 0
M  V30 6253 H 620.056 -0.189772 -6.10305 0
M  V30 6254 H 621.47 -2.29618 -5.25308 0
M  V30 6255 H 619.867 -3.08062 -5.14993 0
M  V30 6256 H 620.937 -3.09062 -3.73642 0
M  V30 6257 N 622.28 1.30327 -0.886154 0
M  V30 6258 C 623.526 1.96388 -0.505941 0
M  V30 6259 C 623.859 1.69784 0.942712 0
M  V30 6260 O 623.134 1.00322 1.6663 0
M  V30 6261 C 623.417 3.51488 -0.782826 0
M  V30 6262 C 623.27 3.87603 -2.28219 0
M  V30 6263 C 624.589 4.39331 -0.260128 0
M  V30 6264 H 621.708 0.713327 -0.185292 0
M  V30 6265 H 624.35 1.54178 -1.11036 0
M  V30 6266 H 622.5 3.87572 -0.268399 0
M  V30 6267 H 624.172 3.61537 -2.86512 0
M  V30 6268 H 622.415 3.3563 -2.74837 0
M  V30 6269 H 623.086 4.95806 -2.42653 0
M  V30 6270 H 625.562 4.10162 -0.700444 0
M  V30 6271 H 624.438 5.46769 -0.483179 0
M  V30 6272 H 624.699 4.34072 0.838674 0
M  V30 6273 N 623.758 0.647228 1.43697 0
M  V30 6274 C 624.705 -0.0480092 2.3075 0
M  V30 6275 C 625.675 -0.820705 1.44408 0
M  V30 6276 O 626.86 -0.798515 1.73287 0
M  V30 6277 C 624 -1.01259 3.2991 0
M  V30 6278 C 623.113 -0.236629 4.31351 0
M  V30 6279 C 622.248 -1.19447 5.17596 0
M  V30 6280 C 621.287 -0.408595 6.10735 0
M  V30 6281 N 620.424 -1.31772 6.89623 0
M  V30 6282 H 625.264 0.700238 2.89656 0
M  V30 6283 H 622.801 0.357082 1.427 0
M  V30 6284 H 624.759 -1.58538 3.85903 0
M  V30 6285 H 623.389 -1.72778 2.72667 0
M  V30 6286 H 622.441 0.452353 3.77701 0
M  V30 6287 H 623.753 0.374731 4.9739 0
M  V30 6288 H 622.907 -1.83809 5.78186 0
M  V30 6289 H 621.646 -1.83975 4.51669 0
M  V30 6290 H 620.651 0.24841 5.49239 0
M  V30 6291 H 621.876 0.232188 6.78703 0
M  V30 6292 H 619.822 -1.94991 6.2635 0
M  V30 6293 H 619.739 -0.760779 7.52162 0
M  V30 6294 H 621.007 -1.94967 7.54724 0
M  V30 6295 N 625.236 -1.5273 0.388769 0
M  V30 6296 C 626.485 -2.00757 -0.194833 0
M  V30 6297 C 626.798 -1.27951 -1.47946 0
M  V30 6298 O 628.004 -1.66686 -2.14308 0
M  V30 6299 C 626.46 -3.57695 -0.397762 0
M  V30 6300 C 626.068 -4.394 0.873583 0
M  V30 6301 C 627.812 -4.14012 -0.937759 0
M  V30 6302 C 625.719 -5.87938 0.638962 0
M  V30 6303 H 624.649 -0.750101 -0.0765845 0
M  V30 6304 H 627.3 -1.76239 0.511086 0
M  V30 6305 H 625.682 -3.7846 -1.16552 0
M  V30 6306 H 626.856 -4.30403 1.64591 0
M  V30 6307 H 625.171 -3.94301 1.33849 0
M  V30 6308 H 627.768 -5.22645 -1.12899 0
M  V30 6309 H 628.111 -3.7007 -1.90666 0
M  V30 6310 H 628.644 -3.97137 -0.229588 0
M  V30 6311 H 625.383 -6.36202 1.57885 0
M  V30 6312 H 624.903 -5.99726 -0.094443 0
M  V30 6313 H 626.582 -6.46423 0.273299 0
M  V30 6314 N 626.714 -0.118576 -1.57153 0
M  V30 6315 C 627.963 0.539339 -1.94355 0
M  V30 6316 C 628.276 1.67858 -1.00415 0
M  V30 6317 O 629.482 2.39922 -1.27081 0
M  V30 6318 C 627.938 1.01082 -3.45414 0
M  V30 6319 C 627.546 -0.0999402 -4.47889 0
M  V30 6320 C 629.29 1.64013 -3.91535 0
M  V30 6321 C 627.197 0.388212 -5.90124 0
M  V30 6322 H 626.127 0.205247 -0.725527 0
M  V30 6323 H 628.778 -0.19836 -1.82425 0
M  V30 6324 H 627.16 1.80292 -3.52577 0
M  V30 6325 H 628.334 -0.876189 -4.52393 0
M  V30 6326 H 626.649 -0.635885 -4.11516 0
M  V30 6327 H 629.246 2.01649 -4.95219 0
M  V30 6328 H 629.589 2.51836 -3.31488 0
M  V30 6329 H 630.122 0.913439 -3.87171 0
M  V30 6330 H 626.861 -0.453963 -6.53926 0
M  V30 6331 H 626.381 1.13095 -5.89041 0
M  V30 6332 H 628.06 0.849574 -6.41398 0
M  V30 6333 N 628.193 1.56834 0.155195 0
M  V30 6334 C 629.47 1.73799 0.897395 0
M  V30 6335 C 629.85 0.684379 1.99698 0
M  V30 6336 O 629.198 -0.298111 2.26547 0
M  V30 6337 C 629.408 3.17572 1.44737 0
M  V30 6338 C 630.756 3.79014 1.91399 0
M  V30 6339 O 631.78 3.20951 1.54496 0
M  V30 6340 O 630.639 4.80998 2.59429 0
M  V30 6341 H 627.733 0.710329 0.423511 0
M  V30 6342 H 630.279 1.69107 0.141761 0
M  V30 6343 H 629.051 3.85749 0.656741 0
M  V30 6344 H 628.674 3.26657 2.26674 0
M  V30 6345 N 629.671 -0.424282 1.51781 0
M  V30 6346 C 630.918 -1.1726 1.65095 0
M  V30 6347 C 631.246 -1.90881 0.373477 0
M  V30 6348 O 630.501 -1.84835 -0.642997 0
M  V30 6349 C 630.8 -2.20418 2.81337 0
M  V30 6350 C 630.466 -1.63715 4.20129 0
M  V30 6351 C 629.128 -1.47975 4.57883 0
M  V30 6352 C 631.48 -1.22157 5.06682 0
M  V30 6353 C 628.808 -0.891703 5.79884 0
M  V30 6354 C 631.16 -0.647767 6.29275 0
M  V30 6355 C 629.824 -0.477371 6.65791 0
M  V30 6356 H 629.094 -0.429085 0.604125 0
M  V30 6357 H 631.741 -0.461852 1.85847 0
M  V30 6358 H 630.046 -2.97581 2.54859 0
M  V30 6359 H 631.743 -2.78163 2.88836 0
M  V30 6360 H 628.333 -1.76946 3.90369 0
M  V30 6361 H 632.517 -1.33133 4.7811 0
M  V30 6362 H 627.773 -0.747563 6.06813 0
M  V30 6363 H 631.947 -0.317291 6.95677 0
M  V30 6364 H 629.574 -0.0195936 7.60197 0
M  V30 6365 N 631.149 -1.42148 -0.680565 0
M  V30 6366 C 632.397 -1.42029 -1.43779 0
M  V30 6367 C 632.718 -0.0356347 -1.94967 0
M  V30 6368 O 631.988 0.924936 -1.7269 0
M  V30 6369 H 630.568 -0.522835 -0.533529 0
M  V30 6370 H 633.23 -1.7752 -0.804538 0
M  V30 6371 H 632.326 -2.11658 -2.29363 0
M  V30 6372 N 632.627 0.916307 -1.28225 0
M  V30 6373 C 633.557 2.0352 -1.14464 0
M  V30 6374 C 634.538 1.70045 -0.0430844 0
M  V30 6375 O 635.723 1.92954 -0.219619 0
M  V30 6376 C 632.853 3.37889 -0.803027 0
M  V30 6377 C 631.807 3.85516 -1.85908 0
M  V30 6378 C 631.133 5.1682 -1.37116 0
M  V30 6379 C 632.433 4.07655 -3.26519 0
M  V30 6380 H 634.127 2.1529 -2.08064 0
M  V30 6381 H 631.673 1.03446 -1.00174 0
M  V30 6382 H 633.626 4.15654 -0.693537 0
M  V30 6383 H 632.35 3.26164 0.168674 0
M  V30 6384 H 631.009 3.09953 -1.95767 0
M  V30 6385 H 630.657 5.01497 -0.38859 0
M  V30 6386 H 630.357 5.49657 -2.07728 0
M  V30 6387 H 631.881 5.97143 -1.27484 0
M  V30 6388 H 633.295 4.75953 -3.19596 0
M  V30 6389 H 631.692 4.51818 -3.94943 0
M  V30 6390 H 632.762 3.12553 -3.70727 0
M  V30 6391 N 634.105 1.10431 1.1244 0
M  V30 6392 C 635.068 0.756542 2.16354 0
M  V30 6393 C 636.068 -0.21899 1.59302 0
M  V30 6394 O 637.258 0.00415969 1.742 0
M  V30 6395 C 634.39 0.120612 3.40687 0
M  V30 6396 H 635.583 1.67696 2.48632 0
M  V30 6397 H 633.136 0.904832 1.27446 0
M  V30 6398 H 633.871 -0.810536 3.14008 0
M  V30 6399 H 633.656 0.822693 3.83372 0
M  V30 6400 H 635.146 -0.106945 4.17463 0
M  V30 6401 N 635.583 -1.29855 0.893053 0
M  V30 6402 C 636.999 -1.48366 0.588199 0
M  V30 6403 C 637.199 -1.81654 -0.872018 0
M  V30 6404 O 636.255 -1.909 -1.65268 0
M  V30 6405 C 637.568 -2.60136 1.5083 0
M  V30 6406 C 639.116 -2.74014 1.51279 0
M  V30 6407 C 639.591 -3.88905 2.41902 0
M  V30 6408 N 641.082 -3.96228 2.39911 0
M  V30 6409 C 641.817 -4.84458 3.06738 0
M  V30 6410 N 641.313 -5.77426 3.8282 0
M  V30 6411 N 643.106 -4.77894 2.95929 0
M  V30 6412 H 635.257 -1.06522 1.83757 0
M  V30 6413 H 637.52 -0.528495 0.787018 0
M  V30 6414 H 637.226 -2.42383 2.54839 0
M  V30 6415 H 637.1 -3.56793 1.22388 0
M  V30 6416 H 639.487 -2.91167 0.480179 0
M  V30 6417 H 639.568 -1.77952 1.83757 0
M  V30 6418 H 639.212 -3.72508 3.45253 0
M  V30 6419 H 639.142 -4.84322 2.06737 0
M  V30 6420 H 641.633 -3.29728 1.84629 0
M  V30 6421 H 641.946 -6.41529 4.30883 0
M  V30 6422 H 640.291 -5.77332 3.86927 0
M  V30 6423 H 643.482 -4.04248 2.36012 0
M  V30 6424 H 643.655 -5.46444 3.48286 0
M  V30 6425 N 637.061 -0.65484 -1.43351 0
M  V30 6426 C 638.477 -0.32255 -1.56307 0
M  V30 6427 C 638.677 1.17324 -1.63821 0
M  V30 6428 O 637.733 1.95813 -1.59417 0
M  V30 6429 C 639.046 -1.03533 -2.82314 0
M  V30 6430 C 640.594 -1.01574 -2.9606 0
M  V30 6431 C 641.069 -1.70945 -4.24902 0
M  V30 6432 N 642.56 -1.67716 -4.3177 0
M  V30 6433 C 643.295 -2.18265 -5.30234 0
M  V30 6434 N 642.791 -2.7711 -6.34966 0
M  V30 6435 N 644.584 -2.08756 -5.21898 0
M  V30 6436 H 636.735 -1.62549 -1.36717 0
M  V30 6437 H 638.998 -0.683676 -0.656727 0
M  V30 6438 H 638.704 -2.09045 -2.8283 0
M  V30 6439 H 638.578 -0.587913 -3.7259 0
M  V30 6440 H 640.965 0.0309834 -2.95084 0
M  V30 6441 H 641.046 -1.50186 -2.07069 0
M  V30 6442 H 640.69 -2.75574 -4.26639 0
M  V30 6443 H 640.62 -1.19797 -5.12793 0
M  V30 6444 H 643.111 -1.24777 -3.56706 0
M  V30 6445 H 643.424 -3.13353 -7.06421 0
M  V30 6446 H 641.769 -2.81171 -6.35585 0
M  V30 6447 H 644.96 -1.62488 -4.38994 0
M  V30 6448 H 645.133 -2.48459 -5.98475 0
M  V30 6449 N 638.539 1.52521 -0.396863 0
M  V30 6450 C 639.769 2.05792 0.182485 0
M  V30 6451 C 640.177 1.26784 1.40436 0
M  V30 6452 O 639.52 0.309617 1.81072 0
M  V30 6453 C 639.582 3.54291 0.609781 0
M  V30 6454 C 639.246 4.5426 -0.499674 0
M  V30 6455 C 640.243 5.01812 -1.35944 0
M  V30 6456 C 637.928 4.97827 -0.668864 0
M  V30 6457 C 639.922 5.91562 -2.37346 0
M  V30 6458 C 637.609 5.87376 -1.68621 0
M  V30 6459 C 638.607 6.34137 -2.53692 0
M  V30 6460 O 638.295 7.21915 -3.53686 0
M  V30 6461 H 638.027 0.675362 0.0293583 0
M  V30 6462 H 640.581 1.97539 -0.56281 0
M  V30 6463 H 638.811 3.60188 1.40717 0
M  V30 6464 H 640.5 3.90267 1.11565 0
M  V30 6465 H 641.266 4.68879 -1.24008 0
M  V30 6466 H 637.145 4.60997 -0.0163971 0
M  V30 6467 H 640.689 6.27983 -3.03782 0
M  V30 6468 H 636.586 6.19723 -1.80593 0
M  V30 6469 H 637.354 7.39996 -3.49784 0
M  V30 6470 N 640.017 0.126909 1.57088 0
M  V30 6471 C 640.965 -0.837618 2.16995 0
M  V30 6472 C 641.959 -1.26974 1.12133 0
M  V30 6473 O 643.165 -1.24056 1.30423 0
M  V30 6474 H 639.54 -0.288256 0.694559 0
M  V30 6475 H 641.511 -0.307957 2.96807 0
M  V30 6476 C 640.26 -2.07474 2.79016 0
M  V30 6477 H 639.583 -1.75117 3.59408 0
M  V30 6478 H 641.023 -2.72949 3.24461 0
M  V30 6479 C 639.482 -2.86967 1.76498 0
M  V30 6480 O 640.012 -3.82625 1.22316 0
M  V30 6481 N 638.218 -2.51111 1.46258 0
M  V30 6482 H 637.765 -1.73389 1.90509 0
M  V30 6483 H 637.723 -3.04594 0.779085 0
M  V30 6484 N 641.495 -1.56914 -0.146875 0
M  V30 6485 C 642.906 -1.72799 -0.706928 0
M  V30 6486 C 643.257 -0.741329 -1.81656 0
M  V30 6487 O 642.382 0.0920162 -2.16204 0
M  V30 6488 C 642.977 -3.13317 -1.28911 0
M  V30 6489 C 641.536 -3.30803 -1.79573 0
M  V30 6490 C 640.683 -2.68725 -0.684252 0
M  V30 6491 H 643.634 -1.58504 0.0787931 0
M  V30 6492 H 643.655 -3.13323 -2.15891 0
M  V30 6493 H 643.167 -3.85104 -0.481284 0
M  V30 6494 H 641.268 -2.64012 -2.62923 0
M  V30 6495 H 641.381 -4.38754 -1.92436 0
M  V30 6496 H 639.745 -2.29196 -1.11091 0
M  V30 6497 H 640.528 -3.43117 0.112134 0
M  V30 6498 N 642.974 0.416227 -1.52004 0
M  V30 6499 C 643.922 1.5272 -1.7544 0
M  V30 6500 C 644.916 1.57596 -0.621289 0
M  V30 6501 O 646.122 1.61087 -0.803172 0
M  V30 6502 H 642.497 0.507772 -0.554682 0
M  V30 6503 H 644.468 1.30136 -2.68528 0
M  V30 6504 C 643.217 2.90165 -1.91571 0
M  V30 6505 H 642.54 2.87154 -2.78178 0
M  V30 6506 H 643.98 3.67211 -2.11972 0
M  V30 6507 C 642.439 3.29947 -0.680942 0
M  V30 6508 O 642.969 4.01403 0.154527 0
M  V30 6509 N 641.175 2.8593 -0.518894 0
M  V30 6510 H 640.722 2.2795 -1.19986 0
M  V30 6511 H 640.68 3.12907 0.305985 0
M  V30 6512 N 644.452 1.42507 0.673017 0
M  V30 6513 C 645.362 1.4853 1.81593 0
M  V30 6514 C 646.378 0.373907 1.69935 0
M  V30 6515 O 647.554 0.625078 1.91454 0
M  V30 6516 C 644.619 1.387 3.17747 0
M  V30 6517 C 643.68 2.60346 3.41348 0
M  V30 6518 C 642.913 2.50975 4.71007 0
M  V30 6519 O 643.136 1.54659 5.49033 0
M  V30 6520 O 642.07 3.41138 4.95892 0
M  V30 6521 H 645.896 2.45001 1.79467 0
M  V30 6522 H 643.481 1.2429 0.82899 0
M  V30 6523 H 645.363 1.35586 3.98992 0
M  V30 6524 H 644.038 0.453555 3.20507 0
M  V30 6525 H 642.945 2.69034 2.59945 0
M  V30 6526 H 644.278 3.52595 3.43421 0
M  V30 6527 N 645.93 -0.909495 1.28709 0
M  V30 6528 C 646.877 -2.01245 1.13 0
M  V30 6529 C 647.847 -1.6608 0.0259684 0
M  V30 6530 O 649.032 -1.89835 0.191687 0
M  V30 6531 C 646.172 -3.35644 0.802315 0
M  V30 6532 C 645.285 -3.83653 1.98582 0
M  V30 6533 C 644.42 -5.06582 1.59837 0
M  V30 6534 C 643.459 -5.46934 2.74827 0
M  V30 6535 N 642.596 -6.61053 2.36546 0
M  V30 6536 H 647.436 -2.14013 2.0737 0
M  V30 6537 H 644.973 -1.0482 1.03205 0
M  V30 6538 H 646.931 -4.12963 0.593057 0
M  V30 6539 H 645.561 -3.22631 -0.104457 0
M  V30 6540 H 644.613 -3.02454 2.30708 0
M  V30 6541 H 645.925 -4.09515 2.84779 0
M  V30 6542 H 645.079 -5.91457 1.35143 0
M  V30 6543 H 643.818 -4.82537 0.707753 0
M  V30 6544 H 642.823 -4.60599 3.00215 0
M  V30 6545 H 644.048 -5.72965 3.64538 0
M  V30 6546 H 641.994 -6.3863 1.49959 0
M  V30 6547 H 641.911 -6.86662 3.16277 0
M  V30 6548 H 643.179 -7.49221 2.15146 0
M  V30 6549 N 647.408 -1.11026 -1.11852 0
M  V30 6550 C 648.338 -0.786812 -2.19844 0
M  V30 6551 C 649.319 0.242935 -1.68356 0
M  V30 6552 O 650.504 0.107355 -1.93903 0
M  V30 6553 C 647.634 -0.224516 -3.46574 0
M  V30 6554 C 646.588 -1.18564 -4.1125 0
M  V30 6555 C 645.914 -0.484261 -5.32503 0
M  V30 6556 C 647.214 -2.53465 -4.56676 0
M  V30 6557 H 648.908 -1.68978 -2.47158 0
M  V30 6558 H 646.454 -0.813906 -1.18792 0
M  V30 6559 H 648.407 0.0139435 -4.21398 0
M  V30 6560 H 647.131 0.713722 -3.18706 0
M  V30 6561 H 645.79 -1.40966 -3.38414 0
M  V30 6562 H 645.438 0.458646 -5.00905 0
M  V30 6563 H 645.138 -1.12526 -5.76725 0
M  V30 6564 H 646.662 -0.254492 -6.10069 0
M  V30 6565 H 648.076 -2.35177 -5.22843 0
M  V30 6566 H 646.473 -3.13507 -5.11697 0
M  V30 6567 H 647.543 -3.13008 -3.70343 0
M  V30 6568 N 648.886 1.2938 -0.899927 0
M  V30 6569 C 649.833 2.27713 -0.376243 0
M  V30 6570 C 650.803 1.57016 0.541774 0
M  V30 6571 O 651.988 1.84997 0.466966 0
M  V30 6572 C 649.128 3.42889 0.39 0
M  V30 6573 C 648.241 4.28369 -0.558938 0
M  V30 6574 C 647.376 5.30726 0.224379 0
M  V30 6575 C 646.415 6.07862 -0.719068 0
M  V30 6576 N 645.552 7.02094 0.0298569 0
M  V30 6577 H 650.392 2.71888 -1.21988 0
M  V30 6578 H 647.929 1.33724 -0.612879 0
M  V30 6579 H 649.887 4.08443 0.850314 0
M  V30 6580 H 648.517 2.99743 1.19809 0
M  V30 6581 H 647.569 3.62986 -1.13777 0
M  V30 6582 H 648.881 4.82068 -1.2811 0
M  V30 6583 H 648.035 6.02098 0.745881 0
M  V30 6584 H 646.774 4.77759 0.979674 0
M  V30 6585 H 645.779 5.35353 -1.25207 0
M  V30 6586 H 647.004 6.62917 -1.4737 0
M  V30 6587 H 644.95 6.51496 0.767415 0
M  V30 6588 H 644.867 7.5335 -0.632391 0
M  V30 6589 H 646.135 7.77685 0.531615 0
M  V30 6590 N 650.364 0.662433 1.43002 0
M  V30 6591 C 651.61 0.179857 2.02001 0
M  V30 6592 C 651.943 -1.20625 1.52195 0
M  V30 6593 O 651.218 -1.80726 0.718911 0
M  V30 6594 C 651.501 0.200845 3.59539 0
M  V30 6595 C 651.354 1.62153 4.19555 0
M  V30 6596 C 652.673 -0.457738 4.37713 0
M  V30 6597 H 649.792 0.0668305 0.733964 0
M  V30 6598 H 652.434 0.84487 1.70182 0
M  V30 6599 H 650.584 -0.365411 3.86778 0
M  V30 6600 H 652.256 2.23908 4.03315 0
M  V30 6601 H 650.499 2.16601 3.75854 0
M  V30 6602 H 651.17 1.58799 5.28665 0
M  V30 6603 H 653.646 0.0241495 4.16093 0
M  V30 6604 H 652.522 -0.412363 5.47349 0
M  V30 6605 H 652.783 -1.53336 4.14657 0
M  V30 6606 N 651.842 -1.52309 0.404946 0
M  V30 6607 C 652.79 -2.28452 -0.437321 0
M  V30 6608 C 653.784 -1.32975 -1.04948 0
M  V30 6609 O 654.99 -1.50451 -0.988159 0
M  V30 6610 H 651.365 -0.734824 -0.159805 0
M  V30 6611 H 653.336 -2.97542 0.22615 0
M  V30 6612 C 652.085 -3.11536 -1.54404 0
M  V30 6613 H 651.408 -3.84871 -1.08233 0
M  V30 6614 H 652.848 -3.67926 -2.10729 0
M  V30 6615 C 651.307 -2.24833 -2.50902 0
M  V30 6616 O 651.837 -1.88574 -3.54687 0
M  V30 6617 N 650.043 -1.88685 -2.21012 0
M  V30 6618 H 649.59 -2.18371 -1.36646 0
M  V30 6619 H 649.548 -1.30966 -2.85824 0
M  V30 6620 N 653.32 -0.135238 -1.57019 0
M  V30 6621 C 654.567 0.518794 -1.95742 0
M  V30 6622 C 654.895 1.65642 -1.01947 0
M  V30 6623 O 654.15 1.95645 -0.0464016 0
M  V30 6624 C 654.449 1.07694 -3.40788 0
M  V30 6625 C 654.115 0.058992 -4.50861 0
M  V30 6626 C 652.777 -0.220872 -4.80693 0
M  V30 6627 C 655.129 -0.633856 -5.17331 0
M  V30 6628 C 652.457 -1.19959 -5.74305 0
M  V30 6629 C 654.809 -1.60131 -6.11997 0
M  V30 6630 C 653.473 -1.889 -6.40213 0
M  V30 6631 H 652.743 0.18984 -0.716269 0
M  V30 6632 H 655.39 -0.219581 -1.90237 0
M  V30 6633 H 653.695 1.89241 -3.43067 0
M  V30 6634 H 655.392 1.59137 -3.68071 0
M  V30 6635 H 651.982 0.287304 -4.27636 0
M  V30 6636 H 656.166 -0.430823 -4.94427 0
M  V30 6637 H 651.422 -1.42905 -5.94465 0
M  V30 6638 H 655.596 -2.14376 -6.62583 0
M  V30 6639 H 653.223 -2.64891 -7.12556 0
M  V30 6640 N 654.798 1.5699 0.138552 0
M  V30 6641 C 656.046 1.83446 0.848053 0
M  V30 6642 C 656.367 0.71744 1.81322 0
M  V30 6643 O 655.637 -0.260228 1.94164 0
M  V30 6644 H 654.217 0.676792 0.316166 0
M  V30 6645 H 656.879 1.94462 0.130538 0
M  V30 6646 H 655.975 2.78677 1.40518 0
M  V30 6647 N 656.276 -0.40816 1.52223 0
M  V30 6648 C 657.504 -1.17672 1.70179 0
M  V30 6649 C 657.919 -1.84257 0.411696 0
M  V30 6650 O 657.276 -1.7192 -0.612354 0
M  V30 6651 C 657.327 -2.23911 2.83806 0
M  V30 6652 O 657.048 -1.60044 4.0782 0
M  V30 6653 C 658.549 -3.1364 3.13281 0
M  V30 6654 H 655.769 -0.353562 0.570293 0
M  V30 6655 H 658.313 -0.480083 1.98785 0
M  V30 6656 H 656.468 -2.89242 2.57717 0
M  V30 6657 H 656.882 -2.30484 4.71145 0
M  V30 6658 H 658.356 -3.84255 3.96298 0
M  V30 6659 H 658.833 -3.76066 2.26872 0
M  V30 6660 H 659.439 -2.53977 3.41139 0
M  V30 6661 N 657.755 -1.42862 -0.66545 0
M  V30 6662 C 659.166 -1.3901 -1.24632 0
M  V30 6663 C 659.517 -0.0880285 -1.96002 0
M  V30 6664 O 658.642 0.812947 -2.0055 0
M  V30 6665 C 659.237 -2.51806 -2.2667 0
M  V30 6666 C 657.796 -2.51257 -2.80262 0
M  V30 6667 C 656.943 -2.30124 -1.5472 0
M  V30 6668 H 659.894 -1.5194 -0.458237 0
M  V30 6669 H 659.915 -2.22593 -3.08598 0
M  V30 6670 H 659.427 -3.46558 -1.74697 0
M  V30 6671 H 657.528 -1.60349 -3.36332 0
M  V30 6672 H 657.641 -3.48614 -3.28641 0
M  V30 6673 H 656.005 -1.7856 -1.81627 0
M  V30 6674 H 656.788 -3.26945 -1.04699 0
M  V30 6675 N 659.233 0.902656 -1.29189 0
M  V30 6676 C 660.143 2.03946 -1.15944 0
M  V30 6677 C 661.159 1.738 -0.0833803 0
M  V30 6678 O 662.335 1.9923 -0.29487 0
M  V30 6679 C 659.4 3.36519 -0.834006 0
M  V30 6680 C 658.461 3.80203 -1.9936 0
M  V30 6681 C 657.694 5.06449 -1.68359 0
M  V30 6682 O 657.917 5.67202 -0.603141 0
M  V30 6683 O 656.851 5.46114 -2.53067 0
M  V30 6684 H 660.677 2.18043 -2.11403 0
M  V30 6685 H 658.262 1.02584 -1.08613 0
M  V30 6686 H 660.144 4.16089 -0.666949 0
M  V30 6687 H 658.819 3.23573 0.0908245 0
M  V30 6688 H 657.726 3.01413 -2.21588 0
M  V30 6689 H 659.059 3.97729 -2.89952 0
M  V30 6690 N 660.711 1.11618 1.11262 0
M  V30 6691 C 661.958 0.86618 1.8304 0
M  V30 6692 C 662.286 -0.608149 1.84748 0
M  V30 6693 O 661.541 -1.46508 1.29745 0
M  V30 6694 C 661.84 1.37529 3.2988 0
M  V30 6695 C 661.506 2.86317 3.4833 0
M  V30 6696 C 660.168 3.26945 3.53073 0
M  V30 6697 C 662.52 3.82136 3.54431 0
M  V30 6698 C 659.848 4.62117 3.61475 0
M  V30 6699 C 662.2 5.17128 3.64365 0
M  V30 6700 C 660.864 5.57312 3.67369 0
M  V30 6701 H 660.134 0.316958 0.66979 0
M  V30 6702 H 662.781 1.3949 1.31205 0
M  V30 6703 H 661.086 0.766842 3.84222 0
M  V30 6704 H 662.783 1.15817 3.83911 0
M  V30 6705 H 659.373 2.53889 3.45309 0
M  V30 6706 H 663.557 3.51847 3.50025 0
M  V30 6707 H 658.813 4.92655 3.62079 0
M  V30 6708 H 662.987 5.91208 3.68029 0
M  V30 6709 H 660.614 6.62045 3.73632 0
M  V30 6710 N 662.189 -1.289 0.906776 0
M  V30 6711 C 663.119 -2.29932 0.406659 0
M  V30 6712 C 664.1 -1.6189 -0.522061 0
M  V30 6713 O 665.285 -1.8935 -0.431283 0
M  V30 6714 C 662.415 -3.45425 -0.360366 0
M  V30 6715 C 661.369 -4.25316 0.478574 0
M  V30 6716 C 660.695 -5.33076 -0.416373 0
M  V30 6717 C 661.995 -4.92739 1.7322 0
M  V30 6718 H 663.689 -2.72013 1.25097 0
M  V30 6719 H 661.235 -1.30768 0.602977 0
M  V30 6720 H 663.188 -4.15186 -0.721029 0
M  V30 6721 H 661.912 -3.02206 -1.23852 0
M  V30 6722 H 660.571 -3.57273 0.821662 0
M  V30 6723 H 660.219 -4.86101 -1.29287 0
M  V30 6724 H 659.919 -5.8743 0.141309 0
M  V30 6725 H 661.443 -6.05686 -0.773072 0
M  V30 6726 H 662.857 -5.54898 1.44086 0
M  V30 6727 H 661.254 -5.57057 2.23175 0
M  V30 6728 H 662.324 -4.17625 2.46408 0
M  V30 6729 N 663.667 -0.670007 -1.42649 0
M  V30 6730 C 664.892 -0.196955 -2.06463 0
M  V30 6731 C 665.317 1.1352 -1.49983 0
M  V30 6732 O 664.675 1.705 -0.616397 0
M  V30 6733 C 664.723 -0.137381 -3.60338 0
M  V30 6734 O 663.827 0.895523 -4.02559 0
M  V30 6735 H 663.168 -0.102579 -0.656029 0
M  V30 6736 H 665.698 -0.917669 -1.82866 0
M  V30 6737 H 665.708 0.0403625 -4.0798 0
M  V30 6738 H 664.383 -1.10977 -4.0082 0
M  V30 6739 H 662.96 0.689209 -3.66476 0
M  V30 6740 N 665.145 1.52092 -0.413018 0
M  V30 6741 C 666.556 1.86617 0.0556967 0
M  V30 6742 C 666.907 1.33156 1.44097 0
M  V30 6743 O 666.032 0.672417 2.05688 0
M  V30 6744 C 666.627 3.38628 0.107844 0
M  V30 6745 C 665.186 3.72778 0.520904 0
M  V30 6746 C 664.333 2.75649 -0.302109 0
M  V30 6747 H 667.284 1.45663 -0.629919 0
M  V30 6748 H 667.305 3.69152 0.922324 0
M  V30 6749 H 666.817 3.77508 -0.900506 0
M  V30 6750 H 664.918 3.39478 1.53575 0
M  V30 6751 H 665.031 4.7838 0.262591 0
M  V30 6752 H 663.395 2.53603 0.236115 0
M  V30 6753 H 664.178 3.17369 -1.30888 0
M  V30 6754 N 666.623 0.143563 1.56945 0
M  V30 6755 C 667.533 -0.810562 2.20152 0
M  V30 6756 C 668.549 -1.27431 1.1848 0
M  V30 6757 O 669.725 -1.33221 1.51044 0
M  V30 6758 C 666.79 -2.03353 2.80799 0
M  V30 6759 C 665.851 -1.61936 3.97587 0
M  V30 6760 C 665.084 -2.78403 4.55332 0
M  V30 6761 O 665.307 -3.94521 4.11958 0
M  V30 6762 O 664.241 -2.54073 5.45647 0
M  V30 6763 H 668.067 -0.30253 3.02189 0
M  V30 6764 H 665.652 -0.0832925 1.49168 0
M  V30 6765 H 667.534 -2.74932 3.19359 0
M  V30 6766 H 666.209 -2.53116 2.01777 0
M  V30 6767 H 665.116 -0.873904 3.6375 0
M  V30 6768 H 666.449 -1.16892 4.78118 0
M  V30 6769 N 668.101 -1.57061 -0.130224 0
M  V30 6770 C 669.347 -1.8453 -0.841216 0
M  V30 6771 C 669.68 -0.727666 -1.80052 0
M  V30 6772 O 668.955 0.267419 -1.92653 0
M  V30 6773 C 669.238 -3.22553 -1.60099 0
M  V30 6774 C 669.091 -4.44901 -0.662048 0
M  V30 6775 C 670.41 -3.58003 -2.55973 0
M  V30 6776 H 667.529 -0.671215 -0.304366 0
M  V30 6777 H 670.171 -1.89705 -0.105821 0
M  V30 6778 H 668.321 -3.18272 -2.22789 0
M  V30 6779 H 669.993 -4.61278 -0.0448559 0
M  V30 6780 H 668.236 -4.33791 0.0272253 0
M  V30 6781 H 668.907 -5.3812 -1.23006 0
M  V30 6782 H 671.383 -3.63002 -2.03393 0
M  V30 6783 H 670.259 -4.55576 -3.06172 0
M  V30 6784 H 670.52 -2.84833 -3.38116 0
M  V30 6785 N 669.579 0.400081 -1.52437 0
M  V30 6786 C 670.825 1.14788 -1.67187 0
M  V30 6787 C 671.158 1.89928 -0.405074 0
M  V30 6788 O 670.433 1.85118 0.596804 0
M  V30 6789 C 670.716 2.13507 -2.89977 0
M  V30 6790 C 670.569 1.42204 -4.2673 0
M  V30 6791 C 671.888 3.14069 -3.083 0
M  V30 6792 H 669.007 0.415939 -0.608411 0
M  V30 6793 H 671.649 0.432542 -1.85011 0
M  V30 6794 H 669.799 2.7451 -2.74912 0
M  V30 6795 H 671.471 0.842503 -4.53541 0
M  V30 6796 H 669.714 0.723939 -4.27717 0
M  V30 6797 H 670.385 2.14281 -5.08712 0
M  V30 6798 H 672.861 2.63148 -3.22323 0
M  V30 6799 H 671.737 3.80398 -3.95713 0
M  V30 6800 H 671.998 3.82309 -2.22018 0
M  V30 6801 N 671.057 1.43213 0.657864 0
M  V30 6802 C 672.005 1.48271 1.79216 0
M  V30 6803 C 672.999 0.35675 1.65601 0
M  V30 6804 O 674.205 0.530535 1.72004 0
M  V30 6805 H 670.58 0.464729 0.591211 0
M  V30 6806 H 672.551 2.43792 1.7207 0
M  V30 6807 C 671.3 1.41837 3.17455 0
M  V30 6808 H 670.623 2.27781 3.28567 0
M  V30 6809 H 672.063 1.49438 3.96793 0
M  V30 6810 C 670.522 0.135347 3.36628 0
M  V30 6811 O 671.052 -0.805199 3.93547 0
M  V30 6812 N 669.258 0.0470316 2.90562 0
M  V30 6813 H 668.805 0.813221 2.44427 0
M  V30 6814 H 668.763 -0.810737 3.03767 0
M  V30 6815 N 672.536 -0.895792 1.29666 0
M  V30 6816 C 673.766 -1.67757 1.20586 0
M  V30 6817 C 674.174 -1.87729 -0.235432 0
M  V30 6818 O 673.517 -1.41706 -1.16898 0
M  V30 6819 C 673.579 -3.08117 1.85215 0
M  V30 6820 C 673.243 -3.1136 3.3452 0
M  V30 6821 C 674.24 -2.91217 4.30684 0
M  V30 6822 C 671.925 -3.33302 3.75786 0
M  V30 6823 C 673.919 -2.92955 5.66089 0
M  V30 6824 C 671.606 -3.3467 5.11311 0
M  V30 6825 C 672.604 -3.14519 6.06273 0
M  V30 6826 O 672.292 -3.15684 7.39323 0
M  V30 6827 H 672.024 -0.530601 0.418854 0
M  V30 6828 H 674.578 -1.12831 1.71634 0
M  V30 6829 H 672.808 -3.64661 1.28683 0
M  V30 6830 H 674.497 -3.68399 1.70403 0
M  V30 6831 H 675.263 -2.74074 4.00136 0
M  V30 6832 H 671.142 -3.48025 3.02324 0
M  V30 6833 H 674.686 -2.77145 6.40185 0
M  V30 6834 H 670.583 -3.51346 5.41504 0
M  V30 6835 H 671.351 -3.31924 7.48177 0
M  V30 6836 N 674.014 -1.12206 -1.10668 0
M  V30 6837 C 675.291 -0.787382 -1.79052 0
M  V30 6838 C 675.671 0.723267 -1.98323 0
M  V30 6839 O 675.019 1.6561 -1.57434 0
M  V30 6840 C 675.229 -1.55968 -3.1221 0
M  V30 6841 C 676.577 -1.74413 -3.87125 0
M  V30 6842 O 677.601 -1.5246 -3.21923 0
M  V30 6843 O 676.46 -2.10952 -5.04144 0
M  V30 6844 H 673.554 -0.286137 -0.775922 0
M  V30 6845 H 676.1 -1.22595 -1.1734 0
M  V30 6846 H 674.872 -2.58692 -2.93588 0
M  V30 6847 H 674.495 -1.1152 -3.8164 0
M  V30 6848 N 675.492 1.28418 -0.913599 0
M  V30 6849 C 676.424 2.26368 -0.359169 0
M  V30 6850 C 677.437 1.54858 0.502285 0
M  V30 6851 O 678.626 1.75659 0.31719 0
M  V30 6852 C 675.726 3.35112 0.50526 0
M  V30 6853 C 674.899 4.36126 -0.333648 0
M  V30 6854 C 673.958 5.24134 0.465845 0
M  V30 6855 O 672.984 5.6907 -0.121538 0
M  V30 6856 N 674.186 5.52892 1.76891 0
M  V30 6857 H 676.951 2.74579 -1.2011 0
M  V30 6858 H 674.512 1.41898 -0.779532 0
M  V30 6859 H 676.504 3.90926 1.04684 0
M  V30 6860 H 675.074 2.86611 1.2479 0
M  V30 6861 H 674.294 3.79776 -1.0566 0
M  V30 6862 H 675.582 5.00638 -0.907669 0
M  V30 6863 H 674.98 5.18217 2.26865 0
M  V30 6864 H 673.537 6.11464 2.25732 0
M  V30 6865 N 676.97 0.677563 1.42291 0
M  V30 6866 C 678.219 0.198173 2.00724 0
M  V30 6867 C 678.532 -1.20325 1.54211 0
M  V30 6868 O 679.738 -1.77916 2.05081 0
M  V30 6869 C 678.194 0.303432 3.58619 0
M  V30 6870 C 677.802 1.70909 4.14119 0
M  V30 6871 C 679.546 -0.117103 4.24338 0
M  V30 6872 C 677.453 1.76696 5.64387 0
M  V30 6873 H 676.383 0.070329 0.750713 0
M  V30 6874 H 679.034 0.843147 1.62982 0
M  V30 6875 H 677.416 -0.409482 3.93877 0
M  V30 6876 H 678.59 2.44931 3.90315 0
M  V30 6877 H 676.905 2.07771 3.6086 0
M  V30 6878 H 679.502 -0.0940471 5.34617 0
M  V30 6879 H 679.845 -1.15283 4.00019 0
M  V30 6880 H 680.378 0.5449 3.9405 0
M  V30 6881 H 677.117 2.7826 5.93508 0
M  V30 6882 H 676.637 1.07034 5.90173 0
M  V30 6883 H 678.316 1.52166 6.28852 0
M  V30 6884 N 678.448 -1.51871 0.421078 0
M  V30 6885 C 679.673 -2.0684 -0.152371 0
M  V30 6886 C 680.098 -1.28802 -1.37083 0
M  V30 6887 O 679.456 -0.321482 -1.78427 0
M  V30 6888 C 679.504 -3.57532 -0.469368 0
M  V30 6889 O 678.608 -3.81818 -1.55848 0
M  V30 6890 H 677.949 -0.663939 -0.00898586 0
M  V30 6891 H 680.479 -1.95674 0.597724 0
M  V30 6892 H 680.489 -4.01515 -0.724553 0
M  V30 6893 H 679.164 -4.13761 0.421276 0
M  V30 6894 H 677.741 -3.49709 -1.29453 0
M  V30 6895 N 679.926 -0.151884 -1.56866 0
M  V30 6896 C 681.203 0.543328 -1.87902 0
M  V30 6897 C 681.583 1.82636 -1.05864 0
M  V30 6898 O 680.931 2.28028 -0.146868 0
M  V30 6899 C 681.141 0.804056 -3.39611 0
M  V30 6900 C 682.489 1.14267 -4.08935 0
M  V30 6901 O 683.513 0.893248 -3.44818 0
M  V30 6902 O 682.372 1.61229 -5.22176 0
M  V30 6903 H 679.466 0.277724 -0.778973 0
M  V30 6904 H 682.012 -0.188862 -1.68646 0
M  V30 6905 H 680.784 -0.103772 -3.91162 0
M  V30 6906 H 680.407 1.59025 -3.64413 0
M  V30 6907 N 681.404 1.57128 0.121893 0
M  V30 6908 C 682.351 2.0013 1.14964 0
M  V30 6909 C 683.321 0.872959 1.4131 0
M  V30 6910 O 684.506 1.13696 1.53225 0
M  V30 6911 C 681.646 2.40824 2.4718 0
M  V30 6912 C 680.759 3.67061 2.27794 0
M  V30 6913 C 679.894 3.96749 3.53219 0
M  V30 6914 C 678.933 5.16178 3.28978 0
M  V30 6915 N 678.07 5.41751 4.46599 0
M  V30 6916 H 682.91 2.8772 0.775947 0
M  V30 6917 H 680.447 1.42328 0.371652 0
M  V30 6918 H 682.405 2.62454 3.24305 0
M  V30 6919 H 681.035 1.56279 2.82448 0
M  V30 6920 H 680.087 3.53063 1.416 0
M  V30 6921 H 681.399 4.5434 2.05857 0
M  V30 6922 H 680.553 4.19012 4.38764 0
M  V30 6923 H 679.292 3.07941 3.78185 0
M  V30 6924 H 678.297 4.93762 2.41824 0
M  V30 6925 H 679.522 6.06561 3.05386 0
M  V30 6926 H 677.468 4.55899 4.71691 0
M  V30 6927 H 677.385 6.23347 4.27756 0
M  V30 6928 H 678.653 5.68531 5.33285 0
M  V30 6929 N 682.882 -0.391992 1.52647 0
M  V30 6930 C 684.11 -1.1586 1.71418 0
M  V30 6931 C 684.525 -1.8381 0.431216 0
M  V30 6932 O 683.882 -1.7256 -0.594085 0
M  V30 6933 C 683.933 -2.20888 2.86165 0
M  V30 6934 O 683.654 -1.5571 4.09495 0
M  V30 6935 C 685.155 -3.103 3.1659 0
M  V30 6936 H 682.375 -0.347494 0.574011 0
M  V30 6937 H 684.919 -0.458972 1.99283 0
M  V30 6938 H 683.074 -2.86492 2.6077 0
M  V30 6939 H 683.488 -2.25474 4.73563 0
M  V30 6940 H 684.962 -3.8003 4.00351 0
M  V30 6941 H 685.439 -3.73639 2.30848 0
M  V30 6942 H 686.045 -2.50345 3.43813 0
M  V30 6943 N 684.36 -1.4356 -0.65026 0
M  V30 6944 C 685.637 -1.35811 -1.40765 0
M  V30 6945 C 686.017 -0.00736379 -2.11099 0
M  V30 6946 O 685.365 1.00932 -2.05 0
M  V30 6947 C 685.575 -2.54332 -2.3899 0
M  V30 6948 C 686.923 -2.97551 -3.02901 0
M  V30 6949 O 687.947 -2.544 -2.49317 0
M  V30 6950 O 686.806 -3.72311 -4.00059 0
M  V30 6951 H 683.9 -0.536861 -0.629054 0
M  V30 6952 H 686.446 -1.55615 -0.676919 0
M  V30 6953 H 685.218 -3.44274 -1.85986 0
M  V30 6954 H 684.841 -2.36643 -3.19509 0
M  V30 6955 N 685.838 0.888903 -1.30139 0
M  V30 6956 C 686.771 1.99655 -1.10514 0
M  V30 6957 C 687.749 1.62594 -0.0138934 0
M  V30 6958 O 688.933 1.87762 -0.166689 0
M  V30 6959 C 686.06 3.31708 -0.684655 0
M  V30 6960 C 685.106 3.87755 -1.77619 0
M  V30 6961 S 685.939 4.15532 -3.37777 0
M  V30 6962 C 687.095 5.5061 -2.97622 0
M  V30 6963 H 687.328 2.15996 -2.04287 0
M  V30 6964 H 684.861 1.03682 -1.14409 0
M  V30 6965 H 686.819 4.08039 -0.448782 0
M  V30 6966 H 685.48 3.1323 0.233648 0
M  V30 6967 H 684.673 4.83164 -1.43417 0
M  V30 6968 H 684.275 3.18149 -1.96614 0
M  V30 6969 H 686.567 6.31518 -2.45338 0
M  V30 6970 H 687.51 5.89747 -3.91924 0
M  V30 6971 H 687.918 5.12983 -2.35603 0
M  V30 6972 N 687.317 1.12792 1.10072 0
M  V30 6973 C 688.563 0.89679 1.82563 0
M  V30 6974 C 688.918 -0.571152 1.83727 0
M  V30 6975 O 688.211 -1.41697 1.28967 0
M  V30 6976 C 688.405 1.4102 3.28403 0
M  V30 6977 C 688.234 2.92652 3.41445 0
M  V30 6978 C 687.004 3.60928 3.53637 0
M  V30 6979 C 689.202 3.9063 3.34534 0
M  V30 6980 N 687.184 5.00638 3.55295 0
M  V30 6981 C 688.555 5.16492 3.42981 0
M  V30 6982 C 690.61 3.82989 3.18157 0
M  V30 6983 C 689.313 6.35609 3.3674 0
M  V30 6984 C 691.339 5.01633 3.13239 0
M  V30 6985 C 690.701 6.26355 3.22272 0
M  V30 6986 H 686.8 0.381482 0.682638 0
M  V30 6987 H 689.384 1.43491 1.31599 0
M  V30 6988 H 687.555 0.899077 3.77851 0
M  V30 6989 H 689.287 1.12075 3.88872 0
M  V30 6990 H 686.042 3.11429 3.56803 0
M  V30 6991 H 686.466 5.73521 3.59725 0
M  V30 6992 H 691.108 2.87454 3.10049 0
M  V30 6993 H 688.826 7.31407 3.43613 0
M  V30 6994 H 692.412 4.97454 3.01713 0
M  V30 6995 H 691.292 7.1662 3.18473 0
M  V30 6996 N 688.795 -1.27931 0.920396 0
M  V30 6997 C 690.02 -1.99343 0.572478 0
M  V30 6998 C 690.445 -1.68267 -0.840696 0
M  V30 6999 O 689.803 -0.918805 -1.56294 0
M  V30 7000 C 689.851 -3.51698 0.796284 0
M  V30 7001 O 688.955 -4.12157 -0.141602 0
M  V30 7002 H 688.296 -0.626065 0.221221 0
M  V30 7003 H 690.826 -1.62921 1.23765 0
M  V30 7004 H 690.836 -4.01793 0.708984 0
M  V30 7005 H 689.511 -3.73649 1.82644 0
M  V30 7006 H 688.088 -3.729 -0.005007 0
M  V30 7007 N 690.273 -0.685099 -1.4193 0
M  V30 7008 C 691.206 0.0371639 -2.2817 0
M  V30 7009 C 692.184 0.798436 -1.41647 0
M  V30 7010 O 693.368 0.791428 -1.71081 0
M  V30 7011 C 690.495 1.05993 -3.21688 0
M  V30 7012 C 689.541 0.393043 -4.24685 0
M  V30 7013 S 690.374 -0.856921 -5.28599 0
M  V30 7014 C 691.53 0.164508 -6.25684 0
M  V30 7015 H 691.763 -0.694305 -2.89079 0
M  V30 7016 H 689.296 -0.474999 -1.46912 0
M  V30 7017 H 691.254 1.64489 -3.76103 0
M  V30 7018 H 689.915 1.7639 -2.59895 0
M  V30 7019 H 689.108 1.16513 -4.90348 0
M  V30 7020 H 688.71 -0.118589 -3.73812 0
M  V30 7021 H 691.002 1.02106 -6.69762 0
M  V30 7022 H 691.945 -0.457917 -7.06618 0
M  V30 7023 H 692.353 0.514596 -5.6215 0
M  V30 7024 N 691.751 1.51645 -0.429126 0
M  V30 7025 C 692.999 2.01616 0.139802 0
M  V30 7026 C 693.32 1.31568 1.43927 0
M  V30 7027 O 692.59 0.447688 1.90716 0
M  V30 7028 H 691.17 0.744998 0.054654 0
M  V30 7029 H 693.832 1.8638 -0.569952 0
M  V30 7030 H 692.928 3.10439 0.321609 0
M  V30 7031 N 693.229 0.160201 1.56784 0
M  V30 7032 C 694.475 -0.48831 1.96833 0
M  V30 7033 C 694.808 -1.63641 1.04571 0
M  V30 7034 O 694.083 -1.94289 0.0906481 0
M  V30 7035 C 694.366 -0.981908 3.46454 0
M  V30 7036 C 694.219 0.165607 4.49495 0
M  V30 7037 C 695.538 -1.85931 3.98896 0
M  V30 7038 H 692.657 -0.176027 0.71567 0
M  V30 7039 H 695.299 0.244093 1.88426 0
M  V30 7040 H 693.449 -1.60602 3.5375 0
M  V30 7041 H 695.121 0.802372 4.54268 0
M  V30 7042 H 693.364 0.822789 4.25926 0
M  V30 7043 H 694.035 -0.221699 5.51555 0
M  V30 7044 H 696.511 -1.33327 3.94161 0
M  V30 7045 H 695.387 -2.17373 5.04024 0
M  V30 7046 H 695.648 -2.80106 3.42042 0
M  V30 7047 N 694.707 -1.5719 -0.113559 0
M  V30 7048 C 695.956 -1.84325 -0.818984 0
M  V30 7049 C 696.269 -0.746685 -1.80787 0
M  V30 7050 O 697.475 -0.904596 -2.55987 0
M  V30 7051 C 695.931 -3.26818 -1.50724 0
M  V30 7052 C 695.539 -4.44498 -0.559065 0
M  V30 7053 C 697.283 -3.63196 -2.19748 0
M  V30 7054 C 695.19 -5.7802 -1.25086 0
M  V30 7055 H 694.12 -0.687507 -0.309596 0
M  V30 7056 H 696.771 -1.8336 -0.0717621 0
M  V30 7057 H 695.153 -3.22269 -2.30128 0
M  V30 7058 H 696.327 -4.60356 0.202146 0
M  V30 7059 H 694.642 -4.16393 0.024495 0
M  V30 7060 H 697.239 -4.60226 -2.72206 0
M  V30 7061 H 697.582 -2.90899 -2.97798 0
M  V30 7062 H 698.115 -3.69553 -1.47226 0
M  V30 7063 H 694.854 -6.53501 -0.511539 0
M  V30 7064 H 694.374 -5.66038 -1.98395 0
M  V30 7065 H 696.053 -6.2196 -1.78253 0
M  V30 7066 N 696.185 0.383891 -1.52853 0
M  V30 7067 C 697.413 1.1495 -1.7203 0
M  V30 7068 C 697.828 1.83578 -0.440957 0
M  V30 7069 O 697.185 1.72872 0.584925 0
M  V30 7070 C 697.236 2.19368 -2.87333 0
M  V30 7071 O 696.957 1.53536 -4.10315 0
M  V30 7072 C 698.458 3.08616 -3.18231 0
M  V30 7073 H 695.678 0.344445 -0.575846 0
M  V30 7074 H 698.222 0.448397 -1.99524 0
M  V30 7075 H 696.377 2.85105 -2.62286 0
M  V30 7076 H 696.791 2.2296 -4.74752 0
M  V30 7077 H 698.265 3.77902 -4.02361 0
M  V30 7078 H 698.742 3.72409 -2.32826 0
M  V30 7079 H 699.348 2.48518 -3.45136 0
M  V30 7080 N 697.663 1.43903 0.642637 0
M  V30 7081 C 698.893 1.49323 1.4278 0
M  V30 7082 C 699.301 0.113058 1.88862 0
M  V30 7083 O 698.644 -0.889089 1.60751 0
M  V30 7084 C 698.706 2.3861 2.68897 0
M  V30 7085 C 698.37 3.85976 2.44687 0
M  V30 7086 C 699.367 4.7681 2.07239 0
M  V30 7087 C 697.052 4.30567 2.58683 0
M  V30 7088 C 699.046 6.10234 1.841 0
M  V30 7089 C 696.733 5.64042 2.35159 0
M  V30 7090 C 697.731 6.53693 1.97925 0
M  V30 7091 O 697.419 7.84698 1.74654 0
M  V30 7092 H 697.151 0.509109 0.444729 0
M  V30 7093 H 699.705 1.89425 0.794195 0
M  V30 7094 H 697.935 1.93415 3.34855 0
M  V30 7095 H 699.624 2.35112 3.30873 0
M  V30 7096 H 700.39 4.43635 1.95993 0
M  V30 7097 H 696.269 3.61054 2.86637 0
M  V30 7098 H 699.813 6.80171 1.54962 0
M  V30 7099 H 695.71 5.96782 2.46011 0
M  V30 7100 H 696.478 7.96382 1.88993 0
M  V30 7101 N 699.141 -0.881989 1.30609 0
M  V30 7102 C 700.074 -1.99066 1.11571 0
M  V30 7103 C 701.052 -1.62584 0.022516 0
M  V30 7104 O 702.236 -1.87671 0.176644 0
M  V30 7105 C 699.363 -3.3134 0.702237 0
M  V30 7106 C 698.409 -3.86807 1.79673 0
M  V30 7107 S 699.242 -4.13735 3.39976 0
M  V30 7108 C 700.398 -5.49024 3.00538 0
M  V30 7109 H 700.631 -2.1491 2.05429 0
M  V30 7110 H 698.164 -1.03074 1.14957 0
M  V30 7111 H 700.122 -4.07796 0.470415 0
M  V30 7112 H 698.783 -3.13349 -0.217034 0
M  V30 7113 H 697.976 -4.82397 1.45977 0
M  V30 7114 H 697.578 -3.17102 1.98298 0
M  V30 7115 H 699.87 -6.30208 2.48684 0
M  V30 7116 H 700.813 -5.8766 3.95046 0
M  V30 7117 H 701.221 -5.11726 2.3832 0
M  V30 7118 N 700.619 -1.13374 -1.09472 0
M  V30 7119 C 701.549 -0.833268 -2.18126 0
M  V30 7120 C 702.53 0.207169 -1.68834 0
M  V30 7121 O 703.715 0.0662012 -1.94087 0
M  V30 7122 C 700.845 -0.297979 -3.46019 0
M  V30 7123 C 699.799 -1.27261 -4.08642 0
M  V30 7124 C 699.125 -0.597104 -5.31356 0
M  V30 7125 C 700.425 -2.63095 -4.51197 0
M  V30 7126 H 702.119 -1.74182 -2.43518 0
M  V30 7127 H 699.665 -0.838921 -1.17039 0
M  V30 7128 H 701.618 -0.0754444 -4.21332 0
M  V30 7129 H 700.342 0.645959 -3.20148 0
M  V30 7130 H 699.001 -1.48113 -3.35348 0
M  V30 7131 H 698.649 0.352293 -5.01765 0
M  V30 7132 H 698.349 -1.24734 -5.74208 0
M  V30 7133 H 699.873 -0.38384 -6.09392 0
M  V30 7134 H 701.287 -2.46214 -5.17737 0
M  V30 7135 H 699.684 -3.2429 -5.04932 0
M  V30 7136 H 700.754 -3.20793 -3.6362 0
M  V30 7137 N 702.098 1.27442 -0.927168 0
M  V30 7138 C 703.028 2.29256 -0.443188 0
M  V30 7139 C 704.009 1.62701 0.49624 0
M  V30 7140 O 705.194 1.90013 0.401105 0
M  V30 7141 C 702.324 3.45955 0.305366 0
M  V30 7142 C 701.278 4.24501 -0.546178 0
M  V30 7143 C 700.604 5.33671 0.331512 0
M  V30 7144 C 701.904 4.89921 -1.81037 0
M  V30 7145 H 703.598 2.69988 -1.29409 0
M  V30 7146 H 701.144 1.29792 -0.623705 0
M  V30 7147 H 703.097 4.1628 0.654885 0
M  V30 7148 H 701.821 3.04138 1.19029 0
M  V30 7149 H 700.48 3.55921 -0.878398 0
M  V30 7150 H 700.128 4.88096 1.21537 0
M  V30 7151 H 699.828 5.87131 -0.234746 0
M  V30 7152 H 701.352 6.0684 0.676614 0
M  V30 7153 H 702.766 5.52536 -1.52895 0
M  V30 7154 H 701.163 5.53436 -2.32009 0
M  V30 7155 H 702.233 4.13652 -2.53021 0
M  V30 7156 N 703.576 0.692616 1.41565 0
M  V30 7157 C 704.801 0.229776 2.06123 0
M  V30 7158 C 705.226 -1.11119 1.5177 0
M  V30 7159 O 704.584 -1.69498 0.643444 0
M  V30 7160 C 704.632 0.19469 3.60074 0
M  V30 7161 O 703.736 -0.831366 4.03933 0
M  V30 7162 H 703.077 0.113002 0.654314 0
M  V30 7163 H 705.607 0.946645 1.81383 0
M  V30 7164 H 705.617 0.0245487 4.07993 0
M  V30 7165 H 704.292 1.17339 3.99004 0
M  V30 7166 H 702.869 -0.630819 3.67526 0
M  V30 7167 N 705.054 -1.51416 0.437162 0
M  V30 7168 C 706.302 -2.01687 -0.129108 0
M  V30 7169 C 706.623 -1.32329 -1.43227 0
M  V30 7170 O 705.893 -0.457796 -1.90476 0
M  V30 7171 H 704.473 -0.745277 -0.0507023 0
M  V30 7172 H 707.135 -1.86075 0.579828 0
M  V30 7173 H 706.231 -3.10605 -0.305141 0
M  V30 7174 N 706.532 -0.168513 -1.56696 0
M  V30 7175 C 707.462 0.758563 -2.20835 0
M  V30 7176 C 708.443 1.24121 -1.1631 0
M  V30 7177 O 709.628 1.29487 -1.4473 0
M  V30 7178 C 706.758 1.9892 -2.8469 0
M  V30 7179 C 705.712 1.64252 -3.95228 0
M  V30 7180 C 705.038 2.94757 -4.46119 0
M  V30 7181 C 706.338 0.872675 -5.14958 0
M  V30 7182 H 708.032 0.223953 -2.98561 0
M  V30 7183 H 705.578 0.106277 -1.43607 0
M  V30 7184 H 707.531 2.64275 -3.28233 0
M  V30 7185 H 706.255 2.5479 -2.04327 0
M  V30 7186 H 704.914 1.01266 -3.52336 0
M  V30 7187 H 704.562 3.48662 -3.62552 0
M  V30 7188 H 704.262 2.72316 -5.2069 0
M  V30 7189 H 705.786 3.61147 -4.92347 0
M  V30 7190 H 707.2 1.42875 -5.55211 0
M  V30 7191 H 705.597 0.747402 -5.95428 0
M  V30 7192 H 706.667 -0.131535 -4.84722 0
M  V30 7193 N 708.01 1.57248 0.105221 0
M  V30 7194 C 709.235 1.90143 0.828264 0
M  V30 7195 C 709.66 0.761811 1.71983 0
M  V30 7196 O 709.018 -0.287086 1.79013 0
M  V30 7197 C 709.066 3.21856 1.62608 0
M  V30 7198 O 708.17 3.08732 2.7342 0
M  V30 7199 H 707.511 0.623558 0.228192 0
M  V30 7200 H 710.041 2.0443 0.0834826 0
M  V30 7201 H 710.051 3.54916 2.01243 0
M  V30 7202 H 708.726 4.0439 0.971687 0
M  V30 7203 H 707.303 2.87167 2.37886 0
M  V30 7204 N 709.488 -0.375779 1.53054 0
M  V30 7205 C 710.899 -0.95309 1.6054 0
M  V30 7206 C 711.25 -1.90575 0.466446 0
M  V30 7207 O 710.375 -2.12507 -0.408609 0
M  V30 7208 C 710.97 -1.73537 2.90982 0
M  V30 7209 C 709.529 -2.26218 3.00836 0
M  V30 7210 C 708.676 -1.07157 2.55759 0
M  V30 7211 H 711.627 -0.154895 1.57942 0
M  V30 7212 H 711.648 -2.59574 2.78211 0
M  V30 7213 H 711.16 -1.04176 3.73857 0
M  V30 7214 H 709.261 -2.98852 2.22527 0
M  V30 7215 H 709.374 -2.54799 4.05727 0
M  V30 7216 H 707.738 -1.43553 2.10391 0
M  V30 7217 H 708.521 -0.393099 3.41042 0
M  V30 7218 N 710.966 -1.44241 -0.634997 0
M  V30 7219 C 712.213 -1.46821 -1.39463 0
M  V30 7220 C 712.541 -0.0993362 -1.94246 0
M  V30 7221 O 711.796 0.898325 -1.73864 0
M  V30 7222 C 712.095 -2.47279 -2.58046 0
M  V30 7223 C 711.761 -3.92703 -2.21574 0
M  V30 7224 C 710.423 -4.32306 -2.1134 0
M  V30 7225 C 712.775 -4.84271 -1.92695 0
M  V30 7226 C 710.103 -5.61407 -1.70409 0
M  V30 7227 C 712.455 -6.13755 -1.53258 0
M  V30 7228 C 711.119 -6.52316 -1.41562 0
M  V30 7229 H 710.389 -0.537256 -0.51033 0
M  V30 7230 H 713.036 -1.77431 -0.720441 0
M  V30 7231 H 711.341 -2.10138 -3.3068 0
M  V30 7232 H 713.038 -2.46523 -3.16271 0
M  V30 7233 H 709.628 -3.61369 -2.30456 0
M  V30 7234 H 713.812 -4.54432 -1.99513 0
M  V30 7235 H 709.068 -5.90105 -1.59955 0
M  V30 7236 H 713.242 -6.84168 -1.29949 0
M  V30 7237 H 710.869 -7.52255 -1.09619 0
M  V30 7238 N 712.444 0.87505 -1.31075 0
M  V30 7239 C 713.374 1.99775 -1.20881 0
M  V30 7240 C 714.355 1.69822 -0.0971612 0
M  V30 7241 O 715.54 1.92158 -0.280895 0
M  V30 7242 C 712.67 3.35163 -0.910118 0
M  V30 7243 C 711.624 3.79406 -1.98078 0
M  V30 7244 C 710.95 5.12197 -1.53488 0
M  V30 7245 C 712.25 3.97061 -3.39323 0
M  V30 7246 H 713.944 2.08562 -2.14808 0
M  V30 7247 H 711.49 1.00207 -1.03415 0
M  V30 7248 H 713.443 4.13237 -0.825423 0
M  V30 7249 H 712.167 3.26536 0.064822 0
M  V30 7250 H 710.826 3.03568 -2.05528 0
M  V30 7251 H 710.474 5.00007 -0.547941 0
M  V30 7252 H 710.174 5.4277 -2.2511 0
M  V30 7253 H 711.698 5.92785 -1.46417 0
M  V30 7254 H 713.112 4.65545 -3.34576 0
M  V30 7255 H 711.509 4.39025 -4.09118 0
M  V30 7256 H 712.579 3.00601 -3.80483 0
M  V30 7257 N 713.922 1.13953 1.08869 0
M  V30 7258 C 715.17 0.903023 1.80803 0
M  V30 7259 C 715.491 -0.572151 1.86417 0
M  V30 7260 O 714.761 -1.41589 1.35386 0
M  V30 7261 H 713.341 0.331099 0.669614 0
M  V30 7262 H 716.003 1.43719 1.31647 0
M  V30 7263 H 715.099 1.29881 2.83791 0
M  V30 7264 N 715.4 -1.26948 0.933913 0
M  V30 7265 C 716.677 -1.89212 0.495784 0
M  V30 7266 C 717.057 -1.84469 -1.02637 0
M  V30 7267 O 716.405 -1.29409 -1.88323 0
M  V30 7268 C 716.615 -3.32865 1.0489 0
M  V30 7269 C 717.963 -4.09749 1.11315 0
M  V30 7270 O 718.987 -3.41905 0.998966 0
M  V30 7271 O 717.846 -5.31061 1.28983 0
M  V30 7272 H 714.94 -0.811284 0.160459 0
M  V30 7273 H 717.486 -1.35171 1.02601 0
M  V30 7274 H 716.258 -3.30642 2.09265 0
M  V30 7275 H 715.881 -3.94435 0.500692 0
M  V30 7276 N 716.879 -0.700114 -1.41195 0
M  V30 7277 C 718.156 -0.160836 -1.94938 0
M  V30 7278 C 718.536 1.33014 -1.63922 0
M  V30 7279 O 717.884 2.07878 -0.948636 0
M  V30 7280 C 718.094 -0.456991 -3.45995 0
M  V30 7281 C 719.442 -0.387207 -4.22831 0
M  V30 7282 O 720.466 -0.392164 -3.54035 0
M  V30 7283 O 719.325 -0.351267 -5.4537 0
M  V30 7284 H 716.419 -0.0176304 -0.826812 0
M  V30 7285 H 718.965 -0.776586 -1.50888 0
M  V30 7286 H 717.737 -1.48884 -3.61869 0
M  V30 7287 H 717.36 0.189503 -3.97148 0
M  V30 7288 N 718.357 1.51182 -0.445186 0
M  V30 7289 C 719.634 1.9478 0.178965 0
M  V30 7290 C 720.014 1.38428 1.59376 0
M  V30 7291 O 719.362 0.574552 2.21159 0
M  V30 7292 C 719.572 3.48683 0.148711 0
M  V30 7293 C 720.92 4.23152 0.35042 0
M  V30 7294 O 721.944 3.55479 0.226474 0
M  V30 7295 O 720.803 5.4322 0.597893 0
M  V30 7296 H 717.897 0.817387 0.12573 0
M  V30 7297 H 720.443 1.62051 -0.503729 0
M  V30 7298 H 719.215 3.82176 -0.84009 0
M  V30 7299 H 718.838 3.87875 0.873979 0
M  V30 7300 N 719.835 0.176821 1.56605 0
M  V30 7301 C 721.063 -0.472828 2.01425 0
M  V30 7302 C 721.478 -1.56436 1.05703 0
M  V30 7303 O 720.835 -1.82405 0.058808 0
M  V30 7304 C 720.886 -1.04607 3.46034 0
M  V30 7305 O 720.607 0.00189608 4.381 0
M  V30 7306 C 722.108 -1.7734 4.06282 0
M  V30 7307 H 719.328 -0.120503 0.660091 0
M  V30 7308 H 721.872 0.280166 2.02572 0
M  V30 7309 H 720.027 -1.74953 3.45645 0
M  V30 7310 H 720.441 -0.422118 5.22799 0
M  V30 7311 H 721.915 -2.12703 5.09374 0
M  V30 7312 H 722.392 -2.67043 3.4869 0
M  V30 7313 H 722.998 -1.11623 4.10391 0
M  V30 7314 N 721.313 -1.57302 -0.09688 0
M  V30 7315 C 722.223 -2.05258 -1.13606 0
M  V30 7316 C 723.239 -0.977137 -1.43972 0
M  V30 7317 O 724.415 -1.29018 -1.54649 0
M  V30 7318 C 721.48 -2.46593 -2.43706 0
M  V30 7319 C 720.541 -3.68322 -2.20538 0
M  V30 7320 C 719.774 -4.07676 -3.44435 0
M  V30 7321 O 719.997 -3.47141 -4.52603 0
M  V30 7322 O 718.931 -5.00641 -3.34129 0
M  V30 7323 H 722.757 -2.94069 -0.758752 0
M  V30 7324 H 720.342 -1.46164 -0.309263 0
M  V30 7325 H 722.224 -2.73814 -3.20318 0
M  V30 7326 H 720.899 -1.6092 -2.80867 0
M  V30 7327 H 719.806 -3.4622 -1.41713 0
M  V30 7328 H 721.139 -4.54769 -1.88271 0
M  V30 7329 N 722.791 0.367657 -1.53252 0
M  V30 7330 C 724.019 1.13119 -1.73239 0
M  V30 7331 C 724.434 1.831 -0.460404 0
M  V30 7332 O 723.791 1.73483 0.566557 0
M  V30 7333 C 723.842 2.16308 -2.89643 0
M  V30 7334 O 723.563 1.49175 -4.1192 0
M  V30 7335 C 725.064 3.05224 -3.21486 0
M  V30 7336 H 722.284 0.338318 -0.579467 0
M  V30 7337 H 724.828 0.42721 -1.99988 0
M  V30 7338 H 722.983 2.82307 -2.65295 0
M  V30 7339 H 723.397 2.17912 -4.7709 0
M  V30 7340 H 724.871 3.73613 -4.06346 0
M  V30 7341 H 725.348 3.69919 -2.36763 0
M  V30 7342 H 725.954 2.44843 -3.47753 0
M  V30 7343 N 724.269 1.44576 0.627338 0
M  V30 7344 C 725.199 1.54562 1.75022 0
M  V30 7345 C 726.18 0.398378 1.65369 0
M  V30 7346 O 727.365 0.61899 1.84071 0
M  V30 7347 C 724.495 1.49309 3.13567 0
M  V30 7348 C 723.449 2.62549 3.38012 0
M  V30 7349 C 722.775 2.42348 4.76625 0
M  V30 7350 C 724.075 4.04678 3.30202 0
M  V30 7351 H 725.769 2.4855 1.66922 0
M  V30 7352 H 723.315 1.19624 0.801636 0
M  V30 7353 H 725.268 1.54895 3.919 0
M  V30 7354 H 723.992 0.518392 3.2246 0
M  V30 7355 H 722.651 2.56358 2.62061 0
M  V30 7356 H 722.299 1.43062 4.82226 0
M  V30 7357 H 721.999 3.18273 4.93939 0
M  V30 7358 H 723.523 2.49758 5.57183 0
M  V30 7359 H 724.937 4.12217 3.98435 0
M  V30 7360 H 723.334 4.80836 3.5905 0
M  V30 7361 H 724.404 4.2798 2.27949 0
M  V30 7362 N 725.747 -0.868086 1.31537 0
M  V30 7363 C 726.695 -1.99688 1.1928 0
M  V30 7364 C 727.689 -1.69101 0.100656 0
M  V30 7365 O 728.895 -1.78073 0.262677 0
M  V30 7366 H 725.27 -0.655032 0.369374 0
M  V30 7367 H 727.241 -2.07157 2.14776 0
M  V30 7368 C 725.99 -3.35338 0.918892 0
M  V30 7369 H 725.313 -3.59396 1.75142 0
M  V30 7370 H 726.753 -4.14909 0.873311 0
M  V30 7371 C 725.212 -3.34769 -0.378366 0
M  V30 7372 O 725.742 -3.76716 -1.39456 0
M  V30 7373 N 723.948 -2.87895 -0.39557 0
M  V30 7374 H 723.495 -2.53954 0.431889 0
M  V30 7375 H 723.453 -2.87897 -1.26344 0
M  V30 7376 N 727.225 -1.14528 -1.08264 0
M  V30 7377 C 728.173 -0.829201 -2.17318 0
M  V30 7378 C 729.167 0.193521 -1.68291 0
M  V30 7379 O 730.373 0.0494744 -1.79932 0
M  V30 7380 H 726.748 -0.250435 -0.709074 0
M  V30 7381 H 728.719 -1.75683 -2.41201 0
M  V30 7382 C 727.468 -0.324663 -3.46181 0
M  V30 7383 H 726.791 -1.10299 -3.84284 0
M  V30 7384 H 728.231 -0.142059 -4.23762 0
M  V30 7385 C 726.69 0.952033 -3.23169 0
M  V30 7386 O 727.22 2.02549 -3.46896 0
M  V30 7387 N 725.426 0.887854 -2.76705 0
M  V30 7388 H 724.973 0.0141402 -2.57596 0
M  V30 7389 H 724.931 1.74263 -2.61686 0
M  V30 7390 N 728.703 1.26451 -0.940633 0
M  V30 7391 C 729.949 1.94065 -0.58878 0
M  V30 7392 C 730.282 1.7363 0.869853 0
M  V30 7393 O 729.557 1.073 1.62225 0
M  V30 7394 C 729.84 3.47852 -0.931199 0
M  V30 7395 C 729.693 3.77575 -2.44453 0
M  V30 7396 C 731.012 4.37832 -0.446229 0
M  V30 7397 H 728.131 0.704827 -0.21538 0
M  V30 7398 H 730.773 1.4933 -1.17475 0
M  V30 7399 H 728.923 3.86085 -0.432539 0
M  V30 7400 H 730.595 3.49059 -3.01588 0
M  V30 7401 H 728.838 3.23671 -2.88825 0
M  V30 7402 H 729.509 4.85068 -2.63464 0
M  V30 7403 H 731.985 4.06822 -0.873778 0
M  V30 7404 H 730.861 5.44228 -0.714648 0
M  V30 7405 H 731.122 4.37239 0.653815 0
M  V30 7406 N 730.181 0.707592 1.40822 0
M  V30 7407 C 731.111 0.0644925 2.33411 0
M  V30 7408 C 732.092 -0.754205 1.52466 0
M  V30 7409 O 733.277 -0.704749 1.80961 0
M  V30 7410 C 730.407 -0.863865 3.36385 0
M  V30 7411 C 729.361 -0.15138 4.27732 0
M  V30 7412 C 728.687 -1.19491 5.21177 0
M  V30 7413 C 729.987 0.989607 5.12839 0
M  V30 7414 H 731.681 0.837829 2.87438 0
M  V30 7415 H 729.227 0.404346 1.38207 0
M  V30 7416 H 731.18 -1.32309 4.0009 0
M  V30 7417 H 729.904 -1.66901 2.80734 0
M  V30 7418 H 728.563 0.287937 3.65467 0
M  V30 7419 H 728.211 -1.9929 4.61836 0
M  V30 7420 H 727.911 -0.723123 5.83134 0
M  V30 7421 H 729.435 -1.6544 5.8776 0
M  V30 7422 H 730.849 0.610114 5.70044 0
M  V30 7423 H 729.246 1.38926 5.83798 0
M  V30 7424 H 730.316 1.82389 4.49291 0
M  V30 7425 N 731.66 -1.50943 0.453197 0
M  V30 7426 C 732.885 -2.07116 -0.108463 0
M  V30 7427 C 733.31 -1.31681 -1.3432 0
M  V30 7428 O 732.668 -0.359256 -1.77705 0
M  V30 7429 C 732.716 -3.58447 -0.393424 0
M  V30 7430 O 731.82 -3.85038 -1.47714 0
M  V30 7431 H 731.161 -0.66398 0.0050993 0
M  V30 7432 H 733.691 -1.94362 0.639095 0
M  V30 7433 H 733.701 -4.02961 -0.639222 0
M  V30 7434 H 732.376 -4.12774 0.508946 0
M  V30 7435 H 730.953 -3.52376 -1.22006 0
M  V30 7436 N 733.138 -0.185124 -1.56509 0
M  V30 7437 C 734.386 0.455357 -1.96903 0
M  V30 7438 C 734.707 1.62839 -1.07277 0
M  V30 7439 O 733.977 1.95385 -0.141966 0
M  V30 7440 H 732.557 0.171218 -0.727113 0
M  V30 7441 H 735.219 -0.26953 -1.93027 0
M  V30 7442 H 734.315 0.80616 -3.01509 0
M  V30 7443 N 734.616 1.57351 0.0885366 0
M  V30 7444 C 735.564 2.03542 1.12576 0
M  V30 7445 C 736.558 0.937668 1.41082 0
M  V30 7446 O 737.764 1.12283 1.40686 0
M  V30 7447 H 734.139 0.648752 0.380296 0
M  V30 7448 H 736.11 2.89833 0.709906 0
M  V30 7449 C 734.859 2.4811 2.43591 0
M  V30 7450 H 734.182 3.32164 2.22502 0
M  V30 7451 H 735.622 2.842 3.14653 0
M  V30 7452 C 734.081 1.35708 3.08359 0
M  V30 7453 O 734.611 0.689852 3.95732 0
M  V30 7454 N 732.817 1.10641 2.68713 0
M  V30 7455 H 732.364 1.6508 1.97753 0
M  V30 7456 H 732.322 0.356355 3.12374 0
M  V30 7457 N 736.094 -0.359525 1.53444 0
M  V30 7458 C 737.34 -1.09958 1.71116 0
M  V30 7459 C 737.695 -1.8681 0.460414 0
M  V30 7460 O 736.988 -1.83635 -0.5467 0
M  V30 7461 C 737.182 -2.08287 2.90433 0
M  V30 7462 C 737.011 -1.41098 4.26991 0
M  V30 7463 C 735.781 -1.16255 4.91745 0
M  V30 7464 C 737.979 -0.845517 5.07302 0
M  V30 7465 N 735.961 -0.454798 6.12213 0
M  V30 7466 C 737.332 -0.267455 6.19423 0
M  V30 7467 C 739.387 -0.744797 4.92298 0
M  V30 7468 C 738.09 0.401511 7.18179 0
M  V30 7469 C 740.116 -0.0896013 5.91332 0
M  V30 7470 C 739.478 0.47756 7.02779 0
M  V30 7471 H 735.577 -0.387305 0.679352 0
M  V30 7472 H 738.161 -0.38519 1.90852 0
M  V30 7473 H 736.332 -2.77034 2.72226 0
M  V30 7474 H 738.064 -2.75015 2.96899 0
M  V30 7475 H 734.819 -1.44544 4.51003 0
M  V30 7476 H 735.243 -0.116108 6.769 0
M  V30 7477 H 739.885 -1.16905 4.06317 0
M  V30 7478 H 737.603 0.837694 8.03746 0
M  V30 7479 H 741.189 -0.0125162 5.81799 0
M  V30 7480 H 740.069 0.976522 7.78096 0
M  V30 7481 N 737.572 -1.44907 -0.619662 0
M  V30 7482 C 738.802 -1.51575 -1.40387 0
M  V30 7483 C 739.21 -0.14309 -1.88658 0
M  V30 7484 O 738.553 0.863403 -1.62145 0
M  V30 7485 C 738.615 -2.42858 -2.65067 0
M  V30 7486 C 738.279 -3.8982 -2.38515 0
M  V30 7487 C 739.276 -4.80047 -1.99627 0
M  V30 7488 C 736.961 -4.34628 -2.51801 0
M  V30 7489 C 738.955 -6.13086 -1.74369 0
M  V30 7490 C 736.642 -5.67712 -2.26156 0
M  V30 7491 C 737.64 -6.56759 -1.875 0
M  V30 7492 O 737.328 -7.87377 -1.62148 0
M  V30 7493 H 737.06 -0.51612 -0.436573 0
M  V30 7494 H 739.614 -1.90664 -0.763959 0
M  V30 7495 H 737.844 -1.98717 -3.31735 0
M  V30 7496 H 739.533 -2.40346 -3.27091 0
M  V30 7497 H 740.299 -4.46697 -1.8891 0
M  V30 7498 H 736.178 -3.65568 -2.80857 0
M  V30 7499 H 739.722 -6.8255 -1.44122 0
M  V30 7500 H 735.619 -6.0062 -2.36486 0
M  V30 7501 H 736.387 -7.99288 -1.763 0
M  V30 7502 N 739.05 0.861098 -1.31996 0
M  V30 7503 C 740.297 1.61481 -1.22188 0
M  V30 7504 C 740.625 1.93276 0.217853 0
M  V30 7505 O 739.88 1.56942 1.16909 0
M  V30 7506 C 740.179 2.94822 -2.02027 0
M  V30 7507 C 739.845 2.82483 -3.51446 0
M  V30 7508 C 738.507 2.78825 -3.92186 0
M  V30 7509 C 740.859 2.68878 -4.46491 0
M  V30 7510 C 738.187 2.59433 -5.26224 0
M  V30 7511 C 740.539 2.51022 -5.80664 0
M  V30 7512 C 739.203 2.45753 -6.20614 0
M  V30 7513 H 738.473 0.590902 -0.447119 0
M  V30 7514 H 741.12 0.999376 -1.63355 0
M  V30 7515 H 739.425 3.6045 -1.53569 0
M  V30 7516 H 741.122 3.52149 -1.91812 0
M  V30 7517 H 737.712 2.86152 -3.19085 0
M  V30 7518 H 741.896 2.70754 -4.1594 0
M  V30 7519 H 737.152 2.53784 -5.5624 0
M  V30 7520 H 741.326 2.39473 -6.53931 0
M  V30 7521 H 738.953 2.30485 -7.24417 0
M  V30 7522 N 740.528 1.15101 1.07655 0
M  V30 7523 C 741.805 0.834578 1.76902 0
M  V30 7524 C 742.185 -0.670431 2.00171 0
M  V30 7525 O 741.533 -1.61378 1.6177 0
M  V30 7526 C 741.743 1.64191 3.07965 0
M  V30 7527 C 743.091 1.84615 3.82364 0
M  V30 7528 O 744.115 1.60941 3.17768 0
M  V30 7529 O 742.974 2.24244 4.98374 0
M  V30 7530 H 740.068 0.306608 0.768063 0
M  V30 7531 H 742.614 1.25663 1.14048 0
M  V30 7532 H 741.386 2.66386 2.86626 0
M  V30 7533 H 741.009 1.216 3.78549 0
M  V30 7534 N 742.006 -1.2595 0.947325 0
M  V30 7535 C 742.916 -2.29883 0.468079 0
M  V30 7536 C 743.932 -1.67783 -0.460975 0
M  V30 7537 O 745.108 -1.98526 -0.339006 0
M  V30 7538 C 742.173 -3.45773 -0.253315 0
M  V30 7539 C 741.234 -4.23337 0.713054 0
M  V30 7540 C 740.467 -5.33694 0.025993 0
M  V30 7541 O 740.69 -5.57853 -1.18978 0
M  V30 7542 O 739.624 -5.97724 0.70782 0
M  V30 7543 H 743.45 -2.72952 1.33156 0
M  V30 7544 H 741.035 -1.31263 0.713468 0
M  V30 7545 H 742.917 -4.16209 -0.659423 0
M  V30 7546 H 741.592 -3.04721 -1.09209 0
M  V30 7547 H 740.499 -3.55359 1.16923 0
M  V30 7548 H 741.832 -4.68154 1.51963 0
M  V30 7549 N 743.484 -0.715051 -1.40445 0
M  V30 7550 C 744.394 -0.0631624 -2.34515 0
M  V30 7551 C 745.41 0.744397 -1.57273 0
M  V30 7552 O 746.586 0.677475 -1.89663 0
M  V30 7553 C 743.651 0.847915 -3.36172 0
M  V30 7554 C 742.712 0.0303655 -4.29289 0
M  V30 7555 C 741.945 0.898051 -5.2609 0
M  V30 7556 O 742.168 2.13729 -5.28844 0
M  V30 7557 O 741.102 0.337328 -6.00954 0
M  V30 7558 H 744.928 -0.839078 -2.91879 0
M  V30 7559 H 742.513 -0.475527 -1.4163 0
M  V30 7560 H 744.395 1.3698 -3.98515 0
M  V30 7561 H 743.07 1.60299 -2.81222 0
M  V30 7562 H 741.977 -0.536573 -3.70232 0
M  V30 7563 H 743.31 -0.686474 -4.87389 0
M  V30 7564 N 744.962 1.50701 -0.461195 0
M  V30 7565 C 746.19 2.06681 0.0951756 0
M  V30 7566 C 746.605 1.32615 1.34382 0
M  V30 7567 O 745.962 0.392531 1.78229 0
M  V30 7568 C 746.013 3.59354 0.393316 0
M  V30 7569 O 745.734 4.30626 -0.805797 0
M  V30 7570 C 747.235 4.31926 0.997744 0
M  V30 7571 H 744.455 0.670995 -0.00267259 0
M  V30 7572 H 746.999 1.93991 -0.647137 0
M  V30 7573 H 745.154 3.7188 1.08555 0
M  V30 7574 H 745.568 5.21667 -0.544409 0
M  V30 7575 H 747.042 5.39756 1.15619 0
M  V30 7576 H 747.519 3.91772 1.98523 0
M  V30 7577 H 748.125 4.23905 0.344188 0
M  V30 7578 N 746.441 0.193421 1.56409 0
M  V30 7579 C 747.688 -0.445789 1.97532 0
M  V30 7580 C 748.016 -1.61744 1.08024 0
M  V30 7581 O 747.271 -1.95338 0.118982 0
M  V30 7582 C 747.57 -0.949718 3.44551 0
M  V30 7583 C 747.236 0.108383 4.5077 0
M  V30 7584 C 745.898 0.399126 4.79542 0
M  V30 7585 C 748.25 0.825423 5.14622 0
M  V30 7586 C 745.578 1.41192 5.69457 0
M  V30 7587 C 747.93 1.82735 6.05632 0
M  V30 7588 C 746.594 2.12531 6.32761 0
M  V30 7589 H 745.864 -0.163126 0.722822 0
M  V30 7590 H 748.511 0.290035 1.89291 0
M  V30 7591 H 746.816 -1.76378 3.49854 0
M  V30 7592 H 748.513 -1.45367 3.73724 0
M  V30 7593 H 745.103 -0.128392 4.28408 0
M  V30 7594 H 749.287 0.61403 4.92487 0
M  V30 7595 H 744.543 1.6487 5.88751 0
M  V30 7596 H 748.717 2.3882 6.5417 0
M  V30 7597 H 746.344 2.91155 7.02234 0
M  V30 7598 N 747.919 -1.57396 -0.0801906 0
M  V30 7599 C 748.829 -2.06451 -1.11423 0
M  V30 7600 C 749.845 -0.992352 -1.42928 0
M  V30 7601 O 751.021 -1.30651 -1.53272 0
M  V30 7602 C 748.086 -2.49164 -2.41077 0
M  V30 7603 C 747.147 -3.70641 -2.16619 0
M  V30 7604 C 746.38 -4.11307 -3.40092 0
M  V30 7605 O 746.603 -3.51922 -4.48895 0
M  V30 7606 O 745.537 -5.04157 -3.288 0
M  V30 7607 H 749.363 -2.94857 -0.727519 0
M  V30 7608 H 746.948 -1.46484 -0.293743 0
M  V30 7609 H 748.83 -2.77196 -3.17396 0
M  V30 7610 H 747.505 -1.6389 -2.79145 0
M  V30 7611 H 746.412 -3.47703 -1.38033 0
M  V30 7612 H 747.745 -4.5674 -1.83437 0
M  V30 7613 N 749.397 0.351382 -1.53633 0
M  V30 7614 C 750.36 1.41403 -1.80383 0
M  V30 7615 C 751.36 1.45963 -0.674635 0
M  V30 7616 O 752.55 1.46476 -0.942895 0
M  V30 7617 C 749.682 2.80401 -1.93876 0
M  V30 7618 H 750.875 1.18951 -2.75301 0
M  V30 7619 H 748.428 0.58533 -1.44926 0
M  V30 7620 H 749.163 3.08147 -1.01074 0
M  V30 7621 H 748.948 2.78488 -2.7602 0
M  V30 7622 H 750.438 3.57329 -2.16116 0
M  V30 7623 N 750.875 1.45233 0.611969 0
M  V30 7624 C 752.121 1.49242 1.37312 0
M  V30 7625 C 752.454 0.131963 1.93751 0
M  V30 7626 O 751.729 -0.852999 1.74798 0
M  V30 7627 C 752.012 2.56811 2.52428 0
M  V30 7628 C 751.865 4.02284 2.01215 0
M  V30 7629 C 753.184 2.60705 3.54572 0
M  V30 7630 H 750.303 0.54336 0.497925 0
M  V30 7631 H 752.945 1.77019 0.690242 0
M  V30 7632 H 751.095 2.33256 3.10683 0
M  V30 7633 H 752.767 4.37035 1.47643 0
M  V30 7634 H 751.01 4.1315 1.32248 0
M  V30 7635 H 751.681 4.7323 2.84178 0
M  V30 7636 H 754.157 2.81799 3.06151 0
M  V30 7637 H 753.033 3.37841 4.32614 0
M  V30 7638 H 753.294 1.65627 4.09903 0
M  V30 7639 N 752.353 -0.854086 1.3245 0
M  V30 7640 C 753.578 -1.64597 1.26185 0
M  V30 7641 C 754.003 -1.87357 -0.167074 0
M  V30 7642 O 753.361 -1.42675 -1.11864 0
M  V30 7643 C 753.409 -2.98213 2.02734 0
M  V30 7644 O 752.513 -3.88784 1.37554 0
M  V30 7645 H 751.854 -0.50179 0.434859 0
M  V30 7646 H 754.384 -1.06372 1.74775 0
M  V30 7647 H 754.394 -3.4803 2.1293 0
M  V30 7648 H 753.069 -2.80969 3.06642 0
M  V30 7649 H 751.646 -3.4725 1.3591 0
M  V30 7650 N 753.831 -1.1567 -1.07043 0
M  V30 7651 C 755.108 -0.843948 -1.76456 0
M  V30 7652 C 755.488 0.659806 -2.00524 0
M  V30 7653 O 754.836 1.60518 -1.62623 0
M  V30 7654 C 755.046 -1.65822 -3.0709 0
M  V30 7655 C 756.394 -1.8664 -3.8138 0
M  V30 7656 O 757.418 -1.62624 -3.1691 0
M  V30 7657 O 756.277 -2.26884 -4.97178 0
M  V30 7658 H 753.371 -0.310677 -0.766426 0
M  V30 7659 H 755.917 -1.26266 -1.1338 0
M  V30 7660 H 754.689 -2.67902 -2.85209 0
M  V30 7661 H 754.312 -1.23605 -3.77899 0
M  V30 7662 N 755.309 1.25446 -0.953992 0
M  V30 7663 C 756.219 2.29632 -0.480264 0
M  V30 7664 C 757.235 1.68025 0.452071 0
M  V30 7665 O 758.411 1.98703 0.328472 0
M  V30 7666 C 755.476 3.45903 0.234974 0
M  V30 7667 C 754.537 4.22953 -0.735495 0
M  V30 7668 C 753.77 5.33672 -0.0542957 0
M  V30 7669 O 753.993 5.58477 1.16018 0
M  V30 7670 O 752.927 5.9734 -0.739509 0
M  V30 7671 H 756.753 2.72242 -1.34602 0
M  V30 7672 H 754.338 1.30883 -0.720419 0
M  V30 7673 H 756.22 4.16552 0.637341 0
M  V30 7674 H 754.895 3.05296 1.07592 0
M  V30 7675 H 753.802 3.54734 -1.18806 0
M  V30 7676 H 755.135 4.67341 -1.54444 0
M  V30 7677 N 756.787 0.722489 1.40064 0
M  V30 7678 C 757.75 0.0830209 2.2905 0
M  V30 7679 C 758.75 -0.680208 1.45705 0
M  V30 7680 O 759.94 -0.511084 1.66534 0
M  V30 7681 C 757.072 -0.892092 3.29021 0
M  V30 7682 H 758.265 0.866848 2.87099 0
M  V30 7683 H 755.818 0.487556 1.48501 0
M  V30 7684 H 756.553 -1.70273 2.76003 0
M  V30 7685 H 756.338 -0.34761 3.90556 0
M  V30 7686 H 757.828 -1.33648 3.95636 0
M  V30 7687 N 758.265 -1.50454 0.469181 0
M  V30 7688 C 759.212 -2.28486 -0.325982 0
M  V30 7689 C 760.182 -1.33455 -0.988893 0
M  V30 7690 O 761.367 -1.6239 -1.0017 0
M  V30 7691 C 758.507 -3.15288 -1.40313 0
M  V30 7692 C 757.62 -4.25348 -0.755183 0
M  V30 7693 C 756.755 -4.9941 -1.81006 0
M  V30 7694 C 755.794 -6.01348 -1.14226 0
M  V30 7695 N 754.931 -6.68695 -2.1399 0
M  V30 7696 H 759.771 -2.95987 0.345753 0
M  V30 7697 H 757.308 -1.45965 0.182355 0
M  V30 7698 H 759.266 -3.63964 -2.03927 0
M  V30 7699 H 757.896 -2.49837 -2.04405 0
M  V30 7700 H 756.948 -3.80399 -0.00651901 0
M  V30 7701 H 758.26 -4.98279 -0.227941 0
M  V30 7702 H 757.414 -5.51794 -2.52206 0
M  V30 7703 H 756.153 -4.26181 -2.3711 0
M  V30 7704 H 755.158 -5.48225 -0.415876 0
M  V30 7705 H 756.383 -6.76548 -0.588135 0
M  V30 7706 H 754.329 -5.98258 -2.69115 0
M  V30 7707 H 754.246 -7.37495 -1.66246 0
M  V30 7708 H 755.514 -7.25697 -2.84576 0
M  V30 7709 N 759.743 -0.201713 -1.56304 0
M  V30 7710 C 761.02 0.483273 -1.89536 0
M  V30 7711 C 761.4 1.79176 -1.11621 0
M  V30 7712 O 760.748 2.27445 -0.219339 0
M  V30 7713 C 760.958 0.695604 -3.41998 0
M  V30 7714 C 762.306 1.012 -4.12364 0
M  V30 7715 O 763.33 0.783094 -3.47485 0
M  V30 7716 O 762.189 1.44534 -5.27041 0
M  V30 7717 H 759.283 0.252801 -0.787414 0
M  V30 7718 H 761.829 -0.24242 -1.6796 0
M  V30 7719 H 760.601 -0.228165 -3.90634 0
M  V30 7720 H 760.224 1.47351 -3.69288 0
M  V30 7721 N 761.222 1.57436 0.0718424 0
M  V30 7722 C 762.469 1.87248 0.771007 0
M  V30 7723 C 762.797 0.793441 1.7758 0
M  V30 7724 O 762.052 -0.210565 1.94564 0
M  V30 7725 C 762.351 3.23723 1.51455 0
M  V30 7726 C 762.017 4.46194 0.649736 0
M  V30 7727 C 760.679 4.79438 0.411409 0
M  V30 7728 C 763.031 5.21176 0.05004 0
M  V30 7729 C 760.359 5.85077 -0.436096 0
M  V30 7730 C 762.711 6.27712 -0.784919 0
M  V30 7731 C 761.375 6.59457 -1.03312 0
M  V30 7732 H 760.645 0.685188 0.282132 0
M  V30 7733 H 763.292 1.91474 0.0317896 0
M  V30 7734 H 761.597 3.15287 2.32597 0
M  V30 7735 H 763.294 3.44023 2.06031 0
M  V30 7736 H 759.884 4.20175 0.84562 0
M  V30 7737 H 764.068 4.95806 0.221282 0
M  V30 7738 H 759.324 6.08071 -0.637136 0
M  V30 7739 H 763.498 6.84974 -1.25635 0
M  V30 7740 H 761.125 7.4114 -1.6916 0
M  V30 7741 N 762.7 -0.34323 1.53817 0
M  V30 7742 C 763.946 -1.08504 1.71332 0
M  V30 7743 C 764.279 -1.88294 0.475285 0
M  V30 7744 O 763.554 -1.87205 -0.527688 0
M  V30 7745 C 763.837 -2.02597 2.97702 0
M  V30 7746 C 763.69 -1.26268 4.31713 0
M  V30 7747 C 765.009 -3.0241 3.19744 0
M  V30 7748 H 762.128 -0.393072 0.623429 0
M  V30 7749 H 764.77 -0.363579 1.86489 0
M  V30 7750 H 762.92 -2.64118 2.8491 0
M  V30 7751 H 764.592 -0.673594 4.56356 0
M  V30 7752 H 762.835 -0.564696 4.30109 0
M  V30 7753 H 763.506 -1.95253 5.16314 0
M  V30 7754 H 765.982 -2.51004 3.31868 0
M  V30 7755 H 764.858 -3.65449 4.09558 0
M  V30 7756 H 765.119 -3.73806 2.36054 0
M  V30 7757 N 764.178 -1.45556 -0.604258 0
M  V30 7758 C 765.403 -1.53509 -1.39462 0
M  V30 7759 C 765.828 -0.169638 -1.87333 0
M  V30 7760 O 765.186 0.846346 -1.60333 0
M  V30 7761 C 765.234 -2.52654 -2.5729 0
M  V30 7762 O 764.338 -2.04666 -3.5803 0
M  V30 7763 H 763.679 -0.517355 -0.416221 0
M  V30 7764 H 766.209 -1.90939 -0.735072 0
M  V30 7765 H 766.219 -2.71568 -3.04491 0
M  V30 7766 H 764.894 -3.51823 -2.21797 0
M  V30 7767 H 763.471 -1.95643 -3.17456 0
M  V30 7768 N 765.656 0.84705 -1.32902 0
M  V30 7769 C 766.604 1.97765 -1.22441 0
M  V30 7770 C 767.598 1.68919 -0.127546 0
M  V30 7771 O 768.804 1.77633 -0.290973 0
M  V30 7772 H 765.179 0.649072 -0.379748 0
M  V30 7773 H 767.15 2.03713 -2.18044 0
M  V30 7774 C 765.899 3.33834 -0.972125 0
M  V30 7775 H 765.222 3.56564 -1.80837 0
M  V30 7776 H 766.662 4.13467 -0.939209 0
M  V30 7777 C 765.121 3.35328 0.325059 0
M  V30 7778 O 765.651 3.78887 1.33445 0
M  V30 7779 N 763.857 2.88488 0.349718 0
M  V30 7780 H 763.404 2.53234 -0.472236 0
M  V30 7781 H 763.362 2.8987 1.21748 0
M  V30 7782 N 767.134 1.16236 1.06428 0
M  V30 7783 C 768.064 0.890807 2.1584 0
M  V30 7784 C 769.045 -0.162333 1.69324 0
M  V30 7785 O 770.23 -0.0147191 1.94194 0
M  V30 7786 C 767.36 0.389615 3.45108 0
M  V30 7787 C 766.314 1.38051 4.05125 0
M  V30 7788 C 765.64 0.737773 5.29586 0
M  V30 7789 C 766.94 2.74965 4.44062 0
M  V30 7790 H 768.634 1.80577 2.38814 0
M  V30 7791 H 766.18 0.869657 1.14774 0
M  V30 7792 H 768.133 0.187127 4.20984 0
M  V30 7793 H 766.857 -0.560851 3.21748 0
M  V30 7794 H 765.516 1.56952 3.31303 0
M  V30 7795 H 765.164 -0.219135 5.02522 0
M  V30 7796 H 764.864 1.39914 5.70699 0
M  V30 7797 H 766.388 0.545275 6.0816 0
M  V30 7798 H 767.802 2.59855 5.11027 0
M  V30 7799 H 766.199 3.37563 4.96156 0
M  V30 7800 H 767.269 3.30321 3.54987 0
M  V30 7801 N 768.612 -1.24939 0.960631 0
M  V30 7802 C 769.861 -1.92118 0.614298 0
M  V30 7803 C 770.174 -1.75998 -0.853474 0
M  V30 7804 O 771.38 -2.37804 -1.31003 0
M  V30 7805 C 769.836 -3.44303 1.04801 0
M  V30 7806 C 769.444 -3.69123 2.53875 0
M  V30 7807 C 771.188 -4.17375 0.774497 0
M  V30 7808 C 769.095 -5.14843 2.91016 0
M  V30 7809 H 768.025 -0.719319 0.226045 0
M  V30 7810 H 770.676 -1.41701 1.16589 0
M  V30 7811 H 769.058 -3.93715 0.42479 0
M  V30 7812 H 770.232 -3.30339 3.21267 0
M  V30 7813 H 768.547 -3.09323 2.78762 0
M  V30 7814 H 771.144 -5.24723 1.02808 0
M  V30 7815 H 771.487 -4.15294 -0.289192 0
M  V30 7816 H 772.02 -3.7389 1.35835 0
M  V30 7817 H 768.759 -5.2204 3.96427 0
M  V30 7818 H 768.279 -5.54652 2.28302 0
M  V30 7819 H 769.958 -5.83017 2.80535 0
M  V30 7820 N 770.09 -0.729906 -1.39679 0
M  V30 7821 C 771.336 -0.27603 -2.00913 0
M  V30 7822 C 771.669 1.13227 -1.57776 0
M  V30 7823 O 770.944 1.7709 -0.804319 0
M  V30 7824 C 771.227 -0.372157 -3.58172 0
M  V30 7825 C 771.08 -1.81986 -4.11341 0
M  V30 7826 C 772.399 0.248378 -4.39399 0
M  V30 7827 H 769.518 -0.101773 -0.729939 0
M  V30 7828 H 772.16 -0.925104 -1.65957 0
M  V30 7829 H 770.31 0.180459 -3.88081 0
M  V30 7830 H 771.982 -2.42896 -3.92172 0
M  V30 7831 H 770.225 -2.34287 -3.65092 0
M  V30 7832 H 770.896 -1.83842 -5.20486 0
M  V30 7833 H 773.372 -0.222645 -4.15504 0
M  V30 7834 H 772.248 0.150746 -5.48693 0
M  V30 7835 H 772.509 1.33378 -4.21501 0
M  V30 7836 N 771.568 1.50203 -0.477153 0
M  V30 7837 C 772.515 2.28656 0.31386 0
M  V30 7838 C 773.485 1.33977 0.981802 0
M  V30 7839 O 774.67 1.62919 0.993072 0
M  V30 7840 C 771.81 3.16027 1.38639 0
M  V30 7841 C 770.923 4.25743 0.732615 0
M  V30 7842 C 770.058 5.00363 1.78355 0
M  V30 7843 C 769.097 6.01945 1.11035 0
M  V30 7844 N 768.234 6.6982 2.10441 0
M  V30 7845 H 773.074 2.958 -0.361445 0
M  V30 7846 H 770.611 1.45867 -0.190093 0
M  V30 7847 H 772.569 3.6504 2.01994 0
M  V30 7848 H 771.199 2.50917 2.03077 0
M  V30 7849 H 770.251 3.80398 -0.0136546 0
M  V30 7850 H 771.563 4.98393 0.201513 0
M  V30 7851 H 770.717 5.53124 2.49276 0
M  V30 7852 H 769.456 4.27432 2.34847 0
M  V30 7853 H 768.461 5.48438 0.386797 0
M  V30 7854 H 769.686 6.76851 0.552248 0
M  V30 7855 H 767.632 5.99677 2.65939 0
M  V30 7856 H 767.549 7.38366 1.62332 0
M  V30 7857 H 768.817 7.27196 2.80724 0
M  V30 7858 N 773.046 0.209999 1.56195 0
M  V30 7859 C 774.323 -0.473214 1.89789 0
M  V30 7860 C 774.703 -1.78581 1.1257 0
M  V30 7861 O 774.051 -2.27325 0.231398 0
M  V30 7862 C 774.261 -0.677458 3.42362 0
M  V30 7863 C 775.609 -0.990114 4.12895 0
M  V30 7864 O 776.633 -0.764655 3.47896 0
M  V30 7865 O 775.492 -1.41737 5.278 0
M  V30 7866 H 772.586 -0.248622 0.788743 0
M  V30 7867 H 775.132 0.251324 1.67829 0
M  V30 7868 H 773.904 0.248878 3.90508 0
M  V30 7869 H 773.527 -1.45391 3.70064 0
M  V30 7870 N 774.524 -1.57472 -0.0634922 0
M  V30 7871 C 775.456 -2.00999 -1.10145 0
M  V30 7872 C 776.469 -0.917219 -1.34503 0
M  V30 7873 O 777.658 -1.19501 -1.32596 0
M  V30 7874 C 774.758 -2.34089 -2.45063 0
M  V30 7875 C 773.931 -3.65317 -2.40546 0
M  V30 7876 C 772.99 -3.85982 -3.57637 0
M  V30 7877 O 772.016 -4.5747 -3.38689 0
M  V30 7878 N 773.218 -3.28971 -4.78287 0
M  V30 7879 H 775.983 -2.90656 -0.730714 0
M  V30 7880 H 773.544 -1.59926 -0.252017 0
M  V30 7881 H 775.536 -2.4508 -3.22053 0
M  V30 7882 H 774.106 -1.50279 -2.74107 0
M  V30 7883 H 773.326 -3.65003 -1.48885 0
M  V30 7884 H 774.614 -4.51468 -2.34636 0
M  V30 7885 H 774.012 -2.70962 -4.96584 0
M  V30 7886 H 772.569 -3.45398 -5.5276 0
M  V30 7887 N 776.003 0.335068 -1.53997 0
M  V30 7888 C 777.419 0.678704 -1.4445 0
M  V30 7889 C 777.619 1.92106 -0.608078 0
M  V30 7890 O 776.675 2.52292 -0.102373 0
M  V30 7891 C 777.988 0.863435 -2.88037 0
M  V30 7892 C 779.536 0.961513 -2.97866 0
M  V30 7893 C 780.011 1.1785 -4.42578 0
M  V30 7894 N 781.502 1.2455 -4.46141 0
M  V30 7895 C 782.237 1.43106 -5.55255 0
M  V30 7896 N 781.733 1.5878 -6.74359 0
M  V30 7897 N 783.526 1.45722 -5.42883 0
M  V30 7898 H 775.677 -0.481656 -2.06867 0
M  V30 7899 H 777.94 -0.153615 -0.935471 0
M  V30 7900 H 777.646 0.0219511 -3.51693 0
M  V30 7901 H 777.52 1.76268 -3.33481 0
M  V30 7902 H 779.907 1.79351 -2.34344 0
M  V30 7903 H 779.988 0.0389862 -2.5577 0
M  V30 7904 H 779.632 0.351397 -5.06683 0
M  V30 7905 H 779.562 2.11472 -4.82273 0
M  V30 7906 H 782.053 1.13928 -3.60318 0
M  V30 7907 H 782.366 1.72599 -7.53279 0
M  V30 7908 H 780.711 1.559 -6.77289 0
M  V30 7909 H 783.902 1.33065 -4.48789 0
M  V30 7910 H 784.075 1.59841 -6.27977 0
M  V30 7911 N 777.481 1.45874 0.596531 0
M  V30 7912 C 778.444 1.54988 1.68853 0
M  V30 7913 C 779.444 0.428302 1.54991 0
M  V30 7914 O 780.634 0.692158 1.59859 0
M  V30 7915 C 777.766 1.457 3.08195 0
M  V30 7916 H 778.959 2.52294 1.62135 0
M  V30 7917 H 776.512 1.33479 0.813206 0
M  V30 7918 H 777.247 0.496204 3.20481 0
M  V30 7919 H 777.032 2.27061 3.19665 0
M  V30 7920 H 778.522 1.55133 3.87716 0
M  V30 7921 N 778.959 -0.83999 1.33349 0
M  V30 7922 C 780.375 -1.13049 1.12659 0
M  V30 7923 C 780.575 -2.01328 -0.0832613 0
M  V30 7924 O 779.631 -2.40669 -0.763856 0
M  V30 7925 C 780.944 -1.79366 2.41347 0
M  V30 7926 C 782.492 -1.91937 2.47243 0
M  V30 7927 C 782.967 -2.6167 3.75889 0
M  V30 7928 N 784.458 -2.69184 3.76954 0
M  V30 7929 C 785.193 -3.23827 4.73206 0
M  V30 7930 N 784.689 -3.79166 5.79832 0
M  V30 7931 N 786.482 -3.22068 4.60683 0
M  V30 7932 H 778.633 -0.252432 2.10895 0
M  V30 7933 H 780.896 -0.174501 0.931801 0
M  V30 7934 H 780.602 -1.2196 3.29877 0
M  V30 7935 H 780.476 -2.79396 2.53412 0
M  V30 7936 H 782.863 -2.48498 1.59163 0
M  V30 7937 H 782.944 -0.908604 2.39119 0
M  V30 7938 H 782.588 -2.05769 4.64351 0
M  V30 7939 H 782.518 -3.63217 3.81289 0
M  V30 7940 H 785.009 -2.2994 2.99893 0
M  V30 7941 H 785.322 -4.19061 6.49313 0
M  V30 7942 H 783.667 -3.77457 5.83568 0
M  V30 7943 H 786.858 -2.78092 3.7654 0
M  V30 7944 H 787.031 -3.64351 5.35866 0
M  V30 7945 N 780.437 -1.16799 -1.0581 0
M  V30 7946 C 781.37 -0.822491 -2.12862 0
M  V30 7947 C 782.348 0.208006 -1.61264 0
M  V30 7948 O 783.532 0.0909652 -1.8828 0
M  V30 7949 C 780.659 -0.225826 -3.37946 0
M  V30 7950 C 779.705 -1.23071 -4.08357 0
M  V30 7951 S 780.538 -2.77944 -4.5772 0
M  V30 7952 C 781.694 -2.19741 -5.86059 0
M  V30 7953 H 781.927 -1.72917 -2.41841 0
M  V30 7954 H 779.46 -0.991982 -1.18318 0
M  V30 7955 H 781.418 0.111955 -4.10347 0
M  V30 7956 H 780.079 0.658692 -3.07116 0
M  V30 7957 H 779.272 -0.761758 -4.9821 0
M  V30 7958 H 778.874 -1.51383 -3.41993 0
M  V30 7959 H 781.166 -1.5691 -6.59079 0
M  V30 7960 H 782.109 -3.07823 -6.37692 0
M  V30 7961 H 782.517 -1.63433 -5.40324 0
M  V30 7962 N 781.915 1.24427 -0.967243 0
M  V30 7963 C 782.863 2.27403 -0.488927 0
M  V30 7964 C 783.857 1.63388 0.447302 0
M  V30 7965 O 785.063 1.77085 0.322643 0
M  V30 7966 H 781.438 0.738921 -0.139643 0
M  V30 7967 H 783.409 2.65122 -1.36942 0
M  V30 7968 C 782.158 3.4709 0.205787 0
M  V30 7969 H 781.481 3.96591 -0.50551 0
M  V30 7970 H 782.921 4.2099 0.504296 0
M  V30 7971 C 781.38 3.04923 1.43261 0
M  V30 7972 O 781.91 3.12043 2.52967 0
M  V30 7973 N 780.116 2.59976 1.29849 0
M  V30 7974 H 779.663 2.54382 0.405876 0
M  V30 7975 H 779.621 2.32128 2.12047 0
M  V30 7976 N 783.393 0.737304 1.3929 0
M  V30 7977 C 784.356 0.10731 2.28949 0
M  V30 7978 C 785.356 -0.664716 1.46418 0
M  V30 7979 O 786.546 -0.493392 1.67067 0
M  V30 7980 C 783.678 -0.857145 3.29948 0
M  V30 7981 H 784.871 0.89725 2.86163 0
M  V30 7982 H 782.424 0.503279 1.47976 0
M  V30 7983 H 783.159 -1.67336 2.77794 0
M  V30 7984 H 782.944 -0.306167 3.90903 0
M  V30 7985 H 784.434 -1.29444 3.97031 0
M  V30 7986 N 784.871 -1.49948 0.485112 0
M  V30 7987 C 785.834 -2.27351 -0.290546 0
M  V30 7988 C 786.834 -1.32704 -0.908087 0
M  V30 7989 O 788.024 -1.56007 -0.775085 0
M  V30 7990 C 785.156 -3.10135 -1.41524 0
M  V30 7991 H 786.349 -2.97374 0.388454 0
M  V30 7992 H 783.902 -1.54453 0.239586 0
M  V30 7993 H 784.637 -2.44641 -2.12888 0
M  V30 7994 H 784.422 -3.79705 -0.978074 0
M  V30 7995 H 785.912 -3.68638 -1.96204 0
M  V30 7996 N 786.349 -0.21828 -1.56081 0
M  V30 7997 C 787.281 0.725447 -2.17416 0
M  V30 7998 C 788.294 1.15995 -1.14233 0
M  V30 7999 O 789.483 1.09166 -1.41227 0
M  V30 8000 C 786.583 1.99401 -2.7403 0
M  V30 8001 C 785.756 1.7156 -4.02351 0
M  V30 8002 C 784.815 2.8309 -4.43561 0
M  V30 8003 O 783.841 2.51701 -5.10525 0
M  V30 8004 N 785.043 4.11972 -4.08973 0
M  V30 8005 H 787.808 0.200801 -2.99027 0
M  V30 8006 H 785.369 -0.0371514 -1.61857 0
M  V30 8007 H 787.361 2.73198 -2.98571 0
M  V30 8008 H 785.931 2.42923 -1.96742 0
M  V30 8009 H 785.151 0.814233 -3.85699 0
M  V30 8010 H 786.439 1.50385 -4.86068 0
M  V30 8011 H 785.837 4.40319 -3.55156 0
M  V30 8012 H 784.394 4.82323 -4.38415 0
M  V30 8013 N 787.827 1.57504 0.0551401 0
M  V30 8014 C 789.067 1.89895 0.756252 0
M  V30 8015 C 789.431 0.813983 1.73892 0
M  V30 8016 O 790.632 1.02145 2.48636 0
M  V30 8017 C 788.903 3.27494 1.43116 0
M  V30 8018 S 790.462 3.81669 2.16504 0
M  V30 8019 H 787.28 0.665173 0.251129 0
M  V30 8020 H 789.882 1.95496 0.0117193 0
M  V30 8021 H 788.586 4.04345 0.702391 0
M  V30 8022 H 788.117 3.25132 2.21479 0
M  V30 8023 H 790.132 3.58295 3.43277 0
M  V30 8024 N 789.305 -0.326896 1.54172 0
M  V30 8025 C 790.235 -1.40741 1.86317 0
M  V30 8026 C 791.216 -1.54125 0.719684 0
M  V30 8027 O 792.401 -1.6806 0.973117 0
M  V30 8028 C 789.531 -2.77557 2.08757 0
M  V30 8029 C 788.485 -2.78965 3.24596 0
M  V30 8030 C 787.811 -4.18824 3.32401 0
M  V30 8031 C 789.111 -2.4301 4.62324 0
M  V30 8032 H 790.805 -1.14088 2.76811 0
M  V30 8033 H 788.351 -0.547389 1.3319 0
M  V30 8034 H 790.304 -3.53209 2.29829 0
M  V30 8035 H 789.028 -3.0568 1.15009 0
M  V30 8036 H 787.687 -2.05767 3.03406 0
M  V30 8037 H 787.335 -4.44083 2.36218 0
M  V30 8038 H 787.035 -4.20673 4.10253 0
M  V30 8039 H 788.559 -4.96294 3.55703 0
M  V30 8040 H 789.973 -3.08375 4.83299 0
M  V30 8041 H 788.37 -2.56116 5.42701 0
M  V30 8042 H 789.44 -1.38165 4.64799 0
M  V30 8043 N 790.784 -1.46188 -0.588786 0
M  V30 8044 C 791.747 -1.55882 -1.68029 0
M  V30 8045 C 792.747 -0.436515 -1.54762 0
M  V30 8046 O 793.937 -0.700626 -1.59489 0
M  V30 8047 C 791.069 -1.47332 -3.07418 0
M  V30 8048 H 792.262 -2.5315 -1.60795 0
M  V30 8049 H 789.815 -1.33908 -0.806116 0
M  V30 8050 H 790.55 -0.513193 -3.20214 0
M  V30 8051 H 790.335 -2.28753 -3.18456 0
M  V30 8052 H 791.825 -1.57187 -3.86887 0
M  V30 8053 N 792.262 0.832906 -1.33792 0
M  V30 8054 C 793.212 1.93178 -1.21105 0
M  V30 8055 C 794.196 1.60506 -0.112491 0
M  V30 8056 O 795.388 1.73681 -0.341179 0
M  V30 8057 C 792.517 3.29647 -0.958526 0
M  V30 8058 C 791.603 3.68469 -2.0998 0
M  V30 8059 N 791.994 3.78936 -3.35024 0
M  V30 8060 C 790.292 3.98249 -2.00782 0
M  V30 8061 C 790.993 4.12731 -4.09912 0
M  V30 8062 N 789.969 4.25419 -3.38407 0
M  V30 8063 H 793.771 1.99434 -2.15878 0
M  V30 8064 H 791.285 1.02598 -1.25886 0
M  V30 8065 H 793.282 4.08173 -0.848552 0
M  V30 8066 H 791.942 3.24694 -0.019387 0
M  V30 8067 H 792.953 3.62688 -3.69699 0
M  V30 8068 H 789.63 4.01474 -1.14564 0
M  V30 8069 H 791.02 4.28117 -5.17847 0
M  V30 8070 N 793.74 1.17359 1.05189 0
M  V30 8071 C 795.151 0.96793 1.5965 0
M  V30 8072 C 795.502 -0.485355 1.90102 0
M  V30 8073 O 794.627 -1.36066 1.6827 0
M  V30 8074 C 795.222 1.75068 2.90063 0
M  V30 8075 C 793.781 1.58969 3.41183 0
M  V30 8076 C 792.928 1.75231 2.14917 0
M  V30 8077 H 795.879 1.32067 0.880001 0
M  V30 8078 H 795.9 1.23308 3.59966 0
M  V30 8079 H 795.412 2.80835 2.67868 0
M  V30 8080 H 793.513 0.556906 3.68415 0
M  V30 8081 H 793.626 2.38067 4.15766 0
M  V30 8082 H 791.99 1.18073 2.25679 0
M  V30 8083 H 792.773 2.8241 1.95191 0
M  V30 8084 N 795.218 -1.23913 0.973828 0
M  V30 8085 C 796.464 -1.92747 0.649635 0
M  V30 8086 C 796.819 -1.7465 -0.807157 0
M  V30 8087 O 796.112 -1.09271 -1.57386 0
M  V30 8088 C 796.306 -3.4406 0.967356 0
M  V30 8089 C 796.135 -3.76874 2.45348 0
M  V30 8090 C 794.905 -3.97915 3.11435 0
M  V30 8091 C 797.103 -3.82871 3.43386 0
M  V30 8092 N 795.085 -4.1788 4.49722 0
M  V30 8093 C 796.456 -4.07751 4.67053 0
M  V30 8094 C 798.511 -3.65634 3.37958 0
M  V30 8095 C 797.214 -4.17185 5.8596 0
M  V30 8096 C 799.24 -3.76317 4.56223 0
M  V30 8097 C 798.602 -4.01628 5.78683 0
M  V30 8098 H 794.701 -0.72677 0.288667 0
M  V30 8099 H 797.285 -1.4928 1.24994 0
M  V30 8100 H 795.456 -3.86378 0.395804 0
M  V30 8101 H 797.188 -4.00211 0.601108 0
M  V30 8102 H 793.943 -3.94562 2.61949 0
M  V30 8103 H 794.367 -4.31829 5.21395 0
M  V30 8104 H 799.009 -3.45067 2.44312 0
M  V30 8105 H 796.727 -4.36562 6.80029 0
M  V30 8106 H 800.313 -3.64343 4.53592 0
M  V30 8107 H 799.193 -4.09699 6.68667 0
M  V30 8108 N 796.696 -0.74468 -1.38897 0
M  V30 8109 C 797.626 -0.126355 -2.33158 0
M  V30 8110 C 798.607 0.713517 -1.54412 0
M  V30 8111 O 799.792 0.656523 -1.82766 0
M  V30 8112 C 796.922 0.774375 -3.38557 0
M  V30 8113 C 795.876 0.0379214 -4.27983 0
M  V30 8114 C 795.202 1.05631 -5.24162 0
M  V30 8115 C 796.502 -1.12523 -5.10035 0
M  V30 8116 H 798.196 -0.913744 -2.85116 0
M  V30 8117 H 795.742 -0.440847 -1.37086 0
M  V30 8118 H 797.695 1.21655 -4.03458 0
M  V30 8119 H 796.419 1.59399 -2.85061 0
M  V30 8120 H 795.078 -0.384733 -3.64576 0
M  V30 8121 H 794.726 1.86975 -4.66958 0
M  V30 8122 H 794.426 0.568261 -5.84846 0
M  V30 8123 H 795.95 1.49799 -5.9194 0
M  V30 8124 H 797.364 -0.761037 -5.68226 0
M  V30 8125 H 795.761 -1.54355 -5.79909 0
M  V30 8126 H 796.831 -1.94237 -4.44297 0
M  V30 8127 N 798.174 1.49689 -0.493057 0
M  V30 8128 C 799.122 2.30613 0.303383 0
M  V30 8129 C 800.116 1.38867 0.970165 0
M  V30 8130 O 801.322 1.55956 0.898761 0
M  V30 8131 H 797.697 0.742891 0.116691 0
M  V30 8132 H 799.668 2.95717 -0.39924 0
M  V30 8133 C 798.417 3.20008 1.35978 0
M  V30 8134 H 797.74 3.90526 0.856103 0
M  V30 8135 H 799.18 3.79586 1.88919 0
M  V30 8136 C 797.639 2.39079 2.37367 0
M  V30 8137 O 798.169 2.08933 3.43089 0
M  V30 8138 N 796.375 2.0125 2.09635 0
M  V30 8139 H 795.922 2.25966 1.23682 0
M  V30 8140 H 795.88 1.47408 2.77702 0
M  V30 8141 N 799.652 0.226554 1.55963 0
M  V30 8142 C 800.6 -0.697922 2.21882 0
M  V30 8143 C 801.594 -1.19586 1.19981 0
M  V30 8144 O 802.8 -1.15511 1.38048 0
M  V30 8145 H 799.175 -0.243501 0.711485 0
M  V30 8146 H 801.146 -0.118576 2.98164 0
M  V30 8147 C 799.895 -1.89309 2.91646 0
M  V30 8148 H 799.218 -1.51906 3.69817 0
M  V30 8149 H 800.658 -2.51762 3.41162 0
M  V30 8150 C 799.117 -2.75162 1.94391 0
M  V30 8151 O 799.647 -3.74071 1.46402 0
M  V30 8152 N 797.853 -2.41302 1.61932 0
M  V30 8153 H 797.4 -1.60923 2.01151 0
M  V30 8154 H 797.358 -2.99023 0.971219 0
M  V30 8155 N 801.13 -1.57531 -0.0467866 0
M  V30 8156 C 802.06 -2.08425 -1.05268 0
M  V30 8157 C 803.041 -0.982941 -1.38825 0
M  V30 8158 O 804.226 -1.25716 -1.48018 0
M  V30 8159 C 801.356 -2.54897 -2.35891 0
M  V30 8160 C 800.31 -3.69132 -2.16623 0
M  V30 8161 C 799.636 -4.01747 -3.52851 0
M  V30 8162 C 800.936 -4.98243 -1.56689 0
M  V30 8163 H 802.63 -2.92716 -0.62908 0
M  V30 8164 H 800.176 -1.40816 -0.301156 0
M  V30 8165 H 802.129 -2.8912 -3.06574 0
M  V30 8166 H 800.853 -1.67666 -2.80278 0
M  V30 8167 H 799.512 -3.35231 -1.48377 0
M  V30 8168 H 799.16 -3.11608 -3.94853 0
M  V30 8169 H 798.86 -4.78681 -3.4079 0
M  V30 8170 H 800.384 -4.38487 -4.24925 0
M  V30 8171 H 801.798 -5.30535 -2.17268 0
M  V30 8172 H 800.195 -5.79669 -1.55255 0
M  V30 8173 H 801.265 -4.81986 -0.530827 0
M  V30 8174 N 802.608 0.318715 -1.54344 0
M  V30 8175 C 803.571 1.37545 -1.83342 0
M  V30 8176 C 804.571 1.445 -0.705444 0
M  V30 8177 O 805.761 1.44443 -0.973752 0
M  V30 8178 C 802.893 2.76225 -1.99781 0
M  V30 8179 H 804.086 1.13084 -2.77762 0
M  V30 8180 H 801.639 0.554457 -1.46135 0
M  V30 8181 H 802.374 3.05934 -1.07588 0
M  V30 8182 H 802.159 2.7257 -2.81865 0
M  V30 8183 H 803.649 3.52664 -2.23647 0
M  V30 8184 N 804.086 1.46499 0.581025 0
M  V30 8185 C 804.996 1.59778 1.71779 0
M  V30 8186 C 806.012 0.481223 1.67213 0
M  V30 8187 O 807.188 0.74557 1.87091 0
M  V30 8188 C 804.253 1.58626 3.08283 0
M  V30 8189 C 803.314 2.81527 3.241 0
M  V30 8190 C 802.547 2.80421 4.54092 0
M  V30 8191 O 802.77 1.89262 5.38085 0
M  V30 8192 O 801.704 3.71984 4.73193 0
M  V30 8193 H 805.53 2.55918 1.63523 0
M  V30 8194 H 803.115 1.29311 0.748267 0
M  V30 8195 H 804.997 1.60686 3.89561 0
M  V30 8196 H 803.672 0.656467 3.16973 0
M  V30 8197 H 802.579 2.85021 2.42309 0
M  V30 8198 H 803.912 3.73721 3.20302 0
M  V30 8199 N 805.565 -0.825799 1.34232 0
M  V30 8200 C 806.512 -1.93651 1.2557 0
M  V30 8201 C 807.482 -1.65578 0.131536 0
M  V30 8202 O 808.667 -1.88231 0.312027 0
M  V30 8203 C 805.807 -3.29862 1.01415 0
M  V30 8204 C 804.92 -3.70247 2.22579 0
M  V30 8205 C 804.055 -4.95392 1.91731 0
M  V30 8206 C 803.094 -5.28349 3.09053 0
M  V30 8207 N 802.231 -6.44671 2.78107 0
M  V30 8208 H 807.071 -2.00392 2.20561 0
M  V30 8209 H 804.608 -0.980441 1.09662 0
M  V30 8210 H 806.566 -4.08356 0.854485 0
M  V30 8211 H 805.196 -3.22642 0.100936 0
M  V30 8212 H 804.248 -2.87169 2.49476 0
M  V30 8213 H 805.56 -3.90575 3.10246 0
M  V30 8214 H 804.714 -5.81665 1.72484 0
M  V30 8215 H 803.453 -4.77059 1.0132 0
M  V30 8216 H 802.458 -4.40574 3.289 0
M  V30 8217 H 803.683 -5.48622 4.00239 0
M  V30 8218 H 801.629 -6.278 1.9027 0
M  V30 8219 H 801.546 -6.65158 3.59306 0
M  V30 8220 H 802.814 -7.34022 2.62358 0
M  V30 8221 N 807.043 -1.17915 -1.04565 0
M  V30 8222 C 808.006 -0.903787 -2.10628 0
M  V30 8223 C 809.006 0.10873 -1.60432 0
M  V30 8224 O 810.196 -0.124152 -1.73757 0
M  V30 8225 C 807.328 -0.355017 -3.39046 0
M  V30 8226 H 808.521 -1.84425 -2.3649 0
M  V30 8227 H 806.074 -0.990477 -1.2091 0
M  V30 8228 H 806.809 0.592297 -3.18845 0
M  V30 8229 H 806.594 -1.08484 -3.76794 0
M  V30 8230 H 808.084 -0.180891 -4.17208 0
M  V30 8231 N 808.521 1.23394 -0.980386 0
M  V30 8232 C 809.468 2.24859 -0.520298 0
M  V30 8233 C 810.438 1.60144 0.440821 0
M  V30 8234 O 811.623 1.87593 0.348369 0
M  V30 8235 C 808.763 3.44675 0.171145 0
M  V30 8236 C 807.876 4.23947 -0.830233 0
M  V30 8237 C 807.011 5.31079 -0.113597 0
M  V30 8238 C 806.05 6.02058 -1.10419 0
M  V30 8239 N 805.187 7.00862 -0.416709 0
M  V30 8240 H 810.027 2.63579 -1.39032 0
M  V30 8241 H 807.564 1.29556 -0.696682 0
M  V30 8242 H 809.522 4.13024 0.588838 0
M  V30 8243 H 808.152 3.06755 1.00504 0
M  V30 8244 H 807.204 3.55016 -1.36631 0
M  V30 8245 H 808.516 4.72945 -1.58508 0
M  V30 8246 H 807.67 6.05622 0.36146 0
M  V30 8247 H 806.409 4.83022 0.673854 0
M  V30 8248 H 805.414 5.26307 -1.59 0
M  V30 8249 H 806.639 6.52203 -1.8923 0
M  V30 8250 H 804.585 6.55057 0.351535 0
M  V30 8251 H 804.502 7.47804 -1.11021 0
M  V30 8252 H 805.77 7.79492 0.0359606 0
M  V30 8253 N 809.999 0.752036 1.385 0
M  V30 8254 C 811.415 0.42946 1.53713 0
M  V30 8255 C 811.615 -1.0576 1.71514 0
M  V30 8256 O 810.671 -1.84366 1.72527 0
M  V30 8257 C 811.984 1.22735 2.74511 0
M  V30 8258 C 813.532 1.21727 2.8836 0
M  V30 8259 C 814.007 1.99809 4.12117 0
M  V30 8260 N 815.498 1.97062 4.19191 0
M  V30 8261 C 816.233 2.54274 5.13938 0
M  V30 8262 N 815.729 3.20193 6.14368 0
M  V30 8263 N 817.522 2.44212 5.06277 0
M  V30 8264 H 809.673 1.71581 1.25195 0
M  V30 8265 H 811.936 0.727293 0.60807 0
M  V30 8266 H 811.642 2.28032 2.67758 0
M  V30 8267 H 811.516 0.843186 3.67655 0
M  V30 8268 H 813.903 0.172367 2.94596 0
M  V30 8269 H 813.984 1.64094 1.96232 0
M  V30 8270 H 813.628 3.0431 4.06642 0
M  V30 8271 H 813.558 1.54837 5.03322 0
M  V30 8272 H 816.049 1.49054 3.47263 0
M  V30 8273 H 816.362 3.61272 6.83156 0
M  V30 8274 H 814.707 3.24287 6.14705 0
M  V30 8275 H 817.898 1.92343 4.26757 0
M  V30 8276 H 818.071 2.89096 5.79937 0
M  V30 8277 N 811.477 -1.49425 0.500989 0
M  V30 8278 C 812.717 -2.04357 -0.0419004 0
M  V30 8279 C 813.081 -1.37236 -1.34277 0
M  V30 8280 O 814.282 -1.82889 -1.9699 0
M  V30 8281 C 812.553 -3.56889 -0.19112 0
M  V30 8282 S 814.112 -4.33369 -0.688259 0
M  V30 8283 H 810.93 -0.710998 -0.00177796 0
M  V30 8284 H 813.532 -1.83479 0.674953 0
M  V30 8285 H 812.236 -4.03283 0.760964 0
M  V30 8286 H 811.767 -3.82171 -0.933214 0
M  V30 8287 H 813.782 -4.55961 -1.9574 0
M  V30 8288 N 812.955 -0.234822 -1.55841 0
M  V30 8289 C 813.903 0.686145 -2.22249 0
M  V30 8290 C 814.897 1.18948 -1.20614 0
M  V30 8291 O 816.103 1.14777 -1.38659 0
M  V30 8292 H 812.478 0.239724 -0.712767 0
M  V30 8293 H 814.449 0.102762 -2.98223 0
M  V30 8294 C 813.198 1.8776 -2.92646 0
M  V30 8295 H 812.521 1.49943 -3.70617 0
M  V30 8296 H 813.961 2.4995 -3.42493 0
M  V30 8297 C 812.42 2.74127 -1.95847 0
M  V30 8298 O 812.95 3.7329 -1.48384 0
M  V30 8299 N 811.156 2.4044 -1.63209 0
M  V30 8300 H 810.703 1.59854 -2.02001 0
M  V30 8301 H 810.661 2.98504 -0.987063 0
M  V30 8302 N 814.433 1.57553 0.0384317 0
M  V30 8303 C 815.849 1.54663 0.39391 0
M  V30 8304 C 816.049 0.959685 1.77179 0
M  V30 8305 O 815.105 0.576647 2.45827 0
M  V30 8306 C 816.418 2.99156 0.304352 0
M  V30 8307 C 817.966 3.10659 0.382119 0
M  V30 8308 C 818.441 4.56866 0.322111 0
M  V30 8309 N 819.932 4.61629 0.38119 0
M  V30 8310 C 820.667 5.72284 0.357501 0
M  V30 8311 N 820.163 6.92207 0.286654 0
M  V30 8312 N 821.956 5.60628 0.406538 0
M  V30 8313 H 814.107 1.9406 -0.86339 0
M  V30 8314 H 816.37 0.889673 -0.327392 0
M  V30 8315 H 816.076 3.45788 -0.642141 0
M  V30 8316 H 815.95 3.60753 1.10168 0
M  V30 8317 H 818.337 2.6398 1.31904 0
M  V30 8318 H 818.418 2.5191 -0.444391 0
M  V30 8319 H 818.062 5.0421 -0.611104 0
M  V30 8320 H 817.992 5.13515 1.1666 0
M  V30 8321 H 820.483 3.75343 0.438838 0
M  V30 8322 H 820.796 7.72316 0.273421 0
M  V30 8323 H 819.141 6.9454 0.252841 0
M  V30 8324 H 822.332 4.65836 0.459812 0
M  V30 8325 H 822.505 6.46858 0.384608 0
M  V30 8326 N 815.911 -0.310526 1.54511 0
M  V30 8327 C 817.327 -0.655637 1.45511 0
M  V30 8328 C 817.527 -1.91114 0.638564 0
M  V30 8329 O 816.583 -2.52098 0.142497 0
M  V30 8330 C 817.896 -0.817501 2.89374 0
M  V30 8331 C 819.444 -0.914003 2.99358 0
M  V30 8332 C 819.919 -1.10794 4.44397 0
M  V30 8333 N 821.41 -1.17437 4.48066 0
M  V30 8334 C 822.145 -1.34255 5.57461 0
M  V30 8335 N 821.641 -1.48032 6.768 0
M  V30 8336 N 823.434 -1.37067 5.45132 0
M  V30 8337 H 815.585 0.514506 2.06074 0
M  V30 8338 H 817.848 0.168478 0.932909 0
M  V30 8339 H 817.554 0.034003 3.51684 0
M  V30 8340 H 817.428 -1.7094 3.36243 0
M  V30 8341 H 819.815 -1.756 2.37168 0
M  V30 8342 H 819.896 0.00170958 2.558 0
M  V30 8343 H 819.54 -0.270743 5.07178 0
M  V30 8344 H 819.47 -2.03773 4.85576 0
M  V30 8345 H 821.961 -1.08181 3.62084 0
M  V30 8346 H 822.274 -1.60593 7.5593 0
M  V30 8347 H 820.619 -1.45105 6.79683 0
M  V30 8348 H 823.81 -1.25909 4.50849 0
M  V30 8349 H 823.983 -1.49831 6.3044 0
M  V30 8350 N 817.389 -1.46805 -0.573248 0
M  V30 8351 C 818.319 -1.60951 -1.69165 0
M  V30 8352 C 819.3 -0.45948 -1.63777 0
M  V30 8353 O 820.485 -0.68688 -1.81647 0
M  V30 8354 C 817.615 -1.60844 -3.07809 0
M  V30 8355 C 816.569 -2.74913 -3.28035 0
M  V30 8356 C 815.895 -2.59871 -4.67302 0
M  V30 8357 C 817.195 -4.16654 -3.14955 0
M  V30 8358 H 818.889 -2.54574 -1.57582 0
M  V30 8359 H 816.435 -1.22516 -0.756686 0
M  V30 8360 H 818.388 -1.69334 -3.85881 0
M  V30 8361 H 817.112 -0.637714 -3.20314 0
M  V30 8362 H 815.771 -2.65908 -2.52366 0
M  V30 8363 H 815.419 -1.60861 -4.76585 0
M  V30 8364 H 815.119 -3.36386 -4.81786 0
M  V30 8365 H 816.643 -2.70265 -5.4753 0
M  V30 8366 H 818.057 -4.26721 -3.82861 0
M  V30 8367 H 816.454 -4.93831 -3.40956 0
M  V30 8368 H 817.524 -4.36146 -2.11908 0
M  V30 8369 N 818.867 0.818669 -1.34668 0
M  V30 8370 C 819.814 1.92983 -1.26595 0
M  V30 8371 C 820.784 1.65506 -0.140315 0
M  V30 8372 O 821.969 1.88063 -0.322005 0
M  V30 8373 C 819.109 3.2932 -1.03163 0
M  V30 8374 C 818.222 3.69061 -2.24539 0
M  V30 8375 C 817.357 4.94368 -1.94355 0
M  V30 8376 C 816.396 5.26702 -3.11851 0
M  V30 8377 N 815.533 6.43187 -2.81522 0
M  V30 8378 H 820.373 1.99219 -2.2162 0
M  V30 8379 H 817.91 0.974612 -1.1018 0
M  V30 8380 H 819.868 4.07897 -0.87613 0
M  V30 8381 H 818.498 3.22584 -0.118045 0
M  V30 8382 H 817.55 2.85842 -2.50995 0
M  V30 8383 H 818.862 3.88924 -3.12313 0
M  V30 8384 H 818.016 5.80742 -1.75566 0
M  V30 8385 H 816.755 4.76515 -1.03848 0
M  V30 8386 H 815.76 4.38823 -3.31231 0
M  V30 8387 H 816.985 5.46492 -4.03142 0
M  V30 8388 H 814.931 6.26783 -1.93596 0
M  V30 8389 H 814.848 6.63243 -3.62829 0
M  V30 8390 H 816.116 7.32621 -2.66247 0
M  V30 8391 N 820.346 1.18468 1.03938 0
M  V30 8392 C 821.571 1.00638 1.81347 0
M  V30 8393 C 821.996 -0.440477 1.8287 0
M  V30 8394 O 821.354 -1.31609 1.24695 0
M  V30 8395 C 821.402 1.5673 3.24759 0
M  V30 8396 O 820.506 0.789517 4.04772 0
M  V30 8397 H 819.847 0.356432 0.560225 0
M  V30 8398 H 822.377 1.57253 1.30891 0
M  V30 8399 H 822.387 1.59496 3.75533 0
M  V30 8400 H 821.062 2.62043 3.22965 0
M  V30 8401 H 819.639 0.834267 3.63448 0
M  V30 8402 N 821.824 -1.22873 0.986916 0
M  V30 8403 C 822.756 -2.23889 0.490537 0
M  V30 8404 C 823.769 -1.57523 -0.411144 0
M  V30 8405 O 824.958 -1.7721 -0.214236 0
M  V30 8406 C 822.058 -3.37488 -0.30902 0
M  V30 8407 C 821.231 -4.33438 0.587354 0
M  V30 8408 C 820.29 -5.25958 -0.159467 0
M  V30 8409 O 819.316 -5.67394 0.453115 0
M  V30 8410 N 820.518 -5.62265 -1.44355 0
M  V30 8411 H 823.283 -2.67109 1.35914 0
M  V30 8412 H 820.844 -1.37111 0.860937 0
M  V30 8413 H 822.836 -3.96365 -0.817139 0
M  V30 8414 H 821.406 -2.934 -1.07868 0
M  V30 8415 H 820.626 -3.72969 1.27622 0
M  V30 8416 H 821.914 -4.94495 1.19801 0
M  V30 8417 H 821.312 -5.30562 -1.96266 0
M  V30 8418 H 819.869 -6.23585 -1.89698 0
M  V30 8419 N 823.302 -0.75937 -1.38099 0
M  V30 8420 C 824.551 -0.314864 -1.99227 0
M  V30 8421 C 824.864 1.1113 -1.60964 0
M  V30 8422 O 826.07 1.65657 -2.15105 0
M  V30 8423 C 824.526 -0.512001 -3.56239 0
M  V30 8424 C 824.134 -1.94762 -4.0345 0
M  V30 8425 C 825.878 -0.130497 -4.24299 0
M  V30 8426 C 823.785 -2.09301 -5.53125 0
M  V30 8427 H 822.715 -0.113978 -0.745335 0
M  V30 8428 H 825.366 -0.936736 -1.57789 0
M  V30 8429 H 823.748 0.179144 -3.95595 0
M  V30 8430 H 824.922 -2.67271 -3.75371 0
M  V30 8431 H 823.237 -2.28457 -3.48133 0
M  V30 8432 H 825.834 -0.21781 -5.34256 0
M  V30 8433 H 826.177 0.917644 -4.0606 0
M  V30 8434 H 826.71 -0.773716 -3.90203 0
M  V30 8435 H 823.449 -3.1239 -5.76275 0
M  V30 8436 H 822.969 -1.41261 -5.82928 0
M  V30 8437 H 824.648 -1.88571 -6.1891 0
M  V30 8438 N 824.78 1.49157 -0.508906 0
M  V30 8439 C 825.71 2.32109 0.254469 0
M  V30 8440 C 826.691 1.40754 0.955111 0
M  V30 8441 O 827.876 1.69658 0.944983 0
M  V30 8442 C 825.006 3.21458 1.3146 0
M  V30 8443 C 823.96 4.2167 0.733368 0
M  V30 8444 C 823.286 5.00009 1.8946 0
M  V30 8445 C 824.586 5.21544 -0.280875 0
M  V30 8446 H 826.28 2.9618 -0.43795 0
M  V30 8447 H 823.826 1.4243 -0.212062 0
M  V30 8448 H 825.779 3.78305 1.85643 0
M  V30 8449 H 824.503 2.55346 2.03632 0
M  V30 8450 H 823.162 3.65979 0.213231 0
M  V30 8451 H 822.81 4.30338 2.60419 0
M  V30 8452 H 822.51 5.67821 1.51173 0
M  V30 8453 H 824.034 5.59702 2.44061 0
M  V30 8454 H 825.448 5.73039 0.173095 0
M  V30 8455 H 823.845 5.97291 -0.580006 0
M  V30 8456 H 824.915 4.69969 -1.19404 0
M  V30 8457 N 826.258 0.243083 1.55714 0
M  V30 8458 C 827.188 -0.652336 2.24203 0
M  V30 8459 C 828.169 -1.1843 1.221 0
M  V30 8460 O 829.354 -1.22435 1.50743 0
M  V30 8461 C 826.484 -1.85111 2.93856 0
M  V30 8462 C 825.438 -1.45208 4.02615 0
M  V30 8463 C 824.764 -2.73137 4.59674 0
M  V30 8464 C 826.064 -0.625988 5.18535 0
M  V30 8465 H 827.758 -0.0812504 2.9929 0
M  V30 8466 H 825.304 -0.0376388 1.43951 0
M  V30 8467 H 827.257 -2.48314 3.40468 0
M  V30 8468 H 825.981 -2.44751 2.16251 0
M  V30 8469 H 824.64 -0.843406 3.56766 0
M  V30 8470 H 824.288 -3.30967 3.78774 0
M  V30 8471 H 823.988 -2.47163 5.33089 0
M  V30 8472 H 825.512 -3.37245 5.09017 0
M  V30 8473 H 826.926 -1.16223 5.61396 0
M  V30 8474 H 825.323 -0.462465 5.98315 0
M  V30 8475 H 826.393 0.362652 4.83542 0
M  V30 8476 N 827.736 -1.57571 -0.0300757 0
M  V30 8477 C 828.683 -2.06492 -1.03101 0
M  V30 8478 C 829.653 -0.953862 -1.3598 0
M  V30 8479 O 830.838 -1.22436 -1.46335 0
M  V30 8480 C 827.978 -2.54826 -2.32718 0
M  V30 8481 C 827.091 -3.79718 -2.06006 0
M  V30 8482 C 826.226 -4.16668 -3.29487 0
M  V30 8483 C 825.265 -5.3448 -2.98324 0
M  V30 8484 N 824.402 -5.66867 -4.14254 0
M  V30 8485 H 829.242 -2.91755 -0.606877 0
M  V30 8486 H 826.779 -1.44252 -0.288038 0
M  V30 8487 H 828.737 -2.80916 -3.08451 0
M  V30 8488 H 827.367 -1.72481 -2.72856 0
M  V30 8489 H 826.419 -3.60718 -1.20774 0
M  V30 8490 H 827.731 -4.65569 -1.79017 0
M  V30 8491 H 826.885 -4.43881 -4.13588 0
M  V30 8492 H 825.624 -3.29466 -3.59588 0
M  V30 8493 H 824.629 -5.07021 -2.12625 0
M  V30 8494 H 825.854 -6.23334 -2.69502 0
M  V30 8495 H 823.8 -4.82625 -4.44308 0
M  V30 8496 H 823.717 -6.47226 -3.90685 0
M  V30 8497 H 824.985 -5.98656 -4.99231 0
M  V30 8498 N 829.214 0.302327 -1.54673 0
M  V30 8499 C 830.161 1.37282 -1.85532 0
M  V30 8500 C 831.131 1.50437 -0.704129 0
M  V30 8501 O 832.316 1.65317 -0.952627 0
M  V30 8502 C 829.456 2.73309 -2.10704 0
M  V30 8503 C 828.569 2.68614 -3.38335 0
M  V30 8504 C 827.704 3.96626 -3.53357 0
M  V30 8505 C 826.743 3.86324 -4.74784 0
M  V30 8506 N 825.88 5.06109 -4.86619 0
M  V30 8507 H 830.72 1.10265 -2.76849 0
M  V30 8508 H 828.257 0.533346 -1.37091 0
M  V30 8509 H 830.215 3.52414 -2.23294 0
M  V30 8510 H 828.845 2.98589 -1.22656 0
M  V30 8511 H 827.897 1.81381 -3.34373 0
M  V30 8512 H 829.209 2.56891 -4.27561 0
M  V30 8513 H 828.363 4.84168 -3.65604 0
M  V30 8514 H 827.102 4.11182 -2.62261 0
M  V30 8515 H 826.107 2.97166 -4.62572 0
M  V30 8516 H 827.332 3.73315 -5.67286 0
M  V30 8517 H 825.278 5.2113 -3.98446 0
M  V30 8518 H 825.195 4.96804 -5.69844 0
M  V30 8519 H 826.463 5.95306 -5.03221 0
M  V30 8520 N 830.692 1.47107 0.565454 0
M  V30 8521 C 831.922 1.56681 1.34664 0
M  V30 8522 C 832.33 0.213011 1.87997 0
M  V30 8523 O 831.673 -0.802629 1.65238 0
M  V30 8524 C 831.735 2.52528 2.55871 0
M  V30 8525 C 831.399 3.98403 2.23883 0
M  V30 8526 C 832.396 4.87125 1.81673 0
M  V30 8527 C 830.081 4.43674 2.35496 0
M  V30 8528 C 832.075 6.19135 1.51494 0
M  V30 8529 C 829.762 5.75714 2.0493 0
M  V30 8530 C 830.76 6.63266 1.62996 0
M  V30 8531 O 830.448 7.92853 1.32813 0
M  V30 8532 H 830.18 0.531967 0.417117 0
M  V30 8533 H 832.734 1.93368 0.692669 0
M  V30 8534 H 830.964 2.10893 3.24131 0
M  V30 8535 H 832.653 2.5232 3.17945 0
M  V30 8536 H 833.419 4.534 1.72201 0
M  V30 8537 H 829.298 3.7574 2.67096 0
M  V30 8538 H 832.842 6.87429 1.1869 0
M  V30 8539 H 828.739 6.08983 2.14031 0
M  V30 8540 H 829.507 8.0528 1.46513 0
M  V30 8541 N 832.17 -0.811516 1.35101 0
M  V30 8542 C 833.1 -1.9378 1.30275 0
M  V30 8543 C 834.081 -1.69165 0.178075 0
M  V30 8544 O 835.266 -1.90599 0.372256 0
M  V30 8545 C 832.396 -3.30439 1.06899 0
M  V30 8546 C 831.35 -3.69523 2.15955 0
M  V30 8547 C 830.676 -5.0429 1.77751 0
M  V30 8548 C 831.976 -3.80419 3.57881 0
M  V30 8549 H 833.67 -1.98075 2.24514 0
M  V30 8550 H 831.216 -0.951586 1.08078 0
M  V30 8551 H 833.169 -4.08828 1.02164 0
M  V30 8552 H 831.893 -3.26473 0.0910462 0
M  V30 8553 H 830.552 -2.93416 2.19778 0
M  V30 8554 H 830.2 -4.96823 0.785876 0
M  V30 8555 H 829.9 -5.31411 2.5075 0
M  V30 8556 H 831.424 -5.85125 1.74533 0
M  V30 8557 H 832.838 -4.49051 3.56407 0
M  V30 8558 H 831.235 -4.19005 4.29598 0
M  V30 8559 H 832.305 -2.82105 3.94391 0
M  V30 8560 N 833.648 -1.19017 -1.03309 0
M  V30 8561 C 834.581 -0.867457 -2.1107 0
M  V30 8562 C 835.559 0.173752 -1.61669 0
M  V30 8563 O 836.743 0.0510077 -1.88431 0
M  V30 8564 C 833.87 -0.297459 -3.37391 0
M  V30 8565 C 832.916 -1.31706 -4.05655 0
M  V30 8566 S 833.749 -2.87591 -4.51721 0
M  V30 8567 C 834.905 -2.32122 -5.81266 0
M  V30 8568 H 835.138 -1.78008 -2.38119 0
M  V30 8569 H 832.671 -1.01686 -1.16187 0
M  V30 8570 H 834.629 0.0248889 -4.10492 0
M  V30 8571 H 833.29 0.5934 -3.08444 0
M  V30 8572 H 832.483 -0.867264 -4.96482 0
M  V30 8573 H 832.085 -1.58603 -3.38705 0
M  V30 8574 H 834.377 -1.70855 -6.55603 0
M  V30 8575 H 835.32 -3.2128 -6.31019 0
M  V30 8576 H 835.728 -1.74858 -5.36736 0
M  V30 8577 N 835.127 1.22348 -0.993418 0
M  V30 8578 C 836.074 2.24294 -0.544118 0
M  V30 8579 C 837.044 1.60602 0.42381 0
M  V30 8580 O 838.229 1.87952 0.328453 0
M  V30 8581 C 835.369 3.44837 0.134578 0
M  V30 8582 C 834.482 4.23043 -0.875151 0
M  V30 8583 C 833.617 5.30928 -0.169919 0
M  V30 8584 C 832.656 6.00853 -1.16798 0
M  V30 8585 N 831.793 7.00381 -0.491021 0
M  V30 8586 H 836.633 2.6209 -1.4182 0
M  V30 8587 H 834.17 1.2881 -0.710384 0
M  V30 8588 H 836.128 4.13625 0.544998 0
M  V30 8589 H 834.758 3.07804 0.972446 0
M  V30 8590 H 833.81 3.53546 -1.40389 0
M  V30 8591 H 835.122 4.71237 -1.63516 0
M  V30 8592 H 834.276 6.05972 0.297205 0
M  V30 8593 H 833.015 4.8371 0.622586 0
M  V30 8594 H 832.02 5.24591 -1.64573 0
M  V30 8595 H 833.245 6.50159 -1.96137 0
M  V30 8596 H 831.191 6.55393 0.282037 0
M  V30 8597 H 831.108 7.46584 -1.18947 0
M  V30 8598 H 832.376 7.79486 -0.0467169 0
M  V30 8599 N 836.605 0.766683 1.37694 0
M  V30 8600 C 838.021 0.445739 1.53249 0
M  V30 8601 C 838.221 -1.03935 1.72626 0
M  V30 8602 O 837.277 -1.82525 1.74473 0
M  V30 8603 C 838.59 1.2564 2.73194 0
M  V30 8604 C 840.138 1.24779 2.87053 0
M  V30 8605 C 840.613 2.04169 4.09974 0
M  V30 8606 N 842.104 2.01497 4.17077 0
M  V30 8607 C 842.839 2.5971 5.11212 0
M  V30 8608 N 842.335 3.26691 6.10938 0
M  V30 8609 N 844.128 2.49568 5.03659 0
M  V30 8610 H 836.279 1.72899 1.23368 0
M  V30 8611 H 838.542 0.733701 0.600322 0
M  V30 8612 H 838.248 2.30859 2.65324 0
M  V30 8613 H 838.122 0.882133 3.6674 0
M  V30 8614 H 840.509 0.203603 2.94397 0
M  V30 8615 H 840.59 1.66166 1.9448 0
M  V30 8616 H 840.234 3.08606 4.03392 0
M  V30 8617 H 840.164 1.60167 5.01651 0
M  V30 8618 H 842.655 1.52728 3.45662 0
M  V30 8619 H 842.968 3.68497 6.79286 0
M  V30 8620 H 841.313 3.30789 6.11231 0
M  V30 8621 H 844.504 1.96859 4.24693 0
M  V30 8622 H 844.677 2.95231 5.76839 0
M  V30 8623 N 838.083 -1.48885 0.516809 0
M  V30 8624 C 839.499 -1.58651 0.173788 0
M  V30 8625 C 839.699 -1.52033 -1.32243 0
M  V30 8626 O 838.755 -1.40251 -2.09967 0
M  V30 8627 C 840.068 -2.90816 0.764628 0
M  V30 8628 C 841.616 -3.04316 0.732164 0
M  V30 8629 C 842.091 -4.39123 1.30135 0
M  V30 8630 N 843.582 -4.45656 1.26273 0
M  V30 8631 C 844.317 -5.48446 1.67317 0
M  V30 8632 N 843.813 -6.58258 2.16028 0
M  V30 8633 N 845.606 -5.39251 1.58635 0
M  V30 8634 H 837.757 -1.5143 1.48939 0
M  V30 8635 H 840.02 -0.718243 0.618733 0
M  V30 8636 H 839.726 -3.01275 1.81456 0
M  V30 8637 H 839.6 -3.76473 0.234113 0
M  V30 8638 H 841.987 -2.93478 -0.308975 0
M  V30 8639 H 842.068 -2.20303 1.3 0
M  V30 8640 H 841.712 -4.50714 2.34135 0
M  V30 8641 H 841.642 -5.21801 0.709305 0
M  V30 8642 H 844.133 -3.66879 0.906006 0
M  V30 8643 H 844.446 -7.32811 2.45374 0
M  V30 8644 H 842.791 -6.59257 2.20013 0
M  V30 8645 H 845.982 -4.52354 1.20387 0
M  V30 8646 H 846.155 -6.19229 1.90944 0
M  V30 8647 N 839.561 -0.251338 -1.55583 0
M  V30 8648 C 840.807 0.365823 -2.00083 0
M  V30 8649 C 841.162 1.55242 -1.13656 0
M  V30 8650 O 840.455 1.90624 -0.193108 0
M  V30 8651 C 840.649 0.821186 -3.47838 0
M  V30 8652 C 840.478 -0.319746 -4.48562 0
M  V30 8653 C 839.248 -0.795866 -4.98993 0
M  V30 8654 C 841.446 -1.14825 -5.01318 0
M  V30 8655 N 839.428 -1.90875 -5.83472 0
M  V30 8656 C 840.799 -2.10943 -5.83012 0
M  V30 8657 C 842.854 -1.18431 -4.8361 0
M  V30 8658 C 841.557 -3.10383 -6.48888 0
M  V30 8659 C 843.583 -2.16703 -5.50267 0
M  V30 8660 C 842.945 -3.11557 -6.31753 0
M  V30 8661 H 839.044 0.0996971 -0.775619 0
M  V30 8662 H 841.628 -0.36993 -1.91153 0
M  V30 8663 H 839.799 1.52622 -3.57157 0
M  V30 8664 H 841.531 1.41367 -3.79206 0
M  V30 8665 H 838.286 -0.379242 -4.72079 0
M  V30 8666 H 838.71 -2.46808 -6.30408 0
M  V30 8667 H 843.352 -0.464824 -4.20237 0
M  V30 8668 H 841.07 -3.83277 -7.11424 0
M  V30 8669 H 844.656 -2.20204 -5.38518 0
M  V30 8670 H 843.536 -3.86357 -6.82421 0
M  V30 8671 N 841.039 1.57585 0.0217189 0
M  V30 8672 C 841.986 2.07036 1.02004 0
M  V30 8673 C 842.956 0.96106 1.35473 0
M  V30 8674 O 844.141 1.23211 1.45684 0
M  V30 8675 C 841.281 2.56056 2.31364 0
M  V30 8676 C 840.394 3.80805 2.03989 0
M  V30 8677 C 839.529 4.18409 3.27272 0
M  V30 8678 C 838.568 5.36055 2.95486 0
M  V30 8679 N 837.705 5.69056 4.11242 0
M  V30 8680 H 842.545 2.92073 0.591396 0
M  V30 8681 H 840.082 1.44403 0.280384 0
M  V30 8682 H 842.04 2.82548 3.06957 0
M  V30 8683 H 840.67 1.73925 2.71937 0
M  V30 8684 H 839.722 3.61354 1.1886 0
M  V30 8685 H 841.034 4.66512 1.76546 0
M  V30 8686 H 840.188 4.46068 4.11228 0
M  V30 8687 H 838.927 3.31369 3.57835 0
M  V30 8688 H 837.932 5.08142 2.09933 0
M  V30 8689 H 839.157 6.24755 2.66193 0
M  V30 8690 H 837.103 4.84974 4.41742 0
M  V30 8691 H 837.02 6.49288 3.87247 0
M  V30 8692 H 838.288 6.01295 4.96049 0
M  V30 8693 N 842.517 -0.29412 1.54831 0
M  V30 8694 C 843.464 -1.36296 1.86258 0
M  V30 8695 C 844.434 -1.50061 0.712097 0
M  V30 8696 O 845.619 -1.64809 0.961381 0
M  V30 8697 C 842.759 -2.72187 2.12151 0
M  V30 8698 C 841.872 -2.66816 3.39755 0
M  V30 8699 C 841.007 -3.94747 3.55455 0
M  V30 8700 C 840.046 -3.838 4.76827 0
M  V30 8701 N 839.183 -5.03521 4.89296 0
M  V30 8702 H 844.023 -1.08796 2.7743 0
M  V30 8703 H 841.56 -0.526069 1.37371 0
M  V30 8704 H 843.518 -3.51225 2.25159 0
M  V30 8705 H 842.148 -2.97934 1.24237 0
M  V30 8706 H 841.2 -1.79605 3.3533 0
M  V30 8707 H 842.512 -2.5462 4.28917 0
M  V30 8708 H 841.666 -4.82223 3.68166 0
M  V30 8709 H 840.405 -4.09785 2.64438 0
M  V30 8710 H 839.41 -2.94708 4.64141 0
M  V30 8711 H 840.635 -3.70301 5.69258 0
M  V30 8712 H 838.581 -5.1901 4.01204 0
M  V30 8713 H 838.498 -4.93775 5.72471 0
M  V30 8714 H 839.766 -5.92629 5.06371 0
M  V30 8715 N 843.995 -1.47404 -0.557645 0
M  V30 8716 C 844.943 -1.60265 -1.68576 0
M  V30 8717 C 845.937 -0.469982 -1.6275 0
M  V30 8718 O 847.143 -0.647764 -1.67941 0
M  V30 8719 H 843.518 -0.504353 -0.557792 0
M  V30 8720 H 845.489 -2.55066 -1.54867 0
M  V30 8721 C 844.238 -1.63369 -3.0693 0
M  V30 8722 H 843.561 -2.49874 -3.12095 0
M  V30 8723 H 845.001 -1.76417 -3.85556 0
M  V30 8724 C 843.46 -0.366921 -3.34896 0
M  V30 8725 O 843.99 0.53218 -3.98159 0
M  V30 8726 N 842.196 -0.247082 -2.89548 0
M  V30 8727 H 841.743 -0.979669 -2.38244 0
M  V30 8728 H 841.701 0.599552 -3.0863 0
M  V30 8729 N 845.473 0.80434 -1.35529 0
M  V30 8730 C 846.72 1.56154 -1.28927 0
M  V30 8731 C 847.048 1.94026 0.135682 0
M  V30 8732 O 846.303 1.61759 1.10148 0
M  V30 8733 C 846.602 2.85988 -2.14349 0
M  V30 8734 C 846.268 2.67323 -3.6311 0
M  V30 8735 C 844.93 2.61941 -4.03659 0
M  V30 8736 C 847.282 2.49699 -4.57493 0
M  V30 8737 C 844.61 2.3688 -5.36754 0
M  V30 8738 C 846.962 2.26168 -5.90788 0
M  V30 8739 C 845.626 2.19209 -6.30479 0
M  V30 8740 H 844.896 0.571407 -0.471779 0
M  V30 8741 H 847.543 0.929193 -1.67446 0
M  V30 8742 H 845.848 3.53612 -1.68718 0
M  V30 8743 H 847.545 3.43697 -2.06576 0
M  V30 8744 H 844.135 2.72361 -3.30934 0
M  V30 8745 H 848.319 2.52869 -4.27049 0
M  V30 8746 H 843.575 2.29964 -5.66504 0
M  V30 8747 H 847.749 2.11522 -6.63499 0
M  V30 8748 H 845.376 1.99553 -7.33541 0
M  V30 8749 N 846.951 1.19563 1.02676 0
M  V30 8750 C 848.2 0.993864 1.75514 0
M  V30 8751 C 848.513 -0.475882 1.89723 0
M  V30 8752 O 849.719 -0.796525 2.59553 0
M  V30 8753 C 848.175 1.72937 3.15628 0
M  V30 8754 C 847.783 3.23937 3.09466 0
M  V30 8755 C 849.527 1.61092 3.92746 0
M  V30 8756 C 847.434 3.90067 4.44524 0
M  V30 8757 H 846.364 0.368244 0.657961 0
M  V30 8758 H 849.015 1.43081 1.14891 0
M  V30 8759 H 847.397 1.22025 3.76731 0
M  V30 8760 H 848.571 3.81983 2.57731 0
M  V30 8761 H 846.886 3.3608 2.45843 0
M  V30 8762 H 849.483 2.07848 4.92649 0
M  V30 8763 H 849.826 0.565415 4.12442 0
M  V30 8764 H 850.359 2.09361 3.3825 0
M  V30 8765 H 847.098 4.94725 4.30032 0
M  V30 8766 H 846.618 3.36809 4.96306 0
M  V30 8767 H 848.297 3.93736 5.13401 0
M  V30 8768 N 848.429 -1.21819 0.999893 0
M  V30 8769 C 849.392 -2.22227 0.561044 0
M  V30 8770 C 850.392 -1.56722 -0.359858 0
M  V30 8771 O 851.582 -1.73546 -0.150848 0
M  V30 8772 C 848.714 -3.40409 -0.182987 0
M  V30 8773 H 849.907 -2.62567 1.44909 0
M  V30 8774 H 847.46 -1.34991 0.78785 0
M  V30 8775 H 848.195 -3.05551 -1.08671 0
M  V30 8776 H 847.98 -3.89171 0.47833 0
M  V30 8777 H 849.47 -4.14856 -0.477952 0
M  V30 8778 N 849.908 -0.773975 -1.37286 0
M  V30 8779 C 851.154 -0.339809 -1.99933 0
M  V30 8780 C 851.487 1.0815 -1.61299 0
M  V30 8781 O 850.762 1.74442 -0.860252 0
M  V30 8782 C 851.045 -0.485919 -3.56806 0
M  V30 8783 C 850.898 -1.9498 -4.05343 0
M  V30 8784 C 852.217 0.108461 -4.39966 0
M  V30 8785 H 849.336 -0.124944 -0.726332 0
M  V30 8786 H 851.978 -0.977433 -1.6293 0
M  V30 8787 H 850.128 0.0569023 -3.88458 0
M  V30 8788 H 851.8 -2.5525 -3.84246 0
M  V30 8789 H 850.043 -2.45784 -3.57453 0
M  V30 8790 H 850.714 -2.00308 -5.14374 0
M  V30 8791 H 853.19 -0.354722 -4.14585 0
M  V30 8792 H 852.066 -0.0238926 -5.48895 0
M  V30 8793 H 852.327 1.19901 -4.25531 0
M  V30 8794 N 851.386 1.48609 -0.524698 0
M  V30 8795 C 852.611 2.07398 0.00952139 0
M  V30 8796 C 853.036 1.37939 1.27884 0
M  V30 8797 O 852.394 0.443633 1.75788 0
M  V30 8798 C 852.442 3.59916 0.221956 0
M  V30 8799 O 851.546 3.91647 1.29175 0
M  V30 8800 H 850.887 0.662981 -0.0367729 0
M  V30 8801 H 853.417 1.91092 -0.7311 0
M  V30 8802 H 853.427 4.05552 0.446236 0
M  V30 8803 H 852.102 4.09876 -0.705306 0
M  V30 8804 H 850.679 3.57796 1.05055 0
M  V30 8805 N 852.864 0.259585 1.55447 0
M  V30 8806 C 853.827 -0.621359 2.20617 0
M  V30 8807 C 854.827 -1.09317 1.17925 0
M  V30 8808 O 856.017 -0.995842 1.42929 0
M  V30 8809 C 853.149 -1.85546 2.85982 0
M  V30 8810 H 854.342 -0.0525833 2.99854 0
M  V30 8811 H 851.895 0.0101055 1.56297 0
M  V30 8812 H 852.63 -2.46515 2.10715 0
M  V30 8813 H 852.415 -1.52523 3.61219 0
M  V30 8814 H 853.905 -2.48227 3.35817 0
M  V30 8815 N 854.342 -1.57594 -0.0133615 0
M  V30 8816 C 855.305 -2.06534 -0.993799 0
M  V30 8817 C 856.305 -0.972267 -1.28077 0
M  V30 8818 O 857.495 -1.23537 -1.22818 0
M  V30 8819 C 854.627 -2.49554 -2.3224 0
M  V30 8820 H 855.82 -2.94419 -0.570741 0
M  V30 8821 H 853.373 -1.54113 -0.260546 0
M  V30 8822 H 854.108 -1.64872 -2.79263 0
M  V30 8823 H 853.893 -3.29371 -2.12737 0
M  V30 8824 H 855.383 -2.8779 -3.026 0
M  V30 8825 N 855.82 0.285905 -1.54985 0
M  V30 8826 C 856.768 1.37302 -1.87752 0
M  V30 8827 C 857.762 1.51763 -0.752616 0
M  V30 8828 O 858.968 1.53701 -0.936805 0
M  V30 8829 H 855.343 0.458935 -0.59572 0
M  V30 8830 H 857.314 1.0691 -2.78591 0
M  V30 8831 C 856.063 2.72885 -2.15474 0
M  V30 8832 H 855.386 2.62545 -3.01513 0
M  V30 8833 H 856.826 3.47925 -2.42331 0
M  V30 8834 C 855.285 3.22989 -0.958124 0
M  V30 8835 O 855.815 4.01268 -0.186219 0
M  V30 8836 N 854.021 2.80503 -0.759354 0
M  V30 8837 H 853.568 2.16961 -1.38874 0
M  V30 8838 H 853.526 3.14375 0.0396937 0
M  V30 8839 N 857.298 1.47698 0.54982 0
M  V30 8840 C 858.714 1.3338 0.876468 0
M  V30 8841 C 858.914 0.329837 1.98782 0
M  V30 8842 O 857.97 -0.256022 2.51199 0
M  V30 8843 C 859.283 2.72903 1.26272 0
M  V30 8844 C 860.831 2.81243 1.37373 0
M  V30 8845 C 861.306 4.21423 1.79351 0
M  V30 8846 N 862.797 4.24 1.86489 0
M  V30 8847 C 863.532 5.29386 2.20313 0
M  V30 8848 N 863.028 6.4507 2.527 0
M  V30 8849 N 864.821 5.16768 2.2115 0
M  V30 8850 H 856.972 2.11603 -0.183781 0
M  V30 8851 H 859.235 0.947798 -0.0195601 0
M  V30 8852 H 858.941 3.47836 0.519889 0
M  V30 8853 H 858.815 3.05151 2.21727 0
M  V30 8854 H 861.202 2.06577 2.10737 0
M  V30 8855 H 861.283 2.52639 0.400882 0
M  V30 8856 H 860.927 4.96597 1.06555 0
M  V30 8857 H 860.857 4.47456 2.77652 0
M  V30 8858 H 863.348 3.40547 1.63817 0
M  V30 8859 H 863.661 7.21236 2.77557 0
M  V30 8860 H 862.006 6.48377 2.50263 0
M  V30 8861 H 865.197 4.25416 1.95293 0
M  V30 8862 H 865.37 5.99004 2.4718 0
M  V30 8863 N 858.776 -0.797141 1.35954 0
M  V30 8864 C 860.023 -1.55468 1.29754 0
M  V30 8865 C 860.351 -1.94095 -0.125391 0
M  V30 8866 O 859.606 -1.62341 -1.09288 0
M  V30 8867 C 859.905 -2.84847 2.15863 0
M  V30 8868 C 859.571 -2.65394 3.64523 0
M  V30 8869 C 858.233 -2.59796 4.05042 0
M  V30 8870 C 860.585 -2.4727 4.58811 0
M  V30 8871 C 857.913 -2.3403 5.38002 0
M  V30 8872 C 860.265 -2.23032 5.91979 0
M  V30 8873 C 858.929 -2.15862 6.31633 0
M  V30 8874 H 858.199 -0.568897 0.474803 0
M  V30 8875 H 860.846 -0.920299 1.67937 0
M  V30 8876 H 859.151 -3.52712 1.70591 0
M  V30 8877 H 860.848 -3.42597 2.08395 0
M  V30 8878 H 857.438 -2.70602 3.32374 0
M  V30 8879 H 861.622 -2.506 4.28384 0
M  V30 8880 H 856.878 -2.26956 5.67715 0
M  V30 8881 H 861.052 -2.08001 6.64612 0
M  V30 8882 H 858.679 -1.9566 7.34589 0
M  V30 8883 N 860.254 -1.20106 -1.0204 0
M  V30 8884 C 861.201 -0.946468 -2.10501 0
M  V30 8885 C 862.171 0.121902 -1.65652 0
M  V30 8886 O 863.356 -0.0220244 -1.90787 0
M  V30 8887 C 860.496 -0.500499 -3.41451 0
M  V30 8888 C 859.609 -1.63659 -3.998 0
M  V30 8889 C 858.744 -1.14131 -5.18794 0
M  V30 8890 C 857.783 -2.25074 -5.69217 0
M  V30 8891 N 856.92 -1.76791 -6.79477 0
M  V30 8892 H 861.76 -1.87506 -2.31615 0
M  V30 8893 H 859.297 -0.934693 -1.13587 0
M  V30 8894 H 861.255 -0.223276 -4.16602 0
M  V30 8895 H 859.885 0.391099 -3.20422 0
M  V30 8896 H 858.937 -2.02882 -3.21781 0
M  V30 8897 H 860.249 -2.47213 -4.33229 0
M  V30 8898 H 859.403 -0.819826 -6.01135 0
M  V30 8899 H 858.142 -0.275615 -4.86921 0
M  V30 8900 H 857.147 -2.58043 -4.85483 0
M  V30 8901 H 858.372 -3.12114 -6.03127 0
M  V30 8902 H 856.318 -0.925428 -6.4944 0
M  V30 8903 H 856.235 -2.53928 -7.12079 0
M  V30 8904 H 857.503 -1.47631 -7.65392 0
M  V30 8905 N 861.732 1.21287 -1.00634 0
M  V30 8906 C 862.679 2.23705 -0.567876 0
M  V30 8907 C 863.649 1.61043 0.406753 0
M  V30 8908 O 864.834 1.88289 0.308499 0
M  V30 8909 C 861.974 3.44961 0.097996 0
M  V30 8910 C 861.087 4.22091 -0.919972 0
M  V30 8911 C 860.222 5.30718 -0.226222 0
M  V30 8912 C 859.261 5.99581 -1.23165 0
M  V30 8913 N 858.398 6.99821 -0.565278 0
M  V30 8914 H 863.238 2.60571 -1.44592 0
M  V30 8915 H 860.775 1.28049 -0.724006 0
M  V30 8916 H 862.733 4.1418 0.501097 0
M  V30 8917 H 861.363 3.08818 0.939744 0
M  V30 8918 H 860.415 3.52038 -1.44131 0
M  V30 8919 H 861.727 4.69476 -1.68505 0
M  V30 8920 H 860.881 6.06253 0.232917 0
M  V30 8921 H 859.62 4.84343 0.571247 0
M  V30 8922 H 858.625 5.22816 -1.70128 0
M  V30 8923 H 859.85 6.48042 -2.03022 0
M  V30 8924 H 857.796 6.55656 0.212508 0
M  V30 8925 H 857.713 7.4528 -1.26858 0
M  V30 8926 H 858.981 7.79393 -0.129389 0
M  V30 8927 N 863.21 0.781244 1.36873 0
M  V30 8928 C 864.459 0.34652 1.98701 0
M  V30 8929 C 864.772 -1.08555 1.62712 0
M  V30 8930 O 865.978 -1.62213 2.17713 0
M  V30 8931 C 864.434 0.568611 3.5538 0
M  V30 8932 C 864.042 2.01156 4.003 0
M  V30 8933 C 865.786 0.197983 4.24038 0
M  V30 8934 C 863.693 2.18074 5.49725 0
M  V30 8935 H 862.623 0.125821 0.743428 0
M  V30 8936 H 865.274 0.961721 1.56279 0
M  V30 8937 H 863.656 -0.116185 3.9583 0
M  V30 8938 H 864.83 2.73209 3.71071 0
M  V30 8939 H 863.145 2.33967 3.44454 0
M  V30 8940 H 865.742 0.302778 5.33842 0
M  V30 8941 H 866.085 -0.852927 4.07469 0
M  V30 8942 H 866.618 0.835696 3.88923 0
M  V30 8943 H 863.357 3.21519 5.71232 0
M  V30 8944 H 862.877 1.50517 5.80607 0
M  V30 8945 H 864.556 1.98393 6.15832 0
M  V30 8946 N 864.689 -1.48329 0.532571 0
M  V30 8947 C 865.914 -2.074 0.00147755 0
M  V30 8948 C 866.339 -1.38615 -1.27151 0
M  V30 8949 O 865.697 -0.452949 -1.75551 0
M  V30 8950 C 865.745 -3.60029 -0.202866 0
M  V30 8951 O 864.849 -3.92327 -1.27097 0
M  V30 8952 H 864.19 -0.662777 0.0402883 0
M  V30 8953 H 866.72 -1.90701 0.741224 0
M  V30 8954 H 866.73 -4.05783 -0.424722 0
M  V30 8955 H 865.405 -4.09496 0.727033 0
M  V30 8956 H 863.982 -3.58348 -1.03156 0
M  V30 8957 N 866.167 -0.267825 -1.55308 0
M  V30 8958 C 867.392 0.357487 -2.04296 0
M  V30 8959 C 867.817 1.49222 -1.14518 0
M  V30 8960 O 867.175 1.80741 -0.142292 0
M  V30 8961 C 867.223 0.822899 -3.51085 0
M  V30 8962 O 866.327 1.93078 -3.6441 0
M  V30 8963 H 865.668 0.075025 -0.659748 0
M  V30 8964 H 868.198 -0.399996 -2.00652 0
M  V30 8965 H 868.208 1.12059 -3.92309 0
M  V30 8966 H 866.883 -0.0073562 -4.15899 0
M  V30 8967 H 865.46 1.63618 -3.35087 0
M  V30 8968 N 867.645 1.57599 0.00500368 0
M  V30 8969 C 868.87 1.95026 0.705663 0
M  V30 8970 C 869.295 0.869643 1.6679 0
M  V30 8971 O 868.653 -0.172659 1.80476 0
M  V30 8972 C 868.701 3.31545 1.4181 0
M  V30 8973 O 867.805 3.25495 2.53232 0
M  V30 8974 H 867.146 0.636808 0.188074 0
M  V30 8975 H 869.676 2.04547 -0.046696 0
M  V30 8976 H 869.686 3.66996 1.78265 0
M  V30 8977 H 868.361 4.09751 0.712543 0
M  V30 8978 H 866.938 3.01714 2.19142 0
M  V30 8979 N 869.123 -0.277682 1.55134 0
M  V30 8980 C 870.371 -1.00791 1.75173 0
M  V30 8981 C 870.692 -1.86987 0.553266 0
M  V30 8982 O 869.962 -1.91079 -0.43195 0
M  V30 8983 H 868.542 -0.375129 0.645978 0
M  V30 8984 H 871.204 -0.303041 1.9253 0
M  V30 8985 H 870.3 -1.64756 2.6507 0
M  V30 8986 N 870.601 -1.47988 -0.541979 0
M  V30 8987 C 871.564 -1.61148 -1.62984 0
M  V30 8988 C 872.564 -0.48553 -1.53295 0
M  V30 8989 O 873.754 -0.751012 -1.5718 0
M  V30 8990 C 870.886 -1.57038 -3.02576 0
M  V30 8991 H 872.079 -2.58138 -1.52659 0
M  V30 8992 H 869.632 -1.36405 -0.763106 0
M  V30 8993 H 870.367 -0.614807 -3.18419 0
M  V30 8994 H 870.152 -2.38769 -3.11018 0
M  V30 8995 H 871.642 -1.69416 -3.81691 0
M  V30 8996 N 872.079 0.78992 -1.36375 0
M  V30 8997 C 873.009 1.91683 -1.33341 0
M  V30 8998 C 873.99 1.68861 -0.204965 0
M  V30 8999 O 875.175 1.89982 -0.402531 0
M  V30 9000 C 872.305 3.28696 -1.12143 0
M  V30 9001 C 871.259 3.66041 -2.21806 0
M  V30 9002 C 870.585 5.01399 -1.85751 0
M  V30 9003 C 871.885 3.74677 -3.63888 0
M  V30 9004 H 873.579 1.94478 -2.27637 0
M  V30 9005 H 871.125 0.934271 -1.09578 0
M  V30 9006 H 873.078 4.07151 -1.08656 0
M  V30 9007 H 871.802 3.26287 -0.142974 0
M  V30 9008 H 870.461 2.89883 -2.24418 0
M  V30 9009 H 870.109 4.9551 -0.864817 0
M  V30 9010 H 869.809 5.27355 -2.59173 0
M  V30 9011 H 871.333 5.82274 -1.83819 0
M  V30 9012 H 872.747 4.43324 -3.63506 0
M  V30 9013 H 871.144 4.12118 -4.3621 0
M  V30 9014 H 872.214 2.75795 -3.9883 0
M  V30 9015 N 873.557 1.20646 1.01402 0
M  V30 9016 C 874.49 0.900926 2.09663 0
M  V30 9017 C 875.468 -0.14801 1.61925 0
M  V30 9018 O 876.652 -0.0210235 1.88488 0
M  V30 9019 C 873.779 0.351097 3.36875 0
M  V30 9020 C 872.825 1.38142 4.03508 0
M  V30 9021 S 873.658 2.94741 4.47089 0
M  V30 9022 C 874.814 2.41341 5.77499 0
M  V30 9023 H 875.047 1.81773 2.35257 0
M  V30 9024 H 872.58 1.03521 1.14555 0
M  V30 9025 H 874.538 0.0404201 4.1048 0
M  V30 9026 H 873.199 -0.544255 3.09349 0
M  V30 9027 H 872.392 0.94614 4.9504 0
M  V30 9028 H 871.994 1.63971 3.36139 0
M  V30 9029 H 874.286 1.81263 6.52802 0
M  V30 9030 H 875.229 3.31278 6.25828 0
M  V30 9031 H 875.637 1.83374 5.33886 0
M  V30 9032 N 875.035 -1.20752 1.01276 0
M  V30 9033 C 875.998 -2.2162 0.584583 0
M  V30 9034 C 876.998 -1.57094 -0.343215 0
M  V30 9035 O 878.188 -1.73696 -0.132433 0
M  V30 9036 C 875.32 -3.40583 -0.146872 0
M  V30 9037 H 876.513 -2.61015 1.47686 0
M  V30 9038 H 874.066 -1.34148 0.802123 0
M  V30 9039 H 874.801 -3.06686 -1.05424 0
M  V30 9040 H 874.586 -3.88642 0.51958 0
M  V30 9041 H 876.076 -4.15339 -0.433924 0
M  V30 9042 N 876.513 -0.788492 -1.36457 0
M  V30 9043 C 877.443 -0.200468 -2.32638 0
M  V30 9044 C 878.424 0.664031 -1.56603 0
M  V30 9045 O 879.609 0.598045 -1.84762 0
M  V30 9046 C 876.739 0.666274 -3.40849 0
M  V30 9047 C 875.693 -0.0982574 -4.27887 0
M  V30 9048 C 875.019 0.889018 -5.27258 0
M  V30 9049 C 876.319 -1.28692 -5.06197 0
M  V30 9050 H 878.013 -1.00399 -2.82065 0
M  V30 9051 H 875.559 -0.484237 -1.35614 0
M  V30 9052 H 877.512 1.08757 -4.07124 0
M  V30 9053 H 876.236 1.50249 -2.89987 0
M  V30 9054 H 874.895 -0.500525 -3.63167 0
M  V30 9055 H 874.543 1.72024 -4.7267 0
M  V30 9056 H 874.243 0.381909 -5.86358 0
M  V30 9057 H 875.767 1.30891 -5.96406 0
M  V30 9058 H 877.181 -0.941429 -5.65517 0
M  V30 9059 H 875.578 -1.72726 -5.74705 0
M  V30 9060 H 876.648 -2.08273 -4.37893 0
M  V30 9061 N 877.991 1.48044 -0.54043 0
M  V30 9062 C 879.239 2.02097 -0.0101367 0
M  V30 9063 C 879.56 1.41881 1.33771 0
M  V30 9064 O 878.83 0.587923 1.8687 0
M  V30 9065 H 877.41 0.747 -0.000758716 0
M  V30 9066 H 880.072 1.81639 -0.706634 0
M  V30 9067 H 879.168 3.11969 0.0904474 0
M  V30 9068 N 879.47 0.276058 1.55163 0
M  V30 9069 C 880.716 -0.340959 1.99913 0
M  V30 9070 C 881.049 -1.55434 1.16422 0
M  V30 9071 O 880.324 -1.93081 0.234517 0
M  V30 9072 C 880.607 -0.722211 3.52783 0
M  V30 9073 C 880.46 0.498575 4.47028 0
M  V30 9074 C 881.779 -1.5583 4.11589 0
M  V30 9075 H 878.898 -0.122455 0.726756 0
M  V30 9076 H 881.54 0.38319 1.86096 0
M  V30 9077 H 879.69 -1.33919 3.64689 0
M  V30 9078 H 881.362 1.13713 4.47065 0
M  V30 9079 H 879.605 1.13646 4.18649 0
M  V30 9080 H 880.276 0.188041 5.5168 0
M  V30 9081 H 882.752 -1.03722 4.02965 0
M  V30 9082 H 881.628 -1.79387 5.1876 0
M  V30 9083 H 881.889 -2.53963 3.61877 0
M  V30 9084 O 880.987 -1.60877 0.141725 0
M  V30 9085 H 881.678 -1.88325 -0.453148 0
M  V30 END ATOM
M  V30 BEGIN BOND
M  V30 END BOND
M  V30 END CTAB
M  END
$$$$
