drugbank_target|Q15102 Platelet-activating factor acetylhydrolase IB subunit gamma (DB07821)
 OpenBabel12092120463D

  0  0  0     0  0            999 V3000
M  V30 BEGIN CTAB
M  V30 COUNTS 3603 3651 0 0 0
M  V30 BEGIN ATOM
M  V30 1 H -0.908 1.98254 -0.117106 0
M  V30 2 N 0 1.576 0 0
M  V30 3 C 0.933 2.03868 1.02534 0
M  V30 4 C 1.911 0.928543 1.3348 0
M  V30 5 O 3.095 1.19667 1.45644 0
M  V30 6 C 0.222 2.43627 2.35294 0
M  V30 7 C -0.732 3.65373 2.2001 0
M  V30 8 S 0.101 5.13292 1.52614 0
M  V30 9 C 1.257 5.56322 2.86805 0
M  V30 10 H 1.49 2.90518 0.631377 0
M  V30 11 H -0.977 1.52953 0.210867 0
M  V30 12 H 0.981 2.67203 3.11629 0
M  V30 13 H -0.358 1.57376 2.7183 0
M  V30 14 H -1.165 3.90944 3.18086 0
M  V30 15 H -1.563 3.418 1.51819 0
M  V30 16 H 0.729 5.58782 3.83104 0
M  V30 17 H 1.672 6.56266 2.65933 0
M  V30 18 H 2.08 4.83886 2.90714 0
M  V30 19 N 1.4781 -0.272755 1.55222 0
M  V30 20 C 2.7031 -1.02683 1.80197 0
M  V30 21 C 3.1281 -1.79142 0.573551 0
M  V30 22 O 2.4861 -1.74917 -0.476849 0
M  V30 23 C 2.5341 -1.9609 3.02624 0
M  V30 24 O 1.6381 -3.04863 2.77727 0
M  V30 25 H 0.9791 -0.293557 0.595584 0
M  V30 26 H 3.5091 -0.30159 2.02365 0
M  V30 27 H 3.5191 -2.38039 3.31363 0
M  V30 28 H 2.1941 -1.39851 3.91682 0
M  V30 29 H 0.7711 -2.67228 2.60084 0
M  V30 30 N 2.9562 -1.48159 -0.537278 0
M  V30 31 C 4.2042 -1.55497 -1.29094 0
M  V30 32 C 4.5252 -0.227454 -1.93669 0
M  V30 33 O 3.7952 0.750386 -1.80959 0
M  V30 34 H 2.3752 -0.572832 -0.47945 0
M  V30 35 H 5.0372 -1.84579 -0.625818 0
M  V30 36 H 4.1332 -2.33216 -2.07405 0
M  V30 37 N 4.4343 0.785586 -1.36625 0
M  V30 38 C 5.3443 1.92964 -1.33425 0
M  V30 39 C 6.3603 1.72394 -0.235851 0
M  V30 40 O 7.5363 1.95866 -0.468878 0
M  V30 41 C 4.6013 3.27884 -1.12662 0
M  V30 42 C 3.6623 3.61204 -2.32013 0
M  V30 43 C 2.8953 4.89687 -2.12231 0
M  V30 44 O 3.1183 5.59704 -1.09945 0
M  V30 45 O 2.0523 5.21752 -3.00098 0
M  V30 46 H 5.8783 1.98613 -2.29753 0
M  V30 47 H 3.4633 0.926384 -1.17211 0
M  V30 48 H 5.3453 4.08614 -1.03016 0
M  V30 49 H 4.0203 3.23118 -0.193991 0
M  V30 50 H 2.9273 2.80765 -2.47228 0
M  V30 51 H 4.2603 3.70698 -3.23796 0
M  V30 52 N 5.9124 1.20967 1.01018 0
M  V30 53 C 6.8224 0.980157 2.13143 0
M  V30 54 C 7.8384 -0.0660665 1.73875 0
M  V30 55 O 9.0144 0.122821 2.01025 0
M  V30 56 C 6.0794 0.54216 3.42435 0
M  V30 57 C 5.1404 1.65999 3.95908 0
M  V30 58 C 4.3734 1.2428 5.19028 0
M  V30 59 O 4.5964 0.114196 5.70286 0
M  V30 60 O 3.5304 2.05271 5.65816 0
M  V30 61 H 7.3564 1.91913 2.35379 0
M  V30 62 H 4.9414 0.994099 1.11526 0
M  V30 63 H 6.8234 0.30744 4.20277 0
M  V30 64 H 5.4984 -0.36815 3.216 0
M  V30 65 H 4.4054 1.94906 3.19316 0
M  V30 66 H 5.7384 2.54753 4.21143 0
M  V30 67 N 7.3905 -1.2043 1.01659 0
M  V30 68 C 8.3385 -2.25249 0.580143 0
M  V30 69 C 9.3325 -1.65057 -0.381115 0
M  V30 70 O 10.5385 -1.78241 -0.251039 0
M  V30 71 H 6.9135 -0.732695 0.169299 0
M  V30 72 H 8.8845 -2.59389 1.47512 0
M  V30 73 C 7.6335 -3.47638 -0.065788 0
M  V30 74 H 6.9565 -3.94233 0.664874 0
M  V30 75 H 8.3965 -4.2268 -0.334282 0
M  V30 76 C 6.8555 -3.10447 -1.3086 0
M  V30 77 O 7.3855 -3.21981 -2.4019 0
M  V30 78 N 5.5915 -2.64996 -1.1927 0
M  V30 79 H 5.1385 -2.55811 -0.303064 0
M  V30 80 H 5.0965 -2.40482 -2.02523 0
M  V30 81 N 8.8686 -0.792821 -1.36206 0
M  V30 82 C 10.2796 -0.429513 -1.81692 0
M  V30 83 C 10.6306 1.04695 -1.65932 0
M  V30 84 O 9.7556 1.81256 -1.18218 0
M  V30 85 C 10.3506 -0.772831 -3.29868 0
M  V30 86 C 8.9096 -0.462307 -3.7355 0
M  V30 87 C 8.0566 -1.00569 -2.5842 0
M  V30 88 H 11.0076 -0.985672 -1.24379 0
M  V30 89 H 11.0286 -0.0651928 -3.80444 0
M  V30 90 H 10.5406 -1.84747 -3.41307 0
M  V30 91 H 8.6416 0.604158 -3.67669 0
M  V30 92 H 8.7546 -0.985299 -4.68859 0
M  V30 93 H 7.1186 -0.428734 -2.51066 0
M  V30 94 H 7.9016 -2.08616 -2.72643 0
M  V30 95 N 10.3467 1.47872 -0.545128 0
M  V30 96 C 11.3097 2.28337 0.198717 0
M  V30 97 C 12.3097 1.36255 0.853888 0
M  V30 98 O 13.4997 1.59003 0.711606 0
M  V30 99 C 10.6317 3.15585 1.28915 0
M  V30 100 H 11.8247 2.95567 -0.507941 0
M  V30 101 H 9.3777 1.53362 -0.301616 0
M  V30 102 H 10.1127 2.53019 2.02859 0
M  V30 103 H 9.8977 3.83337 0.824309 0
M  V30 104 H 11.3877 3.76243 1.81194 0
M  V30 105 N 11.8248 0.280983 1.55075 0
M  V30 106 C 13.0498 -0.340154 2.04592 0
M  V30 107 C 13.4748 -1.48246 1.15779 0
M  V30 108 O 12.8328 -1.80614 0.15761 0
M  V30 109 C 12.8808 -0.793104 3.5177 0
M  V30 110 O 11.9848 -1.89981 3.66034 0
M  V30 111 H 11.3258 -0.0694289 0.66036 0
M  V30 112 H 13.8558 0.416993 2.00306 0
M  V30 113 H 13.8658 -1.08729 3.93245 0
M  V30 114 H 12.5408 0.0426163 4.15878 0
M  V30 115 H 11.1178 -1.60771 3.36463 0
M  V30 116 N 13.3029 -1.57598 0.00835791 0
M  V30 117 C 14.2499 -2.08945 -0.980346 0
M  V30 118 C 15.2199 -0.986738 -1.33614 0
M  V30 119 O 16.4049 -1.25968 -1.43306 0
M  V30 120 C 13.5449 -2.60425 -2.26435 0
M  V30 121 C 12.6579 -3.84628 -1.96685 0
M  V30 122 C 11.7929 -4.24579 -3.19228 0
M  V30 123 C 10.8319 -5.41596 -2.85202 0
M  V30 124 N 9.9689 -5.768 -4.00307 0
M  V30 125 H 14.8089 -2.93148 -0.535551 0
M  V30 126 H 12.3459 -1.44912 -0.252776 0
M  V30 127 H 14.3039 -2.88354 -3.01509 0
M  V30 128 H 12.9339 -1.79083 -2.68568 0
M  V30 129 H 11.9859 -3.63556 -1.11942 0
M  V30 130 H 13.2979 -4.69796 -1.67611 0
M  V30 131 H 12.4519 -4.53834 -4.02641 0
M  V30 132 H 11.1909 -3.38137 -3.51447 0
M  V30 133 H 10.1959 -5.12056 -2.00198 0
M  V30 134 H 11.4209 -6.29721 -2.54222 0
M  V30 135 H 9.3669 -4.93316 -4.32407 0
M  V30 136 H 9.2839 -6.5656 -3.74786 0
M  V30 137 H 10.5519 -6.10652 -4.84484 0
M  V30 138 N 14.781 0.264519 -1.55364 0
M  V30 139 C 16.192 0.834936 -1.6699 0
M  V30 140 C 16.543 1.86718 -0.602552 0
M  V30 141 O 15.668 2.14899 0.254425 0
M  V30 142 C 16.263 1.5212 -3.02729 0
M  V30 143 C 14.822 2.03954 -3.16354 0
M  V30 144 C 13.969 0.884498 -2.62815 0
M  V30 145 H 16.92 0.0406869 -1.58648 0
M  V30 146 H 16.941 2.38853 -2.96191 0
M  V30 147 H 16.453 0.769668 -3.80392 0
M  V30 148 H 14.554 2.82041 -2.43482 0
M  V30 149 H 14.667 2.24902 -4.23032 0
M  V30 150 H 13.031 1.2802 -2.20188 0
M  V30 151 H 13.814 0.14634 -3.42988 0
M  V30 152 N 16.2591 1.48442 0.529413 0
M  V30 153 C 17.4871 1.60151 1.30994 0
M  V30 154 C 17.9021 0.261985 1.86973 0
M  V30 155 O 17.2591 -0.748805 1.66431 0
M  V30 156 C 17.3101 2.64854 2.46038 0
M  V30 157 O 17.0311 3.93608 1.92365 0
M  V30 158 C 18.5321 2.87007 3.37849 0
M  V30 159 H 15.7521 0.539971 0.398338 0
M  V30 160 H 18.2961 1.94273 0.638597 0
M  V30 161 H 16.4511 2.33589 3.09055 0
M  V30 162 H 16.8651 4.51055 2.67675 0
M  V30 163 H 18.3391 3.64068 4.14919 0
M  V30 164 H 18.8161 1.95852 3.93114 0
M  V30 165 H 19.4221 3.19579 2.80623 0
M  V30 166 N 17.7372 -0.778329 1.37039 0
M  V30 167 C 19.1482 -1.35421 1.28523 0
M  V30 168 C 19.4992 -1.96075 -0.0700901 0
M  V30 169 O 18.6242 -1.93352 -0.971801 0
M  V30 170 C 19.2192 -2.46211 2.32735 0
M  V30 171 C 17.7782 -2.99585 2.27873 0
M  V30 172 C 16.9252 -1.72748 2.16918 0
M  V30 173 H 19.8762 -0.5791 1.47757 0
M  V30 174 H 19.8972 -3.2552 1.9702 0
M  V30 175 H 19.4092 -2.02036 3.31365 0
M  V30 176 H 17.5102 -3.48152 1.32745 0
M  V30 177 H 17.6232 -3.55646 3.21018 0
M  V30 178 H 15.9872 -1.95416 1.63354 0
M  V30 179 H 16.7702 -1.30686 3.17452 0
M  V30 180 N 19.2153 -1.21501 -1.00376 0
M  V30 181 C 20.4613 -1.03452 -1.74429 0
M  V30 182 C 20.7943 0.430764 -1.89362 0
M  V30 183 O 20.0693 1.31962 -1.42886 0
M  V30 184 C 20.3523 -1.73375 -3.15615 0
M  V30 185 C 20.2053 -3.27431 -3.08397 0
M  V30 186 C 21.5243 -1.47732 -4.14564 0
M  V30 187 H 18.6433 -0.377226 -0.633143 0
M  V30 188 H 21.2853 -1.49693 -1.17013 0
M  V30 189 H 19.4353 -1.34064 -3.64636 0
M  V30 190 H 21.1073 -3.76119 -2.67081 0
M  V30 191 H 19.3503 -3.5767 -2.45468 0
M  V30 192 H 20.0213 -3.71524 -4.08258 0
M  V30 193 H 22.4973 -1.8186 -3.74254 0
M  V30 194 H 21.3733 -1.99169 -5.11491 0
M  V30 195 H 21.6343 -0.407589 -4.40217 0
M  V30 196 N 20.6934 1.19889 -1.02296 0
M  V30 197 C 21.6254 2.22334 -0.556787 0
M  V30 198 C 22.6384 1.58674 0.364199 0
M  V30 199 O 23.8274 1.77768 0.161533 0
M  V30 200 C 20.9274 3.38257 0.208694 0
M  V30 201 C 20.1004 4.31504 -0.71577 0
M  V30 202 C 19.1594 5.262 0.00325597 0
M  V30 203 O 18.1854 5.65798 -0.621357 0
M  V30 204 N 19.3874 5.66303 1.27599 0
M  V30 205 H 22.1524 2.62957 -1.43784 0
M  V30 206 H 19.7134 1.34495 -0.901261 0
M  V30 207 H 21.7054 3.98616 0.699111 0
M  V30 208 H 20.2754 2.96472 0.991102 0
M  V30 209 H 19.4954 3.69016 -1.38638 0
M  V30 210 H 20.7834 4.9072 -1.34428 0
M  V30 211 H 20.1814 5.36155 1.80429 0
M  V30 212 H 18.7384 6.28942 1.71102 0
M  V30 213 N 22.1715 0.800033 1.35784 0
M  V30 214 C 23.4485 0.30088 1.93272 0
M  V30 215 C 23.8285 -1.20857 1.73081 0
M  V30 216 O 23.1765 -2.00502 1.09596 0
M  V30 217 C 23.3865 0.70511 3.41803 0
M  V30 218 C 24.7345 0.690871 4.18942 0
M  V30 219 O 25.7585 0.646244 3.50289 0
M  V30 220 O 24.6175 0.74332 5.41421 0
M  V30 221 H 21.7115 0.0771605 0.823393 0
M  V30 222 H 24.2575 0.88329 1.449 0
M  V30 223 H 23.0295 1.74571 3.50201 0
M  V30 224 H 22.6525 0.0971541 3.97481 0
M  V30 225 N 23.6496 -1.47581 0.552962 0
M  V30 226 C 24.8956 -2.02782 0.0273648 0
M  V30 227 C 25.2286 -1.42687 -1.31734 0
M  V30 228 O 24.5036 -0.580897 -1.85623 0
M  V30 229 C 24.7866 -3.60031 -0.0702371 0
M  V30 230 C 24.6396 -4.30566 1.30126 0
M  V30 231 C 25.9586 -4.33028 -0.785771 0
M  V30 232 H 23.0776 -0.736912 0.0114185 0
M  V30 233 H 25.7196 -1.76056 0.714432 0
M  V30 234 H 23.8696 -3.82932 -0.655382 0
M  V30 235 H 25.5416 -4.19018 1.92929 0
M  V30 236 H 23.7846 -3.91086 1.87709 0
M  V30 237 H 24.4556 -5.39114 1.18573 0
M  V30 238 H 26.9316 -4.15095 -0.288982 0
M  V30 239 H 25.8076 -5.42695 -0.823013 0
M  V30 240 H 26.0686 -4.01945 -1.841 0
M  V30 241 N 25.1277 -0.289203 -1.54924 0
M  V30 242 C 26.0597 0.625583 -2.20497 0
M  V30 243 C 27.0727 1.10667 -1.19402 0
M  V30 244 O 28.2617 1.02615 -1.46056 0
M  V30 245 C 25.3617 1.86702 -2.82835 0
M  V30 246 C 24.5347 1.5304 -4.09753 0
M  V30 247 C 23.5937 2.62576 -4.56005 0
M  V30 248 O 22.6197 2.28167 -5.21468 0
M  V30 249 N 23.8217 3.92901 -4.27328 0
M  V30 250 H 26.5867 0.0642801 -2.99631 0
M  V30 251 H 24.1477 -0.110896 -1.6152 0
M  V30 252 H 26.1397 2.59304 -3.10715 0
M  V30 253 H 24.7097 2.33702 -2.07611 0
M  V30 254 H 23.9297 0.637564 -3.8901 0
M  V30 255 H 25.2177 1.28072 -4.92418 0
M  V30 256 H 24.6157 4.23671 -3.74859 0
M  V30 257 H 23.1727 4.61837 -4.59946 0
M  V30 258 N 26.6058 1.57591 -0.0167156 0
M  V30 259 C 27.8538 1.90906 0.663285 0
M  V30 260 C 28.1748 0.892509 1.73376 0
M  V30 261 O 27.4448 -0.0677623 1.95783 0
M  V30 262 H 26.0248 0.704637 0.247983 0
M  V30 263 H 28.6868 1.94803 -0.0615909 0
M  V30 264 H 27.7828 2.9116 1.12393 0
M  V30 265 N 28.0839 -0.256276 1.55502 0
M  V30 266 C 29.3609 -1.00789 1.67633 0
M  V30 267 C 29.7409 -2.03706 0.553826 0
M  V30 268 O 29.0889 -2.24145 -0.443969 0
M  V30 269 C 29.2989 -1.64968 3.07549 0
M  V30 270 C 30.6469 -2.15505 3.65845 0
M  V30 271 O 31.6709 -1.74925 3.1029 0
M  V30 272 O 30.5299 -2.89986 4.63217 0
M  V30 273 H 27.6239 -0.468553 0.681459 0
M  V30 274 H 30.1699 -0.250806 1.67836 0
M  V30 275 H 28.9419 -0.904785 3.80696 0
M  V30 276 H 28.5649 -2.47321 3.11317 0
M  V30 277 N 29.562 -1.4872 -0.521534 0
M  V30 278 C 30.81 -1.56857 -1.27437 0
M  V30 279 C 31.131 -0.247982 -1.93417 0
M  V30 280 O 30.401 0.731151 -1.81744 0
M  V30 281 H 28.981 -0.577885 -0.473347 0
M  V30 282 H 31.643 -1.85233 -0.606205 0
M  V30 283 H 30.739 -2.35402 -2.0492 0
M  V30 284 N 31.0401 0.771051 -1.3745 0
M  V30 285 C 32.4561 1.07171 -1.18265 0
M  V30 286 C 32.6561 2.01491 -0.019287 0
M  V30 287 O 31.7121 2.44244 0.640408 0
M  V30 288 C 33.0251 1.66854 -2.50161 0
M  V30 289 C 34.5731 1.79109 -2.56689 0
M  V30 290 C 35.0481 2.42205 -3.88717 0
M  V30 291 N 36.5391 2.49655 -3.90162 0
M  V30 292 C 37.2741 2.9933 -4.8907 0
M  V30 293 N 36.7701 3.49172 -5.98374 0
M  V30 294 N 38.5631 2.9821 -4.76474 0
M  V30 295 H 30.7141 0.144796 -2.11906 0
M  V30 296 H 32.9771 0.126863 -0.939473 0
M  V30 297 H 32.6831 1.05017 -3.35655 0
M  V30 298 H 32.5571 2.6614 -2.673 0
M  V30 299 H 34.9441 2.40077 -1.71601 0
M  V30 300 H 35.0251 0.785757 -2.43433 0
M  V30 301 H 34.6691 1.81875 -4.74219 0
M  V30 302 H 34.5991 3.43345 -3.99276 0
M  V30 303 H 37.0901 2.14383 -3.11205 0
M  V30 304 H 37.4031 3.8548 -6.69795 0
M  V30 305 H 35.7481 3.47275 -6.02018 0
M  V30 306 H 38.9391 2.58572 -3.90203 0
M  V30 307 H 39.1121 3.36613 -5.53711 0
M  V30 308 N 32.5182 1.22032 0.997298 0
M  V30 309 C 33.7642 1.05382 1.73972 0
M  V30 310 C 34.1192 -0.407419 1.88037 0
M  V30 311 O 33.4122 -1.29811 1.40924 0
M  V30 312 C 33.6062 1.69345 3.14733 0
M  V30 313 C 33.4352 3.21537 3.14395 0
M  V30 314 C 32.2052 3.9062 3.20537 0
M  V30 315 C 34.4032 4.18527 2.98897 0
M  V30 316 N 32.3852 5.29935 3.09906 0
M  V30 317 C 33.7562 5.44645 2.96247 0
M  V30 318 C 35.8112 4.09476 2.83255 0
M  V30 319 C 34.5142 6.62752 2.79557 0
M  V30 320 C 36.5402 5.27228 2.67926 0
M  V30 321 C 35.9022 6.52262 2.65959 0
M  V30 322 H 32.0012 0.440018 0.646458 0
M  V30 323 H 34.5852 1.54505 1.18475 0
M  V30 324 H 32.7562 1.22778 3.68484 0
M  V30 325 H 34.4882 1.45828 3.77513 0
M  V30 326 H 31.2432 3.41592 3.28043 0
M  V30 327 H 31.6672 6.02926 3.07912 0
M  V30 328 H 36.3092 3.13598 2.83577 0
M  V30 329 H 34.0272 7.58783 2.77982 0
M  V30 330 H 37.6132 5.22053 2.56812 0
M  V30 331 H 36.4932 7.41844 2.54239 0
M  V30 332 N 33.9963 -1.19345 1.0293 0
M  V30 333 C 34.9293 -2.21347 0.555029 0
M  V30 334 C 35.9073 -1.57492 -0.404351 0
M  V30 335 O 37.0913 -1.85741 -0.321352 0
M  V30 336 C 34.2183 -3.38163 -0.19064 0
M  V30 337 C 33.2643 -4.20375 0.720236 0
M  V30 338 S 34.0973 -4.88371 2.19668 0
M  V30 339 C 35.2533 -6.08597 1.46153 0
M  V30 340 H 35.4863 -2.61235 1.41929 0
M  V30 341 H 33.0193 -1.29598 0.839272 0
M  V30 342 H 34.9773 -4.05871 -0.614724 0
M  V30 343 H 33.6383 -2.9671 -1.03063 0
M  V30 344 H 32.8313 -5.03793 0.14455 0
M  V30 345 H 32.4333 -3.57987 1.08266 0
M  V30 346 H 34.7253 -6.73354 0.748357 0
M  V30 347 H 35.6683 -6.7065 2.27233 0
M  V30 348 H 36.0763 -5.56297 0.958842 0
M  V30 349 N 35.4744 -0.807222 -1.35358 0
M  V30 350 C 36.6994 -0.399309 -2.0352 0
M  V30 351 C 37.1244 0.981986 -1.60433 0
M  V30 352 O 36.4824 1.63601 -0.781299 0
M  V30 353 C 36.5304 -0.491552 -3.57234 0
M  V30 354 O 35.6344 0.494754 -4.09421 0
M  V30 355 H 34.9754 -0.166682 -0.642739 0
M  V30 356 H 37.5054 -1.09328 -1.72941 0
M  V30 357 H 37.5154 -0.361588 -4.06395 0
M  V30 358 H 36.1904 -1.49907 -3.87944 0
M  V30 359 H 34.7674 0.324977 -3.71481 0
M  V30 360 N 36.9525 1.47285 -0.560781 0
M  V30 361 C 37.8825 2.32857 0.173105 0
M  V30 362 C 38.8635 1.44009 0.905281 0
M  V30 363 O 40.0485 1.7286 0.885046 0
M  V30 364 C 37.1785 3.25861 1.20133 0
M  V30 365 C 36.1325 4.23978 0.585388 0
M  V30 366 C 35.4585 5.06332 1.7185 0
M  V30 367 C 36.7585 5.20242 -0.463178 0
M  V30 368 H 38.4525 2.94466 -0.541307 0
M  V30 369 H 35.9985 1.41601 -0.261764 0
M  V30 370 H 37.9515 3.84569 1.72293 0
M  V30 371 H 36.6755 2.62315 1.94573 0
M  V30 372 H 35.3345 3.66501 0.085054 0
M  V30 373 H 34.9825 4.39186 2.45203 0
M  V30 374 H 34.6825 5.72762 1.31213 0
M  V30 375 H 36.2065 5.67899 2.24329 0
M  V30 376 H 37.6205 5.73293 -0.027502 0
M  V30 377 H 36.0175 5.94896 -0.788627 0
M  V30 378 H 37.0875 4.65504 -1.35773 0
M  V30 379 N 38.4306 0.297415 1.54768 0
M  V30 380 C 39.3806 -0.595275 2.20092 0
M  V30 381 C 40.3646 -1.10163 1.17273 0
M  V30 382 O 41.5566 -1.043 1.43006 0
M  V30 383 C 38.6856 -1.7684 2.94249 0
M  V30 384 C 37.7716 -1.27818 4.0438 0
M  V30 385 N 38.1626 -0.505695 5.03266 0
M  V30 386 C 36.4606 -1.55923 4.17857 0
M  V30 387 C 37.1616 -0.245094 5.81183 0
M  V30 388 N 36.1376 -0.823881 5.3732 0
M  V30 389 H 39.9396 0.00250837 2.939 0
M  V30 390 H 37.4536 0.102007 1.62079 0
M  V30 391 H 39.4506 -2.41944 3.39513 0
M  V30 392 H 38.1106 -2.36992 2.21957 0
M  V30 393 H 39.1216 -0.150928 5.1768 0
M  V30 394 H 35.7986 -2.16849 3.56767 0
M  V30 395 H 37.1886 0.375084 6.70852 0
M  V30 396 N 39.9087 -1.5758 0.0250728 0
M  V30 397 C 40.8587 -2.06468 -0.967201 0
M  V30 398 C 41.8427 -0.964376 -1.28797 0
M  V30 399 O 43.0347 -1.22797 -1.27475 0
M  V30 400 C 40.1637 -2.59203 -2.25097 0
M  V30 401 C 39.2497 -3.76157 -1.95874 0
M  V30 402 N 39.6407 -4.86919 -1.36905 0
M  V30 403 C 37.9387 -3.84566 -2.25887 0
M  V30 404 C 38.6397 -5.68172 -1.24724 0
M  V30 405 N 37.6157 -5.14953 -1.74138 0
M  V30 406 H 41.4177 -2.89508 -0.506176 0
M  V30 407 H 38.9317 -1.61399 -0.18004 0
M  V30 408 H 40.9287 -2.92517 -2.97052 0
M  V30 409 H 39.5887 -1.77592 -2.71829 0
M  V30 410 H 40.5997 -5.07256 -1.04459 0
M  V30 411 H 37.2767 -3.13854 -2.75321 0
M  V30 412 H 38.6667 -6.67221 -0.791605 0
M  V30 413 N 41.3868 0.248026 -1.55636 0
M  V30 414 C 42.8028 0.596483 -1.48035 0
M  V30 415 C 43.0028 1.88386 -0.715039 0
M  V30 416 O 42.0588 2.51319 -0.243944 0
M  V30 417 C 43.3718 0.700258 -2.92433 0
M  V30 418 C 44.9198 0.792659 -3.02797 0
M  V30 419 C 45.3948 0.928005 -4.485 0
M  V30 420 N 46.8858 0.992903 -4.52433 0
M  V30 421 C 47.6208 1.11687 -5.62418 0
M  V30 422 N 47.1168 1.20645 -6.82214 0
M  V30 423 N 48.9098 1.14994 -5.50212 0
M  V30 424 H 41.0608 -0.597109 -2.03834 0
M  V30 425 H 43.3238 -0.205925 -0.925364 0
M  V30 426 H 43.0298 -0.175658 -3.51261 0
M  V30 427 H 42.9038 1.57255 -3.42857 0
M  V30 428 H 45.2908 1.65903 -2.4405 0
M  V30 429 H 45.3718 -0.104762 -2.55585 0
M  V30 430 H 45.0158 0.0661971 -5.07857 0
M  V30 431 H 44.9458 1.84045 -4.93391 0
M  V30 432 H 47.4368 0.935064 -3.66149 0
M  V30 433 H 47.7498 1.30008 -7.61786 0
M  V30 434 H 46.0948 1.17605 -6.84977 0
M  V30 435 H 49.2858 1.07643 -4.55555 0
M  V30 436 H 49.4588 1.24311 -6.35965 0
M  V30 437 N 42.8649 1.48995 0.513639 0
M  V30 438 C 44.1119 1.57843 1.26854 0
M  V30 439 C 44.4399 0.259501 1.92761 0
M  V30 440 O 43.6949 -0.75159 1.80692 0
M  V30 441 C 43.9939 2.67756 2.36731 0
M  V30 442 C 43.6599 4.09669 1.88368 0
M  V30 443 C 42.3219 4.48291 1.74896 0
M  V30 444 C 44.6739 4.98537 1.52021 0
M  V30 445 C 42.0019 5.73568 1.23438 0
M  V30 446 C 44.3539 6.24319 1.0202 0
M  V30 447 C 43.0179 6.61783 0.871778 0
M  V30 448 H 42.2879 0.577587 0.464192 0
M  V30 449 H 44.9349 1.82778 0.571366 0
M  V30 450 H 43.2399 2.36743 3.12185 0
M  V30 451 H 44.9369 2.71813 2.9482 0
M  V30 452 H 41.5269 3.79176 1.99808 0
M  V30 453 H 45.7109 4.69363 1.61281 0
M  V30 454 H 40.9669 6.01304 1.10648 0
M  V30 455 H 45.1409 6.92566 0.729722 0
M  V30 456 H 42.7679 7.5874 0.470852 0
M  V30 457 N 44.343 -0.763751 1.37857 0
M  V30 458 C 45.589 -1.52483 1.33704 0
M  V30 459 C 45.922 -1.94051 -0.0759612 0
M  V30 460 O 45.197 -1.64675 -1.03501 0
M  V30 461 C 45.48 -2.78441 2.28348 0
M  V30 462 C 45.333 -2.43075 3.78463 0
M  V30 463 C 46.652 -3.80415 2.21298 0
M  V30 464 H 43.771 -0.553169 0.487005 0
M  V30 465 H 46.413 -0.875562 1.68624 0
M  V30 466 H 44.563 -3.33842 1.987 0
M  V30 467 H 46.235 -1.93527 4.18742 0
M  V30 468 H 44.478 -1.75666 3.96641 0
M  V30 469 H 45.149 -3.33149 4.40132 0
M  V30 470 H 47.625 -3.34527 2.47449 0
M  V30 471 H 46.501 -4.66257 2.89647 0
M  V30 472 H 46.762 -4.25262 1.20849 0
M  V30 473 N 45.8211 -1.22559 -0.990812 0
M  V30 474 C 46.7841 -0.998863 -2.0629 0
M  V30 475 C 47.7841 0.0354834 -1.60761 0
M  V30 476 O 48.9741 -0.203231 -1.7301 0
M  V30 477 C 46.1061 -0.509203 -3.37076 0
M  V30 478 H 47.2991 -1.95014 -2.27837 0
M  V30 479 H 44.8521 -1.04456 -1.16269 0
M  V30 480 H 45.5871 0.446335 -3.21214 0
M  V30 481 H 45.3721 -1.25547 -3.71457 0
M  V30 482 H 46.8621 -0.370888 -4.1595 0
M  V30 483 N 47.2992 1.18797 -1.03562 0
M  V30 484 C 48.5762 1.84469 -0.650434 0
M  V30 485 C 48.9562 1.92319 0.870433 0
M  V30 486 O 48.3042 1.44528 1.76986 0
M  V30 487 C 48.5142 3.2306 -1.32036 0
M  V30 488 C 49.8622 3.9915 -1.44792 0
M  V30 489 O 50.8862 3.32481 -1.27806 0
M  V30 490 O 49.7452 5.18587 -1.72423 0
M  V30 491 H 46.8392 0.795251 -0.226946 0
M  V30 492 H 49.3852 1.26231 -1.13419 0
M  V30 493 H 48.1572 3.1222 -2.3587 0
M  V30 494 H 47.7802 3.88949 -0.8249 0
M  V30 495 N 48.7773 0.814389 1.34928 0
M  V30 496 C 50.0023 0.410097 2.03305 0
M  V30 497 C 50.4273 -0.973464 1.60951 0
M  V30 498 O 49.7853 -1.63185 0.789964 0
M  V30 499 C 49.8333 0.51049 3.56968 0
M  V30 500 O 48.9373 -0.473035 4.09678 0
M  V30 501 H 48.2783 0.170088 0.641846 0
M  V30 502 H 50.8083 1.10244 1.72358 0
M  V30 503 H 50.8183 0.383135 4.06197 0
M  V30 504 H 49.4933 1.51963 3.87144 0
M  V30 505 H 48.0703 -0.305272 3.71648 0
M  V30 506 N 50.2554 -1.46986 0.568584 0
M  V30 507 C 51.2024 -2.30153 -0.172707 0
M  V30 508 C 52.1724 -1.39759 -0.897586 0
M  V30 509 O 53.3574 -1.68716 -0.891044 0
M  V30 510 C 50.4974 -3.23952 -1.1895 0
M  V30 511 C 49.6104 -4.29441 -0.469517 0
M  V30 512 C 48.7454 -5.1038 -1.47259 0
M  V30 513 C 47.7844 -6.07632 -0.738225 0
M  V30 514 N 46.9214 -6.8149 -1.68868 0
M  V30 515 H 51.7614 -2.93019 0.542596 0
M  V30 516 H 49.2984 -1.44422 0.279401 0
M  V30 517 H 51.2564 -3.76767 -1.79173 0
M  V30 518 H 49.8864 -2.62926 -1.87269 0
M  V30 519 H 48.9384 -3.79594 0.247467 0
M  V30 520 H 50.2504 -4.98689 0.105241 0
M  V30 521 H 49.4044 -5.67402 -2.14803 0
M  V30 522 H 48.1434 -4.4106 -2.08128 0
M  V30 523 H 47.1484 -5.49778 -0.0489293 0
M  V30 524 H 48.3734 -6.78966 -0.135129 0
M  V30 525 H 46.3194 -6.14891 -2.28573 0
M  V30 526 H 46.2364 -7.46948 -1.16636 0
M  V30 527 H 47.5044 -7.43078 -2.3549 0
M  V30 528 N 51.7335 -0.305618 -1.54608 0
M  V30 529 C 53.0105 0.355652 -1.92339 0
M  V30 530 C 53.3905 1.71324 -1.23335 0
M  V30 531 O 52.7385 2.25473 -0.370702 0
M  V30 532 C 52.9485 0.46572 -3.45879 0
M  V30 533 C 54.2965 0.734426 -4.182 0
M  V30 534 O 55.3205 0.54935 -3.51938 0
M  V30 535 O 54.1795 1.09024 -5.35515 0
M  V30 536 H 51.2735 0.199666 -0.802535 0
M  V30 537 H 53.8195 -0.354017 -1.65966 0
M  V30 538 H 52.5915 -0.488461 -3.88239 0
M  V30 539 H 52.2145 1.22367 -3.78301 0
M  V30 540 N 53.2116 1.57565 -0.0334293 0
M  V30 541 C 54.1586 2.10478 0.946981 0
M  V30 542 C 55.1286 1.00787 1.32027 0
M  V30 543 O 56.3136 1.28232 1.41284 0
M  V30 544 C 53.4536 2.63994 2.22263 0
M  V30 545 C 52.5666 3.87709 1.90541 0
M  V30 546 C 51.7016 4.29604 3.12433 0
M  V30 547 C 50.7406 5.46065 2.76549 0
M  V30 548 N 49.8776 5.83096 3.9108 0
M  V30 549 H 54.7176 2.93963 0.488846 0
M  V30 550 H 52.2546 1.45296 0.22969 0
M  V30 551 H 54.2126 2.93114 2.96884 0
M  V30 552 H 52.8426 1.83333 2.65685 0
M  V30 553 H 51.8946 3.65291 1.06144 0
M  V30 554 H 53.2066 4.72403 1.60116 0
M  V30 555 H 52.3606 4.60182 3.9537 0
M  V30 556 H 51.0996 3.43685 3.46023 0
M  V30 557 H 50.1046 5.15176 1.92026 0
M  V30 558 H 51.3296 6.33685 2.44171 0
M  V30 559 H 49.2756 5.00132 4.24504 0
M  V30 560 H 49.1926 6.6244 3.64293 0
M  V30 561 H 50.4606 6.18282 4.74708 0
M  V30 562 N 54.6897 -0.239769 1.55765 0
M  V30 563 C 55.5997 -1.31831 1.94056 0
M  V30 564 C 56.6157 -1.52275 0.841925 0
M  V30 565 O 57.7917 -1.65759 1.14394 0
M  V30 566 C 54.8567 -2.65156 2.23368 0
M  V30 567 C 53.9177 -2.53173 3.46701 0
M  V30 568 C 53.1507 -3.8014 3.74606 0
M  V30 569 O 53.3737 -4.82343 3.04469 0
M  V30 570 O 52.3077 -3.78344 4.68123 0
M  V30 571 H 56.1337 -1.02347 2.85935 0
M  V30 572 H 53.7187 -0.441123 1.42739 0
M  V30 573 H 55.6007 -3.43929 2.43497 0
M  V30 574 H 54.2757 -2.94358 1.34666 0
M  V30 575 H 53.1827 -1.72662 3.31871 0
M  V30 576 H 54.5157 -2.28915 4.35728 0
M  V30 577 N 56.1678 -1.49265 -0.50573 0
M  V30 578 C 57.5788 -1.51769 -1.08734 0
M  V30 579 C 57.9298 -0.301192 -1.93874 0
M  V30 580 O 57.0548 0.589456 -2.08217 0
M  V30 581 C 57.6498 -2.75017 -1.97867 0
M  V30 582 C 56.2088 -2.80314 -2.51199 0
M  V30 583 C 55.3558 -2.4562 -1.28709 0
M  V30 584 H 58.3068 -1.56031 -0.289855 0
M  V30 585 H 58.3278 -2.5491 -2.82491 0
M  V30 586 H 57.8398 -3.63539 -1.35873 0
M  V30 587 H 55.9408 -1.96061 -3.16845 0
M  V30 588 H 56.0538 -3.82366 -2.88675 0
M  V30 589 H 54.4178 -1.97297 -1.61078 0
M  V30 590 H 55.2008 -3.36411 -0.6843 0
M  V30 591 N 57.6459 0.756429 -1.3826 0
M  V30 592 C 58.5559 1.9009 -1.37488 0
M  V30 593 C 59.5719 1.71855 -0.272366 0
M  V30 594 O 60.7479 1.94827 -0.510318 0
M  V30 595 C 57.8129 3.25421 -1.19592 0
M  V30 596 C 56.8739 3.56202 -2.39622 0
M  V30 597 C 56.1069 4.85075 -2.2257 0
M  V30 598 O 56.3299 5.57246 -1.21793 0
M  V30 599 O 55.2639 5.15269 -3.11098 0
M  V30 600 H 59.0899 1.93695 -2.33914 0
M  V30 601 H 56.6749 0.901313 -1.1915 0
M  V30 602 H 58.5569 4.06337 -1.11661 0
M  V30 603 H 57.2319 3.22634 -0.262486 0
M  V30 604 H 56.1389 2.75458 -2.53128 0
M  V30 605 H 57.4719 3.63747 -3.31586 0
M  V30 606 N 59.124 1.23083 0.984299 0
M  V30 607 C 60.37 1.06214 1.72761 0
M  V30 608 C 60.703 -0.400584 1.90024 0
M  V30 609 O 59.978 -1.29672 1.44967 0
M  V30 610 C 60.261 1.78375 3.12817 0
M  V30 611 C 60.114 3.32296 3.03149 0
M  V30 612 C 61.433 1.54309 4.12161 0
M  V30 613 H 58.552 0.387251 0.627061 0
M  V30 614 H 61.194 1.51536 1.14616 0
M  V30 615 H 59.344 1.39848 3.62457 0
M  V30 616 H 61.016 3.8032 2.61064 0
M  V30 617 H 59.259 3.6153 2.39747 0
M  V30 618 H 59.93 3.77972 4.02295 0
M  V30 619 H 62.406 1.87791 3.71314 0
M  V30 620 H 61.282 2.07281 5.08258 0
M  V30 621 H 61.543 0.477572 4.39513 0
M  V30 622 N 60.6021 -1.18246 1.0419 0
M  V30 623 C 61.8481 -1.88536 0.747122 0
M  V30 624 C 62.1811 -1.80223 -0.723409 0
M  V30 625 O 61.4561 -1.20337 -1.52804 0
M  V30 626 C 61.7391 -3.38968 1.21544 0
M  V30 627 C 61.5921 -3.56084 2.74816 0
M  V30 628 C 62.9111 -4.32648 0.806482 0
M  V30 629 H 60.0301 -0.684619 0.272883 0
M  V30 630 H 62.6721 -1.39113 1.29413 0
M  V30 631 H 60.8221 -3.8119 0.750081 0
M  V30 632 H 62.4941 -3.22946 3.29399 0
M  V30 633 H 60.7371 -2.98699 3.14582 0
M  V30 634 H 61.4081 -4.61639 3.02644 0
M  V30 635 H 63.8841 -3.98211 1.20695 0
M  V30 636 H 62.7601 -5.36462 1.1619 0
M  V30 637 H 63.0211 -4.41146 -0.29029 0
M  V30 638 N 62.0802 -0.821533 -1.34494 0
M  V30 639 C 63.3272 -0.408946 -1.98328 0
M  V30 640 C 63.6552 1.02764 -1.65136 0
M  V30 641 O 62.9102 1.73026 -0.914349 0
M  V30 642 C 63.2092 -0.556512 -3.53041 0
M  V30 643 C 62.8752 -1.95861 -4.0614 0
M  V30 644 C 61.5372 -2.34217 -4.20352 0
M  V30 645 C 63.8892 -2.87523 -4.34718 0
M  V30 646 C 61.2172 -3.63572 -4.6047 0
M  V30 647 C 63.5692 -4.1634 -4.76281 0
M  V30 648 C 62.2332 -4.54675 -4.88699 0
M  V30 649 H 61.5032 -0.149644 -0.725732 0
M  V30 650 H 64.1502 -1.04521 -1.6046 0
M  V30 651 H 62.4552 0.163148 -3.9146 0
M  V30 652 H 64.1522 -0.217826 -4.00408 0
M  V30 653 H 60.7422 -1.65066 -3.95539 0
M  V30 654 H 64.9262 -2.59133 -4.23277 0
M  V30 655 H 60.1822 -3.93101 -4.68275 0
M  V30 656 H 64.3562 -4.87455 -4.97354 0
M  V30 657 H 61.9832 -5.54959 -5.19542 0
M  V30 658 N 63.5583 1.46682 -0.576371 0
M  V30 659 C 64.8073 2.01619 -0.0572825 0
M  V30 660 C 65.1203 1.45417 1.30818 0
M  V30 661 O 66.3263 1.92133 1.91825 0
M  V30 662 C 64.7823 3.59863 -0.0518371 0
M  V30 663 C 64.3903 4.25059 -1.41523 0
M  V30 664 C 66.1343 4.2248 0.413639 0
M  V30 665 C 64.0413 5.75364 -1.36785 0
M  V30 666 H 62.9713 0.753794 -0.0176448 0
M  V30 667 H 65.6223 1.68481 -0.727076 0
M  V30 668 H 64.0043 3.90048 0.683994 0
M  V30 669 H 65.1783 4.06491 -2.17029 0
M  V30 670 H 63.4933 3.7451 -1.8202 0
M  V30 671 H 66.0903 5.3265 0.467779 0
M  V30 672 H 66.4333 3.90976 1.42982 0
M  V30 673 H 66.9663 3.96897 -0.267929 0
M  V30 674 H 63.7053 6.11518 -2.36063 0
M  V30 675 H 63.2253 5.96214 -0.654895 0
M  V30 676 H 64.9043 6.37955 -1.07805 0
M  V30 677 N 65.0364 0.313813 1.54444 0
M  V30 678 C 66.2844 -0.291099 1.99993 0
M  V30 679 C 66.6054 -1.53418 1.20366 0
M  V30 680 O 65.8754 -1.93544 0.302927 0
M  V30 681 H 64.4554 -0.110552 0.738774 0
M  V30 682 H 67.1174 0.428106 1.9014 0
M  V30 683 H 66.2134 -0.554268 3.07139 0
M  V30 684 N 66.5145 -1.57545 0.0417849 0
M  V30 685 C 67.7915 -1.83642 -0.673433 0
M  V30 686 C 68.1715 -0.928298 -1.89594 0
M  V30 687 O 67.5195 0.0129955 -2.28496 0
M  V30 688 C 67.7295 -3.33155 -1.03964 0
M  V30 689 C 69.0775 -3.99941 -1.42592 0
M  V30 690 O 70.1015 -3.37725 -1.13226 0
M  V30 691 O 68.9605 -5.09619 -1.9736 0
M  V30 692 H 66.0545 -0.757638 -0.331533 0
M  V30 693 H 68.6005 -1.69554 0.070433 0
M  V30 694 H 67.3725 -3.9093 -0.170098 0
M  V30 695 H 66.9955 -3.52396 -1.84126 0
M  V30 696 N 67.9926 0.231505 -1.5589 0
M  V30 697 C 69.2176 0.978689 -1.82856 0
M  V30 698 C 69.6426 1.77559 -0.620846 0
M  V30 699 O 69.0006 1.76119 0.430305 0
M  V30 700 C 69.0486 1.87997 -3.07716 0
M  V30 701 O 68.1526 2.97393 -2.85712 0
M  V30 702 H 67.4936 0.277663 -0.603158 0
M  V30 703 H 70.0236 0.24783 -2.03093 0
M  V30 704 H 70.0336 2.2917 -3.37558 0
M  V30 705 H 68.7086 1.29417 -3.95252 0
M  V30 706 H 67.2856 2.60238 -2.67078 0
M  V30 707 N 69.4707 1.49531 0.497807 0
M  V30 708 C 70.4007 1.6935 1.60757 0
M  V30 709 C 71.3817 0.542218 1.61227 0
M  V30 710 O 72.5667 0.778417 1.77917 0
M  V30 711 C 69.6967 1.76298 2.99226 0
M  V30 712 C 68.6507 2.91248 3.13622 0
M  V30 713 C 67.9767 2.83312 4.53474 0
M  V30 714 C 69.2767 4.3214 2.93346 0
M  V30 715 H 70.9707 2.62263 1.44425 0
M  V30 716 H 68.5167 1.26208 0.693367 0
M  V30 717 H 70.4697 1.88749 3.76765 0
M  V30 718 H 69.1937 0.799871 3.16654 0
M  V30 719 H 67.8527 2.78404 2.38509 0
M  V30 720 H 67.5007 1.84902 4.67782 0
M  V30 721 H 67.2007 3.60465 4.64046 0
M  V30 722 H 68.7247 2.97775 5.33069 0
M  V30 723 H 70.1387 4.45649 3.60652 0
M  V30 724 H 68.5357 5.1054 3.15387 0
M  V30 725 H 69.6057 4.46363 1.89441 0
M  V30 726 N 70.9488 -0.749086 1.3866 0
M  V30 727 C 72.1948 -1.51056 1.35314 0
M  V30 728 C 72.5278 -1.94121 -0.0553751 0
M  V30 729 O 71.8028 -1.65763 -1.01749 0
M  V30 730 C 72.0858 -2.76003 2.31288 0
M  V30 731 C 71.9388 -2.39047 3.8102 0
M  V30 732 C 73.2578 -3.78046 2.2532 0
M  V30 733 H 70.3768 -0.547972 0.492844 0
M  V30 734 H 73.0188 -0.857628 1.69543 0
M  V30 735 H 71.1688 -3.31716 2.02229 0
M  V30 736 H 72.8408 -1.89074 4.20771 0
M  V30 737 H 71.0838 -1.71449 3.98482 0
M  V30 738 H 71.7548 -3.28462 4.4364 0
M  V30 739 H 74.2308 -3.31884 2.50983 0
M  V30 740 H 73.1068 -4.63159 2.94576 0
M  V30 741 H 73.3678 -4.23957 1.25352 0
M  V30 742 N 72.4269 -1.23603 -0.977757 0
M  V30 743 C 73.3589 -0.977369 -2.07317 0
M  V30 744 C 74.3719 0.0495845 -1.62724 0
M  V30 745 O 75.5609 -0.186261 -1.77526 0
M  V30 746 C 72.6609 -0.451216 -3.35883 0
M  V30 747 C 71.8339 -1.53896 -4.09432 0
M  V30 748 C 70.8929 -1.01721 -5.16274 0
M  V30 749 O 69.9189 -1.70676 -5.43009 0
M  V30 750 N 71.1209 0.153594 -5.80297 0
M  V30 751 H 73.8859 -1.92047 -2.30082 0
M  V30 752 H 71.4469 -1.14497 -1.14465 0
M  V30 753 H 73.4389 -0.0871574 -4.04606 0
M  V30 754 H 72.0089 0.397368 -3.10064 0
M  V30 755 H 71.2289 -2.07566 -3.35127 0
M  V30 756 H 72.5169 -2.27037 -4.55337 0
M  V30 757 H 71.9149 0.730323 -5.60966 0
M  V30 758 H 70.4719 0.458892 -6.50183 0
M  V30 759 N 73.905 1.17692 -1.04816 0
M  V30 760 C 74.835 2.23777 -0.666791 0
M  V30 761 C 75.816 1.66796 0.33361 0
M  V30 762 O 77.001 1.93039 0.212042 0
M  V30 763 C 74.131 3.47281 -0.0367933 0
M  V30 764 C 73.085 4.17059 -0.961546 0
M  V30 765 C 72.411 5.34342 -0.195626 0
M  V30 766 C 73.711 4.69713 -2.28402 0
M  V30 767 H 75.405 2.55933 -1.55367 0
M  V30 768 H 72.951 1.23019 -0.748484 0
M  V30 769 H 74.904 4.20706 0.241775 0
M  V30 770 H 73.628 3.14381 0.885004 0
M  V30 771 H 72.287 3.45541 -1.22462 0
M  V30 772 H 71.935 4.97692 0.728816 0
M  V30 773 H 71.635 5.81966 -0.811775 0
M  V30 774 H 73.159 6.10553 0.0757473 0
M  V30 775 H 74.573 5.34794 -2.06563 0
M  V30 776 H 72.97 5.279 -2.8538 0
M  V30 777 H 74.04 3.86726 -2.92525 0
M  V30 778 N 75.3831 0.828654 1.34056 0
M  V30 779 C 76.3161 0.199763 2.27324 0
M  V30 780 C 77.2941 -0.647168 1.49166 0
M  V30 781 O 78.4781 -0.609661 1.78369 0
M  V30 782 C 75.6051 -0.720455 3.30949 0
M  V30 783 C 74.6511 0.0496888 4.26471 0
M  V30 784 S 75.4841 1.40072 5.16856 0
M  V30 785 C 76.6401 0.485527 6.24014 0
M  V30 786 H 76.8731 0.990478 2.80316 0
M  V30 787 H 74.4061 0.624857 1.41191 0
M  V30 788 H 76.3641 -1.24581 3.91139 0
M  V30 789 H 75.0251 -1.48474 2.76793 0
M  V30 790 H 74.2181 -0.650104 4.9979 0
M  V30 791 H 73.8201 0.505779 3.70564 0
M  V30 792 H 76.1121 -0.320672 6.76741 0
M  V30 793 H 77.0551 1.18856 6.98054 0
M  V30 794 H 77.4631 0.0714109 5.64455 0
M  V30 795 N 76.8612 -1.46375 0.584142 0
M  V30 796 C 77.8112 -2.27371 -0.169232 0
M  V30 797 C 78.7952 -1.35955 -0.860523 0
M  V30 798 O 79.9872 -1.60119 -0.754382 0
M  V30 799 C 77.1162 -3.22334 -1.18134 0
M  V30 800 C 76.2022 -4.21235 -0.492088 0
M  V30 801 N 76.5932 -5.03766 0.453129 0
M  V30 802 C 74.8912 -4.39773 -0.742652 0
M  V30 803 C 75.5922 -5.75366 0.85609 0
M  V30 804 N 74.5682 -5.43214 0.204926 0
M  V30 805 H 78.3702 -2.88572 0.557097 0
M  V30 806 H 75.8842 -1.57242 0.406042 0
M  V30 807 H 77.8812 -3.79071 -1.73525 0
M  V30 808 H 76.5412 -2.62693 -1.90847 0
M  V30 809 H 77.5522 -5.11227 0.828723 0
M  V30 810 H 74.2292 -3.91279 -1.45625 0
M  V30 811 H 75.6192 -6.5172 1.63434 0
M  V30 812 N 78.3393 -0.321999 -1.54275 0
M  V30 813 C 79.2713 0.578671 -2.21775 0
M  V30 814 C 80.2843 1.08109 -1.21722 0
M  V30 815 O 81.4733 0.994938 -1.482 0
M  V30 816 C 78.5733 1.80661 -2.86731 0
M  V30 817 C 77.7463 1.44314 -4.12907 0
M  V30 818 C 76.8053 2.52845 -4.61472 0
M  V30 819 O 75.8313 2.17054 -5.2619 0
M  V30 820 N 77.0333 3.83748 -4.35566 0
M  V30 821 H 79.7983 0.000709447 -2.997 0
M  V30 822 H 77.3593 -0.145132 -1.61248 0
M  V30 823 H 79.3513 2.52655 -3.16145 0
M  V30 824 H 77.9213 2.29245 -2.12521 0
M  V30 825 H 77.1413 0.554906 -3.90275 0
M  V30 826 H 78.4293 1.17598 -4.95023 0
M  V30 827 H 77.8273 4.15625 -3.83761 0
M  V30 828 H 76.3843 4.51977 -4.69638 0
M  V30 829 N 79.8174 1.5752 -0.0501392 0
M  V30 830 C 81.0574 1.94521 0.627783 0
M  V30 831 C 81.4214 0.928265 1.68069 0
M  V30 832 O 82.6224 1.18517 2.41261 0
M  V30 833 C 80.8934 3.36319 1.20932 0
M  V30 834 S 82.4524 3.95272 1.90539 0
M  V30 835 H 79.2704 0.680456 0.206158 0
M  V30 836 H 81.8724 1.95139 -0.118829 0
M  V30 837 H 80.5764 4.08132 0.430865 0
M  V30 838 H 80.1074 3.39193 1.99277 0
M  V30 839 H 82.1224 3.80415 3.18589 0
M  V30 840 N 81.2955 -0.223234 1.56011 0
M  V30 841 C 82.2055 -1.29766 1.95443 0
M  V30 842 C 83.2215 -1.51373 0.858028 0
M  V30 843 O 84.3975 -1.64536 1.16146 0
M  V30 844 C 81.4625 -2.62772 2.26167 0
M  V30 845 C 80.5235 -2.49482 3.49367 0
M  V30 846 C 79.7565 -3.76145 3.78616 0
M  V30 847 O 79.9795 -4.79087 3.09568 0
M  V30 848 O 78.9135 -3.73358 4.72109 0
M  V30 849 H 82.7395 -0.99309 2.87004 0
M  V30 850 H 80.3245 -0.425958 1.43199 0
M  V30 851 H 82.2065 -3.41327 2.47131 0
M  V30 852 H 80.8815 -2.92913 1.37781 0
M  V30 853 H 79.7885 -1.69133 3.33684 0
M  V30 854 H 81.1215 -2.2428 4.38131 0
M  V30 855 N 82.7736 -1.49793 -0.48987 0
M  V30 856 C 84.0226 -1.59085 -1.23995 0
M  V30 857 C 84.3356 -0.287907 -1.9347 0
M  V30 858 O 85.5416 -0.259506 -2.70257 0
M  V30 859 C 83.9976 -2.80736 -2.252 0
M  V30 860 C 83.6056 -4.17833 -1.61614 0
M  V30 861 C 85.3496 -2.99364 -3.00967 0
M  V30 862 C 83.2566 -5.30693 -2.60996 0
M  V30 863 H 82.1866 -0.592372 -0.466488 0
M  V30 864 H 84.8376 -1.76197 -0.51252 0
M  V30 865 H 83.2196 -2.57142 -3.01154 0
M  V30 866 H 84.3936 -4.51608 -0.915774 0
M  V30 867 H 82.7086 -4.04656 -0.981977 0
M  V30 868 H 85.3056 -3.80851 -3.75308 0
M  V30 869 H 85.6486 -2.10356 -3.59244 0
M  V30 870 H 86.1816 -3.2305 -2.32128 0
M  V30 871 H 82.9206 -6.21796 -2.07485 0
M  V30 872 H 82.4406 -5.01359 -3.2924 0
M  V30 873 H 84.1196 -5.6049 -3.23202 0
M  V30 874 N 84.2517 0.741722 -1.39055 0
M  V30 875 C 85.4977 1.50234 -1.37118 0
M  V30 876 C 85.8527 1.92368 0.0350439 0
M  V30 877 O 85.1457 1.63422 1.00019 0
M  V30 878 C 85.3397 2.7592 -2.27163 0
M  V30 879 C 85.1687 2.46074 -3.76401 0
M  V30 880 C 83.9387 2.38704 -4.45364 0
M  V30 881 C 86.1367 2.12062 -4.68545 0
M  V30 882 N 84.1187 2.01258 -5.79973 0
M  V30 883 C 85.4897 1.85005 -5.91754 0
M  V30 884 C 87.5447 1.98473 -4.56632 0
M  V30 885 C 86.2477 1.4573 -7.04383 0
M  V30 886 C 88.2737 1.60599 -5.69176 0
M  V30 887 C 87.6357 1.34423 -6.91455 0
M  V30 888 H 83.7347 0.548858 -0.557027 0
M  V30 889 H 86.3187 0.862642 -1.74547 0
M  V30 890 H 84.4897 3.3768 -1.91904 0
M  V30 891 H 86.2217 3.42068 -2.16267 0
M  V30 892 H 82.9767 2.55574 -3.98721 0
M  V30 893 H 83.4007 1.85147 -6.51191 0
M  V30 894 H 88.0427 2.17381 -3.62637 0
M  V30 895 H 85.7607 1.25562 -7.98286 0
M  V30 896 H 89.3467 1.507 -5.61944 0
M  V30 897 H 88.2267 1.05555 -7.77064 0
M  V30 898 N 85.7298 1.2412 0.971189 0
M  V30 899 C 87.1458 1.00584 1.23916 0
M  V30 900 C 87.3458 -0.287481 1.99439 0
M  V30 901 O 86.4018 -1.00454 2.31658 0
M  V30 902 C 87.7148 2.21864 2.0297 0
M  V30 903 C 89.2628 2.26452 2.16076 0
M  V30 904 C 89.7378 3.47343 2.98524 0
M  V30 905 N 91.2288 3.47639 3.06107 0
M  V30 906 C 91.9638 4.37837 3.70251 0
M  V30 907 N 91.4598 5.38286 4.36142 0
M  V30 908 N 93.2528 4.25558 3.67228 0
M  V30 909 H 85.4038 2.07236 0.465499 0
M  V30 910 H 87.6668 0.909236 0.268315 0
M  V30 911 H 87.3728 3.15771 1.54861 0
M  V30 912 H 87.2468 2.23698 3.03709 0
M  V30 913 H 89.6338 1.33078 2.6339 0
M  V30 914 H 89.7148 2.28645 1.14696 0
M  V30 915 H 89.3588 4.41029 2.51905 0
M  V30 916 H 89.2888 3.42393 4.00093 0
M  V30 917 H 91.7798 2.74966 2.59233 0
M  V30 918 H 92.0928 6.03352 4.82894 0
M  V30 919 H 90.4378 5.42176 4.34822 0
M  V30 920 H 93.6288 3.46322 3.14927 0
M  V30 921 H 93.8018 4.96054 4.16935 0
M  V30 922 N 87.2079 -1.17134 1.05439 0
M  V30 923 C 88.1179 -2.24878 0.668365 0
M  V30 924 C 89.1339 -1.71186 -0.311687 0
M  V30 925 O 90.3099 -2.00738 -0.163161 0
M  V30 926 C 87.3749 -3.46662 0.051648 0
M  V30 927 C 86.4359 -4.15429 1.08246 0
M  V30 928 C 85.6689 -5.31399 0.495082 0
M  V30 929 O 85.8919 -5.66153 -0.694743 0
M  V30 930 O 84.8259 -5.89187 1.23056 0
M  V30 931 H 88.6519 -2.60189 1.56637 0
M  V30 932 H 86.2369 -1.24482 0.826104 0
M  V30 933 H 88.1189 -4.20394 -0.290966 0
M  V30 934 H 86.7939 -3.13142 -0.819971 0
M  V30 935 H 85.7009 -3.43704 1.47711 0
M  V30 936 H 87.0339 -4.52982 1.92532 0
M  V30 937 N 88.686 -0.835752 -1.33615 0
M  V30 938 C 89.616 -0.281739 -2.31794 0
M  V30 939 C 90.597 0.608833 -1.58831 0
M  V30 940 O 91.782 0.533035 -1.86741 0
M  V30 941 C 88.912 0.546612 -3.42971 0
M  V30 942 C 87.866 -0.247904 -4.27281 0
M  V30 943 C 87.192 0.704001 -5.30045 0
M  V30 944 C 88.492 -1.46324 -5.01385 0
M  V30 945 H 90.186 -1.10206 -2.78379 0
M  V30 946 H 87.732 -0.531388 -1.33837 0
M  V30 947 H 89.685 0.944467 -4.1068 0
M  V30 948 H 88.409 1.40011 -2.95067 0
M  V30 949 H 87.068 -0.627281 -3.61194 0
M  V30 950 H 86.716 1.55381 -4.78399 0
M  V30 951 H 86.416 0.176524 -5.87335 0
M  V30 952 H 87.94 1.09944 -6.0062 0
M  V30 953 H 89.354 -1.13871 -5.61877 0
M  V30 954 H 87.751 -1.92728 -5.6831 0
M  V30 955 H 88.821 -2.23467 -4.30338 0
M  V30 956 N 90.1641 1.46063 -0.591896 0
M  V30 957 C 91.4111 2.02338 -0.0809991 0
M  V30 958 C 91.7391 1.46228 1.28249 0
M  V30 959 O 90.9941 0.620818 1.85592 0
M  V30 960 C 91.2931 3.57391 0.0249813 0
M  V30 961 C 90.9591 4.32583 -1.27211 0
M  V30 962 C 89.6211 4.52844 -1.62745 0
M  V30 963 C 91.9731 4.75687 -2.13005 0
M  V30 964 C 89.3011 5.13462 -2.83855 0
M  V30 965 C 91.6531 5.37644 -3.3335 0
M  V30 966 C 90.3171 5.5613 -3.69155 0
M  V30 967 H 89.5871 0.740407 -0.0296397 0
M  V30 968 H 92.2341 1.75321 -0.770374 0
M  V30 969 H 90.5391 3.83597 0.797537 0
M  V30 970 H 92.2361 3.98621 0.436184 0
M  V30 971 H 88.8261 4.17116 -0.985499 0
M  V30 972 H 93.0101 4.59782 -1.86855 0
M  V30 973 H 88.2661 5.25965 -3.11722 0
M  V30 974 H 92.4401 5.7 -4.00092 0
M  V30 975 H 90.0671 6.0287 -4.63089 0
M  V30 976 N 91.6422 0.330177 1.54103 0
M  V30 977 C 92.8672 -0.274893 2.0557 0
M  V30 978 C 93.2922 -1.44487 1.20437 0
M  V30 979 O 92.6502 -1.80021 0.214991 0
M  V30 980 C 92.6982 -0.68079 3.54115 0
M  V30 981 O 91.8022 -1.7824 3.71893 0
M  V30 982 H 91.1432 -0.0483849 0.662235 0
M  V30 983 H 93.6732 0.480508 1.98878 0
M  V30 984 H 93.6832 -0.961635 3.96505 0
M  V30 985 H 92.3582 0.174903 4.15532 0
M  V30 986 H 90.9352 -1.49985 3.41407 0
M  V30 987 N 93.1203 -1.57491 0.0584922 0
M  V30 988 C 94.5313 -1.80526 -0.476138 0
M  V30 989 C 94.8823 -0.971334 -1.70469 0
M  V30 990 O 94.0073 -0.190012 -2.15564 0
M  V30 991 C 94.6023 -3.27424 -0.870587 0
M  V30 992 C 93.1613 -3.51351 -1.35015 0
M  V30 993 C 92.3083 -2.75343 -0.32887 0
M  V30 994 H 95.2593 -1.56133 0.284312 0
M  V30 995 H 95.2803 -3.38745 -1.73299 0
M  V30 996 H 94.7923 -3.88093 0.0237627 0
M  V30 997 H 92.8933 -2.95971 -2.26345 0
M  V30 998 H 93.0063 -4.60059 -1.33726 0
M  V30 999 H 91.3703 -2.417 -0.803321 0
M  V30 1000 H 92.1533 -3.38743 0.557521 0
M  V30 1001 N 94.5984 0.214957 -1.56127 0
M  V30 1002 C 95.5284 1.2695 -1.95974 0
M  V30 1003 C 96.5094 1.48539 -0.828868 0
M  V30 1004 O 97.6944 1.60611 -1.09168 0
M  V30 1005 C 94.8244 2.61794 -2.28214 0
M  V30 1006 C 93.7784 2.54851 -3.43853 0
M  V30 1007 C 93.1044 3.93785 -3.61715 0
M  V30 1008 C 94.4044 2.09065 -4.78632 0
M  V30 1009 H 96.0984 0.93846 -2.84312 0
M  V30 1010 H 93.6444 0.449996 -1.36788 0
M  V30 1011 H 95.5974 3.35731 -2.54682 0
M  V30 1012 H 94.3214 2.96599 -1.36736 0
M  V30 1013 H 92.9804 1.8337 -3.17444 0
M  V30 1014 H 92.6284 4.25908 -2.67602 0
M  V30 1015 H 92.3284 3.90019 -4.39498 0
M  V30 1016 H 93.8524 4.69374 -3.90539 0
M  V30 1017 H 95.2664 2.7275 -5.04262 0
M  V30 1018 H 93.6634 2.16346 -5.59745 0
M  V30 1019 H 94.7334 1.04315 -4.73547 0
M  V30 1020 N 96.0765 1.50051 0.48192 0
M  V30 1021 C 97.0265 1.64512 1.5786 0
M  V30 1022 C 98.0105 0.500073 1.52932 0
M  V30 1023 O 99.2025 0.753964 1.60139 0
M  V30 1024 C 96.3315 1.73263 2.9637 0
M  V30 1025 C 95.4175 2.93409 3.06222 0
M  V30 1026 N 95.8085 4.17236 2.85915 0
M  V30 1027 C 94.1065 2.91742 3.37346 0
M  V30 1028 C 94.8075 4.981 3.00451 0
M  V30 1029 N 93.7835 4.3184 3.30174 0
M  V30 1030 H 97.5855 2.57955 1.40842 0
M  V30 1031 H 95.0995 1.47086 0.688439 0
M  V30 1032 H 97.0965 1.81724 3.75209 0
M  V30 1033 H 95.7565 0.809711 3.14442 0
M  V30 1034 H 96.7675 4.46909 2.6171 0
M  V30 1035 H 93.4445 2.08907 3.61475 0
M  V30 1036 H 94.8345 6.06532 2.89082 0
M  V30 1037 N 97.5546 -0.734337 1.39446 0
M  V30 1038 C 98.5176 -1.83004 1.37994 0
M  V30 1039 C 99.5176 -1.58397 0.276938 0
M  V30 1040 O 100.708 -1.65785 0.534875 0
M  V30 1041 C 97.8396 -3.20802 1.1532 0
M  V30 1042 H 99.0326 -1.85694 2.35494 0
M  V30 1043 H 96.5856 -0.938059 1.25021 0
M  V30 1044 H 97.3206 -3.23772 0.185036 0
M  V30 1045 H 97.1056 -3.4006 1.95197 0
M  V30 1046 H 98.5956 -4.00862 1.17046 0
M  V30 1047 N 99.0327 -1.24633 -0.964593 0
M  V30 1048 C 99.9627 -1.06611 -2.07741 0
M  V30 1049 C 100.944 0.0218666 -1.70086 0
M  V30 1050 O 102.129 -0.145793 -1.93652 0
M  V30 1051 C 99.2587 -0.673444 -3.40708 0
M  V30 1052 C 98.2127 -1.71054 -3.92332 0
M  V30 1053 C 97.5387 -1.17285 -5.21678 0
M  V30 1054 C 98.8387 -3.10718 -4.19824 0
M  V30 1055 H 100.533 -1.99693 -2.23076 0
M  V30 1056 H 98.0787 -0.96152 -1.07195 0
M  V30 1057 H 100.032 -0.534345 -4.17998 0
M  V30 1058 H 98.7557 0.293073 -3.25282 0
M  V30 1059 H 97.4147 -1.83791 -3.17201 0
M  V30 1060 H 97.0627 -0.196847 -5.02615 0
M  V30 1061 H 96.7627 -1.86592 -5.57187 0
M  V30 1062 H 98.2867 -1.04593 -6.01575 0
M  V30 1063 H 99.7007 -3.01192 -4.87808 0
M  V30 1064 H 98.0977 -3.77406 -4.66567 0
M  V30 1065 H 99.1677 -3.58524 -3.26479 0
M  V30 1066 N 100.511 1.16574 -1.06058 0
M  V30 1067 C 101.459 2.22941 -0.663343 0
M  V30 1068 C 102.453 1.66358 0.319593 0
M  V30 1069 O 103.659 1.7905 0.184713 0
M  V30 1070 H 100.034 0.725907 -0.196376 0
M  V30 1071 H 102.005 2.53736 -1.57037 0
M  V30 1072 C 100.754 3.47642 -0.0632808 0
M  V30 1073 H 100.077 3.91493 -0.810733 0
M  V30 1074 H 101.517 4.2363 0.177177 0
M  V30 1075 C 99.9758 3.1509 1.19248 0
M  V30 1076 O 100.506 3.30673 2.28075 0
M  V30 1077 N 98.7118 2.6924 1.09353 0
M  V30 1078 H 98.2588 2.5676 0.207912 0
M  V30 1079 H 98.2168 2.47833 1.93458 0
M  V30 1080 N 101.989 0.842826 1.3317 0
M  V30 1081 C 103.236 0.440447 1.97652 0
M  V30 1082 C 103.564 -1.00123 1.6675 0
M  V30 1083 O 102.819 -1.7155 0.941761 0
M  V30 1084 C 103.118 0.612607 3.52111 0
M  V30 1085 C 102.784 2.02297 4.02972 0
M  V30 1086 C 101.446 2.40874 4.16573 0
M  V30 1087 C 103.798 2.94402 4.30089 0
M  V30 1088 C 101.126 3.70852 4.54627 0
M  V30 1089 C 103.478 4.23865 4.69597 0
M  V30 1090 C 102.142 4.62392 4.81404 0
M  V30 1091 H 101.412 0.161171 0.72326 0
M  V30 1092 H 104.059 1.07061 1.58777 0
M  V30 1093 H 102.364 -0.100849 3.9167 0
M  V30 1094 H 104.061 0.2815 4.00011 0
M  V30 1095 H 100.651 1.71338 3.92863 0
M  V30 1096 H 104.835 2.65835 4.19101 0
M  V30 1097 H 100.091 4.00501 4.61962 0
M  V30 1098 H 104.265 4.95306 4.89536 0
M  V30 1099 H 101.892 5.63154 5.10648 0
M  V30 1100 N 103.467 -1.45747 0.599634 0
M  V30 1101 C 104.715 -2.01893 0.0915472 0
M  V30 1102 C 105.036 -1.47155 -1.27946 0
M  V30 1103 O 104.306 -0.66273 -1.84349 0
M  V30 1104 H 102.886 -0.746363 0.0308524 0
M  V30 1105 H 105.548 -1.78645 0.779237 0
M  V30 1106 H 104.644 -3.1208 0.0353086 0
M  V30 1107 N 104.945 -0.338344 -1.53925 0
M  V30 1108 C 106.194 0.260732 -2.00008 0
M  V30 1109 C 106.507 1.52073 -1.23017 0
M  V30 1110 O 107.713 2.19672 -1.5955 0
M  V30 1111 C 106.169 0.51515 -3.56194 0
M  V30 1112 C 105.777 -0.728645 -4.42035 0
M  V30 1113 C 107.521 1.07337 -4.10706 0
M  V30 1114 C 105.428 -0.445315 -5.89721 0
M  V30 1115 H 104.358 0.101205 -0.747177 0
M  V30 1116 H 107.009 -0.452866 -1.77824 0
M  V30 1117 H 105.391 1.28932 -3.74423 0
M  V30 1118 H 106.565 -1.50352 -4.35581 0
M  V30 1119 H 104.88 -1.20813 -3.98489 0
M  V30 1120 H 107.477 1.30022 -5.18651 0
M  V30 1121 H 107.82 2.0273 -3.63602 0
M  V30 1122 H 108.353 0.360034 -3.96167 0
M  V30 1123 H 105.092 -1.36883 -6.41049 0
M  V30 1124 H 104.612 0.291569 -5.99091 0
M  V30 1125 H 106.291 -0.0606218 -6.46972 0
M  V30 1126 N 106.423 1.57458 -0.0668435 0
M  V30 1127 C 107.671 1.92919 0.602214 0
M  V30 1128 C 107.992 0.947215 1.70449 0
M  V30 1129 O 107.262 -0.00544117 1.95899 0
M  V30 1130 H 105.842 0.71217 0.22544 0
M  V30 1131 H 108.504 1.94508 -0.123535 0
M  V30 1132 H 107.6 2.94589 1.03073 0
M  V30 1133 N 107.901 -0.206675 1.56239 0
M  V30 1134 C 109.149 -0.927007 1.79586 0
M  V30 1135 C 109.47 -1.8427 0.637929 0
M  V30 1136 O 108.74 -1.92849 -0.344398 0
M  V30 1137 H 107.32 -0.345292 0.662407 0
M  V30 1138 H 109.982 -0.21496 1.93711 0
M  V30 1139 H 109.078 -1.52501 2.72305 0
M  V30 1140 N 109.379 -1.50304 -0.473955 0
M  V30 1141 C 110.656 -1.51667 -1.23518 0
M  V30 1142 C 111.036 -0.259701 -2.09496 0
M  V30 1143 O 110.384 0.756986 -2.15597 0
M  V30 1144 C 110.594 -2.81082 -2.06868 0
M  V30 1145 C 111.942 -3.31631 -2.65153 0
M  V30 1146 O 112.966 -2.82384 -2.17113 0
M  V30 1147 O 111.825 -4.17471 -3.52675 0
M  V30 1148 H 108.919 -0.60822 -0.560355 0
M  V30 1149 H 111.465 -1.62592 -0.486011 0
M  V30 1150 H 110.237 -3.64041 -1.4349 0
M  V30 1151 H 109.86 -2.73146 -2.88924 0
M  V30 1152 N 110.857 0.726932 -1.39834 0
M  V30 1153 C 112.105 1.4837 -1.37225 0
M  V30 1154 C 112.426 1.94979 0.0284857 0
M  V30 1155 O 111.696 1.69555 0.981213 0
M  V30 1156 H 110.276 0.55043 -0.505011 0
M  V30 1157 H 112.938 0.862468 -1.74778 0
M  V30 1158 H 112.034 2.36198 -2.04003 0
M  V30 1159 N 112.336 1.25143 0.95797 0
M  V30 1160 C 113.564 1.12424 1.73691 0
M  V30 1161 C 113.979 -0.322304 1.86029 0
M  V30 1162 O 113.336 -1.22186 1.35561 0
M  V30 1163 C 113.387 1.76933 3.15241 0
M  V30 1164 O 113.108 3.15932 3.03511 0
M  V30 1165 C 114.609 1.6995 4.09429 0
M  V30 1166 H 111.829 0.3923 0.544373 0
M  V30 1167 H 114.373 1.6544 1.20207 0
M  V30 1168 H 112.528 1.27895 3.6568 0
M  V30 1169 H 112.942 3.47598 3.9278 0
M  V30 1170 H 114.416 2.19753 5.06372 0
M  V30 1171 H 114.893 0.662619 4.34173 0
M  V30 1172 H 115.499 2.18461 3.64904 0
M  V30 1173 N 113.814 -1.1601 1.06675 0
M  V30 1174 C 114.746 -2.20115 0.638921 0
M  V30 1175 C 115.759 -1.59916 -0.305057 0
M  V30 1176 O 116.948 -1.78245 -0.0954446 0
M  V30 1177 C 114.048 -3.38798 -0.0830083 0
M  V30 1178 C 113.221 -4.2855 0.875426 0
M  V30 1179 C 112.28 -5.25849 0.192042 0
M  V30 1180 O 111.306 -5.63102 0.830921 0
M  V30 1181 N 112.508 -5.70648 -1.06493 0
M  V30 1182 H 115.273 -2.57439 1.53444 0
M  V30 1183 H 112.834 -1.31057 0.950557 0
M  V30 1184 H 114.826 -4.00936 -0.550685 0
M  V30 1185 H 113.396 -2.99947 -0.880386 0
M  V30 1186 H 112.616 -3.63617 1.52238 0
M  V30 1187 H 113.904 -4.85393 1.52548 0
M  V30 1188 H 113.302 -5.42482 -1.60405 0
M  V30 1189 H 111.859 -6.34859 -1.47641 0
M  V30 1190 N 115.292 -0.849877 -1.32721 0
M  V30 1191 C 116.242 -0.262892 -2.26479 0
M  V30 1192 C 117.226 0.588493 -1.49752 0
M  V30 1193 O 118.418 0.438659 -1.71478 0
M  V30 1194 C 115.547 0.551818 -3.38836 0
M  V30 1195 C 114.633 -0.311689 -4.22953 0
M  V30 1196 N 115.024 -1.39567 -4.86163 0
M  V30 1197 C 113.322 -0.100611 -4.45887 0
M  V30 1198 C 114.023 -1.92651 -5.48872 0
M  V30 1199 N 112.999 -1.22637 -5.29586 0
M  V30 1200 H 116.801 -1.09166 -2.72873 0
M  V30 1201 H 114.315 -0.695486 -1.46754 0
M  V30 1202 H 116.312 0.988713 -4.05006 0
M  V30 1203 H 114.972 1.37844 -2.93988 0
M  V30 1204 H 115.983 -1.77859 -4.86402 0
M  V30 1205 H 112.66 0.691681 -4.11731 0
M  V30 1206 H 114.05 -2.83487 -6.09167 0
M  V30 1207 N 116.77 1.45427 -0.607355 0
M  V30 1208 C 118.016 2.0254 -0.102607 0
M  V30 1209 C 118.349 1.47478 1.26348 0
M  V30 1210 O 117.624 0.64939 1.83339 0
M  V30 1211 C 117.907 3.60044 -0.0634347 0
M  V30 1212 C 117.76 4.2544 -1.46017 0
M  V30 1213 C 119.079 4.35646 0.624514 0
M  V30 1214 H 116.198 0.73598 -0.0387607 0
M  V30 1215 H 118.84 1.73284 -0.779282 0
M  V30 1216 H 116.99 3.85101 0.512808 0
M  V30 1217 H 118.662 4.11569 -2.08347 0
M  V30 1218 H 116.905 3.83849 -2.02094 0
M  V30 1219 H 117.576 5.34342 -1.385 0
M  V30 1220 H 120.052 4.15882 0.134723 0
M  V30 1221 H 118.928 5.45376 0.621028 0
M  V30 1222 H 119.189 4.08501 1.69055 0
M  V30 1223 N 118.248 0.346503 1.53744 0
M  V30 1224 C 119.178 -0.501193 2.28058 0
M  V30 1225 C 120.159 -1.10014 1.29734 0
M  V30 1226 O 121.344 -1.12097 1.58581 0
M  V30 1227 C 118.474 -1.65078 3.05559 0
M  V30 1228 C 117.428 -1.18003 4.11411 0
M  V30 1229 C 116.754 -2.41837 4.76884 0
M  V30 1230 C 118.054 -0.278394 5.21558 0
M  V30 1231 H 119.748 0.11875 2.99164 0
M  V30 1232 H 117.294 0.0585531 1.43881 0
M  V30 1233 H 119.247 -2.25028 3.56287 0
M  V30 1234 H 117.971 -2.29767 2.32109 0
M  V30 1235 H 116.63 -0.603331 3.61601 0
M  V30 1236 H 116.278 -3.0494 4.00026 0
M  V30 1237 H 115.978 -2.1102 5.48402 0
M  V30 1238 H 117.502 -3.02508 5.30397 0
M  V30 1239 H 118.916 -0.784823 5.67903 0
M  V30 1240 H 117.313 -0.0619707 6.00068 0
M  V30 1241 H 118.383 0.684677 4.80042 0
M  V30 1242 N 119.726 -1.57421 0.075193 0
M  V30 1243 C 120.972 -1.94716 -0.587998 0
M  V30 1244 C 121.327 -0.955205 -1.67014 0
M  V30 1245 O 120.62 0.0219842 -1.91587 0
M  V30 1246 C 120.814 -3.36428 -1.20626 0
M  V30 1247 C 120.643 -4.49317 -0.185541 0
M  V30 1248 C 119.413 -5.04772 0.23099 0
M  V30 1249 C 121.611 -5.11036 0.57854 0
M  V30 1250 N 119.593 -6.01204 1.24206 0
M  V30 1251 C 120.964 -6.02998 1.44199 0
M  V30 1252 C 123.019 -4.93844 0.634237 0
M  V30 1253 C 121.722 -6.79614 2.3562 0
M  V30 1254 C 123.748 -5.71106 1.53597 0
M  V30 1255 C 123.11 -6.6272 2.38709 0
M  V30 1256 H 119.209 -0.759536 -0.186089 0
M  V30 1257 H 121.793 -1.94097 0.153128 0
M  V30 1258 H 119.964 -3.37778 -1.9173 0
M  V30 1259 H 121.696 -3.60951 -1.8302 0
M  V30 1260 H 118.451 -4.73353 -0.152807 0
M  V30 1261 H 118.875 -6.54119 1.74521 0
M  V30 1262 H 123.517 -4.22799 -0.00960004 0
M  V30 1263 H 121.235 -7.49934 3.01038 0
M  V30 1264 H 124.821 -5.59824 1.58394 0
M  V30 1265 H 123.701 -7.2146 3.07352 0
M  V30 1266 N 121.204 0.198386 -1.56346 0
M  V30 1267 C 122.62 0.549085 -1.49857 0
M  V30 1268 C 122.82 1.86016 -0.774611 0
M  V30 1269 O 121.876 2.50416 -0.323776 0
M  V30 1270 C 123.189 0.606868 -2.94512 0
M  V30 1271 C 124.737 0.695925 -3.05165 0
M  V30 1272 C 125.212 0.784848 -4.51225 0
M  V30 1273 N 126.703 0.848463 -4.55363 0
M  V30 1274 C 127.438 0.937378 -5.65686 0
M  V30 1275 N 126.934 0.9888 -6.85707 0
M  V30 1276 N 128.727 0.974312 -5.53592 0
M  V30 1277 H 120.878 -0.661655 -2.01831 0
M  V30 1278 H 123.141 -0.235261 -0.918344 0
M  V30 1279 H 122.847 -0.28732 -3.50524 0
M  V30 1280 H 122.721 1.46268 -3.47686 0
M  V30 1281 H 125.108 1.58055 -2.49204 0
M  V30 1282 H 125.189 -0.186022 -2.55123 0
M  V30 1283 H 124.833 -0.0954072 -5.0781 0
M  V30 1284 H 124.763 1.68255 -4.98997 0
M  V30 1285 H 127.254 0.818103 -3.68938 0
M  V30 1286 H 127.567 1.05707 -7.65536 0
M  V30 1287 H 125.912 0.957534 -6.88372 0
M  V30 1288 H 129.103 0.930954 -4.58749 0
M  V30 1289 H 129.276 1.04015 -6.39597 0
M  V30 1290 N 122.682 1.50554 0.465978 0
M  V30 1291 C 123.612 1.72722 1.57128 0
M  V30 1292 C 124.593 0.576294 1.6004 0
M  V30 1293 O 125.778 0.81598 1.76225 0
M  V30 1294 C 122.908 1.82605 2.95419 0
M  V30 1295 C 121.862 2.97835 3.07373 0
M  V30 1296 C 121.188 2.92867 4.47363 0
M  V30 1297 C 122.488 4.38265 2.84114 0
M  V30 1298 H 124.182 2.65267 1.38829 0
M  V30 1299 H 121.728 1.2765 0.666441 0
M  V30 1300 H 123.681 1.96698 3.72677 0
M  V30 1301 H 122.405 0.866858 3.14886 0
M  V30 1302 H 121.064 2.83401 2.3255 0
M  V30 1303 H 120.712 1.94783 4.63755 0
M  V30 1304 H 120.412 3.70227 4.56296 0
M  V30 1305 H 121.936 3.09015 5.26633 0
M  V30 1306 H 123.35 4.53198 3.51118 0
M  V30 1307 H 121.747 5.17115 3.04487 0
M  V30 1308 H 122.817 4.50281 1.7993 0
M  V30 1309 N 124.16 -0.719506 1.40217 0
M  V30 1310 C 125.07 -1.86378 1.42479 0
M  V30 1311 C 126.086 -1.71073 0.317834 0
M  V30 1312 O 127.262 -1.93406 0.561794 0
M  V30 1313 C 124.327 -3.22136 1.28178 0
M  V30 1314 C 123.388 -3.49723 2.48982 0
M  V30 1315 C 122.621 -4.79004 2.35353 0
M  V30 1316 O 122.844 -5.53821 1.36524 0
M  V30 1317 O 121.778 -5.06839 3.2465 0
M  V30 1318 H 125.604 -1.87425 2.38968 0
M  V30 1319 H 123.189 -0.869405 1.21498 0
M  V30 1320 H 125.071 -4.03234 1.22395 0
M  V30 1321 H 123.746 -3.21825 0.347934 0
M  V30 1322 H 122.653 -2.6865 2.60342 0
M  V30 1323 H 123.986 -3.54828 3.41113 0
M  V30 1324 N 125.638 -1.25649 -0.95132 0
M  V30 1325 C 126.586 -1.06118 -2.06982 0
M  V30 1326 C 127.58 0.00889169 -1.69398 0
M  V30 1327 O 128.786 -0.146988 -1.79399 0
M  V30 1328 H 125.161 -0.326248 -0.677544 0
M  V30 1329 H 127.132 -2.00932 -2.2061 0
M  V30 1330 C 125.881 -0.700145 -3.40578 0
M  V30 1331 H 125.204 -1.51537 -3.69968 0
M  V30 1332 H 126.644 -0.603211 -4.19687 0
M  V30 1333 C 125.103 0.59403 -3.31622 0
M  V30 1334 O 125.633 1.63522 -3.66911 0
M  V30 1335 N 123.839 0.58089 -2.84735 0
M  V30 1336 H 123.386 -0.266783 -2.56215 0
M  V30 1337 H 123.344 1.44695 -2.79125 0
M  V30 1338 N 127.117 1.15442 -1.07289 0
M  V30 1339 C 128.365 1.85845 -0.794096 0
M  V30 1340 C 128.686 1.82692 0.681809 0
M  V30 1341 O 127.956 1.26741 1.49377 0
M  V30 1342 H 126.536 0.688089 -0.290763 0
M  V30 1343 H 129.198 1.39947 -1.3565 0
M  V30 1344 H 128.294 2.91001 -1.12804 0
M  V30 1345 N 128.595 0.856903 1.32268 0
M  V30 1346 C 129.505 0.306131 2.32594 0
M  V30 1347 C 130.521 -0.577209 1.64147 0
M  V30 1348 O 131.697 -0.477043 1.95669 0
M  V30 1349 C 128.762 -0.494561 3.43154 0
M  V30 1350 C 127.823 0.415186 4.27288 0
M  V30 1351 C 127.056 -0.347387 5.32568 0
M  V30 1352 O 127.279 -1.57708 5.48165 0
M  V30 1353 O 126.213 0.287982 6.01211 0
M  V30 1354 H 130.039 1.13737 2.81598 0
M  V30 1355 H 127.624 0.619902 1.35932 0
M  V30 1356 H 129.506 -0.948944 4.10576 0
M  V30 1357 H 128.181 -1.30257 2.96336 0
M  V30 1358 H 127.088 0.917793 3.62667 0
M  V30 1359 H 128.421 1.18844 4.77637 0
M  V30 1360 N 130.073 -1.45103 0.615059 0
M  V30 1361 C 131.003 -2.33339 -0.0865619 0
M  V30 1362 C 131.984 -1.4727 -0.851209 0
M  V30 1363 O 133.169 -1.76026 -0.820281 0
M  V30 1364 C 130.299 -3.30095 -1.07956 0
M  V30 1365 C 129.253 -4.25858 -0.427628 0
M  V30 1366 C 128.579 -5.12361 -1.5294 0
M  V30 1367 C 129.879 -5.18165 0.655944 0
M  V30 1368 H 131.573 -2.92254 0.650224 0
M  V30 1369 H 129.119 -1.40532 0.314138 0
M  V30 1370 H 131.072 -3.90698 -1.57901 0
M  V30 1371 H 129.796 -2.69355 -1.84703 0
M  V30 1372 H 128.455 -3.66564 0.0510292 0
M  V30 1373 H 128.103 -4.47984 -2.28734 0
M  V30 1374 H 127.803 -5.77238 -1.09865 0
M  V30 1375 H 129.327 -5.75833 -2.03098 0
M  V30 1376 H 130.741 -5.72796 0.240257 0
M  V30 1377 H 129.138 -5.91559 1.00888 0
M  V30 1378 H 130.208 -4.60144 1.52957 0
M  V30 1379 N 131.551 -0.354651 -1.53558 0
M  V30 1380 C 132.461 0.50515 -2.29097 0
M  V30 1381 C 133.477 1.10223 -1.34636 0
M  V30 1382 O 134.653 1.11553 -1.67684 0
M  V30 1383 C 131.718 1.63479 -3.05738 0
M  V30 1384 C 130.779 1.06636 -4.15845 0
M  V30 1385 C 130.012 2.14217 -4.88822 0
M  V30 1386 O 130.235 3.35137 -4.61562 0
M  V30 1387 O 129.169 1.77887 -5.75013 0
M  V30 1388 H 132.995 -0.109237 -3.03503 0
M  V30 1389 H 130.58 -0.119357 -1.48922 0
M  V30 1390 H 132.462 2.2918 -3.5363 0
M  V30 1391 H 131.137 2.23478 -2.34178 0
M  V30 1392 H 130.044 0.373565 -3.7223 0
M  V30 1393 H 131.377 0.511081 -4.89539 0
M  V30 1394 N 133.029 1.57378 -0.0835403 0
M  V30 1395 C 133.979 2.09916 0.889905 0
M  V30 1396 C 134.963 1.01151 1.25129 0
M  V30 1397 O 136.155 1.27443 1.2283 0
M  V30 1398 C 133.284 2.67379 2.15322 0
M  V30 1399 C 132.37 3.83167 1.81779 0
M  V30 1400 N 132.761 4.91665 1.18739 0
M  V30 1401 C 131.059 3.92685 2.11459 0
M  V30 1402 C 131.76 5.72409 1.0355 0
M  V30 1403 N 130.736 5.21062 1.54906 0
M  V30 1404 H 134.538 2.91188 0.398378 0
M  V30 1405 H 132.052 1.61956 0.120013 0
M  V30 1406 H 134.049 3.0334 2.8599 0
M  V30 1407 H 132.709 1.87558 2.65051 0
M  V30 1408 H 133.72 5.10784 0.855604 0
M  V30 1409 H 130.397 3.23856 2.63483 0
M  V30 1410 H 131.787 6.69699 0.543425 0
M  V30 1411 N 134.507 -0.190092 1.56449 0
M  V30 1412 C 135.756 -0.907912 1.80111 0
M  V30 1413 C 136.069 -1.84214 0.657619 0
M  V30 1414 O 137.275 -2.60094 0.778663 0
M  V30 1415 C 135.731 -1.66485 3.19078 0
M  V30 1416 C 135.339 -0.7752 4.41242 0
M  V30 1417 C 137.083 -2.37201 3.52045 0
M  V30 1418 C 134.99 -1.53129 5.71231 0
M  V30 1419 H 133.92 -0.34276 0.671589 0
M  V30 1420 H 136.571 -0.161109 1.82791 0
M  V30 1421 H 134.953 -2.45572 3.10661 0
M  V30 1422 H 136.127 -0.0226298 4.60794 0
M  V30 1423 H 134.442 -0.178627 4.16017 0
M  V30 1424 H 137.039 -2.94329 4.46402 0
M  V30 1425 H 137.382 -3.11632 2.76028 0
M  V30 1426 H 137.915 -1.65075 3.61932 0
M  V30 1427 H 134.654 -0.82967 6.50228 0
M  V30 1428 H 134.174 -2.25767 5.55688 0
M  V30 1429 H 135.853 -2.08377 6.12526 0
M  V30 1430 N 135.985 -1.50799 -0.457987 0
M  V30 1431 C 137.401 -1.38515 -0.792819 0
M  V30 1432 C 137.601 -0.451409 -1.96379 0
M  V30 1433 O 136.657 0.10112 -2.52297 0
M  V30 1434 C 137.97 -2.80149 -1.09258 0
M  V30 1435 C 139.518 -2.89156 -1.19825 0
M  V30 1436 C 139.993 -4.31651 -1.53106 0
M  V30 1437 N 141.484 -4.34662 -1.60072 0
M  V30 1438 C 142.219 -5.41928 -1.87354 0
M  V30 1439 N 141.715 -6.59384 -2.12568 0
M  V30 1440 N 143.508 -5.29385 -1.88965 0
M  V30 1441 H 135.659 -2.10073 0.313511 0
M  V30 1442 H 137.922 -0.944803 0.0777862 0
M  V30 1443 H 137.628 -3.50374 -0.305084 0
M  V30 1444 H 137.502 -3.18204 -2.02549 0
M  V30 1445 H 139.889 -2.19141 -1.97639 0
M  V30 1446 H 139.97 -2.54626 -0.244821 0
M  V30 1447 H 139.614 -5.02208 -0.758266 0
M  V30 1448 H 139.544 -4.63678 -2.49621 0
M  V30 1449 H 142.035 -3.49973 -1.42573 0
M  V30 1450 H 142.348 -7.36934 -2.32696 0
M  V30 1451 H 140.693 -6.62535 -2.09933 0
M  V30 1452 H 143.884 -4.36616 -1.68772 0
M  V30 1453 H 144.057 -6.13066 -2.09891 0
M  V30 1454 N 137.463 0.71206 -1.40597 0
M  V30 1455 C 138.874 1.29135 -1.34837 0
M  V30 1456 C 139.225 1.96186 -0.0235395 0
M  V30 1457 O 138.35 1.97768 0.878444 0
M  V30 1458 C 138.945 2.34827 -2.44217 0
M  V30 1459 C 137.504 2.88371 -2.41907 0
M  V30 1460 C 136.651 1.62202 -2.24913 0
M  V30 1461 H 139.602 0.507944 -1.50352 0
M  V30 1462 H 139.623 3.15749 -2.12327 0
M  V30 1463 H 139.135 1.85996 -3.40627 0
M  V30 1464 H 137.236 3.41422 -1.49204 0
M  V30 1465 H 137.349 3.39925 -3.37621 0
M  V30 1466 H 135.713 1.874 -1.72492 0
M  V30 1467 H 136.496 1.15391 -3.23326 0
M  V30 1468 N 138.941 1.26152 0.944643 0
M  V30 1469 C 139.888 1.07408 2.04285 0
M  V30 1470 C 140.858 -0.0198413 1.66088 0
M  V30 1471 O 142.043 0.139264 1.90291 0
M  V30 1472 C 139.183 0.70945 3.37729 0
M  V30 1473 C 138.296 1.87926 3.88983 0
M  V30 1474 C 137.431 1.45807 5.10797 0
M  V30 1475 C 136.47 2.5964 5.54305 0
M  V30 1476 N 135.607 2.18226 6.67324 0
M  V30 1477 H 140.447 2.01389 2.1965 0
M  V30 1478 H 137.984 1.00275 1.07626 0
M  V30 1479 H 139.942 0.478948 4.14442 0
M  V30 1480 H 138.572 -0.193389 3.2222 0
M  V30 1481 H 137.624 2.22279 3.08701 0
M  V30 1482 H 138.936 2.73377 4.17213 0
M  V30 1483 H 138.09 1.18781 5.94959 0
M  V30 1484 H 136.829 0.574414 4.84305 0
M  V30 1485 H 135.834 2.87399 4.68702 0
M  V30 1486 H 137.059 3.48599 5.828 0
M  V30 1487 H 135.005 1.3229 6.42523 0
M  V30 1488 H 134.922 2.97221 6.95123 0
M  V30 1489 H 136.19 1.94403 7.54869 0
M  V30 1490 N 140.419 -1.14872 1.07899 0
M  V30 1491 C 141.668 -1.85135 0.800499 0
M  V30 1492 C 141.981 -1.83547 -0.676014 0
M  V30 1493 O 143.187 -2.49548 -1.06948 0
M  V30 1494 C 141.643 -3.3231 1.38197 0
M  V30 1495 C 141.251 -3.42329 2.8899 0
M  V30 1496 C 142.995 -4.0772 1.18174 0
M  V30 1497 C 140.902 -4.83684 3.403 0
M  V30 1498 H 139.832 -0.693563 0.29578 0
M  V30 1499 H 142.483 -1.29532 1.29976 0
M  V30 1500 H 140.865 -3.87618 0.810431 0
M  V30 1501 H 142.039 -2.97097 3.52236 0
M  V30 1502 H 140.354 -2.80369 3.07867 0
M  V30 1503 H 142.951 -5.12049 1.5398 0
M  V30 1504 H 143.294 -4.16124 0.12117 0
M  V30 1505 H 143.827 -3.58696 1.71994 0
M  V30 1506 H 140.566 -4.80465 4.45907 0
M  V30 1507 H 140.086 -5.29474 2.81811 0
M  V30 1508 H 141.765 -5.52558 3.36584 0
M  V30 1509 N 141.898 -0.863906 -1.31812 0
M  V30 1510 C 143.144 -0.472535 -1.97218 0
M  V30 1511 C 143.477 0.971394 -1.68159 0
M  V30 1512 O 142.752 1.68309 -0.974798 0
M  V30 1513 C 143.035 -0.723054 -3.52766 0
M  V30 1514 C 142.888 -2.21608 -3.91421 0
M  V30 1515 C 144.207 -0.185522 -4.39709 0
M  V30 1516 H 141.326 -0.173158 -0.71637 0
M  V30 1517 H 143.968 -1.08403 -1.56041 0
M  V30 1518 H 142.118 -0.202577 -3.87971 0
M  V30 1519 H 143.79 -2.80334 -3.66347 0
M  V30 1520 H 142.033 -2.691 -3.40246 0
M  V30 1521 H 142.704 -2.34203 -4.99853 0
M  V30 1522 H 145.18 -0.630726 -4.11292 0
M  V30 1523 H 144.056 -0.390306 -5.47511 0
M  V30 1524 H 144.317 0.912229 -4.32586 0
M  V30 1525 N 143.376 1.44774 -0.622745 0
M  V30 1526 C 144.622 2.0242 -0.124083 0
M  V30 1527 C 144.955 1.4881 1.24777 0
M  V30 1528 O 144.23 0.668799 1.8264 0
M  V30 1529 C 144.513 3.59957 -0.101619 0
M  V30 1530 C 144.366 4.23867 -1.50521 0
M  V30 1531 C 145.685 4.36284 0.578272 0
M  V30 1532 H 142.804 0.735528 -0.0465645 0
M  V30 1533 H 145.446 1.72447 -0.797617 0
M  V30 1534 H 143.596 3.85623 0.471934 0
M  V30 1535 H 145.268 4.09336 -2.12701 0
M  V30 1536 H 143.511 3.81684 -2.06154 0
M  V30 1537 H 144.182 5.32843 -1.4416 0
M  V30 1538 H 146.658 4.16001 0.0906057 0
M  V30 1539 H 145.534 5.46004 0.563149 0
M  V30 1540 H 145.795 4.10271 1.64713 0
M  V30 1541 N 144.854 0.36279 1.53368 0
M  V30 1542 C 146.1 -0.228113 2.01513 0
M  V30 1543 C 146.433 -1.48648 1.2497 0
M  V30 1544 O 145.708 -1.91459 0.342616 0
M  V30 1545 C 145.991 -0.522884 3.56284 0
M  V30 1546 C 145.844 0.74892 4.43521 0
M  V30 1547 C 147.163 -1.32461 4.19693 0
M  V30 1548 H 144.282 -0.0814343 0.732487 0
M  V30 1549 H 146.924 0.48713 1.83649 0
M  V30 1550 H 145.074 -1.1322 3.71636 0
M  V30 1551 H 146.746 1.38648 4.39971 0
M  V30 1552 H 144.989 1.36986 4.11603 0
M  V30 1553 H 145.66 0.497667 5.49752 0
M  V30 1554 H 148.136 -0.809203 4.08156 0
M  V30 1555 H 147.012 -1.49961 5.28018 0
M  V30 1556 H 147.273 -2.33232 3.75573 0
M  V30 1557 N 146.332 -1.57332 0.0918853 0
M  V30 1558 C 147.578 -1.95328 -0.567313 0
M  V30 1559 C 147.933 -0.972866 -1.65991 0
M  V30 1560 O 147.226 0.00166256 -1.916 0
M  V30 1561 C 147.42 -3.37689 -1.17051 0
M  V30 1562 C 147.249 -4.49489 -0.137875 0
M  V30 1563 C 146.019 -5.04498 0.284515 0
M  V30 1564 C 148.217 -5.10393 0.63271 0
M  V30 1565 N 146.199 -5.99853 1.30576 0
M  V30 1566 C 147.57 -6.01435 1.50587 0
M  V30 1567 C 149.625 -4.93143 0.68658 0
M  V30 1568 C 148.328 -6.77077 2.42815 0
M  V30 1569 C 150.354 -5.69445 1.59645 0
M  V30 1570 C 149.716 -6.60151 2.45725 0
M  V30 1571 H 145.815 -0.761467 -0.178023 0
M  V30 1572 H 148.399 -1.93924 0.173706 0
M  V30 1573 H 146.57 -3.39793 -1.88136 0
M  V30 1574 H 148.302 -3.62872 -1.79181 0
M  V30 1575 H 145.057 -4.73489 -0.102593 0
M  V30 1576 H 145.481 -6.52231 1.81449 0
M  V30 1577 H 150.123 -4.22785 0.035244 0
M  V30 1578 H 147.841 -7.46699 3.08975 0
M  V30 1579 H 151.427 -5.58112 1.64323 0
M  V30 1580 H 150.307 -7.18159 3.14987 0
M  V30 1581 N 147.81 0.181792 -1.56548 0
M  V30 1582 C 149.056 0.901431 -1.81665 0
M  V30 1583 C 149.389 1.82347 -0.668075 0
M  V30 1584 O 148.664 1.91669 0.330615 0
M  V30 1585 C 148.947 1.70618 -3.17115 0
M  V30 1586 C 148.8 0.807964 -4.42484 0
M  V30 1587 C 150.119 2.67605 -3.49393 0
M  V30 1588 H 147.238 0.32627 -0.660846 0
M  V30 1589 H 149.88 0.168134 -1.89255 0
M  V30 1590 H 148.03 2.33133 -3.10775 0
M  V30 1591 H 149.702 0.19649 -4.60881 0
M  V30 1592 H 147.945 0.115411 -4.33646 0
M  V30 1593 H 148.616 1.40632 -5.33785 0
M  V30 1594 H 151.092 2.15218 -3.56118 0
M  V30 1595 H 149.968 3.20985 -4.45264 0
M  V30 1596 H 150.229 3.47298 -2.73563 0
M  V30 1597 N 149.288 1.51039 0.449983 0
M  V30 1598 C 150.536 1.62759 1.19808 0
M  V30 1599 C 150.857 0.339981 1.92013 0
M  V30 1600 O 150.127 -0.643606 1.85026 0
M  V30 1601 H 148.707 0.599811 0.445237 0
M  V30 1602 H 151.369 1.87914 0.517138 0
M  V30 1603 H 150.465 2.44911 1.93455 0
M  V30 1604 N 150.766 -0.704594 1.40972 0
M  V30 1605 C 151.994 -1.49354 1.43182 0
M  V30 1606 C 152.409 -1.88768 0.0345508 0
M  V30 1607 O 151.766 -1.56184 -0.944081 0
M  V30 1608 C 151.817 -2.76187 2.33244 0
M  V30 1609 O 151.538 -2.38436 3.67532 0
M  V30 1610 C 153.039 -3.7 2.44162 0
M  V30 1611 H 150.259 -0.460559 0.487982 0
M  V30 1612 H 152.803 -0.868261 1.85153 0
M  V30 1613 H 150.958 -3.34974 1.94606 0
M  V30 1614 H 151.372 -3.20126 4.15475 0
M  V30 1615 H 152.846 -4.55803 3.11364 0
M  V30 1616 H 153.323 -4.13867 1.47006 0
M  V30 1617 H 153.929 -3.17121 2.83398 0
M  V30 1618 N 152.244 -1.26651 -0.937939 0
M  V30 1619 C 153.192 -1.08308 -2.05845 0
M  V30 1620 C 154.186 -0.0090757 -1.69398 0
M  V30 1621 O 155.392 -0.166007 -1.79233 0
M  V30 1622 H 151.767 -0.333416 -0.674046 0
M  V30 1623 H 153.738 -2.03261 -2.18467 0
M  V30 1624 C 152.487 -0.736229 -3.39816 0
M  V30 1625 H 151.81 -1.55453 -3.6834 0
M  V30 1626 H 153.25 -0.64769 -4.19024 0
M  V30 1627 C 151.709 0.558824 -3.32233 0
M  V30 1628 O 152.239 1.59621 -3.68624 0
M  V30 1629 N 150.445 0.550657 -2.85335 0
M  V30 1630 H 149.992 -0.293943 -2.55917 0
M  V30 1631 H 149.95 1.41726 -2.80644 0
M  V30 1632 N 153.722 1.14298 -1.08507 0
M  V30 1633 C 154.67 2.21483 -0.710483 0
M  V30 1634 C 155.664 1.66998 0.284234 0
M  V30 1635 O 156.87 1.79401 0.146692 0
M  V30 1636 H 153.245 0.721578 -0.211729 0
M  V30 1637 H 155.216 2.50348 -1.62384 0
M  V30 1638 C 153.965 3.4743 -0.137007 0
M  V30 1639 H 153.288 3.89686 -0.893592 0
M  V30 1640 H 154.728 4.2391 0.0872789 0
M  V30 1641 C 153.187 3.17548 1.12538 0
M  V30 1642 O 153.717 3.35437 2.21009 0
M  V30 1643 N 151.923 2.71499 1.03617 0
M  V30 1644 H 151.47 2.57143 0.153403 0
M  V30 1645 H 151.428 2.51881 1.88158 0
M  V30 1646 N 155.201 0.870884 1.31352 0
M  V30 1647 C 156.151 0.298889 2.26032 0
M  V30 1648 C 157.135 -0.564595 1.50669 0
M  V30 1649 O 158.327 -0.411323 1.72154 0
M  V30 1650 C 155.456 -0.497842 3.39671 0
M  V30 1651 C 154.542 0.378937 4.22404 0
M  V30 1652 N 154.933 1.47284 4.83881 0
M  V30 1653 C 153.231 0.171535 4.4567 0
M  V30 1654 C 153.932 2.01359 5.45738 0
M  V30 1655 N 152.908 1.31047 5.27568 0
M  V30 1656 H 156.71 1.13494 2.71102 0
M  V30 1657 H 154.224 0.718745 1.45629 0
M  V30 1658 H 156.221 -0.924155 4.06528 0
M  V30 1659 H 154.881 -1.33149 2.96144 0
M  V30 1660 H 155.892 1.85575 4.8351 0
M  V30 1661 H 152.569 -0.626091 4.12779 0
M  V30 1662 H 153.959 2.93143 6.0458 0
M  V30 1663 N 156.679 -1.44442 0.630414 0
M  V30 1664 C 157.927 -2.01653 0.134351 0
M  V30 1665 C 158.248 -1.49836 -1.24796 0
M  V30 1666 O 157.518 -0.701684 -1.82902 0
M  V30 1667 H 156.098 -0.74554 0.0466769 0
M  V30 1668 H 158.76 -1.76952 0.816955 0
M  V30 1669 H 157.856 -3.11935 0.101498 0
M  V30 1670 N 158.157 -0.370918 -1.53173 0
M  V30 1671 C 159.107 0.489588 -2.22681 0
M  V30 1672 C 160.091 1.04442 -1.22395 0
M  V30 1673 O 161.283 0.973578 -1.47819 0
M  V30 1674 C 158.412 1.626 -3.02351 0
M  V30 1675 C 157.498 1.08379 -4.10018 0
M  V30 1676 N 157.889 0.265004 -5.05105 0
M  V30 1677 C 156.187 1.35809 -4.2482 0
M  V30 1678 C 156.888 -0.0324755 -5.81691 0
M  V30 1679 N 155.864 0.566581 -5.40639 0
M  V30 1680 H 159.666 -0.142729 -2.93553 0
M  V30 1681 H 157.18 -0.179221 -1.61408 0
M  V30 1682 H 159.177 2.2547 -3.50669 0
M  V30 1683 H 157.837 2.26132 -2.33011 0
M  V30 1684 H 158.848 -0.0962352 -5.17811 0
M  V30 1685 H 155.525 1.9958 -3.66707 0
M  V30 1686 H 156.915 -0.69473 -6.68299 0
M  V30 1687 N 159.635 1.57281 -0.100228 0
M  V30 1688 C 160.863 1.98879 0.570509 0
M  V30 1689 C 161.278 0.979476 1.61405 0
M  V30 1690 O 160.635 -0.0302288 1.82475 0
M  V30 1691 C 160.686 3.4052 1.2136 0
M  V30 1692 O 160.407 4.37588 0.211786 0
M  V30 1693 C 161.908 3.97149 1.96945 0
M  V30 1694 H 159.128 0.653428 0.152555 0
M  V30 1695 H 161.672 2.03697 -0.18103 0
M  V30 1696 H 159.827 3.367 1.91603 0
M  V30 1697 H 160.241 5.20118 0.676607 0
M  V30 1698 H 161.715 4.98393 2.37294 0
M  V30 1699 H 162.192 3.3525 2.83733 0
M  V30 1700 H 162.798 4.04458 1.31506 0
M  V30 1701 N 161.113 -0.173488 1.56642 0
M  V30 1702 C 162.076 -1.19859 1.95362 0
M  V30 1703 C 163.076 -1.37296 0.83704 0
M  V30 1704 O 164.266 -1.34739 1.10413 0
M  V30 1705 C 161.398 -2.56405 2.24654 0
M  V30 1706 H 162.591 -0.867062 2.87092 0
M  V30 1707 H 160.144 -0.415853 1.50666 0
M  V30 1708 H 160.879 -2.94576 1.35631 0
M  V30 1709 H 160.664 -2.45115 3.06041 0
M  V30 1710 H 162.154 -3.30287 2.5554 0
M  V30 1711 N 162.591 -1.51276 -0.441967 0
M  V30 1712 C 163.501 -1.75092 -1.56141 0
M  V30 1713 C 164.517 -0.634963 -1.62001 0
M  V30 1714 O 165.693 -0.916686 -1.79329 0
M  V30 1715 C 162.758 -1.86666 -2.92158 0
M  V30 1716 C 161.819 -3.10506 -2.96453 0
M  V30 1717 C 161.052 -3.21519 -4.25982 0
M  V30 1718 O 161.275 -2.38586 -5.18105 0
M  V30 1719 O 160.209 -4.14465 -4.36466 0
M  V30 1720 H 164.035 -2.70044 -1.38961 0
M  V30 1721 H 161.62 -1.35722 -0.624499 0
M  V30 1722 H 163.502 -1.96292 -3.72891 0
M  V30 1723 H 162.177 -0.949014 -3.09476 0
M  V30 1724 H 161.084 -3.06363 -2.14692 0
M  V30 1725 H 162.417 -4.01945 -2.84079 0
M  V30 1726 N 164.069 0.697108 -1.41344 0
M  V30 1727 C 165.001 1.8224 -1.39001 0
M  V30 1728 C 166.014 1.60152 -0.292428 0
M  V30 1729 O 167.203 1.69684 -0.554048 0
M  V30 1730 C 164.303 3.18976 -1.14489 0
M  V30 1731 C 163.476 3.68105 -2.36258 0
M  V30 1732 C 162.535 4.83506 -2.07625 0
M  V30 1733 O 161.561 4.95201 -2.8065 0
M  V30 1734 N 162.763 5.70637 -1.06555 0
M  V30 1735 H 165.528 1.84742 -2.35988 0
M  V30 1736 H 163.089 0.87937 -1.35936 0
M  V30 1737 H 165.081 3.93801 -0.932885 0
M  V30 1738 H 163.651 3.11508 -0.261043 0
M  V30 1739 H 162.871 2.84204 -2.7317 0
M  V30 1740 H 164.159 3.97667 -3.17393 0
M  V30 1741 H 163.557 5.63817 -0.461125 0
M  V30 1742 H 162.114 6.45368 -0.913444 0
M  V30 1743 N 165.547 1.27147 0.931209 0
M  V30 1744 C 166.793 1.13446 1.68101 0
M  V30 1745 C 167.126 -0.319628 1.91552 0
M  V30 1746 O 166.401 -1.23407 1.50336 0
M  V30 1747 C 166.684 1.91482 3.0497 0
M  V30 1748 C 166.537 3.44855 2.88782 0
M  V30 1749 C 167.856 1.71651 4.05246 0
M  V30 1750 H 164.975 0.413498 0.610072 0
M  V30 1751 H 167.617 1.56261 1.08086 0
M  V30 1752 H 165.767 1.55095 3.56199 0
M  V30 1753 H 167.439 3.9105 2.44698 0
M  V30 1754 H 165.682 3.71373 2.24198 0
M  V30 1755 H 166.353 3.94694 3.85902 0
M  V30 1756 H 168.829 2.0337 3.63015 0
M  V30 1757 H 167.705 2.28651 4.99009 0
M  V30 1758 H 167.966 0.663555 4.37092 0
M  V30 1759 N 167.025 -1.13721 1.09112 0
M  V30 1760 C 168.253 -1.88773 0.846899 0
M  V30 1761 C 168.668 -1.7896 -0.601572 0
M  V30 1762 O 168.025 -1.15394 -1.41388 0
M  V30 1763 C 168.076 -3.3849 1.26913 0
M  V30 1764 O 167.797 -3.48043 2.66079 0
M  V30 1765 C 169.298 -4.30518 1.05682 0
M  V30 1766 H 166.518 -0.59772 0.304914 0
M  V30 1767 H 169.062 -1.43977 1.45227 0
M  V30 1768 H 167.217 -3.80881 0.707723 0
M  V30 1769 H 167.631 -4.4109 2.83795 0
M  V30 1770 H 169.105 -5.3391 1.40156 0
M  V30 1771 H 169.582 -4.392 -0.00563416 0
M  V30 1772 H 170.188 -3.93893 1.60402 0
M  V30 1773 N 168.503 -0.877838 -1.30888 0
M  V30 1774 C 169.751 -0.491723 -1.96027 0
M  V30 1775 C 170.072 0.960827 -1.69685 0
M  V30 1776 O 169.342 1.67462 -1.01654 0
M  V30 1777 H 167.922 -0.17885 -0.725273 0
M  V30 1778 H 170.584 -1.11935 -1.59551 0
M  V30 1779 H 169.68 -0.656016 -3.05128 0
M  V30 1780 N 169.982 1.44106 -0.638065 0
M  V30 1781 C 171.23 2.01579 -0.145043 0
M  V30 1782 C 171.551 1.50496 1.24 0
M  V30 1783 O 170.821 0.711374 1.82527 0
M  V30 1784 H 169.401 0.745282 -0.05063 0
M  V30 1785 H 172.063 1.76516 -0.826327 0
M  V30 1786 H 171.159 3.11877 -0.118039 0
M  V30 1787 N 171.46 0.379036 1.52974 0
M  V30 1788 C 172.709 -0.207612 2.00629 0
M  V30 1789 C 173.022 -1.48758 1.27006 0
M  V30 1790 O 174.228 -2.15365 1.65318 0
M  V30 1791 C 172.684 -0.42053 3.57435 0
M  V30 1792 C 172.292 0.845587 4.39948 0
M  V30 1793 C 174.036 -0.964102 4.13407 0
M  V30 1794 C 171.943 0.601513 5.88333 0
M  V30 1795 H 170.873 -0.0813591 0.749598 0
M  V30 1796 H 173.524 0.499853 1.76561 0
M  V30 1797 H 171.906 -1.18959 3.7771 0
M  V30 1798 H 173.08 1.61848 4.31442 0
M  V30 1799 H 171.395 1.31336 3.95145 0
M  V30 1800 H 173.992 -1.16225 5.21916 0
M  V30 1801 H 174.335 -1.93019 3.68849 0
M  V30 1802 H 174.868 -0.25487 3.96983 0
M  V30 1803 H 171.607 1.53831 6.37194 0
M  V30 1804 H 171.127 -0.132628 5.99653 0
M  V30 1805 H 172.806 0.232134 6.46583 0
M  V30 1806 N 172.938 -1.57226 0.108567 0
M  V30 1807 C 173.885 -2.14756 -0.845481 0
M  V30 1808 C 174.855 -1.06971 -1.27068 0
M  V30 1809 O 176.04 -1.34827 -1.35005 0
M  V30 1810 C 173.18 -2.74298 -2.09415 0
M  V30 1811 C 172.293 -3.96358 -1.71826 0
M  V30 1812 C 171.428 -4.44021 -2.9158 0
M  V30 1813 C 170.467 -5.58637 -2.50181 0
M  V30 1814 N 169.604 -6.01091 -3.62814 0
M  V30 1815 H 174.444 -2.95961 -0.348035 0
M  V30 1816 H 171.981 -1.46226 -0.160106 0
M  V30 1817 H 173.939 -3.06945 -2.82561 0
M  V30 1818 H 172.569 -1.95801 -2.56636 0
M  V30 1819 H 171.621 -3.69939 -0.885947 0
M  V30 1820 H 172.933 -4.79504 -1.37394 0
M  V30 1821 H 172.087 -4.78522 -3.72963 0
M  V30 1822 H 170.826 -3.59803 -3.29231 0
M  V30 1823 H 169.831 -5.23751 -1.67228 0
M  V30 1824 H 171.056 -6.44613 -2.13659 0
M  V30 1825 H 169.002 -5.19817 -4.00158 0
M  V30 1826 H 168.919 -6.79066 -3.32273 0
M  V30 1827 H 170.187 -6.40227 -4.44668 0
M  V30 1828 N 174.416 0.165178 -1.56732 0
M  V30 1829 C 175.379 1.18822 -1.95995 0
M  V30 1830 C 176.379 1.3685 -0.84431 0
M  V30 1831 O 177.569 1.34152 -1.11126 0
M  V30 1832 C 174.701 2.5521 -2.26011 0
M  V30 1833 H 175.894 0.851825 -2.87548 0
M  V30 1834 H 173.447 0.407857 -1.50885 0
M  V30 1835 H 174.182 2.93852 -1.37191 0
M  V30 1836 H 173.967 2.43489 -3.07336 0
M  V30 1837 H 175.457 3.28927 -2.57288 0
M  V30 1838 N 175.894 1.51508 0.433938 0
M  V30 1839 C 177.143 1.63578 1.18005 0
M  V30 1840 C 177.456 0.359514 1.92268 0
M  V30 1841 O 178.662 0.359632 2.69108 0
M  V30 1842 C 177.118 2.88901 2.14626 0
M  V30 1843 C 176.726 4.23544 1.45995 0
M  V30 1844 C 178.47 3.10328 2.89649 0
M  V30 1845 C 176.377 5.40014 2.4112 0
M  V30 1846 H 175.307 0.609277 0.444182 0
M  V30 1847 H 177.958 1.77978 0.446773 0
M  V30 1848 H 176.34 2.68142 2.91403 0
M  V30 1849 H 177.514 4.54696 0.747532 0
M  V30 1850 H 175.829 4.08021 0.831115 0
M  V30 1851 H 178.426 3.94518 3.60915 0
M  V30 1852 H 178.769 2.23544 3.51189 0
M  V30 1853 H 179.302 3.31443 2.19978 0
M  V30 1854 H 176.041 6.29068 1.84264 0
M  V30 1855 H 175.561 5.13233 3.10406 0
M  V30 1856 H 177.24 5.72099 3.02177 0
M  V30 1857 N 177.372 -0.689602 1.41712 0
M  V30 1858 C 178.618 -1.45181 1.41599 0
M  V30 1859 C 178.951 -1.94181 0.0270081 0
M  V30 1860 O 178.226 -1.6993 -0.946265 0
M  V30 1861 C 178.509 -2.65945 2.42787 0
M  V30 1862 C 178.362 -2.22672 3.90816 0
M  V30 1863 C 179.681 -3.68149 2.41151 0
M  V30 1864 H 176.8 -0.526576 0.515642 0
M  V30 1865 H 179.442 -0.784947 1.73028 0
M  V30 1866 H 177.592 -3.2284 2.16116 0
M  V30 1867 H 179.264 -1.71058 4.28412 0
M  V30 1868 H 177.507 -1.54394 4.05395 0
M  V30 1869 H 178.178 -3.0935 4.57172 0
M  V30 1870 H 180.654 -3.2094 2.64834 0
M  V30 1871 H 179.53 -4.50248 3.13955 0
M  V30 1872 H 179.791 -4.18259 1.43221 0
M  V30 1873 N 178.85 -1.27639 -0.924453 0
M  V30 1874 C 179.782 -1.06442 -2.02985 0
M  V30 1875 C 180.795 -0.0194771 -1.62788 0
M  V30 1876 O 181.984 -0.261388 -1.76576 0
M  V30 1877 C 179.084 -0.59327 -3.33667 0
M  V30 1878 C 178.257 -1.71123 -4.02537 0
M  V30 1879 C 177.316 -1.23527 -5.11495 0
M  V30 1880 O 176.342 -1.93553 -5.35281 0
M  V30 1881 N 177.544 -0.0926678 -5.80426 0
M  V30 1882 H 180.309 -2.01633 -2.2173 0
M  V30 1883 H 177.87 -1.19248 -1.09505 0
M  V30 1884 H 179.862 -0.258686 -4.03872 0
M  V30 1885 H 178.432 0.265502 -3.1147 0
M  V30 1886 H 177.652 -2.21593 -3.26022 0
M  V30 1887 H 178.94 -2.46145 -4.45298 0
M  V30 1888 H 178.338 0.491741 -5.63559 0
M  V30 1889 H 176.895 0.182714 -6.51544 0
M  V30 1890 N 180.328 1.1314 -1.09713 0
M  V30 1891 C 181.258 2.20748 -0.761102 0
M  V30 1892 C 182.239 1.68061 0.262566 0
M  V30 1893 O 183.424 1.93765 0.129977 0
M  V30 1894 C 180.554 3.46812 -0.184054 0
M  V30 1895 C 179.508 4.12606 -1.13757 0
M  V30 1896 C 178.834 5.33031 -0.422083 0
M  V30 1897 C 180.134 4.59603 -2.48118 0
M  V30 1898 H 181.828 2.49113 -1.66082 0
M  V30 1899 H 179.374 1.19734 -0.799987 0
M  V30 1900 H 181.327 4.21353 0.0631215 0
M  V30 1901 H 180.051 3.17851 0.750868 0
M  V30 1902 H 178.71 3.40036 -1.37007 0
M  V30 1903 H 178.358 5.00335 0.517072 0
M  V30 1904 H 178.058 5.77999 -1.05788 0
M  V30 1905 H 179.582 6.10325 -0.183277 0
M  V30 1906 H 180.996 5.25552 -2.29059 0
M  V30 1907 H 179.393 5.15321 -3.07514 0
M  V30 1908 H 180.463 3.73971 -3.08665 0
M  V30 1909 N 181.806 0.884767 1.30421 0
M  V30 1910 C 183.052 0.503851 1.96441 0
M  V30 1911 C 183.385 -0.944518 1.69684 0
M  V30 1912 O 182.66 -1.66737 1.00145 0
M  V30 1913 C 182.943 0.779085 3.51571 0
M  V30 1914 C 182.796 2.27807 3.87846 0
M  V30 1915 C 184.115 0.255452 4.39358 0
M  V30 1916 H 181.234 0.184533 0.713524 0
M  V30 1917 H 183.876 1.10872 1.54297 0
M  V30 1918 H 182.026 0.264274 3.876 0
M  V30 1919 H 183.698 2.86127 3.61841 0
M  V30 1920 H 181.941 2.74479 3.35922 0
M  V30 1921 H 182.612 2.42125 4.96064 0
M  V30 1922 H 185.088 0.696079 4.10236 0
M  V30 1923 H 183.964 0.477361 5.4682 0
M  V30 1924 H 184.225 -0.843293 4.33983 0
M  V30 1925 N 183.284 -1.43765 0.645699 0
M  V30 1926 C 184.232 -2.32516 -0.0624849 0
M  V30 1927 C 185.226 -1.48183 -0.820855 0
M  V30 1928 O 186.432 -1.64439 -0.732106 0
M  V30 1929 H 182.807 -0.750989 -0.0389864 0
M  V30 1930 H 184.778 -2.89979 0.703892 0
M  V30 1931 C 183.527 -3.32389 -1.02044 0
M  V30 1932 H 182.85 -3.97301 -0.446312 0
M  V30 1933 H 184.29 -3.97138 -1.48517 0
M  V30 1934 C 182.749 -2.62416 -2.11281 0
M  V30 1935 O 183.279 -2.434 -3.19561 0
M  V30 1936 N 181.485 -2.21913 -1.87624 0
M  V30 1937 H 181.032 -2.37578 -0.995703 0
M  V30 1938 H 180.99 -1.75424 -2.6091 0
M  V30 1939 N 184.763 -0.387143 -1.52771 0
M  V30 1940 C 185.673 0.456442 -2.30117 0
M  V30 1941 C 186.689 1.07342 -1.36944 0
M  V30 1942 O 187.865 1.07971 -1.70013 0
M  V30 1943 C 184.93 1.56957 -3.09136 0
M  V30 1944 C 183.991 0.977916 -4.18014 0
M  V30 1945 C 183.224 2.038 -4.93256 0
M  V30 1946 O 183.447 3.25271 -4.68567 0
M  V30 1947 O 182.381 1.6565 -5.78657 0
M  V30 1948 H 186.207 -0.17359 -3.03203 0
M  V30 1949 H 183.792 -0.150919 -1.48636 0
M  V30 1950 H 185.674 2.21628 -3.58412 0
M  V30 1951 H 184.349 2.18461 -2.38865 0
M  V30 1952 H 183.256 0.294525 -3.72939 0
M  V30 1953 H 184.589 0.407128 -4.90513 0
M  V30 1954 N 186.241 1.57166 -0.116904 0
M  V30 1955 C 187.657 1.5779 0.239693 0
M  V30 1956 C 187.857 1.1295 1.66867 0
M  V30 1957 O 186.913 0.81592 2.38954 0
M  V30 1958 C 188.226 3.00699 0.00828202 0
M  V30 1959 C 189.774 3.12912 0.0743438 0
M  V30 1960 C 190.249 4.57817 -0.129348 0
M  V30 1961 N 191.74 4.63139 -0.075247 0
M  V30 1962 C 192.475 5.73023 -0.207788 0
M  V30 1963 N 191.971 6.91665 -0.396382 0
M  V30 1964 N 193.764 5.61906 -0.14751 0
M  V30 1965 H 185.915 1.84615 -1.05029 0
M  V30 1966 H 188.178 0.85311 -0.41341 0
M  V30 1967 H 187.884 3.37784 -0.979531 0
M  V30 1968 H 187.758 3.69848 0.741077 0
M  V30 1969 H 190.145 2.75686 1.05268 0
M  V30 1970 H 190.226 2.4631 -0.690297 0
M  V30 1971 H 189.87 4.95742 -1.10465 0
M  V30 1972 H 189.8 5.22507 0.655253 0
M  V30 1973 H 192.291 3.7784 0.0670898 0
M  V30 1974 H 192.604 7.71255 -0.488437 0
M  V30 1975 H 190.949 6.93654 -0.432329 0
M  V30 1976 H 194.14 4.681 -0.00115036 0
M  V30 1977 H 194.313 6.47501 -0.254247 0
M  V30 1978 N 187.719 -0.156864 1.56817 0
M  V30 1979 C 188.651 -1.21883 1.94106 0
M  V30 1980 C 189.664 -1.3971 0.835754 0
M  V30 1981 O 190.853 -1.39457 1.11418 0
M  V30 1982 C 187.953 -2.58527 2.19127 0
M  V30 1983 C 187.126 -2.61809 3.50393 0
M  V30 1984 C 186.185 -3.7992 3.64071 0
M  V30 1985 O 185.211 -3.65249 4.36557 0
M  V30 1986 N 186.413 -4.96973 2.99997 0
M  V30 1987 H 189.178 -0.901974 2.85805 0
M  V30 1988 H 186.739 -0.346513 1.58148 0
M  V30 1989 H 188.731 -3.36034 2.25529 0
M  V30 1990 H 187.301 -2.82545 1.33742 0
M  V30 1991 H 186.521 -1.7029 3.5552 0
M  V30 1992 H 187.809 -2.61024 4.36742 0
M  V30 1993 H 187.207 -5.11794 2.41004 0
M  V30 1994 H 185.764 -5.7229 3.11974 0
M  V30 1995 N 189.197 -1.51736 -0.425897 0
M  V30 1996 C 190.608 -1.5732 -1.00536 0
M  V30 1997 C 190.959 -0.403537 -1.92005 0
M  V30 1998 O 190.084 0.478256 -2.11049 0
M  V30 1999 C 190.679 -2.85119 -1.8301 0
M  V30 2000 C 189.238 -2.93236 -2.35987 0
M  V30 2001 C 188.385 -2.52098 -1.15508 0
M  V30 2002 H 191.336 -1.57348 -0.206739 0
M  V30 2003 H 191.357 -2.69526 -2.68581 0
M  V30 2004 H 190.869 -3.7023 -1.16411 0
M  V30 2005 H 188.97 -2.12581 -3.06007 0
M  V30 2006 H 189.083 -3.9713 -2.68001 0
M  V30 2007 H 187.447 -2.05558 -1.50393 0
M  V30 2008 H 188.23 -3.39565 -0.505014 0
M  V30 2009 N 190.675 0.682077 -1.42076 0
M  V30 2010 C 191.607 1.80755 -1.40926 0
M  V30 2011 C 192.62 1.59833 -0.309398 0
M  V30 2012 O 193.809 1.69087 -0.572014 0
M  V30 2013 C 190.909 3.17744 -1.17865 0
M  V30 2014 C 190.082 3.65578 -2.40149 0
M  V30 2015 C 189.141 4.81277 -2.12742 0
M  V30 2016 O 188.167 4.92197 -2.85887 0
M  V30 2017 N 189.369 5.69474 -1.12602 0
M  V30 2018 H 192.134 1.82229 -2.37935 0
M  V30 2019 H 189.695 0.864903 -1.36861 0
M  V30 2020 H 191.687 3.9279 -0.9746 0
M  V30 2021 H 190.257 3.11214 -0.294068 0
M  V30 2022 H 189.477 2.81291 -2.76169 0
M  V30 2023 H 190.765 3.94278 -3.21593 0
M  V30 2024 H 190.163 5.63297 -0.520899 0
M  V30 2025 H 188.72 6.44363 -0.981842 0
M  V30 2026 N 192.153 1.28127 0.917671 0
M  V30 2027 C 193.116 1.11744 2.00115 0
M  V30 2028 C 194.116 0.0583052 1.60694 0
M  V30 2029 O 195.306 0.303755 1.71531 0
M  V30 2030 C 192.438 0.704862 3.33533 0
M  V30 2031 H 193.631 2.07966 2.16079 0
M  V30 2032 H 191.184 1.11058 1.09981 0
M  V30 2033 H 191.919 -0.258299 3.2327 0
M  V30 2034 H 191.704 1.4699 3.63505 0
M  V30 2035 H 193.194 0.612768 4.1308 0
M  V30 2036 N 193.631 -1.12557 1.10312 0
M  V30 2037 C 195.047 -1.36036 0.834649 0
M  V30 2038 C 195.247 -1.93946 -0.546539 0
M  V30 2039 O 194.303 -2.16484 -1.29966 0
M  V30 2040 C 195.616 -2.30312 1.9333 0
M  V30 2041 C 197.164 -2.43906 1.9616 0
M  V30 2042 C 197.639 -3.41496 3.05195 0
M  V30 2043 N 199.13 -3.49053 3.04494 0
M  V30 2044 C 199.865 -4.24471 3.85502 0
M  V30 2045 N 199.361 -5.02966 4.76442 0
M  V30 2046 N 201.154 -4.19864 3.73725 0
M  V30 2047 H 193.305 -0.733246 1.99342 0
M  V30 2048 H 195.568 -0.385234 0.866198 0
M  V30 2049 H 195.274 -1.94933 2.92735 0
M  V30 2050 H 195.148 -3.30421 1.81939 0
M  V30 2051 H 197.535 -2.78567 0.973886 0
M  V30 2052 H 197.616 -1.4369 2.11629 0
M  V30 2053 H 197.26 -3.07565 4.04186 0
M  V30 2054 H 197.19 -4.41539 2.86968 0
M  V30 2055 H 199.681 -2.93053 2.38596 0
M  V30 2056 H 199.994 -5.57846 5.34815 0
M  V30 2057 H 198.339 -5.02167 4.80472 0
M  V30 2058 H 201.53 -3.57623 3.02032 0
M  V30 2059 H 201.703 -4.78386 4.37093 0
M  V30 2060 N 195.109 -0.891671 -1.2995 0
M  V30 2061 C 196.355 -0.514261 -1.96171 0
M  V30 2062 C 196.688 0.935506 -1.70182 0
M  V30 2063 O 195.963 1.66204 -1.01028 0
M  V30 2064 C 196.246 -0.797719 -3.51153 0
M  V30 2065 C 196.099 -2.2986 -3.86632 0
M  V30 2066 C 197.418 -0.278749 -4.39216 0
M  V30 2067 H 194.537 -0.188314 -0.712535 0
M  V30 2068 H 197.179 -1.11689 -1.53706 0
M  V30 2069 H 195.329 -0.284826 -3.87455 0
M  V30 2070 H 197.001 -2.88042 -3.60319 0
M  V30 2071 H 195.244 -2.76257 -3.34462 0
M  V30 2072 H 195.915 -2.44753 -4.94773 0
M  V30 2073 H 198.391 -0.717825 -4.09862 0
M  V30 2074 H 197.267 -0.506353 -5.46559 0
M  V30 2075 H 197.528 0.820266 -4.34424 0
M  V30 2076 N 196.587 1.43421 -0.653314 0
M  V30 2077 C 197.833 2.02111 -0.166992 0
M  V30 2078 C 198.166 1.51423 1.21592 0
M  V30 2079 O 197.441 0.707389 1.8118 0
M  V30 2080 C 197.724 3.5966 -0.177948 0
M  V30 2081 C 197.577 4.20579 -1.59478 0
M  V30 2082 C 198.896 4.37413 0.4856 0
M  V30 2083 H 196.015 0.734374 -0.0621557 0
M  V30 2084 H 198.657 1.70717 -0.834016 0
M  V30 2085 H 196.807 3.86537 0.390032 0
M  V30 2086 H 198.479 4.04732 -2.21336 0
M  V30 2087 H 196.722 3.77226 -2.14204 0
M  V30 2088 H 197.393 5.29665 -1.5543 0
M  V30 2089 H 199.869 4.161 0.00234528 0
M  V30 2090 H 198.745 5.47075 0.447207 0
M  V30 2091 H 199.006 4.13672 1.55974 0
M  V30 2092 N 198.065 0.39524 1.52563 0
M  V30 2093 C 199.311 -0.185318 2.01952 0
M  V30 2094 C 199.644 -1.45964 1.28095 0
M  V30 2095 O 198.919 -1.90689 0.38315 0
M  V30 2096 C 199.202 -0.447193 3.57312 0
M  V30 2097 C 199.055 0.842828 4.41833 0
M  V30 2098 C 200.374 -1.23529 4.22408 0
M  V30 2099 H 197.493 -0.0658788 0.73405 0
M  V30 2100 H 200.135 0.525975 1.82575 0
M  V30 2101 H 198.285 -1.05312 3.73954 0
M  V30 2102 H 199.957 1.4795 4.36931 0
M  V30 2103 H 198.2 1.45686 4.08605 0
M  V30 2104 H 198.871 0.614165 5.48573 0
M  V30 2105 H 201.347 -0.722445 4.0978 0
M  V30 2106 H 200.223 -1.38727 5.3108 0
M  V30 2107 H 200.484 -2.25213 3.80436 0
M  V30 2108 N 199.544 -1.57102 0.125237 0
M  V30 2109 C 200.474 -2.18659 -0.819174 0
M  V30 2110 C 201.455 -1.12843 -1.27281 0
M  V30 2111 O 202.64 -1.41104 -1.33429 0
M  V30 2112 C 199.77 -2.79096 -2.06695 0
M  V30 2113 C 198.724 -3.90548 -1.75088 0
M  V30 2114 C 198.05 -4.37821 -3.06948 0
M  V30 2115 C 199.35 -5.12356 -1.01435 0
M  V30 2116 H 201.044 -2.9783 -0.306202 0
M  V30 2117 H 198.59 -1.4326 -0.145839 0
M  V30 2118 H 200.543 -3.2082 -2.73226 0
M  V30 2119 H 199.267 -1.97223 -2.60328 0
M  V30 2120 H 197.926 -3.49409 -1.10944 0
M  V30 2121 H 197.574 -3.52799 -3.58527 0
M  V30 2122 H 197.274 -5.12982 -2.86571 0
M  V30 2123 H 198.798 -4.822 -3.74587 0
M  V30 2124 H 200.212 -5.5106 -1.58132 0
M  V30 2125 H 198.609 -5.9314 -0.911319 0
M  V30 2126 H 199.679 -4.849 -0.00218681 0
M  V30 2127 N 201.022 0.148545 -1.56898 0
M  V30 2128 C 202.27 0.859717 -1.82902 0
M  V30 2129 C 202.591 1.81775 -0.70588 0
M  V30 2130 O 201.861 1.93994 0.272586 0
M  V30 2131 H 200.441 0.320469 -0.674766 0
M  V30 2132 H 203.103 0.142918 -1.94375 0
M  V30 2133 H 202.199 1.4229 -2.77777 0
M  V30 2134 N 202.5 1.5196 0.417844 0
M  V30 2135 C 203.43 1.77634 1.51554 0
M  V30 2136 C 204.411 0.626918 1.58126 0
M  V30 2137 O 205.596 0.871632 1.7354 0
M  V30 2138 C 202.726 1.91911 2.8946 0
M  V30 2139 C 201.68 3.07463 2.97743 0
M  V30 2140 C 201.006 3.06951 4.37819 0
M  V30 2141 C 202.306 4.47082 2.70027 0
M  V30 2142 H 204 2.6955 1.3032 0
M  V30 2143 H 201.546 1.29706 0.625492 0
M  V30 2144 H 203.499 2.08455 3.6623 0
M  V30 2145 H 202.223 0.966598 3.11969 0
M  V30 2146 H 200.882 2.90656 2.23416 0
M  V30 2147 H 200.53 2.09438 4.57323 0
M  V30 2148 H 200.23 3.84556 4.44286 0
M  V30 2149 H 201.754 3.25613 5.16535 0
M  V30 2150 H 203.168 4.6414 3.36522 0
M  V30 2151 H 201.565 5.2654 2.87881 0
M  V30 2152 H 202.635 4.55777 1.65514 0
M  V30 2153 N 203.978 -0.674533 1.42435 0
M  V30 2154 C 204.908 -1.80009 1.48724 0
M  V30 2155 C 205.889 -1.6659 0.343793 0
M  V30 2156 O 207.074 -1.86007 0.558137 0
M  V30 2157 C 204.204 -3.18306 1.38919 0
M  V30 2158 C 203.158 -3.46461 2.51294 0
M  V30 2159 C 202.484 -4.84335 2.26547 0
M  V30 2160 C 203.784 -3.43328 3.93603 0
M  V30 2161 H 205.478 -1.75004 2.42928 0
M  V30 2162 H 203.024 -0.840533 1.16923 0
M  V30 2163 H 204.977 -3.9678 1.41927 0
M  V30 2164 H 203.701 -3.2399 0.412094 0
M  V30 2165 H 202.36 -2.70348 2.47604 0
M  V30 2166 H 202.008 -4.86669 1.2713 0
M  V30 2167 H 201.708 -5.04136 3.01861 0
M  V30 2168 H 203.232 -5.65094 2.31304 0
M  V30 2169 H 204.646 -4.11772 3.98894 0
M  V30 2170 H 203.043 -3.74664 4.68771 0
M  V30 2171 H 204.113 -2.41897 4.20255 0
M  V30 2172 N 205.456 -1.28612 -0.910864 0
M  V30 2173 C 206.867 -1.14406 -1.47541 0
M  V30 2174 C 207.218 0.264901 -1.94403 0
M  V30 2175 O 206.343 1.15942 -1.82719 0
M  V30 2176 C 206.938 -2.07073 -2.68153 0
M  V30 2177 C 205.497 -1.96923 -3.20778 0
M  V30 2178 C 204.644 -1.98646 -1.93481 0
M  V30 2179 H 207.595 -1.41259 -0.723291 0
M  V30 2180 H 207.616 -1.63642 -3.43514 0
M  V30 2181 H 207.128 -3.09611 -2.34015 0
M  V30 2182 H 205.229 -0.97433 -3.59635 0
M  V30 2183 H 205.342 -2.84026 -3.85832 0
M  V30 2184 H 203.706 -1.43093 -2.10705 0
M  V30 2185 H 204.489 -3.02868 -1.61634 0
M  V30 2186 N 206.934 1.1197 -1.10907 0
M  V30 2187 C 208.35 1.35591 -0.841852 0
M  V30 2188 C 208.55 1.94233 0.536246 0
M  V30 2189 O 207.606 2.1717 1.28816 0
M  V30 2190 C 208.919 2.29284 -1.94549 0
M  V30 2191 C 210.467 2.42862 -1.97451 0
M  V30 2192 C 210.942 3.39873 -3.07002 0
M  V30 2193 N 212.433 3.47433 -3.06341 0
M  V30 2194 C 213.168 4.22421 -3.87748 0
M  V30 2195 N 212.664 5.00432 -4.79103 0
M  V30 2196 N 214.457 4.17876 -3.75946 0
M  V30 2197 H 206.608 0.722664 -1.99728 0
M  V30 2198 H 208.871 0.380635 -0.868229 0
M  V30 2199 H 208.577 1.93378 -2.93765 0
M  V30 2200 H 208.451 3.29452 -1.83688 0
M  V30 2201 H 210.838 2.78046 -0.988645 0
M  V30 2202 H 210.919 1.42566 -2.12388 0
M  V30 2203 H 210.563 3.05417 -4.05811 0
M  V30 2204 H 210.493 4.40011 -2.89306 0
M  V30 2205 H 212.984 2.91784 -2.40147 0
M  V30 2206 H 213.297 5.55002 -5.37766 0
M  V30 2207 H 211.642 4.99612 -4.83128 0
M  V30 2208 H 214.833 3.56016 -3.03924 0
M  V30 2209 H 215.006 4.76061 -4.39624 0
M  V30 2210 N 208.412 0.89855 1.29475 0
M  V30 2211 C 209.66 0.522847 1.9522 0
M  V30 2212 C 209.981 -0.93371 1.71192 0
M  V30 2213 O 209.251 -1.65823 1.04305 0
M  V30 2214 H 207.831 0.190366 0.722336 0
M  V30 2215 H 210.493 1.14459 1.5775 0
M  V30 2216 H 209.589 0.704476 3.04045 0
M  V30 2217 N 209.89 -1.43072 0.660911 0
M  V30 2218 C 210.822 -2.29108 -0.0647641 0
M  V30 2219 C 211.835 -1.42928 -0.779448 0
M  V30 2220 O 213.024 -1.66788 -0.635921 0
M  V30 2221 C 210.124 -3.20032 -1.11503 0
M  V30 2222 C 209.297 -4.34792 -0.476955 0
M  V30 2223 C 208.356 -5.06534 -1.42513 0
M  V30 2224 O 207.382 -5.61538 -0.930771 0
M  V30 2225 N 208.584 -5.1075 -2.75889 0
M  V30 2226 H 211.349 -2.92029 0.673731 0
M  V30 2227 H 208.91 -1.53846 0.50427 0
M  V30 2228 H 210.902 -3.64892 -1.75032 0
M  V30 2229 H 209.472 -2.58658 -1.75541 0
M  V30 2230 H 208.692 -3.92752 0.337572 0
M  V30 2231 H 209.98 -5.0879 -0.0318525 0
M  V30 2232 H 209.378 -4.67447 -3.18606 0
M  V30 2233 H 207.935 -5.59302 -3.347 0
M  V30 2234 N 211.368 -0.403325 -1.52352 0
M  V30 2235 C 212.318 0.442244 -2.2367 0
M  V30 2236 C 213.302 1.01823 -1.24583 0
M  V30 2237 O 214.494 0.942005 -1.49851 0
M  V30 2238 C 211.623 1.5615 -3.05732 0
M  V30 2239 C 210.709 0.996575 -4.12225 0
M  V30 2240 N 211.1 0.157804 -5.05554 0
M  V30 2241 C 209.398 1.26767 -4.27605 0
M  V30 2242 C 210.099 -0.155853 -5.81491 0
M  V30 2243 N 209.075 0.451775 -5.41719 0
M  V30 2244 H 212.877 -0.204964 -2.93184 0
M  V30 2245 H 210.391 -0.213418 -1.60992 0
M  V30 2246 H 212.388 2.17981 -3.55373 0
M  V30 2247 H 211.048 2.21139 -2.37755 0
M  V30 2248 H 212.059 -0.206049 -5.1749 0
M  V30 2249 H 208.736 1.91757 -3.70858 0
M  V30 2250 H 210.126 -0.836329 -6.66675 0
M  V30 2251 N 212.846 1.57033 -0.133567 0
M  V30 2252 C 214.257 1.82593 0.389464 0
M  V30 2253 C 214.608 1.05156 1.6564 0
M  V30 2254 O 213.733 0.292644 2.14412 0
M  V30 2255 C 214.328 3.31204 0.713377 0
M  V30 2256 C 212.887 3.57393 1.18098 0
M  V30 2257 C 212.034 2.76598 0.197126 0
M  V30 2258 H 214.985 1.54598 -0.358481 0
M  V30 2259 H 215.006 3.46627 1.56939 0
M  V30 2260 H 214.518 3.87537 -0.2089 0
M  V30 2261 H 212.619 3.06433 2.11966 0
M  V30 2262 H 212.732 4.65915 1.11624 0
M  V30 2263 H 211.096 2.45257 0.687088 0
M  V30 2264 H 211.879 3.35697 -0.718504 0
M  V30 2265 N 214.325 -0.140222 1.56975 0
M  V30 2266 C 215.273 -1.19207 1.99731 0
M  V30 2267 C 216.267 -1.44089 0.890777 0
M  V30 2268 O 217.473 -1.44301 1.07597 0
M  V30 2269 H 213.848 -0.40142 0.635898 0
M  V30 2270 H 215.819 -0.804813 2.87342 0
M  V30 2271 C 214.568 -2.51617 2.39967 0
M  V30 2272 H 213.891 -2.33303 3.24669 0
M  V30 2273 H 215.331 -3.23827 2.73701 0
M  V30 2274 C 213.79 -3.12654 1.25496 0
M  V30 2275 O 214.32 -3.97786 0.559371 0
M  V30 2276 N 212.526 -2.72206 1.01746 0
M  V30 2277 H 212.073 -2.03074 1.58489 0
M  V30 2278 H 212.031 -3.13377 0.253461 0
M  V30 2279 N 215.803 -1.52179 -0.40978 0
M  V30 2280 C 217.214 -1.58377 -0.988615 0
M  V30 2281 C 217.565 -0.423879 -1.91566 0
M  V30 2282 O 216.69 0.455844 -2.11544 0
M  V30 2283 C 217.285 -2.87044 -1.79976 0
M  V30 2284 C 215.844 -2.95722 -2.32863 0
M  V30 2285 C 214.991 -2.53309 -1.12828 0
M  V30 2286 H 217.942 -1.57558 -0.190039 0
M  V30 2287 H 217.963 -2.7236 -2.65707 0
M  V30 2288 H 217.475 -3.71444 -1.12478 0
M  V30 2289 H 215.576 -2.15814 -3.03735 0
M  V30 2290 H 215.689 -3.99951 -2.63773 0
M  V30 2291 H 214.053 -2.07142 -1.48204 0
M  V30 2292 H 214.836 -3.40082 -0.46897 0
M  V30 2293 N 217.281 0.66697 -1.42791 0
M  V30 2294 C 218.211 1.79218 -1.49677 0
M  V30 2295 C 219.192 1.66405 -0.352623 0
M  V30 2296 O 220.377 1.85708 -0.567993 0
M  V30 2297 C 217.507 3.17565 -1.40605 0
M  V30 2298 C 216.461 3.45124 -2.53127 0
M  V30 2299 C 215.787 4.83127 -2.29112 0
M  V30 2300 C 217.087 3.41236 -3.95418 0
M  V30 2301 H 218.781 1.73713 -2.43853 0
M  V30 2302 H 216.327 0.83432 -1.17367 0
M  V30 2303 H 218.28 3.96022 -1.44029 0
M  V30 2304 H 217.004 3.23767 -0.429271 0
M  V30 2305 H 215.663 2.69031 -2.49034 0
M  V30 2306 H 215.311 4.85988 -1.29709 0
M  V30 2307 H 215.011 5.02528 -3.04531 0
M  V30 2308 H 216.535 5.63859 -2.34297 0
M  V30 2309 H 217.949 4.09651 -4.01073 0
M  V30 2310 H 216.346 3.72173 -4.70752 0
M  V30 2311 H 217.416 2.39665 -4.21532 0
M  V30 2312 N 218.759 1.29093 0.90403 0
M  V30 2313 C 220.175 1.07011 1.1841 0
M  V30 2314 C 220.375 -0.181358 2.00682 0
M  V30 2315 O 219.431 -0.880331 2.36657 0
M  V30 2316 C 220.744 2.32311 1.90924 0
M  V30 2317 C 222.292 2.37587 2.03768 0
M  V30 2318 C 222.767 3.62679 2.79693 0
M  V30 2319 N 224.258 3.63376 2.87249 0
M  V30 2320 C 224.993 4.56848 3.46522 0
M  V30 2321 N 224.489 5.60648 4.06996 0
M  V30 2322 N 226.282 4.44426 3.44154 0
M  V30 2323 H 218.433 2.09412 0.354993 0
M  V30 2324 H 220.696 0.922181 0.219742 0
M  V30 2325 H 220.402 3.23536 1.37905 0
M  V30 2326 H 220.276 2.39483 2.91424 0
M  V30 2327 H 222.663 1.46853 2.55965 0
M  V30 2328 H 222.744 2.34403 1.02415 0
M  V30 2329 H 222.388 4.53762 2.28173 0
M  V30 2330 H 222.318 3.63119 3.81381 0
M  V30 2331 H 224.809 2.88321 2.44293 0
M  V30 2332 H 225.122 6.28101 4.50232 0
M  V30 2333 H 223.467 5.64463 4.05471 0
M  V30 2334 H 226.658 3.62529 2.96126 0
M  V30 2335 H 226.831 5.17457 3.90054 0
M  V30 2336 N 220.237 -1.11381 1.11499 0
M  V30 2337 C 221.147 -2.21019 0.786628 0
M  V30 2338 C 222.163 -1.72597 -0.220507 0
M  V30 2339 O 223.339 -2.01321 -0.0565251 0
M  V30 2340 C 220.404 -3.459 0.235333 0
M  V30 2341 C 219.465 -4.09107 1.30115 0
M  V30 2342 C 218.698 -5.28027 0.776068 0
M  V30 2343 O 218.921 -5.6904 -0.393661 0
M  V30 2344 O 217.855 -5.81835 1.54114 0
M  V30 2345 H 221.681 -2.51521 1.70209 0
M  V30 2346 H 219.266 -1.19928 0.890928 0
M  V30 2347 H 221.148 -4.21346 -0.067715 0
M  V30 2348 H 219.823 -3.17049 -0.652828 0
M  V30 2349 H 218.73 -3.35391 1.65722 0
M  V30 2350 H 220.063 -4.42139 2.16273 0
M  V30 2351 N 221.715 -0.905404 -1.28997 0
M  V30 2352 C 222.662 -0.385892 -2.27551 0
M  V30 2353 C 223.632 0.535113 -1.57244 0
M  V30 2354 O 224.817 0.459119 -1.85194 0
M  V30 2355 C 221.957 0.375461 -3.43051 0
M  V30 2356 C 221.07 -0.577092 -4.28128 0
M  V30 2357 C 220.205 0.201879 -5.30816 0
M  V30 2358 C 219.244 -0.744829 -6.07551 0
M  V30 2359 N 218.381 9.42587e-05 -7.021 0
M  V30 2360 H 223.221 -1.23139 -2.71368 0
M  V30 2361 H 220.758 -0.618542 -1.33463 0
M  V30 2362 H 222.716 0.832992 -4.088 0
M  V30 2363 H 221.346 1.18537 -3.00248 0
M  V30 2364 H 220.398 -1.15315 -3.62501 0
M  V30 2365 H 221.71 -1.30152 -4.8152 0
M  V30 2366 H 220.864 0.720351 -6.02408 0
M  V30 2367 H 219.603 0.959413 -4.7817 0
M  V30 2368 H 218.608 -1.27475 -5.34818 0
M  V30 2369 H 219.833 -1.50178 -6.62286 0
M  V30 2370 H 217.779 0.739791 -6.51815 0
M  V30 2371 H 217.696 -0.664321 -7.53076 0
M  V30 2372 H 218.964 0.498644 -7.77903 0
M  V30 2373 N 223.193 1.4272 -0.668489 0
M  V30 2374 C 224.141 2.32586 0.0254857 0
M  V30 2375 C 225.135 1.49471 0.797176 0
M  V30 2376 O 226.341 1.65583 0.705853 0
M  V30 2377 H 222.716 0.751514 0.0270339 0
M  V30 2378 H 224.687 2.88823 -0.749936 0
M  V30 2379 C 223.436 3.3397 0.967427 0
M  V30 2380 H 222.759 3.97961 0.383048 0
M  V30 2381 H 224.199 3.9945 1.42181 0
M  V30 2382 C 222.658 2.65744 2.0708 0
M  V30 2383 O 223.188 2.48454 3.15648 0
M  V30 2384 N 221.394 2.2487 1.8407 0
M  V30 2385 H 220.941 2.39132 0.95778 0
M  V30 2386 H 220.899 1.79552 2.58086 0
M  V30 2387 N 224.671 0.411399 1.52136 0
M  V30 2388 C 226.087 0.0623865 1.59478 0
M  V30 2389 C 226.287 -1.42554 1.4241 0
M  V30 2390 O 225.343 -2.19263 1.2522 0
M  V30 2391 C 226.656 0.559331 2.95452 0
M  V30 2392 C 228.204 0.517503 3.08692 0
M  V30 2393 C 228.679 0.990994 4.4715 0
M  V30 2394 N 230.17 0.947908 4.53397 0
M  V30 2395 C 230.905 1.28544 5.58806 0
M  V30 2396 N 230.401 1.69454 6.71757 0
M  V30 2397 N 232.194 1.20526 5.49026 0
M  V30 2398 H 224.345 1.37982 1.61477 0
M  V30 2399 H 226.608 0.566977 0.759764 0
M  V30 2400 H 226.314 1.59938 3.1323 0
M  V30 2401 H 226.188 -0.0298014 3.77188 0
M  V30 2402 H 228.575 -0.513505 2.90598 0
M  V30 2403 H 228.656 1.14272 2.28857 0
M  V30 2404 H 228.3 2.02034 4.65988 0
M  V30 2405 H 228.23 0.34257 5.25485 0
M  V30 2406 H 230.721 0.647157 3.72317 0
M  V30 2407 H 231.034 1.93513 7.48179 0
M  V30 2408 H 229.379 1.73359 6.73032 0
M  V30 2409 H 232.57 0.884505 4.59667 0
M  V30 2410 H 232.743 1.47161 6.31069 0
M  V30 2411 N 226.149 -1.5696 0.141893 0
M  V30 2412 C 227.081 -2.13619 -0.830627 0
M  V30 2413 C 228.094 -1.08439 -1.21428 0
M  V30 2414 O 229.283 -1.35734 -1.15925 0
M  V30 2415 C 226.383 -2.63978 -2.12529 0
M  V30 2416 C 225.556 -3.93504 -1.9098 0
M  V30 2417 C 224.615 -4.29225 -3.04388 0
M  V30 2418 O 223.641 -4.97641 -2.76302 0
M  V30 2419 N 224.843 -3.88393 -4.31429 0
M  V30 2420 H 227.608 -2.97691 -0.34641 0
M  V30 2421 H 225.169 -1.61846 -0.0418375 0
M  V30 2422 H 227.161 -2.84891 -2.87436 0
M  V30 2423 H 225.731 -1.84659 -2.52229 0
M  V30 2424 H 224.951 -3.81269 -1.00139 0
M  V30 2425 H 226.239 -4.78154 -1.73914 0
M  V30 2426 H 225.637 -3.33257 -4.57117 0
M  V30 2427 H 224.194 -4.14368 -5.03133 0
M  V30 2428 N 227.627 0.131896 -1.57047 0
M  V30 2429 C 228.873 0.843179 -1.84441 0
M  V30 2430 C 229.206 1.80129 -0.725749 0
M  V30 2431 O 228.481 1.92624 0.269469 0
M  V30 2432 C 228.764 1.60442 -3.22382 0
M  V30 2433 C 228.617 0.666782 -4.4483 0
M  V30 2434 C 229.936 2.56354 -3.5773 0
M  V30 2435 H 227.055 0.305081 -0.670891 0
M  V30 2436 H 229.697 0.107839 -1.89694 0
M  V30 2437 H 227.847 2.23128 -3.18035 0
M  V30 2438 H 229.519 0.0497646 -4.61273 0
M  V30 2439 H 227.762 -0.022609 -4.33794 0
M  V30 2440 H 228.433 1.23579 -5.37989 0
M  V30 2441 H 230.909 2.0378 -3.62785 0
M  V30 2442 H 229.785 3.06657 -4.5525 0
M  V30 2443 H 230.046 3.38419 -2.84473 0
M  V30 2444 N 229.106 1.52395 0.401703 0
M  V30 2445 C 230.054 1.7689 1.51039 0
M  V30 2446 C 231.048 0.636298 1.56996 0
M  V30 2447 O 232.254 0.818507 1.60314 0
M  V30 2448 H 228.629 0.559502 0.502456 0
M  V30 2449 H 230.6 2.69757 1.27568 0
M  V30 2450 C 229.349 1.94331 2.88324 0
M  V30 2451 H 228.672 2.80905 2.84486 0
M  V30 2452 H 230.112 2.15466 3.65172 0
M  V30 2453 C 228.571 0.712396 3.29282 0
M  V30 2454 O 229.101 -0.116218 4.01532 0
M  V30 2455 N 227.307 0.546154 2.85422 0
M  V30 2456 H 226.854 1.22156 2.26794 0
M  V30 2457 H 226.812 -0.276113 3.13185 0
M  V30 2458 N 230.584 -0.659388 1.43143 0
M  V30 2459 C 231.494 -1.80167 1.50256 0
M  V30 2460 C 232.51 -1.69571 0.390106 0
M  V30 2461 O 233.686 -1.90849 0.643319 0
M  V30 2462 C 230.751 -3.16409 1.41725 0
M  V30 2463 C 229.812 -3.38848 2.63591 0
M  V30 2464 C 229.045 -4.68591 2.55458 0
M  V30 2465 O 229.268 -5.47532 1.59891 0
M  V30 2466 O 228.202 -4.92614 3.45854 0
M  V30 2467 H 232.028 -1.77121 2.46702 0
M  V30 2468 H 229.613 -0.817092 1.25076 0
M  V30 2469 H 231.495 -3.9768 1.39387 0
M  V30 2470 H 230.17 -3.20059 0.484118 0
M  V30 2471 H 229.077 -2.57366 2.71502 0
M  V30 2472 H 230.41 -3.4004 3.55856 0
M  V30 2473 N 232.062 -1.29571 -0.897171 0
M  V30 2474 C 232.992 -1.17473 -2.01798 0
M  V30 2475 C 233.973 -0.068323 -1.69963 0
M  V30 2476 O 235.158 -0.248239 -1.92607 0
M  V30 2477 C 232.288 -0.853099 -3.36659 0
M  V30 2478 C 231.242 -1.9161 -3.82713 0
M  V30 2479 C 230.568 -1.44773 -5.14728 0
M  V30 2480 C 231.868 -3.32535 -4.02763 0
M  V30 2481 H 233.562 -2.11237 -2.12177 0
M  V30 2482 H 231.108 -1.01699 -1.01948 0
M  V30 2483 H 233.061 -0.755165 -4.14578 0
M  V30 2484 H 231.785 0.120236 -3.26379 0
M  V30 2485 H 230.444 -2.00346 -3.07013 0
M  V30 2486 H 230.092 -0.462995 -5.00865 0
M  V30 2487 H 229.792 -2.15865 -5.46513 0
M  V30 2488 H 231.316 -1.36334 -5.95185 0
M  V30 2489 H 232.73 -3.26626 -4.71156 0
M  V30 2490 H 231.127 -4.01607 -4.45905 0
M  V30 2491 H 232.197 -3.75326 -3.07016 0
M  V30 2492 N 233.54 1.10788 -1.12088 0
M  V30 2493 C 234.786 1.82942 -0.875226 0
M  V30 2494 C 235.119 1.84779 0.597538 0
M  V30 2495 O 234.394 1.30578 1.44152 0
M  V30 2496 C 234.677 3.29789 -1.44606 0
M  V30 2497 C 234.53 3.36307 -2.98693 0
M  V30 2498 C 235.849 4.26064 -1.10261 0
M  V30 2499 H 232.968 0.664195 -0.319397 0
M  V30 2500 H 235.61 1.29867 -1.38689 0
M  V30 2501 H 233.76 3.75118 -1.01089 0
M  V30 2502 H 235.432 2.99487 -3.50864 0
M  V30 2503 H 233.675 2.76318 -3.34411 0
M  V30 2504 H 234.346 4.39694 -3.33726 0
M  V30 2505 H 236.822 3.88951 -1.4784 0
M  V30 2506 H 235.698 5.27183 -1.52869 0
M  V30 2507 H 235.959 4.42098 -0.0142953 0
M  V30 2508 N 235.018 0.912232 1.28515 0
M  V30 2509 C 236.434 0.610159 1.47476 0
M  V30 2510 C 236.634 -0.844955 1.82928 0
M  V30 2511 O 235.69 -1.62416 1.93332 0
M  V30 2512 C 237.003 1.54675 2.57868 0
M  V30 2513 C 238.551 1.55331 2.71738 0
M  V30 2514 C 239.026 2.47649 3.85272 0
M  V30 2515 N 240.517 2.45767 3.92623 0
M  V30 2516 C 241.252 3.13896 4.79851 0
M  V30 2517 N 240.748 3.9135 5.71679 0
M  V30 2518 N 242.541 3.02991 4.73448 0
M  V30 2519 H 234.692 1.85318 1.03783 0
M  V30 2520 H 236.955 0.794777 0.516753 0
M  V30 2521 H 236.661 2.5841 2.38574 0
M  V30 2522 H 236.535 1.27671 3.54937 0
M  V30 2523 H 238.922 0.52335 2.90422 0
M  V30 2524 H 239.003 1.86378 1.75205 0
M  V30 2525 H 238.647 3.50745 3.67342 0
M  V30 2526 H 238.577 2.13904 4.81199 0
M  V30 2527 H 241.068 1.89503 3.26951 0
M  V30 2528 H 241.381 4.40359 6.35062 0
M  V30 2529 H 239.726 3.95455 5.71524 0
M  V30 2530 H 242.917 2.41987 4.007 0
M  V30 2531 H 243.09 3.5636 5.41213 0
M  V30 2532 N 236.496 -1.42363 0.676048 0
M  V30 2533 C 237.459 -2.29199 0.00766941 0
M  V30 2534 C 238.459 -1.43389 -0.727745 0
M  V30 2535 O 239.649 -1.64764 -0.56556 0
M  V30 2536 C 236.781 -3.2591 -0.999785 0
M  V30 2537 H 237.974 -2.89794 0.771988 0
M  V30 2538 H 235.527 -1.50024 0.438468 0
M  V30 2539 H 236.262 -2.70256 -1.79255 0
M  V30 2540 H 236.047 -3.89202 -0.475829 0
M  V30 2541 H 237.537 -3.91028 -1.46583 0
M  V30 2542 N 237.974 -0.419461 -1.51915 0
M  V30 2543 C 238.937 0.389116 -2.25873 0
M  V30 2544 C 239.937 0.964924 -1.28631 0
M  V30 2545 O 241.127 0.842179 -1.52489 0
M  V30 2546 C 238.259 1.54874 -3.03689 0
M  V30 2547 H 239.452 -0.258799 -2.98781 0
M  V30 2548 H 237.005 -0.172209 -1.55348 0
M  V30 2549 H 237.74 2.23323 -2.35154 0
M  V30 2550 H 237.525 1.14223 -3.75094 0
M  V30 2551 H 239.015 2.12046 -3.59759 0
M  V30 2552 N 239.452 1.56882 -0.150215 0
M  V30 2553 C 240.382 2.19935 0.784284 0
M  V30 2554 C 241.363 1.14854 1.25469 0
M  V30 2555 O 242.548 1.43209 1.31168 0
M  V30 2556 C 239.678 2.82349 2.02229 0
M  V30 2557 C 238.632 3.93285 1.68853 0
M  V30 2558 C 237.958 4.42649 2.99944 0
M  V30 2559 C 239.258 5.13904 0.932714 0
M  V30 2560 H 240.952 2.9828 0.258781 0
M  V30 2561 H 238.498 1.43473 0.123029 0
M  V30 2562 H 240.451 3.25126 2.68088 0
M  V30 2563 H 239.175 2.0134 2.57157 0
M  V30 2564 H 237.834 3.5113 1.05371 0
M  V30 2565 H 237.482 3.58458 3.52869 0
M  V30 2566 H 237.182 5.17476 2.78374 0
M  V30 2567 H 238.706 4.88099 3.66868 0
M  V30 2568 H 240.12 5.53506 1.49345 0
M  V30 2569 H 238.517 5.94515 0.81684 0
M  V30 2570 H 239.587 4.84842 -0.0749568 0
M  V30 2571 N 240.93 -0.123565 1.57115 0
M  V30 2572 C 241.893 -1.13583 1.99076 0
M  V30 2573 C 242.893 -1.34564 0.880296 0
M  V30 2574 O 244.083 -1.31158 1.14644 0
M  V30 2575 C 241.215 -2.49128 2.32698 0
M  V30 2576 H 242.408 -0.775287 2.89706 0
M  V30 2577 H 239.961 -0.36771 1.51913 0
M  V30 2578 H 240.696 -2.90111 1.44934 0
M  V30 2579 H 240.481 -2.35255 3.13684 0
M  V30 2580 H 241.971 -3.2199 2.65918 0
M  V30 2581 N 242.408 -1.52605 -0.393616 0
M  V30 2582 C 243.656 -1.67093 -1.13685 0
M  V30 2583 C 243.977 -0.411011 -1.90619 0
M  V30 2584 O 243.247 0.574491 -1.87287 0
M  V30 2585 H 241.827 -0.615923 -0.422668 0
M  V30 2586 H 244.489 -1.89704 -0.447039 0
M  V30 2587 H 243.585 -2.51922 -1.84232 0
M  V30 2588 N 243.887 0.651787 -1.4349 0
M  V30 2589 C 244.837 1.75783 -1.45205 0
M  V30 2590 C 245.821 1.57679 -0.320328 0
M  V30 2591 O 247.013 1.67767 -0.564211 0
M  V30 2592 C 244.142 3.14377 -1.3792 0
M  V30 2593 C 243.228 3.38023 -2.56127 0
M  V30 2594 N 243.619 3.32135 -3.81471 0
M  V30 2595 C 241.917 3.68747 -2.50882 0
M  V30 2596 C 242.618 3.55902 -4.60118 0
M  V30 2597 N 241.594 3.77783 -3.90872 0
M  V30 2598 H 245.396 1.69657 -2.39987 0
M  V30 2599 H 242.91 0.853508 -1.38163 0
M  V30 2600 H 244.907 3.93666 -1.37231 0
M  V30 2601 H 243.567 3.21683 -0.441596 0
M  V30 2602 H 244.578 3.11515 -4.13738 0
M  V30 2603 H 241.255 3.8316 -1.65816 0
M  V30 2604 H 242.645 3.57116 -5.69138 0
M  V30 2605 N 245.365 1.30045 0.890287 0
M  V30 2606 C 246.776 1.16738 1.45702 0
M  V30 2607 C 247.127 -0.233939 1.948 0
M  V30 2608 O 246.252 -1.13021 1.84541 0
M  V30 2609 C 246.847 2.11313 2.64825 0
M  V30 2610 C 245.406 2.02001 3.17604 0
M  V30 2611 C 244.553 2.01699 1.90296 0
M  V30 2612 H 247.504 1.42392 0.700726 0
M  V30 2613 H 247.525 1.69086 3.40867 0
M  V30 2614 H 247.037 3.13294 2.2906 0
M  V30 2615 H 245.138 1.03142 3.5804 0
M  V30 2616 H 245.251 2.90128 3.81264 0
M  V30 2617 H 243.615 1.46427 2.08402 0
M  V30 2618 H 244.398 3.05402 1.56795 0
M  V30 2619 N 246.843 -1.10192 1.12674 0
M  V30 2620 C 248.259 -1.34235 0.863317 0
M  V30 2621 C 248.459 -1.95062 -0.505277 0
M  V30 2622 O 247.515 -2.19192 -1.25345 0
M  V30 2623 C 248.828 -2.2616 1.98172 0
M  V30 2624 C 250.376 -2.3969 2.0129 0
M  V30 2625 C 250.851 -3.34946 3.1237 0
M  V30 2626 N 252.342 -3.42515 3.11829 0
M  V30 2627 C 253.077 -4.16199 3.94419 0
M  V30 2628 N 252.573 -4.92747 4.87004 0
M  V30 2629 N 254.366 -4.11843 3.82547 0
M  V30 2630 H 246.517 -0.690798 2.00853 0
M  V30 2631 H 248.78 -0.366774 0.874174 0
M  V30 2632 H 248.486 -1.8868 2.96804 0
M  V30 2633 H 248.36 -3.26488 1.88906 0
M  V30 2634 H 250.747 -2.76438 1.03276 0
M  V30 2635 H 250.828 -1.39169 2.14629 0
M  V30 2636 H 250.472 -2.98923 4.10619 0
M  V30 2637 H 250.402 -4.35353 2.96269 0
M  V30 2638 H 252.893 -2.87926 2.44759 0
M  V30 2639 H 253.206 -5.46376 5.46528 0
M  V30 2640 H 251.551 -4.91862 4.91016 0
M  V30 2641 H 254.742 -3.51136 3.0955 0
M  V30 2642 H 254.915 -4.69007 4.47142 0
M  V30 2643 N 248.321 -0.919034 -1.28029 0
M  V30 2644 C 249.284 -0.416182 -2.2539 0
M  V30 2645 C 250.284 0.460438 -1.54067 0
M  V30 2646 O 251.474 0.262744 -1.72207 0
M  V30 2647 C 248.606 0.402707 -3.38513 0
M  V30 2648 H 249.799 -1.27629 -2.71387 0
M  V30 2649 H 247.352 -0.698919 -1.39803 0
M  V30 2650 H 248.087 1.282 -2.97885 0
M  V30 2651 H 247.872 -0.225698 -3.9145 0
M  V30 2652 H 249.362 0.745191 -4.10897 0
M  V30 2653 N 249.799 1.42003 -0.683588 0
M  V30 2654 C 250.749 2.27997 0.0121992 0
M  V30 2655 C 251.733 1.4156 0.764822 0
M  V30 2656 O 252.925 1.64935 0.642287 0
M  V30 2657 C 250.054 3.29706 0.956482 0
M  V30 2658 C 249.14 4.23625 0.200739 0
M  V30 2659 N 249.531 4.99448 -0.799087 0
M  V30 2660 C 247.829 4.43845 0.437937 0
M  V30 2661 C 248.53 5.68102 -1.25041 0
M  V30 2662 N 247.506 5.40511 -0.578648 0
M  V30 2663 H 251.308 2.84048 -0.754564 0
M  V30 2664 H 248.822 1.54071 -0.513398 0
M  V30 2665 H 250.819 3.90124 1.47 0
M  V30 2666 H 249.479 2.75216 1.72297 0
M  V30 2667 H 250.49 5.04303 -1.17893 0
M  V30 2668 H 247.167 4.00382 1.18325 0
M  V30 2669 H 248.557 6.38913 -2.07942 0
M  V30 2670 N 251.277 0.427512 1.51691 0
M  V30 2671 C 252.524 -0.142229 2.02 0
M  V30 2672 C 252.852 -1.43566 1.31221 0
M  V30 2673 O 252.107 -1.91298 0.412744 0
M  V30 2674 C 252.406 -0.418249 3.54944 0
M  V30 2675 C 252.072 0.788187 4.43958 0
M  V30 2676 C 250.734 1.11906 4.68007 0
M  V30 2677 C 253.086 1.59347 4.96244 0
M  V30 2678 C 250.414 2.25608 5.41588 0
M  V30 2679 C 252.766 2.7214 5.71072 0
M  V30 2680 C 251.43 3.05692 5.93387 0
M  V30 2681 H 250.7 -0.0520451 0.73917 0
M  V30 2682 H 253.347 0.572697 1.82736 0
M  V30 2683 H 251.652 -1.21496 3.72486 0
M  V30 2684 H 253.349 -0.872339 3.91397 0
M  V30 2685 H 249.939 0.520344 4.2543 0
M  V30 2686 H 254.123 1.35106 4.77556 0
M  V30 2687 H 249.379 2.51929 5.57083 0
M  V30 2688 H 253.553 3.34914 6.10578 0
M  V30 2689 H 251.18 3.9391 6.50184 0
M  V30 2690 N 252.755 -1.56801 0.158532 0
M  V30 2691 C 253.685 -2.20347 -0.772609 0
M  V30 2692 C 254.666 -1.15518 -1.24859 0
M  V30 2693 O 255.851 -1.43902 -1.30406 0
M  V30 2694 C 252.981 -2.83417 -2.00729 0
M  V30 2695 C 251.935 -3.94174 -1.66765 0
M  V30 2696 C 251.261 -4.44233 -2.97592 0
M  V30 2697 C 252.561 -5.14392 -0.905447 0
M  V30 2698 H 254.255 -2.98413 -0.242959 0
M  V30 2699 H 251.801 -1.43537 -0.115419 0
M  V30 2700 H 253.754 -3.26543 -2.6636 0
M  V30 2701 H 252.478 -2.02701 -2.56086 0
M  V30 2702 H 251.137 -3.51684 -1.03508 0
M  V30 2703 H 250.785 -3.60325 -3.50963 0
M  V30 2704 H 250.485 -5.18945 -2.75626 0
M  V30 2705 H 252.009 -4.90037 -3.64274 0
M  V30 2706 H 253.423 -5.5429 -1.46408 0
M  V30 2707 H 251.82 -5.9494 -0.7853 0
M  V30 2708 H 252.89 -4.84795 0.100668 0
M  V30 2709 N 254.233 0.115231 -1.57178 0
M  V30 2710 C 255.51 0.852873 -1.76027 0
M  V30 2711 C 255.89 1.97892 -0.73498 0
M  V30 2712 O 255.238 2.27232 0.24036 0
M  V30 2713 C 255.448 1.36608 -3.21153 0
M  V30 2714 C 256.796 1.81692 -3.83762 0
M  V30 2715 O 257.82 1.46278 -3.24779 0
M  V30 2716 O 256.679 2.47104 -4.87444 0
M  V30 2717 H 253.773 0.405296 -0.720877 0
M  V30 2718 H 256.319 0.0986785 -1.69413 0
M  V30 2719 H 255.091 0.558357 -3.87296 0
M  V30 2720 H 254.714 2.18287 -3.3232 0
M  V30 2721 N 255.711 1.52812 0.385517 0
M  V30 2722 C 256.674 1.77188 1.45386 0
M  V30 2723 C 257.674 0.641953 1.4743 0
M  V30 2724 O 258.864 0.910033 1.4854 0
M  V30 2725 C 255.996 1.87582 2.8465 0
M  V30 2726 H 257.189 2.72583 1.25054 0
M  V30 2727 H 254.742 1.43586 0.617467 0
M  V30 2728 H 255.477 0.941849 3.10322 0
M  V30 2729 H 255.262 2.69748 2.84567 0
M  V30 2730 H 256.752 2.08102 3.62054 0
M  V30 2731 N 257.189 -0.644168 1.43834 0
M  V30 2732 C 258.466 -1.40188 1.36406 0
M  V30 2733 C 258.846 -2.11094 0.0163124 0
M  V30 2734 O 258.194 -2.05426 -1.00062 0
M  V30 2735 C 258.404 -2.3791 2.55343 0
M  V30 2736 C 259.752 -3.01637 2.98832 0
M  V30 2737 O 260.776 -2.48237 2.55455 0
M  V30 2738 O 259.635 -3.98477 3.74003 0
M  V30 2739 H 256.729 -0.626773 0.539523 0
M  V30 2740 H 259.275 -0.670317 1.559 0
M  V30 2741 H 258.047 -1.84525 3.4506 0
M  V30 2742 H 257.67 -3.18503 2.37995 0
M  V30 2743 N 258.668 -1.30515 -0.883378 0
M  V30 2744 C 260.079 -1.17509 -1.45081 0
M  V30 2745 C 260.43 0.223605 -1.94922 0
M  V30 2746 O 259.555 1.12041 -1.85137 0
M  V30 2747 C 260.15 -2.12715 -2.63701 0
M  V30 2748 C 258.709 -2.03682 -3.16529 0
M  V30 2749 C 257.856 -2.02706 -1.89224 0
M  V30 2750 H 260.807 -1.42762 -0.693165 0
M  V30 2751 H 260.828 -1.70891 -3.39965 0
M  V30 2752 H 260.34 -3.14505 -2.27395 0
M  V30 2753 H 258.441 -1.05039 -3.57488 0
M  V30 2754 H 258.554 -2.92146 -3.7972 0
M  V30 2755 H 256.918 -1.4753 -2.07622 0
M  V30 2756 H 257.701 -3.06229 -1.55174 0
M  V30 2757 N 260.146 1.09593 -1.13257 0
M  V30 2758 C 261.394 1.81375 -0.891492 0
M  V30 2759 C 261.715 1.86049 0.584009 0
M  V30 2760 O 260.985 1.34481 1.42449 0
M  V30 2761 H 259.565 0.671708 -0.326828 0
M  V30 2762 H 262.227 1.3256 -1.42877 0
M  V30 2763 H 261.323 2.84612 -1.28071 0
M  V30 2764 N 261.624 0.925811 1.2754 0
M  V30 2765 C 262.871 0.565255 1.94451 0
M  V30 2766 C 263.199 -0.89316 1.7278 0
M  V30 2767 O 262.454 -1.65213 1.04895 0
M  V30 2768 C 262.753 0.835296 3.47502 0
M  V30 2769 C 262.419 2.27515 3.89291 0
M  V30 2770 C 261.081 2.66879 4.00411 0
M  V30 2771 C 263.433 3.21158 4.10496 0
M  V30 2772 C 260.761 3.99014 4.30122 0
M  V30 2773 C 263.113 4.52871 4.4169 0
M  V30 2774 C 261.777 4.92072 4.51023 0
M  V30 2775 H 261.047 0.206841 0.711546 0
M  V30 2776 H 263.694 1.16942 1.51647 0
M  V30 2777 H 261.999 0.148442 3.91519 0
M  V30 2778 H 263.696 0.535322 3.97411 0
M  V30 2779 H 260.286 1.95976 3.81171 0
M  V30 2780 H 264.47 2.9195 4.01346 0
M  V30 2781 H 259.726 4.2907 4.35556 0
M  V30 2782 H 263.9 5.25436 4.57045 0
M  V30 2783 H 261.527 5.9449 4.738 0
M  V30 2784 N 263.102 -1.41638 0.69111 0
M  V30 2785 C 264.348 -2.01598 0.220519 0
M  V30 2786 C 264.681 -1.54594 -1.17535 0
M  V30 2787 O 263.956 -0.755177 -1.79241 0
M  V30 2788 C 264.239 -3.59062 0.273243 0
M  V30 2789 C 264.092 -4.16203 1.70573 0
M  V30 2790 C 265.411 -4.38546 -0.369457 0
M  V30 2791 H 262.53 -0.732468 0.0816045 0
M  V30 2792 H 265.172 -1.68445 0.878986 0
M  V30 2793 H 263.322 -3.87435 -0.287411 0
M  V30 2794 H 264.994 -3.98722 2.31989 0
M  V30 2795 H 263.237 -3.71414 2.2413 0
M  V30 2796 H 263.908 -5.25358 1.69419 0
M  V30 2797 H 266.384 -4.1596 0.107977 0
M  V30 2798 H 265.26 -5.48069 -0.302002 0
M  V30 2799 H 265.521 -4.17662 -1.44951 0
M  V30 2800 N 264.58 -0.43555 -1.51462 0
M  V30 2801 C 265.53 0.394701 -2.24558 0
M  V30 2802 C 266.514 0.99157 -1.26715 0
M  V30 2803 O 267.706 0.910007 -1.51815 0
M  V30 2804 C 264.835 1.4963 -3.08975 0
M  V30 2805 C 263.921 0.908912 -4.14246 0
M  V30 2806 N 264.312 0.0505335 -5.05775 0
M  V30 2807 C 262.61 1.17668 -4.30198 0
M  V30 2808 C 263.311 -0.279161 -5.8103 0
M  V30 2809 N 262.287 0.336767 -5.42556 0
M  V30 2810 H 266.089 -0.267106 -2.92684 0
M  V30 2811 H 263.603 -0.247518 -1.60503 0
M  V30 2812 H 265.6 2.10394 -3.59917 0
M  V30 2813 H 264.26 2.16046 -2.42393 0
M  V30 2814 H 265.271 -0.31577 -5.16936 0
M  V30 2815 H 261.948 1.83847 -3.74842 0
M  V30 2816 H 263.338 -0.977553 -6.64751 0
M  V30 2817 N 266.058 1.56714 -0.166846 0
M  V30 2818 C 267.283 2.01557 0.488833 0
M  V30 2819 C 267.708 1.0463 1.56314 0
M  V30 2820 O 267.066 0.0251304 1.81283 0
M  V30 2821 C 267.114 3.4503 1.04818 0
M  V30 2822 O 266.218 3.51163 2.16236 0
M  V30 2823 H 265.559 0.653516 0.117526 0
M  V30 2824 H 268.089 2.02818 -0.269421 0
M  V30 2825 H 268.099 3.84243 1.37191 0
M  V30 2826 H 266.774 4.15077 0.261572 0
M  V30 2827 H 265.351 3.23807 1.84942 0
M  V30 2828 N 267.536 -0.106894 1.57237 0
M  V30 2829 C 268.813 -0.843526 1.76477 0
M  V30 2830 C 269.193 -1.97499 0.745464 0
M  V30 2831 O 268.541 -2.27357 -0.228306 0
M  V30 2832 C 268.751 -1.34903 3.21873 0
M  V30 2833 C 270.099 -1.79654 3.8472 0
M  V30 2834 O 271.123 -1.44554 3.2555 0
M  V30 2835 O 269.982 -2.44515 4.88748 0
M  V30 2836 H 267.076 -0.401468 0.723016 0
M  V30 2837 H 269.622 -0.0896927 1.69463 0
M  V30 2838 H 268.394 -0.53781 3.87586 0
M  V30 2839 H 268.017 -2.16522 3.33473 0
M  V30 2840 N 269.014 -1.53014 -0.377408 0
M  V30 2841 C 270.262 -1.6829 -1.11906 0
M  V30 2842 C 270.583 -0.431206 -1.90173 0
M  V30 2843 O 269.853 0.554595 -1.87886 0
M  V30 2844 H 268.433 -0.620371 -0.416112 0
M  V30 2845 H 271.095 -1.90167 -0.426893 0
M  V30 2846 H 270.191 -2.53862 -1.8155 0
M  V30 2847 N 270.492 0.636531 -1.44174 0
M  V30 2848 C 271.72 1.42353 -1.50144 0
M  V30 2849 C 272.135 1.88389 -0.124575 0
M  V30 2850 O 271.492 1.6051 0.868489 0
M  V30 2851 C 271.543 2.64744 -2.46156 0
M  V30 2852 O 271.264 2.20629 -3.7849 0
M  V30 2853 C 272.765 3.57929 -2.61537 0
M  V30 2854 H 269.985 0.436752 -0.5094 0
M  V30 2855 H 272.529 0.778933 -1.89084 0
M  V30 2856 H 270.684 3.25307 -2.10366 0
M  V30 2857 H 271.098 2.99938 -4.30276 0
M  V30 2858 H 272.572 4.40428 -3.32757 0
M  V30 2859 H 273.049 4.06382 -1.66585 0
M  V30 2860 H 273.655 3.03238 -2.98206 0
M  V30 2861 N 271.97 1.30982 0.876444 0
M  V30 2862 C 273.219 1.19658 1.62373 0
M  V30 2863 C 273.532 -0.245636 1.94052 0
M  V30 2864 O 274.738 -0.48049 2.67214 0
M  V30 2865 C 273.194 2.09433 2.92687 0
M  V30 2866 C 272.802 3.58613 2.68516 0
M  V30 2867 C 274.546 2.06893 3.70669 0
M  V30 2868 C 272.453 4.40416 3.94699 0
M  V30 2869 H 271.383 0.444268 0.609214 0
M  V30 2870 H 274.034 1.55791 0.969605 0
M  V30 2871 H 272.416 1.66191 3.59439 0
M  V30 2872 H 273.59 4.10058 2.10212 0
M  V30 2873 H 271.905 3.63063 2.03898 0
M  V30 2874 H 274.502 2.65258 4.64265 0
M  V30 2875 H 274.845 1.05448 4.02724 0
M  V30 2876 H 275.378 2.48301 3.10792 0
M  V30 2877 H 272.117 5.42591 3.67798 0
M  V30 2878 H 271.637 3.93731 4.52477 0
M  V30 2879 H 273.316 4.52294 4.62644 0
M  V30 2880 N 273.449 -1.08991 1.13837 0
M  V30 2881 C 274.674 -1.85551 0.926585 0
M  V30 2882 C 275.099 -1.80782 -0.519566 0
M  V30 2883 O 274.457 -1.18855 -1.36906 0
M  V30 2884 C 274.505 -3.31266 1.42462 0
M  V30 2885 O 273.609 -4.07822 0.612789 0
M  V30 2886 H 272.95 -0.575192 0.331738 0
M  V30 2887 H 275.48 -1.37604 1.51414 0
M  V30 2888 H 275.49 -3.82112 1.43019 0
M  V30 2889 H 274.165 -3.34052 2.47754 0
M  V30 2890 H 272.742 -3.66731 0.675463 0
M  V30 2891 N 274.927 -0.932562 -1.27047 0
M  V30 2892 C 275.877 -0.406392 -2.24349 0
M  V30 2893 C 276.861 0.492066 -1.53191 0
M  V30 2894 O 278.053 0.328717 -1.73921 0
M  V30 2895 C 275.182 0.335214 -3.41659 0
M  V30 2896 C 274.268 -0.58004 -4.20115 0
M  V30 2897 N 274.659 -1.70203 -4.76303 0
M  V30 2898 C 272.957 -0.383974 -4.44344 0
M  V30 2899 C 273.658 -2.27167 -5.35509 0
M  V30 2900 N 272.634 -1.56068 -5.20715 0
M  V30 2901 H 276.436 -1.26299 -2.65378 0
M  V30 2902 H 273.95 -0.787408 -1.42034 0
M  V30 2903 H 275.947 0.729142 -4.10474 0
M  V30 2904 H 274.607 1.18868 -3.0216 0
M  V30 2905 H 275.618 -2.08433 -4.74106 0
M  V30 2906 H 272.295 0.428436 -4.15296 0
M  V30 2907 H 273.685 -3.21654 -5.89905 0
M  V30 2908 N 276.405 1.4127 -0.698611 0
M  V30 2909 C 277.355 2.27997 -0.0119836 0
M  V30 2910 C 278.339 1.42363 0.749765 0
M  V30 2911 O 279.531 1.65607 0.624758 0
M  V30 2912 C 276.66 3.30702 0.921458 0
M  V30 2913 C 275.746 4.23814 0.155796 0
M  V30 2914 N 276.137 4.98572 -0.852015 0
M  V30 2915 C 274.435 4.44284 0.390836 0
M  V30 2916 C 275.136 5.66744 -1.3106 0
M  V30 2917 N 274.112 5.39867 -0.635944 0
M  V30 2918 H 277.914 2.83232 -0.784649 0
M  V30 2919 H 275.428 1.53518 -0.529711 0
M  V30 2920 H 277.425 3.91661 1.42854 0
M  V30 2921 H 276.085 2.77028 1.69369 0
M  V30 2922 H 277.096 5.03024 -1.23235 0
M  V30 2923 H 273.773 4.01614 1.14071 0
M  V30 2924 H 275.163 6.36672 -2.14707 0
M  V30 2925 N 277.883 0.443576 1.51229 0
M  V30 2926 C 279.16 -0.181038 1.9476 0
M  V30 2927 C 279.54 -1.59523 1.38259 0
M  V30 2928 O 278.888 -2.2122 0.572198 0
M  V30 2929 C 279.098 -0.152422 3.48667 0
M  V30 2930 C 280.446 -0.354923 4.23114 0
M  V30 2931 O 281.47 -0.230257 3.55455 0
M  V30 2932 O 280.329 -0.603674 5.43156 0
M  V30 2933 H 277.423 -0.1266 0.817252 0
M  V30 2934 H 279.969 0.502004 1.62105 0
M  V30 2935 H 278.741 0.836022 3.82265 0
M  V30 2936 H 278.364 -0.878107 3.87782 0
M  V30 2937 N 279.361 -1.56624 0.175154 0
M  V30 2938 C 280.294 -2.14 -0.792412 0
M  V30 2939 C 281.272 -1.07114 -1.22333 0
M  V30 2940 O 282.456 -1.35112 -1.31442 0
M  V30 2941 C 279.583 -2.68268 -2.0676 0
M  V30 2942 C 278.629 -3.87562 -1.7804 0
M  V30 2943 S 279.462 -5.27074 -0.946222 0
M  V30 2944 C 280.618 -5.8475 -2.23199 0
M  V30 2945 H 280.851 -2.95736 -0.304588 0
M  V30 2946 H 278.384 -1.54349 -0.0395705 0
M  V30 2947 H 280.342 -3.00182 -2.80002 0
M  V30 2948 H 279.003 -1.86612 -2.52656 0
M  V30 2949 H 278.196 -4.23874 -2.72666 0
M  V30 2950 H 277.798 -3.56555 -1.12891 0
M  V30 2951 H 280.09 -5.97898 -3.18629 0
M  V30 2952 H 281.033 -6.81756 -1.91349 0
M  V30 2953 H 281.441 -5.13198 -2.35134 0
M  V30 2954 N 280.839 0.0985539 -1.57292 0
M  V30 2955 C 282.069 0.815135 -1.8984 0
M  V30 2956 C 282.477 1.7297 -0.766679 0
M  V30 2957 O 281.82 1.81698 0.270483 0
M  V30 2958 C 281.882 1.6842 -3.17608 0
M  V30 2959 C 281.546 0.94182 -4.4719 0
M  V30 2960 C 282.543 0.273212 -5.19182 0
M  V30 2961 C 280.228 0.916927 -4.9386 0
M  V30 2962 C 282.222 -0.410361 -6.36078 0
M  V30 2963 C 279.909 0.229567 -6.10669 0
M  V30 2964 C 280.907 -0.432902 -6.81627 0
M  V30 2965 O 280.595 -1.10925 -7.9621 0
M  V30 2966 H 280.327 0.238501 -0.632529 0
M  V30 2967 H 282.881 0.0812659 -2.05239 0
M  V30 2968 H 281.111 2.46022 -2.98345 0
M  V30 2969 H 282.8 2.27704 -3.36015 0
M  V30 2970 H 283.566 0.283927 -4.84168 0
M  V30 2971 H 279.445 1.42201 -4.3852 0
M  V30 2972 H 282.989 -0.928013 -6.914 0
M  V30 2973 H 278.886 0.216686 -6.45136 0
M  V30 2974 H 279.654 -1.01579 -8.12172 0
M  V30 2975 N 282.317 1.53212 0.369288 0
M  V30 2976 C 283.594 1.59815 1.12776 0
M  V30 2977 C 283.974 0.403402 2.0721 0
M  V30 2978 O 283.322 -0.606667 2.20299 0
M  V30 2979 C 283.532 2.94664 1.87013 0
M  V30 2980 C 284.88 3.49109 2.41677 0
M  V30 2981 O 285.904 2.96669 1.97144 0
M  V30 2982 O 284.763 4.40775 3.23079 0
M  V30 2983 H 281.857 0.645376 0.517125 0
M  V30 2984 H 284.403 1.65553 0.37285 0
M  V30 2985 H 283.175 3.73061 1.18071 0
M  V30 2986 H 282.798 2.92401 2.69421 0
M  V30 2987 N 283.795 -0.628877 1.44509 0
M  V30 2988 C 285.025 -1.41349 1.50678 0
M  V30 2989 C 285.433 -1.88745 0.131075 0
M  V30 2990 O 284.776 -1.61592 -0.87371 0
M  V30 2991 C 284.838 -2.66608 2.41165 0
M  V30 2992 C 284.502 -2.40993 3.88293 0
M  V30 2993 C 285.499 -2.0268 4.78766 0
M  V30 2994 C 283.184 -2.54563 4.33016 0
M  V30 2995 C 285.178 -1.78269 6.11963 0
M  V30 2996 C 282.865 -2.29766 5.6626 0
M  V30 2997 C 283.863 -1.91678 6.55552 0
M  V30 2998 O 283.551 -1.67158 7.86329 0
M  V30 2999 H 283.283 -0.439851 0.51333 0
M  V30 3000 H 285.837 -0.776084 1.90174 0
M  V30 3001 H 284.067 -3.32994 1.96601 0
M  V30 3002 H 285.756 -3.28615 2.38259 0
M  V30 3003 H 286.522 -1.91751 4.45485 0
M  V30 3004 H 282.401 -2.83179 3.63773 0
M  V30 3005 H 285.945 -1.48465 6.81619 0
M  V30 3006 H 281.842 -2.40306 5.99102 0
M  V30 3007 H 282.61 -1.81386 7.98149 0
M  V30 3008 N 285.273 -1.31445 -0.869486 0
M  V30 3009 C 286.203 -1.21727 -1.99261 0
M  V30 3010 C 287.184 -0.104359 -1.6978 0
M  V30 3011 O 288.369 -0.289038 -1.92037 0
M  V30 3012 C 285.499 -0.924317 -3.34774 0
M  V30 3013 C 284.453 -1.99685 -3.78563 0
M  V30 3014 C 283.779 -1.55658 -5.11541 0
M  V30 3015 C 285.079 -3.41003 -3.95619 0
M  V30 3016 H 286.773 -2.1569 -2.07649 0
M  V30 3017 H 284.319 -1.03839 -0.997675 0
M  V30 3018 H 286.272 -0.842934 -4.12883 0
M  V30 3019 H 284.996 0.0509793 -3.2656 0
M  V30 3020 H 283.655 -2.06813 -3.02694 0
M  V30 3021 H 283.303 -0.569132 -4.9977 0
M  V30 3022 H 283.003 -2.27409 -5.41811 0
M  V30 3023 H 284.527 -1.48928 -5.92159 0
M  V30 3024 H 285.941 -3.36547 -4.64122 0
M  V30 3025 H 284.338 -4.10975 -4.37286 0
M  V30 3026 H 285.408 -3.81754 -2.98985 0
M  V30 3027 N 286.751 1.08385 -1.14413 0
M  V30 3028 C 287.701 2.13509 -0.79987 0
M  V30 3029 C 288.685 1.5951 0.211059 0
M  V30 3030 O 289.877 1.76995 0.0133694 0
M  V30 3031 C 287.006 3.42162 -0.279297 0
M  V30 3032 C 286.092 4.03042 -1.31976 0
M  V30 3033 N 286.483 4.38327 -2.52395 0
M  V30 3034 C 284.781 4.30379 -1.17004 0
M  V30 3035 C 285.482 4.86428 -3.19003 0
M  V30 3036 N 284.458 4.84547 -2.46405 0
M  V30 3037 H 288.26 2.38609 -1.7159 0
M  V30 3038 H 285.774 1.2572 -1.02802 0
M  V30 3039 H 287.771 4.16898 -0.0143688 0
M  V30 3040 H 286.431 3.18511 0.630923 0
M  V30 3041 H 287.442 4.29349 -2.89621 0
M  V30 3042 H 284.119 4.16281 -0.318854 0
M  V30 3043 H 285.509 5.23107 -4.21674 0
M  V30 3044 N 288.23 0.939286 1.26551 0
M  V30 3045 C 289.16 0.465044 2.28822 0
M  V30 3046 C 290.141 -0.480692 1.63167 0
M  V30 3047 O 291.326 -0.382955 1.90387 0
M  V30 3048 C 288.456 -0.27234 3.46231 0
M  V30 3049 C 287.41 0.58666 4.2396 0
M  V30 3050 C 286.736 -0.280573 5.33963 0
M  V30 3051 C 288.036 1.85704 4.88171 0
M  V30 3052 H 289.73 1.31979 2.68741 0
M  V30 3053 H 287.276 0.636061 1.29191 0
M  V30 3054 H 289.229 -0.615133 4.16886 0
M  V30 3055 H 287.953 -1.16121 3.0526 0
M  V30 3056 H 286.612 0.91232 3.55067 0
M  V30 3057 H 286.26 -1.16874 4.89234 0
M  V30 3058 H 285.96 0.29076 5.8688 0
M  V30 3059 H 287.484 -0.618678 6.07458 0
M  V30 3060 H 288.898 1.58161 5.51052 0
M  V30 3061 H 287.295 2.37279 5.51197 0
M  V30 3062 H 288.365 2.56957 4.11219 0
M  V30 3063 N 289.708 -1.40897 0.706093 0
M  V30 3064 C 290.933 -2.05895 0.249435 0
M  V30 3065 C 291.358 -1.52823 -1.09666 0
M  V30 3066 O 290.716 -0.659589 -1.68876 0
M  V30 3067 C 290.764 -3.59872 0.22904 0
M  V30 3068 O 289.868 -4.04708 -0.792784 0
M  V30 3069 H 289.209 -0.653206 0.119241 0
M  V30 3070 H 291.739 -1.80471 0.96391 0
M  V30 3071 H 291.749 -4.07951 0.0634791 0
M  V30 3072 H 290.424 -3.97866 1.21141 0
M  V30 3073 H 289.001 -3.68111 -0.59572 0
M  V30 3074 N 291.186 -0.45159 -1.50991 0
M  V30 3075 C 292.602 -0.104647 -1.59257 0
M  V30 3076 C 292.802 1.38728 -1.4614 0
M  V30 3077 O 291.858 2.15866 -1.30989 0
M  V30 3078 C 293.171 -0.637468 -2.93865 0
M  V30 3079 C 294.719 -0.599166 -3.07212 0
M  V30 3080 C 295.194 -1.1092 -4.44366 0
M  V30 3081 N 296.685 -1.06778 -4.50725 0
M  V30 3082 C 297.42 -1.43314 -5.55201 0
M  V30 3083 N 296.916 -1.87204 -6.67028 0
M  V30 3084 N 298.709 -1.3504 -5.45638 0
M  V30 3085 H 290.86 -1.42214 -1.57762 0
M  V30 3086 H 293.123 -0.586921 -0.744465 0
M  V30 3087 H 292.829 -1.68187 -3.08879 0
M  V30 3088 H 292.703 -0.0702139 -3.77135 0
M  V30 3089 H 295.09 0.436277 -2.91857 0
M  V30 3090 H 295.171 -1.20299 -2.25747 0
M  V30 3091 H 294.815 -2.14318 -4.60467 0
M  V30 3092 H 294.745 -0.481773 -5.24392 0
M  V30 3093 H 297.236 -0.745643 -3.70471 0
M  V30 3094 H 297.549 -2.13282 -7.42786 0
M  V30 3095 H 295.894 -1.91142 -6.68199 0
M  V30 3096 H 299.085 -1.00607 -4.57161 0
M  V30 3097 H 299.258 -1.63841 -6.26945 0
M  V30 3098 N 292.664 1.56529 -0.183458 0
M  V30 3099 C 293.594 2.21549 0.737456 0
M  V30 3100 C 294.575 1.17489 1.23005 0
M  V30 3101 O 295.76 1.45959 1.281 0
M  V30 3102 C 292.89 2.86575 1.96194 0
M  V30 3103 C 291.844 3.96778 1.60473 0
M  V30 3104 C 291.17 4.48911 2.90487 0
M  V30 3105 C 292.47 5.15767 0.823497 0
M  V30 3106 H 294.164 2.98761 0.195453 0
M  V30 3107 H 291.71 1.43702 0.0925686 0
M  V30 3108 H 293.663 3.30739 2.61131 0
M  V30 3109 H 292.387 2.06749 2.52828 0
M  V30 3110 H 291.046 3.53286 0.978997 0
M  V30 3111 H 290.694 3.65862 3.45186 0
M  V30 3112 H 290.394 5.23265 2.67335 0
M  V30 3113 H 291.918 4.95771 3.56432 0
M  V30 3114 H 293.332 5.56549 1.37571 0
M  V30 3115 H 291.729 5.96114 0.690551 0
M  V30 3116 H 292.799 4.84574 -0.177782 0
M  V30 3117 N 294.142 -0.090211 1.57342 0
M  V30 3118 C 295.39 -0.791241 1.85967 0
M  V30 3119 C 295.711 -1.7903 0.772859 0
M  V30 3120 O 294.981 -1.94872 -0.200398 0
M  V30 3121 H 293.561 -0.295205 0.686195 0
M  V30 3122 H 296.223 -0.0706782 1.94772 0
M  V30 3123 H 295.319 -1.31882 2.82867 0
M  V30 3124 N 295.62 -1.53406 -0.361157 0
M  V30 3125 C 296.85 -1.73465 -1.1222 0
M  V30 3126 C 297.258 -0.465486 -1.83384 0
M  V30 3127 O 296.601 0.571611 -1.7458 0
M  V30 3128 C 296.663 -2.84834 -2.19339 0
M  V30 3129 C 296.327 -4.25038 -1.67903 0
M  V30 3130 C 297.324 -5.07231 -1.14074 0
M  V30 3131 C 295.009 -4.71464 -1.73282 0
M  V30 3132 C 297.003 -6.33942 -0.663068 0
M  V30 3133 C 294.69 -5.98153 -1.25127 0
M  V30 3134 C 295.688 -6.79223 -0.717296 0
M  V30 3135 O 295.376 -8.03533 -0.242865 0
M  V30 3136 H 295.108 -0.583526 -0.341283 0
M  V30 3137 H 297.662 -2.00964 -0.424591 0
M  V30 3138 H 295.892 -2.5282 -2.92607 0
M  V30 3139 H 297.581 -2.9303 -2.80871 0
M  V30 3140 H 298.347 -4.72534 -1.09254 0
M  V30 3141 H 294.226 -4.08432 -2.13786 0
M  V30 3142 H 297.77 -6.97167 -0.245612 0
M  V30 3143 H 293.667 -6.32347 -1.29642 0
M  V30 3144 H 294.435 -8.177 -0.361786 0
M  V30 3145 N 297.098 0.621204 -1.44841 0
M  V30 3146 C 298.326 1.40752 -1.51646 0
M  V30 3147 C 298.741 1.88246 -0.144549 0
M  V30 3148 O 298.098 1.61422 0.851416 0
M  V30 3149 C 298.149 2.62119 -2.4895 0
M  V30 3150 O 297.87 2.16602 -3.80808 0
M  V30 3151 C 299.371 3.55135 -2.65319 0
M  V30 3152 H 296.591 0.431325 -0.514004 0
M  V30 3153 H 299.135 0.758835 -1.899 0
M  V30 3154 H 297.29 3.23058 -2.13805 0
M  V30 3155 H 297.704 2.95358 -4.33433 0
M  V30 3156 H 299.178 4.36874 -3.37409 0
M  V30 3157 H 299.655 4.04592 -1.70886 0
M  V30 3158 H 300.261 3.00058 -3.01405 0
M  V30 3159 N 298.576 1.31904 0.862503 0
M  V30 3160 C 299.987 1.19803 1.43193 0
M  V30 3161 C 300.338 -0.192567 1.95253 0
M  V30 3162 O 299.463 -1.09081 1.86896 0
M  V30 3163 C 300.058 2.16883 2.60283 0
M  V30 3164 C 298.617 2.08692 3.13248 0
M  V30 3165 C 297.764 2.05691 1.85975 0
M  V30 3166 H 300.715 1.43846 0.670365 0
M  V30 3167 H 300.736 1.76278 3.37204 0
M  V30 3168 H 300.248 3.18083 2.22363 0
M  V30 3169 H 298.349 1.10713 3.55771 0
M  V30 3170 H 298.462 2.9815 3.75025 0
M  V30 3171 H 296.826 1.50814 2.05249 0
M  V30 3172 H 297.609 3.08659 1.50282 0
M  V30 3173 N 300.054 -1.07777 1.14986 0
M  V30 3174 C 301.3 -1.80557 0.923422 0
M  V30 3175 C 301.633 -1.86298 -0.548337 0
M  V30 3176 O 300.908 -1.34354 -1.40639 0
M  V30 3177 C 301.191 -3.25839 1.53299 0
M  V30 3178 C 301.044 -3.28269 3.07505 0
M  V30 3179 C 302.363 -4.22991 1.21518 0
M  V30 3180 H 299.482 -0.655493 0.336894 0
M  V30 3181 H 302.124 -1.26144 1.42083 0
M  V30 3182 H 300.274 -3.72306 1.10999 0
M  V30 3183 H 301.946 -2.90079 3.58681 0
M  V30 3184 H 300.189 -2.67355 3.4162 0
M  V30 3185 H 300.86 -4.30691 3.45266 0
M  V30 3186 H 303.336 -3.84894 1.581 0
M  V30 3187 H 302.212 -5.22945 1.66793 0
M  V30 3188 H 302.473 -4.41904 0.131505 0
M  V30 3189 N 301.532 -0.945985 -1.26051 0
M  V30 3190 C 302.772 -0.603665 -1.95282 0
M  V30 3191 C 303.136 0.842377 -1.72534 0
M  V30 3192 O 304.337 1.29387 -2.35611 0
M  V30 3193 C 302.608 -0.942292 -3.44754 0
M  V30 3194 S 304.167 -0.711242 -4.32997 0
M  V30 3195 H 300.985 -0.222176 -0.675395 0
M  V30 3196 H 303.587 -1.21832 -1.52896 0
M  V30 3197 H 302.291 -1.99203 -3.58812 0
M  V30 3198 H 301.822 -0.317546 -3.92116 0
M  V30 3199 H 303.837 0.422221 -4.944 0
M  V30 3200 N 303.011 1.40521 -0.713556 0
M  V30 3201 C 304.427 1.54839 -0.386907 0
M  V30 3202 C 304.627 1.68532 1.1045 0
M  V30 3203 O 303.683 1.67377 1.89053 0
M  V30 3204 C 304.996 2.77792 -1.15118 0
M  V30 3205 C 306.544 2.91607 -1.13729 0
M  V30 3206 C 307.019 4.1747 -1.88368 0
M  V30 3207 N 308.51 4.24466 -1.85427 0
M  V30 3208 C 309.245 5.20755 -2.40004 0
M  V30 3209 N 308.741 6.22965 -3.03129 0
M  V30 3210 N 310.534 5.1282 -2.30158 0
M  V30 3211 H 302.685 1.29879 -1.68063 0
M  V30 3212 H 304.948 0.627896 -0.710247 0
M  V30 3213 H 304.654 2.73944 -2.20561 0
M  V30 3214 H 304.528 3.6984 -0.741477 0
M  V30 3215 H 306.915 2.94959 -0.0910608 0
M  V30 3216 H 306.996 2.00682 -1.5862 0
M  V30 3217 H 306.64 4.1488 -2.9298 0
M  V30 3218 H 306.57 5.074 -1.40898 0
M  V30 3219 H 309.061 3.51241 -1.3942 0
M  V30 3220 H 309.374 6.92859 -3.42295 0
M  V30 3221 H 307.719 6.23415 -3.07212 0
M  V30 3222 H 310.91 4.31899 -1.80501 0
M  V30 3223 H 311.083 5.87689 -2.72993 0
M  V30 3224 N 304.489 0.459591 1.5075 0
M  V30 3225 C 305.452 -0.329093 2.26825 0
M  V30 3226 C 306.452 -0.930481 1.31144 0
M  V30 3227 O 307.642 -0.801453 1.54669 0
M  V30 3228 C 304.774 -1.46768 3.07688 0
M  V30 3229 H 305.967 0.337924 2.9799 0
M  V30 3230 H 303.52 0.213336 1.54837 0
M  V30 3231 H 304.255 -2.17009 2.40993 0
M  V30 3232 H 304.04 -1.04238 3.77991 0
M  V30 3233 H 305.53 -2.02433 3.65254 0
M  V30 3234 N 305.967 -1.56429 0.191757 0
M  V30 3235 C 306.897 -2.21937 -0.725696 0
M  V30 3236 C 307.878 -1.1814 -1.2238 0
M  V30 3237 O 309.063 -1.46636 -1.27325 0
M  V30 3238 C 306.193 -2.87611 -1.94672 0
M  V30 3239 C 305.147 -3.97623 -1.58366 0
M  V30 3240 C 304.473 -4.50446 -2.88102 0
M  V30 3241 C 305.773 -5.16197 -0.796133 0
M  V30 3242 H 307.467 -2.98861 -0.179606 0
M  V30 3243 H 305.013 -1.43749 -0.0849464 0
M  V30 3244 H 306.966 -3.3212 -2.59373 0
M  V30 3245 H 305.69 -2.08087 -2.51728 0
M  V30 3246 H 304.349 -3.53801 -0.960247 0
M  V30 3247 H 303.997 -3.67688 -3.43241 0
M  V30 3248 H 303.697 -5.24675 -2.64556 0
M  V30 3249 H 305.221 -4.97654 -3.53798 0
M  V30 3250 H 306.635 -5.57271 -1.34618 0
M  V30 3251 H 305.032 -5.96471 -0.658928 0
M  V30 3252 H 306.102 -4.84473 0.203478 0
M  V30 3253 N 307.445 0.0818655 -1.57387 0
M  V30 3254 C 308.395 1.10501 -1.99433 0
M  V30 3255 C 309.379 1.35041 -0.874798 0
M  V30 3256 O 310.571 1.35511 -1.13868 0
M  V30 3257 C 307.7 2.42159 -2.43339 0
M  V30 3258 C 306.786 2.20937 -3.62005 0
M  V30 3259 N 307.177 1.69616 -4.76512 0
M  V30 3260 C 305.475 2.51451 -3.68359 0
M  V30 3261 C 306.176 1.62973 -5.58404 0
M  V30 3262 N 305.152 2.08664 -5.01956 0
M  V30 3263 H 308.954 0.701373 -2.85408 0
M  V30 3264 H 306.468 0.289096 -1.59806 0
M  V30 3265 H 308.465 3.16208 -2.71695 0
M  V30 3266 H 307.125 2.83249 -1.58746 0
M  V30 3267 H 308.136 1.38624 -4.99003 0
M  V30 3268 H 304.813 2.95975 -2.94457 0
M  V30 3269 H 306.203 1.24233 -6.60315 0
M  V30 3270 N 308.923 1.53595 0.353017 0
M  V30 3271 C 310.148 1.7462 1.11904 0
M  V30 3272 C 310.573 0.479721 1.8188 0
M  V30 3273 O 309.931 -0.567066 1.72204 0
M  V30 3274 C 309.979 2.92029 2.11545 0
M  V30 3275 O 309.083 2.61516 3.18878 0
M  V30 3276 H 308.424 0.579531 0.324099 0
M  V30 3277 H 310.954 2.00525 0.406301 0
M  V30 3278 H 310.964 3.18551 2.5493 0
M  V30 3279 H 309.639 3.83888 1.60008 0
M  V30 3280 H 308.216 2.45852 2.80377 0
M  V30 3281 N 310.401 -0.613514 1.45168 0
M  V30 3282 C 311.331 -1.7354 1.56225 0
M  V30 3283 C 312.312 -1.64981 0.41414 0
M  V30 3284 O 313.497 -1.83472 0.636526 0
M  V30 3285 C 310.627 -3.12128 1.52295 0
M  V30 3286 C 309.581 -3.35491 2.65762 0
M  V30 3287 C 308.907 -4.74291 2.46885 0
M  V30 3288 C 310.207 -3.26325 4.0781 0
M  V30 3289 H 311.901 -1.64543 2.50132 0
M  V30 3290 H 309.447 -0.790185 1.20383 0
M  V30 3291 H 311.4 -3.90404 1.58628 0
M  V30 3292 H 310.124 -3.2195 0.549139 0
M  V30 3293 H 308.783 -2.59603 2.58847 0
M  V30 3294 H 308.431 -4.80839 1.47657 0
M  V30 3295 H 308.131 -4.9088 3.22972 0
M  V30 3296 H 309.655 -5.54775 2.55063 0
M  V30 3297 H 311.069 -3.94483 4.16 0
M  V30 3298 H 309.466 -3.54445 4.8424 0
M  V30 3299 H 310.536 -2.23855 4.30136 0
M  V30 3300 N 311.879 -1.3236 -0.855495 0
M  V30 3301 C 312.809 -1.23833 -1.97958 0
M  V30 3302 C 313.79 -0.122361 -1.69659 0
M  V30 3303 O 314.975 -0.30939 -1.9172 0
M  V30 3304 C 312.105 -0.959772 -3.33775 0
M  V30 3305 C 311.059 -2.03689 -3.76424 0
M  V30 3306 C 310.385 -1.61075 -5.09862 0
M  V30 3307 C 311.685 -3.4518 -3.9198 0
M  V30 3308 H 313.379 -2.1788 -2.0535 0
M  V30 3309 H 310.925 -1.04891 -0.986605 0
M  V30 3310 H 312.878 -0.886678 -4.11966 0
M  V30 3311 H 311.602 0.0163404 -3.26596 0
M  V30 3312 H 310.261 -2.10012 -3.00484 0
M  V30 3313 H 309.909 -0.622107 -4.99138 0
M  V30 3314 H 309.609 -2.33143 -5.39368 0
M  V30 3315 H 311.133 -1.55201 -5.90546 0
M  V30 3316 H 312.547 -3.4145 -4.60526 0
M  V30 3317 H 310.944 -4.1559 -4.32903 0
M  V30 3318 H 312.014 -3.84903 -2.94919 0
M  V30 3319 N 313.357 1.07166 -1.15556 0
M  V30 3320 C 314.287 2.16403 -0.877046 0
M  V30 3321 C 315.268 1.69217 0.173111 0
M  V30 3322 O 316.453 1.94181 0.027084 0
M  V30 3323 C 313.583 3.45349 -0.367632 0
M  V30 3324 C 312.537 4.05995 -1.35468 0
M  V30 3325 C 311.863 5.30045 -0.704038 0
M  V30 3326 C 313.163 4.45804 -2.72132 0
M  V30 3327 H 314.857 2.39959 -1.79053 0
M  V30 3328 H 312.403 1.15325 -0.862331 0
M  V30 3329 H 314.356 4.21095 -0.160317 0
M  V30 3330 H 313.08 3.21385 0.581326 0
M  V30 3331 H 311.739 3.32296 -1.54839 0
M  V30 3332 H 311.387 5.02373 0.251128 0
M  V30 3333 H 311.087 5.71579 -1.36277 0
M  V30 3334 H 312.611 6.08495 -0.50654 0
M  V30 3335 H 314.025 5.12671 -2.56595 0
M  V30 3336 H 312.422 4.98296 -3.34397 0
M  V30 3337 H 313.492 3.57083 -3.28054 0
M  V30 3338 N 314.835 0.952656 1.25548 0
M  V30 3339 C 316.251 0.656769 1.4546 0
M  V30 3340 C 316.451 -0.78633 1.85524 0
M  V30 3341 O 315.507 -1.56183 1.98402 0
M  V30 3342 C 316.82 1.62801 2.52817 0
M  V30 3343 C 318.368 1.63897 2.66659 0
M  V30 3344 C 318.843 2.5978 3.77198 0
M  V30 3345 N 320.334 2.58133 3.84606 0
M  V30 3346 C 321.069 3.29003 4.69621 0
M  V30 3347 N 320.565 4.09339 5.58939 0
M  V30 3348 N 322.358 3.179 4.63569 0
M  V30 3349 H 314.509 1.88526 0.978344 0
M  V30 3350 H 316.772 0.810815 0.491206 0
M  V30 3351 H 316.478 2.65869 2.30232 0
M  V30 3352 H 316.352 1.38898 3.50695 0
M  V30 3353 H 318.739 0.615481 2.8861 0
M  V30 3354 H 318.82 1.91858 1.69187 0
M  V30 3355 H 318.464 3.62254 3.55997 0
M  V30 3356 H 318.394 2.29105 4.7415 0
M  V30 3357 H 320.885 1.99809 3.20757 0
M  V30 3358 H 321.198 4.6034 6.20731 0
M  V30 3359 H 319.543 4.13438 5.58654 0
M  V30 3360 H 322.734 2.54612 3.92798 0
M  V30 3361 H 322.907 3.73398 5.29602 0
M  V30 3362 N 316.313 -1.40141 0.720998 0
M  V30 3363 C 317.243 -2.33339 0.0867621 0
M  V30 3364 C 318.224 -1.53178 -0.739622 0
M  V30 3365 O 319.409 -1.81625 -0.687449 0
M  V30 3366 C 316.539 -3.37194 -0.831728 0
M  V30 3367 C 315.493 -4.27857 -0.110558 0
M  V30 3368 C 314.819 -5.22294 -1.14513 0
M  V30 3369 C 316.119 -5.11872 1.0385 0
M  V30 3370 H 317.813 -2.86626 0.865219 0
M  V30 3371 H 315.359 -1.37814 0.417516 0
M  V30 3372 H 317.312 -4.01335 -1.28485 0
M  V30 3373 H 316.036 -2.82314 -1.64214 0
M  V30 3374 H 314.695 -3.65176 0.322797 0
M  V30 3375 H 314.343 -4.63717 -1.94874 0
M  V30 3376 H 314.043 -5.83797 -0.667446 0
M  V30 3377 H 315.567 -5.89312 -1.59824 0
M  V30 3378 H 316.981 -5.69436 0.664482 0
M  V30 3379 H 315.378 -5.82445 1.4449 0
M  V30 3380 H 316.448 -4.4753 1.86668 0
M  V30 3381 N 317.792 -0.46758 -1.50504 0
M  V30 3382 C 318.722 0.318381 -2.31319 0
M  V30 3383 C 319.703 0.993564 -1.38066 0
M  V30 3384 O 320.888 0.991411 -1.66987 0
M  V30 3385 C 318.018 1.40275 -3.17711 0
M  V30 3386 C 316.972 0.849373 -4.19487 0
M  V30 3387 C 316.298 2.03177 -4.94594 0
M  V30 3388 C 317.598 -0.136942 -5.2212 0
M  V30 3389 H 319.292 -0.356106 -2.97275 0
M  V30 3390 H 316.838 -0.172703 -1.42961 0
M  V30 3391 H 318.791 1.96004 -3.73042 0
M  V30 3392 H 317.515 2.10596 -2.49634 0
M  V30 3393 H 316.174 0.314076 -3.65252 0
M  V30 3394 H 315.822 2.72187 -4.22993 0
M  V30 3395 H 315.522 1.66774 -5.63436 0
M  V30 3396 H 317.046 2.59403 -5.52759 0
M  V30 3397 H 318.46 0.331056 -5.72343 0
M  V30 3398 H 316.857 -0.41507 -5.98663 0
M  V30 3399 H 317.927 -1.06398 -4.73083 0
M  V30 3400 N 319.27 1.56325 -0.20005 0
M  V30 3401 C 320.233 2.18084 0.705132 0
M  V30 3402 C 321.233 1.13666 1.1374 0
M  V30 3403 O 322.423 1.39023 1.04968 0
M  V30 3404 C 319.555 2.78689 1.96329 0
M  V30 3405 H 320.748 2.99435 0.167023 0
M  V30 3406 H 318.301 1.56221 0.0495725 0
M  V30 3407 H 319.036 2.0115 2.5438 0
M  V30 3408 H 318.821 3.55133 1.66202 0
M  V30 3409 H 320.311 3.26096 2.60866 0
M  V30 3410 N 320.748 -0.0735177 1.57428 0
M  V30 3411 C 321.68 -1.11423 2.00294 0
M  V30 3412 C 322.693 -1.35084 0.908637 0
M  V30 3413 O 323.882 -1.33355 1.18654 0
M  V30 3414 C 320.982 -2.46548 2.32523 0
M  V30 3415 C 320.155 -2.42867 3.63778 0
M  V30 3416 C 319.214 -3.60087 3.83697 0
M  V30 3417 O 318.24 -3.41595 4.55304 0
M  V30 3418 N 319.442 -4.80372 3.25919 0
M  V30 3419 H 322.207 -0.749206 2.90184 0
M  V30 3420 H 319.768 -0.262195 1.59763 0
M  V30 3421 H 321.76 -3.23607 2.43024 0
M  V30 3422 H 320.33 -2.75059 1.48531 0
M  V30 3423 H 319.55 -1.51206 3.64047 0
M  V30 3424 H 320.838 -2.37506 4.49965 0
M  V30 3425 H 320.236 -4.983 2.67795 0
M  V30 3426 H 318.793 -5.54948 3.41871 0
M  V30 3427 N 322.226 -1.5378 -0.344866 0
M  V30 3428 C 323.503 -1.61589 -1.10219 0
M  V30 3429 C 323.883 -0.436316 -2.06542 0
M  V30 3430 O 323.231 0.571543 -2.21237 0
M  V30 3431 C 323.441 -2.97602 -1.82301 0
M  V30 3432 C 324.789 -3.5291 -2.36093 0
M  V30 3433 O 325.813 -2.99768 -1.924 0
M  V30 3434 O 324.672 -4.45859 -3.16026 0
M  V30 3435 H 321.766 -0.653522 -0.506792 0
M  V30 3436 H 324.312 -1.66126 -0.346465 0
M  V30 3437 H 323.084 -3.74893 -1.12121 0
M  V30 3438 H 322.707 -2.9665 -2.64735 0
M  V30 3439 N 323.704 0.605807 -1.45491 0
M  V30 3440 C 324.636 1.73031 -1.5031 0
M  V30 3441 C 325.649 1.57968 -0.393687 0
M  V30 3442 O 326.838 1.65817 -0.660839 0
M  V30 3443 C 323.938 3.11049 -1.34543 0
M  V30 3444 C 323.111 3.52334 -2.59189 0
M  V30 3445 C 322.17 4.69323 -2.37954 0
M  V30 3446 O 321.196 4.7635 -3.11575 0
M  V30 3447 N 322.398 5.62705 -1.4263 0
M  V30 3448 H 325.163 1.6936 -2.4726 0
M  V30 3449 H 322.724 0.79114 -1.41254 0
M  V30 3450 H 324.716 3.87071 -1.18144 0
M  V30 3451 H 323.286 3.09217 -0.458623 0
M  V30 3452 H 322.506 2.66256 -2.90691 0
M  V30 3453 H 323.794 3.76677 -3.42041 0
M  V30 3454 H 323.192 5.59744 -0.818758 0
M  V30 3455 H 321.749 6.38252 -1.32202 0
M  V30 3456 N 325.182 1.32811 0.848464 0
M  V30 3457 C 326.43 1.23479 1.59991 0
M  V30 3458 C 326.751 -0.201853 1.93952 0
M  V30 3459 O 326.021 -1.12818 1.60153 0
M  V30 3460 H 324.601 0.454034 0.593179 0
M  V30 3461 H 327.263 1.66412 1.01455 0
M  V30 3462 H 326.359 1.82178 2.53412 0
M  V30 3463 N 326.66 -1.06551 1.16123 0
M  V30 3464 C 327.592 -2.13908 0.823171 0
M  V30 3465 C 328.605 -1.61926 -0.16843 0
M  V30 3466 O 329.794 -1.78412 0.055962 0
M  V30 3467 C 326.894 -3.38283 0.204424 0
M  V30 3468 C 326.067 -4.19589 1.23548 0
M  V30 3469 C 325.126 -5.2233 0.637011 0
M  V30 3470 O 324.152 -5.54034 1.30516 0
M  V30 3471 N 325.354 -5.77621 -0.577474 0
M  V30 3472 H 328.119 -2.43508 1.74711 0
M  V30 3473 H 325.68 -1.2253 1.05821 0
M  V30 3474 H 327.672 -4.0416 -0.208909 0
M  V30 3475 H 326.242 -3.06329 -0.623012 0
M  V30 3476 H 325.462 -3.49406 1.82507 0
M  V30 3477 H 326.75 -4.70718 1.93137 0
M  V30 3478 H 326.148 -5.54125 -1.13853 0
M  V30 3479 H 324.705 -6.45087 -0.933053 0
M  V30 3480 N 328.138 -0.959301 -1.25041 0
M  V30 3481 C 329.386 -0.615393 -1.92503 0
M  V30 3482 C 329.707 0.850969 -1.75452 0
M  V30 3483 O 328.977 1.60658 -1.12098 0
M  V30 3484 H 327.557 -0.224613 -0.712431 0
M  V30 3485 H 330.219 -1.21855 -1.5211 0
M  V30 3486 H 329.315 -0.848738 -3.00338 0
M  V30 3487 N 329.616 1.39756 -0.72842 0
M  V30 3488 C 330.579 2.29012 -0.0927297 0
M  V30 3489 C 331.579 1.45992 0.674025 0
M  V30 3490 O 332.769 1.66749 0.50402 0
M  V30 3491 C 329.901 3.29396 0.878137 0
M  V30 3492 H 331.094 2.86729 -0.879011 0
M  V30 3493 H 328.647 1.48293 -0.493847 0
M  V30 3494 H 329.382 2.76722 1.69101 0
M  V30 3495 H 329.167 3.907 0.331051 0
M  V30 3496 H 330.657 3.96199 1.3197 0
M  V30 3497 N 331.094 0.475555 1.50254 0
M  V30 3498 C 332.505 0.0215174 1.86688 0
M  V30 3499 C 332.856 -1.38467 1.39001 0
M  V30 3500 O 331.981 -2.02732 0.756894 0
M  V30 3501 C 332.576 0.0322715 3.38785 0
M  V30 3502 C 331.135 -0.366314 3.74613 0
M  V30 3503 C 330.282 0.415832 2.74164 0
M  V30 3504 H 333.233 0.689612 1.42934 0
M  V30 3505 H 333.254 -0.76889 3.7265 0
M  V30 3506 H 332.766 1.05584 3.73462 0
M  V30 3507 H 330.867 -1.39406 3.45538 0
M  V30 3508 H 330.98 -0.064555 4.79057 0
M  V30 3509 H 329.344 -0.131048 2.54363 0
M  V30 3510 H 330.127 1.43899 3.11686 0
M  V30 3511 N 332.573 -1.56217 0.208337 0
M  V30 3512 C 333.503 -2.22694 -0.702116 0
M  V30 3513 C 334.484 -1.19432 -1.2112 0
M  V30 3514 O 335.669 -1.47978 -1.25762 0
M  V30 3515 C 332.799 -2.8966 -1.9161 0
M  V30 3516 C 331.753 -3.9928 -1.5414 0
M  V30 3517 C 331.079 -4.53476 -2.83308 0
M  V30 3518 C 332.379 -5.17012 -0.741339 0
M  V30 3519 H 334.073 -2.99034 -0.147898 0
M  V30 3520 H 331.619 -1.43831 -0.0696951 0
M  V30 3521 H 333.572 -3.34852 -2.55836 0
M  V30 3522 H 332.296 -2.10746 -2.49507 0
M  V30 3523 H 330.955 -3.54799 -0.922668 0
M  V30 3524 H 330.603 -3.71308 -3.39322 0
M  V30 3525 H 330.303 -5.27451 -2.58976 0
M  V30 3526 H 331.827 -5.01378 -3.485 0
M  V30 3527 H 333.241 -5.58667 -1.28699 0
M  V30 3528 H 331.638 -5.97137 -0.595627 0
M  V30 3529 H 332.708 -4.8423 0.254851 0
M  V30 3530 N 334.051 0.0651679 -1.57465 0
M  V30 3531 C 334.981 1.07693 -2.07182 0
M  V30 3532 C 335.962 1.39962 -0.966673 0
M  V30 3533 O 337.147 1.49475 -1.2398 0
M  V30 3534 C 334.277 2.3885 -2.52127 0
M  V30 3535 C 333.231 2.20917 -3.66579 0
M  V30 3536 C 332.557 3.57515 -3.97601 0
M  V30 3537 C 333.857 1.62493 -4.9638 0
M  V30 3538 H 335.551 0.663199 -2.91962 0
M  V30 3539 H 333.097 0.317569 -1.40455 0
M  V30 3540 H 335.05 3.09928 -2.85522 0
M  V30 3541 H 333.774 2.82215 -1.64384 0
M  V30 3542 H 332.433 1.52279 -3.33477 0
M  V30 3543 H 332.081 3.98463 -3.06979 0
M  V30 3544 H 331.781 3.46353 -4.74672 0
M  V30 3545 H 333.305 4.30013 -4.33499 0
M  V30 3546 H 334.719 2.23445 -5.27963 0
M  V30 3547 H 333.116 1.62009 -5.77818 0
M  V30 3548 H 334.186 0.587041 -4.81333 0
M  V30 3549 N 335.529 1.53961 0.336706 0
M  V30 3550 C 336.439 1.85432 1.43708 0
M  V30 3551 C 337.455 0.745053 1.57242 0
M  V30 3552 O 338.631 1.03804 1.72588 0
M  V30 3553 C 335.696 2.06349 2.78605 0
M  V30 3554 C 334.757 3.30191 2.74358 0
M  V30 3555 C 333.99 3.50101 4.02822 0
M  V30 3556 O 334.213 2.7371 5.00439 0
M  V30 3557 O 333.147 4.43547 4.06878 0
M  V30 3558 H 336.973 2.78975 1.20028 0
M  V30 3559 H 334.558 1.39701 0.52952 0
M  V30 3560 H 336.44 2.21513 3.58483 0
M  V30 3561 H 335.115 1.15995 3.02203 0
M  V30 3562 H 334.022 3.20425 1.93078 0
M  V30 3563 H 335.355 4.2056 2.55715 0
M  V30 3564 N 337.007 -0.598083 1.45811 0
M  V30 3565 C 338.418 -1.18011 1.44673 0
M  V30 3566 C 338.769 -1.95378 0.179364 0
M  V30 3567 O 337.894 -2.04124 -0.718509 0
M  V30 3568 C 338.489 -2.14677 2.62105 0
M  V30 3569 C 337.048 -2.68236 2.64057 0
M  V30 3570 C 336.195 -1.43816 2.37091 0
M  V30 3571 H 339.146 -0.38686 1.53913 0
M  V30 3572 H 339.167 -2.97878 2.36746 0
M  V30 3573 H 338.679 -1.5834 3.5433 0
M  V30 3574 H 336.78 -3.28486 1.75864 0
M  V30 3575 H 336.893 -3.12021 3.63566 0
M  V30 3576 H 335.257 -1.731 1.86838 0
M  V30 3577 H 336.04 -0.893333 3.31473 0
M  V30 3578 N 338.485 -1.33259 -0.841409 0
M  V30 3579 C 339.448 -1.23221 -1.9326 0
M  V30 3580 C 340.448 -0.151895 -1.60081 0
M  V30 3581 O 341.638 -0.403246 -1.69468 0
M  V30 3582 C 338.77 -0.898123 -3.28856 0
M  V30 3583 H 339.963 -2.2021 -2.03587 0
M  V30 3584 H 337.516 -1.17281 -1.03319 0
M  V30 3585 H 338.251 0.0693841 -3.24226 0
M  V30 3586 H 338.036 -1.67934 -3.54317 0
M  V30 3587 H 339.526 -0.852563 -4.08805 0
M  V30 3588 N 339.963 1.05934 -1.16686 0
M  V30 3589 C 341.374 1.60263 -0.957745 0
M  V30 3590 C 341.725 1.89789 0.49745 0
M  V30 3591 O 340.85 1.67401 1.37135 0
M  V30 3592 C 341.445 2.91172 -1.73218 0
M  V30 3593 C 340.004 3.42188 -1.56794 0
M  V30 3594 C 339.151 2.16028 -1.73859 0
M  V30 3595 H 342.102 0.888392 -1.31504 0
M  V30 3596 H 342.123 3.60744 -1.21014 0
M  V30 3597 H 341.635 2.6965 -2.79124 0
M  V30 3598 H 339.736 3.68762 -0.533437 0
M  V30 3599 H 339.849 4.17273 -2.35414 0
M  V30 3600 H 338.213 2.26426 -1.16633 0
M  V30 3601 H 338.996 1.96985 -2.81161 0
M  V30 3602 O 341.48 1.09547 1.18667 0
M  V30 3603 H 342.171 0.792406 1.7675 0
M  V30 END ATOM
M  V30 BEGIN BOND
M  V30 END BOND
M  V30 END CTAB
M  END
$$$$
