drugbank_target|Q92847 Growth hormone secretagogue receptor type 1 (DB12128; DB13074; DB15488)
 OpenBabel12092120313D

  0  0  0     0  0            999 V3000
M  V30 BEGIN CTAB
M  V30 COUNTS 5882 5959 0 0 0
M  V30 BEGIN ATOM
M  V30 1 H -0.908 1.98254 -0.117106 0
M  V30 2 N 0 1.576 0 0
M  V30 3 C 0.933 2.03868 1.02534 0
M  V30 4 C 1.911 0.928543 1.3348 0
M  V30 5 O 3.095 1.19667 1.45644 0
M  V30 6 C 0.222 2.43627 2.35294 0
M  V30 7 C -0.732 3.65373 2.2001 0
M  V30 8 S 0.101 5.13292 1.52614 0
M  V30 9 C 1.257 5.56322 2.86805 0
M  V30 10 H 1.49 2.90518 0.631377 0
M  V30 11 H -0.977 1.52953 0.210867 0
M  V30 12 H 0.981 2.67203 3.11629 0
M  V30 13 H -0.358 1.57376 2.7183 0
M  V30 14 H -1.165 3.90944 3.18086 0
M  V30 15 H -1.563 3.418 1.51819 0
M  V30 16 H 0.729 5.58782 3.83104 0
M  V30 17 H 1.672 6.56266 2.65933 0
M  V30 18 H 2.08 4.83886 2.90714 0
M  V30 19 N 1.4781 -0.272755 1.55222 0
M  V30 20 C 2.7241 -1.00172 1.77023 0
M  V30 21 C 3.0791 -1.83928 0.564633 0
M  V30 22 O 2.3721 -1.86416 -0.442674 0
M  V30 23 C 2.5661 -1.91642 3.01675 0
M  V30 24 C 2.3951 -1.16888 4.34243 0
M  V30 25 C 1.1651 -0.884464 4.97499 0
M  V30 26 C 3.3631 -0.55919 5.11251 0
M  V30 27 N 1.3451 -0.11015 6.13801 0
M  V30 28 C 2.7161 0.0809469 6.19947 0
M  V30 29 C 4.7711 -0.467058 4.95705 0
M  V30 30 C 3.4741 0.804335 7.14789 0
M  V30 31 C 5.5001 0.242739 5.90902 0
M  V30 32 C 4.8621 0.871613 6.98987 0
M  V30 33 H 0.9611 -0.348529 0.700037 0
M  V30 34 H 3.5451 -0.277365 1.92714 0
M  V30 35 H 1.7161 -2.61303 2.87359 0
M  V30 36 H 3.4481 -2.57901 3.1188 0
M  V30 37 H 0.2031 -1.18979 4.58411 0
M  V30 38 H 0.6271 0.264344 6.76484 0
M  V30 39 H 5.2691 -0.93894 4.12242 0
M  V30 40 H 2.9871 1.2879 7.97771 0
M  V30 41 H 6.5731 0.314347 5.8095 0
M  V30 42 H 5.4531 1.4121 7.71381 0
M  V30 43 N 2.9562 -1.48159 -0.537278 0
M  V30 44 C 3.9042 -1.62573 -1.66352 0
M  V30 45 C 4.8982 -0.492366 -1.62087 0
M  V30 46 O 6.1042 -0.670847 -1.67032 0
M  V30 47 H 2.4792 -0.511992 -0.550789 0
M  V30 48 H 4.4502 -2.57176 -1.51337 0
M  V30 49 C 3.1992 -1.67583 -3.04649 0
M  V30 50 H 2.5222 -2.54151 -3.08622 0
M  V30 51 H 3.9622 -1.81713 -3.83088 0
M  V30 52 C 2.4212 -0.413039 -3.34358 0
M  V30 53 O 2.9512 0.477259 -3.98855 0
M  V30 54 N 1.1572 -0.286961 -2.8918 0
M  V30 55 H 0.7042 -1.01241 -2.36871 0
M  V30 56 H 0.6622 0.556963 -3.09427 0
M  V30 57 N 4.4343 0.785586 -1.36625 0
M  V30 58 C 5.3973 1.87999 -1.31107 0
M  V30 59 C 6.3973 1.59316 -0.217959 0
M  V30 60 O 7.5873 1.67656 -0.472977 0
M  V30 61 C 4.7193 3.24861 -1.03334 0
M  V30 62 H 5.9123 1.94307 -2.2844 0
M  V30 63 H 3.4653 0.983813 -1.21453 0
M  V30 64 H 4.2003 3.24235 -0.0647432 0
M  V30 65 H 3.9853 3.4707 -1.82441 0
M  V30 66 H 5.4753 4.04929 -1.02088 0
M  V30 67 N 5.9124 1.20967 1.01018 0
M  V30 68 C 7.1404 1.04956 1.78303 0
M  V30 69 C 7.5554 -0.400915 1.84494 0
M  V30 70 O 6.9124 -1.27826 1.30257 0
M  V30 71 C 6.9634 1.63403 3.22462 0
M  V30 72 O 6.6844 3.02775 3.16637 0
M  V30 73 C 8.1854 1.52432 4.16268 0
M  V30 74 H 5.4054 0.368858 0.560522 0
M  V30 75 H 7.9494 1.60193 1.27116 0
M  V30 76 H 6.1044 1.1227 3.70775 0
M  V30 77 H 6.5184 3.30626 4.07169 0
M  V30 78 H 7.9924 1.98078 5.15237 0
M  V30 79 H 8.4694 0.477875 4.36592 0
M  V30 80 H 9.0754 2.02787 3.73841 0
M  V30 81 N 7.3905 -1.2043 1.01659 0
M  V30 82 C 8.8015 -1.71517 0.737482 0
M  V30 83 C 9.1525 -1.81547 -0.743973 0
M  V30 84 O 8.2775 -1.47803 -1.58061 0
M  V30 85 C 8.8725 -3.11515 1.33206 0
M  V30 86 C 7.4315 -3.59912 1.10183 0
M  V30 87 C 6.5785 -2.37116 1.43776 0
M  V30 88 H 9.5295 -1.05444 1.18606 0
M  V30 89 H 9.5505 -3.73575 0.722636 0
M  V30 90 H 9.0625 -3.04182 2.41028 0
M  V30 91 H 7.1635 -3.72577 0.0412756 0
M  V30 92 H 7.2765 -4.44731 1.78188 0
M  V30 93 H 5.6405 -2.39857 0.856778 0
M  V30 94 H 6.4235 -2.32424 2.52654 0
M  V30 95 N 8.8686 -0.792821 -1.36206 0
M  V30 96 C 10.0936 -0.377701 -2.03932 0
M  V30 97 C 10.5186 0.998947 -1.59382 0
M  V30 98 O 9.8766 1.64421 -0.763903 0
M  V30 99 C 9.9246 -0.453635 -3.57735 0
M  V30 100 O 9.0286 0.538151 -4.08874 0
M  V30 101 H 8.3696 -0.159855 -0.644471 0
M  V30 102 H 10.8996 -1.07488 -1.7409 0
M  V30 103 H 10.9096 -0.318464 -4.06755 0
M  V30 104 H 9.5846 -1.45784 -3.89512 0
M  V30 105 H 8.1616 0.364359 -3.71116 0
M  V30 106 N 10.3467 1.47872 -0.545128 0
M  V30 107 C 11.2567 2.33633 0.212746 0
M  V30 108 C 12.2727 1.4744 0.923983 0
M  V30 109 O 13.4487 1.80393 0.895572 0
M  V30 110 C 10.5137 3.23884 1.23693 0
M  V30 111 C 9.5747 4.25961 0.534417 0
M  V30 112 C 8.8077 5.11899 1.5098 0
M  V30 113 O 9.0307 5.00077 2.7437 0
M  V30 114 O 7.9647 5.92831 1.0409 0
M  V30 115 H 11.7907 2.99714 -0.490416 0
M  V30 116 H 9.3757 1.46235 -0.305871 0
M  V30 117 H 11.2577 3.79666 1.82843 0
M  V30 118 H 9.9327 2.60446 1.92222 0
M  V30 119 H 8.8397 3.73972 -0.0979679 0
M  V30 120 H 10.1727 4.92079 -0.109213 0
M  V30 121 N 11.8248 0.280983 1.55075 0
M  V30 122 C 12.7348 -0.61388 2.26426 0
M  V30 123 C 13.7508 -1.16521 1.29224 0
M  V30 124 O 14.9268 -1.19426 1.62171 0
M  V30 125 C 11.9918 -1.7788 2.9759 0
M  V30 126 C 11.0528 -1.26355 4.10284 0
M  V30 127 C 10.2858 -2.37295 4.78045 0
M  V30 128 O 10.5088 -3.56777 4.45047 0
M  V30 129 O 9.4428 -2.05119 5.65871 0
M  V30 130 H 13.2688 -0.0356932 3.03679 0
M  V30 131 H 10.8538 0.0481686 1.49322 0
M  V30 132 H 12.7358 -2.45791 3.42293 0
M  V30 133 H 11.4108 -2.34397 2.23249 0
M  V30 134 H 10.3178 -0.550735 3.70024 0
M  V30 135 H 11.6508 -0.744065 4.86543 0
M  V30 136 N 13.3029 -1.57598 0.00835791 0
M  V30 137 C 14.7139 -1.7892 -0.53333 0
M  V30 138 C 15.0649 -0.916609 -1.73473 0
M  V30 139 O 14.1899 -0.121336 -2.1606 0
M  V30 140 C 14.7849 -3.24488 -0.974313 0
M  V30 141 C 13.3439 -3.46878 -1.46125 0
M  V30 142 C 12.4909 -2.74157 -0.416302 0
M  V30 143 H 15.4419 -1.56958 0.234495 0
M  V30 144 H 15.4629 -3.3306 -1.83988 0
M  V30 145 H 14.9749 -3.87972 -0.099718 0
M  V30 146 H 13.0759 -2.8862 -2.35646 0
M  V30 147 H 13.1889 -4.55572 -1.48295 0
M  V30 148 H 11.5529 -2.39022 -0.87981 0
M  V30 149 H 12.3359 -3.40345 0.44947 0
M  V30 150 N 14.781 0.264519 -1.55364 0
M  V30 151 C 16.029 0.993021 -1.76021 0
M  V30 152 C 16.35 1.86511 -0.569099 0
M  V30 153 O 15.62 1.91438 0.415735 0
M  V30 154 H 14.2 0.369639 -0.649135 0
M  V30 155 H 16.862 0.286707 -1.9278 0
M  V30 156 H 15.958 1.62502 -2.66457 0
M  V30 157 N 16.2591 1.48442 0.529413 0
M  V30 158 C 17.5061 1.56488 1.28521 0
M  V30 159 C 17.8341 0.239042 1.93025 0
M  V30 160 O 17.0891 -0.770713 1.79885 0
M  V30 161 C 17.3881 2.6523 2.39558 0
M  V30 162 C 17.0541 4.07648 1.92702 0
M  V30 163 C 15.7161 4.46411 1.79641 0
M  V30 164 C 18.0681 4.96896 1.573 0
M  V30 165 C 15.3961 5.72226 1.29514 0
M  V30 166 C 17.7481 6.23202 1.08636 0
M  V30 167 C 16.4121 6.60821 0.941919 0
M  V30 168 H 15.6821 0.572631 0.470292 0
M  V30 169 H 18.3291 1.82161 0.59072 0
M  V30 170 H 16.6341 2.33419 3.14679 0
M  V30 171 H 18.3311 2.68671 2.97686 0
M  V30 172 H 14.9211 3.77036 2.03819 0
M  V30 173 H 19.1051 4.67626 1.66251 0
M  V30 174 H 14.3611 6.00097 1.17019 0
M  V30 175 H 18.5351 6.91753 0.803136 0
M  V30 176 H 16.1621 7.58198 0.5513 0
M  V30 177 N 17.7372 -0.778329 1.37039 0
M  V30 178 C 18.6852 -1.91278 1.32345 0
M  V30 179 C 19.6792 -1.68051 0.213331 0
M  V30 180 O 20.8852 -1.75922 0.38098 0
M  V30 181 H 17.2602 -0.628909 0.412283 0
M  V30 182 H 19.2312 -1.92355 2.28127 0
M  V30 183 C 17.9802 -3.28455 1.14073 0
M  V30 184 H 17.3032 -3.46901 1.98746 0
M  V30 185 H 18.7432 -4.08152 1.14837 0
M  V30 186 C 17.2022 -3.36548 -0.154015 0
M  V30 187 O 17.7322 -3.85186 -1.13993 0
M  V30 188 N 15.9382 -2.89894 -0.202475 0
M  V30 189 H 15.4852 -2.50504 0.600476 0
M  V30 190 H 15.4432 -2.9569 -1.06841 0
M  V30 191 N 19.2153 -1.21501 -1.00376 0
M  V30 192 C 20.1453 -0.999478 -2.11028 0
M  V30 193 C 21.1263 0.0759671 -1.6993 0
M  V30 194 O 22.3113 -0.0841106 -1.94018 0
M  V30 195 C 19.4413 -0.564709 -3.42678 0
M  V30 196 C 18.3953 -1.58486 -3.97576 0
M  V30 197 C 17.7213 -1.00628 -5.25146 0
M  V30 198 C 19.0213 -2.97204 -4.29496 0
M  V30 199 H 20.7153 -1.92495 -2.29317 0
M  V30 200 H 18.2613 -0.92693 -1.102 0
M  V30 201 H 20.2143 -0.401091 -4.19487 0
M  V30 202 H 18.9383 0.396411 -3.24185 0
M  V30 203 H 17.5973 -1.73606 -3.22888 0
M  V30 204 H 17.2453 -0.0368439 -5.02987 0
M  V30 205 H 16.9453 -1.68771 -5.62841 0
M  V30 206 H 18.4693 -0.854015 -6.04598 0
M  V30 207 H 19.8833 -2.8552 -4.97143 0
M  V30 208 H 18.2803 -3.62372 -4.78338 0
M  V30 209 H 19.3503 -3.47956 -3.3772 0
M  V30 210 N 20.6934 1.19889 -1.02296 0
M  V30 211 C 21.9214 1.9339 -0.735399 0
M  V30 212 C 22.3364 1.75148 0.704887 0
M  V30 213 O 21.6934 1.06954 1.47875 0
M  V30 214 C 21.7444 3.45313 -1.06962 0
M  V30 215 O 21.4654 3.62964 -2.45334 0
M  V30 216 C 22.9664 4.35948 -0.804021 0
M  V30 217 H 20.1864 0.61448 -0.269546 0
M  V30 218 H 22.7304 1.522 -1.36585 0
M  V30 219 H 20.8854 3.84359 -0.484455 0
M  V30 220 H 21.2994 4.56886 -2.57595 0
M  V30 221 H 22.7734 5.41174 -1.0879 0
M  V30 222 H 23.2504 4.3842 0.261691 0
M  V30 223 H 23.8564 4.02574 -1.37164 0
M  V30 224 N 22.1715 0.800033 1.35784 0
M  V30 225 C 23.1015 0.220184 2.3246 0
M  V30 226 C 24.0825 -0.65073 1.57161 0
M  V30 227 O 25.2675 -0.582359 1.85263 0
M  V30 228 C 22.3975 -0.637353 3.41402 0
M  V30 229 C 21.3515 0.134531 4.27789 0
M  V30 230 C 20.6775 -0.844285 5.27992 0
M  V30 231 C 21.9775 1.32979 5.05088 0
M  V30 232 H 23.6715 1.02787 2.81203 0
M  V30 233 H 21.2175 0.495717 1.35199 0
M  V30 234 H 23.1705 -1.05302 4.08031 0
M  V30 235 H 21.8945 -1.47785 2.91251 0
M  V30 236 H 20.5535 0.531296 3.6273 0
M  V30 237 H 20.2015 -1.68011 4.74111 0
M  V30 238 H 19.9015 -0.332184 5.8666 0
M  V30 239 H 21.4255 -1.2583 5.97494 0
M  V30 240 H 22.8395 0.98934 5.64699 0
M  V30 241 H 21.2365 1.77593 5.7322 0
M  V30 242 H 22.3065 2.11978 4.36111 0
M  V30 243 N 23.6496 -1.47581 0.552962 0
M  V30 244 C 24.6126 -2.28439 -0.186605 0
M  V30 245 C 25.6126 -1.36706 -0.84665 0
M  V30 246 O 26.8026 -1.59378 -0.703164 0
M  V30 247 C 23.9346 -3.16264 -1.2724 0
M  V30 248 H 25.1276 -2.95294 0.523609 0
M  V30 249 H 22.6806 -1.532 0.309745 0
M  V30 250 H 23.4156 -2.54091 -2.01514 0
M  V30 251 H 23.2006 -3.83769 -0.803968 0
M  V30 252 H 24.6906 -3.77198 -1.79196 0
M  V30 253 N 25.1277 -0.289203 -1.54924 0
M  V30 254 C 26.4047 0.376032 -1.91951 0
M  V30 255 C 26.7847 1.72622 -1.21511 0
M  V30 256 O 26.1327 2.25853 -0.346767 0
M  V30 257 C 26.3427 0.502378 -3.45365 0
M  V30 258 C 27.6907 0.778741 -4.17398 0
M  V30 259 O 28.7147 0.586647 -3.51336 0
M  V30 260 O 27.5737 1.14698 -5.34328 0
M  V30 261 H 24.6677 0.208167 -0.800372 0
M  V30 262 H 27.2137 -0.336394 -1.66332 0
M  V30 263 H 25.9857 -0.447255 -3.88736 0
M  V30 264 H 25.6087 1.26373 -3.76982 0
M  V30 265 N 26.6058 1.57591 -0.0167156 0
M  V30 266 C 27.5358 2.12496 0.967858 0
M  V30 267 C 28.5168 1.03807 1.34752 0
M  V30 268 O 29.7018 1.31577 1.42833 0
M  V30 269 C 26.8318 2.64194 2.25431 0
M  V30 270 C 25.7858 3.77559 2.01576 0
M  V30 271 C 25.1118 4.15636 3.36379 0
M  V30 272 C 26.4118 5.04151 1.36489 0
M  V30 273 H 28.1058 2.95013 0.510643 0
M  V30 274 H 25.6518 1.41915 0.244181 0
M  V30 275 H 27.6048 3.01236 2.94678 0
M  V30 276 H 26.3288 1.78821 2.73296 0
M  V30 277 H 24.9878 3.40937 1.34751 0
M  V30 278 H 24.6358 3.27263 3.81979 0
M  V30 279 H 24.3358 4.92022 3.21229 0
M  V30 280 H 25.8598 4.5525 4.06915 0
M  V30 281 H 27.2738 5.38857 1.95718 0
M  V30 282 H 25.6708 5.85453 1.31776 0
M  V30 283 H 26.7408 4.83733 0.336219 0
M  V30 284 N 28.0839 -0.256276 1.55502 0
M  V30 285 C 29.3609 -1.00789 1.67633 0
M  V30 286 C 29.7409 -2.03706 0.553826 0
M  V30 287 O 29.0889 -2.24145 -0.443969 0
M  V30 288 C 29.2989 -1.64968 3.07549 0
M  V30 289 C 30.6469 -2.15505 3.65845 0
M  V30 290 O 31.6709 -1.74925 3.1029 0
M  V30 291 O 30.5299 -2.89986 4.63217 0
M  V30 292 H 27.6239 -0.468553 0.681459 0
M  V30 293 H 30.1699 -0.250806 1.67836 0
M  V30 294 H 28.9419 -0.904785 3.80696 0
M  V30 295 H 28.5649 -2.47321 3.11317 0
M  V30 296 N 29.562 -1.4872 -0.521534 0
M  V30 297 C 30.808 -1.58378 -1.27624 0
M  V30 298 C 31.163 -0.258028 -1.90662 0
M  V30 299 O 30.456 0.739917 -1.76736 0
M  V30 300 C 30.65 -2.66497 -2.38148 0
M  V30 301 C 30.479 -4.09456 -1.85945 0
M  V30 302 C 29.249 -4.76495 -1.68168 0
M  V30 303 C 31.447 -4.95353 -1.3831 0
M  V30 304 N 29.429 -6.0384 -1.1068 0
M  V30 305 C 30.8 -6.13012 -0.928238 0
M  V30 306 C 32.855 -4.81512 -1.26692 0
M  V30 307 C 31.558 -7.18354 -0.368701 0
M  V30 308 C 33.584 -5.86984 -0.721368 0
M  V30 309 C 32.946 -7.03857 -0.276623 0
M  V30 310 H 29.045 -0.634045 -0.457724 0
M  V30 311 H 31.629 -1.85639 -0.587049 0
M  V30 312 H 29.8 -2.41043 -3.04553 0
M  V30 313 H 31.532 -2.65791 -3.05184 0
M  V30 314 H 28.287 -4.32962 -1.91939 0
M  V30 315 H 28.711 -6.71778 -0.839217 0
M  V30 316 H 33.353 -3.91487 -1.5968 0
M  V30 317 H 31.071 -8.08096 -0.0265122 0
M  V30 318 H 34.657 -5.78329 -0.634531 0
M  V30 319 H 33.537 -7.84077 0.138947 0
M  V30 320 N 31.0401 0.771051 -1.3745 0
M  V30 321 C 32.3171 1.519 -1.23231 0
M  V30 322 C 32.6971 2.10383 0.173809 0
M  V30 323 O 32.0451 1.95583 1.18151 0
M  V30 324 C 32.2551 2.59933 -2.32886 0
M  V30 325 C 33.6031 3.27316 -2.70461 0
M  V30 326 O 34.6271 2.70228 -2.32068 0
M  V30 327 O 33.4861 4.30531 -3.36608 0
M  V30 328 H 30.5801 0.672803 -0.480901 0
M  V30 329 H 33.1261 0.807957 -1.49232 0
M  V30 330 H 31.8981 2.14842 -3.27045 0
M  V30 331 H 31.5211 3.38637 -2.08353 0
M  V30 332 N 32.5182 1.22032 0.997298 0
M  V30 333 C 33.4812 0.987909 2.06816 0
M  V30 334 C 34.4812 -0.0440084 1.6074 0
M  V30 335 O 35.6712 0.194053 1.73116 0
M  V30 336 C 32.8032 0.49132 3.37341 0
M  V30 337 H 33.9962 1.93803 2.28868 0
M  V30 338 H 31.5492 1.03838 1.16822 0
M  V30 339 H 32.2842 -0.463364 3.20973 0
M  V30 340 H 32.0692 1.23575 3.72118 0
M  V30 341 H 33.5592 0.348824 4.16141 0
M  V30 342 N 33.9963 -1.19345 1.0293 0
M  V30 343 C 35.2213 -1.93538 0.745511 0
M  V30 344 C 35.6463 -1.75007 -0.689511 0
M  V30 345 O 35.0043 -1.05265 -1.47611 0
M  V30 346 C 35.0523 -3.43336 1.10239 0
M  V30 347 O 34.1563 -4.11806 0.221289 0
M  V30 348 H 33.4973 -0.604193 0.275404 0
M  V30 349 H 36.0273 -1.5141 1.37609 0
M  V30 350 H 36.0373 -3.94004 1.05947 0
M  V30 351 H 34.7123 -3.56146 2.14786 0
M  V30 352 H 33.2893 -3.715 0.322842 0
M  V30 353 N 35.4744 -0.807222 -1.35358 0
M  V30 354 C 36.8854 -0.44876 -1.81226 0
M  V30 355 C 37.2364 1.02929 -1.67033 0
M  V30 356 O 36.3614 1.79991 -1.20133 0
M  V30 357 C 36.9564 -0.807774 -3.2903 0
M  V30 358 C 35.5154 -0.501901 -3.73039 0
M  V30 359 C 34.6624 -1.03304 -2.57339 0
M  V30 360 H 37.6134 -0.998808 -1.23327 0
M  V30 361 H 37.6344 -0.10554 -3.80354 0
M  V30 362 H 37.1464 -1.88357 -3.39328 0
M  V30 363 H 35.2474 0.565128 -3.68289 0
M  V30 364 H 35.3604 -1.03497 -4.67787 0
M  V30 365 H 33.7244 -0.455339 -2.50597 0
M  V30 366 H 34.5074 -2.11496 -2.70415 0
M  V30 367 N 36.9525 1.47285 -0.560781 0
M  V30 368 C 38.2005 2.02064 -0.0379868 0
M  V30 369 C 38.5215 1.43711 1.31803 0
M  V30 370 O 37.7915 0.61362 1.86042 0
M  V30 371 H 36.3715 0.746918 -0.0110531 0
M  V30 372 H 39.0335 1.80648 -0.731598 0
M  V30 373 H 38.1295 3.12064 0.0474463 0
M  V30 374 N 38.4306 0.297415 1.54768 0
M  V30 375 C 39.3786 -0.596051 2.24833 0
M  V30 376 C 40.3726 -1.13992 1.25308 0
M  V30 377 O 41.5786 -1.09098 1.4317 0
M  V30 378 H 37.9536 -0.210814 0.721846 0
M  V30 379 H 39.9246 0.0174667 2.98395 0
M  V30 380 C 38.6736 -1.75818 2.99972 0
M  V30 381 H 37.9966 -1.3489 3.76357 0
M  V30 382 H 39.4366 -2.35949 3.52284 0
M  V30 383 C 37.8956 -2.66014 2.06732 0
M  V30 384 O 38.4256 -3.67009 1.63302 0
M  V30 385 N 36.6316 -2.33669 1.72763 0
M  V30 386 H 36.1786 -1.51586 2.08277 0
M  V30 387 H 36.1366 -2.94285 1.10652 0
M  V30 388 N 39.9087 -1.5758 0.0250728 0
M  V30 389 C 41.1857 -1.82917 -0.692873 0
M  V30 390 C 41.5657 -0.908137 -1.90568 0
M  V30 391 O 40.9137 0.0372298 -2.2847 0
M  V30 392 C 41.1237 -3.32034 -1.07492 0
M  V30 393 C 42.4717 -3.98406 -1.46826 0
M  V30 394 O 43.4957 -3.36505 -1.16801 0
M  V30 395 O 42.3547 -5.07497 -2.02754 0
M  V30 396 H 39.4487 -0.754079 -0.33955 0
M  V30 397 H 41.9947 -1.69619 0.0524456 0
M  V30 398 H 40.7667 -3.90728 -0.211552 0
M  V30 399 H 40.3897 -3.50424 -1.87854 0
M  V30 400 N 41.3868 0.248026 -1.55636 0
M  V30 401 C 42.6118 0.998028 -1.81808 0
M  V30 402 C 43.0368 1.78207 -0.601979 0
M  V30 403 O 42.3948 1.75653 0.448961 0
M  V30 404 C 42.4428 1.9125 -3.05705 0
M  V30 405 O 41.5468 3.00406 -2.82542 0
M  V30 406 H 40.8878 0.284045 -0.600179 0
M  V30 407 H 43.4178 0.269357 -2.02819 0
M  V30 408 H 43.4278 2.32737 -3.35108 0
M  V30 409 H 42.1028 1.33602 -3.93857 0
M  V30 410 H 40.6798 2.63056 -2.64303 0
M  V30 411 N 42.8649 1.48995 0.513639 0
M  V30 412 C 43.7949 1.67636 1.62544 0
M  V30 413 C 44.7759 0.525087 1.61793 0
M  V30 414 O 45.9609 0.759502 1.78732 0
M  V30 415 C 43.0909 1.73114 3.01079 0
M  V30 416 C 42.0449 2.87905 3.16693 0
M  V30 417 C 41.3709 2.78486 4.56453 0
M  V30 418 C 42.6709 4.29005 2.97913 0
M  V30 419 H 44.3649 2.60716 1.47198 0
M  V30 420 H 41.9109 1.25465 0.706714 0
M  V30 421 H 43.8639 1.84742 3.78746 0
M  V30 422 H 42.5879 0.766241 3.17484 0
M  V30 423 H 41.2469 2.75859 2.41448 0
M  V30 424 H 40.8949 1.7993 4.69717 0
M  V30 425 H 40.5949 3.55523 4.67843 0
M  V30 426 H 42.1189 2.92104 5.36197 0
M  V30 427 H 43.5329 4.41798 3.65359 0
M  V30 428 H 41.9299 5.07166 3.20785 0
M  V30 429 H 42.9999 4.44329 1.94165 0
M  V30 430 N 44.343 -0.763751 1.37857 0
M  V30 431 C 45.591 -1.51957 1.33243 0
M  V30 432 C 45.912 -1.94835 -0.0801709 0
M  V30 433 O 45.182 -1.66894 -1.02582 0
M  V30 434 H 43.762 -0.563626 0.49024 0
M  V30 435 H 46.424 -0.908504 1.7243 0
M  V30 436 H 45.52 -2.41523 1.97669 0
M  V30 437 N 45.8211 -1.22559 -0.990812 0
M  V30 438 C 47.0981 -0.959875 -1.70428 0
M  V30 439 C 47.4781 0.524455 -2.04481 0
M  V30 440 O 46.8261 1.49302 -1.72977 0
M  V30 441 C 47.0361 -1.85955 -2.95333 0
M  V30 442 C 48.3841 -2.11687 -3.68068 0
M  V30 443 O 49.4081 -1.8342 -3.05345 0
M  V30 444 O 48.2671 -2.59572 -4.80921 0
M  V30 445 H 45.3611 -0.361154 -0.743974 0
M  V30 446 H 47.9071 -1.33554 -1.04697 0
M  V30 447 H 46.6791 -2.86346 -2.66687 0
M  V30 448 H 46.3021 -1.4856 -3.68803 0
M  V30 449 N 47.2992 1.18797 -1.03562 0
M  V30 450 C 48.2092 2.25913 -0.632505 0
M  V30 451 C 49.2252 1.70668 0.338882 0
M  V30 452 O 50.4012 2.00453 0.195076 0
M  V30 453 C 47.4662 3.467 0.00350942 0
M  V30 454 C 46.5272 4.17098 -1.01624 0
M  V30 455 C 45.7602 5.32119 -0.410478 0
M  V30 456 O 45.9832 5.64976 0.784725 0
M  V30 457 O 44.9172 5.9107 -1.13667 0
M  V30 458 H 48.7432 2.62648 -1.52478 0
M  V30 459 H 46.3282 1.25781 -0.806195 0
M  V30 460 H 48.2102 4.19878 0.35781 0
M  V30 461 H 46.8852 3.11798 0.869686 0
M  V30 462 H 45.7922 3.4601 -1.42224 0
M  V30 463 H 47.1252 4.55987 -1.85301 0
M  V30 464 N 48.7773 0.814389 1.34928 0
M  V30 465 C 49.7073 0.244827 2.32213 0
M  V30 466 C 50.6883 -0.634024 1.57842 0
M  V30 467 O 51.8733 -0.562676 1.8587 0
M  V30 468 C 49.0033 -0.601106 3.42058 0
M  V30 469 C 47.9573 0.179896 4.27622 0
M  V30 470 C 47.2833 -0.788237 5.28858 0
M  V30 471 C 48.5833 1.38329 5.03649 0
M  V30 472 H 50.2773 1.05763 2.80097 0
M  V30 473 H 47.8233 0.510029 1.34665 0
M  V30 474 H 49.7763 -1.00968 4.09125 0
M  V30 475 H 48.5003 -1.44688 2.92802 0
M  V30 476 H 47.1593 0.569739 3.62146 0
M  V30 477 H 46.8073 -1.62973 4.75866 0
M  V30 478 H 46.5073 -0.269942 5.8698 0
M  V30 479 H 48.0313 -1.19485 5.98795 0
M  V30 480 H 49.4453 1.04918 5.63618 0
M  V30 481 H 47.8423 1.83662 5.71304 0
M  V30 482 H 48.9123 2.16592 4.33839 0
M  V30 483 N 50.2554 -1.46986 0.568584 0
M  V30 484 C 51.1854 -2.32946 -0.160753 0
M  V30 485 C 52.1664 -1.44487 -0.897631 0
M  V30 486 O 53.3514 -1.73327 -0.875867 0
M  V30 487 C 50.4814 -3.26494 -1.18403 0
M  V30 488 C 49.4354 -4.24282 -0.562895 0
M  V30 489 C 48.7614 -5.07236 -1.69163 0
M  V30 490 C 50.0614 -5.19989 0.490761 0
M  V30 491 H 51.7554 -2.94175 0.556916 0
M  V30 492 H 49.3014 -1.4146 0.26927 0
M  V30 493 H 51.2544 -3.85477 -1.70251 0
M  V30 494 H 49.9784 -2.63343 -1.93179 0
M  V30 495 H 48.6374 -3.66541 -0.0656164 0
M  V30 496 H 48.2854 -4.4048 -2.42871 0
M  V30 497 H 47.9854 -5.7345 -1.28174 0
M  V30 498 H 49.5094 -5.6908 -2.21314 0
M  V30 499 H 50.9234 -5.73271 0.0579047 0
M  V30 500 H 49.3204 -5.94469 0.820165 0
M  V30 501 H 50.3904 -4.64777 1.3824 0
M  V30 502 N 51.7335 -0.305618 -1.54608 0
M  V30 503 C 52.6655 0.602161 -2.21149 0
M  V30 504 C 53.6785 1.09394 -1.20569 0
M  V30 505 O 54.8675 1.0106 -1.47136 0
M  V30 506 C 51.9675 1.83692 -2.84799 0
M  V30 507 C 51.1405 1.48686 -4.11353 0
M  V30 508 C 50.1995 2.57725 -4.58764 0
M  V30 509 O 49.2255 2.22623 -5.23858 0
M  V30 510 N 50.4275 3.88346 -4.31471 0
M  V30 511 H 53.1925 0.0324966 -2.99682 0
M  V30 512 H 50.7535 -0.128021 -1.61393 0
M  V30 513 H 52.7455 2.55994 -3.13448 0
M  V30 514 H 51.3155 2.31486 -2.10078 0
M  V30 515 H 50.5355 0.596269 -3.89664 0
M  V30 516 H 51.8235 1.22842 -4.93748 0
M  V30 517 H 51.2215 4.19671 -3.79331 0
M  V30 518 H 49.7785 4.56932 -4.64818 0
M  V30 519 N 53.2116 1.57565 -0.0334293 0
M  V30 520 C 54.1416 2.13511 0.945265 0
M  V30 521 C 55.1226 1.05231 1.33643 0
M  V30 522 O 56.3076 1.33084 1.41429 0
M  V30 523 C 53.4376 2.6657 2.22616 0
M  V30 524 C 52.3916 3.79676 1.97561 0
M  V30 525 C 51.7176 4.1918 3.31952 0
M  V30 526 C 53.0176 5.0557 1.31135 0
M  V30 527 H 54.7116 2.95538 0.479325 0
M  V30 528 H 52.2576 1.42166 0.229115 0
M  V30 529 H 54.2106 3.04344 2.91466 0
M  V30 530 H 52.9346 1.8171 2.71384 0
M  V30 531 H 51.5936 3.42347 1.31127 0
M  V30 532 H 51.2416 3.31296 3.78487 0
M  V30 533 H 50.9416 4.95402 3.15992 0
M  V30 534 H 52.4656 4.59541 4.02063 0
M  V30 535 H 53.8796 5.40903 1.89992 0
M  V30 536 H 52.2766 5.86818 1.25559 0
M  V30 537 H 53.3466 4.84062 0.284894 0
M  V30 538 N 54.6897 -0.239769 1.55765 0
M  V30 539 C 55.9367 -0.966801 1.7793 0
M  V30 540 C 56.2647 -1.85046 0.599015 0
M  V30 541 O 55.5197 -1.91197 -0.417395 0
M  V30 542 C 55.8187 -1.852 3.05672 0
M  V30 543 C 55.4847 -1.1231 4.36689 0
M  V30 544 C 54.1467 -0.921689 4.72291 0
M  V30 545 C 56.4987 -0.607019 5.17653 0
M  V30 546 C 53.8267 -0.191996 5.86386 0
M  V30 547 C 56.1787 0.109241 6.32506 0
M  V30 548 C 54.8427 0.322073 6.66723 0
M  V30 549 H 54.1127 -0.353778 0.651093 0
M  V30 550 H 56.7597 -0.23634 1.90036 0
M  V30 551 H 55.0647 -2.64975 2.8861 0
M  V30 552 H 56.7617 -2.41635 3.20021 0
M  V30 553 H 53.3517 -1.29004 4.08725 0
M  V30 554 H 57.5357 -0.750153 4.90598 0
M  V30 555 H 52.7917 -0.0166949 6.11398 0
M  V30 556 H 56.9657 0.516737 6.9448 0
M  V30 557 H 54.5927 0.88944 7.54979 0
M  V30 558 N 56.1678 -1.49265 -0.50573 0
M  V30 559 C 57.5788 -1.51769 -1.08734 0
M  V30 560 C 57.9298 -0.301192 -1.93874 0
M  V30 561 O 57.0548 0.589456 -2.08217 0
M  V30 562 C 57.6498 -2.75017 -1.97867 0
M  V30 563 C 56.2088 -2.80314 -2.51199 0
M  V30 564 C 55.3558 -2.4562 -1.28709 0
M  V30 565 H 58.3068 -1.56031 -0.289855 0
M  V30 566 H 58.3278 -2.5491 -2.82491 0
M  V30 567 H 57.8398 -3.63539 -1.35873 0
M  V30 568 H 55.9408 -1.96061 -3.16845 0
M  V30 569 H 56.0538 -3.82366 -2.88675 0
M  V30 570 H 54.4178 -1.97297 -1.61078 0
M  V30 571 H 55.2008 -3.36411 -0.6843 0
M  V30 572 N 57.6459 0.756429 -1.3826 0
M  V30 573 C 58.6089 1.85176 -1.35065 0
M  V30 574 C 59.6089 1.58818 -0.251703 0
M  V30 575 O 60.7989 1.66615 -0.508433 0
M  V30 576 C 57.9309 3.22596 -1.10201 0
M  V30 577 H 59.1239 1.89417 -2.3251 0
M  V30 578 H 56.6769 0.95783 -1.23512 0
M  V30 579 H 57.4119 3.24025 -0.133504 0
M  V30 580 H 57.1969 3.43122 -1.89762 0
M  V30 581 H 58.6869 4.02673 -1.10654 0
M  V30 582 N 59.124 1.23083 0.984299 0
M  V30 583 C 60.535 1.05609 1.5396 0
M  V30 584 C 60.886 -0.377793 1.92528 0
M  V30 585 O 60.011 -1.26398 1.75649 0
M  V30 586 C 60.606 1.91087 2.7977 0
M  V30 587 C 59.165 1.77885 3.31713 0
M  V30 588 C 58.312 1.87028 2.04733 0
M  V30 589 H 61.263 1.36802 0.804419 0
M  V30 590 H 61.284 1.43336 3.5247 0
M  V30 591 H 60.796 2.9544 2.51668 0
M  V30 592 H 58.897 0.762995 3.64704 0
M  V30 593 H 59.01 2.61047 4.01735 0
M  V30 594 H 57.374 1.30565 2.18689 0
M  V30 595 H 58.157 2.92929 1.79017 0
M  V30 596 N 60.6021 -1.18246 1.0419 0
M  V30 597 C 61.5321 -2.24127 0.654914 0
M  V30 598 C 62.5131 -1.66617 -0.342451 0
M  V30 599 O 63.6981 -1.92924 -0.222277 0
M  V30 600 C 60.8281 -3.47295 0.0183757 0
M  V30 601 C 59.7821 -4.17563 0.939414 0
M  V30 602 C 59.1081 -5.34438 0.167286 0
M  V30 603 C 60.4081 -4.70917 2.25908 0
M  V30 604 H 62.1021 -2.56753 1.54007 0
M  V30 605 H 59.6481 -1.23414 0.74195 0
M  V30 606 H 61.6011 -4.20572 -0.264082 0
M  V30 607 H 60.3251 -3.13907 -0.901664 0
M  V30 608 H 58.9841 -3.46186 1.20628 0
M  V30 609 H 58.6321 -4.97298 -0.7552 0
M  V30 610 H 58.3321 -5.82388 0.780901 0
M  V30 611 H 59.8561 -6.10504 -0.108125 0
M  V30 612 H 61.2701 -5.35882 2.03724 0
M  V30 613 H 59.6671 -5.29406 2.82577 0
M  V30 614 H 60.7371 -3.88272 2.9047 0
M  V30 615 N 62.0802 -0.821533 -1.34494 0
M  V30 616 C 63.0102 -0.257138 -2.3208 0
M  V30 617 C 63.9912 0.625645 -1.58176 0
M  V30 618 O 65.1762 0.552811 -1.86166 0
M  V30 619 C 62.3062 0.582958 -3.42372 0
M  V30 620 C 61.2602 -0.202571 -4.2752 0
M  V30 621 C 60.5862 0.760179 -5.29269 0
M  V30 622 C 61.8862 -1.40998 -5.02908 0
M  V30 623 H 63.5802 -1.07247 -2.79532 0
M  V30 624 H 61.1262 -0.517163 -1.34393 0
M  V30 625 H 63.0792 0.987972 -4.09655 0
M  V30 626 H 61.8032 1.43133 -2.93565 0
M  V30 627 H 60.4622 -0.588936 -3.61838 0
M  V30 628 H 60.1102 1.60447 -4.76724 0
M  V30 629 H 59.8102 0.238809 -5.87115 0
M  V30 630 H 61.3342 1.16308 -5.9942 0
M  V30 631 H 62.7482 -1.07905 -5.63054 0
M  V30 632 H 61.1452 -1.86689 -5.70322 0
M  V30 633 H 62.2152 -2.1889 -4.32684 0
M  V30 634 N 63.5583 1.46682 -0.576371 0
M  V30 635 C 64.5213 2.28707 0.150239 0
M  V30 636 C 65.5213 1.38035 0.824794 0
M  V30 637 O 66.7113 1.60476 0.677719 0
M  V30 638 C 63.8433 3.18248 1.22192 0
M  V30 639 H 65.0363 2.94423 -0.570521 0
M  V30 640 H 62.5893 1.52688 -0.334078 0
M  V30 641 H 63.3243 2.57265 1.97447 0
M  V30 642 H 63.1093 3.85 0.742812 0
M  V30 643 H 64.5993 3.80001 1.73172 0
M  V30 644 N 65.0364 0.313813 1.54444 0
M  V30 645 C 66.2844 -0.291099 1.99993 0
M  V30 646 C 66.6054 -1.53418 1.20366 0
M  V30 647 O 65.8754 -1.93544 0.302927 0
M  V30 648 H 64.4554 -0.110552 0.738774 0
M  V30 649 H 67.1174 0.428106 1.9014 0
M  V30 650 H 66.2134 -0.554268 3.07139 0
M  V30 651 N 66.5145 -1.57545 0.0417849 0
M  V30 652 C 67.7605 -1.92601 -0.635021 0
M  V30 653 C 68.0935 -0.919627 -1.71045 0
M  V30 654 O 67.3685 0.0557892 -1.9442 0
M  V30 655 C 67.6515 -3.38085 -1.23979 0
M  V30 656 C 67.5045 -4.49467 -0.173057 0
M  V30 657 C 68.8235 -3.83776 -2.15416 0
M  V30 658 H 65.9425 -0.700397 -0.229374 0
M  V30 659 H 68.5845 -1.89728 0.101633 0
M  V30 660 H 66.7345 -3.40664 -1.86762 0
M  V30 661 H 68.4065 -4.59018 0.458312 0
M  V30 662 H 66.6495 -4.30909 0.499996 0
M  V30 663 H 67.3205 -5.48323 -0.636054 0
M  V30 664 H 69.7965 -3.83013 -1.62605 0
M  V30 665 H 68.6725 -4.8624 -2.54679 0
M  V30 666 H 68.9335 -3.19998 -3.05047 0
M  V30 667 N 67.9926 0.231505 -1.5589 0
M  V30 668 C 69.2206 0.974505 -1.82513 0
M  V30 669 C 69.6356 1.78344 -0.619591 0
M  V30 670 O 68.9926 1.77792 0.411848 0
M  V30 671 C 69.0436 1.90007 -3.07538 0
M  V30 672 O 68.7646 1.12385 -4.2344 0
M  V30 673 C 70.2656 2.75779 -3.47075 0
M  V30 674 H 67.4856 0.286065 -0.606966 0
M  V30 675 H 70.0296 0.249739 -2.02969 0
M  V30 676 H 68.1846 2.57891 -2.89086 0
M  V30 677 H 68.5986 1.75125 -4.944 0
M  V30 678 H 70.0726 3.36443 -4.37619 0
M  V30 679 H 70.5496 3.47672 -2.68367 0
M  V30 680 H 71.1556 2.13323 -3.67931 0
M  V30 681 N 69.4707 1.49531 0.497807 0
M  V30 682 C 70.4337 1.65916 1.58128 0
M  V30 683 C 71.4337 0.530825 1.51786 0
M  V30 684 O 72.6237 0.797342 1.54881 0
M  V30 685 C 69.7557 1.65951 2.9778 0
M  V30 686 H 70.9487 2.62556 1.44929 0
M  V30 687 H 68.5017 1.38611 0.722275 0
M  V30 688 H 69.2367 0.709065 3.16453 0
M  V30 689 H 69.0217 2.47897 3.03792 0
M  V30 690 H 70.5117 1.80673 3.76493 0
M  V30 691 N 70.9488 -0.749086 1.3866 0
M  V30 692 C 72.1768 -1.53834 1.38358 0
M  V30 693 C 72.5918 -1.88783 -0.0255219 0
M  V30 694 O 71.9488 -1.53101 -0.993292 0
M  V30 695 C 71.9998 -2.83468 2.2434 0
M  V30 696 O 71.7208 -2.50008 3.5976 0
M  V30 697 C 73.2218 -3.7758 2.32267 0
M  V30 698 H 70.4418 -0.47585 0.473083 0
M  V30 699 H 72.9858 -0.926726 1.82297 0
M  V30 700 H 71.1408 -3.40995 1.83851 0
M  V30 701 H 71.5548 -3.33182 4.05081 0
M  V30 702 H 73.0288 -4.65478 2.96706 0
M  V30 703 H 73.5058 -4.18334 1.33765 0
M  V30 704 H 74.1118 -3.25976 2.73166 0
M  V30 705 N 72.4269 -1.23603 -0.977757 0
M  V30 706 C 73.6669 -1.08148 -1.73446 0
M  V30 707 C 74.0309 0.374785 -1.88307 0
M  V30 708 O 75.2319 0.650588 -2.60808 0
M  V30 709 C 73.5029 -1.78991 -3.0935 0
M  V30 710 S 75.0619 -1.79141 -4.00567 0
M  V30 711 H 71.8799 -0.386987 -0.596458 0
M  V30 712 H 74.4819 -1.5678 -1.16792 0
M  V30 713 H 73.1859 -2.8408 -2.96187 0
M  V30 714 H 72.7169 -1.30651 -3.71071 0
M  V30 715 H 74.7319 -0.851892 -4.88833 0
M  V30 716 N 73.905 1.17692 -1.04816 0
M  V30 717 C 75.151 1.88137 -0.75711 0
M  V30 718 C 75.484 1.80604 0.713841 0
M  V30 719 O 74.759 1.21146 1.52164 0
M  V30 720 C 75.042 3.38318 -1.2334 0
M  V30 721 C 74.895 3.54622 -2.76701 0
M  V30 722 C 76.214 4.32214 -0.829415 0
M  V30 723 H 73.333 0.683163 -0.27651 0
M  V30 724 H 75.975 1.38424 -1.30149 0
M  V30 725 H 74.125 3.80787 -0.770286 0
M  V30 726 H 75.797 3.21194 -3.31107 0
M  V30 727 H 74.04 2.97026 -3.16161 0
M  V30 728 H 74.711 4.60028 -3.05088 0
M  V30 729 H 77.187 3.97565 -1.22805 0
M  V30 730 H 76.063 5.35838 -1.19033 0
M  V30 731 H 76.324 4.41294 0.266891 0
M  V30 732 N 75.3831 0.828654 1.34056 0
M  V30 733 C 76.3461 0.259927 2.27721 0
M  V30 734 C 77.3461 -0.565478 1.50529 0
M  V30 735 O 78.5361 -0.38075 1.69988 0
M  V30 736 C 75.6681 -0.634944 3.34935 0
M  V30 737 H 76.8611 1.0863 2.79534 0
M  V30 738 H 74.4141 0.600951 1.44285 0
M  V30 739 H 75.1491 -1.48416 2.88346 0
M  V30 740 H 74.9341 -0.0444999 3.92075 0
M  V30 741 H 76.4241 -1.02648 4.04788 0
M  V30 742 N 76.8612 -1.46375 0.584142 0
M  V30 743 C 77.7912 -2.33103 -0.136037 0
M  V30 744 C 78.7722 -1.45431 -0.882255 0
M  V30 745 O 79.9572 -1.74246 -0.857434 0
M  V30 746 C 77.0872 -3.27731 -1.14933 0
M  V30 747 C 76.0412 -4.24855 -0.517862 0
M  V30 748 C 75.3672 -5.09001 -1.63773 0
M  V30 749 C 76.6672 -5.19439 0.545886 0
M  V30 750 H 78.3612 -2.93568 0.588086 0
M  V30 751 H 75.9072 -1.41166 0.284259 0
M  V30 752 H 77.8602 -3.87261 -1.66153 0
M  V30 753 H 76.5842 -2.65377 -1.90375 0
M  V30 754 H 75.2432 -3.6659 -0.0267361 0
M  V30 755 H 74.8912 -4.43031 -2.38185 0
M  V30 756 H 74.5912 -5.74777 -1.22085 0
M  V30 757 H 76.1152 -5.71396 -2.15266 0
M  V30 758 H 77.5292 -5.73177 0.118704 0
M  V30 759 H 75.9262 -5.93566 0.88317 0
M  V30 760 H 76.9962 -4.63285 1.43162 0
M  V30 761 N 78.3393 -0.321999 -1.54275 0
M  V30 762 C 79.5863 0.281044 -2.0054 0
M  V30 763 C 79.9143 1.52265 -1.21019 0
M  V30 764 O 79.1693 1.93687 -0.279982 0
M  V30 765 C 79.4683 0.661769 -3.5122 0
M  V30 766 C 79.1343 -0.480482 -4.48333 0
M  V30 767 C 77.7963 -0.794005 -4.74604 0
M  V30 768 C 80.1483 -1.24783 -5.06042 0
M  V30 769 C 77.4763 -1.87763 -5.55844 0
M  V30 770 C 79.8283 -2.32153 -5.88462 0
M  V30 771 C 78.4923 -2.64089 -6.13036 0
M  V30 772 H 77.7623 0.102841 -0.733829 0
M  V30 773 H 80.4093 -0.445453 -1.86247 0
M  V30 774 H 78.7143 1.46867 -3.63232 0
M  V30 775 H 80.4113 1.13989 -3.84457 0
M  V30 776 H 77.0013 -0.226039 -4.28004 0
M  V30 777 H 81.1853 -1.01887 -4.85729 0
M  V30 778 H 76.4413 -2.12954 -5.73115 0
M  V30 779 H 80.6153 -2.92057 -6.32199 0
M  V30 780 H 78.2423 -3.48185 -6.75775 0
M  V30 781 N 79.8174 1.5752 -0.0501392 0
M  V30 782 C 81.0634 1.92936 0.624798 0
M  V30 783 C 81.3964 0.928685 1.70555 0
M  V30 784 O 80.6714 -0.0454779 1.94447 0
M  V30 785 C 80.9544 3.38737 1.22185 0
M  V30 786 C 80.8074 4.49552 0.149218 0
M  V30 787 C 82.1264 3.84913 2.13378 0
M  V30 788 H 79.2454 0.701604 0.225657 0
M  V30 789 H 81.8874 1.89671 -0.111693 0
M  V30 790 H 80.0374 3.4165 1.84953 0
M  V30 791 H 81.7094 4.58768 -0.482648 0
M  V30 792 H 79.9524 4.30638 -0.522841 0
M  V30 793 H 80.6234 5.48653 0.606966 0
M  V30 794 H 83.0994 3.8387 1.60572 0
M  V30 795 H 81.9754 4.87584 2.52097 0
M  V30 796 H 82.2364 3.21611 3.03346 0
M  V30 797 N 81.2955 -0.223234 1.56011 0
M  V30 798 C 82.5415 -0.949279 1.79211 0
M  V30 799 C 82.8745 -1.84054 0.619494 0
M  V30 800 O 82.1495 -1.90726 -0.381317 0
M  V30 801 C 82.4325 -1.78965 3.12479 0
M  V30 802 C 82.2855 -0.924997 4.40186 0
M  V30 803 C 83.6045 -2.76774 3.42175 0
M  V30 804 H 80.7235 -0.343676 0.651963 0
M  V30 805 H 83.3655 -0.218253 1.88742 0
M  V30 806 H 81.5155 -2.41291 3.04485 0
M  V30 807 H 83.1875 -0.318615 4.60198 0
M  V30 808 H 81.4305 -0.230344 4.33188 0
M  V30 809 H 82.1015 -1.54735 5.29869 0
M  V30 810 H 84.5775 -2.24584 3.50287 0
M  V30 811 H 83.4535 -3.32678 4.36597 0
M  V30 812 H 83.7145 -3.54429 2.64258 0
M  V30 813 N 82.7736 -1.49793 -0.48987 0
M  V30 814 C 84.0216 -1.59525 -1.24081 0
M  V30 815 C 84.3426 -0.288953 -1.92847 0
M  V30 816 O 83.6126 0.692436 -1.83254 0
M  V30 817 H 82.1926 -0.587796 -0.460983 0
M  V30 818 H 84.8546 -1.86477 -0.566778 0
M  V30 819 H 83.9506 -2.39696 -1.99881 0
M  V30 820 N 84.2517 0.741722 -1.39055 0
M  V30 821 C 85.5007 1.49656 -1.35225 0
M  V30 822 C 85.8137 1.95533 0.0512708 0
M  V30 823 O 87.0197 2.7067 0.212138 0
M  V30 824 C 85.4757 2.70389 -2.37525 0
M  V30 825 C 85.0837 2.31489 -3.83558 0
M  V30 826 C 86.8277 3.48236 -2.42759 0
M  V30 827 C 84.7347 3.48903 -4.77515 0
M  V30 828 H 83.6647 0.56197 -0.502699 0
M  V30 829 H 86.3157 0.809727 -1.64668 0
M  V30 830 H 84.6977 3.41113 -2.01142 0
M  V30 831 H 85.8717 1.68354 -4.28945 0
M  V30 832 H 84.1867 1.66749 -3.81554 0
M  V30 833 H 86.7837 4.35558 -3.1015 0
M  V30 834 H 87.1267 3.90229 -1.45008 0
M  V30 835 H 87.6597 2.84535 -2.78002 0
M  V30 836 H 84.3987 3.11966 -5.76504 0
M  V30 837 H 83.9187 4.11041 -4.36813 0
M  V30 838 H 85.5977 4.15328 -4.96096 0
M  V30 839 N 85.7298 1.2412 0.971189 0
M  V30 840 C 86.6928 1.03156 2.04674 0
M  V30 841 C 87.6928 -0.00990322 1.60797 0
M  V30 842 O 88.8828 0.230729 1.72665 0
M  V30 843 C 86.0148 0.562765 3.36223 0
M  V30 844 H 87.2078 1.98614 2.24705 0
M  V30 845 H 84.7608 1.06293 1.14593 0
M  V30 846 H 85.4958 -0.395176 3.21883 0
M  V30 847 H 85.2808 1.31441 3.69413 0
M  V30 848 H 86.7708 0.437015 4.15307 0
M  V30 849 N 87.2079 -1.17134 1.05439 0
M  V30 850 C 88.4559 -1.87085 0.764429 0
M  V30 851 C 88.7769 -1.81584 -0.710787 0
M  V30 852 O 88.0469 -1.24349 -1.51374 0
M  V30 853 H 86.6269 -0.692627 0.279779 0
M  V30 854 H 89.2889 -1.42087 1.33406 0
M  V30 855 H 88.3849 -2.92759 1.0816 0
M  V30 856 N 88.686 -0.835752 -1.33615 0
M  V30 857 C 89.634 -0.255238 -2.31195 0
M  V30 858 C 90.628 0.61107 -1.57995 0
M  V30 859 O 91.834 0.500979 -1.72888 0
M  V30 860 H 88.209 -0.0638085 -0.749288 0
M  V30 861 H 90.18 -1.09283 -2.77669 0
M  V30 862 C 88.929 0.55754 -3.43201 0
M  V30 863 H 88.252 -0.0997553 -3.99676 0
M  V30 864 H 89.692 0.929622 -4.13683 0
M  V30 865 C 88.151 1.73515 -2.88781 0
M  V30 866 O 88.681 2.83376 -2.84712 0
M  V30 867 N 86.887 1.55603 -2.4543 0
M  V30 868 H 86.434 0.662354 -2.48939 0
M  V30 869 H 86.392 2.34545 -2.09371 0
M  V30 870 N 90.1641 1.46063 -0.591896 0
M  V30 871 C 91.0941 2.33172 0.123673 0
M  V30 872 C 92.0751 1.45897 0.87453 0
M  V30 873 O 93.2601 1.74698 0.848181 0
M  V30 874 C 90.3901 3.28336 1.13194 0
M  V30 875 C 89.3441 4.25124 0.495324 0
M  V30 876 C 88.6701 5.09863 1.61071 0
M  V30 877 C 89.9701 5.19143 -0.573425 0
M  V30 878 H 91.6641 2.93252 -0.603646 0
M  V30 879 H 89.2101 1.41014 -0.291741 0
M  V30 880 H 91.1631 3.88137 1.64097 0
M  V30 881 H 89.8871 2.66383 1.88965 0
M  V30 882 H 88.5461 3.66599 0.00729452 0
M  V30 883 H 88.1941 4.44288 2.35832 0
M  V30 884 H 87.8941 5.75417 1.19035 0
M  V30 885 H 89.4181 5.72529 2.12233 0
M  V30 886 H 90.8321 5.73106 -0.1491 0
M  V30 887 H 89.2291 5.93089 -0.914636 0
M  V30 888 H 90.2991 4.62519 -1.45617 0
M  V30 889 N 91.6422 0.330177 1.54103 0
M  V30 890 C 92.5722 -0.525353 2.27513 0
M  V30 891 C 93.5532 -1.11383 1.2856 0
M  V30 892 O 94.7382 -1.13773 1.57383 0
M  V30 893 C 91.8682 -1.6831 3.03791 0
M  V30 894 C 90.8222 -1.2236 4.10137 0
M  V30 895 C 90.1482 -2.46882 4.74293 0
M  V30 896 C 91.4482 -0.333697 5.21233 0
M  V30 897 H 93.1422 0.087013 2.99274 0
M  V30 898 H 90.6882 0.0432893 1.43935 0
M  V30 899 H 92.6412 -2.28795 3.5388 0
M  V30 900 H 91.3652 -2.32216 2.29659 0
M  V30 901 H 90.0242 -0.64165 3.60941 0
M  V30 902 H 89.6722 -3.09165 3.96769 0
M  V30 903 H 89.3722 -2.16825 5.46133 0
M  V30 904 H 90.8962 -3.08117 5.27159 0
M  V30 905 H 92.3102 -0.845013 5.67038 0
M  V30 906 H 90.7072 -0.125612 5.99969 0
M  V30 907 H 91.7772 0.633724 4.80741 0
M  V30 908 N 93.1203 -1.57491 0.0584922 0
M  V30 909 C 94.3483 -1.97296 -0.623037 0
M  V30 910 C 94.7633 -0.936338 -1.63946 0
M  V30 911 O 94.1203 0.0785981 -1.82331 0
M  V30 912 C 94.1713 -3.37183 -1.30345 0
M  V30 913 O 93.8923 -4.36872 -0.32773 0
M  V30 914 C 95.3933 -3.91788 -2.07406 0
M  V30 915 H 92.6133 -0.649153 -0.169826 0
M  V30 916 H 95.1573 -2.04106 0.12696 0
M  V30 917 H 93.3123 -3.31502 -2.00463 0
M  V30 918 H 93.7263 -5.18141 -0.814269 0
M  V30 919 H 95.2003 -4.91926 -2.50425 0
M  V30 920 H 95.6773 -3.27609 -2.92521 0
M  V30 921 H 96.2833 -4.00829 -1.42184 0
M  V30 922 N 94.5984 0.214957 -1.56127 0
M  V30 923 C 95.5314 1.29382 -1.87977 0
M  V30 924 C 96.5094 1.44897 -0.737807 0
M  V30 925 O 97.6934 1.60605 -0.986833 0
M  V30 926 C 94.8204 2.66325 -2.09258 0
M  V30 927 C 93.8664 2.67789 -3.31951 0
M  V30 928 S 94.6994 2.21198 -4.8768 0
M  V30 929 C 95.8554 3.60003 -5.12004 0
M  V30 930 H 96.0884 1.02173 -2.79192 0
M  V30 931 H 93.6214 0.417516 -1.48648 0
M  V30 932 H 95.5794 3.45162 -2.22201 0
M  V30 933 H 94.2404 2.90755 -1.18829 0
M  V30 934 H 93.4334 3.68436 -3.43906 0
M  V30 935 H 93.0354 1.9702 -3.17898 0
M  V30 936 H 95.3274 4.55739 -5.01307 0
M  V30 937 H 96.2704 3.52959 -6.13861 0
M  V30 938 H 96.6784 3.53996 -4.39712 0
M  V30 939 N 96.0765 1.50051 0.48192 0
M  V30 940 C 97.0065 1.71046 1.58951 0
M  V30 941 C 97.9875 0.559288 1.60642 0
M  V30 942 O 99.1725 0.797243 1.77081 0
M  V30 943 C 96.3025 1.79462 2.97339 0
M  V30 944 C 95.2565 2.94558 3.10515 0
M  V30 945 C 94.5825 2.88105 4.50444 0
M  V30 946 C 95.8825 4.35227 2.88747 0
M  V30 947 H 97.5765 2.6378 1.41635 0
M  V30 948 H 95.1225 1.26936 0.679942 0
M  V30 949 H 97.0755 1.92734 3.74742 0
M  V30 950 H 95.7995 0.833412 3.15788 0
M  V30 951 H 94.4585 2.80918 2.35543 0
M  V30 952 H 94.1065 1.89853 4.65795 0
M  V30 953 H 93.8065 3.65366 4.60197 0
M  V30 954 H 95.3305 3.03412 5.29881 0
M  V30 955 H 96.7445 4.49449 3.55905 0
M  V30 956 H 95.1415 5.13856 3.09955 0
M  V30 957 H 96.2115 4.48347 1.84696 0
M  V30 958 N 97.5546 -0.734337 1.39446 0
M  V30 959 C 98.8006 -1.49613 1.36908 0
M  V30 960 C 99.1336 -1.94169 -0.0347829 0
M  V30 961 O 98.4086 -1.66833 -0.999847 0
M  V30 962 C 98.6916 -2.73534 2.34203 0
M  V30 963 C 98.5446 -2.34993 3.83534 0
M  V30 964 C 99.8636 -3.75635 2.29317 0
M  V30 965 H 96.9826 -0.542714 0.498629 0
M  V30 966 H 99.6246 -0.839597 1.70443 0
M  V30 967 H 97.7746 -3.29553 2.05736 0
M  V30 968 H 99.4466 -1.84601 4.22753 0
M  V30 969 H 97.6896 -1.67213 4.00278 0
M  V30 970 H 98.3606 -3.23738 4.47099 0
M  V30 971 H 100.837 -3.29203 2.54489 0
M  V30 972 H 99.7126 -4.60008 2.99472 0
M  V30 973 H 99.9736 -4.22603 1.29842 0
M  V30 974 N 99.0327 -1.24633 -0.964593 0
M  V30 975 C 100.279 -1.08949 -1.71049 0
M  V30 976 C 100.612 0.370302 -1.90637 0
M  V30 977 O 99.8867 1.27349 -1.47011 0
M  V30 978 C 100.17 -1.83329 -3.0994 0
M  V30 979 C 100.023 -3.37077 -2.97824 0
M  V30 980 C 101.342 -1.60846 -4.09654 0
M  V30 981 H 98.4607 -0.397178 -0.620821 0
M  V30 982 H 101.103 -1.5334 -1.12191 0
M  V30 983 H 99.2527 -1.45597 -3.60186 0
M  V30 984 H 100.925 -3.84425 -2.5498 0
M  V30 985 H 99.1677 -3.65298 -2.33965 0
M  V30 986 H 99.8387 -3.84324 -3.96231 0
M  V30 987 H 102.315 -1.93674 -3.68279 0
M  V30 988 H 101.191 -2.1534 -5.04896 0
M  V30 989 H 101.452 -0.547434 -4.38698 0
M  V30 990 N 100.511 1.16574 -1.06058 0
M  V30 991 C 101.736 1.91493 -0.796562 0
M  V30 992 C 102.161 1.76773 0.642868 0
M  V30 993 O 101.519 1.09142 1.44768 0
M  V30 994 C 101.567 3.40293 -1.19303 0
M  V30 995 O 100.671 4.11074 -0.330394 0
M  V30 996 H 100.012 0.596678 -0.291326 0
M  V30 997 H 102.542 1.47708 -1.41575 0
M  V30 998 H 102.552 3.91057 -1.16356 0
M  V30 999 H 101.227 3.50326 -2.24153 0
M  V30 1000 H 99.8038 3.70513 -0.421225 0
M  V30 1001 N 101.989 0.842826 1.3317 0
M  V30 1002 C 103.405 0.531128 1.50503 0
M  V30 1003 C 103.605 -0.940734 1.78192 0
M  V30 1004 O 102.661 -1.72436 1.84451 0
M  V30 1005 C 103.974 1.40789 2.65705 0
M  V30 1006 C 105.522 1.40708 2.79589 0
M  V30 1007 C 105.997 2.26878 3.97857 0
M  V30 1008 N 107.488 2.24609 4.05099 0
M  V30 1009 C 108.223 2.88019 4.95815 0
M  V30 1010 N 107.719 3.60496 5.9162 0
M  V30 1011 N 109.512 2.77469 4.88843 0
M  V30 1012 H 101.663 1.79557 1.1346 0
M  V30 1013 H 103.926 0.766267 0.558156 0
M  V30 1014 H 103.632 2.454 2.51936 0
M  V30 1015 H 103.506 1.08677 3.61205 0
M  V30 1016 H 105.893 0.368668 2.92788 0
M  V30 1017 H 105.974 1.76829 1.84838 0
M  V30 1018 H 105.618 3.3078 3.85418 0
M  V30 1019 H 105.548 1.88096 4.91861 0
M  V30 1020 H 108.039 1.71906 3.36536 0
M  V30 1021 H 108.352 4.06076 6.57512 0
M  V30 1022 H 106.697 3.64604 5.91683 0
M  V30 1023 H 109.888 2.20406 4.12963 0
M  V30 1024 H 110.061 3.2717 5.59342 0
M  V30 1025 N 103.467 -1.45747 0.599634 0
M  V30 1026 C 104.714 -2.02292 0.0917284 0
M  V30 1027 C 105.042 -1.46906 -1.27472 0
M  V30 1028 O 104.297 -0.630652 -1.8526 0
M  V30 1029 C 104.596 -3.57399 -0.00602758 0
M  V30 1030 C 104.262 -4.31902 1.29503 0
M  V30 1031 C 102.924 -4.51974 1.65144 0
M  V30 1032 C 105.276 -4.74551 2.15525 0
M  V30 1033 C 102.604 -5.11949 2.86574 0
M  V30 1034 C 104.956 -5.35868 3.36196 0
M  V30 1035 C 103.62 -5.54165 3.72099 0
M  V30 1036 H 102.89 -0.740239 0.0335658 0
M  V30 1037 H 105.537 -1.7491 0.779661 0
M  V30 1038 H 103.842 -3.84014 -0.777183 0
M  V30 1039 H 105.539 -3.98846 -0.415038 0
M  V30 1040 H 102.129 -4.16588 1.00761 0
M  V30 1041 H 106.313 -4.58784 1.8929 0
M  V30 1042 H 101.569 -5.24305 3.14507 0
M  V30 1043 H 105.743 -5.6787 4.03109 0
M  V30 1044 H 103.37 -6.00406 4.6628 0
M  V30 1045 N 104.945 -0.338344 -1.53925 0
M  V30 1046 C 106.361 0.0137736 -1.59594 0
M  V30 1047 C 106.561 1.49186 -1.35447 0
M  V30 1048 O 105.617 2.24987 -1.14616 0
M  V30 1049 C 106.93 -0.41773 -2.97784 0
M  V30 1050 C 108.478 -0.369633 -3.1081 0
M  V30 1051 C 108.953 -0.776524 -4.51369 0
M  V30 1052 N 110.444 -0.730506 -4.57403 0
M  V30 1053 C 111.179 -1.01736 -5.64303 0
M  V30 1054 N 110.675 -1.3721 -6.79077 0
M  V30 1055 N 112.468 -0.941942 -5.54151 0
M  V30 1056 H 104.619 -1.3012 -1.67876 0
M  V30 1057 H 106.882 -0.530082 -0.78595 0
M  V30 1058 H 106.588 -1.44811 -3.20504 0
M  V30 1059 H 106.462 0.209729 -3.76616 0
M  V30 1060 H 108.849 0.651568 -2.87817 0
M  V30 1061 H 108.93 -1.03223 -2.34049 0
M  V30 1062 H 108.574 -1.79571 -4.75096 0
M  V30 1063 H 108.504 -0.0914649 -5.26521 0
M  V30 1064 H 110.995 -0.468783 -3.74981 0
M  V30 1065 H 111.308 -1.57597 -7.5656 0
M  V30 1066 H 109.653 -1.4105 -6.80536 0
M  V30 1067 H 112.844 -0.664184 -4.63364 0
M  V30 1068 H 113.017 -1.16884 -6.37371 0
M  V30 1069 N 106.423 1.57458 -0.0668435 0
M  V30 1070 C 107.333 2.15937 0.916975 0
M  V30 1071 C 108.349 1.12123 1.33058 0
M  V30 1072 O 109.525 1.44366 1.40429 0
M  V30 1073 C 106.59 2.70547 2.16807 0
M  V30 1074 C 105.651 3.89215 1.81135 0
M  V30 1075 C 104.884 4.41211 3.0028 0
M  V30 1076 O 105.107 3.92225 4.14144 0
M  V30 1077 O 104.041 5.32605 2.80384 0
M  V30 1078 H 107.867 3.00354 0.449561 0
M  V30 1079 H 105.452 1.48584 0.155949 0
M  V30 1080 H 107.334 3.0557 2.90181 0
M  V30 1081 H 106.009 1.89192 2.62656 0
M  V30 1082 H 104.916 3.59054 1.05028 0
M  V30 1083 H 106.249 4.71848 1.40073 0
M  V30 1084 N 107.901 -0.206675 1.56239 0
M  V30 1085 C 108.831 -1.25909 1.96645 0
M  V30 1086 C 109.812 -1.48097 0.836734 0
M  V30 1087 O 110.997 -1.6003 1.10019 0
M  V30 1088 C 108.127 -2.6058 2.29599 0
M  V30 1089 C 107.081 -2.53024 3.452 0
M  V30 1090 C 106.407 -3.91861 3.63798 0
M  V30 1091 C 107.707 -2.06524 4.79734 0
M  V30 1092 H 109.401 -0.923369 2.84806 0
M  V30 1093 H 106.947 -0.442735 1.37025 0
M  V30 1094 H 108.9 -3.34375 2.56459 0
M  V30 1095 H 107.624 -2.95869 1.38307 0
M  V30 1096 H 106.283 -1.81684 3.18412 0
M  V30 1097 H 105.931 -4.24483 2.69857 0
M  V30 1098 H 105.631 -3.87683 4.4156 0
M  V30 1099 H 107.155 -4.67296 3.93022 0
M  V30 1100 H 108.569 -2.70072 5.05702 0
M  V30 1101 H 106.966 -2.13374 5.60885 0
M  V30 1102 H 108.036 -1.01802 4.74093 0
M  V30 1103 N 109.379 -1.50304 -0.473955 0
M  V30 1104 C 110.795 -1.37667 -0.807466 0
M  V30 1105 C 110.995 -0.430555 -1.96846 0
M  V30 1106 O 110.051 0.127874 -2.52176 0
M  V30 1107 C 111.364 -2.78974 -1.12223 0
M  V30 1108 C 112.912 -2.87868 -1.22885 0
M  V30 1109 C 113.387 -4.30003 -1.57676 0
M  V30 1110 N 114.878 -4.3294 -1.64673 0
M  V30 1111 C 115.613 -5.3991 -1.93091 0
M  V30 1112 N 115.109 -6.57092 -2.1955 0
M  V30 1113 N 116.902 -5.27351 -1.94569 0
M  V30 1114 H 109.053 -2.10394 0.291212 0
M  V30 1115 H 111.316 -0.945575 0.0677609 0
M  V30 1116 H 111.022 -3.50031 -0.342229 0
M  V30 1117 H 110.896 -3.16038 -2.05913 0
M  V30 1118 H 113.283 -2.17032 -1.99953 0
M  V30 1119 H 113.364 -2.54352 -0.271814 0
M  V30 1120 H 113.008 -5.01375 -0.81149 0
M  V30 1121 H 112.938 -4.61004 -2.54525 0
M  V30 1122 H 115.429 -3.48441 -1.46277 0
M  V30 1123 H 115.742 -7.34425 -2.405 0
M  V30 1124 H 114.087 -6.60272 -2.16948 0
M  V30 1125 H 117.278 -4.34801 -1.73394 0
M  V30 1126 H 117.451 -6.10805 -2.16381 0
M  V30 1127 N 110.857 0.726932 -1.39834 0
M  V30 1128 C 112.085 1.51613 -1.40787 0
M  V30 1129 C 112.5 1.88799 -0.00451505 0
M  V30 1130 O 111.857 1.54662 0.968809 0
M  V30 1131 C 111.908 2.79863 -2.28821 0
M  V30 1132 O 111.629 2.44253 -3.63692 0
M  V30 1133 C 113.13 3.73837 -2.38245 0
M  V30 1134 H 110.35 0.468264 -0.480593 0
M  V30 1135 H 112.894 0.897607 -1.83748 0
M  V30 1136 H 111.049 3.38027 -1.89252 0
M  V30 1137 H 111.463 3.26695 -4.1033 0
M  V30 1138 H 112.937 4.60699 -3.04073 0
M  V30 1139 H 113.414 4.16153 -1.40403 0
M  V30 1140 H 114.02 3.21589 -2.78317 0
M  V30 1141 N 112.336 1.25143 0.95797 0
M  V30 1142 C 113.564 1.12424 1.73691 0
M  V30 1143 C 113.979 -0.322304 1.86029 0
M  V30 1144 O 113.336 -1.22186 1.35561 0
M  V30 1145 C 113.387 1.76933 3.15241 0
M  V30 1146 O 113.108 3.15932 3.03511 0
M  V30 1147 C 114.609 1.6995 4.09429 0
M  V30 1148 H 111.829 0.3923 0.544373 0
M  V30 1149 H 114.373 1.6544 1.20207 0
M  V30 1150 H 112.528 1.27895 3.6568 0
M  V30 1151 H 112.942 3.47598 3.9278 0
M  V30 1152 H 114.416 2.19753 5.06372 0
M  V30 1153 H 114.893 0.662619 4.34173 0
M  V30 1154 H 115.499 2.18461 3.64904 0
M  V30 1155 N 113.814 -1.1601 1.06675 0
M  V30 1156 C 115.042 -1.90527 0.806667 0
M  V30 1157 C 115.457 -1.77643 -0.639396 0
M  V30 1158 O 114.814 -1.12369 -1.43803 0
M  V30 1159 C 114.865 -3.41106 1.19705 0
M  V30 1160 O 114.586 -3.53608 2.58636 0
M  V30 1161 C 116.087 -4.32663 0.965266 0
M  V30 1162 H 113.307 -0.604053 0.292166 0
M  V30 1163 H 115.851 -1.47026 1.4214 0
M  V30 1164 H 114.006 -3.82296 0.626774 0
M  V30 1165 H 114.42 -4.47011 2.74375 0
M  V30 1166 H 115.894 -5.36763 1.288 0
M  V30 1167 H 116.371 -4.39089 -0.0987936 0
M  V30 1168 H 116.977 -3.97206 1.52011 0
M  V30 1169 N 115.292 -0.849877 -1.32721 0
M  V30 1170 C 116.24 -0.279745 -2.30912 0
M  V30 1171 C 117.234 0.594278 -1.58634 0
M  V30 1172 O 118.44 0.482613 -1.73409 0
M  V30 1173 H 114.815 -0.0717521 -0.748569 0
M  V30 1174 H 116.786 -1.12222 -2.76494 0
M  V30 1175 C 115.535 0.521108 -3.43773 0
M  V30 1176 H 114.858 -0.142141 -3.99547 0
M  V30 1177 H 116.298 0.885693 -4.14646 0
M  V30 1178 C 114.757 1.70442 -2.90605 0
M  V30 1179 O 115.287 2.8034 -2.87702 0
M  V30 1180 N 113.493 1.52991 -2.47067 0
M  V30 1181 H 113.04 0.635914 -2.49628 0
M  V30 1182 H 112.998 2.32311 -2.11847 0
M  V30 1183 N 116.77 1.45427 -0.607355 0
M  V30 1184 C 117.7 2.3329 0.0989352 0
M  V30 1185 C 118.681 1.46816 0.859007 0
M  V30 1186 O 119.866 1.75588 0.829604 0
M  V30 1187 C 116.996 3.29518 1.09705 0
M  V30 1188 C 115.95 4.25626 0.450206 0
M  V30 1189 C 115.276 5.11542 1.55655 0
M  V30 1190 C 116.576 5.18505 -0.628455 0
M  V30 1191 H 118.27 2.92595 -0.634716 0
M  V30 1192 H 115.816 1.40696 -0.306681 0
M  V30 1193 H 117.769 3.89855 1.59971 0
M  V30 1194 H 116.493 2.68372 1.86129 0
M  V30 1195 H 115.152 3.66586 -0.0315886 0
M  V30 1196 H 114.8 4.46765 2.31107 0
M  V30 1197 H 114.5 5.76647 1.12925 0
M  V30 1198 H 116.024 5.74748 2.06148 0
M  V30 1199 H 117.438 5.72916 -0.209877 0
M  V30 1200 H 115.835 5.92085 -0.977489 0
M  V30 1201 H 116.905 4.60948 -1.50514 0
M  V30 1202 N 118.248 0.346503 1.53744 0
M  V30 1203 C 119.478 -0.250047 2.05081 0
M  V30 1204 C 119.886 -1.44529 1.22098 0
M  V30 1205 O 119.229 -1.81992 0.249917 0
M  V30 1206 C 119.291 -0.725934 3.52094 0
M  V30 1207 C 118.955 0.350053 4.55657 0
M  V30 1208 C 119.952 1.19372 5.0601 0
M  V30 1209 C 117.637 0.504827 4.99757 0
M  V30 1210 C 119.631 2.17768 5.99046 0
M  V30 1211 C 117.318 1.49218 5.92602 0
M  V30 1212 C 118.316 2.32706 6.42135 0
M  V30 1213 O 118.004 3.2976 7.33153 0
M  V30 1214 H 117.736 -0.0515469 0.674032 0
M  V30 1215 H 120.29 0.497559 1.99282 0
M  V30 1216 H 118.52 -1.52483 3.55367 0
M  V30 1217 H 120.209 -1.24336 3.86388 0
M  V30 1218 H 120.975 1.08525 4.72702 0
M  V30 1219 H 116.854 -0.135178 4.60802 0
M  V30 1220 H 120.398 2.82971 6.37631 0
M  V30 1221 H 116.295 1.6012 6.25325 0
M  V30 1222 H 117.063 3.25265 7.51096 0
M  V30 1223 N 119.726 -1.57421 0.075193 0
M  V30 1224 C 120.656 -2.15942 -0.888324 0
M  V30 1225 C 121.637 -1.08737 -1.30806 0
M  V30 1226 O 122.822 -1.36787 -1.37851 0
M  V30 1227 C 119.952 -2.72379 -2.1547 0
M  V30 1228 C 118.906 -3.8478 -1.87425 0
M  V30 1229 C 118.232 -4.27834 -3.20721 0
M  V30 1230 C 119.532 -5.08869 -1.17684 0
M  V30 1231 H 121.226 -2.96705 -0.400799 0
M  V30 1232 H 118.772 -1.42723 -0.191342 0
M  V30 1233 H 120.725 -3.11965 -2.83295 0
M  V30 1234 H 119.449 -1.88841 -2.6647 0
M  V30 1235 H 118.108 -3.45703 -1.22004 0
M  V30 1236 H 117.756 -3.41214 -3.6957 0
M  V30 1237 H 117.456 -5.03605 -3.02746 0
M  V30 1238 H 118.98 -4.70039 -3.89738 0
M  V30 1239 H 120.394 -5.4575 -1.75584 0
M  V30 1240 H 118.791 -5.8994 -1.09956 0
M  V30 1241 H 119.861 -4.84648 -0.156453 0
M  V30 1242 N 121.204 0.198386 -1.56346 0
M  V30 1243 C 122.429 0.939682 -1.84891 0
M  V30 1244 C 122.854 1.76202 -0.658369 0
M  V30 1245 O 122.212 1.76993 0.392851 0
M  V30 1246 C 122.26 1.81428 -3.11635 0
M  V30 1247 O 121.364 2.91265 -2.91956 0
M  V30 1248 H 120.705 0.264807 -0.608912 0
M  V30 1249 H 123.235 0.204695 -2.03573 0
M  V30 1250 H 123.245 2.21958 -3.42343 0
M  V30 1251 H 121.92 1.21004 -3.97908 0
M  V30 1252 H 120.497 2.54514 -2.72538 0
M  V30 1253 N 122.682 1.50554 0.465978 0
M  V30 1254 C 123.907 1.65838 1.24549 0
M  V30 1255 C 124.332 0.343486 1.84937 0
M  V30 1256 O 123.69 -0.69324 1.67523 0
M  V30 1257 C 123.738 2.75533 2.32624 0
M  V30 1258 O 122.842 2.37142 3.37398 0
M  V30 1259 H 122.183 0.553893 0.366194 0
M  V30 1260 H 124.713 1.96959 0.553927 0
M  V30 1261 H 124.723 2.98763 2.77857 0
M  V30 1262 H 123.398 3.70962 1.88043 0
M  V30 1263 H 121.975 2.24377 2.97841 0
M  V30 1264 N 124.16 -0.719506 1.40217 0
M  V30 1265 C 125.093 -1.84298 1.34571 0
M  V30 1266 C 126.071 -1.61149 0.216741 0
M  V30 1267 O 127.255 -1.84212 0.399756 0
M  V30 1268 C 124.382 -3.20568 1.09335 0
M  V30 1269 C 123.428 -3.62551 2.24631 0
M  V30 1270 S 124.261 -3.7012 3.87004 0
M  V30 1271 C 125.417 -5.09154 3.64024 0
M  V30 1272 H 125.65 -1.88807 2.2965 0
M  V30 1273 H 123.183 -0.885901 1.26456 0
M  V30 1274 H 125.141 -3.99246 0.954602 0
M  V30 1275 H 123.802 -3.13696 0.159164 0
M  V30 1276 H 122.995 -4.61483 2.02606 0
M  V30 1277 H 122.597 -2.91119 2.34789 0
M  V30 1278 H 124.889 -5.95955 3.22248 0
M  V30 1279 H 125.832 -5.36213 4.62473 0
M  V30 1280 H 126.24 -4.79562 2.97793 0
M  V30 1281 N 125.638 -1.25649 -0.95132 0
M  V30 1282 C 126.601 -1.06399 -2.03007 0
M  V30 1283 C 127.601 -0.0156794 -1.60792 0
M  V30 1284 O 128.791 -0.25817 -1.72276 0
M  V30 1285 C 125.923 -0.616184 -3.35285 0
M  V30 1286 H 127.116 -2.02164 -2.21517 0
M  V30 1287 H 124.669 -1.08103 -1.12887 0
M  V30 1288 H 125.404 0.343917 -3.22471 0
M  V30 1289 H 125.189 -1.37301 -3.67275 0
M  V30 1290 H 126.679 -0.503032 -4.14559 0
M  V30 1291 N 127.117 1.15442 -1.07289 0
M  V30 1292 C 128.364 1.86213 -0.795668 0
M  V30 1293 C 128.692 1.82291 0.678238 0
M  V30 1294 O 127.947 1.24057 1.51355 0
M  V30 1295 C 128.246 3.3489 -1.24834 0
M  V30 1296 C 127.912 3.59007 -2.72809 0
M  V30 1297 C 126.574 3.65298 -3.13227 0
M  V30 1298 C 128.926 3.68762 -3.68326 0
M  V30 1299 C 126.254 3.78854 -4.4798 0
M  V30 1300 C 128.606 3.83842 -5.0284 0
M  V30 1301 C 127.27 3.88378 -5.4288 0
M  V30 1302 H 126.54 0.681403 -0.291155 0
M  V30 1303 H 129.187 1.36435 -1.34379 0
M  V30 1304 H 127.492 3.8687 -0.619595 0
M  V30 1305 H 129.189 3.88052 -1.01076 0
M  V30 1306 H 125.779 3.5475 -2.40521 0
M  V30 1307 H 129.963 3.63202 -3.38227 0
M  V30 1308 H 125.219 3.80623 -4.78472 0
M  V30 1309 H 129.393 3.90332 -5.76727 0
M  V30 1310 H 127.02 3.98635 -6.47298 0
M  V30 1311 N 128.595 0.856903 1.32268 0
M  V30 1312 C 129.82 0.474569 2.01897 0
M  V30 1313 C 130.245 -0.921766 1.63967 0
M  V30 1314 O 129.603 -1.60589 0.84148 0
M  V30 1315 C 129.651 0.623799 3.55164 0
M  V30 1316 O 128.755 -0.342459 4.10976 0
M  V30 1317 H 128.096 0.190422 0.63611 0
M  V30 1318 H 130.626 1.15672 1.68764 0
M  V30 1319 H 130.636 0.512169 4.04773 0
M  V30 1320 H 129.311 1.64202 3.82113 0
M  V30 1321 H 127.888 -0.18688 3.72431 0
M  V30 1322 N 130.073 -1.45103 0.615059 0
M  V30 1323 C 131.35 -1.95549 0.0448276 0
M  V30 1324 C 131.73 -1.55737 -1.4251 0
M  V30 1325 O 131.078 -0.823556 -2.13143 0
M  V30 1326 C 131.288 -3.48098 0.250785 0
M  V30 1327 C 132.636 -4.24384 0.135509 0
M  V30 1328 O 133.66 -3.55738 0.181299 0
M  V30 1329 O 132.519 -5.46493 0.0268878 0
M  V30 1330 H 129.613 -0.8264 -0.0314845 0
M  V30 1331 H 132.159 -1.55232 0.685642 0
M  V30 1332 H 130.931 -3.7007 1.27139 0
M  V30 1333 H 130.554 -3.95323 -0.424937 0
M  V30 1334 N 131.551 -0.354651 -1.53558 0
M  V30 1335 C 132.481 0.489091 -2.2832 0
M  V30 1336 C 133.462 1.09324 -1.30316 0
M  V30 1337 O 134.647 1.11255 -1.59173 0
M  V30 1338 C 131.777 1.63456 -3.0643 0
M  V30 1339 C 130.731 1.1582 -4.12031 0
M  V30 1340 C 130.057 2.39305 -4.7816 0
M  V30 1341 C 131.357 0.250731 -5.21698 0
M  V30 1342 H 133.051 -0.134614 -2.99097 0
M  V30 1343 H 130.597 -0.0661826 -1.43848 0
M  V30 1344 H 132.55 2.23136 -3.57475 0
M  V30 1345 H 131.274 2.28533 -2.33325 0
M  V30 1346 H 129.933 0.584146 -3.61916 0
M  V30 1347 H 129.581 3.02814 -4.01637 0
M  V30 1348 H 129.281 2.08109 -5.49513 0
M  V30 1349 H 130.805 2.99691 -5.31994 0
M  V30 1350 H 132.219 0.754695 -5.68311 0
M  V30 1351 H 130.616 0.0301468 -6.00092 0
M  V30 1352 H 131.686 -0.710125 -4.79672 0
M  V30 1353 N 133.029 1.57378 -0.0835403 0
M  V30 1354 C 133.959 2.1641 0.87686 0
M  V30 1355 C 134.94 1.09429 1.30228 0
M  V30 1356 O 136.125 1.37516 1.37124 0
M  V30 1357 C 133.255 2.73517 2.14022 0
M  V30 1358 C 132.209 3.85769 1.85381 0
M  V30 1359 C 131.535 4.29529 3.18448 0
M  V30 1360 C 132.835 5.09486 1.14984 0
M  V30 1361 H 134.529 2.96914 0.385059 0
M  V30 1362 H 132.075 1.42823 0.18377 0
M  V30 1363 H 134.028 3.13463 2.81636 0
M  V30 1364 H 132.752 1.90252 2.65465 0
M  V30 1365 H 131.411 3.46345 1.20169 0
M  V30 1366 H 131.059 3.43169 3.67755 0
M  V30 1367 H 130.759 5.05204 3.00071 0
M  V30 1368 H 132.283 4.72099 3.8724 0
M  V30 1369 H 133.697 5.46674 1.72687 0
M  V30 1370 H 132.094 5.90515 1.06826 0
M  V30 1371 H 133.164 4.84724 0.130749 0
M  V30 1372 N 134.507 -0.190092 1.56449 0
M  V30 1373 C 135.756 -0.907912 1.80111 0
M  V30 1374 C 136.069 -1.84214 0.657619 0
M  V30 1375 O 137.275 -2.60094 0.778663 0
M  V30 1376 C 135.731 -1.66485 3.19078 0
M  V30 1377 C 135.339 -0.7752 4.41242 0
M  V30 1378 C 137.083 -2.37201 3.52045 0
M  V30 1379 C 134.99 -1.53129 5.71231 0
M  V30 1380 H 133.92 -0.34276 0.671589 0
M  V30 1381 H 136.571 -0.161109 1.82791 0
M  V30 1382 H 134.953 -2.45572 3.10661 0
M  V30 1383 H 136.127 -0.0226298 4.60794 0
M  V30 1384 H 134.442 -0.178627 4.16017 0
M  V30 1385 H 137.039 -2.94329 4.46402 0
M  V30 1386 H 137.382 -3.11632 2.76028 0
M  V30 1387 H 137.915 -1.65075 3.61932 0
M  V30 1388 H 134.654 -0.82967 6.50228 0
M  V30 1389 H 134.174 -2.25767 5.55688 0
M  V30 1390 H 135.853 -2.08377 6.12526 0
M  V30 1391 N 135.985 -1.50799 -0.457987 0
M  V30 1392 C 137.232 -1.62442 -1.20908 0
M  V30 1393 C 137.56 -0.330865 -1.91665 0
M  V30 1394 O 136.815 0.68401 -1.83357 0
M  V30 1395 C 137.114 -2.76358 -2.2663 0
M  V30 1396 C 136.78 -4.16378 -1.73033 0
M  V30 1397 C 135.442 -4.54473 -1.58138 0
M  V30 1398 C 137.794 -5.03836 -1.33413 0
M  V30 1399 C 135.122 -5.77754 -1.02065 0
M  V30 1400 C 137.474 -6.27676 -0.78778 0
M  V30 1401 C 136.138 -6.64562 -0.625561 0
M  V30 1402 H 135.408 -0.594417 -0.442435 0
M  V30 1403 H 138.055 -1.84772 -0.503136 0
M  V30 1404 H 136.36 -2.48167 -3.03184 0
M  V30 1405 H 138.057 -2.82568 -2.84528 0
M  V30 1406 H 134.647 -3.86331 -1.85598 0
M  V30 1407 H 138.831 -4.75026 -1.4375 0
M  V30 1408 H 134.087 -6.04997 -0.882547 0
M  V30 1409 H 138.261 -6.94797 -0.472177 0
M  V30 1410 H 135.888 -7.59965 -0.188926 0
M  V30 1411 N 137.463 0.71206 -1.40597 0
M  V30 1412 C 138.393 1.83889 -1.43899 0
M  V30 1413 C 139.374 1.67442 -0.299504 0
M  V30 1414 O 140.559 1.87421 -0.508624 0
M  V30 1415 C 137.689 3.21877 -1.30431 0
M  V30 1416 C 136.643 3.53002 -2.42019 0
M  V30 1417 C 135.969 4.90172 -2.13626 0
M  V30 1418 C 137.269 3.53643 -3.84362 0
M  V30 1419 H 138.963 1.81383 -2.38203 0
M  V30 1420 H 136.509 0.871237 -1.14654 0
M  V30 1421 H 138.462 4.00404 -1.31357 0
M  V30 1422 H 137.186 3.24968 -0.326049 0
M  V30 1423 H 135.845 2.76818 -2.40349 0
M  V30 1424 H 135.493 4.89869 -1.14182 0
M  V30 1425 H 135.193 5.11962 -2.88389 0
M  V30 1426 H 136.717 5.71028 -2.1624 0
M  V30 1427 H 138.131 4.22203 -3.87837 0
M  V30 1428 H 136.528 3.86961 -4.58673 0
M  V30 1429 H 137.598 2.52954 -4.13693 0
M  V30 1430 N 138.941 1.26152 0.944643 0
M  V30 1431 C 140.181 1.12708 1.70517 0
M  V30 1432 C 140.545 -0.324727 1.89234 0
M  V30 1433 O 141.746 -0.581211 2.62441 0
M  V30 1434 C 140.017 1.8713 3.04495 0
M  V30 1435 S 141.576 1.89698 3.95677 0
M  V30 1436 H 138.394 0.402665 0.585988 0
M  V30 1437 H 140.996 1.59821 1.12594 0
M  V30 1438 H 139.7 2.91833 2.88551 0
M  V30 1439 H 139.231 1.40444 3.67477 0
M  V30 1440 H 141.246 0.981198 4.86402 0
M  V30 1441 N 140.419 -1.14872 1.07899 0
M  V30 1442 C 141.352 -2.18794 0.64841 0
M  V30 1443 C 142.33 -1.59065 -0.337189 0
M  V30 1444 O 143.514 -1.86936 -0.242284 0
M  V30 1445 C 140.641 -3.38667 -0.0470417 0
M  V30 1446 C 139.687 -4.16942 0.897884 0
M  V30 1447 S 140.52 -4.78615 2.40183 0
M  V30 1448 C 141.676 -6.0185 1.71834 0
M  V30 1449 H 141.909 -2.5498 1.52881 0
M  V30 1450 H 139.442 -1.25922 0.893484 0
M  V30 1451 H 141.4 -4.08113 -0.442027 0
M  V30 1452 H 140.061 -3.00814 -0.903861 0
M  V30 1453 H 139.254 -5.02726 0.358096 0
M  V30 1454 H 138.856 -3.53073 1.23352 0
M  V30 1455 H 141.148 -6.69574 1.03328 0
M  V30 1456 H 142.091 -6.60408 2.55473 0
M  V30 1457 H 142.499 -5.5173 1.19392 0
M  V30 1458 N 141.898 -0.863906 -1.31812 0
M  V30 1459 C 143.309 -0.52522 -1.7916 0
M  V30 1460 C 143.66 0.957518 -1.71248 0
M  V30 1461 O 142.785 1.74734 -1.27659 0
M  V30 1462 C 143.38 -0.9466 -3.25307 0
M  V30 1463 C 141.939 -0.659668 -3.70574 0
M  V30 1464 C 141.086 -1.14126 -2.52726 0
M  V30 1465 H 144.037 -1.05022 -1.1898 0
M  V30 1466 H 144.058 -0.266766 -3.79564 0
M  V30 1467 H 143.57 -2.02579 -3.31034 0
M  V30 1468 H 141.671 0.408416 -3.70355 0
M  V30 1469 H 141.784 -1.23245 -4.62977 0
M  V30 1470 H 140.148 -0.561216 -2.4844 0
M  V30 1471 H 140.931 -2.22775 -2.61201 0
M  V30 1472 N 143.376 1.44774 -0.622745 0
M  V30 1473 C 144.306 2.33382 0.0741861 0
M  V30 1474 C 145.287 1.47719 0.843387 0
M  V30 1475 O 146.472 1.76458 0.810934 0
M  V30 1476 C 143.602 3.30663 1.06204 0
M  V30 1477 C 142.556 4.26079 0.405037 0
M  V30 1478 C 141.882 5.13165 1.5022 0
M  V30 1479 C 143.182 5.1781 -0.683414 0
M  V30 1480 H 144.876 2.91905 -0.665713 0
M  V30 1481 H 142.422 1.40363 -0.321587 0
M  V30 1482 H 144.375 3.9153 1.55827 0
M  V30 1483 H 143.099 2.70331 1.83272 0
M  V30 1484 H 141.758 3.66532 -0.0704683 0
M  V30 1485 H 141.406 4.49191 2.26355 0
M  V30 1486 H 141.106 5.77812 1.06803 0
M  V30 1487 H 142.63 5.76902 2.00041 0
M  V30 1488 H 144.044 5.72661 -0.270631 0
M  V30 1489 H 142.441 5.91015 -1.04023 0
M  V30 1490 H 143.511 4.59326 -1.55395 0
M  V30 1491 N 144.854 0.36279 1.53368 0
M  V30 1492 C 146.131 -0.284021 1.93527 0
M  V30 1493 C 146.511 -1.66628 1.29608 0
M  V30 1494 O 145.859 -2.23942 0.45413 0
M  V30 1495 C 146.069 -0.337028 3.47369 0
M  V30 1496 C 147.417 -0.578708 4.20638 0
M  V30 1497 O 148.441 -0.418352 3.53735 0
M  V30 1498 O 147.3 -0.89074 5.39192 0
M  V30 1499 H 144.394 -0.169743 0.809393 0
M  V30 1500 H 146.94 0.41537 1.64538 0
M  V30 1501 H 145.712 0.632217 3.86159 0
M  V30 1502 H 145.335 -1.08243 3.82582 0
M  V30 1503 N 146.332 -1.57332 0.0918853 0
M  V30 1504 C 147.262 -2.16872 -0.865371 0
M  V30 1505 C 148.243 -1.10118 -1.29646 0
M  V30 1506 O 149.428 -1.38242 -1.36392 0
M  V30 1507 C 146.558 -2.74649 -2.12569 0
M  V30 1508 C 145.512 -3.86747 -1.83333 0
M  V30 1509 C 144.838 -4.31212 -3.16166 0
M  V30 1510 C 146.138 -5.10089 -1.1228 0
M  V30 1511 H 147.832 -2.97114 -0.369307 0
M  V30 1512 H 145.378 -1.42918 -0.176194 0
M  V30 1513 H 147.331 -3.14952 -2.7997 0
M  V30 1514 H 146.055 -1.91657 -2.64452 0
M  V30 1515 H 144.714 -3.46978 -1.18331 0
M  V30 1516 H 144.362 -3.45115 -3.6593 0
M  V30 1517 H 144.062 -5.06788 -2.97388 0
M  V30 1518 H 145.586 -4.74146 -3.84731 0
M  V30 1519 H 147 -5.47582 -1.69785 0
M  V30 1520 H 145.397 -5.91073 -1.03693 0
M  V30 1521 H 146.467 -4.84786 -0.105041 0
M  V30 1522 N 147.81 0.181792 -1.56548 0
M  V30 1523 C 149.056 0.901431 -1.81665 0
M  V30 1524 C 149.389 1.82347 -0.668075 0
M  V30 1525 O 148.664 1.91669 0.330615 0
M  V30 1526 C 148.947 1.70618 -3.17115 0
M  V30 1527 C 148.8 0.807964 -4.42484 0
M  V30 1528 C 150.119 2.67605 -3.49393 0
M  V30 1529 H 147.238 0.32627 -0.660846 0
M  V30 1530 H 149.88 0.168134 -1.89255 0
M  V30 1531 H 148.03 2.33133 -3.10775 0
M  V30 1532 H 149.702 0.19649 -4.60881 0
M  V30 1533 H 147.945 0.115411 -4.33646 0
M  V30 1534 H 148.616 1.40632 -5.33785 0
M  V30 1535 H 151.092 2.15218 -3.56118 0
M  V30 1536 H 149.968 3.20985 -4.45264 0
M  V30 1537 H 150.229 3.47298 -2.73563 0
M  V30 1538 N 149.288 1.51039 0.449983 0
M  V30 1539 C 150.704 1.38934 0.785462 0
M  V30 1540 C 150.904 0.461817 1.96136 0
M  V30 1541 O 149.96 -0.0877389 2.52348 0
M  V30 1542 C 151.273 2.80724 1.0777 0
M  V30 1543 C 152.821 2.89787 1.1829 0
M  V30 1544 C 153.296 4.32457 1.50815 0
M  V30 1545 N 154.787 4.35505 1.57764 0
M  V30 1546 C 155.522 5.42914 1.84477 0
M  V30 1547 N 155.018 6.60502 2.09068 0
M  V30 1548 N 156.811 5.3038 1.86155 0
M  V30 1549 H 148.962 2.09904 -0.324647 0
M  V30 1550 H 151.225 0.944378 -0.0827957 0
M  V30 1551 H 150.931 3.50531 0.286498 0
M  V30 1552 H 150.805 3.19273 2.00859 0
M  V30 1553 H 153.192 2.20186 1.96474 0
M  V30 1554 H 153.273 2.54752 0.231314 0
M  V30 1555 H 152.917 5.02603 0.731622 0
M  V30 1556 H 152.847 4.64995 2.47158 0
M  V30 1557 H 155.338 3.50724 1.40715 0
M  V30 1558 H 155.651 7.38158 2.28785 0
M  V30 1559 H 153.996 6.63639 2.06416 0
M  V30 1560 H 157.187 4.37505 1.66454 0
M  V30 1561 H 157.36 6.1417 2.06637 0
M  V30 1562 N 150.766 -0.704594 1.40972 0
M  V30 1563 C 151.696 -1.83124 1.44872 0
M  V30 1564 C 152.677 -1.67281 0.30838 0
M  V30 1565 O 153.862 -1.87149 0.518556 0
M  V30 1566 C 150.992 -3.21181 1.32136 0
M  V30 1567 C 149.946 -3.51714 2.43888 0
M  V30 1568 C 149.272 -4.89032 2.16222 0
M  V30 1569 C 150.572 -3.516 3.86232 0
M  V30 1570 H 152.266 -1.80117 2.39161 0
M  V30 1571 H 149.812 -0.865145 1.15114 0
M  V30 1572 H 151.765 -3.99702 1.33479 0
M  V30 1573 H 150.489 -3.24791 0.343279 0
M  V30 1574 H 149.148 -2.75539 2.41813 0
M  V30 1575 H 148.796 -4.89256 1.16778 0
M  V30 1576 H 148.496 -5.10426 2.911 0
M  V30 1577 H 150.02 -5.69873 2.19265 0
M  V30 1578 H 151.434 -4.2014 3.9007 0
M  V30 1579 H 149.831 -3.84523 4.60719 0
M  V30 1580 H 150.901 -2.50757 4.15029 0
M  V30 1581 N 152.244 -1.26651 -0.937939 0
M  V30 1582 C 153.49 -1.13562 -1.68746 0
M  V30 1583 C 153.845 0.317241 -1.89767 0
M  V30 1584 O 153.138 1.22939 -1.46957 0
M  V30 1585 C 153.332 -1.84168 -3.06295 0
M  V30 1586 C 153.161 -3.36171 -2.98696 0
M  V30 1587 C 151.931 -4.05468 -3.01535 0
M  V30 1588 C 154.129 -4.32312 -2.78588 0
M  V30 1589 N 152.111 -5.44118 -2.84269 0
M  V30 1590 C 153.482 -5.58159 -2.69924 0
M  V30 1591 C 155.537 -4.22524 -2.63396 0
M  V30 1592 C 154.24 -6.75335 -2.47618 0
M  V30 1593 C 156.266 -5.39411 -2.42466 0
M  V30 1594 C 155.628 -6.64208 -2.34536 0
M  V30 1595 H 151.727 -0.470361 -0.624728 0
M  V30 1596 H 154.311 -1.59982 -1.10968 0
M  V30 1597 H 152.482 -1.40219 -3.62206 0
M  V30 1598 H 154.214 -1.63674 -3.70126 0
M  V30 1599 H 150.969 -3.56854 -3.11372 0
M  V30 1600 H 151.393 -6.1693 -2.78795 0
M  V30 1601 H 156.035 -3.26771 -2.68292 0
M  V30 1602 H 153.753 -7.71182 -2.41463 0
M  V30 1603 H 157.339 -5.33711 -2.31611 0
M  V30 1604 H 156.219 -7.53129 -2.18555 0
M  V30 1605 N 153.722 1.14298 -1.08507 0
M  V30 1606 C 154.654 2.1907 -0.673859 0
M  V30 1607 C 155.667 1.60381 0.279577 0
M  V30 1608 O 156.856 1.78374 0.0670754 0
M  V30 1609 C 153.956 3.38888 0.0290979 0
M  V30 1610 C 153.129 4.27103 -0.943494 0
M  V30 1611 C 152.188 5.25477 -0.275676 0
M  V30 1612 O 151.214 5.61709 -0.920401 0
M  V30 1613 N 152.416 5.7227 0.974013 0
M  V30 1614 H 155.181 2.54965 -1.57521 0
M  V30 1615 H 152.742 1.29528 -0.971287 0
M  V30 1616 H 154.734 4.01761 0.48683 0
M  V30 1617 H 153.304 3.01309 0.832555 0
M  V30 1618 H 152.524 3.61149 -1.58004 0
M  V30 1619 H 153.812 4.82905 -1.60251 0
M  V30 1620 H 153.21 5.44965 1.51755 0
M  V30 1621 H 151.767 6.37127 1.37522 0
M  V30 1622 N 155.201 0.870884 1.31352 0
M  V30 1623 C 156.431 0.496049 2.00557 0
M  V30 1624 C 156.839 -0.916241 1.65534 0
M  V30 1625 O 156.182 -1.61188 0.881134 0
M  V30 1626 C 156.244 0.574418 3.54881 0
M  V30 1627 C 155.908 1.94849 4.1338 0
M  V30 1628 C 156.905 2.91611 4.30417 0
M  V30 1629 C 154.59 2.25005 4.49086 0
M  V30 1630 C 156.584 4.16672 4.82352 0
M  V30 1631 C 154.271 3.50315 5.00722 0
M  V30 1632 C 155.269 4.45964 5.17306 0
M  V30 1633 O 154.957 5.69052 5.67833 0
M  V30 1634 H 154.689 0.191664 0.64826 0
M  V30 1635 H 157.243 1.17409 1.68536 0
M  V30 1636 H 155.473 -0.160549 3.86367 0
M  V30 1637 H 157.162 0.212879 4.05341 0
M  V30 1638 H 157.928 2.69622 4.03149 0
M  V30 1639 H 153.807 1.51332 4.35453 0
M  V30 1640 H 157.351 4.91336 4.95211 0
M  V30 1641 H 153.248 3.72147 5.27424 0
M  V30 1642 H 154.016 5.71236 5.86201 0
M  V30 1643 N 156.679 -1.44442 0.630414 0
M  V30 1644 C 158.095 -1.56832 0.295973 0
M  V30 1645 C 158.295 -1.61806 -1.20088 0
M  V30 1646 O 157.351 -1.5607 -1.9849 0
M  V30 1647 C 158.664 -2.84031 0.987264 0
M  V30 1648 C 160.212 -2.97742 0.96534 0
M  V30 1649 C 160.687 -4.27743 1.63708 0
M  V30 1650 N 162.178 -4.34555 1.60364 0
M  V30 1651 C 162.913 -5.33862 2.09234 0
M  V30 1652 N 162.409 -6.39578 2.66292 0
M  V30 1653 N 164.202 -5.25366 1.99867 0
M  V30 1654 H 156.353 -1.39457 1.60205 0
M  V30 1655 H 158.616 -0.668237 0.672431 0
M  V30 1656 H 158.322 -2.86338 2.04215 0
M  V30 1657 H 158.196 -3.73534 0.524588 0
M  V30 1658 H 160.583 -2.94989 -0.0810639 0
M  V30 1659 H 160.664 -2.09589 1.4665 0
M  V30 1660 H 160.308 -4.31255 2.68293 0
M  V30 1661 H 160.238 -5.14752 1.11076 0
M  V30 1662 H 162.729 -3.58772 1.18705 0
M  V30 1663 H 163.042 -7.11637 3.01317 0
M  V30 1664 H 161.387 -6.40265 2.70343 0
M  V30 1665 H 164.578 -4.41688 1.55013 0
M  V30 1666 H 164.751 -6.02606 2.38265 0
M  V30 1667 N 158.157 -0.370918 -1.53173 0
M  V30 1668 C 159.568 0.107139 -1.86392 0
M  V30 1669 C 159.919 1.47714 -1.29132 0
M  V30 1670 O 159.044 2.07464 -0.615439 0
M  V30 1671 C 159.639 0.201187 -3.38202 0
M  V30 1672 C 158.198 0.623507 -3.712 0
M  V30 1673 C 157.345 -0.225978 -2.76378 0
M  V30 1674 H 160.296 -0.58951 -1.47345 0
M  V30 1675 H 160.317 1.02377 -3.66468 0
M  V30 1676 H 159.829 -0.796058 -3.79848 0
M  V30 1677 H 157.93 1.62879 -3.35114 0
M  V30 1678 H 158.043 0.394414 -4.77474 0
M  V30 1679 H 156.407 0.305962 -2.52856 0
M  V30 1680 H 157.19 -1.22086 -3.20858 0
M  V30 1681 N 159.635 1.57281 -0.100228 0
M  V30 1682 C 160.881 1.95626 0.556946 0
M  V30 1683 C 161.236 0.981655 1.65473 0
M  V30 1684 O 160.529 0.00849847 1.91598 0
M  V30 1685 C 160.723 3.38305 1.15259 0
M  V30 1686 C 160.552 4.49555 0.114035 0
M  V30 1687 C 159.322 5.0434 -0.311266 0
M  V30 1688 C 161.52 5.10051 -0.659768 0
M  V30 1689 N 159.502 5.99152 -1.33755 0
M  V30 1690 C 160.873 6.00628 -1.53774 0
M  V30 1691 C 162.928 4.92772 -0.712723 0
M  V30 1692 C 161.631 6.7578 -2.46403 0
M  V30 1693 C 163.657 5.6859 -1.62663 0
M  V30 1694 C 163.019 6.58838 -2.49222 0
M  V30 1695 H 159.118 0.7624 0.173982 0
M  V30 1696 H 161.702 1.93829 -0.183988 0
M  V30 1697 H 159.873 3.40786 1.86332 0
M  V30 1698 H 161.605 3.63817 1.77254 0
M  V30 1699 H 158.36 4.73537 0.0774812 0
M  V30 1700 H 158.784 6.5126 -1.84905 0
M  V30 1701 H 163.426 4.22761 -0.0576648 0
M  V30 1702 H 161.144 7.4505 -3.12931 0
M  V30 1703 H 164.73 5.57233 -1.67281 0
M  V30 1704 H 163.61 7.16479 -3.18791 0
M  V30 1705 N 161.113 -0.173488 1.56642 0
M  V30 1706 C 162.061 -1.23417 1.97157 0
M  V30 1707 C 163.055 -1.45946 0.860013 0
M  V30 1708 O 164.261 -1.46551 1.04512 0
M  V30 1709 H 160.636 -0.414818 0.62724 0
M  V30 1710 H 162.607 -0.865582 2.8557 0
M  V30 1711 C 161.356 -2.5665 2.34576 0
M  V30 1712 H 160.679 -2.40137 3.19647 0
M  V30 1713 H 162.119 -3.2956 2.6677 0
M  V30 1714 C 160.578 -3.15245 1.18836 0
M  V30 1715 O 161.108 -3.98883 0.474869 0
M  V30 1716 N 159.314 -2.74303 0.959497 0
M  V30 1717 H 158.861 -2.0639 1.54146 0
M  V30 1718 H 158.819 -3.13844 0.186932 0
M  V30 1719 N 162.591 -1.51276 -0.441967 0
M  V30 1720 C 163.838 -1.63715 -1.19179 0
M  V30 1721 C 164.166 -0.351175 -1.91303 0
M  V30 1722 O 163.421 0.664524 -1.84072 0
M  V30 1723 C 163.72 -2.78746 -2.23686 0
M  V30 1724 C 163.386 -4.18189 -1.68607 0
M  V30 1725 C 162.048 -4.56125 -1.53308 0
M  V30 1726 C 164.4 -5.05222 -1.28062 0
M  V30 1727 C 161.728 -5.78804 -0.959317 0
M  V30 1728 C 164.08 -6.28476 -0.721162 0
M  V30 1729 C 162.744 -6.65188 -0.55504 0
M  V30 1730 H 162.014 -0.599076 -0.436106 0
M  V30 1731 H 164.661 -1.85296 -0.48351 0
M  V30 1732 H 162.966 -2.51369 -3.00535 0
M  V30 1733 H 164.663 -2.8557 -2.81515 0
M  V30 1734 H 161.253 -3.88277 -1.8149 0
M  V30 1735 H 165.437 -4.76524 -1.38704 0
M  V30 1736 H 160.693 -6.05899 -0.81833 0
M  V30 1737 H 164.867 -6.95259 -0.398458 0
M  V30 1738 H 162.494 -7.60123 -0.108311 0
M  V30 1739 N 164.069 0.697108 -1.41344 0
M  V30 1740 C 165.317 1.45426 -1.40341 0
M  V30 1741 C 165.638 1.94996 -0.0128787 0
M  V30 1742 O 164.908 1.71599 0.945027 0
M  V30 1743 H 163.488 0.539594 -0.516573 0
M  V30 1744 H 166.15 0.825201 -1.76569 0
M  V30 1745 H 165.246 2.31817 -2.08967 0
M  V30 1746 N 165.547 1.27147 0.931209 0
M  V30 1747 C 166.824 1.0401 1.65654 0
M  V30 1748 C 167.204 -0.426297 2.06751 0
M  V30 1749 O 166.552 -1.40879 1.79904 0
M  V30 1750 C 166.762 1.99834 2.86125 0
M  V30 1751 C 168.11 2.29007 3.57549 0
M  V30 1752 O 169.134 1.97779 2.96246 0
M  V30 1753 O 167.993 2.82222 4.67989 0
M  V30 1754 H 165.087 0.396239 0.725895 0
M  V30 1755 H 167.633 1.38397 0.982056 0
M  V30 1756 H 166.405 2.98744 2.52721 0
M  V30 1757 H 166.028 1.65987 3.61295 0
M  V30 1758 N 167.025 -1.13721 1.09112 0
M  V30 1759 C 167.955 -2.21148 0.749385 0
M  V30 1760 C 168.936 -1.6792 -0.271475 0
M  V30 1761 O 170.121 -1.93693 -0.140251 0
M  V30 1762 C 167.251 -3.46905 0.165659 0
M  V30 1763 C 166.205 -4.13203 1.11567 0
M  V30 1764 C 165.531 -5.33248 0.393809 0
M  V30 1765 C 166.831 -4.60912 2.45678 0
M  V30 1766 H 168.525 -2.4999 1.64758 0
M  V30 1767 H 166.071 -1.20156 0.793626 0
M  V30 1768 H 168.024 -4.21313 -0.085466 0
M  V30 1769 H 166.748 -3.17449 -0.767714 0
M  V30 1770 H 165.407 -3.40758 1.35202 0
M  V30 1771 H 165.055 -5.00054 -0.543599 0
M  V30 1772 H 164.755 -5.78552 1.02721 0
M  V30 1773 H 166.279 -6.10413 0.150908 0
M  V30 1774 H 167.693 -5.26759 2.26269 0
M  V30 1775 H 166.09 -5.16944 3.04776 0
M  V30 1776 H 167.16 -3.75603 3.06677 0
M  V30 1777 N 168.503 -0.877838 -1.30888 0
M  V30 1778 C 169.433 -0.35534 -2.3078 0
M  V30 1779 C 170.414 0.557994 -1.60687 0
M  V30 1780 O 171.599 0.473355 -1.88343 0
M  V30 1781 C 168.729 0.437221 -3.44537 0
M  V30 1782 C 167.683 -0.383715 -4.26276 0
M  V30 1783 C 167.009 0.535014 -5.32017 0
M  V30 1784 C 168.309 -1.62201 -4.96476 0
M  V30 1785 H 170.003 -1.19007 -2.74732 0
M  V30 1786 H 167.549 -0.573698 -1.32078 0
M  V30 1787 H 169.502 0.813334 -4.13477 0
M  V30 1788 H 168.226 1.30553 -2.99372 0
M  V30 1789 H 166.885 -0.741874 -3.59015 0
M  V30 1790 H 166.533 1.40083 -4.831 0
M  V30 1791 H 166.233 -0.0104211 -5.87599 0
M  V30 1792 H 167.757 0.907799 -6.03814 0
M  V30 1793 H 169.171 -1.31689 -5.5797 0
M  V30 1794 H 167.568 -2.10711 -5.61891 0
M  V30 1795 H 168.638 -2.37044 -4.23011 0
M  V30 1796 N 169.982 1.44106 -0.638065 0
M  V30 1797 C 171.222 2.03858 -0.148733 0
M  V30 1798 C 171.586 1.49153 1.20903 0
M  V30 1799 O 172.787 2.00452 1.79088 0
M  V30 1800 C 171.058 3.57117 -0.142314 0
M  V30 1801 S 172.617 4.37897 0.281385 0
M  V30 1802 H 169.435 0.708069 -0.0644912 0
M  V30 1803 H 172.037 1.7639 -0.843009 0
M  V30 1804 H 170.741 3.94436 -1.13349 0
M  V30 1805 H 170.272 3.89205 0.572988 0
M  V30 1806 H 172.287 4.72218 1.52395 0
M  V30 1807 N 171.46 0.379036 1.52974 0
M  V30 1808 C 172.407 -0.461048 2.26148 0
M  V30 1809 C 173.377 -1.06637 1.27349 0
M  V30 1810 O 174.562 -1.09633 1.56157 0
M  V30 1811 C 171.702 -1.58782 3.06402 0
M  V30 1812 C 170.815 -1.00636 4.20115 0
M  V30 1813 C 169.95 -2.10334 4.87784 0
M  V30 1814 C 168.989 -1.49724 5.93506 0
M  V30 1815 N 168.126 -2.5331 6.54812 0
M  V30 1816 H 172.966 0.169429 2.97518 0
M  V30 1817 H 170.503 0.0953806 1.4679 0
M  V30 1818 H 172.461 -2.25174 3.51215 0
M  V30 1819 H 171.091 -2.18876 2.37261 0
M  V30 1820 H 170.143 -0.232332 3.7969 0
M  V30 1821 H 171.455 -0.523343 4.96047 0
M  V30 1822 H 170.609 -2.84519 5.35849 0
M  V30 1823 H 169.348 -2.61992 4.11353 0
M  V30 1824 H 168.353 -0.740598 5.44789 0
M  V30 1825 H 169.578 -0.988732 6.71864 0
M  V30 1826 H 167.524 -3.04156 5.81227 0
M  V30 1827 H 167.441 -2.09734 7.26325 0
M  V30 1828 H 168.709 -3.27155 7.07524 0
M  V30 1829 N 172.938 -1.57226 0.108567 0
M  V30 1830 C 173.868 -2.17778 -0.84232 0
M  V30 1831 C 174.849 -1.11487 -1.2847 0
M  V30 1832 O 176.034 -1.39681 -1.34918 0
M  V30 1833 C 173.164 -2.76888 -2.09644 0
M  V30 1834 C 172.118 -3.88669 -1.79221 0
M  V30 1835 C 171.444 -4.34541 -3.11574 0
M  V30 1836 C 172.744 -5.11251 -1.06864 0
M  V30 1837 H 174.438 -2.97489 -0.337774 0
M  V30 1838 H 171.984 -1.43097 -0.161025 0
M  V30 1839 H 173.937 -3.17904 -2.76614 0
M  V30 1840 H 172.661 -1.94451 -2.62405 0
M  V30 1841 H 171.32 -3.48213 -1.14644 0
M  V30 1842 H 170.968 -3.48977 -3.62249 0
M  V30 1843 H 170.668 -5.09914 -2.91996 0
M  V30 1844 H 172.192 -4.782 -3.7968 0
M  V30 1845 H 173.606 -5.49352 -1.63968 0
M  V30 1846 H 172.003 -5.9214 -0.974178 0
M  V30 1847 H 173.073 -4.8487 -0.0536168 0
M  V30 1848 N 174.416 0.165178 -1.56732 0
M  V30 1849 C 175.663 0.880807 -1.8234 0
M  V30 1850 C 175.991 1.81977 -0.686621 0
M  V30 1851 O 175.246 1.92971 0.325697 0
M  V30 1852 C 175.545 1.70405 -3.1416 0
M  V30 1853 C 175.211 0.913475 -4.4155 0
M  V30 1854 C 173.873 0.695303 -4.7615 0
M  V30 1855 C 176.225 0.359349 -5.1996 0
M  V30 1856 C 173.553 -0.0879947 -5.86634 0
M  V30 1857 C 175.905 -0.410893 -6.31264 0
M  V30 1858 C 174.569 -0.639808 -6.64427 0
M  V30 1859 H 173.839 0.32231 -0.667231 0
M  V30 1860 H 176.486 0.145402 -1.90947 0
M  V30 1861 H 174.791 2.50903 -3.00923 0
M  V30 1862 H 176.488 2.26091 -3.31186 0
M  V30 1863 H 173.078 1.09357 -4.14414 0
M  V30 1864 H 177.262 0.515228 -4.93618 0
M  V30 1865 H 172.518 -0.27503 -6.10781 0
M  V30 1866 H 176.692 -0.847494 -6.91224 0
M  V30 1867 H 174.319 -1.24864 -7.49875 0
M  V30 1868 N 175.894 1.51508 0.433938 0
M  V30 1869 C 176.826 1.69266 1.54537 0
M  V30 1870 C 177.839 0.573276 1.52373 0
M  V30 1871 O 179.028 0.847698 1.57087 0
M  V30 1872 C 176.128 1.69524 2.93453 0
M  V30 1873 C 175.301 2.98101 3.20085 0
M  V30 1874 C 174.36 2.90502 4.38742 0
M  V30 1875 O 173.386 3.64442 4.3723 0
M  V30 1876 N 174.588 2.06586 5.42496 0
M  V30 1877 H 177.353 2.65145 1.39708 0
M  V30 1878 H 174.914 1.49437 0.622922 0
M  V30 1879 H 176.906 1.62004 3.70859 0
M  V30 1880 H 175.476 0.812245 3.01863 0
M  V30 1881 H 174.696 3.19464 2.30947 0
M  V30 1882 H 175.984 3.83207 3.34708 0
M  V30 1883 H 175.382 1.45896 5.46563 0
M  V30 1884 H 173.939 2.04943 6.18742 0
M  V30 1885 N 177.372 -0.689602 1.41712 0
M  V30 1886 C 178.619 -1.44966 1.4139 0
M  V30 1887 C 178.947 -1.94484 0.025105 0
M  V30 1888 O 178.202 -1.70307 -0.964048 0
M  V30 1889 C 178.501 -2.67298 2.37247 0
M  V30 1890 C 178.167 -2.36405 3.83958 0
M  V30 1891 C 176.829 -2.27691 4.23923 0
M  V30 1892 C 179.181 -2.11043 4.76561 0
M  V30 1893 C 176.509 -1.91719 5.54492 0
M  V30 1894 C 178.861 -1.76578 6.07456 0
M  V30 1895 C 177.525 -1.66363 6.46436 0
M  V30 1896 H 176.795 -0.53047 0.517381 0
M  V30 1897 H 179.442 -0.787655 1.74552 0
M  V30 1898 H 177.747 -3.38461 1.9736 0
M  V30 1899 H 179.444 -3.25452 2.34269 0
M  V30 1900 H 176.034 -2.44085 3.52308 0
M  V30 1901 H 180.218 -2.16717 4.46483 0
M  V30 1902 H 175.474 -1.82367 5.83568 0
M  V30 1903 H 179.648 -1.55974 6.78708 0
M  V30 1904 H 177.275 -1.38258 7.47522 0
M  V30 1905 N 178.85 -1.27639 -0.924453 0
M  V30 1906 C 180.096 -1.14336 -1.67497 0
M  V30 1907 C 180.429 0.309465 -1.91718 0
M  V30 1908 O 179.704 1.22608 -1.50989 0
M  V30 1909 C 179.987 -1.93096 -3.0395 0
M  V30 1910 C 179.84 -3.46381 -2.8695 0
M  V30 1911 C 181.159 -1.73798 -4.0433 0
M  V30 1912 H 178.278 -0.416728 -0.607871 0
M  V30 1913 H 180.92 -1.56832 -1.07256 0
M  V30 1914 H 179.07 -1.56982 -3.55372 0
M  V30 1915 H 180.742 -3.92343 -2.42621 0
M  V30 1916 H 178.985 -3.72557 -2.22225 0
M  V30 1917 H 179.656 -3.96735 -3.83804 0
M  V30 1918 H 182.132 -2.05293 -3.61931 0
M  V30 1919 H 181.008 -2.31294 -4.97789 0
M  V30 1920 H 181.269 -0.686725 -4.36734 0
M  V30 1921 N 180.328 1.1314 -1.09713 0
M  V30 1922 C 181.553 1.88862 -0.857081 0
M  V30 1923 C 181.978 1.78729 0.586304 0
M  V30 1924 O 181.336 1.13692 1.41222 0
M  V30 1925 C 181.384 3.36325 -1.30069 0
M  V30 1926 O 180.488 4.09815 -0.461007 0
M  V30 1927 H 179.829 0.587108 -0.310162 0
M  V30 1928 H 182.359 1.43129 -1.46203 0
M  V30 1929 H 182.369 3.87157 -1.28738 0
M  V30 1930 H 181.044 3.43017 -2.35185 0
M  V30 1931 H 179.621 3.68986 -0.538888 0
M  V30 1932 N 181.806 0.884767 1.30421 0
M  V30 1933 C 182.716 0.355398 2.31892 0
M  V30 1934 C 183.732 -0.542261 1.65335 0
M  V30 1935 O 184.908 -0.435432 1.96637 0
M  V30 1936 C 181.973 -0.421661 3.44126 0
M  V30 1937 C 181.034 0.505727 4.26311 0
M  V30 1938 C 180.267 -0.234343 5.33185 0
M  V30 1939 O 180.49 -1.46045 5.51386 0
M  V30 1940 O 179.424 0.415443 6.00465 0
M  V30 1941 H 183.25 1.19685 2.79122 0
M  V30 1942 H 180.835 0.648596 1.34587 0
M  V30 1943 H 182.717 -0.861641 4.12497 0
M  V30 1944 H 181.392 -1.23942 2.99032 0
M  V30 1945 H 180.299 0.994513 3.60639 0
M  V30 1946 H 181.632 1.28948 4.75009 0
M  V30 1947 N 183.284 -1.43765 0.645699 0
M  V30 1948 C 184.509 -2.06767 0.161883 0
M  V30 1949 C 184.934 -1.48034 -1.16049 0
M  V30 1950 O 184.292 -0.587369 -1.71522 0
M  V30 1951 C 184.34 -3.60519 0.0762003 0
M  V30 1952 O 183.444 -4.00982 -0.963721 0
M  V30 1953 H 182.785 -0.657675 0.091429 0
M  V30 1954 H 185.315 -1.84397 0.886499 0
M  V30 1955 H 185.325 -4.07853 -0.109604 0
M  V30 1956 H 184 -4.02646 1.04157 0
M  V30 1957 H 182.577 -3.65253 -0.751312 0
M  V30 1958 N 184.763 -0.387143 -1.52771 0
M  V30 1959 C 186.003 0.195537 -2.03463 0
M  V30 1960 C 186.367 1.44222 -1.26744 0
M  V30 1961 O 187.568 2.10192 -1.67549 0
M  V30 1962 C 185.839 0.459097 -3.54439 0
M  V30 1963 S 187.398 1.01237 -4.26962 0
M  V30 1964 H 184.216 0.0552675 -0.708849 0
M  V30 1965 H 186.818 -0.534992 -1.88037 0
M  V30 1966 H 185.522 -0.455382 -4.07866 0
M  V30 1967 H 185.053 1.21811 -3.74066 0
M  V30 1968 H 187.068 2.29492 -4.39941 0
M  V30 1969 N 186.241 1.57166 -0.116904 0
M  V30 1970 C 187.469 1.99473 0.549383 0
M  V30 1971 C 187.884 0.996541 1.60357 0
M  V30 1972 O 187.241 -0.0108731 1.82497 0
M  V30 1973 C 187.292 3.41788 1.17741 0
M  V30 1974 O 187.013 4.37788 0.165362 0
M  V30 1975 C 188.514 3.99216 1.92722 0
M  V30 1976 H 185.734 0.655009 0.145616 0
M  V30 1977 H 188.278 2.03494 -0.202625 0
M  V30 1978 H 186.433 3.38713 1.88021 0
M  V30 1979 H 186.847 5.20806 0.621403 0
M  V30 1980 H 188.321 5.00882 2.31995 0
M  V30 1981 H 188.798 3.3824 2.80161 0
M  V30 1982 H 189.404 4.0583 1.27209 0
M  V30 1983 N 187.719 -0.156864 1.56817 0
M  V30 1984 C 188.949 -0.885031 1.86684 0
M  V30 1985 C 189.357 -1.75696 0.701954 0
M  V30 1986 O 188.7 -1.80569 -0.337732 0
M  V30 1987 C 188.762 -1.80092 3.11138 0
M  V30 1988 C 188.426 -1.10714 4.43386 0
M  V30 1989 C 189.423 -0.465714 5.1781 0
M  V30 1990 C 187.108 -1.09959 4.90117 0
M  V30 1991 C 189.102 0.174002 6.37162 0
M  V30 1992 C 186.789 -0.456055 6.09396 0
M  V30 1993 C 187.787 0.179622 6.82764 0
M  V30 1994 O 187.475 0.812975 7.99779 0
M  V30 1995 H 187.207 -0.261813 0.623242 0
M  V30 1996 H 189.761 -0.157383 2.04796 0
M  V30 1997 H 187.991 -2.56926 2.89009 0
M  V30 1998 H 189.68 -2.40018 3.27332 0
M  V30 1999 H 190.446 -0.463427 4.82781 0
M  V30 2000 H 186.325 -1.58378 4.3294 0
M  V30 2001 H 189.869 0.670765 6.94368 0
M  V30 2002 H 185.766 -0.455975 6.43888 0
M  V30 2003 H 186.534 0.71366 8.15383 0
M  V30 2004 N 189.197 -1.51736 -0.425897 0
M  V30 2005 C 190.16 -1.73271 -1.50032 0
M  V30 2006 C 191.16 -0.602639 -1.4908 0
M  V30 2007 O 192.35 -0.87033 -1.509 0
M  V30 2008 C 189.482 -1.79969 -2.89523 0
M  V30 2009 H 190.675 -2.69172 -1.32237 0
M  V30 2010 H 188.228 -1.41899 -0.65532 0
M  V30 2011 H 188.963 -0.859241 -3.1271 0
M  V30 2012 H 188.748 -2.62109 -2.91619 0
M  V30 2013 H 190.238 -1.9843 -3.67444 0
M  V30 2014 N 190.675 0.682077 -1.42076 0
M  V30 2015 C 191.903 1.47057 -1.4554 0
M  V30 2016 C 192.318 1.8869 -0.0645779 0
M  V30 2017 O 191.675 1.57666 0.919115 0
M  V30 2018 C 191.726 2.72442 -2.37609 0
M  V30 2019 O 191.447 2.32559 -3.71279 0
M  V30 2020 C 192.948 3.66069 -2.50017 0
M  V30 2021 H 190.168 0.452737 -0.495248 0
M  V30 2022 H 192.712 0.838695 -1.8651 0
M  V30 2023 H 190.867 3.31835 -1.9991 0
M  V30 2024 H 191.281 3.13475 -4.20516 0
M  V30 2025 H 192.755 4.50792 -3.18576 0
M  V30 2026 H 193.232 4.11476 -1.53572 0
M  V30 2027 H 193.838 3.12572 -2.88407 0
M  V30 2028 N 192.153 1.28127 0.917671 0
M  V30 2029 C 193.399 1.15223 1.66888 0
M  V30 2030 C 193.732 -0.299293 1.9188 0
M  V30 2031 O 193.007 -1.21805 1.51637 0
M  V30 2032 C 193.29 1.94706 3.02922 0
M  V30 2033 C 193.143 3.47898 2.85109 0
M  V30 2034 C 194.462 1.75939 4.03402 0
M  V30 2035 H 191.581 0.419946 0.605652 0
M  V30 2036 H 194.223 1.57398 1.06423 0
M  V30 2037 H 192.373 1.58864 3.54534 0
M  V30 2038 H 194.045 3.93624 2.40537 0
M  V30 2039 H 192.288 3.7373 2.20246 0
M  V30 2040 H 192.959 3.98765 3.81694 0
M  V30 2041 H 195.435 2.07209 3.60837 0
M  V30 2042 H 194.311 2.33931 4.96556 0
M  V30 2043 H 194.572 0.709877 4.36364 0
M  V30 2044 N 193.631 -1.12557 1.10312 0
M  V30 2045 C 194.561 -2.20341 0.772798 0
M  V30 2046 C 195.542 -1.68198 -0.25365 0
M  V30 2047 O 196.727 -1.93831 -0.119699 0
M  V30 2048 C 193.857 -3.46709 0.202443 0
M  V30 2049 C 192.811 -4.11996 1.15943 0
M  V30 2050 C 192.137 -5.328 0.450345 0
M  V30 2051 C 193.437 -4.5828 2.50552 0
M  V30 2052 H 195.131 -2.48229 1.674 0
M  V30 2053 H 192.677 -1.19308 0.806326 0
M  V30 2054 H 194.63 -4.2138 -0.0407752 0
M  V30 2055 H 193.354 -3.18245 -0.734001 0
M  V30 2056 H 192.013 -3.39305 1.38808 0
M  V30 2057 H 191.661 -5.00602 -0.490531 0
M  V30 2058 H 191.361 -5.7743 1.08851 0
M  V30 2059 H 192.885 -6.10219 0.215642 0
M  V30 2060 H 194.299 -5.2433 2.31843 0
M  V30 2061 H 192.696 -5.13683 3.10242 0
M  V30 2062 H 193.766 -3.72329 3.10643 0
M  V30 2063 N 195.109 -0.891671 -1.2995 0
M  V30 2064 C 196.337 -0.52866 -2.00032 0
M  V30 2065 C 196.752 0.884574 -1.66795 0
M  V30 2066 O 196.109 1.5827 -0.908669 0
M  V30 2067 C 196.16 -0.701814 -3.54622 0
M  V30 2068 O 195.881 -2.05942 -3.86678 0
M  V30 2069 C 197.382 -0.342683 -4.41973 0
M  V30 2070 H 194.602 -0.203659 -0.639347 0
M  V30 2071 H 197.146 -1.19881 -1.65677 0
M  V30 2072 H 195.301 -0.0789468 -3.8732 0
M  V30 2073 H 195.715 -2.08291 -4.81368 0
M  V30 2074 H 197.189 -0.514709 -5.49595 0
M  V30 2075 H 197.666 0.71975 -4.33262 0
M  V30 2076 H 198.272 -0.942154 -4.14733 0
M  V30 2077 N 196.587 1.43421 -0.653314 0
M  V30 2078 C 197.836 2.01032 -0.164076 0
M  V30 2079 C 198.149 1.52147 1.22926 0
M  V30 2080 O 199.355 2.02031 1.81371 0
M  V30 2081 C 197.811 3.59082 -0.24252 0
M  V30 2082 C 197.419 4.1696 -1.63855 0
M  V30 2083 C 199.163 4.24079 0.18911 0
M  V30 2084 C 197.07 5.67304 -1.67092 0
M  V30 2085 H 196 0.751798 -0.0575769 0
M  V30 2086 H 198.651 1.6439 -0.815362 0
M  V30 2087 H 197.033 3.93125 0.476276 0
M  V30 2088 H 198.207 3.94416 -2.38271 0
M  V30 2089 H 196.522 3.64335 -2.01616 0
M  V30 2090 H 199.119 5.34381 0.184775 0
M  V30 2091 H 199.462 3.98005 1.22056 0
M  V30 2092 H 199.995 3.94918 -0.477938 0
M  V30 2093 H 196.734 5.98145 -2.68146 0
M  V30 2094 H 196.254 5.91904 -0.970014 0
M  V30 2095 H 197.933 6.31344 -1.4147 0
M  V30 2096 N 198.065 0.39524 1.52563 0
M  V30 2097 C 199.293 -0.184943 2.06072 0
M  V30 2098 C 199.708 -1.40021 1.26647 0
M  V30 2099 O 199.065 -1.79767 0.314672 0
M  V30 2100 C 199.116 -0.549179 3.57304 0
M  V30 2101 O 198.837 0.617813 4.33722 0
M  V30 2102 C 200.338 -1.18459 4.2718 0
M  V30 2103 H 197.558 -0.0265025 0.670476 0
M  V30 2104 H 200.102 0.562184 1.96621 0
M  V30 2105 H 198.257 -1.2462 3.66809 0
M  V30 2106 H 198.671 0.317091 5.23541 0
M  V30 2107 H 200.145 -1.38976 5.34219 0
M  V30 2108 H 200.622 -2.15368 3.82771 0
M  V30 2109 H 201.228 -0.528163 4.22008 0
M  V30 2110 N 199.544 -1.57102 0.125237 0
M  V30 2111 C 200.507 -2.14471 -0.80838 0
M  V30 2112 C 201.507 -1.0811 -1.19033 0
M  V30 2113 O 202.697 -1.33856 -1.11482 0
M  V30 2114 C 199.829 -2.69005 -2.09402 0
M  V30 2115 H 201.022 -2.98297 -0.309696 0
M  V30 2116 H 198.575 -1.55807 -0.124051 0
M  V30 2117 H 199.31 -1.88785 -2.63687 0
M  V30 2118 H 199.095 -3.46799 -1.82957 0
M  V30 2119 H 200.585 -3.13278 -2.76128 0
M  V30 2120 N 201.022 0.148545 -1.56898 0
M  V30 2121 C 201.952 1.18524 -2.01182 0
M  V30 2122 C 202.933 1.4489 -0.891123 0
M  V30 2123 O 204.118 1.55836 -1.15882 0
M  V30 2124 C 201.248 2.51879 -2.39112 0
M  V30 2125 C 200.202 2.40038 -3.54353 0
M  V30 2126 C 199.528 3.78089 -3.78091 0
M  V30 2127 C 200.828 1.88577 -4.87069 0
M  V30 2128 H 202.522 0.817029 -2.88036 0
M  V30 2129 H 200.068 0.391575 -1.38574 0
M  V30 2130 H 202.021 3.24627 -2.68692 0
M  V30 2131 H 200.745 2.90532 -1.49193 0
M  V30 2132 H 199.404 1.69742 -3.24936 0
M  V30 2133 H 199.052 4.14175 -2.85426 0
M  V30 2134 H 198.752 3.71028 -4.55645 0
M  V30 2135 H 200.276 4.52387 -4.10095 0
M  V30 2136 H 201.69 2.51117 -5.15377 0
M  V30 2137 H 200.087 1.9241 -5.68417 0
M  V30 2138 H 201.157 0.84136 -4.77545 0
M  V30 2139 N 202.5 1.5196 0.417844 0
M  V30 2140 C 203.725 1.69717 1.1921 0
M  V30 2141 C 204.15 0.402148 1.83751 0
M  V30 2142 O 203.508 -0.639593 1.69643 0
M  V30 2143 C 203.556 2.82794 2.2374 0
M  V30 2144 O 202.66 2.47756 3.29683 0
M  V30 2145 H 202.001 0.565263 0.348387 0
M  V30 2146 H 204.531 1.98621 0.490985 0
M  V30 2147 H 204.541 3.07452 2.68212 0
M  V30 2148 H 203.216 3.76756 1.76146 0
M  V30 2149 H 201.793 2.33739 2.90552 0
M  V30 2150 N 203.978 -0.674533 1.42435 0
M  V30 2151 C 205.224 -1.43671 1.43131 0
M  V30 2152 C 205.557 -1.94142 0.0476021 0
M  V30 2153 O 204.832 -1.70924 -0.928188 0
M  V30 2154 C 205.115 -2.63355 2.45594 0
M  V30 2155 C 204.968 -2.18514 3.93156 0
M  V30 2156 C 206.287 -3.65571 2.45043 0
M  V30 2157 H 203.406 -0.521077 0.521198 0
M  V30 2158 H 206.048 -0.766551 1.7385 0
M  V30 2159 H 204.198 -3.2053 2.19528 0
M  V30 2160 H 205.87 -1.66504 4.30202 0
M  V30 2161 H 204.113 -1.50086 4.07009 0
M  V30 2162 H 204.784 -3.04484 4.60428 0
M  V30 2163 H 207.26 -3.18113 2.68223 0
M  V30 2164 H 206.136 -4.46893 3.18713 0
M  V30 2165 H 206.397 -4.16716 1.47649 0
M  V30 2166 N 205.456 -1.28612 -0.910864 0
M  V30 2167 C 206.366 -1.14643 -2.0468 0
M  V30 2168 C 207.382 -0.0723121 -1.7385 0
M  V30 2169 O 208.558 -0.282178 -1.99413 0
M  V30 2170 C 205.623 -0.812561 -3.37044 0
M  V30 2171 C 204.684 -1.96935 -3.81465 0
M  V30 2172 C 203.917 -1.65131 -5.07511 0
M  V30 2173 O 204.14 -0.567013 -5.67575 0
M  V30 2174 O 203.074 -2.49585 -5.47714 0
M  V30 2175 H 206.9 -2.1001 -2.19384 0
M  V30 2176 H 204.485 -1.07958 -1.03274 0
M  V30 2177 H 206.367 -0.640441 -4.16505 0
M  V30 2178 H 205.042 0.111426 -3.23508 0
M  V30 2179 H 203.949 -2.19664 -3.02818 0
M  V30 2180 H 205.282 -2.87414 -3.99567 0
M  V30 2181 N 206.934 1.1197 -1.10907 0
M  V30 2182 C 208.35 1.35591 -0.841852 0
M  V30 2183 C 208.55 1.94233 0.536246 0
M  V30 2184 O 207.606 2.1717 1.28816 0
M  V30 2185 C 208.919 2.29284 -1.94549 0
M  V30 2186 C 210.467 2.42862 -1.97451 0
M  V30 2187 C 210.942 3.39873 -3.07002 0
M  V30 2188 N 212.433 3.47433 -3.06341 0
M  V30 2189 C 213.168 4.22421 -3.87748 0
M  V30 2190 N 212.664 5.00432 -4.79103 0
M  V30 2191 N 214.457 4.17876 -3.75946 0
M  V30 2192 H 206.608 0.722664 -1.99728 0
M  V30 2193 H 208.871 0.380635 -0.868229 0
M  V30 2194 H 208.577 1.93378 -2.93765 0
M  V30 2195 H 208.451 3.29452 -1.83688 0
M  V30 2196 H 210.838 2.78046 -0.988645 0
M  V30 2197 H 210.919 1.42566 -2.12388 0
M  V30 2198 H 210.563 3.05417 -4.05811 0
M  V30 2199 H 210.493 4.40011 -2.89306 0
M  V30 2200 H 212.984 2.91784 -2.40147 0
M  V30 2201 H 213.297 5.55002 -5.37766 0
M  V30 2202 H 211.642 4.99612 -4.83128 0
M  V30 2203 H 214.833 3.56016 -3.03924 0
M  V30 2204 H 215.006 4.76061 -4.39624 0
M  V30 2205 N 208.412 0.89855 1.29475 0
M  V30 2206 C 209.642 0.538479 1.99459 0
M  V30 2207 C 210.05 -0.880922 1.67441 0
M  V30 2208 O 209.393 -1.59283 0.915127 0
M  V30 2209 C 209.455 0.649564 3.53583 0
M  V30 2210 C 209.119 2.03573 4.09154 0
M  V30 2211 C 210.116 3.00675 4.24135 0
M  V30 2212 C 207.801 2.3448 4.44212 0
M  V30 2213 C 209.795 4.26809 4.73405 0
M  V30 2214 C 207.482 3.60857 4.93179 0
M  V30 2215 C 208.48 4.56836 5.0773 0
M  V30 2216 O 208.168 5.80969 5.55635 0
M  V30 2217 H 207.9 0.205372 0.644048 0
M  V30 2218 H 210.454 1.20958 1.66007 0
M  V30 2219 H 208.684 -0.0785592 3.8662 0
M  V30 2220 H 210.373 0.29881 4.04799 0
M  V30 2221 H 211.139 2.78112 3.97339 0
M  V30 2222 H 207.018 1.60534 4.32145 0
M  V30 2223 H 210.562 5.0173 4.84678 0
M  V30 2224 H 206.459 3.83251 5.19412 0
M  V30 2225 H 207.227 5.83542 5.73952 0
M  V30 2226 N 209.89 -1.43072 0.660911 0
M  V30 2227 C 211.137 -2.01721 0.177445 0
M  V30 2228 C 211.465 -1.5218 -1.21126 0
M  V30 2229 O 210.72 -0.708659 -1.82419 0
M  V30 2230 C 211.019 -3.57103 0.145563 0
M  V30 2231 C 210.685 -4.26021 1.47705 0
M  V30 2232 C 209.347 -4.44563 1.84165 0
M  V30 2233 C 211.699 -4.64983 2.35458 0
M  V30 2234 C 209.027 -4.99334 3.0803 0
M  V30 2235 C 211.379 -5.21127 3.58622 0
M  V30 2236 C 210.043 -5.37884 3.95268 0
M  V30 2237 H 209.313 -0.73815 0.0649317 0
M  V30 2238 H 211.96 -1.71446 0.853144 0
M  V30 2239 H 210.265 -3.86965 -0.61361 0
M  V30 2240 H 211.962 -4.00248 -0.2455 0
M  V30 2241 H 208.552 -4.11939 1.18339 0
M  V30 2242 H 212.736 -4.50343 2.08579 0
M  V30 2243 H 207.992 -5.10493 3.36462 0
M  V30 2244 H 212.166 -5.50262 4.26831 0
M  V30 2245 H 209.793 -5.80089 4.91325 0
M  V30 2246 N 211.368 -0.403325 -1.52352 0
M  V30 2247 C 212.331 0.413051 -2.25447 0
M  V30 2248 C 213.331 0.978513 -1.276 0
M  V30 2249 O 214.521 0.858305 -1.51587 0
M  V30 2250 C 211.653 1.58087 -3.02029 0
M  V30 2251 H 212.846 -0.227094 -2.99039 0
M  V30 2252 H 210.399 -0.155722 -1.55522 0
M  V30 2253 H 211.134 2.25804 -2.32772 0
M  V30 2254 H 210.919 1.18195 -3.73861 0
M  V30 2255 H 212.409 2.1585 -3.57489 0
M  V30 2256 N 212.846 1.57033 -0.133567 0
M  V30 2257 C 214.095 1.94861 0.520768 0
M  V30 2258 C 214.408 1.02012 1.66892 0
M  V30 2259 O 215.614 1.29365 2.38699 0
M  V30 2260 C 214.07 3.46362 0.977809 0
M  V30 2261 C 213.678 4.47773 -0.142674 0
M  V30 2262 C 215.422 3.93083 1.60269 0
M  V30 2263 C 213.329 5.90468 0.331883 0
M  V30 2264 H 212.259 0.727453 0.198315 0
M  V30 2265 H 214.91 1.82227 -0.215759 0
M  V30 2266 H 213.292 3.54282 1.7692 0
M  V30 2267 H 214.466 4.51536 -0.919317 0
M  V30 2268 H 212.781 4.10891 -0.675124 0
M  V30 2269 H 215.378 4.97121 1.96914 0
M  V30 2270 H 215.721 3.33876 2.48662 0
M  V30 2271 H 216.254 3.88025 0.876453 0
M  V30 2272 H 212.993 6.53463 -0.516341 0
M  V30 2273 H 212.513 5.90094 1.07469 0
M  V30 2274 H 214.192 6.42179 0.788332 0
M  V30 2275 N 214.325 -0.140222 1.56975 0
M  V30 2276 C 215.565 -0.857823 1.85528 0
M  V30 2277 C 215.929 -1.78039 0.718768 0
M  V30 2278 O 217.13 -2.53795 0.885521 0
M  V30 2279 C 215.401 -1.60615 3.19277 0
M  V30 2280 S 216.96 -2.36824 3.69405 0
M  V30 2281 H 213.778 -0.286727 0.650622 0
M  V30 2282 H 216.38 -0.117408 1.95147 0
M  V30 2283 H 215.084 -0.919994 3.99955 0
M  V30 2284 H 214.615 -2.38735 3.12681 0
M  V30 2285 H 216.63 -3.62148 3.3921 0
M  V30 2286 N 215.803 -1.52179 -0.40978 0
M  V30 2287 C 217.05 -1.66206 -1.15679 0
M  V30 2288 C 217.378 -0.391674 -1.90516 0
M  V30 2289 O 216.633 0.62533 -1.8544 0
M  V30 2290 C 216.932 -2.83428 -2.17723 0
M  V30 2291 C 216.598 -4.21672 -1.59699 0
M  V30 2292 C 215.26 -4.59274 -1.43599 0
M  V30 2293 C 217.612 -5.07825 -1.17317 0
M  V30 2294 C 214.94 -5.80709 -0.836328 0
M  V30 2295 C 217.292 -6.29864 -0.587691 0
M  V30 2296 C 215.956 -6.66216 -0.413818 0
M  V30 2297 H 215.226 -0.608192 -0.423301 0
M  V30 2298 H 217.873 -1.86279 -0.444097 0
M  V30 2299 H 216.178 -2.57687 -2.95135 0
M  V30 2300 H 217.875 -2.91477 -2.75394 0
M  V30 2301 H 214.465 -3.9204 -1.73213 0
M  V30 2302 H 218.649 -4.79359 -1.28565 0
M  V30 2303 H 213.905 -6.07498 -0.689626 0
M  V30 2304 H 218.079 -6.95948 -0.250894 0
M  V30 2305 H 215.706 -7.60182 0.0529471 0
M  V30 2306 N 217.281 0.66697 -1.42791 0
M  V30 2307 C 218.692 1.2478 -1.38877 0
M  V30 2308 C 219.043 1.96012 -0.0859426 0
M  V30 2309 O 218.168 2.00463 0.815081 0
M  V30 2310 C 218.763 2.26938 -2.51564 0
M  V30 2311 C 217.322 2.80529 -2.50959 0
M  V30 2312 C 216.469 1.54965 -2.29959 0
M  V30 2313 H 219.42 0.459853 -1.51892 0
M  V30 2314 H 219.441 3.08834 -2.22265 0
M  V30 2315 H 218.953 1.75065 -3.46372 0
M  V30 2316 H 217.054 3.36502 -1.59991 0
M  V30 2317 H 217.167 3.29012 -3.48265 0
M  V30 2318 H 215.531 1.81817 -1.78366 0
M  V30 2319 H 216.314 1.05047 -3.26833 0
M  V30 2320 N 218.759 1.29093 0.90403 0
M  V30 2321 C 219.689 1.16401 2.02418 0
M  V30 2322 C 220.67 0.0593085 1.69997 0
M  V30 2323 O 221.855 0.238021 1.92736 0
M  V30 2324 C 218.985 0.835233 3.37107 0
M  V30 2325 C 217.939 1.89578 3.83724 0
M  V30 2326 C 217.265 1.42041 5.15489 0
M  V30 2327 C 218.565 3.30394 4.04521 0
M  V30 2328 H 220.259 2.10109 2.13295 0
M  V30 2329 H 217.805 1.01157 1.02486 0
M  V30 2330 H 219.758 0.733169 4.14973 0
M  V30 2331 H 218.482 -0.137543 3.2631 0
M  V30 2332 H 217.141 1.98715 3.08071 0
M  V30 2333 H 216.789 0.436426 5.01103 0
M  V30 2334 H 216.489 2.12964 5.4765 0
M  V30 2335 H 218.013 1.33176 5.959 0
M  V30 2336 H 219.427 3.24123 4.72882 0
M  V30 2337 H 217.824 3.99237 4.48029 0
M  V30 2338 H 218.894 3.73692 3.09002 0
M  V30 2339 N 220.237 -1.11381 1.11499 0
M  V30 2340 C 221.653 -1.35143 0.849031 0
M  V30 2341 C 221.853 -1.94515 -0.525938 0
M  V30 2342 O 220.909 -2.1785 -1.27662 0
M  V30 2343 C 222.222 -2.28249 1.95762 0
M  V30 2344 C 223.77 -2.41812 1.98736 0
M  V30 2345 C 224.245 -3.3824 3.088 0
M  V30 2346 N 225.736 -3.45803 3.08179 0
M  V30 2347 C 226.471 -4.20358 3.89982 0
M  V30 2348 N 225.967 -4.97884 4.8175 0
M  V30 2349 N 227.76 -4.15877 3.78157 0
M  V30 2350 H 219.911 -0.712062 2.00109 0
M  V30 2351 H 222.174 -0.376025 0.870235 0
M  V30 2352 H 221.88 -1.91817 2.94787 0
M  V30 2353 H 221.754 -3.28473 1.85433 0
M  V30 2354 H 224.141 -2.77518 1.00338 0
M  V30 2355 H 224.222 -1.41437 2.13141 0
M  V30 2356 H 223.866 -3.03261 4.07425 0
M  V30 2357 H 223.796 -4.38471 2.91635 0
M  V30 2358 H 226.287 -2.90506 2.41691 0
M  V30 2359 H 226.6 -5.52142 5.40702 0
M  V30 2360 H 224.945 -4.97043 4.85771 0
M  V30 2361 H 228.136 -3.544 3.05808 0
M  V30 2362 H 228.309 -4.73723 4.42143 0
M  V30 2363 N 221.715 -0.905404 -1.28997 0
M  V30 2364 C 222.678 -0.392253 -2.25819 0
M  V30 2365 C 223.678 0.476753 -1.5357 0
M  V30 2366 O 224.868 0.280994 -1.71919 0
M  V30 2367 C 222 0.438588 -3.38067 0
M  V30 2368 H 223.193 -1.24743 -2.72725 0
M  V30 2369 H 220.746 -0.684051 -1.40536 0
M  V30 2370 H 221.481 1.31352 -2.96508 0
M  V30 2371 H 221.266 -0.184167 -3.91667 0
M  V30 2372 H 222.756 0.78873 -4.10084 0
M  V30 2373 N 223.193 1.4272 -0.668489 0
M  V30 2374 C 224.14 2.30796 0.0137489 0
M  V30 2375 C 225.11 1.4561 0.799177 0
M  V30 2376 O 226.295 1.74453 0.772702 0
M  V30 2377 C 223.435 3.31377 0.963507 0
M  V30 2378 C 222.548 4.31655 0.172569 0
M  V30 2379 C 221.683 5.19312 1.1175 0
M  V30 2380 C 220.722 6.11274 0.317886 0
M  V30 2381 N 219.859 6.91504 1.2152 0
M  V30 2382 H 224.699 2.88585 -0.743161 0
M  V30 2383 H 222.236 1.42154 -0.378226 0
M  V30 2384 H 224.194 3.88214 1.52792 0
M  V30 2385 H 222.824 2.75202 1.68712 0
M  V30 2386 H 221.876 3.76988 -0.508374 0
M  V30 2387 H 223.188 4.96779 -0.448527 0
M  V30 2388 H 222.342 5.80851 1.75206 0
M  V30 2389 H 221.081 4.5435 1.77249 0
M  V30 2390 H 220.086 5.48809 -0.329918 0
M  V30 2391 H 221.311 6.78283 -0.332917 0
M  V30 2392 H 219.257 6.29176 1.85671 0
M  V30 2393 H 219.174 7.53209 0.649036 0
M  V30 2394 H 220.442 7.57535 1.83742 0
M  V30 2395 N 224.671 0.411399 1.52136 0
M  V30 2396 C 225.917 -0.163888 2.02137 0
M  V30 2397 C 226.25 -1.44597 1.29636 0
M  V30 2398 O 225.525 -1.90272 0.403353 0
M  V30 2399 C 225.808 -0.40927 3.57767 0
M  V30 2400 C 225.661 0.889643 4.40914 0
M  V30 2401 C 226.98 -1.19042 4.23694 0
M  V30 2402 H 224.099 -0.0580896 0.734707 0
M  V30 2403 H 226.741 0.54531 1.82007 0
M  V30 2404 H 224.891 -1.0134 3.7505 0
M  V30 2405 H 226.563 1.52575 4.35337 0
M  V30 2406 H 224.806 1.50011 4.07037 0
M  V30 2407 H 225.477 0.672314 5.4789 0
M  V30 2408 H 227.953 -0.678942 4.10524 0
M  V30 2409 H 226.829 -1.33086 5.32522 0
M  V30 2410 H 227.09 -2.21166 3.82803 0
M  V30 2411 N 226.149 -1.5696 0.141893 0
M  V30 2412 C 227.395 -1.9625 -0.511248 0
M  V30 2413 C 227.728 -1.02654 -1.64851 0
M  V30 2414 O 227.003 -0.0679676 -1.94381 0
M  V30 2415 C 227.286 -3.45285 -1.02227 0
M  V30 2416 C 227.139 -4.49658 0.113138 0
M  V30 2417 C 228.458 -3.96698 -1.90574 0
M  V30 2418 H 225.577 -0.713567 -0.184367 0
M  V30 2419 H 228.219 -1.88698 0.222087 0
M  V30 2420 H 226.369 -3.51852 -1.64719 0
M  V30 2421 H 228.041 -4.55174 0.749302 0
M  V30 2422 H 226.284 -4.26857 0.773026 0
M  V30 2423 H 226.955 -5.51258 -0.286053 0
M  V30 2424 H 229.431 -3.92578 -1.37918 0
M  V30 2425 H 228.307 -5.01453 -2.2324 0
M  V30 2426 H 228.568 -3.3875 -2.84079 0
M  V30 2427 N 227.627 0.131896 -1.57047 0
M  V30 2428 C 228.873 0.843179 -1.84441 0
M  V30 2429 C 229.206 1.80129 -0.725749 0
M  V30 2430 O 228.481 1.92624 0.269469 0
M  V30 2431 C 228.764 1.60442 -3.22382 0
M  V30 2432 C 228.617 0.666782 -4.4483 0
M  V30 2433 C 229.936 2.56354 -3.5773 0
M  V30 2434 H 227.055 0.305081 -0.670891 0
M  V30 2435 H 229.697 0.107839 -1.89694 0
M  V30 2436 H 227.847 2.23128 -3.18035 0
M  V30 2437 H 229.519 0.0497646 -4.61273 0
M  V30 2438 H 227.762 -0.022609 -4.33794 0
M  V30 2439 H 228.433 1.23579 -5.37989 0
M  V30 2440 H 230.909 2.0378 -3.62785 0
M  V30 2441 H 229.785 3.06657 -4.5525 0
M  V30 2442 H 230.046 3.38419 -2.84473 0
M  V30 2443 N 229.106 1.52395 0.401703 0
M  V30 2444 C 230.334 1.70676 1.16949 0
M  V30 2445 C 230.749 0.419503 1.8408 0
M  V30 2446 O 230.106 -0.605061 1.72178 0
M  V30 2447 C 230.157 2.84753 2.22706 0
M  V30 2448 O 229.878 4.08495 1.58314 0
M  V30 2449 C 231.379 3.14608 3.12309 0
M  V30 2450 H 228.599 0.571787 0.351142 0
M  V30 2451 H 231.143 1.98987 0.471652 0
M  V30 2452 H 229.298 2.58941 2.88147 0
M  V30 2453 H 229.712 4.72117 2.28485 0
M  V30 2454 H 231.186 3.97923 3.82572 0
M  V30 2455 H 231.663 2.28464 3.75101 0
M  V30 2456 H 232.269 3.42212 2.52529 0
M  V30 2457 N 230.584 -0.659388 1.43143 0
M  V30 2458 C 231.531 -1.77249 1.47822 0
M  V30 2459 C 232.501 -1.62818 0.328558 0
M  V30 2460 O 233.686 -1.83151 0.534838 0
M  V30 2461 C 230.826 -3.15371 1.40126 0
M  V30 2462 C 229.939 -3.4098 2.65249 0
M  V30 2463 C 229.074 -4.68915 2.49584 0
M  V30 2464 C 228.113 -4.87608 3.70006 0
M  V30 2465 N 227.25 -6.06796 3.53189 0
M  V30 2466 H 232.09 -1.72584 2.42938 0
M  V30 2467 H 229.627 -0.842297 1.20598 0
M  V30 2468 H 231.585 -3.9521 1.33659 0
M  V30 2469 H 230.215 -3.19121 0.485964 0
M  V30 2470 H 229.267 -2.55282 2.8202 0
M  V30 2471 H 230.579 -3.50681 3.54717 0
M  V30 2472 H 229.733 -5.56871 2.4079 0
M  V30 2473 H 228.472 -4.61524 1.5763 0
M  V30 2474 H 227.477 -3.9809 3.79215 0
M  V30 2475 H 228.702 -4.96834 4.62961 0
M  V30 2476 H 226.648 -6.00549 2.63965 0
M  V30 2477 H 226.565 -6.17428 4.36255 0
M  V30 2478 H 227.833 -6.9739 3.48236 0
M  V30 2479 N 232.062 -1.29571 -0.897171 0
M  V30 2480 C 233.31 -1.17456 -1.64464 0
M  V30 2481 C 233.631 0.273698 -1.9307 0
M  V30 2482 O 232.901 1.18684 -1.55855 0
M  V30 2483 H 231.481 -0.431706 -0.609622 0
M  V30 2484 H 234.143 -1.62531 -1.07562 0
M  V30 2485 H 233.239 -1.72648 -2.59998 0
M  V30 2486 N 233.54 1.10788 -1.12088 0
M  V30 2487 C 234.956 1.34691 -0.856186 0
M  V30 2488 C 235.156 1.94791 0.515615 0
M  V30 2489 O 234.212 2.18524 1.26505 0
M  V30 2490 C 235.525 2.27208 -1.9697 0
M  V30 2491 C 237.073 2.40755 -2.00016 0
M  V30 2492 C 237.548 3.36598 -3.1059 0
M  V30 2493 N 239.039 3.44164 -3.10008 0
M  V30 2494 C 239.774 4.18284 -3.92206 0
M  V30 2495 N 239.27 4.95322 -4.84384 0
M  V30 2496 N 241.063 4.13865 -3.80357 0
M  V30 2497 H 233.214 0.70144 -2.00483 0
M  V30 2498 H 235.477 0.371405 -0.872217 0
M  V30 2499 H 235.183 1.90251 -2.958 0
M  V30 2500 H 235.057 3.27485 -1.87172 0
M  V30 2501 H 237.444 2.76982 -1.01808 0
M  V30 2502 H 237.525 1.40305 -2.13888 0
M  V30 2503 H 237.169 3.01096 -4.09028 0
M  V30 2504 H 237.099 4.36918 -2.93956 0
M  V30 2505 H 239.59 2.8922 -2.43228 0
M  V30 2506 H 239.903 5.49267 -5.43623 0
M  V30 2507 H 238.248 4.94459 -4.884 0
M  V30 2508 H 241.439 3.52773 -3.07683 0
M  V30 2509 H 241.612 4.71372 -4.44649 0
M  V30 2510 N 235.018 0.912232 1.28515 0
M  V30 2511 C 236.264 0.545405 1.95328 0
M  V30 2512 C 236.597 -0.908313 1.71649 0
M  V30 2513 O 235.872 -1.64575 1.03659 0
M  V30 2514 C 236.155 0.853483 3.4984 0
M  V30 2515 C 236.008 2.35982 3.82926 0
M  V30 2516 C 237.327 0.348589 4.38717 0
M  V30 2517 H 234.446 0.199626 0.709449 0
M  V30 2518 H 237.088 1.1412 1.5191 0
M  V30 2519 H 235.238 0.34643 3.86952 0
M  V30 2520 H 236.91 2.93738 3.55691 0
M  V30 2521 H 235.153 2.81543 3.30024 0
M  V30 2522 H 235.824 2.52593 4.90816 0
M  V30 2523 H 238.3 0.78294 4.08668 0
M  V30 2524 H 237.176 0.593242 5.45685 0
M  V30 2525 H 237.437 -0.751049 4.35674 0
M  V30 2526 N 236.496 -1.42363 0.676048 0
M  V30 2527 C 237.443 -2.308 -0.00150904 0
M  V30 2528 C 238.413 -1.46032 -0.791444 0
M  V30 2529 O 239.598 -1.74861 -0.76344 0
M  V30 2530 C 236.738 -3.31883 -0.945919 0
M  V30 2531 C 235.851 -4.31741 -0.149675 0
M  V30 2532 C 234.986 -5.19898 -1.08995 0
M  V30 2533 C 234.025 -6.11434 -0.285465 0
M  V30 2534 N 233.162 -6.92138 -1.17851 0
M  V30 2535 H 238.002 -2.88187 0.758455 0
M  V30 2536 H 235.539 -1.41952 0.38576 0
M  V30 2537 H 237.497 -3.89019 -1.50731 0
M  V30 2538 H 236.127 -2.76093 -1.6725 0
M  V30 2539 H 235.179 -3.76713 0.528359 0
M  V30 2540 H 236.491 -4.96534 0.474866 0
M  V30 2541 H 235.645 -5.81772 -1.72123 0
M  V30 2542 H 234.384 -4.55284 -1.74837 0
M  V30 2543 H 233.389 -5.48627 0.359018 0
M  V30 2544 H 234.614 -6.78097 0.368883 0
M  V30 2545 H 232.56 -6.30152 -1.82332 0
M  V30 2546 H 232.477 -7.53542 -0.609082 0
M  V30 2547 H 233.745 -7.58499 -1.79722 0
M  V30 2548 N 237.974 -0.419461 -1.51915 0
M  V30 2549 C 238.904 0.391813 -2.30189 0
M  V30 2550 C 239.885 1.03699 -1.34836 0
M  V30 2551 O 241.07 1.04403 -1.63748 0
M  V30 2552 C 238.2 1.50312 -3.13087 0
M  V30 2553 C 237.154 0.9824 -4.16573 0
M  V30 2554 C 236.48 2.18809 -4.8788 0
M  V30 2555 C 237.78 0.0292356 -5.22292 0
M  V30 2556 H 239.474 -0.26135 -2.98257 0
M  V30 2557 H 237.02 -0.127134 -1.43438 0
M  V30 2558 H 238.973 2.07773 -3.66617 0
M  V30 2559 H 237.697 2.18431 -2.42807 0
M  V30 2560 H 236.356 0.430119 -3.64068 0
M  V30 2561 H 236.004 2.85507 -4.14119 0
M  V30 2562 H 235.704 1.84615 -5.57845 0
M  V30 2563 H 237.228 2.76858 -5.44226 0
M  V30 2564 H 238.642 0.512976 -5.71 0
M  V30 2565 H 237.039 -0.2244 -5.9968 0
M  V30 2566 H 238.109 -0.912931 -4.76228 0
M  V30 2567 N 239.452 1.56882 -0.150215 0
M  V30 2568 C 240.698 1.96518 0.500834 0
M  V30 2569 C 241.031 1.03527 1.64304 0
M  V30 2570 O 240.306 0.0782751 1.94342 0
M  V30 2571 C 240.589 3.45822 1.00395 0
M  V30 2572 C 240.442 4.49591 -0.136983 0
M  V30 2573 C 241.761 3.97704 1.88467 0
M  V30 2574 H 238.88 0.714535 0.18058 0
M  V30 2575 H 241.522 1.88577 -0.232091 0
M  V30 2576 H 239.672 3.5272 1.62851 0
M  V30 2577 H 241.344 4.5477 -0.77343 0
M  V30 2578 H 239.587 4.26441 -0.795652 0
M  V30 2579 H 240.258 5.51402 0.256815 0
M  V30 2580 H 242.734 3.93304 1.35834 0
M  V30 2581 H 241.61 5.0263 2.20578 0
M  V30 2582 H 241.871 3.40252 2.82279 0
M  V30 2583 N 240.93 -0.123565 1.57115 0
M  V30 2584 C 242.179 -0.830704 1.83799 0
M  V30 2585 C 242.492 -1.81259 0.735158 0
M  V30 2586 O 243.698 -2.56558 0.888278 0
M  V30 2587 C 242.154 -1.52802 3.25852 0
M  V30 2588 C 241.762 -0.587356 4.44133 0
M  V30 2589 C 243.506 -2.22056 3.61789 0
M  V30 2590 C 241.413 -1.28764 5.77212 0
M  V30 2591 H 240.343 -0.313967 0.685522 0
M  V30 2592 H 242.994 -0.0834359 1.8331 0
M  V30 2593 H 241.376 -2.32175 3.20797 0
M  V30 2594 H 242.55 0.172829 4.60476 0
M  V30 2595 H 240.865 -0.00201892 4.164 0
M  V30 2596 H 243.462 -2.75131 4.58483 0
M  V30 2597 H 243.805 -2.99644 2.88997 0
M  V30 2598 H 244.338 -1.49576 3.68608 0
M  V30 2599 H 241.077 -0.55314 6.53162 0
M  V30 2600 H 240.597 -2.01995 5.64764 0
M  V30 2601 H 242.276 -1.8221 6.20813 0
M  V30 2602 N 242.408 -1.52605 -0.393616 0
M  V30 2603 C 243.655 -1.67424 -1.1391 0
M  V30 2604 C 243.983 -0.411859 -1.90089 0
M  V30 2605 O 243.238 0.605626 -1.86093 0
M  V30 2606 C 243.537 -2.85721 -2.14705 0
M  V30 2607 C 243.203 -4.23342 -1.55218 0
M  V30 2608 C 241.865 -4.60771 -1.3872 0
M  V30 2609 C 244.217 -5.09041 -1.11924 0
M  V30 2610 C 241.545 -5.81563 -0.774689 0
M  V30 2611 C 243.897 -6.30452 -0.520853 0
M  V30 2612 C 242.561 -6.66617 -0.343134 0
M  V30 2613 H 241.831 -0.612648 -0.416826 0
M  V30 2614 H 244.478 -1.8674 -0.424315 0
M  V30 2615 H 242.783 -2.60803 -2.92385 0
M  V30 2616 H 244.48 -2.94382 -2.72288 0
M  V30 2617 H 241.07 -3.93855 -1.69045 0
M  V30 2618 H 245.254 -4.80695 -1.23473 0
M  V30 2619 H 240.51 -6.08196 -0.625154 0
M  V30 2620 H 244.684 -6.96175 -0.177065 0
M  V30 2621 H 242.311 -7.60083 0.133571 0
M  V30 2622 N 243.887 0.651787 -1.4349 0
M  V30 2623 C 245.133 1.41376 -1.45398 0
M  V30 2624 C 245.466 1.94041 -0.0784823 0
M  V30 2625 O 244.741 1.72379 0.900878 0
M  V30 2626 C 245.024 2.59414 -2.49752 0
M  V30 2627 C 244.877 2.12232 -3.96582 0
M  V30 2628 C 246.196 3.61626 -2.50827 0
M  V30 2629 H 243.315 0.512719 -0.529422 0
M  V30 2630 H 245.957 0.738796 -1.75048 0
M  V30 2631 H 244.107 3.16997 -2.246 0
M  V30 2632 H 245.779 1.59639 -4.32797 0
M  V30 2633 H 244.022 1.43592 -4.09346 0
M  V30 2634 H 244.693 2.9712 -4.65214 0
M  V30 2635 H 247.169 3.13805 -2.7325 0
M  V30 2636 H 246.045 4.41766 -3.25783 0
M  V30 2637 H 246.306 4.14314 -1.5426 0
M  V30 2638 N 245.365 1.30045 0.890287 0
M  V30 2639 C 246.614 1.17929 1.63633 0
M  V30 2640 C 246.927 -0.266204 1.9378 0
M  V30 2641 O 248.133 -0.508804 2.6669 0
M  V30 2642 C 246.589 2.06317 2.94892 0
M  V30 2643 C 246.197 3.55745 2.72305 0
M  V30 2644 C 247.941 2.0295 3.72843 0
M  V30 2645 C 245.848 4.36205 3.99348 0
M  V30 2646 H 244.778 0.437782 0.613892 0
M  V30 2647 H 247.429 1.54754 0.986075 0
M  V30 2648 H 245.811 1.6237 3.61182 0
M  V30 2649 H 246.985 4.07805 2.1455 0
M  V30 2650 H 245.3 3.6088 2.07737 0
M  V30 2651 H 247.897 2.60319 4.67053 0
M  V30 2652 H 248.24 1.0117 4.0382 0
M  V30 2653 H 248.773 2.4499 3.13408 0
M  V30 2654 H 245.512 5.38659 3.73533 0
M  V30 2655 H 245.032 3.8891 4.56628 0
M  V30 2656 H 246.711 4.47362 4.67415 0
M  V30 2657 N 246.843 -1.10192 1.12674 0
M  V30 2658 C 248.089 -1.82658 0.894847 0
M  V30 2659 C 248.444 -1.83666 -0.573107 0
M  V30 2660 O 247.737 -1.28816 -1.41835 0
M  V30 2661 C 247.931 -3.28552 1.4067 0
M  V30 2662 C 247.76 -3.41756 2.92289 0
M  V30 2663 C 246.53 -3.54021 3.60551 0
M  V30 2664 C 248.728 -3.34949 3.90274 0
M  V30 2665 N 246.71 -3.55827 5.0026 0
M  V30 2666 C 248.081 -3.43531 5.16127 0
M  V30 2667 C 250.136 -3.18565 3.8265 0
M  V30 2668 C 248.839 -3.37416 6.3525 0
M  V30 2669 C 250.865 -3.13772 5.01299 0
M  V30 2670 C 250.227 -3.22938 6.26012 0
M  V30 2671 H 246.326 -0.683044 0.380756 0
M  V30 2672 H 248.91 -1.31752 1.43351 0
M  V30 2673 H 247.081 -3.77946 0.895055 0
M  V30 2674 H 248.813 -3.88991 1.11661 0
M  V30 2675 H 245.568 -3.57135 3.1105 0
M  V30 2676 H 245.992 -3.60335 5.73138 0
M  V30 2677 H 250.634 -3.10354 2.87124 0
M  V30 2678 H 248.352 -3.44391 7.3104 0
M  V30 2679 H 251.938 -3.02242 4.97133 0
M  V30 2680 H 250.818 -3.19235 7.16281 0
M  V30 2681 N 248.321 -0.919034 -1.28029 0
M  V30 2682 C 249.284 -0.416182 -2.2539 0
M  V30 2683 C 250.284 0.460438 -1.54067 0
M  V30 2684 O 251.474 0.262744 -1.72207 0
M  V30 2685 C 248.606 0.402707 -3.38513 0
M  V30 2686 H 249.799 -1.27629 -2.71387 0
M  V30 2687 H 247.352 -0.698919 -1.39803 0
M  V30 2688 H 248.087 1.282 -2.97885 0
M  V30 2689 H 247.872 -0.225698 -3.9145 0
M  V30 2690 H 249.362 0.745191 -4.10897 0
M  V30 2691 N 249.799 1.42003 -0.683588 0
M  V30 2692 C 251.045 2.01712 -0.209825 0
M  V30 2693 C 251.378 1.53968 1.18353 0
M  V30 2694 O 250.653 0.745661 1.79639 0
M  V30 2695 C 250.936 3.59202 -0.254197 0
M  V30 2696 C 250.789 4.17102 -1.68363 0
M  V30 2697 C 252.108 4.38344 0.392709 0
M  V30 2698 H 249.227 0.732891 -0.0777189 0
M  V30 2699 H 251.869 1.68909 -0.87004 0
M  V30 2700 H 250.019 3.87278 0.307954 0
M  V30 2701 H 251.691 3.99946 -2.29871 0
M  V30 2702 H 249.934 3.72597 -2.22157 0
M  V30 2703 H 250.605 5.26249 -1.6663 0
M  V30 2704 H 253.081 4.16011 -0.0859162 0
M  V30 2705 H 251.957 5.47901 0.331063 0
M  V30 2706 H 252.218 4.16887 1.47164 0
M  V30 2707 N 251.277 0.427512 1.51691 0
M  V30 2708 C 252.24 -0.377132 2.26076 0
M  V30 2709 C 253.24 -0.958089 1.29141 0
M  V30 2710 O 254.43 -0.83408 1.52934 0
M  V30 2711 C 251.562 -1.53262 3.04506 0
M  V30 2712 H 252.755 0.27464 2.9864 0
M  V30 2713 H 250.308 0.180445 1.55255 0
M  V30 2714 H 251.043 -2.22072 2.36335 0
M  V30 2715 H 250.828 -1.12232 3.75694 0
M  V30 2716 H 252.318 -2.10135 3.60878 0
M  V30 2717 N 252.755 -1.56801 0.158532 0
M  V30 2718 C 254.002 -1.9649 -0.489679 0
M  V30 2719 C 254.33 -1.04394 -1.6411 0
M  V30 2720 O 253.585 -0.0754401 -1.95555 0
M  V30 2721 C 253.884 -3.4235 -1.02623 0
M  V30 2722 C 253.55 -4.50899 0.00794526 0
M  V30 2723 C 252.212 -4.80312 0.292207 0
M  V30 2724 C 254.564 -5.16333 0.710584 0
M  V30 2725 C 251.892 -5.72461 1.28472 0
M  V30 2726 C 254.244 -6.09553 1.69199 0
M  V30 2727 C 252.908 -6.37339 1.98383 0
M  V30 2728 H 252.178 -0.719009 -0.179186 0
M  V30 2729 H 254.825 -1.8989 0.247798 0
M  V30 2730 H 253.13 -3.45838 -1.84128 0
M  V30 2731 H 254.827 -3.70393 -1.53656 0
M  V30 2732 H 251.417 -4.28015 -0.22379 0
M  V30 2733 H 255.601 -4.93732 0.504174 0
M  V30 2734 H 250.857 -5.92278 1.51714 0
M  V30 2735 H 255.031 -6.59327 2.24189 0
M  V30 2736 H 252.658 -7.08546 2.7544 0
M  V30 2737 N 254.233 0.115231 -1.57178 0
M  V30 2738 C 255.473 0.828199 -1.8687 0
M  V30 2739 C 255.837 1.76873 -0.747002 0
M  V30 2740 O 257.038 2.52354 -0.925785 0
M  V30 2741 C 255.309 1.55515 -3.21792 0
M  V30 2742 S 256.868 2.30917 -3.73125 0
M  V30 2743 H 253.686 0.27634 -0.655101 0
M  V30 2744 H 256.288 0.0863469 -1.95309 0
M  V30 2745 H 254.992 0.856248 -4.01368 0
M  V30 2746 H 254.523 2.3373 -3.16439 0
M  V30 2747 H 256.538 3.56705 -3.44929 0
M  V30 2748 N 255.711 1.52812 0.385517 0
M  V30 2749 C 256.936 1.72207 1.15583 0
M  V30 2750 C 257.361 0.441034 1.82857 0
M  V30 2751 O 256.719 -0.603465 1.70962 0
M  V30 2752 C 256.767 2.87476 2.17692 0
M  V30 2753 O 255.871 2.54693 3.24354 0
M  V30 2754 H 255.212 0.572526 0.336319 0
M  V30 2755 H 257.742 1.99618 0.448744 0
M  V30 2756 H 257.752 3.13072 2.6163 0
M  V30 2757 H 256.427 3.80408 1.68115 0
M  V30 2758 H 255.004 2.3985 2.85529 0
M  V30 2759 N 257.189 -0.644168 1.43834 0
M  V30 2760 C 258.152 -1.73857 1.49353 0
M  V30 2761 C 259.152 -1.56315 0.377112 0
M  V30 2762 O 260.342 -1.62048 0.639226 0
M  V30 2763 C 257.474 -3.12819 1.35488 0
M  V30 2764 H 258.667 -1.70342 2.46827 0
M  V30 2765 H 256.22 -0.856652 1.30733 0
M  V30 2766 H 256.955 -3.2194 0.390569 0
M  V30 2767 H 256.74 -3.26958 2.16428 0
M  V30 2768 H 258.23 -3.92606 1.42302 0
M  V30 2769 N 258.668 -1.30515 -0.883378 0
M  V30 2770 C 259.916 -1.19194 -1.63209 0
M  V30 2771 C 260.237 0.253205 -1.93349 0
M  V30 2772 O 259.507 1.17025 -1.57105 0
M  V30 2773 H 258.087 -0.438148 -0.605009 0
M  V30 2774 H 260.749 -1.63663 -1.05832 0
M  V30 2775 H 259.845 -1.75396 -2.58153 0
M  V30 2776 N 260.146 1.09593 -1.13257 0
M  V30 2777 C 261.557 1.63229 -0.906274 0
M  V30 2778 C 261.908 1.8811 0.557578 0
M  V30 2779 O 261.033 1.62953 1.42391 0
M  V30 2780 C 261.628 2.96535 -1.63867 0
M  V30 2781 C 260.187 3.47003 -1.45828 0
M  V30 2782 C 259.334 2.2145 -1.66898 0
M  V30 2783 H 262.285 0.92978 -1.28611 0
M  V30 2784 H 262.306 3.64411 -1.09476 0
M  V30 2785 H 261.818 2.78394 -2.70404 0
M  V30 2786 H 259.919 3.70272 -0.415848 0
M  V30 2787 H 260.032 4.24551 -2.2202 0
M  V30 2788 H 258.396 2.30022 -1.09371 0
M  V30 2789 H 259.179 2.0583 -2.74752 0
M  V30 2790 N 261.624 0.925811 1.2754 0
M  V30 2791 C 262.873 0.561084 1.93739 0
M  V30 2792 C 263.186 -0.901685 1.73577 0
M  V30 2793 O 264.392 -1.37511 2.34101 0
M  V30 2794 C 262.848 0.952668 3.47062 0
M  V30 2795 C 262.456 2.43599 3.75983 0
M  V30 2796 C 264.2 0.659103 4.19352 0
M  V30 2797 C 262.107 2.76707 5.22673 0
M  V30 2798 H 261.037 0.206122 0.725279 0
M  V30 2799 H 263.688 1.12637 1.44863 0
M  V30 2800 H 262.07 0.316053 3.94737 0
M  V30 2801 H 263.244 3.12035 3.39073 0
M  V30 2802 H 261.559 2.70125 3.16893 0
M  V30 2803 H 264.156 0.882985 5.27359 0
M  V30 2804 H 264.499 -0.403607 4.14339 0
M  V30 2805 H 265.032 1.25473 3.77494 0
M  V30 2806 H 261.771 3.8188 5.32774 0
M  V30 2807 H 261.291 2.12919 5.60737 0
M  V30 2808 H 262.97 2.6435 5.90532 0
M  V30 2809 N 263.102 -1.41638 0.69111 0
M  V30 2810 C 264.349 -2.01299 0.220193 0
M  V30 2811 C 264.677 -1.54715 -1.17871 0
M  V30 2812 O 263.932 -0.747193 -1.80874 0
M  V30 2813 C 264.231 -3.56714 0.221277 0
M  V30 2814 C 263.897 -4.22792 1.56709 0
M  V30 2815 C 262.559 -4.40557 1.93554 0
M  V30 2816 C 264.911 -4.59883 2.45268 0
M  V30 2817 C 262.239 -4.92688 3.18552 0
M  V30 2818 C 264.591 -5.13403 3.69595 0
M  V30 2819 C 263.255 -5.29379 4.06589 0
M  V30 2820 H 262.525 -0.736606 0.0805743 0
M  V30 2821 H 265.172 -1.69598 0.889319 0
M  V30 2822 H 263.477 -3.8818 -0.531391 0
M  V30 2823 H 265.174 -4.00678 -0.160547 0
M  V30 2824 H 261.764 -4.09336 1.2705 0
M  V30 2825 H 265.948 -4.45817 2.18084 0
M  V30 2826 H 261.204 -5.03242 3.47214 0
M  V30 2827 H 265.378 -5.41084 4.38407 0
M  V30 2828 H 263.005 -5.69537 5.03519 0
M  V30 2829 N 264.58 -0.43555 -1.51462 0
M  V30 2830 C 265.826 0.131709 -2.02372 0
M  V30 2831 C 266.159 1.42516 -1.3192 0
M  V30 2832 O 265.434 1.89606 -0.433573 0
M  V30 2833 C 265.717 0.352301 -3.58373 0
M  V30 2834 C 265.57 -0.959676 -4.39443 0
M  V30 2835 C 266.889 1.12286 -4.25535 0
M  V30 2836 H 264.008 0.0463936 -0.735538 0
M  V30 2837 H 266.65 -0.574197 -1.81116 0
M  V30 2838 H 264.8 0.9536 -3.76615 0
M  V30 2839 H 266.472 -1.59482 -4.32855 0
M  V30 2840 H 264.715 -1.56468 -4.04599 0
M  V30 2841 H 265.386 -0.759394 -5.46752 0
M  V30 2842 H 267.862 0.613545 -4.11552 0
M  V30 2843 H 266.738 1.24598 -5.34571 0
M  V30 2844 H 266.999 2.15048 -3.86273 0
M  V30 2845 N 266.058 1.56714 -0.166846 0
M  V30 2846 C 266.988 2.20754 0.760913 0
M  V30 2847 C 267.969 1.16178 1.24244 0
M  V30 2848 O 269.154 1.44592 1.29641 0
M  V30 2849 C 266.284 2.84478 1.99223 0
M  V30 2850 C 265.238 3.95053 1.64672 0
M  V30 2851 C 264.564 4.45805 2.95232 0
M  V30 2852 C 265.864 5.14865 0.878155 0
M  V30 2853 H 267.558 2.98537 0.22713 0
M  V30 2854 H 265.104 1.43596 0.107805 0
M  V30 2855 H 267.057 3.27951 2.64624 0
M  V30 2856 H 265.781 2.04056 2.55007 0
M  V30 2857 H 264.44 3.52228 1.01641 0
M  V30 2858 H 264.088 3.62181 3.49047 0
M  V30 2859 H 263.788 5.204 2.7287 0
M  V30 2860 H 265.312 4.91962 3.6167 0
M  V30 2861 H 266.726 5.55059 1.43466 0
M  V30 2862 H 265.123 5.95348 0.753738 0
M  V30 2863 H 266.193 4.84735 -0.126377 0
M  V30 2864 N 267.536 -0.106894 1.57237 0
M  V30 2865 C 268.782 -0.81373 1.85759 0
M  V30 2866 C 269.115 -1.78952 0.754315 0
M  V30 2867 O 268.39 -1.93029 -0.23879 0
M  V30 2868 C 268.673 -1.55293 3.24894 0
M  V30 2869 C 268.526 -0.595929 4.45835 0
M  V30 2870 C 269.845 -2.5063 3.61763 0
M  V30 2871 H 266.964 -0.294369 0.67566 0
M  V30 2872 H 269.606 -0.0776472 1.89841 0
M  V30 2873 H 267.756 -2.1804 3.21544 0
M  V30 2874 H 269.428 0.0236262 4.61294 0
M  V30 2875 H 267.671 0.0916191 4.33703 0
M  V30 2876 H 268.342 -1.15004 5.39887 0
M  V30 2877 H 270.818 -1.97982 3.65981 0
M  V30 2878 H 269.694 -2.99376 4.60071 0
M  V30 2879 H 269.955 -3.3385 2.89821 0
M  V30 2880 N 269.014 -1.53014 -0.377408 0
M  V30 2881 C 270.262 -1.6829 -1.11906 0
M  V30 2882 C 270.583 -0.431206 -1.90173 0
M  V30 2883 O 269.853 0.554595 -1.87886 0
M  V30 2884 H 268.433 -0.620371 -0.416112 0
M  V30 2885 H 271.095 -1.90167 -0.426893 0
M  V30 2886 H 270.191 -2.53862 -1.8155 0
M  V30 2887 N 270.492 0.636531 -1.44174 0
M  V30 2888 C 271.738 1.39826 -1.4689 0
M  V30 2889 C 272.071 1.93947 -0.0990585 0
M  V30 2890 O 271.346 1.73325 0.882544 0
M  V30 2891 C 271.629 2.56751 -2.5249 0
M  V30 2892 C 271.482 2.08014 -3.98811 0
M  V30 2893 C 272.801 3.58946 -2.54649 0
M  V30 2894 H 269.92 0.507075 -0.53483 0
M  V30 2895 H 272.562 0.720188 -1.75822 0
M  V30 2896 H 270.712 3.14597 -2.2795 0
M  V30 2897 H 272.384 1.5504 -4.34466 0
M  V30 2898 H 270.627 1.39242 -4.10846 0
M  V30 2899 H 271.298 2.92169 -4.68339 0
M  V30 2900 H 273.774 3.1089 -2.76563 0
M  V30 2901 H 272.65 4.38286 -3.3045 0
M  V30 2902 H 272.911 4.12655 -1.58646 0
M  V30 2903 N 271.97 1.30982 0.876444 0
M  V30 2904 C 272.88 1.2003 2.01569 0
M  V30 2905 C 273.896 0.11838 1.73597 0
M  V30 2906 O 275.072 0.33495 1.98595 0
M  V30 2907 C 272.137 0.901637 3.34771 0
M  V30 2908 C 271.198 2.06979 3.76109 0
M  V30 2909 C 270.431 1.78529 5.02954 0
M  V30 2910 O 270.654 0.717296 5.65872 0
M  V30 2911 O 269.588 2.64019 5.40905 0
M  V30 2912 H 273.414 2.15753 2.13739 0
M  V30 2913 H 270.999 1.10658 1.00375 0
M  V30 2914 H 272.881 0.750645 4.1466 0
M  V30 2915 H 271.556 -0.0256141 3.2369 0
M  V30 2916 H 270.463 2.27616 2.96887 0
M  V30 2917 H 271.796 2.97907 3.91807 0
M  V30 2918 N 273.449 -1.08991 1.13837 0
M  V30 2919 C 274.399 -2.1393 0.788535 0
M  V30 2920 C 275.383 -1.59396 -0.219516 0
M  V30 2921 O 276.575 -1.76985 -0.0227557 0
M  V30 2922 C 273.704 -3.42305 0.261147 0
M  V30 2923 C 272.79 -4.03736 1.29837 0
M  V30 2924 N 273.181 -4.39659 2.50067 0
M  V30 2925 C 271.479 -4.30993 1.1472 0
M  V30 2926 C 272.18 -4.88113 3.16419 0
M  V30 2927 N 271.156 -4.85846 2.43832 0
M  V30 2928 H 274.958 -2.39516 1.70322 0
M  V30 2929 H 272.472 -1.26263 1.02134 0
M  V30 2930 H 274.469 -4.16899 -0.0077405 0
M  V30 2931 H 273.129 -3.18172 -0.647805 0
M  V30 2932 H 274.14 -4.30878 2.8734 0
M  V30 2933 H 270.817 -4.16444 0.296773 0
M  V30 2934 H 272.207 -5.25336 4.18894 0
M  V30 2935 N 274.927 -0.932562 -1.27047 0
M  V30 2936 C 275.837 -0.441219 -2.30414 0
M  V30 2937 C 276.853 0.480525 -1.67233 0
M  V30 2938 O 278.029 0.362151 -1.98117 0
M  V30 2939 C 275.094 0.293651 -3.45454 0
M  V30 2940 C 274.155 -0.663601 -4.2414 0
M  V30 2941 C 273.388 0.0362932 -5.33688 0
M  V30 2942 O 273.611 1.2548 -5.56427 0
M  V30 2943 O 272.545 -0.638015 -5.98509 0
M  V30 2944 H 276.371 -1.29962 -2.74488 0
M  V30 2945 H 273.956 -0.6981 -1.32087 0
M  V30 2946 H 275.838 0.707951 -4.15411 0
M  V30 2947 H 274.513 1.12758 -3.03426 0
M  V30 2948 H 273.42 -1.12768 -3.56699 0
M  V30 2949 H 274.753 -1.46489 -4.69896 0
M  V30 2950 N 276.405 1.4127 -0.698611 0
M  V30 2951 C 277.353 2.32588 -0.023855 0
M  V30 2952 C 278.347 1.51128 0.765292 0
M  V30 2953 O 279.553 1.67043 0.670571 0
M  V30 2954 H 275.928 0.751918 0.0110871 0
M  V30 2955 H 277.899 2.87167 -0.811031 0
M  V30 2956 C 276.648 3.35947 0.896369 0
M  V30 2957 H 275.971 3.98684 0.298548 0
M  V30 2958 H 277.411 4.02376 1.33676 0
M  V30 2959 C 275.87 2.70076 2.01396 0
M  V30 2960 O 276.4 2.55093 3.10307 0
M  V30 2961 N 274.606 2.28724 1.79259 0
M  V30 2962 H 274.153 2.4111 0.906841 0
M  V30 2963 H 274.111 1.84986 2.54219 0
M  V30 2964 N 277.883 0.443576 1.51229 0
M  V30 2965 C 279.131 -0.120557 2.0174 0
M  V30 2966 C 279.452 -1.42665 1.32935 0
M  V30 2967 O 278.722 -1.9028 0.465866 0
M  V30 2968 H 277.302 -0.0475426 0.745486 0
M  V30 2969 H 279.964 0.587711 1.85828 0
M  V30 2970 H 279.06 -0.291972 3.10731 0
M  V30 2971 N 279.361 -1.56624 0.175154 0
M  V30 2972 C 280.589 -2.01374 -0.474971 0
M  V30 2973 C 281.004 -1.05537 -1.56548 0
M  V30 2974 O 280.361 -0.0568668 -1.82411 0
M  V30 2975 C 280.412 -3.45923 -1.04975 0
M  V30 2976 O 280.133 -4.381 -0.00276605 0
M  V30 2977 C 281.634 -4.06093 -1.77773 0
M  V30 2978 H 278.854 -0.659962 -0.121206 0
M  V30 2979 H 281.398 -2.02601 0.27801 0
M  V30 2980 H 279.553 -3.45458 -1.75321 0
M  V30 2981 H 279.967 -5.22753 -0.427681 0
M  V30 2982 H 281.441 -5.09147 -2.13245 0
M  V30 2983 H 281.918 -3.48405 -2.67414 0
M  V30 2984 H 282.524 -4.10272 -1.12059 0
M  V30 2985 N 280.839 0.0985539 -1.57292 0
M  V30 2986 C 282.116 0.834155 -1.76921 0
M  V30 2987 C 282.496 1.97101 -0.755928 0
M  V30 2988 O 281.844 2.27474 0.216245 0
M  V30 2989 C 282.054 1.33194 -3.22584 0
M  V30 2990 C 283.402 1.77611 -3.85668 0
M  V30 2991 O 284.426 1.42825 -3.26312 0
M  V30 2992 O 283.285 2.4192 -4.90038 0
M  V30 2993 H 280.379 0.397628 -0.725135 0
M  V30 2994 H 282.925 0.0807044 -1.69508 0
M  V30 2995 H 281.697 0.517248 -3.87866 0
M  V30 2996 H 281.32 2.1475 -3.34616 0
M  V30 2997 N 282.317 1.53212 0.369288 0
M  V30 2998 C 283.728 1.60943 0.946276 0
M  V30 2999 C 284.079 0.47452 1.90375 0
M  V30 3000 O 283.204 -0.399597 2.12679 0
M  V30 3001 C 283.799 2.91715 1.72302 0
M  V30 3002 C 282.358 3.01792 2.24941 0
M  V30 3003 C 281.505 2.56211 1.06072 0
M  V30 3004 H 284.456 1.58007 0.148198 0
M  V30 3005 H 284.477 2.79309 2.58393 0
M  V30 3006 H 283.989 3.74295 1.0259 0
M  V30 3007 H 282.09 2.23791 2.97906 0
M  V30 3008 H 282.203 4.06803 2.53077 0
M  V30 3009 H 280.567 2.10998 1.4266 0
M  V30 3010 H 281.35 3.41206 0.378639 0
M  V30 3011 N 283.795 -0.628877 1.44509 0
M  V30 3012 C 285.041 -1.38863 1.48623 0
M  V30 3013 C 285.396 -1.92038 0.117933 0
M  V30 3014 O 284.689 -1.70853 -0.86716 0
M  V30 3015 C 284.883 -2.56995 2.48371 0
M  V30 3016 C 284.712 -2.15385 3.94765 0
M  V30 3017 C 283.482 -2.02558 4.62924 0
M  V30 3018 C 285.68 -1.74158 4.83915 0
M  V30 3019 N 283.662 -1.54534 5.94132 0
M  V30 3020 C 285.033 -1.37396 6.04584 0
M  V30 3021 C 287.088 -1.61559 4.7096 0
M  V30 3022 C 285.791 -0.892948 7.13736 0
M  V30 3023 C 287.817 -1.14862 5.80139 0
M  V30 3024 C 287.179 -0.790516 6.9995 0
M  V30 3025 H 283.278 -0.502858 0.59888 0
M  V30 3026 H 285.862 -0.72121 1.8085 0
M  V30 3027 H 284.033 -3.21362 2.1813 0
M  V30 3028 H 285.765 -3.23801 2.42766 0
M  V30 3029 H 282.52 -2.23082 4.1777 0
M  V30 3030 H 282.944 -1.32815 6.63844 0
M  V30 3031 H 287.586 -1.87876 3.78764 0
M  V30 3032 H 285.304 -0.617291 8.05739 0
M  V30 3033 H 288.89 -1.05569 5.72142 0
M  V30 3034 H 287.77 -0.434713 7.82994 0
M  V30 3035 N 285.273 -1.31445 -0.869486 0
M  V30 3036 C 286.55 -1.11795 -1.60503 0
M  V30 3037 C 286.93 0.327168 -2.08549 0
M  V30 3038 O 286.278 1.32135 -1.8642 0
M  V30 3039 C 286.488 -2.13258 -2.76265 0
M  V30 3040 C 287.836 -2.45805 -3.46215 0
M  V30 3041 O 288.86 -2.11688 -2.86473 0
M  V30 3042 O 287.719 -3.04228 -4.5399 0
M  V30 3043 H 284.813 -0.430421 -0.706163 0
M  V30 3044 H 287.359 -1.42925 -0.914907 0
M  V30 3045 H 286.131 -3.10461 -2.3818 0
M  V30 3046 H 285.754 -1.83035 -3.52964 0
M  V30 3047 N 286.751 1.08385 -1.14413 0
M  V30 3048 C 287.979 1.84517 -0.936001 0
M  V30 3049 C 288.394 1.81626 0.515503 0
M  V30 3050 O 287.751 1.22008 1.35721 0
M  V30 3051 C 287.802 3.32049 -1.42918 0
M  V30 3052 O 287.523 3.34951 -2.82381 0
M  V30 3053 C 289.024 4.24986 -1.26103 0
M  V30 3054 H 286.244 0.582491 -0.333084 0
M  V30 3055 H 288.788 1.36885 -1.5193 0
M  V30 3056 H 286.943 3.7707 -0.888641 0
M  V30 3057 H 287.357 4.27048 -3.04517 0
M  V30 3058 H 288.831 5.26615 -1.6547 0
M  V30 3059 H 289.308 4.38726 -0.20392 0
M  V30 3060 H 289.914 3.85791 -1.79012 0
M  V30 3061 N 288.23 0.939286 1.26551 0
M  V30 3062 C 289.178 0.43815 2.28436 0
M  V30 3063 C 290.172 -0.483587 1.62351 0
M  V30 3064 O 291.378 -0.362009 1.76322 0
M  V30 3065 H 287.753 0.123149 0.741848 0
M  V30 3066 H 289.724 1.31002 2.68106 0
M  V30 3067 C 288.473 -0.283052 3.46546 0
M  V30 3068 H 287.796 0.417043 3.97619 0
M  V30 3069 H 289.236 -0.597948 4.19763 0
M  V30 3070 C 287.695 -1.50018 3.01656 0
M  V30 3071 O 288.225 -2.59855 3.0633 0
M  V30 3072 N 286.431 -1.35608 2.57019 0
M  V30 3073 H 285.978 -0.46244 2.53415 0
M  V30 3074 H 285.936 -2.17165 2.27347 0
M  V30 3075 N 289.708 -1.40897 0.706093 0
M  V30 3076 C 290.618 -2.3455 0.0482286 0
M  V30 3077 C 291.634 -1.56796 -0.754396 0
M  V30 3078 O 292.81 -1.89228 -0.689538 0
M  V30 3079 C 289.875 -3.35625 -0.869303 0
M  V30 3080 C 288.936 -4.29261 -0.0576994 0
M  V30 3081 C 288.169 -5.25508 -0.931531 0
M  V30 3082 O 288.392 -5.27472 -2.17092 0
M  V30 3083 O 287.326 -6.00727 -0.375587 0
M  V30 3084 H 291.152 -2.92407 0.820476 0
M  V30 3085 H 288.737 -1.4193 0.4665 0
M  V30 3086 H 290.619 -3.97635 -1.39514 0
M  V30 3087 H 289.294 -2.80196 -1.62086 0
M  V30 3088 H 288.201 -3.70566 0.512988 0
M  V30 3089 H 289.534 -4.87817 0.655426 0
M  V30 3090 N 291.186 -0.45159 -1.50991 0
M  V30 3091 C 292.426 0.109066 -2.04109 0
M  V30 3092 C 292.79 1.38716 -1.32747 0
M  V30 3093 O 293.991 2.02896 -1.76314 0
M  V30 3094 C 292.262 0.308354 -3.56067 0
M  V30 3095 S 293.821 0.830369 -4.30872 0
M  V30 3096 H 290.639 0.0251531 -0.710555 0
M  V30 3097 H 293.241 -0.614264 -1.85599 0
M  V30 3098 H 291.945 -0.627962 -4.05567 0
M  V30 3099 H 291.476 1.05836 -3.78896 0
M  V30 3100 H 293.491 2.10626 -4.49279 0
M  V30 3101 N 292.664 1.56529 -0.183458 0
M  V30 3102 C 294.08 1.58664 0.172554 0
M  V30 3103 C 294.28 1.19925 1.61926 0
M  V30 3104 O 293.336 0.916534 2.35278 0
M  V30 3105 C 294.649 3.00463 -0.119262 0
M  V30 3106 C 296.197 3.12945 -0.0584396 0
M  V30 3107 C 296.672 4.56857 -0.323408 0
M  V30 3108 N 298.163 4.62403 -0.271612 0
M  V30 3109 C 298.898 5.71626 -0.450639 0
M  V30 3110 N 298.394 6.89362 -0.689384 0
M  V30 3111 N 300.187 5.60775 -0.385701 0
M  V30 3112 H 292.338 1.79994 -1.12765 0
M  V30 3113 H 294.601 0.834808 -0.449222 0
M  V30 3114 H 294.307 3.33326 -1.12192 0
M  V30 3115 H 294.181 3.72659 0.583544 0
M  V30 3116 H 296.568 2.79902 0.934805 0
M  V30 3117 H 296.649 2.4316 -0.794144 0
M  V30 3118 H 296.293 4.9061 -1.31392 0
M  V30 3119 H 296.223 5.24816 0.43305 0
M  V30 3120 H 298.714 3.77785 -0.0932256 0
M  V30 3121 H 299.027 7.68489 -0.815113 0
M  V30 3122 H 297.372 6.91196 -0.726142 0
M  V30 3123 H 300.563 4.67674 -0.199687 0
M  V30 3124 H 300.736 6.4584 -0.528646 0
M  V30 3125 N 294.142 -0.090211 1.57342 0
M  V30 3126 C 295.553 -0.644173 1.75235 0
M  V30 3127 C 295.904 -1.78865 0.806335 0
M  V30 3128 O 295.029 -2.16395 -0.0140128 0
M  V30 3129 C 295.624 -1.17532 3.1776 0
M  V30 3130 C 294.183 -1.67531 3.37061 0
M  V30 3131 C 293.33 -0.58693 2.71017 0
M  V30 3132 H 296.281 0.135884 1.58117 0
M  V30 3133 H 296.302 -2.04455 3.20902 0
M  V30 3134 H 295.814 -0.342138 3.86589 0
M  V30 3135 H 293.915 -2.53234 2.73319 0
M  V30 3136 H 294.028 -1.76493 4.45406 0
M  V30 3137 H 292.392 -1.02756 2.33052 0
M  V30 3138 H 293.175 0.235758 3.4249 0
M  V30 3139 N 295.62 -1.53406 -0.361157 0
M  V30 3140 C 296.848 -1.73717 -1.12383 0
M  V30 3141 C 297.263 -0.468161 -1.82904 0
M  V30 3142 O 296.62 0.559198 -1.73722 0
M  V30 3143 C 296.671 -2.90558 -2.15078 0
M  V30 3144 O 296.392 -4.12549 -1.47428 0
M  V30 3145 C 297.893 -3.22777 -3.03858 0
M  V30 3146 H 295.113 -0.580896 -0.335858 0
M  V30 3147 H 297.657 -2.00167 -0.418728 0
M  V30 3148 H 295.812 -2.66489 -2.8118 0
M  V30 3149 H 296.226 -4.78009 -2.15887 0
M  V30 3150 H 297.7 -4.07927 -3.71887 0
M  V30 3151 H 298.177 -2.38329 -3.68912 0
M  V30 3152 H 298.783 -3.48787 -2.43367 0
M  V30 3153 N 297.098 0.621204 -1.44841 0
M  V30 3154 C 298.008 1.7612 -1.5498 0
M  V30 3155 C 299.024 1.68477 -0.434927 0
M  V30 3156 O 300.2 1.89076 -0.693693 0
M  V30 3157 C 297.265 3.1254 -1.50065 0
M  V30 3158 C 296.326 3.31741 -2.72482 0
M  V30 3159 C 295.559 4.61653 -2.67792 0
M  V30 3160 O 295.782 5.431 -1.74352 0
M  V30 3161 O 294.716 4.83271 -3.58794 0
M  V30 3162 H 298.542 1.70518 -2.51311 0
M  V30 3163 H 296.127 0.783643 -1.27198 0
M  V30 3164 H 298.009 3.93844 -1.49882 0
M  V30 3165 H 296.684 3.18663 -0.568806 0
M  V30 3166 H 295.591 2.50077 -2.7823 0
M  V30 3167 H 296.924 3.30486 -3.64746 0
M  V30 3168 N 298.576 1.31904 0.862503 0
M  V30 3169 C 299.823 1.22017 1.61611 0
M  V30 3170 C 300.151 -0.21991 1.93253 0
M  V30 3171 O 299.406 -1.17076 1.56817 0
M  V30 3172 C 299.705 2.01713 2.95037 0
M  V30 3173 C 299.371 3.51145 2.82857 0
M  V30 3174 C 298.033 3.91889 2.79243 0
M  V30 3175 C 300.385 4.46204 2.69353 0
M  V30 3176 C 297.713 5.25947 2.59993 0
M  V30 3177 C 300.065 5.80397 2.5164 0
M  V30 3178 C 298.729 6.20352 2.46413 0
M  V30 3179 H 297.999 0.44649 0.591378 0
M  V30 3180 H 300.646 1.63248 1.00111 0
M  V30 3181 H 298.951 1.53185 3.60613 0
M  V30 3182 H 300.648 1.91437 3.52353 0
M  V30 3183 H 297.238 3.1878 2.86491 0
M  V30 3184 H 301.422 4.15652 2.71196 0
M  V30 3185 H 296.678 5.5597 2.54376 0
M  V30 3186 H 300.852 6.53676 2.40169 0
M  V30 3187 H 298.479 7.24172 2.31256 0
M  V30 3188 N 300.054 -1.07777 1.14986 0
M  V30 3189 C 301.017 -2.13041 0.845358 0
M  V30 3190 C 302.017 -1.60071 -0.152931 0
M  V30 3191 O 303.207 -1.74033 0.0761879 0
M  V30 3192 C 300.339 -3.39896 0.261383 0
M  V30 3193 H 301.532 -2.41485 1.77834 0
M  V30 3194 H 299.085 -1.23595 0.956757 0
M  V30 3195 H 299.82 -3.17091 -0.68 0
M  V30 3196 H 299.605 -3.79642 0.980514 0
M  V30 3197 H 301.095 -4.17548 0.0657687 0
M  V30 3198 N 301.532 -0.945985 -1.26051 0
M  V30 3199 C 302.778 -0.597002 -1.93814 0
M  V30 3200 C 303.111 0.862484 -1.73997 0
M  V30 3201 O 302.386 1.61769 -1.07986 0
M  V30 3202 C 302.669 -0.945937 -3.47454 0
M  V30 3203 C 302.522 -2.46052 -3.76535 0
M  V30 3204 C 303.841 -0.464785 -4.37639 0
M  V30 3205 H 300.96 -0.218366 -0.703907 0
M  V30 3206 H 303.602 -1.18107 -1.48831 0
M  V30 3207 H 301.752 -0.448902 -3.85898 0
M  V30 3208 H 303.424 -3.03065 -3.47778 0
M  V30 3209 H 301.667 -2.90194 -3.22444 0
M  V30 3210 H 302.338 -2.65517 -4.83947 0
M  V30 3211 H 304.814 -0.891016 -4.06448 0
M  V30 3212 H 303.69 -0.737712 -5.4392 0
M  V30 3213 H 303.951 0.635274 -4.37512 0
M  V30 3214 N 303.011 1.40521 -0.713556 0
M  V30 3215 C 304.427 1.54839 -0.386907 0
M  V30 3216 C 304.627 1.68532 1.1045 0
M  V30 3217 O 303.683 1.67377 1.89053 0
M  V30 3218 C 304.996 2.77792 -1.15118 0
M  V30 3219 C 306.544 2.91607 -1.13729 0
M  V30 3220 C 307.019 4.1747 -1.88368 0
M  V30 3221 N 308.51 4.24466 -1.85427 0
M  V30 3222 C 309.245 5.20755 -2.40004 0
M  V30 3223 N 308.741 6.22965 -3.03129 0
M  V30 3224 N 310.534 5.1282 -2.30158 0
M  V30 3225 H 302.685 1.29879 -1.68063 0
M  V30 3226 H 304.948 0.627896 -0.710247 0
M  V30 3227 H 304.654 2.73944 -2.20561 0
M  V30 3228 H 304.528 3.6984 -0.741477 0
M  V30 3229 H 306.915 2.94959 -0.0910608 0
M  V30 3230 H 306.996 2.00682 -1.5862 0
M  V30 3231 H 306.64 4.1488 -2.9298 0
M  V30 3232 H 306.57 5.074 -1.40898 0
M  V30 3233 H 309.061 3.51241 -1.3942 0
M  V30 3234 H 309.374 6.92859 -3.42295 0
M  V30 3235 H 307.719 6.23415 -3.07212 0
M  V30 3236 H 310.91 4.31899 -1.80501 0
M  V30 3237 H 311.083 5.87689 -2.72993 0
M  V30 3238 N 304.489 0.459591 1.5075 0
M  V30 3239 C 305.714 -0.0996819 2.0716 0
M  V30 3240 C 306.139 -1.33761 1.32249 0
M  V30 3241 O 305.497 -1.77551 0.366786 0
M  V30 3242 C 305.545 -0.378226 3.58611 0
M  V30 3243 O 304.649 -1.46081 3.85661 0
M  V30 3244 H 303.99 0.00791392 0.663953 0
M  V30 3245 H 306.52 0.647329 1.9409 0
M  V30 3246 H 306.53 -0.622135 4.03229 0
M  V30 3247 H 305.205 0.526439 4.12555 0
M  V30 3248 H 303.782 -1.20511 3.5289 0
M  V30 3249 N 305.967 -1.56429 0.191757 0
M  V30 3250 C 307.215 -1.97095 -0.447006 0
M  V30 3251 C 307.536 -1.07967 -1.62383 0
M  V30 3252 O 306.806 -0.150248 -1.95323 0
M  V30 3253 H 305.386 -0.727832 -0.168135 0
M  V30 3254 H 308.048 -1.92911 0.27771 0
M  V30 3255 H 307.144 -3.01848 -0.793371 0
M  V30 3256 N 307.445 0.0818655 -1.57387 0
M  V30 3257 C 308.375 1.09885 -2.06028 0
M  V30 3258 C 309.356 1.4098 -0.951774 0
M  V30 3259 O 310.541 1.50781 -1.22387 0
M  V30 3260 C 307.671 2.4151 -2.4958 0
M  V30 3261 C 306.625 2.24792 -3.64215 0
M  V30 3262 C 305.951 3.61712 -3.93787 0
M  V30 3263 C 307.251 1.67749 -4.94629 0
M  V30 3264 H 308.945 0.694128 -2.91243 0
M  V30 3265 H 306.491 0.332448 -1.4011 0
M  V30 3266 H 308.444 3.12939 -2.82219 0
M  V30 3267 H 307.168 2.83943 -1.61381 0
M  V30 3268 H 305.827 1.55807 -3.31843 0
M  V30 3269 H 305.475 4.01697 -3.02735 0
M  V30 3270 H 305.175 3.51368 -4.70971 0
M  V30 3271 H 306.699 4.34587 -4.28913 0
M  V30 3272 H 308.113 2.29032 -5.25564 0
M  V30 3273 H 306.51 1.68128 -5.76067 0
M  V30 3274 H 307.58 0.638059 -4.80684 0
M  V30 3275 N 308.923 1.53595 0.353017 0
M  V30 3276 C 309.853 1.83902 1.43883 0
M  V30 3277 C 310.834 0.693421 1.55324 0
M  V30 3278 O 312.019 0.944452 1.69687 0
M  V30 3279 C 309.149 2.04016 2.8106 0
M  V30 3280 C 308.103 3.19814 2.84434 0
M  V30 3281 C 307.429 3.25244 4.24406 0
M  V30 3282 C 308.729 4.58133 2.50822 0
M  V30 3283 H 310.423 2.74835 1.1877 0
M  V30 3284 H 307.969 1.32242 0.569917 0
M  V30 3285 H 309.922 2.238 3.57059 0
M  V30 3286 H 308.646 1.09804 3.07588 0
M  V30 3287 H 307.305 2.9987 2.10887 0
M  V30 3288 H 306.953 2.28646 4.48029 0
M  V30 3289 H 306.653 4.03054 4.27576 0
M  V30 3290 H 308.177 3.47228 5.0226 0
M  V30 3291 H 309.591 4.77995 3.16534 0
M  V30 3292 H 307.988 5.38276 2.6529 0
M  V30 3293 H 309.058 4.62387 1.46034 0
M  V30 3294 N 310.401 -0.613514 1.45168 0
M  V30 3295 C 311.629 -1.39946 1.5239 0
M  V30 3296 C 312.044 -1.88167 0.154531 0
M  V30 3297 O 311.401 -1.61872 -0.842843 0
M  V30 3298 C 311.452 -2.60795 2.50337 0
M  V30 3299 O 311.173 -2.1458 3.81952 0
M  V30 3300 C 312.674 -3.53723 2.67198 0
M  V30 3301 H 309.894 -0.428593 0.516284 0
M  V30 3302 H 312.438 -0.748753 1.903 0
M  V30 3303 H 310.593 -3.21919 2.15515 0
M  V30 3304 H 311.007 -2.93055 4.34993 0
M  V30 3305 H 312.481 -4.35079 3.39721 0
M  V30 3306 H 312.958 -4.0368 1.73029 0
M  V30 3307 H 313.564 -2.98456 3.02992 0
M  V30 3308 N 311.879 -1.3236 -0.855495 0
M  V30 3309 C 313.125 -1.23054 -1.612 0
M  V30 3310 C 313.458 0.207404 -1.93089 0
M  V30 3311 O 312.733 1.14432 -1.57275 0
M  V30 3312 C 313.016 -2.08937 -2.93287 0
M  V30 3313 C 312.869 -3.61105 -2.68185 0
M  V30 3314 C 314.188 -1.94986 -3.94549 0
M  V30 3315 H 311.307 -0.448364 -0.584926 0
M  V30 3316 H 313.949 -1.62297 -0.987917 0
M  V30 3317 H 312.099 -1.75599 -3.46551 0
M  V30 3318 H 313.771 -4.04652 -2.21483 0
M  V30 3319 H 312.014 -3.83813 -2.02164 0
M  V30 3320 H 312.685 -4.16522 -3.62234 0
M  V30 3321 H 315.161 -2.24189 -3.5054 0
M  V30 3322 H 314.037 -2.57356 -4.84829 0
M  V30 3323 H 314.298 -0.917263 -4.3248 0
M  V30 3324 N 313.357 1.07166 -1.15556 0
M  V30 3325 C 314.29 2.13808 -0.797593 0
M  V30 3326 C 315.268 1.6101 0.226812 0
M  V30 3327 O 316.452 1.88161 0.112932 0
M  V30 3328 C 313.579 3.38187 -0.186371 0
M  V30 3329 C 312.625 4.09766 -1.18297 0
M  V30 3330 S 313.458 4.60932 -2.72584 0
M  V30 3331 C 314.614 5.88583 -2.12886 0
M  V30 3332 H 314.847 2.43843 -1.70083 0
M  V30 3333 H 312.38 1.19467 -0.978106 0
M  V30 3334 H 314.338 4.10189 0.159837 0
M  V30 3335 H 312.999 3.06326 0.694489 0
M  V30 3336 H 312.192 4.99065 -0.703562 0
M  V30 3337 H 311.794 3.43736 -1.47381 0
M  V30 3338 H 314.086 6.60866 -1.49208 0
M  V30 3339 H 315.029 6.41241 -3.0036 0
M  V30 3340 H 315.437 5.42194 -1.57116 0
M  V30 3341 N 314.835 0.952656 1.25548 0
M  V30 3342 C 316.081 0.607272 1.93494 0
M  V30 3343 C 316.414 -0.853245 1.74452 0
M  V30 3344 O 315.689 -1.61194 1.08843 0
M  V30 3345 C 315.972 0.96435 3.46947 0
M  V30 3346 C 315.825 2.48045 3.75225 0
M  V30 3347 C 317.144 0.487987 4.37386 0
M  V30 3348 H 314.263 0.222096 0.702739 0
M  V30 3349 H 316.905 1.18895 1.48203 0
M  V30 3350 H 315.055 0.469361 3.85654 0
M  V30 3351 H 316.727 3.04905 3.46166 0
M  V30 3352 H 314.97 2.919 3.209 0
M  V30 3353 H 315.641 2.6808 4.82532 0
M  V30 3354 H 318.117 0.912558 4.0597 0
M  V30 3355 H 316.993 0.766547 5.43521 0
M  V30 3356 H 317.254 -0.612063 4.37843 0
M  V30 3357 N 316.313 -1.40141 0.720998 0
M  V30 3358 C 317.559 -2.01572 0.272075 0
M  V30 3359 C 317.914 -1.5616 -1.12391 0
M  V30 3360 O 317.207 -0.774198 -1.75262 0
M  V30 3361 C 317.401 -3.56165 0.296892 0
M  V30 3362 C 317.23 -4.16584 1.69375 0
M  V30 3363 C 316 -4.49783 2.30269 0
M  V30 3364 C 318.198 -4.41076 2.64493 0
M  V30 3365 N 316.18 -4.95626 3.62254 0
M  V30 3366 C 317.551 -4.88971 3.81192 0
M  V30 3367 C 319.606 -4.23122 2.62435 0
M  V30 3368 C 318.309 -5.20796 4.96149 0
M  V30 3369 C 320.335 -4.56052 3.76524 0
M  V30 3370 C 319.697 -5.04141 4.91956 0
M  V30 3371 H 315.796 -0.768343 0.145511 0
M  V30 3372 H 318.38 -1.70287 0.943959 0
M  V30 3373 H 316.551 -3.86868 -0.344578 0
M  V30 3374 H 318.283 -4.04346 -0.169254 0
M  V30 3375 H 315.038 -4.37101 1.82318 0
M  V30 3376 H 315.462 -5.22923 4.29977 0
M  V30 3377 H 320.104 -3.85158 1.74393 0
M  V30 3378 H 317.822 -5.57672 5.84831 0
M  V30 3379 H 321.408 -4.43796 3.76213 0
M  V30 3380 H 320.288 -5.29142 5.78774 0
M  V30 3381 N 317.792 -0.46758 -1.50504 0
M  V30 3382 C 319.038 0.0887532 -2.02606 0
M  V30 3383 C 319.371 1.39686 -1.34913 0
M  V30 3384 O 318.646 1.88644 -0.473694 0
M  V30 3385 C 318.929 0.276206 -3.59039 0
M  V30 3386 C 318.782 -1.05267 -4.37309 0
M  V30 3387 C 320.101 1.03235 -4.27821 0
M  V30 3388 H 317.22 0.0307814 -0.736357 0
M  V30 3389 H 319.862 -0.612485 -1.79857 0
M  V30 3390 H 318.012 0.8735 -3.78553 0
M  V30 3391 H 319.684 -1.68628 -4.29374 0
M  V30 3392 H 317.927 -1.65015 -4.01189 0
M  V30 3393 H 318.598 -0.875197 -5.45018 0
M  V30 3394 H 321.074 0.526111 -4.12761 0
M  V30 3395 H 319.95 1.1323 -5.37094 0
M  V30 3396 H 320.211 2.06806 -3.90748 0
M  V30 3397 N 319.27 1.56325 -0.20005 0
M  V30 3398 C 320.495 2.02548 0.44597 0
M  V30 3399 C 320.92 1.07922 1.5406 0
M  V30 3400 O 320.278 0.0635775 1.81188 0
M  V30 3401 C 320.326 3.47175 0.974761 0
M  V30 3402 O 319.43 3.55671 2.08739 0
M  V30 3403 H 318.771 0.655862 0.103638 0
M  V30 3404 H 321.301 2.02201 -0.312381 0
M  V30 3405 H 321.311 3.87067 1.2901 0
M  V30 3406 H 319.986 4.15538 0.17347 0
M  V30 3407 H 318.563 3.27657 1.78032 0
M  V30 3408 N 320.748 -0.0735177 1.57428 0
M  V30 3409 C 321.973 -0.789787 1.91774 0
M  V30 3410 C 322.398 -1.70413 0.796306 0
M  V30 3411 O 321.756 -1.79555 -0.250961 0
M  V30 3412 C 321.804 -1.5609 3.25067 0
M  V30 3413 O 320.908 -2.67144 3.14178 0
M  V30 3414 H 320.249 -0.215582 0.628029 0
M  V30 3415 H 322.779 -0.0422781 2.04556 0
M  V30 3416 H 322.789 -1.94052 3.58898 0
M  V30 3417 H 321.464 -0.890015 4.06265 0
M  V30 3418 H 320.041 -2.32052 2.91901 0
M  V30 3419 N 322.226 -1.5378 -0.344866 0
M  V30 3420 C 323.475 -1.7018 -1.08267 0
M  V30 3421 C 323.788 -0.471 -1.89845 0
M  V30 3422 O 324.994 -0.515917 -2.66553 0
M  V30 3423 C 323.45 -3.00923 -1.97417 0
M  V30 3424 C 323.058 -4.31335 -1.21053 0
M  V30 3425 C 324.802 -3.26688 -2.71063 0
M  V30 3426 C 322.709 -5.53153 -2.09225 0
M  V30 3427 H 321.639 -0.634138 -0.407903 0
M  V30 3428 H 324.29 -1.8028 -0.342246 0
M  V30 3429 H 322.672 -2.84676 -2.75274 0
M  V30 3430 H 323.846 -4.58281 -0.481159 0
M  V30 3431 H 322.161 -4.12173 -0.591813 0
M  V30 3432 H 324.758 -4.1489 -3.37299 0
M  V30 3433 H 325.101 -2.43639 -3.37558 0
M  V30 3434 H 325.634 -3.43705 -2.0028 0
M  V30 3435 H 322.373 -6.38741 -1.47274 0
M  V30 3436 H 321.893 -5.30458 -2.79955 0
M  V30 3437 H 323.572 -5.88744 -2.68308 0
M  V30 3438 N 323.704 0.605807 -1.45491 0
M  V30 3439 C 324.951 1.36476 -1.49601 0
M  V30 3440 C 325.279 1.94007 -0.138452 0
M  V30 3441 O 324.534 1.75638 0.863114 0
M  V30 3442 C 324.833 2.53012 -2.52428 0
M  V30 3443 C 324.499 2.13617 -3.97087 0
M  V30 3444 C 323.161 2.02587 -4.36477 0
M  V30 3445 C 325.513 1.82899 -4.88055 0
M  V30 3446 C 322.841 1.59064 -5.64726 0
M  V30 3447 C 325.193 1.40861 -6.16718 0
M  V30 3448 C 323.857 1.28391 -6.55036 0
M  V30 3449 H 323.127 0.499402 -0.547429 0
M  V30 3450 H 325.774 0.684546 -1.78847 0
M  V30 3451 H 324.079 3.26379 -2.16758 0
M  V30 3452 H 325.776 3.1124 -2.52845 0
M  V30 3453 H 322.366 2.23129 -3.65939 0
M  V30 3454 H 326.55 1.90317 -4.58359 0
M  V30 3455 H 321.806 1.48034 -5.93208 0
M  V30 3456 H 325.98 1.16138 -6.86648 0
M  V30 3457 H 323.607 0.944403 -7.54311 0
M  V30 3458 N 325.182 1.32811 0.848464 0
M  V30 3459 C 326.429 1.23724 1.60308 0
M  V30 3460 C 326.757 -0.1994 1.93475 0
M  V30 3461 O 326.012 -1.15406 1.5805 0
M  V30 3462 C 326.311 2.04831 2.92881 0
M  V30 3463 C 325.977 3.54125 2.79117 0
M  V30 3464 C 324.639 3.94829 2.7507 0
M  V30 3465 C 326.991 4.49036 2.64606 0
M  V30 3466 C 324.319 5.28675 2.544 0
M  V30 3467 C 326.671 5.83033 2.4547 0
M  V30 3468 C 325.335 6.22931 2.39819 0
M  V30 3469 H 324.605 0.452737 0.586609 0
M  V30 3470 H 327.252 1.64301 0.983743 0
M  V30 3471 H 325.557 1.57001 3.58968 0
M  V30 3472 H 327.254 1.95164 3.50303 0
M  V30 3473 H 323.844 3.21801 2.83094 0
M  V30 3474 H 328.028 4.18505 2.66772 0
M  V30 3475 H 323.284 5.58637 2.48465 0
M  V30 3476 H 327.458 6.56186 2.33222 0
M  V30 3477 H 325.085 7.26584 2.23562 0
M  V30 3478 N 326.66 -1.06551 1.16123 0
M  V30 3479 C 327.907 -1.79302 0.941126 0
M  V30 3480 C 328.235 -1.87105 -0.531235 0
M  V30 3481 O 327.49 -1.35692 -1.41018 0
M  V30 3482 C 327.789 -3.23911 1.51052 0
M  V30 3483 C 327.455 -3.36193 3.00475 0
M  V30 3484 C 326.117 -3.39252 3.41265 0
M  V30 3485 C 328.469 -3.38326 3.96465 0
M  V30 3486 C 325.797 -3.42057 4.76669 0
M  V30 3487 C 328.149 -3.4267 5.31752 0
M  V30 3488 C 326.813 -3.4401 5.72026 0
M  V30 3489 H 326.083 -0.656111 0.344382 0
M  V30 3490 H 328.73 -1.25325 1.44796 0
M  V30 3491 H 327.035 -3.80723 0.925063 0
M  V30 3492 H 328.732 -3.78793 1.31593 0
M  V30 3493 H 325.322 -3.34516 2.6795 0
M  V30 3494 H 329.506 -3.35176 3.6602 0
M  V30 3495 H 324.762 -3.41398 5.07206 0
M  V30 3496 H 328.936 -3.43268 6.05921 0
M  V30 3497 H 326.563 -3.45937 6.76928 0
M  V30 3498 N 328.138 -0.959301 -1.25041 0
M  V30 3499 C 329.068 -0.501388 -2.28053 0
M  V30 3500 C 330.049 0.454673 -1.63911 0
M  V30 3501 O 331.234 0.352618 -1.90972 0
M  V30 3502 C 328.364 0.217224 -3.4662 0
M  V30 3503 C 327.318 -0.654034 -4.22973 0
M  V30 3504 C 326.644 0.195589 -5.34342 0
M  V30 3505 C 327.944 -1.93447 -4.85155 0
M  V30 3506 H 329.638 -1.36238 -2.66608 0
M  V30 3507 H 327.184 -0.656534 -1.28163 0
M  V30 3508 H 329.137 0.548732 -4.17812 0
M  V30 3509 H 327.861 1.1125 -3.07068 0
M  V30 3510 H 326.52 -0.968693 -3.5357 0
M  V30 3511 H 326.168 1.09076 -4.91031 0
M  V30 3512 H 325.868 -0.384091 -5.86343 0
M  V30 3513 H 327.392 0.521958 -6.08365 0
M  V30 3514 H 328.806 -1.66908 -5.48466 0
M  V30 3515 H 327.203 -2.46018 -5.47353 0
M  V30 3516 H 328.273 -2.63466 -4.07079 0
M  V30 3517 N 329.616 1.39756 -0.72842 0
M  V30 3518 C 331.027 1.83498 -0.344289 0
M  V30 3519 C 331.378 1.60868 1.12321 0
M  V30 3520 O 330.503 1.09634 1.86573 0
M  V30 3521 C 331.098 3.33114 -0.618112 0
M  V30 3522 C 329.657 3.753 -0.287549 0
M  V30 3523 C 328.804 2.62831 -0.884048 0
M  V30 3524 H 331.755 1.28842 -0.926578 0
M  V30 3525 H 331.776 3.80334 0.112349 0
M  V30 3526 H 331.288 3.49553 -1.68625 0
M  V30 3527 H 329.389 3.64451 0.775012 0
M  V30 3528 H 329.502 4.72945 -0.765512 0
M  V30 3529 H 327.866 2.52792 -0.311149 0
M  V30 3530 H 328.649 2.82078 -1.95671 0
M  V30 3531 N 331.094 0.475555 1.50254 0
M  V30 3532 C 332.34 -0.0780073 2.0265 0
M  V30 3533 C 332.673 -1.38968 1.35652 0
M  V30 3534 O 331.948 -1.8839 0.483691 0
M  V30 3535 C 332.231 -0.257161 3.59181 0
M  V30 3536 C 332.084 1.07585 4.36744 0
M  V30 3537 C 333.403 -1.00965 4.28362 0
M  V30 3538 H 330.522 -0.0268758 0.73651 0
M  V30 3539 H 333.164 0.622015 1.7953 0
M  V30 3540 H 331.314 -0.853412 3.79011 0
M  V30 3541 H 332.986 1.70902 4.28474 0
M  V30 3542 H 331.229 1.6714 4.00308 0
M  V30 3543 H 331.9 0.904088 5.44546 0
M  V30 3544 H 334.376 -0.504214 4.13034 0
M  V30 3545 H 333.252 -1.10381 5.37687 0
M  V30 3546 H 333.513 -2.04731 3.91839 0
M  V30 3547 N 332.573 -1.56217 0.208337 0
M  V30 3548 C 333.82 -1.97949 -0.42692 0
M  V30 3549 C 334.148 -1.09562 -1.60706 0
M  V30 3550 O 333.403 -0.137616 -1.95216 0
M  V30 3551 C 333.702 -3.45441 -0.916797 0
M  V30 3552 C 333.368 -4.50646 0.151391 0
M  V30 3553 C 332.03 -4.79139 0.444867 0
M  V30 3554 C 334.382 -5.13811 0.874492 0
M  V30 3555 C 331.71 -5.68084 1.46619 0
M  V30 3556 C 334.062 -6.03861 1.88506 0
M  V30 3557 C 332.726 -6.30704 2.18559 0
M  V30 3558 H 331.996 -0.724345 -0.156221 0
M  V30 3559 H 334.643 -1.89006 0.308084 0
M  V30 3560 H 332.948 -3.51521 -1.73032 0
M  V30 3561 H 334.645 -3.75094 -1.41794 0
M  V30 3562 H 331.235 -4.28511 -0.0875068 0
M  V30 3563 H 335.419 -4.91879 0.660996 0
M  V30 3564 H 330.675 -5.87151 1.7048 0
M  V30 3565 H 334.849 -6.51861 2.45051 0
M  V30 3566 H 332.476 -6.99424 2.97843 0
M  V30 3567 N 334.051 0.0651679 -1.57465 0
M  V30 3568 C 335.291 0.768329 -1.8941 0
M  V30 3569 C 335.655 1.74406 -0.802894 0
M  V30 3570 O 336.856 2.49281 -1.0056 0
M  V30 3571 C 335.127 1.45199 -3.26576 0
M  V30 3572 S 336.686 2.1893 -3.80283 0
M  V30 3573 H 333.504 0.255359 -0.663561 0
M  V30 3574 H 336.106 0.024167 -1.95485 0
M  V30 3575 H 334.81 0.728123 -4.03889 0
M  V30 3576 H 334.341 2.23545 -3.23715 0
M  V30 3577 H 336.356 3.45551 -3.56102 0
M  V30 3578 N 335.529 1.53961 0.336706 0
M  V30 3579 C 336.459 1.85417 1.41925 0
M  V30 3580 C 337.44 0.709856 1.5458 0
M  V30 3581 O 338.625 0.962396 1.68676 0
M  V30 3582 C 335.755 2.06985 2.78881 0
M  V30 3583 C 334.709 3.22813 2.81026 0
M  V30 3584 C 334.035 3.29727 4.20932 0
M  V30 3585 C 335.335 4.60767 2.45949 0
M  V30 3586 H 337.029 2.76079 1.15848 0
M  V30 3587 H 334.575 1.32839 0.555859 0
M  V30 3588 H 336.528 2.27575 3.54665 0
M  V30 3589 H 335.252 1.13061 3.06406 0
M  V30 3590 H 333.911 3.0209 2.07695 0
M  V30 3591 H 333.559 2.33385 4.45579 0
M  V30 3592 H 333.259 4.07566 4.23277 0
M  V30 3593 H 334.783 3.52536 4.98549 0
M  V30 3594 H 336.197 4.81325 3.11446 0
M  V30 3595 H 334.594 5.4106 2.59566 0
M  V30 3596 H 335.664 4.6391 1.41122 0
M  V30 3597 N 337.007 -0.598083 1.45811 0
M  V30 3598 C 338.235 -1.38322 1.53866 0
M  V30 3599 C 338.65 -1.87992 0.174479 0
M  V30 3600 O 338.007 -1.62756 -0.825627 0
M  V30 3601 C 338.058 -2.58125 2.53089 0
M  V30 3602 O 337.779 -2.10516 3.84206 0
M  V30 3603 C 339.28 -3.50869 2.70935 0
M  V30 3604 H 336.5 -0.423093 0.520801 0
M  V30 3605 H 339.044 -0.728527 1.91083 0
M  V30 3606 H 337.199 -3.19615 2.18917 0
M  V30 3607 H 337.613 -2.88425 4.38077 0
M  V30 3608 H 339.087 -4.31451 3.44317 0
M  V30 3609 H 339.564 -4.01822 1.77301 0
M  V30 3610 H 340.17 -2.95225 3.06141 0
M  V30 3611 N 338.485 -1.33259 -0.841409 0
M  V30 3612 C 339.731 -1.24757 -1.59886 0
M  V30 3613 C 340.064 0.186913 -1.93298 0
M  V30 3614 O 339.339 1.12757 -1.5848 0
M  V30 3615 C 339.622 -2.12036 -2.91055 0
M  V30 3616 C 339.475 -3.63929 -2.6434 0
M  V30 3617 C 340.794 -1.9916 -3.92458 0
M  V30 3618 H 337.913 -0.454542 -0.580138 0
M  V30 3619 H 340.555 -1.63335 -0.970647 0
M  V30 3620 H 338.705 -1.79265 -3.44669 0
M  V30 3621 H 340.377 -4.06978 -2.17178 0
M  V30 3622 H 338.62 -3.85935 -1.98082 0
M  V30 3623 H 339.291 -4.20341 -3.57796 0
M  V30 3624 H 341.767 -2.27895 -3.48143 0
M  V30 3625 H 340.643 -2.62484 -4.82072 0
M  V30 3626 H 340.904 -0.963082 -4.31482 0
M  V30 3627 N 339.963 1.05934 -1.16686 0
M  V30 3628 C 340.893 2.1546 -0.899949 0
M  V30 3629 C 341.874 1.69391 0.155154 0
M  V30 3630 O 343.059 1.94199 0.00648693 0
M  V30 3631 C 340.189 3.44939 -0.404241 0
M  V30 3632 C 339.143 4.04536 -1.39767 0
M  V30 3633 C 338.469 5.29268 -0.760216 0
M  V30 3634 C 339.769 4.42893 -2.76845 0
M  V30 3635 H 341.463 2.38046 -1.81588 0
M  V30 3636 H 339.009 1.14404 -0.874514 0
M  V30 3637 H 340.962 4.20901 -0.204971 0
M  V30 3638 H 339.686 3.21983 0.547206 0
M  V30 3639 H 338.345 3.30635 -1.58355 0
M  V30 3640 H 337.993 5.02611 0.197831 0
M  V30 3641 H 337.693 5.70101 -1.42332 0
M  V30 3642 H 339.217 6.07924 -0.57105 0
M  V30 3643 H 340.631 5.09921 -2.62019 0
M  V30 3644 H 339.028 4.94721 -3.39663 0
M  V30 3645 H 340.098 3.53584 -3.31823 0
M  V30 3646 N 341.441 0.965919 1.2453 0
M  V30 3647 C 342.671 0.643451 1.96324 0
M  V30 3648 C 343.079 -0.790927 1.71875 0
M  V30 3649 O 342.422 -1.54208 0.998273 0
M  V30 3650 C 342.484 0.836078 3.49643 0
M  V30 3651 C 342.148 2.24975 3.97788 0
M  V30 3652 C 343.145 3.22735 4.07601 0
M  V30 3653 C 340.83 2.57697 4.31158 0
M  V30 3654 C 342.824 4.51303 4.50116 0
M  V30 3655 C 340.511 3.86492 4.73357 0
M  V30 3656 C 341.509 4.83107 4.828 0
M  V30 3657 O 341.197 6.09605 5.24058 0
M  V30 3658 H 340.929 0.239223 0.632257 0
M  V30 3659 H 343.483 1.29587 1.59362 0
M  V30 3660 H 341.713 0.12649 3.86493 0
M  V30 3661 H 343.402 0.512965 4.02646 0
M  V30 3662 H 344.168 2.98783 3.82039 0
M  V30 3663 H 340.047 1.83216 4.23028 0
M  V30 3664 H 343.591 5.26716 4.57401 0
M  V30 3665 H 339.488 4.10245 4.98366 0
M  V30 3666 H 340.256 6.13146 5.42213 0
M  V30 3667 N 342.919 -1.39368 0.735821 0
M  V30 3668 C 344.144 -2.05319 0.293052 0
M  V30 3669 C 344.569 -1.55115 -1.064 0
M  V30 3670 O 343.927 -0.695261 -1.67439 0
M  V30 3671 C 343.975 -3.59305 0.305323 0
M  V30 3672 O 343.079 -4.06299 -0.706761 0
M  V30 3673 H 342.42 -0.650529 0.13307 0
M  V30 3674 H 344.95 -1.78386 1.00197 0
M  V30 3675 H 344.96 -4.07724 0.149997 0
M  V30 3676 H 343.635 -3.95207 1.29553 0
M  V30 3677 H 342.212 -3.69292 -0.517504 0
M  V30 3678 N 344.397 -0.483516 -1.5 0
M  V30 3679 C 345.327 0.293829 -2.31644 0
M  V30 3680 C 346.308 0.978864 -1.39112 0
M  V30 3681 O 347.493 0.973644 -1.68029 0
M  V30 3682 C 344.623 1.36897 -3.19181 0
M  V30 3683 C 343.577 0.804833 -4.20365 0
M  V30 3684 C 342.903 1.9792 -4.96721 0
M  V30 3685 C 344.203 -0.192313 -5.21946 0
M  V30 3686 H 345.897 -0.387616 -2.9688 0
M  V30 3687 H 343.443 -0.187856 -1.42769 0
M  V30 3688 H 345.396 1.92037 -3.751 0
M  V30 3689 H 344.12 2.07936 -2.51853 0
M  V30 3690 H 342.779 0.275319 -3.65565 0
M  V30 3691 H 342.427 2.67686 -4.25856 0
M  V30 3692 H 342.127 1.60789 -5.65173 0
M  V30 3693 H 343.651 2.53526 -5.55479 0
M  V30 3694 H 345.065 0.270333 -5.72662 0
M  V30 3695 H 343.462 -0.478543 -5.98189 0
M  V30 3696 H 344.532 -1.11409 -4.71928 0
M  V30 3697 N 345.875 1.56104 -0.216619 0
M  V30 3698 C 347.124 1.97348 0.416744 0
M  V30 3699 C 347.437 1.10715 1.6125 0
M  V30 3700 O 348.643 1.41836 2.31506 0
M  V30 3701 C 347.099 3.51059 0.792835 0
M  V30 3702 C 346.707 4.46387 -0.379828 0
M  V30 3703 C 348.451 4.01026 1.39208 0
M  V30 3704 C 346.358 5.91397 0.0184223 0
M  V30 3705 H 345.288 0.736942 0.159475 0
M  V30 3706 H 347.939 1.80827 -0.31205 0
M  V30 3707 H 346.321 3.63162 1.57891 0
M  V30 3708 H 347.495 4.46029 -1.15737 0
M  V30 3709 H 345.81 4.06734 -0.891979 0
M  V30 3710 H 348.407 5.0686 1.70286 0
M  V30 3711 H 348.75 3.46587 2.30614 0
M  V30 3712 H 349.283 3.92125 0.669537 0
M  V30 3713 H 346.022 6.49807 -0.862002 0
M  V30 3714 H 345.542 5.94961 0.760384 0
M  V30 3715 H 347.221 6.45455 0.446818 0
M  V30 3716 N 347.353 -0.0568162 1.57498 0
M  V30 3717 C 348.601 -0.751617 1.87604 0
M  V30 3718 C 348.922 -1.77351 0.81066 0
M  V30 3719 O 348.192 -1.95254 -0.159018 0
M  V30 3720 H 346.772 -0.280583 0.692302 0
M  V30 3721 H 349.434 -0.0293483 1.94878 0
M  V30 3722 H 348.53 -1.25852 2.856 0
M  V30 3723 N 348.832 -1.54138 -0.328536 0
M  V30 3724 C 350.248 -1.44736 -0.672574 0
M  V30 3725 C 350.448 -0.616217 -1.91846 0
M  V30 3726 O 349.504 -0.113067 -2.52247 0
M  V30 3727 C 350.817 -2.884 -0.851217 0
M  V30 3728 C 352.365 -2.98271 -0.948877 0
M  V30 3729 C 352.84 -4.43074 -1.15973 0
M  V30 3730 N 354.331 -4.46665 -1.22658 0
M  V30 3731 C 355.066 -5.55857 -1.40751 0
M  V30 3732 N 354.562 -6.75026 -1.5592 0
M  V30 3733 N 356.355 -5.43495 -1.4342 0
M  V30 3734 H 348.506 -2.06661 0.490421 0
M  V30 3735 H 350.769 -0.934812 0.157579 0
M  V30 3736 H 350.475 -3.51699 -0.00704236 0
M  V30 3737 H 350.349 -3.34225 -1.74853 0
M  V30 3738 H 352.736 -2.35102 -1.78356 0
M  V30 3739 H 352.817 -2.55785 -0.0281435 0
M  V30 3740 H 352.461 -5.06827 -0.329915 0
M  V30 3741 H 352.391 -4.83165 -2.09426 0
M  V30 3742 H 354.882 -3.60797 -1.124 0
M  V30 3743 H 355.195 -7.54004 -1.69404 0
M  V30 3744 H 353.54 -6.77944 -1.53027 0
M  V30 3745 H 356.731 -4.49349 -1.31162 0
M  V30 3746 H 356.904 -6.28649 -1.57178 0
M  V30 3747 N 350.31 0.590341 -1.46126 0
M  V30 3748 C 351.257 1.69994 -1.56111 0
M  V30 3749 C 352.227 1.61065 -0.405867 0
M  V30 3750 O 353.412 1.8039 -0.621613 0
M  V30 3751 C 350.552 3.08326 -1.55013 0
M  V30 3752 C 349.665 3.27936 -2.81215 0
M  V30 3753 C 348.8 4.56473 -2.71673 0
M  V30 3754 C 347.839 4.694 -3.92849 0
M  V30 3755 N 346.976 5.89254 -3.81738 0
M  V30 3756 H 351.816 1.60797 -2.50895 0
M  V30 3757 H 349.353 0.783799 -1.24479 0
M  V30 3758 H 351.311 3.88383 -1.52362 0
M  V30 3759 H 349.941 3.16439 -0.637667 0
M  V30 3760 H 348.993 2.41536 -2.93879 0
M  V30 3761 H 350.305 3.33357 -3.71045 0
M  V30 3762 H 349.459 5.44748 -2.67085 0
M  V30 3763 H 348.198 4.53477 -1.7947 0
M  V30 3764 H 347.203 3.79544 -3.97777 0
M  V30 3765 H 348.428 4.7418 -4.86138 0
M  V30 3766 H 346.374 5.87271 -2.92317 0
M  V30 3767 H 346.291 5.95911 -4.65217 0
M  V30 3768 H 347.559 6.79981 -3.81112 0
M  V30 3769 N 351.788 1.33704 0.83433 0
M  V30 3770 C 352.718 1.26967 1.95963 0
M  V30 3771 C 353.699 0.149337 1.69443 0
M  V30 3772 O 354.884 0.339852 1.91203 0
M  V30 3773 C 352.014 1.01275 3.32206 0
M  V30 3774 C 350.968 2.09652 3.73136 0
M  V30 3775 C 350.294 1.69166 5.07235 0
M  V30 3776 C 351.594 3.51372 3.86439 0
M  V30 3777 H 353.288 2.2112 2.01857 0
M  V30 3778 H 350.834 1.06447 0.969793 0
M  V30 3779 H 352.787 0.952106 4.10503 0
M  V30 3780 H 351.511 0.0356203 3.26581 0
M  V30 3781 H 350.17 2.14766 2.97104 0
M  V30 3782 H 349.818 0.701437 4.98085 0
M  V30 3783 H 349.518 2.41694 5.35591 0
M  V30 3784 H 351.042 1.64576 5.88003 0
M  V30 3785 H 352.456 3.48734 4.55036 0
M  V30 3786 H 350.853 4.22425 4.26236 0
M  V30 3787 H 351.923 3.89546 2.88759 0
M  V30 3788 N 353.266 -1.05314 1.17247 0
M  V30 3789 C 354.512 -1.78699 0.971513 0
M  V30 3790 C 354.867 -1.85932 -0.494692 0
M  V30 3791 O 354.16 -1.34716 -1.36243 0
M  V30 3792 C 354.354 -3.2229 1.54479 0
M  V30 3793 C 354.183 -3.29052 3.06521 0
M  V30 3794 C 352.953 -3.3841 3.75242 0
M  V30 3795 C 355.151 -3.18095 4.04129 0
M  V30 3796 N 353.133 -3.34289 5.14902 0
M  V30 3797 C 354.504 -3.21331 5.30232 0
M  V30 3798 C 356.559 -3.02049 3.95817 0
M  V30 3799 C 355.262 -3.10169 6.4899 0
M  V30 3800 C 357.288 -2.92228 5.14156 0
M  V30 3801 C 356.65 -2.96096 6.39145 0
M  V30 3802 H 352.749 -0.66628 0.409383 0
M  V30 3803 H 355.333 -1.25553 1.4881 0
M  V30 3804 H 353.504 -3.7381 1.05455 0
M  V30 3805 H 355.236 -3.83905 1.28059 0
M  V30 3806 H 351.991 -3.43621 3.25917 0
M  V30 3807 H 352.415 -3.35702 5.87906 0
M  V30 3808 H 357.057 -2.97897 3.00029 0
M  V30 3809 H 354.775 -3.13076 7.44989 0
M  V30 3810 H 358.361 -2.80885 5.09505 0
M  V30 3811 H 357.241 -2.88568 7.29176 0
M  V30 3812 N 354.744 -0.972509 -1.24016 0
M  V30 3813 C 356.16 -0.679827 -1.44397 0
M  V30 3814 C 356.36 0.756716 -1.86751 0
M  V30 3815 O 355.416 1.53007 -2.00861 0
M  V30 3816 C 356.729 -1.66803 -2.50195 0
M  V30 3817 C 358.277 -1.68119 -2.64017 0
M  V30 3818 C 358.752 -2.65748 -3.73017 0
M  V30 3819 N 360.243 -2.64219 -3.8045 0
M  V30 3820 C 360.978 -3.36433 -4.64328 0
M  V30 3821 N 360.474 -4.1818 -5.52356 0
M  V30 3822 N 362.267 -3.25235 -4.58453 0
M  V30 3823 H 354.418 -1.90059 -0.948228 0
M  V30 3824 H 356.681 -0.818527 -0.478245 0
M  V30 3825 H 356.387 -2.69498 -2.25973 0
M  V30 3826 H 356.261 -1.4446 -3.48441 0
M  V30 3827 H 358.648 -0.661319 -2.87594 0
M  V30 3828 H 358.729 -1.94525 -1.66113 0
M  V30 3829 H 358.373 -3.67872 -3.50189 0
M  V30 3830 H 358.303 -2.36619 -4.70446 0
M  V30 3831 H 360.794 -2.04887 -3.17537 0
M  V30 3832 H 361.107 -4.70157 -6.13329 0
M  V30 3833 H 359.452 -4.22273 -5.52006 0
M  V30 3834 H 362.643 -2.60829 -3.88698 0
M  V30 3835 H 362.816 -3.81776 -5.23594 0
M  V30 3836 N 356.222 1.38976 -0.743202 0
M  V30 3837 C 357.638 1.53984 -0.419664 0
M  V30 3838 C 357.838 1.70837 1.0685 0
M  V30 3839 O 356.894 1.7135 1.8546 0
M  V30 3840 C 358.207 2.75287 -1.20985 0
M  V30 3841 C 359.755 2.89129 -1.19889 0
M  V30 3842 C 360.23 4.13381 -1.97181 0
M  V30 3843 N 361.721 4.20437 -1.94389 0
M  V30 3844 C 362.456 5.15547 -2.50996 0
M  V30 3845 N 361.952 6.16395 -3.16274 0
M  V30 3846 N 363.745 5.07822 -2.40984 0
M  V30 3847 H 355.896 1.26285 -1.7078 0
M  V30 3848 H 358.159 0.612689 -0.723406 0
M  V30 3849 H 357.865 2.69204 -2.26323 0
M  V30 3850 H 357.739 3.68184 -0.819759 0
M  V30 3851 H 360.126 2.947 -0.153606 0
M  V30 3852 H 360.207 1.97272 -1.62841 0
M  V30 3853 H 359.851 4.08572 -3.01714 0
M  V30 3854 H 359.781 5.04298 -1.51629 0
M  V30 3855 H 362.272 3.48205 -1.46839 0
M  V30 3856 H 362.585 6.85443 -3.56915 0
M  V30 3857 H 360.93 6.16758 -3.20367 0
M  V30 3858 H 364.121 4.27973 -1.89622 0
M  V30 3859 H 364.294 5.81767 -2.85397 0
M  V30 3860 N 357.7 0.491464 1.49741 0
M  V30 3861 C 359.116 0.146835 1.58923 0
M  V30 3862 C 359.316 -1.34804 1.49767 0
M  V30 3863 O 358.372 -2.12317 1.36667 0
M  V30 3864 C 359.685 0.715157 2.92072 0
M  V30 3865 C 361.233 0.680407 3.05515 0
M  V30 3866 C 361.708 1.22663 4.41269 0
M  V30 3867 N 363.199 1.18691 4.47735 0
M  V30 3868 C 363.934 1.57984 5.51207 0
M  V30 3869 N 363.43 2.04824 6.6183 0
M  V30 3870 N 365.223 1.49459 5.41866 0
M  V30 3871 H 357.374 1.46347 1.53936 0
M  V30 3872 H 359.637 0.606453 0.728642 0
M  V30 3873 H 359.343 1.76317 3.04311 0
M  V30 3874 H 359.217 0.17018 3.76816 0
M  V30 3875 H 361.604 -0.358743 2.92911 0
M  V30 3876 H 361.685 1.26242 2.22478 0
M  V30 3877 H 361.329 2.26451 4.54623 0
M  V30 3878 H 361.259 0.620637 5.2293 0
M  V30 3879 H 363.75 0.843605 3.68364 0
M  V30 3880 H 364.063 2.32901 7.3687 0
M  V30 3881 H 362.408 2.08791 6.62896 0
M  V30 3882 H 365.599 1.12692 4.54333 0
M  V30 3883 H 365.772 1.80406 6.22381 0
M  V30 3884 N 359.178 -1.55987 0.224894 0
M  V30 3885 C 360.594 -1.59066 -0.130426 0
M  V30 3886 C 360.794 -1.24176 -1.5869 0
M  V30 3887 O 359.85 -0.978592 -2.32766 0
M  V30 3888 C 361.163 -3.00042 0.198883 0
M  V30 3889 C 362.711 -3.1268 0.141391 0
M  V30 3890 C 363.186 -4.55839 0.444422 0
M  V30 3891 N 364.677 -4.6152 0.394115 0
M  V30 3892 C 365.412 -5.70231 0.602038 0
M  V30 3893 N 364.908 -6.87291 0.871914 0
M  V30 3894 N 366.701 -5.59555 0.534245 0
M  V30 3895 H 358.852 -1.76941 1.17497 0
M  V30 3896 H 361.115 -0.822604 0.471197 0
M  V30 3897 H 360.821 -3.30234 1.2099 0
M  V30 3898 H 360.695 -3.74075 -0.484535 0
M  V30 3899 H 363.082 -2.82283 -0.860265 0
M  V30 3900 H 363.163 -2.40969 0.858335 0
M  V30 3901 H 362.807 -4.86954 1.44353 0
M  V30 3902 H 362.737 -5.2578 -0.293752 0
M  V30 3903 H 365.228 -3.77405 0.193356 0
M  V30 3904 H 365.541 -7.66058 1.01858 0
M  V30 3905 H 363.886 -6.89028 0.909145 0
M  V30 3906 H 367.077 -4.6698 0.323612 0
M  V30 3907 H 367.25 -6.44211 0.699693 0
M  V30 3908 N 360.656 0.0484629 -1.57525 0
M  V30 3909 C 361.904 0.741657 -1.88 0
M  V30 3910 C 362.225 1.76918 -0.820054 0
M  V30 3911 O 361.495 1.95335 0.148661 0
M  V30 3912 H 360.075 0.276908 -0.69378 0
M  V30 3913 H 362.737 0.019013 -1.94891 0
M  V30 3914 H 361.833 1.24336 -2.86264 0
M  V30 3915 N 362.134 1.5431 0.320358 0
M  V30 3916 C 363.411 1.63322 1.07635 0
M  V30 3917 C 363.791 0.46912 2.05821 0
M  V30 3918 O 363.139 -0.536274 2.22118 0
M  V30 3919 C 363.349 3.00465 1.77544 0
M  V30 3920 C 364.697 3.56621 2.30449 0
M  V30 3921 O 365.721 3.02791 1.87606 0
M  V30 3922 O 364.58 4.5083 3.08892 0
M  V30 3923 H 361.674 0.661502 0.496331 0
M  V30 3924 H 364.22 1.66656 0.319992 0
M  V30 3925 H 362.992 3.76629 1.06143 0
M  V30 3926 H 362.615 3.00824 2.59982 0
M  V30 3927 N 363.613 -0.582584 1.46437 0
M  V30 3928 C 364.576 -1.67366 1.56592 0
M  V30 3929 C 365.576 -1.54575 0.443072 0
M  V30 3930 O 366.766 -1.59191 0.707381 0
M  V30 3931 C 363.898 -3.06791 1.48634 0
M  V30 3932 H 365.091 -1.5972 2.5383 0
M  V30 3933 H 362.644 -0.800432 1.34249 0
M  V30 3934 H 363.379 -3.19993 0.526763 0
M  V30 3935 H 363.164 -3.17484 2.30101 0
M  V30 3936 H 364.654 -3.86218 1.58826 0
M  V30 3937 N 365.091 -1.34144 -0.827227 0
M  V30 3938 C 366.337 -1.26446 -1.58554 0
M  V30 3939 C 366.67 0.1664 -1.93486 0
M  V30 3940 O 365.945 1.1107 -1.59667 0
M  V30 3941 C 366.228 -2.15111 -2.8879 0
M  V30 3942 C 366.081 -3.66712 -2.60465 0
M  V30 3943 C 367.4 -2.03311 -3.90324 0
M  V30 3944 H 364.519 -0.46067 -0.575284 0
M  V30 3945 H 367.161 -1.64356 -0.953269 0
M  V30 3946 H 365.311 -1.8291 -3.42748 0
M  V30 3947 H 366.983 -4.09259 -2.1285 0
M  V30 3948 H 365.226 -3.88014 -1.93978 0
M  V30 3949 H 365.897 -4.24112 -3.53317 0
M  V30 3950 H 368.373 -2.31574 -3.45706 0
M  V30 3951 H 367.249 -2.67582 -4.79261 0
M  V30 3952 H 367.51 -1.00879 -4.30437 0
M  V30 3953 N 366.569 1.04691 -1.17803 0
M  V30 3954 C 367.815 1.78045 -0.970969 0
M  V30 3955 C 368.148 1.87686 0.498751 0
M  V30 3956 O 367.423 1.38035 1.37027 0
M  V30 3957 C 367.706 3.2166 -1.61884 0
M  V30 3958 C 367.559 3.20001 -3.161 0
M  V30 3959 C 368.878 4.1962 -1.3269 0
M  V30 3960 H 365.997 0.64633 -0.354155 0
M  V30 3961 H 368.639 1.22333 -1.45378 0
M  V30 3962 H 366.789 3.69232 -1.20831 0
M  V30 3963 H 368.461 2.80467 -3.66246 0
M  V30 3964 H 366.704 2.58203 -3.48588 0
M  V30 3965 H 367.375 4.21386 -3.56564 0
M  V30 3966 H 369.851 3.80567 -1.68249 0
M  V30 3967 H 368.727 5.18339 -1.80599 0
M  V30 3968 H 368.988 4.414 -0.248622 0
M  V30 3969 N 368.047 0.979072 1.23499 0
M  V30 3970 C 369.295 0.645941 1.91499 0
M  V30 3971 C 369.616 -0.822948 1.76784 0
M  V30 3972 O 368.886 -1.58854 1.14639 0
M  V30 3973 H 367.466 0.235919 0.708767 0
M  V30 3974 H 370.128 1.2426 1.50152 0
M  V30 3975 H 369.224 0.896411 2.9895 0
M  V30 3976 N 369.525 -1.3858 0.750561 0
M  V30 3977 C 370.488 -2.28836 0.129152 0
M  V30 3978 C 371.488 -1.47045 -0.650714 0
M  V30 3979 O 372.678 -1.6753 -0.477428 0
M  V30 3980 C 369.81 -3.30751 -0.825622 0
M  V30 3981 H 371.003 -2.85294 0.924516 0
M  V30 3982 H 368.556 -1.47489 0.517376 0
M  V30 3983 H 369.291 -2.79378 -1.64677 0
M  V30 3984 H 369.076 -3.91177 -0.268852 0
M  V30 3985 H 370.566 -3.98249 -1.2565 0
M  V30 3986 N 371.003 -0.499398 -1.49478 0
M  V30 3987 C 372.228 0.044722 -2.07352 0
M  V30 3988 C 372.653 1.30207 -1.35749 0
M  V30 3989 O 372.011 1.76516 -0.413732 0
M  V30 3990 C 372.059 0.283013 -3.59488 0
M  V30 3991 O 371.163 1.35804 -3.89398 0
M  V30 3992 H 370.504 -0.0255147 -0.66351 0
M  V30 3993 H 373.034 -0.698561 -1.92305 0
M  V30 3994 H 373.044 0.515007 -4.04737 0
M  V30 3995 H 371.719 -0.635636 -4.11014 0
M  V30 3996 H 370.296 1.11113 -3.55961 0
M  V30 3997 N 372.481 1.55866 -0.233164 0
M  V30 3998 C 373.411 2.23783 0.666599 0
M  V30 3999 C 374.392 1.21343 1.19205 0
M  V30 4000 O 375.577 1.4996 1.23392 0
M  V30 4001 C 372.707 2.92671 1.86978 0
M  V30 4002 C 371.661 4.01682 1.47768 0
M  V30 4003 C 370.987 4.57926 2.76058 0
M  V30 4004 C 372.287 5.18126 0.658993 0
M  V30 4005 H 373.981 2.99232 0.100306 0
M  V30 4006 H 371.527 1.43924 0.046804 0
M  V30 4007 H 373.48 3.3888 2.50476 0
M  V30 4008 H 372.204 2.14688 2.46123 0
M  V30 4009 H 370.863 3.56222 0.866106 0
M  V30 4010 H 370.511 3.76659 3.33372 0
M  V30 4011 H 370.211 5.31505 2.50552 0
M  V30 4012 H 371.735 5.06859 3.40479 0
M  V30 4013 H 373.149 5.60644 1.19795 0
M  V30 4014 H 371.546 5.98009 0.500552 0
M  V30 4015 H 372.616 4.83763 -0.331856 0
M  V30 4016 N 373.959 -0.0401083 1.57549 0
M  V30 4017 C 375.375 -0.395556 1.54621 0
M  V30 4018 C 375.575 -1.77281 0.957799 0
M  V30 4019 O 374.631 -2.45888 0.574031 0
M  V30 4020 C 375.944 -0.307535 2.99123 0
M  V30 4021 C 377.492 -0.385425 3.10618 0
M  V30 4022 C 377.967 -0.326973 4.56831 0
M  V30 4023 N 379.458 -0.386102 4.61588 0
M  V30 4024 C 380.193 -0.363591 5.72246 0
M  V30 4025 N 379.689 -0.29402 6.92176 0
M  V30 4026 N 381.482 -0.412503 5.60584 0
M  V30 4027 H 373.633 0.861325 1.94152 0
M  V30 4028 H 375.896 0.326445 0.890021 0
M  V30 4029 H 375.602 0.638461 3.45856 0
M  V30 4030 H 375.476 -1.10552 3.60636 0
M  V30 4031 H 377.863 -1.32185 2.63839 0
M  V30 4032 H 377.944 0.44171 2.51957 0
M  V30 4033 H 377.588 0.605738 5.04275 0
M  V30 4034 H 377.518 -1.17207 5.13391 0
M  V30 4035 H 380.009 -0.442832 3.75296 0
M  V30 4036 H 380.322 -0.28164 7.72287 0
M  V30 4037 H 378.667 -0.260232 6.94513 0
M  V30 4038 H 381.858 -0.464769 4.65787 0
M  V30 4039 H 382.031 -0.391492 6.46816 0
M  V30 4040 N 375.437 -1.54477 -0.31217 0
M  V30 4041 C 376.714 -1.63891 -1.06767 0
M  V30 4042 C 377.094 -0.480028 -2.0557 0
M  V30 4043 O 376.442 0.524487 -2.22399 0
M  V30 4044 C 376.652 -3.01402 -1.75948 0
M  V30 4045 C 378 -3.57838 -2.28554 0
M  V30 4046 O 379.024 -3.03782 -1.85998 0
M  V30 4047 O 377.883 -4.52462 -3.06497 0
M  V30 4048 H 374.977 -0.664125 -0.492816 0
M  V30 4049 H 377.523 -1.66823 -0.311149 0
M  V30 4050 H 376.295 -3.77187 -1.04144 0
M  V30 4051 H 375.918 -3.02199 -2.58383 0
M  V30 4052 N 376.915 0.57481 -1.46744 0
M  V30 4053 C 377.847 1.69804 -1.53946 0
M  V30 4054 C 378.86 1.57098 -0.427106 0
M  V30 4055 O 380.049 1.64378 -0.695863 0
M  V30 4056 C 377.149 3.08125 -1.4111 0
M  V30 4057 C 376.322 3.46757 -2.66605 0
M  V30 4058 C 375.381 4.6417 -2.47855 0
M  V30 4059 O 374.407 4.69634 -3.21609 0
M  V30 4060 N 375.609 5.59553 -1.54534 0
M  V30 4061 H 378.374 1.64077 -2.50796 0
M  V30 4062 H 375.935 0.761 -1.429 0
M  V30 4063 H 377.927 3.84478 -1.26328 0
M  V30 4064 H 376.497 3.08175 -0.524109 0
M  V30 4065 H 375.717 2.6003 -2.96274 0
M  V30 4066 H 377.005 3.69337 -3.49954 0
M  V30 4067 H 376.403 5.57881 -0.937304 0
M  V30 4068 H 374.96 6.35304 -1.45711 0
M  V30 4069 N 378.394 1.34581 0.820102 0
M  V30 4070 C 379.342 1.26401 1.95258 0
M  V30 4071 C 380.336 0.161553 1.68628 0
M  V30 4072 O 381.542 0.326703 1.7701 0
M  V30 4073 H 377.917 0.392749 0.64129 0
M  V30 4074 H 379.888 2.22105 1.99279 0
M  V30 4075 C 378.637 1.03919 3.31807 0
M  V30 4076 H 377.96 1.87984 3.52848 0
M  V30 4077 H 379.4 1.02232 4.11491 0
M  V30 4078 C 377.859 -0.257433 3.35915 0
M  V30 4079 O 378.389 -1.25784 3.81499 0
M  V30 4080 N 376.595 -0.291524 2.89134 0
M  V30 4081 H 376.142 0.523161 2.52232 0
M  V30 4082 H 376.1 -1.15883 2.92264 0
M  V30 4083 N 379.872 -1.04064 1.18357 0
M  V30 4084 C 380.822 -2.10393 0.878561 0
M  V30 4085 C 381.806 -1.60183 -0.151713 0
M  V30 4086 O 382.998 -1.76923 0.0523303 0
M  V30 4087 C 380.127 -3.4089 0.406096 0
M  V30 4088 C 379.213 -3.97866 1.46844 0
M  V30 4089 N 379.604 -4.28657 2.68489 0
M  V30 4090 C 377.902 -4.2574 1.32896 0
M  V30 4091 C 378.603 -4.74253 3.36836 0
M  V30 4092 N 377.579 -4.75068 2.64219 0
M  V30 4093 H 381.381 -2.32076 1.80327 0
M  V30 4094 H 378.895 -1.21818 1.07397 0
M  V30 4095 H 380.892 -4.16557 0.169088 0
M  V30 4096 H 379.552 -3.20633 -0.512275 0
M  V30 4097 H 380.563 -4.18304 3.05356 0
M  V30 4098 H 377.24 -4.1481 0.473134 0
M  V30 4099 H 378.63 -5.07096 4.40798 0
M  V30 4100 N 381.35 -0.985608 -1.22978 0
M  V30 4101 C 382.297 -0.529825 -2.24636 0
M  V30 4102 C 383.267 0.434028 -1.60329 0
M  V30 4103 O 384.452 0.340414 -1.87739 0
M  V30 4104 C 381.592 0.156533 -3.44745 0
M  V30 4105 C 380.705 -0.848197 -4.23591 0
M  V30 4106 C 379.84 -0.136109 -5.31026 0
M  V30 4107 C 378.879 -1.1297 -6.01585 0
M  V30 4108 N 378.016 -0.446415 -7.00679 0
M  V30 4109 H 382.856 -1.40148 -2.62988 0
M  V30 4110 H 380.393 -0.702168 -1.29259 0
M  V30 4111 H 382.351 0.571324 -4.1327 0
M  V30 4112 H 380.981 0.992025 -3.07179 0
M  V30 4113 H 380.033 -1.38135 -3.54433 0
M  V30 4114 H 381.345 -1.60512 -4.72268 0
M  V30 4115 H 380.499 0.335784 -6.0577 0
M  V30 4116 H 379.238 0.653373 -4.83304 0
M  V30 4117 H 378.243 -1.6123 -5.25628 0
M  V30 4118 H 379.468 -1.91993 -6.51395 0
M  V30 4119 H 377.414 0.323763 -6.55201 0
M  V30 4120 H 377.331 -1.1419 -7.47326 0
M  V30 4121 H 378.599 0.00291697 -7.795 0
M  V30 4122 N 382.828 1.3818 -0.7579 0
M  V30 4123 C 383.76 2.2901 -0.0932177 0
M  V30 4124 C 384.773 1.47958 0.679136 0
M  V30 4125 O 385.962 1.70773 0.519514 0
M  V30 4126 C 383.062 3.26953 0.89192 0
M  V30 4127 C 382.235 4.37045 0.176303 0
M  V30 4128 C 381.294 5.15148 1.07281 0
M  V30 4129 O 380.32 5.66616 0.541728 0
M  V30 4130 N 381.522 5.28542 2.40049 0
M  V30 4131 H 384.287 2.86694 -0.873303 0
M  V30 4132 H 381.848 1.50007 -0.609054 0
M  V30 4133 H 383.84 3.76083 1.49479 0
M  V30 4134 H 382.41 2.70136 1.57306 0
M  V30 4135 H 381.63 3.89493 -0.607328 0
M  V30 4136 H 382.918 5.07801 -0.318718 0
M  V30 4137 H 382.316 4.88285 2.85647 0
M  V30 4138 H 380.873 5.8103 2.95376 0
M  V30 4139 N 384.306 0.507319 1.49211 0
M  V30 4140 C 385.534 -0.0315749 2.06876 0
M  V30 4141 C 385.949 -1.30241 1.36685 0
M  V30 4142 O 385.306 -1.76937 0.447152 0
M  V30 4143 C 385.357 -0.282627 3.60393 0
M  V30 4144 O 385.078 0.937835 4.27944 0
M  V30 4145 C 386.579 -0.864453 4.3479 0
M  V30 4146 H 383.799 0.0233048 0.670595 0
M  V30 4147 H 386.343 0.706484 1.91909 0
M  V30 4148 H 384.498 -0.97068 3.75042 0
M  V30 4149 H 384.912 0.704567 5.19746 0
M  V30 4150 H 386.386 -0.989664 5.43056 0
M  V30 4151 H 386.863 -1.86382 3.97692 0
M  V30 4152 H 387.469 -0.213672 4.24763 0
M  V30 4153 N 385.784 -1.5574 0.241426 0
M  V30 4154 C 387.03 -1.99104 -0.385406 0
M  V30 4155 C 387.363 -1.1293 -1.57988 0
M  V30 4156 O 386.638 -0.191449 -1.93555 0
M  V30 4157 C 386.921 -3.51087 -0.800616 0
M  V30 4158 C 386.774 -4.48028 0.398874 0
M  V30 4159 C 388.093 -4.08015 -1.64959 0
M  V30 4160 H 385.212 -0.723848 -0.138614 0
M  V30 4161 H 387.854 -1.86903 0.341642 0
M  V30 4162 H 386.004 -3.61615 -1.4201 0
M  V30 4163 H 387.676 -4.49487 1.03726 0
M  V30 4164 H 385.919 -4.21077 1.04293 0
M  V30 4165 H 386.59 -5.51962 0.0651056 0
M  V30 4166 H 389.066 -4.00555 -1.12672 0
M  V30 4167 H 387.942 -5.14635 -1.90898 0
M  V30 4168 H 388.203 -3.56131 -2.61961 0
M  V30 4169 N 387.262 0.0317525 -1.57568 0
M  V30 4170 C 388.209 1.0332 -2.06382 0
M  V30 4171 C 389.179 1.36082 -0.952414 0
M  V30 4172 O 390.364 1.46466 -1.2228 0
M  V30 4173 C 387.504 2.32989 -2.54578 0
M  V30 4174 C 386.617 2.0641 -3.79498 0
M  V30 4175 C 385.752 3.2993 -4.16317 0
M  V30 4176 C 384.791 2.98893 -5.34162 0
M  V30 4177 N 383.928 4.14857 -5.66426 0
M  V30 4178 H 388.768 0.609982 -2.9169 0
M  V30 4179 H 386.305 0.289573 -1.44222 0
M  V30 4180 H 388.263 3.0875 -2.80587 0
M  V30 4181 H 386.893 2.73039 -1.7219 0
M  V30 4182 H 385.945 1.21158 -3.6059 0
M  V30 4183 H 387.257 1.79513 -4.65378 0
M  V30 4184 H 386.411 4.1406 -4.4344 0
M  V30 4185 H 385.15 3.59938 -3.29083 0
M  V30 4186 H 384.155 2.13164 -5.06795 0
M  V30 4187 H 385.38 2.70165 -6.23047 0
M  V30 4188 H 383.326 4.44821 -4.82151 0
M  V30 4189 H 383.243 3.91374 -6.4681 0
M  V30 4190 H 384.511 4.99868 -5.98124 0
M  V30 4191 N 388.74 1.54641 0.303973 0
M  V30 4192 C 389.673 1.80263 1.3993 0
M  V30 4193 C 390.651 0.653657 1.48883 0
M  V30 4194 O 391.835 0.893284 1.6599 0
M  V30 4195 C 388.962 1.9367 2.77866 0
M  V30 4196 C 388.008 3.16078 2.86351 0
M  V30 4197 S 388.841 4.74219 2.4875 0
M  V30 4198 C 389.997 4.90558 3.88721 0
M  V30 4199 H 390.23 2.72886 1.17986 0
M  V30 4200 H 387.763 1.46014 0.501918 0
M  V30 4201 H 389.721 2.0208 3.57315 0
M  V30 4202 H 388.382 1.01991 2.9708 0
M  V30 4203 H 387.575 3.22252 3.87517 0
M  V30 4204 H 387.177 3.06099 2.14893 0
M  V30 4205 H 389.469 4.74398 4.83687 0
M  V30 4206 H 390.412 5.92651 3.87518 0
M  V30 4207 H 390.82 4.18728 3.78585 0
M  V30 4208 N 390.218 -0.567019 1.47046 0
M  V30 4209 C 391.148 -1.68482 1.61667 0
M  V30 4210 C 392.129 -1.6358 0.466418 0
M  V30 4211 O 393.314 -1.81354 0.694574 0
M  V30 4212 C 390.444 -3.07124 1.62148 0
M  V30 4213 C 389.398 -3.26867 2.76301 0
M  V30 4214 C 388.724 -4.66196 2.61849 0
M  V30 4215 C 390.024 -3.13186 4.17986 0
M  V30 4216 H 391.718 -1.56502 2.5524 0
M  V30 4217 H 389.264 -0.751486 1.22836 0
M  V30 4218 H 391.217 -3.8516 1.70968 0
M  V30 4219 H 389.941 -3.2004 0.651287 0
M  V30 4220 H 388.6 -2.51237 2.66975 0
M  V30 4221 H 388.248 -4.75898 1.62879 0
M  V30 4222 H 387.948 -4.80356 3.38425 0
M  V30 4223 H 389.472 -5.46379 2.72584 0
M  V30 4224 H 390.886 -3.81049 4.2834 0
M  V30 4225 H 389.283 -3.3886 4.95272 0
M  V30 4226 H 390.353 -2.10057 4.3704 0
M  V30 4227 N 391.696 -1.35014 -0.812953 0
M  V30 4228 C 392.659 -1.27292 -1.90602 0
M  V30 4229 C 393.659 -0.185817 -1.59723 0
M  V30 4230 O 394.849 -0.439102 -1.68575 0
M  V30 4231 C 391.981 -0.967676 -3.26877 0
M  V30 4232 H 393.174 -2.24479 -1.9887 0
M  V30 4233 H 390.727 -1.19446 -1.00808 0
M  V30 4234 H 391.462 0.0005954 -3.243 0
M  V30 4235 H 391.247 -1.75412 -3.50675 0
M  V30 4236 H 392.737 -0.939085 -4.06904 0
M  V30 4237 N 393.175 1.03435 -1.18907 0
M  V30 4238 C 394.421 1.77005 -0.989798 0
M  V30 4239 C 394.754 1.88205 0.478816 0
M  V30 4240 O 394.029 1.39481 1.35556 0
M  V30 4241 C 394.312 3.19925 -1.65287 0
M  V30 4242 C 394.165 3.1663 -3.19477 0
M  V30 4243 C 395.484 4.18189 -1.37134 0
M  V30 4244 H 392.603 0.642538 -0.360991 0
M  V30 4245 H 395.245 1.20784 -1.46667 0
M  V30 4246 H 393.395 3.67929 -1.24741 0
M  V30 4247 H 395.067 2.76567 -3.692 0
M  V30 4248 H 393.31 2.54491 -3.51307 0
M  V30 4249 H 393.981 4.1758 -3.61013 0
M  V30 4250 H 396.457 3.78761 -1.72276 0
M  V30 4251 H 395.333 5.16394 -1.86087 0
M  V30 4252 H 395.594 4.41112 -0.295424 0
M  V30 4253 N 394.653 0.992116 1.22453 0
M  V30 4254 C 395.899 0.668523 1.91464 0
M  V30 4255 C 396.232 -0.797313 1.77078 0
M  V30 4256 O 395.507 -1.5765 1.13916 0
M  V30 4257 C 395.79 1.07424 3.43703 0
M  V30 4258 C 395.643 2.59857 3.67143 0
M  V30 4259 C 396.962 0.626891 4.35612 0
M  V30 4260 H 394.081 0.244341 0.695318 0
M  V30 4261 H 396.723 1.2355 1.44345 0
M  V30 4262 H 394.873 0.591816 3.83966 0
M  V30 4263 H 396.545 3.15764 3.3629 0
M  V30 4264 H 394.788 3.01961 3.11451 0
M  V30 4265 H 395.459 2.83296 4.73759 0
M  V30 4266 H 397.935 1.04125 4.02861 0
M  V30 4267 H 396.811 0.939076 5.40807 0
M  V30 4268 H 397.072 -0.472457 4.39568 0
M  V30 4269 N 396.131 -1.37776 0.765217 0
M  V30 4270 C 397.377 -2.00145 0.327072 0
M  V30 4271 C 397.71 -1.60607 -1.09175 0
M  V30 4272 O 396.985 -0.849127 -1.74986 0
M  V30 4273 C 397.268 -3.57109 0.46319 0
M  V30 4274 C 397.121 -4.06576 1.92395 0
M  V30 4275 C 398.44 -4.39888 -0.136473 0
M  V30 4276 H 395.559 -0.727113 0.120316 0
M  V30 4277 H 398.201 -1.63549 0.967039 0
M  V30 4278 H 396.351 -3.88414 -0.0816358 0
M  V30 4279 H 398.023 -3.85864 2.52798 0
M  V30 4280 H 396.266 -3.59011 2.43503 0
M  V30 4281 H 396.937 -5.15639 1.97028 0
M  V30 4282 H 399.413 -4.14803 0.328317 0
M  V30 4283 H 398.289 -5.48899 -0.0110582 0
M  V30 4284 H 398.55 -4.24758 -1.22608 0
M  V30 4285 N 397.609 -0.515225 -1.4894 0
M  V30 4286 C 398.856 0.024215 -2.02486 0
M  V30 4287 C 399.184 1.35671 -1.39368 0
M  V30 4288 O 398.439 1.88566 -0.523574 0
M  V30 4289 C 398.738 0.210595 -3.56779 0
M  V30 4290 C 398.404 -1.04569 -4.38607 0
M  V30 4291 C 397.066 -1.39002 -4.60686 0
M  V30 4292 C 399.418 -1.88008 -4.86109 0
M  V30 4293 C 396.746 -2.568 -5.27514 0
M  V30 4294 C 399.098 -3.04972 -5.54234 0
M  V30 4295 C 397.762 -3.39768 -5.74555 0
M  V30 4296 H 397.032 0.00886088 -0.740947 0
M  V30 4297 H 399.679 -0.678263 -1.79086 0
M  V30 4298 H 397.984 0.99572 -3.78936 0
M  V30 4299 H 399.681 0.642659 -3.95817 0
M  V30 4300 H 396.271 -0.767497 -4.21672 0
M  V30 4301 H 400.455 -1.62719 -4.68867 0
M  V30 4302 H 395.711 -2.8398 -5.41447 0
M  V30 4303 H 399.885 -3.69943 -5.90013 0
M  V30 4304 H 397.512 -4.31148 -6.26112 0
M  V30 4305 N 399.087 1.5561 -0.249682 0
M  V30 4306 C 400.05 2.20217 0.635394 0
M  V30 4307 C 401.05 1.17227 1.10066 0
M  V30 4308 O 402.24 1.42292 1.00492 0
M  V30 4309 C 399.372 2.84794 1.87363 0
M  V30 4310 H 400.565 2.99814 0.0716752 0
M  V30 4311 H 398.118 1.563 -0.000153234 0
M  V30 4312 H 398.853 2.09142 2.47851 0
M  V30 4313 H 398.638 3.60241 1.5482 0
M  V30 4314 H 400.128 3.3423 2.5036 0
M  V30 4315 N 400.565 -0.0233959 1.57583 0
M  V30 4316 C 401.812 -0.713063 1.8953 0
M  V30 4317 C 402.14 -1.75056 0.847673 0
M  V30 4318 O 401.395 -1.95119 -0.150636 0
M  V30 4319 C 401.694 -1.41428 3.28227 0
M  V30 4320 C 401.36 -0.512222 4.47981 0
M  V30 4321 C 400.022 -0.263785 4.80476 0
M  V30 4322 C 402.374 0.110248 5.21083 0
M  V30 4323 C 399.702 0.615804 5.83459 0
M  V30 4324 C 402.054 0.977573 6.25001 0
M  V30 4325 C 400.718 1.23542 6.55968 0
M  V30 4326 H 399.988 -0.260928 0.69354 0
M  V30 4327 H 402.635 0.0271047 1.91481 0
M  V30 4328 H 400.94 -2.22791 3.22291 0
M  V30 4329 H 402.637 -1.95355 3.50196 0
M  V30 4330 H 399.227 -0.716013 4.22577 0
M  V30 4331 H 403.411 -0.0687137 4.96252 0
M  V30 4332 H 398.667 0.82382 6.05824 0
M  V30 4333 H 402.841 1.46638 6.80786 0
M  V30 4334 H 400.468 1.91871 7.35588 0
M  V30 4335 N 402.043 -1.548 -0.295768 0
M  V30 4336 C 403.292 -1.73538 -1.02798 0
M  V30 4337 C 403.605 -0.531159 -1.8825 0
M  V30 4338 O 404.811 -0.600458 -2.64777 0
M  V30 4339 C 403.267 -3.07051 -1.87744 0
M  V30 4340 C 402.875 -4.34968 -1.07269 0
M  V30 4341 C 404.619 -3.35146 -2.60533 0
M  V30 4342 C 402.526 -5.5953 -1.91521 0
M  V30 4343 H 401.456 -0.646794 -0.387522 0
M  V30 4344 H 404.107 -1.81278 -0.284718 0
M  V30 4345 H 402.489 -2.93289 -2.66078 0
M  V30 4346 H 403.663 -4.5958 -0.335117 0
M  V30 4347 H 401.978 -4.13847 -0.460384 0
M  V30 4348 H 404.575 -4.2541 -3.23929 0
M  V30 4349 H 404.918 -2.54255 -3.29636 0
M  V30 4350 H 405.451 -3.49902 -1.89244 0
M  V30 4351 H 402.19 -6.43103 -1.26878 0
M  V30 4352 H 401.71 -5.39096 -2.62937 0
M  V30 4353 H 403.389 -5.96982 -2.49442 0
M  V30 4354 N 403.521 0.559213 -1.47345 0
M  V30 4355 C 404.451 1.67622 -1.62558 0
M  V30 4356 C 405.432 1.63331 -0.475087 0
M  V30 4357 O 406.617 1.80983 -0.704182 0
M  V30 4358 C 403.747 3.0626 -1.63774 0
M  V30 4359 C 402.701 3.25397 -2.7803 0
M  V30 4360 C 402.027 4.64801 -2.64318 0
M  V30 4361 C 403.327 3.10965 -4.19641 0
M  V30 4362 H 405.021 1.55146 -2.56067 0
M  V30 4363 H 402.567 0.744961 -1.23233 0
M  V30 4364 H 404.52 3.84247 -1.73008 0
M  V30 4365 H 403.244 3.1969 -0.66825 0
M  V30 4366 H 401.903 2.49817 -2.68304 0
M  V30 4367 H 401.551 4.75028 -1.65401 0
M  V30 4368 H 401.251 4.78555 -3.40968 0
M  V30 4369 H 402.775 5.44926 -2.75478 0
M  V30 4370 H 404.189 3.78772 -4.30354 0
M  V30 4371 H 402.586 3.36229 -4.97062 0
M  V30 4372 H 403.656 2.07736 -4.38148 0
M  V30 4373 N 404.999 1.35443 0.805782 0
M  V30 4374 C 406.239 1.30127 1.57627 0
M  V30 4375 C 406.603 -0.122567 1.91608 0
M  V30 4376 O 407.804 -0.300107 2.67119 0
M  V30 4377 C 406.075 2.18314 2.82973 0
M  V30 4378 S 407.634 2.30521 3.7337 0
M  V30 4379 H 404.452 0.462439 0.540066 0
M  V30 4380 H 407.054 1.70843 0.95042 0
M  V30 4381 H 405.758 3.20741 2.56034 0
M  V30 4382 H 405.289 1.78558 3.50543 0
M  V30 4383 H 407.304 1.49062 4.73281 0
M  V30 4384 N 406.477 -1.02803 1.19454 0
M  V30 4385 C 407.723 -1.76598 1.0092 0
M  V30 4386 C 408.078 -1.86939 -0.455142 0
M  V30 4387 O 407.371 -1.37575 -1.33355 0
M  V30 4388 C 407.565 -3.18941 1.6128 0
M  V30 4389 C 407.394 -3.22476 3.13431 0
M  V30 4390 C 406.164 -3.30375 3.82336 0
M  V30 4391 C 408.362 -3.09451 4.10785 0
M  V30 4392 N 406.344 -3.23292 5.21877 0
M  V30 4393 C 407.715 -3.10012 5.36929 0
M  V30 4394 C 409.77 -2.93585 4.02135 0
M  V30 4395 C 408.473 -2.96334 6.55423 0
M  V30 4396 C 410.499 -2.81256 5.20239 0
M  V30 4397 C 409.861 -2.82472 6.45282 0
M  V30 4398 H 405.96 -0.657447 0.423424 0
M  V30 4399 H 408.544 -1.22369 1.5144 0
M  V30 4400 H 406.715 -3.71489 1.1336 0
M  V30 4401 H 408.447 -3.81102 1.36173 0
M  V30 4402 H 405.202 -3.3663 3.33132 0
M  V30 4403 H 405.626 -3.23156 5.94894 0
M  V30 4404 H 410.268 -2.91466 3.0628 0
M  V30 4405 H 407.986 -2.97203 7.51463 0
M  V30 4406 H 411.572 -2.70014 5.15348 0
M  V30 4407 H 410.452 -2.73036 7.35133 0
M  V30 4408 N 407.956 -0.998596 -1.21925 0
M  V30 4409 C 408.886 -0.573688 -2.26343 0
M  V30 4410 C 409.867 0.402296 -1.65274 0
M  V30 4411 O 411.052 0.291683 -1.91997 0
M  V30 4412 C 408.182 0.106839 -3.47136 0
M  V30 4413 C 407.136 -0.788269 -4.20678 0
M  V30 4414 C 406.462 0.0254927 -5.34694 0
M  V30 4415 C 407.762 -2.08784 -4.78755 0
M  V30 4416 H 409.456 -1.44651 -2.62138 0
M  V30 4417 H 407.002 -0.696975 -1.26009 0
M  V30 4418 H 408.955 0.415531 -4.19346 0
M  V30 4419 H 407.679 1.01424 -3.10452 0
M  V30 4420 H 406.338 -1.08069 -3.50309 0
M  V30 4421 H 405.986 0.933989 -4.94253 0
M  V30 4422 H 405.686 -0.570437 -5.84825 0
M  V30 4423 H 407.21 0.328147 -6.09718 0
M  V30 4424 H 408.624 -1.84272 -5.42878 0
M  V30 4425 H 407.021 -2.63307 -5.39249 0
M  V30 4426 H 408.091 -2.76284 -3.98491 0
M  V30 4427 N 409.434 1.37368 -0.772513 0
M  V30 4428 C 410.845 1.8231 -0.402493 0
M  V30 4429 C 411.196 1.6436 1.07146 0
M  V30 4430 O 410.321 1.15514 1.82991 0
M  V30 4431 C 410.916 3.30979 -0.723776 0
M  V30 4432 C 409.475 3.74195 -0.406802 0
M  V30 4433 C 408.622 2.59885 -0.967218 0
M  V30 4434 H 411.573 1.25829 -0.967099 0
M  V30 4435 H 411.594 3.80499 -0.00870832 0
M  V30 4436 H 411.106 3.44011 -1.7966 0
M  V30 4437 H 409.207 3.66732 0.658673 0
M  V30 4438 H 409.32 4.7027 -0.915588 0
M  V30 4439 H 407.684 2.51674 -0.391416 0
M  V30 4440 H 408.467 2.7571 -2.04546 0
M  V30 4441 N 410.912 0.523116 1.48665 0
M  V30 4442 C 412.159 -0.0134763 2.02496 0
M  V30 4443 C 412.487 -1.3493 1.40086 0
M  V30 4444 O 411.742 -1.88286 0.533567 0
M  V30 4445 C 412.041 -0.191671 3.56886 0
M  V30 4446 C 411.707 1.06893 4.38046 0
M  V30 4447 C 410.369 1.41443 4.59943 0
M  V30 4448 C 412.721 1.90584 4.85106 0
M  V30 4449 C 410.049 2.59594 5.26144 0
M  V30 4450 C 412.401 3.07907 5.52609 0
M  V30 4451 C 411.065 3.42811 5.72745 0
M  V30 4452 H 410.335 -0.00493133 0.740984 0
M  V30 4453 H 412.982 0.687751 1.78724 0
M  V30 4454 H 411.287 -0.97561 3.79459 0
M  V30 4455 H 412.984 -0.621659 3.96152 0
M  V30 4456 H 409.574 0.789848 4.21259 0
M  V30 4457 H 413.758 1.65203 4.67997 0
M  V30 4458 H 409.014 2.86847 5.39934 0
M  V30 4459 H 413.188 3.73066 5.88043 0
M  V30 4460 H 410.815 4.34462 6.23816 0
M  V30 4461 N 412.39 -1.55475 0.257931 0
M  V30 4462 C 413.34 -2.18506 -0.651094 0
M  V30 4463 C 414.324 -1.14431 -1.13112 0
M  V30 4464 O 415.516 -1.40305 -1.07905 0
M  V30 4465 C 412.645 -2.89653 -1.84272 0
M  V30 4466 C 411.731 -4.00996 -1.38068 0
M  V30 4467 N 412.122 -5.01816 -0.633609 0
M  V30 4468 C 410.42 -4.13753 -1.66506 0
M  V30 4469 C 411.121 -5.80371 -0.392922 0
M  V30 4470 N 410.097 -5.3505 -0.960359 0
M  V30 4471 H 413.899 -2.93811 -0.0722883 0
M  V30 4472 H 411.413 -1.62286 0.0607256 0
M  V30 4473 H 413.41 -3.33245 -2.50506 0
M  V30 4474 H 412.07 -2.15854 -2.42564 0
M  V30 4475 H 413.081 -5.17128 -0.282626 0
M  V30 4476 H 409.758 -3.51133 -2.25858 0
M  V30 4477 H 411.148 -6.7159 0.204235 0
M  V30 4478 N 413.868 0.0150385 -1.57593 0
M  V30 4479 C 415.114 0.704043 -1.90187 0
M  V30 4480 C 415.447 1.74249 -0.857366 0
M  V30 4481 O 414.722 1.94092 0.125843 0
M  V30 4482 C 415.005 1.36087 -3.33395 0
M  V30 4483 C 414.858 0.334981 -4.48551 0
M  V30 4484 C 416.177 2.29112 -3.7576 0
M  V30 4485 H 413.296 0.254475 -0.691673 0
M  V30 4486 H 415.938 -0.0331678 -1.89971 0
M  V30 4487 H 414.088 1.98922 -3.3371 0
M  V30 4488 H 415.76 -0.292534 -4.60372 0
M  V30 4489 H 414.003 -0.344325 -4.32431 0
M  V30 4490 H 414.674 0.833316 -5.45674 0
M  V30 4491 H 417.15 1.76308 -3.76902 0
M  V30 4492 H 416.026 2.72043 -4.76743 0
M  V30 4493 H 416.287 3.16385 -3.08793 0
M  V30 4494 N 415.346 1.54954 0.287554 0
M  V30 4495 C 416.594 1.74528 1.01904 0
M  V30 4496 C 416.915 0.541349 1.87335 0
M  V30 4497 O 416.185 -0.444108 1.908 0
M  V30 4498 H 414.765 0.643576 0.379235 0
M  V30 4499 H 417.427 1.92333 0.315294 0
M  V30 4500 H 416.523 2.64015 1.6644 0
M  V30 4501 N 416.824 -0.551391 1.4764 0
M  V30 4502 C 418.24 -0.877887 1.33287 0
M  V30 4503 C 418.44 -1.98817 0.327721 0
M  V30 4504 O 417.496 -2.51171 -0.258695 0
M  V30 4505 C 418.809 -1.26563 2.72768 0
M  V30 4506 C 420.357 -1.37673 2.81097 0
M  V30 4507 C 420.832 -1.79799 4.21232 0
M  V30 4508 N 422.323 -1.8694 4.23802 0
M  V30 4509 C 423.058 -2.20876 5.29151 0
M  V30 4510 N 422.554 -2.53386 6.448 0
M  V30 4511 N 424.347 -2.217 5.16532 0
M  V30 4512 H 416.498 0.18153 2.11623 0
M  V30 4513 H 418.761 0.0185514 0.947818 0
M  V30 4514 H 418.467 -0.523591 3.47781 0
M  V30 4515 H 418.341 -2.22052 3.04915 0
M  V30 4516 H 420.728 -2.10956 2.06353 0
M  V30 4517 H 420.809 -0.40357 2.52596 0
M  V30 4518 H 420.453 -1.07083 4.96483 0
M  V30 4519 H 420.383 -2.78128 4.4716 0
M  V30 4520 H 422.874 -1.64179 3.40373 0
M  V30 4521 H 423.187 -2.78325 7.20941 0
M  V30 4522 H 421.532 -2.50953 6.48111 0
M  V30 4523 H 424.723 -1.95745 4.25207 0
M  V30 4524 H 424.896 -2.47818 5.98741 0
M  V30 4525 N 418.302 -1.35869 -0.798587 0
M  V30 4526 C 419.532 -1.32529 -1.58491 0
M  V30 4527 C 419.94 0.0975405 -1.88948 0
M  V30 4528 O 419.283 1.06224 -1.49874 0
M  V30 4529 C 419.345 -2.07247 -2.9375 0
M  V30 4530 C 419.009 -3.56391 -2.86068 0
M  V30 4531 C 420.006 -4.50824 -2.58947 0
M  V30 4532 C 417.691 -3.9915 -3.04933 0
M  V30 4533 C 419.685 -5.85993 -2.5078 0
M  V30 4534 C 417.372 -5.34413 -2.96389 0
M  V30 4535 C 418.37 -6.27646 -2.69349 0
M  V30 4536 O 418.058 -7.60426 -2.60782 0
M  V30 4537 H 417.79 -0.456529 -0.498556 0
M  V30 4538 H 420.344 -1.79425 -0.999799 0
M  V30 4539 H 418.574 -1.55001 -3.54276 0
M  V30 4540 H 420.263 -1.96883 -3.54954 0
M  V30 4541 H 421.029 -4.19104 -2.44084 0
M  V30 4542 H 416.908 -3.26961 -3.24989 0
M  V30 4543 H 420.452 -6.58735 -2.29595 0
M  V30 4544 H 416.349 -5.65743 -3.10813 0
M  V30 4545 H 417.117 -7.70444 -2.76331 0
M  V30 4546 N 419.78 1.02168 -1.19998 0
M  V30 4547 C 420.71 2.12488 -0.96804 0
M  V30 4548 C 421.691 1.69799 0.101185 0
M  V30 4549 O 422.876 1.94121 -0.0552993 0
M  V30 4550 C 420.006 3.43479 -0.513776 0
M  V30 4551 C 418.96 3.99884 -1.52566 0
M  V30 4552 C 418.286 5.26582 -0.928214 0
M  V30 4553 C 419.586 4.33861 -2.90795 0
M  V30 4554 H 421.28 2.32149 -1.89069 0
M  V30 4555 H 418.826 1.11564 -0.910468 0
M  V30 4556 H 420.779 4.20036 -0.338774 0
M  V30 4557 H 419.503 3.23561 0.444493 0
M  V30 4558 H 418.162 3.25429 -1.68794 0
M  V30 4559 H 417.81 5.02986 0.0378289 0
M  V30 4560 H 417.51 5.65284 -1.60397 0
M  V30 4561 H 419.034 6.05799 -0.764167 0
M  V30 4562 H 420.448 5.01327 -2.78109 0
M  V30 4563 H 418.845 4.83664 -3.55231 0
M  V30 4564 H 419.915 3.42848 -3.42904 0
M  V30 4565 N 421.258 1.00505 1.21394 0
M  V30 4566 C 422.505 0.687774 1.90462 0
M  V30 4567 C 422.833 -0.78147 1.7811 0
M  V30 4568 O 422.088 -1.58208 1.1519 0
M  V30 4569 C 422.387 1.0546 3.41486 0
M  V30 4570 C 422.053 2.51812 3.74034 0
M  V30 4571 C 420.715 2.91804 3.82628 0
M  V30 4572 C 423.067 3.46614 3.8924 0
M  V30 4573 C 420.395 4.2556 4.03876 0
M  V30 4574 C 422.747 4.80044 4.11995 0
M  V30 4575 C 421.411 5.19759 4.18816 0
M  V30 4576 H 420.681 0.251674 0.696951 0
M  V30 4577 H 423.328 1.26349 1.43903 0
M  V30 4578 H 421.633 0.397133 3.89782 0
M  V30 4579 H 423.33 0.786976 3.93202 0
M  V30 4580 H 419.92 2.1982 3.67936 0
M  V30 4581 H 424.104 3.16883 3.81967 0
M  V30 4582 H 419.36 4.55901 4.07387 0
M  V30 4583 H 423.534 5.53439 4.22704 0
M  V30 4584 H 421.161 6.23418 4.35033 0
M  V30 4585 N 422.737 -1.36956 0.779787 0
M  V30 4586 C 423.962 -2.04283 0.358224 0
M  V30 4587 C 424.387 -1.58422 -1.01411 0
M  V30 4588 O 423.745 -0.748179 -1.65142 0
M  V30 4589 C 423.793 -3.58152 0.419479 0
M  V30 4590 O 422.897 -4.08342 -0.577142 0
M  V30 4591 H 422.238 -0.645967 0.153698 0
M  V30 4592 H 424.768 -1.75108 1.05822 0
M  V30 4593 H 424.778 -4.07041 0.279636 0
M  V30 4594 H 423.453 -3.90886 1.42061 0
M  V30 4595 H 422.03 -3.70751 -0.399755 0
M  V30 4596 N 424.215 -0.530993 -1.48385 0
M  V30 4597 C 425.162 0.231223 -2.29639 0
M  V30 4598 C 426.132 0.932864 -1.37429 0
M  V30 4599 O 427.317 0.933692 -1.66394 0
M  V30 4600 C 424.457 1.27155 -3.2082 0
M  V30 4601 C 423.57 0.578655 -4.28107 0
M  V30 4602 C 422.705 1.602 -5.06467 0
M  V30 4603 C 421.744 0.892625 -6.05556 0
M  V30 4604 N 420.881 1.86157 -6.76971 0
M  V30 4605 H 425.721 -0.467848 -2.94305 0
M  V30 4606 H 423.258 -0.242556 -1.45086 0
M  V30 4607 H 425.216 1.88703 -3.72085 0
M  V30 4608 H 423.846 1.939 -2.58075 0
M  V30 4609 H 422.898 -0.150782 -3.80101 0
M  V30 4610 H 424.21 0.0217065 -4.98795 0
M  V30 4611 H 423.364 2.29173 -5.61751 0
M  V30 4612 H 422.103 2.19285 -4.35621 0
M  V30 4613 H 421.108 0.188829 -5.49476 0
M  V30 4614 H 422.333 0.307878 -6.78402 0
M  V30 4615 H 420.279 2.44147 -6.08875 0
M  V30 4616 H 420.196 1.35608 -7.43738 0
M  V30 4617 H 421.464 2.54325 -7.36844 0
M  V30 4618 N 425.693 1.55336 -0.266172 0
M  V30 4619 C 426.918 2.04258 0.359661 0
M  V30 4620 C 427.343 1.14359 1.49344 0
M  V30 4621 O 426.701 0.140369 1.80756 0
M  V30 4622 C 426.749 3.50997 0.826635 0
M  V30 4623 O 425.853 3.64204 1.93466 0
M  V30 4624 H 425.194 0.659668 0.075727 0
M  V30 4625 H 427.724 2.00694 -0.39786 0
M  V30 4626 H 427.734 3.9219 1.12477 0
M  V30 4627 H 426.409 4.159 -0.00293032 0
M  V30 4628 H 424.986 3.34913 1.63974 0
M  V30 4629 N 427.171 -0.0066808 1.57599 0
M  V30 4630 C 428.418 -0.69292 1.90276 0
M  V30 4631 C 428.746 -1.74148 0.866192 0
M  V30 4632 O 428.001 -1.95268 -0.129933 0
M  V30 4633 C 428.3 -1.37939 3.29708 0
M  V30 4634 C 427.966 -0.464679 4.48499 0
M  V30 4635 C 426.628 -0.212809 4.80729 0
M  V30 4636 C 428.98 0.16551 5.20937 0
M  V30 4637 C 426.308 0.677653 5.82773 0
M  V30 4638 C 428.66 1.04381 6.23929 0
M  V30 4639 C 427.324 1.30492 6.54621 0
M  V30 4640 H 426.594 -0.253558 0.696268 0
M  V30 4641 H 429.241 0.0474123 1.91441 0
M  V30 4642 H 427.546 -2.1936 3.24636 0
M  V30 4643 H 429.243 -1.9163 3.52249 0
M  V30 4644 H 425.833 -0.671153 4.23313 0
M  V30 4645 H 430.017 -0.0160756 4.96297 0
M  V30 4646 H 425.273 0.88803 6.04917 0
M  V30 4647 H 429.447 1.53851 6.79193 0
M  V30 4648 H 427.074 1.99662 7.33512 0
M  V30 4649 N 428.649 -1.55105 -0.279332 0
M  V30 4650 C 429.559 -1.90638 -1.36727 0
M  V30 4651 C 430.575 -0.802899 -1.54368 0
M  V30 4652 O 431.751 -1.10138 -1.68616 0
M  V30 4653 C 428.816 -2.16547 -2.70755 0
M  V30 4654 C 427.877 -3.40146 -2.61915 0
M  V30 4655 C 427.11 -3.6481 -3.8955 0
M  V30 4656 O 427.333 -2.92095 -4.89935 0
M  V30 4657 O 426.267 -4.58343 -3.90135 0
M  V30 4658 H 430.093 -2.83237 -1.09591 0
M  V30 4659 H 427.678 -1.4157 -0.477306 0
M  V30 4660 H 429.56 -2.34665 -3.50014 0
M  V30 4661 H 428.235 -1.27131 -2.9769 0
M  V30 4662 H 427.142 -3.2737 -1.81052 0
M  V30 4663 H 428.475 -4.29761 -2.3993 0
M  V30 4664 N 430.127 0.543554 -1.4793 0
M  V30 4665 C 431.538 1.12561 -1.48953 0
M  V30 4666 C 431.889 1.94578 -0.251754 0
M  V30 4667 O 431.014 2.0665 0.642255 0
M  V30 4668 C 431.609 2.04801 -2.69892 0
M  V30 4669 C 430.168 2.58251 -2.73831 0
M  V30 4670 C 429.315 1.34918 -2.42265 0
M  V30 4671 H 432.266 0.32947 -1.55242 0
M  V30 4672 H 432.287 2.88886 -2.47639 0
M  V30 4673 H 431.799 1.4508 -3.59963 0
M  V30 4674 H 429.9 3.21732 -1.87934 0
M  V30 4675 H 430.013 2.98312 -3.74895 0
M  V30 4676 H 428.377 1.66046 -1.93134 0
M  V30 4677 H 429.16 0.769693 -3.3456 0
M  V30 4678 N 431.605 1.3629 0.791371 0
M  V30 4679 C 432.853 1.30154 1.5461 0
M  V30 4680 C 433.174 -0.119409 1.94634 0
M  V30 4681 O 432.444 -1.05924 1.64794 0
M  V30 4682 H 431.024 0.478784 0.573389 0
M  V30 4683 H 433.686 1.70565 0.94306 0
M  V30 4684 H 432.782 1.92762 2.45457 0
M  V30 4685 N 433.083 -1.0153 1.20538 0
M  V30 4686 C 434.308 -1.79283 1.04271 0
M  V30 4687 C 434.733 -1.8372 -0.403544 0
M  V30 4688 O 434.091 -1.27321 -1.2907 0
M  V30 4689 C 434.139 -3.21535 1.63241 0
M  V30 4690 O 433.243 -4.03099 0.870908 0
M  V30 4691 H 432.584 -0.55293 0.367647 0
M  V30 4692 H 435.114 -1.27696 1.59859 0
M  V30 4693 H 435.124 -3.72243 1.6703 0
M  V30 4694 H 433.799 -3.1762 2.68497 0
M  V30 4695 H 432.376 -3.61693 0.907323 0
M  V30 4696 N 434.561 -1.01147 -1.20859 0
M  V30 4697 C 435.491 -0.597663 -2.25722 0
M  V30 4698 C 436.472 0.384744 -1.65692 0
M  V30 4699 O 437.657 0.271303 -1.92296 0
M  V30 4700 C 434.787 0.0700149 -3.47229 0
M  V30 4701 C 433.741 -0.832843 -4.19819 0
M  V30 4702 C 433.067 -0.0312202 -5.34691 0
M  V30 4703 C 434.367 -2.1385 -4.76514 0
M  V30 4704 H 436.061 -1.47423 -2.60589 0
M  V30 4705 H 433.607 -0.710301 -1.25263 0
M  V30 4706 H 435.56 0.37103 -4.19763 0
M  V30 4707 H 434.284 0.981259 -3.11511 0
M  V30 4708 H 432.943 -1.11778 -3.49144 0
M  V30 4709 H 432.591 0.881515 -4.95215 0
M  V30 4710 H 432.291 -0.632434 -5.84187 0
M  V30 4711 H 433.815 0.26346 -6.10031 0
M  V30 4712 H 435.229 -1.9002 -5.40893 0
M  V30 4713 H 433.626 -2.69012 -5.36426 0
M  V30 4714 H 434.696 -2.80495 -3.95538 0
M  V30 4715 N 436.039 1.36541 -0.78704 0
M  V30 4716 C 436.949 2.3387 -0.184896 0
M  V30 4717 C 437.965 1.60927 0.661697 0
M  V30 4718 O 439.141 1.92927 0.57804 0
M  V30 4719 C 436.206 3.40122 0.672145 0
M  V30 4720 C 435.267 4.28867 -0.19267 0
M  V30 4721 C 434.5 5.30045 0.623561 0
M  V30 4722 O 434.723 5.39232 1.8597 0
M  V30 4723 O 433.657 6.01895 0.0247068 0
M  V30 4724 H 437.483 2.87126 -0.989562 0
M  V30 4725 H 435.068 1.38969 -0.548455 0
M  V30 4726 H 436.95 4.05093 1.16094 0
M  V30 4727 H 435.625 2.89169 1.45474 0
M  V30 4728 H 434.532 3.66945 -0.728166 0
M  V30 4729 H 435.865 4.83165 -0.938722 0
M  V30 4730 N 437.518 0.538854 1.48102 0
M  V30 4731 C 438.767 0.0059532 2.01699 0
M  V30 4732 C 439.08 -1.34476 1.42041 0
M  V30 4733 O 440.286 -1.96653 1.87189 0
M  V30 4734 C 438.742 -0.0397627 3.59878 0
M  V30 4735 C 438.35 1.30659 4.28523 0
M  V30 4736 C 440.094 -0.521024 4.2129 0
M  V30 4737 C 438.001 1.22098 5.78659 0
M  V30 4738 H 436.931 -0.00154456 0.753998 0
M  V30 4739 H 439.582 0.683963 1.70277 0
M  V30 4740 H 437.964 -0.783037 3.88181 0
M  V30 4741 H 439.138 2.06613 4.11883 0
M  V30 4742 H 437.453 1.7243 3.79021 0
M  V30 4743 H 440.05 -0.603184 5.31287 0
M  V30 4744 H 440.393 -1.52885 3.8721 0
M  V30 4745 H 440.926 0.166834 3.9745 0
M  V30 4746 H 437.665 2.20424 6.17328 0
M  V30 4747 H 437.185 0.50295 5.97688 0
M  V30 4748 H 438.864 0.915345 6.40492 0
M  V30 4749 N 438.996 -1.55193 0.274407 0
M  V30 4750 C 439.959 -2.212 -0.600279 0
M  V30 4751 C 440.959 -1.18963 -1.08187 0
M  V30 4752 O 442.149 -1.43873 -0.982158 0
M  V30 4753 C 439.281 -2.87739 -1.82809 0
M  V30 4754 H 440.474 -2.9989 -0.0239682 0
M  V30 4755 H 438.027 -1.5628 0.0250192 0
M  V30 4756 H 438.762 -2.13058 -2.44493 0
M  V30 4757 H 438.547 -3.62658 -1.49069 0
M  V30 4758 H 440.037 -3.38171 -2.45011 0
M  V30 4759 N 440.474 -0.00167713 -1.576 0
M  V30 4760 C 441.406 1.0174 -2.05382 0
M  V30 4761 C 442.419 1.30595 -0.972052 0
M  V30 4762 O 443.608 1.27542 -1.24882 0
M  V30 4763 C 440.708 2.35174 -2.44022 0
M  V30 4764 C 439.881 2.25234 -3.74951 0
M  V30 4765 C 438.94 3.4137 -4.00441 0
M  V30 4766 O 437.966 3.19483 -4.71083 0
M  V30 4767 N 439.168 4.64275 -3.48467 0
M  V30 4768 H 441.933 0.609902 -2.93428 0
M  V30 4769 H 439.494 0.185672 -1.60832 0
M  V30 4770 H 441.486 3.11643 -2.58187 0
M  V30 4771 H 440.056 2.67659 -1.61485 0
M  V30 4772 H 439.276 1.33664 -3.70847 0
M  V30 4773 H 440.564 2.15767 -4.60784 0
M  V30 4774 H 439.962 4.84955 -2.91264 0
M  V30 4775 H 438.519 5.38005 -3.67959 0
M  V30 4776 N 441.952 1.55251 0.271103 0
M  V30 4777 C 443.201 1.75151 1.00025 0
M  V30 4778 C 443.514 0.561041 1.87381 0
M  V30 4779 O 444.72 0.642506 2.63788 0
M  V30 4780 C 443.176 3.09999 1.82835 0
M  V30 4781 C 442.784 4.3662 1.00336 0
M  V30 4782 C 444.528 3.39249 2.55168 0
M  V30 4783 C 442.435 5.62506 1.82595 0
M  V30 4784 H 441.365 0.652877 0.377183 0
M  V30 4785 H 444.016 1.81708 0.255843 0
M  V30 4786 H 442.398 2.97485 2.61378 0
M  V30 4787 H 443.572 4.60055 0.261959 0
M  V30 4788 H 441.887 4.14527 0.394486 0
M  V30 4789 H 444.484 4.3051 3.1712 0
M  V30 4790 H 444.827 2.59467 3.2555 0
M  V30 4791 H 445.36 3.52869 1.83653 0
M  V30 4792 H 442.099 6.45041 1.16631 0
M  V30 4793 H 441.619 5.43211 2.54327 0
M  V30 4794 H 443.298 6.00875 2.39913 0
M  V30 4795 N 443.43 -0.535701 1.48216 0
M  V30 4796 C 444.655 -1.32149 1.59848 0
M  V30 4797 C 445.08 -1.86338 0.256842 0
M  V30 4798 O 444.438 -1.64107 -0.770632 0
M  V30 4799 C 444.486 -2.45224 2.64381 0
M  V30 4800 O 443.59 -3.48093 2.21144 0
M  V30 4801 H 442.931 -0.391634 0.536208 0
M  V30 4802 H 445.461 -0.645202 1.94161 0
M  V30 4803 H 445.471 -2.91491 2.85476 0
M  V30 4804 H 444.146 -2.05143 3.61786 0
M  V30 4805 H 442.723 -3.07984 2.10239 0
M  V30 4806 N 444.908 -1.36708 -0.784132 0
M  V30 4807 C 445.84 -1.27333 -1.90575 0
M  V30 4808 C 446.853 -0.191706 -1.61667 0
M  V30 4809 O 448.042 -0.446854 -1.72816 0
M  V30 4810 C 445.142 -0.943177 -3.25511 0
M  V30 4811 C 444.315 -2.12776 -3.82158 0
M  V30 4812 C 443.374 -1.76983 -4.95544 0
M  V30 4813 O 442.4 -2.49134 -5.11782 0
M  V30 4814 N 443.602 -0.706624 -5.76183 0
M  V30 4815 H 446.367 -2.23974 -1.99138 0
M  V30 4816 H 443.928 -1.30171 -0.962656 0
M  V30 4817 H 445.92 -0.684799 -3.98864 0
M  V30 4818 H 444.49 -0.0657333 -3.12531 0
M  V30 4819 H 443.71 -2.54863 -3.0073 0
M  V30 4820 H 444.998 -2.91904 -4.16737 0
M  V30 4821 H 444.396 -0.107643 -5.65598 0
M  V30 4822 H 442.953 -0.50808 -6.49817 0
M  V30 4823 N 446.386 1.0089 -1.21074 0
M  V30 4824 C 447.616 1.77933 -1.04993 0
M  V30 4825 C 448.024 1.84847 0.403495 0
M  V30 4826 O 447.367 1.30606 1.29181 0
M  V30 4827 C 447.429 3.23541 -1.56722 0
M  V30 4828 C 447.093 3.40214 -3.05129 0
M  V30 4829 C 448.09 3.2881 -4.02716 0
M  V30 4830 C 445.775 3.65781 -3.44252 0
M  V30 4831 C 447.769 3.42732 -5.37414 0
M  V30 4832 C 445.456 3.79346 -4.79103 0
M  V30 4833 C 446.454 3.67827 -5.75493 0
M  V30 4834 O 446.142 3.80965 -7.07899 0
M  V30 4835 H 445.874 0.566157 -0.369381 0
M  V30 4836 H 448.428 1.27826 -1.60779 0
M  V30 4837 H 446.658 3.74766 -0.953285 0
M  V30 4838 H 448.347 3.82245 -1.36543 0
M  V30 4839 H 449.113 3.08986 -3.73835 0
M  V30 4840 H 444.992 3.73831 -2.69762 0
M  V30 4841 H 448.536 3.33658 -6.12632 0
M  V30 4842 H 444.433 3.98672 -5.07672 0
M  V30 4843 H 445.201 3.97937 -7.15254 0
M  V30 4844 N 447.864 1.01787 1.20321 0
M  V30 4845 C 449.104 0.716493 1.91431 0
M  V30 4846 C 449.468 -0.740352 1.77152 0
M  V30 4847 O 450.669 -1.1543 2.42754 0
M  V30 4848 C 448.94 1.14169 3.38674 0
M  V30 4849 S 450.499 0.962482 4.28114 0
M  V30 4850 H 447.317 0.261175 0.661293 0
M  V30 4851 H 449.919 1.30539 1.45533 0
M  V30 4852 H 448.623 2.19784 3.46588 0
M  V30 4853 H 448.154 0.545621 3.89598 0
M  V30 4854 H 450.169 -0.133253 4.96021 0
M  V30 4855 N 449.342 -1.36122 0.79427 0
M  V30 4856 C 450.29 -2.31871 0.184023 0
M  V30 4857 C 451.284 -1.56041 -0.659365 0
M  V30 4858 O 452.49 -1.71266 -0.553906 0
M  V30 4859 H 448.865 -0.750896 0.0407373 0
M  V30 4860 H 450.836 -2.80898 1.00693 0
M  V30 4861 C 449.585 -3.41324 -0.662813 0
M  V30 4862 H 448.908 -3.99793 -0.0231944 0
M  V30 4863 H 450.348 -4.10629 -1.05639 0
M  V30 4864 C 448.807 -2.83308 -1.82313 0
M  V30 4865 O 449.337 -2.75863 -2.91997 0
M  V30 4866 N 447.543 -2.40529 -1.63077 0
M  V30 4867 H 447.09 -2.46785 -0.738591 0
M  V30 4868 H 447.048 -2.02059 -2.40872 0
M  V30 4869 N 450.82 -0.546701 -1.47814 0
M  V30 4870 C 451.75 0.195317 -2.32682 0
M  V30 4871 C 452.731 0.918981 -1.43139 0
M  V30 4872 O 453.916 0.901501 -1.72008 0
M  V30 4873 C 451.046 1.23237 -3.247 0
M  V30 4874 C 450 0.625818 -4.234 0
M  V30 4875 C 449.326 1.76674 -5.04669 0
M  V30 4876 C 450.626 -0.413515 -5.2066 0
M  V30 4877 H 452.32 -0.513184 -2.94969 0
M  V30 4878 H 449.866 -0.248241 -1.41844 0
M  V30 4879 H 451.819 1.75955 -3.82907 0
M  V30 4880 H 450.543 1.97067 -2.60446 0
M  V30 4881 H 449.202 0.120023 -3.66403 0
M  V30 4882 H 448.85 2.49383 -4.36826 0
M  V30 4883 H 448.55 1.36673 -5.71484 0
M  V30 4884 H 450.074 2.29738 -5.65732 0
M  V30 4885 H 451.488 0.0272042 -5.73294 0
M  V30 4886 H 449.885 -0.731825 -5.95621 0
M  V30 4887 H 450.955 -1.31325 -4.66778 0
M  V30 4888 N 452.299 1.55045 -0.282633 0
M  V30 4889 C 453.545 2.00056 0.332481 0
M  V30 4890 C 453.878 1.1708 1.54939 0
M  V30 4891 O 453.153 0.2427 1.9298 0
M  V30 4892 C 453.436 3.53086 0.70725 0
M  V30 4893 C 453.289 4.46813 -0.517521 0
M  V30 4894 C 454.608 4.12245 1.54084 0
M  V30 4895 H 451.727 0.727268 0.119373 0
M  V30 4896 H 454.369 1.85932 -0.391076 0
M  V30 4897 H 452.519 3.65253 1.32372 0
M  V30 4898 H 454.191 4.46579 -1.15607 0
M  V30 4899 H 452.434 4.18163 -1.1542 0
M  V30 4900 H 453.105 5.51595 -0.211426 0
M  V30 4901 H 455.581 4.03401 1.02013 0
M  V30 4902 H 454.457 5.19515 1.77186 0
M  V30 4903 H 454.718 3.62951 2.52427 0
M  V30 4904 N 453.777 0.010035 1.57597 0
M  V30 4905 C 455.002 -0.687021 1.95691 0
M  V30 4906 C 455.427 -1.65952 0.885519 0
M  V30 4907 O 454.785 -1.80633 -0.15543 0
M  V30 4908 C 454.833 -1.3864 3.32884 0
M  V30 4909 O 453.937 -2.50115 3.27897 0
M  V30 4910 H 453.278 -0.181989 0.638573 0
M  V30 4911 H 455.808 0.0662122 2.04493 0
M  V30 4912 H 455.818 -1.74754 3.6868 0
M  V30 4913 H 454.493 -0.673411 4.10412 0
M  V30 4914 H 453.07 -2.16253 3.03791 0
M  V30 4915 N 455.255 -1.55392 -0.262866 0
M  V30 4916 C 456.502 -1.76476 -0.993109 0
M  V30 4917 C 456.83 -0.571479 -1.85915 0
M  V30 4918 O 456.085 0.445733 -1.90556 0
M  V30 4919 C 456.384 -3.02889 -1.89718 0
M  V30 4920 C 456.05 -4.34974 -1.18781 0
M  V30 4921 C 454.712 -4.7087 -0.991699 0
M  V30 4922 C 457.064 -5.16695 -0.683798 0
M  V30 4923 C 454.392 -5.86036 -0.279024 0
M  V30 4924 C 456.744 -6.32598 0.0153327 0
M  V30 4925 C 455.408 -6.67127 0.223062 0
M  V30 4926 H 454.678 -0.64577 -0.363404 0
M  V30 4927 H 457.325 -1.89664 -0.264525 0
M  V30 4928 H 455.63 -2.84644 -2.6923 0
M  V30 4929 H 457.327 -3.16399 -2.46359 0
M  V30 4930 H 453.917 -4.06765 -1.35058 0
M  V30 4931 H 458.101 -4.8943 -0.8229 0
M  V30 4932 H 453.357 -6.11306 -0.107456 0
M  V30 4933 H 457.531 -6.95171 0.413584 0
M  V30 4934 H 455.158 -7.56216 0.777265 0
M  V30 4935 N 456.733 0.527833 -1.48498 0
M  V30 4936 C 457.979 1.28545 -1.56857 0
M  V30 4937 C 458.312 1.92678 -0.242651 0
M  V30 4938 O 457.587 1.79394 0.751545 0
M  V30 4939 C 457.87 2.37314 -2.70839 0
M  V30 4940 C 457.723 1.77858 -4.13142 0
M  V30 4941 C 459.042 3.39068 -2.80573 0
M  V30 4942 H 456.161 0.466006 -0.570971 0
M  V30 4943 H 458.803 0.587784 -1.8068 0
M  V30 4944 H 456.953 2.96821 -2.50658 0
M  V30 4945 H 458.625 1.22385 -4.44769 0
M  V30 4946 H 456.868 1.08383 -4.20042 0
M  V30 4947 H 457.539 2.56624 -4.88721 0
M  V30 4948 H 460.015 2.89518 -2.98862 0
M  V30 4949 H 458.891 4.12566 -3.6205 0
M  V30 4950 H 459.152 3.9975 -1.88818 0
M  V30 4951 N 458.211 1.37122 0.776871 0
M  V30 4952 C 459.141 1.35164 1.90402 0
M  V30 4953 C 460.122 0.221069 1.68657 0
M  V30 4954 O 461.307 0.420642 1.8959 0
M  V30 4955 C 458.437 1.15274 3.27611 0
M  V30 4956 C 457.391 2.25289 3.63908 0
M  V30 4957 C 456.717 1.90527 4.99603 0
M  V30 4958 C 458.017 3.67446 3.71188 0
M  V30 4959 H 459.711 2.29482 1.92297 0
M  V30 4960 H 457.257 1.10465 0.923773 0
M  V30 4961 H 459.21 1.12536 4.06096 0
M  V30 4962 H 457.934 0.174102 3.26136 0
M  V30 4963 H 456.593 2.27174 2.87728 0
M  V30 4964 H 456.241 0.91206 4.94662 0
M  V30 4965 H 455.941 2.64193 5.24858 0
M  V30 4966 H 457.465 1.89367 5.80493 0
M  V30 4967 H 458.879 3.67719 4.39836 0
M  V30 4968 H 457.276 4.40123 4.07936 0
M  V30 4969 H 458.346 4.01443 2.71977 0
M  V30 4970 N 459.689 -1.00246 1.21608 0
M  V30 4971 C 460.936 -1.74061 1.03485 0
M  V30 4972 C 461.264 -1.89658 -0.431308 0
M  V30 4973 O 460.519 -1.42976 -1.33627 0
M  V30 4974 C 460.818 -3.15448 1.68009 0
M  V30 4975 C 460.484 -3.19792 3.17874 0
M  V30 4976 C 459.146 -3.20685 3.58768 0
M  V30 4977 C 461.498 -3.16835 4.13842 0
M  V30 4978 C 458.826 -3.16309 4.94131 0
M  V30 4979 C 461.178 -3.14001 5.49169 0
M  V30 4980 C 459.842 -3.13204 5.89457 0
M  V30 4981 H 459.112 -0.636934 0.378677 0
M  V30 4982 H 461.759 -1.17473 1.51236 0
M  V30 4983 H 460.064 -3.75284 1.12557 0
M  V30 4984 H 461.761 -3.71285 1.51487 0
M  V30 4985 H 458.351 -3.19842 2.85305 0
M  V30 4986 H 462.535 -3.15303 3.83272 0
M  V30 4987 H 457.791 -3.14032 5.24589 0
M  V30 4988 H 461.965 -3.10667 6.23265 0
M  V30 4989 H 459.592 -3.09568 6.94314 0
M  V30 4990 N 461.167 -1.02423 -1.1978 0
M  V30 4991 C 462.397 -0.736387 -1.93031 0
M  V30 4992 C 462.805 0.708023 -1.75453 0
M  V30 4993 O 462.148 1.4927 -1.07071 0
M  V30 4994 C 462.21 -1.00194 -3.45255 0
M  V30 4995 C 461.874 -2.43698 -3.86601 0
M  V30 4996 C 462.871 -3.41814 -3.91738 0
M  V30 4997 C 460.556 -2.77975 -4.18372 0
M  V30 4998 C 462.55 -4.72265 -4.28071 0
M  V30 4999 C 460.237 -4.08636 -4.54378 0
M  V30 5000 C 461.235 -5.05592 -4.59201 0
M  V30 5001 O 460.923 -6.33914 -4.94376 0
M  V30 5002 H 460.655 -0.269116 -0.620123 0
M  V30 5003 H 463.209 -1.37043 -1.52998 0
M  V30 5004 H 461.439 -0.310747 -3.85449 0
M  V30 5005 H 463.128 -0.704488 -3.9974 0
M  V30 5006 H 463.894 -3.16671 -3.67348 0
M  V30 5007 H 459.773 -2.0319 -4.13805 0
M  V30 5008 H 463.317 -5.4794 -4.3175 0
M  V30 5009 H 459.214 -4.33556 -4.78226 0
M  V30 5010 H 459.982 -6.38317 -5.12341 0
M  V30 5011 N 462.645 1.35699 -0.801477 0
M  V30 5012 C 463.575 2.32436 -0.222658 0
M  V30 5013 C 464.556 1.5723 0.649057 0
M  V30 5014 O 465.741 1.85324 0.580387 0
M  V30 5015 C 462.871 3.41469 0.633719 0
M  V30 5016 C 461.825 4.27774 -0.139083 0
M  V30 5017 C 461.151 5.28082 0.838666 0
M  V30 5018 C 462.451 5.04946 -1.33517 0
M  V30 5019 H 464.145 2.81094 -1.03086 0
M  V30 5020 H 461.691 1.35146 -0.497155 0
M  V30 5021 H 463.644 4.08143 1.04868 0
M  V30 5022 H 462.368 2.91408 1.47475 0
M  V30 5023 H 461.027 3.62673 -0.535156 0
M  V30 5024 H 460.675 4.7429 1.67506 0
M  V30 5025 H 460.375 5.86695 0.32594 0
M  V30 5026 H 461.899 5.97628 1.25194 0
M  V30 5027 H 463.313 5.64593 -0.995349 0
M  V30 5028 H 461.71 5.7303 -1.78202 0
M  V30 5029 H 462.78 4.35886 -2.12442 0
M  V30 5030 N 464.123 0.554532 1.47522 0
M  V30 5031 C 465.348 0.0322661 2.07375 0
M  V30 5032 C 465.773 -1.25079 1.40488 0
M  V30 5033 O 465.131 -1.74859 0.47896 0
M  V30 5034 C 465.179 -0.149397 3.6029 0
M  V30 5035 O 464.283 -1.21259 3.9417 0
M  V30 5036 H 463.624 0.0501228 0.662106 0
M  V30 5037 H 466.154 0.769452 1.8958 0
M  V30 5038 H 466.164 -0.364437 4.06369 0
M  V30 5039 H 464.839 0.787743 4.08372 0
M  V30 5040 H 463.416 -0.97825 3.5984 0
M  V30 5041 N 465.601 -1.54893 0.290851 0
M  V30 5042 C 466.564 -2.21824 -0.576784 0
M  V30 5043 C 467.564 -1.20104 -1.06919 0
M  V30 5044 O 468.754 -1.44906 -0.966843 0
M  V30 5045 C 465.886 -2.89662 -1.79747 0
M  V30 5046 H 467.079 -2.99899 0.00784051 0
M  V30 5047 H 464.632 -1.56245 0.0415934 0
M  V30 5048 H 465.367 -2.15639 -2.42219 0
M  V30 5049 H 465.152 -3.64219 -1.45214 0
M  V30 5050 H 466.642 -3.4075 -2.4141 0
M  V30 5051 N 467.08 -0.0183926 -1.57589 0
M  V30 5052 C 468.043 0.951986 -2.08494 0
M  V30 5053 C 469.043 1.26092 -0.997874 0
M  V30 5054 O 470.233 1.20304 -1.25987 0
M  V30 5055 C 467.365 2.27165 -2.54182 0
M  V30 5056 H 468.558 0.511307 -2.95509 0
M  V30 5057 H 466.111 0.229444 -1.54607 0
M  V30 5058 H 466.846 2.75884 -1.70465 0
M  V30 5059 H 466.631 2.06057 -3.33591 0
M  V30 5060 H 468.121 2.9674 -2.93828 0
M  V30 5061 N 468.558 1.5553 0.254621 0
M  V30 5062 C 469.807 1.76202 0.981612 0
M  V30 5063 C 470.12 0.580883 1.86776 0
M  V30 5064 O 471.326 0.670448 2.63092 0
M  V30 5065 C 469.782 3.11921 1.79537 0
M  V30 5066 C 469.39 4.37659 0.956991 0
M  V30 5067 C 471.134 3.41936 2.51555 0
M  V30 5068 C 469.041 5.64411 1.76619 0
M  V30 5069 H 467.971 0.656841 0.370237 0
M  V30 5070 H 470.622 1.81969 0.236556 0
M  V30 5071 H 469.004 3.00241 2.58208 0
M  V30 5072 H 470.178 4.60307 0.21315 0
M  V30 5073 H 468.493 4.14922 0.350497 0
M  V30 5074 H 471.09 4.33849 3.12536 0
M  V30 5075 H 471.433 2.62905 3.22779 0
M  V30 5076 H 471.966 3.54797 1.799 0
M  V30 5077 H 468.705 6.46241 1.09783 0
M  V30 5078 H 468.225 5.45877 2.48551 0
M  V30 5079 H 469.904 6.03386 2.33527 0
M  V30 5080 N 470.036 -0.519951 1.48776 0
M  V30 5081 C 470.984 -1.64443 1.64503 0
M  V30 5082 C 471.978 -1.61501 0.511248 0
M  V30 5083 O 473.184 -1.66238 0.690294 0
M  V30 5084 H 469.559 -0.544776 0.518385 0
M  V30 5085 H 471.53 -1.48325 2.58925 0
M  V30 5086 C 470.279 -3.02673 1.71127 0
M  V30 5087 H 469.602 -3.05635 2.57735 0
M  V30 5088 H 471.042 -3.80941 1.86172 0
M  V30 5089 C 469.501 -3.33854 0.452032 0
M  V30 5090 O 470.031 -3.99385 -0.430678 0
M  V30 5091 N 468.237 -2.88825 0.32069 0
M  V30 5092 H 467.784 -2.35674 1.03998 0
M  V30 5093 H 467.742 -3.10056 -0.520814 0
M  V30 5094 N 471.514 -1.37532 -0.769588 0
M  V30 5095 C 472.925 -1.29382 -1.346 0
M  V30 5096 C 473.276 0.0576039 -1.96115 0
M  V30 5097 O 472.401 0.95947 -1.93967 0
M  V30 5098 C 472.996 -2.34298 -2.44724 0
M  V30 5099 C 471.555 -2.29776 -2.98128 0
M  V30 5100 C 470.702 -2.18013 -1.71364 0
M  V30 5101 H 473.653 -1.48123 -0.56968 0
M  V30 5102 H 473.674 -1.99089 -3.24259 0
M  V30 5103 H 473.186 -3.32645 -1.99922 0
M  V30 5104 H 471.287 -1.34959 -3.47299 0
M  V30 5105 H 471.4 -3.23276 -3.53595 0
M  V30 5106 H 469.764 -1.64595 -1.94372 0
M  V30 5107 H 470.547 -3.18278 -1.28662 0
M  V30 5108 N 472.992 0.995999 -1.22138 0
M  V30 5109 C 474.241 1.72928 -1.03821 0
M  V30 5110 C 474.554 1.90872 0.427444 0
M  V30 5111 O 475.76 2.61496 0.730212 0
M  V30 5112 C 474.216 3.11124 -1.80913 0
M  V30 5113 C 473.824 3.01122 -3.31707 0
M  V30 5114 C 475.568 3.8852 -1.71035 0
M  V30 5115 C 473.475 4.34453 -4.01253 0
M  V30 5116 H 472.405 0.648376 -0.384869 0
M  V30 5117 H 475.056 1.11213 -1.45959 0
M  V30 5118 H 473.438 3.73503 -1.31573 0
M  V30 5119 H 474.612 2.47926 -3.88419 0
M  V30 5120 H 472.927 2.3721 -3.42228 0
M  V30 5121 H 475.524 4.872 -2.20318 0
M  V30 5122 H 475.867 4.1087 -0.670196 0
M  V30 5123 H 476.4 3.32812 -2.17902 0
M  V30 5124 H 473.139 4.17303 -5.05508 0
M  V30 5125 H 472.659 4.87574 -3.49331 0
M  V30 5126 H 474.338 5.03215 -4.06674 0
M  V30 5127 N 474.47 1.03057 1.19235 0
M  V30 5128 C 475.4 0.633497 2.24742 0
M  V30 5129 C 476.381 -0.358335 1.66283 0
M  V30 5130 O 477.566 -0.240676 1.92703 0
M  V30 5131 C 474.696 -0.0147648 3.47297 0
M  V30 5132 C 473.65 0.899527 4.18441 0
M  V30 5133 C 472.976 0.116281 5.34574 0
M  V30 5134 C 474.276 2.21404 4.73051 0
M  V30 5135 H 475.97 1.5155 2.58211 0
M  V30 5136 H 473.516 0.73014 1.24117 0
M  V30 5137 H 475.469 -0.304202 4.20301 0
M  V30 5138 H 474.193 -0.931577 3.13032 0
M  V30 5139 H 472.852 1.17319 3.47321 0
M  V30 5140 H 472.5 -0.802619 4.96555 0
M  V30 5141 H 472.2 0.725293 5.83107 0
M  V30 5142 H 473.724 -0.166376 6.10373 0
M  V30 5143 H 475.138 1.98601 5.37802 0
M  V30 5144 H 473.535 2.77512 5.32078 0
M  V30 5145 H 474.605 2.86752 3.91026 0
M  V30 5146 N 475.948 -1.35272 0.808662 0
M  V30 5147 C 477.178 -2.02652 0.401953 0
M  V30 5148 C 477.586 -1.6108 -0.992462 0
M  V30 5149 O 476.929 -0.804984 -1.65123 0
M  V30 5150 C 476.991 -3.57174 0.408246 0
M  V30 5151 C 476.655 -4.22019 1.75353 0
M  V30 5152 C 477.652 -4.43552 2.71215 0
M  V30 5153 C 475.337 -4.59093 2.03811 0
M  V30 5154 C 477.331 -5.01264 3.93717 0
M  V30 5155 C 475.018 -5.16519 3.26576 0
M  V30 5156 C 476.016 -5.37546 4.21347 0
M  V30 5157 O 475.704 -5.93761 5.41944 0
M  V30 5158 H 475.436 -0.656495 0.161216 0
M  V30 5159 H 477.99 -1.73829 1.0942 0
M  V30 5160 H 476.22 -3.85197 -0.340608 0
M  V30 5161 H 477.909 -4.05893 0.0235623 0
M  V30 5162 H 478.675 -4.15288 2.50522 0
M  V30 5163 H 474.554 -4.42039 1.30854 0
M  V30 5164 H 478.098 -5.17592 4.67701 0
M  V30 5165 H 473.995 -5.4421 3.47139 0
M  V30 5166 H 474.763 -6.1221 5.43269 0
M  V30 5167 N 477.426 -0.562348 -1.47226 0
M  V30 5168 C 478.374 0.195476 -2.31777 0
M  V30 5169 C 479.368 0.90433 -1.43242 0
M  V30 5170 O 480.574 0.825031 -1.59979 0
M  V30 5171 H 476.949 0.0819095 -0.747526 0
M  V30 5172 H 478.92 -0.536753 -2.93533 0
M  V30 5173 C 477.669 1.20902 -3.26003 0
M  V30 5174 H 476.992 0.672997 -3.94095 0
M  V30 5175 H 478.432 1.71006 -3.87986 0
M  V30 5176 C 476.891 2.25955 -2.49891 0
M  V30 5177 O 477.421 3.32969 -2.2471 0
M  V30 5178 N 475.627 2.00019 -2.1081 0
M  V30 5179 H 475.174 1.13006 -2.31489 0
M  V30 5180 H 475.132 2.70523 -1.60201 0
M  V30 5181 N 478.904 1.54736 -0.299062 0
M  V30 5182 C 480.153 1.99279 0.311549 0
M  V30 5183 C 480.466 1.19107 1.55154 0
M  V30 5184 O 481.672 1.53908 2.23662 0
M  V30 5185 C 480.128 3.54768 0.605632 0
M  V30 5186 C 479.736 4.43746 -0.615914 0
M  V30 5187 C 481.48 4.07841 1.17754 0
M  V30 5188 C 479.387 5.90663 -0.29509 0
M  V30 5189 H 478.317 0.744359 0.120187 0
M  V30 5190 H 480.968 1.78919 -0.407464 0
M  V30 5191 H 479.35 3.71021 1.38419 0
M  V30 5192 H 480.524 4.39267 -1.39218 0
M  V30 5193 H 478.839 4.01434 -1.10633 0
M  V30 5194 H 481.436 5.15174 1.43179 0
M  V30 5195 H 481.779 3.58324 2.11918 0
M  V30 5196 H 482.312 3.95123 0.460739 0
M  V30 5197 H 479.051 6.44325 -1.20524 0
M  V30 5198 H 478.571 5.98155 0.44394 0
M  V30 5199 H 480.25 6.46916 0.104048 0
M  V30 5200 N 480.382 0.0267497 1.57577 0
M  V30 5201 C 481.315 -0.99059 2.05579 0
M  V30 5202 C 482.293 -1.31884 0.951065 0
M  V30 5203 O 483.477 -1.43592 1.22121 0
M  V30 5204 C 480.604 -2.31125 2.47586 0
M  V30 5205 C 479.65 -2.13777 3.69055 0
M  V30 5206 S 480.483 -1.4388 5.15809 0
M  V30 5207 C 481.639 -2.77321 5.6111 0
M  V30 5208 H 481.872 -0.581976 2.91548 0
M  V30 5209 H 479.405 -0.184876 1.53289 0
M  V30 5210 H 481.363 -3.07049 2.72454 0
M  V30 5211 H 480.024 -2.6912 1.61967 0
M  V30 5212 H 479.217 -3.11405 3.96287 0
M  V30 5213 H 478.819 -1.45996 3.44327 0
M  V30 5214 H 481.111 -3.73565 5.65204 0
M  V30 5215 H 482.054 -2.54756 6.60685 0
M  V30 5216 H 482.462 -2.82459 4.88751 0
M  V30 5217 N 481.861 -1.55662 -0.24637 0
M  V30 5218 C 483.086 -1.81914 -0.996093 0
M  V30 5219 C 483.511 -0.603875 -1.78143 0
M  V30 5220 O 482.869 0.447091 -1.75701 0
M  V30 5221 C 482.917 -3.05908 -1.90925 0
M  V30 5222 O 482.021 -2.82861 -3.00105 0
M  V30 5223 H 481.362 -0.600481 -0.283406 0
M  V30 5224 H 483.892 -2.02848 -0.267199 0
M  V30 5225 H 483.902 -3.35356 -2.3238 0
M  V30 5226 H 482.577 -3.93999 -1.33183 0
M  V30 5227 H 481.154 -2.64583 -2.62775 0
M  V30 5228 N 483.339 0.512053 -1.4905 0
M  V30 5229 C 484.286 1.6148 -1.64902 0
M  V30 5230 C 485.256 1.58687 -0.490673 0
M  V30 5231 O 486.441 1.76842 -0.71636 0
M  V30 5232 C 483.581 2.99676 -1.71139 0
M  V30 5233 C 482.694 3.12568 -2.98203 0
M  V30 5234 C 481.829 4.4143 -2.95487 0
M  V30 5235 C 480.868 4.47916 -4.17179 0
M  V30 5236 N 480.005 5.68191 -4.12437 0
M  V30 5237 H 484.845 1.47271 -2.59066 0
M  V30 5238 H 482.382 0.716713 -1.28459 0
M  V30 5239 H 484.34 3.79761 -1.72736 0
M  V30 5240 H 482.97 3.12614 -0.804508 0
M  V30 5241 H 482.022 2.25618 -3.06269 0
M  V30 5242 H 483.334 3.1322 -3.88194 0
M  V30 5243 H 482.488 5.29825 -2.95585 0
M  V30 5244 H 481.227 4.43326 -2.03256 0
M  V30 5245 H 480.232 3.57925 -4.17337 0
M  V30 5246 H 481.457 4.47744 -5.1059 0
M  V30 5247 H 479.403 5.7095 -3.23036 0
M  V30 5248 H 479.32 5.70413 -4.96151 0
M  V30 5249 H 480.588 6.58823 -4.16621 0
M  V30 5250 N 484.817 1.37938 0.762283 0
M  V30 5251 C 485.764 1.34467 1.87583 0
M  V30 5252 C 486.734 0.208633 1.64785 0
M  V30 5253 O 487.919 0.399494 1.86571 0
M  V30 5254 C 485.059 1.16692 3.24772 0
M  V30 5255 C 484.172 2.39608 3.59461 0
M  V30 5256 C 483.307 2.14631 4.85908 0
M  V30 5257 C 482.346 3.33364 5.13357 0
M  V30 5258 N 481.483 3.07877 6.30996 0
M  V30 5259 H 486.323 2.29669 1.89885 0
M  V30 5260 H 483.86 1.14116 0.928219 0
M  V30 5261 H 485.818 1.04405 4.03925 0
M  V30 5262 H 484.448 0.251333 3.2182 0
M  V30 5263 H 483.5 2.626 2.75219 0
M  V30 5264 H 484.812 3.28128 3.75678 0
M  V30 5265 H 483.966 1.99429 5.72986 0
M  V30 5266 H 482.705 1.23463 4.71814 0
M  V30 5267 H 481.71 3.49094 4.24751 0
M  V30 5268 H 482.935 4.25395 5.29354 0
M  V30 5269 H 480.881 2.19348 6.18241 0
M  V30 5270 H 480.798 3.89944 6.47673 0
M  V30 5271 H 482.066 2.96313 7.20985 0
M  V30 5272 N 486.295 -0.989507 1.22664 0
M  V30 5273 C 487.525 -1.7624 1.0781 0
M  V30 5274 C 487.933 -1.85466 -0.374036 0
M  V30 5275 O 487.276 -1.32645 -1.27087 0
M  V30 5276 C 487.338 -3.21007 1.61849 0
M  V30 5277 C 487.002 -3.35316 3.10503 0
M  V30 5278 C 487.999 -3.22362 4.07896 0
M  V30 5279 C 485.684 -3.60258 3.50028 0
M  V30 5280 C 487.678 -3.34139 5.42798 0
M  V30 5281 C 485.365 -3.71676 4.85078 0
M  V30 5282 C 486.363 -3.58625 5.81272 0
M  V30 5283 O 486.051 -3.69655 7.1387 0
M  V30 5284 H 485.783 -0.560209 0.378341 0
M  V30 5285 H 488.337 -1.25252 1.62792 0
M  V30 5286 H 486.567 -3.73202 1.01279 0
M  V30 5287 H 488.256 -3.80024 1.42606 0
M  V30 5288 H 489.022 -3.03 3.78703 0
M  V30 5289 H 484.901 -3.69492 2.75675 0
M  V30 5290 H 488.445 -3.23869 6.17863 0
M  V30 5291 H 484.342 -3.90545 5.1395 0
M  V30 5292 H 485.11 -3.86507 7.21495 0
M  V30 5293 N 487.773 -1.03688 -1.18687 0
M  V30 5294 C 489.189 -0.755413 -1.4059 0
M  V30 5295 C 489.389 0.656659 -1.905 0
M  V30 5296 O 488.445 1.42144 -2.08689 0
M  V30 5297 C 489.758 -1.7983 -2.41001 0
M  V30 5298 C 491.306 -1.81877 -2.54735 0
M  V30 5299 C 491.781 -2.85148 -3.58406 0
M  V30 5300 N 493.272 -2.84015 -3.6591 0
M  V30 5301 C 494.007 -3.60573 -4.45841 0
M  V30 5302 N 493.503 -4.46871 -5.29413 0
M  V30 5303 N 495.296 -3.49079 -4.40568 0
M  V30 5304 H 487.447 -1.94818 -0.846148 0
M  V30 5305 H 489.71 -0.842727 -0.434184 0
M  V30 5306 H 489.416 -2.81097 -2.1137 0
M  V30 5307 H 489.29 -1.62727 -3.40294 0
M  V30 5308 H 491.677 -0.812836 -2.83685 0
M  V30 5309 H 491.758 -2.03057 -1.55568 0
M  V30 5310 H 491.402 -3.85918 -3.30197 0
M  V30 5311 H 491.332 -2.61224 -4.57241 0
M  V30 5312 H 493.823 -2.21431 -3.0623 0
M  V30 5313 H 494.136 -5.02007 -5.87545 0
M  V30 5314 H 492.481 -4.5094 -5.28846 0
M  V30 5315 H 495.672 -2.81066 -3.74325 0
M  V30 5316 H 495.845 -4.08994 -5.02621 0
M  V30 5317 N 489.251 1.34841 -0.815825 0
M  V30 5318 C 490.497 1.98793 -0.401129 0
M  V30 5319 C 490.83 1.64548 1.03139 0
M  V30 5320 O 490.105 0.913487 1.71714 0
M  V30 5321 C 490.388 3.55143 -0.595409 0
M  V30 5322 C 490.241 3.99155 -2.07352 0
M  V30 5323 C 491.56 4.40092 -0.0268823 0
M  V30 5324 H 488.679 0.722146 -0.14722 0
M  V30 5325 H 491.321 1.59847 -1.02707 0
M  V30 5326 H 489.471 3.8845 -0.0625779 0
M  V30 5327 H 491.143 3.76216 -2.66945 0
M  V30 5328 H 489.386 3.49726 -2.56659 0
M  V30 5329 H 490.057 5.07971 -2.1603 0
M  V30 5330 H 492.533 4.13298 -0.482042 0
M  V30 5331 H 491.409 5.48562 -0.19267 0
M  V30 5332 H 491.67 4.29016 1.06759 0
M  V30 5333 N 490.729 0.570148 1.46925 0
M  V30 5334 C 491.692 -0.159933 2.28641 0
M  V30 5335 C 492.692 -0.830638 1.37685 0
M  V30 5336 O 493.882 -0.684516 1.60187 0
M  V30 5337 C 491.014 -1.2354 3.17727 0
M  V30 5338 H 492.207 0.558035 2.94662 0
M  V30 5339 H 489.76 0.327603 1.52828 0
M  V30 5340 H 490.495 -1.98535 2.56426 0
M  V30 5341 H 490.28 -0.759125 3.84681 0
M  V30 5342 H 491.77 -1.74782 3.79264 0
M  V30 5343 N 492.207 -1.54576 0.307264 0
M  V30 5344 C 493.453 -2.0056 -0.300612 0
M  V30 5345 C 493.786 -1.1953 -1.53057 0
M  V30 5346 O 493.061 -0.27337 -1.92569 0
M  V30 5347 C 493.344 -3.54167 -0.650987 0
M  V30 5348 C 493.197 -4.45933 0.588539 0
M  V30 5349 C 494.516 -4.14645 -1.47506 0
M  V30 5350 H 491.635 -0.729075 -0.107788 0
M  V30 5351 H 494.277 -1.85286 0.420606 0
M  V30 5352 H 492.427 -3.67313 -1.26544 0
M  V30 5353 H 494.099 -4.44683 1.22697 0
M  V30 5354 H 492.342 -4.16274 1.22058 0
M  V30 5355 H 493.013 -5.51189 0.299153 0
M  V30 5356 H 495.489 -4.04973 -0.955821 0
M  V30 5357 H 494.365 -5.22269 -1.68899 0
M  V30 5358 H 494.626 -3.66921 -2.4662 0
M  V30 5359 N 493.685 -0.035106 -1.57561 0
M  V30 5360 C 494.932 0.642229 -1.92046 0
M  V30 5361 C 495.26 1.7179 -0.91206 0
M  V30 5362 O 494.515 1.95544 0.0781153 0
M  V30 5363 C 494.814 1.29149 -3.3325 0
M  V30 5364 C 494.48 0.345604 -4.49574 0
M  V30 5365 C 493.142 0.0852775 -4.81124 0
M  V30 5366 C 495.494 -0.303569 -5.20315 0
M  V30 5367 C 492.822 -0.831927 -5.80772 0
M  V30 5368 C 495.174 -1.20886 -6.20942 0
M  V30 5369 C 493.838 -1.47802 -6.50931 0
M  V30 5370 H 493.108 0.235008 -0.702746 0
M  V30 5371 H 495.755 -0.0981529 -1.91248 0
M  V30 5372 H 494.06 2.10676 -3.30337 0
M  V30 5373 H 495.757 1.82223 -3.57205 0
M  V30 5374 H 492.347 0.558683 -4.24943 0
M  V30 5375 H 496.531 -0.115515 -4.96166 0
M  V30 5376 H 491.787 -1.0481 -6.02349 0
M  V30 5377 H 495.961 -1.71804 -6.74875 0
M  V30 5378 H 493.588 -2.19039 -7.2796 0
M  V30 5379 N 495.163 1.55791 0.238111 0
M  V30 5380 C 496.579 1.48411 0.587045 0
M  V30 5381 C 496.779 0.72702 1.87927 0
M  V30 5382 O 495.835 0.259942 2.51158 0
M  V30 5383 C 497.148 2.92873 0.681623 0
M  V30 5384 C 498.696 3.03295 0.773363 0
M  V30 5385 C 499.171 4.49082 0.899428 0
M  V30 5386 N 500.662 4.53056 0.964075 0
M  V30 5387 C 501.397 5.63117 1.08104 0
M  V30 5388 N 500.893 6.82969 1.16299 0
M  V30 5389 N 502.686 5.50933 1.11488 0
M  V30 5390 H 494.837 2.0345 -0.610076 0
M  V30 5391 H 497.1 0.924034 -0.211813 0
M  V30 5392 H 496.806 3.51142 -0.19802 0
M  V30 5393 H 496.68 3.43851 1.55069 0
M  V30 5394 H 499.067 2.45101 1.64346 0
M  V30 5395 H 499.148 2.55513 -0.121034 0
M  V30 5396 H 498.792 5.07889 0.0338586 0
M  V30 5397 H 498.722 4.94553 1.809 0
M  V30 5398 H 501.213 3.66737 0.91173 0
M  V30 5399 H 501.526 7.62598 1.25155 0
M  V30 5400 H 499.871 6.85712 1.13241 0
M  V30 5401 H 503.062 4.56231 1.0474 0
M  V30 5402 H 503.235 6.36743 1.20259 0
M  V30 5403 N 496.642 -0.504142 1.49319 0
M  V30 5404 C 497.572 -1.61473 1.68667 0
M  V30 5405 C 498.553 -1.61455 0.535378 0
M  V30 5406 O 499.738 -1.78245 0.770868 0
M  V30 5407 C 496.868 -2.99971 1.75028 0
M  V30 5408 C 495.822 -3.14854 2.89916 0
M  V30 5409 C 495.148 -4.54671 2.81387 0
M  V30 5410 C 496.448 -2.95176 4.30893 0
M  V30 5411 H 498.142 -1.45535 2.61648 0
M  V30 5412 H 495.688 -0.698711 1.25913 0
M  V30 5413 H 497.641 -3.77562 1.8715 0
M  V30 5414 H 496.365 -3.1699 0.786441 0
M  V30 5415 H 495.024 -2.39687 2.77391 0
M  V30 5416 H 494.672 -4.68562 1.82917 0
M  V30 5417 H 494.372 -4.6557 3.58494 0
M  V30 5418 H 495.896 -5.34327 2.95512 0
M  V30 5419 H 497.31 -3.62538 4.44116 0
M  V30 5420 H 495.707 -3.17549 5.09198 0
M  V30 5421 H 496.777 -1.91332 4.45556 0
M  V30 5422 N 498.12 -1.38341 -0.754957 0
M  V30 5423 C 499.05 -1.38176 -1.88227 0
M  V30 5424 C 500.031 -0.247873 -1.68284 0
M  V30 5425 O 501.216 -0.45075 -1.88896 0
M  V30 5426 C 498.346 -1.20471 -3.25736 0
M  V30 5427 C 497.3 -2.3105 -3.60278 0
M  V30 5428 C 496.626 -1.98452 -4.96509 0
M  V30 5429 C 497.926 -3.73305 -3.65295 0
M  V30 5430 H 499.62 -2.32512 -1.88622 0
M  V30 5431 H 497.166 -1.1192 -0.906082 0
M  V30 5432 H 499.119 -1.18982 -4.04254 0
M  V30 5433 H 497.843 -0.225965 -3.25817 0
M  V30 5434 H 496.502 -2.31723 -2.84078 0
M  V30 5435 H 496.15 -0.990641 -4.93148 0
M  V30 5436 H 495.85 -2.7251 -5.20588 0
M  V30 5437 H 497.374 -1.98578 -5.77407 0
M  V30 5438 H 498.788 -3.7467 -4.3393 0
M  V30 5439 H 497.185 -4.46557 -4.00883 0
M  V30 5440 H 498.255 -4.05719 -2.65556 0
M  V30 5441 N 499.598 0.982988 -1.23187 0
M  V30 5442 C 500.846 1.72052 -1.06031 0
M  V30 5443 C 501.167 1.90769 0.404019 0
M  V30 5444 O 500.437 1.47446 1.28982 0
M  V30 5445 H 499.017 0.637499 -0.389363 0
M  V30 5446 H 501.679 1.18338 -1.54862 0
M  V30 5447 H 500.775 2.7111 -1.54615 0
M  V30 5448 N 501.076 1.04316 1.18135 0
M  V30 5449 C 502.323 0.74802 1.88178 0
M  V30 5450 C 502.651 -0.72441 1.80506 0
M  V30 5451 O 501.906 -1.54463 1.20165 0
M  V30 5452 C 502.205 1.16271 3.37958 0
M  V30 5453 C 501.871 2.63585 3.65833 0
M  V30 5454 C 500.533 3.03829 3.73151 0
M  V30 5455 C 502.885 3.58822 3.78016 0
M  V30 5456 C 500.213 4.38194 3.90132 0
M  V30 5457 C 502.565 4.92909 3.96514 0
M  V30 5458 C 501.229 5.3282 4.02068 0
M  V30 5459 H 500.499 0.27372 0.688592 0
M  V30 5460 H 503.146 1.30863 1.39811 0
M  V30 5461 H 501.451 0.520938 3.88321 0
M  V30 5462 H 503.148 0.911672 3.90499 0
M  V30 5463 H 499.738 2.31414 3.60757 0
M  V30 5464 H 503.922 3.28875 3.71692 0
M  V30 5465 H 499.178 4.68631 3.92677 0
M  V30 5466 H 503.352 5.66606 4.04883 0
M  V30 5467 H 500.979 6.36943 4.14979 0
M  V30 5468 N 502.554 -1.34406 0.822964 0
M  V30 5469 C 503.464 -2.33298 0.246838 0
M  V30 5470 C 504.48 -1.62625 -0.618797 0
M  V30 5471 O 505.656 -1.94391 -0.526685 0
M  V30 5472 C 502.721 -3.41785 -0.581731 0
M  V30 5473 C 501.782 -4.28206 0.306309 0
M  V30 5474 C 501.015 -5.31512 -0.48281 0
M  V30 5475 O 501.238 -5.43973 -1.71607 0
M  V30 5476 O 500.172 -6.01749 0.134884 0
M  V30 5477 H 503.998 -2.84401 1.06534 0
M  V30 5478 H 501.583 -1.37466 0.585108 0
M  V30 5479 H 503.465 -4.08028 -1.05313 0
M  V30 5480 H 502.14 -2.92925 -1.37756 0
M  V30 5481 H 501.047 -3.64885 0.825199 0
M  V30 5482 H 502.38 -4.80507 1.06649 0
M  V30 5483 N 504.032 -0.577932 -1.46621 0
M  V30 5484 C 505.443 -0.150071 -1.86096 0
M  V30 5485 C 505.794 1.28563 -1.48209 0
M  V30 5486 O 504.919 1.97036 -0.894754 0
M  V30 5487 C 505.514 -0.265576 -3.37758 0
M  V30 5488 C 504.073 0.10738 -3.76247 0
M  V30 5489 C 503.22 -0.603711 -2.70649 0
M  V30 5490 H 506.171 -0.786438 -1.37844 0
M  V30 5491 H 506.192 0.510352 -3.77062 0
M  V30 5492 H 505.704 -1.3106 -3.65301 0
M  V30 5493 H 503.805 1.15272 -3.54321 0
M  V30 5494 H 503.918 -0.26561 -4.78363 0
M  V30 5495 H 502.282 -0.0444884 -2.54661 0
M  V30 5496 H 503.065 -1.65029 -3.01032 0
M  V30 5497 N 505.51 1.54411 -0.315457 0
M  V30 5498 C 506.757 2.00419 0.289543 0
M  V30 5499 C 507.085 1.20373 1.52776 0
M  V30 5500 O 506.34 0.271769 1.93804 0
M  V30 5501 C 506.639 3.50936 0.676652 0
M  V30 5502 C 506.305 4.48532 -0.461472 0
M  V30 5503 C 504.967 4.74936 -0.773879 0
M  V30 5504 C 507.319 5.06567 -1.22637 0
M  V30 5505 C 504.647 5.56634 -1.85405 0
M  V30 5506 C 506.999 5.89441 -2.29657 0
M  V30 5507 C 505.663 6.1415 -2.61488 0
M  V30 5508 H 504.933 0.733386 0.105951 0
M  V30 5509 H 507.58 1.86434 -0.437554 0
M  V30 5510 H 505.885 3.62606 1.48405 0
M  V30 5511 H 507.582 3.83971 1.15618 0
M  V30 5512 H 504.172 4.28096 -0.207893 0
M  V30 5513 H 508.356 4.86157 -0.998271 0
M  V30 5514 H 503.612 5.74012 -2.10523 0
M  V30 5515 H 507.786 6.33432 -2.89374 0
M  V30 5516 H 505.413 6.77245 -3.45317 0
M  V30 5517 N 506.988 0.0434614 1.5754 0
M  V30 5518 C 508.213 -0.645358 1.97104 0
M  V30 5519 C 508.638 -1.64037 0.920521 0
M  V30 5520 O 507.996 -1.80922 -0.11708 0
M  V30 5521 C 508.044 -1.31547 3.35749 0
M  V30 5522 O 507.148 -2.43103 3.33129 0
M  V30 5523 H 506.489 -0.168403 0.64229 0
M  V30 5524 H 509.019 0.109573 2.04306 0
M  V30 5525 H 509.029 -1.66895 3.72304 0
M  V30 5526 H 507.704 -0.586205 4.11748 0
M  V30 5527 H 506.281 -2.0976 3.0831 0
M  V30 5528 N 508.466 -1.55915 -0.229846 0
M  V30 5529 C 509.398 -1.88209 -1.30805 0
M  V30 5530 C 510.411 -0.769672 -1.43457 0
M  V30 5531 O 511.6 -1.04792 -1.44502 0
M  V30 5532 C 508.7 -2.06829 -2.68468 0
M  V30 5533 C 507.873 -3.37798 -2.77869 0
M  V30 5534 C 506.932 -3.45952 -3.96489 0
M  V30 5535 O 505.958 -4.19043 -3.85216 0
M  V30 5536 N 507.16 -2.76488 -5.10426 0
M  V30 5537 H 509.925 -2.81286 -1.03431 0
M  V30 5538 H 507.486 -1.5636 -0.41991 0
M  V30 5539 H 509.478 -2.09608 -3.46189 0
M  V30 5540 H 508.048 -1.20416 -2.88477 0
M  V30 5541 H 507.268 -3.4719 -1.86689 0
M  V30 5542 H 508.556 -4.24091 -2.81113 0
M  V30 5543 H 507.954 -2.16868 -5.2248 0
M  V30 5544 H 506.511 -2.84938 -5.8622 0
M  V30 5545 N 509.944 0.496216 -1.49584 0
M  V30 5546 C 511.36 0.827814 -1.36453 0
M  V30 5547 C 511.56 1.97464 -0.401285 0
M  V30 5548 O 510.616 2.51958 0.165296 0
M  V30 5549 C 511.929 1.16352 -2.77277 0
M  V30 5550 C 513.477 1.27145 -2.86013 0
M  V30 5551 C 513.952 1.64042 -4.27615 0
M  V30 5552 N 515.443 1.71082 -4.30448 0
M  V30 5553 C 516.178 2.01085 -5.36984 0
M  V30 5554 N 515.674 2.2928 -6.5376 0
M  V30 5555 N 517.467 2.02376 -5.24405 0
M  V30 5556 H 509.618 -0.259947 -2.10803 0
M  V30 5557 H 511.881 -0.0537163 -0.946477 0
M  V30 5558 H 511.587 0.394153 -3.49484 0
M  V30 5559 H 511.461 2.10582 -3.12946 0
M  V30 5560 H 513.848 2.03152 -2.1404 0
M  V30 5561 H 513.929 0.309542 -2.5392 0
M  V30 5562 H 513.573 0.88583 -5.00115 0
M  V30 5563 H 513.503 2.6134 -4.57175 0
M  V30 5564 H 515.994 1.51434 -3.46232 0
M  V30 5565 H 516.307 2.51376 -7.30774 0
M  V30 5566 H 514.652 2.26726 -6.56978 0
M  V30 5567 H 517.843 1.79829 -4.32179 0
M  V30 5568 H 518.016 2.25425 -6.07526 0
M  V30 5569 N 511.423 1.38739 0.74761 0
M  V30 5570 C 512.37 1.36449 1.86146 0
M  V30 5571 C 513.34 0.226098 1.64554 0
M  V30 5572 O 514.525 0.41926 1.86137 0
M  V30 5573 C 511.665 1.2013 3.23516 0
M  V30 5574 C 510.778 2.43407 3.56899 0
M  V30 5575 C 509.913 2.19773 4.83605 0
M  V30 5576 C 508.952 3.3879 5.09792 0
M  V30 5577 N 508.089 3.14553 6.27695 0
M  V30 5578 H 512.929 2.3167 1.87438 0
M  V30 5579 H 510.466 1.15094 0.916063 0
M  V30 5580 H 512.424 1.08683 4.02795 0
M  V30 5581 H 511.054 0.285453 3.21535 0
M  V30 5582 H 510.106 2.65504 2.72418 0
M  V30 5583 H 511.418 3.32094 3.72176 0
M  V30 5584 H 510.572 2.05496 5.70838 0
M  V30 5585 H 509.311 1.28461 4.70478 0
M  V30 5586 H 508.316 3.53579 4.21025 0
M  V30 5587 H 509.541 4.30986 5.24812 0
M  V30 5588 H 507.487 2.25893 6.1588 0
M  V30 5589 H 507.404 3.96791 6.435 0
M  V30 5590 H 508.672 3.03943 7.17801 0
M  V30 5591 N 512.901 -0.976442 1.23707 0
M  V30 5592 C 513.831 -2.08749 1.04624 0
M  V30 5593 C 514.812 -1.70057 -0.0380956 0
M  V30 5594 O 515.997 -1.93782 0.127308 0
M  V30 5595 C 513.127 -3.41335 0.640902 0
M  V30 5596 C 512.081 -3.93947 1.67302 0
M  V30 5597 C 511.407 -5.22774 1.12301 0
M  V30 5598 C 512.707 -4.22769 3.06697 0
M  V30 5599 H 514.401 -2.24972 1.97555 0
M  V30 5600 H 511.947 -1.08108 0.951247 0
M  V30 5601 H 513.9 -4.18489 0.494434 0
M  V30 5602 H 512.624 -3.24988 -0.324099 0
M  V30 5603 H 511.283 -3.18941 1.80755 0
M  V30 5604 H 510.931 -5.0278 0.148877 0
M  V30 5605 H 510.631 -5.58942 1.81267 0
M  V30 5606 H 512.155 -6.02546 0.988479 0
M  V30 5607 H 513.569 -4.90659 2.96524 0
M  V30 5608 H 511.966 -4.70147 3.72937 0
M  V30 5609 H 513.036 -3.29885 3.55392 0
M  V30 5610 N 514.379 -1.04941 -1.1758 0
M  V30 5611 C 515.604 -0.778253 -1.92245 0
M  V30 5612 C 516.029 0.659707 -1.76152 0
M  V30 5613 O 515.387 1.45803 -1.07755 0
M  V30 5614 C 515.435 -1.16051 -3.41416 0
M  V30 5615 O 514.539 -0.291153 -4.11371 0
M  V30 5616 H 513.88 -0.285619 -0.599431 0
M  V30 5617 H 516.41 -1.40159 -1.49052 0
M  V30 5618 H 516.42 -1.12619 -3.92149 0
M  V30 5619 H 515.095 -2.208 -3.52449 0
M  V30 5620 H 513.672 -0.385851 -3.70898 0
M  V30 5621 N 515.857 1.33968 -0.830081 0
M  V30 5622 C 517.085 2.0228 -0.434773 0
M  V30 5623 C 517.5 1.62487 0.961419 0
M  V30 5624 O 516.857 0.833849 1.62337 0
M  V30 5625 C 516.908 3.5751 -0.535625 0
M  V30 5626 O 516.629 3.95864 -1.87679 0
M  V30 5627 C 518.13 4.43091 -0.136137 0
M  V30 5628 H 515.35 0.648151 -0.173613 0
M  V30 5629 H 517.894 1.71089 -1.12022 0
M  V30 5630 H 516.049 3.87266 0.101817 0
M  V30 5631 H 516.463 4.9056 -1.85609 0
M  V30 5632 H 517.937 5.51398 -0.257772 0
M  V30 5633 H 518.414 4.29433 0.921076 0
M  V30 5634 H 519.02 4.18677 -0.747662 0
M  V30 5635 N 517.335 0.585699 1.46312 0
M  V30 5636 C 518.265 -0.133556 2.33118 0
M  V30 5637 C 519.246 -0.880707 1.45525 0
M  V30 5638 O 520.431 -0.855579 1.74337 0
M  V30 5639 C 517.561 -1.14585 3.27853 0
M  V30 5640 C 516.515 -0.513341 4.2491 0
M  V30 5641 C 515.841 -1.63231 5.09175 0
M  V30 5642 C 517.141 0.551413 5.19381 0
M  V30 5643 H 518.835 0.59121 2.93505 0
M  V30 5644 H 516.381 0.285761 1.41136 0
M  V30 5645 H 518.334 -1.65741 3.87438 0
M  V30 5646 H 517.058 -1.90093 2.65579 0
M  V30 5647 H 515.717 -0.0228349 3.66593 0
M  V30 5648 H 515.365 -2.37713 4.43285 0
M  V30 5649 H 515.065 -1.21473 5.74907 0
M  V30 5650 H 516.589 -2.14658 5.71624 0
M  V30 5651 H 518.003 0.124804 5.73164 0
M  V30 5652 H 516.4 0.889486 5.93471 0
M  V30 5653 H 517.47 1.43655 4.63132 0
M  V30 5654 N 518.813 -1.54241 0.323641 0
M  V30 5655 C 519.76 -2.24339 -0.542277 0
M  V30 5656 C 520.73 -1.23421 -1.11159 0
M  V30 5657 O 521.915 -1.52104 -1.15192 0
M  V30 5658 C 519.055 -3.00479 -1.69725 0
M  V30 5659 C 518.168 -4.16214 -1.15716 0
M  V30 5660 C 517.303 -4.79884 -2.27783 0
M  V30 5661 C 516.342 -5.87722 -1.71023 0
M  V30 5662 N 515.479 -6.45254 -2.76752 0
M  V30 5663 H 520.319 -2.97935 0.0620613 0
M  V30 5664 H 517.856 -1.47039 0.0423993 0
M  V30 5665 H 519.814 -3.42869 -2.3769 0
M  V30 5666 H 518.444 -2.29217 -2.27288 0
M  V30 5667 H 517.496 -3.78605 -0.369063 0
M  V30 5668 H 518.808 -4.93838 -0.701832 0
M  V30 5669 H 517.962 -5.25243 -3.03651 0
M  V30 5670 H 516.701 -4.01641 -2.76652 0
M  V30 5671 H 515.706 -5.41765 -0.936518 0
M  V30 5672 H 516.931 -6.67863 -1.2303 0
M  V30 5673 H 514.877 -5.69884 -3.24912 0
M  V30 5674 H 514.794 -7.18292 -2.35782 0
M  V30 5675 H 516.062 -6.95269 -3.5245 0
M  V30 5676 N 520.291 -0.0518155 -1.57515 0
M  V30 5677 C 521.568 0.661727 -1.84067 0
M  V30 5678 C 521.948 1.88999 -0.940351 0
M  V30 5679 O 521.296 2.285 -0.00155404 0
M  V30 5680 C 521.506 1.01841 -3.3381 0
M  V30 5681 C 522.854 1.40043 -4.00841 0
M  V30 5682 O 523.878 1.11073 -3.38439 0
M  V30 5683 O 522.737 1.94111 -5.10865 0
M  V30 5684 H 519.831 0.326702 -0.759733 0
M  V30 5685 H 522.377 -0.0812277 -1.69505 0
M  V30 5686 H 521.149 0.145202 -3.91031 0
M  V30 5687 H 520.772 1.81879 -3.53562 0
M  V30 5688 N 521.769 1.56035 0.221574 0
M  V30 5689 C 522.679 1.95581 1.29558 0
M  V30 5690 C 523.695 0.859639 1.51282 0
M  V30 5691 O 524.871 1.16321 1.64413 0
M  V30 5692 C 521.936 2.26447 2.62531 0
M  V30 5693 C 520.997 3.49632 2.4911 0
M  V30 5694 C 520.23 3.79017 3.75742 0
M  V30 5695 O 520.453 3.10077 4.78757 0
M  V30 5696 O 519.387 4.72507 3.72855 0
M  V30 5697 H 523.213 2.8711 0.990035 0
M  V30 5698 H 520.798 1.43244 0.424434 0
M  V30 5699 H 522.68 2.47494 3.41064 0
M  V30 5700 H 521.355 1.38092 2.92766 0
M  V30 5701 H 520.262 3.33864 1.68777 0
M  V30 5702 H 521.595 4.3837 2.23814 0
M  V30 5703 N 523.247 -0.488276 1.49845 0
M  V30 5704 C 524.472 -1.26997 1.63971 0
M  V30 5705 C 524.897 -1.85427 0.315994 0
M  V30 5706 O 524.255 -1.66475 -0.718032 0
M  V30 5707 C 524.303 -2.36689 2.72049 0
M  V30 5708 O 523.407 -3.40882 2.32107 0
M  V30 5709 H 522.748 -0.374376 0.548396 0
M  V30 5710 H 525.278 -0.583104 1.96115 0
M  V30 5711 H 525.288 -2.82262 2.94605 0
M  V30 5712 H 523.963 -1.93529 3.68129 0
M  V30 5713 H 522.54 -3.01139 2.19931 0
M  V30 5714 N 524.725 -1.39134 -0.740242 0
M  V30 5715 C 525.95 -1.39518 -1.53459 0
M  V30 5716 C 526.375 0.00968883 -1.88098 0
M  V30 5717 O 525.733 0.995312 -1.51536 0
M  V30 5718 C 525.781 -2.26981 -2.802 0
M  V30 5719 O 524.885 -1.69609 -3.75908 0
M  V30 5720 H 524.226 -0.475328 -0.463637 0
M  V30 5721 H 526.756 -1.83064 -0.913717 0
M  V30 5722 H 526.766 -2.41309 -3.28989 0
M  V30 5723 H 525.441 -3.29081 -2.5432 0
M  V30 5724 H 524.018 -1.64495 -3.34658 0
M  V30 5725 N 526.204 0.969867 -1.24223 0
M  V30 5726 C 527.62 1.23809 -1.00716 0
M  V30 5727 C 527.82 1.99469 0.285358 0
M  V30 5728 O 526.876 2.31764 1.00207 0
M  V30 5729 C 528.189 2.02734 -2.2208 0
M  V30 5730 C 529.737 2.15834 -2.26681 0
M  V30 5731 C 530.212 2.98154 -3.47661 0
M  V30 5732 N 531.703 3.05737 -3.47964 0
M  V30 5733 C 532.438 3.69785 -4.38231 0
M  V30 5734 N 531.934 4.35569 -5.3875 0
M  V30 5735 N 533.727 3.66775 -4.25949 0
M  V30 5736 H 525.878 0.463294 -2.07286 0
M  V30 5737 H 528.141 0.267348 -0.909521 0
M  V30 5738 H 527.847 1.54524 -3.15935 0
M  V30 5739 H 527.721 3.0347 -2.24021 0
M  V30 5740 H 530.108 2.63248 -1.33359 0
M  V30 5741 H 530.189 1.14453 -2.28767 0
M  V30 5742 H 529.833 2.51435 -4.41297 0
M  V30 5743 H 529.763 3.99729 -3.42818 0
M  V30 5744 H 532.254 2.58941 -2.75242 0
M  V30 5745 H 532.567 4.82251 -6.03866 0
M  V30 5746 H 530.912 4.34244 -5.42639 0
M  V30 5747 H 534.103 3.14558 -3.46657 0
M  V30 5748 H 534.276 4.16407 -4.96497 0
M  V30 5749 N 527.682 1.05563 1.17022 0
M  V30 5750 C 528.645 0.664098 2.19368 0
M  V30 5751 C 529.645 -0.286358 1.5823 0
M  V30 5752 O 530.835 -0.069728 1.7406 0
M  V30 5753 C 527.967 -0.0239932 3.40892 0
M  V30 5754 H 529.16 1.57 2.55521 0
M  V30 5755 H 526.713 0.849964 1.31169 0
M  V30 5756 H 527.448 -0.942988 3.10287 0
M  V30 5757 H 527.233 0.659351 3.86516 0
M  V30 5758 H 528.723 -0.283909 4.16634 0
M  V30 5759 N 529.16 -1.33526 0.837174 0
M  V30 5760 C 530.406 -1.98541 0.44193 0
M  V30 5761 C 530.761 -1.65124 -0.987517 0
M  V30 5762 O 530.054 -0.919948 -1.6807 0
M  V30 5763 C 530.248 -3.52367 0.597675 0
M  V30 5764 C 530.077 -4.00731 2.04071 0
M  V30 5765 C 528.847 -4.28649 2.67559 0
M  V30 5766 C 531.045 -4.17073 3.00923 0
M  V30 5767 N 529.027 -4.63142 4.02955 0
M  V30 5768 C 530.398 -4.54905 4.21261 0
M  V30 5769 C 532.453 -3.99358 2.97351 0
M  V30 5770 C 531.156 -4.76874 5.38501 0
M  V30 5771 C 533.182 -4.22501 4.1382 0
M  V30 5772 C 532.544 -4.60634 5.32912 0
M  V30 5773 H 528.643 -0.753246 0.210105 0
M  V30 5774 H 531.227 -1.61674 1.08488 0
M  V30 5775 H 529.398 -3.88397 -0.0154658 0
M  V30 5776 H 531.13 -4.04326 0.17404 0
M  V30 5777 H 527.885 -4.20077 2.18706 0
M  V30 5778 H 528.309 -4.84601 4.72748 0
M  V30 5779 H 532.951 -3.68993 2.06408 0
M  V30 5780 H 530.669 -5.06101 6.2999 0
M  V30 5781 H 534.255 -4.10316 4.12471 0
M  V30 5782 H 533.135 -4.78187 6.21536 0
M  V30 5783 N 530.638 -0.59345 -1.46 0
M  V30 5784 C 531.866 -0.0890934 -2.06708 0
M  V30 5785 C 532.281 1.2205 -1.44046 0
M  V30 5786 O 531.638 1.74029 -0.549551 0
M  V30 5787 C 531.689 0.0720263 -3.61428 0
M  V30 5788 O 531.41 -1.18574 -4.21748 0
M  V30 5789 C 532.911 0.609487 -4.3909 0
M  V30 5790 H 530.131 -0.0623628 -0.668096 0
M  V30 5791 H 532.675 -0.817171 -1.87464 0
M  V30 5792 H 530.83 0.750369 -3.80063 0
M  V30 5793 H 531.244 -1.0064 -5.14754 0
M  V30 5794 H 532.718 0.671363 -5.47902 0
M  V30 5795 H 533.195 1.62878 -4.07882 0
M  V30 5796 H 533.801 -0.03434 -4.25286 0
M  V30 5797 N 532.116 1.54067 -0.331816 0
M  V30 5798 C 533.026 2.28322 0.539104 0
M  V30 5799 C 534.042 1.32985 1.1221 0
M  V30 5800 O 535.218 1.6601 1.1403 0
M  V30 5801 C 532.283 3.03277 1.68 0
M  V30 5802 C 531.344 4.14216 1.12798 0
M  V30 5803 C 530.577 4.85588 2.2145 0
M  V30 5804 O 530.8 4.56536 3.41952 0
M  V30 5805 O 529.734 5.72309 1.86404 0
M  V30 5806 H 533.56 3.03632 -0.0641692 0
M  V30 5807 H 531.145 1.49083 -0.0972365 0
M  V30 5808 H 533.027 3.50189 2.34405 0
M  V30 5809 H 531.702 2.30834 2.2693 0
M  V30 5810 H 530.609 3.71635 0.428782 0
M  V30 5811 H 531.942 4.88727 0.583698 0
M  V30 5812 N 533.594 0.0601682 1.57485 0
M  V30 5813 C 534.819 -0.624416 1.97777 0
M  V30 5814 C 535.244 -1.63051 0.937867 0
M  V30 5815 O 534.602 -1.81036 -0.0978845 0
M  V30 5816 C 534.65 -1.27979 3.37126 0
M  V30 5817 O 533.754 -2.39556 3.35688 0
M  V30 5818 H 533.095 -0.161581 0.64404 0
M  V30 5819 H 535.625 0.131237 2.04179 0
M  V30 5820 H 535.635 -1.62937 3.74053 0
M  V30 5821 H 534.31 -0.542501 4.12347 0
M  V30 5822 H 532.887 -2.06478 3.10517 0
M  V30 5823 N 535.072 -1.5615 -0.213296 0
M  V30 5824 C 536.297 -1.83986 -0.957282 0
M  V30 5825 C 536.722 -0.641526 -1.76822 0
M  V30 5826 O 536.08 0.409722 -1.7661 0
M  V30 5827 C 536.128 -3.09889 -1.84393 0
M  V30 5828 O 535.232 -2.89163 -2.94038 0
M  V30 5829 H 534.573 -0.606357 -0.270605 0
M  V30 5830 H 537.103 -2.03369 -0.224111 0
M  V30 5831 H 537.113 -3.40209 -2.25215 0
M  V30 5832 H 535.788 -3.96735 -1.24795 0
M  V30 5833 H 534.365 -2.70097 -2.57103 0
M  V30 5834 N 536.55 0.480323 -1.50102 0
M  V30 5835 C 537.799 1.22979 -1.59872 0
M  V30 5836 C 538.112 1.93282 -0.30022 0
M  V30 5837 O 539.318 2.70086 -0.276709 0
M  V30 5838 C 537.774 2.23408 -2.82164 0
M  V30 5839 C 537.382 1.5895 -4.18854 0
M  V30 5840 C 539.126 2.99055 -3.01275 0
M  V30 5841 C 537.033 2.57611 -5.32344 0
M  V30 5842 H 535.963 0.462707 -0.59533 0
M  V30 5843 H 538.614 0.501291 -1.7652 0
M  V30 5844 H 536.996 2.99511 -2.59055 0
M  V30 5845 H 538.17 0.887 -4.52182 0
M  V30 5846 H 536.485 0.956191 -4.05273 0
M  V30 5847 H 539.082 3.72876 -3.83233 0
M  V30 5848 H 539.425 3.57897 -2.12639 0
M  V30 5849 H 539.958 2.30066 -3.24522 0
M  V30 5850 H 536.697 2.03521 -6.23105 0
M  V30 5851 H 536.217 3.26041 -5.03445 0
M  V30 5852 H 537.896 3.19627 -5.62537 0
M  V30 5853 N 538.028 1.39524 0.732853 0
M  V30 5854 C 538.976 1.38563 1.86824 0
M  V30 5855 C 539.97 0.268467 1.67259 0
M  V30 5856 O 541.176 0.438613 1.74574 0
M  V30 5857 H 537.551 0.432737 0.615014 0
M  V30 5858 H 539.522 2.34328 1.84751 0
M  V30 5859 C 538.271 1.2481 3.24527 0
M  V30 5860 H 537.594 2.10044 3.40179 0
M  V30 5861 H 539.034 1.28194 4.04156 0
M  V30 5862 C 537.493 -0.0432825 3.36872 0
M  V30 5863 O 538.023 -1.01268 3.88726 0
M  V30 5864 N 536.229 -0.107055 2.90403 0
M  V30 5865 H 535.776 0.682512 2.48394 0
M  V30 5866 H 535.734 -0.970618 2.99042 0
M  V30 5867 N 539.506 -0.963266 1.24736 0
M  V30 5868 C 540.734 -1.74166 1.11686 0
M  V30 5869 C 541.149 -1.8589 -0.330187 0
M  V30 5870 O 540.506 -1.35042 -1.2276 0
M  V30 5871 C 540.557 -3.15989 1.75595 0
M  V30 5872 O 540.278 -3.04847 3.14642 0
M  V30 5873 C 541.779 -4.10145 1.68213 0
M  V30 5874 H 538.999 -0.546031 0.389989 0
M  V30 5875 H 541.543 -1.20907 1.64929 0
M  V30 5876 H 539.698 -3.66219 1.26343 0
M  V30 5877 H 540.112 -3.9425 3.4593 0
M  V30 5878 H 541.586 -5.07299 2.17604 0
M  V30 5879 H 542.063 -4.3445 0.644208 0
M  V30 5880 H 542.669 -3.65827 2.16912 0
M  V30 5881 O 541.023 -1.1863 -1.09586 0
M  V30 5882 H 541.714 -0.930355 -1.69894 0
M  V30 END ATOM
M  V30 BEGIN BOND
M  V30 END BOND
M  V30 END CTAB
M  END
$$$$
