drugbank_target|P25963 NF-kappa-B inhibitor alpha (DB00945; DB05983; DB06543)
 OpenBabel12092120333D

  0  0  0     0  0            999 V3000
M  V30 BEGIN CTAB
M  V30 COUNTS 4913 4961 0 0 0
M  V30 BEGIN ATOM
M  V30 1 H -0.908 1.98254 -0.117106 0
M  V30 2 N 0 1.576 0 0
M  V30 3 C 0.933 2.03868 1.02534 0
M  V30 4 C 1.911 0.928543 1.3348 0
M  V30 5 O 3.095 1.19667 1.45644 0
M  V30 6 C 0.222 2.43627 2.35294 0
M  V30 7 C -0.732 3.65373 2.2001 0
M  V30 8 S 0.101 5.13292 1.52614 0
M  V30 9 C 1.257 5.56322 2.86805 0
M  V30 10 H 1.49 2.90518 0.631377 0
M  V30 11 H -0.977 1.52953 0.210867 0
M  V30 12 H 0.981 2.67203 3.11629 0
M  V30 13 H -0.358 1.57376 2.7183 0
M  V30 14 H -1.165 3.90944 3.18086 0
M  V30 15 H -1.563 3.418 1.51819 0
M  V30 16 H 0.729 5.58782 3.83104 0
M  V30 17 H 1.672 6.56266 2.65933 0
M  V30 18 H 2.08 4.83886 2.90714 0
M  V30 19 N 1.4781 -0.272755 1.55222 0
M  V30 20 C 2.7251 -1.00433 1.7584 0
M  V30 21 C 3.0531 -1.86275 0.559629 0
M  V30 22 O 2.3081 -1.90269 -0.457857 0
M  V30 23 C 2.6071 -1.91642 3.01675 0
M  V30 24 C 2.2731 -1.21548 4.34208 0
M  V30 25 C 0.9351 -1.02166 4.70229 0
M  V30 26 C 3.2871 -0.716684 5.16249 0
M  V30 27 C 0.6151 -0.316334 5.85847 0
M  V30 28 C 2.9671 -0.0249476 6.32595 0
M  V30 29 C 1.6311 0.180579 6.67256 0
M  V30 30 H 0.9011 -0.367509 0.643443 0
M  V30 31 H 3.5481 -0.276596 1.89492 0
M  V30 32 H 1.8531 -2.71037 2.82924 0
M  V30 33 H 3.5501 -2.48369 3.14824 0
M  V30 34 H 0.1401 -1.37645 4.05896 0
M  V30 35 H 4.3241 -0.854047 4.88896 0
M  V30 36 H -0.4199 -0.146378 6.11225 0
M  V30 37 H 3.7541 0.369311 6.9542 0
M  V30 38 H 1.3811 0.729098 7.56696 0
M  V30 39 N 2.9562 -1.48159 -0.537278 0
M  V30 40 C 3.8882 -1.58218 -1.65831 0
M  V30 41 C 4.9012 -0.466948 -1.5596 0
M  V30 42 O 6.0902 -0.73747 -1.62553 0
M  V30 43 C 3.1902 -1.48906 -3.04434 0
M  V30 44 C 2.3632 -2.75343 -3.3986 0
M  V30 45 C 1.4222 -2.59588 -4.57712 0
M  V30 46 O 0.4482 -3.33457 -4.61297 0
M  V30 47 N 1.6502 -1.68724 -5.55439 0
M  V30 48 H 4.4152 -2.54891 -1.57641 0
M  V30 49 H 1.9762 -1.4479 -0.724386 0
M  V30 50 H 3.9682 -1.36072 -3.81139 0
M  V30 51 H 2.5382 -0.602368 -3.06741 0
M  V30 52 H 1.7582 -3.02795 -2.52406 0
M  V30 53 H 3.0462 -3.5924 -3.60311 0
M  V30 54 H 2.4442 -1.07898 -5.55315 0
M  V30 55 H 1.0012 -1.61832 -6.3139 0
M  V30 56 N 4.4343 0.785586 -1.36625 0
M  V30 57 C 5.3973 1.87999 -1.31107 0
M  V30 58 C 6.3973 1.59316 -0.217959 0
M  V30 59 O 7.5873 1.67656 -0.472977 0
M  V30 60 C 4.7193 3.24861 -1.03334 0
M  V30 61 H 5.9123 1.94307 -2.2844 0
M  V30 62 H 3.4653 0.983813 -1.21453 0
M  V30 63 H 4.2003 3.24235 -0.0647432 0
M  V30 64 H 3.9853 3.4707 -1.82441 0
M  V30 65 H 5.4753 4.04929 -1.02088 0
M  V30 66 N 5.9124 1.20967 1.01018 0
M  V30 67 C 6.8754 0.965918 2.07853 0
M  V30 68 C 7.8754 -0.0610545 1.60684 0
M  V30 69 O 9.0654 0.175681 1.73312 0
M  V30 70 C 6.1974 0.455513 3.37843 0
M  V30 71 H 7.3904 1.91365 2.3091 0
M  V30 72 H 4.9434 1.02594 1.17916 0
M  V30 73 H 5.6784 -0.497381 3.20463 0
M  V30 74 H 5.4634 1.19622 3.73407 0
M  V30 75 H 6.9534 0.304667 4.16487 0
M  V30 76 N 7.3905 -1.2043 1.01659 0
M  V30 77 C 8.3005 -2.2689 0.596484 0
M  V30 78 C 9.3165 -1.70107 -0.36599 0
M  V30 79 O 10.4925 -2.00117 -0.226942 0
M  V30 80 C 7.5575 -3.4665 -0.0586659 0
M  V30 81 C 6.6185 -4.18662 0.949751 0
M  V30 82 C 5.8515 -5.32705 0.32577 0
M  V30 83 O 6.0745 -5.63656 -0.874509 0
M  V30 84 O 5.0085 -5.92803 1.04249 0
M  V30 85 H 8.8345 -2.65041 1.4828 0
M  V30 86 H 6.4195 -1.27048 0.786082 0
M  V30 87 H 8.3015 -4.19256 -0.424564 0
M  V30 88 H 6.9765 -3.10375 -0.91918 0
M  V30 89 H 5.8835 -3.48229 1.36702 0
M  V30 90 H 7.2165 -4.58878 1.78023 0
M  V30 91 N 8.8686 -0.792821 -1.36206 0
M  V30 92 C 10.2846 -0.474903 -1.52371 0
M  V30 93 C 10.4846 1.00622 -1.74578 0
M  V30 94 O 9.5406 1.79162 -1.77924 0
M  V30 95 C 10.8536 -1.3083 -2.70747 0
M  V30 96 C 12.4016 -1.30234 -2.84619 0
M  V30 97 C 12.8766 -2.11956 -4.06004 0
M  V30 98 N 14.3676 -2.09419 -4.13156 0
M  V30 99 C 15.1026 -2.69419 -5.06163 0
M  V30 100 N 14.5986 -3.3829 -6.04592 0
M  V30 101 N 16.3916 -2.59134 -4.98804 0
M  V30 102 H 8.5426 -1.75222 -1.20046 0
M  V30 103 H 10.8056 -0.745024 -0.586211 0
M  V30 104 H 10.5116 -2.35881 -2.6087 0
M  V30 105 H 10.3856 -0.95196 -3.6499 0
M  V30 106 H 12.7726 -0.259748 -2.93955 0
M  V30 107 H 12.8536 -1.69847 -1.91274 0
M  V30 108 H 12.4976 -3.16248 -3.97429 0
M  V30 109 H 12.4276 -1.69711 -4.98503 0
M  V30 110 H 14.9186 -1.59297 -3.42685 0
M  V30 111 H 15.2316 -3.81394 -6.7213 0
M  V30 112 H 13.5766 -3.42393 -6.04807 0
M  V30 113 H 16.7676 -2.04927 -4.20859 0
M  V30 114 H 16.9406 -3.06185 -5.711 0
M  V30 115 N 10.3467 1.47872 -0.545128 0
M  V30 116 C 11.7577 1.86384 -0.108581 0
M  V30 117 C 12.1087 1.45309 1.31832 0
M  V30 118 O 11.2337 0.850641 1.9898 0
M  V30 119 C 11.8287 3.38265 -0.190274 0
M  V30 120 C 10.3877 3.75914 0.191164 0
M  V30 121 C 9.5347 2.71926 -0.543273 0
M  V30 122 H 12.4857 1.39561 -0.755537 0
M  V30 123 H 12.5067 3.75831 0.594217 0
M  V30 124 H 12.0187 3.6813 -1.2289 0
M  V30 125 H 10.1197 3.51665 1.23136 0
M  V30 126 H 10.2327 4.78836 -0.158987 0
M  V30 127 H 8.5967 2.54697 0.0122495 0
M  V30 128 H 9.3797 3.04634 -1.58282 0
M  V30 129 N 11.8248 0.280983 1.55075 0
M  V30 130 C 12.7568 -0.637268 2.20163 0
M  V30 131 C 13.7698 -1.11298 1.18813 0
M  V30 132 O 14.9588 -1.03388 1.4551 0
M  V30 133 C 12.0588 -1.88199 2.81841 0
M  V30 134 C 11.2318 -1.55211 4.08936 0
M  V30 135 C 10.2908 -2.64991 4.54606 0
M  V30 136 O 9.3168 -2.30929 5.2025 0
M  V30 137 N 10.5188 -3.95161 4.25238 0
M  V30 138 H 13.2838 -0.0801694 2.99593 0
M  V30 139 H 10.8448 0.102329 1.61576 0
M  V30 140 H 12.8368 -2.60948 3.09335 0
M  V30 141 H 11.4068 -2.34799 2.06369 0
M  V30 142 H 10.6268 -0.658185 3.88666 0
M  V30 143 H 11.9148 -1.30681 4.91732 0
M  V30 144 H 11.3128 -4.25653 3.72607 0
M  V30 145 H 9.8698 -4.6427 4.5749 0
M  V30 146 N 13.3029 -1.57598 0.00835791 0
M  V30 147 C 14.2129 -2.12385 -0.996487 0
M  V30 148 C 15.2289 -1.07108 -1.37127 0
M  V30 149 O 16.4049 -1.39055 -1.4569 0
M  V30 150 C 13.4699 -2.62314 -2.26699 0
M  V30 151 C 12.5309 -3.82225 -1.95456 0
M  V30 152 C 11.7639 -4.29763 -3.16449 0
M  V30 153 O 11.9869 -3.76584 -4.28416 0
M  V30 154 O 10.9209 -5.21832 -2.99958 0
M  V30 155 H 14.7469 -2.98479 -0.560725 0
M  V30 156 H 12.3319 -1.47903 -0.210987 0
M  V30 157 H 14.2139 -2.94589 -3.01322 0
M  V30 158 H 12.8889 -1.79313 -2.69497 0
M  V30 159 H 11.7959 -3.54909 -1.18282 0
M  V30 160 H 13.1289 -4.66324 -1.57489 0
M  V30 161 N 14.781 0.264519 -1.55364 0
M  V30 162 C 16.027 0.992314 -1.77552 0
M  V30 163 C 16.382 1.83626 -0.574379 0
M  V30 164 O 15.675 1.86648 0.432782 0
M  V30 165 C 15.869 1.9004 -3.02687 0
M  V30 166 C 15.698 1.14583 -4.34857 0
M  V30 167 C 14.468 0.858068 -4.97961 0
M  V30 168 C 16.666 0.532069 -5.1154 0
M  V30 169 N 14.648 0.0775974 -6.13851 0
M  V30 170 C 16.019 -0.113823 -6.19896 0
M  V30 171 C 18.074 0.440763 -4.95945 0
M  V30 172 C 16.777 -0.842231 -7.14352 0
M  V30 173 C 18.803 -0.274072 -5.90765 0
M  V30 174 C 18.165 -0.90867 -6.98515 0
M  V30 175 H 14.264 0.344811 -0.701875 0
M  V30 176 H 16.848 0.267141 -1.92859 0
M  V30 177 H 15.019 2.59775 -2.88741 0
M  V30 178 H 16.751 2.56243 -3.13243 0
M  V30 179 H 13.506 1.16547 -4.59036 0
M  V30 180 H 13.93 -0.300216 -6.76334 0
M  V30 181 H 18.572 0.917064 -4.12735 0
M  V30 182 H 16.29 -1.33019 -7.97077 0
M  V30 183 H 19.876 -0.345151 -5.80775 0
M  V30 184 H 18.756 -1.45299 -7.70622 0
M  V30 185 N 16.2591 1.48442 0.529413 0
M  V30 186 C 17.2221 1.62524 1.61612 0
M  V30 187 C 18.2221 0.498509 1.52877 0
M  V30 188 O 19.4121 0.76431 1.56537 0
M  V30 189 C 16.5441 1.59597 3.01233 0
M  V30 190 H 17.7371 2.59423 1.50465 0
M  V30 191 H 15.2901 1.37047 0.751514 0
M  V30 192 H 16.0251 0.641781 3.17886 0
M  V30 193 H 15.8101 2.41397 3.08982 0
M  V30 194 H 17.3001 1.72646 3.80241 0
M  V30 195 N 17.7372 -0.778329 1.37039 0
M  V30 196 C 18.6702 -1.8984 1.26633 0
M  V30 197 C 19.6482 -1.61923 0.148197 0
M  V30 198 O 20.8322 -1.85742 0.321265 0
M  V30 199 C 17.9592 -3.24916 0.956403 0
M  V30 200 C 17.0052 -3.71752 2.09051 0
M  V30 201 S 17.8382 -3.86201 3.70957 0
M  V30 202 C 18.9942 -5.24135 3.42101 0
M  V30 203 H 19.2272 -1.98377 2.21436 0
M  V30 204 H 16.7602 -0.938738 1.22585 0
M  V30 205 H 18.7182 -4.02936 0.784409 0
M  V30 206 H 17.3792 -3.14089 0.0259713 0
M  V30 207 H 16.5722 -4.69661 1.8285 0
M  V30 208 H 16.1742 -3.00815 2.2223 0
M  V30 209 H 18.4662 -6.09086 2.96682 0
M  V30 210 H 19.4092 -5.55346 4.39314 0
M  V30 211 H 19.8172 -4.91761 2.77185 0
M  V30 212 N 19.2153 -1.21501 -1.00376 0
M  V30 213 C 20.1253 -0.991447 -2.12621 0
M  V30 214 C 21.1413 0.0568446 -1.73907 0
M  V30 215 O 22.3173 -0.13348 -2.00957 0
M  V30 216 C 19.3823 -0.560312 -3.42142 0
M  V30 217 C 18.4433 -1.68096 -3.95022 0
M  V30 218 C 17.6763 -1.2703 -5.18362 0
M  V30 219 O 17.8993 -0.144438 -5.70217 0
M  V30 220 O 16.8333 -2.08269 -5.64719 0
M  V30 221 H 20.6593 -1.93158 -2.34358 0
M  V30 222 H 18.2443 -0.999999 -1.10997 0
M  V30 223 H 20.1263 -0.329724 -4.20108 0
M  V30 224 H 18.8013 0.351089 -3.2179 0
M  V30 225 H 17.7083 -1.96597 -3.18278 0
M  V30 226 H 19.0413 -2.56983 -4.19786 0
M  V30 227 N 20.6934 1.19889 -1.02296 0
M  V30 228 C 21.9414 1.89046 -0.714558 0
M  V30 229 C 22.2624 1.79636 0.758681 0
M  V30 230 O 21.5324 1.20292 1.54618 0
M  V30 231 H 20.1124 0.699802 -0.261317 0
M  V30 232 H 22.7744 1.45574 -1.29592 0
M  V30 233 H 21.8704 2.95524 -1.0036 0
M  V30 234 N 22.1715 0.800033 1.35784 0
M  V30 235 C 23.5825 0.439142 1.81462 0
M  V30 236 C 23.9335 -1.03813 1.66485 0
M  V30 237 O 23.0585 -1.80626 1.19177 0
M  V30 238 C 23.6535 0.790314 3.29453 0
M  V30 239 C 22.2125 0.482111 3.733 0
M  V30 240 C 21.3595 1.01938 2.57883 0
M  V30 241 H 24.3105 0.992254 1.23855 0
M  V30 242 H 24.3315 0.0853677 3.80404 0
M  V30 243 H 23.8435 1.86554 3.40322 0
M  V30 244 H 21.9445 -0.584652 3.67984 0
M  V30 245 H 22.0575 1.01015 4.6833 0
M  V30 246 H 20.4215 0.442043 2.50835 0
M  V30 247 H 21.2045 2.10059 2.71533 0
M  V30 248 N 23.6496 -1.47581 0.552962 0
M  V30 249 C 25.0656 -1.5818 0.212424 0
M  V30 250 C 25.2656 -1.55213 -1.28496 0
M  V30 251 O 24.3216 -1.45329 -2.06484 0
M  V30 252 C 25.6346 -2.88865 0.835318 0
M  V30 253 C 27.1826 -3.0244 0.806156 0
M  V30 254 C 27.6576 -4.35819 1.40804 0
M  V30 255 N 29.1486 -4.42444 1.37103 0
M  V30 256 C 29.8836 -5.44202 1.80641 0
M  V30 257 N 29.3796 -6.52795 2.32015 0
M  V30 258 N 31.1726 -5.35222 1.71738 0
M  V30 259 H 23.3236 -1.47753 1.52587 0
M  V30 260 H 25.5866 -0.702941 0.636064 0
M  V30 261 H 25.2926 -2.9676 1.88749 0
M  V30 262 H 25.1666 -3.7579 0.325848 0
M  V30 263 H 27.5536 -2.94144 -0.237317 0
M  V30 264 H 27.6346 -2.17068 1.35334 0
M  V30 265 H 27.2786 -4.44871 2.45056 0
M  V30 266 H 27.2086 -5.19916 0.836338 0
M  V30 267 H 29.6996 -3.6456 0.995202 0
M  V30 268 H 30.0126 -7.26609 2.63171 0
M  V30 269 H 28.3576 -6.53696 2.36023 0
M  V30 270 H 31.5486 -4.49284 1.31382 0
M  V30 271 H 31.7216 -6.14389 2.05987 0
M  V30 272 N 25.1277 -0.289203 -1.54924 0
M  V30 273 C 26.4047 0.376032 -1.91951 0
M  V30 274 C 26.7847 1.72622 -1.21511 0
M  V30 275 O 26.1327 2.25853 -0.346767 0
M  V30 276 C 26.3427 0.502378 -3.45365 0
M  V30 277 C 27.6907 0.778741 -4.17398 0
M  V30 278 O 28.7147 0.586647 -3.51336 0
M  V30 279 O 27.5737 1.14698 -5.34328 0
M  V30 280 H 24.6677 0.208167 -0.800372 0
M  V30 281 H 27.2137 -0.336394 -1.66332 0
M  V30 282 H 25.9857 -0.447255 -3.88736 0
M  V30 283 H 25.6087 1.26373 -3.76982 0
M  V30 284 N 26.6058 1.57591 -0.0167156 0
M  V30 285 C 27.8538 1.90906 0.663285 0
M  V30 286 C 28.1748 0.892509 1.73376 0
M  V30 287 O 27.4448 -0.0677623 1.95783 0
M  V30 288 H 26.0248 0.704637 0.247983 0
M  V30 289 H 28.6868 1.94803 -0.0615909 0
M  V30 290 H 27.7828 2.9116 1.12393 0
M  V30 291 N 28.0839 -0.256276 1.55502 0
M  V30 292 C 29.0139 -1.32102 1.92539 0
M  V30 293 C 29.9949 -1.50684 0.789194 0
M  V30 294 O 31.1799 -1.63449 1.04872 0
M  V30 295 C 28.3099 -2.67752 2.21192 0
M  V30 296 C 27.2639 -2.63878 3.36975 0
M  V30 297 C 26.5899 -4.03236 3.51147 0
M  V30 298 C 27.8899 -2.21682 4.72921 0
M  V30 299 H 29.5839 -1.01351 2.81724 0
M  V30 300 H 27.1299 -0.486105 1.35547 0
M  V30 301 H 29.0829 -3.42365 2.45691 0
M  V30 302 H 27.8069 -3.0012 1.28824 0
M  V30 303 H 26.4659 -1.91722 3.12471 0
M  V30 304 H 26.1139 -4.32854 2.56216 0
M  V30 305 H 25.8139 -4.01535 4.29003 0
M  V30 306 H 27.3379 -4.79563 3.77957 0
M  V30 307 H 28.7519 -2.86023 4.96854 0
M  V30 308 H 27.1489 -2.3111 5.53812 0
M  V30 309 H 28.2189 -1.16833 4.70615 0
M  V30 310 N 29.562 -1.4872 -0.521534 0
M  V30 311 C 30.509 -1.63871 -1.62527 0
M  V30 312 C 31.479 -0.480559 -1.58996 0
M  V30 313 O 32.664 -0.705085 -1.77294 0
M  V30 314 C 29.804 -1.69227 -3.00759 0
M  V30 315 C 28.917 -2.96207 -3.14461 0
M  V30 316 C 28.052 -2.92671 -4.43303 0
M  V30 317 C 27.091 -4.14318 -4.50563 0
M  V30 318 N 26.228 -4.0881 -5.70805 0
M  V30 319 H 31.068 -2.58123 -1.48918 0
M  V30 320 H 28.605 -1.28 -0.724878 0
M  V30 321 H 30.563 -1.70314 -3.80853 0
M  V30 322 H 29.193 -0.784586 -3.1312 0
M  V30 323 H 28.245 -3.04826 -2.27564 0
M  V30 324 H 29.557 -3.86192 -3.15686 0
M  V30 325 H 28.711 -2.92206 -5.31696 0
M  V30 326 H 27.45 -2.00429 -4.44612 0
M  V30 327 H 26.455 -4.15049 -3.60575 0
M  V30 328 H 27.68 -5.07729 -4.50986 0
M  V30 329 H 25.626 -3.19394 -5.72995 0
M  V30 330 H 25.543 -4.92509 -5.7356 0
M  V30 331 H 26.811 -4.12418 -6.61462 0
M  V30 332 N 31.0401 0.771051 -1.3745 0
M  V30 333 C 31.9871 1.88435 -1.3327 0
M  V30 334 C 32.9571 1.64914 -0.198136 0
M  V30 335 O 34.1421 1.86821 -0.387606 0
M  V30 336 C 31.2821 3.25509 -1.14622 0
M  V30 337 C 30.3951 3.60979 -2.37314 0
M  V30 338 C 29.5301 4.87265 -2.11533 0
M  V30 339 C 28.5691 5.15469 -3.30088 0
M  V30 340 N 27.7061 6.32944 -3.03853 0
M  V30 341 H 32.5461 1.91344 -2.28455 0
M  V30 342 H 30.0831 0.935466 -1.13523 0
M  V30 343 H 32.0411 4.04582 -1.01831 0
M  V30 344 H 30.6711 3.21974 -0.230837 0
M  V30 345 H 29.7231 2.76885 -2.60842 0
M  V30 346 H 31.0351 3.77759 -3.25729 0
M  V30 347 H 30.1891 5.74244 -1.95777 0
M  V30 348 H 28.9281 4.7259 -1.20457 0
M  V30 349 H 27.9331 4.26966 -3.46382 0
M  V30 350 H 29.1581 5.32052 -4.22016 0
M  V30 351 H 27.1041 6.19625 -2.15407 0
M  V30 352 H 27.0211 6.50143 -3.85812 0
M  V30 353 H 28.2891 7.22857 -2.91716 0
M  V30 354 N 32.5182 1.22032 0.997298 0
M  V30 355 C 33.4282 1.00271 2.12092 0
M  V30 356 C 34.4442 -0.047621 1.73935 0
M  V30 357 O 35.6202 0.144136 2.00884 0
M  V30 358 C 32.6852 0.578449 3.4184 0
M  V30 359 C 31.7462 1.70189 3.94125 0
M  V30 360 C 30.9792 1.29778 5.17681 0
M  V30 361 O 31.2022 0.174676 5.70132 0
M  V30 362 O 30.1362 2.11261 5.63607 0
M  V30 363 H 33.9622 1.94398 2.3333 0
M  V30 364 H 31.5472 1.00587 1.10465 0
M  V30 365 H 33.4292 0.351998 4.19927 0
M  V30 366 H 32.1042 -0.334019 3.21972 0
M  V30 367 H 31.0112 1.98282 3.1723 0
M  V30 368 H 32.3442 2.59206 4.18417 0
M  V30 369 N 33.9963 -1.19345 1.0293 0
M  V30 370 C 35.4123 -1.41069 0.746446 0
M  V30 371 C 35.6123 -1.90078 -0.668776 0
M  V30 372 O 34.6683 -2.0778 -1.4347 0
M  V30 373 C 35.9813 -2.42141 1.78292 0
M  V30 374 C 37.5293 -2.55887 1.80252 0
M  V30 375 C 38.0043 -3.60214 2.8286 0
M  V30 376 N 39.4953 -3.67711 2.81679 0
M  V30 377 C 40.2303 -4.48128 3.57727 0
M  V30 378 N 39.7263 -5.32248 4.43491 0
M  V30 379 N 41.5193 -4.42782 3.46267 0
M  V30 380 H 33.6703 -0.858536 1.94275 0
M  V30 381 H 35.9333 -0.439541 0.839945 0
M  V30 382 H 35.6393 -2.13155 2.79746 0
M  V30 383 H 35.5133 -3.41323 1.60557 0
M  V30 384 H 37.9003 -2.84196 0.794757 0
M  V30 385 H 37.9813 -1.56858 2.02062 0
M  V30 386 H 37.6253 -3.32647 3.83807 0
M  V30 387 H 37.5553 -4.58895 2.58307 0
M  V30 388 H 40.0463 -3.07634 2.19476 0
M  V30 389 H 40.3593 -5.90729 4.98256 0
M  V30 390 H 38.7043 -5.31707 4.47564 0
M  V30 391 H 41.8953 -3.76107 2.78677 0
M  V30 392 H 42.0683 -5.05215 4.05785 0
M  V30 393 N 35.4744 -0.807222 -1.35358 0
M  V30 394 C 36.4044 -0.232509 -2.3234 0
M  V30 395 C 37.3854 0.642386 -1.57504 0
M  V30 396 O 38.5704 0.572526 -1.85569 0
M  V30 397 C 35.7004 0.619238 -3.41735 0
M  V30 398 C 34.6544 -0.157215 -4.27711 0
M  V30 399 C 33.9804 0.816273 -5.28433 0
M  V30 400 C 35.2804 -1.35656 -5.04376 0
M  V30 401 H 36.9744 -1.04276 -2.80654 0
M  V30 402 H 34.5204 -0.50288 -1.34934 0
M  V30 403 H 36.4734 1.03137 -4.08584 0
M  V30 404 H 35.1974 1.46239 -2.92031 0
M  V30 405 H 33.8564 -0.550525 -3.62443 0
M  V30 406 H 33.5044 1.65494 -4.74996 0
M  V30 407 H 33.2044 0.301067 -5.86828 0
M  V30 408 H 34.7284 1.22659 -5.98153 0
M  V30 409 H 36.1424 -1.01927 -5.64166 0
M  V30 410 H 34.5394 -1.8063 -5.7227 0
M  V30 411 H 35.6094 -2.14288 -4.34981 0
M  V30 412 N 36.9525 1.47285 -0.560781 0
M  V30 413 C 37.8825 2.32857 0.173105 0
M  V30 414 C 38.8635 1.44009 0.905281 0
M  V30 415 O 40.0485 1.7286 0.885046 0
M  V30 416 C 37.1785 3.25861 1.20133 0
M  V30 417 C 36.1325 4.23978 0.585388 0
M  V30 418 C 35.4585 5.06332 1.7185 0
M  V30 419 C 36.7585 5.20242 -0.463178 0
M  V30 420 H 38.4525 2.94466 -0.541307 0
M  V30 421 H 35.9985 1.41601 -0.261764 0
M  V30 422 H 37.9515 3.84569 1.72293 0
M  V30 423 H 36.6755 2.62315 1.94573 0
M  V30 424 H 35.3345 3.66501 0.085054 0
M  V30 425 H 34.9825 4.39186 2.45203 0
M  V30 426 H 34.6825 5.72762 1.31213 0
M  V30 427 H 36.2065 5.67899 2.24329 0
M  V30 428 H 37.6205 5.73293 -0.027502 0
M  V30 429 H 36.0175 5.94896 -0.788627 0
M  V30 430 H 37.0875 4.65504 -1.35773 0
M  V30 431 N 38.4306 0.297415 1.54768 0
M  V30 432 C 39.7076 -0.365847 1.92148 0
M  V30 433 C 40.0876 -1.71975 1.22424 0
M  V30 434 O 39.4356 -2.25666 0.358739 0
M  V30 435 C 39.6456 -0.484056 3.45627 0
M  V30 436 C 40.9936 -0.756594 4.17805 0
M  V30 437 O 42.0176 -0.568007 3.51642 0
M  V30 438 O 40.8766 -1.11863 5.34929 0
M  V30 439 H 37.9706 -0.203919 0.801465 0
M  V30 440 H 40.5166 0.34521 1.66152 0
M  V30 441 H 39.2886 0.467865 3.88493 0
M  V30 442 H 38.9116 -1.24372 3.77647 0
M  V30 443 N 39.9087 -1.5758 0.0250728 0
M  V30 444 C 41.1857 -1.82917 -0.692873 0
M  V30 445 C 41.5657 -0.908137 -1.90568 0
M  V30 446 O 40.9137 0.0372298 -2.2847 0
M  V30 447 C 41.1237 -3.32034 -1.07492 0
M  V30 448 C 42.4717 -3.98406 -1.46826 0
M  V30 449 O 43.4957 -3.36505 -1.16801 0
M  V30 450 O 42.3547 -5.07497 -2.02754 0
M  V30 451 H 39.4487 -0.754079 -0.33955 0
M  V30 452 H 41.9947 -1.69619 0.0524456 0
M  V30 453 H 40.7667 -3.90728 -0.211552 0
M  V30 454 H 40.3897 -3.50424 -1.87854 0
M  V30 455 N 41.3868 0.248026 -1.55636 0
M  V30 456 C 42.8028 0.596483 -1.48035 0
M  V30 457 C 43.0028 1.88386 -0.715039 0
M  V30 458 O 42.0588 2.51319 -0.243944 0
M  V30 459 C 43.3718 0.700258 -2.92433 0
M  V30 460 C 44.9198 0.792659 -3.02797 0
M  V30 461 C 45.3948 0.928005 -4.485 0
M  V30 462 N 46.8858 0.992903 -4.52433 0
M  V30 463 C 47.6208 1.11687 -5.62418 0
M  V30 464 N 47.1168 1.20645 -6.82214 0
M  V30 465 N 48.9098 1.14994 -5.50212 0
M  V30 466 H 41.0608 -0.597109 -2.03834 0
M  V30 467 H 43.3238 -0.205925 -0.925364 0
M  V30 468 H 43.0298 -0.175658 -3.51261 0
M  V30 469 H 42.9038 1.57255 -3.42857 0
M  V30 470 H 45.2908 1.65903 -2.4405 0
M  V30 471 H 45.3718 -0.104762 -2.55585 0
M  V30 472 H 45.0158 0.0661971 -5.07857 0
M  V30 473 H 44.9458 1.84045 -4.93391 0
M  V30 474 H 47.4368 0.935064 -3.66149 0
M  V30 475 H 47.7498 1.30008 -7.61786 0
M  V30 476 H 46.0948 1.17605 -6.84977 0
M  V30 477 H 49.2858 1.07643 -4.55555 0
M  V30 478 H 49.4588 1.24311 -6.35965 0
M  V30 479 N 42.8649 1.48995 0.513639 0
M  V30 480 C 43.8149 1.61127 1.61314 0
M  V30 481 C 44.7989 0.467521 1.53958 0
M  V30 482 O 45.9909 0.719826 1.61702 0
M  V30 483 C 43.1199 1.66937 2.99978 0
M  V30 484 C 42.2059 2.86847 3.12377 0
M  V30 485 N 42.5969 4.11078 2.94701 0
M  V30 486 C 40.8949 2.84521 3.43459 0
M  V30 487 C 41.5959 4.91615 3.10949 0
M  V30 488 N 40.5719 4.24739 3.3926 0
M  V30 489 H 44.3739 2.54909 1.46282 0
M  V30 490 H 41.8879 1.45593 0.719483 0
M  V30 491 H 43.8849 1.73725 3.78979 0
M  V30 492 H 42.5449 0.742831 3.16089 0
M  V30 493 H 43.5559 4.41258 2.71131 0
M  V30 494 H 40.2329 2.01192 3.65825 0
M  V30 495 H 41.6229 6.00264 3.01882 0
M  V30 496 N 44.343 -0.763751 1.37857 0
M  V30 497 C 45.62 -1.51244 1.24035 0
M  V30 498 C 46 -2.10472 -0.162649 0
M  V30 499 O 45.348 -1.96206 -1.17112 0
M  V30 500 C 45.558 -2.58694 2.34261 0
M  V30 501 C 46.906 -3.25878 2.72193 0
M  V30 502 O 47.93 -2.68993 2.33497 0
M  V30 503 O 46.789 -4.2874 3.38887 0
M  V30 504 H 43.883 -0.670243 0.484462 0
M  V30 505 H 46.429 -0.800031 1.49658 0
M  V30 506 H 45.201 -2.13105 3.2818 0
M  V30 507 H 44.824 -3.37527 2.10146 0
M  V30 508 N 45.8211 -1.22559 -0.990812 0
M  V30 509 C 47.0461 -1.07862 -1.77145 0
M  V30 510 C 47.4711 0.366447 -1.84496 0
M  V30 511 O 46.8291 1.26478 -1.29896 0
M  V30 512 C 46.8771 -1.69686 -3.18181 0
M  V30 513 O 45.9811 -0.951946 -4.01263 0
M  V30 514 H 45.3221 -0.378712 -0.545411 0
M  V30 515 H 47.8521 -1.62399 -1.2445 0
M  V30 516 H 47.8621 -1.74496 -3.68802 0
M  V30 517 H 46.5371 -2.74841 -3.12146 0
M  V30 518 H 45.1141 -0.980011 -3.59792 0
M  V30 519 N 47.2992 1.18797 -1.03562 0
M  V30 520 C 48.5472 1.88278 -0.734569 0
M  V30 521 C 48.8682 1.8043 0.739586 0
M  V30 522 O 48.1382 1.21925 1.53333 0
M  V30 523 H 46.7182 0.696991 -0.268725 0
M  V30 524 H 49.3802 1.44192 -1.31129 0
M  V30 525 H 48.4762 2.94443 -1.03489 0
M  V30 526 N 48.7773 0.814389 1.34928 0
M  V30 527 C 49.7073 0.244827 2.32213 0
M  V30 528 C 50.6883 -0.634024 1.57842 0
M  V30 529 O 51.8733 -0.562676 1.8587 0
M  V30 530 C 49.0033 -0.601106 3.42058 0
M  V30 531 C 47.9573 0.179896 4.27622 0
M  V30 532 C 47.2833 -0.788237 5.28858 0
M  V30 533 C 48.5833 1.38329 5.03649 0
M  V30 534 H 50.2773 1.05763 2.80097 0
M  V30 535 H 47.8233 0.510029 1.34665 0
M  V30 536 H 49.7763 -1.00968 4.09125 0
M  V30 537 H 48.5003 -1.44688 2.92802 0
M  V30 538 H 47.1593 0.569739 3.62146 0
M  V30 539 H 46.8073 -1.62973 4.75866 0
M  V30 540 H 46.5073 -0.269942 5.8698 0
M  V30 541 H 48.0313 -1.19485 5.98795 0
M  V30 542 H 49.4453 1.04918 5.63618 0
M  V30 543 H 47.8423 1.83662 5.71304 0
M  V30 544 H 48.9123 2.16592 4.33839 0
M  V30 545 N 50.2554 -1.46986 0.568584 0
M  V30 546 C 51.5324 -1.95592 -0.0174074 0
M  V30 547 C 51.9124 -1.51124 -1.47393 0
M  V30 548 O 51.2604 -0.755329 -2.15655 0
M  V30 549 C 51.4704 -3.48719 0.139913 0
M  V30 550 C 52.8184 -4.246 0.000426376 0
M  V30 551 O 53.8424 -3.56135 0.0680316 0
M  V30 552 O 52.7014 -5.46302 -0.146988 0
M  V30 553 H 49.7954 -0.82498 -0.0577599 0
M  V30 554 H 52.3414 -1.57335 0.635909 0
M  V30 555 H 51.1134 -3.73927 1.15301 0
M  V30 556 H 50.7364 -3.93771 -0.550491 0
M  V30 557 N 51.7335 -0.305618 -1.54608 0
M  V30 558 C 52.9585 0.307562 -2.05107 0
M  V30 559 C 53.3835 1.46385 -1.18123 0
M  V30 560 O 52.7415 1.8034 -0.186324 0
M  V30 561 C 52.7895 0.73704 -3.52987 0
M  V30 562 O 51.8935 1.84134 -3.6901 0
M  V30 563 H 51.2345 0.0589143 -0.661381 0
M  V30 564 H 53.7645 -0.448807 -1.99617 0
M  V30 565 H 53.7745 1.02459 -3.94925 0
M  V30 566 H 52.4495 -0.108773 -4.15758 0
M  V30 567 H 51.0265 1.55398 -3.38978 0
M  V30 568 N 53.2116 1.57565 -0.0334293 0
M  V30 569 C 54.1446 2.05997 0.981866 0
M  V30 570 C 55.1226 0.956647 1.3148 0
M  V30 571 O 56.3066 1.22729 1.43073 0
M  V30 572 C 53.4336 2.48564 2.30074 0
M  V30 573 C 52.4796 3.69958 2.12211 0
M  V30 574 S 53.3126 5.16414 1.41692 0
M  V30 575 C 54.4686 5.6228 2.7494 0
M  V30 576 H 54.7016 2.91792 0.569612 0
M  V30 577 H 52.2346 1.53366 0.178376 0
M  V30 578 H 54.1926 2.73753 3.05892 0
M  V30 579 H 52.8536 1.63106 2.68431 0
M  V30 580 H 52.0466 3.97603 3.09722 0
M  V30 581 H 51.6486 3.44943 1.44535 0
M  V30 582 H 53.9406 5.66783 3.71165 0
M  V30 583 H 54.8836 6.61759 2.51953 0
M  V30 584 H 55.2916 4.89944 2.80384 0
M  V30 585 N 54.6897 -0.239769 1.55765 0
M  V30 586 C 55.6367 -1.29696 1.90913 0
M  V30 587 C 56.6067 -1.47478 0.764164 0
M  V30 588 O 57.7917 -1.61345 1.01845 0
M  V30 589 C 54.9317 -2.64598 2.21544 0
M  V30 590 C 54.0447 -2.54765 3.48882 0
M  V30 591 C 53.1797 -3.82069 3.69049 0
M  V30 592 C 52.2187 -3.66883 4.89963 0
M  V30 593 N 51.3557 -4.86094 5.06614 0
M  V30 594 H 56.1957 -0.990224 2.81067 0
M  V30 595 H 53.7327 -0.477684 1.39128 0
M  V30 596 H 55.6907 -3.43132 2.3731 0
M  V30 597 H 54.3207 -2.93405 1.34585 0
M  V30 598 H 53.3727 -1.67763 3.41409 0
M  V30 599 H 54.6847 -2.39457 4.37563 0
M  V30 600 H 53.8387 -4.69046 3.84812 0
M  V30 601 H 52.5777 -4.00282 2.78614 0
M  V30 602 H 51.5827 -2.78289 4.74168 0
M  V30 603 H 52.8077 -3.50157 5.81865 0
M  V30 604 H 50.7537 -5.04655 4.19117 0
M  V30 605 H 50.6707 -4.73443 5.89396 0
M  V30 606 H 51.9387 -5.74549 5.26795 0
M  V30 607 N 56.1678 -1.49265 -0.50573 0
M  V30 608 C 57.4448 -1.49012 -1.26707 0
M  V30 609 C 57.8248 -0.215205 -2.1 0
M  V30 610 O 57.1728 0.802547 -2.13943 0
M  V30 611 C 57.3828 -2.7663 -2.12783 0
M  V30 612 C 58.7308 -3.25932 -2.72127 0
M  V30 613 O 59.7548 -2.77715 -2.23054 0
M  V30 614 O 58.6138 -4.09897 -3.61451 0
M  V30 615 H 55.7078 -0.596197 -0.57313 0
M  V30 616 H 58.2538 -1.61524 -0.52039 0
M  V30 617 H 57.0258 -3.60916 -1.5118 0
M  V30 618 H 56.6488 -2.66956 -2.94653 0
M  V30 619 N 57.6459 0.756429 -1.3826 0
M  V30 620 C 58.5559 1.9009 -1.37488 0
M  V30 621 C 59.5719 1.71855 -0.272366 0
M  V30 622 O 60.7479 1.94827 -0.510318 0
M  V30 623 C 57.8129 3.25421 -1.19592 0
M  V30 624 C 56.8739 3.56202 -2.39622 0
M  V30 625 C 56.1069 4.85075 -2.2257 0
M  V30 626 O 56.3299 5.57246 -1.21793 0
M  V30 627 O 55.2639 5.15269 -3.11098 0
M  V30 628 H 59.0899 1.93695 -2.33914 0
M  V30 629 H 56.6749 0.901313 -1.1915 0
M  V30 630 H 58.5569 4.06337 -1.11661 0
M  V30 631 H 57.2319 3.22634 -0.262486 0
M  V30 632 H 56.1389 2.75458 -2.53128 0
M  V30 633 H 57.4719 3.63747 -3.31586 0
M  V30 634 N 59.124 1.23083 0.984299 0
M  V30 635 C 60.034 1.02515 2.11016 0
M  V30 636 C 61.05 -0.0291702 1.73976 0
M  V30 637 O 62.226 0.165434 2.00719 0
M  V30 638 C 59.291 0.614673 3.41208 0
M  V30 639 C 58.352 1.74359 3.92297 0
M  V30 640 C 57.585 1.35261 5.16275 0
M  V30 641 O 57.808 0.235136 5.69915 0
M  V30 642 O 56.742 2.17227 5.61334 0
M  V30 643 H 60.568 1.96862 2.31255 0
M  V30 644 H 58.153 1.01753 1.09392 0
M  V30 645 H 60.035 0.396518 4.1953 0
M  V30 646 H 58.71 -0.299851 3.22308 0
M  V30 647 H 57.617 2.01635 3.1511 0
M  V30 648 H 58.95 2.63629 4.15645 0
M  V30 649 N 60.6021 -1.18246 1.0419 0
M  V30 650 C 61.8321 -1.91916 0.764961 0
M  V30 651 C 62.2401 -1.76485 -0.681898 0
M  V30 652 O 61.5831 -1.09275 -1.47664 0
M  V30 653 C 61.6451 -3.4373 1.05309 0
M  V30 654 C 61.3091 -3.8294 2.4941 0
M  V30 655 C 62.3061 -3.86621 3.47592 0
M  V30 656 C 59.9911 -4.142 2.84155 0
M  V30 657 C 61.9851 -4.21013 4.78568 0
M  V30 658 C 59.6721 -4.48262 4.15337 0
M  V30 659 C 60.6701 -4.51645 5.12353 0
M  V30 660 O 60.3581 -4.84911 6.41183 0
M  V30 661 H 60.0901 -0.61606 0.278292 0
M  V30 662 H 62.6441 -1.50947 1.39299 0
M  V30 663 H 60.8741 -3.84946 0.367933 0
M  V30 664 H 62.5631 -3.9865 0.763752 0
M  V30 665 H 63.3291 -3.62607 3.22089 0
M  V30 666 H 59.2081 -4.10743 2.09311 0
M  V30 667 H 62.7521 -4.23568 5.54289 0
M  V30 668 H 58.6491 -4.71737 4.40607 0
M  V30 669 H 59.4171 -5.02809 6.45852 0
M  V30 670 N 62.0802 -0.821533 -1.34494 0
M  V30 671 C 62.9902 -0.244355 -2.33324 0
M  V30 672 C 64.0062 0.620527 -1.62559 0
M  V30 673 O 65.1822 0.528754 -1.94335 0
M  V30 674 C 62.2472 0.585368 -3.41723 0
M  V30 675 C 61.3082 -0.301752 -4.28238 0
M  V30 676 C 60.5412 0.488466 -5.3146 0
M  V30 677 O 60.7642 1.72186 -5.4379 0
M  V30 678 O 59.6982 -0.12848 -6.01763 0
M  V30 679 H 63.5242 -1.06231 -2.84515 0
M  V30 680 H 61.1092 -0.583645 -1.37528 0
M  V30 681 H 62.9912 1.05747 -4.07916 0
M  V30 682 H 61.6662 1.38068 -2.92778 0
M  V30 683 H 60.5732 -0.821315 -3.64973 0
M  V30 684 H 61.9062 -1.06138 -4.8062 0
M  V30 685 N 63.5583 1.46682 -0.576371 0
M  V30 686 C 64.4903 2.28341 0.198231 0
M  V30 687 C 65.5033 1.38141 0.861453 0
M  V30 688 O 66.6923 1.62797 0.732082 0
M  V30 689 C 63.7923 3.12986 1.29972 0
M  V30 690 C 62.9653 4.31271 0.729639 0
M  V30 691 C 62.0243 4.97363 1.71803 0
M  V30 692 O 61.0503 5.55156 1.25658 0
M  V30 693 N 62.2523 4.93796 3.05198 0
M  V30 694 H 65.0173 2.9546 -0.502324 0
M  V30 695 H 62.5783 1.56525 -0.413715 0
M  V30 696 H 64.5703 3.54066 1.96008 0
M  V30 697 H 63.1403 2.47984 1.90323 0
M  V30 698 H 62.3603 3.94052 -0.108012 0
M  V30 699 H 63.6483 5.07739 0.328438 0
M  V30 700 H 63.0463 4.48077 3.45317 0
M  V30 701 H 61.6033 5.38837 3.6674 0
M  V30 702 N 65.0364 0.313813 1.54444 0
M  V30 703 C 65.9694 -0.598866 2.20202 0
M  V30 704 C 66.9474 -1.12318 1.17573 0
M  V30 705 O 68.1314 -1.18899 1.46271 0
M  V30 706 C 65.2584 -1.82071 2.85601 0
M  V30 707 C 64.3044 -1.42851 4.01865 0
M  V30 708 S 65.1374 -0.473512 5.33402 0
M  V30 709 C 66.2934 -1.70286 6.0229 0
M  V30 710 H 66.5264 -0.0402532 2.97273 0
M  V30 711 H 64.0594 0.0979165 1.54089 0
M  V30 712 H 66.0174 -2.52184 3.23904 0
M  V30 713 H 64.6784 -2.3505 2.08351 0
M  V30 714 H 63.8714 -2.33871 4.46453 0
M  V30 715 H 63.4734 -0.807198 3.65185 0
M  V30 716 H 65.7654 -2.64168 6.23876 0
M  V30 717 H 66.7084 -1.29932 6.96077 0
M  V30 718 H 67.1164 -1.88541 5.32083 0
M  V30 719 N 66.5145 -1.57545 0.0417849 0
M  V30 720 C 67.7605 -1.92601 -0.635021 0
M  V30 721 C 68.0935 -0.919627 -1.71045 0
M  V30 722 O 67.3685 0.0557892 -1.9442 0
M  V30 723 C 67.6515 -3.38085 -1.23979 0
M  V30 724 C 67.5045 -4.49467 -0.173057 0
M  V30 725 C 68.8235 -3.83776 -2.15416 0
M  V30 726 H 65.9425 -0.700397 -0.229374 0
M  V30 727 H 68.5845 -1.89728 0.101633 0
M  V30 728 H 66.7345 -3.40664 -1.86762 0
M  V30 729 H 68.4065 -4.59018 0.458312 0
M  V30 730 H 66.6495 -4.30909 0.499996 0
M  V30 731 H 67.3205 -5.48323 -0.636054 0
M  V30 732 H 69.7965 -3.83013 -1.62605 0
M  V30 733 H 68.6725 -4.8624 -2.54679 0
M  V30 734 H 68.9335 -3.19998 -3.05047 0
M  V30 735 N 67.9926 0.231505 -1.5589 0
M  V30 736 C 68.9396 1.28682 -1.91598 0
M  V30 737 C 69.9096 1.47071 -0.771974 0
M  V30 738 O 71.0946 1.60802 -1.027 0
M  V30 739 C 68.2346 2.6342 -2.22944 0
M  V30 740 C 67.3476 2.52912 -3.50228 0
M  V30 741 C 66.4826 3.80106 -3.7107 0
M  V30 742 C 65.5216 3.64279 -4.91902 0
M  V30 743 N 64.6586 4.834 -5.09184 0
M  V30 744 H 69.4986 0.975305 -2.81588 0
M  V30 745 H 67.0356 0.470299 -1.39379 0
M  V30 746 H 68.9936 3.41869 -2.39126 0
M  V30 747 H 67.6236 2.92687 -1.36139 0
M  V30 748 H 66.6756 1.6595 -3.42294 0
M  V30 749 H 67.9876 2.37133 -4.38827 0
M  V30 750 H 67.1416 4.66999 -3.87295 0
M  V30 751 H 65.8806 3.98799 -2.80733 0
M  V30 752 H 64.8856 2.7577 -4.75637 0
M  V30 753 H 66.1106 3.47067 -5.83714 0
M  V30 754 H 64.0566 5.02425 -4.21788 0
M  V30 755 H 63.9736 4.70311 -5.91898 0
M  V30 756 H 65.2416 5.71747 -5.29835 0
M  V30 757 N 69.4707 1.49531 0.497807 0
M  V30 758 C 70.3807 1.69176 1.62532 0
M  V30 759 C 71.3967 0.5744 1.64246 0
M  V30 760 O 72.5727 0.849497 1.82608 0
M  V30 761 C 69.6377 1.75695 2.98885 0
M  V30 762 C 68.6987 2.9929 3.07773 0
M  V30 763 C 67.9317 3.05488 4.37622 0
M  V30 764 O 68.1547 2.19192 5.26603 0
M  V30 765 O 67.0887 3.9798 4.51548 0
M  V30 766 H 70.9147 2.647 1.48887 0
M  V30 767 H 68.4997 1.3331 0.674441 0
M  V30 768 H 70.3817 1.82317 3.79919 0
M  V30 769 H 69.0567 0.8335 3.12785 0
M  V30 770 H 67.9637 2.98183 2.25915 0
M  V30 771 H 69.2967 3.91125 2.98801 0
M  V30 772 N 70.9488 -0.749086 1.3866 0
M  V30 773 C 71.8788 -1.8764 1.38973 0
M  V30 774 C 72.8598 -1.68178 0.255004 0
M  V30 775 O 74.0448 -1.88704 0.458754 0
M  V30 776 C 71.1748 -3.25222 1.21851 0
M  V30 777 C 70.1288 -3.59295 2.32575 0
M  V30 778 C 69.4548 -4.95663 2.00555 0
M  V30 779 C 70.7548 -3.63709 3.7485 0
M  V30 780 H 72.4488 -1.87635 2.3331 0
M  V30 781 H 69.9948 -0.901329 1.12303 0
M  V30 782 H 71.9478 -4.03746 1.20695 0
M  V30 783 H 70.6718 -3.25719 0.239775 0
M  V30 784 H 69.3308 -2.83093 2.32925 0
M  V30 785 H 68.9788 -4.92724 1.01154 0
M  V30 786 H 68.6788 -5.19429 2.74714 0
M  V30 787 H 70.2028 -5.7656 2.01024 0
M  V30 788 H 71.6168 -4.32338 3.76506 0
M  V30 789 H 70.0138 -3.98986 4.48252 0
M  V30 790 H 71.0838 -2.63834 4.06841 0
M  V30 791 N 72.4269 -1.23603 -0.977757 0
M  V30 792 C 73.3589 -0.977369 -2.07317 0
M  V30 793 C 74.3719 0.0495845 -1.62724 0
M  V30 794 O 75.5609 -0.186261 -1.77526 0
M  V30 795 C 72.6609 -0.451216 -3.35883 0
M  V30 796 C 71.8339 -1.53896 -4.09432 0
M  V30 797 C 70.8929 -1.01721 -5.16274 0
M  V30 798 O 69.9189 -1.70676 -5.43009 0
M  V30 799 N 71.1209 0.153594 -5.80297 0
M  V30 800 H 73.8859 -1.92047 -2.30082 0
M  V30 801 H 71.4469 -1.14497 -1.14465 0
M  V30 802 H 73.4389 -0.0871574 -4.04606 0
M  V30 803 H 72.0089 0.397368 -3.10064 0
M  V30 804 H 71.2289 -2.07566 -3.35127 0
M  V30 805 H 72.5169 -2.27037 -4.55337 0
M  V30 806 H 71.9149 0.730323 -5.60966 0
M  V30 807 H 70.4719 0.458892 -6.50183 0
M  V30 808 N 73.905 1.17692 -1.04816 0
M  V30 809 C 74.815 2.25229 -0.65643 0
M  V30 810 C 75.831 1.71018 0.320761 0
M  V30 811 O 77.007 2.00649 0.173805 0
M  V30 812 C 74.072 3.46684 -0.0332629 0
M  V30 813 C 73.133 4.15997 -1.06042 0
M  V30 814 C 72.366 5.31654 -0.466893 0
M  V30 815 O 72.589 5.65777 0.724758 0
M  V30 816 O 71.523 5.89831 -1.1993 0
M  V30 817 H 75.349 2.61016 -1.55255 0
M  V30 818 H 72.934 1.24919 -0.81949 0
M  V30 819 H 74.816 4.20234 0.313256 0
M  V30 820 H 73.491 3.12703 0.836566 0
M  V30 821 H 72.398 3.44482 -1.45886 0
M  V30 822 H 73.731 4.53996 -1.90127 0
M  V30 823 N 75.3831 0.828654 1.34056 0
M  V30 824 C 76.6321 0.415828 1.97367 0
M  V30 825 C 76.9451 -1.02796 1.6641 0
M  V30 826 O 78.1511 -1.54497 2.23255 0
M  V30 827 C 76.6071 0.692601 3.53173 0
M  V30 828 C 76.2151 2.15038 3.93017 0
M  V30 829 C 77.9591 0.346222 4.23086 0
M  V30 830 C 75.8661 2.37174 5.41758 0
M  V30 831 H 74.7961 0.151755 0.738571 0
M  V30 832 H 77.4471 1.01581 1.52819 0
M  V30 833 H 75.8291 0.0223764 3.95994 0
M  V30 834 H 77.0031 2.86024 3.61285 0
M  V30 835 H 75.3181 2.45875 3.36057 0
M  V30 836 H 77.9151 0.48937 5.32456 0
M  V30 837 H 78.2581 -0.709842 4.10204 0
M  V30 838 H 78.7911 0.971258 3.85761 0
M  V30 839 H 75.5301 3.41308 5.59633 0
M  V30 840 H 75.0501 1.70738 5.74986 0
M  V30 841 H 76.7291 2.19818 6.08514 0
M  V30 842 N 76.8612 -1.46375 0.584142 0
M  V30 843 C 78.2772 -1.57694 0.245929 0
M  V30 844 C 78.4772 -1.57903 -1.25175 0
M  V30 845 O 77.5332 -1.49676 -2.03355 0
M  V30 846 C 78.8462 -2.87028 0.896402 0
M  V30 847 C 80.3942 -3.00662 0.870127 0
M  V30 848 C 80.8692 -4.32734 1.50017 0
M  V30 849 N 82.3602 -4.39436 1.46458 0
M  V30 850 C 83.0952 -5.40248 1.92144 0
M  V30 851 N 82.5912 -6.47726 2.4581 0
M  V30 852 N 84.3842 -5.31459 1.83052 0
M  V30 853 H 76.5352 -1.44483 1.55687 0
M  V30 854 H 78.7982 -0.689291 0.650831 0
M  V30 855 H 78.5042 -2.9269 1.95002 0
M  V30 856 H 78.3782 -3.75014 0.405486 0
M  V30 857 H 80.7652 -2.94581 -0.174871 0
M  V30 858 H 80.8462 -2.14148 1.39908 0
M  V30 859 H 80.4902 -4.39573 2.54437 0
M  V30 860 H 80.4202 -5.18025 0.946432 0
M  V30 861 H 82.9112 -3.62367 1.07231 0
M  V30 862 H 83.2242 -7.20863 2.78525 0
M  V30 863 H 81.5692 -6.48542 2.49836 0
M  V30 864 H 84.7602 -4.46396 1.40883 0
M  V30 865 H 84.9332 -6.09881 2.18973 0
M  V30 866 N 78.3393 -0.321999 -1.54275 0
M  V30 867 C 79.2693 0.537411 -2.27231 0
M  V30 868 C 80.2503 1.12064 -1.27968 0
M  V30 869 O 81.4353 1.14606 -1.56777 0
M  V30 870 C 78.5653 1.69919 -3.02894 0
M  V30 871 C 77.5193 1.24534 -4.09482 0
M  V30 872 C 76.8453 2.49394 -4.72977 0
M  V30 873 C 78.1453 0.361335 -5.21049 0
M  V30 874 H 79.8393 -0.0711406 -2.99315 0
M  V30 875 H 77.3853 -0.0356555 -1.43956 0
M  V30 876 H 79.3383 2.30668 -3.52662 0
M  V30 877 H 78.0623 2.33431 -2.28424 0
M  V30 878 H 76.7213 0.660782 -3.60596 0
M  V30 879 H 76.3693 3.11265 -3.95124 0
M  V30 880 H 76.0693 2.19718 -5.44975 0
M  V30 881 H 77.5933 3.10908 -5.25517 0
M  V30 882 H 79.0073 0.875072 -5.66582 0
M  V30 883 H 77.4043 0.157428 -5.99893 0
M  V30 884 H 78.4743 -0.60822 -4.8107 0
M  V30 885 N 79.8174 1.5752 -0.0501392 0
M  V30 886 C 80.7274 2.14952 0.939827 0
M  V30 887 C 81.7434 1.10706 1.34239 0
M  V30 888 O 82.9194 1.42869 1.41952 0
M  V30 889 C 79.9844 2.68232 2.19665 0
M  V30 890 C 79.0454 3.87272 1.85253 0
M  V30 891 C 78.2784 4.38002 3.04943 0
M  V30 892 O 78.5014 3.87811 4.18281 0
M  V30 893 O 77.4354 5.29602 2.86017 0
M  V30 894 H 81.2614 2.9986 0.481392 0
M  V30 895 H 78.8464 1.4841 0.171699 0
M  V30 896 H 80.7284 3.02475 2.93406 0
M  V30 897 H 79.4034 1.86395 2.64648 0
M  V30 898 H 78.3104 3.5792 1.0883 0
M  V30 899 H 79.6434 4.70336 1.4507 0
M  V30 900 N 81.2955 -0.223234 1.56011 0
M  V30 901 C 82.7065 -0.790368 1.69145 0
M  V30 902 C 83.0575 -1.85055 0.651845 0
M  V30 903 O 82.1825 -2.15498 -0.197359 0
M  V30 904 C 82.7775 -1.4404 3.06656 0
M  V30 905 C 81.3365 -1.95494 3.2165 0
M  V30 906 C 80.4835 -0.814506 2.65068 0
M  V30 907 H 83.4345 0.00139011 1.587 0
M  V30 908 H 83.4555 -2.30916 3.0242 0
M  V30 909 H 82.9675 -0.668543 3.82298 0
M  V30 910 H 81.0685 -2.75487 2.50874 0
M  V30 911 H 81.1815 -2.13607 4.28846 0
M  V30 912 H 79.5455 -1.22137 2.23505 0
M  V30 913 H 80.3285 -0.0553515 3.43255 0
M  V30 914 N 82.7736 -1.49793 -0.48987 0
M  V30 915 C 83.7056 -1.63413 -1.60713 0
M  V30 916 C 84.7186 -0.516329 -1.54395 0
M  V30 917 O 85.9076 -0.788812 -1.60125 0
M  V30 918 C 83.0076 -1.58516 -2.99543 0
M  V30 919 C 82.1806 -2.86016 -3.30928 0
M  V30 920 C 81.2396 -2.74018 -4.49222 0
M  V30 921 O 80.2656 -3.47964 -4.50455 0
M  V30 922 N 81.4676 -1.86309 -5.4979 0
M  V30 923 H 84.2326 -2.59777 -1.49452 0
M  V30 924 H 81.7936 -1.47022 -0.677955 0
M  V30 925 H 83.7856 -1.48128 -3.76617 0
M  V30 926 H 82.3556 -0.69965 -3.0467 0
M  V30 927 H 81.5756 -3.10672 -2.42645 0
M  V30 928 H 82.8636 -3.70521 -3.487 0
M  V30 929 H 82.2616 -1.2551 -5.51601 0
M  V30 930 H 80.8186 -1.81837 -6.25922 0
M  V30 931 N 84.2517 0.741722 -1.39055 0
M  V30 932 C 85.1617 1.88621 -1.39496 0
M  V30 933 C 86.1777 1.71557 -0.290578 0
M  V30 934 O 87.3537 1.94275 -0.530954 0
M  V30 935 C 84.4187 3.24134 -1.23037 0
M  V30 936 C 83.4797 3.5364 -2.43387 0
M  V30 937 C 82.7127 4.82687 -2.27703 0
M  V30 938 O 82.9357 5.55922 -1.27696 0
M  V30 939 O 81.8697 5.1194 -3.16545 0
M  V30 940 H 85.6957 1.91203 -2.35956 0
M  V30 941 H 83.2807 0.888625 -1.20099 0
M  V30 942 H 85.1627 4.0513 -1.15964 0
M  V30 943 H 83.8377 3.22337 -0.296691 0
M  V30 944 H 82.7447 2.72758 -2.56035 0
M  V30 945 H 84.0777 3.60209 -3.35425 0
M  V30 946 N 85.7298 1.2412 0.971189 0
M  V30 947 C 86.9758 1.08041 1.71625 0
M  V30 948 C 87.3088 -0.380407 1.90438 0
M  V30 949 O 86.5838 -1.28127 1.46334 0
M  V30 950 C 86.8668 1.81682 3.10908 0
M  V30 951 C 86.7198 3.35493 2.99608 0
M  V30 952 C 88.0388 1.58671 4.10501 0
M  V30 953 H 85.1578 0.39388 0.622919 0
M  V30 954 H 87.7998 1.52743 1.13003 0
M  V30 955 H 85.9498 1.43684 3.60953 0
M  V30 956 H 87.6218 3.83068 2.57015 0
M  V30 957 H 85.8648 3.64052 2.35899 0
M  V30 958 H 86.5358 3.82217 3.98264 0
M  V30 959 H 89.0118 1.91719 3.69301 0
M  V30 960 H 87.8878 2.1266 5.06031 0
M  V30 961 H 88.1488 0.524161 4.38982 0
M  V30 962 N 87.2079 -1.17134 1.05439 0
M  V30 963 C 88.6189 -1.69084 0.791676 0
M  V30 964 C 88.9699 -1.83822 -0.685839 0
M  V30 965 O 88.0949 -1.52757 -1.53278 0
M  V30 966 C 88.6899 -3.07119 1.4305 0
M  V30 967 C 87.2489 -3.56225 1.21577 0
M  V30 968 C 86.3959 -2.32421 1.51247 0
M  V30 969 H 89.3469 -1.01617 1.219 0
M  V30 970 H 89.3679 -3.71087 0.84112 0
M  V30 971 H 88.8799 -2.9636 2.50584 0
M  V30 972 H 86.9809 -3.72257 0.159787 0
M  V30 973 H 87.0939 -4.38837 1.92246 0
M  V30 974 H 85.4579 -2.3701 0.932653 0
M  V30 975 H 86.2409 -2.24268 2.5992 0
M  V30 976 N 88.686 -0.835752 -1.33615 0
M  V30 977 C 90.102 -0.523139 -1.50783 0
M  V30 978 C 90.302 0.950171 -1.77691 0
M  V30 979 O 89.358 1.73411 -1.83534 0
M  V30 980 C 90.671 -1.39378 -2.66448 0
M  V30 981 C 92.219 -1.39223 -2.80332 0
M  V30 982 C 92.694 -2.24765 -3.99055 0
M  V30 983 N 94.185 -2.22458 -4.06284 0
M  V30 984 C 94.92 -2.85386 -4.97336 0
M  V30 985 N 94.416 -3.57354 -5.93523 0
M  V30 986 N 96.209 -2.74872 -4.90308 0
M  V30 987 H 88.36 -1.78952 -1.14411 0
M  V30 988 H 90.623 -0.763297 -0.562212 0
M  V30 989 H 90.329 -2.44061 -2.53234 0
M  V30 990 H 90.203 -1.0676 -3.61776 0
M  V30 991 H 92.59 -0.353136 -2.92979 0
M  V30 992 H 92.671 -1.75846 -1.85773 0
M  V30 993 H 92.315 -3.28732 -3.87167 0
M  V30 994 H 92.245 -1.85485 -4.92852 0
M  V30 995 H 94.736 -1.70119 -3.37443 0
M  V30 996 H 95.049 -4.02584 -6.59656 0
M  V30 997 H 93.394 -3.61461 -5.93608 0
M  V30 998 H 96.585 -2.18213 -4.14126 0
M  V30 999 H 96.758 -3.24199 -5.61069 0
M  V30 1000 N 90.1641 1.46063 -0.591896 0
M  V30 1001 C 91.4121 2.01938 -0.0808391 0
M  V30 1002 C 91.7331 1.46475 1.28725 0
M  V30 1003 O 91.0031 0.652944 1.84698 0
M  V30 1004 H 89.5831 0.746516 -0.0268938 0
M  V30 1005 H 92.2451 1.79055 -0.769752 0
M  V30 1006 H 91.3411 3.12094 -0.0187578 0
M  V30 1007 N 91.6422 0.330177 1.54103 0
M  V30 1008 C 92.8672 -0.274893 2.0557 0
M  V30 1009 C 93.2922 -1.44487 1.20437 0
M  V30 1010 O 92.6502 -1.80021 0.214991 0
M  V30 1011 C 92.6982 -0.68079 3.54115 0
M  V30 1012 O 91.8022 -1.7824 3.71893 0
M  V30 1013 H 91.1432 -0.0483849 0.662235 0
M  V30 1014 H 93.6732 0.480508 1.98878 0
M  V30 1015 H 93.6832 -0.961635 3.96505 0
M  V30 1016 H 92.3582 0.174903 4.15532 0
M  V30 1017 H 90.9352 -1.49985 3.41407 0
M  V30 1018 N 93.1203 -1.57491 0.0584922 0
M  V30 1019 C 94.0303 -2.15448 -0.928414 0
M  V30 1020 C 95.0463 -1.11416 -1.3365 0
M  V30 1021 O 96.2223 -1.4362 -1.41193 0
M  V30 1022 C 93.2873 -2.69393 -2.18239 0
M  V30 1023 C 92.3483 -3.88249 -1.83196 0
M  V30 1024 C 91.5813 -4.39613 -3.02616 0
M  V30 1025 O 91.8043 -3.90023 -4.16219 0
M  V30 1026 O 90.7383 -5.31111 -2.83204 0
M  V30 1027 H 94.5643 -3.00112 -0.465483 0
M  V30 1028 H 92.1493 -1.48499 -0.163826 0
M  V30 1029 H 94.0313 -3.04026 -2.91798 0
M  V30 1030 H 92.7063 -1.87796 -2.63656 0
M  V30 1031 H 91.6133 -3.58492 -1.06931 0
M  V30 1032 H 92.9463 -4.71098 -1.42573 0
M  V30 1033 N 94.5984 0.214957 -1.56127 0
M  V30 1034 C 96.0094 0.781386 -1.69562 0
M  V30 1035 C 96.3604 1.84707 -0.66165 0
M  V30 1036 O 95.4854 2.156 0.185927 0
M  V30 1037 C 96.0804 1.42411 -3.07416 0
M  V30 1038 C 94.6394 1.93786 -3.22683 0
M  V30 1039 C 93.7864 0.800438 -2.65496 0
M  V30 1040 H 96.7374 -0.00980633 -1.58697 0
M  V30 1041 H 96.7584 2.29309 -3.0364 0
M  V30 1042 H 96.2704 0.64826 -3.82648 0
M  V30 1043 H 94.3714 2.74152 -2.52332 0
M  V30 1044 H 94.4844 2.1133 -4.29973 0
M  V30 1045 H 92.8484 1.2095 -2.2415 0
M  V30 1046 H 93.6314 0.0371471 -3.4328 0
M  V30 1047 N 96.0765 1.50051 0.48192 0
M  V30 1048 C 97.3225 1.61706 1.2338 0
M  V30 1049 C 97.6775 0.308488 1.89911 0
M  V30 1050 O 96.9705 -0.692798 1.78636 0
M  V30 1051 C 97.1645 2.72717 2.30998 0
M  V30 1052 C 96.9935 4.14242 1.75024 0
M  V30 1053 C 95.7635 4.80786 1.55476 0
M  V30 1054 C 97.9615 4.98846 1.25128 0
M  V30 1055 N 95.9435 6.06563 0.946311 0
M  V30 1056 C 97.3145 6.15258 0.765382 0
M  V30 1057 C 99.3695 4.84702 1.13881 0
M  V30 1058 C 98.0725 7.19079 0.178113 0
M  V30 1059 C 100.098 5.8869 0.565486 0
M  V30 1060 C 99.4605 7.04343 0.0899105 0
M  V30 1061 H 95.5595 0.645958 0.440753 0
M  V30 1062 H 98.1435 1.8713 0.537624 0
M  V30 1063 H 96.3145 2.49033 2.98055 0
M  V30 1064 H 98.0465 2.73789 2.9803 0
M  V30 1065 H 94.8015 4.37899 1.80392 0
M  V30 1066 H 95.2255 6.73767 0.660812 0
M  V30 1067 H 99.8675 3.95583 1.49244 0
M  V30 1068 H 97.5855 8.07882 -0.187749 0
M  V30 1069 H 101.171 5.79808 0.480974 0
M  V30 1070 H 100.051 7.83433 -0.346782 0
M  V30 1071 N 97.5546 -0.734337 1.39446 0
M  V30 1072 C 98.5016 -1.84835 1.38219 0
M  V30 1073 C 99.4716 -1.64331 0.24179 0
M  V30 1074 O 100.657 -1.85728 0.437002 0
M  V30 1075 C 97.7966 -3.22355 1.23212 0
M  V30 1076 C 96.9096 -3.5456 2.46801 0
M  V30 1077 C 96.0446 -4.81485 2.24377 0
M  V30 1078 C 95.0836 -5.06536 3.43639 0
M  V30 1079 N 94.2206 -6.24665 3.20528 0
M  V30 1080 H 99.0606 -1.85219 2.33448 0
M  V30 1081 H 96.5976 -0.905039 1.15963 0
M  V30 1082 H 98.5556 -4.0174 1.12522 0
M  V30 1083 H 97.1856 -3.21248 0.316121 0
M  V30 1084 H 96.2376 -2.69872 2.68092 0
M  V30 1085 H 97.5496 -3.6899 3.3563 0
M  V30 1086 H 96.7036 -5.68852 2.10933 0
M  V30 1087 H 95.4426 -4.6923 1.32944 0
M  V30 1088 H 94.4476 -4.17632 3.5758 0
M  V30 1089 H 95.6726 -5.20676 4.35974 0
M  V30 1090 H 93.6186 -6.13696 2.3176 0
M  V30 1091 H 93.5356 -6.39685 4.02913 0
M  V30 1092 H 94.8036 -7.14868 3.10779 0
M  V30 1093 N 99.0327 -1.24633 -0.964593 0
M  V30 1094 C 99.9647 -0.999302 -2.06268 0
M  V30 1095 C 100.978 0.0323226 -1.62768 0
M  V30 1096 O 102.167 -0.205079 -1.77318 0
M  V30 1097 C 99.2667 -0.486816 -3.35385 0
M  V30 1098 C 98.4397 -1.5823 -4.07777 0
M  V30 1099 C 97.4987 -1.07191 -5.15166 0
M  V30 1100 O 96.5247 -1.76426 -5.41168 0
M  V30 1101 N 97.7267 0.0920373 -5.80427 0
M  V30 1102 H 100.492 -1.94477 -2.28033 0
M  V30 1103 H 98.0527 -1.15704 -1.13244 0
M  V30 1104 H 100.045 -0.130066 -4.04491 0
M  V30 1105 H 98.6147 0.364459 -3.10468 0
M  V30 1106 H 97.8347 -2.11109 -3.32906 0
M  V30 1107 H 99.1227 -2.31854 -4.52903 0
M  V30 1108 H 98.5207 0.670784 -5.61709 0
M  V30 1109 H 97.0777 0.389905 -6.50633 0
M  V30 1110 N 100.511 1.16574 -1.06058 0
M  V30 1111 C 101.443 2.2045 -0.627239 0
M  V30 1112 C 102.456 1.59752 0.313534 0
M  V30 1113 O 103.645 1.78192 0.104896 0
M  V30 1114 C 100.745 3.3875 0.100974 0
M  V30 1115 C 99.9178 4.29008 -0.852687 0
M  V30 1116 C 98.9768 5.25944 -0.164152 0
M  V30 1117 O 98.0028 5.63535 -0.801047 0
M  V30 1118 N 99.2048 5.70075 1.09518 0
M  V30 1119 H 101.97 2.58249 -1.52077 0
M  V30 1120 H 99.5308 1.3156 -0.943594 0
M  V30 1121 H 101.523 4.00638 0.57194 0
M  V30 1122 H 100.093 2.99476 0.89628 0
M  V30 1123 H 99.3128 3.64419 -1.50308 0
M  V30 1124 H 100.601 4.86195 -1.49972 0
M  V30 1125 H 99.9988 5.41624 1.6328 0
M  V30 1126 H 98.5558 6.34067 1.51006 0
M  V30 1127 N 101.989 0.842826 1.3317 0
M  V30 1128 C 102.919 0.294028 2.31641 0
M  V30 1129 C 103.9 -0.600401 1.59151 0
M  V30 1130 O 105.085 -0.523124 1.87022 0
M  V30 1131 C 102.215 -0.528416 3.43257 0
M  V30 1132 C 101.169 0.27056 4.27144 0
M  V30 1133 C 100.495 -0.675881 5.30411 0
M  V30 1134 C 101.795 1.48981 5.00602 0
M  V30 1135 H 103.489 1.11681 2.77791 0
M  V30 1136 H 101.035 0.538478 1.33553 0
M  V30 1137 H 102.988 -0.922674 4.11175 0
M  V30 1138 H 101.712 -1.38445 2.95805 0
M  V30 1139 H 100.371 0.646427 3.60856 0
M  V30 1140 H 100.019 -1.52842 4.79216 0
M  V30 1141 H 99.7189 -0.145374 5.8742 0
M  V30 1142 H 101.243 -1.06757 6.01195 0
M  V30 1143 H 102.657 1.16849 5.61266 0
M  V30 1144 H 101.054 1.95739 5.6728 0
M  V30 1145 H 102.124 2.25746 4.29147 0
M  V30 1146 N 103.467 -1.45747 0.599634 0
M  V30 1147 C 104.695 -2.06668 0.0978551 0
M  V30 1148 C 105.11 -1.44562 -1.21439 0
M  V30 1149 O 104.467 -0.556923 -1.73795 0
M  V30 1150 C 104.518 -3.61456 -0.0567044 0
M  V30 1151 O 104.239 -4.21242 1.20361 0
M  V30 1152 C 105.74 -4.39345 -0.590869 0
M  V30 1153 H 102.96 -0.667825 0.0651943 0
M  V30 1154 H 105.504 -1.87115 0.82511 0
M  V30 1155 H 103.659 -3.80378 -0.734251 0
M  V30 1156 H 104.073 -5.14323 1.02821 0
M  V30 1157 H 105.547 -5.48182 -0.648131 0
M  V30 1158 H 106.024 -4.08568 -1.61147 0
M  V30 1159 H 106.63 -4.25268 0.0523679 0
M  V30 1160 N 104.945 -0.338344 -1.53925 0
M  V30 1161 C 105.855 0.529421 -2.28548 0
M  V30 1162 C 106.871 1.11645 -1.3346 0
M  V30 1163 O 108.047 1.13325 -1.66492 0
M  V30 1164 C 105.112 1.66713 -3.03987 0
M  V30 1165 C 104.173 1.11041 -4.14691 0
M  V30 1166 C 103.406 2.19389 -4.86522 0
M  V30 1167 O 103.629 3.40013 -4.57982 0
M  V30 1168 O 102.563 1.83976 -5.73094 0
M  V30 1169 H 106.389 -0.0770399 -3.03602 0
M  V30 1170 H 103.974 -0.103555 -1.49041 0
M  V30 1171 H 105.856 2.32918 -3.5118 0
M  V30 1172 H 104.531 2.25949 -2.31794 0
M  V30 1173 H 103.438 0.413024 -3.71813 0
M  V30 1174 H 104.771 0.562975 -4.8897 0
M  V30 1175 N 106.423 1.57458 -0.0668435 0
M  V30 1176 C 107.7 1.8469 0.644132 0
M  V30 1177 C 108.08 0.958343 1.88093 0
M  V30 1178 O 107.428 0.0233579 2.28488 0
M  V30 1179 C 107.638 3.34767 0.986509 0
M  V30 1180 C 108.986 4.02159 1.36212 0
M  V30 1181 O 110.01 3.39484 1.07839 0
M  V30 1182 O 108.869 5.12694 1.89227 0
M  V30 1183 H 105.963 0.762816 0.319437 0
M  V30 1184 H 108.509 1.6942 -0.0973986 0
M  V30 1185 H 107.281 3.91151 0.107883 0
M  V30 1186 H 106.904 3.55281 1.78497 0
M  V30 1187 N 107.901 -0.206675 1.56239 0
M  V30 1188 C 109.149 -0.927007 1.79586 0
M  V30 1189 C 109.47 -1.8427 0.637929 0
M  V30 1190 O 108.74 -1.92849 -0.344398 0
M  V30 1191 H 107.32 -0.345292 0.662407 0
M  V30 1192 H 109.982 -0.21496 1.93711 0
M  V30 1193 H 109.078 -1.52501 2.72305 0
M  V30 1194 N 109.379 -1.50304 -0.473955 0
M  V30 1195 C 110.656 -1.51667 -1.23518 0
M  V30 1196 C 111.036 -0.259701 -2.09496 0
M  V30 1197 O 110.384 0.756986 -2.15597 0
M  V30 1198 C 110.594 -2.81082 -2.06868 0
M  V30 1199 C 111.942 -3.31631 -2.65153 0
M  V30 1200 O 112.966 -2.82384 -2.17113 0
M  V30 1201 O 111.825 -4.17471 -3.52675 0
M  V30 1202 H 108.919 -0.60822 -0.560355 0
M  V30 1203 H 111.465 -1.62592 -0.486011 0
M  V30 1204 H 110.237 -3.64041 -1.4349 0
M  V30 1205 H 109.86 -2.73146 -2.88924 0
M  V30 1206 N 110.857 0.726932 -1.39834 0
M  V30 1207 C 112.082 1.52121 -1.40976 0
M  V30 1208 C 112.507 1.88098 -0.00826029 0
M  V30 1209 O 111.865 1.52479 0.980807 0
M  V30 1210 C 111.913 2.78021 -2.29644 0
M  V30 1211 O 111.017 3.74272 -1.73188 0
M  V30 1212 H 110.358 0.45908 -0.479731 0
M  V30 1213 H 112.888 0.896207 -1.83927 0
M  V30 1214 H 112.898 3.26671 -2.44438 0
M  V30 1215 H 111.573 2.51169 -3.31492 0
M  V30 1216 H 110.15 3.33073 -1.6768 0
M  V30 1217 N 112.336 1.25143 0.95797 0
M  V30 1218 C 113.583 1.09692 1.70217 0
M  V30 1219 C 113.911 -0.362654 1.91089 0
M  V30 1220 O 113.166 -1.28386 1.47701 0
M  V30 1221 C 113.465 1.79272 3.09187 0
M  V30 1222 C 113.131 3.29196 3.08125 0
M  V30 1223 C 111.793 3.70096 3.07543 0
M  V30 1224 C 114.145 4.24995 3.0171 0
M  V30 1225 C 111.473 5.05213 2.9829 0
M  V30 1226 C 113.825 5.60132 2.93999 0
M  V30 1227 C 112.489 6.00365 2.9175 0
M  V30 1228 H 111.759 0.401393 0.622868 0
M  V30 1229 H 114.406 1.55372 1.11945 0
M  V30 1230 H 112.711 1.26014 3.70982 0
M  V30 1231 H 114.408 1.64773 3.65583 0
M  V30 1232 H 110.998 2.96651 3.09348 0
M  V30 1233 H 115.182 3.9439 3.01281 0
M  V30 1234 H 110.438 5.35569 2.94916 0
M  V30 1235 H 114.612 6.3406 2.87996 0
M  V30 1236 H 112.239 7.05023 2.84336 0
M  V30 1237 N 113.814 -1.1601 1.06675 0
M  V30 1238 C 114.744 -2.22688 0.702307 0
M  V30 1239 C 115.725 -1.67306 -0.307032 0
M  V30 1240 O 116.91 -1.93352 -0.181305 0
M  V30 1241 C 114.04 -3.47178 0.092038 0
M  V30 1242 C 112.994 -4.15477 1.02777 0
M  V30 1243 C 112.32 -5.33963 0.28061 0
M  V30 1244 C 113.62 -4.66019 2.35846 0
M  V30 1245 H 115.314 -2.53429 1.59419 0
M  V30 1246 H 112.86 -1.21813 0.767961 0
M  V30 1247 H 114.813 -4.21037 -0.174814 0
M  V30 1248 H 113.537 -3.15749 -0.834877 0
M  V30 1249 H 112.196 -3.43549 1.27944 0
M  V30 1250 H 111.844 -4.98788 -0.649545 0
M  V30 1251 H 111.544 -5.806 0.904258 0
M  V30 1252 H 113.068 -6.10596 0.021396 0
M  V30 1253 H 114.482 -5.3144 2.15045 0
M  V30 1254 H 112.879 -5.23293 2.93743 0
M  V30 1255 H 113.949 -3.82023 2.98641 0
M  V30 1256 N 115.292 -0.849877 -1.32721 0
M  V30 1257 C 116.242 -0.262892 -2.26479 0
M  V30 1258 C 117.226 0.588493 -1.49752 0
M  V30 1259 O 118.418 0.438659 -1.71478 0
M  V30 1260 C 115.547 0.551818 -3.38836 0
M  V30 1261 C 114.633 -0.311689 -4.22953 0
M  V30 1262 N 115.024 -1.39567 -4.86163 0
M  V30 1263 C 113.322 -0.100611 -4.45887 0
M  V30 1264 C 114.023 -1.92651 -5.48872 0
M  V30 1265 N 112.999 -1.22637 -5.29586 0
M  V30 1266 H 116.801 -1.09166 -2.72873 0
M  V30 1267 H 114.315 -0.695486 -1.46754 0
M  V30 1268 H 116.312 0.988713 -4.05006 0
M  V30 1269 H 114.972 1.37844 -2.93988 0
M  V30 1270 H 115.983 -1.77859 -4.86402 0
M  V30 1271 H 112.66 0.691681 -4.11731 0
M  V30 1272 H 114.05 -2.83487 -6.09167 0
M  V30 1273 N 116.77 1.45427 -0.607355 0
M  V30 1274 C 117.7 2.3329 0.0989352 0
M  V30 1275 C 118.681 1.46816 0.859007 0
M  V30 1276 O 119.866 1.75588 0.829604 0
M  V30 1277 C 116.996 3.29518 1.09705 0
M  V30 1278 C 115.95 4.25626 0.450206 0
M  V30 1279 C 115.276 5.11542 1.55655 0
M  V30 1280 C 116.576 5.18505 -0.628455 0
M  V30 1281 H 118.27 2.92595 -0.634716 0
M  V30 1282 H 115.816 1.40696 -0.306681 0
M  V30 1283 H 117.769 3.89855 1.59971 0
M  V30 1284 H 116.493 2.68372 1.86129 0
M  V30 1285 H 115.152 3.66586 -0.0315886 0
M  V30 1286 H 114.8 4.46765 2.31107 0
M  V30 1287 H 114.5 5.76647 1.12925 0
M  V30 1288 H 116.024 5.74748 2.06148 0
M  V30 1289 H 117.438 5.72916 -0.209877 0
M  V30 1290 H 115.835 5.92085 -0.977489 0
M  V30 1291 H 116.905 4.60948 -1.50514 0
M  V30 1292 N 118.248 0.346503 1.53744 0
M  V30 1293 C 119.211 -0.496439 2.23759 0
M  V30 1294 C 120.211 -1.0252 1.2388 0
M  V30 1295 O 121.401 -0.913974 1.48297 0
M  V30 1296 C 118.533 -1.69187 2.95954 0
M  V30 1297 H 119.726 0.115952 2.99676 0
M  V30 1298 H 117.279 0.0978939 1.55993 0
M  V30 1299 H 118.014 -2.34288 2.24231 0
M  V30 1300 H 117.799 -1.31989 3.69217 0
M  V30 1301 H 119.289 -2.28969 3.49232 0
M  V30 1302 N 119.726 -1.57421 0.075193 0
M  V30 1303 C 120.975 -1.92794 -0.592731 0
M  V30 1304 C 121.288 -0.957478 -1.70563 0
M  V30 1305 O 122.494 -1.20417 -2.43335 0
M  V30 1306 C 120.95 -3.42495 -1.10569 0
M  V30 1307 C 120.558 -4.47994 -0.0236121 0
M  V30 1308 C 122.302 -3.86864 -1.74748 0
M  V30 1309 C 120.209 -5.88829 -0.550803 0
M  V30 1310 H 119.139 -0.719591 -0.225177 0
M  V30 1311 H 121.79 -1.82902 0.147978 0
M  V30 1312 H 120.172 -3.47471 -1.89947 0
M  V30 1313 H 121.346 -4.54637 0.751099 0
M  V30 1314 H 119.661 -4.13113 0.522159 0
M  V30 1315 H 122.258 -4.8947 -2.15229 0
M  V30 1316 H 122.601 -3.24417 -2.60882 0
M  V30 1317 H 123.134 -3.84504 -1.01986 0
M  V30 1318 H 119.873 -6.54929 0.273457 0
M  V30 1319 H 119.393 -5.85698 -1.29296 0
M  V30 1320 H 121.072 -6.38811 -1.02613 0
M  V30 1321 N 121.204 0.198386 -1.56346 0
M  V30 1322 C 122.453 0.917451 -1.79627 0
M  V30 1323 C 122.766 1.8456 -0.64784 0
M  V30 1324 O 123.972 2.60504 -0.764859 0
M  V30 1325 C 122.428 1.68175 -3.18191 0
M  V30 1326 C 122.036 0.798589 -4.40825 0
M  V30 1327 C 123.78 2.39065 -3.50782 0
M  V30 1328 C 121.687 1.56157 -5.70411 0
M  V30 1329 H 120.617 0.346317 -0.669762 0
M  V30 1330 H 123.268 0.170801 -1.82703 0
M  V30 1331 H 121.65 2.47216 -3.09354 0
M  V30 1332 H 122.824 0.0470665 -4.60776 0
M  V30 1333 H 121.139 0.200686 -4.15916 0
M  V30 1334 H 123.736 2.96692 -4.44835 0
M  V30 1335 H 124.079 3.13091 -2.74371 0
M  V30 1336 H 124.612 1.66993 -3.61052 0
M  V30 1337 H 121.351 0.864142 -6.49779 0
M  V30 1338 H 120.871 2.2871 -5.54483 0
M  V30 1339 H 122.55 2.11622 -6.11412 0
M  V30 1340 N 122.682 1.50554 0.465978 0
M  V30 1341 C 123.632 1.66177 1.56106 0
M  V30 1342 C 124.616 0.516265 1.52393 0
M  V30 1343 O 125.808 0.770906 1.5933 0
M  V30 1344 C 122.937 1.76396 2.94515 0
M  V30 1345 C 122.023 2.9664 3.03093 0
M  V30 1346 N 122.414 4.20245 2.81474 0
M  V30 1347 C 120.712 2.95304 3.34233 0
M  V30 1348 C 121.413 5.01259 2.95151 0
M  V30 1349 N 120.389 4.35318 3.25576 0
M  V30 1350 H 124.191 2.59434 1.38099 0
M  V30 1351 H 121.705 1.47808 0.6728 0
M  V30 1352 H 123.702 1.85694 3.73261 0
M  V30 1353 H 122.362 0.843017 3.13565 0
M  V30 1354 H 123.373 4.4966 2.56956 0
M  V30 1355 H 120.05 2.12729 3.59239 0
M  V30 1356 H 121.44 6.09564 2.82632 0
M  V30 1357 N 124.16 -0.719506 1.40217 0
M  V30 1358 C 125.07 -1.86378 1.42479 0
M  V30 1359 C 126.086 -1.71073 0.317834 0
M  V30 1360 O 127.262 -1.93406 0.561794 0
M  V30 1361 C 124.327 -3.22136 1.28178 0
M  V30 1362 C 123.388 -3.49723 2.48982 0
M  V30 1363 C 122.621 -4.79004 2.35353 0
M  V30 1364 O 122.844 -5.53821 1.36524 0
M  V30 1365 O 121.778 -5.06839 3.2465 0
M  V30 1366 H 125.604 -1.87425 2.38968 0
M  V30 1367 H 123.189 -0.869405 1.21498 0
M  V30 1368 H 125.071 -4.03234 1.22395 0
M  V30 1369 H 123.746 -3.21825 0.347934 0
M  V30 1370 H 122.653 -2.6865 2.60342 0
M  V30 1371 H 123.986 -3.54828 3.41113 0
M  V30 1372 N 125.638 -1.25649 -0.95132 0
M  V30 1373 C 126.548 -1.08073 -2.08224 0
M  V30 1374 C 127.564 -0.0169666 -1.73992 0
M  V30 1375 O 128.74 -0.218593 -2.0021 0
M  V30 1376 C 125.805 -0.704922 -3.39458 0
M  V30 1377 C 124.866 -1.84699 -3.87537 0
M  V30 1378 C 124.099 -1.48902 -5.12508 0
M  V30 1379 O 124.322 -0.386156 -5.69091 0
M  V30 1380 O 123.256 -2.32033 -5.55378 0
M  V30 1381 H 127.082 -2.02924 -2.25954 0
M  V30 1382 H 124.667 -1.04618 -1.06656 0
M  V30 1383 H 126.549 -0.507609 -4.18332 0
M  V30 1384 H 125.224 0.214291 -3.2299 0
M  V30 1385 H 124.131 -2.09919 -3.09653 0
M  V30 1386 H 125.464 -2.74557 -4.08509 0
M  V30 1387 N 127.117 1.15442 -1.07289 0
M  V30 1388 C 128.064 2.20161 -0.692653 0
M  V30 1389 C 129.034 1.63073 0.31564 0
M  V30 1390 O 130.219 1.89725 0.202235 0
M  V30 1391 C 127.359 3.44967 -0.0959509 0
M  V30 1392 C 126.472 4.16256 -1.15564 0
M  V30 1393 C 125.607 5.28609 -0.524011 0
M  V30 1394 C 124.646 5.91715 -1.56653 0
M  V30 1395 N 123.783 6.9554 -0.957531 0
M  V30 1396 H 128.623 2.52037 -1.59002 0
M  V30 1397 H 126.16 1.2378 -0.794798 0
M  V30 1398 H 128.118 4.16341 0.267628 0
M  V30 1399 H 126.748 3.1361 0.764772 0
M  V30 1400 H 125.8 3.43385 -1.6368 0
M  V30 1401 H 127.112 4.59268 -1.94613 0
M  V30 1402 H 126.266 6.06604 -0.108032 0
M  V30 1403 H 125.005 4.86787 0.29825 0
M  V30 1404 H 124.01 5.12433 -1.9923 0
M  V30 1405 H 125.235 6.35614 -2.39107 0
M  V30 1406 H 123.181 6.55814 -0.156162 0
M  V30 1407 H 123.098 7.36977 -1.68526 0
M  V30 1408 H 124.366 7.77435 -0.567032 0
M  V30 1409 N 128.595 0.856903 1.32268 0
M  V30 1410 C 129.558 0.308171 2.27119 0
M  V30 1411 C 130.558 -0.533421 1.51695 0
M  V30 1412 O 131.748 -0.344607 1.70757 0
M  V30 1413 C 128.88 -0.563757 3.36206 0
M  V30 1414 H 130.073 1.14535 2.77167 0
M  V30 1415 H 127.626 0.631421 1.42978 0
M  V30 1416 H 128.361 -1.42266 2.91429 0
M  V30 1417 H 128.146 0.0386749 3.92081 0
M  V30 1418 H 129.636 -0.940386 4.06874 0
M  V30 1419 N 130.073 -1.45103 0.615059 0
M  V30 1420 C 131.003 -2.33339 -0.0865619 0
M  V30 1421 C 131.984 -1.4727 -0.851209 0
M  V30 1422 O 133.169 -1.76026 -0.820281 0
M  V30 1423 C 130.299 -3.30095 -1.07956 0
M  V30 1424 C 129.253 -4.25858 -0.427628 0
M  V30 1425 C 128.579 -5.12361 -1.5294 0
M  V30 1426 C 129.879 -5.18165 0.655944 0
M  V30 1427 H 131.573 -2.92254 0.650224 0
M  V30 1428 H 129.119 -1.40532 0.314138 0
M  V30 1429 H 131.072 -3.90698 -1.57901 0
M  V30 1430 H 129.796 -2.69355 -1.84703 0
M  V30 1431 H 128.455 -3.66564 0.0510292 0
M  V30 1432 H 128.103 -4.47984 -2.28734 0
M  V30 1433 H 127.803 -5.77238 -1.09865 0
M  V30 1434 H 129.327 -5.75833 -2.03098 0
M  V30 1435 H 130.741 -5.72796 0.240257 0
M  V30 1436 H 129.138 -5.91559 1.00888 0
M  V30 1437 H 130.208 -4.60144 1.52957 0
M  V30 1438 N 131.551 -0.354651 -1.53558 0
M  V30 1439 C 132.779 0.239515 -2.05509 0
M  V30 1440 C 133.194 1.4333 -1.2289 0
M  V30 1441 O 132.551 1.80538 -0.266899 0
M  V30 1442 C 132.602 0.643719 -3.55723 0
M  V30 1443 O 132.323 -0.502602 -4.35207 0
M  V30 1444 C 133.824 1.29743 -4.23889 0
M  V30 1445 H 131.044 0.0442697 -0.669538 0
M  V30 1446 H 133.588 -0.509856 -1.98042 0
M  V30 1447 H 131.743 1.34302 -3.63376 0
M  V30 1448 H 132.157 -0.178172 -5.24197 0
M  V30 1449 H 133.631 1.53091 -5.30346 0
M  V30 1450 H 134.108 2.25441 -3.76926 0
M  V30 1451 H 134.714 0.639865 -4.20459 0
M  V30 1452 N 133.029 1.57378 -0.0835403 0
M  V30 1453 C 133.962 2.09016 0.915833 0
M  V30 1454 C 134.94 0.997993 1.2837 0
M  V30 1455 O 136.124 1.27219 1.39096 0
M  V30 1456 C 133.251 2.55757 2.22049 0
M  V30 1457 C 132.297 3.76522 2.00333 0
M  V30 1458 S 133.13 5.20661 1.25191 0
M  V30 1459 C 134.286 5.70743 2.56912 0
M  V30 1460 H 134.519 2.93457 0.476492 0
M  V30 1461 H 132.052 1.53856 0.129493 0
M  V30 1462 H 134.01 2.83346 2.97027 0
M  V30 1463 H 132.671 1.71564 2.63106 0
M  V30 1464 H 131.864 4.07256 2.96916 0
M  V30 1465 H 131.466 3.49367 1.33488 0
M  V30 1466 H 133.758 5.78304 3.52946 0
M  V30 1467 H 134.701 6.6944 2.30772 0
M  V30 1468 H 135.109 4.98616 2.64655 0
M  V30 1469 N 134.507 -0.190092 1.56449 0
M  V30 1470 C 135.417 -1.25591 1.98152 0
M  V30 1471 C 136.433 -1.49519 0.889944 0
M  V30 1472 O 137.609 -1.62036 1.19609 0
M  V30 1473 C 134.674 -2.57916 2.3169 0
M  V30 1474 C 133.735 -2.42015 3.5458 0
M  V30 1475 C 132.968 -3.6803 3.8651 0
M  V30 1476 O 133.191 -4.72413 3.1966 0
M  V30 1477 O 132.125 -3.6326 4.79923 0
M  V30 1478 H 135.951 -0.931988 2.89046 0
M  V30 1479 H 133.536 -0.395488 1.4407 0
M  V30 1480 H 135.418 -3.36008 2.54316 0
M  V30 1481 H 134.093 -2.89925 1.43963 0
M  V30 1482 H 133 -1.62017 3.37196 0
M  V30 1483 H 134.333 -2.14937 4.4279 0
M  V30 1484 N 135.985 -1.50799 -0.457987 0
M  V30 1485 C 137.231 -1.62683 -1.21088 0
M  V30 1486 C 137.564 -0.332268 -1.91336 0
M  V30 1487 O 136.839 0.667043 -1.82704 0
M  V30 1488 C 137.122 -2.81615 -2.24422 0
M  V30 1489 C 136.975 -4.20989 -1.58392 0
M  V30 1490 C 138.294 -2.96085 -3.2561 0
M  V30 1491 H 135.413 -0.592087 -0.438864 0
M  V30 1492 H 138.055 -1.83225 -0.50286 0
M  V30 1493 H 136.205 -2.64231 -2.84806 0
M  V30 1494 H 137.877 -4.49994 -1.01504 0
M  V30 1495 H 136.12 -4.24641 -0.886704 0
M  V30 1496 H 136.791 -5.0016 -2.33547 0
M  V30 1497 H 139.267 -3.12042 -2.75262 0
M  V30 1498 H 138.143 -3.80902 -3.95228 0
M  V30 1499 H 138.404 -2.0726 -3.90507 0
M  V30 1500 N 137.463 0.71206 -1.40597 0
M  V30 1501 C 138.712 1.46754 -1.38369 0
M  V30 1502 C 139.025 1.95598 0.0097839 0
M  V30 1503 O 140.231 2.71059 0.154677 0
M  V30 1504 C 138.687 2.65289 -2.43207 0
M  V30 1505 C 138.295 2.23301 -3.88382 0
M  V30 1506 C 140.039 3.43008 -2.50091 0
M  V30 1507 C 137.946 3.38696 -4.84808 0
M  V30 1508 H 136.876 0.55118 -0.514506 0
M  V30 1509 H 139.527 0.774616 -1.66349 0
M  V30 1510 H 137.909 3.36769 -2.08332 0
M  V30 1511 H 139.083 1.59218 -4.32419 0
M  V30 1512 H 137.398 1.58618 -3.85006 0
M  V30 1513 H 139.995 4.28881 -3.1932 0
M  V30 1514 H 140.338 3.87065 -1.53253 0
M  V30 1515 H 140.871 2.78574 -2.83974 0
M  V30 1516 H 137.61 2.99668 -5.82992 0
M  V30 1517 H 137.13 4.01683 -4.45433 0
M  V30 1518 H 138.809 4.04712 -5.04794 0
M  V30 1519 N 138.941 1.26152 0.944643 0
M  V30 1520 C 140.357 1.03189 1.21754 0
M  V30 1521 C 140.557 -0.245112 2.00004 0
M  V30 1522 O 139.613 -0.955176 2.33736 0
M  V30 1523 C 140.926 2.26119 1.98219 0
M  V30 1524 C 142.474 2.30984 2.11224 0
M  V30 1525 C 142.949 3.53597 2.91089 0
M  V30 1526 N 144.44 3.54053 2.98664 0
M  V30 1527 C 145.175 4.45593 3.60881 0
M  V30 1528 N 144.671 5.47416 4.24626 0
M  V30 1529 N 146.464 4.33252 3.58119 0
M  V30 1530 H 138.615 2.08177 0.421437 0
M  V30 1531 H 140.878 0.914723 0.248969 0
M  V30 1532 H 140.584 3.18984 1.48128 0
M  V30 1533 H 140.458 2.3009 2.98895 0
M  V30 1534 H 142.845 1.38635 2.60508 0
M  V30 1535 H 142.926 2.31026 1.09821 0
M  V30 1536 H 142.57 4.46273 2.42493 0
M  V30 1537 H 142.5 3.50802 3.92741 0
M  V30 1538 H 144.991 2.80403 2.53343 0
M  V30 1539 H 145.304 6.13459 4.69987 0
M  V30 1540 H 143.649 5.51278 4.23223 0
M  V30 1541 H 146.84 3.52924 3.0751 0
M  V30 1542 H 147.013 5.04786 4.06319 0
M  V30 1543 N 140.419 -1.14872 1.07899 0
M  V30 1544 C 141.351 -2.19425 0.662231 0
M  V30 1545 C 142.364 -1.60231 -0.288079 0
M  V30 1546 O 143.553 -1.78336 -0.076534 0
M  V30 1547 C 140.653 -3.38867 -0.0470695 0
M  V30 1548 C 139.826 -4.27597 0.920831 0
M  V30 1549 C 138.885 -5.25616 0.247805 0
M  V30 1550 O 137.911 -5.62189 0.890599 0
M  V30 1551 N 139.113 -5.71746 -1.00435 0
M  V30 1552 H 141.878 -2.55797 1.56166 0
M  V30 1553 H 139.439 -1.30042 0.964404 0
M  V30 1554 H 141.431 -4.01497 -0.50813 0
M  V30 1555 H 140.001 -3.00864 -0.848523 0
M  V30 1556 H 139.221 -3.61982 1.56087 0
M  V30 1557 H 140.509 -4.83748 1.57688 0
M  V30 1558 H 139.907 -5.44153 -1.54642 0
M  V30 1559 H 138.464 -6.36389 -1.40899 0
M  V30 1560 N 141.898 -0.863906 -1.31812 0
M  V30 1561 C 143.144 -0.472535 -1.97218 0
M  V30 1562 C 143.477 0.971394 -1.68159 0
M  V30 1563 O 142.752 1.68309 -0.974798 0
M  V30 1564 C 143.035 -0.723054 -3.52766 0
M  V30 1565 C 142.888 -2.21608 -3.91421 0
M  V30 1566 C 144.207 -0.185522 -4.39709 0
M  V30 1567 H 141.326 -0.173158 -0.71637 0
M  V30 1568 H 143.968 -1.08403 -1.56041 0
M  V30 1569 H 142.118 -0.202577 -3.87971 0
M  V30 1570 H 143.79 -2.80334 -3.66347 0
M  V30 1571 H 142.033 -2.691 -3.40246 0
M  V30 1572 H 142.704 -2.34203 -4.99853 0
M  V30 1573 H 145.18 -0.630726 -4.11292 0
M  V30 1574 H 144.056 -0.390306 -5.47511 0
M  V30 1575 H 144.317 0.912229 -4.32586 0
M  V30 1576 N 143.376 1.44774 -0.622745 0
M  V30 1577 C 144.323 2.30635 0.0871679 0
M  V30 1578 C 145.293 1.42994 0.845097 0
M  V30 1579 O 146.478 1.71907 0.827812 0
M  V30 1580 C 143.618 3.28144 1.06844 0
M  V30 1581 C 142.731 4.30888 0.309809 0
M  V30 1582 C 141.866 5.15494 1.28215 0
M  V30 1583 C 140.905 6.09953 0.512198 0
M  V30 1584 N 140.042 6.87287 1.43458 0
M  V30 1585 H 144.882 2.90803 -0.650974 0
M  V30 1586 H 142.419 1.43286 -0.33281 0
M  V30 1587 H 144.377 3.83157 1.65066 0
M  V30 1588 H 143.007 2.69695 1.77382 0
M  V30 1589 H 142.059 3.78414 -0.388181 0
M  V30 1590 H 143.371 4.97955 -0.290254 0
M  V30 1591 H 142.525 5.74983 1.93596 0
M  V30 1592 H 141.264 4.48481 1.91614 0
M  V30 1593 H 140.269 5.49581 -0.155151 0
M  V30 1594 H 141.494 6.78999 -0.116958 0
M  V30 1595 H 139.44 6.2295 2.05594 0
M  V30 1596 H 139.357 7.50763 0.888335 0
M  V30 1597 H 140.625 7.51306 2.07749 0
M  V30 1598 N 144.854 0.36279 1.53368 0
M  V30 1599 C 146.102 -0.227326 2.00817 0
M  V30 1600 C 146.423 -1.49511 1.25186 0
M  V30 1601 O 145.693 -1.92482 0.364348 0
M  V30 1602 H 144.273 -0.0869923 0.741917 0
M  V30 1603 H 146.935 0.488381 1.88682 0
M  V30 1604 H 146.031 -0.456273 3.08747 0
M  V30 1605 N 146.332 -1.57332 0.0918853 0
M  V30 1606 C 147.609 -1.85691 -0.614668 0
M  V30 1607 C 147.989 -0.988146 -1.86545 0
M  V30 1608 O 147.337 -0.0597055 -2.28422 0
M  V30 1609 C 147.547 -3.36294 -0.933126 0
M  V30 1610 C 148.895 -4.04275 -1.29796 0
M  V30 1611 O 149.919 -3.41157 -1.02424 0
M  V30 1612 O 148.778 -5.1564 -1.81047 0
M  V30 1613 H 145.872 -0.767802 -0.307261 0
M  V30 1614 H 148.418 -1.69244 0.12434 0
M  V30 1615 H 147.19 -3.91273 -0.0456404 0
M  V30 1616 H 146.813 -3.58076 -1.72822 0
M  V30 1617 N 147.81 0.181792 -1.56548 0
M  V30 1618 C 148.74 1.22765 -1.98623 0
M  V30 1619 C 149.721 1.46747 -0.860189 0
M  V30 1620 O 150.906 1.58259 -1.12551 0
M  V30 1621 C 148.036 2.56894 -2.33715 0
M  V30 1622 C 146.99 2.475 -3.49182 0
M  V30 1623 C 146.316 3.86023 -3.69986 0
M  V30 1624 C 147.616 1.98866 -4.82959 0
M  V30 1625 H 149.31 0.877942 -2.86239 0
M  V30 1626 H 146.856 0.42088 -1.37712 0
M  V30 1627 H 148.809 3.30253 -2.61746 0
M  V30 1628 H 147.533 2.93632 -1.42997 0
M  V30 1629 H 146.192 1.76596 -3.21262 0
M  V30 1630 H 145.84 4.20136 -2.76576 0
M  V30 1631 H 145.54 3.80609 -4.47672 0
M  V30 1632 H 147.064 4.60984 -4.00407 0
M  V30 1633 H 148.478 2.61992 -5.09934 0
M  V30 1634 H 146.875 2.04424 -5.64208 0
M  V30 1635 H 147.945 0.942465 -4.75653 0
M  V30 1636 N 149.288 1.51039 0.449983 0
M  V30 1637 C 150.251 1.70863 1.5277 0
M  V30 1638 C 151.251 0.578846 1.5002 0
M  V30 1639 O 152.441 0.846213 1.52266 0
M  V30 1640 C 149.573 1.75341 2.9235 0
M  V30 1641 H 150.766 2.67034 1.36502 0
M  V30 1642 H 148.319 1.40838 0.677812 0
M  V30 1643 H 149.054 0.809383 3.14037 0
M  V30 1644 H 148.839 2.57436 2.95752 0
M  V30 1645 H 150.329 1.92559 3.70555 0
M  V30 1646 N 150.766 -0.704594 1.40972 0
M  V30 1647 C 152.013 -1.46458 1.39844 0
M  V30 1648 C 152.341 -1.94499 0.00447594 0
M  V30 1649 O 151.596 -1.69275 -0.982057 0
M  V30 1650 C 151.895 -2.698 2.34399 0
M  V30 1651 C 151.561 -2.40464 3.81429 0
M  V30 1652 C 150.223 -2.32174 4.21484 0
M  V30 1653 C 152.575 -2.16086 4.74296 0
M  V30 1654 C 149.903 -1.97589 5.52427 0
M  V30 1655 C 152.255 -1.83011 6.05549 0
M  V30 1656 C 150.919 -1.7321 6.44635 0
M  V30 1657 H 150.189 -0.535927 0.511725 0
M  V30 1658 H 152.836 -0.806124 1.73706 0
M  V30 1659 H 151.141 -3.40536 1.93759 0
M  V30 1660 H 152.838 -3.27919 2.30804 0
M  V30 1661 H 149.428 -2.47808 3.49699 0
M  V30 1662 H 153.612 -2.2144 4.4416 0
M  V30 1663 H 148.868 -1.88547 5.81601 0
M  V30 1664 H 153.042 -1.63164 6.77016 0
M  V30 1665 H 150.669 -1.46179 7.46013 0
M  V30 1666 N 152.244 -1.26651 -0.937939 0
M  V30 1667 C 153.174 -1.10993 -2.05433 0
M  V30 1668 C 154.155 -0.0142161 -1.70094 0
M  V30 1669 O 155.34 -0.186837 -1.93299 0
M  V30 1670 C 152.47 -0.745561 -3.39203 0
M  V30 1671 C 151.424 -1.79337 -3.88616 0
M  V30 1672 C 150.75 -1.28324 -5.19073 0
M  V30 1673 C 152.05 -3.19553 -4.13138 0
M  V30 1674 H 153.744 -2.0438 -2.1879 0
M  V30 1675 H 151.29 -0.984041 -1.05131 0
M  V30 1676 H 153.243 -0.622888 -4.16771 0
M  V30 1677 H 151.967 0.22401 -3.25831 0
M  V30 1678 H 150.626 -1.90477 -3.13231 0
M  V30 1679 H 150.274 -0.303414 -5.02084 0
M  V30 1680 H 149.974 -1.98369 -5.53103 0
M  V30 1681 H 151.498 -1.1733 -5.99221 0
M  V30 1682 H 152.912 -3.11471 -4.81309 0
M  V30 1683 H 151.309 -3.87218 -4.58457 0
M  V30 1684 H 152.379 -3.65368 -3.18801 0
M  V30 1685 N 153.722 1.14298 -1.08507 0
M  V30 1686 C 154.67 2.21483 -0.710483 0
M  V30 1687 C 155.664 1.66998 0.284234 0
M  V30 1688 O 156.87 1.79401 0.146692 0
M  V30 1689 H 153.245 0.721578 -0.211729 0
M  V30 1690 H 155.216 2.50348 -1.62384 0
M  V30 1691 C 153.965 3.4743 -0.137007 0
M  V30 1692 H 153.288 3.89686 -0.893592 0
M  V30 1693 H 154.728 4.2391 0.0872789 0
M  V30 1694 C 153.187 3.17548 1.12538 0
M  V30 1695 O 153.717 3.35437 2.21009 0
M  V30 1696 N 151.923 2.71499 1.03617 0
M  V30 1697 H 151.47 2.57143 0.153403 0
M  V30 1698 H 151.428 2.51881 1.88158 0
M  V30 1699 N 155.201 0.870884 1.31352 0
M  V30 1700 C 156.448 0.482273 1.96673 0
M  V30 1701 C 156.776 -0.965638 1.68836 0
M  V30 1702 O 156.031 -1.69514 0.977937 0
M  V30 1703 C 156.33 0.687157 3.50732 0
M  V30 1704 C 155.996 2.108 3.9859 0
M  V30 1705 C 154.658 2.49656 4.1137 0
M  V30 1706 C 157.01 3.03459 4.23748 0
M  V30 1707 C 154.338 3.80412 4.46659 0
M  V30 1708 C 156.69 4.3373 4.60501 0
M  V30 1709 C 155.354 4.725 4.71487 0
M  V30 1710 H 154.624 0.176476 0.719679 0
M  V30 1711 H 157.271 1.10405 1.56471 0
M  V30 1712 H 155.576 -0.0177476 3.91796 0
M  V30 1713 H 157.273 0.366284 3.99324 0
M  V30 1714 H 153.863 1.79633 3.8914 0
M  V30 1715 H 158.047 2.74665 4.13368 0
M  V30 1716 H 153.303 4.1021 4.53362 0
M  V30 1717 H 157.477 5.05578 4.78919 0
M  V30 1718 H 155.104 5.73859 4.98588 0
M  V30 1719 N 156.679 -1.44442 0.630414 0
M  V30 1720 C 157.611 -2.2892 -0.113347 0
M  V30 1721 C 158.624 -1.41243 -0.80959 0
M  V30 1722 O 159.813 -1.65402 -0.671156 0
M  V30 1723 C 156.913 -3.17594 -1.18266 0
M  V30 1724 C 156.086 -4.33682 -0.569073 0
M  V30 1725 C 155.145 -5.03397 -1.53226 0
M  V30 1726 O 154.171 -5.59438 -1.04967 0
M  V30 1727 N 155.373 -5.04783 -2.86661 0
M  V30 1728 H 158.138 -2.93392 0.611636 0
M  V30 1729 H 155.699 -1.54881 0.471523 0
M  V30 1730 H 157.691 -3.61097 -1.82732 0
M  V30 1731 H 156.261 -2.54876 -1.80988 0
M  V30 1732 H 155.481 -3.9338 0.254187 0
M  V30 1733 H 156.769 -5.08608 -0.139767 0
M  V30 1734 H 156.167 -4.60584 -3.28449 0
M  V30 1735 H 154.724 -5.52077 -3.46489 0
M  V30 1736 N 158.157 -0.370918 -1.53173 0
M  V30 1737 C 159.105 0.488101 -2.27421 0
M  V30 1738 C 160.099 1.07884 -1.30604 0
M  V30 1739 O 161.305 1.02143 -1.48212 0
M  V30 1740 H 157.68 0.176134 -0.731082 0
M  V30 1741 H 159.651 -0.159815 -2.97972 0
M  V30 1742 C 158.4 1.61306 -3.08019 0
M  V30 1743 H 157.723 1.1678 -3.82364 0
M  V30 1744 H 159.163 2.18872 -3.63141 0
M  V30 1745 C 157.622 2.55848 -2.19188 0
M  V30 1746 O 158.152 3.58799 -1.80626 0
M  V30 1747 N 156.358 2.2516 -1.83715 0
M  V30 1748 H 155.905 1.41476 -2.15273 0
M  V30 1749 H 155.863 2.8867 -1.24567 0
M  V30 1750 N 159.635 1.57281 -0.100228 0
M  V30 1751 C 160.583 2.15542 0.874328 0
M  V30 1752 C 161.577 1.09962 1.28859 0
M  V30 1753 O 162.783 1.28298 1.26252 0
M  V30 1754 H 159.158 0.689567 0.300003 0
M  V30 1755 H 161.129 2.96241 0.35829 0
M  V30 1756 C 159.878 2.75454 2.1218 0
M  V30 1757 H 159.201 3.56384 1.81193 0
M  V30 1758 H 160.641 3.19781 2.78417 0
M  V30 1759 C 159.1 1.71602 2.89921 0
M  V30 1760 O 159.63 1.15804 3.84646 0
M  V30 1761 N 157.836 1.41975 2.53558 0
M  V30 1762 H 157.383 1.87539 1.76598 0
M  V30 1763 H 157.341 0.727274 3.05873 0
M  V30 1764 N 161.113 -0.173488 1.56642 0
M  V30 1765 C 162.043 -1.2171 1.99271 0
M  V30 1766 C 163.024 -1.46289 0.867959 0
M  V30 1767 O 164.209 -1.5766 1.13388 0
M  V30 1768 C 161.339 -2.55651 2.35074 0
M  V30 1769 C 160.293 -2.45645 3.50489 0
M  V30 1770 C 159.619 -3.84056 3.72028 0
M  V30 1771 C 160.919 -1.96302 4.84007 0
M  V30 1772 H 162.613 -0.86275 2.867 0
M  V30 1773 H 160.159 -0.413571 1.37933 0
M  V30 1774 H 162.112 -3.2886 2.63494 0
M  V30 1775 H 160.836 -2.92869 1.44552 0
M  V30 1776 H 159.495 -1.7489 3.22194 0
M  V30 1777 H 159.143 -4.18664 2.788 0
M  V30 1778 H 158.843 -3.7823 4.49684 0
M  V30 1779 H 160.367 -4.58854 4.02846 0
M  V30 1780 H 161.781 -2.59284 5.11317 0
M  V30 1781 H 160.178 -2.01429 5.65284 0
M  V30 1782 H 161.248 -0.917226 4.76146 0
M  V30 1783 N 162.591 -1.51276 -0.441967 0
M  V30 1784 C 163.523 -1.68444 -1.55433 0
M  V30 1785 C 164.536 -0.565187 -1.52674 0
M  V30 1786 O 165.725 -0.839356 -1.57534 0
M  V30 1787 C 162.825 -1.67966 -2.94348 0
M  V30 1788 C 161.998 -2.964 -3.21661 0
M  V30 1789 C 161.057 -2.88171 -4.40277 0
M  V30 1790 O 160.083 -3.62119 -4.39157 0
M  V30 1791 N 161.285 -2.03706 -5.43584 0
M  V30 1792 H 164.05 -2.644 -1.41112 0
M  V30 1793 H 161.611 -1.49104 -0.630838 0
M  V30 1794 H 163.603 -1.60035 -3.71713 0
M  V30 1795 H 162.173 -0.796225 -3.0229 0
M  V30 1796 H 161.393 -3.18234 -2.32638 0
M  V30 1797 H 162.681 -3.81427 -3.36736 0
M  V30 1798 H 162.079 -1.42995 -5.47329 0
M  V30 1799 H 160.636 -2.01658 -6.1982 0
M  V30 1800 N 164.069 0.697108 -1.41344 0
M  V30 1801 C 165.001 1.8224 -1.39001 0
M  V30 1802 C 166.014 1.60152 -0.292428 0
M  V30 1803 O 167.203 1.69684 -0.554048 0
M  V30 1804 C 164.303 3.18976 -1.14489 0
M  V30 1805 C 163.476 3.68105 -2.36258 0
M  V30 1806 C 162.535 4.83506 -2.07625 0
M  V30 1807 O 161.561 4.95201 -2.8065 0
M  V30 1808 N 162.763 5.70637 -1.06555 0
M  V30 1809 H 165.528 1.84742 -2.35988 0
M  V30 1810 H 163.089 0.87937 -1.35936 0
M  V30 1811 H 165.081 3.93801 -0.932885 0
M  V30 1812 H 163.651 3.11508 -0.261043 0
M  V30 1813 H 162.871 2.84204 -2.7317 0
M  V30 1814 H 164.159 3.97667 -3.17393 0
M  V30 1815 H 163.557 5.63817 -0.461125 0
M  V30 1816 H 162.114 6.45368 -0.913444 0
M  V30 1817 N 165.547 1.27147 0.931209 0
M  V30 1818 C 166.775 1.16082 1.71267 0
M  V30 1819 C 167.19 -0.282772 1.8667 0
M  V30 1820 O 166.547 -1.19283 1.38122 0
M  V30 1821 C 166.598 1.8358 3.11417 0
M  V30 1822 O 166.319 3.22299 2.96741 0
M  V30 1823 C 167.82 1.78597 4.05732 0
M  V30 1824 H 165.04 0.403758 0.535929 0
M  V30 1825 H 167.584 1.67953 1.16671 0
M  V30 1826 H 165.739 1.35623 3.62885 0
M  V30 1827 H 166.153 3.55851 3.85319 0
M  V30 1828 H 167.627 2.30444 5.01597 0
M  V30 1829 H 168.104 0.754564 4.3267 0
M  V30 1830 H 168.71 2.26152 3.60188 0
M  V30 1831 N 167.025 -1.13721 1.09112 0
M  V30 1832 C 168.436 -1.6648 0.845068 0
M  V30 1833 C 168.787 -1.85911 -0.62701 0
M  V30 1834 O 167.912 -1.57556 -1.48341 0
M  V30 1835 C 168.507 -3.02413 1.52748 0
M  V30 1836 C 167.066 -3.52176 1.32849 0
M  V30 1837 C 166.213 -2.27492 1.58564 0
M  V30 1838 H 169.164 -0.976872 1.25072 0
M  V30 1839 H 169.185 -3.68223 0.958752 0
M  V30 1840 H 168.697 -2.88238 2.59885 0
M  V30 1841 H 166.798 -3.7156 0.278137 0
M  V30 1842 H 166.911 -4.32499 2.0611 0
M  V30 1843 H 165.275 -2.33923 1.00758 0
M  V30 1844 H 166.058 -2.15886 2.66924 0
M  V30 1845 N 168.503 -0.877838 -1.30888 0
M  V30 1846 C 169.433 -0.35534 -2.3078 0
M  V30 1847 C 170.414 0.557994 -1.60687 0
M  V30 1848 O 171.599 0.473355 -1.88343 0
M  V30 1849 C 168.729 0.437221 -3.44537 0
M  V30 1850 C 167.683 -0.383715 -4.26276 0
M  V30 1851 C 167.009 0.535014 -5.32017 0
M  V30 1852 C 168.309 -1.62201 -4.96476 0
M  V30 1853 H 170.003 -1.19007 -2.74732 0
M  V30 1854 H 167.549 -0.573698 -1.32078 0
M  V30 1855 H 169.502 0.813334 -4.13477 0
M  V30 1856 H 168.226 1.30553 -2.99372 0
M  V30 1857 H 166.885 -0.741874 -3.59015 0
M  V30 1858 H 166.533 1.40083 -4.831 0
M  V30 1859 H 166.233 -0.0104211 -5.87599 0
M  V30 1860 H 167.757 0.907799 -6.03814 0
M  V30 1861 H 169.171 -1.31689 -5.5797 0
M  V30 1862 H 167.568 -2.10711 -5.61891 0
M  V30 1863 H 168.638 -2.37044 -4.23011 0
M  V30 1864 N 169.982 1.44106 -0.638065 0
M  V30 1865 C 170.932 2.27843 0.0847285 0
M  V30 1866 C 171.916 1.39055 0.809471 0
M  V30 1867 O 173.108 1.62808 0.694435 0
M  V30 1868 C 170.237 3.26497 1.06089 0
M  V30 1869 C 169.323 4.22772 0.33541 0
M  V30 1870 N 169.714 5.01737 -0.639787 0
M  V30 1871 C 168.012 4.42227 0.578921 0
M  V30 1872 C 168.713 5.71792 -1.06904 0
M  V30 1873 N 167.689 5.42079 -0.406395 0
M  V30 1874 H 171.491 2.86305 -0.663814 0
M  V30 1875 H 169.005 1.55627 -0.464122 0
M  V30 1876 H 171.002 3.8525 1.59337 0
M  V30 1877 H 169.662 2.69595 1.80966 0
M  V30 1878 H 170.673 5.07799 -1.01789 0
M  V30 1879 H 167.35 3.96415 1.31003 0
M  V30 1880 H 168.74 6.45205 -1.8751 0
M  V30 1881 N 171.46 0.379036 1.52974 0
M  V30 1882 C 172.39 -0.452706 2.29069 0
M  V30 1883 C 173.371 -1.07237 1.32039 0
M  V30 1884 O 174.556 -1.08708 1.60923 0
M  V30 1885 C 171.686 -1.5856 3.08992 0
M  V30 1886 C 170.64 -1.0925 4.13822 0
M  V30 1887 C 169.966 -2.31668 4.81907 0
M  V30 1888 C 171.266 -0.167702 5.22031 0
M  V30 1889 H 172.96 0.182181 2.98845 0
M  V30 1890 H 170.506 0.0890592 1.43724 0
M  V30 1891 H 172.459 -2.1742 3.6098 0
M  V30 1892 H 171.183 -2.24792 2.36931 0
M  V30 1893 H 169.842 -0.526494 3.628 0
M  V30 1894 H 169.49 -2.96386 4.06404 0
M  V30 1895 H 169.19 -1.9934 5.52754 0
M  V30 1896 H 170.714 -2.91189 5.36695 0
M  V30 1897 H 172.128 -0.664186 5.6944 0
M  V30 1898 H 170.525 0.0653265 6.00064 0
M  V30 1899 H 171.595 0.786347 4.78482 0
M  V30 1900 N 172.938 -1.57226 0.108567 0
M  V30 1901 C 173.901 -2.13602 -0.831082 0
M  V30 1902 C 174.901 -1.06841 -1.20173 0
M  V30 1903 O 176.091 -1.32666 -1.12895 0
M  V30 1904 C 173.223 -2.66769 -2.12243 0
M  V30 1905 H 174.416 -2.97951 -0.341317 0
M  V30 1906 H 171.969 -1.55667 -0.14057 0
M  V30 1907 H 172.704 -1.85977 -2.65675 0
M  V30 1908 H 172.489 -3.44839 -1.86625 0
M  V30 1909 H 173.979 -3.10332 -2.79435 0
M  V30 1910 N 174.416 0.165178 -1.56732 0
M  V30 1911 C 175.662 0.882112 -1.82611 0
M  V30 1912 C 175.995 1.81628 -0.687378 0
M  V30 1913 O 175.27 1.92009 0.310267 0
M  V30 1914 C 175.553 1.67245 -3.18906 0
M  V30 1915 C 175.406 0.760987 -4.43316 0
M  V30 1916 C 176.725 2.63884 -3.52212 0
M  V30 1917 H 173.844 0.319242 -0.664269 0
M  V30 1918 H 176.486 0.148052 -1.89422 0
M  V30 1919 H 174.636 2.29824 -3.1323 0
M  V30 1920 H 176.308 0.147596 -4.61064 0
M  V30 1921 H 174.551 0.0694102 -4.33744 0
M  V30 1922 H 175.222 1.34962 -5.35247 0
M  V30 1923 H 177.698 2.11429 -3.58381 0
M  V30 1924 H 176.574 3.16245 -4.48643 0
M  V30 1925 H 176.835 3.44377 -2.77231 0
M  V30 1926 N 175.894 1.51508 0.433938 0
M  V30 1927 C 177.143 1.63578 1.18005 0
M  V30 1928 C 177.456 0.359514 1.92268 0
M  V30 1929 O 178.662 0.359632 2.69108 0
M  V30 1930 C 177.118 2.88901 2.14626 0
M  V30 1931 C 176.726 4.23544 1.45995 0
M  V30 1932 C 178.47 3.10328 2.89649 0
M  V30 1933 C 176.377 5.40014 2.4112 0
M  V30 1934 H 175.307 0.609277 0.444182 0
M  V30 1935 H 177.958 1.77978 0.446773 0
M  V30 1936 H 176.34 2.68142 2.91403 0
M  V30 1937 H 177.514 4.54696 0.747532 0
M  V30 1938 H 175.829 4.08021 0.831115 0
M  V30 1939 H 178.426 3.94518 3.60915 0
M  V30 1940 H 178.769 2.23544 3.51189 0
M  V30 1941 H 179.302 3.31443 2.19978 0
M  V30 1942 H 176.041 6.29068 1.84264 0
M  V30 1943 H 175.561 5.13233 3.10406 0
M  V30 1944 H 177.24 5.72099 3.02177 0
M  V30 1945 N 177.372 -0.689602 1.41712 0
M  V30 1946 C 178.6 -1.47827 1.44758 0
M  V30 1947 C 179.015 -1.88721 0.0545703 0
M  V30 1948 O 178.372 -1.57176 -0.927463 0
M  V30 1949 C 178.423 -2.73698 2.3616 0
M  V30 1950 O 178.144 -2.34524 3.7004 0
M  V30 1951 C 179.645 -3.67389 2.48072 0
M  V30 1952 H 176.865 -0.455357 0.49284 0
M  V30 1953 H 179.409 -0.848574 1.86063 0
M  V30 1954 H 177.564 -3.32891 1.98148 0
M  V30 1955 H 177.978 -3.15701 4.18847 0
M  V30 1956 H 179.452 -4.52475 3.16181 0
M  V30 1957 H 179.929 -4.12284 1.51388 0
M  V30 1958 H 180.535 -3.14097 2.86746 0
M  V30 1959 N 178.85 -1.27639 -0.924453 0
M  V30 1960 C 179.798 -1.10485 -2.04685 0
M  V30 1961 C 180.792 -0.0270421 -1.69378 0
M  V30 1962 O 181.998 -0.185008 -1.79047 0
M  V30 1963 H 178.373 -0.340546 -0.670472 0
M  V30 1964 H 180.344 -2.05566 -2.16298 0
M  V30 1965 C 179.093 -0.772229 -3.39016 0
M  V30 1966 H 178.416 -1.59351 -3.66671 0
M  V30 1967 H 179.856 -0.692097 -4.18313 0
M  V30 1968 C 178.315 0.523554 -3.32807 0
M  V30 1969 O 178.845 1.55702 -3.70297 0
M  V30 1970 N 177.051 0.520363 -2.85903 0
M  V30 1971 H 176.598 -0.32107 -2.55591 0
M  V30 1972 H 176.556 1.38742 -2.82131 0
M  V30 1973 N 180.328 1.1314 -1.09713 0
M  V30 1974 C 181.26 2.18343 -0.697056 0
M  V30 1975 C 182.273 1.60669 0.262551 0
M  V30 1976 O 183.462 1.78435 0.0481527 0
M  V30 1977 C 180.562 3.38899 -0.00684728 0
M  V30 1978 C 179.735 4.26078 -0.988741 0
M  V30 1979 C 178.794 5.25155 -0.331394 0
M  V30 1980 O 177.82 5.60701 -0.979926 0
M  V30 1981 N 179.022 5.73271 0.913261 0
M  V30 1982 H 181.787 2.5328 -1.60216 0
M  V30 1983 H 179.348 1.28491 -0.984971 0
M  V30 1984 H 181.34 4.02255 0.444191 0
M  V30 1985 H 179.91 3.02175 0.800551 0
M  V30 1986 H 179.13 3.59453 -1.61826 0
M  V30 1987 H 180.418 4.81178 -1.65364 0
M  V30 1988 H 179.816 5.46544 1.45966 0
M  V30 1989 H 178.373 6.3855 1.30757 0
M  V30 1990 N 181.806 0.884767 1.30421 0
M  V30 1991 C 183.217 0.553656 1.78302 0
M  V30 1992 C 183.568 -0.930153 1.7275 0
M  V30 1993 O 182.693 -1.72681 1.30423 0
M  V30 1994 C 183.288 0.998234 3.2376 0
M  V30 1995 C 181.847 0.71854 3.69478 0
M  V30 1996 C 180.994 1.18132 2.50879 0
M  V30 1997 H 183.945 1.06901 1.17294 0
M  V30 1998 H 183.966 0.327118 3.79091 0
M  V30 1999 H 183.478 2.0782 3.27769 0
M  V30 2000 H 181.579 -0.349444 3.70958 0
M  V30 2001 H 181.692 1.30595 4.60958 0
M  V30 2002 H 180.056 0.600669 2.47516 0
M  V30 2003 H 180.839 2.26902 2.57624 0
M  V30 2004 N 183.284 -1.43765 0.645699 0
M  V30 2005 C 184.194 -2.34544 -0.0512957 0
M  V30 2006 C 185.21 -1.53455 -0.82022 0
M  V30 2007 O 186.386 -1.86133 -0.769176 0
M  V30 2008 C 183.451 -3.31636 -1.01087 0
M  V30 2009 C 182.512 -4.2863 -0.239712 0
M  V30 2010 C 181.745 -5.21084 -1.15358 0
M  V30 2011 O 181.968 -5.1779 -2.39269 0
M  V30 2012 O 180.902 -5.98593 -0.630038 0
M  V30 2013 H 184.728 -2.95624 0.695718 0
M  V30 2014 H 182.313 -1.43781 0.405882 0
M  V30 2015 H 184.195 -3.9136 -1.56254 0
M  V30 2016 H 182.87 -2.73069 -1.73824 0
M  V30 2017 H 181.777 -3.72408 0.355356 0
M  V30 2018 H 183.11 -4.90157 0.447936 0
M  V30 2019 N 184.763 -0.387143 -1.52771 0
M  V30 2020 C 186.012 0.19697 -2.00736 0
M  V30 2021 C 186.325 1.48082 -1.27793 0
M  V30 2022 O 187.531 2.14485 -1.66458 0
M  V30 2023 C 185.987 0.401568 -3.57653 0
M  V30 2024 C 185.595 -0.868907 -4.39493 0
M  V30 2025 C 187.339 0.942164 -4.13912 0
M  V30 2026 C 185.246 -0.632705 -5.88006 0
M  V30 2027 H 184.176 0.0773827 -0.750019 0
M  V30 2028 H 186.827 -0.50921 -1.76293 0
M  V30 2029 H 185.209 1.16954 -3.78335 0
M  V30 2030 H 186.383 -1.64133 -4.30577 0
M  V30 2031 H 184.698 -1.33429 -3.94443 0
M  V30 2032 H 187.295 1.13455 -5.22525 0
M  V30 2033 H 187.638 1.9106 -3.69867 0
M  V30 2034 H 188.171 0.233814 -3.97112 0
M  V30 2035 H 184.91 -1.57208 -6.36369 0
M  V30 2036 H 184.43 0.100825 -5.99715 0
M  V30 2037 H 186.109 -0.26642 -6.46451 0
M  V30 2038 N 186.241 1.57166 -0.116904 0
M  V30 2039 C 187.204 2.14039 0.819742 0
M  V30 2040 C 188.204 1.07477 1.19605 0
M  V30 2041 O 189.394 1.33263 1.1219 0
M  V30 2042 C 186.526 2.67891 2.10826 0
M  V30 2043 H 187.719 2.98128 0.325511 0
M  V30 2044 H 185.272 1.55739 0.132312 0
M  V30 2045 H 186.007 1.87384 2.64685 0
M  V30 2046 H 185.792 3.45823 1.84793 0
M  V30 2047 H 187.282 3.11809 2.77785 0
M  V30 2048 N 187.719 -0.156864 1.56817 0
M  V30 2049 C 188.629 -1.2136 2.00771 0
M  V30 2050 C 189.645 -1.47598 0.921459 0
M  V30 2051 O 190.821 -1.59462 1.2302 0
M  V30 2052 C 187.886 -2.52943 2.37109 0
M  V30 2053 C 186.947 -2.34439 3.59634 0
M  V30 2054 C 186.18 -3.59748 3.94229 0
M  V30 2055 O 186.403 -4.65526 3.29609 0
M  V30 2056 O 185.337 -3.52998 4.8752 0
M  V30 2057 H 189.163 -0.870468 2.90958 0
M  V30 2058 H 186.748 -0.36484 1.44877 0
M  V30 2059 H 188.63 -3.30538 2.61386 0
M  V30 2060 H 187.305 -2.86806 1.5008 0
M  V30 2061 H 186.212 -1.54828 3.40557 0
M  V30 2062 H 187.545 -2.05496 4.4725 0
M  V30 2063 N 189.197 -1.51736 -0.425897 0
M  V30 2064 C 190.16 -1.73271 -1.50032 0
M  V30 2065 C 191.16 -0.602639 -1.4908 0
M  V30 2066 O 192.35 -0.87033 -1.509 0
M  V30 2067 C 189.482 -1.79969 -2.89523 0
M  V30 2068 H 190.675 -2.69172 -1.32237 0
M  V30 2069 H 188.228 -1.41899 -0.65532 0
M  V30 2070 H 188.963 -0.859241 -3.1271 0
M  V30 2071 H 188.748 -2.62109 -2.91619 0
M  V30 2072 H 190.238 -1.9843 -3.67444 0
M  V30 2073 N 190.675 0.682077 -1.42076 0
M  V30 2074 C 191.605 1.80796 -1.47767 0
M  V30 2075 C 192.586 1.6677 -0.334954 0
M  V30 2076 O 193.771 1.863 -0.548264 0
M  V30 2077 C 190.901 3.19038 -1.37229 0
M  V30 2078 C 189.855 3.47789 -2.49453 0
M  V30 2079 C 189.181 4.8553 -2.23975 0
M  V30 2080 C 190.481 3.45411 -3.91776 0
M  V30 2081 H 192.175 1.7629 -2.41997 0
M  V30 2082 H 189.721 0.846721 -1.16476 0
M  V30 2083 H 191.674 3.97528 -1.39821 0
M  V30 2084 H 190.398 3.24204 -0.394907 0
M  V30 2085 H 189.057 2.71657 -2.46166 0
M  V30 2086 H 188.705 4.87337 -1.24547 0
M  V30 2087 H 188.405 5.0573 -2.99184 0
M  V30 2088 H 189.929 5.66312 -2.28304 0
M  V30 2089 H 191.343 4.13882 -3.96705 0
M  V30 2090 H 189.74 3.77145 -4.66778 0
M  V30 2091 H 190.81 2.44122 -4.18966 0
M  V30 2092 N 192.153 1.28127 0.917671 0
M  V30 2093 C 193.083 1.14248 2.03641 0
M  V30 2094 C 194.064 0.0412748 1.7005 0
M  V30 2095 O 195.249 0.217566 1.92977 0
M  V30 2096 C 192.379 0.799431 3.37974 0
M  V30 2097 C 191.333 1.85497 3.85713 0
M  V30 2098 C 190.659 1.36565 5.16966 0
M  V30 2099 C 191.959 3.26085 4.08002 0
M  V30 2100 H 193.653 2.07835 2.15511 0
M  V30 2101 H 191.199 1.00064 1.03553 0
M  V30 2102 H 193.152 0.689114 4.15727 0
M  V30 2103 H 191.876 -0.172145 3.26146 0
M  V30 2104 H 190.535 1.95437 3.10161 0
M  V30 2105 H 190.183 0.383253 5.01538 0
M  V30 2106 H 189.883 2.07143 5.49878 0
M  V30 2107 H 191.407 1.26848 5.97279 0
M  V30 2108 H 192.821 3.19089 4.76293 0
M  V30 2109 H 191.218 3.94462 4.52238 0
M  V30 2110 H 192.288 3.70394 3.12948 0
M  V30 2111 N 193.631 -1.12557 1.10312 0
M  V30 2112 C 194.879 -1.83675 0.843091 0
M  V30 2113 C 195.2 -1.84435 -0.633131 0
M  V30 2114 O 194.47 -1.30657 -1.45964 0
M  V30 2115 H 193.05 -0.680138 0.308904 0
M  V30 2116 H 195.712 -1.36301 1.39313 0
M  V30 2117 H 194.808 -2.87908 1.2048 0
M  V30 2118 N 195.109 -0.891671 -1.2995 0
M  V30 2119 C 196.072 -0.36828 -2.26222 0
M  V30 2120 C 197.072 0.493014 -1.53056 0
M  V30 2121 O 198.262 0.299213 -1.71611 0
M  V30 2122 C 195.394 0.47442 -3.37583 0
M  V30 2123 H 196.587 -1.21844 -2.74033 0
M  V30 2124 H 194.14 -0.669107 -1.41254 0
M  V30 2125 H 194.875 1.34489 -2.95099 0
M  V30 2126 H 194.66 -0.142615 -3.91841 0
M  V30 2127 H 196.15 0.83218 -4.09224 0
M  V30 2128 N 196.587 1.43421 -0.653314 0
M  V30 2129 C 197.835 2.01414 -0.166415 0
M  V30 2130 C 198.156 1.51803 1.22397 0
M  V30 2131 O 197.426 0.730693 1.81763 0
M  V30 2132 H 196.006 0.744703 -0.0585319 0
M  V30 2133 H 198.668 1.75629 -0.845003 0
M  V30 2134 H 197.764 3.11734 -0.151111 0
M  V30 2135 N 198.065 0.39524 1.52563 0
M  V30 2136 C 199.305 -0.184744 2.03563 0
M  V30 2137 C 199.669 -1.43548 1.27507 0
M  V30 2138 O 200.87 -2.093 1.68662 0
M  V30 2139 C 199.141 -0.440294 3.54678 0
M  V30 2140 S 200.7 -0.989712 4.27493 0
M  V30 2141 H 197.518 -0.0515075 0.709132 0
M  V30 2142 H 200.12 0.544957 1.87751 0
M  V30 2143 H 198.824 0.477005 4.07618 0
M  V30 2144 H 198.355 -1.19825 3.74707 0
M  V30 2145 H 200.37 -2.27155 4.41152 0
M  V30 2146 N 199.544 -1.57102 0.125237 0
M  V30 2147 C 200.821 -1.86953 -0.575142 0
M  V30 2148 C 201.201 -1.02749 -1.84407 0
M  V30 2149 O 200.549 -0.108144 -2.28244 0
M  V30 2150 C 200.759 -3.38198 -0.861583 0
M  V30 2151 C 202.107 -4.06937 -1.21192 0
M  V30 2152 O 203.131 -3.43252 -0.951645 0
M  V30 2153 O 201.99 -5.19364 -1.70068 0
M  V30 2154 H 199.084 -0.774147 -0.290906 0
M  V30 2155 H 201.63 -1.68942 0.160211 0
M  V30 2156 H 200.402 -3.91282 0.0373647 0
M  V30 2157 H 200.025 -3.61661 -1.65188 0
M  V30 2158 N 201.022 0.148545 -1.56898 0
M  V30 2159 C 202.433 0.708766 -1.72723 0
M  V30 2160 C 202.784 1.81734 -0.739395 0
M  V30 2161 O 201.909 2.16194 0.0943169 0
M  V30 2162 C 202.504 1.29245 -3.13179 0
M  V30 2163 C 201.063 1.79925 -3.30611 0
M  V30 2164 C 200.21 0.687111 -2.68652 0
M  V30 2165 H 203.161 -0.0771063 -1.58513 0
M  V30 2166 H 203.182 2.16224 -3.13093 0
M  V30 2167 H 202.694 0.485382 -3.85053 0
M  V30 2168 H 200.795 2.63203 -2.63732 0
M  V30 2169 H 200.908 1.92903 -4.38549 0
M  V30 2170 H 199.272 1.11335 -2.29078 0
M  V30 2171 H 200.055 -0.108483 -3.43129 0
M  V30 2172 N 202.5 1.5196 0.417844 0
M  V30 2173 C 203.41 1.77554 1.53336 0
M  V30 2174 C 204.426 0.660655 1.6097 0
M  V30 2175 O 205.602 0.945099 1.77848 0
M  V30 2176 C 202.667 1.91291 2.89152 0
M  V30 2177 C 201.728 3.15183 2.91475 0
M  V30 2178 C 200.961 3.28256 4.20813 0
M  V30 2179 O 201.184 2.46798 5.14244 0
M  V30 2180 O 200.118 4.21356 4.29817 0
M  V30 2181 H 203.944 2.7222 1.34647 0
M  V30 2182 H 201.529 1.36698 0.602828 0
M  V30 2183 H 203.411 2.02199 3.69721 0
M  V30 2184 H 202.086 0.998129 3.07927 0
M  V30 2185 H 200.993 3.09739 2.09791 0
M  V30 2186 H 202.326 4.06414 2.77648 0
M  V30 2187 N 203.978 -0.674533 1.42435 0
M  V30 2188 C 204.908 -1.80009 1.48724 0
M  V30 2189 C 205.889 -1.6659 0.343793 0
M  V30 2190 O 207.074 -1.86007 0.558137 0
M  V30 2191 C 204.204 -3.18306 1.38919 0
M  V30 2192 C 203.158 -3.46461 2.51294 0
M  V30 2193 C 202.484 -4.84335 2.26547 0
M  V30 2194 C 203.784 -3.43328 3.93603 0
M  V30 2195 H 205.478 -1.75004 2.42928 0
M  V30 2196 H 203.024 -0.840533 1.16923 0
M  V30 2197 H 204.977 -3.9678 1.41927 0
M  V30 2198 H 203.701 -3.2399 0.412094 0
M  V30 2199 H 202.36 -2.70348 2.47604 0
M  V30 2200 H 202.008 -4.86669 1.2713 0
M  V30 2201 H 201.708 -5.04136 3.01861 0
M  V30 2202 H 203.232 -5.65094 2.31304 0
M  V30 2203 H 204.646 -4.11772 3.98894 0
M  V30 2204 H 203.043 -3.74664 4.68771 0
M  V30 2205 H 204.113 -2.41897 4.20255 0
M  V30 2206 N 205.456 -1.28612 -0.910864 0
M  V30 2207 C 206.872 -1.06381 -1.18976 0
M  V30 2208 C 207.072 0.191998 -2.00583 0
M  V30 2209 O 206.128 0.892869 -2.36187 0
M  V30 2210 C 207.441 -2.31295 -1.92154 0
M  V30 2211 C 208.989 -2.36503 -2.05025 0
M  V30 2212 C 209.464 -3.61191 -2.81612 0
M  V30 2213 N 210.955 -3.61847 -2.89172 0
M  V30 2214 C 211.69 -4.55004 -3.4894 0
M  V30 2215 N 211.186 -5.58482 -4.09963 0
M  V30 2216 N 212.979 -4.42594 -3.46506 0
M  V30 2217 H 205.13 -2.09221 -0.366094 0
M  V30 2218 H 207.393 -0.921003 -0.224629 0
M  V30 2219 H 207.099 -3.228 -1.39618 0
M  V30 2220 H 206.973 -2.37934 -2.9269 0
M  V30 2221 H 209.36 -1.45494 -2.5674 0
M  V30 2222 H 209.441 -2.33857 -1.03657 0
M  V30 2223 H 209.085 -4.52545 -2.30576 0
M  V30 2224 H 209.015 -3.61092 -3.83302 0
M  V30 2225 H 211.506 -2.87022 -2.45819 0
M  V30 2226 H 211.819 -6.25704 -4.53557 0
M  V30 2227 H 210.164 -5.62305 -4.08459 0
M  V30 2228 H 213.355 -3.60953 -2.98045 0
M  V30 2229 H 213.528 -5.15381 -3.92793 0
M  V30 2230 N 206.934 1.1197 -1.10907 0
M  V30 2231 C 208.211 1.79959 -0.766432 0
M  V30 2232 C 208.591 1.97466 0.746363 0
M  V30 2233 O 207.939 1.55491 1.67436 0
M  V30 2234 C 208.149 3.14009 -1.52314 0
M  V30 2235 C 209.497 3.89134 -1.69883 0
M  V30 2236 O 210.521 3.2368 -1.48692 0
M  V30 2237 O 209.38 5.06572 -2.05054 0
M  V30 2238 H 206.474 0.779208 -0.277062 0
M  V30 2239 H 209.02 1.18762 -1.21217 0
M  V30 2240 H 207.792 2.96587 -2.55249 0
M  V30 2241 H 207.415 3.82915 -1.07059 0
M  V30 2242 N 208.412 0.89855 1.29475 0
M  V30 2243 C 209.659 0.523882 1.95606 0
M  V30 2244 C 209.987 -0.929608 1.70847 0
M  V30 2245 O 209.242 -1.67401 1.01367 0
M  V30 2246 C 209.541 0.761398 3.49195 0
M  V30 2247 C 209.207 2.19207 3.94029 0
M  V30 2248 C 207.869 2.58326 4.05982 0
M  V30 2249 C 210.221 3.12379 4.17216 0
M  V30 2250 C 207.549 3.898 4.38489 0
M  V30 2251 C 209.901 4.43401 4.51197 0
M  V30 2252 C 208.565 4.82394 4.61359 0
M  V30 2253 H 207.835 0.191702 0.715773 0
M  V30 2254 H 210.482 1.13699 1.54094 0
M  V30 2255 H 208.787 0.0653622 3.91745 0
M  V30 2256 H 210.484 0.450904 3.98457 0
M  V30 2257 H 207.074 1.87846 3.85242 0
M  V30 2258 H 211.258 2.83371 4.07449 0
M  V30 2259 H 206.514 4.19734 4.44559 0
M  V30 2260 H 210.688 5.15623 4.68087 0
M  V30 2261 H 208.315 5.84306 4.86303 0
M  V30 2262 N 209.89 -1.43072 0.660911 0
M  V30 2263 C 211.306 -1.56169 0.329173 0
M  V30 2264 C 211.506 -1.64317 -1.16629 0
M  V30 2265 O 210.562 -1.60245 -1.95135 0
M  V30 2266 C 211.875 -2.81873 1.04729 0
M  V30 2267 C 213.423 -2.95627 1.02828 0
M  V30 2268 C 213.898 -4.24174 1.72744 0
M  V30 2269 N 215.389 -4.31055 1.69545 0
M  V30 2270 C 216.124 -5.29304 2.20511 0
M  V30 2271 N 215.62 -6.33786 2.79799 0
M  V30 2272 N 217.413 -5.21008 2.10966 0
M  V30 2273 H 209.564 -1.36027 1.63127 0
M  V30 2274 H 211.827 -0.653823 0.686454 0
M  V30 2275 H 211.533 -2.81942 2.10242 0
M  V30 2276 H 211.407 -3.72338 0.603702 0
M  V30 2277 H 213.794 -2.95094 -0.0184742 0
M  V30 2278 H 213.875 -2.06431 1.51063 0
M  V30 2279 H 213.519 -4.25467 2.7738 0
M  V30 2280 H 213.449 -5.1228 1.2197 0
M  V30 2281 H 215.94 -3.56174 1.26288 0
M  V30 2282 H 216.253 -7.05086 3.16344 0
M  V30 2283 H 214.598 -6.34387 2.83863 0
M  V30 2284 H 217.789 -4.38301 1.64347 0
M  V30 2285 H 217.962 -5.97416 2.50993 0
M  V30 2286 N 211.368 -0.403325 -1.52352 0
M  V30 2287 C 212.616 0.174003 -2.0135 0
M  V30 2288 C 212.937 1.46139 -1.29106 0
M  V30 2289 O 212.207 1.91448 -0.415253 0
M  V30 2290 H 210.787 0.0672911 -0.743963 0
M  V30 2291 H 213.449 -0.538235 -1.87321 0
M  V30 2292 H 212.545 0.374254 -3.09848 0
M  V30 2293 N 212.846 1.57033 -0.133567 0
M  V30 2294 C 213.794 2.17348 0.828412 0
M  V30 2295 C 214.788 1.12671 1.26498 0
M  V30 2296 O 215.994 1.30947 1.23502 0
M  V30 2297 H 212.369 0.695775 0.285309 0
M  V30 2298 H 214.34 2.96935 0.295372 0
M  V30 2299 C 213.089 2.79893 2.06289 0
M  V30 2300 H 212.412 3.60147 1.73592 0
M  V30 2301 H 213.852 3.25615 2.71572 0
M  V30 2302 C 212.311 1.77713 2.86216 0
M  V30 2303 O 212.841 1.23937 3.82103 0
M  V30 2304 N 211.047 1.47321 2.50489 0
M  V30 2305 H 210.594 1.91243 1.7258 0
M  V30 2306 H 210.552 0.79199 3.04261 0
M  V30 2307 N 214.325 -0.140222 1.56975 0
M  V30 2308 C 215.553 -0.866437 1.87884 0
M  V30 2309 C 215.968 -1.74428 0.722517 0
M  V30 2310 O 215.325 -1.79891 -0.30749 0
M  V30 2311 C 215.376 -1.71753 3.18093 0
M  V30 2312 O 215.097 -0.875056 4.29272 0
M  V30 2313 C 216.598 -2.55074 3.62563 0
M  V30 2314 H 213.818 -0.25019 0.622612 0
M  V30 2315 H 216.362 -0.130977 2.0408 0
M  V30 2316 H 214.517 -2.40598 3.03631 0
M  V30 2317 H 214.931 -1.46002 5.03769 0
M  V30 2318 H 216.405 -3.10356 4.5649 0
M  V30 2319 H 216.882 -3.31434 2.88181 0
M  V30 2320 H 217.488 -1.91509 3.79743 0
M  V30 2321 N 215.803 -1.52179 -0.40978 0
M  V30 2322 C 217.214 -1.58377 -0.988615 0
M  V30 2323 C 217.565 -0.423879 -1.91566 0
M  V30 2324 O 216.69 0.455844 -2.11544 0
M  V30 2325 C 217.285 -2.87044 -1.79976 0
M  V30 2326 C 215.844 -2.95722 -2.32863 0
M  V30 2327 C 214.991 -2.53309 -1.12828 0
M  V30 2328 H 217.942 -1.57558 -0.190039 0
M  V30 2329 H 217.963 -2.7236 -2.65707 0
M  V30 2330 H 217.475 -3.71444 -1.12478 0
M  V30 2331 H 215.576 -2.15814 -3.03735 0
M  V30 2332 H 215.689 -3.99951 -2.63773 0
M  V30 2333 H 214.053 -2.07142 -1.48204 0
M  V30 2334 H 214.836 -3.40082 -0.46897 0
M  V30 2335 N 217.281 0.66697 -1.42791 0
M  V30 2336 C 218.211 1.79218 -1.49677 0
M  V30 2337 C 219.192 1.66405 -0.352623 0
M  V30 2338 O 220.377 1.85708 -0.567993 0
M  V30 2339 C 217.507 3.17565 -1.40605 0
M  V30 2340 C 216.461 3.45124 -2.53127 0
M  V30 2341 C 215.787 4.83127 -2.29112 0
M  V30 2342 C 217.087 3.41236 -3.95418 0
M  V30 2343 H 218.781 1.73713 -2.43853 0
M  V30 2344 H 216.327 0.83432 -1.17367 0
M  V30 2345 H 218.28 3.96022 -1.44029 0
M  V30 2346 H 217.004 3.23767 -0.429271 0
M  V30 2347 H 215.663 2.69031 -2.49034 0
M  V30 2348 H 215.311 4.85988 -1.29709 0
M  V30 2349 H 215.011 5.02528 -3.04531 0
M  V30 2350 H 216.535 5.63859 -2.34297 0
M  V30 2351 H 217.949 4.09651 -4.01073 0
M  V30 2352 H 216.346 3.72173 -4.70752 0
M  V30 2353 H 217.416 2.39665 -4.21532 0
M  V30 2354 N 218.759 1.29093 0.90403 0
M  V30 2355 C 219.709 1.10482 1.99443 0
M  V30 2356 C 220.693 0.0255401 1.6088 0
M  V30 2357 O 221.885 0.24677 1.75271 0
M  V30 2358 C 219.014 0.778882 3.34348 0
M  V30 2359 C 218.1 1.89749 3.79284 0
M  V30 2360 N 218.491 3.14045 3.96497 0
M  V30 2361 C 216.789 1.78955 4.08523 0
M  V30 2362 C 217.49 3.86996 4.34292 0
M  V30 2363 N 216.466 3.14909 4.43095 0
M  V30 2364 H 220.268 2.04778 2.10815 0
M  V30 2365 H 217.782 1.20155 1.09255 0
M  V30 2366 H 219.779 0.62661 4.12164 0
M  V30 2367 H 218.439 -0.156205 3.24324 0
M  V30 2368 H 219.45 3.49548 3.82148 0
M  V30 2369 H 216.127 0.926886 4.07081 0
M  V30 2370 H 217.517 4.93941 4.55491 0
M  V30 2371 N 220.237 -1.11381 1.11499 0
M  V30 2372 C 221.167 -2.19509 0.796125 0
M  V30 2373 C 222.148 -1.68458 -0.235796 0
M  V30 2374 O 223.333 -1.93947 -0.0991344 0
M  V30 2375 C 220.463 -3.46475 0.239205 0
M  V30 2376 C 219.417 -4.10744 1.20307 0
M  V30 2377 C 218.743 -5.32293 0.50683 0
M  V30 2378 C 220.043 -4.55597 2.55399 0
M  V30 2379 H 221.737 -2.46439 1.70024 0
M  V30 2380 H 219.283 -1.18446 0.818935 0
M  V30 2381 H 221.236 -4.214 0.00392006 0
M  V30 2382 H 219.96 -3.19006 -0.700206 0
M  V30 2383 H 218.619 -3.37813 1.42399 0
M  V30 2384 H 218.267 -5.01095 -0.437408 0
M  V30 2385 H 217.967 -5.76243 1.1497 0
M  V30 2386 H 219.491 -6.09956 0.280351 0
M  V30 2387 H 220.905 -5.21841 2.37391 0
M  V30 2388 H 219.302 -5.10363 3.15673 0
M  V30 2389 H 220.372 -3.69013 3.14575 0
M  V30 2390 N 221.715 -0.905404 -1.28997 0
M  V30 2391 C 222.678 -0.392253 -2.25819 0
M  V30 2392 C 223.678 0.476753 -1.5357 0
M  V30 2393 O 224.868 0.280994 -1.71919 0
M  V30 2394 C 222 0.438588 -3.38067 0
M  V30 2395 H 223.193 -1.24743 -2.72725 0
M  V30 2396 H 220.746 -0.684051 -1.40536 0
M  V30 2397 H 221.481 1.31352 -2.96508 0
M  V30 2398 H 221.266 -0.184167 -3.91667 0
M  V30 2399 H 222.756 0.78873 -4.10084 0
M  V30 2400 N 223.193 1.4272 -0.668489 0
M  V30 2401 C 224.433 2.03497 -0.19194 0
M  V30 2402 C 224.797 1.51684 1.17712 0
M  V30 2403 O 225.998 2.04205 1.74796 0
M  V30 2404 C 224.269 3.56734 -0.218032 0
M  V30 2405 S 225.828 4.38395 0.188438 0
M  V30 2406 H 222.646 0.706542 -0.0794959 0
M  V30 2407 H 225.248 1.74563 -0.880235 0
M  V30 2408 H 223.952 3.91943 -1.2169 0
M  V30 2409 H 223.483 3.90333 0.490303 0
M  V30 2410 H 225.498 4.75345 1.42345 0
M  V30 2411 N 224.671 0.411399 1.52136 0
M  V30 2412 C 225.581 -0.419774 2.30814 0
M  V30 2413 C 226.597 -1.0515 1.38634 0
M  V30 2414 O 227.773 -1.05252 1.71709 0
M  V30 2415 C 224.838 -1.52019 3.11594 0
M  V30 2416 C 223.899 -0.91129 4.19516 0
M  V30 2417 C 223.132 -1.95927 4.96436 0
M  V30 2418 O 223.355 -3.17775 4.73683 0
M  V30 2419 O 222.289 -1.56423 5.81219 0
M  V30 2420 H 226.115 0.221805 3.02889 0
M  V30 2421 H 223.7 0.174547 1.48377 0
M  V30 2422 H 225.582 -2.15898 3.61892 0
M  V30 2423 H 224.257 -2.14633 2.42311 0
M  V30 2424 H 223.164 -0.235157 3.7336 0
M  V30 2425 H 224.497 -0.32904 4.91099 0
M  V30 2426 N 226.149 -1.5696 0.141893 0
M  V30 2427 C 227.081 -2.13619 -0.830627 0
M  V30 2428 C 228.094 -1.08439 -1.21428 0
M  V30 2429 O 229.283 -1.35734 -1.15925 0
M  V30 2430 C 226.383 -2.63978 -2.12529 0
M  V30 2431 C 225.556 -3.93504 -1.9098 0
M  V30 2432 C 224.615 -4.29225 -3.04388 0
M  V30 2433 O 223.641 -4.97641 -2.76302 0
M  V30 2434 N 224.843 -3.88393 -4.31429 0
M  V30 2435 H 227.608 -2.97691 -0.34641 0
M  V30 2436 H 225.169 -1.61846 -0.0418375 0
M  V30 2437 H 227.161 -2.84891 -2.87436 0
M  V30 2438 H 225.731 -1.84659 -2.52229 0
M  V30 2439 H 224.951 -3.81269 -1.00139 0
M  V30 2440 H 226.239 -4.78154 -1.73914 0
M  V30 2441 H 225.637 -3.33257 -4.57117 0
M  V30 2442 H 224.194 -4.14368 -5.03133 0
M  V30 2443 N 227.627 0.131896 -1.57047 0
M  V30 2444 C 228.875 0.840269 -1.83804 0
M  V30 2445 C 229.196 1.81017 -0.72512 0
M  V30 2446 O 228.466 1.94272 0.251995 0
M  V30 2447 H 227.046 0.313294 -0.678127 0
M  V30 2448 H 229.708 0.122294 -1.94516 0
M  V30 2449 H 228.804 1.39335 -2.79271 0
M  V30 2450 N 229.106 1.52395 0.401703 0
M  V30 2451 C 230.346 1.68498 1.15705 0
M  V30 2452 C 230.71 0.409748 1.87577 0
M  V30 2453 O 231.911 0.446983 2.65058 0
M  V30 2454 C 230.182 2.87789 2.11924 0
M  V30 2455 S 231.741 3.24415 2.95466 0
M  V30 2456 H 228.559 0.593267 0.391862 0
M  V30 2457 H 231.161 1.90408 0.443282 0
M  V30 2458 H 229.865 3.7884 1.57824 0
M  V30 2459 H 229.396 2.68175 2.87829 0
M  V30 2460 H 231.411 2.73614 4.13944 0
M  V30 2461 N 230.584 -0.659388 1.43143 0
M  V30 2462 C 231.514 -1.78422 1.50625 0
M  V30 2463 C 232.495 -1.66216 0.361443 0
M  V30 2464 O 233.68 -1.85404 0.577834 0
M  V30 2465 C 230.81 -3.16815 1.42287 0
M  V30 2466 C 229.764 -3.43777 2.54954 0
M  V30 2467 C 229.09 -4.81905 2.31671 0
M  V30 2468 C 230.39 -3.39134 3.97222 0
M  V30 2469 H 232.084 -1.72417 2.44771 0
M  V30 2470 H 229.63 -0.828084 1.17808 0
M  V30 2471 H 231.583 -3.95253 1.46127 0
M  V30 2472 H 230.307 -3.23534 0.446435 0
M  V30 2473 H 228.966 -2.67707 2.50457 0
M  V30 2474 H 228.614 -4.85294 1.32284 0
M  V30 2475 H 228.314 -5.00906 3.07192 0
M  V30 2476 H 229.838 -5.62609 2.37284 0
M  V30 2477 H 231.252 -4.07518 4.03239 0
M  V30 2478 H 229.649 -3.69671 4.72719 0
M  V30 2479 H 230.719 -2.37426 4.22797 0
M  V30 2480 N 232.062 -1.29571 -0.897171 0
M  V30 2481 C 233.025 -1.14913 -1.98312 0
M  V30 2482 C 234.025 -0.0838629 -1.60581 0
M  V30 2483 O 235.215 -0.331006 -1.71026 0
M  V30 2484 C 232.347 -0.757835 -3.3237 0
M  V30 2485 H 233.54 -2.11377 -2.12743 0
M  V30 2486 H 231.093 -1.12793 -1.08201 0
M  V30 2487 H 231.828 0.206837 -3.2364 0
M  V30 2488 H 231.613 -1.52755 -3.61121 0
M  V30 2489 H 233.103 -0.678408 -4.12053 0
M  V30 2490 N 233.54 1.10788 -1.12088 0
M  V30 2491 C 234.765 1.87002 -0.896949 0
M  V30 2492 C 235.19 1.79933 0.548261 0
M  V30 2493 O 234.548 1.16662 1.38779 0
M  V30 2494 C 234.596 3.3349 -1.37174 0
M  V30 2495 O 233.7 4.08745 -0.547831 0
M  V30 2496 H 233.041 0.580397 -0.322545 0
M  V30 2497 H 235.571 1.39996 -1.49206 0
M  V30 2498 H 235.581 3.84339 -1.36922 0
M  V30 2499 H 234.256 3.37951 -2.42408 0
M  V30 2500 H 232.833 3.6776 -0.617034 0
M  V30 2501 N 235.018 0.912232 1.28515 0
M  V30 2502 C 236.264 0.545405 1.95328 0
M  V30 2503 C 236.597 -0.908313 1.71649 0
M  V30 2504 O 235.872 -1.64575 1.03659 0
M  V30 2505 C 236.155 0.853483 3.4984 0
M  V30 2506 C 236.008 2.35982 3.82926 0
M  V30 2507 C 237.327 0.348589 4.38717 0
M  V30 2508 H 234.446 0.199626 0.709449 0
M  V30 2509 H 237.088 1.1412 1.5191 0
M  V30 2510 H 235.238 0.34643 3.86952 0
M  V30 2511 H 236.91 2.93738 3.55691 0
M  V30 2512 H 235.153 2.81543 3.30024 0
M  V30 2513 H 235.824 2.52593 4.90816 0
M  V30 2514 H 238.3 0.78294 4.08668 0
M  V30 2515 H 237.176 0.593242 5.45685 0
M  V30 2516 H 237.437 -0.751049 4.35674 0
M  V30 2517 N 236.496 -1.42363 0.676048 0
M  V30 2518 C 237.744 -2.01123 0.198437 0
M  V30 2519 C 238.065 -1.53731 -1.19966 0
M  V30 2520 O 237.335 -0.759518 -1.80577 0
M  V30 2521 H 235.915 -0.743678 0.0703721 0
M  V30 2522 H 238.577 -1.74263 0.872837 0
M  V30 2523 H 237.673 -3.11454 0.200686 0
M  V30 2524 N 237.974 -0.419461 -1.51915 0
M  V30 2525 C 239.22 0.153166 -2.02221 0
M  V30 2526 C 239.553 1.43907 -1.30401 0
M  V30 2527 O 238.828 1.90055 -0.413438 0
M  V30 2528 C 239.111 0.390291 -3.57979 0
M  V30 2529 C 238.964 -0.913014 -4.40436 0
M  V30 2530 C 240.283 1.16794 -4.2432 0
M  V30 2531 H 237.402 0.0541924 -0.735005 0
M  V30 2532 H 240.044 -0.554955 -1.81715 0
M  V30 2533 H 238.194 0.993491 -3.75582 0
M  V30 2534 H 239.866 -1.54882 -4.34522 0
M  V30 2535 H 238.109 -1.52168 -4.06236 0
M  V30 2536 H 238.78 -0.701361 -5.47526 0
M  V30 2537 H 241.256 0.657161 -4.10878 0
M  V30 2538 H 240.132 1.3026 -5.3322 0
M  V30 2539 H 240.393 2.19132 -3.83971 0
M  V30 2540 N 239.452 1.56882 -0.150215 0
M  V30 2541 C 240.382 2.19935 0.784284 0
M  V30 2542 C 241.363 1.14854 1.25469 0
M  V30 2543 O 242.548 1.43209 1.31168 0
M  V30 2544 C 239.678 2.82349 2.02229 0
M  V30 2545 C 238.632 3.93285 1.68853 0
M  V30 2546 C 237.958 4.42649 2.99944 0
M  V30 2547 C 239.258 5.13904 0.932714 0
M  V30 2548 H 240.952 2.9828 0.258781 0
M  V30 2549 H 238.498 1.43473 0.123029 0
M  V30 2550 H 240.451 3.25126 2.68088 0
M  V30 2551 H 239.175 2.0134 2.57157 0
M  V30 2552 H 237.834 3.5113 1.05371 0
M  V30 2553 H 237.482 3.58458 3.52869 0
M  V30 2554 H 237.182 5.17476 2.78374 0
M  V30 2555 H 238.706 4.88099 3.66868 0
M  V30 2556 H 240.12 5.53506 1.49345 0
M  V30 2557 H 238.517 5.94515 0.81684 0
M  V30 2558 H 239.587 4.84842 -0.0749568 0
M  V30 2559 N 240.93 -0.123565 1.57115 0
M  V30 2560 C 242.158 -0.846461 1.88793 0
M  V30 2561 C 242.573 -1.73652 0.740976 0
M  V30 2562 O 241.93 -1.80207 -0.288393 0
M  V30 2563 C 241.981 -1.6837 3.19897 0
M  V30 2564 O 241.702 -0.829477 4.30176 0
M  V30 2565 C 243.203 -2.51214 3.65248 0
M  V30 2566 H 240.423 -0.243573 0.625231 0
M  V30 2567 H 242.967 -0.109324 2.04208 0
M  V30 2568 H 241.122 -2.37364 3.06165 0
M  V30 2569 H 241.536 -1.40651 5.0529 0
M  V30 2570 H 243.01 -3.05497 4.59756 0
M  V30 2571 H 243.487 -3.28359 2.9168 0
M  V30 2572 H 244.093 -1.8747 3.81752 0
M  V30 2573 N 242.408 -1.52605 -0.393616 0
M  V30 2574 C 243.34 -1.73303 -1.49995 0
M  V30 2575 C 244.353 -0.613473 -1.50799 0
M  V30 2576 O 245.542 -0.889049 -1.54784 0
M  V30 2577 C 242.642 -1.77245 -2.88855 0
M  V30 2578 C 241.815 -3.06483 -3.12069 0
M  V30 2579 C 240.874 -3.02033 -4.30886 0
M  V30 2580 O 239.9 -3.75907 -4.27414 0
M  V30 2581 N 241.102 -2.20897 -5.36828 0
M  V30 2582 H 243.867 -2.68756 -1.32629 0
M  V30 2583 H 241.428 -1.51036 -0.583083 0
M  V30 2584 H 243.42 -1.7178 -3.66434 0
M  V30 2585 H 241.99 -0.891993 -2.99603 0
M  V30 2586 H 241.21 -3.25474 -2.22396 0
M  V30 2587 H 242.498 -3.91947 -3.2443 0
M  V30 2588 H 241.896 -1.60336 -5.42502 0
M  V30 2589 H 240.453 -2.21275 -6.13091 0
M  V30 2590 N 243.887 0.651787 -1.4349 0
M  V30 2591 C 245.112 1.44434 -1.48841 0
M  V30 2592 C 245.537 1.8779 -0.107955 0
M  V30 2593 O 244.895 1.57464 0.898602 0
M  V30 2594 C 244.943 2.65458 -2.44059 0
M  V30 2595 O 244.047 3.64566 -1.92784 0
M  V30 2596 H 243.388 0.433005 -0.503391 0
M  V30 2597 H 245.918 0.797451 -1.88419 0
M  V30 2598 H 245.928 3.13255 -2.6141 0
M  V30 2599 H 244.603 2.33244 -3.4434 0
M  V30 2600 H 243.18 3.23716 -1.851 0
M  V30 2601 N 245.365 1.30045 0.890287 0
M  V30 2602 C 246.605 1.19839 1.65584 0
M  V30 2603 C 246.969 -0.244175 1.90441 0
M  V30 2604 O 248.17 -0.469378 2.6467 0
M  V30 2605 C 246.441 1.99876 2.96284 0
M  V30 2606 S 248 2.06309 3.87275 0
M  V30 2607 H 244.818 0.427157 0.568382 0
M  V30 2608 H 247.42 1.64453 1.05715 0
M  V30 2609 H 246.124 3.03809 2.75913 0
M  V30 2610 H 245.655 1.55903 3.61189 0
M  V30 2611 H 247.67 1.18661 4.81803 0
M  V30 2612 N 246.843 -1.10192 1.12674 0
M  V30 2613 C 248.071 -1.85983 0.906527 0
M  V30 2614 C 248.486 -1.80783 -0.544333 0
M  V30 2615 O 247.843 -1.19834 -1.37645 0
M  V30 2616 C 247.894 -3.34281 1.37618 0
M  V30 2617 O 247.615 -3.39401 2.77017 0
M  V30 2618 C 249.116 -4.26938 1.19325 0
M  V30 2619 H 246.336 -0.587716 0.323775 0
M  V30 2620 H 248.88 -1.39284 1.49734 0
M  V30 2621 H 247.035 -3.78436 0.828539 0
M  V30 2622 H 247.449 -4.31838 2.97684 0
M  V30 2623 H 248.923 -5.29181 1.57071 0
M  V30 2624 H 249.4 -4.38995 0.134097 0
M  V30 2625 H 250.006 -3.8859 1.72852 0
M  V30 2626 N 248.321 -0.919034 -1.28029 0
M  V30 2627 C 249.549 -0.570971 -1.98866 0
M  V30 2628 C 249.964 0.848996 -1.68634 0
M  V30 2629 O 249.321 1.56307 -0.942036 0
M  V30 2630 C 249.372 -0.776876 -3.53054 0
M  V30 2631 O 249.093 -2.14097 -3.82222 0
M  V30 2632 C 250.594 -0.436356 -4.41147 0
M  V30 2633 H 247.814 -0.217175 -0.634883 0
M  V30 2634 H 250.358 -1.23368 -1.63097 0
M  V30 2635 H 248.513 -0.161085 -3.87065 0
M  V30 2636 H 248.927 -2.18455 -4.76841 0
M  V30 2637 H 250.401 -0.63117 -5.4838 0
M  V30 2638 H 250.878 0.627686 -4.34692 0
M  V30 2639 H 251.484 -1.02991 -4.12641 0
M  V30 2640 N 249.799 1.42003 -0.683588 0
M  V30 2641 C 251.21 1.84501 -0.285736 0
M  V30 2642 C 251.561 1.57213 1.17382 0
M  V30 2643 O 250.686 1.03642 1.89966 0
M  V30 2644 C 251.281 3.34912 -0.511821 0
M  V30 2645 C 249.84 3.76025 -0.168005 0
M  V30 2646 C 248.987 2.6551 -0.799983 0
M  V30 2647 H 251.938 1.31724 -0.885119 0
M  V30 2648 H 251.959 3.79784 0.233292 0
M  V30 2649 H 251.471 3.54741 -1.57418 0
M  V30 2650 H 249.572 3.61801 0.890567 0
M  V30 2651 H 249.685 4.75141 -0.614661 0
M  V30 2652 H 248.049 2.53654 -0.230568 0
M  V30 2653 H 248.832 2.8816 -1.86597 0
M  V30 2654 N 251.277 0.427512 1.51691 0
M  V30 2655 C 252.227 -0.406604 2.24345 0
M  V30 2656 C 253.211 -0.998276 1.26187 0
M  V30 2657 O 254.403 -0.918045 1.51331 0
M  V30 2658 C 251.532 -1.51266 3.08177 0
M  V30 2659 C 250.618 -0.930868 4.13758 0
M  V30 2660 N 251.009 -0.0773552 5.05741 0
M  V30 2661 C 249.307 -1.19948 4.29568 0
M  V30 2662 C 250.008 0.248344 5.8117 0
M  V30 2663 N 248.984 -0.365535 5.4237 0
M  V30 2664 H 252.786 0.251581 2.92821 0
M  V30 2665 H 250.3 0.239003 1.60632 0
M  V30 2666 H 252.297 -2.123 3.58796 0
M  V30 2667 H 250.957 -2.17328 2.41244 0
M  V30 2668 H 251.968 0.288351 5.17097 0
M  V30 2669 H 248.645 -1.85832 3.73862 0
M  V30 2670 H 250.035 0.942286 6.6526 0
M  V30 2671 N 252.755 -1.56801 0.158532 0
M  V30 2672 C 253.685 -2.20347 -0.772609 0
M  V30 2673 C 254.666 -1.15518 -1.24859 0
M  V30 2674 O 255.851 -1.43902 -1.30406 0
M  V30 2675 C 252.981 -2.83417 -2.00729 0
M  V30 2676 C 251.935 -3.94174 -1.66765 0
M  V30 2677 C 251.261 -4.44233 -2.97592 0
M  V30 2678 C 252.561 -5.14392 -0.905447 0
M  V30 2679 H 254.255 -2.98413 -0.242959 0
M  V30 2680 H 251.801 -1.43537 -0.115419 0
M  V30 2681 H 253.754 -3.26543 -2.6636 0
M  V30 2682 H 252.478 -2.02701 -2.56086 0
M  V30 2683 H 251.137 -3.51684 -1.03508 0
M  V30 2684 H 250.785 -3.60325 -3.50963 0
M  V30 2685 H 250.485 -5.18945 -2.75626 0
M  V30 2686 H 252.009 -4.90037 -3.64274 0
M  V30 2687 H 253.423 -5.5429 -1.46408 0
M  V30 2688 H 251.82 -5.9494 -0.7853 0
M  V30 2689 H 252.89 -4.84795 0.100668 0
M  V30 2690 N 254.233 0.115231 -1.57178 0
M  V30 2691 C 255.183 1.14707 -1.97044 0
M  V30 2692 C 256.167 1.36866 -0.845957 0
M  V30 2693 O 257.359 1.37895 -1.10968 0
M  V30 2694 C 254.488 2.47266 -2.38148 0
M  V30 2695 C 253.574 2.28566 -3.57237 0
M  V30 2696 N 253.965 1.79685 -4.72807 0
M  V30 2697 C 252.263 2.59208 -3.62943 0
M  V30 2698 C 252.964 1.74781 -5.54821 0
M  V30 2699 N 251.94 2.19264 -4.97417 0
M  V30 2700 H 255.742 0.761754 -2.83857 0
M  V30 2701 H 253.256 0.322928 -1.59157 0
M  V30 2702 H 255.253 3.219 -2.64927 0
M  V30 2703 H 253.913 2.86552 -1.52702 0
M  V30 2704 H 254.924 1.49177 -4.9595 0
M  V30 2705 H 251.601 3.02154 -2.88113 0
M  V30 2706 H 252.991 1.38212 -6.57531 0
M  V30 2707 N 255.711 1.52812 0.385517 0
M  V30 2708 C 256.936 1.72207 1.15583 0
M  V30 2709 C 257.361 0.441034 1.82857 0
M  V30 2710 O 256.719 -0.603465 1.70962 0
M  V30 2711 C 256.767 2.87476 2.17692 0
M  V30 2712 O 255.871 2.54693 3.24354 0
M  V30 2713 H 255.212 0.572526 0.336319 0
M  V30 2714 H 257.742 1.99618 0.448744 0
M  V30 2715 H 257.752 3.13072 2.6163 0
M  V30 2716 H 256.427 3.80408 1.68115 0
M  V30 2717 H 255.004 2.3985 2.85529 0
M  V30 2718 N 257.189 -0.644168 1.43834 0
M  V30 2719 C 258.438 -1.39985 1.45214 0
M  V30 2720 C 258.751 -1.95421 0.0835494 0
M  V30 2721 O 259.957 -2.71488 -0.0251748 0
M  V30 2722 C 258.413 -2.53384 2.55587 0
M  V30 2723 C 258.021 -2.04517 3.98594 0
M  V30 2724 C 259.765 -3.30685 2.66172 0
M  V30 2725 C 257.672 -3.1518 5.00416 0
M  V30 2726 H 256.602 -0.526005 0.540218 0
M  V30 2727 H 259.253 -0.694367 1.69855 0
M  V30 2728 H 257.635 -3.26446 2.24163 0
M  V30 2729 H 258.809 -1.38405 4.39523 0
M  V30 2730 H 257.124 -1.40068 3.92135 0
M  V30 2731 H 259.721 -4.13158 3.39418 0
M  V30 2732 H 260.064 -3.79312 1.71546 0
M  V30 2733 H 260.597 -2.64708 2.96942 0
M  V30 2734 H 257.336 -2.71511 5.96625 0
M  V30 2735 H 256.856 -3.79974 4.64091 0
M  V30 2736 H 258.535 -3.80166 5.23529 0
M  V30 2737 N 258.668 -1.30515 -0.883378 0
M  V30 2738 C 259.598 -1.19607 -2.00541 0
M  V30 2739 C 260.579 -0.086346 -1.69881 0
M  V30 2740 O 261.764 -0.268654 -1.92333 0
M  V30 2741 C 258.894 -0.888758 -3.35736 0
M  V30 2742 C 257.848 -1.95659 -3.8066 0
M  V30 2743 C 257.174 -1.50224 -5.13164 0
M  V30 2744 C 258.474 -3.36788 -3.99213 0
M  V30 2745 H 260.168 -2.13476 -2.09925 0
M  V30 2746 H 257.714 -1.02775 -1.00863 0
M  V30 2747 H 259.667 -0.799094 -4.13754 0
M  V30 2748 H 258.391 0.0856125 -3.26488 0
M  V30 2749 H 257.05 -2.03591 -3.04871 0
M  V30 2750 H 256.698 -0.516092 -5.00345 0
M  V30 2751 H 256.398 -2.2165 -5.44192 0
M  V30 2752 H 257.922 -1.42639 -5.93706 0
M  V30 2753 H 259.336 -3.31605 -4.67665 0
M  V30 2754 H 257.733 -4.06314 -4.41621 0
M  V30 2755 H 258.803 -3.78561 -3.03017 0
M  V30 2756 N 260.146 1.09593 -1.13257 0
M  V30 2757 C 261.093 2.1618 -0.808381 0
M  V30 2758 C 262.063 1.64517 0.228754 0
M  V30 2759 O 263.248 1.9053 0.101381 0
M  V30 2760 C 260.388 3.43973 -0.278675 0
M  V30 2761 C 259.501 4.09545 -1.37466 0
M  V30 2762 C 258.636 5.25088 -0.803479 0
M  V30 2763 C 257.675 5.82579 -1.87799 0
M  V30 2764 N 256.812 6.89486 -1.32488 0
M  V30 2765 H 261.652 2.43254 -1.72138 0
M  V30 2766 H 259.189 1.19392 -0.859294 0
M  V30 2767 H 261.147 4.17174 0.0465583 0
M  V30 2768 H 259.777 3.17223 0.597459 0
M  V30 2769 H 258.829 3.34226 -1.81652 0
M  V30 2770 H 260.141 4.48307 -2.18684 0
M  V30 2771 H 259.295 6.05178 -0.429427 0
M  V30 2772 H 258.034 4.87684 0.0397956 0
M  V30 2773 H 257.039 5.01152 -2.26113 0
M  V30 2774 H 258.264 6.22045 -2.72463 0
M  V30 2775 H 256.21 6.54064 -0.503575 0
M  V30 2776 H 256.127 7.27007 -2.07355 0
M  V30 2777 H 257.395 7.73336 -0.978336 0
M  V30 2778 N 261.624 0.925811 1.2754 0
M  V30 2779 C 262.587 0.428129 2.25166 0
M  V30 2780 C 263.587 -0.452261 1.54309 0
M  V30 2781 O 264.777 -0.253608 1.72344 0
M  V30 2782 C 261.909 -0.384749 3.38722 0
M  V30 2783 H 263.102 1.29066 2.70706 0
M  V30 2784 H 260.655 0.706323 1.3943 0
M  V30 2785 H 261.39 -1.26618 2.98561 0
M  V30 2786 H 261.175 0.246454 3.91325 0
M  V30 2787 H 262.665 -0.723389 4.11287 0
M  V30 2788 N 263.102 -1.41638 0.69111 0
M  V30 2789 C 264.33 -2.05628 0.22909 0
M  V30 2790 C 264.745 -1.51992 -1.11999 0
M  V30 2791 O 264.102 -0.666322 -1.69901 0
M  V30 2792 C 264.153 -3.61084 0.173283 0
M  V30 2793 O 263.874 -4.12735 1.46907 0
M  V30 2794 C 265.375 -4.42213 -0.310266 0
M  V30 2795 H 262.595 -0.662327 0.107534 0
M  V30 2796 H 265.139 -1.81489 0.942438 0
M  V30 2797 H 263.294 -3.84278 -0.490858 0
M  V30 2798 H 263.708 -5.06743 1.35322 0
M  V30 2799 H 265.182 -5.51194 -0.298196 0
M  V30 2800 H 265.659 -4.1799 -1.34838 0
M  V30 2801 H 266.265 -4.24074 0.322716 0
M  V30 2802 N 264.58 -0.43555 -1.51462 0
M  V30 2803 C 265.528 0.391205 -2.29287 0
M  V30 2804 C 266.522 1.02247 -1.35062 0
M  V30 2805 O 267.728 0.957646 -1.52411 0
M  V30 2806 H 264.103 0.144968 -0.737895 0
M  V30 2807 H 266.074 -0.286051 -2.97026 0
M  V30 2808 C 264.823 1.48096 -3.14583 0
M  V30 2809 H 264.146 1.00457 -3.86973 0
M  V30 2810 H 265.586 2.03273 -3.72097 0
M  V30 2811 C 264.045 2.46321 -2.29843 0
M  V30 2812 O 264.575 3.50815 -1.95682 0
M  V30 2813 N 262.781 2.17166 -1.931 0
M  V30 2814 H 262.328 1.32218 -2.21079 0
M  V30 2815 H 262.286 2.83127 -1.36698 0
M  V30 2816 N 266.058 1.56714 -0.166846 0
M  V30 2817 C 267.288 2.00828 0.48494 0
M  V30 2818 C 267.696 1.04612 1.57648 0
M  V30 2819 O 267.039 0.0383201 1.8366 0
M  V30 2820 C 267.101 3.4137 1.12723 0
M  V30 2821 C 266.765 4.56654 0.177886 0
M  V30 2822 C 267.762 5.16402 -0.60207 0
M  V30 2823 C 265.447 5.02244 0.0750139 0
M  V30 2824 C 267.441 6.20167 -1.47215 0
M  V30 2825 C 265.128 6.05859 -0.798649 0
M  V30 2826 C 266.126 6.64691 -1.57082 0
M  V30 2827 O 265.814 7.66297 -2.42989 0
M  V30 2828 H 265.546 0.663587 0.128953 0
M  V30 2829 H 268.1 2.03692 -0.264365 0
M  V30 2830 H 266.33 3.35406 1.92457 0
M  V30 2831 H 268.019 3.69466 1.68076 0
M  V30 2832 H 268.785 4.82065 -0.53274 0
M  V30 2833 H 264.664 4.56167 0.665812 0
M  V30 2834 H 268.208 6.66016 -2.07531 0
M  V30 2835 H 264.105 6.39621 -0.869199 0
M  V30 2836 H 264.873 7.83601 -2.36455 0
M  V30 2837 N 267.536 -0.106894 1.57237 0
M  V30 2838 C 268.484 -1.14944 2.02215 0
M  V30 2839 C 269.478 -1.42167 0.92114 0
M  V30 2840 O 270.684 -1.41987 1.10634 0
M  V30 2841 H 267.059 -0.387841 0.64427 0
M  V30 2842 H 269.03 -0.743683 2.88984 0
M  V30 2843 C 267.779 -2.4647 2.4525 0
M  V30 2844 H 267.102 -2.26363 3.29545 0
M  V30 2845 H 268.542 -3.17948 2.80508 0
M  V30 2846 C 267.001 -3.09921 1.321 0
M  V30 2847 O 267.531 -3.9651 0.643622 0
M  V30 2848 N 265.737 -2.69986 1.07497 0
M  V30 2849 H 265.284 -1.99667 1.62761 0
M  V30 2850 H 265.242 -3.12769 0.319876 0
M  V30 2851 N 269.014 -1.53014 -0.377408 0
M  V30 2852 C 270.262 -1.6829 -1.11906 0
M  V30 2853 C 270.583 -0.431206 -1.90173 0
M  V30 2854 O 269.853 0.554595 -1.87886 0
M  V30 2855 H 268.433 -0.620371 -0.416112 0
M  V30 2856 H 271.095 -1.90167 -0.426893 0
M  V30 2857 H 270.191 -2.53862 -1.8155 0
M  V30 2858 N 270.492 0.636531 -1.44174 0
M  V30 2859 C 271.442 1.74233 -1.47061 0
M  V30 2860 C 272.426 1.57331 -0.337034 0
M  V30 2861 O 273.618 1.67159 -0.581973 0
M  V30 2862 C 270.747 3.12897 -1.41246 0
M  V30 2863 C 269.833 3.35288 -2.59698 0
M  V30 2864 N 270.224 3.2807 -3.84972 0
M  V30 2865 C 268.522 3.66065 -2.54778 0
M  V30 2866 C 269.223 3.51001 -4.63867 0
M  V30 2867 N 268.199 3.73616 -3.94857 0
M  V30 2868 H 272.001 1.67103 -2.41773 0
M  V30 2869 H 269.515 0.838806 -1.3906 0
M  V30 2870 H 271.512 3.92189 -1.41398 0
M  V30 2871 H 270.172 3.21197 -0.47569 0
M  V30 2872 H 271.183 3.07109 -4.17019 0
M  V30 2873 H 267.86 3.81379 -1.6987 0
M  V30 2874 H 269.25 3.51059 -5.72894 0
M  V30 2875 N 271.97 1.30982 0.876444 0
M  V30 2876 C 273.198 1.23242 1.6619 0
M  V30 2877 C 273.613 -0.203345 1.87702 0
M  V30 2878 O 272.97 -1.13317 1.43057 0
M  V30 2879 C 273.021 1.96623 3.03351 0
M  V30 2880 O 272.742 3.34594 2.82804 0
M  V30 2881 C 274.243 1.95644 3.97792 0
M  V30 2882 H 271.463 0.426126 0.518322 0
M  V30 2883 H 274.007 1.7275 1.09442 0
M  V30 2884 H 272.162 1.50892 3.56806 0
M  V30 2885 H 272.576 3.71873 3.69879 0
M  V30 2886 H 274.05 2.51511 4.91372 0
M  V30 2887 H 274.527 0.937395 4.2908 0
M  V30 2888 H 275.133 2.41225 3.50272 0
M  V30 2889 N 273.449 -1.08991 1.13837 0
M  V30 2890 C 274.689 -1.82867 0.913183 0
M  V30 2891 C 275.053 -1.83936 -0.550604 0
M  V30 2892 O 276.254 -2.53515 -0.893515 0
M  V30 2893 C 274.525 -3.24843 1.49036 0
M  V30 2894 S 276.084 -4.15669 1.40588 0
M  V30 2895 H 272.902 -0.630278 0.329046 0
M  V30 2896 H 275.504 -1.31049 1.45073 0
M  V30 2897 H 274.208 -3.21644 2.54899 0
M  V30 2898 H 273.739 -3.81734 0.950947 0
M  V30 2899 H 275.754 -4.94686 0.387353 0
M  V30 2900 N 274.927 -0.932562 -1.27047 0
M  V30 2901 C 275.857 -0.452902 -2.29066 0
M  V30 2902 C 276.838 0.489338 -1.62909 0
M  V30 2903 O 278.023 0.393046 -1.90181 0
M  V30 2904 C 275.153 0.290698 -3.46081 0
M  V30 2905 C 274.107 -0.564168 -4.24265 0
M  V30 2906 C 273.433 0.308886 -5.33807 0
M  V30 2907 C 274.733 -1.83112 -4.89149 0
M  V30 2908 H 276.427 -1.30552 -2.69437 0
M  V30 2909 H 273.973 -0.629201 -1.29526 0
M  V30 2910 H 275.926 0.637233 -4.16554 0
M  V30 2911 H 274.65 1.17738 -3.0464 0
M  V30 2912 H 273.309 -0.893477 -3.55545 0
M  V30 2913 H 272.957 1.19467 -4.88607 0
M  V30 2914 H 272.657 -0.259633 -5.87026 0
M  V30 2915 H 274.181 0.650884 -6.07121 0
M  V30 2916 H 275.595 -1.55236 -5.51883 0
M  V30 2917 H 273.992 -2.34353 -5.52448 0
M  V30 2918 H 275.062 -2.54772 -4.12576 0
M  V30 2919 N 276.405 1.4127 -0.698611 0
M  V30 2920 C 277.355 2.27997 -0.0119836 0
M  V30 2921 C 278.339 1.42363 0.749765 0
M  V30 2922 O 279.531 1.65607 0.624758 0
M  V30 2923 C 276.66 3.30702 0.921458 0
M  V30 2924 C 275.746 4.23814 0.155796 0
M  V30 2925 N 276.137 4.98572 -0.852015 0
M  V30 2926 C 274.435 4.44284 0.390836 0
M  V30 2927 C 275.136 5.66744 -1.3106 0
M  V30 2928 N 274.112 5.39867 -0.635944 0
M  V30 2929 H 277.914 2.83232 -0.784649 0
M  V30 2930 H 275.428 1.53518 -0.529711 0
M  V30 2931 H 277.425 3.91661 1.42854 0
M  V30 2932 H 276.085 2.77028 1.69369 0
M  V30 2933 H 277.096 5.03024 -1.23235 0
M  V30 2934 H 273.773 4.01614 1.14071 0
M  V30 2935 H 275.163 6.36672 -2.14707 0
M  V30 2936 N 277.883 0.443576 1.51229 0
M  V30 2937 C 278.813 -0.355142 2.30783 0
M  V30 2938 C 279.794 -1.0154 1.36468 0
M  V30 2939 O 280.979 -1.01785 1.65389 0
M  V30 2940 C 278.109 -1.45312 3.15439 0
M  V30 2941 C 277.063 -0.916002 4.18083 0
M  V30 2942 C 276.389 -2.1102 4.91299 0
M  V30 2943 C 277.689 0.0538602 5.22272 0
M  V30 2944 H 279.383 0.308767 2.97804 0
M  V30 2945 H 276.929 0.149937 1.43217 0
M  V30 2946 H 278.882 -2.01914 3.69876 0
M  V30 2947 H 277.606 -2.14541 2.46252 0
M  V30 2948 H 276.265 -0.372145 3.64706 0
M  V30 2949 H 275.913 -2.78882 4.18609 0
M  V30 2950 H 275.613 -1.75717 5.60712 0
M  V30 2951 H 277.137 -2.68164 5.48562 0
M  V30 2952 H 278.551 -0.422069 5.71744 0
M  V30 2953 H 276.948 0.319776 5.99247 0
M  V30 2954 H 278.018 0.98858 4.74716 0
M  V30 2955 N 279.361 -1.56624 0.175154 0
M  V30 2956 C 280.324 -2.16934 -0.739738 0
M  V30 2957 C 281.324 -1.11842 -1.15533 0
M  V30 2958 O 282.514 -1.37335 -1.07167 0
M  V30 2959 C 279.646 -2.75531 -2.00738 0
M  V30 2960 H 280.839 -2.99131 -0.214639 0
M  V30 2961 H 278.392 -1.56123 -0.0744197 0
M  V30 2962 H 279.127 -1.97078 -2.57548 0
M  V30 2963 H 278.912 -3.52444 -1.71831 0
M  V30 2964 H 280.402 -3.21904 -2.66021 0
M  V30 2965 N 280.839 0.0985539 -1.57292 0
M  V30 2966 C 282.064 0.820196 -1.90493 0
M  V30 2967 C 282.489 1.71658 -0.769094 0
M  V30 2968 O 281.847 1.79133 0.279495 0
M  V30 2969 C 281.895 1.61242 -3.22542 0
M  V30 2970 O 280.999 2.72108 -3.09888 0
M  V30 2971 H 280.34 0.225547 -0.62452 0
M  V30 2972 H 282.87 0.0748159 -2.04463 0
M  V30 2973 H 282.88 1.99737 -3.55766 0
M  V30 2974 H 281.555 0.954535 -4.04798 0
M  V30 2975 H 280.132 2.36667 -2.88172 0
M  V30 2976 N 282.317 1.53212 0.369288 0
M  V30 2977 C 283.566 1.68436 1.10961 0
M  V30 2978 C 283.879 0.440738 1.9057 0
M  V30 2979 O 285.085 0.473446 2.6734 0
M  V30 2980 C 283.541 2.97744 2.0218 0
M  V30 2981 C 283.149 4.29355 1.279 0
M  V30 2982 C 284.893 3.22334 2.76226 0
M  V30 2983 C 282.8 5.49755 2.17999 0
M  V30 2984 H 281.73 0.627568 0.41794 0
M  V30 2985 H 284.381 1.79713 0.370884 0
M  V30 2986 H 282.763 2.8026 2.79768 0
M  V30 2987 H 283.937 4.57458 0.554007 0
M  V30 2988 H 282.252 4.11179 0.657311 0
M  V30 2989 H 284.849 4.09471 3.43857 0
M  V30 2990 H 285.192 2.38238 3.41392 0
M  V30 2991 H 285.725 3.40475 2.05723 0
M  V30 2992 H 282.464 6.36318 1.57417 0
M  V30 2993 H 281.984 5.25937 2.88359 0
M  V30 2994 H 283.663 5.84401 2.77641 0
M  V30 2995 N 283.795 -0.628877 1.44509 0
M  V30 2996 C 284.745 -1.7345 1.47983 0
M  V30 2997 C 285.729 -1.5715 0.345373 0
M  V30 2998 O 286.921 -1.66848 0.590829 0
M  V30 2999 C 284.05 -3.12143 1.42904 0
M  V30 3000 C 283.136 -3.33906 2.61472 0
M  V30 3001 N 283.527 -3.26024 3.86706 0
M  V30 3002 C 281.825 -3.64709 2.56716 0
M  V30 3003 C 282.526 -3.48536 4.65722 0
M  V30 3004 N 281.502 -3.71517 3.96832 0
M  V30 3005 H 285.304 -1.65818 2.42655 0
M  V30 3006 H 282.818 -0.831419 1.39503 0
M  V30 3007 H 284.815 -3.91433 1.43476 0
M  V30 3008 H 283.475 -3.2094 0.492717 0
M  V30 3009 H 284.486 -3.04893 4.18641 0
M  V30 3010 H 281.163 -3.80473 1.71891 0
M  V30 3011 H 282.553 -3.48016 5.74747 0
M  V30 3012 N 285.273 -1.31445 -0.869486 0
M  V30 3013 C 286.521 -1.20918 -1.61936 0
M  V30 3014 C 286.842 0.232683 -1.93607 0
M  V30 3015 O 286.112 1.15352 -1.58338 0
M  V30 3016 H 284.692 -0.44454 -0.600328 0
M  V30 3017 H 287.354 -1.64776 -1.0409 0
M  V30 3018 H 286.45 -1.78124 -2.56278 0
M  V30 3019 N 286.751 1.08385 -1.14413 0
M  V30 3020 C 287.981 1.8425 -0.934644 0
M  V30 3021 C 288.389 1.81907 0.520234 0
M  V30 3022 O 287.732 1.22126 1.37226 0
M  V30 3023 C 287.794 3.32853 -1.35828 0
M  V30 3024 C 287.458 3.5893 -2.82875 0
M  V30 3025 C 288.455 3.53756 -3.80989 0
M  V30 3026 C 286.14 3.86934 -3.20293 0
M  V30 3027 C 288.134 3.76216 -5.14529 0
M  V30 3028 C 285.821 4.09047 -4.54008 0
M  V30 3029 C 286.819 4.03682 -5.50936 0
M  V30 3030 O 286.507 4.25214 -6.82238 0
M  V30 3031 H 286.239 0.588502 -0.332628 0
M  V30 3032 H 288.793 1.37792 -1.52324 0
M  V30 3033 H 287.023 3.8007 -0.713019 0
M  V30 3034 H 288.712 3.90154 -1.11957 0
M  V30 3035 H 289.478 3.32135 -3.53428 0
M  V30 3036 H 285.357 3.9023 -2.45442 0
M  V30 3037 H 288.901 3.71943 -5.90173 0
M  V30 3038 H 284.798 4.30151 -4.8129 0
M  V30 3039 H 285.566 4.42619 -6.88499 0
M  V30 3040 N 288.23 0.939286 1.26551 0
M  V30 3041 C 289.16 0.465044 2.28822 0
M  V30 3042 C 290.141 -0.480692 1.63167 0
M  V30 3043 O 291.326 -0.382955 1.90387 0
M  V30 3044 C 288.456 -0.27234 3.46231 0
M  V30 3045 C 287.41 0.58666 4.2396 0
M  V30 3046 C 286.736 -0.280573 5.33963 0
M  V30 3047 C 288.036 1.85704 4.88171 0
M  V30 3048 H 289.73 1.31979 2.68741 0
M  V30 3049 H 287.276 0.636061 1.29191 0
M  V30 3050 H 289.229 -0.615133 4.16886 0
M  V30 3051 H 287.953 -1.16121 3.0526 0
M  V30 3052 H 286.612 0.91232 3.55067 0
M  V30 3053 H 286.26 -1.16874 4.89234 0
M  V30 3054 H 285.96 0.29076 5.8688 0
M  V30 3055 H 287.484 -0.618678 6.07458 0
M  V30 3056 H 288.898 1.58161 5.51052 0
M  V30 3057 H 287.295 2.37279 5.51197 0
M  V30 3058 H 288.365 2.56957 4.11219 0
M  V30 3059 N 289.708 -1.40897 0.706093 0
M  V30 3060 C 290.956 -2.00657 0.241054 0
M  V30 3061 C 291.277 -1.56241 -1.16678 0
M  V30 3062 O 290.547 -0.79765 -1.78926 0
M  V30 3063 H 289.127 -0.742018 0.0861308 0
M  V30 3064 H 291.789 -1.72372 0.909604 0
M  V30 3065 H 290.885 -3.10958 0.266705 0
M  V30 3066 N 291.186 -0.45159 -1.50991 0
M  V30 3067 C 292.435 0.111653 -2.01391 0
M  V30 3068 C 292.748 1.42529 -1.33959 0
M  V30 3069 O 293.954 2.07232 -1.75405 0
M  V30 3070 C 292.41 0.249514 -3.59034 0
M  V30 3071 C 292.018 -1.05453 -4.35412 0
M  V30 3072 C 293.762 0.765762 -4.17536 0
M  V30 3073 C 291.669 -0.881529 -5.84793 0
M  V30 3074 H 290.599 0.0455022 -0.752626 0
M  V30 3075 H 293.25 -0.583524 -1.73975 0
M  V30 3076 H 291.632 1.00803 -3.82955 0
M  V30 3077 H 292.806 -1.82248 -4.23229 0
M  V30 3078 H 291.121 -1.50039 -3.88429 0
M  V30 3079 H 293.718 0.911913 -5.26866 0
M  V30 3080 H 294.061 1.75201 -3.77638 0
M  V30 3081 H 294.594 0.0651744 -3.97747 0
M  V30 3082 H 291.333 -1.84057 -6.29129 0
M  V30 3083 H 290.853 -0.153625 -5.99603 0
M  V30 3084 H 292.532 -0.540363 -6.4474 0
M  V30 3085 N 292.664 1.56529 -0.183458 0
M  V30 3086 C 293.91 1.97537 0.459036 0
M  V30 3087 C 294.243 1.06989 1.62071 0
M  V30 3088 O 293.518 0.11948 1.94133 0
M  V30 3089 C 293.801 3.47874 0.930368 0
M  V30 3090 C 293.654 4.492 -0.232317 0
M  V30 3091 C 294.973 4.01612 1.79989 0
M  V30 3092 H 292.092 0.718204 0.165383 0
M  V30 3093 H 294.734 1.88042 -0.272038 0
M  V30 3094 H 292.884 3.56095 1.55333 0
M  V30 3095 H 294.556 4.53027 -0.86972 0
M  V30 3096 H 292.799 4.24657 -0.885928 0
M  V30 3097 H 293.47 5.51823 0.139796 0
M  V30 3098 H 295.946 3.96097 1.27461 0
M  V30 3099 H 294.822 5.07195 2.09867 0
M  V30 3100 H 295.083 3.46163 2.74998 0
M  V30 3101 N 294.142 -0.090211 1.57342 0
M  V30 3102 C 295.052 -1.12735 2.05738 0
M  V30 3103 C 296.068 -1.43557 0.983231 0
M  V30 3104 O 297.244 -1.54101 1.29672 0
M  V30 3105 C 294.309 -2.42659 2.47624 0
M  V30 3106 C 293.37 -2.18975 3.69254 0
M  V30 3107 C 292.603 -3.42704 4.09133 0
M  V30 3108 O 292.826 -4.51127 3.49057 0
M  V30 3109 O 291.76 -3.32003 5.02053 0
M  V30 3110 H 295.586 -0.746279 2.94388 0
M  V30 3111 H 293.171 -0.303064 1.46294 0
M  V30 3112 H 295.053 -3.19155 2.7517 0
M  V30 3113 H 293.728 -2.80182 1.62109 0
M  V30 3114 H 292.635 -1.40244 3.46818 0
M  V30 3115 H 293.968 -1.86342 4.55563 0
M  V30 3116 N 295.62 -1.53406 -0.361157 0
M  V30 3117 C 296.55 -1.83136 -1.44857 0
M  V30 3118 C 297.531 -0.685174 -1.5569 0
M  V30 3119 O 298.716 -0.93544 -1.70186 0
M  V30 3120 C 295.846 -2.02522 -2.82138 0
M  V30 3121 C 294.8 -3.18302 -2.86126 0
M  V30 3122 C 294.126 -3.22989 -4.26125 0
M  V30 3123 C 295.426 -4.56796 -2.53248 0
M  V30 3124 H 297.12 -2.74201 -1.20226 0
M  V30 3125 H 294.666 -1.31938 -0.576922 0
M  V30 3126 H 296.619 -2.21904 -3.58241 0
M  V30 3127 H 295.343 -1.08172 -3.08166 0
M  V30 3128 H 294.002 -2.98747 -2.12475 0
M  V30 3129 H 293.65 -2.26267 -4.49235 0
M  V30 3130 H 293.35 -4.00781 -4.29708 0
M  V30 3131 H 294.874 -3.44559 -5.04094 0
M  V30 3132 H 296.288 -4.7631 -3.19064 0
M  V30 3133 H 294.685 -5.36862 -2.68141 0
M  V30 3134 H 295.755 -4.61606 -1.48484 0
M  V30 3135 N 297.098 0.621204 -1.44841 0
M  V30 3136 C 298.028 1.74366 -1.55303 0
M  V30 3137 C 299.009 1.65199 -0.405385 0
M  V30 3138 O 300.194 1.83807 -0.626787 0
M  V30 3139 C 297.324 3.12931 -1.50637 0
M  V30 3140 C 296.278 3.36896 -2.63979 0
M  V30 3141 C 295.604 4.75594 -2.44366 0
M  V30 3142 C 296.904 3.28483 -4.06074 0
M  V30 3143 H 298.598 1.65867 -2.49256 0
M  V30 3144 H 296.144 0.796558 -1.19962 0
M  V30 3145 H 298.097 3.9124 -1.56555 0
M  V30 3146 H 296.821 3.22237 -0.532057 0
M  V30 3147 H 295.48 2.60972 -2.57467 0
M  V30 3148 H 295.128 4.81616 -1.45105 0
M  V30 3149 H 294.828 4.92586 -3.20364 0
M  V30 3150 H 296.352 5.5612 -2.52117 0
M  V30 3151 H 297.766 3.96684 -4.13902 0
M  V30 3152 H 296.163 3.57008 -4.82354 0
M  V30 3153 H 297.233 2.26133 -4.28943 0
M  V30 3154 N 298.576 1.31904 0.862503 0
M  V30 3155 C 299.822 1.22197 1.61851 0
M  V30 3156 C 300.155 -0.217641 1.92977 0
M  V30 3157 O 299.43 -1.15264 1.56666 0
M  V30 3158 C 299.713 2.07378 2.94391 0
M  V30 3159 C 299.566 3.59678 2.70096 0
M  V30 3160 C 300.885 1.92891 3.95577 0
M  V30 3161 H 298.004 0.445255 0.587296 0
M  V30 3162 H 300.646 1.6177 0.99651 0
M  V30 3163 H 298.796 1.73758 3.47477 0
M  V30 3164 H 300.468 4.03472 2.23625 0
M  V30 3165 H 298.711 3.82735 2.04197 0
M  V30 3166 H 299.382 4.14595 3.64438 0
M  V30 3167 H 301.858 2.22327 3.51724 0
M  V30 3168 H 300.734 2.54781 4.86187 0
M  V30 3169 H 300.995 0.894315 4.3296 0
M  V30 3170 N 300.054 -1.07777 1.14986 0
M  V30 3171 C 301.279 -1.84558 0.946213 0
M  V30 3172 C 301.704 -1.81323 -0.500362 0
M  V30 3173 O 301.062 -1.20301 -1.35637 0
M  V30 3174 C 301.11 -3.29736 1.45968 0
M  V30 3175 O 300.214 -4.07149 0.65601 0
M  V30 3176 H 299.555 -0.571641 0.33782 0
M  V30 3177 H 302.085 -1.35991 1.52865 0
M  V30 3178 H 302.095 -3.80574 1.47063 0
M  V30 3179 H 300.77 -3.31406 2.51283 0
M  V30 3180 H 299.347 -3.65994 0.714322 0
M  V30 3181 N 301.532 -0.945985 -1.26051 0
M  V30 3182 C 302.462 -0.477172 -2.28572 0
M  V30 3183 C 303.443 0.472032 -1.63419 0
M  V30 3184 O 304.628 0.372853 -1.90587 0
M  V30 3185 C 301.758 0.253975 -3.4637 0
M  V30 3186 C 300.712 -0.609135 -4.23643 0
M  V30 3187 C 300.038 0.252252 -5.34105 0
M  V30 3188 C 301.338 -1.8829 -4.8718 0
M  V30 3189 H 303.032 -1.33402 -2.68038 0
M  V30 3190 H 300.578 -0.642904 -1.28852 0
M  V30 3191 H 302.531 0.593016 -4.17207 0
M  V30 3192 H 301.255 1.145 -3.05871 0
M  V30 3193 H 299.914 -0.931138 -3.54578 0
M  V30 3194 H 299.562 1.14278 -4.89846 0
M  V30 3195 H 299.262 -0.32188 -5.86718 0
M  V30 3196 H 300.786 0.586454 -6.07777 0
M  V30 3197 H 302.2 -1.61081 -5.50205 0
M  V30 3198 H 300.597 -2.40199 -5.49931 0
M  V30 3199 H 301.667 -2.59134 -4.09851 0
M  V30 3200 N 303.011 1.40521 -0.713556 0
M  V30 3201 C 304.259 2.00527 -0.251692 0
M  V30 3202 C 304.58 1.56857 1.15848 0
M  V30 3203 O 303.85 0.807127 1.785 0
M  V30 3204 H 302.43 0.741551 -0.0900646 0
M  V30 3205 H 305.092 1.71887 -0.918733 0
M  V30 3206 H 304.188 3.10813 -0.283192 0
M  V30 3207 N 304.489 0.459591 1.5075 0
M  V30 3208 C 305.452 -0.329093 2.26825 0
M  V30 3209 C 306.452 -0.930481 1.31144 0
M  V30 3210 O 307.642 -0.801453 1.54669 0
M  V30 3211 C 304.774 -1.46768 3.07688 0
M  V30 3212 H 305.967 0.337924 2.9799 0
M  V30 3213 H 303.52 0.213336 1.54837 0
M  V30 3214 H 304.255 -2.17009 2.40993 0
M  V30 3215 H 304.04 -1.04238 3.77991 0
M  V30 3216 H 305.53 -2.02433 3.65254 0
M  V30 3217 N 305.967 -1.56429 0.191757 0
M  V30 3218 C 307.244 -1.89224 -0.495332 0
M  V30 3219 C 307.624 -1.10478 -1.79883 0
M  V30 3220 O 306.972 -0.204852 -2.2758 0
M  V30 3221 C 307.182 -3.41548 -0.717367 0
M  V30 3222 C 308.53 -4.11711 -1.03823 0
M  V30 3223 O 309.554 -3.4698 -0.805204 0
M  V30 3224 O 308.413 -5.2611 -1.47887 0
M  V30 3225 H 305.507 -0.785788 -0.25781 0
M  V30 3226 H 308.053 -1.68111 0.231721 0
M  V30 3227 H 306.825 -3.90772 0.203287 0
M  V30 3228 H 306.448 -3.68342 -1.497 0
M  V30 3229 N 307.445 0.0818655 -1.57387 0
M  V30 3230 C 308.691 0.784074 -1.8703 0
M  V30 3231 C 309.024 1.77729 -0.782689 0
M  V30 3232 O 308.299 1.93384 0.208051 0
M  V30 3233 C 308.582 1.50105 -3.27323 0
M  V30 3234 C 308.435 0.524925 -4.46727 0
M  V30 3235 C 309.754 2.44843 -3.65705 0
M  V30 3236 H 306.873 0.283582 -0.680257 0
M  V30 3237 H 309.515 0.0474352 -1.89941 0
M  V30 3238 H 307.665 2.12897 -3.24972 0
M  V30 3239 H 309.337 -0.0970111 -4.61198 0
M  V30 3240 H 307.58 -0.160606 -4.33503 0
M  V30 3241 H 308.251 1.064 -5.41648 0
M  V30 3242 H 310.727 1.92135 -3.69085 0
M  V30 3243 H 309.603 2.92018 -4.64776 0
M  V30 3244 H 309.864 3.29197 -2.95096 0
M  V30 3245 N 308.923 1.53595 0.353017 0
M  V30 3246 C 309.871 1.81605 1.45335 0
M  V30 3247 C 310.865 0.685923 1.54892 0
M  V30 3248 O 312.071 0.869095 1.57628 0
M  V30 3249 H 308.446 0.575204 0.484401 0
M  V30 3250 H 310.417 2.73679 1.18921 0
M  V30 3251 C 309.166 2.03406 2.81995 0
M  V30 3252 H 308.489 2.89814 2.75405 0
M  V30 3253 H 309.929 2.26975 3.58132 0
M  V30 3254 C 308.388 0.816794 3.26849 0
M  V30 3255 O 308.918 0.0115856 4.01698 0
M  V30 3256 N 307.124 0.636682 2.8354 0
M  V30 3257 H 306.671 1.2931 2.22793 0
M  V30 3258 H 306.629 -0.176336 3.13905 0
M  V30 3259 N 310.401 -0.613514 1.45168 0
M  V30 3260 C 311.364 -1.7065 1.53007 0
M  V30 3261 C 312.364 -1.5548 0.410184 0
M  V30 3262 O 313.554 -1.60656 0.673455 0
M  V30 3263 C 310.686 -3.09875 1.42093 0
M  V30 3264 H 311.879 -1.65068 2.50385 0
M  V30 3265 H 309.432 -0.828728 1.32521 0
M  V30 3266 H 310.167 -3.21039 0.458769 0
M  V30 3267 H 309.952 -3.22293 2.23315 0
M  V30 3268 H 311.442 -3.895 1.50598 0
M  V30 3269 N 311.879 -1.3236 -0.855495 0
M  V30 3270 C 312.811 -1.17052 -1.97057 0
M  V30 3271 C 313.824 -0.10574 -1.62456 0
M  V30 3272 O 315.013 -0.354619 -1.74942 0
M  V30 3273 C 312.113 -0.769305 -3.30053 0
M  V30 3274 C 311.286 -1.9222 -3.929 0
M  V30 3275 C 310.345 -1.50466 -5.04228 0
M  V30 3276 O 309.371 -2.21655 -5.24269 0
M  V30 3277 N 310.573 -0.400209 -5.79119 0
M  V30 3278 H 313.338 -2.13103 -2.1073 0
M  V30 3279 H 310.899 -1.24885 -1.0303 0
M  V30 3280 H 312.891 -0.472407 -4.01933 0
M  V30 3281 H 311.461 0.100025 -3.1244 0
M  V30 3282 H 310.681 -2.38563 -3.13817 0
M  V30 3283 H 311.969 -2.69403 -4.31624 0
M  V30 3284 H 311.367 0.192319 -5.65373 0
M  V30 3285 H 309.924 -0.162912 -6.51596 0
M  V30 3286 N 313.357 1.07166 -1.15556 0
M  V30 3287 C 314.267 2.17947 -0.868116 0
M  V30 3288 C 315.283 1.73297 0.156297 0
M  V30 3289 O 316.459 2.01392 -0.0182327 0
M  V30 3290 C 313.524 3.44789 -0.36355 0
M  V30 3291 C 312.585 4.03996 -1.45209 0
M  V30 3292 C 311.818 5.24783 -0.971508 0
M  V30 3293 O 312.041 5.70109 0.182194 0
M  V30 3294 O 310.975 5.75715 -1.75603 0
M  V30 3295 H 314.801 2.4503 -1.79427 0
M  V30 3296 H 312.386 1.16539 -0.934824 0
M  V30 3297 H 314.268 4.21307 -0.0887113 0
M  V30 3298 H 312.943 3.19253 0.534708 0
M  V30 3299 H 311.85 3.29009 -1.78056 0
M  V30 3300 H 313.183 4.33808 -2.32533 0
M  V30 3301 N 314.835 0.952656 1.25548 0
M  V30 3302 C 316.246 0.647392 1.75116 0
M  V30 3303 C 316.597 -0.837274 1.77438 0
M  V30 3304 O 315.722 -1.65525 1.39393 0
M  V30 3305 C 316.317 1.16845 3.18014 0
M  V30 3306 C 314.876 0.913382 3.6515 0
M  V30 3307 C 314.023 1.31265 2.44264 0
M  V30 3308 H 316.974 1.12968 1.11462 0
M  V30 3309 H 316.995 0.527606 3.76824 0
M  V30 3310 H 316.507 2.24902 3.16292 0
M  V30 3311 H 314.608 -0.152316 3.72289 0
M  V30 3312 H 314.721 1.54845 4.53387 0
M  V30 3313 H 313.085 0.731028 2.43984 0
M  V30 3314 H 313.868 2.40239 2.45234 0
M  V30 3315 N 316.313 -1.40141 0.720998 0
M  V30 3316 C 317.553 -2.02644 0.267335 0
M  V30 3317 C 317.917 -1.55948 -1.12001 0
M  V30 3318 O 319.118 -2.10552 -1.67097 0
M  V30 3319 C 317.389 -3.55679 0.350281 0
M  V30 3320 S 318.948 -4.38793 -0.0256004 0
M  V30 3321 H 315.766 -0.703105 0.105664 0
M  V30 3322 H 318.368 -1.71175 0.944416 0
M  V30 3323 H 317.072 -3.87157 1.36153 0
M  V30 3324 H 316.603 -3.91883 -0.345096 0
M  V30 3325 H 318.618 -4.803 -1.24604 0
M  V30 3326 N 317.792 -0.46758 -1.50504 0
M  V30 3327 C 318.74 0.342482 -2.30065 0
M  V30 3328 C 319.734 0.993596 -1.37201 0
M  V30 3329 O 320.94 0.925102 -1.54408 0
M  V30 3330 H 317.315 0.129283 -0.740803 0
M  V30 3331 H 319.286 -0.34899 -2.96352 0
M  V30 3332 C 318.035 1.4139 -3.17654 0
M  V30 3333 H 317.358 0.922264 -3.89017 0
M  V30 3334 H 318.798 1.95335 -3.76325 0
M  V30 3335 C 317.257 2.4139 -2.35016 0
M  V30 3336 O 317.787 3.46586 -2.03079 0
M  V30 3337 N 315.993 2.13021 -1.97662 0
M  V30 3338 H 315.54 1.27499 -2.23834 0
M  V30 3339 H 315.498 2.80164 -1.42673 0
M  V30 3340 N 319.27 1.56325 -0.20005 0
M  V30 3341 C 320.518 1.97329 0.436547 0
M  V30 3342 C 320.839 1.08826 1.61808 0
M  V30 3343 O 320.109 0.160604 1.95241 0
M  V30 3344 H 318.689 0.728714 0.164272 0
M  V30 3345 H 321.351 1.92761 -0.287937 0
M  V30 3346 H 320.447 3.02264 0.777353 0
M  V30 3347 N 320.748 -0.0735177 1.57428 0
M  V30 3348 C 322.164 -0.428264 1.53747 0
M  V30 3349 C 322.364 -1.79272 0.91998 0
M  V30 3350 O 321.42 -2.47051 0.521745 0
M  V30 3351 C 322.733 -0.370914 2.98404 0
M  V30 3352 C 324.281 -0.451224 3.0973 0
M  V30 3353 C 324.756 -0.4238 4.56035 0
M  V30 3354 N 326.247 -0.483925 4.60665 0
M  V30 3355 C 326.982 -0.484891 5.71346 0
M  V30 3356 N 326.478 -0.440775 6.91396 0
M  V30 3357 N 328.271 -0.531319 5.59583 0
M  V30 3358 H 320.422 0.819949 1.95935 0
M  V30 3359 H 322.685 0.307493 0.896745 0
M  V30 3360 H 322.391 0.564956 3.47133 0
M  V30 3361 H 322.265 -1.18176 3.5821 0
M  V30 3362 H 324.652 -1.37752 2.60976 0
M  V30 3363 H 324.733 0.388167 2.52838 0
M  V30 3364 H 324.377 0.498638 5.05446 0
M  V30 3365 H 324.307 -1.2807 5.10789 0
M  V30 3366 H 326.798 -0.522338 3.74273 0
M  V30 3367 H 327.111 -0.44539 7.71515 0
M  V30 3368 H 325.456 -0.40749 6.93804 0
M  V30 3369 H 328.647 -0.563464 4.64696 0
M  V30 3370 H 328.82 -0.528603 6.4584 0
M  V30 3371 N 322.226 -1.5378 -0.344866 0
M  V30 3372 C 323.454 -1.74899 -1.10534 0
M  V30 3373 C 323.869 -0.487534 -1.82397 0
M  V30 3374 O 323.226 0.540741 -1.74305 0
M  V30 3375 C 323.277 -2.92822 -2.11984 0
M  V30 3376 O 322.998 -4.14089 -1.43044 0
M  V30 3377 C 324.499 -3.25982 -3.00417 0
M  V30 3378 H 321.719 -0.584426 -0.329678 0
M  V30 3379 H 324.263 -2.006 -0.397474 0
M  V30 3380 H 322.418 -2.69457 -2.78338 0
M  V30 3381 H 322.832 -4.80272 -2.10805 0
M  V30 3382 H 324.306 -4.11848 -3.67539 0
M  V30 3383 H 324.783 -2.42228 -3.66363 0
M  V30 3384 H 325.389 -3.51349 -2.39654 0
M  V30 3385 N 323.704 0.605807 -1.45491 0
M  V30 3386 C 324.667 1.69836 -1.5391 0
M  V30 3387 C 325.667 1.55261 -0.418424 0
M  V30 3388 O 326.857 1.60296 -0.681965 0
M  V30 3389 C 323.989 3.09117 -1.43734 0
M  V30 3390 H 325.182 1.63738 -2.51257 0
M  V30 3391 H 322.735 0.821689 -1.32959 0
M  V30 3392 H 323.47 3.20791 -0.475788 0
M  V30 3393 H 323.255 3.21104 -2.25021 0
M  V30 3394 H 324.745 3.88696 -1.52661 0
M  V30 3395 N 325.182 1.32811 0.848464 0
M  V30 3396 C 326.112 1.24882 1.97299 0
M  V30 3397 C 327.093 0.131357 1.69592 0
M  V30 3398 O 328.278 0.319553 1.91553 0
M  V30 3399 C 325.408 0.97746 3.33261 0
M  V30 3400 C 324.362 2.05682 3.75338 0
M  V30 3401 C 323.688 1.63777 5.09 0
M  V30 3402 C 324.988 3.47254 3.90144 0
M  V30 3403 H 326.682 2.18966 2.04191 0
M  V30 3404 H 324.228 1.05413 0.981029 0
M  V30 3405 H 326.181 0.908513 4.1149 0
M  V30 3406 H 324.905 0.000980011 3.266 0
M  V30 3407 H 323.564 2.11603 2.99366 0
M  V30 3408 H 323.212 0.648569 4.98801 0
M  V30 3409 H 322.912 2.36 5.38124 0
M  V30 3410 H 324.436 1.5833 5.89715 0
M  V30 3411 H 325.85 3.43888 4.58709 0
M  V30 3412 H 324.247 4.1788 4.30693 0
M  V30 3413 H 325.317 3.86462 2.92874 0
M  V30 3414 N 326.66 -1.06551 1.16123 0
M  V30 3415 C 327.61 -2.12209 0.833736 0
M  V30 3416 C 328.594 -1.59825 -0.185656 0
M  V30 3417 O 329.786 -1.76994 0.0147906 0
M  V30 3418 C 326.915 -3.41674 0.333697 0
M  V30 3419 C 326.001 -4.00892 1.38372 0
M  V30 3420 N 326.392 -4.34256 2.59337 0
M  V30 3421 C 324.69 -4.28463 1.23836 0
M  V30 3422 C 325.391 -4.81291 3.26701 0
M  V30 3423 N 324.367 -4.80565 2.54083 0
M  V30 3424 H 328.169 -2.35849 1.75364 0
M  V30 3425 H 325.683 -1.24068 1.04789 0
M  V30 3426 H 327.68 -4.16822 0.0806918 0
M  V30 3427 H 326.34 -3.19475 -0.58017 0
M  V30 3428 H 327.351 -4.24687 2.96415 0
M  V30 3429 H 324.028 -4.15721 0.38504 0
M  V30 3430 H 325.418 -5.16332 4.29943 0
M  V30 3431 N 328.138 -0.959301 -1.25041 0
M  V30 3432 C 329.068 -0.501388 -2.28053 0
M  V30 3433 C 330.049 0.454673 -1.63911 0
M  V30 3434 O 331.234 0.352618 -1.90972 0
M  V30 3435 C 328.364 0.217224 -3.4662 0
M  V30 3436 C 327.318 -0.654034 -4.22973 0
M  V30 3437 C 326.644 0.195589 -5.34342 0
M  V30 3438 C 327.944 -1.93447 -4.85155 0
M  V30 3439 H 329.638 -1.36238 -2.66608 0
M  V30 3440 H 327.184 -0.656534 -1.28163 0
M  V30 3441 H 329.137 0.548732 -4.17812 0
M  V30 3442 H 327.861 1.1125 -3.07068 0
M  V30 3443 H 326.52 -0.968693 -3.5357 0
M  V30 3444 H 326.168 1.09076 -4.91031 0
M  V30 3445 H 325.868 -0.384091 -5.86343 0
M  V30 3446 H 327.392 0.521958 -6.08365 0
M  V30 3447 H 328.806 -1.66908 -5.48466 0
M  V30 3448 H 327.203 -2.46018 -5.47353 0
M  V30 3449 H 328.273 -2.63466 -4.07079 0
M  V30 3450 N 329.616 1.39756 -0.72842 0
M  V30 3451 C 330.579 2.29012 -0.0927297 0
M  V30 3452 C 331.579 1.45992 0.674025 0
M  V30 3453 O 332.769 1.66749 0.50402 0
M  V30 3454 C 329.901 3.29396 0.878137 0
M  V30 3455 H 331.094 2.86729 -0.879011 0
M  V30 3456 H 328.647 1.48293 -0.493847 0
M  V30 3457 H 329.382 2.76722 1.69101 0
M  V30 3458 H 329.167 3.907 0.331051 0
M  V30 3459 H 330.657 3.96199 1.3197 0
M  V30 3460 N 331.094 0.475555 1.50254 0
M  V30 3461 C 332.34 -0.0780073 2.0265 0
M  V30 3462 C 332.673 -1.38968 1.35652 0
M  V30 3463 O 331.948 -1.8839 0.483691 0
M  V30 3464 C 332.231 -0.257161 3.59181 0
M  V30 3465 C 332.084 1.07585 4.36744 0
M  V30 3466 C 333.403 -1.00965 4.28362 0
M  V30 3467 H 330.522 -0.0268758 0.73651 0
M  V30 3468 H 333.164 0.622015 1.7953 0
M  V30 3469 H 331.314 -0.853412 3.79011 0
M  V30 3470 H 332.986 1.70902 4.28474 0
M  V30 3471 H 331.229 1.6714 4.00308 0
M  V30 3472 H 331.9 0.904088 5.44546 0
M  V30 3473 H 334.376 -0.504214 4.13034 0
M  V30 3474 H 333.252 -1.10381 5.37687 0
M  V30 3475 H 333.513 -2.04731 3.91839 0
M  V30 3476 N 332.573 -1.56217 0.208337 0
M  V30 3477 C 333.85 -1.89739 -0.475234 0
M  V30 3478 C 334.23 -1.1238 -1.78701 0
M  V30 3479 O 333.578 -0.228979 -2.2735 0
M  V30 3480 C 333.788 -3.42289 -0.681101 0
M  V30 3481 C 335.136 -4.12789 -0.994507 0
M  V30 3482 O 336.16 -3.47814 -0.768357 0
M  V30 3483 O 335.019 -5.27649 -1.42299 0
M  V30 3484 H 332.113 -0.788478 -0.249461 0
M  V30 3485 H 334.659 -1.67855 0.249538 0
M  V30 3486 H 333.431 -3.90534 0.244722 0
M  V30 3487 H 333.054 -3.69909 -1.45785 0
M  V30 3488 N 334.051 0.0651679 -1.57465 0
M  V30 3489 C 334.981 1.07693 -2.07182 0
M  V30 3490 C 335.962 1.39962 -0.966673 0
M  V30 3491 O 337.147 1.49475 -1.2398 0
M  V30 3492 C 334.277 2.3885 -2.52127 0
M  V30 3493 C 333.231 2.20917 -3.66579 0
M  V30 3494 C 332.557 3.57515 -3.97601 0
M  V30 3495 C 333.857 1.62493 -4.9638 0
M  V30 3496 H 335.551 0.663199 -2.91962 0
M  V30 3497 H 333.097 0.317569 -1.40455 0
M  V30 3498 H 335.05 3.09928 -2.85522 0
M  V30 3499 H 333.774 2.82215 -1.64384 0
M  V30 3500 H 332.433 1.52279 -3.33477 0
M  V30 3501 H 332.081 3.98463 -3.06979 0
M  V30 3502 H 331.781 3.46353 -4.74672 0
M  V30 3503 H 333.305 4.30013 -4.33499 0
M  V30 3504 H 334.719 2.23445 -5.27963 0
M  V30 3505 H 333.116 1.62009 -5.77818 0
M  V30 3506 H 334.186 0.587041 -4.81333 0
M  V30 3507 N 335.529 1.53961 0.336706 0
M  V30 3508 C 336.461 1.78751 1.4346 0
M  V30 3509 C 337.474 0.669019 1.48418 0
M  V30 3510 O 338.663 0.945884 1.51378 0
M  V30 3511 C 335.763 1.87844 2.82078 0
M  V30 3512 C 334.936 3.17854 3.00479 0
M  V30 3513 C 333.995 3.17816 4.19379 0
M  V30 3514 O 333.021 3.91511 4.13168 0
M  V30 3515 N 334.223 2.40669 5.2826 0
M  V30 3516 H 336.988 2.73493 1.22563 0
M  V30 3517 H 334.549 1.53096 0.526625 0
M  V30 3518 H 336.541 1.85261 3.59806 0
M  V30 3519 H 335.111 1.00257 2.96086 0
M  V30 3520 H 334.331 3.33504 2.10163 0
M  V30 3521 H 335.619 4.03718 3.0966 0
M  V30 3522 H 335.017 1.8036 5.36178 0
M  V30 3523 H 333.574 2.43877 6.04456 0
M  V30 3524 N 337.007 -0.598083 1.45811 0
M  V30 3525 C 337.955 -1.72932 1.55555 0
M  V30 3526 C 338.949 -1.63984 0.424921 0
M  V30 3527 O 340.155 -1.69663 0.601205 0
M  V30 3528 H 336.53 -0.571489 0.488779 0
M  V30 3529 H 338.501 -1.61842 2.50699 0
M  V30 3530 C 337.25 -3.11318 1.54843 0
M  V30 3531 H 336.573 -3.18867 2.41172 0
M  V30 3532 H 338.013 -3.90274 1.65717 0
M  V30 3533 C 336.472 -3.3578 0.274427 0
M  V30 3534 O 337.002 -3.9654 -0.641778 0
M  V30 3535 N 335.208 -2.90119 0.167139 0
M  V30 3536 H 334.755 -2.40855 0.913596 0
M  V30 3537 H 334.713 -3.0686 -0.684435 0
M  V30 3538 N 338.485 -1.33259 -0.841409 0
M  V30 3539 C 339.896 -1.22066 -1.41269 0
M  V30 3540 C 340.247 0.161479 -1.95534 0
M  V30 3541 O 339.372 1.06094 -1.88608 0
M  V30 3542 C 339.967 -2.20996 -2.568 0
M  V30 3543 C 338.526 -2.13649 -3.09888 0
M  V30 3544 C 337.673 -2.08623 -1.82679 0
M  V30 3545 H 340.624 -1.44895 -0.647395 0
M  V30 3546 H 340.645 -1.81621 -3.34356 0
M  V30 3547 H 340.157 -3.2158 -2.17274 0
M  V30 3548 H 338.258 -1.16359 -3.53965 0
M  V30 3549 H 338.371 -3.04079 -3.70234 0
M  V30 3550 H 336.735 -1.54061 -2.02824 0
M  V30 3551 H 337.518 -3.1101 -1.45353 0
M  V30 3552 N 339.963 1.05934 -1.16686 0
M  V30 3553 C 341.24 1.75643 -0.860747 0
M  V30 3554 C 341.62 2.01144 0.640641 0
M  V30 3555 O 340.968 1.64147 1.58959 0
M  V30 3556 C 341.178 3.05493 -1.68745 0
M  V30 3557 C 342.526 3.79581 -1.90271 0
M  V30 3558 O 343.55 3.15344 -1.65641 0
M  V30 3559 O 342.409 4.9499 -2.31618 0
M  V30 3560 H 339.503 0.763426 -0.317977 0
M  V30 3561 H 342.049 1.1217 -1.27342 0
M  V30 3562 H 340.821 2.8264 -2.70611 0
M  V30 3563 H 340.444 3.76702 -1.27206 0
M  V30 3564 N 341.441 0.965919 1.2453 0
M  V30 3565 C 342.371 0.513476 2.27784 0
M  V30 3566 C 343.352 -0.445974 1.6415 0
M  V30 3567 O 344.537 -0.342485 1.91156 0
M  V30 3568 C 341.667 -0.198839 3.4673 0
M  V30 3569 C 340.621 0.676456 4.2262 0
M  V30 3570 C 339.947 -0.167248 5.34438 0
M  V30 3571 C 341.247 1.96017 4.84123 0
M  V30 3572 H 342.941 1.3765 2.65881 0
M  V30 3573 H 340.487 0.663321 1.27813 0
M  V30 3574 H 342.44 -0.526567 4.18097 0
M  V30 3575 H 341.164 -1.0962 3.07654 0
M  V30 3576 H 339.823 0.98743 3.53052 0
M  V30 3577 H 339.471 -1.0647 4.91603 0
M  V30 3578 H 339.171 0.415181 5.86131 0
M  V30 3579 H 340.695 -0.489688 6.08633 0
M  V30 3580 H 342.109 1.69814 5.47573 0
M  V30 3581 H 340.506 2.48918 5.4604 0
M  V30 3582 H 341.576 2.65622 4.05676 0
M  V30 3583 N 342.919 -1.39368 0.735821 0
M  V30 3584 C 344.165 -2.00794 0.284544 0
M  V30 3585 C 344.498 -1.58255 -1.12557 0
M  V30 3586 O 343.773 -0.811819 -1.76748 0
M  V30 3587 C 344.056 -3.58011 0.387337 0
M  V30 3588 C 343.909 -4.10566 1.83728 0
M  V30 3589 C 345.228 -4.395 -0.22975 0
M  V30 3590 H 342.347 -0.729501 0.104866 0
M  V30 3591 H 344.989 -1.65564 0.93213 0
M  V30 3592 H 343.139 -3.88154 -0.164006 0
M  V30 3593 H 344.811 -3.91139 2.44556 0
M  V30 3594 H 343.054 -3.64095 2.35833 0
M  V30 3595 H 343.725 -5.19702 1.86047 0
M  V30 3596 H 346.201 -4.15406 0.240257 0
M  V30 3597 H 345.077 -5.48752 -0.127485 0
M  V30 3598 H 345.338 -4.22062 -1.3159 0
M  V30 3599 N 344.397 -0.483516 -1.5 0
M  V30 3600 C 345.622 0.0667119 -2.07293 0
M  V30 3601 C 346.047 1.3164 -1.3436 0
M  V30 3602 O 345.405 1.76945 -0.394987 0
M  V30 3603 C 345.453 0.321126 -3.59167 0
M  V30 3604 O 344.557 1.39927 -3.87936 0
M  V30 3605 H 343.898 -0.0184758 -0.663743 0
M  V30 3606 H 346.428 -0.678125 -1.93035 0
M  V30 3607 H 346.438 0.557906 -4.04168 0
M  V30 3608 H 345.113 -0.592007 -4.11665 0
M  V30 3609 H 343.69 1.14882 -3.54763 0
M  V30 3610 N 345.875 1.56104 -0.216619 0
M  V30 3611 C 346.805 2.23063 0.690296 0
M  V30 3612 C 347.786 1.20072 1.20485 0
M  V30 3613 O 348.971 1.48643 1.24976 0
M  V30 3614 C 346.101 2.90672 1.90072 0
M  V30 3615 C 345.055 4.00092 1.5202 0
M  V30 3616 C 344.381 4.54972 2.80899 0
M  V30 3617 C 345.681 5.17398 0.71391 0
M  V30 3618 H 347.375 2.99109 0.132038 0
M  V30 3619 H 344.921 1.43866 0.0620664 0
M  V30 3620 H 346.874 3.36204 2.54057 0
M  V30 3621 H 345.598 2.12066 2.48386 0
M  V30 3622 H 344.257 3.55283 0.903839 0
M  V30 3623 H 343.905 3.73102 3.37348 0
M  V30 3624 H 343.605 5.28817 2.56176 0
M  V30 3625 H 345.129 5.0322 3.45836 0
M  V30 3626 H 346.543 5.59342 1.25735 0
M  V30 3627 H 344.94 5.97444 0.563951 0
M  V30 3628 H 346.01 4.84088 -0.280527 0
M  V30 3629 N 347.353 -0.0568162 1.57498 0
M  V30 3630 C 348.283 -1.06593 2.0775 0
M  V30 3631 C 349.264 -1.39448 0.974082 0
M  V30 3632 O 350.449 -1.48815 1.24771 0
M  V30 3633 C 347.579 -2.37509 2.5339 0
M  V30 3634 C 346.533 -2.1897 3.67745 0
M  V30 3635 C 345.859 -3.55402 3.99492 0
M  V30 3636 C 347.159 -1.59859 4.97235 0
M  V30 3637 H 348.853 -0.647706 2.9231 0
M  V30 3638 H 346.399 -0.310116 1.40621 0
M  V30 3639 H 348.352 -3.08409 2.87162 0
M  V30 3640 H 347.076 -2.8134 1.65878 0
M  V30 3641 H 345.735 -1.50508 3.3428 0
M  V30 3642 H 345.383 -3.9683 3.09088 0
M  V30 3643 H 345.083 -3.43831 4.76502 0
M  V30 3644 H 346.607 -4.27708 4.35773 0
M  V30 3645 H 348.021 -2.20642 5.29141 0
M  V30 3646 H 346.418 -1.58942 5.78669 0
M  V30 3647 H 347.488 -0.561506 4.81638 0
M  V30 3648 N 348.832 -1.54138 -0.328536 0
M  V30 3649 C 349.762 -1.86167 -1.40939 0
M  V30 3650 C 350.743 -0.718044 -1.54202 0
M  V30 3651 O 351.928 -0.971328 -1.68163 0
M  V30 3652 C 349.058 -2.08461 -2.77779 0
M  V30 3653 C 348.012 -3.24299 -2.7931 0
M  V30 3654 C 347.338 -3.31955 -4.19178 0
M  V30 3655 C 348.638 -4.62065 -2.43502 0
M  V30 3656 H 350.332 -2.76689 -1.14383 0
M  V30 3657 H 347.878 -1.33132 -0.548806 0
M  V30 3658 H 349.831 -2.29453 -3.53454 0
M  V30 3659 H 348.555 -1.14684 -3.05802 0
M  V30 3660 H 347.214 -3.03187 -2.0609 0
M  V30 3661 H 346.862 -2.35745 -4.44335 0
M  V30 3662 H 346.562 -4.09805 -4.2111 0
M  V30 3663 H 348.086 -3.55175 -4.96672 0
M  V30 3664 H 349.5 -4.8297 -3.08889 0
M  V30 3665 H 347.897 -5.42429 -2.56693 0
M  V30 3666 H 348.967 -4.64652 -1.38659 0
M  V30 3667 N 350.31 0.590341 -1.46126 0
M  V30 3668 C 351.257 1.69994 -1.56111 0
M  V30 3669 C 352.227 1.61065 -0.405867 0
M  V30 3670 O 353.412 1.8039 -0.621613 0
M  V30 3671 C 350.552 3.08326 -1.55013 0
M  V30 3672 C 349.665 3.27936 -2.81215 0
M  V30 3673 C 348.8 4.56473 -2.71673 0
M  V30 3674 C 347.839 4.694 -3.92849 0
M  V30 3675 N 346.976 5.89254 -3.81738 0
M  V30 3676 H 351.816 1.60797 -2.50895 0
M  V30 3677 H 349.353 0.783799 -1.24479 0
M  V30 3678 H 351.311 3.88383 -1.52362 0
M  V30 3679 H 349.941 3.16439 -0.637667 0
M  V30 3680 H 348.993 2.41536 -2.93879 0
M  V30 3681 H 350.305 3.33357 -3.71045 0
M  V30 3682 H 349.459 5.44748 -2.67085 0
M  V30 3683 H 348.198 4.53477 -1.7947 0
M  V30 3684 H 347.203 3.79544 -3.97777 0
M  V30 3685 H 348.428 4.7418 -4.86138 0
M  V30 3686 H 346.374 5.87271 -2.92317 0
M  V30 3687 H 346.291 5.95911 -4.65217 0
M  V30 3688 H 347.559 6.79981 -3.81112 0
M  V30 3689 N 351.788 1.33704 0.83433 0
M  V30 3690 C 353.028 1.26754 1.60352 0
M  V30 3691 C 353.392 -0.163182 1.91305 0
M  V30 3692 O 354.593 -0.3567 2.66423 0
M  V30 3693 C 352.864 2.12262 2.8754 0
M  V30 3694 S 354.423 2.22549 3.78176 0
M  V30 3695 H 351.241 0.450879 0.549753 0
M  V30 3696 H 353.843 1.68788 0.986444 0
M  V30 3697 H 352.547 3.15238 2.62779 0
M  V30 3698 H 352.078 1.71082 3.54252 0
M  V30 3699 H 354.093 1.3899 4.76336 0
M  V30 3700 N 353.266 -1.05314 1.17247 0
M  V30 3701 C 354.514 -1.77941 0.958194 0
M  V30 3702 C 354.835 -1.88089 -0.514556 0
M  V30 3703 O 354.105 -1.39676 -1.37359 0
M  V30 3704 H 352.685 -0.659116 0.351533 0
M  V30 3705 H 355.347 -1.27166 1.47699 0
M  V30 3706 H 354.443 -2.79663 1.38546 0
M  V30 3707 N 354.744 -0.972509 -1.24016 0
M  V30 3708 C 355.707 -0.511403 -2.23422 0
M  V30 3709 C 356.707 0.394679 -1.55881 0
M  V30 3710 O 357.897 0.189469 -1.73167 0
M  V30 3711 C 355.029 0.258769 -3.39916 0
M  V30 3712 H 356.222 -1.39024 -2.6573 0
M  V30 3713 H 353.775 -0.757585 -1.36713 0
M  V30 3714 H 354.51 1.1545 -3.03054 0
M  V30 3715 H 354.295 -0.391522 -3.9014 0
M  V30 3716 H 355.785 0.570244 -4.13688 0
M  V30 3717 N 356.222 1.38976 -0.743202 0
M  V30 3718 C 357.499 1.94351 -0.220705 0
M  V30 3719 C 357.879 1.67935 1.2791 0
M  V30 3720 O 357.227 1.01211 2.04862 0
M  V30 3721 C 357.437 3.44426 -0.563171 0
M  V30 3722 C 358.785 4.2144 -0.517046 0
M  V30 3723 O 359.809 3.52661 -0.500846 0
M  V30 3724 O 358.668 5.44032 -0.518806 0
M  V30 3725 H 355.762 0.825879 -0.043047 0
M  V30 3726 H 358.308 1.48429 -0.822618 0
M  V30 3727 H 357.08 3.5712 -1.59941 0
M  V30 3728 H 356.703 3.97543 0.0672883 0
M  V30 3729 N 357.7 0.491464 1.49741 0
M  V30 3730 C 358.946 -0.0565092 2.02721 0
M  V30 3731 C 359.279 -1.37522 1.37118 0
M  V30 3732 O 358.554 -1.87866 0.503645 0
M  V30 3733 C 358.837 -0.219051 3.59433 0
M  V30 3734 C 358.69 1.12211 4.35579 0
M  V30 3735 C 360.009 -0.964157 4.29409 0
M  V30 3736 H 357.128 -0.0190627 0.736753 0
M  V30 3737 H 359.77 0.641021 1.7886 0
M  V30 3738 H 357.92 -0.813165 3.79895 0
M  V30 3739 H 359.592 1.75437 4.26637 0
M  V30 3740 H 357.835 1.71377 3.98513 0
M  V30 3741 H 358.506 0.961794 5.43556 0
M  V30 3742 H 360.982 -0.460378 4.13545 0
M  V30 3743 H 359.858 -1.04671 5.38828 0
M  V30 3744 H 360.119 -2.00563 3.93988 0
M  V30 3745 N 359.178 -1.55987 0.224894 0
M  V30 3746 C 360.126 -2.21808 -0.700283 0
M  V30 3747 C 361.12 -1.19854 -1.19714 0
M  V30 3748 O 362.326 -1.37925 -1.15658 0
M  V30 3749 H 358.701 -0.711226 -0.244258 0
M  V30 3750 H 360.672 -2.98152 -0.121749 0
M  V30 3751 C 359.421 -2.91444 -1.8962 0
M  V30 3752 H 358.744 -3.69655 -1.52299 0
M  V30 3753 H 360.184 -3.40894 -2.52125 0
M  V30 3754 C 358.643 -1.94098 -2.75368 0
M  V30 3755 O 359.173 -1.46004 -3.74227 0
M  V30 3756 N 357.379 -1.61675 -2.41474 0
M  V30 3757 H 356.926 -2.00979 -1.61137 0
M  V30 3758 H 356.884 -0.968036 -2.99126 0
M  V30 3759 N 360.656 0.0484629 -1.57525 0
M  V30 3760 C 362.072 0.40375 -1.54409 0
M  V30 3761 C 362.272 1.77786 -0.948384 0
M  V30 3762 O 361.328 2.46189 -0.560983 0
M  V30 3763 C 362.641 0.323394 -2.98956 0
M  V30 3764 C 364.189 0.401892 -3.10409 0
M  V30 3765 C 364.664 0.351195 -4.56652 0
M  V30 3766 N 366.155 0.410576 -4.61377 0
M  V30 3767 C 366.89 0.393933 -5.72045 0
M  V30 3768 N 366.386 0.330724 -6.9201 0
M  V30 3769 N 368.179 0.442227 -5.60358 0
M  V30 3770 H 360.33 -0.851016 -1.94606 0
M  V30 3771 H 362.593 -0.321721 -0.89174 0
M  V30 3772 H 362.299 -0.62011 -3.4619 0
M  V30 3773 H 362.173 1.12463 -3.60044 0
M  V30 3774 H 364.56 1.33582 -2.63134 0
M  V30 3775 H 364.641 -0.428342 -2.52188 0
M  V30 3776 H 364.285 -0.578987 -5.04589 0
M  V30 3777 H 364.215 1.19928 -5.12762 0
M  V30 3778 H 366.706 0.462729 -3.75056 0
M  V30 3779 H 367.019 0.322592 -7.72126 0
M  V30 3780 H 365.364 0.29706 -6.94365 0
M  V30 3781 H 368.555 0.489464 -4.65534 0
M  V30 3782 H 368.728 0.425788 -6.466 0
M  V30 3783 N 362.134 1.5431 0.320358 0
M  V30 3784 C 363.38 1.72924 1.05949 0
M  V30 3785 C 363.713 0.503185 1.87568 0
M  V30 3786 O 362.988 -0.499839 1.87968 0
M  V30 3787 C 363.271 3.00676 1.98156 0
M  V30 3788 C 363.124 4.3354 1.19845 0
M  V30 3789 C 364.443 3.24198 2.9763 0
M  V30 3790 H 361.562 0.629195 0.383774 0
M  V30 3791 H 364.204 1.87008 0.335854 0
M  V30 3792 H 362.354 2.888 2.59859 0
M  V30 3793 H 364.026 4.57305 0.605773 0
M  V30 3794 H 362.269 4.309 0.500784 0
M  V30 3795 H 362.94 5.19156 1.87567 0
M  V30 3796 H 365.416 3.35557 2.4605 0
M  V30 3797 H 364.292 4.14938 3.59329 0
M  V30 3798 H 364.553 2.41577 3.7026 0
M  V30 3799 N 363.613 -0.582584 1.46437 0
M  V30 3800 C 364.841 -1.36682 1.55324 0
M  V30 3801 C 365.256 -1.87796 0.194409 0
M  V30 3802 O 364.613 -1.63623 -0.808318 0
M  V30 3803 C 364.664 -2.55426 2.55812 0
M  V30 3804 O 364.385 -2.0643 3.86417 0
M  V30 3805 C 365.886 -3.47976 2.74641 0
M  V30 3806 H 363.106 -0.417545 0.525259 0
M  V30 3807 H 365.65 -0.708219 1.91845 0
M  V30 3808 H 363.805 -3.17275 2.22295 0
M  V30 3809 H 364.219 -2.83762 4.41111 0
M  V30 3810 H 365.693 -4.27775 3.48874 0
M  V30 3811 H 366.17 -3.99919 1.81553 0
M  V30 3812 H 366.776 -2.91962 3.09255 0
M  V30 3813 N 365.091 -1.34144 -0.827227 0
M  V30 3814 C 366.321 -1.29138 -1.61267 0
M  V30 3815 C 366.729 0.137597 -1.88699 0
M  V30 3816 O 366.072 1.09379 -1.47587 0
M  V30 3817 C 366.134 -2.0097 -2.9808 0
M  V30 3818 C 365.798 -3.50242 -2.93563 0
M  V30 3819 C 366.795 -4.4523 -2.68452 0
M  V30 3820 C 364.48 -3.92592 -3.13331 0
M  V30 3821 C 366.474 -5.80542 -2.63154 0
M  V30 3822 C 364.161 -5.28005 -3.07658 0
M  V30 3823 C 365.159 -6.21792 -2.82602 0
M  V30 3824 O 364.847 -7.54723 -2.76853 0
M  V30 3825 H 364.579 -0.445851 -0.508127 0
M  V30 3826 H 367.133 -1.77263 -1.03763 0
M  V30 3827 H 365.363 -1.47451 -3.57484 0
M  V30 3828 H 367.052 -1.89309 -3.5905 0
M  V30 3829 H 367.818 -4.13832 -2.52919 0
M  V30 3830 H 363.697 -3.19994 -3.31851 0
M  V30 3831 H 367.241 -6.53717 -2.43516 0
M  V30 3832 H 363.138 -5.59023 -3.22743 0
M  V30 3833 H 363.906 -7.64409 -2.92611 0
M  V30 3834 N 366.569 1.04691 -1.17803 0
M  V30 3835 C 367.501 2.12571 -0.857097 0
M  V30 3836 C 368.514 1.62174 0.142647 0
M  V30 3837 O 369.703 1.78301 -0.0843387 0
M  V30 3838 C 366.803 3.37915 -0.258216 0
M  V30 3839 C 365.976 4.1757 -1.30207 0
M  V30 3840 C 365.035 5.2125 -0.720029 0
M  V30 3841 O 364.061 5.51888 -1.39314 0
M  V30 3842 N 365.263 5.78466 0.485507 0
M  V30 3843 H 368.028 2.40698 -1.78562 0
M  V30 3844 H 365.589 1.20831 -1.07757 0
M  V30 3845 H 367.581 4.04442 0.144584 0
M  V30 3846 H 366.151 3.07281 0.574199 0
M  V30 3847 H 365.371 3.46458 -1.88043 0
M  V30 3848 H 366.659 4.67586 -2.00601 0
M  V30 3849 H 366.057 5.55866 1.05022 0
M  V30 3850 H 364.614 6.4649 0.830307 0
M  V30 3851 N 368.047 0.979072 1.23499 0
M  V30 3852 C 369.295 0.645941 1.91499 0
M  V30 3853 C 369.616 -0.822948 1.76784 0
M  V30 3854 O 368.886 -1.58854 1.14639 0
M  V30 3855 H 367.466 0.235919 0.708767 0
M  V30 3856 H 370.128 1.2426 1.50152 0
M  V30 3857 H 369.224 0.896411 2.9895 0
M  V30 3858 N 369.525 -1.3858 0.750561 0
M  V30 3859 C 370.755 -2.04175 0.31564 0
M  V30 3860 C 371.163 -1.56726 -1.05989 0
M  V30 3861 O 370.506 -0.734225 -1.68389 0
M  V30 3862 C 370.568 -3.58585 0.256389 0
M  V30 3863 C 370.232 -4.29077 1.57296 0
M  V30 3864 C 371.229 -4.54656 2.52159 0
M  V30 3865 C 368.914 -4.67324 1.84156 0
M  V30 3866 C 370.908 -5.17512 3.72103 0
M  V30 3867 C 368.595 -5.29905 3.04374 0
M  V30 3868 C 369.593 -5.54933 3.98168 0
M  V30 3869 O 369.281 -6.16212 5.16273 0
M  V30 3870 H 369.013 -0.662742 0.133226 0
M  V30 3871 H 371.567 -1.78313 1.01948 0
M  V30 3872 H 369.797 -3.83406 -0.503677 0
M  V30 3873 H 371.486 -4.05628 -0.148612 0
M  V30 3874 H 372.252 -4.25539 2.32683 0
M  V30 3875 H 368.131 -4.47191 1.11988 0
M  V30 3876 H 371.675 -5.36963 4.45327 0
M  V30 3877 H 367.572 -5.58444 3.23745 0
M  V30 3878 H 368.34 -6.34701 5.16815 0
M  V30 3879 N 371.003 -0.499398 -1.49478 0
M  V30 3880 C 372.228 0.044722 -2.07352 0
M  V30 3881 C 372.653 1.30207 -1.35749 0
M  V30 3882 O 372.011 1.76516 -0.413732 0
M  V30 3883 C 372.059 0.283013 -3.59488 0
M  V30 3884 O 371.163 1.35804 -3.89398 0
M  V30 3885 H 370.504 -0.0255147 -0.66351 0
M  V30 3886 H 373.034 -0.698561 -1.92305 0
M  V30 3887 H 373.044 0.515007 -4.04737 0
M  V30 3888 H 371.719 -0.635636 -4.11014 0
M  V30 3889 H 370.296 1.11113 -3.55961 0
M  V30 3890 N 372.481 1.55866 -0.233164 0
M  V30 3891 C 373.892 1.847 0.272554 0
M  V30 3892 C 374.243 1.15477 1.58617 0
M  V30 3893 O 373.368 0.42841 2.12117 0
M  V30 3894 C 373.963 3.35071 0.501299 0
M  V30 3895 C 372.522 3.6418 0.951304 0
M  V30 3896 C 371.669 2.77292 0.0208209 0
M  V30 3897 H 374.62 1.52005 -0.456074 0
M  V30 3898 H 374.641 3.55906 1.34577 0
M  V30 3899 H 374.153 3.85424 -0.454936 0
M  V30 3900 H 372.254 3.19293 1.92049 0
M  V30 3901 H 372.367 4.72071 0.817675 0
M  V30 3902 H 370.731 2.49131 0.529723 0
M  V30 3903 H 371.514 3.30448 -0.93054 0
M  V30 3904 N 373.959 -0.0401083 1.57549 0
M  V30 3905 C 375.189 -0.744115 1.92734 0
M  V30 3906 C 375.597 -1.70005 0.830348 0
M  V30 3907 O 374.94 -1.82576 -0.20286 0
M  V30 3908 C 375.002 -1.56516 3.2364 0
M  V30 3909 C 374.666 -0.7752 4.50377 0
M  V30 3910 C 375.663 -0.0803326 5.19838 0
M  V30 3911 C 373.348 -0.733002 4.96923 0
M  V30 3912 C 375.342 0.646154 6.34116 0
M  V30 3913 C 373.029 -0.00276321 6.111 0
M  V30 3914 C 374.027 0.685585 6.7955 0
M  V30 3915 O 373.715 1.40399 7.91545 0
M  V30 3916 H 373.447 -0.214861 0.640945 0
M  V30 3917 H 376.001 -0.00503675 2.05399 0
M  V30 3918 H 374.231 -2.3478 3.07271 0
M  V30 3919 H 375.92 -2.15076 3.44234 0
M  V30 3920 H 376.686 -0.104035 4.84888 0
M  V30 3921 H 372.565 -1.25827 4.43496 0
M  V30 3922 H 376.109 1.18398 6.87479 0
M  V30 3923 H 372.006 0.0229012 6.45496 0
M  V30 3924 H 372.774 1.31653 8.07843 0
M  V30 3925 N 375.437 -1.54477 -0.31217 0
M  V30 3926 C 376.369 -1.81011 -1.40598 0
M  V30 3927 C 377.382 -0.692546 -1.47335 0
M  V30 3928 O 378.571 -0.969847 -1.49854 0
M  V30 3929 C 375.671 -1.92307 -2.79054 0
M  V30 3930 C 374.844 -3.22594 -2.95384 0
M  V30 3931 C 373.903 -3.24448 -4.1427 0
M  V30 3932 O 372.929 -3.98035 -4.06887 0
M  V30 3933 N 374.131 -2.49042 -5.24365 0
M  V30 3934 H 376.896 -2.75408 -1.18196 0
M  V30 3935 H 374.457 -1.53914 -0.502202 0
M  V30 3936 H 376.449 -1.90962 -3.56813 0
M  V30 3937 H 375.019 -1.04955 -2.94454 0
M  V30 3938 H 374.239 -3.36806 -2.04831 0
M  V30 3939 H 375.527 -4.08593 -3.03198 0
M  V30 3940 H 374.925 -1.88867 -5.33241 0
M  V30 3941 H 373.482 -2.53463 -6.005 0
M  V30 3942 N 376.915 0.57481 -1.46744 0
M  V30 3943 C 377.845 1.69337 -1.60771 0
M  V30 3944 C 378.826 1.63825 -0.457736 0
M  V30 3945 O 380.011 1.8172 -0.684947 0
M  V30 3946 C 377.141 3.0798 -1.60517 0
M  V30 3947 C 376.095 3.28327 -2.74564 0
M  V30 3948 C 375.421 4.67578 -2.59373 0
M  V30 3949 C 376.721 3.15398 -4.16319 0
M  V30 3950 H 378.415 1.57853 -2.54407 0
M  V30 3951 H 375.961 0.75799 -1.22436 0
M  V30 3952 H 377.914 3.86061 -1.68923 0
M  V30 3953 H 376.638 3.20381 -0.634305 0
M  V30 3954 H 375.297 2.52649 -2.65639 0
M  V30 3955 H 374.945 4.76755 -1.60353 0
M  V30 3956 H 374.645 4.82144 -3.35873 0
M  V30 3957 H 376.169 5.47817 -2.69682 0
M  V30 3958 H 377.583 3.83315 -4.26313 0
M  V30 3959 H 375.98 3.41482 -4.93468 0
M  V30 3960 H 377.05 2.12372 -4.3592 0
M  V30 3961 N 378.394 1.34581 0.820102 0
M  V30 3962 C 379.622 1.3018 1.60813 0
M  V30 3963 C 380.037 -0.123551 1.88395 0
M  V30 3964 O 379.394 -1.07148 1.47735 0
M  V30 3965 C 379.445 2.09312 2.94739 0
M  V30 3966 O 379.166 3.46288 2.68358 0
M  V30 3967 C 380.667 2.1234 3.89136 0
M  V30 3968 H 377.887 0.447726 0.499782 0
M  V30 3969 H 380.431 1.77237 1.02017 0
M  V30 3970 H 378.586 1.65889 3.50085 0
M  V30 3971 H 379 3.87227 3.53774 0
M  V30 3972 H 380.474 2.72126 4.80262 0
M  V30 3973 H 380.951 1.11854 4.24718 0
M  V30 3974 H 381.557 2.55864 3.39726 0
M  V30 3975 N 379.872 -1.04064 1.18357 0
M  V30 3976 C 381.118 -1.77658 0.990412 0
M  V30 3977 C 381.473 -1.86446 -0.474944 0
M  V30 3978 O 380.766 -1.36153 -1.34807 0
M  V30 3979 C 380.96 -3.20634 1.57888 0
M  V30 3980 C 380.789 -3.25782 3.09994 0
M  V30 3981 C 379.559 -3.34411 3.7881 0
M  V30 3982 C 381.757 -3.13791 4.0748 0
M  V30 3983 N 379.739 -3.28809 5.18418 0
M  V30 3984 C 381.11 -3.15689 5.33611 0
M  V30 3985 C 383.165 -2.97833 3.98998 0
M  V30 3986 C 381.868 -3.03268 6.52243 0
M  V30 3987 C 383.894 -2.86759 5.17227 0
M  V30 3988 C 383.256 -2.893 6.4225 0
M  V30 3989 H 379.355 -0.661901 0.416427 0
M  V30 3990 H 381.939 -1.23968 1.50133 0
M  V30 3991 H 380.11 -3.7267 1.09414 0
M  V30 3992 H 381.842 -3.82525 1.32124 0
M  V30 3993 H 378.597 -3.40144 3.29543 0
M  V30 3994 H 379.021 -3.29448 5.91433 0
M  V30 3995 H 383.663 -2.94698 3.03171 0
M  V30 3996 H 381.381 -3.05156 7.48268 0
M  V30 3997 H 384.967 -2.75465 5.12455 0
M  V30 3998 H 383.847 -2.80818 7.32196 0
M  V30 3999 N 381.35 -0.985608 -1.22978 0
M  V30 4000 C 382.598 -0.656087 -1.91154 0
M  V30 4001 C 382.919 0.813561 -1.77218 0
M  V30 4002 O 382.189 1.58244 -1.1548 0
M  V30 4003 H 380.769 -0.239674 -0.707506 0
M  V30 4004 H 383.431 -1.25054 -1.49491 0
M  V30 4005 H 382.527 -0.912253 -2.9847 0
M  V30 4006 N 382.828 1.3818 -0.7579 0
M  V30 4007 C 384.244 1.5353 -0.435972 0
M  V30 4008 C 384.444 1.71961 1.05032 0
M  V30 4009 O 383.5 1.73307 1.83633 0
M  V30 4010 C 384.813 2.73989 -1.23898 0
M  V30 4011 C 386.361 2.87841 -1.22949 0
M  V30 4012 C 386.836 4.11266 -2.01554 0
M  V30 4013 N 388.327 4.18352 -1.98837 0
M  V30 4014 C 389.062 5.12856 -2.5645 0
M  V30 4015 N 388.558 6.13005 -3.22794 0
M  V30 4016 N 390.351 5.05238 -2.46356 0
M  V30 4017 H 382.502 1.24467 -1.7211 0
M  V30 4018 H 384.765 0.604982 -0.729864 0
M  V30 4019 H 384.471 2.66789 -2.29165 0
M  V30 4020 H 384.345 3.67294 -0.858764 0
M  V30 4021 H 386.732 2.9452 -0.184854 0
M  V30 4022 H 386.813 1.95534 -1.64924 0
M  V30 4023 H 386.457 4.05349 -3.06031 0
M  V30 4024 H 386.387 5.02661 -1.5697 0
M  V30 4025 H 388.878 3.46628 -1.50524 0
M  V30 4026 H 389.191 6.81619 -3.64165 0
M  V30 4027 H 387.536 6.13325 -3.2689 0
M  V30 4028 H 390.727 4.25938 -1.9415 0
M  V30 4029 H 390.9 5.78707 -2.91552 0
M  V30 4030 N 384.306 0.507319 1.49211 0
M  V30 4031 C 385.717 0.0611118 1.866 0
M  V30 4032 C 386.068 -1.35488 1.41907 0
M  V30 4033 O 385.193 -2.0108 0.799726 0
M  V30 4034 C 385.788 0.104125 3.3864 0
M  V30 4035 C 384.347 -0.28677 3.75306 0
M  V30 4036 C 383.494 0.473893 2.73221 0
M  V30 4037 H 386.445 0.719775 1.41439 0
M  V30 4038 H 386.466 -0.689672 3.74198 0
M  V30 4039 H 385.978 1.13482 3.71138 0
M  V30 4040 H 384.079 -1.32046 3.48417 0
M  V30 4041 H 384.192 0.0370745 4.79086 0
M  V30 4042 H 382.556 -0.0770644 2.54583 0
M  V30 4043 H 383.339 1.50478 3.08563 0
M  V30 4044 N 385.784 -1.5574 0.241426 0
M  V30 4045 C 387.009 -2.0366 -0.392111 0
M  V30 4046 C 387.434 -1.11969 -1.51144 0
M  V30 4047 O 386.792 -0.111594 -1.80956 0
M  V30 4048 C 386.84 -3.49638 -0.882371 0
M  V30 4049 O 385.944 -3.6108 -1.99235 0
M  V30 4050 H 385.285 -0.658379 -0.0862122 0
M  V30 4051 H 387.815 -2.01302 0.365881 0
M  V30 4052 H 387.825 -3.90351 -1.18702 0
M  V30 4053 H 386.5 -4.15852 -0.0632361 0
M  V30 4054 H 385.077 -3.32262 -1.69282 0
M  V30 4055 N 387.262 0.0317525 -1.57568 0
M  V30 4056 C 388.49 0.734949 -1.93407 0
M  V30 4057 C 388.905 1.69036 -0.84096 0
M  V30 4058 O 388.262 1.81582 0.182836 0
M  V30 4059 C 388.313 1.49432 -3.29169 0
M  V30 4060 O 388.034 0.577261 -4.3428 0
M  V30 4061 C 389.535 2.29492 -3.79273 0
M  V30 4062 H 386.755 0.206706 -0.638368 0
M  V30 4063 H 389.299 -0.00992046 -2.04498 0
M  V30 4064 H 387.454 2.1911 -3.19483 0
M  V30 4065 H 387.868 1.10952 -5.1263 0
M  V30 4066 H 389.342 2.78172 -4.76785 0
M  V30 4067 H 389.819 3.10794 -3.10328 0
M  V30 4068 H 390.425 1.64894 -3.92033 0
M  V30 4069 N 388.74 1.54641 0.303973 0
M  V30 4070 C 390.156 1.45788 0.649463 0
M  V30 4071 C 390.356 0.64666 1.90842 0
M  V30 4072 O 389.412 0.153183 2.52035 0
M  V30 4073 C 390.725 2.89718 0.805227 0
M  V30 4074 C 392.273 2.99742 0.901305 0
M  V30 4075 C 392.748 4.44863 1.08909 0
M  V30 4076 N 394.239 4.48559 1.15536 0
M  V30 4077 C 394.974 5.58026 1.3189 0
M  V30 4078 N 394.47 6.77422 1.45161 0
M  V30 4079 N 396.263 5.45708 1.34755 0
M  V30 4080 H 388.414 2.05854 -0.523237 0
M  V30 4081 H 390.677 0.932186 -0.172431 0
M  V30 4082 H 390.383 3.51666 -0.0489108 0
M  V30 4083 H 390.257 3.36964 1.69513 0
M  V30 4084 H 392.644 2.3791 1.74593 0
M  V30 4085 H 392.725 2.55797 -0.0125531 0
M  V30 4086 H 392.369 5.07288 0.249241 0
M  V30 4087 H 392.299 4.86436 2.01713 0
M  V30 4088 H 394.79 3.6254 1.06646 0
M  V30 4089 H 395.103 7.56604 1.57387 0
M  V30 4090 H 393.448 6.80292 1.42223 0
M  V30 4091 H 396.639 4.51378 1.23996 0
M  V30 4092 H 396.812 6.3107 1.47157 0
M  V30 4093 N 390.218 -0.567019 1.47046 0
M  V30 4094 C 391.467 -1.32091 1.5243 0
M  V30 4095 C 391.78 -1.94704 0.187021 0
M  V30 4096 O 392.986 -2.7124 0.118771 0
M  V30 4097 C 391.442 -2.39479 2.68659 0
M  V30 4098 C 391.05 -1.831 4.08874 0
M  V30 4099 C 392.794 -3.16111 2.83327 0
M  V30 4100 C 390.701 -2.8821 5.16419 0
M  V30 4101 H 389.631 -0.496629 0.56734 0
M  V30 4102 H 392.282 -0.603354 1.73297 0
M  V30 4103 H 390.664 -3.14105 2.41152 0
M  V30 4104 H 391.838 -1.14913 4.46242 0
M  V30 4105 H 390.153 -1.19085 3.99008 0
M  V30 4106 H 392.75 -3.94585 3.60842 0
M  V30 4107 H 393.093 -3.69686 1.91411 0
M  V30 4108 H 393.626 -2.48595 3.10556 0
M  V30 4109 H 390.365 -2.39504 6.10179 0
M  V30 4110 H 389.885 -3.54839 4.8358 0
M  V30 4111 H 391.564 -3.51881 5.42945 0
M  V30 4112 N 391.696 -1.35014 -0.812953 0
M  V30 4113 C 392.628 -1.23262 -1.93233 0
M  V30 4114 C 393.641 -0.157371 -1.62038 0
M  V30 4115 O 394.83 -0.410096 -1.73725 0
M  V30 4116 C 391.93 -0.87392 -3.27438 0
M  V30 4117 C 391.103 -2.04622 -3.86586 0
M  V30 4118 C 390.162 -1.66432 -4.99186 0
M  V30 4119 O 389.188 -2.38222 -5.16951 0
M  V30 4120 N 390.39 -0.584248 -5.77552 0
M  V30 4121 H 393.155 -2.19699 -2.03844 0
M  V30 4122 H 390.716 -1.281 -0.99005 0
M  V30 4123 H 392.708 -0.600039 -4.00227 0
M  V30 4124 H 391.278 0.00057392 -3.126 0
M  V30 4125 H 390.498 -2.48427 -3.06068 0
M  V30 4126 H 391.786 -2.82999 -4.22835 0
M  V30 4127 H 391.184 0.0123526 -5.65699 0
M  V30 4128 H 389.741 -0.37013 -6.50748 0
M  V30 4129 N 393.175 1.03435 -1.18907 0
M  V30 4130 C 394.107 2.1165 -0.879595 0
M  V30 4131 C 395.12 1.62316 0.125439 0
M  V30 4132 O 396.309 1.78201 -0.103245 0
M  V30 4133 C 393.409 3.37622 -0.294042 0
M  V30 4134 C 392.582 4.16166 -1.34629 0
M  V30 4135 C 391.641 5.20457 -0.775274 0
M  V30 4136 O 390.667 5.50379 -1.4516 0
M  V30 4137 N 391.869 5.78949 0.424126 0
M  V30 4138 H 394.634 2.38791 -1.81105 0
M  V30 4139 H 392.195 1.19681 -1.09032 0
M  V30 4140 H 394.187 4.04572 0.101679 0
M  V30 4141 H 392.757 3.07873 0.541575 0
M  V30 4142 H 391.977 3.44444 -1.91707 0
M  V30 4143 H 393.265 4.65432 -2.05549 0
M  V30 4144 H 392.663 5.56948 0.991209 0
M  V30 4145 H 391.22 6.47334 0.761691 0
M  V30 4146 N 394.653 0.992116 1.22453 0
M  V30 4147 C 395.585 0.500024 2.23679 0
M  V30 4148 C 396.598 -0.404463 1.57696 0
M  V30 4149 O 397.787 -0.206722 1.77299 0
M  V30 4150 C 394.887 -0.294711 3.37616 0
M  V30 4151 C 394.06 0.605723 4.33186 0
M  V30 4152 C 393.119 -0.13717 5.26021 0
M  V30 4153 O 392.145 0.477164 5.67196 0
M  V30 4154 N 393.347 -1.4197 5.62872 0
M  V30 4155 H 396.112 1.37045 2.66531 0
M  V30 4156 H 393.673 0.866741 1.36745 0
M  V30 4157 H 395.665 -0.800329 3.96707 0
M  V30 4158 H 394.235 -1.06623 2.93854 0
M  V30 4159 H 393.455 1.29202 3.72425 0
M  V30 4160 H 394.743 1.21896 4.93983 0
M  V30 4161 H 394.141 -1.94015 5.31389 0
M  V30 4162 H 392.698 -1.87052 6.24383 0
M  V30 4163 N 396.131 -1.37776 0.765217 0
M  V30 4164 C 397.061 -2.32945 0.160953 0
M  V30 4165 C 398.042 -1.55454 -0.690516 0
M  V30 4166 O 399.227 -1.83721 -0.629318 0
M  V30 4167 C 396.357 -3.39669 -0.724031 0
M  V30 4168 C 395.311 -4.27992 0.0256173 0
M  V30 4169 C 394.637 -5.25673 -0.978383 0
M  V30 4170 C 395.937 -5.08309 1.20082 0
M  V30 4171 H 397.631 -2.83728 0.955969 0
M  V30 4172 H 395.177 -1.36416 0.461149 0
M  V30 4173 H 397.13 -4.05219 -1.15652 0
M  V30 4174 H 395.854 -2.87396 -1.5515 0
M  V30 4175 H 394.513 -3.63964 0.438812 0
M  V30 4176 H 394.161 -4.69682 -1.80022 0
M  V30 4177 H 393.861 -5.85625 -0.481378 0
M  V30 4178 H 395.385 -5.94098 -1.40995 0
M  V30 4179 H 396.799 -5.67034 0.845307 0
M  V30 4180 H 395.196 -5.77554 1.62947 0
M  V30 4181 H 396.266 -4.41365 2.00811 0
M  V30 4182 N 397.609 -0.515225 -1.4894 0
M  V30 4183 C 398.857 0.0241671 -2.02086 0
M  V30 4184 C 399.178 1.3616 -1.3959 0
M  V30 4185 O 398.448 1.87841 -0.556121 0
M  V30 4186 H 397.028 0.0119203 -0.746905 0
M  V30 4187 H 399.69 -0.675702 -1.82812 0
M  V30 4188 H 398.786 0.143385 -3.1177 0
M  V30 4189 N 399.087 1.5561 -0.249682 0
M  V30 4190 C 400.019 2.18834 0.681496 0
M  V30 4191 C 401.032 1.16546 1.1367 0
M  V30 4192 O 402.221 1.43397 1.06299 0
M  V30 4193 C 399.321 2.77992 1.9384 0
M  V30 4194 C 398.494 4.05725 1.63419 0
M  V30 4195 C 397.553 4.49174 2.74096 0
M  V30 4196 O 396.579 5.15492 2.41364 0
M  V30 4197 N 397.781 4.17191 4.03649 0
M  V30 4198 H 400.546 2.9937 0.140514 0
M  V30 4199 H 398.107 1.6175 -0.0697541 0
M  V30 4200 H 400.099 3.04015 2.67127 0
M  V30 4201 H 398.669 2.01596 2.38909 0
M  V30 4202 H 397.889 3.87261 0.736358 0
M  V30 4203 H 399.177 4.88999 1.40562 0
M  V30 4204 H 398.575 3.63955 4.33074 0
M  V30 4205 H 397.132 4.48043 4.73393 0
M  V30 4206 N 400.565 -0.0233959 1.57583 0
M  V30 4207 C 401.495 -1.02162 2.09965 0
M  V30 4208 C 402.476 -1.3735 1.00344 0
M  V30 4209 O 403.661 -1.46135 1.27899 0
M  V30 4210 C 400.791 -2.32081 2.58371 0
M  V30 4211 C 399.745 -2.1112 3.72307 0
M  V30 4212 C 399.071 -3.46848 4.06941 0
M  V30 4213 C 400.371 -1.49276 5.00514 0
M  V30 4214 H 402.065 -0.585557 2.93618 0
M  V30 4215 H 399.611 -0.280218 1.41247 0
M  V30 4216 H 401.564 -3.02249 2.93639 0
M  V30 4217 H 400.288 -2.77758 1.71808 0
M  V30 4218 H 398.947 -1.43384 3.37397 0
M  V30 4219 H 398.595 -3.90184 3.17436 0
M  V30 4220 H 398.295 -3.33646 4.83688 0
M  V30 4221 H 399.819 -4.18369 4.44747 0
M  V30 4222 H 401.233 -2.09368 5.33702 0
M  V30 4223 H 399.63 -1.46632 5.8191 0
M  V30 4224 H 400.7 -0.459217 4.82721 0
M  V30 4225 N 402.043 -1.548 -0.295768 0
M  V30 4226 C 403.271 -1.78327 -1.04914 0
M  V30 4227 C 403.686 -0.545316 -1.80753 0
M  V30 4228 O 403.043 0.485013 -1.75937 0
M  V30 4229 C 403.094 -2.99418 -2.02561 0
M  V30 4230 O 402.815 -4.18431 -1.29798 0
M  V30 4231 C 404.316 -3.35375 -2.89895 0
M  V30 4232 H 401.536 -0.594618 -0.310918 0
M  V30 4233 H 404.08 -2.01763 -0.333454 0
M  V30 4234 H 402.235 -2.78175 -2.69624 0
M  V30 4235 H 402.649 -4.86736 -1.95419 0
M  V30 4236 H 404.123 -4.23332 -3.54251 0
M  V30 4237 H 404.6 -2.53761 -3.58472 0
M  V30 4238 H 405.206 -3.58796 -2.28355 0
M  V30 4239 N 403.521 0.559213 -1.47345 0
M  V30 4240 C 404.451 1.67622 -1.62558 0
M  V30 4241 C 405.432 1.63331 -0.475087 0
M  V30 4242 O 406.617 1.80983 -0.704182 0
M  V30 4243 C 403.747 3.0626 -1.63774 0
M  V30 4244 C 402.701 3.25397 -2.7803 0
M  V30 4245 C 402.027 4.64801 -2.64318 0
M  V30 4246 C 403.327 3.10965 -4.19641 0
M  V30 4247 H 405.021 1.55146 -2.56067 0
M  V30 4248 H 402.567 0.744961 -1.23233 0
M  V30 4249 H 404.52 3.84247 -1.73008 0
M  V30 4250 H 403.244 3.1969 -0.66825 0
M  V30 4251 H 401.903 2.49817 -2.68304 0
M  V30 4252 H 401.551 4.75028 -1.65401 0
M  V30 4253 H 401.251 4.78555 -3.40968 0
M  V30 4254 H 402.775 5.44926 -2.75478 0
M  V30 4255 H 404.189 3.78772 -4.30354 0
M  V30 4256 H 402.586 3.36229 -4.97062 0
M  V30 4257 H 403.656 2.07736 -4.38148 0
M  V30 4258 N 404.999 1.35443 0.805782 0
M  V30 4259 C 405.909 1.30546 1.94923 0
M  V30 4260 C 406.925 0.210233 1.72725 0
M  V30 4261 O 408.101 0.43975 1.9654 0
M  V30 4262 C 405.166 1.07782 3.29521 0
M  V30 4263 C 404.227 2.26625 3.64609 0
M  V30 4264 C 403.46 2.04938 4.92784 0
M  V30 4265 O 403.683 1.01624 5.61274 0
M  V30 4266 O 402.617 2.9232 5.26149 0
M  V30 4267 H 406.443 2.26779 2.02002 0
M  V30 4268 H 404.028 1.15823 0.943682 0
M  V30 4269 H 405.91 0.969392 4.10098 0
M  V30 4270 H 404.585 0.146003 3.23371 0
M  V30 4271 H 403.492 2.43033 2.84404 0
M  V30 4272 H 404.825 3.18257 3.75464 0
M  V30 4273 N 406.477 -1.02803 1.19454 0
M  V30 4274 C 407.425 -2.13213 0.929673 0
M  V30 4275 C 408.419 -1.69011 -0.114806 0
M  V30 4276 O 409.625 -1.79967 0.0345147 0
M  V30 4277 H 406 -0.69662 0.28324 0
M  V30 4278 H 407.971 -2.32744 1.86743 0
M  V30 4279 C 406.72 -3.4429 0.485797 0
M  V30 4280 H 406.043 -3.7872 1.28105 0
M  V30 4281 H 407.483 -4.22638 0.339582 0
M  V30 4282 C 405.942 -3.27258 -0.800244 0
M  V30 4283 O 406.472 -3.55967 -1.86146 0
M  V30 4284 N 404.678 -2.80545 -0.75781 0
M  V30 4285 H 404.225 -2.57382 0.106039 0
M  V30 4286 H 404.183 -2.6953 -1.61867 0
M  V30 4287 N 407.956 -0.998596 -1.21925 0
M  V30 4288 C 408.886 -0.573688 -2.26343 0
M  V30 4289 C 409.867 0.402296 -1.65274 0
M  V30 4290 O 411.052 0.291683 -1.91997 0
M  V30 4291 C 408.182 0.106839 -3.47136 0
M  V30 4292 C 407.136 -0.788269 -4.20678 0
M  V30 4293 C 406.462 0.0254927 -5.34694 0
M  V30 4294 C 407.762 -2.08784 -4.78755 0
M  V30 4295 H 409.456 -1.44651 -2.62138 0
M  V30 4296 H 407.002 -0.696975 -1.26009 0
M  V30 4297 H 408.955 0.415531 -4.19346 0
M  V30 4298 H 407.679 1.01424 -3.10452 0
M  V30 4299 H 406.338 -1.08069 -3.50309 0
M  V30 4300 H 405.986 0.933989 -4.94253 0
M  V30 4301 H 405.686 -0.570437 -5.84825 0
M  V30 4302 H 407.21 0.328147 -6.09718 0
M  V30 4303 H 408.624 -1.84272 -5.42878 0
M  V30 4304 H 407.021 -2.63307 -5.39249 0
M  V30 4305 H 408.091 -2.76284 -3.98491 0
M  V30 4306 N 409.434 1.37368 -0.772513 0
M  V30 4307 C 410.366 2.28899 -0.117502 0
M  V30 4308 C 411.379 1.4867 0.663405 0
M  V30 4309 O 412.568 1.71314 0.501372 0
M  V30 4310 C 409.668 3.2788 0.857192 0
M  V30 4311 C 408.841 4.37207 0.129938 0
M  V30 4312 C 407.9 5.16257 1.01811 0
M  V30 4313 O 406.926 5.67159 0.481601 0
M  V30 4314 N 408.128 5.31058 2.3443 0
M  V30 4315 H 410.893 2.85752 -0.903662 0
M  V30 4316 H 408.454 1.49353 -0.62493 0
M  V30 4317 H 410.446 3.77647 1.45482 0
M  V30 4318 H 409.016 2.7179 1.54432 0
M  V30 4319 H 408.236 3.88827 -0.648605 0
M  V30 4320 H 409.524 5.07434 -0.372559 0
M  V30 4321 H 408.922 4.91287 2.80452 0
M  V30 4322 H 407.479 5.84131 2.89197 0
M  V30 4323 N 410.912 0.523116 1.48665 0
M  V30 4324 C 411.845 -0.290518 2.26343 0
M  V30 4325 C 412.823 -0.950913 1.31895 0
M  V30 4326 O 414.007 -0.976662 1.61225 0
M  V30 4327 C 411.134 -1.41088 3.07915 0
M  V30 4328 C 410.18 -0.862597 4.17686 0
M  V30 4329 S 411.013 0.264135 5.34848 0
M  V30 4330 C 412.169 -0.858864 6.19979 0
M  V30 4331 H 412.402 0.368726 2.95005 0
M  V30 4332 H 409.935 0.30878 1.51281 0
M  V30 4333 H 411.893 -2.0527 3.55492 0
M  V30 4334 H 410.554 -2.04182 2.38681 0
M  V30 4335 H 409.747 -1.70287 4.74361 0
M  V30 4336 H 409.349 -0.297595 3.72814 0
M  V30 4337 H 411.641 -1.7591 6.54264 0
M  V30 4338 H 412.584 -0.330244 7.07329 0
M  V30 4339 H 412.992 -1.13617 5.52948 0
M  V30 4340 N 412.39 -1.55475 0.257931 0
M  V30 4341 C 413.32 -2.24815 -0.630912 0
M  V30 4342 C 414.301 -1.23224 -1.17259 0
M  V30 4343 O 415.486 -1.51904 -1.20991 0
M  V30 4344 C 412.616 -2.95609 -1.82298 0
M  V30 4345 C 411.57 -4.03982 -1.41359 0
M  V30 4346 C 410.896 -4.6226 -2.68738 0
M  V30 4347 C 412.196 -5.19109 -0.57648 0
M  V30 4348 H 413.89 -2.99354 -0.0526878 0
M  V30 4349 H 411.436 -1.4398 -0.023901 0
M  V30 4350 H 413.389 -3.42822 -2.45054 0
M  V30 4351 H 412.113 -2.18577 -2.42676 0
M  V30 4352 H 410.772 -3.57555 -0.809324 0
M  V30 4353 H 410.42 -3.81915 -3.27338 0
M  V30 4354 H 410.12 -5.35424 -2.42065 0
M  V30 4355 H 411.644 -5.12212 -3.32372 0
M  V30 4356 H 413.058 -5.62479 -1.10861 0
M  V30 4357 H 411.455 -5.98729 -0.405351 0
M  V30 4358 H 412.525 -4.83174 0.408776 0
M  V30 4359 N 413.868 0.0150385 -1.57593 0
M  V30 4360 C 415.279 0.559832 -1.78109 0
M  V30 4361 C 415.63 1.74814 -0.890756 0
M  V30 4362 O 414.755 2.16216 -0.0892482 0
M  V30 4363 C 415.35 1.02238 -3.23006 0
M  V30 4364 C 413.909 1.51258 -3.44671 0
M  V30 4365 C 413.056 0.456955 -2.73509 0
M  V30 4366 H 416.007 -0.211169 -1.57289 0
M  V30 4367 H 416.028 1.88912 -3.30292 0
M  V30 4368 H 415.54 0.157302 -3.87781 0
M  V30 4369 H 413.641 2.39905 -2.8509 0
M  V30 4370 H 413.754 1.55042 -4.5332 0
M  V30 4371 H 412.118 0.915196 -2.37689 0
M  V30 4372 H 412.901 -0.398896 -3.40975 0
M  V30 4373 N 415.346 1.54954 0.287554 0
M  V30 4374 C 416.256 1.8991 1.37736 0
M  V30 4375 C 417.272 0.794701 1.54792 0
M  V30 4376 O 418.448 1.09243 1.69198 0
M  V30 4377 C 415.513 2.15108 2.71899 0
M  V30 4378 C 414.574 3.38752 2.63715 0
M  V30 4379 C 413.807 3.62739 3.91479 0
M  V30 4380 O 414.03 2.89492 4.91478 0
M  V30 4381 O 412.964 4.56267 3.92561 0
M  V30 4382 H 416.79 2.82652 1.11092 0
M  V30 4383 H 414.375 1.41315 0.484807 0
M  V30 4384 H 416.257 2.32806 3.51254 0
M  V30 4385 H 414.932 1.25551 2.9836 0
M  V30 4386 H 413.839 3.26405 1.82786 0
M  V30 4387 H 415.172 4.28483 2.42205 0
M  V30 4388 N 416.824 -0.551391 1.4764 0
M  V30 4389 C 418.049 -1.33837 1.58437 0
M  V30 4390 C 418.474 -1.866 0.237063 0
M  V30 4391 O 417.832 -1.6328 -0.787994 0
M  V30 4392 C 417.88 -2.48014 2.61766 0
M  V30 4393 O 416.984 -3.50419 2.1744 0
M  V30 4394 H 416.325 -0.397299 0.532024 0
M  V30 4395 H 418.855 -0.665759 1.93465 0
M  V30 4396 H 418.865 -2.94503 2.82369 0
M  V30 4397 H 417.54 -2.08969 3.5959 0
M  V30 4398 H 416.117 -3.10196 2.06961 0
M  V30 4399 N 418.302 -1.35869 -0.798587 0
M  V30 4400 C 419.212 -1.31578 -1.94228 0
M  V30 4401 C 420.228 -0.21939 -1.72611 0
M  V30 4402 O 421.404 -0.450167 -1.96305 0
M  V30 4403 C 418.469 -1.09528 -3.28944 0
M  V30 4404 C 417.53 -2.28556 -3.63402 0
M  V30 4405 C 416.763 -2.07549 -4.9169 0
M  V30 4406 O 416.986 -1.046 -5.60727 0
M  V30 4407 O 415.92 -2.95106 -5.24591 0
M  V30 4408 H 419.746 -2.27847 -2.00796 0
M  V30 4409 H 417.331 -1.16322 -0.937526 0
M  V30 4410 H 419.213 -0.991127 -4.09579 0
M  V30 4411 H 417.888 -0.16315 -3.23289 0
M  V30 4412 H 416.795 -2.44538 -2.83112 0
M  V30 4413 H 418.128 -3.20244 -3.73771 0
M  V30 4414 N 419.78 1.02168 -1.19998 0
M  V30 4415 C 421.057 1.72816 -0.916191 0
M  V30 4416 C 421.437 2.03081 0.576325 0
M  V30 4417 O 420.785 1.69122 1.53656 0
M  V30 4418 C 420.995 2.9997 -1.78378 0
M  V30 4419 C 422.343 3.73336 -2.02251 0
M  V30 4420 O 423.367 3.09914 -1.75589 0
M  V30 4421 O 422.226 4.87371 -2.47249 0
M  V30 4422 H 419.32 0.752924 -0.342103 0
M  V30 4423 H 421.866 1.08062 -1.30846 0
M  V30 4424 H 420.638 2.73888 -2.79466 0
M  V30 4425 H 420.261 3.72464 -1.39126 0
M  V30 4426 N 421.258 1.00505 1.21394 0
M  V30 4427 C 422.168 0.574806 2.27449 0
M  V30 4428 C 423.184 -0.382206 1.6975 0
M  V30 4429 O 424.36 -0.246027 1.99892 0
M  V30 4430 C 421.425 -0.0917414 3.46579 0
M  V30 4431 C 420.486 0.909758 4.1955 0
M  V30 4432 C 419.719 0.274924 5.32991 0
M  V30 4433 O 419.942 -0.928254 5.62796 0
M  V30 4434 O 418.876 0.985877 5.93771 0
M  V30 4435 H 422.702 1.45744 2.66444 0
M  V30 4436 H 420.287 0.773923 1.27792 0
M  V30 4437 H 422.169 -0.464551 4.18832 0
M  V30 4438 H 420.844 -0.948755 3.09484 0
M  V30 4439 H 419.751 1.33372 3.49518 0
M  V30 4440 H 421.084 1.73636 4.60555 0
M  V30 4441 N 422.737 -1.36956 0.779787 0
M  V30 4442 C 423.647 -2.33965 0.172491 0
M  V30 4443 C 424.663 -1.60574 -0.670222 0
M  V30 4444 O 425.839 -1.92617 -0.588263 0
M  V30 4445 C 422.904 -3.39761 -0.690173 0
M  V30 4446 C 421.965 -4.28964 0.169924 0
M  V30 4447 C 421.198 -5.29707 -0.651662 0
M  V30 4448 O 421.421 -5.38238 -1.88827 0
M  V30 4449 O 420.355 -6.01873 -0.0566264 0
M  V30 4450 H 424.181 -2.87647 0.974321 0
M  V30 4451 H 421.766 -1.39258 0.541078 0
M  V30 4452 H 423.648 -4.04471 -1.1824 0
M  V30 4453 H 422.323 -2.88394 -1.47006 0
M  V30 4454 H 421.23 -3.67326 0.708696 0
M  V30 4455 H 422.563 -4.83656 0.913085 0
M  V30 4456 N 424.215 -0.530993 -1.48385 0
M  V30 4457 C 425.44 0.000729535 -2.074 0
M  V30 4458 C 425.865 1.27298 -1.3848 0
M  V30 4459 O 425.223 1.75599 -0.451081 0
M  V30 4460 C 425.271 0.206697 -3.60007 0
M  V30 4461 O 424.375 1.27514 -3.92191 0
M  V30 4462 H 423.716 -0.039583 -0.662819 0
M  V30 4463 H 426.246 -0.739194 -1.9078 0
M  V30 4464 H 426.256 0.42904 -4.05738 0
M  V30 4465 H 424.931 -0.722675 -4.09573 0
M  V30 4466 H 423.508 1.03537 -3.58238 0
M  V30 4467 N 425.693 1.55336 -0.266172 0
M  V30 4468 C 426.923 2.03506 0.356239 0
M  V30 4469 C 427.331 1.14426 1.50676 0
M  V30 4470 O 426.674 0.155043 1.83045 0
M  V30 4471 C 426.736 3.47848 0.90785 0
M  V30 4472 C 426.4 4.56861 -0.112888 0
M  V30 4473 C 427.397 5.11528 -0.929264 0
M  V30 4474 C 425.082 5.01704 -0.244546 0
M  V30 4475 C 427.076 6.09549 -1.86357 0
M  V30 4476 C 424.763 5.99553 -1.18234 0
M  V30 4477 C 425.761 6.53356 -1.99036 0
M  V30 4478 O 425.449 7.49293 -2.91231 0
M  V30 4479 H 425.181 0.670444 0.08649 0
M  V30 4480 H 427.735 2.01598 -0.39337 0
M  V30 4481 H 425.965 3.46967 1.70737 0
M  V30 4482 H 427.654 3.79407 1.44239 0
M  V30 4483 H 428.42 4.77701 -0.838237 0
M  V30 4484 H 424.299 4.59477 0.374359 0
M  V30 4485 H 427.843 6.51469 -2.49467 0
M  V30 4486 H 423.74 6.32799 -1.27421 0
M  V30 4487 H 424.508 7.66978 -2.8581 0
M  V30 4488 N 427.171 -0.0066808 1.57599 0
M  V30 4489 C 428.448 -0.729586 1.81484 0
M  V30 4490 C 428.828 -1.92359 0.869558 0
M  V30 4491 O 428.176 -2.28348 -0.0832533 0
M  V30 4492 C 428.386 -1.1416 3.29801 0
M  V30 4493 C 429.734 -1.54823 3.95367 0
M  V30 4494 O 430.758 -1.23558 3.34084 0
M  V30 4495 O 429.617 -2.12937 5.03309 0
M  V30 4496 H 426.711 -0.354674 0.747085 0
M  V30 4497 H 429.257 0.0182609 1.6969 0
M  V30 4498 H 428.029 -0.290231 3.90222 0
M  V30 4499 H 427.652 -1.94876 3.46568 0
M  V30 4500 N 428.649 -1.55105 -0.279332 0
M  V30 4501 C 429.877 -1.7943 -1.03017 0
M  V30 4502 C 430.292 -0.564456 -1.80165 0
M  V30 4503 O 429.649 0.466326 -1.76442 0
M  V30 4504 C 429.7 -3.0155 -1.99374 0
M  V30 4505 O 429.421 -4.19784 -1.25352 0
M  V30 4506 C 430.922 -3.3843 -2.86321 0
M  V30 4507 H 428.142 -0.597882 -0.304594 0
M  V30 4508 H 430.686 -2.02105 -0.312035 0
M  V30 4509 H 428.841 -2.81019 -2.66659 0
M  V30 4510 H 429.255 -4.88781 -1.90246 0
M  V30 4511 H 430.729 -4.27066 -3.49741 0
M  V30 4512 H 431.206 -2.57549 -3.5576 0
M  V30 4513 H 431.812 -3.61197 -2.24536 0
M  V30 4514 N 430.127 0.543554 -1.4793 0
M  V30 4515 C 431.037 1.67657 -1.64098 0
M  V30 4516 C 432.053 1.65934 -0.523622 0
M  V30 4517 O 433.229 1.85133 -0.792943 0
M  V30 4518 C 430.294 3.04146 -1.66421 0
M  V30 4519 C 429.355 3.16831 -2.89684 0
M  V30 4520 C 428.588 4.46809 -2.91886 0
M  V30 4521 O 428.811 5.33095 -2.02895 0
M  V30 4522 O 427.745 4.63573 -3.83906 0
M  V30 4523 H 431.571 1.56957 -2.59997 0
M  V30 4524 H 429.156 0.715116 -1.31173 0
M  V30 4525 H 431.038 3.85346 -1.70548 0
M  V30 4526 H 429.713 3.152 -0.736923 0
M  V30 4527 H 428.62 2.34977 -2.91095 0
M  V30 4528 H 429.953 3.10687 -3.81752 0
M  V30 4529 N 431.605 1.3629 0.791371 0
M  V30 4530 C 432.83 1.33726 1.58531 0
M  V30 4531 C 433.255 -0.0794933 1.87932 0
M  V30 4532 O 432.613 -1.05087 1.47738 0
M  V30 4533 C 432.661 2.16425 2.88431 0
M  V30 4534 O 431.765 1.5554 3.81944 0
M  V30 4535 H 431.106 0.457793 0.480959 0
M  V30 4536 H 433.636 1.79547 0.981031 0
M  V30 4537 H 433.646 2.28933 3.37718 0
M  V30 4538 H 432.321 3.19415 2.66359 0
M  V30 4539 H 430.898 1.51961 3.40532 0
M  V30 4540 N 433.083 -1.0153 1.20538 0
M  V30 4541 C 433.993 -2.13557 0.971113 0
M  V30 4542 C 435.009 -1.73845 -0.0734366 0
M  V30 4543 O 436.185 -2.01075 0.114299 0
M  V30 4544 C 433.25 -3.42661 0.527639 0
M  V30 4545 C 432.311 -3.96608 1.64319 0
M  V30 4546 C 431.544 -5.1955 1.22078 0
M  V30 4547 O 431.767 -5.70329 0.0900198 0
M  V30 4548 O 430.701 -5.66681 2.02871 0
M  V30 4549 H 434.527 -2.3619 1.90913 0
M  V30 4550 H 432.112 -1.11946 0.989362 0
M  V30 4551 H 433.994 -4.20404 0.289621 0
M  V30 4552 H 432.669 -3.21441 -0.381779 0
M  V30 4553 H 431.576 -3.20139 1.93551 0
M  V30 4554 H 432.909 -4.22219 2.52966 0
M  V30 4555 N 434.561 -1.01147 -1.20859 0
M  V30 4556 C 435.808 -0.697865 -1.90095 0
M  V30 4557 C 436.136 0.772014 -1.78522 0
M  V30 4558 O 435.391 1.57595 -1.16027 0
M  V30 4559 C 435.69 -1.0727 -3.40922 0
M  V30 4560 C 435.356 -2.53792 -3.72693 0
M  V30 4561 C 434.018 -2.93829 -3.81075 0
M  V30 4562 C 436.37 -3.48674 -3.87397 0
M  V30 4563 C 433.698 -4.27696 -4.01613 0
M  V30 4564 C 436.05 -4.82223 -4.09444 0
M  V30 4565 C 434.714 -5.21973 -4.16054 0
M  V30 4566 H 433.984 -0.255367 -0.695607 0
M  V30 4567 H 436.631 -1.27111 -1.43231 0
M  V30 4568 H 434.936 -0.417799 -3.89566 0
M  V30 4569 H 436.633 -0.807818 -3.92779 0
M  V30 4570 H 433.223 -2.21768 -3.66765 0
M  V30 4571 H 437.407 -3.18904 -3.80281 0
M  V30 4572 H 432.663 -4.58055 -4.04964 0
M  V30 4573 H 436.837 -5.55672 -4.19763 0
M  V30 4574 H 434.464 -6.25717 -4.31721 0
M  V30 4575 N 436.039 1.36541 -0.78704 0
M  V30 4576 C 437.267 2.03561 -0.370199 0
M  V30 4577 C 437.682 1.59347 1.01263 0
M  V30 4578 O 437.039 0.781781 1.64907 0
M  V30 4579 C 437.09 3.59033 -0.421614 0
M  V30 4580 O 436.811 4.01634 -1.7499 0
M  V30 4581 C 438.312 4.433 0.00489763 0
M  V30 4582 H 435.532 0.653346 -0.152904 0
M  V30 4583 H 438.076 1.74566 -1.06522 0
M  V30 4584 H 436.231 3.86746 0.224971 0
M  V30 4585 H 436.645 4.96217 -1.69909 0
M  V30 4586 H 438.119 5.51939 -0.0822184 0
M  V30 4587 H 438.596 4.26285 1.05723 0
M  V30 4588 H 439.202 4.20843 -0.614085 0
M  V30 4589 N 437.518 0.538854 1.48102 0
M  V30 4590 C 438.428 -0.222648 2.33541 0
M  V30 4591 C 439.444 -0.930225 1.47047 0
M  V30 4592 O 440.62 -0.903211 1.80011 0
M  V30 4593 C 437.685 -1.25064 3.23357 0
M  V30 4594 C 436.746 -0.552469 4.2573 0
M  V30 4595 C 435.979 -1.53149 5.11254 0
M  V30 4596 O 436.202 -2.76487 4.9891 0
M  V30 4597 O 435.136 -1.06602 5.92385 0
M  V30 4598 H 438.962 0.477707 2.99919 0
M  V30 4599 H 436.547 0.299669 1.46364 0
M  V30 4600 H 438.429 -1.8445 3.78888 0
M  V30 4601 H 437.104 -1.93325 2.59629 0
M  V30 4602 H 436.011 0.082114 3.7401 0
M  V30 4603 H 437.344 0.0883526 4.92121 0
M  V30 4604 N 438.996 -1.55193 0.274407 0
M  V30 4605 C 440.243 -1.99581 -0.342579 0
M  V30 4606 C 440.571 -1.1628 -1.55914 0
M  V30 4607 O 439.826 -0.22029 -1.94456 0
M  V30 4608 C 440.125 -3.49019 -0.769458 0
M  V30 4609 C 439.791 -4.49598 0.342389 0
M  V30 4610 C 438.453 -4.76821 0.647686 0
M  V30 4611 C 440.805 -5.0964 1.09163 0
M  V30 4612 C 438.133 -5.61354 1.70581 0
M  V30 4613 C 440.485 -5.95323 2.13948 0
M  V30 4614 C 439.149 -6.20867 2.45113 0
M  V30 4615 H 438.419 -0.730319 -0.125358 0
M  V30 4616 H 441.066 -1.87529 0.387971 0
M  V30 4617 H 439.371 -3.58544 -1.57967 0
M  V30 4618 H 441.068 -3.8077 -1.25757 0
M  V30 4619 H 437.658 -4.28496 0.094318 0
M  V30 4620 H 441.842 -4.88632 0.869024 0
M  V30 4621 H 437.098 -5.79392 1.9523 0
M  V30 4622 H 441.272 -6.40881 2.72478 0
M  V30 4623 H 438.899 -6.86162 3.27239 0
M  V30 4624 N 440.474 -0.00167713 -1.576 0
M  V30 4625 C 441.702 0.693759 -1.94922 0
M  V30 4626 C 442.117 1.67215 -0.876626 0
M  V30 4627 O 441.474 1.81929 0.144279 0
M  V30 4628 C 441.525 1.42416 -3.32265 0
M  V30 4629 O 441.246 0.485014 -4.35407 0
M  V30 4630 C 442.747 2.21395 -3.84056 0
M  V30 4631 H 439.967 0.193118 -0.642609 0
M  V30 4632 H 442.511 -0.0532952 -2.04431 0
M  V30 4633 H 440.666 2.12284 -3.24059 0
M  V30 4634 H 441.08 1.00053 -5.14868 0
M  V30 4635 H 442.554 2.67996 -4.82578 0
M  V30 4636 H 443.031 3.04142 -3.16851 0
M  V30 4637 H 443.637 1.56542 -3.95443 0
M  V30 4638 N 441.952 1.55251 0.271103 0
M  V30 4639 C 442.862 1.9136 1.35714 0
M  V30 4640 C 443.878 0.811075 1.5394 0
M  V30 4641 O 445.054 1.11031 1.6803 0
M  V30 4642 C 442.119 2.1798 2.69603 0
M  V30 4643 C 441.18 3.4153 2.60107 0
M  V30 4644 C 440.413 3.66871 3.8761 0
M  V30 4645 O 440.636 2.94689 4.8838 0
M  V30 4646 O 439.57 4.60405 3.87699 0
M  V30 4647 H 443.396 2.83815 1.08088 0
M  V30 4648 H 440.981 1.41821 0.469792 0
M  V30 4649 H 442.863 2.36518 3.48765 0
M  V30 4650 H 441.538 1.28708 2.97012 0
M  V30 4651 H 440.445 3.28325 1.79314 0
M  V30 4652 H 441.778 4.31027 2.37647 0
M  V30 4653 N 443.43 -0.535701 1.48216 0
M  V30 4654 C 444.707 -1.29683 1.46429 0
M  V30 4655 C 445.087 -2.10391 0.172852 0
M  V30 4656 O 444.435 -2.12282 -0.845488 0
M  V30 4657 C 444.645 -2.18313 2.72287 0
M  V30 4658 C 445.993 -2.78639 3.20383 0
M  V30 4659 O 447.017 -2.28604 2.73164 0
M  V30 4660 O 445.876 -3.69636 4.02531 0
M  V30 4661 H 442.97 -0.585026 0.584529 0
M  V30 4662 H 445.516 -0.552827 1.60443 0
M  V30 4663 H 444.288 -1.58421 3.57797 0
M  V30 4664 H 443.911 -2.99971 2.60966 0
M  V30 4665 N 444.908 -1.36708 -0.784132 0
M  V30 4666 C 445.818 -1.3363 -1.92822 0
M  V30 4667 C 446.834 -0.237686 -1.72369 0
M  V30 4668 O 448.01 -0.470962 -1.95816 0
M  V30 4669 C 445.075 -1.13011 -3.27764 0
M  V30 4670 C 444.136 -2.32397 -3.60957 0
M  V30 4671 C 443.369 -2.12752 -4.89461 0
M  V30 4672 O 443.592 -1.10541 -5.59586 0
M  V30 4673 O 442.526 -3.00653 -5.21432 0
M  V30 4674 H 446.352 -2.29964 -1.98369 0
M  V30 4675 H 443.937 -1.1731 -0.925136 0
M  V30 4676 H 445.819 -1.03451 -4.08504 0
M  V30 4677 H 444.494 -0.19743 -3.23097 0
M  V30 4678 H 443.401 -2.47527 -2.80502 0
M  V30 4679 H 444.734 -3.2419 -3.70354 0
M  V30 4680 N 446.386 1.0089 -1.21074 0
M  V30 4681 C 447.316 2.1145 -0.990523 0
M  V30 4682 C 448.297 1.69897 0.0831699 0
M  V30 4683 O 449.482 1.94052 -0.0758853 0
M  V30 4684 C 446.612 3.42914 -0.550177 0
M  V30 4685 C 445.566 3.98244 -1.56799 0
M  V30 4686 C 444.892 5.25568 -0.984013 0
M  V30 4687 C 446.192 4.30752 -2.95381 0
M  V30 4688 H 447.886 2.3013 -1.91521 0
M  V30 4689 H 445.432 1.10592 -0.92225 0
M  V30 4690 H 447.385 4.19653 -0.383305 0
M  V30 4691 H 446.109 3.24014 0.41015 0
M  V30 4692 H 444.768 3.23621 -1.72236 0
M  V30 4693 H 444.416 5.02998 -0.0155216 0
M  V30 4694 H 444.116 5.63551 -1.66384 0
M  V30 4695 H 445.64 6.04955 -0.828378 0
M  V30 4696 H 447.054 4.98349 -2.8341 0
M  V30 4697 H 445.451 4.79869 -3.60341 0
M  V30 4698 H 446.521 3.39192 -3.46521 0
M  V30 4699 N 447.864 1.01787 1.20321 0
M  V30 4700 C 449.275 0.739307 1.71438 0
M  V30 4701 C 449.626 -0.742041 1.81627 0
M  V30 4702 O 448.751 -1.57903 1.47971 0
M  V30 4703 C 449.346 1.33538 3.11373 0
M  V30 4704 C 447.905 1.10566 3.59795 0
M  V30 4705 C 447.052 1.44028 2.36962 0
M  V30 4706 H 450.003 1.18718 1.05317 0
M  V30 4707 H 450.024 0.726611 3.73498 0
M  V30 4708 H 449.536 2.41352 3.03926 0
M  V30 4709 H 447.637 0.0452405 3.72573 0
M  V30 4710 H 447.75 1.78661 4.44542 0
M  V30 4711 H 446.114 0.85933 2.39766 0
M  V30 4712 H 446.897 2.52901 2.32155 0
M  V30 4713 N 449.342 -1.36122 0.79427 0
M  V30 4714 C 450.572 -2.03067 0.380437 0
M  V30 4715 C 450.98 -1.60018 -1.00949 0
M  V30 4716 O 450.323 -0.787425 -1.65968 0
M  V30 4717 C 450.385 -3.57587 0.37034 0
M  V30 4718 C 450.049 -4.23855 1.70867 0
M  V30 4719 C 451.046 -4.46404 2.66496 0
M  V30 4720 C 448.731 -4.61229 1.9893 0
M  V30 4721 C 450.725 -5.05412 3.88378 0
M  V30 4722 C 448.412 -5.19953 3.21079 0
M  V30 4723 C 449.41 -5.41985 4.15621 0
M  V30 4724 O 449.098 -5.99475 5.35616 0
M  V30 4725 H 448.83 -0.658168 0.154243 0
M  V30 4726 H 451.384 -1.7498 1.0757 0
M  V30 4727 H 449.614 -3.84814 -0.381444 0
M  V30 4728 H 451.303 -4.05895 -0.0194894 0
M  V30 4729 H 452.069 -4.17921 2.46103 0
M  V30 4730 H 447.948 -4.43402 1.26158 0
M  V30 4731 H 451.492 -5.22524 4.62185 0
M  V30 4732 H 447.389 -5.47862 3.41347 0
M  V30 4733 H 448.157 -6.17937 5.36745 0
M  V30 4734 N 450.82 -0.546701 -1.47814 0
M  V30 4735 C 452.097 0.0464413 -1.95545 0
M  V30 4736 C 452.477 1.4962 -1.48919 0
M  V30 4737 O 451.825 2.16752 -0.723232 0
M  V30 4738 C 452.035 -0.0881298 -3.48889 0
M  V30 4739 C 453.383 0.0626059 -4.24554 0
M  V30 4740 O 454.407 -0.0151555 -3.56197 0
M  V30 4741 O 453.266 0.228071 -5.46024 0
M  V30 4742 H 450.36 0.0700004 -0.824032 0
M  V30 4743 H 452.906 -0.612482 -1.58262 0
M  V30 4744 H 451.678 -1.09737 -3.75597 0
M  V30 4745 H 451.301 0.608886 -3.9291 0
M  V30 4746 N 452.299 1.55045 -0.282633 0
M  V30 4747 C 453.576 1.9179 0.384166 0
M  V30 4748 C 453.956 1.20778 1.73136 0
M  V30 4749 O 453.304 0.33719 2.25998 0
M  V30 4750 C 453.514 3.45149 0.517014 0
M  V30 4751 C 454.862 4.17064 0.796427 0
M  V30 4752 O 455.886 3.51084 0.601535 0
M  V30 4753 O 454.745 5.33837 1.16962 0
M  V30 4754 H 451.839 0.799483 0.211558 0
M  V30 4755 H 454.385 1.66474 -0.32934 0
M  V30 4756 H 453.157 3.88922 -0.430772 0
M  V30 4757 H 452.78 3.76443 1.2797 0
M  V30 4758 N 453.777 0.010035 1.57597 0
M  V30 4759 C 455.017 -0.677084 1.9286 0
M  V30 4760 C 455.381 -1.70377 0.885192 0
M  V30 4761 O 456.582 -2.44199 1.12339 0
M  V30 4762 C 454.853 -1.29452 3.33132 0
M  V30 4763 S 456.412 -2.00537 3.90295 0
M  V30 4764 H 453.23 -0.223409 0.674989 0
M  V30 4765 H 455.832 0.0691289 1.95378 0
M  V30 4766 H 454.536 -0.534593 4.06903 0
M  V30 4767 H 454.067 -2.07845 3.34012 0
M  V30 4768 H 456.082 -3.28168 3.72183 0
M  V30 4769 N 455.255 -1.55392 -0.262866 0
M  V30 4770 C 456.501 -1.76737 -0.99458 0
M  V30 4771 C 456.834 -0.572453 -1.85571 0
M  V30 4772 O 456.109 0.429732 -1.89693 0
M  V30 4773 C 456.392 -3.07824 -1.8686 0
M  V30 4774 C 456.245 -4.3769 -1.03672 0
M  V30 4775 C 457.564 -3.35021 -2.85393 0
M  V30 4776 H 454.683 -0.643005 -0.360157 0
M  V30 4777 H 457.325 -1.88126 -0.266216 0
M  V30 4778 H 455.475 -2.98245 -2.48962 0
M  V30 4779 H 457.147 -4.59238 -0.43563 0
M  V30 4780 H 455.39 -4.32461 -0.340513 0
M  V30 4781 H 456.061 -5.25759 -1.6817 0
M  V30 4782 H 458.537 -3.44458 -2.33426 0
M  V30 4783 H 457.413 -4.27989 -3.43681 0
M  V30 4784 H 457.674 -2.55153 -3.61039 0
M  V30 4785 N 456.733 0.527833 -1.48498 0
M  V30 4786 C 457.98 1.28354 -1.56625 0
M  V30 4787 C 458.308 1.93 -0.241096 0
M  V30 4788 O 457.563 1.79967 0.768798 0
M  V30 4789 C 457.862 2.39275 -2.65485 0
M  V30 4790 C 457.528 1.92268 -4.07853 0
M  V30 4791 C 456.19 1.79166 -4.46602 0
M  V30 4792 C 458.542 1.56771 -4.97064 0
M  V30 4793 C 455.87 1.28905 -5.72364 0
M  V30 4794 C 458.222 1.07972 -6.23318 0
M  V30 4795 C 456.886 0.934887 -6.60921 0
M  V30 4796 H 456.156 0.469682 -0.573131 0
M  V30 4797 H 458.803 0.588781 -1.82224 0
M  V30 4798 H 457.108 3.1443 -2.33754 0
M  V30 4799 H 458.805 2.974 -2.68988 0
M  V30 4800 H 455.395 2.03417 -3.77252 0
M  V30 4801 H 459.579 1.65753 -4.67803 0
M  V30 4802 H 454.835 1.16381 -6.00221 0
M  V30 4803 H 459.009 0.795775 -6.91838 0
M  V30 4804 H 456.636 0.543231 -7.58257 0
M  V30 4805 N 458.211 1.37122 0.776871 0
M  V30 4806 C 459.459 1.31787 1.53221 0
M  V30 4807 C 459.78 -0.0987589 1.9475 0
M  V30 4808 O 459.05 -1.0417 1.65908 0
M  V30 4809 H 457.63 0.484839 0.568278 0
M  V30 4810 H 460.292 1.71556 0.924917 0
M  V30 4811 H 459.388 1.95355 2.43398 0
M  V30 4812 N 459.689 -1.00246 1.21608 0
M  V30 4813 C 460.937 -1.73717 1.0328 0
M  V30 4814 C 461.258 -1.90102 -0.434318 0
M  V30 4815 O 460.528 -1.45376 -1.31311 0
M  V30 4816 H 459.108 -0.643613 0.379172 0
M  V30 4817 H 461.77 -1.20787 1.52959 0
M  V30 4818 H 460.866 -2.73535 1.50283 0
M  V30 4819 N 461.167 -1.02423 -1.1978 0
M  V30 4820 C 462.099 -0.559152 -2.22275 0
M  V30 4821 C 463.112 0.36251 -1.58713 0
M  V30 4822 O 464.301 0.159641 -1.77785 0
M  V30 4823 C 461.401 0.205094 -3.38279 0
M  V30 4824 C 460.574 -0.720361 -4.31427 0
M  V30 4825 C 459.633 -0.00234368 -5.262 0
M  V30 4826 O 458.659 -0.627378 -5.65732 0
M  V30 4827 N 459.861 1.26996 -5.66438 0
M  V30 4828 H 462.626 -1.44064 -2.62804 0
M  V30 4829 H 460.187 -0.902692 -1.34399 0
M  V30 4830 H 462.179 0.694868 -3.9869 0
M  V30 4831 H 460.749 0.987947 -2.96578 0
M  V30 4832 H 459.969 -1.39031 -3.68869 0
M  V30 4833 H 461.257 -1.3495 -4.90577 0
M  V30 4834 H 460.655 1.79858 -5.36347 0
M  V30 4835 H 459.212 1.70432 -6.29123 0
M  V30 4836 N 462.645 1.35699 -0.801477 0
M  V30 4837 C 464.061 1.52065 -0.484596 0
M  V30 4838 C 464.261 1.75215 0.995084 0
M  V30 4839 O 463.317 1.79061 1.78026 0
M  V30 4840 C 464.63 2.69908 -1.32552 0
M  V30 4841 C 466.178 2.83784 -1.32044 0
M  V30 4842 C 466.653 4.04646 -2.14536 0
M  V30 4843 N 468.144 4.11814 -2.12046 0
M  V30 4844 C 468.879 5.04437 -2.72636 0
M  V30 4845 N 468.375 6.02426 -3.42133 0
M  V30 4846 N 470.168 4.97144 -2.62305 0
M  V30 4847 H 462.319 1.18928 -1.75983 0
M  V30 4848 H 464.582 0.581455 -0.748741 0
M  V30 4849 H 464.288 2.59363 -2.37537 0
M  V30 4850 H 464.162 3.64376 -0.975181 0
M  V30 4851 H 466.549 2.93783 -0.27846 0
M  V30 4852 H 466.63 1.90188 -1.71062 0
M  V30 4853 H 466.274 3.95407 -3.18772 0
M  V30 4854 H 466.204 4.97413 -1.72882 0
M  V30 4855 H 468.695 3.41664 -1.61476 0
M  V30 4856 H 469.008 6.69688 -3.85666 0
M  V30 4857 H 467.353 6.02615 -3.46237 0
M  V30 4858 H 470.544 4.19546 -2.07603 0
M  V30 4859 H 470.717 5.69138 -3.09815 0
M  V30 4860 N 464.123 0.554532 1.47522 0
M  V30 4861 C 465.053 -0.182974 2.32782 0
M  V30 4862 C 466.034 -0.911377 1.43624 0
M  V30 4863 O 467.219 -0.892366 1.72483 0
M  V30 4864 C 464.349 -1.21513 3.25349 0
M  V30 4865 C 463.303 -0.603355 4.23726 0
M  V30 4866 C 462.629 -1.73995 5.05598 0
M  V30 4867 C 463.929 0.441121 5.20434 0
M  V30 4868 H 465.623 0.52882 2.94693 0
M  V30 4869 H 463.169 0.255759 1.41711 0
M  V30 4870 H 465.122 -1.73922 3.83835 0
M  V30 4871 H 463.846 -1.95683 2.61487 0
M  V30 4872 H 462.505 -0.10059 3.66462 0
M  V30 4873 H 462.153 -2.47063 4.38143 0
M  V30 4874 H 461.853 -1.3364 5.72201 0
M  V30 4875 H 463.377 -2.26735 5.66942 0
M  V30 4876 H 464.791 0.00319931 5.733 0
M  V30 4877 H 463.188 0.763402 5.95224 0
M  V30 4878 H 464.258 1.33799 4.66075 0
M  V30 4879 N 465.601 -1.54893 0.290851 0
M  V30 4880 C 466.829 -2.04343 -0.324288 0
M  V30 4881 C 467.244 -1.16859 -1.48289 0
M  V30 4882 O 466.601 -0.192018 -1.81487 0
M  V30 4883 C 466.652 -3.52756 -0.79026 0
M  V30 4884 O 466.373 -4.36913 0.322213 0
M  V30 4885 C 467.874 -4.18161 -1.4716 0
M  V30 4886 H 465.094 -0.667135 -0.0719173 0
M  V30 4887 H 467.638 -1.99981 0.427529 0
M  V30 4888 H 465.793 -3.57511 -1.49213 0
M  V30 4889 H 466.207 -5.24486 -0.0387372 0
M  V30 4890 H 467.681 -5.23562 -1.7489 0
M  V30 4891 H 468.158 -3.67282 -2.40834 0
M  V30 4892 H 468.764 -4.17454 -0.813178 0
M  V30 4893 N 467.08 -0.0183926 -1.57589 0
M  V30 4894 C 468.01 0.965596 -2.12599 0
M  V30 4895 C 468.991 1.34641 -1.0395 0
M  V30 4896 O 470.176 1.42693 -1.31729 0
M  V30 4897 C 467.306 2.25149 -2.64434 0
M  V30 4898 C 466.26 2.01175 -3.77773 0
M  V30 4899 C 465.586 3.35937 -4.15994 0
M  V30 4900 C 466.886 1.35953 -5.04296 0
M  V30 4901 H 468.58 0.507504 -2.95067 0
M  V30 4902 H 466.126 0.242671 -1.41941 0
M  V30 4903 H 468.079 2.94357 -3.01549 0
M  V30 4904 H 466.803 2.73105 -1.79112 0
M  V30 4905 H 465.462 1.34388 -3.4108 0
M  V30 4906 H 465.11 3.81631 -3.27669 0
M  V30 4907 H 464.81 3.20705 -4.92364 0
M  V30 4908 H 466.334 4.0643 -4.55683 0
M  V30 4909 H 467.748 1.95144 -5.39065 0
M  V30 4910 H 466.145 1.31152 -5.85593 0
M  V30 4911 H 467.215 0.331071 -4.83768 0
M  V30 4912 O 468.597 1.61027 0.12348 0
M  V30 4913 H 469.288 1.78369 0.755254 0
M  V30 END ATOM
M  V30 BEGIN BOND
M  V30 END BOND
M  V30 END CTAB
M  END
$$$$
