drugbank_target|Q9P2K8 eIF-2-alpha kinase GCN2 (DB12010)
 OpenBabel12092121153D

  0  0  0     0  0            999 V3000
M  V30 BEGIN CTAB
M  V30 COUNTS 26255 26523 0 0 0
M  V30 BEGIN ATOM
M  V30 1 H -0.908 1.98254 -0.117106 0
M  V30 2 N 0 1.576 0 0
M  V30 3 C 0.933 2.03868 1.02534 0
M  V30 4 C 1.911 0.928543 1.3348 0
M  V30 5 O 3.095 1.19667 1.45644 0
M  V30 6 C 0.222 2.43627 2.35294 0
M  V30 7 C -0.732 3.65373 2.2001 0
M  V30 8 S 0.101 5.13292 1.52614 0
M  V30 9 C 1.257 5.56322 2.86805 0
M  V30 10 H 1.49 2.90518 0.631377 0
M  V30 11 H -0.977 1.52953 0.210867 0
M  V30 12 H 0.981 2.67203 3.11629 0
M  V30 13 H -0.358 1.57376 2.7183 0
M  V30 14 H -1.165 3.90944 3.18086 0
M  V30 15 H -1.563 3.418 1.51819 0
M  V30 16 H 0.729 5.58782 3.83104 0
M  V30 17 H 1.672 6.56266 2.65933 0
M  V30 18 H 2.08 4.83886 2.90714 0
M  V30 19 N 1.4781 -0.272755 1.55222 0
M  V30 20 C 2.4411 -1.32041 1.87344 0
M  V30 21 C 3.4411 -1.42342 0.74803 0
M  V30 22 O 4.6311 -1.41488 1.0162 0
M  V30 23 C 1.7631 -2.70173 2.07893 0
M  V30 24 H 2.9561 -1.04789 2.80997 0
M  V30 25 H 0.5091 -0.51083 1.47717 0
M  V30 26 H 1.2441 -3.02605 1.16622 0
M  V30 27 H 1.0291 -2.64082 2.89833 0
M  V30 28 H 2.5191 -3.45869 2.34017 0
M  V30 29 N 2.9562 -1.48159 -0.537278 0
M  V30 30 C 4.2042 -1.55497 -1.29094 0
M  V30 31 C 4.5252 -0.227454 -1.93669 0
M  V30 32 O 3.7952 0.750386 -1.80959 0
M  V30 33 H 2.3752 -0.572832 -0.47945 0
M  V30 34 H 5.0372 -1.84579 -0.625818 0
M  V30 35 H 4.1332 -2.33216 -2.07405 0
M  V30 36 N 4.4343 0.785586 -1.36625 0
M  V30 37 C 5.6823 1.54057 -1.30808 0
M  V30 38 C 6.0033 1.94683 0.111157 0
M  V30 39 O 5.2733 1.65241 1.05224 0
M  V30 40 H 3.8533 0.571354 -0.481211 0
M  V30 41 H 6.5153 0.935821 -1.70963 0
M  V30 42 H 5.6113 2.44637 -1.93801 0
M  V30 43 N 5.9124 1.20967 1.01018 0
M  V30 44 C 7.3284 0.965905 1.27053 0
M  V30 45 C 7.5284 -0.350785 1.98423 0
M  V30 46 O 6.5844 -1.07773 2.28344 0
M  V30 47 C 7.8974 2.15294 2.09926 0
M  V30 48 C 9.4454 2.19463 2.23171 0
M  V30 49 C 9.9204 3.3767 3.09424 0
M  V30 50 N 11.4114 3.37724 3.17012 0
M  V30 51 C 12.1464 4.25837 3.83993 0
M  V30 52 N 11.6424 5.24138 4.53047 0
M  V30 53 N 13.4354 4.1366 3.80581 0
M  V30 54 H 5.5864 2.0565 0.531194 0
M  V30 55 H 7.8494 0.90024 0.297106 0
M  V30 56 H 7.5554 3.10684 1.64828 0
M  V30 57 H 7.4294 2.13923 3.10672 0
M  V30 58 H 9.8164 1.24632 2.6749 0
M  V30 59 H 9.8974 2.2488 1.21912 0
M  V30 60 H 9.5414 4.32791 2.65808 0
M  V30 61 H 9.4714 3.29491 4.10784 0
M  V30 62 H 11.9624 2.6658 2.6785 0
M  V30 63 H 12.2754 5.87684 5.01844 0
M  V30 64 H 10.6204 5.28068 4.5185 0
M  V30 65 H 13.8114 3.36127 3.25785 0
M  V30 66 H 13.9844 4.82538 4.32505 0
M  V30 67 N 7.3905 -1.2043 1.01659 0
M  V30 68 C 8.6385 -1.89423 0.704522 0
M  V30 69 C 8.9595 -1.79231 -0.768197 0
M  V30 70 O 8.2295 -1.1947 -1.55254 0
M  V30 71 H 6.8095 -0.701178 0.257602 0
M  V30 72 H 9.4715 -1.4626 1.28818 0
M  V30 73 H 8.5675 -2.96052 0.987916 0
M  V30 74 N 8.8686 -0.792821 -1.36206 0
M  V30 75 C 9.8316 -0.199459 -2.2833 0
M  V30 76 C 10.8316 0.605189 -1.48977 0
M  V30 77 O 12.0216 0.425685 -1.68919 0
M  V30 78 C 9.1536 0.723523 -3.33134 0
M  V30 79 H 10.3466 -1.01181 -2.82316 0
M  V30 80 H 7.8996 -0.562485 -1.45828 0
M  V30 81 H 8.6346 1.56008 -2.84309 0
M  V30 82 H 8.4196 0.148436 -3.91819 0
M  V30 83 H 9.9096 1.13344 -4.01924 0
M  V30 84 N 10.3467 1.47872 -0.545128 0
M  V30 85 C 11.7577 1.86384 -0.108581 0
M  V30 86 C 12.1087 1.45309 1.31832 0
M  V30 87 O 11.2337 0.850641 1.9898 0
M  V30 88 C 11.8287 3.38265 -0.190274 0
M  V30 89 C 10.3877 3.75914 0.191164 0
M  V30 90 C 9.5347 2.71926 -0.543273 0
M  V30 91 H 12.4857 1.39561 -0.755537 0
M  V30 92 H 12.5067 3.75831 0.594217 0
M  V30 93 H 12.0187 3.6813 -1.2289 0
M  V30 94 H 10.1197 3.51665 1.23136 0
M  V30 95 H 10.2327 4.78836 -0.158987 0
M  V30 96 H 8.5967 2.54697 0.0122495 0
M  V30 97 H 9.3797 3.04634 -1.58282 0
M  V30 98 N 11.8248 0.280983 1.55075 0
M  V30 99 C 13.0728 -0.333455 1.9933 0
M  V30 100 C 13.3938 -1.55937 1.17085 0
M  V30 101 O 12.6638 -1.94143 0.261805 0
M  V30 102 H 11.2438 -0.126197 0.736263 0
M  V30 103 H 13.9058 0.387678 1.91005 0
M  V30 104 H 13.0018 -0.619292 3.05894 0
M  V30 105 N 13.3029 -1.57598 0.00835791 0
M  V30 106 C 14.7189 -1.55764 -0.347822 0
M  V30 107 C 14.9189 -1.01186 -1.74252 0
M  V30 108 O 13.9749 -0.649371 -2.44007 0
M  V30 109 C 15.2879 -2.99927 -0.215407 0
M  V30 110 C 16.8359 -3.11656 -0.289725 0
M  V30 111 C 17.3109 -4.57621 -0.18634 0
M  V30 112 N 18.8019 -4.62557 -0.243978 0
M  V30 113 C 19.5369 -5.73094 -0.18745 0
M  V30 114 N 19.0329 -6.92753 -0.0810331 0
M  V30 115 N 20.8259 -5.61588 -0.239925 0
M  V30 116 H 12.9769 -1.91411 0.92062 0
M  V30 117 H 15.2399 -0.879562 0.353659 0
M  V30 118 H 14.9459 -3.43729 0.744512 0
M  V30 119 H 14.8199 -3.63865 -0.994097 0
M  V30 120 H 17.2069 -2.67779 -1.24009 0
M  V30 121 H 17.2879 -2.5048 0.51898 0
M  V30 122 H 16.9319 -5.02174 0.760519 0
M  V30 123 H 16.8619 -5.16752 -1.01364 0
M  V30 124 H 19.3529 -3.76481 -0.327217 0
M  V30 125 H 19.6659 -7.72787 -0.0440241 0
M  V30 126 H 18.0109 -6.94984 -0.0465419 0
M  V30 127 H 21.2019 -4.66996 -0.321317 0
M  V30 128 H 21.3749 -6.47714 -0.192407 0
M  V30 129 N 14.781 0.264519 -1.55364 0
M  V30 130 C 16.029 0.993021 -1.76021 0
M  V30 131 C 16.35 1.86511 -0.569099 0
M  V30 132 O 15.62 1.91438 0.415735 0
M  V30 133 H 14.2 0.369639 -0.649135 0
M  V30 134 H 16.862 0.286707 -1.9278 0
M  V30 135 H 15.958 1.62502 -2.66457 0
M  V30 136 N 16.2591 1.48442 0.529413 0
M  V30 137 C 17.6751 1.34575 0.858004 0
M  V30 138 C 17.8751 0.3572 1.98309 0
M  V30 139 O 16.9311 -0.221379 2.51528 0
M  V30 140 C 18.2441 2.74617 1.22499 0
M  V30 141 C 19.7921 2.83109 1.33484 0
M  V30 142 C 20.2671 4.23854 1.73526 0
M  V30 143 N 21.7581 4.2653 1.80628 0
M  V30 144 C 22.4931 5.32372 2.12997 0
M  V30 145 N 21.9891 6.48491 2.43786 0
M  V30 146 N 23.7821 5.19766 2.14008 0
M  V30 147 H 15.9331 2.1133 -0.212925 0
M  V30 148 H 18.1961 0.947439 -0.0326199 0
M  V30 149 H 17.9021 3.4852 0.471905 0
M  V30 150 H 17.7761 3.08177 2.17501 0
M  V30 151 H 20.1631 2.09462 2.0787 0
M  V30 152 H 20.2441 2.53168 0.366027 0
M  V30 153 H 19.8881 4.98018 0.997013 0
M  V30 154 H 19.8181 4.5124 2.71459 0
M  V30 155 H 22.3091 3.42772 1.59108 0
M  V30 156 H 22.6221 7.24993 2.67592 0
M  V30 157 H 20.9671 6.51765 2.41304 0
M  V30 158 H 24.1581 4.28066 1.89412 0
M  V30 159 H 24.3311 6.02354 2.38902 0
M  V30 160 N 17.7372 -0.778329 1.37039 0
M  V30 161 C 19.0142 -1.52551 1.22424 0
M  V30 162 C 19.3942 -2.10288 -0.184964 0
M  V30 163 O 18.7422 -1.94953 -1.19187 0
M  V30 164 C 18.9522 -2.61164 2.31504 0
M  V30 165 C 20.3002 -3.28746 2.68721 0
M  V30 166 O 21.3242 -2.71455 2.30631 0
M  V30 167 O 20.1832 -4.3231 3.3432 0
M  V30 168 H 17.2772 -0.675343 0.477326 0
M  V30 169 H 19.8232 -0.815859 1.48801 0
M  V30 170 H 18.5952 -2.16574 3.25901 0
M  V30 171 H 18.2182 -3.39737 2.06554 0
M  V30 172 N 19.2153 -1.21501 -1.00376 0
M  V30 173 C 20.1253 -0.991447 -2.12621 0
M  V30 174 C 21.1413 0.0568446 -1.73907 0
M  V30 175 O 22.3173 -0.13348 -2.00957 0
M  V30 176 C 19.3823 -0.560312 -3.42142 0
M  V30 177 C 18.4433 -1.68096 -3.95022 0
M  V30 178 C 17.6763 -1.2703 -5.18362 0
M  V30 179 O 17.8993 -0.144438 -5.70217 0
M  V30 180 O 16.8333 -2.08269 -5.64719 0
M  V30 181 H 20.6593 -1.93158 -2.34358 0
M  V30 182 H 18.2443 -0.999999 -1.10997 0
M  V30 183 H 20.1263 -0.329724 -4.20108 0
M  V30 184 H 18.8013 0.351089 -3.2179 0
M  V30 185 H 17.7083 -1.96597 -3.18278 0
M  V30 186 H 19.0413 -2.56983 -4.19786 0
M  V30 187 N 20.6934 1.19889 -1.02296 0
M  V30 188 C 22.1044 1.71124 -0.746568 0
M  V30 189 C 22.4554 1.81939 0.734335 0
M  V30 190 O 21.5804 1.48639 1.57275 0
M  V30 191 C 22.1754 3.10804 -1.34857 0
M  V30 192 C 20.7344 3.59323 -1.1209 0
M  V30 193 C 19.8814 2.3635 -1.45031 0
M  V30 194 H 22.8324 1.04813 -1.19163 0
M  V30 195 H 22.8534 3.73186 -0.742437 0
M  V30 196 H 22.3654 3.029 -2.42638 0
M  V30 197 H 20.4664 3.7255 -0.0610337 0
M  V30 198 H 20.5794 4.4378 -1.80544 0
M  V30 199 H 18.9434 2.39399 -0.869487 0
M  V30 200 H 19.7264 2.31081 -2.53883 0
M  V30 201 N 22.1715 0.800033 1.35784 0
M  V30 202 C 23.5825 0.439142 1.81462 0
M  V30 203 C 23.9335 -1.03813 1.66485 0
M  V30 204 O 23.0585 -1.80626 1.19177 0
M  V30 205 C 23.6535 0.790314 3.29453 0
M  V30 206 C 22.2125 0.482111 3.733 0
M  V30 207 C 21.3595 1.01938 2.57883 0
M  V30 208 H 24.3105 0.992254 1.23855 0
M  V30 209 H 24.3315 0.0853677 3.80404 0
M  V30 210 H 23.8435 1.86554 3.40322 0
M  V30 211 H 21.9445 -0.584652 3.67984 0
M  V30 212 H 22.0575 1.01015 4.6833 0
M  V30 213 H 20.4215 0.442043 2.50835 0
M  V30 214 H 21.2045 2.10059 2.71533 0
M  V30 215 N 23.6496 -1.47581 0.552962 0
M  V30 216 C 24.5596 -2.33743 -0.200353 0
M  V30 217 C 25.5756 -1.47928 -0.916151 0
M  V30 218 O 26.7516 -1.80865 -0.885993 0
M  V30 219 C 23.8166 -3.24536 -1.21973 0
M  V30 220 C 22.8776 -4.26238 -0.511819 0
M  V30 221 C 22.1106 -5.12693 -1.48263 0
M  V30 222 O 22.3336 -5.01525 -2.71714 0
M  V30 223 O 21.2676 -5.93375 -1.00945 0
M  V30 224 H 25.0936 -2.9945 0.506304 0
M  V30 225 H 22.6786 -1.46071 0.313622 0
M  V30 226 H 24.5606 -3.80631 -1.80827 0
M  V30 227 H 23.2356 -2.61462 -1.90839 0
M  V30 228 H 22.1426 -3.73914 0.117799 0
M  V30 229 H 23.4756 -4.92014 0.135308 0
M  V30 230 N 25.1277 -0.289203 -1.54924 0
M  V30 231 C 26.3527 0.329299 -2.04769 0
M  V30 232 C 26.7777 1.4763 -1.16564 0
M  V30 233 O 26.1357 1.80527 -0.167186 0
M  V30 234 C 26.1837 0.774438 -3.52186 0
M  V30 235 O 25.2877 1.88038 -3.67036 0
M  V30 236 H 24.6287 0.0659259 -0.660719 0
M  V30 237 H 27.1587 -0.42761 -2.00082 0
M  V30 238 H 27.1687 1.06642 -3.93816 0
M  V30 239 H 25.8437 -0.0646707 -4.1585 0
M  V30 240 H 24.4207 1.58985 -3.3731 0
M  V30 241 N 26.6058 1.57591 -0.0167156 0
M  V30 242 C 27.8358 1.95292 0.674149 0
M  V30 243 C 28.2438 0.891097 1.66901 0
M  V30 244 O 27.5868 -0.136908 1.83189 0
M  V30 245 C 27.6488 3.29072 1.44747 0
M  V30 246 C 27.3128 4.52879 0.612331 0
M  V30 247 C 28.3098 5.1979 -0.107126 0
M  V30 248 C 25.9948 4.99242 0.553381 0
M  V30 249 C 27.9888 6.31375 -0.874339 0
M  V30 250 C 25.6758 6.10713 -0.217546 0
M  V30 251 C 26.6738 6.76637 -0.930123 0
M  V30 252 O 26.3618 7.85969 -1.68844 0
M  V30 253 H 26.0938 0.648275 0.191615 0
M  V30 254 H 28.6478 2.05284 -0.0690148 0
M  V30 255 H 26.8778 3.15535 2.2355 0
M  V30 256 H 28.5668 3.51764 2.02526 0
M  V30 257 H 29.3328 4.84948 -0.0708392 0
M  V30 258 H 25.2118 4.47744 1.09757 0
M  V30 259 H 28.7558 6.82764 -1.43106 0
M  V30 260 H 24.6528 6.44994 -0.255593 0
M  V30 261 H 25.4208 8.02571 -1.6069 0
M  V30 262 N 28.0839 -0.256276 1.55502 0
M  V30 263 C 29.4949 -0.826068 1.67431 0
M  V30 264 C 29.8459 -1.86396 0.612446 0
M  V30 265 O 28.9709 -2.15031 -0.243025 0
M  V30 266 C 29.5659 -1.50512 3.03532 0
M  V30 267 C 28.1249 -2.02273 3.17431 0
M  V30 268 C 27.2719 -0.870548 2.63281 0
M  V30 269 H 30.2229 -0.0322728 1.58667 0
M  V30 270 H 30.2439 -2.37279 2.97454 0
M  V30 271 H 29.7559 -0.749484 3.80794 0
M  V30 272 H 27.8569 -2.80746 2.44974 0
M  V30 273 H 27.9699 -2.22655 4.24219 0
M  V30 274 H 26.3339 -1.26851 2.20864 0
M  V30 275 H 27.1169 -0.128149 3.43061 0
M  V30 276 N 29.562 -1.4872 -0.521534 0
M  V30 277 C 30.494 -1.59968 -1.64143 0
M  V30 278 C 31.507 -0.483463 -1.55456 0
M  V30 279 O 32.696 -0.75467 -1.61762 0
M  V30 280 C 29.796 -1.52127 -3.02838 0
M  V30 281 C 28.969 -2.78932 -3.36921 0
M  V30 282 C 28.028 -2.64428 -4.54933 0
M  V30 283 O 27.054 -3.38331 -4.57735 0
M  V30 284 N 28.256 -1.74606 -5.53618 0
M  V30 285 H 31.021 -2.56548 -1.54929 0
M  V30 286 H 28.582 -1.45551 -0.708988 0
M  V30 287 H 30.574 -1.40106 -3.79674 0
M  V30 288 H 29.144 -0.634868 -3.06085 0
M  V30 289 H 28.364 -3.05455 -2.4918 0
M  V30 290 H 29.652 -3.63041 -3.56481 0
M  V30 291 H 29.05 -1.13782 -5.54139 0
M  V30 292 H 27.607 -1.6852 -6.29638 0
M  V30 293 N 31.0401 0.771051 -1.3745 0
M  V30 294 C 32.4561 1.07171 -1.18265 0
M  V30 295 C 32.6561 2.01491 -0.019287 0
M  V30 296 O 31.7121 2.44244 0.640408 0
M  V30 297 C 33.0251 1.66854 -2.50161 0
M  V30 298 C 34.5731 1.79109 -2.56689 0
M  V30 299 C 35.0481 2.42205 -3.88717 0
M  V30 300 N 36.5391 2.49655 -3.90162 0
M  V30 301 C 37.2741 2.9933 -4.8907 0
M  V30 302 N 36.7701 3.49172 -5.98374 0
M  V30 303 N 38.5631 2.9821 -4.76474 0
M  V30 304 H 30.7141 0.144796 -2.11906 0
M  V30 305 H 32.9771 0.126863 -0.939473 0
M  V30 306 H 32.6831 1.05017 -3.35655 0
M  V30 307 H 32.5571 2.6614 -2.673 0
M  V30 308 H 34.9441 2.40077 -1.71601 0
M  V30 309 H 35.0251 0.785757 -2.43433 0
M  V30 310 H 34.6691 1.81875 -4.74219 0
M  V30 311 H 34.5991 3.43345 -3.99276 0
M  V30 312 H 37.0901 2.14383 -3.11205 0
M  V30 313 H 37.4031 3.8548 -6.69795 0
M  V30 314 H 35.7481 3.47275 -6.02018 0
M  V30 315 H 38.9391 2.58572 -3.90203 0
M  V30 316 H 39.1121 3.36613 -5.53711 0
M  V30 317 N 32.5182 1.22032 0.997298 0
M  V30 318 C 33.4502 0.944263 2.08845 0
M  V30 319 C 34.4632 -0.0754663 1.62625 0
M  V30 320 O 35.6522 0.157994 1.77799 0
M  V30 321 C 32.7522 0.397723 3.36558 0
M  V30 322 C 31.9252 1.47362 4.11829 0
M  V30 323 C 30.9842 0.934951 5.17827 0
M  V30 324 O 30.0102 1.62016 5.45655 0
M  V30 325 N 31.2122 -0.245895 5.79979 0
M  V30 326 H 33.9772 1.88363 2.33109 0
M  V30 327 H 31.5382 1.12661 1.16272 0
M  V30 328 H 33.5302 0.0227771 4.04694 0
M  V30 329 H 32.1002 -0.446646 3.09393 0
M  V30 330 H 31.3202 2.02208 3.38386 0
M  V30 331 H 32.6082 2.19764 4.58891 0
M  V30 332 H 32.0062 -0.819475 5.59733 0
M  V30 333 H 30.5632 -0.562272 6.4937 0
M  V30 334 N 33.9963 -1.19345 1.0293 0
M  V30 335 C 35.2733 -1.84811 0.640642 0
M  V30 336 C 35.6533 -1.91855 -0.88062 0
M  V30 337 O 35.0013 -1.43587 -1.7775 0
M  V30 338 C 35.2113 -3.23755 1.30321 0
M  V30 339 C 36.5593 -3.99912 1.42673 0
M  V30 340 O 37.5833 -3.33155 1.26041 0
M  V30 341 O 36.4423 -5.19494 1.6967 0
M  V30 342 H 33.5363 -0.796443 0.222726 0
M  V30 343 H 36.0823 -1.26831 1.12748 0
M  V30 344 H 34.8543 -3.13466 2.34211 0
M  V30 345 H 34.4773 -3.89381 0.804261 0
M  V30 346 N 35.4744 -0.807222 -1.35358 0
M  V30 347 C 36.4244 -0.190706 -2.27201 0
M  V30 348 C 37.4084 0.635838 -1.47804 0
M  V30 349 O 38.6004 0.492991 -1.69996 0
M  V30 350 C 35.7294 0.659337 -3.36909 0
M  V30 351 C 34.8154 -0.176971 -4.23731 0
M  V30 352 N 35.2064 -1.24029 -4.90357 0
M  V30 353 C 33.5044 0.0412953 -4.45981 0
M  V30 354 C 34.2054 -1.75092 -5.54723 0
M  V30 355 N 33.1814 -1.05727 -5.33219 0
M  V30 356 H 36.9834 -1.0043 -2.76208 0
M  V30 357 H 34.4974 -0.648445 -1.48892 0
M  V30 358 H 36.4944 1.11706 -4.01656 0
M  V30 359 H 35.1544 1.47127 -2.89454 0
M  V30 360 H 36.1654 -1.62295 -4.91814 0
M  V30 361 H 32.8424 0.82232 -4.09322 0
M  V30 362 H 34.2324 -2.63963 -6.17878 0
M  V30 363 N 36.9525 1.47285 -0.560781 0
M  V30 364 C 37.8625 2.33846 0.187954 0
M  V30 365 C 38.8785 1.48412 0.908293 0
M  V30 366 O 40.0545 1.81332 0.876388 0
M  V30 367 C 37.1195 3.25178 1.2025 0
M  V30 368 C 36.1805 4.26504 0.489208 0
M  V30 369 C 35.4135 5.13472 1.45542 0
M  V30 370 O 35.6365 5.02959 2.6905 0
M  V30 371 O 34.5705 5.93902 0.977963 0
M  V30 372 H 38.3965 2.99177 -0.522177 0
M  V30 373 H 35.9815 1.45903 -0.321364 0
M  V30 374 H 37.8635 3.81584 1.78805 0
M  V30 375 H 36.5385 2.6247 1.89449 0
M  V30 376 H 35.4455 3.73847 -0.137627 0
M  V30 377 H 36.7785 4.91935 -0.161399 0
M  V30 378 N 38.4306 0.297415 1.54768 0
M  V30 379 C 39.3606 -0.573494 2.26348 0
M  V30 380 C 40.3416 -1.14085 1.26169 0
M  V30 381 O 41.5266 -1.17086 1.54934 0
M  V30 382 C 38.6566 -1.74716 3.00153 0
M  V30 383 C 37.6106 -1.31032 4.07449 0
M  V30 384 C 36.9366 -2.56887 4.68949 0
M  V30 385 C 38.2366 -0.444183 5.20408 0
M  V30 386 H 39.9306 0.0235131 2.99391 0
M  V30 387 H 37.4766 0.0127488 1.43994 0
M  V30 388 H 39.4296 -2.3625 3.48947 0
M  V30 389 H 38.1536 -2.37035 2.24682 0
M  V30 390 H 36.8126 -0.718066 3.59499 0
M  V30 391 H 36.4606 -3.17512 3.90122 0
M  V30 392 H 36.1606 -2.2836 5.41411 0
M  V30 393 H 37.6846 -3.19229 5.20505 0
M  V30 394 H 39.0986 -0.9651 5.65118 0
M  V30 395 H 37.4956 -0.252846 5.99567 0
M  V30 396 H 38.5656 0.531609 4.81977 0
M  V30 397 N 39.9087 -1.5758 0.0250728 0
M  V30 398 C 40.8407 -2.06869 -0.986796 0
M  V30 399 C 41.8537 -0.991332 -1.29137 0
M  V30 400 O 43.0427 -1.26761 -1.25674 0
M  V30 401 C 40.1427 -2.47486 -2.31525 0
M  V30 402 C 39.3157 -3.78253 -2.19643 0
M  V30 403 C 38.3747 -4.05464 -3.35388 0
M  V30 404 O 37.4007 -4.75774 -3.12454 0
M  V30 405 N 38.6027 -3.55321 -4.59051 0
M  V30 406 H 41.3677 -2.94302 -0.566276 0
M  V30 407 H 38.9287 -1.6109 -0.161776 0
M  V30 408 H 40.9207 -2.62785 -3.07776 0
M  V30 409 H 39.4907 -1.65441 -2.65232 0
M  V30 410 H 38.7107 -3.7279 -1.28144 0
M  V30 411 H 39.9987 -4.63936 -2.08903 0
M  V30 412 H 39.3967 -2.98431 -4.80578 0
M  V30 413 H 37.9537 -3.75905 -5.32483 0
M  V30 414 N 41.3868 0.248026 -1.55636 0
M  V30 415 C 42.3498 1.29044 -1.89421 0
M  V30 416 C 43.3498 1.41134 -0.770581 0
M  V30 417 O 44.5398 1.39854 -1.03858 0
M  V30 418 C 41.6718 2.66831 -2.12165 0
M  V30 419 H 42.8648 1.00305 -2.82629 0
M  V30 420 H 40.4178 0.487265 -1.48511 0
M  V30 421 H 41.1528 3.00711 -1.21422 0
M  V30 422 H 40.9378 2.59438 -2.93997 0
M  V30 423 H 42.4278 3.42103 -2.3949 0
M  V30 424 N 42.8649 1.48995 0.513639 0
M  V30 425 C 43.7949 1.67636 1.62544 0
M  V30 426 C 44.7759 0.525087 1.61793 0
M  V30 427 O 45.9609 0.759502 1.78732 0
M  V30 428 C 43.0909 1.73114 3.01079 0
M  V30 429 C 42.0449 2.87905 3.16693 0
M  V30 430 C 41.3709 2.78486 4.56453 0
M  V30 431 C 42.6709 4.29005 2.97913 0
M  V30 432 H 44.3649 2.60716 1.47198 0
M  V30 433 H 41.9109 1.25465 0.706714 0
M  V30 434 H 43.8639 1.84742 3.78746 0
M  V30 435 H 42.5879 0.766241 3.17484 0
M  V30 436 H 41.2469 2.75859 2.41448 0
M  V30 437 H 40.8949 1.7993 4.69717 0
M  V30 438 H 40.5949 3.55523 4.67843 0
M  V30 439 H 42.1189 2.92104 5.36197 0
M  V30 440 H 43.5329 4.41798 3.65359 0
M  V30 441 H 41.9299 5.07166 3.20785 0
M  V30 442 H 42.9999 4.44329 1.94165 0
M  V30 443 N 44.343 -0.763751 1.37857 0
M  V30 444 C 45.253 -1.90817 1.36478 0
M  V30 445 C 46.269 -1.71997 0.263248 0
M  V30 446 O 47.445 -1.95095 0.499979 0
M  V30 447 C 44.51 -3.2605 1.17864 0
M  V30 448 C 43.571 -3.57467 2.3773 0
M  V30 449 C 42.804 -4.86249 2.19995 0
M  V30 450 O 43.027 -5.57884 1.18836 0
M  V30 451 O 41.961 -5.16911 3.08361 0
M  V30 452 H 45.787 -1.94933 2.32884 0
M  V30 453 H 43.372 -0.907619 1.1867 0
M  V30 454 H 45.254 -4.06924 1.09504 0
M  V30 455 H 43.929 -3.22769 0.245372 0
M  V30 456 H 42.836 -2.76796 2.51664 0
M  V30 457 H 44.169 -3.655 3.29652 0
M  V30 458 N 45.8211 -1.22559 -0.990812 0
M  V30 459 C 46.7841 -0.998863 -2.0629 0
M  V30 460 C 47.7841 0.0354834 -1.60761 0
M  V30 461 O 48.9741 -0.203231 -1.7301 0
M  V30 462 C 46.1061 -0.509203 -3.37076 0
M  V30 463 H 47.2991 -1.95014 -2.27837 0
M  V30 464 H 44.8521 -1.04456 -1.16269 0
M  V30 465 H 45.5871 0.446335 -3.21214 0
M  V30 466 H 45.3721 -1.25547 -3.71457 0
M  V30 467 H 46.8621 -0.370888 -4.1595 0
M  V30 468 N 47.2992 1.18797 -1.03562 0
M  V30 469 C 48.5482 1.87978 -0.731235 0
M  V30 470 C 48.8612 1.80911 0.743671 0
M  V30 471 O 50.0672 2.45407 1.16137 0
M  V30 472 C 48.5232 3.3721 -1.25768 0
M  V30 473 C 48.1312 3.52818 -2.76085 0
M  V30 474 C 49.8752 4.11825 -1.0296 0
M  V30 475 C 47.7822 4.9598 -3.22114 0
M  V30 476 H 46.7122 0.704063 -0.269835 0
M  V30 477 H 49.3632 1.34266 -1.25079 0
M  V30 478 H 47.7452 3.90359 -0.666011 0
M  V30 479 H 48.9192 3.09965 -3.40966 0
M  V30 480 H 47.2342 2.91602 -2.97249 0
M  V30 481 H 49.8312 5.17411 -1.34869 0
M  V30 482 H 50.1742 4.16287 0.0333546 0
M  V30 483 H 50.7072 3.64833 -1.58562 0
M  V30 484 H 47.4462 4.96684 -4.27768 0
M  V30 485 H 46.9662 5.39569 -2.61965 0
M  V30 486 H 48.6452 5.6467 -3.15844 0
M  V30 487 N 48.7773 0.814389 1.34928 0
M  V30 488 C 50.0073 0.41054 2.0248 0
M  V30 489 C 50.4153 -0.985625 1.61499 0
M  V30 490 O 49.7583 -1.64781 0.811976 0
M  V30 491 C 49.8203 0.423384 3.56998 0
M  V30 492 C 49.4843 1.77141 4.21272 0
M  V30 493 C 50.4813 2.73093 4.42398 0
M  V30 494 C 48.1663 2.05755 4.58225 0
M  V30 495 C 50.1603 3.95838 4.9959 0
M  V30 496 C 47.8473 3.28762 5.1513 0
M  V30 497 C 48.8453 4.23621 5.35755 0
M  V30 498 O 48.5333 5.44456 5.91458 0
M  V30 499 H 48.2653 0.163997 0.655806 0
M  V30 500 H 50.8193 1.10155 1.73364 0
M  V30 501 H 49.0493 -0.324276 3.85338 0
M  V30 502 H 50.7383 0.0407683 4.0588 0
M  V30 503 H 51.5043 2.5228 4.14222 0
M  V30 504 H 47.3833 1.32727 4.4148 0
M  V30 505 H 50.9273 4.69891 5.15605 0
M  V30 506 H 46.8243 3.49443 5.42734 0
M  V30 507 H 47.5923 5.4586 6.09901 0
M  V30 508 N 50.2554 -1.46986 0.568584 0
M  V30 509 C 51.5034 -2.02041 0.0487022 0
M  V30 510 C 51.8244 -1.44408 -1.31039 0
M  V30 511 O 51.0944 -0.623477 -1.85714 0
M  V30 512 H 49.6744 -0.746849 0.015014 0
M  V30 513 H 52.3364 -1.80257 0.741168 0
M  V30 514 H 51.4324 -3.12085 -0.0308961 0
M  V30 515 N 51.7335 -0.305618 -1.54608 0
M  V30 516 C 52.6965 0.555591 -2.22364 0
M  V30 517 C 53.6965 1.05768 -1.21119 0
M  V30 518 O 54.8865 0.952972 -1.45822 0
M  V30 519 C 52.0185 1.76974 -2.91364 0
M  V30 520 H 53.2115 -0.0364572 -2.99878 0
M  V30 521 H 50.7645 -0.0565007 -1.56198 0
M  V30 522 H 51.4995 2.40151 -2.17941 0
M  V30 523 H 51.2845 1.41732 -3.65588 0
M  V30 524 H 52.7745 2.38148 -3.43038 0
M  V30 525 N 53.2116 1.57565 -0.0334293 0
M  V30 526 C 54.4886 1.83282 0.683163 0
M  V30 527 C 54.8686 0.91823 1.90084 0
M  V30 528 O 54.2166 -0.025113 2.28486 0
M  V30 529 C 54.4266 3.32599 1.0573 0
M  V30 530 C 55.7746 3.99179 1.44711 0
M  V30 531 O 56.7986 3.3712 1.15015 0
M  V30 532 O 55.6576 5.08565 2.0006 0
M  V30 533 H 52.7516 0.755869 0.335546 0
M  V30 534 H 55.2976 1.69589 -0.0614402 0
M  V30 535 H 54.0696 3.90834 0.190828 0
M  V30 536 H 53.6926 3.51415 1.85993 0
M  V30 537 N 54.6897 -0.239769 1.55765 0
M  V30 538 C 55.9367 -0.966801 1.7793 0
M  V30 539 C 56.2647 -1.85046 0.599015 0
M  V30 540 O 55.5197 -1.91197 -0.417395 0
M  V30 541 C 55.8187 -1.852 3.05672 0
M  V30 542 C 55.4847 -1.1231 4.36689 0
M  V30 543 C 54.1467 -0.921689 4.72291 0
M  V30 544 C 56.4987 -0.607019 5.17653 0
M  V30 545 C 53.8267 -0.191996 5.86386 0
M  V30 546 C 56.1787 0.109241 6.32506 0
M  V30 547 C 54.8427 0.322073 6.66723 0
M  V30 548 H 54.1127 -0.353778 0.651093 0
M  V30 549 H 56.7597 -0.23634 1.90036 0
M  V30 550 H 55.0647 -2.64975 2.8861 0
M  V30 551 H 56.7617 -2.41635 3.20021 0
M  V30 552 H 53.3517 -1.29004 4.08725 0
M  V30 553 H 57.5357 -0.750153 4.90598 0
M  V30 554 H 52.7917 -0.0166949 6.11398 0
M  V30 555 H 56.9657 0.516737 6.9448 0
M  V30 556 H 54.5927 0.88944 7.54979 0
M  V30 557 N 56.1678 -1.49265 -0.50573 0
M  V30 558 C 57.0998 -1.617 -1.62437 0
M  V30 559 C 58.1128 -0.499924 -1.54934 0
M  V30 560 O 59.3018 -0.771785 -1.60953 0
M  V30 561 C 56.4018 -1.5533 -3.01207 0
M  V30 562 C 55.5748 -2.8249 -3.33943 0
M  V30 563 C 54.6338 -2.69238 -4.52103 0
M  V30 564 O 53.6598 -3.43167 -4.5412 0
M  V30 565 N 54.8618 -1.80468 -5.51735 0
M  V30 566 H 57.6268 -2.58177 -1.52199 0
M  V30 567 H 55.1878 -1.46294 -0.693511 0
M  V30 568 H 57.1798 -1.44125 -3.78167 0
M  V30 569 H 55.7498 -0.667297 -3.05395 0
M  V30 570 H 54.9698 -3.08081 -2.45926 0
M  V30 571 H 56.2578 -3.66802 -3.5261 0
M  V30 572 H 55.6558 -1.19653 -5.52901 0
M  V30 573 H 54.2128 -1.75188 -6.27816 0
M  V30 574 N 57.6459 0.756429 -1.3826 0
M  V30 575 C 58.9229 1.50584 -1.24835 0
M  V30 576 C 59.3029 2.10556 0.151485 0
M  V30 577 O 58.6509 1.96825 1.1607 0
M  V30 578 C 58.8609 2.57448 -2.3563 0
M  V30 579 C 60.2089 3.24429 -2.73917 0
M  V30 580 O 61.2329 2.67751 -2.34921 0
M  V30 581 O 60.0919 4.26937 -3.41156 0
M  V30 582 H 57.1859 0.667664 -0.48801 0
M  V30 583 H 59.7319 0.792083 -1.5008 0
M  V30 584 H 58.5039 2.11362 -3.29305 0
M  V30 585 H 58.1269 3.36408 -2.11933 0
M  V30 586 N 59.124 1.23083 0.984299 0
M  V30 587 C 60.054 1.03292 2.09411 0
M  V30 588 C 61.035 -0.048923 1.7003 0
M  V30 589 O 62.22 0.114967 1.93859 0
M  V30 590 C 59.35 0.619155 3.41736 0
M  V30 591 C 58.304 1.64791 3.95004 0
M  V30 592 C 57.63 1.0897 5.23478 0
M  V30 593 C 58.93 3.03999 4.24714 0
M  V30 594 H 60.624 1.96119 2.26225 0
M  V30 595 H 58.17 0.944344 1.08711 0
M  V30 596 H 60.123 0.467777 4.18796 0
M  V30 597 H 58.847 -0.344786 3.24775 0
M  V30 598 H 57.506 1.78721 3.20085 0
M  V30 599 H 57.154 0.11686 5.02864 0
M  V30 600 H 56.854 1.77704 5.60085 0
M  V30 601 H 58.378 0.950093 6.03163 0
M  V30 602 H 59.792 2.93393 4.92538 0
M  V30 603 H 58.189 3.69936 4.72512 0
M  V30 604 H 59.259 3.53285 3.32142 0
M  V30 605 N 60.6021 -1.18246 1.0419 0
M  V30 606 C 62.0181 -1.40269 0.761366 0
M  V30 607 C 62.2181 -1.90777 -0.648578 0
M  V30 608 O 61.2741 -2.0929 -1.41258 0
M  V30 609 C 62.5871 -2.40237 1.8085 0
M  V30 610 C 64.1351 -2.53961 1.82955 0
M  V30 611 C 64.6101 -3.57194 2.86664 0
M  V30 612 N 66.1011 -3.64702 2.85563 0
M  V30 613 C 66.8361 -4.44309 3.6246 0
M  V30 614 N 66.3321 -5.27514 4.49111 0
M  V30 615 N 68.1251 -4.39084 3.50944 0
M  V30 616 H 60.2761 -0.837882 1.95175 0
M  V30 617 H 62.5391 -0.430608 0.84456 0
M  V30 618 H 62.2451 -2.10176 2.81991 0
M  V30 619 H 62.1191 -3.39601 1.64168 0
M  V30 620 H 64.5061 -2.83338 0.824855 0
M  V30 621 H 64.5871 -1.54706 2.03715 0
M  V30 622 H 64.2311 -3.28558 3.87314 0
M  V30 623 H 64.1611 -4.5613 2.6316 0
M  V30 624 H 66.6521 -3.05289 2.22727 0
M  V30 625 H 66.9651 -5.85411 5.04493 0
M  V30 626 H 65.3101 -5.2693 4.53178 0
M  V30 627 H 68.5011 -3.7313 2.82651 0
M  V30 628 H 68.6741 -5.00883 4.11121 0
M  V30 629 N 62.0802 -0.821533 -1.34494 0
M  V30 630 C 63.4912 -0.467956 -1.8074 0
M  V30 631 C 63.8422 1.01151 -1.68116 0
M  V30 632 O 62.9672 1.78707 -1.22036 0
M  V30 633 C 63.5622 -0.842627 -3.28154 0
M  V30 634 C 62.1212 -0.541439 -3.72485 0
M  V30 635 C 61.2682 -1.06028 -2.56229 0
M  V30 636 H 64.2192 -1.01183 -1.22261 0
M  V30 637 H 64.2402 -0.145876 -3.8022 0
M  V30 638 H 63.7522 -1.91945 -3.37311 0
M  V30 639 H 61.8532 0.526034 -3.68868 0
M  V30 640 H 61.9662 -1.08453 -4.66663 0
M  V30 641 H 60.3302 -0.481892 -2.501 0
M  V30 642 H 61.1132 -2.14352 -2.68157 0
M  V30 643 N 63.5583 1.46682 -0.576371 0
M  V30 644 C 64.8353 1.95599 0.00703437 0
M  V30 645 C 65.2153 1.51904 1.46589 0
M  V30 646 O 64.5633 0.766755 2.15251 0
M  V30 647 C 64.7733 3.4864 -0.158404 0
M  V30 648 C 66.1213 4.24594 -0.0229439 0
M  V30 649 O 67.1453 3.56094 -0.0869173 0
M  V30 650 O 66.0043 5.46373 0.118015 0
M  V30 651 H 63.0983 0.825275 0.053384 0
M  V30 652 H 65.6443 1.56996 -0.644244 0
M  V30 653 H 64.4163 3.7331 -1.17282 0
M  V30 654 H 64.0393 3.94057 0.5296 0
M  V30 655 N 65.0364 0.313813 1.54444 0
M  V30 656 C 65.9994 -0.54379 2.22656 0
M  V30 657 C 66.9994 -1.05124 1.21678 0
M  V30 658 O 68.1894 -0.945225 1.46325 0
M  V30 659 C 65.3214 -1.75427 2.92298 0
M  V30 660 H 66.5144 0.0523599 2.99854 0
M  V30 661 H 64.0674 0.0647834 1.56166 0
M  V30 662 H 64.8024 -2.38991 2.19211 0
M  V30 663 H 64.5874 -1.39791 3.66334 0
M  V30 664 H 66.0774 -2.36325 3.44297 0
M  V30 665 N 66.5145 -1.57545 0.0417849 0
M  V30 666 C 67.7545 -1.94185 -0.63809 0
M  V30 667 C 68.1185 -0.919339 -1.68559 0
M  V30 668 O 69.3195 -1.17236 -2.41886 0
M  V30 669 C 67.5905 -3.35672 -1.22714 0
M  V30 670 S 69.1495 -3.94256 -1.92633 0
M  V30 671 H 65.9675 -0.679353 -0.209764 0
M  V30 672 H 68.5695 -1.95199 0.108479 0
M  V30 673 H 67.2735 -4.07898 -0.452503 0
M  V30 674 H 66.8045 -3.38132 -2.01073 0
M  V30 675 H 68.8195 -3.7872 -3.20602 0
M  V30 676 N 67.9926 0.231505 -1.5589 0
M  V30 677 C 69.2406 0.955461 -1.78088 0
M  V30 678 C 69.5616 1.85262 -0.608533 0
M  V30 679 O 68.8316 1.92277 0.375035 0
M  V30 680 H 67.4116 0.355787 -0.656829 0
M  V30 681 H 70.0736 0.245751 -1.93344 0
M  V30 682 H 69.1696 1.56814 -2.69844 0
M  V30 683 N 69.4707 1.49531 0.497807 0
M  V30 684 C 70.8817 1.52344 1.07927 0
M  V30 685 C 71.2327 0.311469 1.93712 0
M  V30 686 O 70.3577 -0.578405 2.08527 0
M  V30 687 C 70.9527 2.76062 1.96405 0
M  V30 688 C 69.5117 2.81643 2.49709 0
M  V30 689 C 68.6587 2.46299 1.27404 0
M  V30 690 H 71.6097 1.56182 0.281576 0
M  V30 691 H 71.6307 2.56405 2.81135 0
M  V30 692 H 71.1427 3.64254 1.33943 0
M  V30 693 H 69.2437 1.97739 3.15801 0
M  V30 694 H 69.3567 3.83891 2.86643 0
M  V30 695 H 67.7207 1.98148 1.60029 0
M  V30 696 H 68.5037 3.36769 0.66645 0
M  V30 697 N 70.9488 -0.749086 1.3866 0
M  V30 698 C 72.1948 -1.51056 1.35314 0
M  V30 699 C 72.5278 -1.94121 -0.0553751 0
M  V30 700 O 71.8028 -1.65763 -1.01749 0
M  V30 701 C 72.0858 -2.76003 2.31288 0
M  V30 702 C 71.9388 -2.39047 3.8102 0
M  V30 703 C 73.2578 -3.78046 2.2532 0
M  V30 704 H 70.3768 -0.547972 0.492844 0
M  V30 705 H 73.0188 -0.857628 1.69543 0
M  V30 706 H 71.1688 -3.31716 2.02229 0
M  V30 707 H 72.8408 -1.89074 4.20771 0
M  V30 708 H 71.0838 -1.71449 3.98482 0
M  V30 709 H 71.7548 -3.28462 4.4364 0
M  V30 710 H 74.2308 -3.31884 2.50983 0
M  V30 711 H 73.1068 -4.63159 2.94576 0
M  V30 712 H 73.3678 -4.23957 1.25352 0
M  V30 713 N 72.4269 -1.23603 -0.977757 0
M  V30 714 C 73.3739 -1.01954 -2.07061 0
M  V30 715 C 74.3439 0.0638697 -1.65977 0
M  V30 716 O 75.5289 -0.0887624 -1.90593 0
M  V30 717 C 72.6689 -0.619658 -3.39491 0
M  V30 718 C 71.7819 -1.77547 -3.93829 0
M  V30 719 C 70.9169 -1.32212 -5.14484 0
M  V30 720 C 69.9559 -2.44852 -5.60994 0
M  V30 721 N 69.0929 -2.00456 -6.72876 0
M  V30 722 H 73.9329 -1.95495 -2.24913 0
M  V30 723 H 71.4699 -0.973861 -1.10247 0
M  V30 724 H 73.4279 -0.368898 -4.15566 0
M  V30 725 H 72.0579 0.278752 -3.21594 0
M  V30 726 H 71.1099 -2.14016 -3.14486 0
M  V30 727 H 72.4219 -2.62219 -4.24314 0
M  V30 728 H 71.5759 -1.02965 -5.97899 0
M  V30 729 H 70.3149 -0.445808 -4.85658 0
M  V30 730 H 69.3199 -2.74871 -4.76157 0
M  V30 731 H 70.5449 -3.33024 -5.91837 0
M  V30 732 H 68.4909 -1.15208 -6.45804 0
M  V30 733 H 68.4079 -2.78687 -7.02759 0
M  V30 734 H 69.6759 -1.7432 -7.59758 0
M  V30 735 N 73.905 1.17692 -1.04816 0
M  V30 736 C 74.815 2.25229 -0.65643 0
M  V30 737 C 75.831 1.71018 0.320761 0
M  V30 738 O 77.007 2.00649 0.173805 0
M  V30 739 C 74.072 3.46684 -0.0332629 0
M  V30 740 C 73.133 4.15997 -1.06042 0
M  V30 741 C 72.366 5.31654 -0.466893 0
M  V30 742 O 72.589 5.65777 0.724758 0
M  V30 743 O 71.523 5.89831 -1.1993 0
M  V30 744 H 75.349 2.61016 -1.55255 0
M  V30 745 H 72.934 1.24919 -0.81949 0
M  V30 746 H 74.816 4.20234 0.313256 0
M  V30 747 H 73.491 3.12703 0.836566 0
M  V30 748 H 72.398 3.44482 -1.45886 0
M  V30 749 H 73.731 4.53996 -1.90127 0
M  V30 750 N 75.3831 0.828654 1.34056 0
M  V30 751 C 76.7941 0.477534 1.8049 0
M  V30 752 C 77.1451 -1.00258 1.6865 0
M  V30 753 O 76.2701 -1.78057 1.22982 0
M  V30 754 C 76.8651 0.860018 3.27703 0
M  V30 755 C 75.4241 0.561185 3.72193 0
M  V30 756 C 74.5711 1.07385 2.55663 0
M  V30 757 H 77.5221 1.0183 1.21722 0
M  V30 758 H 77.5431 0.166038 3.80138 0
M  V30 759 H 77.0551 1.93731 3.36288 0
M  V30 760 H 75.1561 -0.506465 3.69142 0
M  V30 761 H 75.2691 1.10926 4.66082 0
M  V30 762 H 73.6331 0.495149 2.49841 0
M  V30 763 H 74.4161 2.15771 2.67016 0
M  V30 764 N 76.8612 -1.46375 0.584142 0
M  V30 765 C 78.2722 -1.86031 0.157959 0
M  V30 766 C 78.6232 -1.48753 -1.27933 0
M  V30 767 O 77.7482 -0.903098 -1.96655 0
M  V30 768 C 78.3432 -3.37642 0.279892 0
M  V30 769 C 76.9022 -3.76289 -0.09143 0
M  V30 770 C 76.0492 -2.7039 0.615178 0
M  V30 771 H 79.0002 -1.37509 0.792274 0
M  V30 772 H 79.0212 -3.77275 -0.494364 0
M  V30 773 H 78.5332 -3.64742 1.32607 0
M  V30 774 H 76.6342 -3.54806 -1.13769 0
M  V30 775 H 76.7472 -4.78246 0.285886 0
M  V30 776 H 75.1112 -2.5464 0.0552833 0
M  V30 777 H 75.8942 -3.0033 1.66303 0
M  V30 778 N 78.3393 -0.321999 -1.54275 0
M  V30 779 C 79.2493 0.553631 -2.27974 0
M  V30 780 C 80.2653 1.13054 -1.32268 0
M  V30 781 O 81.4413 1.15084 -1.6528 0
M  V30 782 C 78.5063 1.69927 -3.02201 0
M  V30 783 C 77.5673 1.15433 -4.1349 0
M  V30 784 C 76.8003 2.24537 -4.84168 0
M  V30 785 O 77.0233 3.44852 -4.5435 0
M  V30 786 O 75.9573 1.90044 -5.7111 0
M  V30 787 H 79.7833 -0.0448345 -3.03667 0
M  V30 788 H 77.3683 -0.0877418 -1.49142 0
M  V30 789 H 79.2503 2.3663 -3.48689 0
M  V30 790 H 77.9253 2.28395 -2.29385 0
M  V30 791 H 76.8323 0.452436 -3.71354 0
M  V30 792 H 78.1653 0.614805 -4.88345 0
M  V30 793 N 79.8174 1.5752 -0.0501392 0
M  V30 794 C 81.0664 1.91827 0.623328 0
M  V30 795 C 81.3794 0.930222 1.72065 0
M  V30 796 O 82.5854 1.1653 2.4522 0
M  V30 797 C 81.0414 3.40692 1.16003 0
M  V30 798 C 80.6494 4.479 0.0948811 0
M  V30 799 C 82.3934 3.84034 1.80881 0
M  V30 800 C 80.3004 5.87879 0.644411 0
M  V30 801 H 79.2304 0.715918 0.236596 0
M  V30 802 H 81.8814 1.83115 -0.118861 0
M  V30 803 H 80.2634 3.44405 1.9545 0
M  V30 804 H 81.4374 4.55775 -0.678675 0
M  V30 805 H 79.7524 4.13892 -0.45637 0
M  V30 806 H 82.3494 4.85984 2.22988 0
M  V30 807 H 82.6924 3.20225 2.6601 0
M  V30 808 H 83.2254 3.82833 1.0809 0
M  V30 809 H 79.9644 6.55282 -0.169229 0
M  V30 810 H 79.4844 5.83567 1.38598 0
M  V30 811 H 81.1634 6.37098 1.12763 0
M  V30 812 N 81.2955 -0.223234 1.56011 0
M  V30 813 C 82.2435 -1.29627 1.93131 0
M  V30 814 C 83.2375 -1.48608 0.813146 0
M  V30 815 O 84.4435 -1.49802 0.997966 0
M  V30 816 H 80.8185 -0.434563 0.613726 0
M  V30 817 H 82.7895 -0.955995 2.82672 0
M  V30 818 C 81.5385 -2.63983 2.26292 0
M  V30 819 H 80.8615 -2.50185 3.11846 0
M  V30 820 H 82.3015 -3.3788 2.56151 0
M  V30 821 C 80.7605 -3.18866 1.08747 0
M  V30 822 O 81.2905 -4.00192 0.347727 0
M  V30 823 N 79.4965 -2.77217 0.871743 0
M  V30 824 H 79.0435 -2.1119 1.47501 0
M  V30 825 H 79.0015 -3.1428 0.0869905 0
M  V30 826 N 82.7736 -1.49793 -0.48987 0
M  V30 827 C 83.7036 -1.70201 -1.59856 0
M  V30 828 C 84.6846 -0.55076 -1.60937 0
M  V30 829 O 85.8696 -0.787841 -1.77501 0
M  V30 830 C 82.9996 -1.77882 -2.98287 0
M  V30 831 C 81.9536 -2.92907 -3.12073 0
M  V30 832 C 81.2796 -2.85712 -4.51965 0
M  V30 833 C 82.5796 -4.3369 -2.91051 0
M  V30 834 H 84.2736 -2.63025 -1.43032 0
M  V30 835 H 81.8196 -1.26574 -0.686664 0
M  V30 836 H 83.7726 -1.90744 -3.75759 0
M  V30 837 H 82.4966 -0.816653 -3.16225 0
M  V30 838 H 81.1556 -2.79665 -2.37029 0
M  V30 839 H 80.8036 -1.8738 -4.66795 0
M  V30 840 H 80.5036 -3.62921 -4.62128 0
M  V30 841 H 82.0276 -3.00598 -5.31482 0
M  V30 842 H 83.4416 -4.47555 -3.58284 0
M  V30 843 H 81.8386 -5.12205 -3.12675 0
M  V30 844 H 82.9086 -4.47362 -1.87071 0
M  V30 845 N 84.2517 0.741722 -1.39055 0
M  V30 846 C 85.4977 1.50336 -1.36113 0
M  V30 847 C 85.8307 1.94148 0.0450796 0
M  V30 848 O 85.1057 1.66301 1.00868 0
M  V30 849 C 85.3887 2.74773 -2.32749 0
M  V30 850 C 85.2417 2.37023 -3.82283 0
M  V30 851 C 86.5607 3.76846 -2.27322 0
M  V30 852 H 83.6797 0.545351 -0.495743 0
M  V30 853 H 86.3217 0.848624 -1.69995 0
M  V30 854 H 84.4717 3.30639 -2.03986 0
M  V30 855 H 86.1437 1.8684 -4.21768 0
M  V30 856 H 84.3867 1.69334 -3.99385 0
M  V30 857 H 85.0577 3.26104 -4.45376 0
M  V30 858 H 87.5337 3.30548 -2.5274 0
M  V30 859 H 86.4097 4.6159 -2.97028 0
M  V30 860 H 86.6707 4.23286 -1.27599 0
M  V30 861 N 85.7298 1.2412 0.971189 0
M  V30 862 C 86.6598 1.05508 2.08304 0
M  V30 863 C 87.6408 -0.0308864 1.70072 0
M  V30 864 O 88.8258 0.135521 1.93727 0
M  V30 865 C 85.9558 0.655365 3.4106 0
M  V30 866 C 84.9098 1.68971 3.93234 0
M  V30 867 C 84.2358 1.14516 5.22293 0
M  V30 868 C 85.5358 3.08487 4.21465 0
M  V30 869 H 87.2298 1.98507 2.24132 0
M  V30 870 H 84.7758 0.955821 1.07704 0
M  V30 871 H 86.7288 0.51217 4.18276 0
M  V30 872 H 85.4528 -0.31032 3.25122 0
M  V30 873 H 84.1118 1.82106 3.18171 0
M  V30 874 H 83.7598 0.170189 5.02712 0
M  V30 875 H 83.4598 1.83635 5.58168 0
M  V30 876 H 84.9838 1.01401 6.02121 0
M  V30 877 H 86.3978 2.98601 4.89398 0
M  V30 878 H 84.7948 3.74926 4.68562 0
M  V30 879 H 85.8648 3.56787 3.28376 0
M  V30 880 N 87.2079 -1.17134 1.05439 0
M  V30 881 C 88.4379 -1.91094 0.785274 0
M  V30 882 C 88.8459 -1.77198 -0.663142 0
M  V30 883 O 88.1889 -1.10835 -1.46497 0
M  V30 884 C 88.2509 -3.42594 1.08949 0
M  V30 885 C 87.9149 -3.80274 2.53458 0
M  V30 886 C 88.9119 -3.82912 3.51673 0
M  V30 887 C 86.5969 -4.11162 2.88532 0
M  V30 888 C 88.5909 -4.15913 4.83006 0
M  V30 889 C 86.2779 -4.43831 4.20068 0
M  V30 890 C 87.2759 -4.46185 5.17115 0
M  V30 891 O 86.9639 -4.78083 6.46291 0
M  V30 892 H 86.6959 -0.613073 0.284811 0
M  V30 893 H 89.2499 -1.49461 1.40893 0
M  V30 894 H 87.4799 -3.84534 0.408741 0
M  V30 895 H 89.1689 -3.97817 0.805991 0
M  V30 896 H 89.9349 -3.5917 3.25917 0
M  V30 897 H 85.8139 -4.085 2.13656 0
M  V30 898 H 89.3579 -4.17665 5.5875 0
M  V30 899 H 85.2549 -4.67037 4.45586 0
M  V30 900 H 86.0229 -4.9593 6.51149 0
M  V30 901 N 88.686 -0.835752 -1.33615 0
M  V30 902 C 90.097 -0.487099 -1.80234 0
M  V30 903 C 90.448 0.993627 -1.69179 0
M  V30 904 O 89.573 1.77403 -1.23924 0
M  V30 905 C 90.168 -0.877385 -3.27242 0
M  V30 906 C 88.727 -0.580915 -3.7189 0
M  V30 907 C 87.874 -1.0874 -2.5509 0
M  V30 908 H 90.825 -1.02474 -1.2118 0
M  V30 909 H 90.846 -0.186195 -3.80044 0
M  V30 910 H 90.358 -1.95512 -3.35256 0
M  V30 911 H 88.459 0.486881 -3.69405 0
M  V30 912 H 88.572 -1.13396 -4.65487 0
M  V30 913 H 86.936 -0.508392 -2.49575 0
M  V30 914 H 87.719 -2.17184 -2.65868 0
M  V30 915 N 90.1641 1.46063 -0.591896 0
M  V30 916 C 91.0961 2.28539 0.174001 0
M  V30 917 C 92.1091 1.39047 0.846753 0
M  V30 918 O 93.2981 1.63564 0.714774 0
M  V30 919 C 90.3981 3.14347 1.26645 0
M  V30 920 C 89.5711 4.32021 0.683856 0
M  V30 921 C 88.6301 4.99157 1.66518 0
M  V30 922 O 87.6561 5.56458 1.19763 0
M  V30 923 N 88.8581 4.97005 2.99943 0
M  V30 924 H 91.6231 2.94911 -0.533633 0
M  V30 925 H 89.1841 1.56077 -0.430294 0
M  V30 926 H 91.1761 3.56125 1.92242 0
M  V30 927 H 89.7461 2.49988 1.87682 0
M  V30 928 H 88.9661 3.93915 -0.1498 0
M  V30 929 H 90.2541 5.08059 0.274567 0
M  V30 930 H 89.6521 4.51714 3.40545 0
M  V30 931 H 88.2091 5.42696 3.61004 0
M  V30 932 N 91.6422 0.330177 1.54103 0
M  V30 933 C 92.8902 -0.269871 2.0029 0
M  V30 934 C 93.2112 -1.52133 1.21986 0
M  V30 935 O 92.4812 -1.93212 0.323438 0
M  V30 936 H 91.0612 -0.10271 0.739905 0
M  V30 937 H 93.7232 0.448249 1.89675 0
M  V30 938 H 92.8192 -0.52166 3.07709 0
M  V30 939 N 93.1203 -1.57491 0.0584922 0
M  V30 940 C 94.0503 -2.14988 -0.911178 0
M  V30 941 C 95.0313 -1.07343 -1.31952 0
M  V30 942 O 96.2163 -1.35318 -1.39294 0
M  V30 943 C 93.3463 -2.70078 -2.18347 0
M  V30 944 C 92.3003 -3.82771 -1.91495 0
M  V30 945 C 91.6263 -4.24408 -3.25241 0
M  V30 946 C 92.9263 -5.07592 -1.23075 0
M  V30 947 H 94.6203 -2.96263 -0.432246 0
M  V30 948 H 92.1663 -1.42512 -0.206469 0
M  V30 949 H 94.1193 -3.08943 -2.86587 0
M  V30 950 H 92.8433 -1.86005 -2.68458 0
M  V30 951 H 91.5023 -3.44389 -1.25664 0
M  V30 952 H 91.1503 -3.37275 -3.73168 0
M  V30 953 H 90.8503 -5.00366 -3.08071 0
M  V30 954 H 92.3743 -4.65879 -3.94701 0
M  V30 955 H 93.7883 -5.43857 -1.81362 0
M  V30 956 H 92.1853 -5.88741 -1.16207 0
M  V30 957 H 93.2553 -4.84454 -0.207847 0
M  V30 958 N 94.5984 0.214957 -1.56127 0
M  V30 959 C 95.8264 0.955092 -1.83536 0
M  V30 960 C 96.2414 1.77677 -0.638472 0
M  V30 961 O 95.5984 1.78219 0.392968 0
M  V30 962 C 95.6494 1.86734 -3.09536 0
M  V30 963 O 95.3704 1.07887 -4.24608 0
M  V30 964 C 96.8714 2.72082 -3.4998 0
M  V30 965 H 94.0914 0.279611 -0.609966 0
M  V30 966 H 96.6354 0.228197 -2.03223 0
M  V30 967 H 94.7904 2.5481 -2.91806 0
M  V30 968 H 95.2044 1.69872 -4.9623 0
M  V30 969 H 96.6784 3.31782 -4.41163 0
M  V30 970 H 97.1554 3.44806 -2.7204 0
M  V30 971 H 97.7614 2.09409 -3.70173 0
M  V30 972 N 96.0765 1.50051 0.48192 0
M  V30 973 C 97.3245 1.60181 1.23234 0
M  V30 974 C 97.6455 0.299176 1.92691 0
M  V30 975 O 96.9155 -0.682708 1.83619 0
M  V30 976 H 95.4955 0.590232 0.457859 0
M  V30 977 H 98.1575 1.86775 0.556881 0
M  V30 978 H 97.2535 2.40753 1.98607 0
M  V30 979 N 97.5546 -0.734337 1.39446 0
M  V30 980 C 98.4646 -1.87879 1.40495 0
M  V30 981 C 99.4806 -1.714 0.299672 0
M  V30 982 O 100.657 -1.93991 0.541249 0
M  V30 983 C 97.7216 -3.23477 1.24754 0
M  V30 984 C 96.7826 -3.52344 2.45259 0
M  V30 985 C 96.0156 -4.81473 2.30259 0
M  V30 986 O 96.2386 -5.55237 1.30643 0
M  V30 987 O 95.1726 -5.10254 3.19256 0
M  V30 988 H 98.9986 -1.89949 2.36966 0
M  V30 989 H 96.5836 -0.882243 1.20569 0
M  V30 990 H 98.4656 -4.04509 1.18111 0
M  V30 991 H 97.1406 -3.22176 0.313781 0
M  V30 992 H 96.0476 -2.71396 2.57478 0
M  V30 993 H 97.3806 -3.58426 3.37331 0
M  V30 994 N 99.0327 -1.24633 -0.964593 0
M  V30 995 C 99.9427 -1.05859 -2.09359 0
M  V30 996 C 100.959 0.00148855 -1.74 0
M  V30 997 O 102.135 -0.197346 -2.00431 0
M  V30 998 C 99.1997 -0.668879 -3.40187 0
M  V30 999 C 98.2607 -1.80578 -3.89474 0
M  V30 1000 C 97.4937 -1.43457 -5.14058 0
M  V30 1001 O 97.7167 -0.325775 -5.69469 0
M  V30 1002 O 96.6507 -2.2613 -5.57807 0
M  V30 1003 H 100.477 -2.00516 -2.28094 0
M  V30 1004 H 98.0617 -1.03481 -1.0776 0
M  V30 1005 H 99.9437 -0.463211 -4.18846 0
M  V30 1006 H 98.6187 0.248536 -3.22744 0
M  V30 1007 H 97.5257 -2.06623 -3.11862 0
M  V30 1008 H 98.8587 -2.70208 -4.11398 0
M  V30 1009 N 100.511 1.16574 -1.06058 0
M  V30 1010 C 101.757 1.87324 -0.777022 0
M  V30 1011 C 102.09 1.81351 0.694645 0
M  V30 1012 O 101.365 1.22753 1.50871 0
M  V30 1013 C 101.648 3.36991 -1.26922 0
M  V30 1014 C 101.501 3.51667 -2.80447 0
M  V30 1015 C 102.82 4.3131 -0.87521 0
M  V30 1016 H 99.9388 0.680191 -0.28374 0
M  V30 1017 H 102.581 1.37036 -1.3161 0
M  V30 1018 H 100.731 3.79949 -0.81063 0
M  V30 1019 H 102.403 3.17664 -3.34495 0
M  V30 1020 H 100.646 2.93656 -3.19294 0
M  V30 1021 H 101.317 4.56766 -3.0995 0
M  V30 1022 H 103.793 3.9624 -1.27014 0
M  V30 1023 H 102.669 5.34545 -1.2471 0
M  V30 1024 H 102.93 4.41552 0.220071 0
M  V30 1025 N 101.989 0.842826 1.3317 0
M  V30 1026 C 103.219 0.453397 2.01564 0
M  V30 1027 C 103.627 -0.951147 1.63554 0
M  V30 1028 O 102.97 -1.63021 0.846746 0
M  V30 1029 C 103.032 0.499013 3.5602 0
M  V30 1030 C 102.696 1.86037 4.1742 0
M  V30 1031 C 103.693 2.82416 4.36506 0
M  V30 1032 C 101.378 2.15428 4.53757 0
M  V30 1033 C 103.372 4.06346 4.91082 0
M  V30 1034 C 101.059 3.39615 5.0804 0
M  V30 1035 C 102.057 4.3489 5.26649 0
M  V30 1036 O 101.745 5.5688 5.79776 0
M  V30 1037 H 101.477 0.177871 0.652179 0
M  V30 1038 H 104.031 1.13808 1.70988 0
M  V30 1039 H 102.261 -0.242467 3.85939 0
M  V30 1040 H 103.95 0.126852 4.05702 0
M  V30 1041 H 104.716 2.6101 4.08777 0
M  V30 1042 H 100.595 1.42061 4.38565 0
M  V30 1043 H 104.139 4.80722 5.05522 0
M  V30 1044 H 100.036 3.60876 5.352 0
M  V30 1045 H 100.804 5.58674 5.98185 0
M  V30 1046 N 103.467 -1.45747 0.599634 0
M  V30 1047 C 104.713 -2.02592 0.0918643 0
M  V30 1048 C 105.046 -1.46806 -1.27128 0
M  V30 1049 O 104.321 -0.639658 -1.83681 0
M  V30 1050 C 104.604 -3.60073 0.0443398 0
M  V30 1051 C 104.457 -4.26208 1.43759 0
M  V30 1052 C 105.776 -4.35309 -0.647608 0
M  V30 1053 H 102.895 -0.736175 0.034857 0
M  V30 1054 H 105.537 -1.73694 0.770081 0
M  V30 1055 H 103.687 -3.84823 -0.533224 0
M  V30 1056 H 105.359 -4.12668 2.06162 0
M  V30 1057 H 103.602 -3.84916 2.00056 0
M  V30 1058 H 104.273 -5.35069 1.35665 0
M  V30 1059 H 106.749 -4.15805 -0.156776 0
M  V30 1060 H 105.625 -5.45038 -0.649942 0
M  V30 1061 H 105.886 -4.07598 -1.71219 0
M  V30 1062 N 104.945 -0.338344 -1.53925 0
M  V30 1063 C 105.892 0.520845 -2.24846 0
M  V30 1064 C 106.862 1.09976 -1.24477 0
M  V30 1065 O 108.047 1.13735 -1.53196 0
M  V30 1066 C 105.187 1.6685 -3.02084 0
M  V30 1067 C 104.3 1.11739 -4.17299 0
M  V30 1068 C 103.435 2.23193 -4.82036 0
M  V30 1069 C 102.474 1.65407 -5.89328 0
M  V30 1070 N 101.611 2.70582 -6.47866 0
M  V30 1071 H 106.451 -0.0904881 -2.97863 0
M  V30 1072 H 103.988 -0.0564282 -1.46992 0
M  V30 1073 H 105.946 2.34407 -3.45122 0
M  V30 1074 H 104.576 2.2509 -2.31375 0
M  V30 1075 H 103.628 0.332919 -3.7894 0
M  V30 1076 H 104.94 0.654677 -4.94485 0
M  V30 1077 H 104.094 2.98626 -5.28117 0
M  V30 1078 H 102.833 2.72807 -4.04262 0
M  V30 1079 H 101.838 0.884779 -5.42634 0
M  V30 1080 H 103.063 1.16652 -6.69006 0
M  V30 1081 H 101.009 3.1946 -5.72959 0
M  V30 1082 H 100.926 2.28917 -7.20509 0
M  V30 1083 H 102.194 3.45799 -6.98601 0
M  V30 1084 N 106.423 1.57458 -0.0668435 0
M  V30 1085 C 107.669 1.93587 0.6043 0
M  V30 1086 C 108.002 0.946722 1.69561 0
M  V30 1087 O 107.277 -0.0248516 1.94484 0
M  V30 1088 C 107.56 3.40014 1.18585 0
M  V30 1089 C 107.413 4.49685 0.101529 0
M  V30 1090 C 108.732 3.87154 2.09284 0
M  V30 1091 H 105.851 0.703958 0.218202 0
M  V30 1092 H 108.493 1.89542 -0.131804 0
M  V30 1093 H 106.643 3.43592 1.81319 0
M  V30 1094 H 108.315 4.5823 -0.531279 0
M  V30 1095 H 106.558 4.30059 -0.568487 0
M  V30 1096 H 107.229 5.49266 0.54874 0
M  V30 1097 H 109.705 3.85551 1.56491 0
M  V30 1098 H 108.581 4.90231 2.46911 0
M  V30 1099 H 108.842 3.2481 2.99918 0
M  V30 1100 N 107.901 -0.206675 1.56239 0
M  V30 1101 C 109.178 -0.954051 1.70755 0
M  V30 1102 C 109.558 -2.01841 0.618353 0
M  V30 1103 O 108.906 -2.25444 -0.372434 0
M  V30 1104 C 109.116 -1.551 3.12642 0
M  V30 1105 C 110.464 -2.03757 3.72516 0
M  V30 1106 O 111.488 -1.64965 3.15698 0
M  V30 1107 O 110.347 -2.75103 4.72208 0
M  V30 1108 H 107.441 -0.446636 0.696021 0
M  V30 1109 H 109.987 -0.197283 1.68549 0
M  V30 1110 H 108.759 -0.783212 3.83382 0
M  V30 1111 H 108.382 -2.37291 3.19028 0
M  V30 1112 N 109.379 -1.50304 -0.473955 0
M  V30 1113 C 110.309 -1.71886 -1.58042 0
M  V30 1114 C 111.29 -0.567799 -1.60344 0
M  V30 1115 O 112.475 -0.806623 -1.76656 0
M  V30 1116 C 109.605 -1.81036 -2.96384 0
M  V30 1117 C 108.559 -2.962 -3.08949 0
M  V30 1118 C 107.885 -2.9049 -4.48909 0
M  V30 1119 C 109.185 -4.36752 -2.86434 0
M  V30 1120 H 110.879 -2.64527 -1.40234 0
M  V30 1121 H 108.425 -1.27295 -0.673201 0
M  V30 1122 H 110.378 -1.94719 -3.73714 0
M  V30 1123 H 109.102 -0.850147 -3.15341 0
M  V30 1124 H 107.761 -2.82164 -2.3405 0
M  V30 1125 H 107.409 -1.92321 -4.64781 0
M  V30 1126 H 107.109 -3.67802 -4.58253 0
M  V30 1127 H 108.633 -3.06218 -5.28264 0
M  V30 1128 H 110.047 -4.5133 -3.53517 0
M  V30 1129 H 108.444 -5.15493 -3.07225 0
M  V30 1130 H 109.514 -4.49321 -1.82316 0
M  V30 1131 N 110.857 0.726932 -1.39834 0
M  V30 1132 C 112.273 1.03354 -1.21615 0
M  V30 1133 C 112.473 2.01327 -0.08338 0
M  V30 1134 O 111.529 2.46158 0.56238 0
M  V30 1135 C 112.842 1.58811 -2.55342 0
M  V30 1136 C 114.39 1.70851 -2.62257 0
M  V30 1137 C 114.865 2.29716 -3.96225 0
M  V30 1138 N 116.356 2.37116 -3.97907 0
M  V30 1139 C 117.091 2.83619 -4.98345 0
M  V30 1140 N 116.587 3.29958 -6.09179 0
M  V30 1141 N 118.38 2.82901 -4.8572 0
M  V30 1142 H 110.531 0.0773069 -2.12259 0
M  V30 1143 H 112.794 0.0969102 -0.943034 0
M  V30 1144 H 112.5 0.942855 -3.38826 0
M  V30 1145 H 112.374 2.57502 -2.75632 0
M  V30 1146 H 114.761 2.34497 -1.79152 0
M  V30 1147 H 114.842 0.707913 -2.45809 0
M  V30 1148 H 114.486 1.66696 -4.79765 0
M  V30 1149 H 114.416 3.30469 -4.09997 0
M  V30 1150 H 116.907 2.04374 -3.17868 0
M  V30 1151 H 117.22 3.63976 -6.8172 0
M  V30 1152 H 115.565 3.27946 -6.12761 0
M  V30 1153 H 118.756 2.46027 -3.98231 0
M  V30 1154 H 118.929 3.18827 -5.6414 0
M  V30 1155 N 112.336 1.25143 0.95797 0
M  V30 1156 C 113.582 1.09855 1.70469 0
M  V30 1157 C 113.915 -0.360187 1.90831 0
M  V30 1158 O 113.19 -1.26568 1.47685 0
M  V30 1159 C 113.473 1.8497 3.08963 0
M  V30 1160 C 113.326 3.38652 2.96032 0
M  V30 1161 C 114.645 1.63016 4.08795 0
M  V30 1162 H 111.764 0.400465 0.618706 0
M  V30 1163 H 114.406 1.53933 1.11376 0
M  V30 1164 H 112.556 1.47505 3.59409 0
M  V30 1165 H 114.228 3.85772 2.52938 0
M  V30 1166 H 112.471 3.66534 2.32025 0
M  V30 1167 H 113.142 3.8642 3.94187 0
M  V30 1168 H 115.618 1.95625 3.67247 0
M  V30 1169 H 114.494 2.18015 5.03747 0
M  V30 1170 H 114.755 0.570692 4.38401 0
M  V30 1171 N 113.814 -1.1601 1.06675 0
M  V30 1172 C 114.761 -2.20525 0.680967 0
M  V30 1173 C 115.731 -1.62904 -0.324283 0
M  V30 1174 O 116.916 -1.89615 -0.212294 0
M  V30 1175 C 114.056 -3.45013 0.0776551 0
M  V30 1176 C 113.169 -4.16863 1.13355 0
M  V30 1177 C 112.304 -5.2888 0.49597 0
M  V30 1178 C 111.343 -5.92537 1.53513 0
M  V30 1179 N 110.48 -6.96038 0.920631 0
M  V30 1180 H 115.32 -2.52876 1.57663 0
M  V30 1181 H 112.857 -1.24199 0.788223 0
M  V30 1182 H 114.815 -4.16193 -0.289704 0
M  V30 1183 H 113.445 -3.132 -0.781393 0
M  V30 1184 H 112.497 -3.44248 1.61857 0
M  V30 1185 H 113.809 -4.60294 1.92174 0
M  V30 1186 H 112.963 -6.06653 0.0758604 0
M  V30 1187 H 111.702 -4.86622 -0.324062 0
M  V30 1188 H 110.707 -5.13482 1.9651 0
M  V30 1189 H 111.932 -6.36873 2.35733 0
M  V30 1190 H 109.878 -6.55888 0.12138 0
M  V30 1191 H 109.795 -7.3786 1.64616 0
M  V30 1192 H 111.063 -7.77725 0.525795 0
M  V30 1193 N 115.292 -0.849877 -1.32721 0
M  V30 1194 C 116.532 -0.457146 -1.99222 0
M  V30 1195 C 116.896 0.968038 -1.6581 0
M  V30 1196 O 118.097 1.46507 -2.25364 0
M  V30 1197 C 116.368 -0.683966 -3.50794 0
M  V30 1198 S 117.927 -0.388095 -4.3708 0
M  V30 1199 H 114.745 -0.171464 -0.690015 0
M  V30 1200 H 117.347 -1.10155 -1.61512 0
M  V30 1201 H 116.051 -1.72038 -3.726 0
M  V30 1202 H 115.582 -0.0258086 -3.93392 0
M  V30 1203 H 117.597 0.787791 -4.89906 0
M  V30 1204 N 116.77 1.45427 -0.607355 0
M  V30 1205 C 118.181 1.85756 -0.187535 0
M  V30 1206 C 118.532 1.5077 1.25551 0
M  V30 1207 O 117.657 0.93427 1.95193 0
M  V30 1208 C 118.252 3.37154 -0.333572 0
M  V30 1209 C 116.811 3.76387 0.0315542 0
M  V30 1210 C 115.958 2.69377 -0.658117 0
M  V30 1211 H 118.909 1.36231 -0.81405 0
M  V30 1212 H 118.93 3.78014 0.43428 0
M  V30 1213 H 118.442 3.62586 -1.38393 0
M  V30 1214 H 116.543 3.56571 1.0811 0
M  V30 1215 H 116.656 4.77731 -0.361935 0
M  V30 1216 H 115.02 2.5452 -0.0957873 0
M  V30 1217 H 115.803 2.97646 -1.7106 0
M  V30 1218 N 118.248 0.346503 1.53744 0
M  V30 1219 C 119.659 -0.136779 1.86198 0
M  V30 1220 C 120.01 -1.49749 1.26766 0
M  V30 1221 O 119.135 -2.08417 0.582355 0
M  V30 1222 C 119.73 -0.254966 3.37839 0
M  V30 1223 C 118.289 -0.682482 3.70161 0
M  V30 1224 C 117.436 0.181981 2.76702 0
M  V30 1225 H 120.387 0.565994 1.48264 0
M  V30 1226 H 120.408 -1.08195 3.64793 0
M  V30 1227 H 119.92 0.735526 3.81066 0
M  V30 1228 H 118.021 -1.68189 3.3248 0
M  V30 1229 H 118.134 -0.470326 4.76786 0
M  V30 1230 H 116.498 -0.34615 2.52337 0
M  V30 1231 H 117.281 1.16966 3.2276 0
M  V30 1232 N 119.726 -1.57421 0.075193 0
M  V30 1233 C 120.954 -1.97946 -0.602076 0
M  V30 1234 C 121.369 -0.953674 -1.62943 0
M  V30 1235 O 120.726 0.0592551 -1.82404 0
M  V30 1236 C 120.777 -3.38546 -1.26762 0
M  V30 1237 O 120.498 -4.37195 -0.281376 0
M  V30 1238 C 121.999 -3.93966 -2.03239 0
M  V30 1239 H 119.219 -0.650918 -0.162931 0
M  V30 1240 H 121.763 -2.03959 0.148601 0
M  V30 1241 H 119.918 -3.33609 -1.96936 0
M  V30 1242 H 120.332 -5.18975 -0.759267 0
M  V30 1243 H 121.806 -4.94555 -2.45193 0
M  V30 1244 H 122.283 -3.30693 -2.8903 0
M  V30 1245 H 122.889 -4.02315 -1.37924 0
M  V30 1246 N 121.204 0.198386 -1.56346 0
M  V30 1247 C 122.434 0.934215 -1.84271 0
M  V30 1248 C 122.842 1.77496 -0.655125 0
M  V30 1249 O 122.185 1.7961 0.385488 0
M  V30 1250 C 122.247 1.88278 -3.06254 0
M  V30 1251 C 121.911 1.22431 -4.40295 0
M  V30 1252 C 122.908 0.602839 -5.16393 0
M  V30 1253 C 120.593 1.22915 -4.87029 0
M  V30 1254 C 122.587 -0.0050083 -6.374 0
M  V30 1255 C 120.274 0.617465 -6.07973 0
M  V30 1256 C 121.272 0.00146341 -6.83 0
M  V30 1257 O 120.96 -0.600642 -8.01653 0
M  V30 1258 H 120.692 0.278245 -0.616081 0
M  V30 1259 H 123.246 0.211626 -2.04307 0
M  V30 1260 H 121.476 2.64498 -2.82095 0
M  V30 1261 H 123.165 2.48612 -3.20853 0
M  V30 1262 H 123.931 0.591265 -4.81382 0
M  V30 1263 H 119.81 1.69801 -4.28589 0
M  V30 1264 H 123.354 -0.48643 -6.95902 0
M  V30 1265 H 119.251 0.62653 -6.42452 0
M  V30 1266 H 120.019 -0.497225 -8.16988 0
M  V30 1267 N 122.682 1.50554 0.465978 0
M  V30 1268 C 124.093 1.54599 1.04671 0
M  V30 1269 C 124.444 0.352488 1.93008 0
M  V30 1270 O 123.569 -0.534044 2.09707 0
M  V30 1271 C 124.164 2.80166 1.90505 0
M  V30 1272 C 122.723 2.86876 2.43678 0
M  V30 1273 C 121.87 2.48947 1.22151 0
M  V30 1274 H 124.821 1.56744 0.248384 0
M  V30 1275 H 124.842 2.62311 2.75633 0
M  V30 1276 H 124.354 3.67013 1.26186 0
M  V30 1277 H 122.455 2.04393 3.11536 0
M  V30 1278 H 122.568 3.89885 2.78436 0
M  V30 1279 H 120.932 2.01498 1.5579 0
M  V30 1280 H 121.715 3.38107 0.594866 0
M  V30 1281 N 124.16 -0.719506 1.40217 0
M  V30 1282 C 125.437 -1.47221 1.28784 0
M  V30 1283 C 125.817 -2.10883 -0.0956067 0
M  V30 1284 O 125.165 -1.99833 -1.10811 0
M  V30 1285 C 125.375 -2.5111 2.42373 0
M  V30 1286 C 126.723 -3.17053 2.82423 0
M  V30 1287 O 127.747 -2.61429 2.41937 0
M  V30 1288 O 126.606 -4.17742 3.52355 0
M  V30 1289 H 123.7 -0.654491 0.50554 0
M  V30 1290 H 126.246 -0.752014 1.52128 0
M  V30 1291 H 125.018 -2.02556 3.34793 0
M  V30 1292 H 124.641 -3.3067 2.20778 0
M  V30 1293 N 125.638 -1.25649 -0.95132 0
M  V30 1294 C 126.884 -1.10757 -1.69884 0
M  V30 1295 C 127.217 0.350061 -1.91019 0
M  V30 1296 O 126.492 1.25783 -1.48354 0
M  V30 1297 C 126.775 -1.86606 -3.07978 0
M  V30 1298 C 126.628 -3.40217 -2.94232 0
M  V30 1299 C 127.947 -1.65182 -4.07925 0
M  V30 1300 H 125.066 -0.40374 -0.616574 0
M  V30 1301 H 127.708 -1.54521 -1.10558 0
M  V30 1302 H 125.858 -1.49409 -3.58621 0
M  V30 1303 H 127.53 -3.87108 -2.50889 0
M  V30 1304 H 125.773 -3.67759 -2.30078 0
M  V30 1305 H 126.444 -3.88505 -3.92133 0
M  V30 1306 H 128.92 -1.9757 -3.66204 0
M  V30 1307 H 127.796 -2.20683 -5.02583 0
M  V30 1308 H 128.057 -0.593933 -4.38092 0
M  V30 1309 N 127.117 1.15442 -1.07289 0
M  V30 1310 C 128.363 1.86489 -0.796846 0
M  V30 1311 C 128.696 1.82078 0.675371 0
M  V30 1312 O 127.971 1.24346 1.4956 0
M  V30 1313 C 128.254 3.35626 -1.30489 0
M  V30 1314 C 128.107 3.48673 -2.84161 0
M  V30 1315 C 129.426 4.30357 -0.920907 0
M  V30 1316 H 126.545 0.677144 -0.290939 0
M  V30 1317 H 129.187 1.35633 -1.33056 0
M  V30 1318 H 127.337 3.79068 -0.850883 0
M  V30 1319 H 129.009 3.14099 -3.37846 0
M  V30 1320 H 127.252 2.90253 -3.22391 0
M  V30 1321 H 127.923 4.53453 -3.14777 0
M  V30 1322 H 130.399 3.94871 -1.3121 0
M  V30 1323 H 129.275 5.33193 -1.30372 0
M  V30 1324 H 129.536 4.4176 0.173226 0
M  V30 1325 N 128.595 0.856903 1.32268 0
M  V30 1326 C 130.006 0.515711 1.79436 0
M  V30 1327 C 130.357 -0.966586 1.70738 0
M  V30 1328 O 129.482 -1.75409 1.26731 0
M  V30 1329 C 130.077 0.929335 3.25805 0
M  V30 1330 C 128.636 0.640006 3.70919 0
M  V30 1331 C 127.783 1.12784 2.53328 0
M  V30 1332 H 130.734 1.04389 1.19535 0
M  V30 1333 H 130.755 0.246633 3.797 0
M  V30 1334 H 130.267 2.00821 3.32103 0
M  V30 1335 H 128.368 -0.428051 3.70133 0
M  V30 1336 H 128.481 1.20788 4.63624 0
M  V30 1337 H 126.845 0.548033 2.48734 0
M  V30 1338 H 127.628 2.21387 2.62379 0
M  V30 1339 N 130.073 -1.45103 0.615059 0
M  V30 1340 C 130.983 -2.34382 -0.101034 0
M  V30 1341 C 131.999 -1.51681 -0.852585 0
M  V30 1342 O 133.175 -1.8446 -0.808484 0
M  V30 1343 C 130.24 -3.29417 -1.08099 0
M  V30 1344 C 129.301 -4.28025 -0.330577 0
M  V30 1345 C 128.534 -5.1852 -1.26385 0
M  V30 1346 O 128.757 -5.12598 -2.50198 0
M  V30 1347 O 127.691 -5.97122 -0.756866 0
M  V30 1348 H 131.517 -2.97033 0.632855 0
M  V30 1349 H 129.102 -1.4461 0.375293 0
M  V30 1350 H 130.984 -3.87958 -1.6452 0
M  V30 1351 H 129.659 -2.69321 -1.79577 0
M  V30 1352 H 128.566 -3.73078 0.276283 0
M  V30 1353 H 129.899 -4.90997 0.343866 0
M  V30 1354 N 131.551 -0.354651 -1.53558 0
M  V30 1355 C 132.8 0.239504 -2.00273 0
M  V30 1356 C 133.113 1.50759 -1.24623 0
M  V30 1357 O 134.319 2.17968 -1.61871 0
M  V30 1358 C 132.775 0.477341 -3.5672 0
M  V30 1359 C 132.383 -0.775488 -4.41237 0
M  V30 1360 C 134.127 1.02975 -4.11821 0
M  V30 1361 C 132.034 -0.507838 -5.89216 0
M  V30 1362 H 130.964 0.0932743 -0.748208 0
M  V30 1363 H 133.615 -0.471701 -1.77334 0
M  V30 1364 H 131.997 1.24953 -3.7577 0
M  V30 1365 H 133.171 -1.54963 -4.33962 0
M  V30 1366 H 131.486 -1.25033 -3.97185 0
M  V30 1367 H 134.083 1.24513 -5.2 0
M  V30 1368 H 134.426 1.98862 -3.65731 0
M  V30 1369 H 134.959 0.317994 -3.96527 0
M  V30 1370 H 131.698 -1.43674 -6.39561 0
M  V30 1371 H 131.218 0.228011 -5.99366 0
M  V30 1372 H 132.897 -0.129238 -6.46871 0
M  V30 1373 N 133.029 1.57378 -0.0835403 0
M  V30 1374 C 133.939 2.16897 0.894021 0
M  V30 1375 C 134.955 1.13528 1.31861 0
M  V30 1376 O 136.131 1.45848 1.3889 0
M  V30 1377 C 133.196 2.72831 2.13925 0
M  V30 1378 C 132.257 3.91115 1.76997 0
M  V30 1379 C 131.49 4.44371 2.95584 0
M  V30 1380 O 131.713 3.96596 4.09961 0
M  V30 1381 O 130.647 5.35549 2.74719 0
M  V30 1382 H 134.473 3.00814 0.417679 0
M  V30 1383 H 132.058 1.48741 0.140181 0
M  V30 1384 H 133.94 3.0863 2.86924 0
M  V30 1385 H 132.615 1.91967 2.60635 0
M  V30 1386 H 131.522 3.60148 1.01214 0
M  V30 1387 H 132.855 4.73307 1.3506 0
M  V30 1388 N 134.507 -0.190092 1.56449 0
M  V30 1389 C 135.437 -1.23816 1.97969 0
M  V30 1390 C 136.418 -1.47201 0.852395 0
M  V30 1391 O 137.603 -1.58854 1.1171 0
M  V30 1392 C 134.733 -2.5813 2.3235 0
M  V30 1393 C 133.687 -2.49348 3.47864 0
M  V30 1394 C 133.013 -3.8798 3.67934 0
M  V30 1395 C 134.313 -2.01424 4.81898 0
M  V30 1396 H 136.007 -0.89311 2.85769 0
M  V30 1397 H 133.553 -0.428177 1.37487 0
M  V30 1398 H 135.506 -3.31637 2.59991 0
M  V30 1399 H 134.23 -2.94386 1.41438 0
M  V30 1400 H 132.889 -1.78297 3.20321 0
M  V30 1401 H 132.537 -4.21597 2.74344 0
M  V30 1402 H 132.237 -3.82978 4.45648 0
M  V30 1403 H 133.761 -4.63101 3.97957 0
M  V30 1404 H 135.175 -2.64693 5.08538 0
M  V30 1405 H 133.572 -2.07413 5.63116 0
M  V30 1406 H 134.642 -0.967677 4.75146 0
M  V30 1407 N 135.985 -1.50799 -0.457987 0
M  V30 1408 C 136.932 -1.70617 -1.5543 0
M  V30 1409 C 137.902 -0.547562 -1.56815 0
M  V30 1410 O 139.087 -0.779647 -1.74144 0
M  V30 1411 C 136.227 -1.81831 -2.93311 0
M  V30 1412 C 135.34 -3.09278 -3.01615 0
M  V30 1413 C 134.475 -3.11209 -4.30491 0
M  V30 1414 C 133.514 -4.33055 -4.32585 0
M  V30 1415 N 132.651 -4.32652 -5.52952 0
M  V30 1416 H 137.491 -2.64207 -1.37836 0
M  V30 1417 H 135.028 -1.30959 -0.669937 0
M  V30 1418 H 136.986 -1.86314 -3.73287 0
M  V30 1419 H 135.616 -0.916685 -3.0951 0
M  V30 1420 H 134.668 -3.14203 -2.1443 0
M  V30 1421 H 135.98 -3.99233 -2.99022 0
M  V30 1422 H 135.134 -3.14494 -5.18824 0
M  V30 1423 H 133.873 -2.19106 -4.35711 0
M  V30 1424 H 132.878 -4.29969 -3.42647 0
M  V30 1425 H 134.103 -5.264 -4.29046 0
M  V30 1426 H 132.049 -3.43409 -5.58933 0
M  V30 1427 H 131.966 -5.16392 -5.52155 0
M  V30 1428 H 133.234 -4.40101 -6.43375 0
M  V30 1429 N 137.463 0.71206 -1.40597 0
M  V30 1430 C 138.411 1.84746 -1.41321 0
M  V30 1431 C 139.405 1.66842 -0.293268 0
M  V30 1432 O 140.611 1.73904 -0.464481 0
M  V30 1433 H 136.986 0.608522 -0.441819 0
M  V30 1434 H 138.957 1.81252 -2.37045 0
M  V30 1435 C 137.706 3.22638 -1.29614 0
M  V30 1436 H 137.029 3.37023 -2.15071 0
M  V30 1437 H 138.469 4.02209 -1.3418 0
M  V30 1438 C 136.928 3.36899 -0.00673121 0
M  V30 1439 O 137.458 3.90186 0.954859 0
M  V30 1440 N 135.664 2.9053 0.0639327 0
M  V30 1441 H 135.211 2.47353 -0.719311 0
M  V30 1442 H 135.169 3.0045 0.926118 0
M  V30 1443 N 138.941 1.26152 0.944643 0
M  V30 1444 C 139.904 1.07474 2.0244 0
M  V30 1445 C 140.904 0.0242064 1.60782 0
M  V30 1446 O 142.094 0.267302 1.72137 0
M  V30 1447 C 139.226 0.633956 3.34953 0
M  V30 1448 H 140.419 2.03336 2.20442 0
M  V30 1449 H 137.972 1.087 1.12312 0
M  V30 1450 H 138.707 -0.326811 3.22649 0
M  V30 1451 H 138.492 1.39247 3.66542 0
M  V30 1452 H 139.982 0.52501 4.14287 0
M  V30 1453 N 140.419 -1.14872 1.07899 0
M  V30 1454 C 141.366 -2.19791 0.704319 0
M  V30 1455 C 142.336 -1.63238 -0.306987 0
M  V30 1456 O 143.521 -1.8983 -0.192171 0
M  V30 1457 C 140.661 -3.44911 0.114244 0
M  V30 1458 C 139.774 -4.15637 1.1777 0
M  V30 1459 C 138.909 -5.28324 0.552037 0
M  V30 1460 C 137.948 -5.90875 1.59789 0
M  V30 1461 N 137.085 -6.95022 0.994404 0
M  V30 1462 H 141.925 -2.5119 1.60336 0
M  V30 1463 H 139.462 -1.23356 0.801352 0
M  V30 1464 H 141.42 -4.16477 -0.245544 0
M  V30 1465 H 140.05 -3.14011 -0.74813 0
M  V30 1466 H 139.102 -3.42512 1.65499 0
M  V30 1467 H 140.414 -4.5823 1.97046 0
M  V30 1468 H 139.568 -6.06538 0.1402 0
M  V30 1469 H 138.307 -4.86939 -0.272431 0
M  V30 1470 H 137.312 -5.11369 2.01945 0
M  V30 1471 H 138.537 -6.34337 2.42474 0
M  V30 1472 H 136.483 -6.55722 0.190939 0
M  V30 1473 H 136.4 -7.36073 1.72432 0
M  V30 1474 H 137.668 -7.77123 0.608253 0
M  V30 1475 N 141.898 -0.863906 -1.31812 0
M  V30 1476 C 143.146 -0.470904 -1.96537 0
M  V30 1477 C 143.467 0.978771 -1.68657 0
M  V30 1478 O 142.737 1.6853 -0.998717 0
M  V30 1479 H 141.317 -0.171148 -0.72713 0
M  V30 1480 H 143.979 -1.10236 -1.60729 0
M  V30 1481 H 143.075 -0.623616 -3.05806 0
M  V30 1482 N 143.376 1.44774 -0.622745 0
M  V30 1483 C 144.306 2.33382 0.0741861 0
M  V30 1484 C 145.287 1.47719 0.843387 0
M  V30 1485 O 146.472 1.76458 0.810934 0
M  V30 1486 C 143.602 3.30663 1.06204 0
M  V30 1487 C 142.556 4.26079 0.405037 0
M  V30 1488 C 141.882 5.13165 1.5022 0
M  V30 1489 C 143.182 5.1781 -0.683414 0
M  V30 1490 H 144.876 2.91905 -0.665713 0
M  V30 1491 H 142.422 1.40363 -0.321587 0
M  V30 1492 H 144.375 3.9153 1.55827 0
M  V30 1493 H 143.099 2.70331 1.83272 0
M  V30 1494 H 141.758 3.66532 -0.0704683 0
M  V30 1495 H 141.406 4.49191 2.26355 0
M  V30 1496 H 141.106 5.77812 1.06803 0
M  V30 1497 H 142.63 5.76902 2.00041 0
M  V30 1498 H 144.044 5.72661 -0.270631 0
M  V30 1499 H 142.441 5.91015 -1.04023 0
M  V30 1500 H 143.511 4.59326 -1.55395 0
M  V30 1501 N 144.854 0.36279 1.53368 0
M  V30 1502 C 146.079 -0.231226 2.06107 0
M  V30 1503 C 146.504 -1.419 1.23474 0
M  V30 1504 O 145.862 -1.79524 0.253128 0
M  V30 1505 C 145.91 -0.605523 3.5548 0
M  V30 1506 O 145.014 -1.70312 3.7559 0
M  V30 1507 H 144.355 -0.034327 0.663112 0
M  V30 1508 H 146.885 0.522584 1.97814 0
M  V30 1509 H 146.895 -0.877314 3.98456 0
M  V30 1510 H 145.57 0.263004 4.15068 0
M  V30 1511 H 144.147 -1.4271 3.44512 0
M  V30 1512 N 146.332 -1.57332 0.0918853 0
M  V30 1513 C 147.28 -2.15075 -0.885747 0
M  V30 1514 C 148.274 -1.09277 -1.29441 0
M  V30 1515 O 149.48 -1.27627 -1.26931 0
M  V30 1516 H 145.855 -0.687966 -0.303656 0
M  V30 1517 H 147.826 -2.96047 -0.373995 0
M  V30 1518 C 146.575 -2.74325 -2.13638 0
M  V30 1519 H 145.898 -3.55418 -1.8308 0
M  V30 1520 H 147.338 -3.183 -2.80109 0
M  V30 1521 C 145.797 -1.70062 -2.90827 0
M  V30 1522 O 146.327 -1.13763 -3.85254 0
M  V30 1523 N 144.533 -1.40628 -2.54307 0
M  V30 1524 H 144.08 -1.866 -1.7759 0
M  V30 1525 H 144.038 -0.711043 -3.06254 0
M  V30 1526 N 147.81 0.181792 -1.56548 0
M  V30 1527 C 148.72 1.24538 -1.98815 0
M  V30 1528 C 149.736 1.49045 -0.897861 0
M  V30 1529 O 150.912 1.61399 -1.20467 0
M  V30 1530 C 147.977 2.56683 -2.33055 0
M  V30 1531 C 147.038 2.40131 -3.55859 0
M  V30 1532 C 146.271 3.65975 -3.88456 0
M  V30 1533 O 146.494 4.70711 -3.22161 0
M  V30 1534 O 145.428 3.6071 -4.81842 0
M  V30 1535 H 149.254 0.916647 -2.89536 0
M  V30 1536 H 146.839 0.387842 -1.44278 0
M  V30 1537 H 148.721 3.34655 -2.56094 0
M  V30 1538 H 147.396 2.89157 -1.45498 0
M  V30 1539 H 146.303 1.60226 -3.38051 0
M  V30 1540 H 147.636 2.12585 -4.43924 0
M  V30 1541 N 149.288 1.51039 0.449983 0
M  V30 1542 C 150.513 1.6715 1.22783 0
M  V30 1543 C 150.938 0.363081 1.84563 0
M  V30 1544 O 150.296 -0.675433 1.68249 0
M  V30 1545 C 150.344 2.77985 2.29689 0
M  V30 1546 O 149.448 2.40707 3.34864 0
M  V30 1547 H 148.789 0.557746 0.360299 0
M  V30 1548 H 151.319 1.97535 0.533005 0
M  V30 1549 H 151.329 3.01693 2.74673 0
M  V30 1550 H 150.004 3.72935 1.84098 0
M  V30 1551 H 148.581 2.27523 2.95445 0
M  V30 1552 N 150.766 -0.704594 1.40972 0
M  V30 1553 C 152.012 -1.46675 1.40051 0
M  V30 1554 C 152.345 -1.94199 0.00641102 0
M  V30 1555 O 151.62 -1.68916 -0.964235 0
M  V30 1556 C 151.903 -2.68505 2.39952 0
M  V30 1557 C 151.756 -2.26805 3.88432 0
M  V30 1558 C 153.075 -3.70686 2.37233 0
M  V30 1559 H 150.194 -0.532015 0.510028 0
M  V30 1560 H 152.836 -0.803255 1.72185 0
M  V30 1561 H 150.986 -3.25114 2.1268 0
M  V30 1562 H 152.658 -1.75592 4.26574 0
M  V30 1563 H 150.901 -1.58685 4.03734 0
M  V30 1564 H 151.572 -3.14181 4.53866 0
M  V30 1565 H 154.048 -3.23731 2.61415 0
M  V30 1566 H 152.924 -4.53553 3.09162 0
M  V30 1567 H 153.185 -4.19754 1.38777 0
M  V30 1568 N 152.244 -1.26651 -0.937939 0
M  V30 1569 C 153.192 -1.08308 -2.05845 0
M  V30 1570 C 154.186 -0.0090757 -1.69398 0
M  V30 1571 O 155.392 -0.166007 -1.79233 0
M  V30 1572 H 151.767 -0.333416 -0.674046 0
M  V30 1573 H 153.738 -2.03261 -2.18467 0
M  V30 1574 C 152.487 -0.736229 -3.39816 0
M  V30 1575 H 151.81 -1.55453 -3.6834 0
M  V30 1576 H 153.25 -0.64769 -4.19024 0
M  V30 1577 C 151.709 0.558824 -3.32233 0
M  V30 1578 O 152.239 1.59621 -3.68624 0
M  V30 1579 N 150.445 0.550657 -2.85335 0
M  V30 1580 H 149.992 -0.293943 -2.55917 0
M  V30 1581 H 149.95 1.41726 -2.80644 0
M  V30 1582 N 153.722 1.14298 -1.08507 0
M  V30 1583 C 154.652 2.21542 -0.737646 0
M  V30 1584 C 155.633 1.67773 0.280377 0
M  V30 1585 O 156.818 1.93616 0.150521 0
M  V30 1586 C 153.948 3.46988 -0.147259 0
M  V30 1587 C 152.902 4.13789 -1.09374 0
M  V30 1588 C 152.228 5.33449 -0.365524 0
M  V30 1589 C 153.528 4.62208 -2.4323 0
M  V30 1590 H 155.222 2.5086 -1.6343 0
M  V30 1591 H 152.768 1.20576 -0.787243 0
M  V30 1592 H 154.721 4.21262 0.107808 0
M  V30 1593 H 153.445 3.17037 0.784538 0
M  V30 1594 H 152.104 3.4147 -1.33393 0
M  V30 1595 H 151.752 4.99759 0.57011 0
M  V30 1596 H 151.452 5.79088 -0.996512 0
M  V30 1597 H 152.976 6.10485 -0.118534 0
M  V30 1598 H 154.39 5.27952 -2.23472 0
M  V30 1599 H 152.787 5.18553 -3.02031 0
M  V30 1600 H 153.857 3.77224 -3.04681 0
M  V30 1601 N 155.201 0.870884 1.31352 0
M  V30 1602 C 156.131 0.343096 2.30966 0
M  V30 1603 C 157.112 -0.566507 1.60389 0
M  V30 1604 O 158.297 -0.483336 1.88089 0
M  V30 1605 C 155.427 -0.455487 3.443 0
M  V30 1606 C 154.381 0.361103 4.26474 0
M  V30 1607 C 153.707 -0.563221 5.31725 0
M  V30 1608 C 155.007 1.59566 4.97329 0
M  V30 1609 H 156.701 1.17548 2.75359 0
M  V30 1610 H 154.247 0.566686 1.32381 0
M  V30 1611 H 156.2 -0.83525 4.13039 0
M  V30 1612 H 154.924 -1.32139 2.98675 0
M  V30 1613 H 153.583 0.722825 3.59403 0
M  V30 1614 H 153.231 -1.42643 4.82351 0
M  V30 1615 H 152.931 -0.0207409 5.87596 0
M  V30 1616 H 154.455 -0.939808 6.03324 0
M  V30 1617 H 155.869 1.28728 5.58661 0
M  V30 1618 H 154.266 2.07728 5.63 0
M  V30 1619 H 155.336 2.34798 4.24262 0
M  V30 1620 N 156.679 -1.44442 0.630414 0
M  V30 1621 C 157.626 -2.30678 -0.0749355 0
M  V30 1622 C 158.596 -1.4344 -0.837502 0
M  V30 1623 O 159.781 -1.72343 -0.818684 0
M  V30 1624 C 156.921 -3.28706 -1.05103 0
M  V30 1625 C 156.034 -4.31046 -0.286954 0
M  V30 1626 C 155.169 -5.16167 -1.2548 0
M  V30 1627 C 154.208 -6.10216 -0.479843 0
M  V30 1628 N 153.345 -6.88039 -1.39811 0
M  V30 1629 H 158.185 -2.90454 0.666386 0
M  V30 1630 H 155.722 -1.43107 0.340404 0
M  V30 1631 H 157.68 -3.84027 -1.63031 0
M  V30 1632 H 156.31 -2.70632 -1.75949 0
M  V30 1633 H 155.362 -3.78203 0.408243 0
M  V30 1634 H 156.674 -4.97794 0.316657 0
M  V30 1635 H 155.828 -5.76002 -1.90544 0
M  V30 1636 H 154.567 -4.49491 -1.89233 0
M  V30 1637 H 153.572 -5.49491 0.184295 0
M  V30 1638 H 154.797 -6.78928 0.152965 0
M  V30 1639 H 152.743 -6.24032 -2.02287 0
M  V30 1640 H 152.66 -7.51223 -0.848508 0
M  V30 1641 H 153.928 -7.52397 -2.03762 0
M  V30 1642 N 158.157 -0.370918 -1.53173 0
M  V30 1643 C 159.382 0.220293 -2.06227 0
M  V30 1644 C 159.807 1.41243 -1.24225 0
M  V30 1645 O 159.165 1.79387 -0.262645 0
M  V30 1646 C 159.213 0.586663 -3.55796 0
M  V30 1647 O 158.317 1.68317 -3.76488 0
M  V30 1648 H 157.658 0.0308099 -0.663285 0
M  V30 1649 H 160.188 -0.533068 -1.97534 0
M  V30 1650 H 160.198 0.85617 -3.98916 0
M  V30 1651 H 158.873 -0.285013 -4.14922 0
M  V30 1652 H 157.45 1.40881 -3.45264 0
M  V30 1653 N 159.635 1.57281 -0.100228 0
M  V30 1654 C 161.051 1.57527 0.256416 0
M  V30 1655 C 161.251 1.11173 1.68056 0
M  V30 1656 O 160.307 0.79053 2.39806 0
M  V30 1657 C 161.62 3.00673 0.0401747 0
M  V30 1658 C 163.168 3.12815 0.107528 0
M  V30 1659 C 163.643 4.57929 -0.0807834 0
M  V30 1660 N 165.134 4.63193 -0.0261207 0
M  V30 1661 C 165.869 5.73212 -0.146999 0
M  V30 1662 N 165.365 6.92047 -0.322999 0
M  V30 1663 N 167.158 5.62031 -0.0879044 0
M  V30 1664 H 159.309 1.85718 -1.03065 0
M  V30 1665 H 161.572 0.857446 -0.404339 0
M  V30 1666 H 161.278 3.38804 -0.943649 0
M  V30 1667 H 161.152 3.69042 0.780262 0
M  V30 1668 H 163.539 2.74554 1.08186 0
M  V30 1669 H 163.62 2.47028 -0.664134 0
M  V30 1670 H 163.264 4.96886 -1.05201 0
M  V30 1671 H 163.194 5.21783 0.710635 0
M  V30 1672 H 165.685 3.77748 0.107161 0
M  V30 1673 H 165.998 7.7173 -0.406608 0
M  V30 1674 H 164.343 6.94074 -0.358733 0
M  V30 1675 H 167.534 4.68075 0.048498 0
M  V30 1676 H 167.707 6.47734 -0.185557 0
M  V30 1677 N 161.113 -0.173488 1.56642 0
M  V30 1678 C 162.043 -1.2171 1.99271 0
M  V30 1679 C 163.024 -1.46289 0.867959 0
M  V30 1680 O 164.209 -1.5766 1.13388 0
M  V30 1681 C 161.339 -2.55651 2.35074 0
M  V30 1682 C 160.293 -2.45645 3.50489 0
M  V30 1683 C 159.619 -3.84056 3.72028 0
M  V30 1684 C 160.919 -1.96302 4.84007 0
M  V30 1685 H 162.613 -0.86275 2.867 0
M  V30 1686 H 160.159 -0.413571 1.37933 0
M  V30 1687 H 162.112 -3.2886 2.63494 0
M  V30 1688 H 160.836 -2.92869 1.44552 0
M  V30 1689 H 159.495 -1.7489 3.22194 0
M  V30 1690 H 159.143 -4.18664 2.788 0
M  V30 1691 H 158.843 -3.7823 4.49684 0
M  V30 1692 H 160.367 -4.58854 4.02846 0
M  V30 1693 H 161.781 -2.59284 5.11317 0
M  V30 1694 H 160.178 -2.01429 5.65284 0
M  V30 1695 H 161.248 -0.917226 4.76146 0
M  V30 1696 N 162.591 -1.51276 -0.441967 0
M  V30 1697 C 163.501 -1.75092 -1.56141 0
M  V30 1698 C 164.517 -0.634963 -1.62001 0
M  V30 1699 O 165.693 -0.916686 -1.79329 0
M  V30 1700 C 162.758 -1.86666 -2.92158 0
M  V30 1701 C 161.819 -3.10506 -2.96453 0
M  V30 1702 C 161.052 -3.21519 -4.25982 0
M  V30 1703 O 161.275 -2.38586 -5.18105 0
M  V30 1704 O 160.209 -4.14465 -4.36466 0
M  V30 1705 H 164.035 -2.70044 -1.38961 0
M  V30 1706 H 161.62 -1.35722 -0.624499 0
M  V30 1707 H 163.502 -1.96292 -3.72891 0
M  V30 1708 H 162.177 -0.949014 -3.09476 0
M  V30 1709 H 161.084 -3.06363 -2.14692 0
M  V30 1710 H 162.417 -4.01945 -2.84079 0
M  V30 1711 N 164.069 0.697108 -1.41344 0
M  V30 1712 C 164.979 1.84088 -1.45427 0
M  V30 1713 C 165.995 1.70545 -0.34501 0
M  V30 1714 O 167.171 1.92488 -0.592492 0
M  V30 1715 C 164.236 3.20056 -1.33286 0
M  V30 1716 C 163.297 3.45718 -2.54514 0
M  V30 1717 C 162.53 4.75199 -2.42944 0
M  V30 1718 O 162.753 5.51579 -1.45318 0
M  V30 1719 O 161.687 5.0161 -3.32672 0
M  V30 1720 H 165.513 1.836 -2.41919 0
M  V30 1721 H 163.098 0.849966 -1.22866 0
M  V30 1722 H 164.98 4.01236 -1.28794 0
M  V30 1723 H 163.655 3.2123 -0.39909 0
M  V30 1724 H 162.562 2.64474 -2.64583 0
M  V30 1725 H 163.895 3.49356 -3.46715 0
M  V30 1726 N 165.547 1.27147 0.931209 0
M  V30 1727 C 166.477 1.12081 2.04842 0
M  V30 1728 C 167.458 0.0232364 1.70084 0
M  V30 1729 O 168.643 0.197085 1.93197 0
M  V30 1730 C 165.773 0.76354 3.38803 0
M  V30 1731 C 164.727 1.81396 3.87659 0
M  V30 1732 C 164.053 1.31075 5.18385 0
M  V30 1733 C 165.353 3.21739 4.11438 0
M  V30 1734 H 167.047 2.05537 2.17703 0
M  V30 1735 H 164.593 0.989603 1.04608 0
M  V30 1736 H 166.546 0.644982 4.16435 0
M  V30 1737 H 165.27 -0.206727 3.25945 0
M  V30 1738 H 163.929 1.92136 3.12217 0
M  V30 1739 H 163.577 0.330037 5.01916 0
M  V30 1740 H 163.277 2.013 5.52044 0
M  V30 1741 H 164.801 1.20506 5.98591 0
M  V30 1742 H 166.215 3.14019 4.79651 0
M  V30 1743 H 164.612 3.89644 4.56397 0
M  V30 1744 H 165.682 3.67054 3.16859 0
M  V30 1745 N 167.025 -1.13721 1.09112 0
M  V30 1746 C 167.988 -2.17222 0.731241 0
M  V30 1747 C 168.988 -1.59035 -0.237566 0
M  V30 1748 O 170.178 -1.74192 -0.0161704 0
M  V30 1749 C 167.31 -3.40804 0.0808443 0
M  V30 1750 H 168.503 -2.50573 1.64783 0
M  V30 1751 H 166.056 -1.28493 0.889897 0
M  V30 1752 H 166.791 -3.1304 -0.847127 0
M  V30 1753 H 166.576 -3.84306 0.777896 0
M  V30 1754 H 168.066 -4.1731 -0.155657 0
M  V30 1755 N 168.503 -0.877838 -1.30888 0
M  V30 1756 C 169.45 -0.337538 -2.28318 0
M  V30 1757 C 170.42 0.568346 -1.56074 0
M  V30 1758 O 171.605 0.498298 -1.84178 0
M  V30 1759 C 168.745 0.448142 -3.42178 0
M  V30 1760 C 167.858 -0.48615 -4.29256 0
M  V30 1761 C 166.993 0.314427 -5.30269 0
M  V30 1762 C 166.032 -0.615791 -6.08995 0
M  V30 1763 N 165.169 0.14902 -7.01942 0
M  V30 1764 H 170.009 -1.17356 -2.73919 0
M  V30 1765 H 167.546 -0.590094 -1.34745 0
M  V30 1766 H 169.504 0.919517 -4.06941 0
M  V30 1767 H 168.134 1.24879 -2.97666 0
M  V30 1768 H 167.186 -1.076 -3.64865 0
M  V30 1769 H 168.498 -1.19909 -4.84173 0
M  V30 1770 H 167.652 0.847969 -6.00745 0
M  V30 1771 H 166.391 1.06062 -4.76027 0
M  V30 1772 H 165.396 -1.16102 -5.37401 0
M  V30 1773 H 166.621 -1.36097 -6.65323 0
M  V30 1774 H 164.567 0.877884 -6.50099 0
M  V30 1775 H 164.484 -0.504433 -7.54315 0
M  V30 1776 H 165.752 0.663537 -7.76671 0
M  V30 1777 N 169.982 1.44106 -0.638065 0
M  V30 1778 C 170.929 2.30715 0.062701 0
M  V30 1779 C 171.899 1.43882 0.829883 0
M  V30 1780 O 173.084 1.72775 0.809532 0
M  V30 1781 C 170.224 3.29258 1.03358 0
M  V30 1782 C 169.337 4.31192 0.26409 0
M  V30 1783 C 168.472 5.16825 1.22741 0
M  V30 1784 C 167.511 6.10462 0.447475 0
M  V30 1785 N 166.648 6.8877 1.36161 0
M  V30 1786 H 171.488 2.90096 -0.681781 0
M  V30 1787 H 169.025 1.42925 -0.347988 0
M  V30 1788 H 170.983 3.84886 1.60992 0
M  V30 1789 H 169.613 2.71562 1.74511 0
M  V30 1790 H 168.665 3.77981 -0.428295 0
M  V30 1791 H 169.977 4.97619 -0.343052 0
M  V30 1792 H 169.131 5.77004 1.87487 0
M  V30 1793 H 167.87 4.50488 1.86847 0
M  V30 1794 H 166.875 5.49386 -0.213433 0
M  V30 1795 H 168.1 6.78837 -0.188968 0
M  V30 1796 H 166.046 6.25096 1.98975 0
M  V30 1797 H 165.963 7.51663 0.808656 0
M  V30 1798 H 167.231 7.53467 1.99769 0
M  V30 1799 N 171.46 0.379036 1.52974 0
M  V30 1800 C 172.41 -0.477772 2.22938 0
M  V30 1801 C 173.394 -1.03792 1.22948 0
M  V30 1802 O 174.586 -0.965725 1.48333 0
M  V30 1803 C 171.715 -1.60994 3.03209 0
M  V30 1804 C 170.801 -1.06203 4.10587 0
M  V30 1805 N 171.192 -0.238214 5.05239 0
M  V30 1806 C 169.49 -1.33554 4.25534 0
M  V30 1807 C 170.191 0.0633235 5.81666 0
M  V30 1808 N 169.167 -0.537901 5.40932 0
M  V30 1809 H 172.969 0.158295 2.93473 0
M  V30 1810 H 170.483 0.187778 1.61311 0
M  V30 1811 H 172.48 -2.23607 3.5186 0
M  V30 1812 H 171.14 -2.24893 2.34207 0
M  V30 1813 H 172.151 0.123695 5.17752 0
M  V30 1814 H 168.828 -1.97632 3.6776 0
M  V30 1815 H 170.218 0.730161 6.67921 0
M  V30 1816 N 172.938 -1.57226 0.108567 0
M  V30 1817 C 174.178 -1.96717 -0.555155 0
M  V30 1818 C 174.542 -0.990003 -1.64508 0
M  V30 1819 O 175.743 -1.2739 -2.36696 0
M  V30 1820 C 174.014 -3.40575 -1.08367 0
M  V30 1821 S 175.573 -4.02072 -1.75737 0
M  V30 1822 H 172.391 -0.687638 -0.180762 0
M  V30 1823 H 174.993 -1.94563 0.191172 0
M  V30 1824 H 173.697 -4.0945 -0.279092 0
M  V30 1825 H 173.228 -3.46356 -1.86551 0
M  V30 1826 H 175.243 -3.91977 -3.04251 0
M  V30 1827 N 174.416 0.165178 -1.56732 0
M  V30 1828 C 175.664 0.879068 -1.8198 0
M  V30 1829 C 175.985 1.82514 -0.686561 0
M  V30 1830 O 175.255 1.93694 0.293146 0
M  V30 1831 H 173.835 0.327608 -0.671329 0
M  V30 1832 H 176.497 0.163526 -1.94213 0
M  V30 1833 H 175.593 1.45228 -2.76252 0
M  V30 1834 N 175.894 1.51508 0.433938 0
M  V30 1835 C 176.804 1.75917 1.5521 0
M  V30 1836 C 177.82 0.643545 1.61662 0
M  V30 1837 O 178.996 0.926183 1.7884 0
M  V30 1838 C 176.061 1.88213 2.91164 0
M  V30 1839 C 175.122 3.12074 2.94802 0
M  V30 1840 C 174.355 3.23774 4.24271 0
M  V30 1841 O 174.578 2.4133 5.16833 0
M  V30 1842 O 173.512 4.16774 4.34262 0
M  V30 1843 H 177.338 2.70777 1.37527 0
M  V30 1844 H 174.923 1.36051 0.617293 0
M  V30 1845 H 176.805 1.98267 3.71845 0
M  V30 1846 H 175.48 0.965413 3.08968 0
M  V30 1847 H 174.387 3.07497 2.13065 0
M  V30 1848 H 175.72 4.03446 2.81943 0
M  V30 1849 N 177.372 -0.689602 1.41712 0
M  V30 1850 C 178.618 -1.45181 1.41599 0
M  V30 1851 C 178.951 -1.94181 0.0270081 0
M  V30 1852 O 178.226 -1.6993 -0.946265 0
M  V30 1853 C 178.509 -2.65945 2.42787 0
M  V30 1854 C 178.362 -2.22672 3.90816 0
M  V30 1855 C 179.681 -3.68149 2.41151 0
M  V30 1856 H 176.8 -0.526576 0.515642 0
M  V30 1857 H 179.442 -0.784947 1.73028 0
M  V30 1858 H 177.592 -3.2284 2.16116 0
M  V30 1859 H 179.264 -1.71058 4.28412 0
M  V30 1860 H 177.507 -1.54394 4.05395 0
M  V30 1861 H 178.178 -3.0935 4.57172 0
M  V30 1862 H 180.654 -3.2094 2.64834 0
M  V30 1863 H 179.53 -4.50248 3.13955 0
M  V30 1864 H 179.791 -4.18259 1.43221 0
M  V30 1865 N 178.85 -1.27639 -0.924453 0
M  V30 1866 C 179.783 -1.04966 -2.02626 0
M  V30 1867 C 180.761 0.0309505 -1.62571 0
M  V30 1868 O 181.945 -0.114846 -1.8815 0
M  V30 1869 C 179.072 -0.59292 -3.3347 0
M  V30 1870 C 178.118 -1.66858 -3.92506 0
M  V30 1871 S 178.951 -3.2619 -4.24689 0
M  V30 1872 C 180.107 -2.82325 -5.58609 0
M  V30 1873 H 180.34 -1.98252 -2.21547 0
M  V30 1874 H 177.873 -1.11506 -1.06798 0
M  V30 1875 H 179.831 -0.336086 -4.09122 0
M  V30 1876 H 178.492 0.319939 -3.12466 0
M  V30 1877 H 177.685 -1.30038 -4.86935 0
M  V30 1878 H 177.287 -1.87766 -3.2345 0
M  V30 1879 H 179.579 -2.2783 -6.38044 0
M  V30 1880 H 180.522 -3.75511 -6.00331 0
M  V30 1881 H 180.93 -2.21367 -5.19285 0
M  V30 1882 N 180.328 1.1314 -1.09713 0
M  V30 1883 C 181.577 1.83838 -0.829851 0
M  V30 1884 C 181.89 1.84599 0.646728 0
M  V30 1885 O 183.096 2.51218 1.02965 0
M  V30 1886 C 181.552 3.30069 -1.43466 0
M  V30 1887 C 181.16 3.37688 -2.94399 0
M  V30 1888 C 182.904 4.05788 -1.24645 0
M  V30 1889 C 180.811 4.78209 -3.47952 0
M  V30 1890 H 179.741 0.68877 -0.306777 0
M  V30 1891 H 182.392 1.27448 -1.3202 0
M  V30 1892 H 180.774 3.8628 -0.871996 0
M  V30 1893 H 181.948 2.91456 -3.56918 0
M  V30 1894 H 180.263 2.75436 -3.12289 0
M  V30 1895 H 182.86 5.09535 -1.62107 0
M  V30 1896 H 183.203 4.15878 -0.187357 0
M  V30 1897 H 183.736 3.55915 -1.77678 0
M  V30 1898 H 180.475 4.73311 -4.53495 0
M  V30 1899 H 179.995 5.24924 -2.90198 0
M  V30 1900 H 181.674 5.47133 -3.45332 0
M  V30 1901 N 181.806 0.884767 1.30421 0
M  V30 1902 C 183.053 0.503105 1.96151 0
M  V30 1903 C 183.381 -0.947676 1.69851 0
M  V30 1904 O 182.636 -1.68467 0.995861 0
M  V30 1905 C 182.935 0.724318 3.49983 0
M  V30 1906 C 182.601 2.15015 3.96332 0
M  V30 1907 C 181.263 2.54005 4.08699 0
M  V30 1908 C 183.615 3.07936 4.20505 0
M  V30 1909 C 180.943 3.85128 4.42599 0
M  V30 1910 C 183.295 4.3859 4.55874 0
M  V30 1911 C 181.959 4.77474 4.66449 0
M  V30 1912 H 181.229 0.184099 0.717766 0
M  V30 1913 H 183.876 1.12058 1.55291 0
M  V30 1914 H 182.181 0.0238086 3.91793 0
M  V30 1915 H 183.878 0.408617 3.98913 0
M  V30 1916 H 180.468 1.8375 3.87213 0
M  V30 1917 H 184.652 2.79033 4.10431 0
M  V30 1918 H 179.908 4.14996 4.48986 0
M  V30 1919 H 184.082 5.10629 4.7353 0
M  V30 1920 H 181.709 5.79115 4.92473 0
M  V30 1921 N 183.284 -1.43765 0.645699 0
M  V30 1922 C 184.194 -2.34544 -0.0512957 0
M  V30 1923 C 185.21 -1.53455 -0.82022 0
M  V30 1924 O 186.386 -1.86133 -0.769176 0
M  V30 1925 C 183.451 -3.31636 -1.01087 0
M  V30 1926 C 182.512 -4.2863 -0.239712 0
M  V30 1927 C 181.745 -5.21084 -1.15358 0
M  V30 1928 O 181.968 -5.1779 -2.39269 0
M  V30 1929 O 180.902 -5.98593 -0.630038 0
M  V30 1930 H 184.728 -2.95624 0.695718 0
M  V30 1931 H 182.313 -1.43781 0.405882 0
M  V30 1932 H 184.195 -3.9136 -1.56254 0
M  V30 1933 H 182.87 -2.73069 -1.73824 0
M  V30 1934 H 181.777 -3.72408 0.355356 0
M  V30 1935 H 183.11 -4.90157 0.447936 0
M  V30 1936 N 184.763 -0.387143 -1.52771 0
M  V30 1937 C 185.693 0.440551 -2.29306 0
M  V30 1938 C 186.674 1.06535 -1.32606 0
M  V30 1939 O 187.859 1.07853 -1.61497 0
M  V30 1940 C 184.989 1.56919 -3.09829 0
M  V30 1941 C 183.943 1.07054 -4.14395 0
M  V30 1942 C 183.269 2.29109 -4.83129 0
M  V30 1943 C 184.569 0.140015 -5.22112 0
M  V30 1944 H 186.263 -0.198026 -2.98744 0
M  V30 1945 H 183.809 -0.09668 -1.43675 0
M  V30 1946 H 185.762 2.15503 -3.62128 0
M  V30 1947 H 184.486 2.23532 -2.3812 0
M  V30 1948 H 183.145 0.507247 -3.63074 0
M  V30 1949 H 182.793 2.94227 -4.0797 0
M  V30 1950 H 182.493 1.96406 -5.53804 0
M  V30 1951 H 184.017 2.88339 -5.38231 0
M  V30 1952 H 185.431 0.633978 -5.69784 0
M  V30 1953 H 183.828 -0.0971485 -6.00021 0
M  V30 1954 H 184.898 -0.811711 -4.78058 0
M  V30 1955 N 186.241 1.57166 -0.116904 0
M  V30 1956 C 187.204 2.14039 0.819742 0
M  V30 1957 C 188.204 1.07477 1.19605 0
M  V30 1958 O 189.394 1.33263 1.1219 0
M  V30 1959 C 186.526 2.67891 2.10826 0
M  V30 1960 H 187.719 2.98128 0.325511 0
M  V30 1961 H 185.272 1.55739 0.132312 0
M  V30 1962 H 186.007 1.87384 2.64685 0
M  V30 1963 H 185.792 3.45823 1.84793 0
M  V30 1964 H 187.282 3.11809 2.77785 0
M  V30 1965 N 187.719 -0.156864 1.56817 0
M  V30 1966 C 188.949 -0.885031 1.86684 0
M  V30 1967 C 189.357 -1.75696 0.701954 0
M  V30 1968 O 188.7 -1.80569 -0.337732 0
M  V30 1969 C 188.762 -1.80092 3.11138 0
M  V30 1970 C 188.426 -1.10714 4.43386 0
M  V30 1971 C 189.423 -0.465714 5.1781 0
M  V30 1972 C 187.108 -1.09959 4.90117 0
M  V30 1973 C 189.102 0.174002 6.37162 0
M  V30 1974 C 186.789 -0.456055 6.09396 0
M  V30 1975 C 187.787 0.179622 6.82764 0
M  V30 1976 O 187.475 0.812975 7.99779 0
M  V30 1977 H 187.207 -0.261813 0.623242 0
M  V30 1978 H 189.761 -0.157383 2.04796 0
M  V30 1979 H 187.991 -2.56926 2.89009 0
M  V30 1980 H 189.68 -2.40018 3.27332 0
M  V30 1981 H 190.446 -0.463427 4.82781 0
M  V30 1982 H 186.325 -1.58378 4.3294 0
M  V30 1983 H 189.869 0.670765 6.94368 0
M  V30 1984 H 185.766 -0.455975 6.43888 0
M  V30 1985 H 186.534 0.71366 8.15383 0
M  V30 1986 N 189.197 -1.51736 -0.425897 0
M  V30 1987 C 190.147 -1.70258 -1.51645 0
M  V30 1988 C 191.131 -0.556488 -1.5097 0
M  V30 1989 O 192.323 -0.812879 -1.5723 0
M  V30 1990 C 189.452 -1.84143 -2.89735 0
M  V30 1991 C 188.538 -3.04572 -2.95122 0
M  V30 1992 N 188.929 -4.2756 -2.70233 0
M  V30 1993 C 187.227 -3.04061 -3.26286 0
M  V30 1994 C 187.928 -5.08908 -2.81757 0
M  V30 1995 N 186.904 -4.43797 -3.13919 0
M  V30 1996 H 190.706 -2.63004 -1.31172 0
M  V30 1997 H 188.22 -1.4954 -0.633375 0
M  V30 1998 H 190.217 -1.95525 -3.68206 0
M  V30 1999 H 188.877 -0.925857 -3.1122 0
M  V30 2000 H 189.888 -4.56315 -2.44943 0
M  V30 2001 H 186.565 -2.22179 -3.53473 0
M  V30 2002 H 187.955 -6.16843 -2.66372 0
M  V30 2003 N 190.675 0.682077 -1.42076 0
M  V30 2004 C 191.921 1.44428 -1.42367 0
M  V30 2005 C 192.254 1.94164 -0.0373056 0
M  V30 2006 O 191.529 1.70429 0.937239 0
M  V30 2007 C 191.812 2.64654 -2.44194 0
M  V30 2008 C 191.665 2.20596 -3.91991 0
M  V30 2009 C 192.984 3.66865 -2.431 0
M  V30 2010 H 190.103 0.523834 -0.518428 0
M  V30 2011 H 192.745 0.77576 -1.73442 0
M  V30 2012 H 190.895 3.2169 -2.17826 0
M  V30 2013 H 192.567 1.68783 -4.29313 0
M  V30 2014 H 190.81 1.52242 -4.06208 0
M  V30 2015 H 191.481 3.06921 -4.58807 0
M  V30 2016 H 193.957 3.19531 -2.66532 0
M  V30 2017 H 192.833 4.48577 -3.16339 0
M  V30 2018 H 193.094 4.17493 -1.45437 0
M  V30 2019 N 192.153 1.28127 0.917671 0
M  V30 2020 C 193.085 1.07517 2.02417 0
M  V30 2021 C 194.098 0.0281099 1.62776 0
M  V30 2022 O 195.287 0.270748 1.76435 0
M  V30 2023 C 192.387 0.610957 3.33347 0
M  V30 2024 C 191.56 1.73255 4.01624 0
M  V30 2025 C 190.619 1.26238 5.10833 0
M  V30 2026 O 189.645 1.96389 5.34247 0
M  V30 2027 N 190.847 0.123448 5.80369 0
M  V30 2028 H 193.612 2.02806 2.20658 0
M  V30 2029 H 191.173 1.19827 1.08871 0
M  V30 2030 H 193.165 0.280101 4.0373 0
M  V30 2031 H 191.735 -0.24898 3.11607 0
M  V30 2032 H 190.955 2.23319 3.24842 0
M  V30 2033 H 192.243 2.48503 4.43986 0
M  V30 2034 H 191.641 -0.461847 5.63812 0
M  V30 2035 H 190.198 -0.148158 6.51632 0
M  V30 2036 N 193.631 -1.12557 1.10312 0
M  V30 2037 C 194.856 -1.88405 0.867085 0
M  V30 2038 C 195.281 -1.79038 -0.576817 0
M  V30 2039 O 194.639 -1.14439 -1.40618 0
M  V30 2040 C 194.687 -3.3563 1.31851 0
M  V30 2041 O 193.791 -4.09565 0.482734 0
M  V30 2042 H 193.132 -0.585455 0.313271 0
M  V30 2043 H 195.662 -1.42352 1.4696 0
M  V30 2044 H 195.672 -3.86469 1.3079 0
M  V30 2045 H 194.347 -3.41765 2.37001 0
M  V30 2046 H 192.924 -3.68695 0.558448 0
M  V30 2047 N 195.109 -0.891671 -1.2995 0
M  V30 2048 C 196.356 -0.513501 -1.95881 0
M  V30 2049 C 196.684 0.938655 -1.70351 0
M  V30 2050 O 195.939 1.67936 -1.00478 0
M  V30 2051 C 196.238 -0.742868 -3.49594 0
M  V30 2052 C 195.904 -2.17114 -3.95186 0
M  V30 2053 C 194.566 -2.56169 -4.07346 0
M  V30 2054 C 196.918 -3.10162 -4.18866 0
M  V30 2055 C 194.246 -3.87469 -4.4055 0
M  V30 2056 C 196.598 -4.41001 -4.53542 0
M  V30 2057 C 195.262 -4.79941 -4.63911 0
M  V30 2058 H 194.532 -0.187903 -0.71678 0
M  V30 2059 H 197.179 -1.1288 -1.54694 0
M  V30 2060 H 195.484 -0.044586 -3.91775 0
M  V30 2061 H 197.181 -0.429767 -3.9869 0
M  V30 2062 H 193.771 -1.85801 -3.86233 0
M  V30 2063 H 197.955 -2.81206 -4.08946 0
M  V30 2064 H 193.211 -4.17371 -4.46779 0
M  V30 2065 H 197.385 -5.13133 -4.70815 0
M  V30 2066 H 195.012 -5.81719 -4.89395 0
M  V30 2067 N 196.587 1.43421 -0.653314 0
M  V30 2068 C 197.517 2.33487 0.0246656 0
M  V30 2069 C 198.498 1.49475 0.811863 0
M  V30 2070 O 199.683 1.78139 0.773322 0
M  V30 2071 C 196.813 3.32841 0.99166 0
M  V30 2072 C 195.767 4.26842 0.314568 0
M  V30 2073 C 195.093 5.16236 1.39302 0
M  V30 2074 C 196.393 5.16243 -0.793095 0
M  V30 2075 H 198.087 2.90427 -0.727481 0
M  V30 2076 H 195.633 1.39649 -0.351287 0
M  V30 2077 H 197.586 3.94747 1.47487 0
M  V30 2078 H 196.31 2.74158 1.77497 0
M  V30 2079 H 194.969 3.663 -0.148199 0
M  V30 2080 H 194.617 4.53891 2.16776 0
M  V30 2081 H 194.317 5.79948 0.945223 0
M  V30 2082 H 195.841 5.81015 1.87759 0
M  V30 2083 H 197.255 5.71958 -0.392039 0
M  V30 2084 H 195.652 5.88676 -1.16536 0
M  V30 2085 H 196.722 4.55927 -1.65103 0
M  V30 2086 N 198.065 0.39524 1.52563 0
M  V30 2087 C 199.29 -0.187456 2.06551 0
M  V30 2088 C 199.715 -1.39249 1.26457 0
M  V30 2089 O 199.073 -1.78947 0.291151 0
M  V30 2090 C 199.121 -0.529985 3.56684 0
M  V30 2091 O 198.225 -1.62307 3.79118 0
M  V30 2092 H 197.566 -0.0202537 0.663691 0
M  V30 2093 H 200.096 0.564426 1.96661 0
M  V30 2094 H 200.106 -0.792598 4.00227 0
M  V30 2095 H 198.781 0.350987 4.14416 0
M  V30 2096 H 197.358 -1.3537 3.47461 0
M  V30 2097 N 199.544 -1.57102 0.125237 0
M  V30 2098 C 200.454 -2.19191 -0.8362 0
M  V30 2099 C 201.47 -1.16985 -1.28805 0
M  V30 2100 O 202.646 -1.49479 -1.34974 0
M  V30 2101 C 199.711 -2.78407 -2.06617 0
M  V30 2102 C 198.772 -3.9567 -1.66565 0
M  V30 2103 C 198.005 -4.52052 -2.83698 0
M  V30 2104 O 198.228 -4.07326 -3.99302 0
M  V30 2105 O 197.162 -5.42645 -2.60423 0
M  V30 2106 H 200.988 -3.01816 -0.337776 0
M  V30 2107 H 198.573 -1.4906 -0.100695 0
M  V30 2108 H 200.455 -3.16129 -2.7864 0
M  V30 2109 H 199.13 -1.9881 -2.55453 0
M  V30 2110 H 198.037 -3.62705 -0.916296 0
M  V30 2111 H 199.37 -4.76722 -1.22464 0
M  V30 2112 N 201.022 0.148545 -1.56898 0
M  V30 2113 C 201.972 1.1886 -1.94567 0
M  V30 2114 C 202.956 1.3863 -0.816735 0
M  V30 2115 O 204.148 1.40218 -1.08018 0
M  V30 2116 C 201.277 2.52262 -2.32849 0
M  V30 2117 C 200.363 2.36092 -3.52309 0
M  V30 2118 N 200.754 1.89674 -4.6889 0
M  V30 2119 C 199.052 2.66848 -3.57363 0
M  V30 2120 C 199.753 1.86511 -5.50989 0
M  V30 2121 N 198.729 2.29766 -4.92655 0
M  V30 2122 H 202.531 0.821793 -2.82177 0
M  V30 2123 H 200.045 0.356615 -1.58436 0
M  V30 2124 H 202.042 3.27447 -2.58039 0
M  V30 2125 H 200.702 2.89727 -1.46589 0
M  V30 2126 H 201.713 1.59663 -4.92674 0
M  V30 2127 H 198.39 3.08198 -2.81639 0
M  V30 2128 H 199.78 1.52128 -6.54452 0
M  V30 2129 N 202.5 1.5196 0.417844 0
M  V30 2130 C 203.448 1.75278 1.52907 0
M  V30 2131 C 204.442 0.619611 1.57662 0
M  V30 2132 O 205.648 0.801457 1.61173 0
M  V30 2133 H 202.023 0.554141 0.508362 0
M  V30 2134 H 203.994 2.68389 1.30422 0
M  V30 2135 C 202.743 1.91262 2.90369 0
M  V30 2136 H 202.066 2.77872 2.8745 0
M  V30 2137 H 203.506 2.11581 3.67436 0
M  V30 2138 C 201.965 0.677431 3.30019 0
M  V30 2139 O 202.495 -0.158799 4.01386 0
M  V30 2140 N 200.701 0.515851 2.85985 0
M  V30 2141 H 200.248 1.19744 2.28077 0
M  V30 2142 H 200.206 -0.309315 3.12875 0
M  V30 2143 N 203.978 -0.674533 1.42435 0
M  V30 2144 C 204.925 -1.78807 1.45934 0
M  V30 2145 C 205.895 -1.63157 0.311271 0
M  V30 2146 O 207.08 -1.83707 0.515383 0
M  V30 2147 C 204.22 -3.16839 1.36773 0
M  V30 2148 C 203.333 -3.43774 2.61617 0
M  V30 2149 C 202.468 -4.71536 2.44597 0
M  V30 2150 C 201.507 -4.91505 3.64814 0
M  V30 2151 N 200.644 -6.10508 3.46734 0
M  V30 2152 H 205.484 -1.75151 2.41093 0
M  V30 2153 H 203.021 -0.85504 1.19697 0
M  V30 2154 H 204.979 -3.96606 1.29459 0
M  V30 2155 H 203.609 -3.19619 0.452089 0
M  V30 2156 H 202.661 -2.58259 2.79297 0
M  V30 2157 H 203.973 -3.54423 3.50978 0
M  V30 2158 H 203.127 -5.59393 2.3487 0
M  V30 2159 H 201.866 -4.6317 1.52726 0
M  V30 2160 H 200.871 -4.0209 3.74972 0
M  V30 2161 H 202.096 -5.01716 4.57665 0
M  V30 2162 H 200.042 -6.03315 2.5758 0
M  V30 2163 H 199.959 -6.2202 4.29682 0
M  V30 2164 H 201.227 -7.01044 3.40819 0
M  V30 2165 N 205.456 -1.28612 -0.910864 0
M  V30 2166 C 206.867 -1.14406 -1.47541 0
M  V30 2167 C 207.218 0.264901 -1.94403 0
M  V30 2168 O 206.343 1.15942 -1.82719 0
M  V30 2169 C 206.938 -2.07073 -2.68153 0
M  V30 2170 C 205.497 -1.96923 -3.20778 0
M  V30 2171 C 204.644 -1.98646 -1.93481 0
M  V30 2172 H 207.595 -1.41259 -0.723291 0
M  V30 2173 H 207.616 -1.63642 -3.43514 0
M  V30 2174 H 207.128 -3.09611 -2.34015 0
M  V30 2175 H 205.229 -0.97433 -3.59635 0
M  V30 2176 H 205.342 -2.84026 -3.85832 0
M  V30 2177 H 203.706 -1.43093 -2.10705 0
M  V30 2178 H 204.489 -3.02868 -1.61634 0
M  V30 2179 N 206.934 1.1197 -1.10907 0
M  V30 2180 C 208.345 1.65114 -0.871446 0
M  V30 2181 C 208.696 1.86885 0.597353 0
M  V30 2182 O 207.821 1.59896 1.45816 0
M  V30 2183 C 208.416 2.99944 -1.5754 0
M  V30 2184 C 206.975 3.50018 -1.38435 0
M  V30 2185 C 206.122 2.24941 -1.62164 0
M  V30 2186 H 209.073 0.956851 -1.2661 0
M  V30 2187 H 209.094 3.66651 -1.01721 0
M  V30 2188 H 208.606 2.84067 -2.64438 0
M  V30 2189 H 206.707 3.71071 -0.337214 0
M  V30 2190 H 206.82 4.29165 -2.12965 0
M  V30 2191 H 205.184 2.3229 -1.04467 0
M  V30 2192 H 205.967 2.11612 -2.70324 0
M  V30 2193 N 208.412 0.89855 1.29475 0
M  V30 2194 C 209.823 0.572537 1.77705 0
M  V30 2195 C 210.174 -0.911778 1.73727 0
M  V30 2196 O 209.299 -1.71288 1.32247 0
M  V30 2197 C 209.894 1.03252 3.22683 0
M  V30 2198 C 208.453 0.757687 3.68695 0
M  V30 2199 C 207.6 1.20787 2.49612 0
M  V30 2200 H 210.551 1.08139 1.16153 0
M  V30 2201 H 210.572 0.367307 3.78723 0
M  V30 2202 H 210.084 2.11285 3.25546 0
M  V30 2203 H 208.185 -0.310079 3.71308 0
M  V30 2204 H 208.298 1.35476 4.59547 0
M  V30 2205 H 206.662 0.626888 2.46865 0
M  V30 2206 H 207.445 2.29622 2.55203 0
M  V30 2207 N 209.89 -1.43072 0.660911 0
M  V30 2208 C 210.837 -2.30785 -0.0259884 0
M  V30 2209 C 211.807 -1.45184 -0.806888 0
M  V30 2210 O 212.992 -1.74041 -0.781943 0
M  V30 2211 C 210.132 -3.30861 -0.981067 0
M  V30 2212 C 209.245 -4.31558 -0.195458 0
M  V30 2213 C 208.38 -5.18712 -1.14503 0
M  V30 2214 C 207.419 -6.11097 -0.350299 0
M  V30 2215 N 206.556 -6.90849 -1.25186 0
M  V30 2216 H 211.396 -2.88975 0.727846 0
M  V30 2217 H 208.933 -1.42353 0.370682 0
M  V30 2218 H 210.891 -3.87399 -1.54849 0
M  V30 2219 H 209.521 -2.74304 -1.70169 0
M  V30 2220 H 208.573 -3.77252 0.488374 0
M  V30 2221 H 209.885 -4.9701 0.422176 0
M  V30 2222 H 209.039 -5.79914 -1.78284 0
M  V30 2223 H 207.778 -4.53404 -1.79656 0
M  V30 2224 H 206.783 -5.48976 0.300808 0
M  V30 2225 H 208.008 -6.7845 0.296941 0
M  V30 2226 H 205.954 -6.28182 -1.89005 0
M  V30 2227 H 205.871 -7.52854 -0.688971 0
M  V30 2228 H 207.139 -7.5655 -1.87757 0
M  V30 2229 N 211.368 -0.403325 -1.52352 0
M  V30 2230 C 212.593 0.176499 -2.06648 0
M  V30 2231 C 213.018 1.38577 -1.27193 0
M  V30 2232 O 212.376 1.7879 -0.300637 0
M  V30 2233 C 212.424 0.511061 -3.5696 0
M  V30 2234 O 211.528 1.60294 -3.79973 0
M  V30 2235 H 210.869 0.0167337 -0.663789 0
M  V30 2236 H 213.399 -0.574848 -1.96359 0
M  V30 2237 H 213.409 0.771362 -4.00642 0
M  V30 2238 H 212.084 -0.37296 -4.14224 0
M  V30 2239 H 210.661 1.33526 -3.48174 0
M  V30 2240 N 212.846 1.57033 -0.133567 0
M  V30 2241 C 214.093 1.95686 0.520877 0
M  V30 2242 C 214.421 1.0177 1.6575 0
M  V30 2243 O 213.676 0.0443195 1.9565 0
M  V30 2244 C 213.975 3.40674 1.08057 0
M  V30 2245 C 213.641 4.50855 0.0637899 0
M  V30 2246 C 212.303 4.80716 -0.215757 0
M  V30 2247 C 214.655 5.17398 -0.62835 0
M  V30 2248 C 211.983 5.74433 -1.19348 0
M  V30 2249 C 214.335 6.12167 -1.5948 0
M  V30 2250 C 212.999 6.40414 -1.88218 0
M  V30 2251 H 212.269 0.716067 0.190602 0
M  V30 2252 H 214.916 1.9026 -0.217556 0
M  V30 2253 H 213.221 3.42865 1.89606 0
M  V30 2254 H 214.918 3.67902 1.59529 0
M  V30 2255 H 211.508 4.27605 0.291855 0
M  V30 2256 H 215.692 4.94472 -0.425562 0
M  V30 2257 H 210.948 5.94616 -1.42272 0
M  V30 2258 H 215.122 6.6281 -2.13671 0
M  V30 2259 H 212.749 7.12838 -2.64133 0
M  V30 2260 N 214.325 -0.140222 1.56975 0
M  V30 2261 C 215.275 -1.17827 1.95194 0
M  V30 2262 C 216.259 -1.38195 0.824075 0
M  V30 2263 O 217.451 -1.39643 1.0876 0
M  V30 2264 C 214.58 -2.51024 2.34184 0
M  V30 2265 C 213.666 -2.3422 3.53556 0
M  V30 2266 N 214.057 -1.87185 4.69889 0
M  V30 2267 C 212.355 -2.64949 3.58773 0
M  V30 2268 C 213.056 -1.83586 5.5197 0
M  V30 2269 N 212.032 -2.2715 4.93866 0
M  V30 2270 H 215.834 -0.806817 2.82609 0
M  V30 2271 H 213.348 -0.348208 1.58623 0
M  V30 2272 H 215.345 -3.26074 2.59772 0
M  V30 2273 H 214.005 -2.88945 1.48124 0
M  V30 2274 H 215.016 -1.57048 4.93514 0
M  V30 2275 H 211.693 -3.067 2.8327 0
M  V30 2276 H 213.083 -1.48655 6.55249 0
M  V30 2277 N 215.803 -1.52179 -0.40978 0
M  V30 2278 C 216.713 -1.78364 -1.52392 0
M  V30 2279 C 217.729 -0.669183 -1.60617 0
M  V30 2280 O 218.905 -0.954518 -1.77344 0
M  V30 2281 C 215.97 -1.92822 -2.88133 0
M  V30 2282 C 215.031 -3.16725 -2.898 0
M  V30 2283 C 214.264 -3.30483 -4.19067 0
M  V30 2284 O 214.487 -2.49522 -5.12928 0
M  V30 2285 O 213.421 -4.2363 -4.27576 0
M  V30 2286 H 217.247 -2.72931 -1.33201 0
M  V30 2287 H 214.832 -1.37016 -0.59557 0
M  V30 2288 H 216.714 -2.04157 -3.68643 0
M  V30 2289 H 215.389 -1.01444 -3.07393 0
M  V30 2290 H 214.296 -3.10848 -2.08146 0
M  V30 2291 H 215.629 -4.07881 -2.75489 0
M  V30 2292 N 217.281 0.66697 -1.42791 0
M  V30 2293 C 218.191 1.80962 -1.49299 0
M  V30 2294 C 219.207 1.69775 -0.381108 0
M  V30 2295 O 220.383 1.91188 -0.633188 0
M  V30 2296 C 217.448 3.17156 -1.40045 0
M  V30 2297 C 216.509 3.40242 -2.6179 0
M  V30 2298 C 215.742 4.69939 -2.52969 0
M  V30 2299 O 215.965 5.48372 -1.56985 0
M  V30 2300 O 214.899 4.94441 -3.43237 0
M  V30 2301 H 218.725 1.78427 -2.45759 0
M  V30 2302 H 216.31 0.823713 -1.24641 0
M  V30 2303 H 218.192 3.98413 -1.37276 0
M  V30 2304 H 216.867 3.20312 -0.467138 0
M  V30 2305 H 215.774 2.58802 -2.70134 0
M  V30 2306 H 217.107 3.41923 -3.54047 0
M  V30 2307 N 218.759 1.29093 0.90403 0
M  V30 2308 C 219.692 1.08176 2.00931 0
M  V30 2309 C 220.67 -0.005083 1.62599 0
M  V30 2310 O 221.854 0.144765 1.87943 0
M  V30 2311 C 218.981 0.645897 3.32484 0
M  V30 2312 C 218.027 1.73081 3.89801 0
M  V30 2313 S 218.86 3.32905 4.19446 0
M  V30 2314 C 220.016 2.91176 5.54046 0
M  V30 2315 H 220.249 2.01752 2.18365 0
M  V30 2316 H 217.782 1.13191 1.0501 0
M  V30 2317 H 219.74 0.401131 4.08535 0
M  V30 2318 H 218.401 -0.270188 3.12936 0
M  V30 2319 H 217.594 1.37768 4.84805 0
M  V30 2320 H 217.196 1.92888 3.20422 0
M  V30 2321 H 219.488 2.37952 6.34338 0
M  V30 2322 H 220.431 3.85014 5.94281 0
M  V30 2323 H 220.839 2.296 5.15698 0
M  V30 2324 N 220.237 -1.11381 1.11499 0
M  V30 2325 C 221.167 -2.19509 0.796125 0
M  V30 2326 C 222.148 -1.68458 -0.235796 0
M  V30 2327 O 223.333 -1.93947 -0.0991344 0
M  V30 2328 C 220.463 -3.46475 0.239205 0
M  V30 2329 C 219.417 -4.10744 1.20307 0
M  V30 2330 C 218.743 -5.32293 0.50683 0
M  V30 2331 C 220.043 -4.55597 2.55399 0
M  V30 2332 H 221.737 -2.46439 1.70024 0
M  V30 2333 H 219.283 -1.18446 0.818935 0
M  V30 2334 H 221.236 -4.214 0.00392006 0
M  V30 2335 H 219.96 -3.19006 -0.700206 0
M  V30 2336 H 218.619 -3.37813 1.42399 0
M  V30 2337 H 218.267 -5.01095 -0.437408 0
M  V30 2338 H 217.967 -5.76243 1.1497 0
M  V30 2339 H 219.491 -6.09956 0.280351 0
M  V30 2340 H 220.905 -5.21841 2.37391 0
M  V30 2341 H 219.302 -5.10363 3.15673 0
M  V30 2342 H 220.372 -3.69013 3.14575 0
M  V30 2343 N 221.715 -0.905404 -1.28997 0
M  V30 2344 C 222.625 -0.392246 -2.31298 0
M  V30 2345 C 223.641 0.515889 -1.66176 0
M  V30 2346 O 224.817 0.404093 -1.97304 0
M  V30 2347 C 221.882 0.36686 -3.44754 0
M  V30 2348 C 220.943 -0.573485 -4.25452 0
M  V30 2349 C 220.176 0.149488 -5.33491 0
M  V30 2350 O 220.399 1.37255 -5.5364 0
M  V30 2351 O 219.333 -0.510919 -5.99728 0
M  V30 2352 H 223.159 -1.2411 -2.77183 0
M  V30 2353 H 220.744 -0.669926 -1.33538 0
M  V30 2354 H 222.626 0.795907 -4.13816 0
M  V30 2355 H 221.301 1.19169 -3.00966 0
M  V30 2356 H 220.208 -1.05176 -3.59011 0
M  V30 2357 H 221.541 -1.36489 -4.72897 0
M  V30 2358 N 223.193 1.4272 -0.668489 0
M  V30 2359 C 224.609 1.55992 -0.33745 0
M  V30 2360 C 224.809 1.64933 1.15756 0
M  V30 2361 O 223.865 1.61278 1.94282 0
M  V30 2362 C 225.178 2.81314 -1.06222 0
M  V30 2363 C 226.726 2.95078 -1.04394 0
M  V30 2364 C 227.201 4.23252 -1.74991 0
M  V30 2365 N 228.692 4.3015 -1.71829 0
M  V30 2366 C 229.427 5.28127 -2.23315 0
M  V30 2367 N 228.923 6.32293 -2.83156 0
M  V30 2368 N 230.716 5.19882 -2.13726 0
M  V30 2369 H 222.867 1.3516 -1.63846 0
M  V30 2370 H 225.13 0.650174 -0.689912 0
M  V30 2371 H 224.836 2.80823 -2.11734 0
M  V30 2372 H 224.71 3.72012 -0.62344 0
M  V30 2373 H 227.097 2.951 0.0028244 0
M  V30 2374 H 227.178 2.05627 -1.52155 0
M  V30 2375 H 226.822 4.2399 -2.79633 0
M  V30 2376 H 226.752 5.11626 -1.24685 0
M  V30 2377 H 229.243 3.55499 -1.28175 0
M  V30 2378 H 229.556 7.03398 -3.20079 0
M  V30 2379 H 227.901 6.32873 -2.87223 0
M  V30 2380 H 231.092 4.37423 -1.66669 0
M  V30 2381 H 231.265 5.96077 -2.54158 0
M  V30 2382 N 224.671 0.411399 1.52136 0
M  V30 2383 C 226.087 0.0623865 1.59478 0
M  V30 2384 C 226.287 -1.42554 1.4241 0
M  V30 2385 O 225.343 -2.19263 1.2522 0
M  V30 2386 C 226.656 0.559331 2.95452 0
M  V30 2387 C 228.204 0.517503 3.08692 0
M  V30 2388 C 228.679 0.990994 4.4715 0
M  V30 2389 N 230.17 0.947908 4.53397 0
M  V30 2390 C 230.905 1.28544 5.58806 0
M  V30 2391 N 230.401 1.69454 6.71757 0
M  V30 2392 N 232.194 1.20526 5.49026 0
M  V30 2393 H 224.345 1.37982 1.61477 0
M  V30 2394 H 226.608 0.566977 0.759764 0
M  V30 2395 H 226.314 1.59938 3.1323 0
M  V30 2396 H 226.188 -0.0298014 3.77188 0
M  V30 2397 H 228.575 -0.513505 2.90598 0
M  V30 2398 H 228.656 1.14272 2.28857 0
M  V30 2399 H 228.3 2.02034 4.65988 0
M  V30 2400 H 228.23 0.34257 5.25485 0
M  V30 2401 H 230.721 0.647157 3.72317 0
M  V30 2402 H 231.034 1.93513 7.48179 0
M  V30 2403 H 229.379 1.73359 6.73032 0
M  V30 2404 H 232.57 0.884505 4.59667 0
M  V30 2405 H 232.743 1.47161 6.31069 0
M  V30 2406 N 226.149 -1.5696 0.141893 0
M  V30 2407 C 227.112 -2.15316 -0.785587 0
M  V30 2408 C 228.112 -1.09366 -1.1788 0
M  V30 2409 O 229.302 -1.35031 -1.10056 0
M  V30 2410 C 226.434 -2.71211 -2.06537 0
M  V30 2411 H 227.627 -2.98608 -0.278041 0
M  V30 2412 H 225.18 -1.5593 -0.107519 0
M  V30 2413 H 225.915 -1.91571 -2.6167 0
M  V30 2414 H 225.7 -3.4872 -1.79268 0
M  V30 2415 H 227.19 -3.16189 -2.72789 0
M  V30 2416 N 227.627 0.131896 -1.57047 0
M  V30 2417 C 228.559 1.1878 -1.9602 0
M  V30 2418 C 229.572 1.38363 -0.857875 0
M  V30 2419 O 230.761 1.37666 -1.13623 0
M  V30 2420 C 227.861 2.55008 -2.23213 0
M  V30 2421 C 227.034 2.56201 -3.54513 0
M  V30 2422 C 226.093 3.7408 -3.70069 0
M  V30 2423 O 225.119 3.58258 -4.42312 0
M  V30 2424 N 226.321 4.92137 -3.07866 0
M  V30 2425 H 229.086 0.85639 -2.87204 0
M  V30 2426 H 226.647 0.321309 -1.5868 0
M  V30 2427 H 228.639 3.32404 -2.30846 0
M  V30 2428 H 227.209 2.80382 -1.3822 0
M  V30 2429 H 226.429 1.64613 -3.58185 0
M  V30 2430 H 227.717 2.54043 -4.4084 0
M  V30 2431 H 227.115 5.07895 -2.49116 0
M  V30 2432 H 225.672 5.67254 -3.21039 0
M  V30 2433 N 229.106 1.52395 0.401703 0
M  V30 2434 C 230.016 1.7917 1.51444 0
M  V30 2435 C 231.032 0.677691 1.6026 0
M  V30 2436 O 232.208 0.963909 1.76835 0
M  V30 2437 C 229.273 1.94347 2.87107 0
M  V30 2438 C 228.334 3.18257 2.88116 0
M  V30 2439 C 227.567 3.32701 4.17308 0
M  V30 2440 O 227.79 2.52238 5.11598 0
M  V30 2441 O 226.724 4.25891 4.25324 0
M  V30 2442 H 230.55 2.73633 1.31752 0
M  V30 2443 H 228.135 1.3733 0.588296 0
M  V30 2444 H 230.017 2.06109 3.67555 0
M  V30 2445 H 228.692 1.03073 3.06851 0
M  V30 2446 H 227.599 3.11947 2.06494 0
M  V30 2447 H 228.932 4.09336 2.73322 0
M  V30 2448 N 230.584 -0.659388 1.43143 0
M  V30 2449 C 231.494 -1.80167 1.50256 0
M  V30 2450 C 232.51 -1.69571 0.390106 0
M  V30 2451 O 233.686 -1.90849 0.643319 0
M  V30 2452 C 230.751 -3.16409 1.41725 0
M  V30 2453 C 229.812 -3.38848 2.63591 0
M  V30 2454 C 229.045 -4.68591 2.55458 0
M  V30 2455 O 229.268 -5.47532 1.59891 0
M  V30 2456 O 228.202 -4.92614 3.45854 0
M  V30 2457 H 232.028 -1.77121 2.46702 0
M  V30 2458 H 229.613 -0.817092 1.25076 0
M  V30 2459 H 231.495 -3.9768 1.39387 0
M  V30 2460 H 230.17 -3.20059 0.484118 0
M  V30 2461 H 229.077 -2.57366 2.71502 0
M  V30 2462 H 230.41 -3.4004 3.55856 0
M  V30 2463 N 232.062 -1.29571 -0.897171 0
M  V30 2464 C 232.994 -1.10724 -2.00681 0
M  V30 2465 C 234.007 -0.0540026 -1.6271 0
M  V30 2466 O 235.196 -0.298783 -1.75982 0
M  V30 2467 C 232.296 -0.663912 -3.32333 0
M  V30 2468 C 231.469 -1.79622 -3.98816 0
M  V30 2469 C 230.528 -1.34349 -5.0876 0
M  V30 2470 O 229.554 -2.04864 -5.31055 0
M  V30 2471 N 230.756 -0.215764 -5.80099 0
M  V30 2472 H 233.521 -2.06291 -2.17403 0
M  V30 2473 H 231.082 -1.21544 -1.06951 0
M  V30 2474 H 233.074 -0.344295 -4.03233 0
M  V30 2475 H 231.644 0.199375 -3.11964 0
M  V30 2476 H 230.864 -2.28459 -3.21248 0
M  V30 2477 H 232.152 -2.55535 -4.39976 0
M  V30 2478 H 231.55 0.372091 -5.64475 0
M  V30 2479 H 230.107 0.0444707 -6.51785 0
M  V30 2480 N 233.54 1.10788 -1.12088 0
M  V30 2481 C 234.472 2.16816 -0.743213 0
M  V30 2482 C 235.485 1.6119 0.228412 0
M  V30 2483 O 236.674 1.78497 0.0102931 0
M  V30 2484 C 233.774 3.38809 -0.0787313 0
M  V30 2485 C 232.947 4.23885 -1.0789 0
M  V30 2486 C 232.006 5.24334 -0.442713 0
M  V30 2487 O 231.032 5.58497 -1.09864 0
M  V30 2488 N 232.234 5.75079 0.791457 0
M  V30 2489 H 234.999 2.49825 -1.65552 0
M  V30 2490 H 232.56 1.26373 -1.012 0
M  V30 2491 H 234.552 4.03107 0.358766 0
M  V30 2492 H 233.122 3.03805 0.736275 0
M  V30 2493 H 232.342 3.55939 -1.69414 0
M  V30 2494 H 233.63 4.77562 -1.75533 0
M  V30 2495 H 233.028 5.49517 1.3434 0
M  V30 2496 H 231.585 6.4118 1.17183 0
M  V30 2497 N 235.018 0.912232 1.28515 0
M  V30 2498 C 236.434 0.610159 1.47476 0
M  V30 2499 C 236.634 -0.844955 1.82928 0
M  V30 2500 O 235.69 -1.62416 1.93332 0
M  V30 2501 C 237.003 1.54675 2.57868 0
M  V30 2502 C 238.551 1.55331 2.71738 0
M  V30 2503 C 239.026 2.47649 3.85272 0
M  V30 2504 N 240.517 2.45767 3.92623 0
M  V30 2505 C 241.252 3.13896 4.79851 0
M  V30 2506 N 240.748 3.9135 5.71679 0
M  V30 2507 N 242.541 3.02991 4.73448 0
M  V30 2508 H 234.692 1.85318 1.03783 0
M  V30 2509 H 236.955 0.794777 0.516753 0
M  V30 2510 H 236.661 2.5841 2.38574 0
M  V30 2511 H 236.535 1.27671 3.54937 0
M  V30 2512 H 238.922 0.52335 2.90422 0
M  V30 2513 H 239.003 1.86378 1.75205 0
M  V30 2514 H 238.647 3.50745 3.67342 0
M  V30 2515 H 238.577 2.13904 4.81199 0
M  V30 2516 H 241.068 1.89503 3.26951 0
M  V30 2517 H 241.381 4.40359 6.35062 0
M  V30 2518 H 239.726 3.95455 5.71524 0
M  V30 2519 H 242.917 2.41987 4.007 0
M  V30 2520 H 243.09 3.5636 5.41213 0
M  V30 2521 N 236.496 -1.42363 0.676048 0
M  V30 2522 C 237.426 -2.33497 0.0124832 0
M  V30 2523 C 238.407 -1.50748 -0.787981 0
M  V30 2524 O 239.592 -1.79346 -0.744884 0
M  V30 2525 C 236.722 -3.34377 -0.938582 0
M  V30 2526 C 235.676 -4.27289 -0.246622 0
M  V30 2527 C 235.002 -5.18386 -1.31071 0
M  V30 2528 C 236.302 -5.14916 0.875125 0
M  V30 2529 H 237.996 -2.89233 0.773593 0
M  V30 2530 H 235.542 -1.39073 0.37346 0
M  V30 2531 H 237.495 -3.97044 -1.41188 0
M  V30 2532 H 236.219 -2.76947 -1.73113 0
M  V30 2533 H 234.878 -3.66018 0.206456 0
M  V30 2534 H 234.526 -4.57282 -2.09528 0
M  V30 2535 H 234.226 -5.81378 -0.852839 0
M  V30 2536 H 235.75 -5.83929 -1.78492 0
M  V30 2537 H 237.164 -5.71262 0.482983 0
M  V30 2538 H 235.561 -5.86747 1.25887 0
M  V30 2539 H 236.631 -4.53242 1.72335 0
M  V30 2540 N 237.974 -0.419461 -1.51915 0
M  V30 2541 C 238.904 0.391813 -2.30189 0
M  V30 2542 C 239.885 1.03699 -1.34836 0
M  V30 2543 O 241.07 1.04403 -1.63748 0
M  V30 2544 C 238.2 1.50312 -3.13087 0
M  V30 2545 C 237.154 0.9824 -4.16573 0
M  V30 2546 C 236.48 2.18809 -4.8788 0
M  V30 2547 C 237.78 0.0292356 -5.22292 0
M  V30 2548 H 239.474 -0.26135 -2.98257 0
M  V30 2549 H 237.02 -0.127134 -1.43438 0
M  V30 2550 H 238.973 2.07773 -3.66617 0
M  V30 2551 H 237.697 2.18431 -2.42807 0
M  V30 2552 H 236.356 0.430119 -3.64068 0
M  V30 2553 H 236.004 2.85507 -4.14119 0
M  V30 2554 H 235.704 1.84615 -5.57845 0
M  V30 2555 H 237.228 2.76858 -5.44226 0
M  V30 2556 H 238.642 0.512976 -5.71 0
M  V30 2557 H 237.039 -0.2244 -5.9968 0
M  V30 2558 H 238.109 -0.912931 -4.76228 0
M  V30 2559 N 239.452 1.56882 -0.150215 0
M  V30 2560 C 240.362 2.20494 0.801222 0
M  V30 2561 C 241.378 1.19019 1.26927 0
M  V30 2562 O 242.554 1.51607 1.32579 0
M  V30 2563 C 239.619 2.81659 2.02161 0
M  V30 2564 C 238.68 3.9827 1.60249 0
M  V30 2565 C 237.913 4.56508 2.7647 0
M  V30 2566 O 238.136 4.13627 3.92771 0
M  V30 2567 O 237.07 5.46719 2.51757 0
M  V30 2568 H 240.896 3.02315 0.289717 0
M  V30 2569 H 238.481 1.49202 0.0769684 0
M  V30 2570 H 240.363 3.20522 2.73576 0
M  V30 2571 H 239.038 2.02849 2.52258 0
M  V30 2572 H 237.945 3.64117 0.858477 0
M  V30 2573 H 239.278 4.78609 1.14864 0
M  V30 2574 N 240.93 -0.123565 1.57115 0
M  V30 2575 C 241.893 -1.13583 1.99076 0
M  V30 2576 C 242.893 -1.34564 0.880296 0
M  V30 2577 O 244.083 -1.31158 1.14644 0
M  V30 2578 C 241.215 -2.49128 2.32698 0
M  V30 2579 H 242.408 -0.775287 2.89706 0
M  V30 2580 H 239.961 -0.36771 1.51913 0
M  V30 2581 H 240.696 -2.90111 1.44934 0
M  V30 2582 H 240.481 -2.35255 3.13684 0
M  V30 2583 H 241.971 -3.2199 2.65918 0
M  V30 2584 N 242.408 -1.52605 -0.393616 0
M  V30 2585 C 243.355 -1.77055 -1.48054 0
M  V30 2586 C 244.325 -0.61358 -1.54352 0
M  V30 2587 O 245.51 -0.852806 -1.70681 0
M  V30 2588 C 242.65 -1.94108 -2.85335 0
M  V30 2589 C 241.763 -3.21792 -2.88226 0
M  V30 2590 C 240.898 -3.29188 -4.16904 0
M  V30 2591 C 239.937 -4.51013 -4.13828 0
M  V30 2592 N 239.074 -4.55716 -5.34105 0
M  V30 2593 H 243.914 -2.69815 -1.26506 0
M  V30 2594 H 241.451 -1.33683 -0.61379 0
M  V30 2595 H 243.409 -2.01979 -3.65049 0
M  V30 2596 H 242.039 -1.04713 -3.05344 0
M  V30 2597 H 241.091 -3.23015 -2.00911 0
M  V30 2598 H 242.403 -4.11557 -2.8182 0
M  V30 2599 H 241.557 -3.36216 -5.05018 0
M  V30 2600 H 240.296 -2.37389 -4.26026 0
M  V30 2601 H 239.301 -4.44115 -3.24102 0
M  V30 2602 H 240.526 -5.44123 -4.06333 0
M  V30 2603 H 238.472 -3.66807 -5.43865 0
M  V30 2604 H 238.389 -5.39346 -5.29756 0
M  V30 2605 H 239.657 -4.66993 -6.2413 0
M  V30 2606 N 243.887 0.651787 -1.4349 0
M  V30 2607 C 245.303 0.96762 -1.26922 0
M  V30 2608 C 245.503 2.00602 -0.189982 0
M  V30 2609 O 244.559 2.48793 0.431107 0
M  V30 2610 C 245.872 1.45052 -2.63401 0
M  V30 2611 C 247.42 1.5671 -2.70945 0
M  V30 2612 C 247.895 2.0839 -4.07845 0
M  V30 2613 N 249.386 2.1569 -4.09917 0
M  V30 2614 C 250.121 2.56804 -5.12679 0
M  V30 2615 N 249.617 2.97203 -6.25813 0
M  V30 2616 N 251.41 2.56756 -5.00033 0
M  V30 2617 H 243.561 -0.0353158 -2.12371 0
M  V30 2618 H 245.824 0.0467858 -0.946845 0
M  V30 2619 H 245.53 0.761926 -3.43348 0
M  V30 2620 H 245.404 2.42529 -2.88894 0
M  V30 2621 H 247.791 2.2467 -1.9133 0
M  V30 2622 H 247.872 0.57662 -2.49216 0
M  V30 2623 H 247.516 1.41031 -4.87927 0
M  V30 2624 H 247.446 3.08271 -4.26938 0
M  V30 2625 H 249.937 1.87237 -3.28254 0
M  V30 2626 H 250.25 3.27328 -7.00055 0
M  V30 2627 H 248.595 2.95004 -6.29283 0
M  V30 2628 H 251.786 2.24572 -4.10713 0
M  V30 2629 H 251.959 2.88475 -5.80247 0
M  V30 2630 N 245.365 1.30045 0.890287 0
M  V30 2631 C 246.312 1.15976 1.99545 0
M  V30 2632 C 247.282 0.0506202 1.66023 0
M  V30 2633 O 248.467 0.219847 1.89529 0
M  V30 2634 C 245.607 0.852054 3.34416 0
M  V30 2635 C 244.72 2.04255 3.80662 0
M  V30 2636 C 243.855 1.6734 5.04154 0
M  V30 2637 C 242.894 2.82916 5.42794 0
M  V30 2638 N 242.031 2.46333 6.57468 0
M  V30 2639 H 246.871 2.10524 2.10911 0
M  V30 2640 H 244.408 1.04749 1.03276 0
M  V30 2641 H 246.366 0.654296 4.12037 0
M  V30 2642 H 244.996 -0.0565502 3.2275 0
M  V30 2643 H 244.048 2.35172 2.98995 0
M  V30 2644 H 245.36 2.90826 4.05242 0
M  V30 2645 H 244.514 1.43908 5.89386 0
M  V30 2646 H 243.253 0.779308 4.81433 0
M  V30 2647 H 242.258 3.0702 4.56091 0
M  V30 2648 H 243.483 3.73004 5.6749 0
M  V30 2649 H 241.429 1.59423 6.36334 0
M  V30 2650 H 241.346 3.26436 6.81891 0
M  V30 2651 H 242.614 2.26244 7.45945 0
M  V30 2652 N 246.843 -1.10192 1.12674 0
M  V30 2653 C 247.753 -2.20172 0.810026 0
M  V30 2654 C 248.769 -1.72821 -0.202188 0
M  V30 2655 O 249.945 -2.01369 -0.0351691 0
M  V30 2656 C 247.01 -3.45631 0.272007 0
M  V30 2657 C 246.071 -4.07704 1.34447 0
M  V30 2658 C 245.304 -5.27175 0.832029 0
M  V30 2659 O 245.527 -5.69425 -0.333284 0
M  V30 2660 O 244.461 -5.80168 1.60277 0
M  V30 2661 H 248.287 -2.49701 1.72867 0
M  V30 2662 H 245.872 -1.18977 0.903597 0
M  V30 2663 H 247.754 -4.21394 -0.0230219 0
M  V30 2664 H 246.429 -3.17723 -0.619164 0
M  V30 2665 H 245.336 -3.33614 1.6927 0
M  V30 2666 H 246.669 -4.3982 2.2095 0
M  V30 2667 N 248.321 -0.919034 -1.28029 0
M  V30 2668 C 249.231 -0.416756 -2.30869 0
M  V30 2669 C 250.247 0.498235 -1.66714 0
M  V30 2670 O 251.423 0.383144 -1.97722 0
M  V30 2671 C 248.488 0.330274 -3.45123 0
M  V30 2672 C 247.549 -0.618578 -4.2482 0
M  V30 2673 C 246.782 0.0928959 -5.33619 0
M  V30 2674 O 247.005 1.31375 -5.55065 0
M  V30 2675 O 245.939 -0.574499 -5.99152 0
M  V30 2676 H 249.765 -1.27043 -2.75851 0
M  V30 2677 H 247.35 -0.684052 -1.3282 0
M  V30 2678 H 249.232 0.751972 -4.14636 0
M  V30 2679 H 247.907 1.1597 -3.02213 0
M  V30 2680 H 246.814 -1.08978 -3.57875 0
M  V30 2681 H 248.147 -1.41497 -4.71423 0
M  V30 2682 N 249.799 1.42003 -0.683588 0
M  V30 2683 C 250.731 2.29183 0.0283068 0
M  V30 2684 C 251.744 1.4415 0.756611 0
M  V30 2685 O 252.933 1.67779 0.609306 0
M  V30 2686 C 250.033 3.21765 1.06398 0
M  V30 2687 C 249.206 4.35496 0.407723 0
M  V30 2688 C 248.265 5.08737 1.34437 0
M  V30 2689 O 247.291 5.62948 0.841318 0
M  V30 2690 N 248.493 5.15075 2.67728 0
M  V30 2691 H 251.258 2.9092 -0.720105 0
M  V30 2692 H 248.819 1.53025 -0.528682 0
M  V30 2693 H 250.811 3.6763 1.69204 0
M  V30 2694 H 249.381 2.61418 1.71404 0
M  V30 2695 H 248.601 3.92165 -0.400012 0
M  V30 2696 H 249.889 5.08776 -0.0490956 0
M  V30 2697 H 249.287 4.72457 3.11129 0
M  V30 2698 H 247.844 5.64556 3.2576 0
M  V30 2699 N 251.277 0.427512 1.51691 0
M  V30 2700 C 252.187 -0.39527 2.31246 0
M  V30 2701 C 253.203 -1.03674 1.39742 0
M  V30 2702 O 254.379 -1.03425 1.72816 0
M  V30 2703 C 251.444 -1.48706 3.13189 0
M  V30 2704 C 250.505 -0.866743 4.20459 0
M  V30 2705 C 249.738 -1.90651 4.98486 0
M  V30 2706 O 249.961 -3.12733 4.77026 0
M  V30 2707 O 248.895 -1.5025 5.82845 0
M  V30 2708 H 252.721 0.253918 3.02637 0
M  V30 2709 H 250.306 0.190274 1.48183 0
M  V30 2710 H 252.188 -2.12047 3.64162 0
M  V30 2711 H 250.863 -2.12051 2.44573 0
M  V30 2712 H 249.77 -0.195544 3.73589 0
M  V30 2713 H 251.103 -0.276934 4.9142 0
M  V30 2714 N 252.755 -1.56801 0.158532 0
M  V30 2715 C 253.687 -2.14488 -0.807923 0
M  V30 2716 C 254.7 -1.09721 -1.20271 0
M  V30 2717 O 255.889 -1.36956 -1.14478 0
M  V30 2718 C 252.989 -2.66217 -2.09718 0
M  V30 2719 C 252.162 -3.95507 -1.86796 0
M  V30 2720 C 251.221 -4.3243 -2.99818 0
M  V30 2721 O 250.247 -5.00543 -2.71008 0
M  V30 2722 N 251.449 -3.92947 -4.27285 0
M  V30 2723 H 254.214 -2.98042 -0.314816 0
M  V30 2724 H 251.775 -1.61881 -0.0246692 0
M  V30 2725 H 253.767 -2.87924 -2.84398 0
M  V30 2726 H 252.337 -1.87324 -2.50257 0
M  V30 2727 H 251.557 -3.82309 -0.96089 0
M  V30 2728 H 252.845 -4.79972 -1.68833 0
M  V30 2729 H 252.243 -3.38087 -4.53557 0
M  V30 2730 H 250.8 -4.19681 -4.9871 0
M  V30 2731 N 254.233 0.115231 -1.57178 0
M  V30 2732 C 255.649 0.468877 -1.52557 0
M  V30 2733 C 255.849 1.81649 -0.872125 0
M  V30 2734 O 254.905 2.48347 -0.45606 0
M  V30 2735 C 256.218 0.4499 -2.97315 0
M  V30 2736 C 257.766 0.533185 -3.08425 0
M  V30 2737 C 258.241 0.54456 -4.54751 0
M  V30 2738 N 259.732 0.605892 -4.5922 0
M  V30 2739 C 260.467 0.636203 -5.6986 0
M  V30 2740 N 259.963 0.623931 -6.89985 0
M  V30 2741 N 261.756 0.679496 -5.57978 0
M  V30 2742 H 253.907 -0.767712 -1.9804 0
M  V30 2743 H 256.17 -0.283609 -0.904583 0
M  V30 2744 H 255.876 -0.472721 -3.48509 0
M  V30 2745 H 255.75 1.27632 -3.5495 0
M  V30 2746 H 258.137 1.44623 -2.57232 0
M  V30 2747 H 258.218 -0.320995 -2.53778 0
M  V30 2748 H 257.862 -0.364452 -5.06591 0
M  V30 2749 H 257.792 1.41568 -5.07214 0
M  V30 2750 H 260.283 0.621386 -3.72756 0
M  V30 2751 H 260.596 0.649787 -7.70063 0
M  V30 2752 H 258.941 0.591296 -6.9248 0
M  V30 2753 H 262.132 0.686472 -4.63039 0
M  V30 2754 H 262.305 0.69965 -6.44212 0
M  V30 2755 N 255.711 1.52812 0.385517 0
M  V30 2756 C 256.621 1.80766 1.49535 0
M  V30 2757 C 257.637 0.694651 1.59532 0
M  V30 2758 O 258.813 0.982611 1.75803 0
M  V30 2759 C 255.878 1.97381 2.85029 0
M  V30 2760 C 254.939 3.21295 2.84724 0
M  V30 2761 C 254.172 3.37108 4.13756 0
M  V30 2762 O 254.395 2.5765 5.08893 0
M  V30 2763 O 253.329 4.30378 4.20783 0
M  V30 2764 H 257.155 2.75015 1.28842 0
M  V30 2765 H 254.74 1.37946 0.573697 0
M  V30 2766 H 256.622 2.09996 3.65349 0
M  V30 2767 H 255.297 1.06322 3.05741 0
M  V30 2768 H 254.204 3.1412 2.03174 0
M  V30 2769 H 255.537 4.12212 2.68965 0
M  V30 2770 N 257.189 -0.644168 1.43834 0
M  V30 2771 C 258.438 -1.39985 1.45214 0
M  V30 2772 C 258.751 -1.95421 0.0835494 0
M  V30 2773 O 259.957 -2.71488 -0.0251748 0
M  V30 2774 C 258.413 -2.53384 2.55587 0
M  V30 2775 C 258.021 -2.04517 3.98594 0
M  V30 2776 C 259.765 -3.30685 2.66172 0
M  V30 2777 C 257.672 -3.1518 5.00416 0
M  V30 2778 H 256.602 -0.526005 0.540218 0
M  V30 2779 H 259.253 -0.694367 1.69855 0
M  V30 2780 H 257.635 -3.26446 2.24163 0
M  V30 2781 H 258.809 -1.38405 4.39523 0
M  V30 2782 H 257.124 -1.40068 3.92135 0
M  V30 2783 H 259.721 -4.13158 3.39418 0
M  V30 2784 H 260.064 -3.79312 1.71546 0
M  V30 2785 H 260.597 -2.64708 2.96942 0
M  V30 2786 H 257.336 -2.71511 5.96625 0
M  V30 2787 H 256.856 -3.79974 4.64091 0
M  V30 2788 H 258.535 -3.80166 5.23529 0
M  V30 2789 N 258.668 -1.30515 -0.883378 0
M  V30 2790 C 259.598 -1.19607 -2.00541 0
M  V30 2791 C 260.579 -0.086346 -1.69881 0
M  V30 2792 O 261.764 -0.268654 -1.92333 0
M  V30 2793 C 258.894 -0.888758 -3.35736 0
M  V30 2794 C 257.848 -1.95659 -3.8066 0
M  V30 2795 C 257.174 -1.50224 -5.13164 0
M  V30 2796 C 258.474 -3.36788 -3.99213 0
M  V30 2797 H 260.168 -2.13476 -2.09925 0
M  V30 2798 H 257.714 -1.02775 -1.00863 0
M  V30 2799 H 259.667 -0.799094 -4.13754 0
M  V30 2800 H 258.391 0.0856125 -3.26488 0
M  V30 2801 H 257.05 -2.03591 -3.04871 0
M  V30 2802 H 256.698 -0.516092 -5.00345 0
M  V30 2803 H 256.398 -2.2165 -5.44192 0
M  V30 2804 H 257.922 -1.42639 -5.93706 0
M  V30 2805 H 259.336 -3.31605 -4.67665 0
M  V30 2806 H 257.733 -4.06314 -4.41621 0
M  V30 2807 H 258.803 -3.78561 -3.03017 0
M  V30 2808 N 260.146 1.09593 -1.13257 0
M  V30 2809 C 261.096 2.14345 -0.777179 0
M  V30 2810 C 262.08 1.59277 0.227966 0
M  V30 2811 O 263.272 1.76971 0.0321413 0
M  V30 2812 C 260.401 3.42439 -0.242991 0
M  V30 2813 C 259.487 4.04419 -1.27694 0
M  V30 2814 N 259.878 4.40979 -2.47732 0
M  V30 2815 C 258.176 4.31596 -1.12432 0
M  V30 2816 C 258.877 4.89784 -3.13826 0
M  V30 2817 N 257.853 4.87133 -2.41252 0
M  V30 2818 H 261.655 2.40415 -1.69049 0
M  V30 2819 H 259.169 1.26803 -1.01463 0
M  V30 2820 H 261.166 4.16889 0.0298496 0
M  V30 2821 H 259.826 3.17824 0.66467 0
M  V30 2822 H 260.837 4.32396 -2.85051 0
M  V30 2823 H 257.514 4.16595 -0.274684 0
M  V30 2824 H 258.904 5.2755 -4.16102 0
M  V30 2825 N 261.624 0.925811 1.2754 0
M  V30 2826 C 262.534 0.428993 2.30644 0
M  V30 2827 C 263.55 -0.489387 1.66976 0
M  V30 2828 O 264.726 -0.372653 1.97922 0
M  V30 2829 C 261.791 -0.311967 3.45294 0
M  V30 2830 C 260.852 0.641098 4.24486 0
M  V30 2831 C 260.085 -0.0645955 5.33661 0
M  V30 2832 O 260.308 -1.28429 5.55754 0
M  V30 2833 O 259.242 0.606265 5.98839 0
M  V30 2834 H 263.068 1.28504 2.75173 0
M  V30 2835 H 260.653 0.691086 1.32455 0
M  V30 2836 H 262.535 -0.729972 4.15029 0
M  V30 2837 H 261.21 -1.14365 3.02824 0
M  V30 2838 H 260.117 1.10874 3.57292 0
M  V30 2839 H 261.45 1.43995 4.70666 0
M  V30 2840 N 263.102 -1.41638 0.69111 0
M  V30 2841 C 264.351 -2.00526 0.217318 0
M  V30 2842 C 264.664 -1.55353 -1.18848 0
M  V30 2843 O 265.87 -2.06769 -1.75951 0
M  V30 2844 C 264.326 -3.58313 0.337639 0
M  V30 2845 C 263.934 -4.12469 1.74852 0
M  V30 2846 C 265.678 -4.24431 -0.0766066 0
M  V30 2847 C 263.585 -5.62675 1.82074 0
M  V30 2848 H 262.515 -0.750008 0.0774893 0
M  V30 2849 H 265.166 -1.6217 0.858661 0
M  V30 2850 H 263.548 -3.9425 -0.371879 0
M  V30 2851 H 264.722 -3.8796 2.48644 0
M  V30 2852 H 263.037 -3.58861 2.11205 0
M  V30 2853 H 265.634 -5.34683 -0.0430284 0
M  V30 2854 H 265.977 -4.01101 -1.1146 0
M  V30 2855 H 266.51 -3.93512 0.582476 0
M  V30 2856 H 263.249 -5.90826 2.83911 0
M  V30 2857 H 262.769 -5.89124 1.12661 0
M  V30 2858 H 264.448 -6.27371 1.58159 0
M  V30 2859 N 264.58 -0.43555 -1.51462 0
M  V30 2860 C 265.512 0.41257 -2.25456 0
M  V30 2861 C 266.525 0.987822 -1.29406 0
M  V30 2862 O 267.714 0.882266 -1.55172 0
M  V30 2863 C 264.814 1.58894 -2.99342 0
M  V30 2864 C 263.987 1.13288 -4.22474 0
M  V30 2865 C 263.046 2.17917 -4.78956 0
M  V30 2866 O 262.072 1.77425 -5.40841 0
M  V30 2867 N 263.274 3.50382 -4.62832 0
M  V30 2868 H 266.039 -0.221603 -2.9888 0
M  V30 2869 H 263.6 -0.264342 -1.59727 0
M  V30 2870 H 265.592 2.28508 -3.34015 0
M  V30 2871 H 264.162 2.12849 -2.28941 0
M  V30 2872 H 263.382 0.263881 -3.93316 0
M  V30 2873 H 264.67 0.805542 -5.02383 0
M  V30 2874 H 264.068 3.86013 -4.13534 0
M  V30 2875 H 262.625 4.15895 -5.01871 0
M  V30 2876 N 266.058 1.56714 -0.166846 0
M  V30 2877 C 267.474 1.58473 0.189372 0
M  V30 2878 C 267.674 1.18201 1.63189 0
M  V30 2879 O 266.73 0.891528 2.36237 0
M  V30 2880 C 268.043 3.00573 -0.0873872 0
M  V30 2881 C 269.591 3.1299 -0.0252443 0
M  V30 2882 C 270.066 4.57174 -0.274934 0
M  V30 2883 N 271.557 4.62665 -0.222553 0
M  V30 2884 C 272.292 5.72072 -0.389985 0
M  V30 2885 N 271.788 6.90054 -0.616229 0
M  V30 2886 N 273.581 5.61153 -0.326202 0
M  V30 2887 H 265.732 1.8118 -1.10849 0
M  V30 2888 H 267.995 0.839525 -0.440342 0
M  V30 2889 H 267.701 3.34497 -1.0865 0
M  V30 2890 H 267.575 3.72019 0.623037 0
M  V30 2891 H 269.962 2.78895 0.96444 0
M  V30 2892 H 270.043 2.43989 -0.768309 0
M  V30 2893 H 269.687 4.91976 -1.26181 0
M  V30 2894 H 269.617 5.24328 0.48869 0
M  V30 2895 H 272.108 3.77863 -0.0531512 0
M  V30 2896 H 272.421 7.69311 -0.733559 0
M  V30 2897 H 270.766 6.91927 -0.652791 0
M  V30 2898 H 273.957 4.67859 -0.150072 0
M  V30 2899 H 274.13 6.46364 -0.460116 0
M  V30 2900 N 267.536 -0.106894 1.57237 0
M  V30 2901 C 268.952 -0.46078 1.52804 0
M  V30 2902 C 269.152 -1.81184 0.881746 0
M  V30 2903 O 268.208 -2.48102 0.469224 0
M  V30 2904 C 269.521 -0.434127 2.9755 0
M  V30 2905 C 271.069 -0.516821 3.08704 0
M  V30 2906 C 271.544 -0.520436 4.55033 0
M  V30 2907 N 273.035 -0.58153 4.59535 0
M  V30 2908 C 273.77 -0.605973 5.70189 0
M  V30 2909 N 273.266 -0.587331 6.90306 0
M  V30 2910 N 275.059 -0.649895 5.5833 0
M  V30 2911 H 267.21 0.778203 1.9763 0
M  V30 2912 H 269.473 0.288403 0.903066 0
M  V30 2913 H 269.179 0.491197 3.48253 0
M  V30 2914 H 269.053 -1.25748 3.55622 0
M  V30 2915 H 271.44 -1.43256 2.57995 0
M  V30 2916 H 271.521 0.334449 2.53604 0
M  V30 2917 H 271.165 0.391313 5.0639 0
M  V30 2918 H 271.095 -1.38876 5.07958 0
M  V30 2919 H 273.586 -0.60161 3.73081 0
M  V30 2920 H 273.899 -0.60894 7.70397 0
M  V30 2921 H 272.244 -0.554564 6.92784 0
M  V30 2922 H 275.435 -0.661907 4.63397 0
M  V30 2923 H 275.608 -0.665476 6.44574 0
M  V30 2924 N 269.014 -1.53014 -0.377408 0
M  V30 2925 C 269.961 -1.78616 -1.46168 0
M  V30 2926 C 270.931 -0.629917 -1.53692 0
M  V30 2927 O 272.116 -0.870861 -1.69766 0
M  V30 2928 C 269.256 -1.97123 -2.8326 0
M  V30 2929 C 268.369 -3.24831 -2.84796 0
M  V30 2930 C 267.504 -3.33591 -4.13389 0
M  V30 2931 C 266.543 -4.55377 -4.09021 0
M  V30 2932 N 265.68 -4.61355 -5.29241 0
M  V30 2933 H 270.52 -2.71142 -1.23637 0
M  V30 2934 H 268.057 -1.34326 -0.599577 0
M  V30 2935 H 270.015 -2.05839 -3.62886 0
M  V30 2936 H 268.645 -1.07946 -3.04216 0
M  V30 2937 H 267.697 -3.25128 -1.97474 0
M  V30 2938 H 269.009 -4.14523 -2.77439 0
M  V30 2939 H 268.163 -3.41554 -5.01424 0
M  V30 2940 H 266.902 -2.41894 -4.23484 0
M  V30 2941 H 265.907 -4.47527 -3.19373 0
M  V30 2942 H 267.132 -5.48402 -4.00539 0
M  V30 2943 H 265.078 -3.72554 -5.39944 0
M  V30 2944 H 264.995 -5.44935 -5.24006 0
M  V30 2945 H 266.263 -4.73586 -6.19141 0
M  V30 2946 N 270.492 0.636531 -1.44174 0
M  V30 2947 C 271.402 1.77754 -1.53103 0
M  V30 2948 C 272.418 1.68928 -0.417034 0
M  V30 2949 O 273.594 1.89801 -0.6736 0
M  V30 2950 C 270.659 3.14115 -1.46741 0
M  V30 2951 C 269.72 3.34612 -2.68948 0
M  V30 2952 C 268.953 4.64467 -2.6288 0
M  V30 2953 O 269.176 5.44919 -1.68581 0
M  V30 2954 O 268.11 4.87049 -3.53648 0
M  V30 2955 H 271.936 1.73174 -2.49489 0
M  V30 2956 H 269.521 0.79709 -1.2636 0
M  V30 2957 H 271.403 3.95412 -1.45696 0
M  V30 2958 H 270.078 3.19249 -0.534975 0
M  V30 2959 H 268.985 2.53014 -2.75562 0
M  V30 2960 H 270.318 3.34336 -3.61221 0
M  V30 2961 N 271.97 1.30982 0.876444 0
M  V30 2962 C 272.88 1.2003 2.01569 0
M  V30 2963 C 273.896 0.11838 1.73597 0
M  V30 2964 O 275.072 0.33495 1.98595 0
M  V30 2965 C 272.137 0.901637 3.34771 0
M  V30 2966 C 271.198 2.06979 3.76109 0
M  V30 2967 C 270.431 1.78529 5.02954 0
M  V30 2968 O 270.654 0.717296 5.65872 0
M  V30 2969 O 269.588 2.64019 5.40905 0
M  V30 2970 H 273.414 2.15753 2.13739 0
M  V30 2971 H 270.999 1.10658 1.00375 0
M  V30 2972 H 272.881 0.750645 4.1466 0
M  V30 2973 H 271.556 -0.0256141 3.2369 0
M  V30 2974 H 270.463 2.27616 2.96887 0
M  V30 2975 H 271.796 2.97907 3.91807 0
M  V30 2976 N 273.449 -1.08991 1.13837 0
M  V30 2977 C 274.698 -1.80631 0.897509 0
M  V30 2978 C 275.011 -1.86872 -0.57777 0
M  V30 2979 O 276.217 -2.54866 -0.935701 0
M  V30 2980 C 274.673 -3.24517 1.55618 0
M  V30 2981 C 274.281 -3.26529 3.0673 0
M  V30 2982 C 276.025 -4.00882 1.3962 0
M  V30 2983 C 273.932 -4.64965 3.65461 0
M  V30 2984 H 272.862 -0.67691 0.332129 0
M  V30 2985 H 275.513 -1.2246 1.3666 0
M  V30 2986 H 273.895 -3.82778 1.01476 0
M  V30 2987 H 275.069 -2.78008 3.67489 0
M  V30 2988 H 273.384 -2.63656 3.22296 0
M  V30 2989 H 275.981 -5.03167 1.80906 0
M  V30 2990 H 276.324 -4.14896 0.341578 0
M  V30 2991 H 276.857 -3.49075 1.90766 0
M  V30 2992 H 273.596 -4.56153 4.70749 0
M  V30 2993 H 273.116 -5.13792 3.09481 0
M  V30 2994 H 274.795 -5.3394 3.654 0
M  V30 2995 N 274.927 -0.932562 -1.27047 0
M  V30 2996 C 275.874 -0.434072 -2.26681 0
M  V30 2997 C 276.844 0.501639 -1.58344 0
M  V30 2998 O 278.029 0.419734 -1.86126 0
M  V30 2999 C 275.169 0.30261 -3.43771 0
M  V30 3000 C 274.282 -0.667774 -4.26808 0
M  V30 3001 C 273.417 0.0892393 -5.31125 0
M  V30 3002 C 272.456 -0.873532 -6.05835 0
M  V30 3003 N 271.593 -0.148832 -7.01942 0
M  V30 3004 H 276.433 -1.28868 -2.68695 0
M  V30 3005 H 273.97 -0.646713 -1.32121 0
M  V30 3006 H 275.928 0.746092 -4.10474 0
M  V30 3007 H 274.558 1.12142 -3.02695 0
M  V30 3008 H 273.61 -1.22978 -3.59973 0
M  V30 3009 H 274.922 -1.40337 -4.78651 0
M  V30 3010 H 274.076 0.592409 -6.03801 0
M  V30 3011 H 272.815 0.85777 -4.80097 0
M  V30 3012 H 271.82 -1.38791 -5.31994 0
M  V30 3013 H 273.045 -1.64193 -6.58952 0
M  V30 3014 H 270.991 0.601365 -6.53238 0
M  V30 3015 H 270.908 -0.82391 -7.51497 0
M  V30 3016 H 272.176 0.333527 -7.78786 0
M  V30 3017 N 276.405 1.4127 -0.698611 0
M  V30 3018 C 277.315 2.34573 -0.0357891 0
M  V30 3019 C 278.331 1.56393 0.762701 0
M  V30 3020 O 279.507 1.8886 0.699564 0
M  V30 3021 C 276.572 3.35159 0.887089 0
M  V30 3022 C 275.633 4.29225 0.0804634 0
M  V30 3023 C 274.866 5.25006 0.959387 0
M  V30 3024 O 275.089 5.26314 2.19886 0
M  V30 3025 O 274.023 6.00519 0.407439 0
M  V30 3026 H 277.849 2.92838 -0.804957 0
M  V30 3027 H 275.434 1.42175 -0.458966 0
M  V30 3028 H 277.316 3.9689 1.41621 0
M  V30 3029 H 275.991 2.79333 1.6357 0
M  V30 3030 H 274.898 3.70833 -0.493328 0
M  V30 3031 H 276.231 4.88157 -0.629547 0
M  V30 3032 N 277.883 0.443576 1.51229 0
M  V30 3033 C 278.793 -0.370721 2.31652 0
M  V30 3034 C 279.809 -1.02186 1.40833 0
M  V30 3035 O 280.985 -1.01586 1.73903 0
M  V30 3036 C 278.05 -1.45376 3.14749 0
M  V30 3037 C 277.111 -0.822099 4.21355 0
M  V30 3038 C 276.344 -1.85353 5.0048 0
M  V30 3039 O 276.567 -3.07656 4.80316 0
M  V30 3040 O 275.501 -1.4406 5.84406 0
M  V30 3041 H 279.327 0.286002 3.0235 0
M  V30 3042 H 276.912 0.20598 1.47973 0
M  V30 3043 H 278.794 -2.08173 3.66391 0
M  V30 3044 H 277.469 -2.09445 2.46809 0
M  V30 3045 H 276.376 -0.155909 3.73775 0
M  V30 3046 H 277.709 -0.224797 4.91686 0
M  V30 3047 N 279.361 -1.56624 0.175154 0
M  V30 3048 C 280.308 -2.18149 -0.753634 0
M  V30 3049 C 281.278 -1.12265 -1.22417 0
M  V30 3050 O 282.463 -1.40432 -1.29165 0
M  V30 3051 C 279.603 -2.82933 -1.97592 0
M  V30 3052 C 278.716 -4.03289 -1.5486 0
M  V30 3053 C 277.851 -4.55988 -2.72485 0
M  V30 3054 C 276.89 -5.68746 -2.26262 0
M  V30 3055 N 276.027 -6.15938 -3.36994 0
M  V30 3056 H 280.867 -2.9717 -0.222195 0
M  V30 3057 H 278.404 -1.46774 -0.0979422 0
M  V30 3058 H 280.362 -3.18653 -2.69288 0
M  V30 3059 H 278.992 -2.06509 -2.481 0
M  V30 3060 H 278.044 -3.73364 -0.728246 0
M  V30 3061 H 279.356 -4.849 -1.16933 0
M  V30 3062 H 278.51 -4.9391 -3.52332 0
M  V30 3063 H 277.249 -3.73443 -3.13674 0
M  V30 3064 H 276.254 -5.30372 -1.44863 0
M  V30 3065 H 277.479 -6.53095 -1.86127 0
M  V30 3066 H 275.425 -5.36321 -3.77751 0
M  V30 3067 H 275.342 -6.92548 -3.03172 0
M  V30 3068 H 276.61 -6.58511 -4.17114 0
M  V30 3069 N 280.839 0.0985539 -1.57292 0
M  V30 3070 C 281.786 1.11981 -2.01814 0
M  V30 3071 C 282.756 1.39999 -0.89384 0
M  V30 3072 O 283.941 1.5152 -1.15958 0
M  V30 3073 C 281.081 2.43577 -2.44467 0
M  V30 3074 C 280.194 2.2232 -3.70402 0
M  V30 3075 C 279.329 3.4729 -4.01949 0
M  V30 3076 C 278.368 3.2128 -5.21005 0
M  V30 3077 N 277.505 4.38507 -5.48321 0
M  V30 3078 H 282.345 0.733149 -2.88841 0
M  V30 3079 H 279.882 0.350482 -1.42864 0
M  V30 3080 H 281.84 3.20373 -2.6724 0
M  V30 3081 H 280.47 2.80097 -1.60455 0
M  V30 3082 H 279.522 1.36343 -3.55126 0
M  V30 3083 H 280.834 1.99089 -4.57345 0
M  V30 3084 H 279.988 4.32495 -4.25479 0
M  V30 3085 H 278.727 3.73572 -3.13521 0
M  V30 3086 H 277.732 2.34468 -4.97298 0
M  V30 3087 H 278.957 2.96348 -6.11028 0
M  V30 3088 H 276.903 4.64871 -4.62851 0
M  V30 3089 H 276.82 4.18455 -6.29628 0
M  V30 3090 H 278.088 5.24787 -5.76385 0
M  V30 3091 N 282.317 1.53212 0.369288 0
M  V30 3092 C 283.733 1.42902 0.710712 0
M  V30 3093 C 283.933 0.565135 1.93413 0
M  V30 3094 O 282.989 0.0461484 2.52458 0
M  V30 3095 C 284.302 2.86042 0.927382 0
M  V30 3096 C 285.85 2.9565 1.02762 0
M  V30 3097 C 286.325 4.39843 1.27679 0
M  V30 3098 N 287.816 4.43256 1.34457 0
M  V30 3099 C 288.551 5.51929 1.55439 0
M  V30 3100 N 288.047 6.70655 1.73762 0
M  V30 3101 N 289.84 5.39502 1.57779 0
M  V30 3102 H 281.991 2.07888 -0.435457 0
M  V30 3103 H 284.254 0.938661 -0.132739 0
M  V30 3104 H 283.96 3.51557 0.100287 0
M  V30 3105 H 283.834 3.29472 1.83653 0
M  V30 3106 H 286.221 2.30291 1.84527 0
M  V30 3107 H 286.302 2.5562 0.0959504 0
M  V30 3108 H 285.946 5.05774 0.464175 0
M  V30 3109 H 285.876 4.77443 2.22162 0
M  V30 3110 H 288.367 3.5769 1.21926 0
M  V30 3111 H 288.68 7.49248 1.89335 0
M  V30 3112 H 287.025 6.73648 1.70948 0
M  V30 3113 H 290.216 4.45713 1.43029 0
M  V30 3114 H 290.389 6.2426 1.7379 0
M  V30 3115 N 283.795 -0.628877 1.44509 0
M  V30 3116 C 284.742 -1.74074 1.51549 0
M  V30 3117 C 285.712 -1.62084 0.363021 0
M  V30 3118 O 286.897 -1.81975 0.573567 0
M  V30 3119 C 284.037 -3.12328 1.46784 0
M  V30 3120 C 283.15 -3.35277 2.72422 0
M  V30 3121 C 282.285 -4.63515 2.59475 0
M  V30 3122 C 281.324 -4.7965 3.80266 0
M  V30 3123 N 280.461 -5.99168 3.65981 0
M  V30 3124 H 285.301 -1.67392 2.46544 0
M  V30 3125 H 282.838 -0.816527 1.22357 0
M  V30 3126 H 284.796 -3.92286 1.42012 0
M  V30 3127 H 283.426 -3.18018 0.553544 0
M  V30 3128 H 282.478 -2.49242 2.87372 0
M  V30 3129 H 283.79 -3.43078 3.62076 0
M  V30 3130 H 282.944 -5.51638 2.52548 0
M  V30 3131 H 281.683 -4.58076 1.67384 0
M  V30 3132 H 280.688 -3.89957 3.87574 0
M  V30 3133 H 281.913 -4.86902 4.73395 0
M  V30 3134 H 279.859 -5.94814 2.76644 0
M  V30 3135 H 279.776 -6.08035 4.49254 0
M  V30 3136 H 281.044 -6.89846 3.6295 0
M  V30 3137 N 285.273 -1.31445 -0.869486 0
M  V30 3138 C 286.183 -1.21097 -2.0093 0
M  V30 3139 C 287.199 -0.127584 -1.73532 0
M  V30 3140 O 288.375 -0.345477 -1.98415 0
M  V30 3141 C 285.44 -0.919378 -3.34288 0
M  V30 3142 C 284.501 -2.08971 -3.75006 0
M  V30 3143 C 283.734 -1.81194 -5.02001 0
M  V30 3144 O 283.957 -0.747296 -5.65484 0
M  V30 3145 O 282.891 -2.66883 -5.39497 0
M  V30 3146 H 286.717 -2.16883 -2.12592 0
M  V30 3147 H 284.302 -1.11189 -0.997868 0
M  V30 3148 H 286.184 -0.772625 -4.14257 0
M  V30 3149 H 284.859 0.00844772 -3.23699 0
M  V30 3150 H 283.766 -2.29187 -2.95676 0
M  V30 3151 H 285.099 -2.9998 -3.90221 0
M  V30 3152 N 286.751 1.08385 -1.14413 0
M  V30 3153 C 287.684 2.14642 -0.774871 0
M  V30 3154 C 288.662 1.60761 0.243876 0
M  V30 3155 O 289.846 1.88031 0.132883 0
M  V30 3156 C 286.973 3.38366 -0.150491 0
M  V30 3157 C 286.019 4.10997 -1.13945 0
M  V30 3158 S 286.852 4.63797 -2.67679 0
M  V30 3159 C 288.008 5.90808 -2.06631 0
M  V30 3160 H 288.241 2.45633 -1.67487 0
M  V30 3161 H 285.774 1.20498 -0.96538 0
M  V30 3162 H 287.732 4.09996 0.203334 0
M  V30 3163 H 286.393 3.05572 0.72694 0
M  V30 3164 H 285.586 4.99783 -0.65059 0
M  V30 3165 H 285.188 3.4528 -1.43727 0
M  V30 3166 H 287.48 6.62411 -1.4219 0
M  V30 3167 H 288.423 6.4439 -2.93542 0
M  V30 3168 H 288.831 5.4383 -1.51357 0
M  V30 3169 N 288.23 0.939286 1.26551 0
M  V30 3170 C 289.193 0.451987 2.24699 0
M  V30 3171 C 290.193 -0.435869 1.5478 0
M  V30 3172 O 291.383 -0.235314 1.72603 0
M  V30 3173 C 288.515 -0.348801 3.39111 0
M  V30 3174 H 289.708 1.3193 2.69322 0
M  V30 3175 H 287.261 0.721072 1.38673 0
M  V30 3176 H 287.996 -1.23444 2.99887 0
M  V30 3177 H 287.781 0.287945 3.91041 0
M  V30 3178 H 289.271 -0.679726 4.12031 0
M  V30 3179 N 289.708 -1.40897 0.706093 0
M  V30 3180 C 290.655 -2.30751 0.0474474 0
M  V30 3181 C 291.625 -1.47678 -0.76029 0
M  V30 3182 O 292.81 -1.76441 -0.726177 0
M  V30 3183 C 289.95 -3.33815 -0.875309 0
M  V30 3184 C 289.063 -4.31961 -0.0580623 0
M  V30 3185 C 288.198 -5.22093 -0.979425 0
M  V30 3186 C 287.237 -6.11902 -0.155706 0
M  V30 3187 N 286.374 -6.94482 -1.03144 0
M  V30 3188 H 291.214 -2.86513 0.819413 0
M  V30 3189 H 288.751 -1.41102 0.415783 0
M  V30 3190 H 290.709 -3.92129 -1.42446 0
M  V30 3191 H 289.339 -2.79579 -1.61356 0
M  V30 3192 H 288.391 -3.75507 0.608147 0
M  V30 3193 H 289.703 -4.95415 0.580082 0
M  V30 3194 H 288.857 -5.85292 -1.59744 0
M  V30 3195 H 287.596 -4.5889 -1.65141 0
M  V30 3196 H 286.601 -5.47742 0.475309 0
M  V30 3197 H 287.826 -6.77162 0.512635 0
M  V30 3198 H 285.772 -6.33877 -1.68924 0
M  V30 3199 H 285.689 -7.54665 -0.449108 0
M  V30 3200 H 286.957 -7.6214 -1.63593 0
M  V30 3201 N 291.186 -0.45159 -1.50991 0
M  V30 3202 C 292.118 0.388634 -2.25881 0
M  V30 3203 C 293.131 0.974041 -1.30446 0
M  V30 3204 O 294.32 0.865758 -1.56099 0
M  V30 3205 C 291.42 1.5571 -3.01011 0
M  V30 3206 C 290.593 1.08801 -4.23652 0
M  V30 3207 C 289.652 2.12825 -4.8124 0
M  V30 3208 O 288.678 1.71678 -5.42693 0
M  V30 3209 N 289.88 3.45453 -4.66522 0
M  V30 3210 H 292.645 -0.25329 -2.98628 0
M  V30 3211 H 290.206 -0.281268 -1.59438 0
M  V30 3212 H 292.198 2.24952 -3.3642 0
M  V30 3213 H 290.768 2.10409 -2.31186 0
M  V30 3214 H 289.988 0.22215 -3.93574 0
M  V30 3215 H 291.276 0.752213 -5.03209 0
M  V30 3216 H 290.674 3.81605 -4.17605 0
M  V30 3217 H 289.231 4.10549 -5.06254 0
M  V30 3218 N 292.664 1.56529 -0.183458 0
M  V30 3219 C 293.574 2.22144 0.754272 0
M  V30 3220 C 294.59 1.21684 1.24374 0
M  V30 3221 O 295.766 1.54385 1.29333 0
M  V30 3222 C 292.831 2.85884 1.96141 0
M  V30 3223 C 291.892 4.01579 1.51765 0
M  V30 3224 C 291.125 4.6227 2.66725 0
M  V30 3225 O 291.348 4.21865 3.83909 0
M  V30 3226 O 290.282 5.51936 2.40104 0
M  V30 3227 H 294.108 3.02861 0.225527 0
M  V30 3228 H 291.693 1.49331 0.0453032 0
M  V30 3229 H 293.575 3.26253 2.66715 0
M  V30 3230 H 292.25 2.08154 2.47899 0
M  V30 3231 H 291.157 3.65856 0.781049 0
M  V30 3232 H 292.49 4.80938 1.04686 0
M  V30 3233 N 294.142 -0.090211 1.57342 0
M  V30 3234 C 295.558 -0.444547 1.53284 0
M  V30 3235 C 295.758 -1.80238 0.900914 0
M  V30 3236 O 294.814 -2.4759 0.495513 0
M  V30 3237 C 296.127 -0.402543 2.97993 0
M  V30 3238 C 297.675 -0.48405 3.09234 0
M  V30 3239 C 298.15 -0.472144 4.5556 0
M  V30 3240 N 299.641 -0.532757 4.60126 0
M  V30 3241 C 300.376 -0.545462 5.708 0
M  V30 3242 N 299.872 -0.514082 6.9089 0
M  V30 3243 N 301.665 -0.59064 5.58988 0
M  V30 3244 H 293.816 0.799121 1.96794 0
M  V30 3245 H 296.079 0.297965 0.899956 0
M  V30 3246 H 295.785 0.528106 3.47712 0
M  V30 3247 H 295.659 -1.21969 3.56936 0
M  V30 3248 H 298.046 -1.40512 2.595 0
M  V30 3249 H 298.127 0.361328 2.53235 0
M  V30 3250 H 297.771 0.445 5.05947 0
M  V30 3251 H 297.701 -1.3348 5.09402 0
M  V30 3252 H 300.192 -0.562006 3.73698 0
M  V30 3253 H 300.505 -0.527195 7.71 0
M  V30 3254 H 298.85 -0.481054 6.93333 0
M  V30 3255 H 302.041 -0.61272 4.64073 0
M  V30 3256 H 302.214 -0.597073 6.45243 0
M  V30 3257 N 295.62 -1.53406 -0.361157 0
M  V30 3258 C 296.55 -1.83136 -1.44857 0
M  V30 3259 C 297.531 -0.685174 -1.5569 0
M  V30 3260 O 298.716 -0.93544 -1.70186 0
M  V30 3261 C 295.846 -2.02522 -2.82138 0
M  V30 3262 C 294.8 -3.18302 -2.86126 0
M  V30 3263 C 294.126 -3.22989 -4.26125 0
M  V30 3264 C 295.426 -4.56796 -2.53248 0
M  V30 3265 H 297.12 -2.74201 -1.20226 0
M  V30 3266 H 294.666 -1.31938 -0.576922 0
M  V30 3267 H 296.619 -2.21904 -3.58241 0
M  V30 3268 H 295.343 -1.08172 -3.08166 0
M  V30 3269 H 294.002 -2.98747 -2.12475 0
M  V30 3270 H 293.65 -2.26267 -4.49235 0
M  V30 3271 H 293.35 -4.00781 -4.29708 0
M  V30 3272 H 294.874 -3.44559 -5.04094 0
M  V30 3273 H 296.288 -4.7631 -3.19064 0
M  V30 3274 H 294.685 -5.36862 -2.68141 0
M  V30 3275 H 295.755 -4.61606 -1.48484 0
M  V30 3276 N 297.098 0.621204 -1.44841 0
M  V30 3277 C 298.008 1.7612 -1.5498 0
M  V30 3278 C 299.024 1.68477 -0.434927 0
M  V30 3279 O 300.2 1.89076 -0.693693 0
M  V30 3280 C 297.265 3.1254 -1.50065 0
M  V30 3281 C 296.326 3.31741 -2.72482 0
M  V30 3282 C 295.559 4.61653 -2.67792 0
M  V30 3283 O 295.782 5.431 -1.74352 0
M  V30 3284 O 294.716 4.83271 -3.58794 0
M  V30 3285 H 298.542 1.70518 -2.51311 0
M  V30 3286 H 296.127 0.783643 -1.27198 0
M  V30 3287 H 298.009 3.93844 -1.49882 0
M  V30 3288 H 296.684 3.18663 -0.568806 0
M  V30 3289 H 295.591 2.50077 -2.7823 0
M  V30 3290 H 296.924 3.30486 -3.64746 0
M  V30 3291 N 298.576 1.31904 0.862503 0
M  V30 3292 C 299.825 1.21373 1.61094 0
M  V30 3293 C 300.138 -0.22504 1.94301 0
M  V30 3294 O 301.344 -0.452121 2.67709 0
M  V30 3295 C 299.8 2.12525 2.9045 0
M  V30 3296 C 299.408 3.61441 2.64697 0
M  V30 3297 C 301.152 2.10813 3.68454 0
M  V30 3298 C 299.059 4.44578 3.90006 0
M  V30 3299 H 297.989 0.450705 0.604468 0
M  V30 3300 H 300.64 1.56811 0.953027 0
M  V30 3301 H 299.022 1.69994 3.57656 0
M  V30 3302 H 300.196 4.12264 2.05851 0
M  V30 3303 H 298.511 3.65205 2.00036 0
M  V30 3304 H 301.108 2.70167 4.61426 0
M  V30 3305 H 301.451 1.09713 4.01583 0
M  V30 3306 H 301.984 2.51583 3.08141 0
M  V30 3307 H 298.723 5.46461 3.62023 0
M  V30 3308 H 298.243 3.98508 4.48276 0
M  V30 3309 H 299.922 4.57176 4.5782 0
M  V30 3310 N 300.054 -1.07777 1.14986 0
M  V30 3311 C 301.017 -2.13041 0.845358 0
M  V30 3312 C 302.017 -1.60071 -0.152931 0
M  V30 3313 O 303.207 -1.74033 0.0761879 0
M  V30 3314 C 300.339 -3.39896 0.261383 0
M  V30 3315 H 301.532 -2.41485 1.77834 0
M  V30 3316 H 299.085 -1.23595 0.956757 0
M  V30 3317 H 299.82 -3.17091 -0.68 0
M  V30 3318 H 299.605 -3.79642 0.980514 0
M  V30 3319 H 301.095 -4.17548 0.0657687 0
M  V30 3320 N 301.532 -0.945985 -1.26051 0
M  V30 3321 C 302.757 -0.612525 -1.98149 0
M  V30 3322 C 303.182 0.806623 -1.69927 0
M  V30 3323 O 302.54 1.54411 -0.950108 0
M  V30 3324 C 302.588 -0.866981 -3.50023 0
M  V30 3325 O 301.692 0.0585333 -4.12358 0
M  V30 3326 H 301.033 -0.23379 -0.621481 0
M  V30 3327 H 303.563 -1.27023 -1.60395 0
M  V30 3328 H 303.573 -0.789792 -4.00283 0
M  V30 3329 H 302.248 -1.90135 -3.69894 0
M  V30 3330 H 300.825 -0.0701241 -3.72834 0
M  V30 3331 N 303.011 1.40521 -0.713556 0
M  V30 3332 C 303.941 2.33381 -0.0743864 0
M  V30 3333 C 304.922 1.52784 0.747735 0
M  V30 3334 O 306.107 1.81258 0.697071 0
M  V30 3335 C 303.237 3.36748 0.849598 0
M  V30 3336 C 302.191 4.27793 0.133247 0
M  V30 3337 C 301.517 5.21679 1.17281 0
M  V30 3338 C 302.817 5.12415 -1.01134 0
M  V30 3339 H 304.511 2.87081 -0.850007 0
M  V30 3340 H 302.057 1.38034 -0.410201 0
M  V30 3341 H 304.01 4.00648 1.30612 0
M  V30 3342 H 302.734 2.81439 1.65709 0
M  V30 3343 H 301.393 3.65342 -0.303426 0
M  V30 3344 H 301.041 4.62677 1.9733 0
M  V30 3345 H 300.741 5.83435 0.698397 0
M  V30 3346 H 302.265 5.88456 1.62947 0
M  V30 3347 H 303.679 5.69781 -0.634274 0
M  V30 3348 H 302.076 5.83203 -1.41399 0
M  V30 3349 H 303.146 4.48514 -1.84292 0
M  V30 3350 N 304.489 0.459591 1.5075 0
M  V30 3351 C 305.714 -0.0996819 2.0716 0
M  V30 3352 C 306.139 -1.33761 1.32249 0
M  V30 3353 O 305.497 -1.77551 0.366786 0
M  V30 3354 C 305.545 -0.378226 3.58611 0
M  V30 3355 O 304.649 -1.46081 3.85661 0
M  V30 3356 H 303.99 0.00791392 0.663953 0
M  V30 3357 H 306.52 0.647329 1.9409 0
M  V30 3358 H 306.53 -0.622135 4.03229 0
M  V30 3359 H 305.205 0.526439 4.12555 0
M  V30 3360 H 303.782 -1.20511 3.5289 0
M  V30 3361 N 305.967 -1.56429 0.191757 0
M  V30 3362 C 306.915 -2.20273 -0.747174 0
M  V30 3363 C 307.909 -1.17288 -1.22229 0
M  V30 3364 O 309.115 -1.35441 -1.18557 0
M  V30 3365 H 305.49 -0.705885 -0.259289 0
M  V30 3366 H 307.461 -2.97826 -0.184963 0
M  V30 3367 C 306.21 -2.87356 -1.95759 0
M  V30 3368 H 305.533 -3.66341 -1.60106 0
M  V30 3369 H 306.973 -3.3547 -2.59299 0
M  V30 3370 C 305.432 -1.88213 -2.79423 0
M  V30 3371 O 305.962 -1.38033 -3.7724 0
M  V30 3372 N 304.168 -1.56516 -2.44849 0
M  V30 3373 H 303.715 -1.97516 -1.65364 0
M  V30 3374 H 303.673 -0.904369 -3.01112 0
M  V30 3375 N 307.445 0.0818655 -1.57387 0
M  V30 3376 C 308.377 1.12484 -1.997 0
M  V30 3377 C 309.39 1.35564 -0.90146 0
M  V30 3378 O 310.579 1.33982 -1.17945 0
M  V30 3379 C 307.679 2.47778 -2.31213 0
M  V30 3380 C 306.852 2.44793 -3.62485 0
M  V30 3381 C 305.911 3.62117 -3.81782 0
M  V30 3382 O 304.937 3.44005 -4.53486 0
M  V30 3383 N 306.139 4.82094 -3.23367 0
M  V30 3384 H 308.904 0.764585 -2.89783 0
M  V30 3385 H 306.465 0.270664 -1.59621 0
M  V30 3386 H 308.457 3.24891 -2.41304 0
M  V30 3387 H 307.027 2.75843 -1.4707 0
M  V30 3388 H 306.247 1.53134 -3.6324 0
M  V30 3389 H 307.535 2.39889 -4.48699 0
M  V30 3390 H 306.933 4.99713 -2.65148 0
M  V30 3391 H 305.49 5.56753 -3.38923 0
M  V30 3392 N 308.923 1.53595 0.353017 0
M  V30 3393 C 310.2 1.61002 1.11075 0
M  V30 3394 C 310.58 0.425356 2.0677 0
M  V30 3395 O 309.928 -0.583267 2.2093 0
M  V30 3396 C 310.138 2.96631 1.83877 0
M  V30 3397 C 311.486 3.51653 2.37961 0
M  V30 3398 O 312.51 2.98743 1.93987 0
M  V30 3399 O 311.369 4.44177 3.18386 0
M  V30 3400 H 308.463 0.650825 0.510251 0
M  V30 3401 H 311.009 1.6594 0.35527 0
M  V30 3402 H 309.781 3.74293 1.14108 0
M  V30 3403 H 309.404 2.95242 2.66304 0
M  V30 3404 N 310.401 -0.613514 1.45168 0
M  V30 3405 C 311.351 -1.71871 1.49815 0
M  V30 3406 C 312.335 -1.56774 0.362021 0
M  V30 3407 O 313.527 -1.66212 0.608493 0
M  V30 3408 C 310.656 -3.1061 1.46207 0
M  V30 3409 C 309.742 -3.31114 2.64999 0
M  V30 3410 N 310.133 -3.21904 3.90143 0
M  V30 3411 C 308.431 -3.61966 2.6057 0
M  V30 3412 C 309.132 -3.43577 4.69393 0
M  V30 3413 N 308.108 -3.67287 4.00751 0
M  V30 3414 H 311.91 -1.63235 2.444 0
M  V30 3415 H 309.424 -0.816577 1.40377 0
M  V30 3416 H 311.421 -3.8989 1.4762 0
M  V30 3417 H 310.081 -3.20399 0.52673 0
M  V30 3418 H 311.092 -3.00436 4.21852 0
M  V30 3419 H 307.769 -3.78629 1.75916 0
M  V30 3420 H 309.159 -3.41901 5.78406 0
M  V30 3421 N 311.879 -1.3236 -0.855495 0
M  V30 3422 C 313.107 -1.2587 -1.64208 0
M  V30 3423 C 313.522 0.173457 -1.88002 0
M  V30 3424 O 312.879 1.11027 -1.44842 0
M  V30 3425 C 312.93 -2.01424 -3.00184 0
M  V30 3426 O 312.651 -3.39051 -2.77445 0
M  V30 3427 C 314.152 -2.01948 -3.94629 0
M  V30 3428 H 311.372 -0.434318 -0.511477 0
M  V30 3429 H 313.916 -1.74469 -1.0668 0
M  V30 3430 H 312.071 -1.56549 -3.5436 0
M  V30 3431 H 312.485 -3.77711 -3.63916 0
M  V30 3432 H 313.959 -2.59297 -4.87308 0
M  V30 3433 H 314.436 -1.00554 -4.27534 0
M  V30 3434 H 315.042 -2.46767 -3.4639 0
M  V30 3435 N 313.357 1.07166 -1.15556 0
M  V30 3436 C 314.582 1.84053 -0.955988 0
M  V30 3437 C 315.007 1.81586 0.490739 0
M  V30 3438 O 314.365 1.21018 1.34997 0
M  V30 3439 C 314.413 3.28957 -1.47714 0
M  V30 3440 O 313.517 4.06795 -0.677593 0
M  V30 3441 H 312.858 0.569842 -0.340847 0
M  V30 3442 H 315.388 1.35178 -1.53584 0
M  V30 3443 H 315.398 3.79788 -1.4908 0
M  V30 3444 H 314.073 3.30068 -2.53037 0
M  V30 3445 H 312.65 3.6561 -0.733721 0
M  V30 3446 N 314.835 0.952656 1.25548 0
M  V30 3447 C 315.782 0.47008 2.25962 0
M  V30 3448 C 316.752 -0.476384 1.59122 0
M  V30 3449 O 317.937 -0.39007 1.8677 0
M  V30 3450 C 315.077 -0.247881 3.44209 0
M  V30 3451 C 314.19 0.735591 4.25691 0
M  V30 3452 C 313.325 -0.0047306 5.312 0
M  V30 3453 C 312.364 0.969805 6.04368 0
M  V30 3454 N 311.501 0.260486 7.01617 0
M  V30 3455 H 316.341 1.33126 2.66611 0
M  V30 3456 H 313.878 0.66765 1.31076 0
M  V30 3457 H 315.836 -0.680695 4.1161 0
M  V30 3458 H 314.466 -1.07312 3.0444 0
M  V30 3459 H 313.518 1.28689 3.57971 0
M  V30 3460 H 314.83 1.47934 4.76358 0
M  V30 3461 H 313.984 -0.496275 6.04667 0
M  V30 3462 H 312.723 -0.781282 4.81401 0
M  V30 3463 H 311.728 1.47237 5.29718 0
M  V30 3464 H 312.953 1.74655 6.56256 0
M  V30 3465 H 310.899 -0.497364 6.54112 0
M  V30 3466 H 310.816 0.943362 7.50091 0
M  V30 3467 H 312.084 -0.209587 7.79218 0
M  V30 3468 N 316.313 -1.40141 0.720998 0
M  V30 3469 C 317.26 -2.30688 0.071919 0
M  V30 3470 C 318.23 -1.48476 -0.744584 0
M  V30 3471 O 319.415 -1.77201 -0.707423 0
M  V30 3472 C 316.555 -3.34724 -0.839855 0
M  V30 3473 C 315.668 -4.31998 -0.0122438 0
M  V30 3474 C 314.803 -5.23102 -0.923995 0
M  V30 3475 C 313.842 -6.12033 -0.0907969 0
M  V30 3476 N 312.979 -6.95537 -0.957718 0
M  V30 3477 H 317.819 -2.85628 0.849755 0
M  V30 3478 H 315.356 -1.40653 0.430726 0
M  V30 3479 H 317.314 -3.93618 -1.38279 0
M  V30 3480 H 315.944 -2.81274 -1.58381 0
M  V30 3481 H 314.996 -3.74841 0.64794 0
M  V30 3482 H 316.308 -4.94772 0.632595 0
M  V30 3483 H 315.462 -5.86953 -1.53527 0
M  V30 3484 H 314.201 -4.60615 -1.60264 0
M  V30 3485 H 313.206 -5.47207 0.533377 0
M  V30 3486 H 314.431 -6.76581 0.584428 0
M  V30 3487 H 312.377 -6.35633 -1.62192 0
M  V30 3488 H 312.294 -7.55099 -0.36904 0
M  V30 3489 H 313.562 -7.63832 -1.555 0
M  V30 3490 N 317.792 -0.46758 -1.50504 0
M  V30 3491 C 319.069 0.15003 -1.95024 0
M  V30 3492 C 319.449 1.57304 -1.40779 0
M  V30 3493 O 318.797 2.20281 -0.607319 0
M  V30 3494 C 319.007 0.0969324 -3.48865 0
M  V30 3495 C 320.355 0.287565 -4.23625 0
M  V30 3496 O 321.379 0.173678 -3.55776 0
M  V30 3497 O 320.238 0.517186 -5.44047 0
M  V30 3498 H 317.332 0.113582 -0.819163 0
M  V30 3499 H 319.878 -0.52773 -1.61286 0
M  V30 3500 H 318.65 -0.896732 -3.80886 0
M  V30 3501 H 318.273 0.816303 -3.8913 0
M  V30 3502 N 319.27 1.56325 -0.20005 0
M  V30 3503 C 320.681 1.8408 0.31167 0
M  V30 3504 C 321.032 1.12087 1.61031 0
M  V30 3505 O 320.157 0.38332 2.12978 0
M  V30 3506 C 320.752 3.33932 0.57226 0
M  V30 3507 C 319.311 3.6208 1.02834 0
M  V30 3508 C 318.458 2.77186 0.079634 0
M  V30 3509 H 321.409 1.52939 -0.423729 0
M  V30 3510 H 321.43 3.52971 1.42096 0
M  V30 3511 H 320.942 3.86303 -0.37308 0
M  V30 3512 H 319.043 3.15147 1.98778 0
M  V30 3513 H 319.156 4.7023 0.917624 0
M  V30 3514 H 317.52 2.47951 0.582448 0
M  V30 3515 H 318.303 3.32347 -0.860238 0
M  V30 3516 N 320.748 -0.0735177 1.57428 0
M  V30 3517 C 321.996 -0.771472 1.86796 0
M  V30 3518 C 322.317 -1.78201 0.791804 0
M  V30 3519 O 321.587 -1.95074 -0.179718 0
M  V30 3520 H 320.167 -0.28791 0.689287 0
M  V30 3521 H 322.829 -0.0500161 1.94836 0
M  V30 3522 H 321.925 -1.28874 2.8425 0
M  V30 3523 N 322.226 -1.5378 -0.344866 0
M  V30 3524 C 323.474 -1.70625 -1.08311 0
M  V30 3525 C 323.795 -0.471447 -1.89215 0
M  V30 3526 O 323.065 0.514616 -1.8902 0
M  V30 3527 H 321.645 -0.629058 -0.402859 0
M  V30 3528 H 324.307 -1.9103 -0.386459 0
M  V30 3529 H 323.403 -2.57656 -1.76124 0
M  V30 3530 N 323.704 0.605807 -1.45491 0
M  V30 3531 C 324.654 1.71074 -1.50724 0
M  V30 3532 C 325.638 1.5658 -0.37033 0
M  V30 3533 O 326.83 1.65887 -0.617299 0
M  V30 3534 C 323.959 3.0983 -1.47852 0
M  V30 3535 C 323.045 3.29704 -2.66751 0
M  V30 3536 N 323.436 3.19831 -3.91844 0
M  V30 3537 C 321.734 3.60579 -2.62486 0
M  V30 3538 C 322.435 3.41083 -4.71208 0
M  V30 3539 N 321.411 3.65157 -4.02693 0
M  V30 3540 H 325.213 1.61937 -2.45263 0
M  V30 3541 H 322.727 0.80912 -1.40808 0
M  V30 3542 H 324.724 3.89101 -1.49686 0
M  V30 3543 H 323.384 3.20115 -0.543714 0
M  V30 3544 H 324.395 2.98194 -4.23439 0
M  V30 3545 H 321.072 3.7769 -1.77922 0
M  V30 3546 H 322.462 3.38828 -5.80211 0
M  V30 3547 N 325.182 1.32811 0.848464 0
M  V30 3548 C 326.598 1.11937 1.13764 0
M  V30 3549 C 326.798 -0.0960789 2.01271 0
M  V30 3550 O 325.854 -0.779165 2.40178 0
M  V30 3551 C 327.167 2.402 1.809 0
M  V30 3552 C 328.715 2.46016 1.93508 0
M  V30 3553 C 329.19 3.74215 2.64059 0
M  V30 3554 N 330.681 3.75232 2.71579 0
M  V30 3555 C 331.416 4.71134 3.26833 0
M  V30 3556 N 330.912 5.77406 3.8285 0
M  V30 3557 N 332.705 4.58623 3.24995 0
M  V30 3558 H 324.856 2.1073 0.265855 0
M  V30 3559 H 327.119 0.930671 0.180431 0
M  V30 3560 H 326.825 3.29093 1.24058 0
M  V30 3561 H 326.699 2.51628 2.81004 0
M  V30 3562 H 329.086 1.57577 2.49506 0
M  V30 3563 H 329.167 2.38536 0.923811 0
M  V30 3564 H 328.811 4.63031 2.08722 0
M  V30 3565 H 328.741 3.78968 3.65637 0
M  V30 3566 H 331.232 2.98423 2.31845 0
M  V30 3567 H 331.545 6.46632 4.23187 0
M  V30 3568 H 329.89 5.81152 3.81165 0
M  V30 3569 H 333.081 3.74762 2.80484 0
M  V30 3570 H 333.254 5.33535 3.67756 0
M  V30 3571 N 326.66 -1.06551 1.16123 0
M  V30 3572 C 327.888 -1.83005 0.965237 0
M  V30 3573 C 328.303 -1.82423 -0.486542 0
M  V30 3574 O 327.66 -1.24152 -1.33763 0
M  V30 3575 C 327.711 -3.29733 1.48183 0
M  V30 3576 O 327.432 -3.30416 2.87674 0
M  V30 3577 C 328.933 -4.22926 1.32848 0
M  V30 3578 H 326.153 -0.577118 0.342309 0
M  V30 3579 H 328.697 -1.3445 1.54089 0
M  V30 3580 H 326.852 -3.75609 0.948517 0
M  V30 3581 H 327.266 -4.22149 3.11272 0
M  V30 3582 H 328.74 -5.23916 1.73827 0
M  V30 3583 H 329.217 -4.38346 0.273692 0
M  V30 3584 H 329.823 -3.82894 1.85127 0
M  V30 3585 N 328.138 -0.959301 -1.25041 0
M  V30 3586 C 329.101 -0.487677 -2.23952 0
M  V30 3587 C 330.101 0.41119 -1.55454 0
M  V30 3588 O 331.291 0.207825 -1.72956 0
M  V30 3589 C 328.423 0.294807 -3.39623 0
M  V30 3590 H 329.616 -1.36198 -2.67189 0
M  V30 3591 H 327.169 -0.743042 -1.37508 0
M  V30 3592 H 327.904 1.18658 -3.01813 0
M  V30 3593 H 327.689 -0.35012 -3.90534 0
M  V30 3594 H 329.179 0.614089 -4.1306 0
M  V30 3595 N 329.616 1.39756 -0.72842 0
M  V30 3596 C 330.579 2.29012 -0.0927297 0
M  V30 3597 C 331.579 1.45992 0.674025 0
M  V30 3598 O 332.769 1.66749 0.50402 0
M  V30 3599 C 329.901 3.29396 0.878137 0
M  V30 3600 H 331.094 2.86729 -0.879011 0
M  V30 3601 H 328.647 1.48293 -0.493847 0
M  V30 3602 H 329.382 2.76722 1.69101 0
M  V30 3603 H 329.167 3.907 0.331051 0
M  V30 3604 H 330.657 3.96199 1.3197 0
M  V30 3605 N 331.094 0.475555 1.50254 0
M  V30 3606 C 332.343 -0.0795996 2.01543 0
M  V30 3607 C 332.656 -1.4038 1.36209 0
M  V30 3608 O 333.862 -2.04415 1.7868 0
M  V30 3609 C 332.318 -0.192363 3.59386 0
M  V30 3610 C 331.926 1.12367 4.33679 0
M  V30 3611 C 333.67 -0.699238 4.18701 0
M  V30 3612 C 331.577 0.974453 5.83317 0
M  V30 3613 H 330.507 -0.0335228 0.753254 0
M  V30 3614 H 333.158 0.611128 1.73025 0
M  V30 3615 H 331.54 -0.946974 3.84511 0
M  V30 3616 H 332.714 1.88958 4.20276 0
M  V30 3617 H 331.029 1.562 3.85993 0
M  V30 3618 H 333.626 -0.827978 5.28251 0
M  V30 3619 H 333.969 -1.69171 3.80377 0
M  V30 3620 H 334.502 -0.00188807 3.978 0
M  V30 3621 H 331.241 1.94042 6.26121 0
M  V30 3622 H 330.761 0.248998 5.99283 0
M  V30 3623 H 332.44 0.642867 6.43798 0
M  V30 3624 N 332.573 -1.56217 0.208337 0
M  V30 3625 C 333.503 -2.22694 -0.702116 0
M  V30 3626 C 334.484 -1.19432 -1.2112 0
M  V30 3627 O 335.669 -1.47978 -1.25762 0
M  V30 3628 C 332.799 -2.8966 -1.9161 0
M  V30 3629 C 331.753 -3.9928 -1.5414 0
M  V30 3630 C 331.079 -4.53476 -2.83308 0
M  V30 3631 C 332.379 -5.17012 -0.741339 0
M  V30 3632 H 334.073 -2.99034 -0.147898 0
M  V30 3633 H 331.619 -1.43831 -0.0696951 0
M  V30 3634 H 333.572 -3.34852 -2.55836 0
M  V30 3635 H 332.296 -2.10746 -2.49507 0
M  V30 3636 H 330.955 -3.54799 -0.922668 0
M  V30 3637 H 330.603 -3.71308 -3.39322 0
M  V30 3638 H 330.303 -5.27451 -2.58976 0
M  V30 3639 H 331.827 -5.01378 -3.485 0
M  V30 3640 H 333.241 -5.58667 -1.28699 0
M  V30 3641 H 331.638 -5.97137 -0.595627 0
M  V30 3642 H 332.708 -4.8423 0.254851 0
M  V30 3643 N 334.051 0.0651679 -1.57465 0
M  V30 3644 C 335.001 1.0838 -2.00594 0
M  V30 3645 C 335.985 1.34106 -0.889071 0
M  V30 3646 O 337.177 1.34295 -1.15299 0
M  V30 3647 C 334.306 2.39565 -2.45894 0
M  V30 3648 C 333.392 2.17085 -3.64328 0
M  V30 3649 N 333.783 1.64553 -4.78285 0
M  V30 3650 C 332.081 2.4753 -3.71006 0
M  V30 3651 C 332.782 1.57042 -5.60101 0
M  V30 3652 N 331.758 2.03328 -5.04141 0
M  V30 3653 H 335.56 0.671062 -2.86136 0
M  V30 3654 H 333.074 0.27213 -1.60104 0
M  V30 3655 H 335.071 3.13308 -2.75034 0
M  V30 3656 H 333.731 2.81549 -1.61741 0
M  V30 3657 H 334.742 1.33323 -5.00445 0
M  V30 3658 H 331.419 2.92835 -2.9758 0
M  V30 3659 H 332.809 1.17223 -6.61595 0
M  V30 3660 N 335.529 1.53961 0.336706 0
M  V30 3661 C 336.777 1.71197 1.07405 0
M  V30 3662 C 337.098 0.481475 1.88962 0
M  V30 3663 O 336.368 -0.504585 1.8929 0
M  V30 3664 H 334.948 0.631185 0.399517 0
M  V30 3665 H 337.61 1.91232 0.376323 0
M  V30 3666 H 336.706 2.58587 1.74755 0
M  V30 3667 N 337.007 -0.598083 1.45811 0
M  V30 3668 C 338.255 -1.35413 1.50026 0
M  V30 3669 C 338.576 -1.94444 0.147177 0
M  V30 3670 O 337.846 -1.77701 -0.824571 0
M  V30 3671 H 336.426 -0.502727 0.552517 0
M  V30 3672 H 339.088 -0.701606 1.81834 0
M  V30 3673 H 338.184 -2.16871 2.2444 0
M  V30 3674 N 338.485 -1.33259 -0.841409 0
M  V30 3675 C 339.71 -1.2775 -1.63385 0
M  V30 3676 C 340.135 0.149188 -1.87507 0
M  V30 3677 O 339.493 1.10498 -1.43736 0
M  V30 3678 C 339.541 -2.05571 -2.96265 0
M  V30 3679 O 338.645 -1.41257 -3.87453 0
M  V30 3680 H 337.986 -0.439627 -0.497618 0
M  V30 3681 H 340.516 -1.75782 -1.04699 0
M  V30 3682 H 340.526 -2.16241 -3.45982 0
M  V30 3683 H 339.201 -3.09309 -2.7803 0
M  V30 3684 H 337.778 -1.39217 -3.45938 0
M  V30 3685 N 339.963 1.05934 -1.16686 0
M  V30 3686 C 341.374 1.60263 -0.957745 0
M  V30 3687 C 341.725 1.89789 0.49745 0
M  V30 3688 O 340.85 1.67401 1.37135 0
M  V30 3689 C 341.445 2.91172 -1.73218 0
M  V30 3690 C 340.004 3.42188 -1.56794 0
M  V30 3691 C 339.151 2.16028 -1.73859 0
M  V30 3692 H 342.102 0.888392 -1.31504 0
M  V30 3693 H 342.123 3.60744 -1.21014 0
M  V30 3694 H 341.635 2.6965 -2.79124 0
M  V30 3695 H 339.736 3.68762 -0.533437 0
M  V30 3696 H 339.849 4.17273 -2.35414 0
M  V30 3697 H 338.213 2.26426 -1.16633 0
M  V30 3698 H 338.996 1.96985 -2.81161 0
M  V30 3699 N 341.441 0.965919 1.2453 0
M  V30 3700 C 342.718 0.543777 1.87889 0
M  V30 3701 C 343.098 -0.97909 1.87021 0
M  V30 3702 O 342.446 -1.84969 1.3416 0
M  V30 3703 C 342.656 1.13327 3.30088 0
M  V30 3704 C 344.004 1.21707 4.06783 0
M  V30 3705 O 345.028 1.08566 3.39252 0
M  V30 3706 O 343.887 1.42456 5.27606 0
M  V30 3707 H 340.981 0.181054 0.806938 0
M  V30 3708 H 343.527 1.06007 1.32516 0
M  V30 3709 H 342.299 2.17612 3.25209 0
M  V30 3710 H 341.922 0.600911 3.93033 0
M  V30 3711 N 342.919 -1.39368 0.735821 0
M  V30 3712 C 344.166 -2.00497 0.284123 0
M  V30 3713 C 344.494 -1.58387 -1.12889 0
M  V30 3714 O 343.749 -0.804359 -1.78406 0
M  V30 3715 C 344.048 -3.5583 0.334651 0
M  V30 3716 C 343.714 -4.17593 1.7008 0
M  V30 3717 C 342.376 -4.34176 2.07472 0
M  V30 3718 C 344.728 -4.51848 2.59775 0
M  V30 3719 C 342.056 -4.82304 3.34065 0
M  V30 3720 C 344.408 -5.01384 3.85741 0
M  V30 3721 C 343.072 -5.16175 4.23225 0
M  V30 3722 H 342.342 -0.73367 0.103968 0
M  V30 3723 H 344.989 -1.66683 0.942825 0
M  V30 3724 H 343.294 -3.89674 -0.407625 0
M  V30 3725 H 344.991 -4.00986 -0.0329927 0
M  V30 3726 H 341.581 -4.05087 1.40008 0
M  V30 3727 H 345.765 -4.38653 2.32157 0
M  V30 3728 H 341.021 -4.91941 3.63049 0
M  V30 3729 H 345.195 -5.26863 4.55399 0
M  V30 3730 H 342.822 -5.5323 5.21384 0
M  V30 3731 N 344.397 -0.483516 -1.5 0
M  V30 3732 C 345.643 0.0672592 -2.02688 0
M  V30 3733 C 345.976 1.38247 -1.36387 0
M  V30 3734 O 345.251 1.88131 -0.493675 0
M  V30 3735 C 345.534 0.238109 -3.59312 0
M  V30 3736 C 345.387 -1.099 -4.36168 0
M  V30 3737 C 346.706 0.986916 -4.28892 0
M  V30 3738 H 343.825 0.0229696 -0.736642 0
M  V30 3739 H 346.467 -0.631527 -1.79197 0
M  V30 3740 H 344.617 0.8333 -3.79458 0
M  V30 3741 H 346.289 -1.73172 -4.27562 0
M  V30 3742 H 344.532 -1.69261 -3.99416 0
M  V30 3743 H 345.203 -0.932954 -5.44059 0
M  V30 3744 H 347.679 0.482302 -4.13295 0
M  V30 3745 H 346.555 1.07527 -5.38265 0
M  V30 3746 H 346.816 2.0265 -3.92919 0
M  V30 3747 N 345.875 1.56104 -0.216619 0
M  V30 3748 C 347.123 1.97781 0.415593 0
M  V30 3749 C 347.444 1.10536 1.60645 0
M  V30 3750 O 346.714 0.181303 1.95059 0
M  V30 3751 H 345.294 0.730415 0.156534 0
M  V30 3752 H 347.956 1.92445 -0.308366 0
M  V30 3753 H 347.052 3.03072 0.74525 0
M  V30 3754 N 347.353 -0.0568162 1.57498 0
M  V30 3755 C 348.301 -1.08452 2.05769 0
M  V30 3756 C 349.295 -1.39164 0.965903 0
M  V30 3757 O 350.501 -1.38395 1.15095 0
M  V30 3758 H 346.876 -0.367148 0.656282 0
M  V30 3759 H 348.847 -0.651368 2.91204 0
M  V30 3760 C 347.596 -2.38543 2.52968 0
M  V30 3761 H 346.919 -2.15765 3.36579 0
M  V30 3762 H 348.359 -3.08863 2.90481 0
M  V30 3763 C 346.818 -3.05562 1.41893 0
M  V30 3764 O 347.348 -3.94262 0.769442 0
M  V30 3765 N 345.554 -2.6643 1.16032 0
M  V30 3766 H 345.101 -1.94387 1.6903 0
M  V30 3767 H 345.059 -3.11593 0.419219 0
M  V30 3768 N 348.832 -1.54138 -0.328536 0
M  V30 3769 C 350.08 -1.71765 -1.06496 0
M  V30 3770 C 350.401 -0.49149 -1.88704 0
M  V30 3771 O 349.671 0.494539 -1.89555 0
M  V30 3772 H 348.251 -0.633295 -0.396164 0
M  V30 3773 H 350.913 -1.91429 -0.366176 0
M  V30 3774 H 350.009 -2.5951 -1.73381 0
M  V30 3775 N 350.31 0.590341 -1.46126 0
M  V30 3776 C 351.257 1.69994 -1.56111 0
M  V30 3777 C 352.227 1.61065 -0.405867 0
M  V30 3778 O 353.412 1.8039 -0.621613 0
M  V30 3779 C 350.552 3.08326 -1.55013 0
M  V30 3780 C 349.665 3.27936 -2.81215 0
M  V30 3781 C 348.8 4.56473 -2.71673 0
M  V30 3782 C 347.839 4.694 -3.92849 0
M  V30 3783 N 346.976 5.89254 -3.81738 0
M  V30 3784 H 351.816 1.60797 -2.50895 0
M  V30 3785 H 349.353 0.783799 -1.24479 0
M  V30 3786 H 351.311 3.88383 -1.52362 0
M  V30 3787 H 349.941 3.16439 -0.637667 0
M  V30 3788 H 348.993 2.41536 -2.93879 0
M  V30 3789 H 350.305 3.33357 -3.71045 0
M  V30 3790 H 349.459 5.44748 -2.67085 0
M  V30 3791 H 348.198 4.53477 -1.7947 0
M  V30 3792 H 347.203 3.79544 -3.97777 0
M  V30 3793 H 348.428 4.7418 -4.86138 0
M  V30 3794 H 346.374 5.87271 -2.92317 0
M  V30 3795 H 346.291 5.95911 -4.65217 0
M  V30 3796 H 347.559 6.79981 -3.81112 0
M  V30 3797 N 351.788 1.33704 0.83433 0
M  V30 3798 C 352.738 1.20899 1.93306 0
M  V30 3799 C 353.722 0.110783 1.60518 0
M  V30 3800 O 354.914 0.339331 1.73717 0
M  V30 3801 C 352.043 0.955018 3.29749 0
M  V30 3802 C 351.129 2.09587 3.68692 0
M  V30 3803 N 351.52 3.34621 3.79292 0
M  V30 3804 C 349.818 2.00358 3.98463 0
M  V30 3805 C 350.519 4.09472 4.13167 0
M  V30 3806 N 349.495 3.37954 4.25779 0
M  V30 3807 H 353.297 2.15665 1.99664 0
M  V30 3808 H 350.811 1.25777 1.02732 0
M  V30 3809 H 352.808 0.844208 4.08263 0
M  V30 3810 H 351.468 0.0159317 3.24696 0
M  V30 3811 H 352.479 3.69313 3.63082 0
M  V30 3812 H 349.156 1.14137 4.01596 0
M  V30 3813 H 350.546 5.17391 4.28668 0
M  V30 3814 N 353.266 -1.05314 1.17247 0
M  V30 3815 C 354.682 -1.30452 0.919473 0
M  V30 3816 C 354.882 -1.9703 -0.42209 0
M  V30 3817 O 353.938 -2.24311 -1.15935 0
M  V30 3818 C 355.251 -2.17551 2.07586 0
M  V30 3819 C 356.799 -2.30937 2.11275 0
M  V30 3820 C 357.274 -3.21396 3.26296 0
M  V30 3821 N 358.765 -3.28981 3.26076 0
M  V30 3822 C 359.5 -3.99095 4.11716 0
M  V30 3823 N 358.996 -4.71648 5.07465 0
M  V30 3824 N 360.789 -3.95247 3.9967 0
M  V30 3825 H 352.94 -0.604988 2.03602 0
M  V30 3826 H 355.203 -0.329368 0.888944 0
M  V30 3827 H 354.909 -1.75921 3.0454 0
M  V30 3828 H 354.783 -3.18182 2.02584 0
M  V30 3829 H 357.17 -2.71809 1.14907 0
M  V30 3830 H 357.251 -1.2994 2.20339 0
M  V30 3831 H 356.895 -2.81238 4.22927 0
M  V30 3832 H 356.825 -4.22395 3.14467 0
M  V30 3833 H 359.316 -2.77286 2.5675 0
M  V30 3834 H 359.629 -5.22705 5.6921 0
M  V30 3835 H 357.974 -4.70594 5.11435 0
M  V30 3836 H 361.165 -3.37691 3.24164 0
M  V30 3837 H 361.338 -4.4962 4.66632 0
M  V30 3838 N 354.744 -0.972509 -1.24016 0
M  V30 3839 C 355.707 -0.511403 -2.23422 0
M  V30 3840 C 356.707 0.394679 -1.55881 0
M  V30 3841 O 357.897 0.189469 -1.73167 0
M  V30 3842 C 355.029 0.258769 -3.39916 0
M  V30 3843 H 356.222 -1.39024 -2.6573 0
M  V30 3844 H 353.775 -0.757585 -1.36713 0
M  V30 3845 H 354.51 1.1545 -3.03054 0
M  V30 3846 H 354.295 -0.391522 -3.9014 0
M  V30 3847 H 355.785 0.570244 -4.13688 0
M  V30 3848 N 356.222 1.38976 -0.743202 0
M  V30 3849 C 357.17 2.32394 -0.0978389 0
M  V30 3850 C 358.164 1.53486 0.716824 0
M  V30 3851 O 359.37 1.69092 0.617088 0
M  V30 3852 H 355.745 0.75189 -0.0128402 0
M  V30 3853 H 357.716 2.84441 -0.901981 0
M  V30 3854 C 356.465 3.38629 0.789036 0
M  V30 3855 H 355.788 3.99432 0.171559 0
M  V30 3856 H 357.228 4.06426 1.20807 0
M  V30 3857 C 355.687 2.76347 1.92702 0
M  V30 3858 O 356.217 2.64836 3.02034 0
M  V30 3859 N 354.423 2.34311 1.71891 0
M  V30 3860 H 353.97 2.43873 0.829675 0
M  V30 3861 H 353.928 1.9298 2.48205 0
M  V30 3862 N 357.7 0.491464 1.49741 0
M  V30 3863 C 358.925 -0.0557177 2.07325 0
M  V30 3864 C 359.35 -1.30925 1.35056 0
M  V30 3865 O 358.708 -1.76733 0.404365 0
M  V30 3866 C 358.756 -0.302074 3.59333 0
M  V30 3867 O 357.86 -1.37868 3.88672 0
M  V30 3868 H 357.201 0.0219956 0.663636 0
M  V30 3869 H 359.731 0.688352 1.92673 0
M  V30 3870 H 359.741 -0.536464 4.04458 0
M  V30 3871 H 358.416 0.61383 4.11345 0
M  V30 3872 H 356.993 -1.12999 3.55367 0
M  V30 3873 N 359.178 -1.55987 0.224894 0
M  V30 3874 C 360.403 -2.03232 -0.41369 0
M  V30 3875 C 360.828 -1.10359 -1.52323 0
M  V30 3876 O 360.186 -0.092395 -1.81064 0
M  V30 3877 C 360.234 -3.48682 -0.919405 0
M  V30 3878 O 359.338 -3.58947 -2.03054 0
M  V30 3879 H 358.679 -0.657428 -0.0931903 0
M  V30 3880 H 361.209 -2.01679 0.34451 0
M  V30 3881 H 361.219 -3.8907 -1.22835 0
M  V30 3882 H 359.894 -4.15761 -0.107339 0
M  V30 3883 H 358.471 -3.30448 -1.72796 0
M  V30 3884 N 360.656 0.0484629 -1.57525 0
M  V30 3885 C 361.904 0.741657 -1.88 0
M  V30 3886 C 362.225 1.76918 -0.820054 0
M  V30 3887 O 361.495 1.95335 0.148661 0
M  V30 3888 H 360.075 0.276908 -0.69378 0
M  V30 3889 H 362.737 0.019013 -1.94891 0
M  V30 3890 H 361.833 1.24336 -2.86264 0
M  V30 3891 N 362.134 1.5431 0.320358 0
M  V30 3892 C 363.55 1.45091 0.664889 0
M  V30 3893 C 363.75 0.626382 1.91517 0
M  V30 3894 O 362.806 0.126443 2.52183 0
M  V30 3895 C 364.119 2.88848 0.83591 0
M  V30 3896 C 365.667 2.9877 0.933046 0
M  V30 3897 C 366.142 4.43683 1.13621 0
M  V30 3898 N 367.633 4.47309 1.20287 0
M  V30 3899 C 368.368 5.56595 1.37801 0
M  V30 3900 N 367.864 6.75844 1.52338 0
M  V30 3901 N 369.657 5.44248 1.40535 0
M  V30 3902 H 361.808 2.06398 -0.501374 0
M  V30 3903 H 364.071 0.933963 -0.162534 0
M  V30 3904 H 363.777 3.51698 -0.0116092 0
M  V30 3905 H 363.651 3.35148 1.73078 0
M  V30 3906 H 366.038 2.36045 1.77107 0
M  V30 3907 H 366.119 2.55796 0.0145782 0
M  V30 3908 H 365.763 5.06995 0.303032 0
M  V30 3909 H 365.693 4.84269 2.0686 0
M  V30 3910 H 368.184 3.61388 1.10485 0
M  V30 3911 H 368.497 7.54892 1.65403 0
M  V30 3912 H 366.842 6.78746 1.4943 0
M  V30 3913 H 370.033 4.50038 1.28777 0
M  V30 3914 H 370.206 6.29473 1.53842 0
M  V30 3915 N 363.613 -0.582584 1.46437 0
M  V30 3916 C 364.838 -1.37168 1.55563 0
M  V30 3917 C 365.263 -1.87061 0.19743 0
M  V30 3918 O 364.621 -1.61572 -0.822451 0
M  V30 3919 C 364.669 -2.53511 2.56446 0
M  V30 3920 O 363.773 -3.54953 2.09958 0
M  V30 3921 H 363.114 -0.408494 0.523477 0
M  V30 3922 H 365.644 -0.706646 1.9201 0
M  V30 3923 H 365.654 -3.00426 2.76058 0
M  V30 3924 H 364.329 -2.16549 3.55076 0
M  V30 3925 H 362.906 -3.14516 2.00334 0
M  V30 3926 N 365.091 -1.34144 -0.827227 0
M  V30 3927 C 366.507 -1.13732 -1.11969 0
M  V30 3928 C 366.707 0.0640463 -2.01398 0
M  V30 3929 O 365.763 0.740856 -2.41387 0
M  V30 3930 C 367.076 -2.43047 -1.77055 0
M  V30 3931 C 368.624 -2.49063 -1.89569 0
M  V30 3932 C 369.099 -3.78369 -2.58072 0
M  V30 3933 N 370.59 -3.79505 -2.65575 0
M  V30 3934 C 371.325 -4.76274 -3.19297 0
M  V30 3935 N 370.821 -5.83424 -3.73616 0
M  V30 3936 N 372.614 -4.63735 -3.17658 0
M  V30 3937 H 364.765 -2.11126 -0.232296 0
M  V30 3938 H 367.028 -0.933424 -0.165602 0
M  V30 3939 H 366.734 -3.31025 -1.18807 0
M  V30 3940 H 366.608 -2.56066 -2.76966 0
M  V30 3941 H 368.995 -1.61527 -2.46968 0
M  V30 3942 H 369.076 -2.39975 -0.885745 0
M  V30 3943 H 368.72 -4.66293 -2.01329 0
M  V30 3944 H 368.65 -3.84737 -3.59562 0
M  V30 3945 H 371.141 -3.02074 -2.27068 0
M  V30 3946 H 371.454 -6.53282 -4.12846 0
M  V30 3947 H 369.799 -5.87143 -3.71871 0
M  V30 3948 H 372.99 -3.79177 -2.74486 0
M  V30 3949 H 373.163 -5.39318 -3.59221 0
M  V30 3950 N 366.569 1.04691 -1.17803 0
M  V30 3951 C 367.985 1.29963 -0.926379 0
M  V30 3952 C 368.185 1.97251 0.411635 0
M  V30 3953 O 367.241 2.24922 1.14744 0
M  V30 3954 C 368.554 2.16447 -2.08737 0
M  V30 3955 C 370.102 2.29814 -2.12496 0
M  V30 3956 C 370.577 3.19661 -3.27995 0
M  V30 3957 N 372.068 3.27247 -3.27816 0
M  V30 3958 C 372.803 3.96906 -4.13827 0
M  V30 3959 N 372.299 4.6895 -5.09959 0
M  V30 3960 N 374.092 3.93122 -4.01761 0
M  V30 3961 H 366.243 0.594182 -2.0392 0
M  V30 3962 H 368.506 0.324649 -0.890678 0
M  V30 3963 H 368.212 1.74304 -3.05469 0
M  V30 3964 H 368.086 3.17103 -2.04268 0
M  V30 3965 H 370.473 2.71196 -1.16347 0
M  V30 3966 H 370.554 1.2877 -2.21025 0
M  V30 3967 H 370.198 2.78991 -4.24413 0
M  V30 3968 H 370.128 4.20722 -3.16703 0
M  V30 3969 H 372.619 2.75921 -2.58217 0
M  V30 3970 H 372.932 5.19679 -5.71974 0
M  V30 3971 H 371.277 4.67875 -5.13924 0
M  V30 3972 H 374.468 3.35967 -3.2595 0
M  V30 3973 H 374.641 4.47139 -4.6901 0
M  V30 3974 N 368.047 0.979072 1.23499 0
M  V30 3975 C 368.957 0.526431 2.28617 0
M  V30 3976 C 369.973 -0.418126 1.68901 0
M  V30 3977 O 371.149 -0.288372 1.99325 0
M  V30 3978 C 368.214 -0.165235 3.46306 0
M  V30 3979 C 367.275 0.82056 4.21385 0
M  V30 3980 C 366.508 0.161807 5.33455 0
M  V30 3981 O 366.731 -1.04742 5.60701 0
M  V30 3982 O 365.665 0.859708 5.95729 0
M  V30 3983 H 369.491 1.4006 2.69475 0
M  V30 3984 H 367.076 0.746643 1.29405 0
M  V30 3985 H 368.958 -0.553287 4.17752 0
M  V30 3986 H 367.633 -1.01419 3.07402 0
M  V30 3987 H 366.54 1.25929 3.52268 0
M  V30 3988 H 367.873 1.63828 4.64135 0
M  V30 3989 N 369.525 -1.3858 0.750561 0
M  V30 3990 C 370.941 -1.53759 0.427824 0
M  V30 3991 C 371.141 -1.71401 -1.05943 0
M  V30 3992 O 370.197 -1.72331 -1.84549 0
M  V30 3993 C 371.51 -2.74642 1.22443 0
M  V30 3994 C 373.058 -2.88489 1.2142 0
M  V30 3995 C 373.533 -4.12329 1.9937 0
M  V30 3996 N 375.024 -4.194 1.96616 0
M  V30 3997 C 375.759 -5.14209 2.53727 0
M  V30 3998 N 375.255 -6.14709 3.19539 0
M  V30 3999 N 377.048 -5.06537 2.43673 0
M  V30 4000 H 369.199 -1.25377 1.71447 0
M  V30 4001 H 371.462 -0.608844 0.726645 0
M  V30 4002 H 371.168 -2.68 2.27747 0
M  V30 4003 H 371.042 -3.67745 0.839273 0
M  V30 4004 H 373.429 -2.94614 0.169232 0
M  V30 4005 H 373.51 -1.96406 1.63885 0
M  V30 4006 H 373.154 -4.06966 3.03877 0
M  V30 4007 H 373.084 -5.03486 1.54302 0
M  V30 4008 H 375.575 -3.47421 1.48684 0
M  V30 4009 H 375.888 -6.8354 3.60545 0
M  V30 4010 H 374.233 -6.1505 3.23633 0
M  V30 4011 H 377.424 -4.26962 1.91889 0
M  V30 4012 H 377.597 -5.80245 2.88479 0
M  V30 4013 N 371.003 -0.499398 -1.49478 0
M  V30 4014 C 371.935 0.316575 -2.27003 0
M  V30 4015 C 372.948 0.932047 -1.33479 0
M  V30 4016 O 374.137 0.815658 -1.58774 0
M  V30 4017 C 371.237 1.46055 -3.05812 0
M  V30 4018 C 370.41 0.952679 -4.26899 0
M  V30 4019 C 369.469 1.97407 -4.87767 0
M  V30 4020 O 368.495 1.54326 -5.4788 0
M  V30 4021 N 369.697 3.30436 -4.77276 0
M  V30 4022 H 372.462 -0.348168 -2.97671 0
M  V30 4023 H 370.023 -0.33185 -1.58463 0
M  V30 4024 H 372.015 2.14135 -3.43407 0
M  V30 4025 H 370.585 2.02948 -2.37762 0
M  V30 4026 H 369.805 0.0968248 -3.94081 0
M  V30 4027 H 371.093 0.59174 -5.05347 0
M  V30 4028 H 370.491 3.68126 -4.29534 0
M  V30 4029 H 369.048 3.94235 -5.19059 0
M  V30 4030 N 372.481 1.55866 -0.233164 0
M  V30 4031 C 373.711 2.02704 0.399325 0
M  V30 4032 C 374.119 1.11204 1.53069 0
M  V30 4033 O 373.462 0.116182 1.83332 0
M  V30 4034 C 373.524 3.45844 0.981429 0
M  V30 4035 C 373.188 4.56997 -0.0159561 0
M  V30 4036 C 374.185 5.13384 -0.820552 0
M  V30 4037 C 371.87 5.0211 -0.138072 0
M  V30 4038 C 373.864 6.13365 -1.73386 0
M  V30 4039 C 371.551 6.01926 -1.0549 0
M  V30 4040 C 372.549 6.57431 -1.85132 0
M  V30 4041 O 372.237 7.55302 -2.75272 0
M  V30 4042 H 371.969 0.668459 0.100692 0
M  V30 4043 H 374.523 2.02387 -0.35052 0
M  V30 4044 H 372.753 3.43267 1.78058 0
M  V30 4045 H 374.442 3.76262 1.52255 0
M  V30 4046 H 375.208 4.79372 -0.736721 0
M  V30 4047 H 371.087 4.5858 0.471737 0
M  V30 4048 H 374.631 6.56614 -2.35592 0
M  V30 4049 H 370.528 6.35359 -1.1397 0
M  V30 4050 H 371.296 7.72867 -2.69477 0
M  V30 4051 N 373.959 -0.0401083 1.57549 0
M  V30 4052 C 375.184 -0.748931 1.93406 0
M  V30 4053 C 375.609 -1.68686 0.832274 0
M  V30 4054 O 374.967 -1.80047 -0.212818 0
M  V30 4055 C 375.015 -1.4916 3.28304 0
M  V30 4056 O 374.119 -2.6042 3.19774 0
M  V30 4057 H 373.46 -0.202212 0.63246 0
M  V30 4058 H 375.99 0.00112086 2.046 0
M  V30 4059 H 376 -1.86395 3.62934 0
M  V30 4060 H 374.675 -0.80364 4.08062 0
M  V30 4061 H 373.252 -2.25808 2.96758 0
M  V30 4062 N 375.437 -1.54477 -0.31217 0
M  V30 4063 C 376.683 -1.73483 -1.0503 0
M  V30 4064 C 377.016 -0.513125 -1.87298 0
M  V30 4065 O 376.291 0.489864 -1.8823 0
M  V30 4066 C 376.574 -3.01723 -1.96558 0
M  V30 4067 C 376.427 -4.3417 -1.17545 0
M  V30 4068 C 377.746 -3.25772 -2.95907 0
M  V30 4069 H 374.865 -0.631222 -0.380432 0
M  V30 4070 H 377.507 -1.87184 -0.325932 0
M  V30 4071 H 375.657 -2.90174 -2.58324 0
M  V30 4072 H 377.329 -4.5762 -0.581513 0
M  V30 4073 H 375.572 -4.31159 -0.477925 0
M  V30 4074 H 376.243 -5.20143 -1.84811 0
M  V30 4075 H 378.719 -3.36857 -2.44267 0
M  V30 4076 H 377.595 -4.16838 -3.57123 0
M  V30 4077 H 377.856 -2.43537 -3.68974 0
M  V30 4078 N 376.915 0.57481 -1.46744 0
M  V30 4079 C 378.155 1.34369 -1.54027 0
M  V30 4080 C 378.519 1.91051 -0.190642 0
M  V30 4081 O 379.72 2.68444 -0.138255 0
M  V30 4082 C 377.991 2.43706 -2.61423 0
M  V30 4083 S 379.55 3.30915 -2.88167 0
M  V30 4084 H 376.368 0.45768 -0.544105 0
M  V30 4085 H 378.97 0.659959 -1.84024 0
M  V30 4086 H 377.674 2.0047 -3.58106 0
M  V30 4087 H 377.205 3.16842 -2.33184 0
M  V30 4088 H 379.22 4.42742 -2.24039 0
M  V30 4089 N 378.394 1.34581 0.820102 0
M  V30 4090 C 379.342 1.26401 1.95258 0
M  V30 4091 C 380.336 0.161553 1.68628 0
M  V30 4092 O 381.542 0.326703 1.7701 0
M  V30 4093 H 377.917 0.392749 0.64129 0
M  V30 4094 H 379.888 2.22105 1.99279 0
M  V30 4095 C 378.637 1.03919 3.31807 0
M  V30 4096 H 377.96 1.87984 3.52848 0
M  V30 4097 H 379.4 1.02232 4.11491 0
M  V30 4098 C 377.859 -0.257433 3.35915 0
M  V30 4099 O 378.389 -1.25784 3.81499 0
M  V30 4100 N 376.595 -0.291524 2.89134 0
M  V30 4101 H 376.142 0.523161 2.52232 0
M  V30 4102 H 376.1 -1.15883 2.92264 0
M  V30 4103 N 379.872 -1.04064 1.18357 0
M  V30 4104 C 381.097 -1.81454 1.00445 0
M  V30 4105 C 381.522 -1.82823 -0.442423 0
M  V30 4106 O 380.88 -1.24555 -1.31741 0
M  V30 4107 C 380.928 -3.24925 1.56384 0
M  V30 4108 O 380.032 -4.04856 0.785209 0
M  V30 4109 H 379.373 -0.560604 0.355835 0
M  V30 4110 H 381.903 -1.31059 1.57114 0
M  V30 4111 H 381.913 -3.75702 1.59097 0
M  V30 4112 H 380.588 -3.23244 2.61699 0
M  V30 4113 H 379.165 -3.63537 0.830399 0
M  V30 4114 N 381.35 -0.985608 -1.22978 0
M  V30 4115 C 382.26 -0.538548 -2.28335 0
M  V30 4116 C 383.276 0.409163 -1.69121 0
M  V30 4117 O 384.452 0.277797 -1.99475 0
M  V30 4118 C 381.517 0.146867 -3.46389 0
M  V30 4119 C 380.578 -0.842896 -4.20944 0
M  V30 4120 C 379.811 -0.190095 -5.33361 0
M  V30 4121 O 380.034 1.01767 -5.61248 0
M  V30 4122 O 378.968 -0.891289 -5.95264 0
M  V30 4123 H 382.794 -1.41487 -2.68729 0
M  V30 4124 H 380.379 -0.753495 -1.29007 0
M  V30 4125 H 382.261 0.531125 -4.1804 0
M  V30 4126 H 380.936 0.997871 -3.07935 0
M  V30 4127 H 379.843 -1.27795 -3.51595 0
M  V30 4128 H 381.176 -1.66287 -4.6326 0
M  V30 4129 N 382.828 1.3818 -0.7579 0
M  V30 4130 C 384.105 1.94106 -0.241306 0
M  V30 4131 C 384.485 1.69282 1.26122 0
M  V30 4132 O 383.833 1.03378 2.03777 0
M  V30 4133 C 384.043 3.43809 -0.59967 0
M  V30 4134 C 385.391 4.20868 -0.561717 0
M  V30 4135 O 386.415 3.5211 -0.538222 0
M  V30 4136 O 385.274 5.43451 -0.576478 0
M  V30 4137 H 382.368 0.825376 -0.0518042 0
M  V30 4138 H 384.914 1.47548 -0.838315 0
M  V30 4139 H 383.686 3.55403 -1.6372 0
M  V30 4140 H 383.309 3.97592 0.0251197 0
M  V30 4141 N 384.306 0.507319 1.49211 0
M  V30 4142 C 385.531 -0.033725 2.07373 0
M  V30 4143 C 385.956 -1.29485 1.36437 0
M  V30 4144 O 385.314 -1.76294 0.423087 0
M  V30 4145 C 385.362 -0.263945 3.59633 0
M  V30 4146 O 384.466 -1.33737 3.90113 0
M  V30 4147 H 383.807 0.0290331 0.663365 0
M  V30 4148 H 386.337 0.708749 1.91932 0
M  V30 4149 H 386.347 -0.493536 4.05004 0
M  V30 4150 H 385.022 0.657424 4.10671 0
M  V30 4151 H 383.599 -1.09224 3.56545 0
M  V30 4152 N 385.784 -1.5574 0.241426 0
M  V30 4153 C 387.195 -1.84842 -0.262755 0
M  V30 4154 C 387.546 -1.16317 -1.58003 0
M  V30 4155 O 386.671 -0.439653 -2.11887 0
M  V30 4156 C 387.266 -3.35332 -0.483523 0
M  V30 4157 C 385.825 -3.6468 -0.931977 0
M  V30 4158 C 384.972 -2.77299 -0.0061151 0
M  V30 4159 H 387.923 -1.51761 0.464129 0
M  V30 4160 H 387.944 -3.56615 -1.32688 0
M  V30 4161 H 387.456 -3.85178 0.47537 0
M  V30 4162 H 385.557 -3.20307 -1.90353 0
M  V30 4163 H 385.67 -4.72498 -0.792628 0
M  V30 4164 H 384.034 -2.49408 -0.516503 0
M  V30 4165 H 384.817 -3.2995 0.948052 0
M  V30 4166 N 387.262 0.0317525 -1.57568 0
M  V30 4167 C 388.51 0.721676 -1.88776 0
M  V30 4168 C 388.831 1.76039 -0.838772 0
M  V30 4169 O 388.101 1.95482 0.127935 0
M  V30 4170 H 386.681 0.269534 -0.696678 0
M  V30 4171 H 389.343 -0.00165879 -1.949 0
M  V30 4172 H 388.439 1.21293 -2.87566 0
M  V30 4173 N 388.74 1.54641 0.303973 0
M  V30 4174 C 389.965 1.78092 1.06292 0
M  V30 4175 C 390.39 0.537342 1.80262 0
M  V30 4176 O 389.748 -0.511993 1.7392 0
M  V30 4177 C 389.796 2.98612 2.02147 0
M  V30 4178 O 388.9 2.71528 3.10397 0
M  V30 4179 H 388.241 0.589548 0.305497 0
M  V30 4180 H 390.771 2.01716 0.3423 0
M  V30 4181 H 390.781 3.265 2.44667 0
M  V30 4182 H 389.456 3.88785 1.47714 0
M  V30 4183 H 388.033 2.54648 2.72413 0
M  V30 4184 N 390.218 -0.567019 1.47046 0
M  V30 4185 C 391.458 -1.3355 1.54738 0
M  V30 4186 C 391.822 -1.90947 0.200772 0
M  V30 4187 O 393.023 -2.68367 0.152489 0
M  V30 4188 C 391.294 -2.42317 2.62712 0
M  V30 4189 S 392.853 -3.29383 2.89918 0
M  V30 4190 H 389.671 -0.454788 0.546525 0
M  V30 4191 H 392.273 -0.650191 1.84371 0
M  V30 4192 H 390.977 -1.98568 3.59164 0
M  V30 4193 H 390.508 -3.15601 2.34861 0
M  V30 4194 H 392.523 -4.41548 2.26384 0
M  V30 4195 N 391.696 -1.35014 -0.812953 0
M  V30 4196 C 392.606 -1.2951 -1.95613 0
M  V30 4197 C 393.622 -0.20107 -1.72834 0
M  V30 4198 O 394.798 -0.42932 -1.96771 0
M  V30 4199 C 391.863 -1.06033 -3.30088 0
M  V30 4200 C 390.924 -2.24688 -3.65805 0
M  V30 4201 C 390.157 -2.02322 -4.93864 0
M  V30 4202 O 390.38 -0.986464 -5.61805 0
M  V30 4203 O 389.314 -2.89525 -5.27692 0
M  V30 4204 H 393.14 -2.25705 -2.03202 0
M  V30 4205 H 390.725 -1.15321 -0.949811 0
M  V30 4206 H 392.607 -0.94763 -4.10607 0
M  V30 4207 H 391.282 -0.128852 -3.23443 0
M  V30 4208 H 390.189 -2.41521 -2.85689 0
M  V30 4209 H 391.522 -3.16261 -3.77147 0
M  V30 4210 N 393.175 1.03435 -1.18907 0
M  V30 4211 C 394.424 1.76143 -0.982669 0
M  V30 4212 C 394.737 1.89416 0.487953 0
M  V30 4213 O 395.943 2.59041 0.813036 0
M  V30 4214 C 394.399 3.16722 -1.70924 0
M  V30 4215 C 394.007 3.11522 -3.21959 0
M  V30 4216 C 395.751 3.93764 -1.58588 0
M  V30 4217 C 393.658 4.46999 -3.87228 0
M  V30 4218 H 392.588 0.660292 -0.364047 0
M  V30 4219 H 395.239 1.158 -1.42347 0
M  V30 4220 H 393.621 3.775 -1.19623 0
M  V30 4221 H 394.795 2.60158 -3.80335 0
M  V30 4222 H 393.11 2.47978 -3.34508 0
M  V30 4223 H 395.707 4.93963 -2.04707 0
M  V30 4224 H 396.05 4.12794 -0.539142 0
M  V30 4225 H 396.583 3.39576 -2.07203 0
M  V30 4226 H 393.322 4.33174 -4.91976 0
M  V30 4227 H 392.842 4.98441 -3.33642 0
M  V30 4228 H 394.521 5.15898 -3.90459 0
M  V30 4229 N 394.653 0.992116 1.22453 0
M  V30 4230 C 395.583 0.561677 2.26644 0
M  V30 4231 C 396.564 -0.411055 1.65059 0
M  V30 4232 O 397.749 -0.301861 1.9184 0
M  V30 4233 C 394.879 -0.125247 3.47074 0
M  V30 4234 C 393.833 0.765948 4.21091 0
M  V30 4235 C 393.159 -0.0538484 5.34673 0
M  V30 4236 C 394.459 2.06242 4.79856 0
M  V30 4237 H 396.153 1.43259 2.62902 0
M  V30 4238 H 393.699 0.690283 1.26377 0
M  V30 4239 H 395.652 -0.437764 4.1912 0
M  V30 4240 H 394.376 -1.03069 3.0991 0
M  V30 4241 H 393.035 1.0621 3.50878 0
M  V30 4242 H 392.683 -0.960188 4.9375 0
M  V30 4243 H 392.383 0.539415 5.85119 0
M  V30 4244 H 393.907 -0.360477 6.09535 0
M  V30 4245 H 395.321 1.8139 5.43848 0
M  V30 4246 H 393.718 2.60444 5.40638 0
M  V30 4247 H 394.788 2.74167 3.99951 0
M  V30 4248 N 396.131 -1.37776 0.765217 0
M  V30 4249 C 397.361 -2.03828 0.337277 0
M  V30 4250 C 397.769 -1.57841 -1.04321 0
M  V30 4251 O 397.112 -0.752043 -1.67601 0
M  V30 4252 C 397.174 -3.58292 0.294407 0
M  V30 4253 C 396.838 -4.27384 1.61838 0
M  V30 4254 C 397.835 -4.51956 2.56967 0
M  V30 4255 C 395.52 -4.65345 1.89102 0
M  V30 4256 C 397.514 -5.13536 3.77571 0
M  V30 4257 C 395.201 -5.26647 3.09978 0
M  V30 4258 C 396.199 -5.50679 4.04032 0
M  V30 4259 O 395.887 -6.10702 5.2278 0
M  V30 4260 H 395.619 -0.661292 0.140248 0
M  V30 4261 H 398.173 -1.77222 1.03834 0
M  V30 4262 H 396.403 -3.83918 -0.462983 0
M  V30 4263 H 398.092 -4.05763 -0.105581 0
M  V30 4264 H 398.858 -4.23048 2.37183 0
M  V30 4265 H 394.737 -4.45978 1.16725 0
M  V30 4266 H 398.281 -5.3221 4.50997 0
M  V30 4267 H 394.178 -5.54979 3.29649 0
M  V30 4268 H 394.946 -6.29183 5.23517 0
M  V30 4269 N 397.609 -0.515225 -1.4894 0
M  V30 4270 C 398.856 0.024215 -2.02486 0
M  V30 4271 C 399.184 1.35671 -1.39368 0
M  V30 4272 O 398.439 1.88566 -0.523574 0
M  V30 4273 C 398.738 0.210595 -3.56779 0
M  V30 4274 C 398.404 -1.04569 -4.38607 0
M  V30 4275 C 397.066 -1.39002 -4.60686 0
M  V30 4276 C 399.418 -1.88008 -4.86109 0
M  V30 4277 C 396.746 -2.568 -5.27514 0
M  V30 4278 C 399.098 -3.04972 -5.54234 0
M  V30 4279 C 397.762 -3.39768 -5.74555 0
M  V30 4280 H 397.032 0.00886088 -0.740947 0
M  V30 4281 H 399.679 -0.678263 -1.79086 0
M  V30 4282 H 397.984 0.99572 -3.78936 0
M  V30 4283 H 399.681 0.642659 -3.95817 0
M  V30 4284 H 396.271 -0.767497 -4.21672 0
M  V30 4285 H 400.455 -1.62719 -4.68867 0
M  V30 4286 H 395.711 -2.8398 -5.41447 0
M  V30 4287 H 399.885 -3.69943 -5.90013 0
M  V30 4288 H 397.512 -4.31148 -6.26112 0
M  V30 4289 N 399.087 1.5561 -0.249682 0
M  V30 4290 C 400.035 2.22894 0.664906 0
M  V30 4291 C 401.029 1.21743 1.17792 0
M  V30 4292 O 402.235 1.39748 1.13449 0
M  V30 4293 H 398.61 0.715022 0.232912 0
M  V30 4294 H 400.581 2.98307 0.0742998 0
M  V30 4295 C 399.33 2.94424 1.84959 0
M  V30 4296 H 398.653 3.72031 1.46399 0
M  V30 4297 H 400.093 3.44862 2.4667 0
M  V30 4298 C 398.552 1.98454 2.72245 0
M  V30 4299 O 399.082 1.51939 3.71857 0
M  V30 4300 N 397.288 1.65496 2.38871 0
M  V30 4301 H 396.835 2.03517 1.57919 0
M  V30 4302 H 396.793 1.0155 2.97548 0
M  V30 4303 N 400.565 -0.0233959 1.57583 0
M  V30 4304 C 401.498 -1.05549 2.02323 0
M  V30 4305 C 402.476 -1.34843 0.908626 0
M  V30 4306 O 403.66 -1.47404 1.17491 0
M  V30 4307 C 400.787 -2.38885 2.40108 0
M  V30 4308 C 399.833 -2.2541 3.62067 0
M  V30 4309 S 400.666 -1.60217 5.1097 0
M  V30 4310 C 401.822 -2.95032 5.52003 0
M  V30 4311 H 402.055 -0.674435 2.89549 0
M  V30 4312 H 399.588 -0.23355 1.52623 0
M  V30 4313 H 401.546 -3.15562 2.62547 0
M  V30 4314 H 400.207 -2.74137 1.53323 0
M  V30 4315 H 399.4 -3.23854 3.86179 0
M  V30 4316 H 399.002 -1.56876 3.39508 0
M  V30 4317 H 401.294 -3.91357 5.53033 0
M  V30 4318 H 402.237 -2.75646 6.52246 0
M  V30 4319 H 402.645 -2.97865 4.79517 0
M  V30 4320 N 402.043 -1.548 -0.295768 0
M  V30 4321 C 403.291 -1.73985 -1.02828 0
M  V30 4322 C 403.612 -0.531406 -1.87619 0
M  V30 4323 O 402.882 0.454221 -1.90561 0
M  V30 4324 H 401.462 -0.641556 -0.382642 0
M  V30 4325 H 404.124 -1.92163 -0.325489 0
M  V30 4326 H 403.22 -2.63129 -1.67838 0
M  V30 4327 N 403.521 0.559213 -1.47345 0
M  V30 4328 C 404.746 1.34676 -1.57725 0
M  V30 4329 C 405.171 1.86723 -0.227164 0
M  V30 4330 O 404.529 1.6286 0.796642 0
M  V30 4331 C 404.577 2.49399 -2.60447 0
M  V30 4332 O 403.681 3.51567 -2.15578 0
M  V30 4333 H 403.022 0.400115 -0.52991 0
M  V30 4334 H 405.552 0.676009 -1.93109 0
M  V30 4335 H 405.562 2.95996 -2.80803 0
M  V30 4336 H 404.237 2.10873 -3.58477 0
M  V30 4337 H 402.814 3.11289 -2.05313 0
M  V30 4338 N 404.999 1.35443 0.805782 0
M  V30 4339 C 406.41 1.25768 1.37983 0
M  V30 4340 C 406.761 -0.10958 1.95894 0
M  V30 4341 O 405.886 -1.01056 1.91355 0
M  V30 4342 C 406.481 2.27727 2.5085 0
M  V30 4343 C 405.04 2.2179 3.04115 0
M  V30 4344 C 404.187 2.13393 1.77084 0
M  V30 4345 H 407.138 1.4656 0.608752 0
M  V30 4346 H 407.159 1.90422 3.29424 0
M  V30 4347 H 406.671 3.27227 2.08671 0
M  V30 4348 H 404.772 1.25703 3.50756 0
M  V30 4349 H 404.885 3.13788 3.62042 0
M  V30 4350 H 403.249 1.59384 1.98668 0
M  V30 4351 H 404.032 3.14755 1.37056 0
M  V30 4352 N 406.477 -1.02803 1.19454 0
M  V30 4353 C 407.754 -1.73299 0.907013 0
M  V30 4354 C 408.134 -2.02772 -0.587086 0
M  V30 4355 O 407.482 -1.68304 -1.54551 0
M  V30 4356 C 407.692 -3.00912 1.76785 0
M  V30 4357 C 409.04 -3.74403 2.00268 0
M  V30 4358 O 410.064 -3.10841 1.73943 0
M  V30 4359 O 408.923 -4.88675 2.4466 0
M  V30 4360 H 406.017 -0.754727 0.338106 0
M  V30 4361 H 408.563 -1.08754 1.30271 0
M  V30 4362 H 407.335 -2.75366 2.7801 0
M  V30 4363 H 406.958 -3.73197 1.37149 0
M  V30 4364 N 407.956 -0.998596 -1.21925 0
M  V30 4365 C 408.888 -0.511879 -2.23411 0
M  V30 4366 C 409.901 0.396094 -1.57908 0
M  V30 4367 O 411.09 0.197316 -1.77406 0
M  V30 4368 C 408.19 0.276802 -3.37768 0
M  V30 4369 C 407.363 -0.628687 -4.32858 0
M  V30 4370 C 406.422 0.109272 -5.26087 0
M  V30 4371 O 405.448 -0.507237 -5.66935 0
M  V30 4372 N 406.65 1.38983 -5.63617 0
M  V30 4373 H 409.415 -1.38457 -2.658 0
M  V30 4374 H 406.976 -0.873981 -1.36283 0
M  V30 4375 H 408.968 0.77928 -3.97126 0
M  V30 4376 H 407.538 1.05063 -2.94415 0
M  V30 4377 H 406.758 -1.31175 -3.71735 0
M  V30 4378 H 408.046 -1.24514 -4.93329 0
M  V30 4379 H 407.444 1.91194 -5.32411 0
M  V30 4380 H 406.001 1.83739 -6.25367 0
M  V30 4381 N 409.434 1.37368 -0.772513 0
M  V30 4382 C 410.364 2.32856 -0.173304 0
M  V30 4383 C 411.345 1.55818 0.682262 0
M  V30 4384 O 412.53 1.84052 0.619566 0
M  V30 4385 C 409.66 3.40048 0.706007 0
M  V30 4386 C 408.614 4.27973 -0.0483144 0
M  V30 4387 C 407.94 5.26184 0.950491 0
M  V30 4388 C 409.24 5.07665 -1.22776 0
M  V30 4389 H 410.934 2.83217 -0.971002 0
M  V30 4390 H 408.48 1.3617 -0.468377 0
M  V30 4391 H 410.433 4.05827 1.13501 0
M  V30 4392 H 409.157 2.88214 1.53623 0
M  V30 4393 H 407.816 3.63726 -0.458107 0
M  V30 4394 H 407.464 4.7063 1.77529 0
M  V30 4395 H 407.164 5.85872 0.450314 0
M  V30 4396 H 408.688 5.94838 1.37842 0
M  V30 4397 H 410.102 5.66578 -0.875366 0
M  V30 4398 H 408.499 5.76681 -1.66007 0
M  V30 4399 H 409.569 4.40294 -2.03149 0
M  V30 4400 N 410.912 0.523116 1.48665 0
M  V30 4401 C 411.845 -0.290518 2.26343 0
M  V30 4402 C 412.823 -0.950913 1.31895 0
M  V30 4403 O 414.007 -0.976662 1.61225 0
M  V30 4404 C 411.134 -1.41088 3.07915 0
M  V30 4405 C 410.18 -0.862597 4.17686 0
M  V30 4406 S 411.013 0.264135 5.34848 0
M  V30 4407 C 412.169 -0.858864 6.19979 0
M  V30 4408 H 412.402 0.368726 2.95005 0
M  V30 4409 H 409.935 0.30878 1.51281 0
M  V30 4410 H 411.893 -2.0527 3.55492 0
M  V30 4411 H 410.554 -2.04182 2.38681 0
M  V30 4412 H 409.747 -1.70287 4.74361 0
M  V30 4413 H 409.349 -0.297595 3.72814 0
M  V30 4414 H 411.641 -1.7591 6.54264 0
M  V30 4415 H 412.584 -0.330244 7.07329 0
M  V30 4416 H 412.992 -1.13617 5.52948 0
M  V30 4417 N 412.39 -1.55475 0.257931 0
M  V30 4418 C 413.636 -1.99502 -0.364266 0
M  V30 4419 C 413.969 -1.146 -1.56782 0
M  V30 4420 O 413.244 -0.211968 -1.93342 0
M  V30 4421 C 413.527 -3.51917 -0.763333 0
M  V30 4422 C 413.38 -4.4758 0.446371 0
M  V30 4423 C 414.699 -4.09742 -1.60623 0
M  V30 4424 H 411.818 -0.725277 -0.130929 0
M  V30 4425 H 414.46 -1.8653 0.361446 0
M  V30 4426 H 412.61 -3.63101 -1.38166 0
M  V30 4427 H 414.282 -4.48362 1.08487 0
M  V30 4428 H 412.525 -4.19947 1.08753 0
M  V30 4429 H 413.196 -5.51862 0.123645 0
M  V30 4430 H 415.672 -4.01727 -1.08418 0
M  V30 4431 H 414.548 -5.16631 -1.85429 0
M  V30 4432 H 414.809 -3.58889 -2.58169 0
M  V30 4433 N 413.868 0.0150385 -1.57593 0
M  V30 4434 C 414.818 1.01943 -2.0394 0
M  V30 4435 C 415.802 1.31209 -0.931286 0
M  V30 4436 O 416.994 1.30559 -1.19513 0
M  V30 4437 C 414.123 2.31621 -2.53391 0
M  V30 4438 C 413.209 2.05384 -3.7105 0
M  V30 4439 N 413.6 1.49253 -4.83278 0
M  V30 4440 C 411.898 2.35601 -3.78693 0
M  V30 4441 C 412.599 1.39143 -5.64813 0
M  V30 4442 N 411.575 1.87187 -5.10355 0
M  V30 4443 H 415.377 0.57969 -2.88126 0
M  V30 4444 H 412.891 0.221056 -1.60888 0
M  V30 4445 H 414.888 3.044 -2.84862 0
M  V30 4446 H 413.548 2.76261 -1.70616 0
M  V30 4447 H 414.559 1.17334 -5.04433 0
M  V30 4448 H 411.236 2.8322 -3.06746 0
M  V30 4449 H 412.626 0.961153 -6.6499 0
M  V30 4450 N 415.346 1.54954 0.287554 0
M  V30 4451 C 416.293 1.86834 1.35505 0
M  V30 4452 C 417.263 0.718452 1.49758 0
M  V30 4453 O 418.448 0.968358 1.644 0
M  V30 4454 C 415.588 2.13303 2.71286 0
M  V30 4455 C 414.701 3.40883 2.65373 0
M  V30 4456 C 413.836 3.57125 3.93236 0
M  V30 4457 C 412.875 4.78449 3.81776 0
M  V30 4458 N 412.012 4.91426 5.01443 0
M  V30 4459 H 416.852 2.77889 1.07619 0
M  V30 4460 H 414.389 1.37593 0.520241 0
M  V30 4461 H 416.347 2.26646 3.50267 0
M  V30 4462 H 414.977 1.25499 2.97405 0
M  V30 4463 H 414.029 3.36088 1.78182 0
M  V30 4464 H 415.341 4.29993 2.52799 0
M  V30 4465 H 414.495 3.70207 4.80658 0
M  V30 4466 H 413.234 2.66173 4.0866 0
M  V30 4467 H 412.239 4.65386 2.92738 0
M  V30 4468 H 413.464 5.70822 3.67884 0
M  V30 4469 H 411.41 4.03401 5.17304 0
M  V30 4470 H 411.327 5.74559 4.91343 0
M  V30 4471 H 412.595 5.08879 5.90477 0
M  V30 4472 N 416.824 -0.551391 1.4764 0
M  V30 4473 C 418.072 -1.30572 1.54258 0
M  V30 4474 C 418.393 -1.93877 0.208963 0
M  V30 4475 O 417.663 -1.80234 -0.767619 0
M  V30 4476 H 416.243 -0.484894 0.568231 0
M  V30 4477 H 418.905 -0.643402 1.83974 0
M  V30 4478 H 418.001 -2.09621 2.31226 0
M  V30 4479 N 418.302 -1.35869 -0.798587 0
M  V30 4480 C 419.249 -1.29446 -1.91082 0
M  V30 4481 C 420.219 -0.16487 -1.6528 0
M  V30 4482 O 421.404 -0.349888 -1.87564 0
M  V30 4483 C 418.544 -1.0804 -3.27752 0
M  V30 4484 C 417.657 -2.29993 -3.65687 0
M  V30 4485 C 416.792 -2.01673 -4.91428 0
M  V30 4486 C 415.831 -3.19636 -5.22015 0
M  V30 4487 N 414.968 -2.91039 -6.38937 0
M  V30 4488 H 419.808 -2.24553 -1.95907 0
M  V30 4489 H 417.345 -1.11615 -0.958148 0
M  V30 4490 H 419.303 -0.936586 -4.06551 0
M  V30 4491 H 417.933 -0.16592 -3.22373 0
M  V30 4492 H 416.985 -2.55211 -2.82085 0
M  V30 4493 H 418.297 -3.18052 -3.84245 0
M  V30 4494 H 417.451 -1.84168 -5.78072 0
M  V30 4495 H 416.19 -1.10911 -4.74921 0
M  V30 4496 H 415.195 -3.37709 -4.33858 0
M  V30 4497 H 416.42 -4.11211 -5.40447 0
M  V30 4498 H 414.366 -2.0288 -6.2384 0
M  V30 4499 H 414.283 -3.72635 -6.57784 0
M  V30 4500 H 415.551 -2.77093 -7.28587 0
M  V30 4501 N 419.78 1.02168 -1.19998 0
M  V30 4502 C 421.02 1.77232 -1.01825 0
M  V30 4503 C 421.384 1.86833 0.442428 0
M  V30 4504 O 422.585 2.58293 0.744189 0
M  V30 4505 C 420.856 3.15601 -1.67722 0
M  V30 4506 S 422.415 4.06765 -1.64584 0
M  V30 4507 H 419.233 0.610021 -0.365233 0
M  V30 4508 H 421.835 1.22368 -1.52467 0
M  V30 4509 H 420.539 3.06235 -2.73218 0
M  V30 4510 H 420.07 3.7554 -1.17189 0
M  V30 4511 H 422.085 4.91586 -0.67511 0
M  V30 4512 N 421.258 1.00505 1.21394 0
M  V30 4513 C 422.507 0.683159 1.89778 0
M  V30 4514 C 422.82 -0.789471 1.7896 0
M  V30 4515 O 424.026 -1.22344 2.42372 0
M  V30 4516 C 422.482 1.17146 3.40301 0
M  V30 4517 C 422.09 2.67017 3.5973 0
M  V30 4518 C 423.834 0.924461 4.14311 0
M  V30 4519 C 421.741 3.09387 5.04017 0
M  V30 4520 H 420.671 0.25183 0.710702 0
M  V30 4521 H 423.322 1.21622 1.37406 0
M  V30 4522 H 421.704 0.566451 3.91928 0
M  V30 4523 H 422.878 3.32968 3.18542 0
M  V30 4524 H 421.193 2.89732 2.99073 0
M  V30 4525 H 423.79 1.21658 5.20676 0
M  V30 4526 H 424.133 -0.139286 4.16067 0
M  V30 4527 H 424.666 1.49226 3.6875 0
M  V30 4528 H 421.405 4.14989 5.07409 0
M  V30 4529 H 420.925 2.48149 5.46061 0
M  V30 4530 H 422.604 3.01371 5.72525 0
M  V30 4531 N 422.737 -1.36956 0.779787 0
M  V30 4532 C 423.985 -1.99097 0.347079 0
M  V30 4533 C 424.306 -1.62206 -1.08232 0
M  V30 4534 O 423.576 -0.891373 -1.74446 0
M  V30 4535 H 422.156 -0.736409 0.125342 0
M  V30 4536 H 424.818 -1.67308 0.999696 0
M  V30 4537 H 423.914 -3.09107 0.431162 0
M  V30 4538 N 424.215 -0.530993 -1.48385 0
M  V30 4539 C 425.44 0.000729535 -2.074 0
M  V30 4540 C 425.865 1.27298 -1.3848 0
M  V30 4541 O 425.223 1.75599 -0.451081 0
M  V30 4542 C 425.271 0.206697 -3.60007 0
M  V30 4543 O 424.375 1.27514 -3.92191 0
M  V30 4544 H 423.716 -0.039583 -0.662819 0
M  V30 4545 H 426.246 -0.739194 -1.9078 0
M  V30 4546 H 426.256 0.42904 -4.05738 0
M  V30 4547 H 424.931 -0.722675 -4.09573 0
M  V30 4548 H 423.508 1.03537 -3.58238 0
M  V30 4549 N 425.693 1.55336 -0.266172 0
M  V30 4550 C 426.97 1.91372 0.404486 0
M  V30 4551 C 427.35 1.18935 1.74407 0
M  V30 4552 O 426.698 0.3132 2.26343 0
M  V30 4553 C 426.908 3.44581 0.553593 0
M  V30 4554 C 428.256 4.16196 0.840618 0
M  V30 4555 O 429.28 3.50426 0.638739 0
M  V30 4556 O 428.139 5.32567 1.22618 0
M  V30 4557 H 425.233 0.797194 0.220025 0
M  V30 4558 H 427.779 1.66813 -0.311664 0
M  V30 4559 H 426.551 3.89357 -0.389498 0
M  V30 4560 H 426.174 3.75065 1.31955 0
M  V30 4561 N 427.171 -0.0066808 1.57599 0
M  V30 4562 C 428.081 -1.01671 2.11424 0
M  V30 4563 C 429.097 -1.38143 1.05795 0
M  V30 4564 O 430.273 -1.47011 1.37658 0
M  V30 4565 C 427.338 -2.29192 2.60139 0
M  V30 4566 C 426.399 -1.99094 3.80342 0
M  V30 4567 C 425.632 -3.20535 4.26724 0
M  V30 4568 O 425.855 -4.3199 3.72479 0
M  V30 4569 O 424.789 -3.04924 5.18946 0
M  V30 4570 H 428.615 -0.589181 2.9793 0
M  V30 4571 H 426.2 -0.225091 1.47695 0
M  V30 4572 H 428.082 -3.0412 2.917 0
M  V30 4573 H 426.757 -2.71195 1.76733 0
M  V30 4574 H 425.664 -1.21663 3.53764 0
M  V30 4575 H 426.997 -1.61931 4.648 0
M  V30 4576 N 428.649 -1.55105 -0.279332 0
M  V30 4577 C 429.581 -1.83952 -1.36727 0
M  V30 4578 C 430.594 -0.723642 -1.45833 0
M  V30 4579 O 431.783 -1.00141 -1.47763 0
M  V30 4580 C 428.883 -1.98183 -2.74912 0
M  V30 4581 C 428.056 -3.28787 -2.88475 0
M  V30 4582 C 427.115 -3.33162 -4.07295 0
M  V30 4583 O 426.141 -4.06576 -3.98353 0
M  V30 4584 N 427.343 -2.60109 -5.18964 0
M  V30 4585 H 430.108 -2.77853 -1.12328 0
M  V30 4586 H 427.669 -1.54945 -0.469442 0
M  V30 4587 H 429.661 -1.98488 -3.52682 0
M  V30 4588 H 428.231 -1.11177 -2.92162 0
M  V30 4589 H 427.451 -3.41075 -1.97641 0
M  V30 4590 H 428.739 -4.14933 -2.94463 0
M  V30 4591 H 428.137 -2.00136 -5.29115 0
M  V30 4592 H 426.694 -2.66143 -5.94988 0
M  V30 4593 N 430.127 0.543554 -1.4793 0
M  V30 4594 C 431.057 1.65888 -1.64327 0
M  V30 4595 C 432.038 1.62818 -0.492383 0
M  V30 4596 O 433.223 1.80226 -0.723338 0
M  V30 4597 C 430.353 3.04506 -1.67013 0
M  V30 4598 C 429.307 3.2243 -2.81466 0
M  V30 4599 C 428.633 4.61972 -2.69233 0
M  V30 4600 C 429.933 3.06496 -4.22915 0
M  V30 4601 H 431.627 1.52421 -2.57698 0
M  V30 4602 H 429.173 0.731849 -1.24016 0
M  V30 4603 H 431.126 3.82391 -1.77074 0
M  V30 4604 H 429.85 3.18964 -0.70212 0
M  V30 4605 H 428.509 2.46957 -2.70938 0
M  V30 4606 H 428.157 4.73247 -1.7043 0
M  V30 4607 H 427.857 4.74911 -3.46025 0
M  V30 4608 H 429.381 5.41974 -2.81242 0
M  V30 4609 H 430.795 3.74186 -4.34348 0
M  V30 4610 H 429.192 3.30938 -5.006 0
M  V30 4611 H 430.262 2.03077 -4.40327 0
M  V30 4612 N 431.605 1.3629 0.791371 0
M  V30 4613 C 432.853 1.30154 1.5461 0
M  V30 4614 C 433.174 -0.119409 1.94634 0
M  V30 4615 O 432.444 -1.05924 1.64794 0
M  V30 4616 H 431.024 0.478784 0.573389 0
M  V30 4617 H 433.686 1.70565 0.94306 0
M  V30 4618 H 432.782 1.92762 2.45457 0
M  V30 4619 N 433.083 -1.0153 1.20538 0
M  V30 4620 C 434.03 -2.10098 0.955383 0
M  V30 4621 C 435 -1.65702 -0.114878 0
M  V30 4622 O 436.185 -1.90776 0.0301118 0
M  V30 4623 C 433.325 -3.41236 0.514969 0
M  V30 4624 C 432.438 -3.99102 1.65353 0
M  V30 4625 C 431.573 -5.18306 1.16329 0
M  V30 4626 C 430.612 -5.68258 2.27485 0
M  V30 4627 N 429.749 -6.78722 1.7967 0
M  V30 4628 H 434.589 -2.30818 1.88486 0
M  V30 4629 H 432.126 -1.13189 0.939499 0
M  V30 4630 H 434.084 -4.16504 0.240935 0
M  V30 4631 H 432.714 -3.20585 -0.377512 0
M  V30 4632 H 431.766 -3.20918 2.04245 0
M  V30 4633 H 433.078 -4.32177 2.49047 0
M  V30 4634 H 432.232 -6.00782 0.845302 0
M  V30 4635 H 430.971 -4.86799 0.296254 0
M  V30 4636 H 429.976 -4.84385 2.60099 0
M  V30 4637 H 431.201 -6.01798 3.14667 0
M  V30 4638 H 429.147 -6.49042 0.95295 0
M  V30 4639 H 429.064 -7.10996 2.56944 0
M  V30 4640 H 430.332 -7.64759 1.50875 0
M  V30 4641 N 434.561 -1.01147 -1.20859 0
M  V30 4642 C 435.491 -0.597663 -2.25722 0
M  V30 4643 C 436.472 0.384744 -1.65692 0
M  V30 4644 O 437.657 0.271303 -1.92296 0
M  V30 4645 C 434.787 0.0700149 -3.47229 0
M  V30 4646 C 433.741 -0.832843 -4.19819 0
M  V30 4647 C 433.067 -0.0312202 -5.34691 0
M  V30 4648 C 434.367 -2.1385 -4.76514 0
M  V30 4649 H 436.061 -1.47423 -2.60589 0
M  V30 4650 H 433.607 -0.710301 -1.25263 0
M  V30 4651 H 435.56 0.37103 -4.19763 0
M  V30 4652 H 434.284 0.981259 -3.11511 0
M  V30 4653 H 432.943 -1.11778 -3.49144 0
M  V30 4654 H 432.591 0.881515 -4.95215 0
M  V30 4655 H 432.291 -0.632434 -5.84187 0
M  V30 4656 H 433.815 0.26346 -6.10031 0
M  V30 4657 H 435.229 -1.9002 -5.40893 0
M  V30 4658 H 433.626 -2.69012 -5.36426 0
M  V30 4659 H 434.696 -2.80495 -3.95538 0
M  V30 4660 N 436.039 1.36541 -0.78704 0
M  V30 4661 C 437.285 1.99599 -0.358872 0
M  V30 4662 C 437.618 1.62323 1.06606 0
M  V30 4663 O 436.893 0.876858 1.73613 0
M  V30 4664 C 437.176 3.56327 -0.519944 0
M  V30 4665 C 437.029 4.03464 -1.98839 0
M  V30 4666 C 438.348 4.4005 0.0664737 0
M  V30 4667 H 435.467 0.725107 -0.131869 0
M  V30 4668 H 438.109 1.6199 -0.992936 0
M  V30 4669 H 436.259 3.88495 0.0198321 0
M  V30 4670 H 437.931 3.81793 -2.58905 0
M  V30 4671 H 436.174 3.55092 -2.49183 0
M  V30 4672 H 436.845 5.12439 -2.05207 0
M  V30 4673 H 439.321 4.14228 -0.394267 0
M  V30 4674 H 438.197 5.48847 -0.0762682 0
M  V30 4675 H 438.458 4.26655 1.15835 0
M  V30 4676 N 437.518 0.538854 1.48102 0
M  V30 4677 C 438.748 0.0122958 2.06596 0
M  V30 4678 C 439.156 -1.27861 1.39457 0
M  V30 4679 O 438.499 -1.77348 0.478907 0
M  V30 4680 C 438.561 -0.273131 3.58461 0
M  V30 4681 C 438.225 0.92561 4.47528 0
M  V30 4682 C 439.222 1.82637 4.86765 0
M  V30 4683 C 436.907 1.13511 4.89306 0
M  V30 4684 C 438.901 2.92047 5.66558 0
M  V30 4685 C 436.588 2.23233 5.68868 0
M  V30 4686 C 437.586 3.12333 6.07402 0
M  V30 4687 O 437.274 4.20155 6.85365 0
M  V30 4688 H 437.006 0.0344283 0.675123 0
M  V30 4689 H 439.56 0.746494 1.91355 0
M  V30 4690 H 437.79 -1.06141 3.71848 0
M  V30 4691 H 439.479 -0.742842 3.99045 0
M  V30 4692 H 440.245 1.67649 4.55103 0
M  V30 4693 H 436.124 0.450835 4.5879 0
M  V30 4694 H 439.668 3.6162 5.96554 0
M  V30 4695 H 435.565 2.38201 5.99942 0
M  V30 4696 H 436.333 4.17975 7.03732 0
M  V30 4697 N 438.996 -1.55193 0.274407 0
M  V30 4698 C 439.944 -2.23924 -0.629362 0
M  V30 4699 C 440.938 -1.23602 -1.1584 0
M  V30 4700 O 442.144 -1.41535 -1.11211 0
M  V30 4701 H 438.519 -0.718637 -0.221507 0
M  V30 4702 H 440.49 -2.98388 -0.0268322 0
M  V30 4703 C 439.239 -2.97329 -1.80252 0
M  V30 4704 H 438.562 -3.74313 -1.40462 0
M  V30 4705 H 440.002 -3.48743 -2.41152 0
M  V30 4706 C 438.461 -2.0276 -2.69054 0
M  V30 4707 O 438.991 -1.57836 -3.69392 0
M  V30 4708 N 437.197 -1.69275 -2.36208 0
M  V30 4709 H 436.744 -2.06004 -1.54661 0
M  V30 4710 H 436.702 -1.06271 -2.95895 0
M  V30 4711 N 440.474 -0.00167713 -1.576 0
M  V30 4712 C 441.437 0.974046 -2.07473 0
M  V30 4713 C 442.437 1.27143 -0.984444 0
M  V30 4714 O 443.627 1.21633 -1.24703 0
M  V30 4715 C 440.759 2.29849 -2.51759 0
M  V30 4716 H 441.952 0.54262 -2.9495 0
M  V30 4717 H 439.505 0.245829 -1.54355 0
M  V30 4718 H 440.24 2.77677 -1.67529 0
M  V30 4719 H 440.025 2.09584 -3.31386 0
M  V30 4720 H 441.515 2.9984 -2.90664 0
M  V30 4721 N 441.952 1.55251 0.271103 0
M  V30 4722 C 442.882 1.9127 1.33933 0
M  V30 4723 C 443.863 0.77478 1.5143 0
M  V30 4724 O 445.048 1.03307 1.64442 0
M  V30 4725 C 442.178 2.18627 2.69851 0
M  V30 4726 C 441.132 3.34442 2.67081 0
M  V30 4727 C 440.458 3.47284 4.06569 0
M  V30 4728 C 441.758 4.70784 2.26185 0
M  V30 4729 H 443.452 2.80744 1.04035 0
M  V30 4730 H 440.998 1.35077 0.499017 0
M  V30 4731 H 442.951 2.42413 3.44694 0
M  V30 4732 H 441.675 1.25955 3.01335 0
M  V30 4733 H 440.334 3.10627 1.94695 0
M  V30 4734 H 439.982 2.52074 4.35279 0
M  V30 4735 H 439.682 4.25152 4.0561 0
M  V30 4736 H 441.206 3.73363 4.83148 0
M  V30 4737 H 442.62 4.94102 2.90751 0
M  V30 4738 H 441.017 5.51582 2.36384 0
M  V30 4739 H 442.087 4.69478 1.21319 0
M  V30 4740 N 443.43 -0.535701 1.48216 0
M  V30 4741 C 444.34 -1.66785 1.64985 0
M  V30 4742 C 445.356 -1.65654 0.532414 0
M  V30 4743 O 446.532 -1.8471 0.80275 0
M  V30 4744 C 443.597 -3.0326 1.68031 0
M  V30 4745 C 442.658 -3.1529 2.9136 0
M  V30 4746 C 441.891 -4.45255 2.94252 0
M  V30 4747 O 442.114 -5.32011 2.05719 0
M  V30 4748 O 441.048 -4.6153 3.86359 0
M  V30 4749 H 444.874 -1.55576 2.60825 0
M  V30 4750 H 442.459 -0.70815 1.31551 0
M  V30 4751 H 444.341 -3.84436 1.72589 0
M  V30 4752 H 443.016 -3.14805 0.753628 0
M  V30 4753 H 441.923 -2.3343 2.92337 0
M  V30 4754 H 443.256 -3.08658 3.83394 0
M  V30 4755 N 444.908 -1.36708 -0.784132 0
M  V30 4756 C 446.136 -1.34398 -1.57305 0
M  V30 4757 C 446.551 0.0735577 -1.88657 0
M  V30 4758 O 445.908 1.03193 -1.50524 0
M  V30 4759 C 445.959 -2.17053 -2.89085 0
M  V30 4760 O 445.68 -3.53281 -2.59083 0
M  V30 4761 C 447.181 -2.22583 -3.83369 0
M  V30 4762 H 444.401 -0.460819 -0.487736 0
M  V30 4763 H 446.945 -1.79879 -0.972819 0
M  V30 4764 H 445.1 -1.75113 -3.45564 0
M  V30 4765 H 445.514 -3.9647 -3.43383 0
M  V30 4766 H 446.988 -2.84763 -4.72878 0
M  V30 4767 H 447.465 -1.23075 -4.21603 0
M  V30 4768 H 448.071 -2.64781 -3.32823 0
M  V30 4769 N 446.386 1.0089 -1.21074 0
M  V30 4770 C 447.349 2.0775 -0.968129 0
M  V30 4771 C 448.349 1.6069 0.0593445 0
M  V30 4772 O 449.539 1.73293 -0.177525 0
M  V30 4773 C 446.671 3.37794 -0.459108 0
M  V30 4774 H 447.864 2.30707 -1.9161 0
M  V30 4775 H 445.417 1.17807 -1.02719 0
M  V30 4776 H 446.152 3.20516 0.49397 0
M  V30 4777 H 445.937 3.7328 -1.20019 0
M  V30 4778 H 447.427 4.16454 -0.309099 0
M  V30 4779 N 447.864 1.01787 1.20321 0
M  V30 4780 C 449.092 0.727194 1.937 0
M  V30 4781 C 449.507 -0.712305 1.74848 0
M  V30 4782 O 448.864 -1.48327 1.06327 0
M  V30 4783 C 448.915 1.05497 3.45764 0
M  V30 4784 O 448.636 2.43794 3.64 0
M  V30 4785 C 450.137 0.785534 4.36285 0
M  V30 4786 H 447.357 0.266939 0.615617 0
M  V30 4787 H 449.901 1.35939 1.52777 0
M  V30 4788 H 448.056 0.468158 3.84561 0
M  V30 4789 H 448.47 2.55656 4.57974 0
M  V30 4790 H 449.944 1.06495 5.4163 0
M  V30 4791 H 450.421 -0.280273 4.38305 0
M  V30 4792 H 451.027 1.35456 4.03152 0
M  V30 4793 N 449.342 -1.36122 0.79427 0
M  V30 4794 C 450.59 -1.98718 0.368177 0
M  V30 4795 C 450.911 -1.63345 -1.06506 0
M  V30 4796 O 450.181 -0.909825 -1.73491 0
M  V30 4797 H 448.761 -0.735038 0.133146 0
M  V30 4798 H 451.423 -1.66239 1.01739 0
M  V30 4799 H 450.519 -3.08633 0.463923 0
M  V30 4800 N 450.82 -0.546701 -1.47814 0
M  V30 4801 C 452.068 -0.0187037 -2.02091 0
M  V30 4802 C 452.389 1.33168 -1.42447 0
M  V30 4803 O 451.659 1.86619 -0.595839 0
M  V30 4804 H 450.239 -0.00392531 -0.74699 0
M  V30 4805 H 452.901 -0.714327 -1.81338 0
M  V30 4806 H 451.997 0.0772219 -3.12004 0
M  V30 4807 N 452.299 1.55045 -0.282633 0
M  V30 4808 C 453.546 1.9976 0.33199 0
M  V30 4809 C 453.874 1.17105 1.55295 0
M  V30 4810 O 453.129 0.230599 1.94337 0
M  V30 4811 C 453.428 3.49422 0.750938 0
M  V30 4812 C 453.094 4.4941 -0.366228 0
M  V30 4813 C 451.756 4.76471 -0.672964 0
M  V30 4814 C 454.108 5.09054 -1.11864 0
M  V30 4815 C 451.436 5.60442 -1.73556 0
M  V30 4816 C 453.788 5.9418 -2.17102 0
M  V30 4817 C 452.452 6.19558 -2.48402 0
M  V30 4818 H 451.722 0.730974 0.121484 0
M  V30 4819 H 454.369 1.8732 -0.39791 0
M  V30 4820 H 452.674 3.59377 1.56063 0
M  V30 4821 H 454.371 3.81432 1.23736 0
M  V30 4822 H 450.961 4.2844 -0.117041 0
M  V30 4823 H 455.145 4.88165 -0.894925 0
M  V30 4824 H 450.401 5.78349 -1.983 0
M  V30 4825 H 454.575 6.39427 -2.75873 0
M  V30 4826 H 452.202 6.84417 -3.30874 0
M  V30 4827 N 453.777 0.010035 1.57597 0
M  V30 4828 C 455.023 -0.673697 1.91283 0
M  V30 4829 C 455.356 -1.72863 0.884979 0
M  V30 4830 O 454.631 -1.94268 -0.0949487 0
M  V30 4831 C 454.914 -1.30766 3.35518 0
M  V30 4832 C 454.767 -0.263578 4.49027 0
M  V30 4833 C 456.086 -2.23105 3.79358 0
M  V30 4834 H 453.205 -0.243439 0.695634 0
M  V30 4835 H 455.847 0.0633864 1.89894 0
M  V30 4836 H 453.997 -1.93588 3.36832 0
M  V30 4837 H 455.669 0.365738 4.59848 0
M  V30 4838 H 453.912 0.413077 4.31829 0
M  V30 4839 H 454.583 -0.746398 5.4693 0
M  V30 4840 H 457.059 -1.70289 3.79659 0
M  V30 4841 H 455.935 -2.64424 4.81011 0
M  V30 4842 H 456.196 -3.11433 3.13787 0
M  V30 4843 N 455.255 -1.55392 -0.262866 0
M  V30 4844 C 456.185 -1.91978 -1.32917 0
M  V30 4845 C 457.166 -0.7828 -1.51017 0
M  V30 4846 O 458.351 -1.04178 -1.63892 0
M  V30 4847 C 455.481 -2.20055 -2.68687 0
M  V30 4848 C 454.435 -3.35854 -2.65304 0
M  V30 4849 C 453.761 -3.49435 -4.04721 0
M  V30 4850 C 455.061 -4.71977 -2.23685 0
M  V30 4851 H 456.755 -2.81292 -1.02544 0
M  V30 4852 H 454.301 -1.3534 -0.491846 0
M  V30 4853 H 456.254 -2.44237 -3.43404 0
M  V30 4854 H 454.978 -1.27551 -3.00663 0
M  V30 4855 H 453.637 -3.11655 -1.93045 0
M  V30 4856 H 453.285 -2.54379 -4.33936 0
M  V30 4857 H 452.985 -4.27297 -4.0335 0
M  V30 4858 H 454.509 -3.7592 -4.81161 0
M  V30 4859 H 455.923 -4.95637 -2.88127 0
M  V30 4860 H 454.32 -5.52828 -2.33456 0
M  V30 4861 H 455.39 -4.70115 -1.18827 0
M  V30 4862 N 456.733 0.527833 -1.48498 0
M  V30 4863 C 457.663 1.64136 -1.66077 0
M  V30 4864 C 458.644 1.62286 -0.509625 0
M  V30 4865 O 459.829 1.79449 -0.742413 0
M  V30 4866 C 456.959 3.02717 -1.70234 0
M  V30 4867 C 455.913 3.19426 -2.8487 0
M  V30 4868 C 455.239 4.5909 -2.74118 0
M  V30 4869 C 456.539 3.01993 -4.26142 0
M  V30 4870 H 458.233 1.4968 -2.593 0
M  V30 4871 H 455.779 0.718654 -1.24785 0
M  V30 4872 H 457.732 3.80491 -1.8112 0
M  V30 4873 H 456.456 3.18201 -0.735911 0
M  V30 4874 H 455.115 2.4407 -2.73542 0
M  V30 4875 H 454.763 4.71413 -1.7544 0
M  V30 4876 H 454.463 4.71214 -3.51042 0
M  V30 4877 H 455.987 5.3896 -2.86974 0
M  V30 4878 H 457.401 3.69558 -4.38292 0
M  V30 4879 H 455.798 3.2561 -5.04082 0
M  V30 4880 H 456.868 1.98396 -4.42456 0
M  V30 4881 N 458.211 1.37122 0.776871 0
M  V30 4882 C 459.441 1.35034 1.56363 0
M  V30 4883 C 459.849 -0.0674681 1.8908 0
M  V30 4884 O 459.192 -1.03826 1.51545 0
M  V30 4885 C 459.254 2.11894 2.90415 0
M  V30 4886 C 458.918 3.60897 2.80362 0
M  V30 4887 C 459.915 4.54887 2.51742 0
M  V30 4888 C 457.6 4.03951 2.98545 0
M  V30 4889 C 459.594 5.89909 2.41426 0
M  V30 4890 C 457.281 5.3906 2.87849 0
M  V30 4891 C 458.279 6.31852 2.5933 0
M  V30 4892 O 457.967 7.64479 2.48651 0
M  V30 4893 H 457.699 0.464402 0.49123 0
M  V30 4894 H 460.253 1.80992 0.971127 0
M  V30 4895 H 458.483 1.60618 3.51765 0
M  V30 4896 H 460.172 2.02505 3.51776 0
M  V30 4897 H 460.938 4.22934 2.37385 0
M  V30 4898 H 456.817 3.3209 3.19746 0
M  V30 4899 H 460.361 6.62304 2.19086 0
M  V30 4900 H 456.258 5.70617 3.01773 0
M  V30 4901 H 457.026 7.74742 2.64039 0
M  V30 4902 N 459.689 -1.00246 1.21608 0
M  V30 4903 C 460.599 -2.12515 0.993709 0
M  V30 4904 C 461.615 -1.73913 -0.0549939 0
M  V30 4905 O 462.791 -2.00943 0.135619 0
M  V30 4906 C 459.856 -3.42083 0.563953 0
M  V30 4907 C 458.917 -3.94843 1.68516 0
M  V30 4908 C 458.15 -5.18226 1.27582 0
M  V30 4909 O 458.373 -5.70201 0.150506 0
M  V30 4910 O 457.307 -5.64497 2.0887 0
M  V30 4911 H 461.133 -2.34152 1.93407 0
M  V30 4912 H 458.718 -1.10891 1.00118 0
M  V30 4913 H 460.6 -4.20073 0.334194 0
M  V30 4914 H 459.275 -3.21828 -0.347665 0
M  V30 4915 H 458.182 -3.18068 1.96935 0
M  V30 4916 H 459.515 -4.19512 2.5743 0
M  V30 4917 N 461.167 -1.02423 -1.1978 0
M  V30 4918 C 462.413 -0.72878 -1.89896 0
M  V30 4919 C 462.768 0.734248 -1.77839 0
M  V30 4920 O 462.061 1.52733 -1.15685 0
M  V30 4921 C 462.255 -1.1088 -3.39765 0
M  V30 4922 C 462.084 -2.60722 -3.66407 0
M  V30 4923 C 460.854 -3.27623 -3.84696 0
M  V30 4924 C 463.052 -3.58924 -3.68345 0
M  V30 4925 N 461.034 -4.66617 -3.98926 0
M  V30 4926 C 462.405 -4.83514 -3.8809 0
M  V30 4927 C 464.46 -3.52788 -3.51347 0
M  V30 4928 C 463.163 -6.0271 -3.92598 0
M  V30 4929 C 465.189 -4.71394 -3.5713 0
M  V30 4930 C 464.551 -5.94796 -3.77356 0
M  V30 4931 H 460.65 -0.318473 -0.714212 0
M  V30 4932 H 463.234 -1.3106 -1.43984 0
M  V30 4933 H 461.405 -0.555233 -3.84411 0
M  V30 4934 H 463.137 -0.766082 -3.97383 0
M  V30 4935 H 459.892 -2.7804 -3.83393 0
M  V30 4936 H 460.316 -5.38805 -4.099 0
M  V30 4937 H 464.958 -2.58372 -3.3467 0
M  V30 4938 H 462.676 -6.97499 -4.08069 0
M  V30 4939 H 466.262 -4.6827 -3.45275 0
M  V30 4940 H 465.142 -6.85037 -3.81699 0
M  V30 4941 N 462.645 1.35699 -0.801477 0
M  V30 4942 C 463.891 1.99208 -0.380022 0
M  V30 4943 C 464.224 1.63445 1.04878 0
M  V30 4944 O 463.499 0.895223 1.72673 0
M  V30 4945 C 463.782 3.55755 -0.557708 0
M  V30 4946 C 463.635 4.01332 -2.03107 0
M  V30 4947 C 464.954 4.40096 0.0197968 0
M  V30 4948 H 462.073 0.723667 -0.139552 0
M  V30 4949 H 464.715 1.60928 -1.01006 0
M  V30 4950 H 462.865 3.88494 -0.0213741 0
M  V30 4951 H 464.537 3.79026 -2.62939 0
M  V30 4952 H 462.78 3.52429 -2.52936 0
M  V30 4953 H 463.451 5.10234 -2.1063 0
M  V30 4954 H 465.927 4.13786 -0.438179 0
M  V30 4955 H 464.803 5.48735 -0.134477 0
M  V30 4956 H 465.064 4.2786 1.11303 0
M  V30 4957 N 464.123 0.554532 1.47522 0
M  V30 4958 C 465.053 -0.182974 2.32782 0
M  V30 4959 C 466.034 -0.911377 1.43624 0
M  V30 4960 O 467.219 -0.892366 1.72483 0
M  V30 4961 C 464.349 -1.21513 3.25349 0
M  V30 4962 C 463.303 -0.603355 4.23726 0
M  V30 4963 C 462.629 -1.73995 5.05598 0
M  V30 4964 C 463.929 0.441121 5.20434 0
M  V30 4965 H 465.623 0.52882 2.94693 0
M  V30 4966 H 463.169 0.255759 1.41711 0
M  V30 4967 H 465.122 -1.73922 3.83835 0
M  V30 4968 H 463.846 -1.95683 2.61487 0
M  V30 4969 H 462.505 -0.10059 3.66462 0
M  V30 4970 H 462.153 -2.47063 4.38143 0
M  V30 4971 H 461.853 -1.3364 5.72201 0
M  V30 4972 H 463.377 -2.26735 5.66942 0
M  V30 4973 H 464.791 0.00319931 5.733 0
M  V30 4974 H 463.188 0.763402 5.95224 0
M  V30 4975 H 464.258 1.33799 4.66075 0
M  V30 4976 N 465.601 -1.54893 0.290851 0
M  V30 4977 C 466.533 -2.20564 -0.623236 0
M  V30 4978 C 467.546 -1.19519 -1.1054 0
M  V30 4979 O 468.735 -1.46165 -1.02459 0
M  V30 4980 C 465.835 -2.83033 -1.86401 0
M  V30 4981 C 465.008 -4.09916 -1.52604 0
M  V30 4982 C 464.067 -4.56284 -2.62091 0
M  V30 4983 O 463.093 -5.2171 -2.27612 0
M  V30 4984 N 464.295 -4.27746 -3.92446 0
M  V30 4985 H 467.06 -2.99638 -0.0610915 0
M  V30 4986 H 464.621 -1.61508 0.112615 0
M  V30 4987 H 466.613 -3.1099 -2.58973 0
M  V30 4988 H 465.183 -2.0786 -2.33481 0
M  V30 4989 H 464.403 -3.89078 -0.633424 0
M  V30 4990 H 465.691 -4.92554 -1.27547 0
M  V30 4991 H 465.089 -3.7531 -4.23272 0
M  V30 4992 H 463.646 -4.60437 -4.61347 0
M  V30 4993 N 467.08 -0.0183926 -1.57589 0
M  V30 4994 C 468.326 0.657813 -1.92469 0
M  V30 4995 C 468.681 1.70349 -0.894375 0
M  V30 4996 O 467.974 1.91384 0.0910389 0
M  V30 4997 C 468.168 1.32676 -3.31861 0
M  V30 4998 C 467.997 0.347403 -4.48356 0
M  V30 4999 C 466.767 -0.0488653 -5.05276 0
M  V30 5000 C 468.965 -0.393931 -5.12789 0
M  V30 5001 N 466.947 -1.02451 -6.05291 0
M  V30 5002 C 468.318 -1.22367 -6.07804 0
M  V30 5003 C 470.373 -0.455789 -4.95809 0
M  V30 5004 C 469.076 -2.10966 -6.87667 0
M  V30 5005 C 471.102 -1.32908 -5.76272 0
M  V30 5006 C 470.464 -2.14662 -6.70894 0
M  V30 5007 H 466.563 0.21335 -0.752334 0
M  V30 5008 H 469.147 -0.0830547 -1.94523 0
M  V30 5009 H 467.318 2.03782 -3.30647 0
M  V30 5010 H 469.05 1.95913 -3.54119 0
M  V30 5011 H 465.805 0.323356 -4.72495 0
M  V30 5012 H 466.229 -1.50826 -6.59985 0
M  V30 5013 H 470.871 0.162017 -4.22489 0
M  V30 5014 H 468.589 -2.73807 -7.603 0
M  V30 5015 H 472.175 -1.38109 -5.6517 0
M  V30 5016 H 471.055 -2.81143 -7.32071 0
M  V30 5017 N 468.558 1.5553 0.254621 0
M  V30 5018 C 469.49 1.86104 1.33783 0
M  V30 5019 C 470.503 0.746752 1.44663 0
M  V30 5020 O 471.692 1.0248 1.46151 0
M  V30 5021 C 468.792 2.02532 2.71724 0
M  V30 5022 C 467.965 3.33335 2.83208 0
M  V30 5023 C 467.024 3.396 4.01943 0
M  V30 5024 O 466.05 4.12862 3.91834 0
M  V30 5025 N 467.252 2.68332 5.1476 0
M  V30 5026 H 470.017 2.79605 1.07893 0
M  V30 5027 H 467.578 1.55672 0.444732 0
M  V30 5028 H 469.57 2.04074 3.4948 0
M  V30 5029 H 468.14 1.15811 2.90356 0
M  V30 5030 H 467.36 3.44176 1.92189 0
M  V30 5031 H 468.648 4.19565 2.87824 0
M  V30 5032 H 468.046 2.08528 5.25864 0
M  V30 5033 H 466.603 2.75575 5.90679 0
M  V30 5034 N 470.036 -0.519951 1.48776 0
M  V30 5035 C 470.983 -1.62352 1.64044 0
M  V30 5036 C 471.953 -1.58945 0.482251 0
M  V30 5037 O 473.138 -1.77219 0.706971 0
M  V30 5038 C 470.278 -3.00579 1.69547 0
M  V30 5039 C 469.391 -3.14145 2.96541 0
M  V30 5040 C 468.526 -4.42991 2.93142 0
M  V30 5041 C 467.565 -4.50122 4.14797 0
M  V30 5042 N 466.702 -5.7037 4.09418 0
M  V30 5043 H 471.542 -1.48643 2.58281 0
M  V30 5044 H 469.079 -0.723516 1.28077 0
M  V30 5045 H 471.037 -3.80671 1.70719 0
M  V30 5046 H 469.667 -3.13036 0.787918 0
M  V30 5047 H 468.719 -2.27239 3.05068 0
M  V30 5048 H 470.031 -3.15275 3.86527 0
M  V30 5049 H 469.185 -5.31385 2.92772 0
M  V30 5050 H 467.924 -4.44398 2.00902 0
M  V30 5051 H 466.929 -3.60133 4.15433 0
M  V30 5052 H 468.154 -4.50445 5.08208 0
M  V30 5053 H 466.1 -5.72655 3.20004 0
M  V30 5054 H 466.017 -5.73036 4.93119 0
M  V30 5055 H 467.285 -6.61023 4.13121 0
M  V30 5056 N 471.514 -1.37532 -0.769588 0
M  V30 5057 C 472.461 -1.3347 -1.88293 0
M  V30 5058 C 473.431 -0.199891 -1.64893 0
M  V30 5059 O 474.616 -0.389594 -1.8678 0
M  V30 5060 C 471.756 -1.14968 -3.25387 0
M  V30 5061 C 470.869 -2.37698 -3.60727 0
M  V30 5062 C 470.004 -2.12051 -4.8704 0
M  V30 5063 C 469.043 -3.30636 -5.15117 0
M  V30 5064 N 468.18 -3.04527 -6.3262 0
M  V30 5065 H 473.02 -2.28658 -1.911 0
M  V30 5066 H 470.557 -1.13622 -0.934257 0
M  V30 5067 H 472.515 -1.02261 -4.04473 0
M  V30 5068 H 471.145 -0.234263 -3.21949 0
M  V30 5069 H 470.197 -2.61137 -2.76608 0
M  V30 5070 H 471.509 -3.26131 -3.77413 0
M  V30 5071 H 470.663 -1.96388 -5.74035 0
M  V30 5072 H 469.402 -1.20959 -4.72462 0
M  V30 5073 H 468.407 -3.46836 -4.26597 0
M  V30 5074 H 469.632 -4.22582 -5.31603 0
M  V30 5075 H 467.578 -2.16067 -6.19396 0
M  V30 5076 H 467.495 -3.86503 -6.49732 0
M  V30 5077 H 468.763 -2.92485 -7.22546 0
M  V30 5078 N 472.992 0.995999 -1.22138 0
M  V30 5079 C 473.925 2.08302 -0.931952 0
M  V30 5080 C 474.903 1.62127 0.123956 0
M  V30 5081 O 476.087 1.88499 -0.00696004 0
M  V30 5082 C 473.214 3.36317 -0.401068 0
M  V30 5083 C 472.26 4.01413 -1.44117 0
M  V30 5084 S 473.093 4.42664 -3.01345 0
M  V30 5085 C 474.249 5.73853 -2.49887 0
M  V30 5086 H 474.482 2.32532 -1.85246 0
M  V30 5087 H 472.015 1.13005 -1.0521 0
M  V30 5088 H 473.973 4.10375 -0.101352 0
M  V30 5089 H 472.634 3.10123 0.498272 0
M  V30 5090 H 471.827 4.9358 -1.01952 0
M  V30 5091 H 471.429 3.33668 -1.68943 0
M  V30 5092 H 473.721 6.50039 -1.90934 0
M  V30 5093 H 474.664 6.20841 -3.40532 0
M  V30 5094 H 475.072 5.31105 -1.9128 0
M  V30 5095 N 474.47 1.03057 1.19235 0
M  V30 5096 C 475.718 0.726581 1.88587 0
M  V30 5097 C 476.039 -0.747227 1.80115 0
M  V30 5098 O 475.309 -1.53849 1.21274 0
M  V30 5099 H 473.889 0.265768 0.698124 0
M  V30 5100 H 476.551 1.30516 1.44746 0
M  V30 5101 H 475.647 1.0224 2.94879 0
M  V30 5102 N 475.948 -1.35272 0.808662 0
M  V30 5103 C 477.359 -1.81179 0.450688 0
M  V30 5104 C 477.71 -1.67143 -1.02751 0
M  V30 5105 O 476.835 -1.20325 -1.79864 0
M  V30 5106 C 477.43 -3.28943 0.811275 0
M  V30 5107 C 475.989 -3.72985 0.505871 0
M  V30 5108 C 475.136 -2.57229 1.03578 0
M  V30 5109 H 478.087 -1.2322 1.00012 0
M  V30 5110 H 478.108 -3.80342 0.109588 0
M  V30 5111 H 477.62 -3.39127 1.88718 0
M  V30 5112 H 475.721 -3.68349 -0.561209 0
M  V30 5113 H 475.834 -4.67677 1.03995 0
M  V30 5114 H 474.198 -2.50548 0.458005 0
M  V30 5115 H 474.981 -2.7019 2.11784 0
M  V30 5116 N 477.426 -0.562348 -1.47226 0
M  V30 5117 C 478.673 -0.0402165 -2.0246 0
M  V30 5118 C 479.001 1.31169 -1.43614 0
M  V30 5119 O 478.256 1.86805 -0.5833 0
M  V30 5120 C 478.555 0.0969817 -3.57268 0
M  V30 5121 C 478.221 -1.1847 -4.35058 0
M  V30 5122 C 476.883 -1.53588 -4.56031 0
M  V30 5123 C 479.235 -2.03378 -4.79882 0
M  V30 5124 C 476.563 -2.73452 -5.19077 0
M  V30 5125 C 478.915 -3.2245 -5.44251 0
M  V30 5126 C 477.579 -3.57876 -5.63455 0
M  V30 5127 H 476.849 -0.0147163 -0.740854 0
M  V30 5128 H 479.496 -0.734895 -1.76838 0
M  V30 5129 H 477.801 0.87466 -3.81912 0
M  V30 5130 H 479.498 0.516408 -3.97661 0
M  V30 5131 H 476.088 -0.90126 -4.19017 0
M  V30 5132 H 480.272 -1.77553 -4.63453 0
M  V30 5133 H 475.528 -3.01062 -5.32139 0
M  V30 5134 H 479.702 -3.88526 -5.77945 0
M  V30 5135 H 477.329 -4.50849 -6.12078 0
M  V30 5136 N 478.904 1.54736 -0.299062 0
M  V30 5137 C 479.834 2.26409 0.571085 0
M  V30 5138 C 480.815 1.2629 1.13951 0
M  V30 5139 O 482 1.55059 1.16921 0
M  V30 5140 C 479.13 3.00338 1.74396 0
M  V30 5141 C 478.084 4.07588 1.30599 0
M  V30 5142 C 477.41 4.69222 2.56387 0
M  V30 5143 C 478.71 5.20455 0.438645 0
M  V30 5144 H 480.404 2.99388 -0.0266991 0
M  V30 5145 H 477.95 1.43993 -0.0142812 0
M  V30 5146 H 479.903 3.49198 2.35878 0
M  V30 5147 H 478.627 2.24934 2.36796 0
M  V30 5148 H 477.286 3.59575 0.71424 0
M  V30 5149 H 476.934 3.9046 3.17097 0
M  V30 5150 H 476.634 5.41653 2.27784 0
M  V30 5151 H 478.158 5.20844 3.18675 0
M  V30 5152 H 479.572 5.65221 0.959085 0
M  V30 5153 H 477.969 5.99594 0.246466 0
M  V30 5154 H 479.039 4.8192 -0.536738 0
M  V30 5155 N 480.382 0.0267497 1.57577 0
M  V30 5156 C 481.61 -0.662661 1.96001 0
M  V30 5157 C 482.025 -1.65799 0.903117 0
M  V30 5158 O 481.382 -1.82135 -0.115317 0
M  V30 5159 C 481.433 -1.37112 3.34488 0
M  V30 5160 O 481.154 -0.415683 4.36123 0
M  V30 5161 C 482.655 -2.15257 3.8753 0
M  V30 5162 H 479.875 -0.18287 0.6456 0
M  V30 5163 H 482.419 0.0858116 2.0432 0
M  V30 5164 H 480.574 -2.07101 3.27395 0
M  V30 5165 H 480.988 -0.918496 5.16395 0
M  V30 5166 H 482.462 -2.60285 4.86781 0
M  V30 5167 H 482.939 -2.99063 3.21649 0
M  V30 5168 H 483.545 -1.50231 3.97883 0
M  V30 5169 N 481.861 -1.55662 -0.24637 0
M  V30 5170 C 483.086 -1.81914 -0.996093 0
M  V30 5171 C 483.511 -0.603875 -1.78143 0
M  V30 5172 O 482.869 0.447091 -1.75701 0
M  V30 5173 C 482.917 -3.05908 -1.90925 0
M  V30 5174 O 482.021 -2.82861 -3.00105 0
M  V30 5175 H 481.362 -0.600481 -0.283406 0
M  V30 5176 H 483.892 -2.02848 -0.267199 0
M  V30 5177 H 483.902 -3.35356 -2.3238 0
M  V30 5178 H 482.577 -3.93999 -1.33183 0
M  V30 5179 H 481.154 -2.64583 -2.62775 0
M  V30 5180 N 483.339 0.512053 -1.4905 0
M  V30 5181 C 484.271 1.63121 -1.6101 0
M  V30 5182 C 485.284 1.55145 -0.493352 0
M  V30 5183 O 486.473 1.61278 -0.764955 0
M  V30 5184 C 483.573 3.01863 -1.54052 0
M  V30 5185 C 482.746 3.35138 -2.81072 0
M  V30 5186 C 481.805 4.5324 -2.67319 0
M  V30 5187 O 480.831 4.55571 -3.41238 0
M  V30 5188 N 482.033 5.52495 -1.78127 0
M  V30 5189 H 484.798 1.53292 -2.5753 0
M  V30 5190 H 482.359 0.699706 -1.45999 0
M  V30 5191 H 484.351 3.78774 -1.42521 0
M  V30 5192 H 482.921 3.05675 -0.654345 0
M  V30 5193 H 482.141 2.4723 -3.07036 0
M  V30 5194 H 483.429 3.54162 -3.65304 0
M  V30 5195 H 482.827 5.53403 -1.17308 0
M  V30 5196 H 481.384 6.28553 -1.72525 0
M  V30 5197 N 484.817 1.37938 0.762283 0
M  V30 5198 C 485.727 1.36681 1.90671 0
M  V30 5199 C 486.743 0.265078 1.71969 0
M  V30 5200 O 487.919 0.502055 1.95042 0
M  V30 5201 C 484.984 1.18211 3.25925 0
M  V30 5202 C 484.045 2.3811 3.57214 0
M  V30 5203 C 483.278 2.20512 4.86014 0
M  V30 5204 O 483.501 1.19429 5.57757 0
M  V30 5205 O 482.435 3.08911 5.16583 0
M  V30 5206 H 486.261 2.33091 1.94685 0
M  V30 5207 H 483.846 1.18767 0.906356 0
M  V30 5208 H 485.728 1.09937 4.06807 0
M  V30 5209 H 484.403 0.248807 3.22742 0
M  V30 5210 H 483.31 2.51958 2.76529 0
M  V30 5211 H 484.643 3.30041 3.65149 0
M  V30 5212 N 486.295 -0.989507 1.22664 0
M  V30 5213 C 487.242 -2.08024 0.999733 0
M  V30 5214 C 488.212 -1.65909 -0.0797047 0
M  V30 5215 O 489.397 -1.90669 0.0705715 0
M  V30 5216 C 486.537 -3.40067 0.587234 0
M  V30 5217 C 485.65 -3.95505 1.73781 0
M  V30 5218 C 484.785 -5.15722 1.27297 0
M  V30 5219 C 483.824 -5.63305 2.39488 0
M  V30 5220 N 482.961 -6.74758 1.94026 0
M  V30 5221 H 487.801 -2.26768 1.9334 0
M  V30 5222 H 485.338 -1.11171 0.963297 0
M  V30 5223 H 487.296 -4.15899 0.329227 0
M  V30 5224 H 485.926 -3.21314 -0.309426 0
M  V30 5225 H 484.978 -3.16513 2.11006 0
M  V30 5226 H 486.29 -4.26797 2.58158 0
M  V30 5227 H 485.444 -5.98854 0.972546 0
M  V30 5228 H 484.183 -4.86061 0.399445 0
M  V30 5229 H 483.188 -4.78759 2.70315 0
M  V30 5230 H 484.413 -5.94988 3.27362 0
M  V30 5231 H 482.359 -6.46874 1.09041 0
M  V30 5232 H 482.276 -7.05386 2.71968 0
M  V30 5233 H 483.544 -7.61387 1.67062 0
M  V30 5234 N 487.773 -1.03688 -1.18687 0
M  V30 5235 C 488.683 -0.634908 -2.25845 0
M  V30 5236 C 489.699 0.337065 -1.70704 0
M  V30 5237 O 490.875 0.192943 -2.00474 0
M  V30 5238 C 487.94 -0.000180054 -3.467 0
M  V30 5239 C 487.001 -1.02067 -4.1699 0
M  V30 5240 C 486.234 -0.41614 -5.32075 0
M  V30 5241 O 486.457 0.778712 -5.65059 0
M  V30 5242 O 485.391 -1.14296 -5.90948 0
M  V30 5243 H 489.217 -1.52757 -2.62486 0
M  V30 5244 H 486.802 -0.807533 -1.25695 0
M  V30 5245 H 488.684 0.353342 -4.19916 0
M  V30 5246 H 487.359 0.866367 -3.11891 0
M  V30 5247 H 486.266 -1.42592 -3.45859 0
M  V30 5248 H 487.599 -1.85786 -4.5579 0
M  V30 5249 N 489.251 1.34841 -0.815825 0
M  V30 5250 C 490.198 2.29644 -0.230664 0
M  V30 5251 C 491.168 1.53253 0.640533 0
M  V30 5252 O 492.353 1.81653 0.583672 0
M  V30 5253 C 489.493 3.39715 0.607275 0
M  V30 5254 C 488.606 4.31056 -0.28538 0
M  V30 5255 C 487.741 5.28225 0.561446 0
M  V30 5256 C 486.78 6.11204 -0.331035 0
M  V30 5257 N 485.917 7.00483 0.476302 0
M  V30 5258 H 490.757 2.79095 -1.0445 0
M  V30 5259 H 488.294 1.37351 -0.526595 0
M  V30 5260 H 490.252 4.02208 1.10835 0
M  V30 5261 H 488.882 2.91517 1.38629 0
M  V30 5262 H 487.934 3.69487 -0.904621 0
M  V30 5263 H 489.246 4.89239 -0.97193 0
M  V30 5264 H 488.4 5.96135 1.12728 0
M  V30 5265 H 487.139 4.70562 1.28153 0
M  V30 5266 H 486.144 5.42232 -0.909069 0
M  V30 5267 H 487.369 6.70947 -1.04912 0
M  V30 5268 H 485.315 6.45296 1.18019 0
M  V30 5269 H 485.232 7.55847 -0.152008 0
M  V30 5270 H 486.5 7.7273 1.02512 0
M  V30 5271 N 490.729 0.570148 1.46925 0
M  V30 5272 C 491.978 0.0487352 2.01641 0
M  V30 5273 C 492.291 -1.31433 1.44861 0
M  V30 5274 O 493.497 -1.92638 1.91318 0
M  V30 5275 C 491.953 0.0365817 3.59881 0
M  V30 5276 C 491.561 1.39719 4.25655 0
M  V30 5277 C 493.305 -0.431545 4.22301 0
M  V30 5278 C 491.212 1.34345 5.75939 0
M  V30 5279 H 490.142 0.0144492 0.753862 0
M  V30 5280 H 492.793 0.719928 1.68788 0
M  V30 5281 H 491.175 -0.700522 3.89755 0
M  V30 5282 H 492.349 2.15303 4.07408 0
M  V30 5283 H 490.664 1.80431 3.75278 0
M  V30 5284 H 493.261 -0.490354 5.32447 0
M  V30 5285 H 493.604 -1.44638 3.90366 0
M  V30 5286 H 494.137 0.251102 3.97007 0
M  V30 5287 H 490.876 2.33469 6.12513 0
M  V30 5288 H 490.396 0.629615 5.96486 0
M  V30 5289 H 492.075 1.051 6.38407 0
M  V30 5290 N 492.207 -1.54576 0.307264 0
M  V30 5291 C 493.484 -1.92377 -0.353605 0
M  V30 5292 C 493.864 -1.23517 -1.71192 0
M  V30 5293 O 493.212 -0.373101 -2.25433 0
M  V30 5294 C 493.422 -3.45928 -0.462039 0
M  V30 5295 C 494.77 -4.18278 -0.729975 0
M  V30 5296 O 495.794 -3.51997 -0.545605 0
M  V30 5297 O 494.653 -5.3563 -1.08454 0
M  V30 5298 H 491.747 -0.802747 -0.198812 0
M  V30 5299 H 494.293 -1.65929 0.355783 0
M  V30 5300 H 493.065 -3.88187 0.492592 0
M  V30 5301 H 492.688 -3.78431 -1.21965 0
M  V30 5302 N 493.685 -0.035106 -1.57561 0
M  V30 5303 C 494.632 0.94474 -2.10578 0
M  V30 5304 C 495.602 1.3192 -1.00927 0
M  V30 5305 O 496.787 1.41147 -1.28382 0
M  V30 5306 C 493.927 2.21982 -2.64231 0
M  V30 5307 C 493.04 1.90128 -3.87911 0
M  V30 5308 C 492.175 3.11975 -4.29936 0
M  V30 5309 C 491.214 2.75968 -5.46359 0
M  V30 5310 N 490.351 3.90459 -5.83512 0
M  V30 5311 H 495.191 0.485717 -2.94015 0
M  V30 5312 H 492.728 0.228143 -1.4532 0
M  V30 5313 H 494.686 2.96572 -2.9343 0
M  V30 5314 H 493.316 2.6549 -1.83616 0
M  V30 5315 H 492.368 1.05755 -3.65404 0
M  V30 5316 H 493.68 1.59613 -4.72573 0
M  V30 5317 H 492.834 3.9488 -4.60603 0
M  V30 5318 H 491.573 3.45657 -3.44053 0
M  V30 5319 H 490.578 1.91478 -5.1538 0
M  V30 5320 H 491.803 2.43497 -6.33945 0
M  V30 5321 H 489.749 4.23971 -5.00584 0
M  V30 5322 H 489.666 3.63588 -6.62827 0
M  V30 5323 H 490.934 4.7405 -6.18787 0
M  V30 5324 N 495.163 1.55791 0.238111 0
M  V30 5325 C 496.403 1.79801 0.972163 0
M  V30 5326 C 496.767 0.606027 1.82185 0
M  V30 5327 O 497.968 0.725079 2.58836 0
M  V30 5328 C 496.239 3.08608 1.80266 0
M  V30 5329 S 497.798 3.53872 2.59461 0
M  V30 5330 H 494.616 0.631418 0.326852 0
M  V30 5331 H 497.218 1.94031 0.239212 0
M  V30 5332 H 495.922 3.93419 1.1683 0
M  V30 5333 H 495.453 2.9714 2.57821 0
M  V30 5334 H 497.468 3.15899 3.82651 0
M  V30 5335 N 496.642 -0.504142 1.49319 0
M  V30 5336 C 497.589 -1.60603 1.65756 0
M  V30 5337 C 498.559 -1.58425 0.499082 0
M  V30 5338 O 499.744 -1.76459 0.725728 0
M  V30 5339 C 496.884 -2.98764 1.72726 0
M  V30 5340 C 495.997 -3.10982 2.99857 0
M  V30 5341 C 495.132 -4.39857 2.97824 0
M  V30 5342 C 494.171 -4.45697 4.19548 0
M  V30 5343 N 493.308 -5.65995 4.15444 0
M  V30 5344 H 498.148 -1.45895 2.59843 0
M  V30 5345 H 495.685 -0.709891 1.28837 0
M  V30 5346 H 497.643 -3.78839 1.74747 0
M  V30 5347 H 496.273 -3.12183 0.821075 0
M  V30 5348 H 495.325 -2.23991 3.07461 0
M  V30 5349 H 496.637 -3.11157 3.89849 0
M  V30 5350 H 495.791 -5.2825 2.98391 0
M  V30 5351 H 494.53 -4.42242 2.05604 0
M  V30 5352 H 493.535 -3.55707 4.19229 0
M  V30 5353 H 494.76 -4.4503 5.12957 0
M  V30 5354 H 492.706 -5.69229 3.26059 0
M  V30 5355 H 492.623 -5.67773 4.99169 0
M  V30 5356 H 493.891 -6.56604 4.20109 0
M  V30 5357 N 498.12 -1.38341 -0.754957 0
M  V30 5358 C 499.067 -1.3546 -1.86867 0
M  V30 5359 C 500.037 -0.217369 -1.64672 0
M  V30 5360 O 501.222 -0.409383 -1.86356 0
M  V30 5361 C 498.362 -1.18413 -3.24149 0
M  V30 5362 C 497.475 -2.41511 -3.58185 0
M  V30 5363 C 496.61 -2.17205 -4.84763 0
M  V30 5364 C 495.649 -3.36081 -5.11582 0
M  V30 5365 N 494.786 -3.11219 -6.29354 0
M  V30 5366 H 499.626 -2.30672 -1.88664 0
M  V30 5367 H 497.163 -1.14607 -0.922154 0
M  V30 5368 H 499.121 -1.06545 -4.03366 0
M  V30 5369 H 497.751 -0.268397 -3.21682 0
M  V30 5370 H 496.803 -2.64056 -2.73822 0
M  V30 5371 H 498.115 -3.30115 -3.73932 0
M  V30 5372 H 497.269 -2.02465 -5.7192 0
M  V30 5373 H 496.008 -1.25964 -4.71152 0
M  V30 5374 H 495.013 -3.51341 -4.22894 0
M  V30 5375 H 496.238 -4.28196 -5.27091 0
M  V30 5376 H 494.184 -2.22624 -6.17069 0
M  V30 5377 H 494.101 -3.93373 -6.45596 0
M  V30 5378 H 495.369 -3.00132 -7.19403 0
M  V30 5379 N 499.598 0.982988 -1.23187 0
M  V30 5380 C 500.53 2.07729 -0.968572 0
M  V30 5381 C 501.543 1.62702 0.0564821 0
M  V30 5382 O 502.732 1.77603 -0.178733 0
M  V30 5383 C 499.832 3.36071 -0.436974 0
M  V30 5384 C 499.005 4.10081 -1.52159 0
M  V30 5385 C 498.064 5.16701 -0.99532 0
M  V30 5386 O 497.09 5.43727 -1.68373 0
M  V30 5387 N 498.292 5.80226 0.178192 0
M  V30 5388 H 501.057 2.30894 -1.9107 0
M  V30 5389 H 498.618 1.14949 -1.1401 0
M  V30 5390 H 500.61 4.04639 -0.0700051 0
M  V30 5391 H 499.18 3.09893 0.410509 0
M  V30 5392 H 498.4 3.36004 -2.06144 0
M  V30 5393 H 499.688 4.56295 -2.25105 0
M  V30 5394 H 499.086 5.60651 0.754096 0
M  V30 5395 H 497.643 6.49982 0.486449 0
M  V30 5396 N 501.076 1.04316 1.18135 0
M  V30 5397 C 502.325 0.74319 1.87509 0
M  V30 5398 C 502.638 -0.732136 1.81381 0
M  V30 5399 O 503.844 -1.14572 2.46141 0
M  V30 5400 C 502.3 1.27913 3.36402 0
M  V30 5401 C 501.908 2.78326 3.51053 0
M  V30 5402 C 503.652 1.0558 4.11161 0
M  V30 5403 C 501.559 3.25266 4.93919 0
M  V30 5404 H 500.489 0.274313 0.702331 0
M  V30 5405 H 503.14 1.25931 1.33467 0
M  V30 5406 H 501.522 0.690853 3.89927 0
M  V30 5407 H 502.696 3.42933 3.07788 0
M  V30 5408 H 501.011 2.991 2.89704 0
M  V30 5409 H 503.608 1.38161 5.16542 0
M  V30 5410 H 503.951 -0.00684729 4.16299 0
M  V30 5411 H 504.484 1.60882 3.63816 0
M  V30 5412 H 501.223 4.30922 4.9395 0
M  V30 5413 H 500.743 2.65396 5.3789 0
M  V30 5414 H 502.422 3.19433 5.62647 0
M  V30 5415 N 502.554 -1.34406 0.822964 0
M  V30 5416 C 503.486 -2.28305 0.202375 0
M  V30 5417 C 504.499 -1.5103 -0.60777 0
M  V30 5418 O 505.688 -1.73057 -0.437444 0
M  V30 5419 C 502.788 -3.30836 -0.734911 0
M  V30 5420 C 501.961 -4.37388 0.0324177 0
M  V30 5421 C 501.02 -5.1968 -0.825803 0
M  V30 5422 O 500.046 -5.68556 -0.270771 0
M  V30 5423 N 501.248 -5.39393 -2.14558 0
M  V30 5424 H 504.013 -2.82201 1.00909 0
M  V30 5425 H 501.574 -1.4693 0.67993 0
M  V30 5426 H 503.566 -3.82786 -1.31365 0
M  V30 5427 H 502.136 -2.77334 -1.44238 0
M  V30 5428 H 501.356 -3.86152 0.792469 0
M  V30 5429 H 502.644 -5.05702 0.560633 0
M  V30 5430 H 502.042 -5.01357 -2.62025 0
M  V30 5431 H 500.599 -5.94461 -2.67318 0
M  V30 5432 N 504.032 -0.577932 -1.46621 0
M  V30 5433 C 505.28 -0.061566 -2.02006 0
M  V30 5434 C 505.601 1.30117 -1.4524 0
M  V30 5435 O 504.871 1.85313 -0.63529 0
M  V30 5436 H 503.451 -0.0197692 -0.746738 0
M  V30 5437 H 506.113 -0.752631 -1.79782 0
M  V30 5438 H 505.209 0.0110238 -3.12098 0
M  V30 5439 N 505.51 1.54411 -0.315457 0
M  V30 5440 C 506.738 2.04833 0.291738 0
M  V30 5441 C 507.153 1.19203 1.46411 0
M  V30 5442 O 506.51 0.220867 1.81159 0
M  V30 5443 C 506.561 3.53969 0.73404 0
M  V30 5444 O 506.282 4.36346 -0.391682 0
M  V30 5445 C 507.783 4.2045 1.40489 0
M  V30 5446 H 505.003 0.668195 0.0612947 0
M  V30 5447 H 507.547 1.99276 -0.45929 0
M  V30 5448 H 505.702 3.5984 1.43506 0
M  V30 5449 H 506.116 5.24481 -0.0447088 0
M  V30 5450 H 507.59 5.26278 1.66539 0
M  V30 5451 H 508.067 3.71067 2.3496 0
M  V30 5452 H 508.673 4.18694 0.746662 0
M  V30 5453 N 506.988 0.0434614 1.5754 0
M  V30 5454 C 507.898 -0.94893 2.14552 0
M  V30 5455 C 508.914 -1.34707 1.10136 0
M  V30 5456 O 510.09 -1.42557 1.42266 0
M  V30 5457 C 507.155 -2.208 2.67298 0
M  V30 5458 C 506.216 -1.86893 3.86484 0
M  V30 5459 C 505.449 -3.06797 4.36705 0
M  V30 5460 O 505.672 -4.19921 3.86034 0
M  V30 5461 O 504.606 -2.8826 5.28384 0
M  V30 5462 H 508.432 -0.494099 2.99654 0
M  V30 5463 H 506.017 -0.177989 1.48336 0
M  V30 5464 H 507.899 -2.94686 3.01228 0
M  V30 5465 H 506.574 -2.65436 1.85272 0
M  V30 5466 H 505.481 -1.10347 3.57455 0
M  V30 5467 H 506.814 -1.47062 4.69716 0
M  V30 5468 N 508.466 -1.55915 -0.229846 0
M  V30 5469 C 509.694 -1.82617 -0.972562 0
M  V30 5470 C 510.109 -0.621488 -1.78278 0
M  V30 5471 O 509.466 0.409956 -1.77836 0
M  V30 5472 C 509.517 -3.0774 -1.89679 0
M  V30 5473 O 509.238 -4.23559 -1.11934 0
M  V30 5474 C 510.739 -3.47368 -2.75409 0
M  V30 5475 H 507.959 -0.60727 -0.285419 0
M  V30 5476 H 510.503 -2.02996 -0.247579 0
M  V30 5477 H 508.658 -2.89361 -2.57583 0
M  V30 5478 H 509.072 -4.94586 -1.74599 0
M  V30 5479 H 510.546 -4.37977 -3.35977 0
M  V30 5480 H 511.023 -2.68737 -3.47386 0
M  V30 5481 H 511.629 -3.68158 -2.12931 0
M  V30 5482 N 509.944 0.496216 -1.49584 0
M  V30 5483 C 510.854 1.62352 -1.69349 0
M  V30 5484 C 511.87 1.64184 -0.576147 0
M  V30 5485 O 513.046 1.82517 -0.85144 0
M  V30 5486 C 510.111 2.98698 -1.76013 0
M  V30 5487 C 509.172 3.07454 -2.99617 0
M  V30 5488 C 508.405 4.37296 -3.05953 0
M  V30 5489 O 508.628 5.2637 -2.19752 0
M  V30 5490 O 507.562 4.51124 -3.9846 0
M  V30 5491 H 511.388 1.48606 -2.64859 0
M  V30 5492 H 508.973 0.673022 -1.33382 0
M  V30 5493 H 510.855 3.79725 -1.82721 0
M  V30 5494 H 509.53 3.12696 -0.836828 0
M  V30 5495 H 508.437 2.25597 -2.98424 0
M  V30 5496 H 509.77 2.98385 -3.91443 0
M  V30 5497 N 511.423 1.38739 0.74761 0
M  V30 5498 C 512.67 1.35274 1.50689 0
M  V30 5499 C 512.998 -0.0553359 1.94421 0
M  V30 5500 O 512.253 -1.03365 1.66175 0
M  V30 5501 C 512.552 2.25992 2.7688 0
M  V30 5502 C 512.218 3.73854 2.5208 0
M  V30 5503 C 510.88 4.14145 2.45025 0
M  V30 5504 C 513.232 4.67427 2.30568 0
M  V30 5505 C 510.56 5.4609 2.14483 0
M  V30 5506 C 512.912 5.99635 2.01545 0
M  V30 5507 C 511.576 6.39004 1.92951 0
M  V30 5508 H 510.846 0.495003 0.55141 0
M  V30 5509 H 513.493 1.71145 0.859158 0
M  V30 5510 H 511.798 1.83196 3.46333 0
M  V30 5511 H 513.495 2.20611 3.34861 0
M  V30 5512 H 510.085 3.41913 2.58444 0
M  V30 5513 H 514.269 4.3714 2.34994 0
M  V30 5514 H 509.525 5.75528 2.06342 0
M  V30 5515 H 513.699 6.71678 1.83906 0
M  V30 5516 H 511.326 7.41165 1.6905 0
M  V30 5517 N 512.901 -0.976442 1.23707 0
M  V30 5518 C 513.849 -2.09078 1.01927 0
M  V30 5519 C 514.843 -1.69345 -0.0430193 0
M  V30 5520 O 516.049 -1.79659 0.110814 0
M  V30 5521 H 512.424 -0.68398 0.312531 0
M  V30 5522 H 514.395 -2.24614 1.96447 0
M  V30 5523 C 513.144 -3.41919 0.631385 0
M  V30 5524 H 512.467 -3.72946 1.44053 0
M  V30 5525 H 513.907 -4.20817 0.518532 0
M  V30 5526 C 512.366 -3.30357 -0.660723 0
M  V30 5527 O 512.896 -3.63542 -1.70881 0
M  V30 5528 N 511.102 -2.83507 -0.638139 0
M  V30 5529 H 510.649 -2.567 0.215108 0
M  V30 5530 H 510.607 -2.76153 -1.50289 0
M  V30 5531 N 514.379 -1.04941 -1.1758 0
M  V30 5532 C 515.604 -0.778253 -1.92245 0
M  V30 5533 C 516.029 0.659707 -1.76152 0
M  V30 5534 O 515.387 1.45803 -1.07755 0
M  V30 5535 C 515.435 -1.16051 -3.41416 0
M  V30 5536 O 514.539 -0.291153 -4.11371 0
M  V30 5537 H 513.88 -0.285619 -0.599431 0
M  V30 5538 H 516.41 -1.40159 -1.49052 0
M  V30 5539 H 516.42 -1.12619 -3.92149 0
M  V30 5540 H 515.095 -2.208 -3.52449 0
M  V30 5541 H 513.672 -0.385851 -3.70898 0
M  V30 5542 N 515.857 1.33968 -0.830081 0
M  V30 5543 C 516.787 2.31911 -0.271911 0
M  V30 5544 C 517.768 1.58571 0.61556 0
M  V30 5545 O 518.953 1.86514 0.540946 0
M  V30 5546 C 516.083 3.42737 0.561146 0
M  V30 5547 C 515.037 4.27383 -0.229789 0
M  V30 5548 C 514.363 5.29742 0.726463 0
M  V30 5549 C 515.663 5.02 -1.44197 0
M  V30 5550 H 517.357 2.78844 -1.09025 0
M  V30 5551 H 514.903 1.34061 -0.52571 0
M  V30 5552 H 516.856 4.10276 0.961867 0
M  V30 5553 H 515.58 2.94471 1.41261 0
M  V30 5554 H 514.239 3.61456 -0.611964 0
M  V30 5555 H 513.887 4.77736 1.57408 0
M  V30 5556 H 513.587 5.87255 0.20142 0
M  V30 5557 H 515.111 6.00149 1.12489 0
M  V30 5558 H 516.525 5.62355 -1.11488 0
M  V30 5559 H 514.922 5.69122 -1.90317 0
M  V30 5560 H 515.992 4.31281 -2.2164 0
M  V30 5561 N 517.335 0.585699 1.46312 0
M  V30 5562 C 518.581 0.0725284 2.0267 0
M  V30 5563 C 518.914 -1.28523 1.45586 0
M  V30 5564 O 518.189 -1.84283 0.622101 0
M  V30 5565 C 518.472 0.0099788 3.60099 0
M  V30 5566 C 518.325 1.39685 4.27561 0
M  V30 5567 C 519.644 -0.689117 4.34671 0
M  V30 5568 H 516.763 0.0278307 0.736474 0
M  V30 5569 H 519.405 0.753472 1.74421 0
M  V30 5570 H 517.555 -0.56992 3.84297 0
M  V30 5571 H 519.227 2.02215 4.14617 0
M  V30 5572 H 517.47 1.96374 3.86807 0
M  V30 5573 H 518.141 1.30553 5.36339 0
M  V30 5574 H 520.617 -0.196446 4.15636 0
M  V30 5575 H 519.493 -0.701921 5.44393 0
M  V30 5576 H 519.754 -1.75101 4.05946 0
M  V30 5577 N 518.813 -1.54241 0.323641 0
M  V30 5578 C 519.76 -2.24339 -0.542277 0
M  V30 5579 C 520.73 -1.23421 -1.11159 0
M  V30 5580 O 521.915 -1.52104 -1.15192 0
M  V30 5581 C 519.055 -3.00479 -1.69725 0
M  V30 5582 C 518.168 -4.16214 -1.15716 0
M  V30 5583 C 517.303 -4.79884 -2.27783 0
M  V30 5584 C 516.342 -5.87722 -1.71023 0
M  V30 5585 N 515.479 -6.45254 -2.76752 0
M  V30 5586 H 520.319 -2.97935 0.0620613 0
M  V30 5587 H 517.856 -1.47039 0.0423993 0
M  V30 5588 H 519.814 -3.42869 -2.3769 0
M  V30 5589 H 518.444 -2.29217 -2.27288 0
M  V30 5590 H 517.496 -3.78605 -0.369063 0
M  V30 5591 H 518.808 -4.93838 -0.701832 0
M  V30 5592 H 517.962 -5.25243 -3.03651 0
M  V30 5593 H 516.701 -4.01641 -2.76652 0
M  V30 5594 H 515.706 -5.41765 -0.936518 0
M  V30 5595 H 516.931 -6.67863 -1.2303 0
M  V30 5596 H 514.877 -5.69884 -3.24912 0
M  V30 5597 H 514.794 -7.18292 -2.35782 0
M  V30 5598 H 516.062 -6.95269 -3.5245 0
M  V30 5599 N 520.291 -0.0518155 -1.57515 0
M  V30 5600 C 521.221 0.920283 -2.146 0
M  V30 5601 C 522.202 1.32406 -1.06783 0
M  V30 5602 O 523.387 1.39866 -1.34726 0
M  V30 5603 C 520.517 2.1949 -2.6915 0
M  V30 5604 C 519.471 1.93116 -3.81956 0
M  V30 5605 C 518.797 3.27037 -4.23026 0
M  V30 5606 C 520.097 1.25225 -5.07066 0
M  V30 5607 H 521.791 0.444801 -2.96077 0
M  V30 5608 H 519.337 0.212508 -1.42423 0
M  V30 5609 H 521.29 2.87894 -3.07725 0
M  V30 5610 H 520.014 2.69244 -1.84865 0
M  V30 5611 H 518.673 1.27123 -3.43854 0
M  V30 5612 H 518.321 3.74595 -3.3569 0
M  V30 5613 H 518.021 3.10189 -4.99056 0
M  V30 5614 H 519.545 3.96673 -4.64202 0
M  V30 5615 H 520.959 1.83666 -5.43083 0
M  V30 5616 H 519.356 1.18702 -5.88243 0
M  V30 5617 H 520.426 0.228382 -4.84362 0
M  V30 5618 N 521.769 1.56035 0.221574 0
M  V30 5619 C 522.994 1.83476 0.967026 0
M  V30 5620 C 523.419 0.632139 1.7716 0
M  V30 5621 O 522.777 -0.419082 1.7639 0
M  V30 5622 C 522.825 3.08907 1.86034 0
M  V30 5623 O 521.929 2.876 2.95567 0
M  V30 5624 H 521.27 0.604913 0.273817 0
M  V30 5625 H 523.8 2.03247 0.234893 0
M  V30 5626 H 523.81 3.3901 2.27016 0
M  V30 5627 H 522.485 3.96068 1.26898 0
M  V30 5628 H 521.062 2.6873 2.58532 0
M  V30 5629 N 523.247 -0.488276 1.49845 0
M  V30 5630 C 524.197 -1.58556 1.63842 0
M  V30 5631 C 525.181 -1.53142 0.493586 0
M  V30 5632 O 526.373 -1.60457 0.747169 0
M  V30 5633 C 523.502 -2.97101 1.72005 0
M  V30 5634 C 522.588 -3.07463 2.92108 0
M  V30 5635 N 522.979 -2.87681 4.16021 0
M  V30 5636 C 521.277 -3.3858 2.90309 0
M  V30 5637 C 521.978 -3.0256 4.96822 0
M  V30 5638 N 520.954 -3.32002 4.30437 0
M  V30 5639 H 524.756 -1.41935 2.57355 0
M  V30 5640 H 522.27 -0.694668 1.46793 0
M  V30 5641 H 524.267 -3.75976 1.80132 0
M  V30 5642 H 522.927 -3.14782 0.796375 0
M  V30 5643 H 523.938 -2.63603 4.45796 0
M  V30 5644 H 520.615 -3.62357 2.07372 0
M  V30 5645 H 522.005 -2.9165 6.05301 0
M  V30 5646 N 524.725 -1.39134 -0.740242 0
M  V30 5647 C 526.136 -1.32208 -1.31825 0
M  V30 5648 C 526.487 0.0159919 -1.96193 0
M  V30 5649 O 525.612 0.918111 -1.95958 0
M  V30 5650 C 526.207 -2.39436 -2.39699 0
M  V30 5651 C 524.766 -2.36048 -2.93187 0
M  V30 5652 C 523.913 -2.21599 -1.66701 0
M  V30 5653 H 526.864 -1.49298 -0.538133 0
M  V30 5654 H 526.885 -2.05922 -3.19963 0
M  V30 5655 H 526.397 -3.36811 -1.92821 0
M  V30 5656 H 524.498 -1.42295 -3.44359 0
M  V30 5657 H 524.611 -3.30704 -3.46658 0
M  V30 5658 H 522.975 -1.68681 -1.90837 0
M  V30 5659 H 523.758 -3.20936 -1.21882 0
M  V30 5660 N 526.204 0.969867 -1.24223 0
M  V30 5661 C 527.152 2.08535 -1.03034 0
M  V30 5662 C 528.146 1.69366 0.0340379 0
M  V30 5663 O 529.352 1.79597 -0.12034 0
M  V30 5664 H 525.727 0.682313 -0.316154 0
M  V30 5665 H 527.698 2.23569 -1.97635 0
M  V30 5666 C 526.447 3.4158 -0.649509 0
M  V30 5667 H 525.77 3.72177 -1.46028 0
M  V30 5668 H 527.21 4.20536 -0.540841 0
M  V30 5669 C 525.669 3.30703 0.643194 0
M  V30 5670 O 526.199 3.64443 1.68951 0
M  V30 5671 N 524.405 2.83841 0.623095 0
M  V30 5672 H 523.952 2.56583 -0.228719 0
M  V30 5673 H 523.91 2.76946 1.48823 0
M  V30 5674 N 527.682 1.05563 1.17022 0
M  V30 5675 C 528.928 0.769074 1.87652 0
M  V30 5676 C 529.261 -0.702326 1.81055 0
M  V30 5677 O 528.536 -1.5139 1.22112 0
M  V30 5678 C 528.819 1.25492 3.37526 0
M  V30 5679 C 528.672 2.78953 3.52853 0
M  V30 5680 C 529.991 0.856919 4.31677 0
M  V30 5681 H 527.11 0.280854 0.681388 0
M  V30 5682 H 529.752 1.31027 1.37593 0
M  V30 5683 H 527.902 0.794516 3.80289 0
M  V30 5684 H 529.574 3.33146 3.19079 0
M  V30 5685 H 527.817 3.18046 2.95007 0
M  V30 5686 H 528.488 3.08011 4.58076 0
M  V30 5687 H 530.964 1.25334 3.96775 0
M  V30 5688 H 529.84 1.22443 5.35069 0
M  V30 5689 H 530.101 -0.238787 4.41455 0
M  V30 5690 N 529.16 -1.33526 0.837174 0
M  V30 5691 C 530.406 -1.9813 0.432704 0
M  V30 5692 C 530.739 -1.66168 -1.00508 0
M  V30 5693 O 530.014 -0.94069 -1.70239 0
M  V30 5694 C 530.297 -3.54151 0.651834 0
M  V30 5695 C 530.15 -3.95806 2.13676 0
M  V30 5696 C 531.469 -4.39993 0.0968937 0
M  V30 5697 H 528.588 -0.719713 0.15869 0
M  V30 5698 H 531.23 -1.58193 1.05237 0
M  V30 5699 H 529.38 -3.88301 0.124369 0
M  V30 5700 H 531.052 -3.71921 2.72896 0
M  V30 5701 H 529.295 -3.45599 2.62191 0
M  V30 5702 H 529.966 -5.0447 2.24084 0
M  V30 5703 H 532.442 -4.12479 0.547733 0
M  V30 5704 H 531.318 -5.48186 0.279917 0
M  V30 5705 H 531.579 -4.3066 -0.9992 0
M  V30 5706 N 530.638 -0.59345 -1.46 0
M  V30 5707 C 532.054 -0.255965 -1.57534 0
M  V30 5708 C 532.254 1.24167 -1.58697 0
M  V30 5709 O 531.31 2.02398 -1.50968 0
M  V30 5710 C 532.623 -0.91466 -2.86451 0
M  V30 5711 C 534.171 -0.889253 -3.00102 0
M  V30 5712 C 534.646 -1.52769 -4.3177 0
M  V30 5713 N 536.137 -1.49253 -4.38495 0
M  V30 5714 C 536.872 -1.9558 -5.39014 0
M  V30 5715 N 536.368 -2.49929 -6.46148 0
M  V30 5716 N 538.161 -1.86432 -5.30282 0
M  V30 5717 H 530.312 -1.56604 -1.43489 0
M  V30 5718 H 532.575 -0.655207 -0.685133 0
M  V30 5719 H 532.281 -1.96861 -2.91442 0
M  V30 5720 H 532.155 -0.429356 -3.74748 0
M  V30 5721 H 534.542 0.156111 -2.94687 0
M  V30 5722 H 534.623 -1.41268 -2.13253 0
M  V30 5723 H 534.267 -2.57231 -4.37944 0
M  V30 5724 H 534.197 -0.979398 -5.17412 0
M  V30 5725 H 536.688 -1.09536 -3.61677 0
M  V30 5726 H 537.001 -2.83109 -7.19075 0
M  V30 5727 H 535.346 -2.53961 -6.46938 0
M  V30 5728 H 538.537 -1.43722 -4.4549 0
M  V30 5729 H 538.71 -2.22852 -6.08474 0
M  V30 5730 N 532.116 1.54067 -0.331816 0
M  V30 5731 C 533.346 2.04833 0.269605 0
M  V30 5732 C 533.754 1.20714 1.45687 0
M  V30 5733 O 533.097 0.232539 1.82222 0
M  V30 5734 C 533.159 3.51386 0.759499 0
M  V30 5735 C 532.823 4.55971 -0.306557 0
M  V30 5736 C 533.82 5.07126 -1.14538 0
M  V30 5737 C 531.505 5.00216 -0.457116 0
M  V30 5738 C 533.499 6.01096 -2.12042 0
M  V30 5739 C 531.186 5.93999 -1.43556 0
M  V30 5740 C 532.184 6.44326 -2.26568 0
M  V30 5741 O 531.872 7.36267 -3.22749 0
M  V30 5742 H 531.604 0.673509 0.0579763 0
M  V30 5743 H 534.158 1.99748 -0.478521 0
M  V30 5744 H 532.388 3.53896 1.55867 0
M  V30 5745 H 534.077 3.85184 1.28017 0
M  V30 5746 H 534.843 4.73716 -1.04009 0
M  V30 5747 H 530.722 4.60652 0.179142 0
M  V30 5748 H 534.266 6.40302 -2.76873 0
M  V30 5749 H 530.163 6.26825 -1.54146 0
M  V30 5750 H 530.931 7.54165 -3.18083 0
M  V30 5751 N 533.594 0.0601682 1.57485 0
M  V30 5752 C 534.524 -0.90889 2.15085 0
M  V30 5753 C 535.505 -1.31838 1.07484 0
M  V30 5754 O 536.69 -1.3915 1.35466 0
M  V30 5755 C 533.82 -2.18059 2.7031 0
M  V30 5756 C 532.774 -1.91088 3.82974 0
M  V30 5757 C 532.1 -3.24789 4.24754 0
M  V30 5758 C 533.4 -1.22535 5.07723 0
M  V30 5759 H 535.094 -0.429093 2.96309 0
M  V30 5760 H 532.64 -0.204952 1.42534 0
M  V30 5761 H 534.593 -2.86258 3.09248 0
M  V30 5762 H 533.317 -2.6826 1.8629 0
M  V30 5763 H 531.976 -1.25297 3.44523 0
M  V30 5764 H 531.624 -3.72809 3.37672 0
M  V30 5765 H 531.324 -3.07538 5.00694 0
M  V30 5766 H 532.848 -3.94205 4.66299 0
M  V30 5767 H 534.262 -1.80783 5.4405 0
M  V30 5768 H 532.659 -1.1558 5.88864 0
M  V30 5769 H 533.729 -0.202692 4.84476 0
M  V30 5770 N 535.072 -1.5615 -0.213296 0
M  V30 5771 C 536.035 -1.92249 -1.24792 0
M  V30 5772 C 537.035 -0.801828 -1.39382 0
M  V30 5773 O 538.225 -1.06948 -1.37506 0
M  V30 5774 C 535.357 -2.18056 -2.62039 0
M  V30 5775 H 536.55 -2.84793 -0.939845 0
M  V30 5776 H 534.103 -1.49559 -0.454062 0
M  V30 5777 H 534.838 -1.2809 -2.97932 0
M  V30 5778 H 534.623 -2.99703 -2.52825 0
M  V30 5779 H 536.113 -2.47051 -3.36683 0
M  V30 5780 N 536.55 0.480323 -1.50102 0
M  V30 5781 C 537.483 1.59789 -1.62919 0
M  V30 5782 C 538.461 1.55429 -0.477557 0
M  V30 5783 O 539.645 1.75186 -0.695851 0
M  V30 5784 C 536.772 2.98351 -1.60325 0
M  V30 5785 C 535.818 3.20899 -2.80938 0
M  V30 5786 S 536.651 3.01791 -4.4236 0
M  V30 5787 C 537.807 4.42712 -4.42444 0
M  V30 5788 H 538.04 1.48676 -2.57454 0
M  V30 5789 H 535.573 0.666996 -1.3925 0
M  V30 5790 H 537.531 3.7824 -1.59514 0
M  V30 5791 H 536.192 3.06862 -0.670419 0
M  V30 5792 H 535.385 4.22102 -2.75401 0
M  V30 5793 H 534.987 2.48768 -2.79268 0
M  V30 5794 H 537.279 5.3518 -4.15438 0
M  V30 5795 H 538.222 4.53294 -5.43995 0
M  V30 5796 H 538.63 4.24359 -3.72263 0
M  V30 5797 N 538.028 1.39524 0.732853 0
M  V30 5798 C 538.976 1.38563 1.86824 0
M  V30 5799 C 539.97 0.268467 1.67259 0
M  V30 5800 O 541.176 0.438613 1.74574 0
M  V30 5801 H 537.551 0.432737 0.615014 0
M  V30 5802 H 539.522 2.34328 1.84751 0
M  V30 5803 C 538.271 1.2481 3.24527 0
M  V30 5804 H 537.594 2.10044 3.40179 0
M  V30 5805 H 539.034 1.28194 4.04156 0
M  V30 5806 C 537.493 -0.0432825 3.36872 0
M  V30 5807 O 538.023 -1.01268 3.88726 0
M  V30 5808 N 536.229 -0.107055 2.90403 0
M  V30 5809 H 535.776 0.682512 2.48394 0
M  V30 5810 H 535.734 -0.970618 2.99042 0
M  V30 5811 N 539.506 -0.963266 1.24736 0
M  V30 5812 C 540.436 -2.07628 1.06832 0
M  V30 5813 C 541.417 -1.70088 -0.0200566 0
M  V30 5814 O 542.602 -1.93636 0.147854 0
M  V30 5815 C 539.732 -3.40636 0.677069 0
M  V30 5816 C 538.686 -3.9215 1.71471 0
M  V30 5817 C 538.012 -5.21553 1.1784 0
M  V30 5818 C 539.312 -4.19493 3.11164 0
M  V30 5819 H 541.006 -2.22864 1.9993 0
M  V30 5820 H 538.552 -1.07093 0.96266 0
M  V30 5821 H 540.505 -4.17941 0.538792 0
M  V30 5822 H 539.229 -3.25313 -0.289612 0
M  V30 5823 H 537.888 -3.17005 1.84128 0
M  V30 5824 H 537.536 -5.02593 0.202195 0
M  V30 5825 H 537.236 -5.56988 1.87185 0
M  V30 5826 H 538.76 -6.01463 1.05233 0
M  V30 5827 H 540.174 -4.87487 3.01711 0
M  V30 5828 H 538.571 -4.66165 3.77902 0
M  V30 5829 H 539.641 -3.26097 3.58871 0
M  V30 5830 N 540.985 -1.06182 -1.16461 0
M  V30 5831 C 541.932 -0.671613 -2.20812 0
M  V30 5832 C 542.902 0.331186 -1.62765 0
M  V30 5833 O 544.087 0.22033 -1.89524 0
M  V30 5834 C 541.227 -0.063029 -3.45042 0
M  V30 5835 C 540.34 -1.11587 -4.1734 0
M  V30 5836 C 539.475 -0.473546 -5.29085 0
M  V30 5837 C 538.514 -1.51 -5.93182 0
M  V30 5838 N 537.651 -0.891118 -6.96422 0
M  V30 5839 H 542.491 -1.56589 -2.53542 0
M  V30 5840 H 540.028 -0.782951 -1.24532 0
M  V30 5841 H 541.986 0.307344 -4.16066 0
M  V30 5842 H 540.616 0.794663 -3.12866 0
M  V30 5843 H 539.668 -1.60396 -3.44931 0
M  V30 5844 H 540.98 -1.90221 -4.61104 0
M  V30 5845 H 540.134 -0.0501432 -6.06679 0
M  V30 5846 H 538.873 0.344687 -4.8648 0
M  V30 5847 H 537.878 -1.94331 -5.14311 0
M  V30 5848 H 539.103 -2.33031 -6.37866 0
M  V30 5849 H 537.049 -0.0935753 -6.55933 0
M  V30 5850 H 536.966 -1.61486 -7.38551 0
M  V30 5851 H 538.234 -0.492822 -7.77941 0
M  V30 5852 N 542.463 1.3308 -0.844243 0
M  V30 5853 C 543.373 2.32876 -0.283922 0
M  V30 5854 C 544.389 1.63589 0.592846 0
M  V30 5855 O 545.565 1.95205 0.495693 0
M  V30 5856 C 542.63 3.42667 0.527283 0
M  V30 5857 C 541.691 4.27664 -0.374394 0
M  V30 5858 C 540.924 5.32212 0.39819 0
M  V30 5859 O 541.147 5.46635 1.62932 0
M  V30 5860 O 540.081 6.01458 -0.2306 0
M  V30 5861 H 543.907 2.82671 -1.11045 0
M  V30 5862 H 541.492 1.36518 -0.606903 0
M  V30 5863 H 543.374 4.09652 0.988078 0
M  V30 5864 H 542.049 2.95079 1.33078 0
M  V30 5865 H 540.956 3.63526 -0.883144 0
M  V30 5866 H 542.289 4.78749 -1.1428 0
M  V30 5867 N 543.941 0.601185 1.45683 0
M  V30 5868 C 544.873 -0.159446 2.28645 0
M  V30 5869 C 545.886 -0.837882 1.39583 0
M  V30 5870 O 547.075 -0.704344 1.64016 0
M  V30 5871 C 544.175 -1.24641 3.15147 0
M  V30 5872 C 543.348 -0.656334 4.32448 0
M  V30 5873 C 542.407 -1.63337 5.00208 0
M  V30 5874 O 541.433 -1.16217 5.57209 0
M  V30 5875 N 542.635 -2.96773 4.98905 0
M  V30 5876 H 545.4 0.5524 2.94565 0
M  V30 5877 H 542.961 0.440223 1.558 0
M  V30 5878 H 544.953 -1.8997 3.57342 0
M  V30 5879 H 543.523 -1.86087 2.51178 0
M  V30 5880 H 542.743 0.174879 3.93812 0
M  V30 5881 H 544.031 -0.242211 5.08223 0
M  V30 5882 H 543.429 -3.37662 4.53873 0
M  V30 5883 H 541.986 -3.57541 5.44984 0
M  V30 5884 N 545.419 -1.53889 0.339982 0
M  V30 5885 C 546.696 -1.93084 -0.312719 0
M  V30 5886 C 547.076 -1.2712 -1.68534 0
M  V30 5887 O 546.424 -0.420835 -2.24591 0
M  V30 5888 C 546.634 -3.4683 -0.388558 0
M  V30 5889 C 547.982 -4.19732 -0.641088 0
M  V30 5890 O 549.006 -3.53075 -0.470818 0
M  V30 5891 O 547.865 -5.3781 -0.970685 0
M  V30 5892 H 544.959 -0.806784 -0.18174 0
M  V30 5893 H 547.505 -1.65137 0.390898 0
M  V30 5894 H 546.277 -3.87055 0.574821 0
M  V30 5895 H 545.9 -3.80933 -1.1391 0
M  V30 5896 N 546.897 -0.0685191 -1.57451 0
M  V30 5897 C 548.174 0.642167 -1.84758 0
M  V30 5898 C 548.554 1.87991 -0.960344 0
M  V30 5899 O 547.902 2.28485 -0.0257894 0
M  V30 5900 C 548.112 0.982946 -3.34872 0
M  V30 5901 C 549.46 1.35784 -4.02303 0
M  V30 5902 O 550.484 1.07477 -3.39598 0
M  V30 5903 O 549.343 1.88681 -5.12895 0
M  V30 5904 H 546.437 0.318625 -0.763156 0
M  V30 5905 H 548.983 -0.0992015 -1.6941 0
M  V30 5906 H 547.755 0.10372 -3.91163 0
M  V30 5907 H 547.378 1.78119 -3.55471 0
M  V30 5908 N 548.375 1.56261 0.205012 0
M  V30 5909 C 549.6 1.84491 0.947512 0
M  V30 5910 C 550.025 0.650894 1.76479 0
M  V30 5911 O 549.383 -0.40035 1.76824 0
M  V30 5912 C 549.431 3.10863 1.82747 0
M  V30 5913 O 548.535 2.90719 2.925 0
M  V30 5914 H 547.876 0.607783 0.267386 0
M  V30 5915 H 550.406 2.03485 0.213323 0
M  V30 5916 H 550.416 3.41399 2.23407 0
M  V30 5917 H 549.091 3.97392 1.2269 0
M  V30 5918 H 547.668 2.71457 2.55667 0
M  V30 5919 N 549.853 -0.472356 1.50355 0
M  V30 5920 C 551.102 -1.2213 1.60522 0
M  V30 5921 C 551.415 -1.9312 0.310466 0
M  V30 5922 O 552.621 -2.69936 0.291029 0
M  V30 5923 C 551.077 -2.21909 2.83345 0
M  V30 5924 C 550.685 -1.56727 4.19691 0
M  V30 5925 C 552.429 -2.97453 3.02856 0
M  V30 5926 C 550.336 -2.54785 5.33703 0
M  V30 5927 H 549.266 -0.459543 0.597776 0
M  V30 5928 H 551.917 -0.491922 1.76783 0
M  V30 5929 H 550.299 -2.98133 2.60639 0
M  V30 5930 H 551.473 -0.863007 4.52646 0
M  V30 5931 H 549.788 -0.934685 4.05774 0
M  V30 5932 H 552.385 -3.70838 3.85205 0
M  V30 5933 H 552.728 -3.56764 2.14534 0
M  V30 5934 H 553.261 -2.28342 3.25737 0
M  V30 5935 H 550 -2.00214 6.24175 0
M  V30 5936 H 549.52 -3.23367 5.05167 0
M  V30 5937 H 551.199 -3.16639 5.64224 0
M  V30 5938 N 551.331 -1.39911 -0.725443 0
M  V30 5939 C 552.577 -1.37858 -1.48738 0
M  V30 5940 C 552.91 0.0224187 -1.94187 0
M  V30 5941 O 552.185 0.989204 -1.67466 0
M  V30 5942 C 552.468 -2.3594 -2.72038 0
M  V30 5943 C 552.321 -3.85023 -2.32546 0
M  V30 5944 C 553.64 -2.31704 -3.74167 0
M  V30 5945 H 550.759 -0.502074 -0.539528 0
M  V30 5946 H 553.401 -1.70974 -0.828728 0
M  V30 5947 H 551.551 -2.0783 -3.28236 0
M  V30 5948 H 553.223 -4.2392 -1.81905 0
M  V30 5949 H 551.466 -4.01334 -1.64661 0
M  V30 5950 H 552.137 -4.49152 -3.20884 0
M  V30 5951 H 554.613 -2.5658 -3.27576 0
M  V30 5952 H 553.489 -3.02395 -4.58092 0
M  V30 5953 H 553.75 -1.3253 -4.21768 0
M  V30 5954 N 552.809 0.956637 -1.25245 0
M  V30 5955 C 554.055 1.70352 -1.10036 0
M  V30 5956 C 554.388 1.90869 0.358156 0
M  V30 5957 O 553.663 1.47819 1.26411 0
M  V30 5958 C 553.946 3.08766 -1.85298 0
M  V30 5959 C 553.799 2.95672 -3.38966 0
M  V30 5960 C 555.118 4.08622 -1.63451 0
M  V30 5961 H 552.237 0.618279 -0.401123 0
M  V30 5962 H 554.879 1.11212 -1.54051 0
M  V30 5963 H 553.029 3.59252 -1.47887 0
M  V30 5964 H 554.701 2.52527 -3.86041 0
M  V30 5965 H 552.944 2.31634 -3.6678 0
M  V30 5966 H 553.615 3.93776 -3.86839 0
M  V30 5967 H 556.091 3.67038 -1.96015 0
M  V30 5968 H 554.967 5.03514 -2.18551 0
M  V30 5969 H 555.228 4.3834 -0.575357 0
M  V30 5970 N 554.287 1.06798 1.15896 0
M  V30 5971 C 555.564 0.701057 1.82605 0
M  V30 5972 C 555.944 -0.817066 1.94646 0
M  V30 5973 O 555.292 -1.72933 1.49353 0
M  V30 5974 C 555.502 1.40895 3.19296 0
M  V30 5975 C 556.85 1.55744 3.95005 0
M  V30 5976 O 557.874 1.36927 3.28831 0
M  V30 5977 O 556.733 1.86658 5.13635 0
M  V30 5978 H 553.827 0.248791 0.78869 0
M  V30 5979 H 556.373 1.16857 1.23055 0
M  V30 5980 H 555.145 2.4439 3.05596 0
M  V30 5981 H 554.768 0.931847 3.86526 0
M  V30 5982 N 555.766 -1.3263 0.851289 0
M  V30 5983 C 557.015 -1.96633 0.449267 0
M  V30 5984 C 557.328 -1.68131 -0.999562 0
M  V30 5985 O 558.534 -2.25845 -1.50685 0
M  V30 5986 C 556.99 -3.51946 0.752446 0
M  V30 5987 C 556.598 -3.89311 2.21678 0
M  V30 5988 C 558.342 -4.22437 0.417983 0
M  V30 5989 C 556.249 -5.37655 2.46336 0
M  V30 5990 H 555.179 -0.735888 0.164269 0
M  V30 5991 H 557.83 -1.51073 1.0416 0
M  V30 5992 H 556.212 -3.95899 0.0895858 0
M  V30 5993 H 557.386 -3.56378 2.92115 0
M  V30 5994 H 555.701 -3.31836 2.51543 0
M  V30 5995 H 558.298 -5.31549 0.579674 0
M  V30 5996 H 558.641 -4.11349 -0.640115 0
M  V30 5997 H 559.174 -3.84057 1.03659 0
M  V30 5998 H 555.913 -5.5376 3.50757 0
M  V30 5999 H 555.433 -5.72005 1.80473 0
M  V30 6000 H 557.112 -6.04695 2.30115 0
M  V30 6001 N 557.244 -0.608902 -1.45362 0
M  V30 6002 C 558.174 0.0964526 -2.33301 0
M  V30 6003 C 559.155 0.857444 -1.46908 0
M  V30 6004 O 560.34 0.827735 -1.75676 0
M  V30 6005 C 557.47 1.09354 -3.29635 0
M  V30 6006 C 556.424 0.445676 -4.25673 0
M  V30 6007 C 555.75 1.5511 -5.11708 0
M  V30 6008 C 557.05 -0.633972 -5.18438 0
M  V30 6009 H 558.744 -0.637829 -2.92527 0
M  V30 6010 H 556.29 -0.308178 -1.40664 0
M  V30 6011 H 558.243 1.59556 -3.90025 0
M  V30 6012 H 556.967 1.85843 -2.6857 0
M  V30 6013 H 555.626 -0.0354897 -3.66583 0
M  V30 6014 H 555.274 2.30631 -4.4701 0
M  V30 6015 H 554.974 1.12311 -5.76767 0
M  V30 6016 H 556.498 2.05537 -5.74967 0
M  V30 6017 H 557.912 -0.215974 -5.72893 0
M  V30 6018 H 556.309 -0.983789 -5.91981 0
M  V30 6019 H 557.379 -1.51005 -4.60788 0
M  V30 6020 N 558.722 1.53707 -0.348139 0
M  V30 6021 C 559.968 2.01286 0.247332 0
M  V30 6022 C 560.301 1.23546 1.49834 0
M  V30 6023 O 559.576 0.324331 1.91777 0
M  V30 6024 C 559.859 3.55768 0.556858 0
M  V30 6025 C 559.712 4.44216 -0.706564 0
M  V30 6026 C 561.031 4.1841 1.3646 0
M  V30 6027 H 558.15 0.731677 0.0884201 0
M  V30 6028 H 560.792 1.84106 -0.469584 0
M  V30 6029 H 558.942 3.70539 1.16761 0
M  V30 6030 H 560.614 4.41274 -1.34444 0
M  V30 6031 H 558.857 4.12892 -1.33052 0
M  V30 6032 H 559.528 5.50202 -0.445186 0
M  V30 6033 H 562.004 4.07365 0.848113 0
M  V30 6034 H 560.88 5.26563 1.54992 0
M  V30 6035 H 561.141 3.7333 2.36805 0
M  V30 6036 N 560.2 0.0768682 1.57412 0
M  V30 6037 C 561.11 -0.903207 2.16516 0
M  V30 6038 C 562.126 -1.32341 1.12968 0
M  V30 6039 O 563.302 -1.39507 1.45258 0
M  V30 6040 C 560.367 -2.1508 2.71922 0
M  V30 6041 C 559.428 -1.78653 3.90361 0
M  V30 6042 C 558.661 -2.97465 4.43114 0
M  V30 6043 O 558.884 -4.11638 3.94854 0
M  V30 6044 O 557.818 -2.76987 5.3438 0
M  V30 6045 H 561.644 -0.430427 3.00634 0
M  V30 6046 H 559.229 -0.146485 1.4868 0
M  V30 6047 H 561.111 -2.8823 3.07411 0
M  V30 6048 H 559.786 -2.61446 1.9086 0
M  V30 6049 H 558.693 -1.0274 3.59716 0
M  V30 6050 H 560.026 -1.37066 4.7273 0
M  V30 6051 N 561.678 -1.56367 -0.196722 0
M  V30 6052 C 562.628 -1.9082 -1.24787 0
M  V30 6053 C 563.612 -0.773719 -1.41076 0
M  V30 6054 O 564.804 -1.03655 -1.43474 0
M  V30 6055 C 561.933 -2.24982 -2.59303 0
M  V30 6056 C 561.019 -3.44882 -2.46814 0
M  V30 6057 N 561.41 -4.62835 -2.04003 0
M  V30 6058 C 559.708 -3.48988 -2.77711 0
M  V30 6059 C 560.409 -5.44993 -2.03366 0
M  V30 6060 N 559.385 -4.85356 -2.44807 0
M  V30 6061 H 563.187 -2.79516 -0.908175 0
M  V30 6062 H 560.701 -1.57265 -0.405166 0
M  V30 6063 H 562.698 -2.47848 -3.35227 0
M  V30 6064 H 561.358 -1.37611 -2.94098 0
M  V30 6065 H 562.369 -4.87532 -1.74738 0
M  V30 6066 H 559.046 -2.72029 -3.16712 0
M  V30 6067 H 560.436 -6.49464 -1.72181 0
M  V30 6068 N 563.156 0.464375 -1.50603 0
M  V30 6069 C 564.405 1.21277 -1.61167 0
M  V30 6070 C 564.718 1.92953 -0.320704 0
M  V30 6071 O 565.924 2.69778 -0.30534 0
M  V30 6072 C 564.38 2.20403 -2.84518 0
M  V30 6073 C 563.988 1.54499 -4.20516 0
M  V30 6074 C 565.732 2.95843 -3.0443 0
M  V30 6075 C 563.639 2.51951 -5.35047 0
M  V30 6076 H 562.569 0.456367 -0.600204 0
M  V30 6077 H 565.22 0.48254 -1.77042 0
M  V30 6078 H 563.602 2.96746 -2.62217 0
M  V30 6079 H 564.776 0.83899 -4.53098 0
M  V30 6080 H 563.091 0.913152 -4.06264 0
M  V30 6081 H 565.688 3.6879 -3.87167 0
M  V30 6082 H 566.031 3.55622 -2.16423 0
M  V30 6083 H 566.564 2.26611 -3.26944 0
M  V30 6084 H 563.303 1.96901 -6.25228 0
M  V30 6085 H 562.823 3.20683 -5.06875 0
M  V30 6086 H 564.502 3.13643 -5.65895 0
M  V30 6087 N 564.634 1.40294 0.718013 0
M  V30 6088 C 565.859 1.41941 1.5122 0
M  V30 6089 C 566.284 0.0202371 1.88089 0
M  V30 6090 O 565.642 -0.971078 1.53101 0
M  V30 6091 C 565.69 2.3141 2.76554 0
M  V30 6092 O 564.794 1.75567 3.73162 0
M  V30 6093 H 564.135 0.482644 0.456016 0
M  V30 6094 H 566.665 1.84494 0.884478 0
M  V30 6095 H 566.675 2.46513 3.25108 0
M  V30 6096 H 565.35 3.33085 2.49053 0
M  V30 6097 H 563.927 1.69798 3.31999 0
M  V30 6098 N 566.112 -0.949982 1.2575 0
M  V30 6099 C 567.36 -1.6918 1.10555 0
M  V30 6100 C 567.681 -1.91773 -0.353298 0
M  V30 6101 O 566.951 -1.50814 -1.25027 0
M  V30 6102 H 565.531 -0.626952 0.406129 0
M  V30 6103 H 568.193 -1.1419 1.57945 0
M  V30 6104 H 567.289 -2.66915 1.61749 0
M  V30 6105 N 567.59 -1.07411 -1.15328 0
M  V30 6106 C 568.836 -0.798831 -1.86404 0
M  V30 6107 C 569.169 0.673433 -1.8215 0
M  V30 6108 O 568.444 1.49428 -1.24505 0
M  V30 6109 C 568.727 -1.30846 -3.35487 0
M  V30 6110 C 568.58 -2.84532 -3.4837 0
M  V30 6111 C 569.899 -0.925486 -4.30259 0
M  V30 6112 H 567.018 -0.291659 -0.676834 0
M  V30 6113 H 569.66 -1.332 -1.35491 0
M  V30 6114 H 567.81 -0.854916 -3.78977 0
M  V30 6115 H 569.482 -3.3818 -3.13739 0
M  V30 6116 H 567.725 -3.22699 -2.8991 0
M  V30 6117 H 568.396 -3.15259 -4.53118 0
M  V30 6118 H 570.872 -1.3163 -3.94731 0
M  V30 6119 H 569.748 -1.3094 -5.33053 0
M  V30 6120 H 570.009 0.168525 -4.41779 0
M  V30 6121 N 569.068 1.32177 -0.85831 0
M  V30 6122 C 570.293 2.01847 -0.476718 0
M  V30 6123 C 570.718 1.64065 0.920021 0
M  V30 6124 O 570.076 0.843189 1.60499 0
M  V30 6125 C 570.124 3.55097 -0.627578 0
M  V30 6126 O 569.228 4.11012 0.338086 0
M  V30 6127 H 568.569 0.635907 -0.191099 0
M  V30 6128 H 571.099 1.68641 -1.15851 0
M  V30 6129 H 571.109 4.04718 -0.516476 0
M  V30 6130 H 569.784 3.81938 -1.64609 0
M  V30 6131 H 568.361 3.72451 0.182917 0
M  V30 6132 N 570.547 0.616602 1.45037 0
M  V30 6133 C 571.477 -0.0840787 2.33349 0
M  V30 6134 C 572.458 -0.849641 1.4736 0
M  V30 6135 O 573.643 -0.818407 1.76113 0
M  V30 6136 C 570.773 -1.07604 3.3021 0
M  V30 6137 C 569.727 -0.423096 4.25904 0
M  V30 6138 C 569.053 -1.52394 5.12523 0
M  V30 6139 C 570.353 0.661457 5.18095 0
M  V30 6140 H 572.047 0.653333 2.92185 0
M  V30 6141 H 569.593 0.315634 1.40498 0
M  V30 6142 H 571.546 -1.57485 3.90866 0
M  V30 6143 H 570.27 -1.84416 2.69552 0
M  V30 6144 H 568.929 0.05493 3.66559 0
M  V30 6145 H 568.577 -2.28257 4.48227 0
M  V30 6146 H 568.277 -1.09251 5.77354 0
M  V30 6147 H 569.801 -2.02485 5.76049 0
M  V30 6148 H 571.215 0.246353 5.7277 0
M  V30 6149 H 569.612 1.01517 5.91451 0
M  V30 6150 H 570.682 1.53446 4.59981 0
M  V30 6151 N 572.025 -1.5352 0.356285 0
M  V30 6152 C 572.988 -2.24071 -0.482182 0
M  V30 6153 C 573.988 -1.24531 -1.01729 0
M  V30 6154 O 575.178 -1.48876 -0.904513 0
M  V30 6155 C 572.31 -2.97025 -1.67299 0
M  V30 6156 H 573.503 -2.99596 0.135031 0
M  V30 6157 H 571.056 -1.55928 0.107825 0
M  V30 6158 H 571.791 -2.25719 -2.32855 0
M  V30 6159 H 571.576 -3.7005 -1.29636 0
M  V30 6160 H 573.066 -3.50683 -2.26741 0
M  V30 6161 N 573.503 -0.0852151 -1.57369 0
M  V30 6162 C 574.466 0.8627 -2.12344 0
M  V30 6163 C 575.466 1.21746 -1.05046 0
M  V30 6164 O 576.656 1.14852 -1.30976 0
M  V30 6165 C 573.788 2.1618 -2.63589 0
M  V30 6166 H 574.981 0.385511 -2.97412 0
M  V30 6167 H 572.534 0.163663 -1.55441 0
M  V30 6168 H 573.269 2.68406 -1.82013 0
M  V30 6169 H 573.054 1.91723 -3.4203 0
M  V30 6170 H 574.544 2.84011 -3.06149 0
M  V30 6171 N 574.981 1.5647 0.188427 0
M  V30 6172 C 575.931 1.91479 1.23774 0
M  V30 6173 C 576.915 0.78119 1.40664 0
M  V30 6174 O 578.107 1.04414 1.42922 0
M  V30 6175 C 575.236 2.26354 2.58106 0
M  V30 6176 C 574.322 3.46186 2.44981 0
M  V30 6177 N 574.713 4.63911 2.01546 0
M  V30 6178 C 573.011 3.50456 2.75856 0
M  V30 6179 C 573.712 5.46064 2.00472 0
M  V30 6180 N 572.688 4.86648 2.42229 0
M  V30 6181 H 576.49 2.79994 0.893339 0
M  V30 6182 H 574.004 1.57477 0.39682 0
M  V30 6183 H 576.001 2.49622 3.33908 0
M  V30 6184 H 574.661 1.39168 2.93364 0
M  V30 6185 H 575.672 4.88451 1.7215 0
M  V30 6186 H 572.349 2.73704 3.15265 0
M  V30 6187 H 573.739 6.50368 1.68734 0
M  V30 6188 N 576.459 -0.456382 1.50847 0
M  V30 6189 C 577.389 -1.56025 1.73719 0
M  V30 6190 C 578.37 -1.5967 0.586473 0
M  V30 6191 O 579.555 -1.75702 0.827185 0
M  V30 6192 C 576.685 -2.94251 1.84483 0
M  V30 6193 C 575.639 -3.05471 2.99786 0
M  V30 6194 C 574.965 -4.45489 2.95709 0
M  V30 6195 C 576.265 -2.81318 4.40065 0
M  V30 6196 H 577.959 -1.37138 2.66146 0
M  V30 6197 H 575.505 -0.658299 1.28072 0
M  V30 6198 H 577.458 -3.71417 1.99067 0
M  V30 6199 H 576.182 -3.14328 0.886891 0
M  V30 6200 H 574.841 -2.30741 2.84876 0
M  V30 6201 H 574.489 -4.62505 1.97732 0
M  V30 6202 H 574.189 -4.53929 3.73125 0
M  V30 6203 H 575.713 -5.24655 3.12362 0
M  V30 6204 H 577.127 -3.48226 4.55425 0
M  V30 6205 H 575.524 -3.01188 5.19043 0
M  V30 6206 H 576.594 -1.7706 4.51418 0
M  V30 6207 N 577.937 -1.40673 -0.710563 0
M  V30 6208 C 579.162 -1.42741 -1.50465 0
M  V30 6209 C 579.587 -0.0302116 -1.88076 0
M  V30 6210 O 578.945 0.962945 -1.53613 0
M  V30 6211 C 578.993 -2.32873 -2.75322 0
M  V30 6212 O 578.097 -1.77544 -3.72226 0
M  V30 6213 H 577.438 -0.485056 -0.45345 0
M  V30 6214 H 579.968 -1.84961 -0.874681 0
M  V30 6215 H 579.978 -2.48233 -3.23797 0
M  V30 6216 H 578.653 -3.34401 -2.47283 0
M  V30 6217 H 577.23 -1.71556 -3.31093 0
M  V30 6218 N 579.415 0.9433 -1.26252 0
M  V30 6219 C 580.365 2.02746 -1.04297 0
M  V30 6220 C 581.349 1.60882 0.0239435 0
M  V30 6221 O 582.541 1.75947 -0.192757 0
M  V30 6222 C 579.67 3.36585 -0.6757 0
M  V30 6223 C 578.756 3.84939 -1.77996 0
M  V30 6224 N 579.147 4.05966 -3.01704 0
M  V30 6225 C 577.445 4.13833 -1.66308 0
M  V30 6226 C 578.146 4.45987 -3.73458 0
M  V30 6227 N 577.122 4.52569 -3.01135 0
M  V30 6228 H 580.924 2.17012 -1.98199 0
M  V30 6229 H 578.438 1.12898 -1.16738 0
M  V30 6230 H 580.435 4.13896 -0.499571 0
M  V30 6231 H 579.095 3.2369 0.255863 0
M  V30 6232 H 580.106 3.92716 -3.37631 0
M  V30 6233 H 576.783 4.09739 -0.801267 0
M  V30 6234 H 578.173 4.70465 -4.79701 0
M  V30 6235 N 580.893 1.08022 1.14757 0
M  V30 6236 C 582.118 0.82895 1.90114 0
M  V30 6237 C 582.543 -0.612772 1.77839 0
M  V30 6238 O 581.901 -1.42895 1.11583 0
M  V30 6239 C 581.949 1.25062 3.38219 0
M  V30 6240 O 581.053 0.400119 4.10454 0
M  V30 6241 H 580.394 0.301412 0.591648 0
M  V30 6242 H 582.924 1.44062 1.45284 0
M  V30 6243 H 582.934 1.22977 3.89025 0
M  V30 6244 H 581.609 2.30067 3.46471 0
M  V30 6245 H 580.186 0.484052 3.69745 0
M  V30 6246 N 582.371 -1.3172 0.865308 0
M  V30 6247 C 583.619 -1.96487 0.472995 0
M  V30 6248 C 583.94 -1.68761 -0.976975 0
M  V30 6249 O 583.21 -1.00051 -1.68424 0
M  V30 6250 H 581.79 -0.726947 0.171922 0
M  V30 6251 H 584.452 -1.60612 1.10407 0
M  V30 6252 H 583.548 -3.0574 0.62687 0
M  V30 6253 N 583.85 -0.624285 -1.44708 0
M  V30 6254 C 585.26 -0.2092 -1.85524 0
M  V30 6255 C 585.611 1.23783 -1.52225 0
M  V30 6256 O 584.736 1.94089 -0.956986 0
M  V30 6257 C 585.332 -0.372897 -3.36742 0
M  V30 6258 C 583.891 -0.012374 -3.76398 0
M  V30 6259 C 583.038 -0.68951 -2.68591 0
M  V30 6260 H 585.989 -0.829894 -1.35272 0
M  V30 6261 H 586.01 0.390134 -3.78495 0
M  V30 6262 H 585.522 -1.42615 -3.60947 0
M  V30 6263 H 583.623 1.03941 -3.57809 0
M  V30 6264 H 583.736 -0.417663 -4.77276 0
M  V30 6265 H 582.1 -0.125484 -2.54391 0
M  V30 6266 H 582.883 -1.74522 -2.9563 0
M  V30 6267 N 585.328 1.53329 -0.364422 0
M  V30 6268 C 586.577 2.00421 0.226747 0
M  V30 6269 C 586.89 1.25581 1.49963 0
M  V30 6270 O 588.096 1.63256 2.16933 0
M  V30 6271 C 586.552 3.57017 0.454618 0
M  V30 6272 C 586.16 4.40734 -0.803568 0
M  V30 6273 C 587.904 4.12468 1.00351 0
M  V30 6274 C 585.811 5.8888 -0.545345 0
M  V30 6275 H 584.741 0.748787 0.0885082 0
M  V30 6276 H 587.392 1.7703 -0.482983 0
M  V30 6277 H 585.774 3.76558 1.22558 0
M  V30 6278 H 586.948 4.32967 -1.57723 0
M  V30 6279 H 585.263 3.96381 -1.27559 0
M  V30 6280 H 587.86 5.20783 1.212 0
M  V30 6281 H 588.203 3.6699 1.9653 0
M  V30 6282 H 588.736 3.96721 0.29274 0
M  V30 6283 H 585.475 6.38633 -1.47743 0
M  V30 6284 H 584.995 5.99499 0.189842 0
M  V30 6285 H 586.674 6.46776 -0.170425 0
M  V30 6286 N 586.806 0.0935595 1.57322 0
M  V30 6287 C 588.217 -0.435807 1.81542 0
M  V30 6288 C 588.568 -1.68263 1.00907 0
M  V30 6289 O 587.693 -2.15087 0.237983 0
M  V30 6290 C 588.288 -0.797436 3.29282 0
M  V30 6291 C 586.847 -1.27155 3.54272 0
M  V30 6292 C 585.994 -0.267455 2.76007 0
M  V30 6293 H 588.945 0.31902 1.5546 0
M  V30 6294 H 588.966 -1.6571 3.42521 0
M  V30 6295 H 588.478 0.110206 3.87943 0
M  V30 6296 H 586.579 -2.19696 3.00939 0
M  V30 6297 H 586.692 -1.23445 4.62923 0
M  V30 6298 H 585.056 -0.749282 2.43429 0
M  V30 6299 H 585.839 0.632839 3.37417 0
M  V30 6300 N 588.284 -1.56567 -0.180126 0
M  V30 6301 C 589.53 -1.81761 -0.899497 0
M  V30 6302 C 589.863 -0.670015 -1.82276 0
M  V30 6303 O 589.138 0.328575 -1.91705 0
M  V30 6304 C 589.421 -3.17296 -1.7028 0
M  V30 6305 C 589.274 -4.4257 -0.803255 0
M  V30 6306 C 590.593 -3.49678 -2.67233 0
M  V30 6307 H 587.712 -0.661192 -0.325567 0
M  V30 6308 H 590.354 -1.89272 -0.16612 0
M  V30 6309 H 588.504 -3.11023 -2.32802 0
M  V30 6310 H 590.176 -4.60902 -0.191585 0
M  V30 6311 H 588.419 -4.33658 -0.110796 0
M  V30 6312 H 589.09 -5.33935 -1.40064 0
M  V30 6313 H 591.566 -3.56347 -2.14839 0
M  V30 6314 H 590.442 -4.45605 -3.20511 0
M  V30 6315 H 590.703 -2.73932 -3.47007 0
M  V30 6316 N 589.762 0.448376 -1.51087 0
M  V30 6317 C 590.712 1.54156 -1.67988 0
M  V30 6318 C 591.696 1.5178 -0.534015 0
M  V30 6319 O 592.888 1.58419 -0.789448 0
M  V30 6320 C 590.017 2.92437 -1.79822 0
M  V30 6321 C 589.103 2.99611 -3.00157 0
M  V30 6322 N 589.494 2.7655 -4.23502 0
M  V30 6323 C 587.792 3.30764 -2.99184 0
M  V30 6324 C 588.493 2.89281 -5.0467 0
M  V30 6325 N 587.469 3.20473 -4.39088 0
M  V30 6326 H 591.271 1.35061 -2.61028 0
M  V30 6327 H 588.785 0.655504 -1.48583 0
M  V30 6328 H 590.782 3.71068 -1.90037 0
M  V30 6329 H 589.442 3.1256 -0.879554 0
M  V30 6330 H 590.453 2.5169 -4.52628 0
M  V30 6331 H 587.13 3.56732 -2.16907 0
M  V30 6332 H 588.52 2.75499 -6.12821 0
M  V30 6333 N 591.24 1.41047 0.703093 0
M  V30 6334 C 592.172 1.38228 1.82827 0
M  V30 6335 C 593.185 0.285637 1.60275 0
M  V30 6336 O 594.374 0.54685 1.69917 0
M  V30 6337 C 591.474 1.13136 3.19458 0
M  V30 6338 C 590.647 2.34695 3.69103 0
M  V30 6339 C 589.706 2.05574 4.84382 0
M  V30 6340 O 588.732 2.78549 4.96386 0
M  V30 6341 N 589.934 1.04135 5.71083 0
M  V30 6342 H 592.699 2.35203 1.85741 0
M  V30 6343 H 590.26 1.35562 0.885125 0
M  V30 6344 H 592.252 0.916183 3.94193 0
M  V30 6345 H 590.822 0.247836 3.11616 0
M  V30 6346 H 590.042 2.71963 2.85359 0
M  V30 6347 H 591.33 3.15705 3.99009 0
M  V30 6348 H 590.728 0.43722 5.64008 0
M  V30 6349 H 589.285 0.886078 6.45749 0
M  V30 6350 N 592.718 -0.936591 1.26751 0
M  V30 6351 C 593.648 -2.05315 1.11212 0
M  V30 6352 C 594.629 -1.70092 0.0160262 0
M  V30 6353 O 595.814 -1.93279 0.188894 0
M  V30 6354 C 592.944 -3.39123 0.749171 0
M  V30 6355 C 591.898 -3.88425 1.79751 0
M  V30 6356 C 591.224 -5.18936 1.28876 0
M  V30 6357 C 592.524 -4.12798 3.19992 0
M  V30 6358 H 594.218 -2.18573 2.04613 0
M  V30 6359 H 591.764 -1.05027 0.985159 0
M  V30 6360 H 593.717 -4.16704 0.627323 0
M  V30 6361 H 592.441 -3.25855 -0.220543 0
M  V30 6362 H 591.1 -3.13028 1.90811 0
M  V30 6363 H 590.748 -5.02051 0.308757 0
M  V30 6364 H 590.448 -5.52892 1.98958 0
M  V30 6365 H 591.972 -5.99096 1.17967 0
M  V30 6366 H 593.386 -4.80977 3.11983 0
M  V30 6367 H 591.783 -4.58044 3.87705 0
M  V30 6368 H 592.853 -3.18412 3.65707 0
M  V30 6369 N 594.196 -1.08629 -1.14182 0
M  V30 6370 C 595.612 -0.814363 -1.3726 0
M  V30 6371 C 595.812 0.575271 -1.93114 0
M  V30 6372 O 594.868 1.33165 -2.1453 0
M  V30 6373 C 596.181 -1.8989 -2.33157 0
M  V30 6374 C 597.729 -1.92518 -2.46791 0
M  V30 6375 C 598.204 -3.00092 -3.45989 0
M  V30 6376 N 599.695 -2.99279 -3.53534 0
M  V30 6377 C 600.43 -3.79158 -4.30147 0
M  V30 6378 N 599.926 -4.68923 -5.09983 0
M  V30 6379 N 601.719 -3.67451 -4.25366 0
M  V30 6380 H 593.87 -1.98232 -0.762758 0
M  V30 6381 H 596.133 -0.860383 -0.398051 0
M  V30 6382 H 595.839 -2.89809 -1.99257 0
M  V30 6383 H 595.713 -1.77013 -3.33086 0
M  V30 6384 H 598.1 -0.932425 -2.79982 0
M  V30 6385 H 598.181 -2.09473 -1.46816 0
M  V30 6386 H 597.825 -3.99575 -3.13532 0
M  V30 6387 H 597.755 -2.80382 -4.45751 0
M  V30 6388 H 600.246 -2.3422 -2.96563 0
M  V30 6389 H 600.559 -5.26475 -5.65724 0
M  V30 6390 H 598.904 -4.72964 -5.09244 0
M  V30 6391 H 602.095 -2.9669 -3.62067 0
M  V30 6392 H 602.268 -4.29944 -4.84822 0
M  V30 6393 N 595.674 1.31259 -0.872281 0
M  V30 6394 C 597.09 1.49283 -0.564521 0
M  V30 6395 C 597.29 1.80243 0.900807 0
M  V30 6396 O 596.346 1.88246 1.68284 0
M  V30 6397 C 597.659 2.62503 -1.46673 0
M  V30 6398 C 599.207 2.76386 -1.46901 0
M  V30 6399 C 599.682 3.92705 -2.35684 0
M  V30 6400 N 601.173 3.99995 -2.33577 0
M  V30 6401 C 601.908 4.89276 -2.98992 0
M  V30 6402 N 601.404 5.83443 -3.73585 0
M  V30 6403 N 603.197 4.82541 -2.88289 0
M  V30 6404 H 595.348 1.09432 -1.82039 0
M  V30 6405 H 597.611 0.540949 -0.77851 0
M  V30 6406 H 597.317 2.46407 -2.50951 0
M  V30 6407 H 597.191 3.58695 -1.16696 0
M  V30 6408 H 599.578 2.91894 -0.433796 0
M  V30 6409 H 599.659 1.80853 -1.80903 0
M  V30 6410 H 599.303 3.77954 -3.39283 0
M  V30 6411 H 599.233 4.87549 -1.99006 0
M  V30 6412 H 601.724 3.32624 -1.7936 0
M  V30 6413 H 602.037 6.48303 -4.20622 0
M  V30 6414 H 600.382 5.83415 -3.77694 0
M  V30 6415 H 603.573 4.07951 -2.2955 0
M  V30 6416 H 603.746 5.51916 -3.39549 0
M  V30 6417 N 597.152 0.631951 1.44375 0
M  V30 6418 C 598.382 0.143658 2.061 0
M  V30 6419 C 598.79 -1.18733 1.47306 0
M  V30 6420 O 598.133 -1.73943 0.590724 0
M  V30 6421 C 598.195 -0.0446102 3.59472 0
M  V30 6422 C 597.859 1.20835 4.40736 0
M  V30 6423 C 598.856 2.13224 4.74164 0
M  V30 6424 C 596.541 1.44399 4.81097 0
M  V30 6425 C 598.535 3.27487 5.46838 0
M  V30 6426 C 596.222 2.58959 5.53519 0
M  V30 6427 C 597.22 3.50329 5.86309 0
M  V30 6428 O 596.908 4.62891 6.57257 0
M  V30 6429 H 596.64 0.0772939 0.671567 0
M  V30 6430 H 599.194 0.866677 1.8622 0
M  V30 6431 H 597.424 -0.822783 3.77845 0
M  V30 6432 H 599.113 -0.487561 4.02961 0
M  V30 6433 H 599.879 1.96253 4.4352 0
M  V30 6434 H 595.758 0.741696 4.54994 0
M  V30 6435 H 599.302 3.98826 5.72349 0
M  V30 6436 H 595.199 2.75873 5.83579 0
M  V30 6437 H 595.967 4.61883 6.75726 0
M  V30 6438 N 598.631 -1.53133 0.372548 0
M  V30 6439 C 599.859 -2.05774 -0.215515 0
M  V30 6440 C 600.274 -1.24555 -1.41886 0
M  V30 6441 O 599.631 -0.287951 -1.80214 0
M  V30 6442 C 599.682 -3.5645 -0.602161 0
M  V30 6443 O 599.403 -4.34591 0.553359 0
M  V30 6444 C 600.904 -4.25374 -1.24787 0
M  V30 6445 H 598.124 -0.670009 -0.0364529 0
M  V30 6446 H 600.668 -1.97434 0.532934 0
M  V30 6447 H 598.823 -3.64918 -1.30052 0
M  V30 6448 H 599.237 -5.23954 0.239336 0
M  V30 6449 H 600.711 -5.32097 -1.46891 0
M  V30 6450 H 601.188 -3.79531 -2.21026 0
M  V30 6451 H 601.794 -4.21177 -0.590752 0
M  V30 6452 N 600.109 -0.101901 -1.5727 0
M  V30 6453 C 601.072 0.840129 -2.13247 0
M  V30 6454 C 602.072 1.20625 -1.06331 0
M  V30 6455 O 603.262 1.13456 -1.32186 0
M  V30 6456 C 600.394 2.13372 -2.65867 0
M  V30 6457 H 601.587 0.353945 -2.97804 0
M  V30 6458 H 599.14 0.147167 -1.55606 0
M  V30 6459 H 599.875 2.66461 -1.84849 0
M  V30 6460 H 599.66 1.88085 -3.44044 0
M  V30 6461 H 601.15 2.80748 -3.09145 0
M  V30 6462 N 601.587 1.56661 0.17182 0
M  V30 6463 C 602.519 1.92934 1.2373 0
M  V30 6464 C 603.532 0.822385 1.40502 0
M  V30 6465 O 604.721 1.10083 1.40514 0
M  V30 6466 C 601.821 2.16651 2.60607 0
M  V30 6467 C 600.994 3.47878 2.6514 0
M  V30 6468 C 600.053 3.60429 3.83377 0
M  V30 6469 O 599.079 4.33051 3.69398 0
M  V30 6470 N 600.281 2.95241 4.99813 0
M  V30 6471 H 603.046 2.84931 0.929205 0
M  V30 6472 H 600.607 1.5781 0.361588 0
M  V30 6473 H 602.599 2.22312 3.38171 0
M  V30 6474 H 601.169 1.3104 2.83809 0
M  V30 6475 H 600.389 3.53879 1.73675 0
M  V30 6476 H 601.677 4.34232 2.6518 0
M  V30 6477 H 601.075 2.3611 5.14071 0
M  V30 6478 H 599.632 3.06499 5.75241 0
M  V30 6479 N 603.065 -0.440357 1.51323 0
M  V30 6480 C 603.995 -1.54174 1.75364 0
M  V30 6481 C 604.976 -1.59039 0.603375 0
M  V30 6482 O 606.161 -1.74815 0.845774 0
M  V30 6483 C 603.291 -2.92277 1.87593 0
M  V30 6484 C 602.245 -3.02274 3.03009 0
M  V30 6485 C 601.571 -4.42327 3.00418 0
M  V30 6486 C 602.871 -2.76634 4.43024 0
M  V30 6487 H 604.565 -1.34307 2.67585 0
M  V30 6488 H 602.111 -0.644678 1.28763 0
M  V30 6489 H 604.064 -3.69284 2.02995 0
M  V30 6490 H 602.788 -3.13369 0.920179 0
M  V30 6491 H 601.447 -2.27706 2.87307 0
M  V30 6492 H 601.095 -4.60382 2.02626 0
M  V30 6493 H 600.795 -4.49946 3.77918 0
M  V30 6494 H 602.319 -5.21312 3.17909 0
M  V30 6495 H 603.733 -3.43376 4.59093 0
M  V30 6496 H 602.13 -2.95666 5.22208 0
M  V30 6497 H 603.2 -1.72262 4.5327 0
M  V30 6498 N 604.543 -1.41418 -0.695603 0
M  V30 6499 C 605.473 -1.46035 -1.82197 0
M  V30 6500 C 606.454 -0.319025 -1.67082 0
M  V30 6501 O 607.639 -0.530462 -1.86815 0
M  V30 6502 C 604.769 -1.34179 -3.20333 0
M  V30 6503 C 603.723 -2.46123 -3.50154 0
M  V30 6504 C 603.049 -2.19332 -4.87645 0
M  V30 6505 C 604.349 -3.88463 -3.49133 0
M  V30 6506 H 606.043 -2.40303 -1.78591 0
M  V30 6507 H 603.589 -1.15663 -0.857797 0
M  V30 6508 H 605.542 -1.36021 -3.98844 0
M  V30 6509 H 604.266 -0.363952 -3.24566 0
M  V30 6510 H 602.925 -2.43563 -2.73994 0
M  V30 6511 H 602.573 -1.19891 -4.88503 0
M  V30 6512 H 602.273 -2.94344 -5.08562 0
M  V30 6513 H 603.797 -2.22889 -5.68465 0
M  V30 6514 H 605.211 -3.92738 -4.17648 0
M  V30 6515 H 603.608 -4.63158 -3.81582 0
M  V30 6516 H 604.678 -4.16617 -2.48109 0
M  V30 6517 N 606.021 0.929856 -1.27246 0
M  V30 6518 C 607.246 1.71674 -1.16374 0
M  V30 6519 C 607.671 1.86064 0.276024 0
M  V30 6520 O 607.029 1.3591 1.19992 0
M  V30 6521 C 607.077 3.09526 -1.85003 0
M  V30 6522 O 606.181 3.96142 -1.14653 0
M  V30 6523 H 605.522 0.52629 -0.404863 0
M  V30 6524 H 608.052 1.16381 -1.68276 0
M  V30 6525 H 608.062 3.59852 -1.92276 0
M  V30 6526 H 606.737 2.98369 -2.89739 0
M  V30 6527 H 605.314 3.54584 -1.15433 0
M  V30 6528 N 607.499 1.09233 1.13605 0
M  V30 6529 C 608.747 0.825525 1.84471 0
M  V30 6530 C 609.068 -0.650702 1.83823 0
M  V30 6531 O 608.338 -1.47204 1.29259 0
M  V30 6532 H 606.918 0.3024 0.683054 0
M  V30 6533 H 609.58 1.38006 1.37624 0
M  V30 6534 H 608.676 1.17727 2.89045 0
M  V30 6535 N 608.977 -1.30795 0.87923 0
M  V30 6536 C 609.907 -2.30742 0.357796 0
M  V30 6537 C 610.888 -1.60747 -0.556283 0
M  V30 6538 O 612.073 -1.88393 -0.47135 0
M  V30 6539 C 609.203 -3.44583 -0.433555 0
M  V30 6540 C 608.157 -4.26235 0.388251 0
M  V30 6541 C 607.483 -5.32073 -0.529352 0
M  V30 6542 C 608.783 -4.96303 1.62729 0
M  V30 6543 H 610.477 -2.74605 1.19299 0
M  V30 6544 H 608.023 -1.32017 0.575104 0
M  V30 6545 H 609.976 -4.13563 -0.808934 0
M  V30 6546 H 608.7 -2.99511 -1.30234 0
M  V30 6547 H 607.359 -3.58936 0.745695 0
M  V30 6548 H 607.007 -4.83249 -1.39569 0
M  V30 6549 H 606.707 -5.87598 0.0166741 0
M  V30 6550 H 608.231 -6.0391 -0.901373 0
M  V30 6551 H 609.645 -5.5783 1.32283 0
M  V30 6552 H 608.042 -5.61666 2.11309 0
M  V30 6553 H 609.112 -4.22758 2.37494 0
M  V30 6554 N 610.455 -0.639598 -1.44038 0
M  V30 6555 C 611.732 -0.078012 -1.95444 0
M  V30 6556 C 612.112 1.39847 -1.58133 0
M  V30 6557 O 611.46 2.11714 -0.859614 0
M  V30 6558 C 611.67 -0.309832 -3.47622 0
M  V30 6559 C 613.018 -0.207521 -4.24093 0
M  V30 6560 O 614.042 -0.241653 -3.55379 0
M  V30 6561 O 612.901 -0.119641 -5.46369 0
M  V30 6562 H 609.995 0.0174534 -0.826816 0
M  V30 6563 H 612.541 -0.711891 -1.54046 0
M  V30 6564 H 611.313 -1.33401 -3.67858 0
M  V30 6565 H 610.936 0.357777 -3.95987 0
M  V30 6566 N 611.933 1.52934 -0.380664 0
M  V30 6567 C 613.163 2.05587 0.204302 0
M  V30 6568 C 613.571 1.25288 1.41773 0
M  V30 6569 O 612.914 0.290394 1.8139 0
M  V30 6570 C 612.976 3.53624 0.647324 0
M  V30 6571 C 612.64 4.54765 -0.451465 0
M  V30 6572 C 613.637 5.03226 -1.30614 0
M  V30 6573 C 611.322 4.98508 -0.616025 0
M  V30 6574 C 613.316 5.94046 -2.31058 0
M  V30 6575 C 611.003 5.89131 -1.62381 0
M  V30 6576 C 612.001 6.36792 -2.46952 0
M  V30 6577 O 611.689 7.25626 -3.46009 0
M  V30 6578 H 611.421 0.675013 0.0365198 0
M  V30 6579 H 613.975 1.98125 -0.541827 0
M  V30 6580 H 612.205 3.58676 1.44529 0
M  V30 6581 H 613.894 3.89061 1.15698 0
M  V30 6582 H 614.66 4.70167 -1.19027 0
M  V30 6583 H 610.539 4.60989 0.0324987 0
M  V30 6584 H 614.083 6.3117 -2.97104 0
M  V30 6585 H 609.98 6.21603 -1.7401 0
M  V30 6586 H 610.748 7.43664 -3.41916 0
M  V30 6587 N 613.412 0.11024 1.57214 0
M  V30 6588 C 614.342 -0.840002 2.17867 0
M  V30 6589 C 615.323 -1.28352 1.11624 0
M  V30 6590 O 616.508 -1.3477 1.39824 0
M  V30 6591 C 613.638 -2.09349 2.77111 0
M  V30 6592 C 612.592 -1.78807 3.8886 0
M  V30 6593 C 611.918 -3.11112 4.34872 0
M  V30 6594 C 613.218 -1.0632 5.11364 0
M  V30 6595 H 614.912 -0.334608 2.97524 0
M  V30 6596 H 612.458 -0.159502 1.43114 0
M  V30 6597 H 614.411 -2.76275 3.18198 0
M  V30 6598 H 613.135 -2.62198 1.9473 0
M  V30 6599 H 611.794 -1.14273 3.48335 0
M  V30 6600 H 611.442 -3.61877 3.49362 0
M  V30 6601 H 611.142 -2.91453 5.10224 0
M  V30 6602 H 612.666 -3.79171 4.78604 0
M  V30 6603 H 614.08 -1.63383 5.49526 0
M  V30 6604 H 612.477 -0.967876 5.92243 0
M  V30 6605 H 613.547 -0.0484569 4.84876 0
M  V30 6606 N 614.89 -1.56749 -0.16351 0
M  V30 6607 C 615.84 -1.93424 -1.20712 0
M  V30 6608 C 616.824 -0.803469 -1.39403 0
M  V30 6609 O 618.016 -1.06675 -1.41243 0
M  V30 6610 C 615.145 -2.30431 -2.54473 0
M  V30 6611 C 614.231 -3.5004 -2.39443 0
M  V30 6612 N 614.622 -4.67058 -1.9414 0
M  V30 6613 C 612.92 -3.548 -2.70246 0
M  V30 6614 C 613.621 -5.49184 -1.9176 0
M  V30 6615 N 612.597 -4.9044 -2.34457 0
M  V30 6616 H 616.399 -2.8138 -0.848681 0
M  V30 6617 H 613.913 -1.58089 -0.371717 0
M  V30 6618 H 615.91 -2.54903 -3.29894 0
M  V30 6619 H 614.57 -1.43818 -2.91112 0
M  V30 6620 H 615.581 -4.91128 -1.64357 0
M  V30 6621 H 612.258 -2.78685 -3.10871 0
M  V30 6622 H 613.648 -6.5297 -1.58366 0
M  V30 6623 N 616.368 0.432326 -1.51554 0
M  V30 6624 C 617.593 1.20824 -1.68571 0
M  V30 6625 C 618.018 1.84126 -0.384596 0
M  V30 6626 O 617.376 1.69025 0.655751 0
M  V30 6627 C 617.424 2.26429 -2.80646 0
M  V30 6628 O 616.528 3.32032 -2.44598 0
M  V30 6629 H 615.869 0.353765 -0.561913 0
M  V30 6630 H 618.399 0.509916 -1.98144 0
M  V30 6631 H 618.409 2.71133 -3.04878 0
M  V30 6632 H 617.084 1.79733 -3.75058 0
M  V30 6633 H 615.661 2.92769 -2.30956 0
M  V30 6634 N 617.846 1.41785 0.688094 0
M  V30 6635 C 618.794 1.44436 1.82321 0
M  V30 6636 C 619.788 0.321544 1.6632 0
M  V30 6637 O 620.994 0.493931 1.73091 0
M  V30 6638 H 617.369 0.452084 0.600936 0
M  V30 6639 H 619.34 2.40087 1.77202 0
M  V30 6640 C 618.089 1.35071 3.20392 0
M  V30 6641 H 617.412 2.2076 3.33324 0
M  V30 6642 H 618.852 1.40988 3.99873 0
M  V30 6643 C 617.311 0.0639127 3.36839 0
M  V30 6644 O 617.841 -0.888495 3.91751 0
M  V30 6645 N 616.047 -0.0146114 2.90596 0
M  V30 6646 H 615.594 0.761191 2.46097 0
M  V30 6647 H 615.552 -0.874988 3.01979 0
M  V30 6648 N 619.324 -0.923095 1.27737 0
M  V30 6649 C 620.549 -1.71054 1.17283 0
M  V30 6650 C 620.974 -1.86208 -0.266153 0
M  V30 6651 O 620.332 -1.36545 -1.1927 0
M  V30 6652 C 620.38 -3.0854 1.86642 0
M  V30 6653 O 619.484 -3.95528 1.16752 0
M  V30 6654 H 618.825 -0.524136 0.407649 0
M  V30 6655 H 621.355 -1.15487 1.6889 0
M  V30 6656 H 621.365 -3.58828 1.94182 0
M  V30 6657 H 620.04 -2.96828 2.91317 0
M  V30 6658 H 618.617 -3.53967 1.17312 0
M  V30 6659 N 620.802 -1.09834 -1.13024 0
M  V30 6660 C 622.048 -0.83819 -1.84668 0
M  V30 6661 C 622.381 0.634645 -1.83537 0
M  V30 6662 O 621.656 1.46753 -1.27647 0
M  V30 6663 C 621.939 -1.37933 -3.32636 0
M  V30 6664 C 621.792 -2.91857 -3.42257 0
M  V30 6665 C 623.111 -1.01654 -4.28199 0
M  V30 6666 H 620.23 -0.30595 -0.670495 0
M  V30 6667 H 622.872 -1.36044 -1.32635 0
M  V30 6668 H 621.022 -0.935111 -3.77078 0
M  V30 6669 H 622.694 -3.44759 -3.06495 0
M  V30 6670 H 620.937 -3.28776 -2.83 0
M  V30 6671 H 621.608 -3.24799 -4.46329 0
M  V30 6672 H 624.084 -1.39973 -3.9185 0
M  V30 6673 H 622.96 -1.42217 -5.30156 0
M  V30 6674 H 623.221 0.0747794 -4.42037 0
M  V30 6675 N 622.28 1.30327 -0.886154 0
M  V30 6676 C 623.526 1.96388 -0.505941 0
M  V30 6677 C 623.859 1.69784 0.942712 0
M  V30 6678 O 623.134 1.00322 1.6663 0
M  V30 6679 C 623.417 3.51488 -0.782826 0
M  V30 6680 C 623.27 3.87603 -2.28219 0
M  V30 6681 C 624.589 4.39331 -0.260128 0
M  V30 6682 H 621.708 0.713327 -0.185292 0
M  V30 6683 H 624.35 1.54178 -1.11036 0
M  V30 6684 H 622.5 3.87572 -0.268399 0
M  V30 6685 H 624.172 3.61537 -2.86512 0
M  V30 6686 H 622.415 3.3563 -2.74837 0
M  V30 6687 H 623.086 4.95806 -2.42653 0
M  V30 6688 H 625.562 4.10162 -0.700444 0
M  V30 6689 H 624.438 5.46769 -0.483179 0
M  V30 6690 H 624.699 4.34072 0.838674 0
M  V30 6691 N 623.758 0.647228 1.43697 0
M  V30 6692 C 624.708 -0.0702191 2.27892 0
M  V30 6693 C 625.692 -0.800601 1.39568 0
M  V30 6694 O 626.884 -0.684055 1.63247 0
M  V30 6695 C 624.013 -1.04008 3.27165 0
M  V30 6696 C 623.099 -0.308484 4.22977 0
M  V30 6697 N 623.49 0.671721 5.0132 0
M  V30 6698 C 621.788 -0.550751 4.42586 0
M  V30 6699 C 622.489 1.10543 5.711 0
M  V30 6700 N 621.465 0.440903 5.41809 0
M  V30 6701 H 625.267 0.682031 2.85877 0
M  V30 6702 H 622.781 0.474022 1.55328 0
M  V30 6703 H 624.778 -1.56881 3.86256 0
M  V30 6704 H 623.438 -1.79246 2.70742 0
M  V30 6705 H 624.449 1.0502 5.0714 0
M  V30 6706 H 621.126 -1.28476 3.97241 0
M  V30 6707 H 622.516 1.91614 6.43998 0
M  V30 6708 N 625.236 -1.5273 0.388769 0
M  V30 6709 C 626.183 -2.26437 -0.446639 0
M  V30 6710 C 627.153 -1.28025 -1.05824 0
M  V30 6711 O 628.338 -1.56852 -1.08637 0
M  V30 6712 C 625.478 -3.07407 -1.56828 0
M  V30 6713 C 624.591 -4.20747 -0.979589 0
M  V30 6714 C 623.726 -4.89113 -2.07224 0
M  V30 6715 C 622.765 -5.94447 -1.45942 0
M  V30 6716 N 621.902 -6.56411 -2.49135 0
M  V30 6717 H 626.742 -2.97404 0.18837 0
M  V30 6718 H 624.279 -1.46727 0.104725 0
M  V30 6719 H 626.237 -3.52642 -2.22934 0
M  V30 6720 H 624.867 -2.3865 -2.17361 0
M  V30 6721 H 623.919 -3.7983 -0.208151 0
M  V30 6722 H 625.231 -4.9637 -0.491747 0
M  V30 6723 H 624.385 -5.3765 -2.81101 0
M  V30 6724 H 623.124 -4.13013 -2.59368 0
M  V30 6725 H 622.129 -5.4525 -0.705894 0
M  V30 6726 H 623.354 -6.7248 -0.945932 0
M  V30 6727 H 621.3 -5.83152 -3.00449 0
M  V30 6728 H 621.217 -7.27645 -2.05105 0
M  V30 6729 H 622.485 -7.09592 -3.22644 0
M  V30 6730 N 626.714 -0.118576 -1.57153 0
M  V30 6731 C 627.96 0.540326 -1.95469 0
M  V30 6732 C 628.293 1.66356 -1.00196 0
M  V30 6733 O 627.568 1.94461 -0.039104 0
M  V30 6734 C 627.851 1.07342 -3.43729 0
M  V30 6735 C 627.704 -0.0463732 -4.49776 0
M  V30 6736 C 629.023 1.96442 -3.93826 0
M  V30 6737 H 626.142 0.19494 -0.710751 0
M  V30 6738 H 628.784 -0.19405 -1.89006 0
M  V30 6739 H 626.934 1.69925 -3.49368 0
M  V30 6740 H 628.606 -0.681648 -4.56236 0
M  V30 6741 H 626.849 -0.709574 -4.27957 0
M  V30 6742 H 627.52 0.367856 -5.50773 0
M  V30 6743 H 629.996 1.43731 -3.90488 0
M  V30 6744 H 628.872 2.3066 -4.98084 0
M  V30 6745 H 629.133 2.89077 -3.34495 0
M  V30 6746 N 628.193 1.56834 0.155195 0
M  V30 6747 C 629.123 2.00678 1.19376 0
M  V30 6748 C 630.104 0.884973 1.45266 0
M  V30 6749 O 631.289 1.1522 1.56326 0
M  V30 6750 C 628.419 2.38042 2.5289 0
M  V30 6751 C 627.373 3.53332 2.41538 0
M  V30 6752 C 626.699 3.76485 3.79688 0
M  V30 6753 C 627.999 4.86265 1.9064 0
M  V30 6754 H 629.693 2.87688 0.829232 0
M  V30 6755 H 627.239 1.38407 0.397445 0
M  V30 6756 H 629.192 2.67314 3.25763 0
M  V30 6757 H 627.916 1.4796 2.91162 0
M  V30 6758 H 626.575 3.24213 1.71117 0
M  V30 6759 H 626.223 2.83667 4.15382 0
M  V30 6760 H 625.923 4.54068 3.72956 0
M  V30 6761 H 627.447 4.08174 4.54122 0
M  V30 6762 H 628.861 5.14308 2.53299 0
M  V30 6763 H 627.258 5.67597 1.94818 0
M  V30 6764 H 628.328 4.77184 0.861596 0
M  V30 6765 N 629.671 -0.424282 1.51781 0
M  V30 6766 C 630.896 -1.19928 1.6921 0
M  V30 6767 C 631.321 -1.8392 0.394355 0
M  V30 6768 O 630.679 -1.69371 -0.646778 0
M  V30 6769 C 630.727 -2.24937 2.81843 0
M  V30 6770 O 629.831 -3.3073 2.46356 0
M  V30 6771 H 629.172 -0.35078 0.563781 0
M  V30 6772 H 631.702 -0.499401 1.98412 0
M  V30 6773 H 631.712 -2.69512 3.06312 0
M  V30 6774 H 630.387 -1.77742 3.76006 0
M  V30 6775 H 628.964 -2.9154 2.32505 0
M  V30 6776 N 631.149 -1.42148 -0.680565 0
M  V30 6777 C 632.112 -1.4488 -1.77602 0
M  V30 6778 C 633.112 -0.337209 -1.57224 0
M  V30 6779 O 634.302 -0.597778 -1.63622 0
M  V30 6780 C 631.434 -1.27483 -3.16166 0
M  V30 6781 H 632.627 -2.42412 -1.76568 0
M  V30 6782 H 630.18 -1.28511 -0.889645 0
M  V30 6783 H 630.915 -0.30851 -3.22829 0
M  V30 6784 H 630.7 -2.08037 -3.3236 0
M  V30 6785 H 632.19 -1.32265 -3.96101 0
M  V30 6786 N 632.627 0.916307 -1.28225 0
M  V30 6787 C 633.852 1.7043 -1.18188 0
M  V30 6788 C 634.277 1.86346 0.256274 0
M  V30 6789 O 633.635 1.37175 1.18544 0
M  V30 6790 C 633.683 3.07546 -1.88275 0
M  V30 6791 O 632.787 3.94904 -1.18848 0
M  V30 6792 H 632.128 0.521967 -0.410423 0
M  V30 6793 H 634.658 1.14589 -1.69501 0
M  V30 6794 H 634.668 3.57793 -1.96082 0
M  V30 6795 H 633.343 2.95279 -2.92887 0
M  V30 6796 H 631.92 3.53339 -1.19187 0
M  V30 6797 N 634.105 1.10431 1.1244 0
M  V30 6798 C 635.053 0.747974 2.20246 0
M  V30 6799 C 636.047 -0.255848 1.67457 0
M  V30 6800 O 637.253 -0.116221 1.79624 0
M  V30 6801 H 633.628 0.223946 0.71788 0
M  V30 6802 H 635.599 1.6661 2.47556 0
M  V30 6803 C 634.348 0.195957 3.47147 0
M  V30 6804 H 633.671 0.959606 3.88113 0
M  V30 6805 H 635.111 -0.0153154 4.23997 0
M  V30 6806 C 633.57 -1.07132 3.19413 0
M  V30 6807 O 634.1 -2.15284 3.3914 0
M  V30 6808 N 632.306 -0.98994 2.73219 0
M  V30 6809 H 631.853 -0.109736 2.57366 0
M  V30 6810 H 631.811 -1.83856 2.55038 0
M  V30 6811 N 635.583 -1.29855 0.893053 0
M  V30 6812 C 636.829 -1.96116 0.516349 0
M  V30 6813 C 637.162 -1.70281 -0.933695 0
M  V30 6814 O 636.437 -1.01205 -1.66096 0
M  V30 6815 C 636.72 -3.51068 0.801455 0
M  V30 6816 C 636.573 -3.86387 2.30272 0
M  V30 6817 C 637.892 -4.39186 0.283423 0
M  V30 6818 H 635.011 -0.712335 0.189072 0
M  V30 6819 H 637.653 -1.53587 1.11852 0
M  V30 6820 H 635.803 -3.87424 0.288949 0
M  V30 6821 H 637.475 -3.60012 2.88425 0
M  V30 6822 H 635.718 -3.34167 2.76613 0
M  V30 6823 H 636.389 -4.94512 2.45279 0
M  V30 6824 H 638.865 -4.09785 0.722187 0
M  V30 6825 H 637.741 -5.46505 0.512169 0
M  V30 6826 H 638.002 -4.34511 -0.815643 0
M  V30 6827 N 637.061 -0.65484 -1.43351 0
M  V30 6828 C 637.991 0.0221809 -2.33489 0
M  V30 6829 C 638.972 0.810272 -1.49561 0
M  V30 6830 O 640.157 0.771426 -1.78221 0
M  V30 6831 C 637.287 0.988117 -3.32947 0
M  V30 6832 C 636.241 0.310026 -4.26876 0
M  V30 6833 C 635.567 1.38752 -5.16384 0
M  V30 6834 C 636.867 -0.798589 -5.16159 0
M  V30 6835 H 638.561 -0.730571 -2.9035 0
M  V30 6836 H 636.107 -0.352773 -1.39612 0
M  V30 6837 H 638.06 1.47067 -3.94904 0
M  V30 6838 H 636.784 1.77205 -2.74346 0
M  V30 6839 H 635.443 -0.152097 -3.66284 0
M  V30 6840 H 635.091 2.16293 -4.54121 0
M  V30 6841 H 634.791 0.939051 -5.80048 0
M  V30 6842 H 636.315 1.87141 -5.81215 0
M  V30 6843 H 637.729 -0.398126 -5.71916 0
M  V30 6844 H 636.126 -1.17163 -5.88552 0
M  V30 6845 H 637.196 -1.65588 -4.55751 0
M  V30 6846 N 638.539 1.52521 -0.396863 0
M  V30 6847 C 639.785 2.01971 0.183169 0
M  V30 6848 C 640.118 1.2825 1.45827 0
M  V30 6849 O 639.393 0.385179 1.90648 0
M  V30 6850 C 639.676 3.5736 0.443391 0
M  V30 6851 C 639.529 4.41743 -0.84753 0
M  V30 6852 C 640.848 4.22539 1.2308 0
M  V30 6853 H 637.967 0.734119 0.0650976 0
M  V30 6854 H 640.609 1.82519 -0.527918 0
M  V30 6855 H 638.759 3.74066 1.04914 0
M  V30 6856 H 640.431 4.36773 -1.48414 0
M  V30 6857 H 638.674 4.0845 -1.4612 0
M  V30 6858 H 639.345 5.48507 -0.620003 0
M  V30 6859 H 641.821 4.09857 0.718084 0
M  V30 6860 H 640.697 5.31227 1.38162 0
M  V30 6861 H 640.958 3.80675 2.24808 0
M  V30 6862 N 640.017 0.126909 1.57088 0
M  V30 6863 C 641.294 -0.573152 1.87014 0
M  V30 6864 C 641.674 -1.84297 1.02945 0
M  V30 6865 O 641.022 -2.28232 0.110573 0
M  V30 6866 C 641.232 -0.857984 3.38289 0
M  V30 6867 C 642.58 -1.20759 4.07066 0
M  V30 6868 O 643.604 -0.947992 3.43353 0
M  V30 6869 O 642.463 -1.69516 5.19545 0
M  V30 6870 H 639.557 -0.290082 0.774456 0
M  V30 6871 H 642.103 0.162008 1.68925 0
M  V30 6872 H 640.875 0.0415286 3.91278 0
M  V30 6873 H 640.498 -1.64803 3.61837 0
M  V30 6874 N 641.495 -1.56914 -0.146875 0
M  V30 6875 C 642.458 -1.97368 -1.16526 0
M  V30 6876 C 643.458 -0.860223 -1.35856 0
M  V30 6877 O 644.648 -1.12684 -1.32846 0
M  V30 6878 C 641.78 -2.28974 -2.52555 0
M  V30 6879 H 642.973 -2.88523 -0.818209 0
M  V30 6880 H 640.526 -1.5135 -0.390221 0
M  V30 6881 H 641.261 -1.40611 -2.92231 0
M  V30 6882 H 641.046 -3.10157 -2.39886 0
M  V30 6883 H 642.536 -2.61109 -3.25902 0
M  V30 6884 N 642.974 0.416227 -1.52004 0
M  V30 6885 C 643.884 1.53147 -1.77717 0
M  V30 6886 C 644.9 1.609 -0.662368 0
M  V30 6887 O 646.076 1.77747 -0.946991 0
M  V30 6888 C 643.141 2.88948 -1.91598 0
M  V30 6889 C 642.202 2.9114 -3.15493 0
M  V30 6890 C 641.435 4.20464 -3.28703 0
M  V30 6891 O 641.658 5.13981 -2.47345 0
M  V30 6892 O 640.592 4.29368 -4.21813 0
M  V30 6893 H 644.418 1.34357 -2.72363 0
M  V30 6894 H 642.003 0.601373 -1.36762 0
M  V30 6895 H 643.885 3.69505 -2.02593 0
M  V30 6896 H 642.56 3.07821 -1.00141 0
M  V30 6897 H 641.467 2.09461 -3.09962 0
M  V30 6898 H 642.8 2.77216 -4.06709 0
M  V30 6899 N 644.452 1.42507 0.673017 0
M  V30 6900 C 645.7 1.42789 1.43023 0
M  V30 6901 C 646.021 0.0459738 1.94946 0
M  V30 6902 O 645.291 -0.915765 1.73178 0
M  V30 6903 H 643.871 0.525657 0.530748 0
M  V30 6904 H 646.533 1.77944 0.795113 0
M  V30 6905 H 645.629 2.12872 2.28237 0
M  V30 6906 N 645.93 -0.909495 1.28709 0
M  V30 6907 C 647.158 -1.69272 1.18973 0
M  V30 6908 C 647.573 -1.87123 -0.251048 0
M  V30 6909 O 646.93 -1.40127 -1.16922 0
M  V30 6910 C 646.981 -3.08257 1.88839 0
M  V30 6911 O 646.702 -2.91228 3.27289 0
M  V30 6912 C 648.203 -4.02642 1.85457 0
M  V30 6913 H 645.423 -0.528999 0.412797 0
M  V30 6914 H 647.967 -1.13803 1.69909 0
M  V30 6915 H 646.122 -3.6053 1.41762 0
M  V30 6916 H 646.536 -3.79223 3.6234 0
M  V30 6917 H 648.01 -4.97613 2.38925 0
M  V30 6918 H 648.487 -4.31327 0.827893 0
M  V30 6919 H 649.093 -3.56298 2.32233 0
M  V30 6920 N 647.408 -1.11026 -1.11852 0
M  V30 6921 C 648.654 -0.857729 -1.83768 0
M  V30 6922 C 648.987 0.615143 -1.842 0
M  V30 6923 O 648.262 1.45391 -1.29196 0
M  V30 6924 C 648.545 -1.41453 -3.31154 0
M  V30 6925 C 648.398 -2.95471 -3.39142 0
M  V30 6926 C 649.717 -1.0619 -4.27097 0
M  V30 6927 H 646.836 -0.313044 -0.667212 0
M  V30 6928 H 649.478 -1.37443 -1.31185 0
M  V30 6929 H 647.628 -0.975052 -3.76065 0
M  V30 6930 H 649.3 -3.4799 -3.02821 0
M  V30 6931 H 647.543 -3.31759 -2.79497 0
M  V30 6932 H 648.214 -3.29515 -4.42859 0
M  V30 6933 H 650.69 -1.44122 -3.90344 0
M  V30 6934 H 649.566 -1.47832 -5.28618 0
M  V30 6935 H 649.827 0.0278912 -4.42091 0
M  V30 6936 N 648.886 1.2938 -0.899927 0
M  V30 6937 C 649.833 2.27713 -0.376243 0
M  V30 6938 C 650.803 1.57016 0.541774 0
M  V30 6939 O 651.988 1.84997 0.466966 0
M  V30 6940 C 649.128 3.42889 0.39 0
M  V30 6941 C 648.241 4.28369 -0.558938 0
M  V30 6942 C 647.376 5.30726 0.224379 0
M  V30 6943 C 646.415 6.07862 -0.719068 0
M  V30 6944 N 645.552 7.02094 0.0298569 0
M  V30 6945 H 650.392 2.71888 -1.21988 0
M  V30 6946 H 647.929 1.33724 -0.612879 0
M  V30 6947 H 649.887 4.08443 0.850314 0
M  V30 6948 H 648.517 2.99743 1.19809 0
M  V30 6949 H 647.569 3.62986 -1.13777 0
M  V30 6950 H 648.881 4.82068 -1.2811 0
M  V30 6951 H 648.035 6.02098 0.745881 0
M  V30 6952 H 646.774 4.77759 0.979674 0
M  V30 6953 H 645.779 5.35353 -1.25207 0
M  V30 6954 H 647.004 6.62917 -1.4737 0
M  V30 6955 H 644.95 6.51496 0.767415 0
M  V30 6956 H 644.867 7.5335 -0.632391 0
M  V30 6957 H 646.135 7.77685 0.531615 0
M  V30 6958 N 650.364 0.662433 1.43002 0
M  V30 6959 C 651.613 0.176873 2.00923 0
M  V30 6960 C 651.926 -1.21954 1.52927 0
M  V30 6961 O 653.132 -1.80081 2.03182 0
M  V30 6962 C 651.588 0.265379 3.5892 0
M  V30 6963 C 651.196 1.66507 4.15908 0
M  V30 6964 C 652.94 -0.162103 4.2419 0
M  V30 6965 C 650.847 1.707 5.66229 0
M  V30 6966 H 649.777 0.0623627 0.751417 0
M  V30 6967 H 652.428 0.825813 1.63868 0
M  V30 6968 H 650.81 -0.451235 3.93421 0
M  V30 6969 H 651.984 2.40777 3.92891 0
M  V30 6970 H 650.299 2.03932 3.63044 0
M  V30 6971 H 652.896 -0.150745 5.34487 0
M  V30 6972 H 653.239 -1.19519 3.98774 0
M  V30 6973 H 653.772 0.503075 3.94606 0
M  V30 6974 H 650.511 2.7195 5.96426 0
M  V30 6975 H 650.031 1.00768 5.91275 0
M  V30 6976 H 651.71 1.45487 6.3043 0
M  V30 6977 N 651.842 -1.52309 0.404946 0
M  V30 6978 C 653.07 -2.06185 -0.171818 0
M  V30 6979 C 653.485 -1.27536 -1.39212 0
M  V30 6980 O 652.842 -0.326112 -1.79563 0
M  V30 6981 C 652.893 -3.57647 -0.526417 0
M  V30 6982 O 652.614 -4.3332 0.645417 0
M  V30 6983 C 654.115 -4.27925 -1.15736 0
M  V30 6984 H 651.335 -0.670632 -0.0222328 0
M  V30 6985 H 653.879 -1.96259 0.574692 0
M  V30 6986 H 652.034 -3.67595 -1.22282 0
M  V30 6987 H 652.448 -5.23328 0.35042 0
M  V30 6988 H 653.922 -5.35093 -1.35572 0
M  V30 6989 H 654.399 -3.84134 -2.12926 0
M  V30 6990 H 655.005 -4.22335 -0.501281 0
M  V30 6991 N 653.32 -0.135238 -1.57019 0
M  V30 6992 C 654.597 0.563227 -1.87316 0
M  V30 6993 C 654.977 1.83749 -1.03921 0
M  V30 6994 O 654.325 2.2817 -0.122675 0
M  V30 6995 C 654.535 0.840031 -3.3874 0
M  V30 6996 C 655.883 1.18598 -4.077 0
M  V30 6997 O 656.907 0.92977 -3.43851 0
M  V30 6998 O 655.766 1.66758 -5.20436 0
M  V30 6999 H 652.86 0.285971 -0.775983 0
M  V30 7000 H 655.406 -0.170965 -1.68837 0
M  V30 7001 H 654.178 -0.0622785 -3.9125 0
M  V30 7002 H 653.801 1.62882 -3.62706 0
M  V30 7003 N 654.798 1.5699 0.138552 0
M  V30 7004 C 656.028 1.87704 0.863184 0
M  V30 7005 C 656.436 0.722411 1.74865 0
M  V30 7006 O 655.779 -0.316636 1.80951 0
M  V30 7007 C 655.841 3.13219 1.76449 0
M  V30 7008 C 655.505 4.44648 1.05532 0
M  V30 7009 C 656.502 5.18318 0.405252 0
M  V30 7010 C 654.187 4.91367 1.04231 0
M  V30 7011 C 656.181 6.36916 -0.24835 0
M  V30 7012 C 653.868 6.09887 0.384904 0
M  V30 7013 C 654.866 6.82508 -0.259292 0
M  V30 7014 O 654.554 7.98775 -0.906258 0
M  V30 7015 H 654.286 0.626255 0.254521 0
M  V30 7016 H 656.84 2.04966 0.133472 0
M  V30 7017 H 655.07 2.91988 2.53535 0
M  V30 7018 H 656.759 3.30111 2.36181 0
M  V30 7019 H 657.525 4.83289 0.407053 0
M  V30 7020 H 653.404 4.34759 1.53315 0
M  V30 7021 H 656.948 6.93538 -0.751755 0
M  V30 7022 H 652.845 6.44376 0.380799 0
M  V30 7023 H 653.613 8.14494 -0.80877 0
M  V30 7024 N 656.276 -0.40816 1.52223 0
M  V30 7025 C 657.501 -1.18127 1.70472 0
M  V30 7026 C 657.926 -1.83491 0.41384 0
M  V30 7027 O 657.284 -1.70047 -0.628778 0
M  V30 7028 C 657.332 -2.21935 2.84213 0
M  V30 7029 O 656.436 -3.28099 2.4985 0
M  V30 7030 H 655.777 -0.344781 0.56747 0
M  V30 7031 H 658.307 -0.478328 1.9893 0
M  V30 7032 H 658.317 -2.66248 3.09153 0
M  V30 7033 H 656.992 -1.73744 3.7787 0
M  V30 7034 H 655.569 -2.89058 2.35584 0
M  V30 7035 N 657.755 -1.42862 -0.66545 0
M  V30 7036 C 659.004 -1.43119 -1.42126 0
M  V30 7037 C 659.317 -0.0545297 -1.95524 0
M  V30 7038 O 660.523 0.0654747 -2.71421 0
M  V30 7039 C 658.979 -2.51797 -2.5715 0
M  V30 7040 C 658.587 -3.95514 -2.10411 0
M  V30 7041 C 660.331 -2.61233 -3.346 0
M  V30 7042 C 658.238 -4.95682 -3.22573 0
M  V30 7043 H 657.168 -0.532349 -0.533966 0
M  V30 7044 H 659.819 -1.68806 -0.719506 0
M  V30 7045 H 658.201 -2.19292 -3.29738 0
M  V30 7046 H 659.375 -4.3742 -1.44915 0
M  V30 7047 H 657.69 -3.90012 -1.45874 0
M  V30 7048 H 660.287 -3.33248 -4.18151 0
M  V30 7049 H 660.63 -1.65896 -3.81817 0
M  V30 7050 H 661.163 -2.9298 -2.69087 0
M  V30 7051 H 657.902 -5.92529 -2.80338 0
M  V30 7052 H 657.422 -4.58399 -3.86821 0
M  V30 7053 H 659.101 -5.17828 -3.87896 0
M  V30 7054 N 659.233 0.902656 -1.29189 0
M  V30 7055 C 660.458 1.69167 -1.19989 0
M  V30 7056 C 660.883 1.86607 0.236495 0
M  V30 7057 O 660.241 1.38425 1.17082 0
M  V30 7058 C 660.289 3.05532 -1.91527 0
M  V30 7059 O 659.393 3.93621 -1.2303 0
M  V30 7060 H 658.734 0.517584 -0.415936 0
M  V30 7061 H 661.264 1.12785 -1.70706 0
M  V30 7062 H 661.274 3.55693 -1.99866 0
M  V30 7063 H 659.949 2.92156 -2.96003 0
M  V30 7064 H 658.526 3.52055 -1.22928 0
M  V30 7065 N 660.711 1.11618 1.11262 0
M  V30 7066 C 661.658 0.7762 2.17356 0
M  V30 7067 C 662.628 -0.253152 1.6416 0
M  V30 7068 O 663.813 -0.129655 1.90359 0
M  V30 7069 C 660.953 0.227581 3.44349 0
M  V30 7070 C 660.066 1.31372 4.1154 0
M  V30 7071 C 659.201 0.72544 5.26223 0
M  V30 7072 C 658.24 1.7913 5.85302 0
M  V30 7073 N 657.377 1.22237 6.91377 0
M  V30 7074 H 662.217 1.68508 2.45783 0
M  V30 7075 H 659.754 0.841475 1.20655 0
M  V30 7076 H 661.712 -0.108483 4.17059 0
M  V30 7077 H 660.342 -0.644486 3.16301 0
M  V30 7078 H 659.394 1.7667 3.36885 0
M  V30 7079 H 660.706 2.12005 4.51504 0
M  V30 7080 H 659.86 0.339541 6.05749 0
M  V30 7081 H 658.599 -0.112188 4.87571 0
M  V30 7082 H 657.604 2.18648 5.04453 0
M  V30 7083 H 658.829 2.63199 6.26022 0
M  V30 7084 H 656.775 0.406423 6.5474 0
M  V30 7085 H 656.692 1.9654 7.30006 0
M  V30 7086 H 657.96 0.863426 7.74703 0
M  V30 7087 N 662.189 -1.289 0.906776 0
M  V30 7088 C 663.605 -1.47733 0.603902 0
M  V30 7089 C 663.805 -1.82568 -0.852702 0
M  V30 7090 O 662.861 -1.92642 -1.63234 0
M  V30 7091 C 664.174 -2.58522 1.53581 0
M  V30 7092 C 665.722 -2.72394 1.54177 0
M  V30 7093 C 666.197 -3.86318 2.46013 0
M  V30 7094 N 667.688 -3.93661 2.441 0
M  V30 7095 C 668.423 -4.81177 3.11859 0
M  V30 7096 N 667.919 -5.73333 3.88923 0
M  V30 7097 N 669.712 -4.74728 3.00981 0
M  V30 7098 H 661.863 -1.04567 1.84877 0
M  V30 7099 H 664.126 -0.520118 0.792579 0
M  V30 7100 H 663.832 -2.39667 2.57396 0
M  V30 7101 H 663.706 -3.55475 1.26165 0
M  V30 7102 H 666.093 -2.90641 0.511034 0
M  V30 7103 H 666.174 -1.75993 1.85634 0
M  V30 7104 H 665.818 -3.68826 3.49185 0
M  V30 7105 H 665.748 -4.82102 2.11862 0
M  V30 7106 H 668.239 -3.27751 1.88115 0
M  V30 7107 H 668.552 -6.36923 4.37663 0
M  V30 7108 H 666.897 -5.73196 3.93029 0
M  V30 7109 H 670.088 -4.01722 2.40286 0
M  V30 7110 H 670.261 -5.42719 3.54062 0
M  V30 7111 N 663.667 -0.670007 -1.42649 0
M  V30 7112 C 664.597 -0.00258501 -2.335 0
M  V30 7113 C 665.578 0.794364 -1.50412 0
M  V30 7114 O 666.763 0.75248 -1.79029 0
M  V30 7115 C 663.893 0.952748 -3.33976 0
M  V30 7116 C 662.847 0.264733 -4.2718 0
M  V30 7117 C 662.173 1.33267 -5.17826 0
M  V30 7118 C 663.473 -0.853289 -5.15283 0
M  V30 7119 H 665.167 -0.761326 -2.89559 0
M  V30 7120 H 662.713 -0.367561 -1.3923 0
M  V30 7121 H 664.666 1.4287 -3.96442 0
M  V30 7122 H 663.39 1.74285 -2.7621 0
M  V30 7123 H 662.049 -0.190938 -3.66102 0
M  V30 7124 H 661.697 2.11464 -4.5639 0
M  V30 7125 H 661.397 0.877476 -5.81011 0
M  V30 7126 H 662.921 1.80965 -5.83167 0
M  V30 7127 H 664.335 -0.458763 -5.71462 0
M  V30 7128 H 662.732 -1.23398 -5.87276 0
M  V30 7129 H 663.802 -1.70412 -4.53969 0
M  V30 7130 N 665.145 1.52092 -0.413018 0
M  V30 7131 C 666.108 2.25706 0.398687 0
M  V30 7132 C 667.108 1.28221 0.970368 0
M  V30 7133 O 668.298 1.52131 0.848635 0
M  V30 7134 C 665.43 3.03029 1.5616 0
M  V30 7135 H 666.623 2.98888 -0.246131 0
M  V30 7136 H 664.176 1.5542 -0.165622 0
M  V30 7137 H 664.911 2.34205 2.24317 0
M  V30 7138 H 664.696 3.74606 1.15812 0
M  V30 7139 H 666.186 3.58857 2.13569 0
M  V30 7140 N 666.623 0.143563 1.56945 0
M  V30 7141 C 667.9 -0.553285 1.87612 0
M  V30 7142 C 668.28 -1.83195 1.04894 0
M  V30 7143 O 667.628 -2.28102 0.134773 0
M  V30 7144 C 667.838 -0.822055 3.3918 0
M  V30 7145 C 669.186 -1.16435 4.08324 0
M  V30 7146 O 670.21 -0.911522 3.4434 0
M  V30 7147 O 669.069 -1.63996 5.21313 0
M  V30 7148 H 666.163 -0.281851 0.777489 0
M  V30 7149 H 668.709 0.179916 1.68744 0
M  V30 7150 H 667.481 0.0830265 3.91212 0
M  V30 7151 H 667.104 -1.60956 3.63564 0
M  V30 7152 N 668.101 -1.57061 -0.130224 0
M  V30 7153 C 669.35 -1.83446 -0.838488 0
M  V30 7154 C 669.663 -0.727468 -1.81569 0
M  V30 7155 O 670.869 -0.877394 -2.56932 0
M  V30 7156 C 669.325 -3.25201 -1.54182 0
M  V30 7157 C 668.933 -4.4388 -0.606178 0
M  V30 7158 C 670.677 -3.60844 -2.23588 0
M  V30 7159 C 668.584 -5.76661 -1.31209 0
M  V30 7160 H 667.514 -0.684185 -0.316871 0
M  V30 7161 H 670.165 -1.83273 -0.0912059 0
M  V30 7162 H 668.547 -3.1981 -2.33533 0
M  V30 7163 H 669.721 -4.60545 0.153308 0
M  V30 7164 H 668.036 -4.16395 -0.0196705 0
M  V30 7165 H 670.633 -4.57313 -2.77072 0
M  V30 7166 H 670.976 -2.87724 -3.00867 0
M  V30 7167 H 671.509 -3.67971 -1.51137 0
M  V30 7168 H 668.248 -6.52922 -0.580823 0
M  V30 7169 H 667.768 -5.63902 -2.04387 0
M  V30 7170 H 669.447 -6.20035 -1.8484 0
M  V30 7171 N 669.579 0.400081 -1.52437 0
M  V30 7172 C 670.819 1.15526 -1.68622 0
M  V30 7173 C 671.183 1.87533 -0.411744 0
M  V30 7174 O 672.384 2.6501 -0.449804 0
M  V30 7175 C 670.655 2.11618 -2.88015 0
M  V30 7176 S 672.214 2.95121 -3.24729 0
M  V30 7177 H 669.032 0.39123 -0.593683 0
M  V30 7178 H 671.634 0.441255 -1.90455 0
M  V30 7179 H 670.338 1.5742 -3.79008 0
M  V30 7180 H 669.869 2.87544 -2.68481 0
M  V30 7181 H 671.884 4.13653 -2.74055 0
M  V30 7182 N 671.057 1.43213 0.657864 0
M  V30 7183 C 672.004 1.48011 1.77092 0
M  V30 7184 C 672.974 0.330291 1.62783 0
M  V30 7185 O 674.159 0.536787 1.83094 0
M  V30 7186 C 671.299 1.40461 3.15222 0
M  V30 7187 C 670.412 2.65612 3.40697 0
M  V30 7188 C 669.547 2.50083 4.68649 0
M  V30 7189 C 668.586 3.70525 4.87214 0
M  V30 7190 N 667.723 3.53835 6.0642 0
M  V30 7191 H 672.563 2.43121 1.72326 0
M  V30 7192 H 670.1 1.20687 0.841013 0
M  V30 7193 H 672.058 1.34079 3.95068 0
M  V30 7194 H 670.688 0.489359 3.19069 0
M  V30 7195 H 669.74 2.82292 2.54982 0
M  V30 7196 H 671.052 3.5509 3.50303 0
M  V30 7197 H 670.206 2.41383 5.56614 0
M  V30 7198 H 668.945 1.58121 4.61356 0
M  V30 7199 H 667.95 3.79639 3.97686 0
M  V30 7200 H 669.175 4.63489 4.96341 0
M  V30 7201 H 667.121 2.64604 6.00267 0
M  V30 7202 H 667.038 4.36912 6.16963 0
M  V30 7203 H 668.306 3.48978 6.97019 0
M  V30 7204 N 672.536 -0.895792 1.29666 0
M  V30 7205 C 673.446 -2.03329 1.17024 0
M  V30 7206 C 674.462 -1.73753 0.0925962 0
M  V30 7207 O 675.638 -1.99071 0.305431 0
M  V30 7208 C 672.703 -3.36072 0.851841 0
M  V30 7209 C 671.764 -3.7914 2.01373 0
M  V30 7210 C 670.997 -5.05549 1.71043 0
M  V30 7211 O 671.22 -5.66874 0.633213 0
M  V30 7212 O 670.154 -5.44764 2.5596 0
M  V30 7213 H 673.98 -2.16918 2.12556 0
M  V30 7214 H 671.565 -1.02007 1.09156 0
M  V30 7215 H 673.447 -4.15729 0.689006 0
M  V30 7216 H 672.122 -3.23616 -0.0736634 0
M  V30 7217 H 671.029 -3.00233 2.23183 0
M  V30 7218 H 672.362 -3.96186 2.92058 0
M  V30 7219 N 674.014 -1.12206 -1.10668 0
M  V30 7220 C 675.291 -0.787382 -1.79052 0
M  V30 7221 C 675.671 0.723267 -1.98323 0
M  V30 7222 O 675.019 1.6561 -1.57434 0
M  V30 7223 C 675.229 -1.55968 -3.1221 0
M  V30 7224 C 676.577 -1.74413 -3.87125 0
M  V30 7225 O 677.601 -1.5246 -3.21923 0
M  V30 7226 O 676.46 -2.10952 -5.04144 0
M  V30 7227 H 673.554 -0.286137 -0.775922 0
M  V30 7228 H 676.1 -1.22595 -1.1734 0
M  V30 7229 H 674.872 -2.58692 -2.93588 0
M  V30 7230 H 674.495 -1.1152 -3.8164 0
M  V30 7231 N 675.492 1.28418 -0.913599 0
M  V30 7232 C 676.738 1.9527 -0.547484 0
M  V30 7233 C 677.071 1.71745 0.906486 0
M  V30 7234 O 676.346 1.03834 1.64465 0
M  V30 7235 C 676.629 3.49748 -0.857205 0
M  V30 7236 C 676.482 3.82675 -2.3639 0
M  V30 7237 C 677.801 4.3868 -0.353258 0
M  V30 7238 H 674.92 0.709236 -0.200381 0
M  V30 7239 H 677.562 1.51789 -1.14281 0
M  V30 7240 H 675.712 3.86915 -0.350548 0
M  V30 7241 H 677.384 3.55378 -2.94116 0
M  V30 7242 H 675.627 3.29724 -2.81894 0
M  V30 7243 H 676.298 4.90547 -2.53115 0
M  V30 7244 H 678.774 4.08584 -0.787288 0
M  V30 7245 H 677.65 5.45621 -0.599049 0
M  V30 7246 H 677.911 4.35753 0.746413 0
M  V30 7247 N 676.97 0.677563 1.42291 0
M  V30 7248 C 678.217 0.200975 2.015 0
M  V30 7249 C 678.545 -1.19342 1.53583 0
M  V30 7250 O 677.8 -1.81579 0.7299 0
M  V30 7251 C 678.099 0.187229 3.56909 0
M  V30 7252 C 677.765 1.52667 4.24268 0
M  V30 7253 C 676.427 1.89341 4.42384 0
M  V30 7254 C 678.779 2.40869 4.62203 0
M  V30 7255 C 676.107 3.13836 4.95705 0
M  V30 7256 C 678.459 3.64679 5.16906 0
M  V30 7257 C 677.123 4.01519 5.33234 0
M  V30 7258 H 676.393 0.0735418 0.737342 0
M  V30 7259 H 679.04 0.873095 1.70439 0
M  V30 7260 H 677.345 -0.568407 3.87655 0
M  V30 7261 H 679.042 -0.198773 4.00507 0
M  V30 7262 H 675.632 1.23138 4.1053 0
M  V30 7263 H 679.816 2.1382 4.47878 0
M  V30 7264 H 675.072 3.42396 5.06532 0
M  V30 7265 H 679.246 4.33224 5.45243 0
M  V30 7266 H 676.873 4.98062 5.74316 0
M  V30 7267 N 678.448 -1.51871 0.421078 0
M  V30 7268 C 679.358 -2.31077 -0.405069 0
M  V30 7269 C 680.374 -1.39301 -1.04265 0
M  V30 7270 O 681.55 -1.72376 -1.04157 0
M  V30 7271 C 678.615 -3.12556 -1.50032 0
M  V30 7272 C 677.676 -4.20088 -0.884559 0
M  V30 7273 C 676.909 -4.97673 -1.92762 0
M  V30 7274 O 677.132 -4.75696 -3.14753 0
M  V30 7275 O 676.066 -5.82203 -1.52719 0
M  V30 7276 H 679.892 -3.02742 0.241086 0
M  V30 7277 H 677.477 -1.48263 0.183991 0
M  V30 7278 H 679.359 -3.6326 -2.13589 0
M  V30 7279 H 678.034 -2.43672 -2.13086 0
M  V30 7280 H 676.941 -3.73502 -0.211379 0
M  V30 7281 H 678.274 -4.91298 -0.297763 0
M  V30 7282 N 679.926 -0.151884 -1.56866 0
M  V30 7283 C 680.858 0.817008 -2.14144 0
M  V30 7284 C 681.871 1.20735 -1.0921 0
M  V30 7285 O 683.06 1.15058 -1.36469 0
M  V30 7286 C 680.16 2.10844 -2.65326 0
M  V30 7287 C 679.333 1.88471 -3.94712 0
M  V30 7288 C 678.392 3.01649 -4.31155 0
M  V30 7289 O 677.418 2.73127 -4.9939 0
M  V30 7290 N 678.62 4.28947 -3.91132 0
M  V30 7291 H 681.385 0.327448 -2.97906 0
M  V30 7292 H 678.946 0.0315313 -1.61869 0
M  V30 7293 H 680.938 2.85616 -2.86715 0
M  V30 7294 H 679.508 2.51049 -1.86262 0
M  V30 7295 H 678.728 0.977088 -3.81899 0
M  V30 7296 H 680.016 1.70866 -4.79252 0
M  V30 7297 H 679.414 4.54986 -3.36161 0
M  V30 7298 H 677.971 5.00484 -4.17563 0
M  V30 7299 N 681.404 1.57128 0.121893 0
M  V30 7300 C 682.632 1.88883 0.844451 0
M  V30 7301 C 683.047 0.742824 1.73573 0
M  V30 7302 O 682.404 -0.286475 1.80238 0
M  V30 7303 C 682.455 3.20076 1.68029 0
M  V30 7304 O 682.176 4.30264 0.824898 0
M  V30 7305 C 683.677 3.65515 2.50826 0
M  V30 7306 H 680.897 0.62549 0.242907 0
M  V30 7307 H 683.441 2.04219 0.107151 0
M  V30 7308 H 681.596 3.06418 2.37038 0
M  V30 7309 H 682.01 5.05439 1.40113 0
M  V30 7310 H 683.484 4.60081 3.05008 0
M  V30 7311 H 683.961 2.92029 3.28048 0
M  V30 7312 H 684.567 3.81952 1.87064 0
M  V30 7313 N 682.882 -0.391992 1.52647 0
M  V30 7314 C 684.298 -0.731848 1.41831 0
M  V30 7315 C 684.498 -1.9423 0.536361 0
M  V30 7316 O 683.554 -2.52499 0.00866571 0
M  V30 7317 C 684.867 -0.969743 2.84634 0
M  V30 7318 C 686.415 -1.0714 2.94092 0
M  V30 7319 C 686.89 -1.34195 4.37899 0
M  V30 7320 N 688.381 -1.41023 4.41211 0
M  V30 7321 C 689.116 -1.63616 5.49561 0
M  V30 7322 N 688.612 -1.83699 6.68002 0
M  V30 7323 N 690.405 -1.65771 5.371 0
M  V30 7324 H 682.556 0.404547 2.08512 0
M  V30 7325 H 684.819 0.11879 0.940528 0
M  V30 7326 H 684.525 -0.152465 3.51369 0
M  V30 7327 H 684.399 -1.88523 3.26709 0
M  V30 7328 H 686.786 -1.87925 2.27526 0
M  V30 7329 H 686.867 -0.133887 2.55449 0
M  V30 7330 H 686.511 -0.539207 5.0503 0
M  V30 7331 H 686.441 -2.29226 4.74092 0
M  V30 7332 H 688.932 -1.27223 3.55841 0
M  V30 7333 H 689.245 -2.00437 7.46354 0
M  V30 7334 H 687.59 -1.8093 6.71036 0
M  V30 7335 H 690.781 -1.4963 4.43541 0
M  V30 7336 H 690.954 -1.83038 6.21612 0
M  V30 7337 N 684.36 -1.4356 -0.65026 0
M  V30 7338 C 685.606 -1.45549 -1.41221 0
M  V30 7339 C 685.939 -0.0805472 -1.94033 0
M  V30 7340 O 685.214 0.899043 -1.72475 0
M  V30 7341 C 685.497 -2.50028 -2.59148 0
M  V30 7342 C 685.35 -3.96808 -2.1181 0
M  V30 7343 C 686.669 -2.51212 -3.61359 0
M  V30 7344 H 683.788 -0.529967 -0.512156 0
M  V30 7345 H 686.43 -1.75127 -0.736933 0
M  V30 7346 H 684.58 -2.24937 -3.16758 0
M  V30 7347 H 686.252 -4.32966 -1.59178 0
M  V30 7348 H 684.495 -4.09498 -1.43156 0
M  V30 7349 H 685.166 -4.6553 -2.96625 0
M  V30 7350 H 687.642 -2.73583 -3.13515 0
M  V30 7351 H 686.518 -3.26252 -4.41419 0
M  V30 7352 H 686.779 -1.54701 -4.1415 0
M  V30 7353 N 685.838 0.888903 -1.30139 0
M  V30 7354 C 687.254 1.17153 -1.08385 0
M  V30 7355 C 687.454 2.0088 0.157925 0
M  V30 7356 O 686.51 2.37668 0.852652 0
M  V30 7357 C 687.823 1.882 -2.34523 0
M  V30 7358 C 689.371 2.00981 -2.39949 0
M  V30 7359 C 689.846 2.75441 -3.65918 0
M  V30 7360 N 691.337 2.82989 -3.66704 0
M  V30 7361 C 692.072 3.41167 -4.60861 0
M  V30 7362 N 691.568 4.00425 -5.6536 0
M  V30 7363 N 693.361 3.38944 -4.48412 0
M  V30 7364 H 685.512 0.33053 -2.09812 0
M  V30 7365 H 687.775 0.208964 -0.924683 0
M  V30 7366 H 687.481 1.34119 -3.25123 0
M  V30 7367 H 687.355 2.88609 -2.42868 0
M  V30 7368 H 689.742 2.54234 -1.4983 0
M  V30 7369 H 689.823 0.996725 -2.35582 0
M  V30 7370 H 689.467 2.22861 -4.56394 0
M  V30 7371 H 689.397 3.77118 -3.67546 0
M  V30 7372 H 691.888 2.40912 -2.91153 0
M  V30 7373 H 692.201 4.42871 -6.33313 0
M  V30 7374 H 690.546 3.98856 -5.69157 0
M  V30 7375 H 693.737 2.91875 -3.6596 0
M  V30 7376 H 693.91 3.83989 -5.21974 0
M  V30 7377 N 687.317 1.12792 1.10072 0
M  V30 7378 C 688.564 0.885545 1.82111 0
M  V30 7379 C 688.892 -0.588519 1.85383 0
M  V30 7380 O 688.147 -1.45124 1.31292 0
M  V30 7381 C 688.446 1.4102 3.28403 0
M  V30 7382 C 688.112 2.89995 3.45273 0
M  V30 7383 C 686.774 3.30671 3.49585 0
M  V30 7384 C 689.126 3.85874 3.50358 0
M  V30 7385 C 686.454 4.65925 3.56553 0
M  V30 7386 C 688.806 5.20963 3.58859 0
M  V30 7387 C 687.47 5.61177 3.61437 0
M  V30 7388 H 686.74 0.324044 0.666391 0
M  V30 7389 H 689.387 1.40874 1.29718 0
M  V30 7390 H 687.692 0.807551 3.83387 0
M  V30 7391 H 689.389 1.19882 3.82661 0
M  V30 7392 H 685.979 2.57537 3.42597 0
M  V30 7393 H 690.163 3.5554 3.46273 0
M  V30 7394 H 685.419 4.96468 3.56833 0
M  V30 7395 H 689.593 5.95079 3.61738 0
M  V30 7396 H 687.22 6.6597 3.66589 0
M  V30 7397 N 688.795 -1.27931 0.920396 0
M  V30 7398 C 690.02 -1.99343 0.572478 0
M  V30 7399 C 690.445 -1.68267 -0.840696 0
M  V30 7400 O 689.803 -0.918805 -1.56294 0
M  V30 7401 C 689.851 -3.51698 0.796284 0
M  V30 7402 O 688.955 -4.12157 -0.141602 0
M  V30 7403 H 688.296 -0.626065 0.221221 0
M  V30 7404 H 690.826 -1.62921 1.23765 0
M  V30 7405 H 690.836 -4.01793 0.708984 0
M  V30 7406 H 689.511 -3.73649 1.82644 0
M  V30 7407 H 688.088 -3.729 -0.005007 0
M  V30 7408 N 690.273 -0.685099 -1.4193 0
M  V30 7409 C 691.55 -0.140152 -1.95097 0
M  V30 7410 C 691.93 1.34745 -1.62502 0
M  V30 7411 O 691.278 2.08872 -0.926534 0
M  V30 7412 C 691.488 -0.420268 -3.4646 0
M  V30 7413 C 692.836 -0.342338 -4.23218 0
M  V30 7414 O 693.86 -0.354592 -3.54431 0
M  V30 7415 O 692.719 -0.293404 -5.45712 0
M  V30 7416 H 689.813 -0.00885998 -0.826953 0
M  V30 7417 H 692.359 -0.760539 -1.51703 0
M  V30 7418 H 691.131 -1.45037 -3.63428 0
M  V30 7419 H 690.754 0.231616 -3.96925 0
M  V30 7420 N 691.751 1.51645 -0.429126 0
M  V30 7421 C 692.699 2.29119 0.400921 0
M  V30 7422 C 693.693 1.34628 1.02819 0
M  V30 7423 O 694.899 1.52004 0.964098 0
M  V30 7424 H 691.274 0.737273 0.148095 0
M  V30 7425 H 693.245 2.97144 -0.273457 0
M  V30 7426 C 691.994 3.13953 1.49429 0
M  V30 7427 H 691.317 3.86544 1.02097 0
M  V30 7428 H 692.757 3.71232 2.04849 0
M  V30 7429 C 691.216 2.28796 2.47293 0
M  V30 7430 O 691.746 1.94193 3.51642 0
M  V30 7431 N 689.952 1.92177 2.17982 0
M  V30 7432 H 689.499 2.20517 1.33154 0
M  V30 7433 H 689.457 1.35497 2.83704 0
M  V30 7434 N 693.229 0.160201 1.56784 0
M  V30 7435 C 694.192 -0.760405 2.16219 0
M  V30 7436 C 695.192 -1.16595 1.10735 0
M  V30 7437 O 696.382 -1.08472 1.36306 0
M  V30 7438 C 693.514 -2.03358 2.73603 0
M  V30 7439 H 694.707 -0.243173 2.98912 0
M  V30 7440 H 692.26 -0.0893139 1.56045 0
M  V30 7441 H 692.995 -2.59416 1.94612 0
M  V30 7442 H 692.78 -1.75186 3.50788 0
M  V30 7443 H 694.27 -2.69081 3.19351 0
M  V30 7444 N 694.707 -1.5719 -0.113559 0
M  V30 7445 C 695.637 -2.03772 -1.14013 0
M  V30 7446 C 696.618 -0.923176 -1.42869 0
M  V30 7447 O 697.803 -1.19325 -1.53216 0
M  V30 7448 C 694.933 -2.44663 -2.4649 0
M  V30 7449 C 693.887 -3.59612 -2.32085 0
M  V30 7450 C 693.213 -3.8642 -3.69573 0
M  V30 7451 C 694.513 -4.91149 -1.7768 0
M  V30 7452 H 696.207 -2.89785 -0.752665 0
M  V30 7453 H 693.753 -1.39412 -0.360609 0
M  V30 7454 H 695.706 -2.75857 -3.18561 0
M  V30 7455 H 694.43 -1.55628 -2.87137 0
M  V30 7456 H 693.089 -3.28636 -1.62461 0
M  V30 7457 H 692.737 -2.94581 -4.07715 0
M  V30 7458 H 692.437 -4.63797 -3.60786 0
M  V30 7459 H 693.961 -4.2007 -4.4314 0
M  V30 7460 H 695.375 -5.20843 -2.39574 0
M  V30 7461 H 693.772 -5.72562 -1.79701 0
M  V30 7462 H 694.842 -4.79301 -0.734776 0
M  V30 7463 N 696.185 0.383891 -1.52853 0
M  V30 7464 C 697.596 0.961591 -1.60032 0
M  V30 7465 C 697.947 1.90819 -0.456333 0
M  V30 7466 O 697.072 2.12288 0.419873 0
M  V30 7467 C 697.667 1.75078 -2.90057 0
M  V30 7468 C 696.226 2.2781 -2.99632 0
M  V30 7469 C 695.373 1.08512 -2.55187 0
M  V30 7470 H 698.324 0.163269 -1.57858 0
M  V30 7471 H 698.345 2.61046 -2.7683 0
M  V30 7472 H 697.857 1.06157 -3.73299 0
M  V30 7473 H 695.958 3.00028 -2.20939 0
M  V30 7474 H 696.071 2.56947 -4.0437 0
M  V30 7475 H 694.435 1.44667 -2.09627 0
M  V30 7476 H 695.218 0.41118 -3.40829 0
M  V30 7477 N 697.663 1.43903 0.642637 0
M  V30 7478 C 698.893 1.49323 1.4278 0
M  V30 7479 C 699.301 0.113058 1.88862 0
M  V30 7480 O 698.644 -0.889089 1.60751 0
M  V30 7481 C 698.706 2.3861 2.68897 0
M  V30 7482 C 698.37 3.85976 2.44687 0
M  V30 7483 C 699.367 4.7681 2.07239 0
M  V30 7484 C 697.052 4.30567 2.58683 0
M  V30 7485 C 699.046 6.10234 1.841 0
M  V30 7486 C 696.733 5.64042 2.35159 0
M  V30 7487 C 697.731 6.53693 1.97925 0
M  V30 7488 O 697.419 7.84698 1.74654 0
M  V30 7489 H 697.151 0.509109 0.444729 0
M  V30 7490 H 699.705 1.89425 0.794195 0
M  V30 7491 H 697.935 1.93415 3.34855 0
M  V30 7492 H 699.624 2.35112 3.30873 0
M  V30 7493 H 700.39 4.43635 1.95993 0
M  V30 7494 H 696.269 3.61054 2.86637 0
M  V30 7495 H 699.813 6.80171 1.54962 0
M  V30 7496 H 695.71 5.96782 2.46011 0
M  V30 7497 H 696.478 7.96382 1.88993 0
M  V30 7498 N 699.141 -0.881989 1.30609 0
M  V30 7499 C 700.088 -1.98803 1.17244 0
M  V30 7500 C 701.058 -1.65987 0.0611905 0
M  V30 7501 O 702.243 -1.89385 0.231911 0
M  V30 7502 C 699.383 -3.33867 0.87333 0
M  V30 7503 C 698.496 -3.79354 2.06675 0
M  V30 7504 C 697.631 -5.03078 1.70547 0
M  V30 7505 C 696.67 -5.40981 2.86366 0
M  V30 7506 N 695.807 -6.55886 2.50514 0
M  V30 7507 H 700.647 -2.09566 2.11863 0
M  V30 7508 H 698.184 -1.02607 1.05405 0
M  V30 7509 H 700.142 -4.11612 0.680519 0
M  V30 7510 H 698.772 -3.2278 -0.0359983 0
M  V30 7511 H 697.824 -2.97492 2.37071 0
M  V30 7512 H 699.136 -4.03382 2.93401 0
M  V30 7513 H 698.29 -5.88457 1.47658 0
M  V30 7514 H 697.029 -4.80927 0.809947 0
M  V30 7515 H 696.034 -4.54127 3.09917 0
M  V30 7516 H 697.259 -5.65104 3.76609 0
M  V30 7517 H 695.205 -6.35306 1.63471 0
M  V30 7518 H 695.122 -6.79799 3.30771 0
M  V30 7519 H 696.39 -7.44489 2.30989 0
M  V30 7520 N 700.619 -1.13374 -1.09472 0
M  V30 7521 C 701.847 -0.918351 -1.85402 0
M  V30 7522 C 702.262 0.53281 -1.81126 0
M  V30 7523 O 701.619 1.36879 -1.20708 0
M  V30 7524 C 701.67 -1.39743 -3.33398 0
M  V30 7525 O 701.391 -2.79172 -3.37631 0
M  V30 7526 C 702.892 -1.22042 -4.2617 0
M  V30 7527 H 700.112 -0.327511 -0.585643 0
M  V30 7528 H 702.656 -1.50617 -1.38328 0
M  V30 7529 H 700.811 -0.852619 -3.77901 0
M  V30 7530 H 701.225 -3.00428 -4.29934 0
M  V30 7531 H 702.699 -1.60438 -5.2817 0
M  V30 7532 H 703.176 -0.162047 -4.38901 0
M  V30 7533 H 703.782 -1.75323 -3.87482 0
M  V30 7534 N 702.098 1.27442 -0.927168 0
M  V30 7535 C 703.346 1.94007 -0.566203 0
M  V30 7536 C 703.667 1.7323 0.895345 0
M  V30 7537 O 702.937 1.07973 1.63459 0
M  V30 7538 H 701.517 0.717917 -0.206409 0
M  V30 7539 H 704.179 1.55161 -1.17945 0
M  V30 7540 H 703.275 3.02401 -0.772028 0
M  V30 7541 N 703.576 0.692616 1.41565 0
M  V30 7542 C 704.523 0.0254264 2.30786 0
M  V30 7543 C 705.493 -0.774347 1.46946 0
M  V30 7544 O 706.678 -0.742981 1.7574 0
M  V30 7545 C 703.818 -0.907123 3.32964 0
M  V30 7546 C 702.931 -0.0992784 4.31886 0
M  V30 7547 C 702.066 -1.0292 5.21134 0
M  V30 7548 C 701.105 -0.214088 6.11725 0
M  V30 7549 N 700.242 -1.09766 6.93467 0
M  V30 7550 H 705.082 0.792036 2.87282 0
M  V30 7551 H 702.619 0.4023 1.41492 0
M  V30 7552 H 704.577 -1.46181 3.90752 0
M  V30 7553 H 703.207 -1.64016 2.78026 0
M  V30 7554 H 702.259 0.572287 3.76071 0
M  V30 7555 H 703.571 0.532782 4.95946 0
M  V30 7556 H 702.725 -1.65321 5.83741 0
M  V30 7557 H 701.464 -1.69512 4.57293 0
M  V30 7558 H 700.469 0.42302 5.4817 0
M  V30 7559 H 701.694 0.447995 6.77621 0
M  V30 7560 H 699.64 -1.74965 6.32237 0
M  V30 7561 H 699.557 -0.521099 7.54202 0
M  V30 7562 H 700.825 -1.70858 7.60544 0
M  V30 7563 N 705.054 -1.51416 0.437162 0
M  V30 7564 C 706.001 -2.27743 -0.374374 0
M  V30 7565 C 706.971 -1.31327 -1.01698 0
M  V30 7566 O 708.156 -1.60229 -1.03592 0
M  V30 7567 C 705.296 -3.12241 -1.46969 0
M  V30 7568 C 704.409 -4.23651 -0.845236 0
M  V30 7569 C 703.544 -4.95458 -1.91559 0
M  V30 7570 C 702.583 -5.98789 -1.26956 0
M  V30 7571 N 701.72 -6.64005 -2.28126 0
M  V30 7572 H 706.56 -2.96654 0.282892 0
M  V30 7573 H 704.097 -1.46319 0.151352 0
M  V30 7574 H 706.055 -3.59556 -2.11602 0
M  V30 7575 H 704.685 -2.45445 -2.09659 0
M  V30 7576 H 703.737 -3.803 -0.0872059 0
M  V30 7577 H 705.049 -4.97683 -0.333582 0
M  V30 7578 H 704.203 -5.46321 -2.63854 0
M  V30 7579 H 702.942 -4.21055 -2.46097 0
M  V30 7580 H 701.947 -5.47219 -0.53207 0
M  V30 7581 H 703.172 -6.75149 -0.731509 0
M  V30 7582 H 701.118 -5.92415 -2.81745 0
M  V30 7583 H 701.035 -7.33802 -1.81852 0
M  V30 7584 H 702.303 -7.19498 -2.99905 0
M  V30 7585 N 706.532 -0.168513 -1.56696 0
M  V30 7586 C 707.78 0.476216 -1.96409 0
M  V30 7587 C 708.101 1.63968 -1.05544 0
M  V30 7588 O 707.371 1.95525 -0.121235 0
M  V30 7589 H 705.951 0.178921 -0.725256 0
M  V30 7590 H 708.613 -0.249042 -1.93302 0
M  V30 7591 H 707.709 0.838094 -3.00637 0
M  V30 7592 N 708.01 1.57248 0.105221 0
M  V30 7593 C 709.287 1.76566 0.841647 0
M  V30 7594 C 709.667 0.747566 1.9742 0
M  V30 7595 O 709.015 -0.225886 2.27381 0
M  V30 7596 C 709.225 3.22016 1.3456 0
M  V30 7597 C 710.573 3.84911 1.79244 0
M  V30 7598 O 711.597 3.25703 1.44207 0
M  V30 7599 O 710.456 4.89008 2.43995 0
M  V30 7600 H 707.55 0.723443 0.400698 0
M  V30 7601 H 710.096 1.69472 0.0878893 0
M  V30 7602 H 708.868 3.87644 0.533685 0
M  V30 7603 H 708.491 3.33703 2.16167 0
M  V30 7604 N 709.488 -0.375779 1.53054 0
M  V30 7605 C 710.734 -1.12114 1.68992 0
M  V30 7606 C 711.067 -1.8926 0.435238 0
M  V30 7607 O 710.342 -1.86044 -0.567278 0
M  V30 7608 C 710.625 -2.08867 2.93337 0
M  V30 7609 C 710.478 -1.35397 4.28938 0
M  V30 7610 C 711.797 -3.09124 3.13257 0
M  V30 7611 H 708.916 -0.406207 0.614951 0
M  V30 7612 H 711.558 -0.403054 1.85676 0
M  V30 7613 H 709.708 -2.70102 2.79244 0
M  V30 7614 H 711.38 -0.770242 4.54824 0
M  V30 7615 H 709.623 -0.655801 4.28814 0
M  V30 7616 H 710.294 -2.06161 5.12056 0
M  V30 7617 H 712.77 -2.57987 3.26469 0
M  V30 7618 H 711.646 -3.74054 4.01715 0
M  V30 7619 H 711.907 -3.78729 2.28072 0
M  V30 7620 N 710.966 -1.44241 -0.634997 0
M  V30 7621 C 712.212 -1.48033 -1.39492 0
M  V30 7622 C 712.567 -0.109791 -1.92086 0
M  V30 7623 O 711.86 0.874394 -1.70484 0
M  V30 7624 C 712.054 -2.47279 -2.58046 0
M  V30 7625 C 711.883 -3.93848 -2.17057 0
M  V30 7626 C 710.653 -4.62061 -2.04518 0
M  V30 7627 C 712.851 -4.83172 -1.76208 0
M  V30 7628 N 710.833 -5.93471 -1.57051 0
M  V30 7629 C 712.204 -6.03996 -1.39958 0
M  V30 7630 C 714.259 -4.70271 -1.63554 0
M  V30 7631 C 712.962 -7.13351 -0.923196 0
M  V30 7632 C 714.988 -5.79646 -1.1732 0
M  V30 7633 C 714.35 -6.99609 -0.820181 0
M  V30 7634 H 710.449 -0.596743 -0.505392 0
M  V30 7635 H 713.033 -1.80542 -0.72887 0
M  V30 7636 H 711.204 -2.16766 -3.22284 0
M  V30 7637 H 712.936 -2.41391 -3.24827 0
M  V30 7638 H 709.691 -4.1682 -2.24851 0
M  V30 7639 H 710.115 -6.63275 -1.35628 0
M  V30 7640 H 714.757 -3.77964 -1.8948 0
M  V30 7641 H 712.475 -8.0547 -0.651441 0
M  V30 7642 H 716.061 -5.71689 -1.07993 0
M  V30 7643 H 714.941 -7.82803 -0.467901 0
M  V30 7644 N 712.444 0.87505 -1.31075 0
M  V30 7645 C 713.86 1.15997 -1.09622 0
M  V30 7646 C 714.06 2.01036 0.136611 0
M  V30 7647 O 713.116 2.38559 0.827397 0
M  V30 7648 C 714.429 1.85702 -2.36506 0
M  V30 7649 C 715.977 1.98425 -2.42067 0
M  V30 7650 C 716.452 2.71544 -3.68819 0
M  V30 7651 N 717.943 2.79084 -3.69684 0
M  V30 7652 C 718.678 3.36259 -4.64454 0
M  V30 7653 N 718.174 3.94406 -5.69575 0
M  V30 7654 N 719.967 3.34169 -4.51982 0
M  V30 7655 H 712.118 0.308258 -2.10151 0
M  V30 7656 H 714.381 0.199145 -0.926847 0
M  V30 7657 H 714.087 1.30663 -3.26527 0
M  V30 7658 H 713.961 2.86017 -2.45915 0
M  V30 7659 H 716.348 2.5263 -1.52518 0
M  V30 7660 H 716.429 0.971682 -2.36626 0
M  V30 7661 H 716.073 2.18008 -4.58732 0
M  V30 7662 H 716.003 3.73198 -3.71525 0
M  V30 7663 H 718.494 2.3781 -2.93691 0
M  V30 7664 H 718.807 4.36129 -6.37974 0
M  V30 7665 H 717.152 3.92797 -5.73355 0
M  V30 7666 H 720.343 2.87977 -3.69035 0
M  V30 7667 H 720.516 3.78431 -5.26017 0
M  V30 7668 N 713.922 1.13953 1.08869 0
M  V30 7669 C 714.852 0.844824 2.17681 0
M  V30 7670 C 715.833 -0.198213 1.68941 0
M  V30 7671 O 717.018 -0.0559073 1.9412 0
M  V30 7672 C 714.148 0.316325 3.45856 0
M  V30 7673 C 713.102 1.29426 4.07962 0
M  V30 7674 C 712.428 0.625275 5.31031 0
M  V30 7675 C 713.728 2.65484 4.49795 0
M  V30 7676 H 715.422 1.75471 2.42591 0
M  V30 7677 H 712.968 0.845116 1.16592 0
M  V30 7678 H 714.921 0.0977876 4.21287 0
M  V30 7679 H 713.645 -0.628972 3.20486 0
M  V30 7680 H 712.304 1.49889 3.34558 0
M  V30 7681 H 711.952 -0.325678 5.01945 0
M  V30 7682 H 711.652 1.27777 5.73539 0
M  V30 7683 H 713.176 0.416152 6.0918 0
M  V30 7684 H 714.59 2.48957 5.16424 0
M  V30 7685 H 712.987 3.26963 5.03205 0
M  V30 7686 H 714.057 3.22717 3.61914 0
M  V30 7687 N 715.4 -1.26948 0.933913 0
M  V30 7688 C 716.648 -1.93704 0.576484 0
M  V30 7689 C 716.969 -1.73702 -0.886145 0
M  V30 7690 O 716.239 -1.08838 -1.62884 0
M  V30 7691 H 714.819 -0.716812 0.210214 0
M  V30 7692 H 717.481 -1.54534 1.18766 0
M  V30 7693 H 716.577 -3.01987 0.788055 0
M  V30 7694 N 716.879 -0.700114 -1.41195 0
M  V30 7695 C 717.809 -0.0521132 -2.33442 0
M  V30 7696 C 718.79 0.76228 -1.52063 0
M  V30 7697 O 719.975 0.714336 -1.80585 0
M  V30 7698 C 717.105 0.881693 -3.35922 0
M  V30 7699 C 716.059 0.174062 -4.27646 0
M  V30 7700 C 715.385 1.22254 -5.20536 0
M  V30 7701 C 716.685 -0.962396 -5.13357 0
M  V30 7702 H 718.379 -0.822574 -2.87879 0
M  V30 7703 H 715.925 -0.397011 -1.38419 0
M  V30 7704 H 717.878 1.34429 -3.99383 0
M  V30 7705 H 716.602 1.68387 -2.79845 0
M  V30 7706 H 715.261 -0.268551 -3.65615 0
M  V30 7707 H 714.909 2.01736 -4.60773 0
M  V30 7708 H 714.609 0.754038 -5.82742 0
M  V30 7709 H 716.133 1.68555 -5.86874 0
M  V30 7710 H 717.547 -0.579875 -5.7036 0
M  V30 7711 H 715.944 -1.35828 -5.84526 0
M  V30 7712 H 717.014 -1.80003 -4.50252 0
M  V30 7713 N 718.357 1.51182 -0.445186 0
M  V30 7714 C 719.287 2.30821 0.352686 0
M  V30 7715 C 720.268 1.36576 1.01395 0
M  V30 7716 O 721.453 1.65497 1.01609 0
M  V30 7717 C 718.583 3.15593 1.44976 0
M  V30 7718 C 717.537 4.1818 0.911553 0
M  V30 7719 C 716.863 4.91523 2.10497 0
M  V30 7720 C 718.163 5.22266 -0.059418 0
M  V30 7721 H 719.857 2.97771 -0.311936 0
M  V30 7722 H 717.403 1.43201 -0.151461 0
M  V30 7723 H 719.356 3.70091 2.01521 0
M  V30 7724 H 718.08 2.4648 2.14278 0
M  V30 7725 H 716.739 3.64746 0.368264 0
M  V30 7726 H 716.387 4.18906 2.78437 0
M  V30 7727 H 716.087 5.60898 1.7512 0
M  V30 7728 H 717.611 5.48847 2.6758 0
M  V30 7729 H 719.025 5.71789 0.415985 0
M  V30 7730 H 717.422 5.99213 -0.326152 0
M  V30 7731 H 718.492 4.7461 -0.993631 0
M  V30 7732 N 719.835 0.176821 1.56605 0
M  V30 7733 C 720.765 -0.746841 2.21234 0
M  V30 7734 C 721.746 -1.23502 1.16967 0
M  V30 7735 O 722.931 -1.28718 1.45414 0
M  V30 7736 C 720.061 -1.97407 2.8574 0
M  V30 7737 C 719.015 -1.62153 3.96094 0
M  V30 7738 C 718.341 -2.92387 4.47676 0
M  V30 7739 C 719.641 -0.845353 5.15413 0
M  V30 7740 H 721.335 -0.208116 2.98676 0
M  V30 7741 H 718.881 -0.0986594 1.43662 0
M  V30 7742 H 720.834 -2.62531 3.2963 0
M  V30 7743 H 719.558 -2.53703 2.05676 0
M  V30 7744 H 718.217 -0.993964 3.52868 0
M  V30 7745 H 717.865 -3.46734 3.64396 0
M  V30 7746 H 717.565 -2.69551 5.22127 0
M  V30 7747 H 719.089 -3.5853 4.94255 0
M  V30 7748 H 720.503 -1.39929 5.55961 0
M  V30 7749 H 718.9 -0.715814 5.95815 0
M  V30 7750 H 719.97 0.157239 4.84645 0
M  V30 7751 N 721.313 -1.57302 -0.09688 0
M  V30 7752 C 722.243 -2.0497 -1.11846 0
M  V30 7753 C 723.224 -0.938278 -1.41882 0
M  V30 7754 O 724.409 -1.20943 -1.51942 0
M  V30 7755 C 721.539 -2.47264 -2.43881 0
M  V30 7756 C 720.493 -3.62053 -2.28257 0
M  V30 7757 C 719.819 -3.90318 -3.65453 0
M  V30 7758 C 721.119 -4.93005 -1.72461 0
M  V30 7759 H 722.813 -2.90567 -0.721888 0
M  V30 7760 H 720.359 -1.39786 -0.345803 0
M  V30 7761 H 722.312 -2.7922 -3.15617 0
M  V30 7762 H 721.036 -1.58664 -2.8547 0
M  V30 7763 H 719.695 -3.30341 -1.58967 0
M  V30 7764 H 719.343 -2.98889 -4.04567 0
M  V30 7765 H 719.043 -4.67597 -3.55846 0
M  V30 7766 H 720.567 -4.24747 -4.3866 0
M  V30 7767 H 721.981 -5.23354 -2.34036 0
M  V30 7768 H 720.378 -5.74436 -1.73618 0
M  V30 7769 H 721.448 -4.80053 -0.683898 0
M  V30 7770 N 722.791 0.367657 -1.53252 0
M  V30 7771 C 724.016 1.13566 -1.73544 0
M  V30 7772 C 724.441 1.82329 -0.462344 0
M  V30 7773 O 723.799 1.71655 0.583472 0
M  V30 7774 C 723.847 2.14322 -2.89997 0
M  V30 7775 O 722.951 3.21359 -2.58461 0
M  V30 7776 H 722.292 0.329614 -0.576412 0
M  V30 7777 H 724.822 0.425417 -2.00128 0
M  V30 7778 H 724.832 2.57958 -3.16104 0
M  V30 7779 H 723.507 1.63664 -3.82344 0
M  V30 7780 H 722.084 2.8271 -2.43165 0
M  V30 7781 N 724.269 1.44576 0.627338 0
M  V30 7782 C 725.199 1.54562 1.75022 0
M  V30 7783 C 726.18 0.398378 1.65369 0
M  V30 7784 O 727.365 0.61899 1.84071 0
M  V30 7785 C 724.495 1.49309 3.13567 0
M  V30 7786 C 723.449 2.62549 3.38012 0
M  V30 7787 C 722.775 2.42348 4.76625 0
M  V30 7788 C 724.075 4.04678 3.30202 0
M  V30 7789 H 725.769 2.4855 1.66922 0
M  V30 7790 H 723.315 1.19624 0.801636 0
M  V30 7791 H 725.268 1.54895 3.919 0
M  V30 7792 H 723.992 0.518392 3.2246 0
M  V30 7793 H 722.651 2.56358 2.62061 0
M  V30 7794 H 722.299 1.43062 4.82226 0
M  V30 7795 H 721.999 3.18273 4.93939 0
M  V30 7796 H 723.523 2.49758 5.57183 0
M  V30 7797 H 724.937 4.12217 3.98435 0
M  V30 7798 H 723.334 4.80836 3.5905 0
M  V30 7799 H 724.404 4.2798 2.27949 0
M  V30 7800 N 725.747 -0.868086 1.31537 0
M  V30 7801 C 726.972 -1.65926 1.24432 0
M  V30 7802 C 727.397 -1.87169 -0.186936 0
M  V30 7803 O 726.755 -1.4148 -1.13371 0
M  V30 7804 C 726.803 -3.00347 1.9956 0
M  V30 7805 O 725.907 -3.90221 1.33422 0
M  V30 7806 H 725.248 -0.506375 0.429512 0
M  V30 7807 H 727.778 -1.0822 1.73637 0
M  V30 7808 H 727.788 -3.50269 2.09226 0
M  V30 7809 H 726.463 -2.84205 3.03645 0
M  V30 7810 H 725.04 -3.48672 1.32219 0
M  V30 7811 N 727.225 -1.14528 -1.08264 0
M  V30 7812 C 728.157 -0.791325 -2.15106 0
M  V30 7813 C 729.17 0.192449 -1.61659 0
M  V30 7814 O 730.359 -0.0294704 -1.78476 0
M  V30 7815 C 727.459 -0.154183 -3.38549 0
M  V30 7816 C 726.632 -1.17305 -4.21377 0
M  V30 7817 C 725.691 -0.559401 -5.23218 0
M  V30 7818 O 724.717 -1.22277 -5.55911 0
M  V30 7819 N 725.919 0.663159 -5.767 0
M  V30 7820 H 728.684 -1.71076 -2.46075 0
M  V30 7821 H 726.245 -1.0399 -1.24087 0
M  V30 7822 H 728.237 0.268884 -4.03806 0
M  V30 7823 H 726.807 0.668418 -3.0537 0
M  V30 7824 H 726.027 -1.773 -3.52077 0
M  V30 7825 H 727.315 -1.86128 -4.73533 0
M  V30 7826 H 726.713 1.22066 -5.52373 0
M  V30 7827 H 725.27 1.02871 -6.43631 0
M  V30 7828 N 728.703 1.26451 -0.940633 0
M  V30 7829 C 729.951 1.93395 -0.586748 0
M  V30 7830 C 730.272 1.7417 0.876921 0
M  V30 7831 O 729.542 1.097 1.62304 0
M  V30 7832 H 728.122 0.715687 -0.214012 0
M  V30 7833 H 730.784 1.53902 -1.19584 0
M  V30 7834 H 729.88 3.01565 -0.804059 0
M  V30 7835 N 730.181 0.707592 1.40822 0
M  V30 7836 C 731.113 0.0105968 2.29198 0
M  V30 7837 C 732.126 -0.732035 1.45414 0
M  V30 7838 O 733.315 -0.580741 1.68789 0
M  V30 7839 C 730.415 -1.00921 3.23525 0
M  V30 7840 C 729.588 -0.333747 4.36125 0
M  V30 7841 C 728.647 -1.25783 5.10945 0
M  V30 7842 O 727.673 -0.745646 5.64295 0
M  V30 7843 N 728.875 -2.58947 5.19545 0
M  V30 7844 H 731.64 0.76938 2.89656 0
M  V30 7845 H 729.201 0.554579 1.52105 0
M  V30 7846 H 731.193 -1.6294 3.70449 0
M  V30 7847 H 729.763 -1.66942 2.6429 0
M  V30 7848 H 728.983 0.466518 3.9143 0
M  V30 7849 H 730.271 0.135444 5.0862 0
M  V30 7850 H 729.669 -3.03065 4.7767 0
M  V30 7851 H 728.226 -3.16131 5.70004 0
M  V30 7852 N 731.66 -1.50943 0.453197 0
M  V30 7853 C 732.57 -2.31884 -0.355963 0
M  V30 7854 C 733.586 -1.41481 -1.01287 0
M  V30 7855 O 734.762 -1.74546 -1.00477 0
M  V30 7856 C 731.827 -3.15668 -1.43369 0
M  V30 7857 C 730.888 -4.2187 -0.795253 0
M  V30 7858 C 730.121 -5.0165 -1.82162 0
M  V30 7859 O 730.344 -4.82266 -3.04592 0
M  V30 7860 O 729.278 -5.85311 -1.40336 0
M  V30 7861 H 733.104 -3.02162 0.305248 0
M  V30 7862 H 730.689 -1.47839 0.215398 0
M  V30 7863 H 732.571 -3.67709 -2.05836 0
M  V30 7864 H 731.246 -2.48137 -2.07869 0
M  V30 7865 H 730.153 -3.73867 -0.132106 0
M  V30 7866 H 731.486 -4.9182 -0.193484 0
M  V30 7867 N 733.138 -0.185124 -1.56509 0
M  V30 7868 C 734.378 0.458547 -1.9919 0
M  V30 7869 C 734.742 1.59484 -1.06906 0
M  V30 7870 O 735.943 2.30201 -1.38783 0
M  V30 7871 C 734.214 0.916263 -3.45455 0
M  V30 7872 S 735.773 1.55918 -4.10165 0
M  V30 7873 H 732.591 0.147008 -0.695636 0
M  V30 7874 H 735.193 -0.285841 -1.93399 0
M  V30 7875 H 733.897 0.0790543 -4.10324 0
M  V30 7876 H 733.428 1.69436 -3.55042 0
M  V30 7877 H 735.443 2.84771 -4.0635 0
M  V30 7878 N 734.616 1.57351 0.0885366 0
M  V30 7879 C 735.864 1.86051 0.789262 0
M  V30 7880 C 736.185 0.774763 1.78948 0
M  V30 7881 O 735.455 -0.198324 1.94894 0
M  V30 7882 H 734.035 0.686508 0.294475 0
M  V30 7883 H 736.697 1.94779 0.0686055 0
M  V30 7884 H 735.793 2.83007 1.31581 0
M  V30 7885 N 736.094 -0.359525 1.53444 0
M  V30 7886 C 737.004 -1.46445 1.83278 0
M  V30 7887 C 738.02 -1.5833 0.721629 0
M  V30 7888 O 739.196 -1.7411 1.01231 0
M  V30 7889 C 736.261 -2.81638 2.02191 0
M  V30 7890 C 735.322 -2.7923 3.26082 0
M  V30 7891 C 734.555 -4.07974 3.44082 0
M  V30 7892 O 734.778 -5.04447 2.66251 0
M  V30 7893 O 733.712 -4.13417 4.37458 0
M  V30 7894 H 737.538 -1.24156 2.77162 0
M  V30 7895 H 735.123 -0.550201 1.389 0
M  V30 7896 H 737.005 -3.61732 2.16167 0
M  V30 7897 H 735.68 -3.03892 1.11496 0
M  V30 7898 H 734.587 -1.97813 3.17523 0
M  V30 7899 H 735.92 -2.6193 4.16718 0
M  V30 7900 N 737.572 -1.44907 -0.619662 0
M  V30 7901 C 738.802 -1.51575 -1.40387 0
M  V30 7902 C 739.21 -0.14309 -1.88658 0
M  V30 7903 O 738.553 0.863403 -1.62145 0
M  V30 7904 C 738.615 -2.42858 -2.65067 0
M  V30 7905 C 738.279 -3.8982 -2.38515 0
M  V30 7906 C 739.276 -4.80047 -1.99627 0
M  V30 7907 C 736.961 -4.34628 -2.51801 0
M  V30 7908 C 738.955 -6.13086 -1.74369 0
M  V30 7909 C 736.642 -5.67712 -2.26156 0
M  V30 7910 C 737.64 -6.56759 -1.875 0
M  V30 7911 O 737.328 -7.87377 -1.62148 0
M  V30 7912 H 737.06 -0.51612 -0.436573 0
M  V30 7913 H 739.614 -1.90664 -0.763959 0
M  V30 7914 H 737.844 -1.98717 -3.31735 0
M  V30 7915 H 739.533 -2.40346 -3.27091 0
M  V30 7916 H 740.299 -4.46697 -1.8891 0
M  V30 7917 H 736.178 -3.65568 -2.80857 0
M  V30 7918 H 739.722 -6.8255 -1.44122 0
M  V30 7919 H 735.619 -6.0062 -2.36486 0
M  V30 7920 H 736.387 -7.99288 -1.763 0
M  V30 7921 N 739.05 0.861098 -1.31996 0
M  V30 7922 C 740.461 1.43065 -1.19955 0
M  V30 7923 C 740.812 1.95273 0.190489 0
M  V30 7924 O 739.937 1.87012 1.08882 0
M  V30 7925 C 740.532 2.60052 -2.1716 0
M  V30 7926 C 739.091 3.13026 -2.09026 0
M  V30 7927 C 738.238 1.85756 -2.05888 0
M  V30 7928 H 741.189 0.668834 -1.43918 0
M  V30 7929 H 741.21 3.37016 -1.76637 0
M  V30 7930 H 740.722 2.22024 -3.18319 0
M  V30 7931 H 738.823 3.55653 -1.11092 0
M  V30 7932 H 738.936 3.74707 -2.98549 0
M  V30 7933 H 737.3 2.05088 -1.51033 0
M  V30 7934 H 738.083 1.49954 -3.08818 0
M  V30 7935 N 740.528 1.15101 1.07655 0
M  V30 7936 C 741.774 0.925343 1.80458 0
M  V30 7937 C 742.107 -0.546354 1.86356 0
M  V30 7938 O 741.382 -1.40496 1.34503 0
M  V30 7939 C 741.665 1.53646 3.25676 0
M  V30 7940 C 741.518 3.07854 3.27942 0
M  V30 7941 C 742.837 1.21968 4.22861 0
M  V30 7942 H 739.956 0.337592 0.655134 0
M  V30 7943 H 742.598 1.42217 1.25993 0
M  V30 7944 H 740.748 1.11395 3.72187 0
M  V30 7945 H 742.42 3.58989 2.89697 0
M  V30 7946 H 740.663 3.41904 2.66991 0
M  V30 7947 H 741.334 3.45725 4.30324 0
M  V30 7948 H 743.81 1.5851 3.84726 0
M  V30 7949 H 742.686 1.67349 5.22767 0
M  V30 7950 H 742.947 0.136207 4.4189 0
M  V30 7951 N 742.006 -1.2595 0.947325 0
M  V30 7952 C 743.234 -1.97544 0.615127 0
M  V30 7953 C 743.649 -1.70484 -0.811221 0
M  V30 7954 O 743.006 -0.97662 -1.5417 0
M  V30 7955 C 743.057 -3.51236 0.855328 0
M  V30 7956 O 742.778 -3.77359 2.22558 0
M  V30 7957 C 744.279 -4.40066 0.534515 0
M  V30 7958 H 741.499 -0.629888 0.231263 0
M  V30 7959 H 744.043 -1.60308 1.26971 0
M  V30 7960 H 742.198 -3.8661 0.247266 0
M  V30 7961 H 742.612 -4.71857 2.29022 0
M  V30 7962 H 744.086 -5.46838 0.753168 0
M  V30 7963 H 744.563 -4.35982 -0.530701 0
M  V30 7964 H 745.169 -4.10245 1.12158 0
M  V30 7965 N 743.484 -0.715051 -1.40445 0
M  V30 7966 C 744.733 -0.251322 -2.00128 0
M  V30 7967 C 745.046 1.16194 -1.57347 0
M  V30 7968 O 746.252 1.72416 -2.09726 0
M  V30 7969 C 744.708 -0.398407 -3.57688 0
M  V30 7970 C 744.316 -1.81828 -4.09442 0
M  V30 7971 C 746.06 0.00455625 -4.245 0
M  V30 7972 C 743.967 -1.91598 -5.59503 0
M  V30 7973 H 742.897 -0.0902081 -0.748584 0
M  V30 7974 H 745.548 -0.886062 -1.6069 0
M  V30 7975 H 743.93 0.304908 -3.94824 0
M  V30 7976 H 745.104 -2.55193 -3.83684 0
M  V30 7977 H 743.419 -2.17266 -3.55225 0
M  V30 7978 H 746.016 -0.0477303 -5.34679 0
M  V30 7979 H 746.359 1.04636 -4.02935 0
M  V30 7980 H 746.892 -0.649184 -3.92467 0
M  V30 7981 H 743.631 -2.93898 -5.85922 0
M  V30 7982 H 743.151 -1.22644 -5.87127 0
M  V30 7983 H 744.83 -1.68785 -6.24596 0
M  V30 7984 N 744.962 1.50701 -0.461195 0
M  V30 7985 C 746.373 1.867 -0.00370227 0
M  V30 7986 C 746.724 1.37673 1.39787 0
M  V30 7987 O 745.849 0.737515 2.03445 0
M  V30 7988 C 746.444 3.388 5.75786e-05 0
M  V30 7989 C 745.003 3.74247 0.402044 0
M  V30 7990 C 744.15 2.74549 -0.389652 0
M  V30 7991 H 747.101 1.43585 -0.675942 0
M  V30 7992 H 747.122 3.719 0.804414 0
M  V30 7993 H 746.634 3.74452 -1.02015 0
M  V30 7994 H 744.735 3.44192 1.42697 0
M  V30 7995 H 744.848 4.78973 0.110265 0
M  V30 7996 H 743.212 2.54226 0.155314 0
M  V30 7997 H 743.995 3.13044 -1.40919 0
M  V30 7998 N 746.441 0.193421 1.56409 0
M  V30 7999 C 747.666 -0.454552 2.02358 0
M  V30 8000 C 748.091 -1.54516 1.07268 0
M  V30 8001 O 747.449 -1.81214 0.0558962 0
M  V30 8002 C 747.497 -0.989469 3.46759 0
M  V30 8003 O 746.601 -2.10244 3.54783 0
M  V30 8004 H 745.942 -0.106417 0.655417 0
M  V30 8005 H 748.472 0.303807 2.02332 0
M  V30 8006 H 748.482 -1.30649 3.86516 0
M  V30 8007 H 747.157 -0.191083 4.15461 0
M  V30 8008 H 745.734 -1.79419 3.26899 0
M  V30 8009 N 747.919 -1.57396 -0.0801906 0
M  V30 8010 C 749.196 -1.77883 -0.813451 0
M  V30 8011 C 749.576 -0.778879 -1.96206 0
M  V30 8012 O 748.924 0.189683 -2.27711 0
M  V30 8013 C 749.134 -3.24116 -1.2942 0
M  V30 8014 C 750.482 -3.87714 -1.73098 0
M  V30 8015 O 751.506 -3.27956 -1.39007 0
M  V30 8016 O 750.365 -4.92828 -2.36184 0
M  V30 8017 H 747.459 -0.729727 -0.389138 0
M  V30 8018 H 750.005 -1.69591 -0.0609166 0
M  V30 8019 H 748.777 -3.88443 -0.471947 0
M  V30 8020 H 748.4 -3.371 -2.1083 0
M  V30 8021 N 749.397 0.351382 -1.53633 0
M  V30 8022 C 750.327 1.43688 -1.84055 0
M  V30 8023 C 751.308 1.55251 -0.695073 0
M  V30 8024 O 752.493 1.69587 -0.946257 0
M  V30 8025 C 749.623 2.80843 -2.04315 0
M  V30 8026 C 748.577 2.84094 -3.20117 0
M  V30 8027 C 747.903 4.2406 -3.25696 0
M  V30 8028 C 749.203 2.50334 -4.58399 0
M  V30 8029 H 750.897 1.18478 -2.74961 0
M  V30 8030 H 748.443 0.568509 -1.32303 0
M  V30 8031 H 750.396 3.56821 -2.2418 0
M  V30 8032 H 749.12 3.07471 -1.10132 0
M  V30 8033 H 747.779 2.10568 -3.00094 0
M  V30 8034 H 747.427 4.47785 -2.29123 0
M  V30 8035 H 747.127 4.27147 -4.03509 0
M  V30 8036 H 748.651 5.0189 -3.47762 0
M  V30 8037 H 750.065 3.16025 -4.78332 0
M  V30 8038 H 748.462 2.64717 -5.38558 0
M  V30 8039 H 749.532 1.45542 -4.62543 0
M  V30 8040 N 750.875 1.45233 0.611969 0
M  V30 8041 C 752.286 1.4354 1.19387 0
M  V30 8042 C 752.637 0.160713 1.95541 0
M  V30 8043 O 751.762 -0.737954 2.03429 0
M  V30 8044 C 752.357 2.60045 2.17169 0
M  V30 8045 C 750.916 2.61486 2.70744 0
M  V30 8046 C 750.063 2.35708 1.46072 0
M  V30 8047 H 753.014 1.53536 0.401529 0
M  V30 8048 H 753.035 2.33893 3.00124 0
M  V30 8049 H 752.547 3.52803 1.61714 0
M  V30 8050 H 750.648 1.72721 3.30149 0
M  V30 8051 H 750.761 3.60572 3.15476 0
M  V30 8052 H 749.125 1.85178 1.74875 0
M  V30 8053 H 749.908 3.30606 0.924922 0
M  V30 8054 N 752.353 -0.854086 1.3245 0
M  V30 8055 C 753.316 -1.94427 1.21371 0
M  V30 8056 C 754.316 -1.60219 0.136613 0
M  V30 8057 O 755.506 -1.69846 0.387057 0
M  V30 8058 C 752.638 -3.29698 0.866701 0
M  V30 8059 H 753.831 -2.05679 2.18257 0
M  V30 8060 H 751.384 -1.04434 1.1629 0
M  V30 8061 H 752.119 -3.24145 -0.100319 0
M  V30 8062 H 751.904 -3.55903 1.64545 0
M  V30 8063 H 753.394 -4.09599 0.813515 0
M  V30 8064 N 753.831 -1.1567 -1.07043 0
M  V30 8065 C 755.108 -0.843948 -1.76456 0
M  V30 8066 C 755.488 0.659806 -2.00524 0
M  V30 8067 O 754.836 1.60518 -1.62623 0
M  V30 8068 C 755.046 -1.65822 -3.0709 0
M  V30 8069 C 756.394 -1.8664 -3.8138 0
M  V30 8070 O 757.418 -1.62624 -3.1691 0
M  V30 8071 O 756.277 -2.26884 -4.97178 0
M  V30 8072 H 753.371 -0.310677 -0.766426 0
M  V30 8073 H 755.917 -1.26266 -1.1338 0
M  V30 8074 H 754.689 -2.67902 -2.85209 0
M  V30 8075 H 754.312 -1.23605 -3.77899 0
M  V30 8076 N 755.309 1.25446 -0.953992 0
M  V30 8077 C 756.556 1.93143 -0.608429 0
M  V30 8078 C 756.884 1.74727 0.854451 0
M  V30 8079 O 756.139 1.0855 1.62836 0
M  V30 8080 C 756.438 3.45555 -0.912496 0
M  V30 8081 C 756.104 3.84126 -2.36131 0
M  V30 8082 C 754.766 3.94367 -2.75732 0
M  V30 8083 C 757.118 4.0324 -3.30223 0
M  V30 8084 C 754.446 4.21127 -4.08496 0
M  V30 8085 C 756.798 4.31493 -4.62598 0
M  V30 8086 C 755.462 4.3995 -5.01996 0
M  V30 8087 H 754.732 0.706762 -0.22264 0
M  V30 8088 H 757.379 1.49005 -1.20291 0
M  V30 8089 H 755.684 3.91091 -0.235618 0
M  V30 8090 H 757.381 3.9612 -0.623714 0
M  V30 8091 H 753.971 3.76711 -2.04418 0
M  V30 8092 H 758.155 3.94744 -3.00817 0
M  V30 8093 H 753.411 4.2589 -4.38665 0
M  V30 8094 H 757.585 4.45227 -5.35486 0
M  V30 8095 H 755.212 4.60439 -6.04896 0
M  V30 8096 N 756.787 0.722489 1.40064 0
M  V30 8097 C 757.719 0.0349057 2.29173 0
M  V30 8098 C 758.732 -0.716571 1.46182 0
M  V30 8099 O 759.921 -0.562806 1.69395 0
M  V30 8100 C 757.021 -0.974839 3.24577 0
M  V30 8101 C 756.194 -0.287471 4.36454 0
M  V30 8102 C 755.253 -1.20356 5.12251 0
M  V30 8103 O 754.279 -0.685753 5.65054 0
M  V30 8104 N 755.481 -2.53422 5.22262 0
M  V30 8105 H 758.246 0.800058 2.88824 0
M  V30 8106 H 755.807 0.57068 1.51509 0
M  V30 8107 H 757.799 -1.59002 3.72157 0
M  V30 8108 H 756.369 -1.6413 2.66046 0
M  V30 8109 H 755.589 0.508008 3.90913 0
M  V30 8110 H 756.877 0.189382 5.08447 0
M  V30 8111 H 756.275 -2.97981 4.80857 0
M  V30 8112 H 754.832 -3.10067 5.73325 0
M  V30 8113 N 758.265 -1.50454 0.469181 0
M  V30 8114 C 759.542 -1.9504 -0.147955 0
M  V30 8115 C 759.922 -1.40946 -1.57154 0
M  V30 8116 O 759.27 -0.609663 -2.20217 0
M  V30 8117 C 759.48 -3.48875 -0.0932198 0
M  V30 8118 C 760.828 -4.23655 -0.283056 0
M  V30 8119 O 761.852 -3.55795 -0.169892 0
M  V30 8120 O 760.711 -5.44102 -0.511396 0
M  V30 8121 H 757.805 -0.819283 -0.11271 0
M  V30 8122 H 760.351 -1.6123 0.529446 0
M  V30 8123 H 759.123 -3.80791 0.900784 0
M  V30 8124 H 758.746 -3.89217 -0.812161 0
M  V30 8125 N 759.743 -0.201713 -1.56304 0
M  V30 8126 C 760.99 0.435307 -1.97766 0
M  V30 8127 C 761.318 1.61169 -1.0888 0
M  V30 8128 O 760.573 1.95272 -0.12934 0
M  V30 8129 C 760.872 0.931432 -3.45049 0
M  V30 8130 C 760.538 -0.132287 -4.50706 0
M  V30 8131 C 759.2 -0.424552 -4.79323 0
M  V30 8132 C 761.552 -0.852703 -5.14177 0
M  V30 8133 C 758.88 -1.4421 -5.68701 0
M  V30 8134 C 761.232 -1.85944 -6.04655 0
M  V30 8135 C 759.896 -2.15884 -6.31625 0
M  V30 8136 H 759.166 0.15929 -0.723676 0
M  V30 8137 H 761.813 -0.300069 -1.89134 0
M  V30 8138 H 760.118 1.7452 -3.50785 0
M  V30 8139 H 761.815 1.43383 -3.74489 0
M  V30 8140 H 758.405 0.105671 -4.2847 0
M  V30 8141 H 762.589 -0.640139 -4.92154 0
M  V30 8142 H 757.845 -1.6799 -5.87869 0
M  V30 8143 H 762.019 -2.42286 -6.52894 0
M  V30 8144 H 759.646 -2.94875 -7.0068 0
M  V30 8145 N 761.222 1.57436 0.0718424 0
M  V30 8146 C 762.152 2.06724 1.08571 0
M  V30 8147 C 763.133 0.960731 1.40371 0
M  V30 8148 O 764.318 1.23345 1.49999 0
M  V30 8149 C 761.448 2.51112 2.39916 0
M  V30 8150 C 760.402 3.65639 2.22469 0
M  V30 8151 C 759.728 3.96082 3.59198 0
M  V30 8152 C 761.028 4.95687 1.64596 0
M  V30 8153 H 762.722 2.91679 0.675569 0
M  V30 8154 H 760.268 1.40319 0.32352 0
M  V30 8155 H 762.221 2.84206 3.11135 0
M  V30 8156 H 760.945 1.63186 2.8291 0
M  V30 8157 H 759.604 3.32828 1.53691 0
M  V30 8158 H 759.252 3.05287 3.99761 0
M  V30 8159 H 758.952 4.73199 3.48362 0
M  V30 8160 H 760.476 4.31672 4.31847 0
M  V30 8161 H 761.89 5.27011 2.25681 0
M  V30 8162 H 760.287 5.77126 1.64457 0
M  V30 8163 H 761.357 4.8108 0.60744 0
M  V30 8164 N 762.7 -0.34323 1.53817 0
M  V30 8165 C 763.647 -1.42153 1.81827 0
M  V30 8166 C 764.617 -1.52251 0.663996 0
M  V30 8167 O 765.802 -1.67784 0.908461 0
M  V30 8168 C 762.942 -2.78799 2.03384 0
M  V30 8169 C 762.055 -2.7749 3.31094 0
M  V30 8170 C 761.19 -4.05856 3.42717 0
M  V30 8171 C 760.229 -3.98776 4.64375 0
M  V30 8172 N 759.366 -5.18833 4.73029 0
M  V30 8173 H 764.206 -1.17567 2.73829 0
M  V30 8174 H 761.743 -0.569506 1.35628 0
M  V30 8175 H 763.701 -3.58211 2.13872 0
M  V30 8176 H 762.331 -3.01736 1.14696 0
M  V30 8177 H 761.383 -1.90182 3.29446 0
M  V30 8178 H 762.695 -2.68137 4.206 0
M  V30 8179 H 761.849 -4.93691 3.52638 0
M  V30 8180 H 760.588 -4.1799 2.51267 0
M  V30 8181 H 759.593 -3.09325 4.5453 0
M  V30 8182 H 760.818 -3.88224 5.57189 0
M  V30 8183 H 758.764 -5.31511 3.84489 0
M  V30 8184 H 758.681 -5.11737 5.56472 0
M  V30 8185 H 759.949 -6.08439 4.87261 0
M  V30 8186 N 764.178 -1.45556 -0.604258 0
M  V30 8187 C 765.125 -1.54482 -1.71476 0
M  V30 8188 C 766.095 -0.390479 -1.61445 0
M  V30 8189 O 767.28 -0.604371 -1.80975 0
M  V30 8190 C 764.42 -1.52064 -3.09791 0
M  V30 8191 C 763.533 -2.78073 -3.30604 0
M  V30 8192 C 762.668 -2.67304 -4.59044 0
M  V30 8193 C 761.707 -3.88352 -4.73127 0
M  V30 8194 N 760.844 -3.76098 -5.9287 0
M  V30 8195 H 765.684 -2.49349 -1.63184 0
M  V30 8196 H 763.221 -1.23725 -0.795641 0
M  V30 8197 H 765.179 -1.48649 -3.89819 0
M  V30 8198 H 763.809 -0.607442 -3.17033 0
M  V30 8199 H 762.861 -2.91561 -2.44329 0
M  V30 8200 H 764.173 -3.67847 -3.36883 0
M  V30 8201 H 763.327 -2.61875 -5.47272 0
M  V30 8202 H 762.066 -1.75135 -4.55169 0
M  V30 8203 H 761.071 -3.94137 -3.83322 0
M  V30 8204 H 762.296 -4.81591 -4.78797 0
M  V30 8205 H 760.242 -2.867 -5.90033 0
M  V30 8206 H 760.159 -4.59509 -6.00323 0
M  V30 8207 H 761.427 -3.74607 -6.83586 0
M  V30 8208 N 765.656 0.84705 -1.32902 0
M  V30 8209 C 766.896 1.61554 -1.25218 0
M  V30 8210 C 767.26 1.91141 0.18143 0
M  V30 8211 O 768.461 2.6607 0.382106 0
M  V30 8212 C 766.732 2.89553 -2.09509 0
M  V30 8213 S 768.291 3.80283 -2.18931 0
M  V30 8214 H 765.109 0.554031 -0.445613 0
M  V30 8215 H 767.711 1.00251 -1.67839 0
M  V30 8216 H 766.415 2.65776 -3.12716 0
M  V30 8217 H 765.946 3.55868 -1.67694 0
M  V30 8218 H 767.961 4.77641 -1.34438 0
M  V30 8219 N 767.134 1.16236 1.06428 0
M  V30 8220 C 768.38 0.944431 1.79467 0
M  V30 8221 C 768.713 -0.526558 1.86925 0
M  V30 8222 O 767.988 -1.39061 1.35986 0
M  V30 8223 C 768.271 1.57092 3.24028 0
M  V30 8224 C 768.124 3.11315 3.24658 0
M  V30 8225 C 769.443 1.26447 4.21544 0
M  V30 8226 H 766.562 0.344521 0.651517 0
M  V30 8227 H 769.204 1.43545 1.24478 0
M  V30 8228 H 767.354 1.15337 3.70985 0
M  V30 8229 H 769.026 3.62042 2.85873 0
M  V30 8230 H 767.269 3.44716 2.6335 0
M  V30 8231 H 767.94 3.50269 4.26633 0
M  V30 8232 H 770.416 1.62581 3.83023 0
M  V30 8233 H 769.292 1.72885 5.20963 0
M  V30 8234 H 769.553 0.183068 4.41721 0
M  V30 8235 N 768.612 -1.24939 0.960631 0
M  V30 8236 C 769.852 -1.94565 0.626414 0
M  V30 8237 C 770.216 -1.73505 -0.822184 0
M  V30 8238 O 771.417 -2.37105 -1.26628 0
M  V30 8239 C 769.688 -3.43631 0.982462 0
M  V30 8240 S 771.247 -4.32138 0.761726 0
M  V30 8241 H 768.065 -0.672757 0.230043 0
M  V30 8242 H 770.667 -1.51464 1.23608 0
M  V30 8243 H 769.371 -3.56463 2.03377 0
M  V30 8244 H 768.902 -3.91719 0.363286 0
M  V30 8245 H 770.917 -4.94859 -0.364493 0
M  V30 8246 N 770.09 -0.729906 -1.39679 0
M  V30 8247 C 771.02 -0.101618 -2.33279 0
M  V30 8248 C 772.001 0.729854 -1.53646 0
M  V30 8249 O 773.186 0.67587 -1.82059 0
M  V30 8250 C 770.316 0.81024 -3.37716 0
M  V30 8251 C 769.27 0.0833126 -4.27919 0
M  V30 8252 C 768.596 1.11185 -5.23012 0
M  V30 8253 C 769.896 -1.07107 -5.112 0
M  V30 8254 H 771.59 -0.883452 -2.86069 0
M  V30 8255 H 769.136 -0.426283 -1.37546 0
M  V30 8256 H 771.089 1.25927 -4.02145 0
M  V30 8257 H 769.813 1.62413 -2.83354 0
M  V30 8258 H 768.472 -0.346043 -3.64963 0
M  V30 8259 H 768.12 1.91917 -4.64948 0
M  V30 8260 H 767.82 0.63026 -5.8421 0
M  V30 8261 H 769.344 1.56068 -5.90318 0
M  V30 8262 H 770.758 -0.700726 -5.69002 0
M  V30 8263 H 769.155 -1.48196 -5.81514 0
M  V30 8264 H 770.225 -1.89513 -4.46332 0
M  V30 8265 N 771.568 1.50203 -0.477153 0
M  V30 8266 C 772.845 1.95115 0.137609 0
M  V30 8267 C 773.225 1.41778 1.56404 0
M  V30 8268 O 772.573 0.621333 2.1989 0
M  V30 8269 C 772.783 3.4892 0.0747168 0
M  V30 8270 C 774.131 4.238 0.260585 0
M  V30 8271 O 775.155 3.5588 0.151021 0
M  V30 8272 O 774.014 5.44366 0.482534 0
M  V30 8273 H 771.108 0.81987 0.108364 0
M  V30 8274 H 773.654 1.60946 -0.537989 0
M  V30 8275 H 772.426 3.80308 -0.920966 0
M  V30 8276 H 772.049 3.89642 0.791509 0
M  V30 8277 N 773.046 0.209999 1.56195 0
M  V30 8278 C 774.323 -0.473214 1.89789 0
M  V30 8279 C 774.703 -1.78581 1.1257 0
M  V30 8280 O 774.051 -2.27325 0.231398 0
M  V30 8281 C 774.261 -0.677458 3.42362 0
M  V30 8282 C 775.609 -0.990114 4.12895 0
M  V30 8283 O 776.633 -0.764655 3.47896 0
M  V30 8284 O 775.492 -1.41737 5.278 0
M  V30 8285 H 772.586 -0.248622 0.788743 0
M  V30 8286 H 775.132 0.251324 1.67829 0
M  V30 8287 H 773.904 0.248878 3.90508 0
M  V30 8288 H 773.527 -1.45391 3.70064 0
M  V30 8289 N 774.524 -1.57472 -0.0634922 0
M  V30 8290 C 775.471 -2.04258 -1.07457 0
M  V30 8291 C 776.441 -0.924804 -1.37973 0
M  V30 8292 O 777.626 -1.19305 -1.48899 0
M  V30 8293 C 774.766 -2.49832 -2.38071 0
M  V30 8294 C 773.879 -3.75263 -2.14014 0
M  V30 8295 C 773.014 -4.09585 -3.38251 0
M  V30 8296 C 772.053 -5.28032 -3.09594 0
M  V30 8297 N 771.19 -5.57953 -4.26185 0
M  V30 8298 H 776.03 -2.90402 -0.668626 0
M  V30 8299 H 773.567 -1.43609 -0.318572 0
M  V30 8300 H 775.525 -2.7431 -3.14341 0
M  V30 8301 H 774.155 -1.66654 -2.76453 0
M  V30 8302 H 773.207 -3.58075 -1.28399 0
M  V30 8303 H 774.519 -4.61667 -1.88852 0
M  V30 8304 H 773.673 -4.35008 -4.2291 0
M  V30 8305 H 772.412 -3.21765 -3.66495 0
M  V30 8306 H 771.417 -5.02397 -2.23332 0
M  V30 8307 H 772.642 -6.17477 -2.82663 0
M  V30 8308 H 770.588 -4.73092 -4.54445 0
M  V30 8309 H 770.505 -6.38793 -4.04326 0
M  V30 8310 H 771.773 -5.87931 -5.11817 0
M  V30 8311 N 776.003 0.335068 -1.53997 0
M  V30 8312 C 776.913 1.43511 -1.85585 0
M  V30 8313 C 777.929 1.57162 -0.746726 0
M  V30 8314 O 779.105 1.72477 -1.03988 0
M  V30 8315 C 776.17 2.78386 -2.06646 0
M  V30 8316 C 775.231 2.74007 -3.30483 0
M  V30 8317 C 774.464 4.02449 -3.50529 0
M  V30 8318 O 774.687 5.00147 -2.74242 0
M  V30 8319 O 773.621 4.06405 -4.4398 0
M  V30 8320 H 777.447 1.19731 -2.79102 0
M  V30 8321 H 775.032 0.528033 -1.39758 0
M  V30 8322 H 776.914 3.58247 -2.21894 0
M  V30 8323 H 775.589 3.0208 -1.16317 0
M  V30 8324 H 774.496 1.92736 -3.2063 0
M  V30 8325 H 775.829 2.55267 -4.20832 0
M  V30 8326 N 777.481 1.45874 0.596531 0
M  V30 8327 C 778.897 1.30524 0.918459 0
M  V30 8328 C 779.097 0.266429 1.99731 0
M  V30 8329 O 778.153 -0.335809 2.50257 0
M  V30 8330 C 779.466 2.68747 1.3489 0
M  V30 8331 C 781.014 2.7673 1.46251 0
M  V30 8332 C 781.489 4.15504 1.92667 0
M  V30 8333 N 782.98 4.17853 1.99883 0
M  V30 8334 C 783.715 5.22109 2.37044 0
M  V30 8335 N 783.211 6.36704 2.73094 0
M  V30 8336 N 785.004 5.09471 2.37479 0
M  V30 8337 H 777.155 2.12081 -0.116368 0
M  V30 8338 H 779.418 0.947941 0.0106033 0
M  V30 8339 H 779.124 3.46006 0.630288 0
M  V30 8340 H 778.998 2.97942 2.31323 0
M  V30 8341 H 781.385 1.99768 2.17202 0
M  V30 8342 H 781.466 2.51236 0.481054 0
M  V30 8343 H 781.11 4.92956 1.223 0
M  V30 8344 H 781.04 4.38396 2.91747 0
M  V30 8345 H 783.531 3.35163 1.74568 0
M  V30 8346 H 783.844 7.12041 3.00362 0
M  V30 8347 H 782.189 6.40087 2.70764 0
M  V30 8348 H 785.38 4.18987 2.08728 0
M  V30 8349 H 785.553 5.90837 2.66112 0
M  V30 8350 N 778.959 -0.83999 1.33349 0
M  V30 8351 C 780.205 -1.59724 1.25936 0
M  V30 8352 C 780.56 -1.91616 -0.173563 0
M  V30 8353 O 779.853 -1.55791 -1.11534 0
M  V30 8354 C 780.047 -2.91571 2.06691 0
M  V30 8355 C 779.876 -2.72556 3.57691 0
M  V30 8356 C 778.646 -2.70174 4.27006 0
M  V30 8357 C 780.844 -2.45272 4.52047 0
M  V30 8358 N 778.826 -2.42525 5.63964 0
M  V30 8359 C 780.197 -2.27163 5.76885 0
M  V30 8360 C 782.252 -2.30859 4.41144 0
M  V30 8361 C 780.955 -1.96105 6.92052 0
M  V30 8362 C 782.981 -2.01194 5.56125 0
M  V30 8363 C 782.343 -1.83897 6.79972 0
M  V30 8364 H 778.442 -0.587568 0.516031 0
M  V30 8365 H 781.026 -0.986169 1.67877 0
M  V30 8366 H 779.197 -3.5063 1.67073 0
M  V30 8367 H 780.929 -3.56762 1.91057 0
M  V30 8368 H 777.684 -2.8364 3.7927 0
M  V30 8369 H 778.108 -2.31588 6.36157 0
M  V30 8370 H 782.75 -2.42946 3.46031 0
M  V30 8371 H 780.468 -1.82756 7.87163 0
M  V30 8372 H 784.054 -1.90799 5.49624 0
M  V30 8373 H 782.934 -1.61271 7.67438 0
M  V30 8374 N 780.437 -1.16799 -1.0581 0
M  V30 8375 C 781.662 -0.977402 -1.82925 0
M  V30 8376 C 782.087 0.469514 -1.82146 0
M  V30 8377 O 781.445 1.33576 -1.22585 0
M  V30 8378 C 781.493 -1.51543 -3.27211 0
M  V30 8379 O 780.597 -0.725021 -4.05977 0
M  V30 8380 H 779.938 -0.347474 -0.565825 0
M  V30 8381 H 782.468 -1.55151 -1.33376 0
M  V30 8382 H 782.478 -1.53502 -3.78023 0
M  V30 8383 H 781.153 -2.56872 -3.27093 0
M  V30 8384 H 779.73 -0.77634 -3.64729 0
M  V30 8385 N 781.915 1.24427 -0.967243 0
M  V30 8386 C 783.326 1.74349 -0.667785 0
M  V30 8387 C 783.677 1.78403 0.816509 0
M  V30 8388 O 782.802 1.41315 1.63887 0
M  V30 8389 C 783.397 3.16628 -1.20548 0
M  V30 8390 C 781.956 3.64059 -0.955934 0
M  V30 8391 C 781.103 2.42715 -1.34106 0
M  V30 8392 H 784.054 1.10136 -1.14262 0
M  V30 8393 H 784.075 3.76183 -0.571547 0
M  V30 8394 H 783.587 3.13646 -2.28578 0
M  V30 8395 H 781.688 3.72441 0.108858 0
M  V30 8396 H 781.801 4.51549 -1.60126 0
M  V30 8397 H 780.165 2.43114 -0.759452 0
M  V30 8398 H 780.948 2.42414 -2.43085 0
M  V30 8399 N 783.393 0.737304 1.3929 0
M  V30 8400 C 784.325 0.0592106 2.29124 0
M  V30 8401 C 785.338 -0.701026 1.46934 0
M  V30 8402 O 786.527 -0.544808 1.69983 0
M  V30 8403 C 783.627 -0.940358 3.25592 0
M  V30 8404 C 782.8 -0.241163 4.36735 0
M  V30 8405 C 781.859 -1.14916 5.13498 0
M  V30 8406 O 780.885 -0.625783 5.6575 0
M  V30 8407 N 782.087 -2.47869 5.2492 0
M  V30 8408 H 784.852 0.830647 2.87959 0
M  V30 8409 H 782.413 0.586718 1.50895 0
M  V30 8410 H 784.405 -1.55046 3.73822 0
M  V30 8411 H 782.975 -1.61299 2.67771 0
M  V30 8412 H 782.195 0.549441 3.90352 0
M  V30 8413 H 783.483 0.243299 5.08218 0
M  V30 8414 H 782.881 -2.92864 4.83991 0
M  V30 8415 H 781.438 -3.03969 5.76581 0
M  V30 8416 N 784.871 -1.49948 0.485112 0
M  V30 8417 C 785.803 -2.26691 -0.338222 0
M  V30 8418 C 786.816 -1.32584 -0.944742 0
M  V30 8419 O 788.005 -1.57989 -0.830772 0
M  V30 8420 C 785.105 -3.04405 -1.48966 0
M  V30 8421 C 784.278 -4.25971 -0.993371 0
M  V30 8422 C 783.337 -4.85861 -2.02052 0
M  V30 8423 O 782.363 -5.46382 -1.59547 0
M  V30 8424 N 783.565 -4.74101 -3.34975 0
M  V30 8425 H 786.33 -2.97989 0.319748 0
M  V30 8426 H 783.891 -1.58772 0.316714 0
M  V30 8427 H 785.883 -3.41348 -2.17403 0
M  V30 8428 H 784.453 -2.35815 -2.05207 0
M  V30 8429 H 783.673 -3.93971 -0.134424 0
M  V30 8430 H 784.961 -5.0476 -0.639934 0
M  V30 8431 H 784.359 -4.26002 -3.72208 0
M  V30 8432 H 782.916 -5.15274 -3.9917 0
M  V30 8433 N 786.349 -0.21828 -1.56081 0
M  V30 8434 C 787.279 0.687922 -2.23136 0
M  V30 8435 C 788.26 1.20357 -1.202 0
M  V30 8436 O 789.445 1.24817 -1.48776 0
M  V30 8437 C 786.575 1.89762 -2.90874 0
M  V30 8438 C 785.529 1.51595 -4.00254 0
M  V30 8439 C 784.855 2.80415 -4.55271 0
M  V30 8440 C 786.155 0.708404 -5.17474 0
M  V30 8441 H 787.849 0.128854 -2.99123 0
M  V30 8442 H 785.395 0.0605354 -1.43873 0
M  V30 8443 H 787.348 2.53699 -3.36474 0
M  V30 8444 H 786.072 2.4816 -2.1233 0
M  V30 8445 H 784.731 0.900058 -3.55379 0
M  V30 8446 H 784.379 3.36951 -3.73461 0
M  V30 8447 H 784.079 2.55613 -5.2909 0
M  V30 8448 H 785.603 3.453 -5.03587 0
M  V30 8449 H 787.017 1.2514 -5.59476 0
M  V30 8450 H 785.414 0.557593 -5.97504 0
M  V30 8451 H 786.484 -0.285679 -4.84058 0
M  V30 8452 N 787.827 1.57504 0.0551401 0
M  V30 8453 C 788.757 2.07864 1.06372 0
M  V30 8454 C 789.738 0.975565 1.39344 0
M  V30 8455 O 790.923 1.24929 1.48682 0
M  V30 8456 C 788.053 2.53643 2.3724 0
M  V30 8457 C 787.007 3.67978 2.18578 0
M  V30 8458 C 786.333 3.9987 3.54976 0
M  V30 8459 C 787.633 4.97405 1.59329 0
M  V30 8460 H 789.327 2.92379 0.644595 0
M  V30 8461 H 786.873 1.40654 0.308619 0
M  V30 8462 H 788.826 2.8749 3.08103 0
M  V30 8463 H 787.55 1.66177 2.81163 0
M  V30 8464 H 786.209 3.3444 1.50152 0
M  V30 8465 H 785.857 3.0951 3.965 0
M  V30 8466 H 785.557 4.76867 3.43324 0
M  V30 8467 H 787.081 4.36228 4.27244 0
M  V30 8468 H 788.495 5.29375 2.20078 0
M  V30 8469 H 786.892 5.78837 1.58327 0
M  V30 8470 H 787.962 4.81697 0.55638 0
M  V30 8471 N 789.305 -0.326896 1.54172 0
M  V30 8472 C 790.252 -1.40216 1.83325 0
M  V30 8473 C 791.222 -1.51538 0.680107 0
M  V30 8474 O 792.407 -1.66811 0.926206 0
M  V30 8475 C 789.547 -2.76626 2.0633 0
M  V30 8476 C 788.66 -2.73963 3.34019 0
M  V30 8477 C 787.795 -4.02198 3.47002 0
M  V30 8478 C 786.834 -3.93828 4.68578 0
M  V30 8479 N 785.971 -5.13787 4.78506 0
M  V30 8480 H 790.811 -1.14656 2.7506 0
M  V30 8481 H 788.348 -0.555089 1.36225 0
M  V30 8482 H 790.306 -3.55922 2.17659 0
M  V30 8483 H 788.936 -3.00503 1.1789 0
M  V30 8484 H 787.988 -1.86677 3.31445 0
M  V30 8485 H 789.3 -2.6366 4.2342 0
M  V30 8486 H 788.454 -4.89923 3.57855 0
M  V30 8487 H 787.193 -4.15302 2.55687 0
M  V30 8488 H 786.198 -3.04487 4.57786 0
M  V30 8489 H 787.423 -3.82292 5.61275 0
M  V30 8490 H 785.369 -5.27403 3.90105 0
M  V30 8491 H 785.286 -5.05807 5.61868 0
M  V30 8492 H 786.554 -6.03236 4.93686 0
M  V30 8493 N 790.784 -1.46188 -0.588786 0
M  V30 8494 C 791.734 -1.5271 -1.69303 0
M  V30 8495 C 792.718 -0.388578 -1.56137 0
M  V30 8496 O 793.91 -0.636616 -1.65155 0
M  V30 8497 C 791.039 -1.51457 -3.08084 0
M  V30 8498 C 790.125 -2.70581 -3.26568 0
M  V30 8499 N 790.516 -3.9555 -3.15236 0
M  V30 8500 C 788.814 -2.66676 -3.57491 0
M  V30 8501 C 789.515 -4.75157 -3.35561 0
M  V30 8502 N 788.491 -4.06927 -3.60432 0
M  V30 8503 H 792.293 -2.47136 -1.59063 0
M  V30 8504 H 789.807 -1.41743 -0.792632 0
M  V30 8505 H 791.804 -1.54216 -3.87328 0
M  V30 8506 H 790.464 -0.581036 -3.19459 0
M  V30 8507 H 791.475 -4.2689 -2.93232 0
M  V30 8508 H 788.152 -1.82317 -3.75588 0
M  V30 8509 H 789.542 -5.84126 -3.32034 0
M  V30 8510 N 792.262 0.832906 -1.33792 0
M  V30 8511 C 793.487 1.62568 -1.28788 0
M  V30 8512 C 793.912 1.87599 0.137246 0
M  V30 8513 O 793.27 1.44436 1.0958 0
M  V30 8514 C 793.318 2.9495 -2.07453 0
M  V30 8515 O 792.422 3.86546 -1.43722 0
M  V30 8516 H 791.763 0.494809 -0.442787 0
M  V30 8517 H 794.293 1.03578 -1.76445 0
M  V30 8518 H 794.303 3.44599 -2.1844 0
M  V30 8519 H 792.978 2.76055 -3.11073 0
M  V30 8520 H 791.555 3.45044 -1.41417 0
M  V30 8521 N 793.74 1.17359 1.05189 0
M  V30 8522 C 794.987 0.961987 1.78191 0
M  V30 8523 C 795.315 -0.509363 1.87712 0
M  V30 8524 O 794.57 -1.39425 1.37329 0
M  V30 8525 C 794.869 1.54821 3.22126 0
M  V30 8526 C 794.535 3.04378 3.32663 0
M  V30 8527 C 793.197 3.45201 3.35246 0
M  V30 8528 C 795.549 4.00387 3.33677 0
M  V30 8529 C 792.877 4.80629 3.36471 0
M  V30 8530 C 795.229 5.35715 3.36441 0
M  V30 8531 C 793.893 5.76002 3.37311 0
M  V30 8532 H 793.163 0.352016 0.652047 0
M  V30 8533 H 795.81 1.46249 1.23627 0
M  V30 8534 H 794.115 0.969432 3.79617 0
M  V30 8535 H 795.812 1.36004 3.77232 0
M  V30 8536 H 792.402 2.71836 3.31366 0
M  V30 8537 H 796.586 3.69906 3.30882 0
M  V30 8538 H 791.842 5.11155 3.35455 0
M  V30 8539 H 796.016 6.09886 3.36173 0
M  V30 8540 H 793.643 6.80919 3.38013 0
M  V30 8541 N 795.218 -1.23913 0.973828 0
M  V30 8542 C 796.467 -1.91455 0.63464 0
M  V30 8543 C 796.78 -1.76893 -0.834759 0
M  V30 8544 O 797.986 -2.3918 -1.28473 0
M  V30 8545 C 796.442 -3.43172 1.08447 0
M  V30 8546 C 796.05 -3.66409 2.57776 0
M  V30 8547 C 797.794 -4.1653 0.818721 0
M  V30 8548 C 795.701 -5.11728 2.9646 0
M  V30 8549 H 794.631 -0.716881 0.233661 0
M  V30 8550 H 797.282 -1.40457 1.18085 0
M  V30 8551 H 795.664 -3.93242 0.466524 0
M  V30 8552 H 796.838 -3.26913 3.24753 0
M  V30 8553 H 795.153 -3.06349 2.82027 0
M  V30 8554 H 797.75 -5.23603 1.08367 0
M  V30 8555 H 798.093 -4.15578 -0.245128 0
M  V30 8556 H 798.626 -3.72428 1.39793 0
M  V30 8557 H 795.365 -5.17806 4.01941 0
M  V30 8558 H 794.885 -5.52199 2.34172 0
M  V30 8559 H 796.564 -5.80009 2.86703 0
M  V30 8560 N 796.696 -0.74468 -1.38897 0
M  V30 8561 C 797.644 -0.100312 -2.32384 0
M  V30 8562 C 798.638 0.715191 -1.53562 0
M  V30 8563 O 799.844 0.615288 -1.69157 0
M  V30 8564 H 796.219 -0.0136403 -0.751876 0
M  V30 8565 H 798.19 -0.905007 -2.84345 0
M  V30 8566 C 796.939 0.785432 -3.38713 0
M  V30 8567 H 796.262 0.167308 -3.9945 0
M  V30 8568 H 797.702 1.20374 -4.06554 0
M  V30 8569 C 796.161 1.92408 -2.76552 0
M  V30 8570 O 796.691 3.01752 -2.65157 0
M  V30 8571 N 794.897 1.71642 -2.34494 0
M  V30 8572 H 794.444 0.827079 -2.43961 0
M  V30 8573 H 794.402 2.48 -1.93244 0
M  V30 8574 N 798.174 1.49689 -0.493057 0
M  V30 8575 C 799.585 1.8665 -0.0433032 0
M  V30 8576 C 799.936 1.40607 1.36836 0
M  V30 8577 O 799.061 0.780503 2.01834 0
M  V30 8578 C 799.656 3.38724 -0.0718069 0
M  V30 8579 C 798.215 3.75015 0.32257 0
M  V30 8580 C 797.362 2.7366 -0.4478 0
M  V30 8581 H 800.313 1.42119 -0.706246 0
M  V30 8582 H 800.334 3.73522 0.725347 0
M  V30 8583 H 799.846 3.72204 -1.09935 0
M  V30 8584 H 797.947 3.47142 1.35364 0
M  V30 8585 H 798.06 4.79099 0.00864259 0
M  V30 8586 H 796.424 2.54498 0.101354 0
M  V30 8587 H 797.207 3.09985 -1.47527 0
M  V30 8588 N 799.652 0.226554 1.55963 0
M  V30 8589 C 800.584 -0.713907 2.17798 0
M  V30 8590 C 801.597 -1.15387 1.14846 0
M  V30 8591 O 802.786 -1.08416 1.41804 0
M  V30 8592 C 799.886 -1.97945 2.75084 0
M  V30 8593 C 799.059 -1.69424 4.03255 0
M  V30 8594 C 798.118 -2.80734 4.45056 0
M  V30 8595 O 797.144 -2.4899 5.11852 0
M  V30 8596 N 798.346 -4.09797 4.11152 0
M  V30 8597 H 801.111 -0.18494 2.99129 0
M  V30 8598 H 798.672 0.0457346 1.61835 0
M  V30 8599 H 800.664 -2.71611 3.00016 0
M  V30 8600 H 799.234 -2.41876 1.98027 0
M  V30 8601 H 798.454 -0.793767 3.86126 0
M  V30 8602 H 799.742 -1.47806 4.86858 0
M  V30 8603 H 799.14 -4.38429 3.57486 0
M  V30 8604 H 797.697 -4.79992 4.40966 0
M  V30 8605 N 801.13 -1.57531 -0.0467866 0
M  V30 8606 C 802.541 -1.76945 -0.595603 0
M  V30 8607 C 802.892 -0.855354 -1.76573 0
M  V30 8608 O 802.017 -0.045668 -2.16352 0
M  V30 8609 C 802.612 -3.20881 -1.08725 0
M  V30 8610 C 801.171 -3.41553 -1.58172 0
M  V30 8611 C 800.318 -2.72533 -0.511968 0
M  V30 8612 H 803.269 -1.57682 0.179436 0
M  V30 8613 H 803.29 -3.26419 -1.95528 0
M  V30 8614 H 802.802 -3.87385 -0.235398 0
M  V30 8615 H 800.903 -2.80199 -2.456 0
M  V30 8616 H 801.016 -4.50104 -1.64143 0
M  V30 8617 H 799.38 -2.35797 -0.962899 0
M  V30 8618 H 800.163 -3.41709 0.330117 0
M  V30 8619 N 802.608 0.318715 -1.54344 0
M  V30 8620 C 803.555 1.39242 -1.84066 0
M  V30 8621 C 804.525 1.51175 -0.688134 0
M  V30 8622 O 805.71 1.66318 -0.935039 0
M  V30 8623 C 802.85 2.75528 -2.07794 0
M  V30 8624 C 801.963 2.72187 -3.35467 0
M  V30 8625 C 801.098 4.00352 -3.4913 0
M  V30 8626 C 800.137 3.91338 -4.7066 0
M  V30 8627 N 799.274 5.11242 -4.81224 0
M  V30 8628 H 804.114 1.13196 -2.75664 0
M  V30 8629 H 801.651 0.547857 -1.36517 0
M  V30 8630 H 803.609 3.54763 -2.19543 0
M  V30 8631 H 802.239 2.99873 -1.19482 0
M  V30 8632 H 801.291 1.84917 -3.3243 0
M  V30 8633 H 802.603 2.61411 -4.24812 0
M  V30 8634 H 801.757 4.88019 -3.60448 0
M  V30 8635 H 800.496 4.1394 -2.57886 0
M  V30 8636 H 799.501 3.02055 -4.59394 0
M  V30 8637 H 800.726 3.7931 -5.63294 0
M  V30 8638 H 798.672 5.25327 -3.92897 0
M  V30 8639 H 798.589 5.0282 -5.64543 0
M  V30 8640 H 799.857 6.0061 -4.96879 0
M  V30 8641 N 804.086 1.46499 0.581025 0
M  V30 8642 C 805.019 1.51706 1.70472 0
M  V30 8643 C 805.997 0.371036 1.5831 0
M  V30 8644 O 807.181 0.575426 1.79502 0
M  V30 8645 C 804.308 1.3972 3.08538 0
M  V30 8646 C 803.354 2.58525 3.39215 0
M  V30 8647 S 804.187 4.20872 3.311 0
M  V30 8648 C 805.343 4.11398 4.71702 0
M  V30 8649 H 805.576 2.46777 1.65796 0
M  V30 8650 H 803.109 1.34405 0.759908 0
M  V30 8651 H 805.067 1.33492 3.88188 0
M  V30 8652 H 803.728 0.460742 3.10702 0
M  V30 8653 H 802.921 2.46137 4.3981 0
M  V30 8654 H 802.523 2.61752 2.67136 0
M  V30 8655 H 804.815 3.78182 5.62125 0
M  V30 8656 H 805.758 5.11997 4.89147 0
M  V30 8657 H 806.166 3.42624 4.48631 0
M  V30 8658 N 805.565 -0.825799 1.34232 0
M  V30 8659 C 806.976 -1.39835 1.23706 0
M  V30 8660 C 807.327 -1.95709 -0.138649 0
M  V30 8661 O 806.452 -1.89833 -1.03886 0
M  V30 8662 C 807.047 -2.54203 2.23978 0
M  V30 8663 C 805.606 -3.07374 2.17251 0
M  V30 8664 C 804.753 -1.80232 2.10741 0
M  V30 8665 H 807.704 -0.630442 1.4564 0
M  V30 8666 H 807.725 -3.32214 1.8551 0
M  V30 8667 H 807.237 -2.13506 3.24094 0
M  V30 8668 H 805.338 -3.52583 1.20483 0
M  V30 8669 H 805.451 -3.6666 3.08379 0
M  V30 8670 H 803.815 -2.01012 1.56417 0
M  V30 8671 H 804.598 -1.41713 3.12686 0
M  V30 8672 N 807.043 -1.17915 -1.04565 0
M  V30 8673 C 807.973 -0.925033 -2.14395 0
M  V30 8674 C 808.954 0.135375 -1.6956 0
M  V30 8675 O 810.139 -0.0161774 -1.94193 0
M  V30 8676 C 807.269 -0.444469 -3.44444 0
M  V30 8677 C 806.223 -1.44478 -4.02877 0
M  V30 8678 C 805.549 -0.821933 -5.28345 0
M  V30 8679 C 806.849 -2.81995 -4.39632 0
M  V30 8680 H 808.543 -1.84354 -2.35911 0
M  V30 8681 H 806.089 -0.887806 -1.13375 0
M  V30 8682 H 808.042 -0.254078 -4.20633 0
M  V30 8683 H 806.766 0.509592 -3.226 0
M  V30 8684 H 805.425 -1.62203 -3.28764 0
M  V30 8685 H 805.073 0.139161 -5.02807 0
M  V30 8686 H 804.773 -1.48976 -5.68401 0
M  V30 8687 H 806.297 -0.641959 -6.07216 0
M  V30 8688 H 807.711 -2.67952 -5.06828 0
M  V30 8689 H 806.108 -3.45414 -4.90723 0
M  V30 8690 H 807.178 -3.35927 -3.49687 0
M  V30 8691 N 808.521 1.23394 -0.980386 0
M  V30 8692 C 809.767 1.92094 -0.650223 0
M  V30 8693 C 810.1 1.76309 0.814173 0
M  V30 8694 O 809.375 1.12406 1.5873 0
M  V30 8695 C 809.658 3.44713 -1.04139 0
M  V30 8696 C 809.511 3.69606 -2.56342 0
M  V30 8697 C 810.83 4.36191 -0.585296 0
M  V30 8698 H 807.949 0.697618 -0.237695 0
M  V30 8699 H 810.591 1.45517 -1.22167 0
M  V30 8700 H 808.741 3.84513 -0.55515 0
M  V30 8701 H 810.413 3.39288 -3.1254 0
M  V30 8702 H 808.656 3.14318 -2.98976 0
M  V30 8703 H 809.327 4.76441 -2.78762 0
M  V30 8704 H 811.803 4.03836 -1.00276 0
M  V30 8705 H 810.679 5.41679 -0.887428 0
M  V30 8706 H 810.94 4.39097 0.51438 0
M  V30 8707 N 809.999 0.752036 1.385 0
M  V30 8708 C 810.909 0.125318 2.34265 0
M  V30 8709 C 811.925 -0.702437 1.59191 0
M  V30 8710 O 813.101 -0.626951 1.91393 0
M  V30 8711 C 810.166 -0.758486 3.38301 0
M  V30 8712 C 809.227 0.0834636 4.29219 0
M  V30 8713 C 808.46 -0.758252 5.28286 0
M  V30 8714 O 808.683 -1.99632 5.34325 0
M  V30 8715 O 807.617 -0.177878 6.01637 0
M  V30 8716 H 811.443 0.91617 2.89551 0
M  V30 8717 H 809.028 0.512911 1.4032 0
M  V30 8718 H 810.91 -1.26365 4.02007 0
M  V30 8719 H 809.585 -1.52786 2.85374 0
M  V30 8720 H 808.492 0.634545 3.68679 0
M  V30 8721 H 809.825 0.815455 4.85398 0
M  V30 8722 N 811.477 -1.49425 0.500989 0
M  V30 8723 C 812.409 -2.27037 -0.314159 0
M  V30 8724 C 813.422 -1.33578 -0.930626 0
M  V30 8725 O 814.611 -1.58861 -0.813968 0
M  V30 8726 C 811.711 -3.05968 -1.45729 0
M  V30 8727 C 810.884 -4.27 -0.948135 0
M  V30 8728 C 809.943 -4.87977 -1.96888 0
M  V30 8729 O 808.969 -5.48044 -1.53743 0
M  V30 8730 N 810.171 -4.77627 -3.29928 0
M  V30 8731 H 812.936 -2.97634 0.351336 0
M  V30 8732 H 810.497 -1.58427 0.333536 0
M  V30 8733 H 812.489 -3.43634 -2.1377 0
M  V30 8734 H 811.059 -2.37978 -2.02695 0
M  V30 8735 H 810.279 -3.94091 -0.0926311 0
M  V30 8736 H 811.567 -5.0541 -0.586362 0
M  V30 8737 H 810.965 -4.29926 -3.67669 0
M  V30 8738 H 809.522 -5.19478 -3.93682 0
M  V30 8739 N 812.955 -0.234822 -1.55841 0
M  V30 8740 C 814.18 0.400741 -2.03492 0
M  V30 8741 C 814.605 1.51618 -1.11327 0
M  V30 8742 O 813.963 1.81002 -0.103922 0
M  V30 8743 C 814.011 0.897184 -3.49261 0
M  V30 8744 O 813.115 2.00764 -3.60233 0
M  V30 8745 H 812.456 0.0890023 -0.658008 0
M  V30 8746 H 814.986 -0.357345 -2.01455 0
M  V30 8747 H 814.996 1.20356 -3.89844 0
M  V30 8748 H 813.671 0.0808639 -4.15821 0
M  V30 8749 H 812.248 1.70689 -3.31541 0
M  V30 8750 N 814.433 1.57553 0.0384317 0
M  V30 8751 C 815.844 1.77258 0.586211 0
M  V30 8752 C 816.195 0.864706 1.76117 0
M  V30 8753 O 815.32 0.057141 2.16325 0
M  V30 8754 C 815.915 3.21453 1.07021 0
M  V30 8755 C 814.474 3.42387 1.56358 0
M  V30 8756 C 813.621 2.72801 0.497508 0
M  V30 8757 H 816.572 1.57585 -0.187796 0
M  V30 8758 H 816.593 3.27451 1.93794 0
M  V30 8759 H 816.105 3.87505 0.214851 0
M  V30 8760 H 814.206 2.81497 2.44111 0
M  V30 8761 H 814.319 4.50968 1.61754 0
M  V30 8762 H 812.683 2.36305 0.95038 0
M  V30 8763 H 813.466 3.41529 -0.348234 0
M  V30 8764 N 815.911 -0.310526 1.54511 0
M  V30 8765 C 816.821 -1.4054 1.87844 0
M  V30 8766 C 817.837 -1.55954 0.771635 0
M  V30 8767 O 819.013 -1.70801 1.06719 0
M  V30 8768 C 816.078 -2.75063 2.11048 0
M  V30 8769 C 815.139 -2.68715 3.348 0
M  V30 8770 C 814.372 -3.96821 3.56887 0
M  V30 8771 O 814.595 -4.95721 2.82165 0
M  V30 8772 O 813.529 -3.99291 4.50389 0
M  V30 8773 H 817.355 -1.15275 2.80972 0
M  V30 8774 H 814.94 -0.505732 1.4058 0
M  V30 8775 H 816.822 -3.54671 2.27566 0
M  V30 8776 H 815.497 -3.00191 1.21108 0
M  V30 8777 H 814.404 -1.87611 3.23655 0
M  V30 8778 H 815.737 -2.4854 4.2484 0
M  V30 8779 N 817.389 -1.46805 -0.573248 0
M  V30 8780 C 818.666 -1.43082 -1.33368 0
M  V30 8781 C 819.046 -0.119252 -2.10763 0
M  V30 8782 O 818.394 0.899239 -2.10062 0
M  V30 8783 C 818.604 -2.66643 -2.25172 0
M  V30 8784 C 819.952 -3.13188 -2.86702 0
M  V30 8785 O 820.976 -2.67258 -2.35482 0
M  V30 8786 O 819.835 -3.92994 -3.79761 0
M  V30 8787 H 816.929 -0.569451 -0.599712 0
M  V30 8788 H 819.475 -1.58984 -0.59348 0
M  V30 8789 H 818.247 -3.53649 -1.67475 0
M  V30 8790 H 817.87 -2.53247 -3.06516 0
M  V30 8791 N 818.867 0.818669 -1.34668 0
M  V30 8792 C 820.092 1.61193 -1.30505 0
M  V30 8793 C 820.517 1.87734 0.117341 0
M  V30 8794 O 819.875 1.45591 1.08042 0
M  V30 8795 C 819.923 2.92733 -2.1057 0
M  V30 8796 O 819.027 3.85 -1.47813 0
M  V30 8797 H 818.368 0.490085 -0.44801 0
M  V30 8798 H 820.898 1.01701 -1.77534 0
M  V30 8799 H 820.908 3.42262 -2.22082 0
M  V30 8800 H 819.583 2.7274 -3.13984 0
M  V30 8801 H 818.16 3.43525 -1.45069 0
M  V30 8802 N 820.346 1.18468 1.03938 0
M  V30 8803 C 821.256 0.927889 2.1547 0
M  V30 8804 C 822.272 -0.108447 1.73662 0
M  V30 8805 O 823.448 0.0737636 2.01265 0
M  V30 8806 C 820.513 0.458494 3.43655 0
M  V30 8807 C 819.574 1.56295 3.99838 0
M  V30 8808 C 818.807 1.11586 5.21904 0
M  V30 8809 O 819.03 -0.0249057 5.70395 0
M  V30 8810 O 817.964 1.91412 5.70653 0
M  V30 8811 H 821.79 1.86116 2.39989 0
M  V30 8812 H 819.375 0.966607 1.13917 0
M  V30 8813 H 821.257 0.204861 4.20902 0
M  V30 8814 H 819.932 -0.446464 3.20606 0
M  V30 8815 H 818.839 1.87061 3.23974 0
M  V30 8816 H 820.172 2.44408 4.2723 0
M  V30 8817 N 821.824 -1.22873 0.986916 0
M  V30 8818 C 823.072 -1.91084 0.658121 0
M  V30 8819 C 823.393 -1.77304 -0.811675 0
M  V30 8820 O 822.663 -1.15649 -1.58121 0
M  V30 8821 H 821.243 -0.707251 0.240427 0
M  V30 8822 H 823.905 -1.49357 1.25213 0
M  V30 8823 H 823.001 -2.98373 0.915428 0
M  V30 8824 N 823.302 -0.75937 -1.38099 0
M  V30 8825 C 824.234 -0.0956547 -2.29 0
M  V30 8826 C 825.247 0.677561 -1.4803 0
M  V30 8827 O 826.436 0.517696 -1.70828 0
M  V30 8828 C 823.536 0.88844 -3.27047 0
M  V30 8829 C 822.709 0.171652 -4.37063 0
M  V30 8830 C 821.768 1.06733 -5.15262 0
M  V30 8831 O 820.794 0.535698 -5.66674 0
M  V30 8832 N 821.996 2.39486 -5.28797 0
M  V30 8833 H 824.761 -0.876354 -2.86601 0
M  V30 8834 H 822.322 -0.61065 -1.49942 0
M  V30 8835 H 824.314 1.49079 -3.76241 0
M  V30 8836 H 822.884 1.57018 -2.70304 0
M  V30 8837 H 822.104 -0.611473 -3.89429 0
M  V30 8838 H 823.392 -0.324121 -5.07767 0
M  V30 8839 H 822.79 2.85127 -4.88589 0
M  V30 8840 H 821.347 2.94758 -5.81344 0
M  V30 8841 N 824.78 1.49157 -0.508906 0
M  V30 8842 C 826.057 1.95363 0.0961913 0
M  V30 8843 C 826.437 1.45064 1.53362 0
M  V30 8844 O 825.785 0.667835 2.18523 0
M  V30 8845 C 825.995 3.49 0.000688881 0
M  V30 8846 C 827.343 4.24257 0.170632 0
M  V30 8847 O 828.367 3.5612 0.0754994 0
M  V30 8848 O 827.226 5.45267 0.366957 0
M  V30 8849 H 824.32 0.821984 0.0909489 0
M  V30 8850 H 826.866 1.59769 -0.572007 0
M  V30 8851 H 825.638 3.78269 -1.00143 0
M  V30 8852 H 825.261 3.91233 0.708682 0
M  V30 8853 N 826.258 0.243083 1.55714 0
M  V30 8854 C 827.488 -0.38641 2.02954 0
M  V30 8855 C 827.896 -1.52358 1.12177 0
M  V30 8856 O 827.239 -1.83255 0.127853 0
M  V30 8857 C 827.301 -0.959388 3.46462 0
M  V30 8858 C 826.965 0.0450546 4.56978 0
M  V30 8859 C 827.962 0.853224 5.12851 0
M  V30 8860 C 825.647 0.170041 5.02012 0
M  V30 8861 C 827.641 1.77288 6.12248 0
M  V30 8862 C 825.328 1.0932 6.01242 0
M  V30 8863 C 826.326 1.89315 6.56238 0
M  V30 8864 O 826.014 2.80075 7.53534 0
M  V30 8865 H 825.746 -0.0964333 0.669086 0
M  V30 8866 H 828.3 0.363399 2.0216 0
M  V30 8867 H 826.53 -1.75869 3.44394 0
M  V30 8868 H 828.219 -1.49856 3.77224 0
M  V30 8869 H 828.985 0.767229 4.78893 0
M  V30 8870 H 824.864 -0.442528 4.58871 0
M  V30 8871 H 828.408 2.39768 6.55101 0
M  V30 8872 H 824.305 1.18013 6.3462 0
M  V30 8873 H 825.073 2.74393 7.71136 0
M  V30 8874 N 827.736 -1.57571 -0.0300757 0
M  V30 8875 C 828.982 -1.89506 -0.722159 0
M  V30 8876 C 829.315 -0.840699 -1.7506 0
M  V30 8877 O 828.59 0.144358 -1.93964 0
M  V30 8878 C 828.873 -3.32081 -1.39262 0
M  V30 8879 C 828.726 -4.48211 -0.377768 0
M  V30 8880 C 830.045 -3.73557 -2.32687 0
M  V30 8881 H 827.164 -0.689213 -0.261064 0
M  V30 8882 H 829.806 -1.89994 0.0150388 0
M  V30 8883 H 827.956 -3.31796 -2.02098 0
M  V30 8884 H 829.628 -4.6063 0.248591 0
M  V30 8885 H 827.871 -4.3274 0.303045 0
M  V30 8886 H 828.542 -5.44854 -0.885347 0
M  V30 8887 H 831.018 -3.75202 -1.79896 0
M  V30 8888 H 829.894 -4.74125 -2.7658 0
M  V30 8889 H 830.155 -3.05759 -3.19317 0
M  V30 8890 N 829.214 0.302327 -1.54673 0
M  V30 8891 C 830.124 1.39542 -1.88587 0
M  V30 8892 C 831.14 1.55543 -0.779895 0
M  V30 8893 O 832.316 1.70233 -1.07623 0
M  V30 8894 C 829.381 2.7394 -2.12504 0
M  V30 8895 C 828.442 2.66935 -3.3622 0
M  V30 8896 C 827.675 3.94923 -3.58987 0
M  V30 8897 O 827.898 4.94218 -2.84789 0
M  V30 8898 O 826.832 3.96896 -4.52501 0
M  V30 8899 H 830.658 1.13784 -2.81579 0
M  V30 8900 H 828.243 0.49827 -1.40846 0
M  V30 8901 H 830.125 3.5346 -2.29443 0
M  V30 8902 H 828.8 2.99544 -1.22698 0
M  V30 8903 H 827.707 1.85892 -3.24646 0
M  V30 8904 H 829.04 2.46283 -4.26152 0
M  V30 8905 N 830.692 1.47107 0.565454 0
M  V30 8906 C 831.92 1.56909 1.3486 0
M  V30 8907 C 832.335 0.216312 1.87557 0
M  V30 8908 O 831.692 -0.789168 1.64555 0
M  V30 8909 C 831.743 2.58776 2.52423 0
M  V30 8910 O 831.464 3.888 2.01906 0
M  V30 8911 C 832.965 2.78683 3.44747 0
M  V30 8912 H 830.185 0.530096 0.411387 0
M  V30 8913 H 832.729 1.92658 0.685782 0
M  V30 8914 H 830.884 2.25983 3.1466 0
M  V30 8915 H 831.298 4.44393 2.78595 0
M  V30 8916 H 832.772 3.53842 4.23674 0
M  V30 8917 H 833.249 1.86208 3.97773 0
M  V30 8918 H 833.855 3.12641 2.88333 0
M  V30 8919 N 832.17 -0.811516 1.35101 0
M  V30 8920 C 833.416 -1.57068 1.28287 0
M  V30 8921 C 833.749 -1.93667 -0.143808 0
M  V30 8922 O 833.024 -1.60953 -1.09199 0
M  V30 8923 C 833.307 -2.86259 2.18466 0
M  V30 8924 C 833.16 -2.56168 3.69727 0
M  V30 8925 C 834.479 -3.87924 2.07852 0
M  V30 8926 H 831.598 -0.569869 0.467353 0
M  V30 8927 H 834.24 -0.934023 1.65457 0
M  V30 8928 H 832.39 -3.4059 1.86898 0
M  V30 8929 H 834.062 -2.08059 4.11715 0
M  V30 8930 H 832.305 -1.89436 3.90252 0
M  V30 8931 H 832.976 -3.48344 4.28206 0
M  V30 8932 H 835.452 -3.4298 2.35593 0
M  V30 8933 H 834.328 -4.76106 2.73157 0
M  V30 8934 H 834.589 -4.2923 1.05896 0
M  V30 8935 N 833.648 -1.19017 -1.03309 0
M  V30 8936 C 834.897 -0.984542 -1.76039 0
M  V30 8937 C 835.21 0.485937 -1.89468 0
M  V30 8938 O 836.416 0.810278 -2.59127 0
M  V30 8939 C 834.872 -1.71261 -3.1654 0
M  V30 8940 C 834.48 -3.22291 -3.11179 0
M  V30 8941 C 836.224 -1.59007 -3.93595 0
M  V30 8942 C 834.131 -3.87704 -4.46587 0
M  V30 8943 H 833.061 -0.364749 -0.659905 0
M  V30 8944 H 835.712 -1.4247 -1.15649 0
M  V30 8945 H 834.094 -1.20025 -3.77373 0
M  V30 8946 H 835.268 -3.80611 -2.59753 0
M  V30 8947 H 833.583 -3.34772 -2.47622 0
M  V30 8948 H 836.18 -2.05232 -4.93745 0
M  V30 8949 H 836.523 -0.543534 -4.12736 0
M  V30 8950 H 837.056 -2.07564 -3.39355 0
M  V30 8951 H 833.795 -4.92437 -4.3265 0
M  V30 8952 H 833.315 -3.34172 -4.98085 0
M  V30 8953 H 834.994 -3.91008 -5.15482 0
M  V30 8954 N 835.127 1.22348 -0.993418 0
M  V30 8955 C 836.538 1.72893 -0.704616 0
M  V30 8956 C 836.889 1.80095 0.778483 0
M  V30 8957 O 836.014 1.4476 1.60853 0
M  V30 8958 C 836.609 3.14 -1.27237 0
M  V30 8959 C 835.168 3.61949 -1.03294 0
M  V30 8960 C 834.315 2.39816 -1.39225 0
M  V30 8961 H 837.266 1.07688 -1.16572 0
M  V30 8962 H 837.287 3.74886 -0.651212 0
M  V30 8963 H 836.799 3.08727 -2.3518 0
M  V30 8964 H 834.9 3.72588 0.0298329 0
M  V30 8965 H 835.013 4.48051 -1.69668 0
M  V30 8966 H 833.377 2.41448 -0.810849 0
M  V30 8967 H 834.16 2.37203 -2.48172 0
M  V30 8968 N 836.605 0.766683 1.37694 0
M  V30 8969 C 837.83 0.338715 2.04615 0
M  V30 8970 C 838.255 -1.02918 1.57447 0
M  V30 8971 O 837.613 -1.65849 0.732386 0
M  V30 8972 C 837.661 0.385284 3.58536 0
M  V30 8973 O 836.765 -0.616081 4.07772 0
M  V30 8974 H 836.106 0.147527 0.647404 0
M  V30 8975 H 838.636 1.04146 1.7611 0
M  V30 8976 H 838.646 0.240782 4.07289 0
M  V30 8977 H 837.321 1.38325 3.92223 0
M  V30 8978 H 835.898 -0.435115 3.70353 0
M  V30 8979 N 838.083 -1.48885 0.516809 0
M  V30 8980 C 839.031 -2.31066 -0.266656 0
M  V30 8981 C 840.025 -1.40393 -0.94795 0
M  V30 8982 O 841.231 -1.57366 -0.873836 0
M  V30 8983 H 837.606 -0.744654 -0.104858 0
M  V30 8984 H 839.577 -2.95045 0.446236 0
M  V30 8985 C 838.326 -3.22131 -1.3087 0
M  V30 8986 H 837.649 -3.91839 -0.793865 0
M  V30 8987 H 839.089 -3.82544 -1.82856 0
M  V30 8988 C 837.548 -2.42825 -2.33533 0
M  V30 8989 O 838.078 -2.14364 -3.39722 0
M  V30 8990 N 836.284 -2.04559 -2.06407 0
M  V30 8991 H 835.831 -2.27905 -1.20071 0
M  V30 8992 H 835.789 -1.51807 -2.75322 0
M  V30 8993 N 839.561 -0.251338 -1.55583 0
M  V30 8994 C 840.977 0.103409 -1.59265 0
M  V30 8995 C 841.177 1.56559 -1.26852 0
M  V30 8996 O 840.233 2.31071 -1.01796 0
M  V30 8997 C 841.546 -0.249781 -2.99661 0
M  V30 8998 C 843.094 -0.194442 -3.12395 0
M  V30 8999 C 843.569 -0.521728 -4.55019 0
M  V30 9000 N 845.06 -0.472393 -4.60785 0
M  V30 9001 C 845.795 -0.698737 -5.69127 0
M  V30 9002 N 845.291 -0.988443 -6.85713 0
M  V30 9003 N 847.084 -0.629143 -5.58568 0
M  V30 9004 H 839.235 -1.20484 -1.74921 0
M  V30 9005 H 841.498 -0.485092 -0.814488 0
M  V30 9006 H 841.204 -1.26577 -3.28133 0
M  V30 9007 H 841.078 0.420973 -3.74844 0
M  V30 9008 H 843.465 0.812229 -2.83702 0
M  V30 9009 H 843.546 -0.899111 -2.39478 0
M  V30 9010 H 843.19 -1.52597 -4.84434 0
M  V30 9011 H 843.12 0.204468 -5.26203 0
M  V30 9012 H 845.611 -0.257386 -3.77022 0
M  V30 9013 H 845.924 -1.14846 -7.64219 0
M  V30 9014 H 844.269 -1.02596 -6.87386 0
M  V30 9015 H 847.46 -0.402826 -4.66364 0
M  V30 9016 H 847.633 -0.808935 -6.42931 0
M  V30 9017 N 841.039 1.57585 0.0217189 0
M  V30 9018 C 841.969 2.10073 1.01939 0
M  V30 9019 C 842.95 1.0049 1.37243 0
M  V30 9020 O 844.135 1.28055 1.45999 0
M  V30 9021 C 841.265 2.58618 2.31806 0
M  V30 9022 C 840.219 3.72531 2.10724 0
M  V30 9023 C 839.545 4.07309 3.46415 0
M  V30 9024 C 840.845 5.00672 1.48743 0
M  V30 9025 H 842.539 2.9368 0.582432 0
M  V30 9026 H 840.085 1.41277 0.278715 0
M  V30 9027 H 842.038 2.9396 3.01936 0
M  V30 9028 H 840.762 1.72104 2.77575 0
M  V30 9029 H 839.421 3.37549 1.43025 0
M  V30 9030 H 839.069 3.17851 3.89846 0
M  V30 9031 H 838.769 4.84042 3.33132 0
M  V30 9032 H 840.293 4.45192 4.17895 0
M  V30 9033 H 841.707 5.33925 2.088 0
M  V30 9034 H 840.104 5.82065 1.46013 0
M  V30 9035 H 841.174 4.82769 0.45408 0
M  V30 9036 N 842.517 -0.29412 1.54831 0
M  V30 9037 C 843.928 -0.866651 1.65366 0
M  V30 9038 C 844.279 -1.87834 0.56681 0
M  V30 9039 O 843.404 -2.14374 -0.295389 0
M  V30 9040 C 843.999 -1.57869 2.99771 0
M  V30 9041 C 842.558 -2.09954 3.12404 0
M  V30 9042 C 841.705 -0.934492 2.6108 0
M  V30 9043 H 844.656 -0.0709551 1.58541 0
M  V30 9044 H 844.677 -2.44462 2.91579 0
M  V30 9045 H 844.189 -0.84212 3.78853 0
M  V30 9046 H 842.29 -2.86637 2.38055 0
M  V30 9047 H 842.403 -2.32934 4.18663 0
M  V30 9048 H 840.767 -1.32199 2.17705 0
M  V30 9049 H 841.55 -0.211768 3.42646 0
M  V30 9050 N 843.995 -1.47404 -0.557645 0
M  V30 9051 C 845.22 -1.57868 -1.34508 0
M  V30 9052 C 845.645 -0.229151 -1.86699 0
M  V30 9053 O 845.003 0.794908 -1.62944 0
M  V30 9054 C 845.051 -2.60712 -2.49122 0
M  V30 9055 O 844.155 -2.15952 -3.51338 0
M  V30 9056 H 843.496 -0.530335 -0.399551 0
M  V30 9057 H 846.026 -1.93181 -0.673954 0
M  V30 9058 H 846.036 -2.81118 -2.95697 0
M  V30 9059 H 844.711 -3.58701 -2.10491 0
M  V30 9060 H 843.288 -2.05644 -3.11071 0
M  V30 9061 N 845.473 0.80434 -1.35529 0
M  V30 9062 C 846.436 1.89788 -1.28503 0
M  V30 9063 C 847.436 1.59601 -0.195983 0
M  V30 9064 O 848.626 1.68292 -0.449827 0
M  V30 9065 C 845.758 3.26255 -0.98847 0
M  V30 9066 H 846.951 1.97436 -2.25741 0
M  V30 9067 H 844.504 1.00046 -1.20086 0
M  V30 9068 H 845.239 3.24294 -0.0200541 0
M  V30 9069 H 845.024 3.49551 -1.77641 0
M  V30 9070 H 846.514 4.06298 -0.964975 0
M  V30 9071 N 846.951 1.19563 1.02676 0
M  V30 9072 C 847.914 0.937182 2.09164 0
M  V30 9073 C 848.914 -0.0831927 1.60585 0
M  V30 9074 O 850.104 0.15178 1.73538 0
M  V30 9075 C 847.236 0.408912 3.38439 0
M  V30 9076 H 848.429 1.88164 2.33526 0
M  V30 9077 H 845.982 1.00959 1.19319 0
M  V30 9078 H 846.717 -0.541497 3.19747 0
M  V30 9079 H 846.502 1.14464 3.7502 0
M  V30 9080 H 847.992 0.247242 4.16867 0
M  V30 9081 N 848.429 -1.21819 0.999893 0
M  V30 9082 C 849.676 -1.90752 0.679694 0
M  V30 9083 C 850.004 -1.77777 -0.789014 0
M  V30 9084 O 849.259 -1.14518 -1.58695 0
M  V30 9085 C 849.558 -3.4193 1.04012 0
M  V30 9086 C 849.224 -3.75098 2.50225 0
M  V30 9087 C 847.886 -3.83861 2.90179 0
M  V30 9088 C 850.238 -3.90706 3.44961 0
M  V30 9089 C 847.566 -4.05676 4.23844 0
M  V30 9090 C 849.918 -4.14027 4.78294 0
M  V30 9091 C 848.582 -4.21016 5.17979 0
M  V30 9092 H 847.852 -0.698012 0.248718 0
M  V30 9093 H 850.499 -1.44437 1.25738 0
M  V30 9094 H 848.804 -3.89947 0.380606 0
M  V30 9095 H 850.501 -3.93532 0.770301 0
M  V30 9096 H 847.091 -3.68865 2.18258 0
M  V30 9097 H 851.275 -3.83307 3.15261 0
M  V30 9098 H 846.531 -4.09316 4.5417 0
M  V30 9099 H 850.705 -4.25046 5.51642 0
M  V30 9100 H 848.332 -4.37672 6.21568 0
M  V30 9101 N 849.908 -0.773975 -1.37286 0
M  V30 9102 C 851.155 -0.339306 -1.99637 0
M  V30 9103 C 851.483 1.08478 -1.61439 0
M  V30 9104 O 850.738 1.7612 -0.853252 0
M  V30 9105 C 851.037 -0.432651 -3.54772 0
M  V30 9106 C 850.703 -1.81531 -4.12744 0
M  V30 9107 C 849.365 -2.19366 -4.2829 0
M  V30 9108 C 851.717 -2.72137 -4.44512 0
M  V30 9109 C 849.045 -3.47239 -4.72908 0
M  V30 9110 C 851.397 -3.99421 -4.90556 0
M  V30 9111 C 850.061 -4.37298 -5.04308 0
M  V30 9112 H 849.331 -0.124161 -0.730524 0
M  V30 9113 H 851.978 -0.988432 -1.64019 0
M  V30 9114 H 850.283 0.30001 -3.9065 0
M  V30 9115 H 851.98 -0.0776 -4.00925 0
M  V30 9116 H 848.57 -1.51126 -4.01072 0
M  V30 9117 H 852.754 -2.44165 -4.32084 0
M  V30 9118 H 848.01 -3.76477 -4.81742 0
M  V30 9119 H 852.184 -4.69756 -5.14104 0
M  V30 9120 H 849.811 -5.36442 -5.38641 0
M  V30 9121 N 851.386 1.48609 -0.524698 0
M  V30 9122 C 852.611 2.07398 0.00952139 0
M  V30 9123 C 853.036 1.37939 1.27884 0
M  V30 9124 O 852.394 0.443633 1.75788 0
M  V30 9125 C 852.442 3.59916 0.221956 0
M  V30 9126 O 851.546 3.91647 1.29175 0
M  V30 9127 H 850.887 0.662981 -0.0367729 0
M  V30 9128 H 853.417 1.91092 -0.7311 0
M  V30 9129 H 853.427 4.05552 0.446236 0
M  V30 9130 H 852.102 4.09876 -0.705306 0
M  V30 9131 H 850.679 3.57796 1.05055 0
M  V30 9132 N 852.864 0.259585 1.55447 0
M  V30 9133 C 853.774 -0.645026 2.25558 0
M  V30 9134 C 854.79 -1.18291 1.27606 0
M  V30 9135 O 855.966 -1.21649 1.6051 0
M  V30 9136 C 853.031 -1.81964 2.9511 0
M  V30 9137 C 852.092 -1.31997 4.08504 0
M  V30 9138 C 851.325 -2.43861 4.74729 0
M  V30 9139 O 851.548 -3.62876 4.40088 0
M  V30 9140 O 850.482 -2.12898 5.6299 0
M  V30 9141 H 854.308 -0.0775399 3.03601 0
M  V30 9142 H 851.893 0.0275859 1.49375 0
M  V30 9143 H 853.775 -2.50485 3.38873 0
M  V30 9144 H 852.45 -2.37451 2.19997 0
M  V30 9145 H 851.357 -0.601676 3.6923 0
M  V30 9146 H 852.69 -0.811045 4.85472 0
M  V30 9147 N 854.342 -1.57594 -0.0133615 0
M  V30 9148 C 855.57 -1.94251 -0.712328 0
M  V30 9149 C 855.985 -0.86063 -1.68043 0
M  V30 9150 O 855.342 0.161632 -1.81783 0
M  V30 9151 C 855.393 -3.30891 -1.45581 0
M  V30 9152 O 855.114 -4.34924 -0.526539 0
M  V30 9153 C 856.615 -3.81926 -2.2505 0
M  V30 9154 H 853.835 -0.640737 -0.199241 0
M  V30 9155 H 856.379 -2.04472 0.0337855 0
M  V30 9156 H 854.534 -3.22019 -2.15366 0
M  V30 9157 H 854.948 -5.1389 -1.04962 0
M  V30 9158 H 856.422 -4.79999 -2.72589 0
M  V30 9159 H 856.899 -3.13934 -3.07152 0
M  V30 9160 H 857.505 -3.93931 -1.60308 0
M  V30 9161 N 855.82 0.285905 -1.54985 0
M  V30 9162 C 856.752 1.37505 -1.83371 0
M  V30 9163 C 857.765 1.46138 -0.717454 0
M  V30 9164 O 858.954 1.48186 -0.995142 0
M  V30 9165 C 856.054 2.7575 -1.97016 0
M  V30 9166 C 855.227 2.89866 -3.27561 0
M  V30 9167 C 854.286 4.08704 -3.31433 0
M  V30 9168 O 853.312 4.00073 -4.04883 0
M  V30 9169 N 854.514 5.20062 -2.57907 0
M  V30 9170 H 857.279 1.13505 -2.77375 0
M  V30 9171 H 854.84 0.476006 -1.54744 0
M  V30 9172 H 856.832 3.5352 -1.96991 0
M  V30 9173 H 855.402 2.9263 -1.09938 0
M  V30 9174 H 854.622 1.99085 -3.40234 0
M  V30 9175 H 855.91 2.96219 -4.13681 0
M  V30 9176 H 855.308 5.29958 -1.97891 0
M  V30 9177 H 853.865 5.96111 -2.63619 0
M  V30 9178 N 857.298 1.47698 0.54982 0
M  V30 9179 C 858.714 1.3338 0.876468 0
M  V30 9180 C 858.914 0.329837 1.98782 0
M  V30 9181 O 857.97 -0.256022 2.51199 0
M  V30 9182 C 859.283 2.72903 1.26272 0
M  V30 9183 C 860.831 2.81243 1.37373 0
M  V30 9184 C 861.306 4.21423 1.79351 0
M  V30 9185 N 862.797 4.24 1.86489 0
M  V30 9186 C 863.532 5.29386 2.20313 0
M  V30 9187 N 863.028 6.4507 2.527 0
M  V30 9188 N 864.821 5.16768 2.2115 0
M  V30 9189 H 856.972 2.11603 -0.183781 0
M  V30 9190 H 859.235 0.947798 -0.0195601 0
M  V30 9191 H 858.941 3.47836 0.519889 0
M  V30 9192 H 858.815 3.05151 2.21727 0
M  V30 9193 H 861.202 2.06577 2.10737 0
M  V30 9194 H 861.283 2.52639 0.400882 0
M  V30 9195 H 860.927 4.96597 1.06555 0
M  V30 9196 H 860.857 4.47456 2.77652 0
M  V30 9197 H 863.348 3.40547 1.63817 0
M  V30 9198 H 863.661 7.21236 2.77557 0
M  V30 9199 H 862.006 6.48377 2.50263 0
M  V30 9200 H 865.197 4.25416 1.95293 0
M  V30 9201 H 865.37 5.99004 2.4718 0
M  V30 9202 N 858.776 -0.797141 1.35954 0
M  V30 9203 C 859.708 -1.91782 1.25509 0
M  V30 9204 C 860.721 -1.61843 0.176271 0
M  V30 9205 O 861.91 -1.73235 0.430343 0
M  V30 9206 C 859.01 -3.26396 0.912073 0
M  V30 9207 C 858.183 -3.84171 2.0912 0
M  V30 9208 C 857.242 -4.9721 1.72246 0
M  V30 9209 O 856.268 -5.14136 2.44239 0
M  V30 9210 N 857.47 -5.76831 0.651611 0
M  V30 9211 H 860.235 -2.01266 2.22063 0
M  V30 9212 H 857.796 -0.975033 1.29247 0
M  V30 9213 H 859.788 -3.99499 0.646707 0
M  V30 9214 H 858.358 -3.12579 0.0359079 0
M  V30 9215 H 857.578 -3.03148 2.51982 0
M  V30 9216 H 858.866 -4.19503 2.87914 0
M  V30 9217 H 858.264 -5.65675 0.0536678 0
M  V30 9218 H 856.821 -6.50272 0.44605 0
M  V30 9219 N 860.254 -1.20106 -1.0204 0
M  V30 9220 C 861.501 -1.00889 -1.75578 0
M  V30 9221 C 861.829 0.459415 -1.88996 0
M  V30 9222 O 861.084 1.35735 -1.40977 0
M  V30 9223 C 861.383 -1.63308 -3.17908 0
M  V30 9224 C 861.049 -3.13091 -3.24476 0
M  V30 9225 C 859.711 -3.53968 -3.25976 0
M  V30 9226 C 862.063 -4.09093 -3.22944 0
M  V30 9227 C 859.391 -4.89381 -3.2361 0
M  V30 9228 C 861.743 -5.44447 -3.22119 0
M  V30 9229 C 860.407 -5.84742 -3.2192 0
M  V30 9230 H 859.677 -0.36918 -0.642485 0
M  V30 9231 H 862.324 -1.49475 -1.19706 0
M  V30 9232 H 860.629 -1.06974 -3.76914 0
M  V30 9233 H 862.326 -1.45958 -3.73493 0
M  V30 9234 H 858.916 -2.80526 -3.24042 0
M  V30 9235 H 863.1 -3.78549 -3.20958 0
M  V30 9236 H 858.356 -5.1987 -3.21785 0
M  V30 9237 H 862.53 -6.18584 -3.19885 0
M  V30 9238 H 860.157 -6.89642 -3.19841 0
M  V30 9239 N 861.732 1.21287 -1.00634 0
M  V30 9240 C 862.957 1.94925 -0.708441 0
M  V30 9241 C 863.382 1.73659 0.722783 0
M  V30 9242 O 862.74 1.02429 1.49593 0
M  V30 9243 C 862.788 3.45377 -1.03667 0
M  V30 9244 O 861.892 4.12153 -0.142661 0
M  V30 9245 H 861.233 0.609338 -0.263824 0
M  V30 9246 H 863.763 1.54008 -1.34695 0
M  V30 9247 H 863.773 3.95954 -0.984086 0
M  V30 9248 H 862.448 3.6018 -2.0795 0
M  V30 9249 H 861.025 3.72048 -0.251888 0
M  V30 9250 N 863.21 0.781244 1.36873 0
M  V30 9251 C 864.626 0.461968 1.52768 0
M  V30 9252 C 864.826 -1.02099 1.73719 0
M  V30 9253 O 863.882 -1.80665 1.76399 0
M  V30 9254 C 865.195 1.2853 2.71846 0
M  V30 9255 C 866.743 1.27817 2.85713 0
M  V30 9256 C 867.218 2.08506 4.07786 0
M  V30 9257 N 868.709 2.05909 4.14917 0
M  V30 9258 C 869.444 2.65118 5.08429 0
M  V30 9259 N 868.94 3.33152 6.07438 0
M  V30 9260 N 870.733 2.54896 5.00983 0
M  V30 9261 H 862.884 1.74198 1.21527 0
M  V30 9262 H 865.147 0.740027 0.592506 0
M  V30 9263 H 864.853 2.3366 2.62861 0
M  V30 9264 H 864.727 0.920981 3.65784 0
M  V30 9265 H 867.114 0.234817 2.94164 0
M  V30 9266 H 867.195 1.68219 1.92707 0
M  V30 9267 H 866.839 3.12867 4.00096 0
M  V30 9268 H 866.769 1.65479 4.99924 0
M  V30 9269 H 869.26 1.56386 3.44023 0
M  V30 9270 H 869.573 3.75681 6.75339 0
M  V30 9271 H 867.918 3.37253 6.07689 0
M  V30 9272 H 871.109 2.01352 4.22581 0
M  V30 9273 H 871.282 3.01332 5.73675 0
M  V30 9274 N 864.689 -1.48329 0.532571 0
M  V30 9275 C 865.919 -2.066 0.00353785 0
M  V30 9276 C 866.327 -1.38913 -1.28451 0
M  V30 9277 O 865.67 -0.471385 -1.77549 0
M  V30 9278 C 865.732 -3.58342 -0.288324 0
M  V30 9279 C 865.396 -4.47917 0.906631 0
M  V30 9280 C 866.393 -4.87534 1.80572 0
M  V30 9281 C 864.078 -4.89783 1.11436 0
M  V30 9282 C 866.072 -5.6779 2.89642 0
M  V30 9283 C 863.759 -5.69809 2.20819 0
M  V30 9284 C 864.757 -6.08721 3.09755 0
M  V30 9285 O 864.445 -6.8714 4.17246 0
M  V30 9286 H 864.177 -0.675263 0.0315661 0
M  V30 9287 H 866.731 -1.91669 0.738375 0
M  V30 9288 H 864.961 -3.71395 -1.07717 0
M  V30 9289 H 866.65 -3.98726 -0.759752 0
M  V30 9290 H 867.416 -4.5581 1.65719 0
M  V30 9291 H 863.295 -4.58977 0.431382 0
M  V30 9292 H 866.839 -5.98082 3.59087 0
M  V30 9293 H 862.736 -6.00947 2.35655 0
M  V30 9294 H 863.504 -7.05498 4.14988 0
M  V30 9295 N 866.167 -0.267825 -1.55308 0
M  V30 9296 C 867.414 0.351036 -1.99434 0
M  V30 9297 C 867.742 1.56406 -1.15618 0
M  V30 9298 O 866.997 1.94548 -0.212045 0
M  V30 9299 C 867.296 0.784247 -3.48689 0
M  V30 9300 C 866.962 -0.323328 -4.49739 0
M  V30 9301 C 865.624 -0.627467 -4.77091 0
M  V30 9302 C 867.976 -1.07002 -5.10098 0
M  V30 9303 C 865.304 -1.682 -5.62073 0
M  V30 9304 C 867.656 -2.11422 -5.96224 0
M  V30 9305 C 866.32 -2.42479 -6.21901 0
M  V30 9306 H 865.59 0.128453 -0.729781 0
M  V30 9307 H 868.237 -0.380018 -1.87692 0
M  V30 9308 H 866.542 1.59485 -3.57871 0
M  V30 9309 H 868.239 1.2737 -3.80234 0
M  V30 9310 H 864.829 -0.0761528 -4.28532 0
M  V30 9311 H 869.013 -0.848302 -4.88996 0
M  V30 9312 H 864.269 -1.92772 -5.80215 0
M  V30 9313 H 868.443 -2.69759 -6.4203 0
M  V30 9314 H 866.07 -3.24328 -6.87543 0
M  V30 9315 N 867.645 1.57599 0.00500368 0
M  V30 9316 C 868.894 1.89528 0.690061 0
M  V30 9317 C 869.207 0.869451 1.75214 0
M  V30 9318 O 870.413 1.07879 2.49147 0
M  V30 9319 C 868.869 3.36425 1.27852 0
M  V30 9320 C 868.477 4.47293 0.251531 0
M  V30 9321 C 870.221 3.77471 1.94206 0
M  V30 9322 C 868.128 5.85264 0.8497 0
M  V30 9323 H 867.058 0.707201 0.2615 0
M  V30 9324 H 869.709 1.83418 -0.0547209 0
M  V30 9325 H 868.091 3.37356 2.07381 0
M  V30 9326 H 869.265 4.5787 -0.518796 0
M  V30 9327 H 867.58 4.15235 -0.311281 0
M  V30 9328 H 870.177 4.77884 2.39855 0
M  V30 9329 H 870.52 3.10722 2.77051 0
M  V30 9330 H 871.053 3.78817 1.21419 0
M  V30 9331 H 867.792 6.55472 0.0601408 0
M  V30 9332 H 867.312 5.78361 1.5893 0
M  V30 9333 H 868.991 6.32762 1.34984 0
M  V30 9334 N 869.123 -0.277682 1.55134 0
M  V30 9335 C 870.033 -1.36524 1.90783 0
M  V30 9336 C 871.049 -1.54283 0.804542 0
M  V30 9337 O 872.225 -1.68499 1.10318 0
M  V30 9338 C 869.29 -2.70524 2.16835 0
M  V30 9339 C 868.351 -2.61552 3.40424 0
M  V30 9340 C 867.584 -3.89162 3.65224 0
M  V30 9341 O 867.807 -4.89624 2.92616 0
M  V30 9342 O 866.741 -3.89647 4.58758 0
M  V30 9343 H 870.567 -1.0929 2.83354 0
M  V30 9344 H 868.152 -0.475799 1.41621 0
M  V30 9345 H 870.034 -3.49765 2.35038 0
M  V30 9346 H 868.709 -2.97555 1.27448 0
M  V30 9347 H 867.616 -1.80704 3.27562 0
M  V30 9348 H 868.949 -2.39472 4.30016 0
M  V30 9349 N 870.601 -1.47988 -0.541979 0
M  V30 9350 C 871.848 -1.55393 -1.29843 0
M  V30 9351 C 872.176 -0.222668 -1.93221 0
M  V30 9352 O 871.431 0.785936 -1.79225 0
M  V30 9353 C 871.73 -2.63189 -2.41798 0
M  V30 9354 C 871.396 -4.05999 -1.96151 0
M  V30 9355 C 870.058 -4.44872 -1.83419 0
M  V30 9356 C 872.41 -4.95545 -1.61507 0
M  V30 9357 C 869.738 -5.71108 -1.34361 0
M  V30 9358 C 872.09 -6.22259 -1.13915 0
M  V30 9359 C 870.754 -6.59998 -0.997911 0
M  V30 9360 H 870.024 -0.568623 -0.47513 0
M  V30 9361 H 872.671 -1.81654 -0.606142 0
M  V30 9362 H 870.976 -2.30743 -3.16647 0
M  V30 9363 H 872.673 -2.66138 -2.99953 0
M  V30 9364 H 869.263 -3.75294 -2.07008 0
M  V30 9365 H 873.447 -4.662 -1.70209 0
M  V30 9366 H 868.703 -5.99083 -1.22103 0
M  V30 9367 H 872.877 -6.91048 -0.861755 0
M  V30 9368 H 870.504 -7.57704 -0.615561 0
M  V30 9369 N 872.079 0.78992 -1.36375 0
M  V30 9370 C 872.989 1.93386 -1.32812 0
M  V30 9371 C 874.005 1.72468 -0.230377 0
M  V30 9372 O 875.181 1.96014 -0.462657 0
M  V30 9373 C 872.246 3.2824 -1.11621 0
M  V30 9374 C 871.307 3.61939 -2.30865 0
M  V30 9375 C 870.54 4.90359 -2.10675 0
M  V30 9376 O 870.763 5.6005 -1.08168 0
M  V30 9377 O 869.697 5.22702 -2.9844 0
M  V30 9378 H 873.523 1.99342 -2.29121 0
M  V30 9379 H 871.108 0.9301 -1.16917 0
M  V30 9380 H 872.99 4.08939 -1.01719 0
M  V30 9381 H 871.665 3.23178 -0.183732 0
M  V30 9382 H 870.572 2.81549 -2.46335 0
M  V30 9383 H 871.905 3.71725 -3.22617 0
M  V30 9384 N 873.557 1.20646 1.01402 0
M  V30 9385 C 874.467 0.973385 2.13453 0
M  V30 9386 C 875.483 -0.0715865 1.73853 0
M  V30 9387 O 876.659 0.116438 2.01063 0
M  V30 9388 C 873.724 0.531285 3.42605 0
M  V30 9389 C 872.785 1.64741 3.96433 0
M  V30 9390 C 872.018 1.22631 5.1942 0
M  V30 9391 O 872.241 0.0960891 5.70319 0
M  V30 9392 O 871.175 2.03474 5.66465 0
M  V30 9393 H 875.001 1.91164 2.35987 0
M  V30 9394 H 872.586 0.990553 1.11841 0
M  V30 9395 H 874.468 0.294095 4.20373 0
M  V30 9396 H 873.143 -0.378358 3.21481 0
M  V30 9397 H 872.05 1.93891 3.19933 0
M  V30 9398 H 873.383 2.53415 4.2195 0
M  V30 9399 N 875.035 -1.20752 1.01276 0
M  V30 9400 C 875.965 -2.25658 0.600064 0
M  V30 9401 C 876.946 -1.65733 -0.38298 0
M  V30 9402 O 878.131 -1.92324 -0.269256 0
M  V30 9403 C 875.261 -3.47237 -0.0663197 0
M  V30 9404 C 874.215 -4.1973 0.83731 0
M  V30 9405 C 873.541 -5.34687 0.0369102 0
M  V30 9406 C 874.841 -4.76286 2.14357 0
M  V30 9407 H 876.535 -2.60432 1.477 0
M  V30 9408 H 874.081 -1.25187 0.711634 0
M  V30 9409 H 876.034 -4.19803 -0.366563 0
M  V30 9410 H 874.758 -3.11615 -0.977944 0
M  V30 9411 H 873.417 -3.49024 1.1215 0
M  V30 9412 H 873.065 -4.95309 -0.876244 0
M  V30 9413 H 872.765 -5.84119 0.63865 0
M  V30 9414 H 874.289 -6.10059 -0.256968 0
M  V30 9415 H 875.703 -5.40691 1.90595 0
M  V30 9416 H 874.1 -5.36139 2.69583 0
M  V30 9417 H 875.17 -3.9524 2.80916 0
M  V30 9418 N 876.513 -0.788492 -1.36457 0
M  V30 9419 C 877.445 -0.144208 -2.28746 0
M  V30 9420 C 878.458 0.646009 -1.49434 0
M  V30 9421 O 879.647 0.481344 -1.71888 0
M  V30 9422 C 876.747 0.818869 -3.28858 0
M  V30 9423 C 875.92 0.0789055 -4.37329 0
M  V30 9424 C 874.979 0.957791 -5.1741 0
M  V30 9425 O 874.005 0.415378 -5.67682 0
M  V30 9426 N 875.207 2.28216 -5.33758 0
M  V30 9427 H 877.972 -0.936949 -2.84678 0
M  V30 9428 H 875.533 -0.642317 -1.48613 0
M  V30 9429 H 877.525 1.41065 -3.79319 0
M  V30 9430 H 876.095 1.51249 -2.73573 0
M  V30 9431 H 875.315 -0.693939 -3.88044 0
M  V30 9432 H 876.603 -0.431753 -5.06965 0
M  V30 9433 H 876.001 2.747 -4.94527 0
M  V30 9434 H 874.558 2.8236 -5.87466 0
M  V30 9435 N 877.991 1.48044 -0.54043 0
M  V30 9436 C 878.921 2.32597 0.205178 0
M  V30 9437 C 879.902 1.42748 0.925041 0
M  V30 9438 O 881.087 1.71624 0.908784 0
M  V30 9439 C 878.217 3.24175 1.24612 0
M  V30 9440 C 877.171 4.23131 0.64376 0
M  V30 9441 C 876.497 5.03915 1.78812 0
M  V30 9442 C 877.797 5.20831 -0.39144 0
M  V30 9443 H 879.491 2.95184 -0.500676 0
M  V30 9444 H 877.037 1.41948 -0.242225 0
M  V30 9445 H 878.99 3.82158 1.77576 0
M  V30 9446 H 877.714 2.59608 1.98169 0
M  V30 9447 H 876.373 3.66349 0.135554 0
M  V30 9448 H 876.021 4.35765 2.51232 0
M  V30 9449 H 875.721 5.709 1.39094 0
M  V30 9450 H 877.245 5.64753 2.32134 0
M  V30 9451 H 878.659 5.73277 0.0515064 0
M  V30 9452 H 877.056 5.95926 -0.706569 0
M  V30 9453 H 878.126 4.6733 -1.29345 0
M  V30 9454 N 879.47 0.276058 1.55163 0
M  V30 9455 C 880.4 -0.604633 2.25536 0
M  V30 9456 C 881.381 -1.15813 1.24585 0
M  V30 9457 O 882.566 -1.1921 1.53306 0
M  V30 9458 C 879.696 -1.78836 2.97716 0
M  V30 9459 C 878.65 -1.36635 4.05604 0
M  V30 9460 C 877.976 -2.63325 4.65364 0
M  V30 9461 C 879.276 -0.515858 5.19746 0
M  V30 9462 H 880.97 -0.0177483 2.99395 0
M  V30 9463 H 878.516 -0.00709627 1.43998 0
M  V30 9464 H 880.469 -2.41036 3.45658 0
M  V30 9465 H 879.193 -2.40109 2.21394 0
M  V30 9466 H 877.852 -0.767541 3.58475 0
M  V30 9467 H 877.5 -3.22858 3.85709 0
M  V30 9468 H 877.2 -2.358 5.38212 0
M  V30 9469 H 878.724 -3.26372 5.16056 0
M  V30 9470 H 880.138 -1.04289 5.63735 0
M  V30 9471 H 878.535 -0.335449 5.99162 0
M  V30 9472 H 879.605 0.465137 4.82664 0
M  V30 9473 N 880.948 -1.576 0.00335426 0
M  V30 9474 C 882.196 -1.90336 -0.679446 0
M  V30 9475 C 882.517 -0.877777 -1.74127 0
M  V30 9476 O 881.787 0.0843585 -1.95718 0
M  V30 9477 H 880.367 -0.702509 -0.253948 0
M  V30 9478 H 883.029 -1.94848 0.0450731 0
M  V30 9479 H 882.125 -2.90197 -1.14857 0
M  V30 9480 N 882.426 0.269451 -1.5528 0
M  V30 9481 C 883.373 1.33316 -1.88403 0
M  V30 9482 C 884.343 1.48909 -0.735881 0
M  V30 9483 O 885.528 1.63259 -0.987479 0
M  V30 9484 C 882.668 2.68778 -2.16454 0
M  V30 9485 C 881.781 2.61377 -3.43956 0
M  V30 9486 C 880.916 3.89042 -3.6169 0
M  V30 9487 C 879.955 3.76166 -4.82872 0
M  V30 9488 N 879.092 4.95673 -4.97245 0
M  V30 9489 H 883.932 1.04368 -2.79126 0
M  V30 9490 H 881.469 0.504147 -1.38191 0
M  V30 9491 H 883.427 3.47599 -2.30719 0
M  V30 9492 H 882.057 2.9592 -1.28961 0
M  V30 9493 H 881.109 1.74247 -3.38145 0
M  V30 9494 H 882.421 2.47764 -4.32914 0
M  V30 9495 H 881.575 4.76304 -3.75791 0
M  V30 9496 H 880.314 4.05526 -2.70924 0
M  V30 9497 H 879.319 2.87287 -4.68771 0
M  V30 9498 H 880.544 3.61198 -5.75077 0
M  V30 9499 H 878.49 5.12561 -4.09411 0
M  V30 9500 H 878.407 4.84605 -5.80254 0
M  V30 9501 H 879.675 5.84498 -5.15735 0
M  V30 9502 N 883.904 1.48273 0.534124 0
M  V30 9503 C 885.152 1.55771 1.28762 0
M  V30 9504 C 885.473 0.231575 1.9362 0
M  V30 9505 O 884.743 -0.746533 1.81118 0
M  V30 9506 H 883.323 0.573851 0.47823 0
M  V30 9507 H 885.985 1.84712 0.621888 0
M  V30 9508 H 885.081 2.33657 2.06908 0
M  V30 9509 N 885.382 -0.782676 1.36792 0
M  V30 9510 C 886.345 -1.8772 1.31507 0
M  V30 9511 C 887.345 -1.59269 0.221349 0
M  V30 9512 O 888.535 -1.67555 0.476544 0
M  V30 9513 C 885.667 -3.24641 1.04025 0
M  V30 9514 H 886.86 -1.9382 2.28853 0
M  V30 9515 H 884.413 -0.981226 1.21662 0
M  V30 9516 H 885.148 -3.24221 0.0716439 0
M  V30 9517 H 884.933 -3.46681 1.8318 0
M  V30 9518 H 886.423 -4.04711 1.02949 0
M  V30 9519 N 886.86 -1.21182 -1.00761 0
M  V30 9520 C 888.107 -1.02746 -1.74498 0
M  V30 9521 C 888.435 0.439344 -1.89473 0
M  V30 9522 O 887.69 1.34232 -1.42409 0
M  V30 9523 C 887.989 -1.6667 -3.16158 0
M  V30 9524 C 887.655 -3.16515 -3.21137 0
M  V30 9525 C 886.317 -3.57405 -3.22203 0
M  V30 9526 C 888.669 -4.12495 -3.18587 0
M  V30 9527 C 885.997 -4.92786 -3.18401 0
M  V30 9528 C 888.349 -5.47833 -3.16326 0
M  V30 9529 C 887.013 -5.88124 -3.157 0
M  V30 9530 H 886.283 -0.375974 -0.638533 0
M  V30 9531 H 888.93 -1.50736 -1.18114 0
M  V30 9532 H 887.235 -1.10966 -3.75758 0
M  V30 9533 H 888.932 -1.49911 -3.71924 0
M  V30 9534 H 885.522 -2.83947 -3.21048 0
M  V30 9535 H 889.706 -3.81932 -3.16925 0
M  V30 9536 H 884.962 -5.23253 -3.16253 0
M  V30 9537 H 889.136 -6.21942 -3.13306 0
M  V30 9538 H 886.763 -6.92995 -3.12508 0
M  V30 9539 N 888.338 1.20213 -1.01915 0
M  V30 9540 C 889.586 1.89272 -0.708552 0
M  V30 9541 C 889.907 1.79394 0.76438 0
M  V30 9542 O 889.177 1.198 1.54999 0
M  V30 9543 H 887.757 0.700628 -0.259094 0
M  V30 9544 H 890.419 1.45985 -1.29129 0
M  V30 9545 H 889.515 2.95841 -0.994215 0
M  V30 9546 N 889.816 0.795718 1.36037 0
M  V30 9547 C 890.779 0.204318 2.28287 0
M  V30 9548 C 891.779 -0.602017 1.49105 0
M  V30 9549 O 892.969 -0.422089 1.69009 0
M  V30 9550 C 890.101 -0.716431 3.33287 0
M  V30 9551 H 891.294 1.01781 2.821 0
M  V30 9552 H 888.847 0.565588 1.45708 0
M  V30 9553 H 889.582 -1.55403 2.84641 0
M  V30 9554 H 889.367 -0.140096 3.9185 0
M  V30 9555 H 890.857 -1.12488 4.02164 0
M  V30 9556 N 891.294 -1.47756 0.548274 0
M  V30 9557 C 892.54 -2.02789 0.0209265 0
M  V30 9558 C 892.873 -1.42268 -1.32187 0
M  V30 9559 O 892.148 -0.575001 -1.85806 0
M  V30 9560 C 892.431 -3.60007 -0.0816674 0
M  V30 9561 C 892.284 -4.30977 1.28759 0
M  V30 9562 C 893.603 -4.32777 -0.799515 0
M  V30 9563 H 890.722 -0.736944 0.00907884 0
M  V30 9564 H 893.364 -1.76282 0.708839 0
M  V30 9565 H 891.514 -3.82722 -0.667537 0
M  V30 9566 H 893.186 -4.19629 1.91597 0
M  V30 9567 H 891.429 -3.9168 1.86466 0
M  V30 9568 H 892.1 -5.39488 1.16861 0
M  V30 9569 H 894.576 -4.15001 -0.30216 0
M  V30 9570 H 893.452 -5.42431 -0.840239 0
M  V30 9571 H 893.713 -4.01358 -1.85375 0
M  V30 9572 N 892.772 -0.284283 -1.55015 0
M  V30 9573 C 894.021 0.33055 -1.98973 0
M  V30 9574 C 894.334 1.56284 -1.17621 0
M  V30 9575 O 895.54 2.2512 -1.51767 0
M  V30 9576 C 893.996 0.639457 -3.54174 0
M  V30 9577 C 893.604 -0.573543 -4.44313 0
M  V30 9578 C 895.348 1.21641 -4.06699 0
M  V30 9579 C 893.255 -0.238715 -5.90918 0
M  V30 9580 H 892.185 0.127285 -0.743179 0
M  V30 9581 H 894.836 -0.390372 -1.793 0
M  V30 9582 H 893.218 1.41953 -3.69683 0
M  V30 9583 H 894.392 -1.3502 -4.40575 0
M  V30 9584 H 892.707 -1.06797 -4.02472 0
M  V30 9585 H 895.304 1.48088 -5.13784 0
M  V30 9586 H 895.647 2.15328 -3.56286 0
M  V30 9587 H 896.18 0.498422 -3.94665 0
M  V30 9588 H 892.919 -1.1437 -6.45445 0
M  V30 9589 H 892.439 0.500997 -5.97704 0
M  V30 9590 H 894.118 0.165774 -6.46788 0
M  V30 9591 N 894.251 1.57596 -0.0117121 0
M  V30 9592 C 895.198 2.09153 0.975897 0
M  V30 9593 C 896.168 0.989579 1.33404 0
M  V30 9594 O 897.353 1.26273 1.43038 0
M  V30 9595 C 894.493 2.60906 2.2588 0
M  V30 9596 C 893.606 3.85046 1.95866 0
M  V30 9597 C 892.741 4.25257 3.18323 0
M  V30 9598 C 891.78 5.42202 2.84049 0
M  V30 9599 N 890.917 5.77651 3.99079 0
M  V30 9600 H 895.757 2.93261 0.52931 0
M  V30 9601 H 893.294 1.44965 0.249691 0
M  V30 9602 H 895.252 2.88995 3.00895 0
M  V30 9603 H 893.882 1.79654 2.68187 0
M  V30 9604 H 892.934 3.63794 1.11168 0
M  V30 9605 H 894.246 4.70151 1.66611 0
M  V30 9606 H 893.4 4.5469 4.01674 0
M  V30 9607 H 892.139 3.38884 3.50726 0
M  V30 9608 H 891.144 5.1248 1.99107 0
M  V30 9609 H 892.369 6.3026 2.52881 0
M  V30 9610 H 890.315 4.94235 4.31356 0
M  V30 9611 H 890.232 6.57356 3.73388 0
M  V30 9612 H 891.5 6.11681 4.83183 0
M  V30 9613 N 895.729 -0.261212 1.5542 0
M  V30 9614 C 896.975 -0.992699 1.76843 0
M  V30 9615 C 897.308 -1.8551 0.574428 0
M  V30 9616 O 896.583 -1.89739 -0.427713 0
M  V30 9617 C 896.866 -1.86532 3.08022 0
M  V30 9618 C 896.719 -1.03206 4.378 0
M  V30 9619 C 898.038 -2.85036 3.35324 0
M  V30 9620 H 895.157 -0.359473 0.643388 0
M  V30 9621 H 897.799 -0.264214 1.88154 0
M  V30 9622 H 895.949 -2.48644 2.9851 0
M  V30 9623 H 897.621 -0.430743 4.59285 0
M  V30 9624 H 895.864 -0.335911 4.32497 0
M  V30 9625 H 896.535 -1.6761 5.25938 0
M  V30 9626 H 899.011 -2.3306 3.44706 0
M  V30 9627 H 897.887 -3.43226 4.28354 0
M  V30 9628 H 898.148 -3.60768 2.55537 0
M  V30 9629 N 897.207 -1.48554 -0.526253 0
M  V30 9630 C 898.139 -1.59446 -1.6465 0
M  V30 9631 C 899.152 -0.478525 -1.55608 0
M  V30 9632 O 900.341 -0.74953 -1.62001 0
M  V30 9633 C 897.441 -1.51164 -3.03319 0
M  V30 9634 C 896.614 -2.77861 -3.37805 0
M  V30 9635 C 895.673 -2.62982 -4.5577 0
M  V30 9636 O 894.699 -3.36876 -4.58806 0
M  V30 9637 N 895.901 -1.72847 -5.5417 0
M  V30 9638 H 898.666 -2.56055 -1.55743 0
M  V30 9639 H 896.227 -1.45325 -0.713606 0
M  V30 9640 H 898.219 -1.389 -3.80117 0
M  V30 9641 H 896.789 -0.625147 -3.06285 0
M  V30 9642 H 896.009 -3.04663 -2.50149 0
M  V30 9643 H 897.297 -3.61908 -3.57632 0
M  V30 9644 H 896.695 -1.12022 -5.54498 0
M  V30 9645 H 895.252 -1.6652 -6.3017 0
M  V30 9646 N 898.685 0.775411 -1.37205 0
M  V30 9647 C 899.633 1.90996 -1.32752 0
M  V30 9648 C 900.627 1.68006 -0.216907 0
M  V30 9649 O 901.833 1.7584 -0.384723 0
M  V30 9650 H 898.208 0.62803 -0.413621 0
M  V30 9651 H 900.179 1.91869 -2.28536 0
M  V30 9652 C 898.928 3.28211 -1.14772 0
M  V30 9653 H 898.251 3.46477 -1.99484 0
M  V30 9654 H 899.691 4.07907 -1.15706 0
M  V30 9655 C 898.15 3.3658 0.146852 0
M  V30 9656 O 898.68 3.85428 1.13173 0
M  V30 9657 N 896.886 2.89936 0.196305 0
M  V30 9658 H 896.433 2.50375 -0.605807 0
M  V30 9659 H 896.391 2.95916 1.06212 0
M  V30 9660 N 900.163 1.21714 1.00117 0
M  V30 9661 C 901.11 0.979837 2.08968 0
M  V30 9662 C 902.08 -0.0955324 1.65825 0
M  V30 9663 O 903.265 0.0523742 1.90728 0
M  V30 9664 C 900.405 0.554758 3.40612 0
M  V30 9665 C 899.518 1.69999 3.97145 0
M  V30 9666 C 898.653 1.2237 5.16913 0
M  V30 9667 C 897.692 2.34101 5.65564 0
M  V30 9668 N 896.829 1.87579 6.76579 0
M  V30 9669 H 901.669 1.91167 2.28602 0
M  V30 9670 H 899.206 0.952645 1.12085 0
M  V30 9671 H 901.164 0.289526 4.16194 0
M  V30 9672 H 899.794 -0.340073 3.21004 0
M  V30 9673 H 898.846 2.07976 3.18512 0
M  V30 9674 H 900.158 2.54074 4.29241 0
M  V30 9675 H 899.312 0.915358 5.99755 0
M  V30 9676 H 898.051 0.353045 4.8642 0
M  V30 9677 H 897.056 2.65734 4.81316 0
M  V30 9678 H 898.281 3.21669 5.98085 0
M  V30 9679 H 896.227 1.02863 6.47885 0
M  V30 9680 H 896.144 2.65225 7.07949 0
M  V30 9681 H 897.412 1.5979 7.62947 0
M  V30 9682 N 901.641 -1.19671 1.02551 0
M  V30 9683 C 902.571 -2.25009 0.623965 0
M  V30 9684 C 903.552 -1.66129 -0.36538 0
M  V30 9685 O 904.737 -1.92599 -0.248842 0
M  V30 9686 C 901.867 -3.47287 -0.0294869 0
M  V30 9687 C 900.821 -4.18818 0.881781 0
M  V30 9688 C 900.147 -5.34618 0.0936189 0
M  V30 9689 C 901.447 -4.73986 2.19396 0
M  V30 9690 H 903.141 -2.58851 1.50454 0
M  V30 9691 H 900.687 -1.24425 0.724872 0
M  V30 9692 H 902.64 -4.20168 -0.322016 0
M  V30 9693 H 901.364 -3.12635 -0.944838 0
M  V30 9694 H 900.023 -3.47815 1.15845 0
M  V30 9695 H 899.671 -4.9621 -0.823661 0
M  V30 9696 H 899.371 -5.83409 0.700568 0
M  V30 9697 H 900.895 -6.10297 -0.192249 0
M  V30 9698 H 902.309 -5.38639 1.96319 0
M  V30 9699 H 900.706 -5.3325 2.75254 0
M  V30 9700 H 901.776 -3.92238 2.85092 0
M  V30 9701 N 903.119 -0.802921 -1.35613 0
M  V30 9702 C 904.396 -0.304993 -1.93208 0
M  V30 9703 C 904.776 1.20488 -1.73337 0
M  V30 9704 O 904.124 2.00268 -1.10022 0
M  V30 9705 C 904.334 -0.712383 -3.41652 0
M  V30 9706 C 905.682 -0.699785 -4.18794 0
M  V30 9707 O 906.706 -0.653698 -3.5015 0
M  V30 9708 O 905.565 -0.754842 -5.41262 0
M  V30 9709 H 902.659 -0.0789127 -0.823226 0
M  V30 9710 H 905.205 -0.886372 -1.44712 0
M  V30 9711 H 903.977 -1.75316 -3.49829 0
M  V30 9712 H 903.6 -0.105614 -3.9746 0
M  V30 9713 N 904.597 1.47463 -0.556102 0
M  V30 9714 C 905.845 2.02075 -0.0315712 0
M  V30 9715 C 906.166 1.43292 1.32259 0
M  V30 9716 O 905.436 0.60771 1.86236 0
M  V30 9717 H 904.016 0.74695 -0.0086816 0
M  V30 9718 H 906.678 1.80879 -0.725859 0
M  V30 9719 H 905.774 3.12047 0.0573538 0
M  V30 9720 N 906.075 0.2925 1.54862 0
M  V30 9721 C 907.315 -0.32024 2.01876 0
M  V30 9722 C 907.679 -1.5174 1.17639 0
M  V30 9723 O 908.88 -2.20094 1.54312 0
M  V30 9724 C 907.151 -0.67611 3.50947 0
M  V30 9725 S 908.71 -1.27292 4.19931 0
M  V30 9726 H 905.528 -0.0987374 0.704111 0
M  V30 9727 H 908.13 0.41839 1.90971 0
M  V30 9728 H 906.834 0.203797 4.09894 0
M  V30 9729 H 906.365 -1.44575 3.65871 0
M  V30 9730 H 908.38 -2.56102 4.25002 0
M  V30 9731 N 907.553 -1.57587 0.0200696 0
M  V30 9732 C 908.793 -1.93287 -0.66479 0
M  V30 9733 C 909.157 -0.896022 -1.6981 0
M  V30 9734 O 910.358 -1.13892 -2.43479 0
M  V30 9735 C 908.629 -3.33949 -1.27328 0
M  V30 9736 S 910.188 -3.91564 -1.98047 0
M  V30 9737 H 907.006 -0.676397 -0.219106 0
M  V30 9738 H 909.608 -1.9533 0.081568 0
M  V30 9739 H 908.312 -4.07235 -0.508673 0
M  V30 9740 H 907.843 -3.35329 -2.05714 0
M  V30 9741 H 909.858 -3.74265 -3.25791 0
M  V30 9742 N 909.032 0.252966 -1.55557 0
M  V30 9743 C 910.262 0.998115 -1.8089 0
M  V30 9744 C 910.67 1.79679 -0.592623 0
M  V30 9745 O 910.013 1.78151 0.448093 0
M  V30 9746 C 910.075 1.98878 -2.99479 0
M  V30 9747 C 909.739 1.37761 -4.35742 0
M  V30 9748 C 910.736 0.783142 -5.13968 0
M  V30 9749 C 908.421 1.39879 -4.8243 0
M  V30 9750 C 910.415 0.218004 -6.37027 0
M  V30 9751 C 908.102 0.829801 -6.0544 0
M  V30 9752 C 909.1 0.240426 -6.82577 0
M  V30 9753 O 908.788 -0.319797 -8.03264 0
M  V30 9754 H 908.52 0.29963 -0.605969 0
M  V30 9755 H 911.074 0.282978 -2.03441 0
M  V30 9756 H 909.304 2.74206 -2.72669 0
M  V30 9757 H 910.993 2.59686 -3.11959 0
M  V30 9758 H 911.759 0.759326 -4.79019 0
M  V30 9759 H 907.638 1.84692 -4.22386 0
M  V30 9760 H 911.182 -0.242654 -6.97178 0
M  V30 9761 H 907.079 0.850924 -6.39867 0
M  V30 9762 H 907.847 -0.211078 -8.18228 0
M  V30 9763 N 910.51 1.48831 0.518367 0
M  V30 9764 C 911.473 1.63721 1.604 0
M  V30 9765 C 912.473 0.509857 1.52503 0
M  V30 9766 O 913.663 0.775922 1.55965 0
M  V30 9767 C 910.795 1.61831 3.00039 0
M  V30 9768 H 911.988 2.60534 1.48533 0
M  V30 9769 H 909.541 1.37602 0.741309 0
M  V30 9770 H 910.276 0.665387 3.17401 0
M  V30 9771 H 910.061 2.43686 3.0718 0
M  V30 9772 H 911.551 1.75467 3.78947 0
M  V30 9773 N 911.988 -0.768124 1.37614 0
M  V30 9774 C 913.234 -1.52907 1.33219 0
M  V30 9775 C 913.567 -1.94026 -0.0821218 0
M  V30 9776 O 912.842 -1.64345 -1.04023 0
M  V30 9777 C 913.125 -2.79164 2.27463 0
M  V30 9778 C 912.978 -2.44276 3.7769 0
M  V30 9779 C 914.297 -3.81115 2.20089 0
M  V30 9780 H 911.416 -0.554712 0.485246 0
M  V30 9781 H 914.058 -0.880911 1.68345 0
M  V30 9782 H 912.208 -3.34472 1.97639 0
M  V30 9783 H 913.88 -1.94855 4.18126 0
M  V30 9784 H 912.123 -1.76925 3.96081 0
M  V30 9785 H 912.794 -3.34544 4.39072 0
M  V30 9786 H 915.27 -3.35311 2.46386 0
M  V30 9787 H 914.146 -4.67174 2.88166 0
M  V30 9788 H 914.407 -4.25644 1.19498 0
M  V30 9789 N 913.466 -1.22244 -0.994698 0
M  V30 9790 C 914.413 -0.990906 -2.08446 0
M  V30 9791 C 915.383 0.086737 -1.65873 0
M  V30 9792 O 916.568 -0.0624882 -1.90698 0
M  V30 9793 C 913.708 -0.572813 -3.40313 0
M  V30 9794 C 912.821 -1.72103 -3.96238 0
M  V30 9795 C 911.956 -1.2511 -5.16257 0
M  V30 9796 C 910.995 -2.37098 -5.64315 0
M  V30 9797 N 910.132 -1.91164 -6.75574 0
M  V30 9798 H 914.972 -1.92377 -2.27585 0
M  V30 9799 H 912.509 -0.958576 -1.11578 0
M  V30 9800 H 914.467 -0.311594 -4.16035 0
M  V30 9801 H 913.097 0.323044 -3.21179 0
M  V30 9802 H 912.149 -2.09662 -3.17405 0
M  V30 9803 H 913.461 -2.56347 -4.27888 0
M  V30 9804 H 912.615 -0.947152 -5.99261 0
M  V30 9805 H 911.354 -0.378836 -4.86226 0
M  V30 9806 H 910.359 -2.68283 -4.799 0
M  V30 9807 H 911.584 -3.24837 -5.96371 0
M  V30 9808 H 909.53 -1.06298 -6.47331 0
M  V30 9809 H 909.447 -2.68975 -7.06533 0
M  V30 9810 H 910.715 -1.63833 -7.62088 0
M  V30 9811 N 914.944 1.19125 -1.03184 0
M  V30 9812 C 916.36 1.40909 -0.749447 0
M  V30 9813 C 916.56 1.9022 0.664729 0
M  V30 9814 O 915.616 2.08085 1.43028 0
M  V30 9815 C 916.929 2.41761 -1.78807 0
M  V30 9816 C 918.477 2.55503 -1.80796 0
M  V30 9817 C 918.952 3.59612 -2.83626 0
M  V30 9818 N 920.443 3.6711 -2.82461 0
M  V30 9819 C 921.178 4.47366 -3.5868 0
M  V30 9820 N 920.674 5.31302 -4.44623 0
M  V30 9821 N 922.467 4.42044 -3.47208 0
M  V30 9822 H 914.618 0.854399 -1.94458 0
M  V30 9823 H 916.881 0.437753 -0.840878 0
M  V30 9824 H 916.587 2.12559 -2.80199 0
M  V30 9825 H 916.461 3.40981 -1.61283 0
M  V30 9826 H 918.848 2.84027 -0.800803 0
M  V30 9827 H 918.929 1.56427 -2.02396 0
M  V30 9828 H 918.573 3.3183 -3.84515 0
M  V30 9829 H 918.503 4.58345 -2.59283 0
M  V30 9830 H 920.994 3.07166 -2.2013 0
M  V30 9831 H 921.307 5.89667 -4.99512 0
M  V30 9832 H 919.652 5.30753 -4.48694 0
M  V30 9833 H 922.843 3.75513 -2.79477 0
M  V30 9834 H 923.016 5.0435 -4.06859 0
M  V30 9835 N 916.422 0.810101 1.35185 0
M  V30 9836 C 917.671 0.388589 1.97921 0
M  V30 9837 C 917.984 -1.05079 1.64978 0
M  V30 9838 O 919.19 -1.57559 2.21105 0
M  V30 9839 C 917.646 0.643864 3.54094 0
M  V30 9840 C 917.254 2.09602 3.95943 0
M  V30 9841 C 918.998 0.287883 4.23523 0
M  V30 9842 C 916.905 2.29686 5.44976 0
M  V30 9843 H 915.835 0.141562 0.740592 0
M  V30 9844 H 918.486 0.994653 1.54204 0
M  V30 9845 H 916.868 -0.0321978 3.95987 0
M  V30 9846 H 918.042 2.81018 3.65192 0
M  V30 9847 H 916.357 2.4122 3.39414 0
M  V30 9848 H 918.954 0.415946 5.3308 0
M  V30 9849 H 919.297 -0.766305 4.09186 0
M  V30 9850 H 919.83 0.918004 3.87063 0
M  V30 9851 H 916.569 3.33563 5.64284 0
M  V30 9852 H 916.089 1.62798 5.77284 0
M  V30 9853 H 917.768 2.11411 6.11485 0
M  V30 9854 N 917.9 -1.47166 0.563914 0
M  V30 9855 C 919.311 -1.86231 0.132307 0
M  V30 9856 C 919.662 -1.46976 -1.29971 0
M  V30 9857 O 918.787 -0.875911 -1.97881 0
M  V30 9858 C 919.382 -3.37996 0.233335 0
M  V30 9859 C 917.941 -3.76127 -0.143278 0
M  V30 9860 C 917.088 -2.71212 0.577857 0
M  V30 9861 H 920.039 -1.38588 0.773249 0
M  V30 9862 H 920.06 -3.76558 -0.546309 0
M  V30 9863 H 919.572 -3.66535 1.27568 0
M  V30 9864 H 917.673 -3.53205 -1.18648 0
M  V30 9865 H 917.786 -4.78595 0.219952 0
M  V30 9866 H 916.15 -2.54692 0.020186 0
M  V30 9867 H 916.933 -3.02593 1.62149 0
M  V30 9868 N 919.378 -0.300708 -1.54705 0
M  V30 9869 C 920.627 0.309428 -1.99312 0
M  V30 9870 C 920.94 1.55027 -1.19272 0
M  V30 9871 O 922.146 2.23498 -1.54146 0
M  V30 9872 C 920.602 0.601856 -3.54832 0
M  V30 9873 C 920.21 -0.620636 -4.4368 0
M  V30 9874 C 921.954 1.1732 -4.07966 0
M  V30 9875 C 919.861 -0.301376 -5.90632 0
M  V30 9876 H 918.791 0.119395 -0.744487 0
M  V30 9877 H 921.442 -0.409368 -1.78875 0
M  V30 9878 H 919.824 1.38024 -3.71168 0
M  V30 9879 H 920.998 -1.39685 -4.39118 0
M  V30 9880 H 919.313 -1.1106 -4.01316 0
M  V30 9881 H 921.91 1.42631 -5.15326 0
M  V30 9882 H 922.253 2.11537 -3.5855 0
M  V30 9883 H 922.786 0.456534 -3.95172 0
M  V30 9884 H 919.525 -1.21209 -6.44196 0
M  V30 9885 H 919.045 0.437574 -5.98202 0
M  V30 9886 H 920.724 0.097164 -6.46927 0
M  V30 9887 N 920.856 1.57574 -0.0284266 0
M  V30 9888 C 921.804 2.11332 0.971675 0
M  V30 9889 C 922.798 1.03974 1.33738 0
M  V30 9890 O 924.004 1.22409 1.31969 0
M  V30 9891 H 920.379 0.675174 0.331125 0
M  V30 9892 H 922.35 2.943 0.49296 0
M  V30 9893 C 921.099 2.65496 2.24516 0
M  V30 9894 H 920.422 3.47753 1.9725 0
M  V30 9895 H 921.862 3.06757 2.92705 0
M  V30 9896 C 920.321 1.58207 2.97443 0
M  V30 9897 O 920.851 0.981496 3.89525 0
M  V30 9898 N 919.057 1.30269 2.59766 0
M  V30 9899 H 918.604 1.79294 1.84963 0
M  V30 9900 H 918.562 0.587085 3.0887 0
M  V30 9901 N 922.334 -0.244713 1.55689 0
M  V30 9902 C 923.745 -0.813603 1.6804 0
M  V30 9903 C 924.096 -1.85936 0.626281 0
M  V30 9904 O 923.221 -2.15206 -0.227038 0
M  V30 9905 C 923.816 -1.48252 3.04642 0
M  V30 9906 C 922.375 -1.99908 3.18926 0
M  V30 9907 C 921.522 -0.850958 2.6392 0
M  V30 9908 H 924.473 -0.0204805 1.58687 0
M  V30 9909 H 924.494 -2.35062 2.99209 0
M  V30 9910 H 924.006 -0.721164 3.81341 0
M  V30 9911 H 922.107 -2.78918 2.47054 0
M  V30 9912 H 922.22 -2.19497 4.25862 0
M  V30 9913 H 920.584 -1.25206 2.21801 0
M  V30 9914 H 921.367 -0.10265 3.43146 0
M  V30 9915 N 923.813 -1.49104 -0.510467 0
M  V30 9916 C 924.776 -1.64569 -1.59529 0
M  V30 9917 C 925.776 -0.517937 -1.5223 0
M  V30 9918 O 926.966 -0.784183 -1.55551 0
M  V30 9919 C 924.098 -1.6342 -2.99177 0
M  V30 9920 H 925.291 -2.61318 -1.4715 0
M  V30 9921 H 922.844 -1.37993 -0.734001 0
M  V30 9922 H 923.579 -0.68221 -3.17043 0
M  V30 9923 H 923.364 -2.45312 -3.05883 0
M  V30 9924 H 924.854 -1.77474 -3.78011 0
M  V30 9925 N 925.291 0.760815 -1.38019 0
M  V30 9926 C 926.516 1.55513 -1.37224 0
M  V30 9927 C 926.941 1.88062 0.037611 0
M  V30 9928 O 926.299 1.50042 1.0177 0
M  V30 9929 C 926.347 2.83539 -2.22796 0
M  V30 9930 O 925.451 3.78384 -1.64009 0
M  V30 9931 H 924.792 0.470642 -0.468393 0
M  V30 9932 H 927.322 0.940792 -1.81687 0
M  V30 9933 H 927.332 3.32535 -2.36399 0
M  V30 9934 H 926.007 2.59178 -3.25269 0
M  V30 9935 H 924.584 3.37063 -1.59508 0
M  V30 9936 N 926.769 1.22769 0.988202 0
M  V30 9937 C 928.185 0.988665 1.2529 0
M  V30 9938 C 928.385 -0.314938 1.99024 0
M  V30 9939 O 927.441 -1.03637 2.30251 0
M  V30 9940 C 928.754 2.19046 2.06009 0
M  V30 9941 C 930.302 2.23452 2.19176 0
M  V30 9942 C 930.777 3.43196 3.03283 0
M  V30 9943 N 932.268 3.43387 3.10869 0
M  V30 9944 C 933.003 4.32693 3.7625 0
M  V30 9945 N 932.499 5.32224 4.43519 0
M  V30 9946 N 934.292 4.20457 3.73058 0
M  V30 9947 H 926.443 2.06575 0.494014 0
M  V30 9948 H 928.706 0.905452 0.28082 0
M  V30 9949 H 928.412 3.13607 1.59197 0
M  V30 9950 H 928.286 2.19492 3.06763 0
M  V30 9951 H 930.673 1.29436 2.65199 0
M  V30 9952 H 930.754 2.27042 1.17836 0
M  V30 9953 H 930.398 4.37515 2.57959 0
M  V30 9954 H 930.328 3.36847 4.04774 0
M  V30 9955 H 932.819 2.71368 2.62998 0
M  V30 9956 H 933.132 5.9664 4.91163 0
M  V30 9957 H 931.477 5.36133 4.42252 0
M  V30 9958 H 934.668 3.41949 3.19669 0
M  V30 9959 H 934.841 4.90261 4.23731 0
M  V30 9960 N 928.247 -1.18576 1.03814 0
M  V30 9961 C 929.179 -2.21607 0.585055 0
M  V30 9962 C 930.192 -1.59125 -0.343963 0
M  V30 9963 O 931.381 -1.77959 -0.138882 0
M  V30 9964 C 928.481 -3.38495 -0.165602 0
M  V30 9965 C 927.654 -4.30557 0.770662 0
M  V30 9966 C 926.713 -5.26161 0.0637534 0
M  V30 9967 O 925.739 -5.64961 0.693359 0
M  V30 9968 N 926.941 -5.67882 -1.20377 0
M  V30 9969 H 929.706 -2.61104 1.47121 0
M  V30 9970 H 927.267 -1.33336 0.918316 0
M  V30 9971 H 929.259 -3.99474 -0.648292 0
M  V30 9972 H 927.829 -2.97711 -0.953268 0
M  V30 9973 H 927.049 -3.67221 1.43326 0
M  V30 9974 H 928.337 -4.88969 1.40667 0
M  V30 9975 H 927.735 -5.38409 -1.73586 0
M  V30 9976 H 926.292 -6.31069 -1.63079 0
M  V30 9977 N 929.725 -0.817259 -1.34754 0
M  V30 9978 C 930.972 -0.402648 -1.98457 0
M  V30 9979 C 931.3 1.03287 -1.64809 0
M  V30 9980 O 930.555 1.73316 -0.908851 0
M  V30 9981 C 930.854 -0.5453 -3.53216 0
M  V30 9982 C 930.52 -1.9457 -4.06759 0
M  V30 9983 C 929.182 -2.32881 -4.21094 0
M  V30 9984 C 931.534 -2.86141 -4.35629 0
M  V30 9985 C 928.862 -3.62108 -4.61622 0
M  V30 9986 C 931.214 -4.14826 -4.776 0
M  V30 9987 C 929.878 -4.53121 -4.9014 0
M  V30 9988 H 929.148 -0.147339 -0.726204 0
M  V30 9989 H 931.795 -1.04011 -1.60791 0
M  V30 9990 H 930.1 0.175576 -3.91406 0
M  V30 9991 H 931.797 -0.205112 -4.00475 0
M  V30 9992 H 928.387 -1.6381 -3.96061 0
M  V30 9993 H 932.571 -2.57788 -4.24098 0
M  V30 9994 H 927.827 -3.91613 -4.69521 0
M  V30 9995 H 932.001 -4.85874 -4.98899 0
M  V30 9996 H 929.628 -5.53307 -5.21302 0
M  V30 9997 N 931.203 1.46865 -0.571711 0
M  V30 9998 C 932.619 1.57897 -0.23255 0
M  V30 9999 C 932.819 1.56836 1.26509 0
M  V30 10000 O 931.875 1.47947 2.04617 0
M  V30 10001 C 933.188 2.87778 -0.872036 0
M  V30 10002 C 934.736 3.01389 -0.844605 0
M  V30 10003 C 935.211 4.33991 -1.46343 0
M  V30 10004 N 936.702 4.40662 -1.42727 0
M  V30 10005 C 937.437 5.41858 -1.87557 0
M  V30 10006 N 936.933 6.49787 -2.4031 0
M  V30 10007 N 938.726 5.32992 -1.7854 0
M  V30 10008 H 930.877 1.45798 -1.54457 0
M  V30 10009 H 933.14 0.694785 -0.644964 0
M  V30 10010 H 932.846 2.94332 -1.92513 0
M  V30 10011 H 932.72 3.75345 -0.373677 0
M  V30 10012 H 935.107 2.94423 0.19984 0
M  V30 10013 H 935.188 2.15327 -1.38087 0
M  V30 10014 H 934.832 4.41714 -2.50701 0
M  V30 10015 H 934.762 5.18809 -0.902479 0
M  V30 10016 H 937.253 3.63263 -1.04155 0
M  V30 10017 H 937.566 7.23199 -2.72403 0
M  V30 10018 H 935.911 6.50637 -2.44329 0
M  V30 10019 H 939.102 4.47575 -1.37093 0
M  V30 10020 H 939.275 6.11716 -2.13794 0
M  V30 10021 N 932.681 0.308908 1.54543 0
M  V30 10022 C 934.097 -0.0442273 1.59539 0
M  V30 10023 C 934.297 -1.51743 1.32575 0
M  V30 10024 O 933.353 -2.27134 1.10302 0
M  V30 10025 C 934.666 0.360826 2.98527 0
M  V30 10026 C 936.214 0.310252 3.11459 0
M  V30 10027 C 936.689 0.690246 4.52769 0
M  V30 10028 N 938.18 0.643084 4.58714 0
M  V30 10029 C 938.915 0.909483 5.66141 0
M  V30 10030 N 938.411 1.24226 6.81572 0
M  V30 10031 N 940.204 0.836018 5.55848 0
M  V30 10032 H 932.355 1.26893 1.70329 0
M  V30 10033 H 934.618 0.514986 0.795923 0
M  V30 10034 H 934.324 1.38669 3.23209 0
M  V30 10035 H 934.198 -0.281563 3.76148 0
M  V30 10036 H 936.585 -0.706375 2.86521 0
M  V30 10037 H 936.666 0.987373 2.35976 0
M  V30 10038 H 936.31 1.70472 4.78437 0
M  V30 10039 H 936.24 -0.00903075 5.26599 0
M  V30 10040 H 938.731 0.397138 3.75807 0
M  V30 10041 H 939.044 1.4313 7.5943 0
M  V30 10042 H 937.389 1.28038 6.83104 0
M  V30 10043 H 940.58 0.575637 4.64547 0
M  V30 10044 H 940.753 1.047 6.39486 0
M  V30 10045 N 934.159 -1.57557 0.0367827 0
M  V30 10046 C 935.408 -1.91291 -0.639569 0
M  V30 10047 C 935.721 -0.915601 -1.72847 0
M  V30 10048 O 936.927 -1.14447 -2.46199 0
M  V30 10049 C 935.383 -3.39697 -1.18888 0
M  V30 10050 C 934.991 -4.47803 -0.132851 0
M  V30 10051 C 936.735 -3.82487 -1.8413 0
M  V30 10052 C 934.642 -5.87311 -0.694229 0
M  V30 10053 H 933.572 -0.713886 -0.242658 0
M  V30 10054 H 936.223 -1.83209 0.103332 0
M  V30 10055 H 934.605 -3.42736 -1.98363 0
M  V30 10056 H 935.779 -4.56334 0.640009 0
M  V30 10057 H 934.094 -4.14264 0.421264 0
M  V30 10058 H 936.691 -4.84076 -2.27101 0
M  V30 10059 H 937.034 -3.17959 -2.68716 0
M  V30 10060 H 937.567 -3.81903 -1.11332 0
M  V30 10061 H 934.306 -6.55401 0.113667 0
M  V30 10062 H 933.826 -5.82371 -1.4354 0
M  V30 10063 H 935.505 -6.36119 -1.1816 0
M  V30 10064 N 935.637 0.236453 -1.55816 0
M  V30 10065 C 936.584 1.29289 -1.91188 0
M  V30 10066 C 937.554 1.47315 -0.767301 0
M  V30 10067 O 938.739 1.61128 -1.02189 0
M  V30 10068 C 935.879 2.64126 -2.22107 0
M  V30 10069 C 934.992 2.54022 -3.49423 0
M  V30 10070 C 934.127 3.81282 -3.69861 0
M  V30 10071 C 933.166 3.65839 -4.90743 0
M  V30 10072 N 932.303 4.85014 -5.07647 0
M  V30 10073 H 937.143 0.98424 -2.81277 0
M  V30 10074 H 934.68 0.474722 -1.39229 0
M  V30 10075 H 936.638 3.42626 -2.3804 0
M  V30 10076 H 935.268 2.93118 -1.35209 0
M  V30 10077 H 934.32 1.67036 -3.41765 0
M  V30 10078 H 935.632 2.38525 -4.38072 0
M  V30 10079 H 934.786 4.68226 -3.8581 0
M  V30 10080 H 933.525 3.99688 -2.79465 0
M  V30 10081 H 932.53 2.77279 -4.74759 0
M  V30 10082 H 933.755 3.48918 -5.82609 0
M  V30 10083 H 931.701 5.03762 -4.20191 0
M  V30 10084 H 931.618 4.72188 -5.90402 0
M  V30 10085 H 932.886 5.73427 -5.28017 0
M  V30 10086 N 937.115 1.49373 0.502552 0
M  V30 10087 C 938.363 1.58467 1.25429 0
M  V30 10088 C 938.684 0.272593 1.93085 0
M  V30 10089 O 937.954 -0.707947 1.82661 0
M  V30 10090 H 936.534 0.583866 0.46595 0
M  V30 10091 H 939.196 1.8599 0.582568 0
M  V30 10092 H 938.292 2.37993 2.01906 0
M  V30 10093 N 938.594 -0.753485 1.38421 0
M  V30 10094 C 939.504 -1.89797 1.37892 0
M  V30 10095 C 940.52 -1.71797 0.276023 0
M  V30 10096 O 941.696 -1.94718 0.514464 0
M  V30 10097 C 938.761 -3.25166 1.20284 0
M  V30 10098 C 937.822 -3.55691 2.4038 0
M  V30 10099 C 937.055 -4.84601 2.23602 0
M  V30 10100 O 937.278 -5.56985 1.22979 0
M  V30 10101 O 936.212 -5.14605 3.12194 0
M  V30 10102 H 940.038 -1.93197 2.34326 0
M  V30 10103 H 937.623 -0.898775 1.19342 0
M  V30 10104 H 939.505 -4.06099 1.12525 0
M  V30 10105 H 938.18 -3.22577 0.269352 0
M  V30 10106 H 937.087 -2.74919 2.53714 0
M  V30 10107 H 938.42 -3.6304 3.32359 0
M  V30 10108 N 940.072 -1.23292 -0.981677 0
M  V30 10109 C 941.318 -1.06582 -1.72535 0
M  V30 10110 C 941.651 0.396538 -1.90108 0
M  V30 10111 O 940.926 1.29363 -1.45243 0
M  V30 10112 C 941.209 -1.7904 -3.12437 0
M  V30 10113 C 941.062 -3.32941 -3.02441 0
M  V30 10114 C 942.381 -1.55185 -4.11832 0
M  V30 10115 H 939.5 -0.388585 -0.626236 0
M  V30 10116 H 942.142 -1.51779 -1.14293 0
M  V30 10117 H 940.292 -1.40619 -3.62158 0
M  V30 10118 H 941.964 -3.80875 -2.60254 0
M  V30 10119 H 940.207 -3.62039 -2.38977 0
M  V30 10120 H 940.878 -3.78827 -4.0149 0
M  V30 10121 H 943.354 -1.88581 -3.70913 0
M  V30 10122 H 942.23 -2.08362 -5.07815 0
M  V30 10123 H 942.491 -0.486925 -4.3941 0
M  V30 10124 N 941.55 1.18024 -1.04442 0
M  V30 10125 C 942.778 1.92032 -0.770161 0
M  V30 10126 C 943.193 1.76391 0.673181 0
M  V30 10127 O 942.55 1.09604 1.45922 0
M  V30 10128 C 942.601 3.43328 -1.13173 0
M  V30 10129 O 942.322 3.5848 -2.51841 0
M  V30 10130 C 943.823 4.34427 -0.882523 0
M  V30 10131 H 941.043 0.609518 -0.280586 0
M  V30 10132 H 943.587 1.49711 -1.39308 0
M  V30 10133 H 941.742 3.83423 -0.553704 0
M  V30 10134 H 942.156 4.52166 -2.65794 0
M  V30 10135 H 943.63 5.39123 -1.18533 0
M  V30 10136 H 944.107 4.3882 0.18257 0
M  V30 10137 H 944.713 4.00035 -1.44403 0
M  V30 10138 N 943.028 0.824394 1.34319 0
M  V30 10139 C 943.958 0.262077 2.32025 0
M  V30 10140 C 944.939 -0.622277 1.58309 0
M  V30 10141 O 946.124 -0.548848 1.86283 0
M  V30 10142 C 943.254 -0.57567 3.42496 0
M  V30 10143 C 942.208 0.21167 4.27476 0
M  V30 10144 C 941.534 -0.748913 5.29429 0
M  V30 10145 C 942.834 1.42068 5.02607 0
M  V30 10146 H 944.528 1.07842 2.79304 0
M  V30 10147 H 942.074 0.520022 1.34282 0
M  V30 10148 H 944.027 -0.979251 4.09864 0
M  V30 10149 H 942.751 -1.42508 2.93869 0
M  V30 10150 H 941.41 0.596636 3.61712 0
M  V30 10151 H 941.058 -1.59432 4.77064 0
M  V30 10152 H 940.758 -0.226313 5.87164 0
M  V30 10153 H 942.282 -1.15032 5.99667 0
M  V30 10154 H 943.696 1.09103 5.62823 0
M  V30 10155 H 942.093 1.87903 5.69923 0
M  V30 10156 H 943.163 2.1981 4.32217 0
M  V30 10157 N 944.506 -1.46559 0.579492 0
M  V30 10158 C 945.436 -2.33059 -0.143437 0
M  V30 10159 C 946.417 -1.4515 -0.886868 0
M  V30 10160 O 947.602 -1.73973 -0.862961 0
M  V30 10161 C 944.732 -3.27364 -1.15973 0
M  V30 10162 C 943.686 -4.24689 -0.531348 0
M  V30 10163 C 943.012 -5.08479 -1.65388 0
M  V30 10164 C 944.312 -5.1961 0.529391 0
M  V30 10165 H 946.006 -2.93753 0.578762 0
M  V30 10166 H 943.552 -1.41256 0.279775 0
M  V30 10167 H 945.505 -3.86732 -1.67382 0
M  V30 10168 H 944.229 -2.64771 -1.91217 0
M  V30 10169 H 942.888 -3.6658 -0.0383749 0
M  V30 10170 H 942.536 -4.42273 -2.3959 0
M  V30 10171 H 942.236 -5.74387 -1.23909 0
M  V30 10172 H 943.76 -5.70709 -2.17079 0
M  V30 10173 H 945.174 -5.73212 0.100506 0
M  V30 10174 H 943.571 -5.93843 0.86432 0
M  V30 10175 H 944.641 -4.63737 1.4169 0
M  V30 10176 N 945.984 -0.3171 -1.54377 0
M  V30 10177 C 947.209 0.292311 -2.0533 0
M  V30 10178 C 947.634 1.45503 -1.19207 0
M  V30 10179 O 946.992 1.80197 -0.199721 0
M  V30 10180 C 947.04 0.710787 -3.53525 0
M  V30 10181 O 946.144 1.81387 -3.70368 0
M  V30 10182 H 945.485 0.0539976 -0.661801 0
M  V30 10183 H 948.015 -0.463629 -1.99278 0
M  V30 10184 H 948.025 0.995216 -3.95676 0
M  V30 10185 H 946.7 -0.139668 -4.15665 0
M  V30 10186 H 945.277 1.52875 -3.40123 0
M  V30 10187 N 947.462 1.57535 -0.0451378 0
M  V30 10188 C 948.878 1.56533 0.311373 0
M  V30 10189 C 949.078 1.05225 1.71843 0
M  V30 10190 O 948.134 0.706144 2.42425 0
M  V30 10191 C 949.447 3.00349 0.145348 0
M  V30 10192 C 950.995 3.12248 0.216908 0
M  V30 10193 C 951.47 4.57931 0.0794834 0
M  V30 10194 N 952.961 4.63 0.135954 0
M  V30 10195 C 953.696 5.73375 0.0536426 0
M  V30 10196 N 953.192 6.92753 -0.0806725 0
M  V30 10197 N 954.985 5.61995 0.108789 0
M  V30 10198 H 947.136 1.89211 -0.965044 0
M  V30 10199 H 949.399 0.871068 -0.374091 0
M  V30 10200 H 949.105 3.41898 -0.824533 0
M  V30 10201 H 948.979 3.66086 0.908903 0
M  V30 10202 H 951.366 2.70601 1.17726 0
M  V30 10203 H 951.447 2.49201 -0.577299 0
M  V30 10204 H 951.091 5.00262 -0.877516 0
M  V30 10205 H 951.021 5.18977 0.892758 0
M  V30 10206 H 953.512 3.77142 0.23926 0
M  V30 10207 H 953.825 7.7268 -0.136351 0
M  V30 10208 H 952.17 6.94904 -0.115675 0
M  V30 10209 H 955.361 4.67619 0.212235 0
M  V30 10210 H 955.534 6.47987 0.0411822 0
M  V30 10211 N 948.94 -0.228186 1.55939 0
M  V30 10212 C 949.87 -1.28607 1.94891 0
M  V30 10213 C 950.851 -1.49236 0.816245 0
M  V30 10214 O 952.036 -1.61531 1.07803 0
M  V30 10215 C 949.166 -2.63719 2.25986 0
M  V30 10216 C 948.12 -2.57757 3.4168 0
M  V30 10217 C 947.446 -3.96837 3.58364 0
M  V30 10218 C 948.746 -2.13116 4.76843 0
M  V30 10219 H 950.44 -0.962531 2.83506 0
M  V30 10220 H 947.986 -0.461577 1.36402 0
M  V30 10221 H 949.939 -3.37878 2.51826 0
M  V30 10222 H 948.663 -2.97747 1.34217 0
M  V30 10223 H 947.322 -1.86055 3.15878 0
M  V30 10224 H 946.97 -4.28162 2.63982 0
M  V30 10225 H 946.67 -3.93731 4.36176 0
M  V30 10226 H 948.194 -4.72668 3.86545 0
M  V30 10227 H 949.608 -2.77015 5.01932 0
M  V30 10228 H 948.005 -2.21083 5.57891 0
M  V30 10229 H 949.075 -1.08326 4.72645 0
M  V30 10230 N 950.418 -1.49637 -0.494624 0
M  V30 10231 C 951.368 -1.63168 -1.59249 0
M  V30 10232 C 952.352 -0.487089 -1.5335 0
M  V30 10233 O 953.544 -0.74036 -1.60772 0
M  V30 10234 C 950.673 -1.70744 -2.97828 0
M  V30 10235 C 949.759 -2.90802 -3.08699 0
M  V30 10236 N 950.15 -4.14797 -2.89442 0
M  V30 10237 C 948.448 -2.88871 -3.39808 0
M  V30 10238 C 949.149 -4.95535 -3.04663 0
M  V30 10239 N 948.125 -4.29025 -3.33824 0
M  V30 10240 H 951.927 -2.56751 -1.43024 0
M  V30 10241 H 949.441 -1.46497 -0.700885 0
M  V30 10242 H 951.438 -1.78537 -3.76736 0
M  V30 10243 H 950.098 -0.783024 -3.15117 0
M  V30 10244 H 951.109 -4.44675 -2.6549 0
M  V30 10245 H 947.786 -2.05834 -3.63233 0
M  V30 10246 H 949.176 -6.0406 -2.94214 0
M  V30 10247 N 951.896 0.746133 -1.38819 0
M  V30 10248 C 952.846 1.85085 -1.33145 0
M  V30 10249 C 953.83 1.59466 -0.214339 0
M  V30 10250 O 955.022 1.71159 -0.450943 0
M  V30 10251 C 952.151 3.22884 -1.16623 0
M  V30 10252 C 951.237 3.54369 -2.32988 0
M  V30 10253 N 951.628 3.56863 -3.58445 0
M  V30 10254 C 949.926 3.84674 -2.25703 0
M  V30 10255 C 950.627 3.85827 -4.3533 0
M  V30 10256 N 949.603 4.03037 -3.64777 0
M  V30 10257 H 953.405 1.85301 -2.28124 0
M  V30 10258 H 950.919 0.943847 -1.32156 0
M  V30 10259 H 952.916 4.0195 -1.10642 0
M  V30 10260 H 951.576 3.23914 -0.225841 0
M  V30 10261 H 952.587 3.38443 -3.92017 0
M  V30 10262 H 949.264 3.93375 -1.39864 0
M  V30 10263 H 950.654 3.94317 -5.44025 0
M  V30 10264 N 953.375 1.23811 0.975125 0
M  V30 10265 C 954.285 1.0408 2.10249 0
M  V30 10266 C 955.301 -0.0162404 1.73992 0
M  V30 10267 O 956.477 0.180346 2.00591 0
M  V30 10268 C 953.542 0.640013 3.40741 0
M  V30 10269 C 952.603 1.7727 3.90991 0
M  V30 10270 C 951.836 1.39094 5.15256 0
M  V30 10271 O 952.059 0.277483 5.69725 0
M  V30 10272 O 950.993 2.21392 5.59704 0
M  V30 10273 H 954.819 1.98575 2.29786 0
M  V30 10274 H 952.404 1.02563 1.08633 0
M  V30 10275 H 954.286 0.427684 4.19224 0
M  V30 10276 H 952.961 -0.27589 3.22522 0
M  V30 10277 H 951.868 2.03971 3.13602 0
M  V30 10278 H 953.201 2.66711 4.13674 0
M  V30 10279 N 954.853 -1.17469 1.05066 0
M  V30 10280 C 955.801 -2.23495 0.644418 0
M  V30 10281 C 956.795 -1.66081 -0.333685 0
M  V30 10282 O 958.001 -1.78887 -0.199886 0
M  V30 10283 H 954.376 -0.727546 0.190214 0
M  V30 10284 H 956.347 -2.55058 1.5488 0
M  V30 10285 C 955.096 -3.47684 0.0338051 0
M  V30 10286 H 954.419 -3.92167 0.777513 0
M  V30 10287 H 955.859 -4.23464 -0.213086 0
M  V30 10288 C 954.318 -3.14067 -1.21915 0
M  V30 10289 O 954.848 -3.28728 -2.3087 0
M  V30 10290 N 953.054 -2.68304 -1.11631 0
M  V30 10291 H 952.601 -2.56574 -0.229673 0
M  V30 10292 H 952.559 -2.46184 -1.95553 0
M  V30 10293 N 956.331 -0.831506 -1.3388 0
M  V30 10294 C 957.58 -0.420028 -1.97278 0
M  V30 10295 C 957.893 1.02441 -1.66629 0
M  V30 10296 O 959.099 1.54021 -2.23584 0
M  V30 10297 C 957.555 -0.700116 -3.53025 0
M  V30 10298 C 957.163 -2.15874 -3.92559 0
M  V30 10299 C 958.907 -0.355226 -4.23011 0
M  V30 10300 C 956.814 -2.38327 -5.41252 0
M  V30 10301 H 955.744 -0.153326 -0.738246 0
M  V30 10302 H 958.395 -1.01906 -1.52602 0
M  V30 10303 H 956.777 -0.0308044 -3.95988 0
M  V30 10304 H 957.951 -2.86792 -3.60675 0
M  V30 10305 H 956.266 -2.4659 -3.35533 0
M  V30 10306 H 958.863 -0.500701 -5.32351 0
M  V30 10307 H 959.206 0.70111 -4.10354 0
M  V30 10308 H 959.739 -0.979466 -3.85553 0
M  V30 10309 H 956.478 -3.42498 -5.58906 0
M  V30 10310 H 955.998 -1.71962 -5.74621 0
M  V30 10311 H 957.677 -2.21113 -6.08045 0
M  V30 10312 N 957.809 1.4625 -0.587256 0
M  V30 10313 C 959.055 2.02662 -0.0746851 0
M  V30 10314 C 959.388 1.45723 1.28368 0
M  V30 10315 O 958.663 0.624062 1.84216 0
M  V30 10316 C 958.946 3.60097 -0.0138109 0
M  V30 10317 C 958.799 4.27412 -1.4014 0
M  V30 10318 C 960.118 4.34744 0.684491 0
M  V30 10319 H 957.237 0.736444 -0.0286144 0
M  V30 10320 H 959.879 1.74341 -0.755328 0
M  V30 10321 H 958.029 3.84357 0.56583 0
M  V30 10322 H 959.701 4.14401 -2.02656 0
M  V30 10323 H 957.944 3.86598 -1.96785 0
M  V30 10324 H 958.615 5.362 -1.31124 0
M  V30 10325 H 961.091 4.15657 0.192023 0
M  V30 10326 H 959.967 5.44468 0.696127 0
M  V30 10327 H 960.228 4.06132 1.74669 0
M  V30 10328 N 959.287 0.325282 1.54207 0
M  V30 10329 C 960.703 -0.0273036 1.59577 0
M  V30 10330 C 960.903 -1.50329 1.34177 0
M  V30 10331 O 959.959 -2.25951 1.12705 0
M  V30 10332 C 961.272 0.392468 2.98128 0
M  V30 10333 C 962.82 0.343269 3.11112 0
M  V30 10334 C 963.295 0.738229 4.52011 0
M  V30 10335 N 964.786 0.691701 4.58006 0
M  V30 10336 C 965.521 0.969479 5.65145 0
M  V30 10337 N 965.017 1.31448 6.80216 0
M  V30 10338 N 966.81 0.894926 5.5493 0
M  V30 10339 H 958.961 1.28692 1.68974 0
M  V30 10340 H 961.224 0.523399 0.790416 0
M  V30 10341 H 960.93 1.42089 3.2172 0
M  V30 10342 H 960.804 -0.241651 3.76425 0
M  V30 10343 H 963.191 -0.675946 2.87254 0
M  V30 10344 H 963.272 1.01235 2.34915 0
M  V30 10345 H 962.916 1.75537 4.76602 0
M  V30 10346 H 962.846 0.0468226 5.26579 0
M  V30 10347 H 965.337 0.436975 3.75365 0
M  V30 10348 H 965.65 1.51177 7.57869 0
M  V30 10349 H 963.995 1.35276 6.81708 0
M  V30 10350 H 967.186 0.624876 4.6391 0
M  V30 10351 H 967.359 1.11476 6.38339 0
M  V30 10352 N 960.765 -1.57509 0.0534917 0
M  V30 10353 C 961.995 -1.96812 -0.628386 0
M  V30 10354 C 962.403 -0.929808 -1.64776 0
M  V30 10355 O 961.746 0.0941155 -1.83459 0
M  V30 10356 C 961.808 -3.32361 -1.37027 0
M  V30 10357 C 961.472 -4.54185 -0.506465 0
M  V30 10358 C 962.469 -5.19398 0.228412 0
M  V30 10359 C 960.154 -5.00398 -0.43671 0
M  V30 10360 C 962.148 -6.29162 1.02146 0
M  V30 10361 C 959.835 -6.10039 0.360022 0
M  V30 10362 C 960.833 -6.74282 1.08779 0
M  V30 10363 O 960.521 -7.81814 1.87142 0
M  V30 10364 H 960.253 -0.65257 -0.176432 0
M  V30 10365 H 962.807 -2.05067 0.116908 0
M  V30 10366 H 961.037 -3.20667 -2.16125 0
M  V30 10367 H 962.726 -3.56395 -1.94261 0
M  V30 10368 H 963.492 -4.84651 0.184003 0
M  V30 10369 H 959.371 -4.50183 -0.992772 0
M  V30 10370 H 962.915 -6.79238 1.59002 0
M  V30 10371 H 958.812 -6.44222 0.406061 0
M  V30 10372 H 959.58 -7.98602 1.79378 0
M  V30 10373 N 962.243 0.219913 -1.56058 0
M  V30 10374 C 963.473 0.959521 -1.82967 0
M  V30 10375 C 963.881 1.78382 -0.630602 0
M  V30 10376 O 963.224 1.79062 0.410203 0
M  V30 10377 C 963.286 1.92481 -3.0363 0
M  V30 10378 C 962.95 1.28487 -4.38566 0
M  V30 10379 C 963.947 0.673946 -5.15513 0
M  V30 10380 C 961.632 1.29615 -4.85289 0
M  V30 10381 C 963.626 0.0828324 -6.37346 0
M  V30 10382 C 961.313 0.701191 -6.07064 0
M  V30 10383 C 962.311 0.0955877 -6.82933 0
M  V30 10384 O 961.999 -0.490109 -8.02405 0
M  V30 10385 H 961.731 0.286709 -0.612188 0
M  V30 10386 H 964.285 0.239761 -2.03996 0
M  V30 10387 H 962.515 2.6836 -2.78424 0
M  V30 10388 H 964.204 2.5301 -3.17397 0
M  V30 10389 H 964.97 0.657548 -4.80522 0
M  V30 10390 H 960.849 1.75691 -4.26208 0
M  V30 10391 H 964.393 -0.390482 -6.96506 0
M  V30 10392 H 960.29 0.715007 -6.41528 0
M  V30 10393 H 961.058 -0.384588 -8.17596 0
M  V30 10394 N 963.721 1.49897 0.486681 0
M  V30 10395 C 964.669 1.68125 1.60738 0
M  V30 10396 C 965.663 0.547097 1.60322 0
M  V30 10397 O 966.869 0.727153 1.64659 0
M  V30 10398 H 963.244 0.530391 0.533094 0
M  V30 10399 H 965.215 2.62165 1.42521 0
M  V30 10400 C 963.964 1.77827 2.98786 0
M  V30 10401 H 963.287 2.6448 2.99818 0
M  V30 10402 H 964.727 1.94611 3.76699 0
M  V30 10403 C 963.186 0.526287 3.32764 0
M  V30 10404 O 963.716 -0.341607 4.00245 0
M  V30 10405 N 961.922 0.384947 2.88039 0
M  V30 10406 H 961.469 1.09222 2.33299 0
M  V30 10407 H 961.427 -0.451618 3.11139 0
M  V30 10408 N 965.199 -0.738761 1.39212 0
M  V30 10409 C 966.162 -1.83441 1.37412 0
M  V30 10410 C 967.162 -1.58484 0.271908 0
M  V30 10411 O 968.352 -1.65954 0.529609 0
M  V30 10412 C 965.484 -3.21167 1.143 0
M  V30 10413 H 966.677 -1.86441 2.34904 0
M  V30 10414 H 964.23 -0.942023 1.24722 0
M  V30 10415 H 964.965 -3.23829 0.174756 0
M  V30 10416 H 964.75 -3.40678 1.94116 0
M  V30 10417 H 966.24 -4.01231 1.15773 0
M  V30 10418 N 966.677 -1.24326 -0.968545 0
M  V30 10419 C 967.923 -1.09413 -1.71465 0
M  V30 10420 C 968.278 0.363422 -1.88937 0
M  V30 10421 O 967.571 1.26486 -1.43916 0
M  V30 10422 C 967.765 -1.76644 -3.10695 0
M  V30 10423 C 967.594 -3.28787 -3.06805 0
M  V30 10424 C 966.364 -3.97995 -3.11333 0
M  V30 10425 C 968.562 -4.25389 -2.89047 0
M  V30 10426 N 966.544 -5.37024 -2.97453 0
M  V30 10427 C 967.915 -5.51411 -2.83454 0
M  V30 10428 C 969.97 -4.15976 -2.73621 0
M  V30 10429 C 968.673 -6.69096 -2.64013 0
M  V30 10430 C 970.699 -5.33338 -2.55547 0
M  V30 10431 C 970.061 -6.58291 -2.50663 0
M  V30 10432 H 966.16 -0.454986 -0.636012 0
M  V30 10433 H 968.744 -1.57228 -1.14837 0
M  V30 10434 H 966.915 -1.31344 -3.65518 0
M  V30 10435 H 968.647 -1.54599 -3.74007 0
M  V30 10436 H 965.402 -3.49155 -3.19981 0
M  V30 10437 H 965.826 -6.09948 -2.93756 0
M  V30 10438 H 970.468 -3.20131 -2.76181 0
M  V30 10439 H 968.186 -7.65064 -2.60197 0
M  V30 10440 H 971.772 -5.27904 -2.44557 0
M  V30 10441 H 970.652 -7.47575 -2.36856 0
M  V30 10442 N 968.156 1.1691 -1.05688 0
M  V30 10443 C 969.405 1.86629 -0.765022 0
M  V30 10444 C 969.718 1.82223 0.710918 0
M  V30 10445 O 970.924 2.47462 1.11691 0
M  V30 10446 C 969.38 3.34886 -1.3183 0
M  V30 10447 C 968.988 3.47781 -2.82404 0
M  V30 10448 C 970.732 4.099 -1.10372 0
M  V30 10449 C 968.639 4.9009 -3.31008 0
M  V30 10450 H 967.569 0.699082 -0.282491 0
M  V30 10451 H 970.22 1.31989 -1.27481 0
M  V30 10452 H 968.602 3.89094 -0.736312 0
M  V30 10453 H 969.776 3.03765 -3.46502 0
M  V30 10454 H 968.091 2.86193 -3.02461 0
M  V30 10455 H 970.688 5.14894 -1.4418 0
M  V30 10456 H 971.031 4.16279 -0.0417372 0
M  V30 10457 H 971.564 3.61913 -1.65117 0
M  V30 10458 H 968.303 4.88887 -4.36657 0
M  V30 10459 H 967.823 5.34756 -2.71655 0
M  V30 10460 H 969.502 5.58881 -3.25977 0
M  V30 10461 N 969.634 0.838594 1.33437 0
M  V30 10462 C 970.544 0.274048 2.32994 0
M  V30 10463 C 971.56 -0.599776 1.63336 0
M  V30 10464 O 972.736 -0.503963 1.94993 0
M  V30 10465 C 969.801 -0.541804 3.4244 0
M  V30 10466 C 968.862 0.356262 4.27819 0
M  V30 10467 C 968.095 -0.420747 5.32039 0
M  V30 10468 O 968.318 -1.65247 5.45939 0
M  V30 10469 O 967.252 0.205101 6.0155 0
M  V30 10470 H 971.078 1.09846 2.83139 0
M  V30 10471 H 968.663 0.601111 1.36774 0
M  V30 10472 H 970.545 -1.00544 4.0923 0
M  V30 10473 H 969.22 -1.34328 2.94513 0
M  V30 10474 H 968.127 0.867726 3.63897 0
M  V30 10475 H 969.46 1.1225 4.79229 0
M  V30 10476 N 971.112 -1.45937 0.595003 0
M  V30 10477 C 972.528 -1.57507 0.257641 0
M  V30 10478 C 972.728 -1.58829 -1.23998 0
M  V30 10479 O 971.784 -1.51183 -2.02237 0
M  V30 10480 C 973.097 -2.86354 0.917708 0
M  V30 10481 C 974.645 -3.00007 0.892446 0
M  V30 10482 C 975.12 -4.31607 1.53229 0
M  V30 10483 N 976.611 -4.38336 1.49719 0
M  V30 10484 C 977.346 -5.38805 1.96154 0
M  V30 10485 N 976.842 -6.45882 2.50617 0
M  V30 10486 N 978.635 -5.30084 1.86997 0
M  V30 10487 H 970.786 -1.43322 1.56756 0
M  V30 10488 H 973.049 -0.684436 0.655936 0
M  V30 10489 H 972.755 -2.91233 1.97171 0
M  V30 10490 H 972.629 -3.74703 0.433344 0
M  V30 10491 H 975.016 -2.94703 -0.152975 0
M  V30 10492 H 975.097 -2.13103 1.41495 0
M  V30 10493 H 974.741 -4.3767 2.57697 0
M  V30 10494 H 974.671 -5.17308 0.984903 0
M  V30 10495 H 977.162 -3.6156 1.09921 0
M  V30 10496 H 977.475 -7.18774 2.83874 0
M  V30 10497 H 975.82 -6.46668 2.54649 0
M  V30 10498 H 979.011 -4.45337 1.44196 0
M  V30 10499 H 979.184 -6.08237 2.23499 0
M  V30 10500 N 972.59 -0.333456 -1.54032 0
M  V30 10501 C 973.54 0.543745 -2.21421 0
M  V30 10502 C 974.524 1.07396 -1.19812 0
M  V30 10503 O 975.716 1.00934 -1.45401 0
M  V30 10504 C 972.845 1.69925 -2.98296 0
M  V30 10505 C 971.931 1.18345 -4.07253 0
M  V30 10506 N 972.322 0.388098 -5.04309 0
M  V30 10507 C 970.62 1.46128 -4.21382 0
M  V30 10508 C 971.321 0.109383 -5.81597 0
M  V30 10509 N 970.297 0.69825 -5.39097 0
M  V30 10510 H 974.099 -0.0711018 -2.93814 0
M  V30 10511 H 971.613 -0.139807 -1.61797 0
M  V30 10512 H 973.61 2.33954 -3.45067 0
M  V30 10513 H 972.27 2.31747 -2.27428 0
M  V30 10514 H 973.281 0.0300645 -5.17891 0
M  V30 10515 H 969.958 2.08463 -3.61731 0
M  V30 10516 H 971.348 -0.531554 -6.69794 0
M  V30 10517 N 974.068 1.57479 -0.061844 0
M  V30 10518 C 974.978 2.15645 0.923826 0
M  V30 10519 C 975.994 1.117 1.33413 0
M  V30 10520 O 977.17 1.4392 1.40887 0
M  V30 10521 C 974.235 2.69857 2.17665 0
M  V30 10522 C 973.296 3.88638 1.8237 0
M  V30 10523 C 972.529 4.40256 3.01679 0
M  V30 10524 O 972.752 3.90908 4.15388 0
M  V30 10525 O 971.686 5.31713 2.82073 0
M  V30 10526 H 975.512 3.0021 0.459094 0
M  V30 10527 H 973.097 1.48534 0.160665 0
M  V30 10528 H 974.979 3.04647 2.9115 0
M  V30 10529 H 973.654 1.88357 2.63255 0
M  V30 10530 H 972.561 3.58719 1.06167 0
M  V30 10531 H 973.894 4.71401 1.4157 0
M  V30 10532 N 975.546 -0.211634 1.56173 0
M  V30 10533 C 976.962 -0.56177 1.49386 0
M  V30 10534 C 977.162 -1.86666 0.758813 0
M  V30 10535 O 976.218 -2.50681 0.302534 0
M  V30 10536 C 977.531 -0.631815 2.93987 0
M  V30 10537 C 979.079 -0.721773 3.04564 0
M  V30 10538 C 979.554 -0.823075 4.50544 0
M  V30 10539 N 981.045 -0.887038 4.54627 0
M  V30 10540 C 981.78 -0.985304 5.64871 0
M  V30 10541 N 981.276 -1.0469 6.84844 0
M  V30 10542 N 983.069 -1.02121 5.52746 0
M  V30 10543 H 975.22 0.64452 2.02385 0
M  V30 10544 H 977.483 0.227466 0.920306 0
M  V30 10545 H 977.189 0.257592 3.50755 0
M  V30 10546 H 977.063 -1.4921 3.46433 0
M  V30 10547 H 979.45 -1.60162 2.47855 0
M  V30 10548 H 979.531 0.164385 2.55271 0
M  V30 10549 H 979.175 0.0523511 5.07873 0
M  V30 10550 H 979.105 -1.72479 4.97552 0
M  V30 10551 H 981.596 -0.849352 3.68231 0
M  V30 10552 H 981.909 -1.12193 7.64613 0
M  V30 10553 H 980.254 -1.01586 6.87536 0
M  V30 10554 H 983.445 -0.969814 4.57943 0
M  V30 10555 H 983.618 -1.09434 6.38693 0
M  V30 10556 N 977.024 -1.50153 -0.478725 0
M  V30 10557 C 978.435 -1.53706 -1.05978 0
M  V30 10558 C 978.786 -0.336112 -1.933 0
M  V30 10559 O 977.911 0.551803 -2.09246 0
M  V30 10560 C 978.506 -2.78541 -1.92874 0
M  V30 10561 C 977.065 -2.848 -2.46102 0
M  V30 10562 C 976.212 -2.47902 -1.24257 0
M  V30 10563 H 979.163 -1.56528 -0.261664 0
M  V30 10564 H 979.184 -2.59964 -2.77847 0
M  V30 10565 H 978.696 -3.6593 -1.29293 0
M  V30 10566 H 976.797 -2.01744 -3.13257 0
M  V30 10567 H 976.91 -3.87511 -2.81731 0
M  V30 10568 H 975.274 -2.0017 -1.57493 0
M  V30 10569 H 976.057 -3.3759 -0.62351 0
M  V30 10570 N 978.502 0.731368 -1.39602 0
M  V30 10571 C 979.465 1.8271 -1.38383 0
M  V30 10572 C 980.465 1.58338 -0.280309 0
M  V30 10573 O 981.655 1.65671 -0.538402 0
M  V30 10574 C 978.787 3.20556 -1.16002 0
M  V30 10575 H 979.98 1.85193 -2.35889 0
M  V30 10576 H 977.533 0.935396 -1.2522 0
M  V30 10577 H 978.268 3.23732 -0.191927 0
M  V30 10578 H 978.053 3.39643 -1.9592 0
M  V30 10579 H 979.543 4.00612 -1.17899 0
M  V30 10580 N 979.98 1.24838 0.961938 0
M  V30 10581 C 981.228 1.08936 1.70227 0
M  V30 10582 C 981.549 -0.371582 1.91427 0
M  V30 10583 O 980.819 -1.26461 1.49614 0
M  V30 10584 H 979.399 0.400128 0.630799 0
M  V30 10585 H 982.061 1.56848 1.15692 0
M  V30 10586 H 981.157 1.59195 2.68446 0
M  V30 10587 N 981.458 -1.16348 1.06306 0
M  V30 10588 C 982.869 -1.68491 0.80422 0
M  V30 10589 C 983.22 -1.84327 -0.672159 0
M  V30 10590 O 982.345 -1.53892 -1.52139 0
M  V30 10591 C 982.94 -3.06048 1.45328 0
M  V30 10592 C 981.499 -3.55311 1.24221 0
M  V30 10593 C 980.646 -2.31291 1.5297 0
M  V30 10594 H 983.597 -1.00708 1.22652 0
M  V30 10595 H 983.618 -3.70451 0.868674 0
M  V30 10596 H 983.13 -2.9449 2.52779 0
M  V30 10597 H 981.231 -3.72128 0.187447 0
M  V30 10598 H 981.344 -4.37397 1.95502 0
M  V30 10599 H 979.708 -2.3631 0.950241 0
M  V30 10600 H 980.491 -2.22331 2.6158 0
M  V30 10601 N 982.937 -0.845659 -1.3299 0
M  V30 10602 C 984.185 -0.443774 -1.97168 0
M  V30 10603 C 984.506 1.00192 -1.67292 0
M  V30 10604 O 983.776 1.69891 -0.975397 0
M  V30 10605 H 982.356 -0.161111 -0.729419 0
M  V30 10606 H 985.018 -1.08011 -1.62233 0
M  V30 10607 H 984.114 -0.581414 -3.06637 0
M  V30 10608 N 984.415 1.45619 -0.602734 0
M  V30 10609 C 985.643 2.06647 -0.102253 0
M  V30 10610 C 986.058 1.4482 1.21131 0
M  V30 10611 O 985.415 0.560621 1.73676 0
M  V30 10612 C 985.466 3.61467 0.0490113 0
M  V30 10613 O 985.187 4.20985 -1.21257 0
M  V30 10614 C 986.688 4.39469 0.581517 0
M  V30 10615 H 983.908 0.667685 -0.0666155 0
M  V30 10616 H 986.452 1.86939 -0.829091 0
M  V30 10617 H 984.607 3.80534 0.726153 0
M  V30 10618 H 985.021 5.14103 -1.03915 0
M  V30 10619 H 986.495 5.48318 0.636462 0
M  V30 10620 H 986.972 4.0891 1.60277 0
M  V30 10621 H 987.578 4.25256 -0.061419 0
M  V30 10622 N 985.893 0.34162 1.53853 0
M  V30 10623 C 987.304 -0.14269 1.86154 0
M  V30 10624 C 987.655 -1.50151 1.2629 0
M  V30 10625 O 986.78 -2.08601 0.575735 0
M  V30 10626 C 987.375 -0.265691 3.37757 0
M  V30 10627 C 985.934 -0.694231 3.69942 0
M  V30 10628 C 985.081 0.173195 2.76759 0
M  V30 10629 H 988.032 0.561284 1.48443 0
M  V30 10630 H 988.053 -1.09352 3.64448 0
M  V30 10631 H 987.565 0.723424 3.81298 0
M  V30 10632 H 985.666 -1.69244 3.31945 0
M  V30 10633 H 985.779 -0.485461 4.76634 0
M  V30 10634 H 984.143 -0.35416 2.52226 0
M  V30 10635 H 984.926 1.15941 3.23129 0
M  V30 10636 N 987.371 -1.57444 0.0701946 0
M  V30 10637 C 988.782 -1.80875 -0.462709 0
M  V30 10638 C 989.133 -0.983975 -1.69742 0
M  V30 10639 O 988.258 -0.206027 -2.15417 0
M  V30 10640 C 988.853 -3.28062 -0.84623 0
M  V30 10641 C 987.412 -3.52345 -1.32401 0
M  V30 10642 C 986.559 -2.7558 -0.308399 0
M  V30 10643 H 989.51 -1.55917 0.295907 0
M  V30 10644 H 989.531 -3.40023 -1.70776 0
M  V30 10645 H 989.043 -3.88064 0.0526033 0
M  V30 10646 H 987.144 -2.97645 -2.24139 0
M  V30 10647 H 987.257 -4.6104 -1.30304 0
M  V30 10648 H 985.621 -2.4229 -0.785337 0
M  V30 10649 H 986.404 -3.38319 0.582679 0
M  V30 10650 N 988.849 0.203349 -1.56283 0
M  V30 10651 C 990.26 0.768764 -1.70138 0
M  V30 10652 C 990.611 1.8421 -0.675358 0
M  V30 10653 O 989.736 2.15732 0.1699 0
M  V30 10654 C 990.331 1.40123 -3.08466 0
M  V30 10655 C 988.89 1.91382 -3.24114 0
M  V30 10656 C 988.037 0.780685 -2.66084 0
M  V30 10657 H 990.988 -0.0215997 -1.58685 0
M  V30 10658 H 991.009 2.27046 -3.05336 0
M  V30 10659 H 990.521 0.619805 -3.83119 0
M  V30 10660 H 988.622 2.7227 -2.54362 0
M  V30 10661 H 988.735 2.08128 -4.31531 0
M  V30 10662 H 987.099 1.19281 -2.25042 0
M  V30 10663 H 987.882 0.0116351 -3.43298 0
M  V30 10664 N 990.327 1.50405 0.470755 0
M  V30 10665 C 991.604 1.51929 1.23195 0
M  V30 10666 C 991.984 0.264159 2.09441 0
M  V30 10667 O 991.332 -0.752395 2.15757 0
M  V30 10668 C 991.542 2.81521 2.06269 0
M  V30 10669 C 992.89 3.32195 2.64446 0
M  V30 10670 O 993.914 2.82845 2.16511 0
M  V30 10671 O 992.773 4.18221 3.51786 0
M  V30 10672 H 989.867 0.609411 0.559059 0
M  V30 10673 H 992.413 1.62695 0.482549 0
M  V30 10674 H 991.185 3.64346 1.42715 0
M  V30 10675 H 990.808 2.7376 2.88342 0
M  V30 10676 N 991.805 -0.723954 1.39988 0
M  V30 10677 C 993.03 -1.5182 1.41299 0
M  V30 10678 C 993.455 -1.88096 0.0122636 0
M  V30 10679 O 992.813 -1.52687 -0.977559 0
M  V30 10680 C 992.861 -2.77532 2.30235 0
M  V30 10681 O 991.965 -3.73903 1.73984 0
M  V30 10682 H 991.306 -0.458058 0.480707 0
M  V30 10683 H 993.836 -0.892291 1.84118 0
M  V30 10684 H 993.846 -3.2615 2.45132 0
M  V30 10685 H 992.521 -2.50462 3.32026 0
M  V30 10686 H 991.098 -3.32715 1.68389 0
M  V30 10687 N 993.283 -1.25346 -0.955304 0
M  V30 10688 C 994.531 -1.09837 -1.69647 0
M  V30 10689 C 994.852 0.361425 -1.91621 0
M  V30 10690 O 994.122 1.25666 -1.50283 0
M  V30 10691 H 992.702 -0.403467 -0.628668 0
M  V30 10692 H 995.364 -1.57459 -1.14859 0
M  V30 10693 H 994.46 -1.60616 -2.67598 0
M  V30 10694 N 994.761 1.15782 -1.06922 0
M  V30 10695 C 996.172 1.68062 -0.813144 0
M  V30 10696 C 996.523 1.84681 0.662374 0
M  V30 10697 O 995.648 1.54696 1.51321 0
M  V30 10698 C 996.243 3.05273 -1.46949 0
M  V30 10699 C 994.802 3.54647 -1.26104 0
M  V30 10700 C 993.949 2.30477 -1.54194 0
M  V30 10701 H 996.9 1.00056 -1.23185 0
M  V30 10702 H 996.921 3.69986 -0.888308 0
M  V30 10703 H 996.433 2.93145 -2.54337 0
M  V30 10704 H 994.534 3.72024 -0.20718 0
M  V30 10705 H 994.647 4.36354 -1.97819 0
M  V30 10706 H 993.011 2.35803 -0.96276 0
M  V30 10707 H 993.794 2.2094 -2.62755 0
M  V30 10708 N 996.239 0.8527 1.3254 0
M  V30 10709 C 997.169 0.311234 2.31416 0
M  V30 10710 C 998.15 -0.588557 1.59593 0
M  V30 10711 O 999.335 -0.509211 1.87405 0
M  V30 10712 C 996.465 -0.502892 3.4364 0
M  V30 10713 C 995.419 0.302296 4.26931 0
M  V30 10714 C 994.745 -0.636445 5.30899 0
M  V30 10715 C 996.045 1.52697 4.99481 0
M  V30 10716 H 997.739 1.13742 2.76953 0
M  V30 10717 H 995.285 0.548389 1.33149 0
M  V30 10718 H 997.238 -0.892092 4.11849 0
M  V30 10719 H 995.962 -1.36242 2.96826 0
M  V30 10720 H 994.621 0.673226 3.60365 0
M  V30 10721 H 994.269 -1.49277 4.80339 0
M  V30 10722 H 993.969 -0.101716 5.87512 0
M  V30 10723 H 995.493 -1.02286 6.01972 0
M  V30 10724 H 996.907 1.21017 5.60382 0
M  V30 10725 H 995.304 1.9995 5.65809 0
M  V30 10726 H 996.374 2.28929 4.27457 0
M  V30 10727 N 997.718 -1.45297 0.610449 0
M  V30 10728 C 998.681 -2.28995 -0.0968194 0
M  V30 10729 C 999.681 -1.39923 -0.792353 0
M  V30 10730 O 1000.87 -1.62014 -0.64008 0
M  V30 10731 C 998.003 -3.21013 -1.14731 0
M  V30 10732 H 999.196 -2.93012 0.639082 0
M  V30 10733 H 996.749 -1.51867 0.369624 0
M  V30 10734 H 997.484 -2.61803 -1.91388 0
M  V30 10735 H 997.269 -3.86628 -0.652753 0
M  V30 10736 H 998.759 -3.8394 -1.64256 0
M  V30 10737 N 999.196 -0.349774 -1.5367 0
M  V30 10738 C 1000.14 0.504121 -2.25227 0
M  V30 10739 C 1001.11 1.09048 -1.2529 0
M  V30 10740 O 1002.3 1.12594 -1.54037 0
M  V30 10741 C 999.438 1.64601 -3.03316 0
M  V30 10742 C 998.551 1.08635 -4.18118 0
M  V30 10743 C 997.686 2.19605 -4.83681 0
M  V30 10744 C 996.725 1.61023 -5.90541 0
M  V30 10745 N 995.862 2.6576 -6.49858 0
M  V30 10746 H 1000.7 -0.112621 -2.97787 0
M  V30 10747 H 998.239 -0.0673503 -1.46946 0
M  V30 10748 H 1000.2 2.31836 -3.46854 0
M  V30 10749 H 998.827 2.23364 -2.33041 0
M  V30 10750 H 997.879 0.304748 -3.79177 0
M  V30 10751 H 999.191 0.617911 -4.94958 0
M  V30 10752 H 998.345 2.94693 -5.30322 0
M  V30 10753 H 997.084 2.69795 -4.06278 0
M  V30 10754 H 996.089 0.844428 -5.43277 0
M  V30 10755 H 997.314 1.11677 -6.69855 0
M  V30 10756 H 995.26 3.15193 -5.75317 0
M  V30 10757 H 995.177 2.23557 -7.2219 0
M  V30 10758 H 996.445 3.40598 -7.01151 0
M  V30 10759 N 1000.67 1.57404 -0.0785433 0
M  V30 10760 C 1001.95 1.85163 0.630389 0
M  V30 10761 C 1002.33 0.972295 1.87376 0
M  V30 10762 O 1001.68 0.0403375 2.28464 0
M  V30 10763 C 1001.89 3.35491 0.961604 0
M  V30 10764 C 1003.24 4.0316 1.33219 0
M  V30 10765 O 1004.26 3.40276 1.05313 0
M  V30 10766 O 1003.12 5.14086 1.85412 0
M  V30 10767 H 1000.21 0.765169 0.31376 0
M  V30 10768 H 1002.76 1.69343 -0.109986 0
M  V30 10769 H 1001.53 3.91221 0.0788113 0
M  V30 10770 H 1001.15 3.56598 1.75852 0
M  V30 10771 N 1002.15 -0.195058 1.56388 0
M  V30 10772 C 1003.43 -0.941335 1.71459 0
M  V30 10773 C 1003.81 -2.01375 0.633336 0
M  V30 10774 O 1003.16 -2.25715 -0.35567 0
M  V30 10775 C 1003.37 -1.52772 3.13786 0
M  V30 10776 C 1004.71 -2.00983 3.7402 0
M  V30 10777 O 1005.74 -1.62614 3.16915 0
M  V30 10778 O 1004.6 -2.71586 4.7424 0
M  V30 10779 H 1001.69 -0.441451 0.699321 0
M  V30 10780 H 1004.24 -0.184752 1.68691 0
M  V30 10781 H 1003.01 -0.754699 3.83953 0
M  V30 10782 H 1002.63 -2.34914 3.20782 0
M  V30 10783 N 1003.63 -1.50653 -0.462772 0
M  V30 10784 C 1005.05 -1.38263 -0.797213 0
M  V30 10785 C 1005.25 -0.445172 -1.96521 0
M  V30 10786 O 1004.3 0.10913 -2.52264 0
M  V30 10787 C 1005.61 -2.798 -1.10146 0
M  V30 10788 C 1007.16 -2.88774 -1.20742 0
M  V30 10789 C 1007.64 -4.31163 -1.54476 0
M  V30 10790 N 1009.13 -4.34152 -1.61451 0
M  V30 10791 C 1009.86 -5.4133 -1.89074 0
M  V30 10792 N 1009.36 -6.58705 -2.1466 0
M  V30 10793 N 1011.15 -5.28783 -1.90645 0
M  V30 10794 H 1003.3 -2.10172 0.30684 0
M  V30 10795 H 1005.57 -0.945046 0.0747862 0
M  V30 10796 H 1005.27 -3.50276 -0.316207 0
M  V30 10797 H 1005.15 -3.17559 -2.03559 0
M  V30 10798 H 1007.53 -2.18512 -1.98334 0
M  V30 10799 H 1007.61 -2.54547 -0.252904 0
M  V30 10800 H 1007.26 -5.01965 -0.774207 0
M  V30 10801 H 1007.19 -4.62883 -2.51092 0
M  V30 10802 H 1009.68 -3.49519 -1.43684 0
M  V30 10803 H 1009.99 -7.36192 -2.35035 0
M  V30 10804 H 1008.34 -6.61866 -2.12035 0
M  V30 10805 H 1011.53 -4.36078 -1.70158 0
M  V30 10806 H 1011.7 -6.12396 -2.11836 0
M  V30 10807 N 1005.11 0.71652 -1.4037 0
M  V30 10808 C 1006.07 1.81231 -1.40313 0
M  V30 10809 C 1007.07 1.58032 -0.297087 0
M  V30 10810 O 1008.26 1.65091 -0.555944 0
M  V30 10811 C 1005.39 3.19308 -1.19395 0
M  V30 10812 H 1006.59 1.8268 -2.3784 0
M  V30 10813 H 1004.14 0.922062 -1.26205 0
M  V30 10814 H 1004.87 3.2351 -0.226252 0
M  V30 10815 H 1004.66 3.37546 -1.99512 0
M  V30 10816 H 1006.15 3.99339 -1.22141 0
M  V30 10817 N 1006.59 1.25851 0.948643 0
M  V30 10818 C 1007.55 1.0683 2.0278 0
M  V30 10819 C 1008.55 0.0191016 1.60789 0
M  V30 10820 O 1009.74 0.261836 1.72221 0
M  V30 10821 C 1006.87 0.623318 3.35153 0
M  V30 10822 H 1008.06 2.02635 2.21086 0
M  V30 10823 H 1005.62 1.08343 1.12657 0
M  V30 10824 H 1006.35 -0.337053 3.22544 0
M  V30 10825 H 1006.14 1.38082 3.66982 0
M  V30 10826 H 1007.63 0.511854 4.14451 0
M  V30 10827 N 1008.06 -1.15214 1.07534 0
M  V30 10828 C 1009.48 -1.38031 0.801228 0
M  V30 10829 C 1009.68 -1.92556 -0.593672 0
M  V30 10830 O 1008.74 -2.1325 -1.35206 0
M  V30 10831 C 1010.05 -2.34958 1.87657 0
M  V30 10832 C 1011.6 -2.48617 1.90154 0
M  V30 10833 C 1012.07 -3.48837 2.96777 0
M  V30 10834 N 1013.56 -3.56374 2.95892 0
M  V30 10835 C 1014.3 -4.33746 3.75036 0
M  V30 10836 N 1013.79 -5.14435 4.64036 0
M  V30 10837 N 1015.59 -4.28853 3.63375 0
M  V30 10838 H 1007.74 -0.781639 1.97495 0
M  V30 10839 H 1010 -0.406243 0.856546 0
M  V30 10840 H 1009.71 -2.02013 2.87895 0
M  V30 10841 H 1009.58 -3.3476 1.73827 0
M  V30 10842 H 1011.97 -2.80859 0.905666 0
M  V30 10843 H 1012.05 -1.48808 2.08062 0
M  V30 10844 H 1011.69 -3.1733 3.96565 0
M  V30 10845 H 1011.62 -4.48406 2.76116 0
M  V30 10846 H 1014.11 -2.98784 2.31379 0
M  V30 10847 H 1014.43 -5.70722 5.21053 0
M  V30 10848 H 1012.77 -5.13734 4.68084 0
M  V30 10849 H 1015.96 -3.64882 2.93221 0
M  V30 10850 H 1016.14 -4.88903 4.25298 0
M  V30 10851 N 1009.54 -0.859717 -1.32086 0
M  V30 10852 C 1010.79 -0.464662 -1.96686 0
M  V30 10853 C 1011.11 0.98412 -1.68345 0
M  V30 10854 O 1010.38 1.68847 -0.993361 0
M  V30 10855 H 1008.96 -0.168838 -0.727669 0
M  V30 10856 H 1011.62 -1.09726 -1.61079 0
M  V30 10857 H 1010.72 -0.613904 -3.06003 0
M  V30 10858 N 1011.02 1.44971 -0.618145 0
M  V30 10859 C 1011.95 2.28815 0.132751 0
M  V30 10860 C 1012.97 1.40551 0.821535 0
M  V30 10861 O 1014.15 1.64827 0.685155 0
M  V30 10862 C 1011.25 3.1658 1.20955 0
M  V30 10863 C 1010.43 4.33184 0.605821 0
M  V30 10864 C 1009.49 5.0208 1.57488 0
M  V30 10865 O 1008.51 5.58528 1.09706 0
M  V30 10866 N 1009.71 5.02335 2.9093 0
M  V30 10867 H 1012.48 2.939 -0.58674 0
M  V30 10868 H 1010.04 1.55276 -0.458375 0
M  V30 10869 H 1012.03 3.59535 1.85787 0
M  V30 10870 H 1010.6 2.53333 1.83143 0
M  V30 10871 H 1009.82 3.93581 -0.220827 0
M  V30 10872 H 1011.11 5.08471 0.182883 0
M  V30 10873 H 1010.51 4.57783 3.32342 0
M  V30 10874 H 1009.07 5.49119 3.51157 0
M  V30 10875 N 1012.5 0.357919 1.53482 0
M  V30 10876 C 1013.91 -0.122938 1.86295 0
M  V30 10877 C 1014.26 -1.48803 1.27875 0
M  V30 10878 O 1013.39 -2.07978 0.597828 0
M  V30 10879 C 1013.98 -0.229853 3.38019 0
M  V30 10880 C 1012.54 -0.654955 3.70658 0
M  V30 10881 C 1011.69 0.202539 2.76559 0
M  V30 10882 H 1014.64 0.576997 1.47839 0
M  V30 10883 H 1014.66 -1.05481 3.65587 0
M  V30 10884 H 1014.17 0.763825 3.80509 0
M  V30 10885 H 1012.27 -1.65714 3.33721 0
M  V30 10886 H 1012.38 -0.43488 4.77122 0
M  V30 10887 H 1010.75 -0.327388 2.52587 0
M  V30 10888 H 1011.53 1.19361 3.21882 0
M  V30 10889 N 1013.98 -1.5736 0.0868897 0
M  V30 10890 C 1014.94 -2.12436 -0.860439 0
M  V30 10891 C 1015.94 -1.05175 -1.21634 0
M  V30 10892 O 1017.13 -1.31098 -1.14713 0
M  V30 10893 C 1014.26 -2.63818 -2.159 0
M  V30 10894 H 1015.45 -2.97453 -0.382346 0
M  V30 10895 H 1013.01 -1.55458 -0.162009 0
M  V30 10896 H 1013.74 -1.82298 -2.68212 0
M  V30 10897 H 1013.53 -3.42234 -1.91359 0
M  V30 10898 H 1015.02 -3.06452 -2.83685 0
M  V30 10899 N 1015.45 0.186762 -1.56489 0
M  V30 10900 C 1016.68 0.925916 -1.85584 0
M  V30 10901 C 1017.1 1.75708 -0.671446 0
M  V30 10902 O 1016.46 1.7728 0.379687 0
M  V30 10903 C 1016.51 1.79107 -3.12975 0
M  V30 10904 O 1015.61 2.89088 -2.94112 0
M  V30 10905 H 1014.96 0.260275 -0.610863 0
M  V30 10906 H 1017.49 0.189561 -2.0372 0
M  V30 10907 H 1017.5 2.19408 -3.43983 0
M  V30 10908 H 1016.17 1.18044 -3.98796 0
M  V30 10909 H 1014.75 2.52482 -2.74422 0
M  V30 10910 N 1016.93 1.50896 0.454776 0
M  V30 10911 C 1018.21 1.53227 1.21576 0
M  V30 10912 C 1018.59 0.286358 2.09149 0
M  V30 10913 O 1017.94 -0.729469 2.16543 0
M  V30 10914 C 1018.15 2.83693 2.03271 0
M  V30 10915 C 1019.5 3.34981 2.60908 0
M  V30 10916 O 1020.52 2.85126 2.13499 0
M  V30 10917 O 1019.38 4.21929 3.4733 0
M  V30 10918 H 1016.47 0.615306 0.552564 0
M  V30 10919 H 1019.02 1.63197 0.465266 0
M  V30 10920 H 1017.79 3.65839 1.38843 0
M  V30 10921 H 1017.41 2.76803 2.85422 0
M  V30 10922 N 1018.41 -0.709066 1.40748 0
M  V30 10923 C 1019.64 -1.49808 1.42707 0
M  V30 10924 C 1020.05 -1.88778 0.0285574 0
M  V30 10925 O 1019.41 -1.55883 -0.949035 0
M  V30 10926 C 1019.46 -2.76926 2.32366 0
M  V30 10927 O 1019.18 -2.39602 3.66773 0
M  V30 10928 C 1020.68 -3.70773 2.42986 0
M  V30 10929 H 1017.9 -0.462106 0.486517 0
M  V30 10930 H 1020.45 -0.874135 1.84876 0
M  V30 10931 H 1018.6 -3.3559 1.93541 0
M  V30 10932 H 1019.02 -3.21443 4.14457 0
M  V30 10933 H 1020.49 -4.56789 3.09916 0
M  V30 10934 H 1020.97 -4.14332 1.45691 0
M  V30 10935 H 1021.57 -3.18019 2.8239 0
M  V30 10936 N 1019.89 -1.26353 -0.941956 0
M  V30 10937 C 1021.17 -1.02601 -1.6653 0
M  V30 10938 C 1021.55 0.44381 -2.06382 0
M  V30 10939 O 1020.89 1.42399 -1.78703 0
M  V30 10940 C 1021.1 -1.97401 -2.87809 0
M  V30 10941 C 1022.45 -2.25967 -3.59478 0
M  V30 10942 O 1023.48 -1.95261 -2.97912 0
M  V30 10943 O 1022.34 -2.78244 -4.70364 0
M  V30 10944 H 1019.43 -0.39007 -0.729228 0
M  V30 10945 H 1021.98 -1.37559 -0.993754 0
M  V30 10946 H 1020.75 -2.9659 -2.55245 0
M  V30 10947 H 1020.37 -1.62918 -3.62689 0
M  V30 10948 N 1021.37 1.14642 -1.08144 0
M  V30 10949 C 1022.62 1.8525 -0.807885 0
M  V30 10950 C 1022.94 1.83194 0.668213 0
M  V30 10951 O 1022.21 1.27848 1.48431 0
M  V30 10952 H 1020.79 0.685909 -0.295868 0
M  V30 10953 H 1023.45 1.38935 -1.36686 0
M  V30 10954 H 1022.54 2.90155 -1.14964 0
M  V30 10955 N 1022.85 0.866709 1.31628 0
M  V30 10956 C 1023.78 0.335762 2.31073 0
M  V30 10957 C 1024.76 -0.571597 1.60209 0
M  V30 10958 O 1025.94 -0.489306 1.87935 0
M  V30 10959 C 1023.07 -0.466416 3.44154 0
M  V30 10960 C 1022.03 0.347561 4.26586 0
M  V30 10961 C 1021.35 -0.5801 5.31544 0
M  V30 10962 C 1022.65 1.57986 4.97833 0
M  V30 10963 H 1024.35 1.16673 2.75731 0
M  V30 10964 H 1021.89 0.56248 1.3256 0
M  V30 10965 H 1023.84 -0.84836 4.12772 0
M  V30 10966 H 1022.57 -1.33086 2.98254 0
M  V30 10967 H 1021.23 0.71141 3.59631 0
M  V30 10968 H 1020.88 -1.44174 4.81895 0
M  V30 10969 H 1020.58 -0.0393965 5.87587 0
M  V30 10970 H 1022.1 -0.958958 6.03023 0
M  V30 10971 H 1023.51 1.26954 5.59067 0
M  V30 10972 H 1021.91 2.05939 5.63657 0
M  V30 10973 H 1022.98 2.3345 4.25005 0
M  V30 10974 N 1024.32 -1.44642 0.625825 0
M  V30 10975 C 1025.6 -1.9551 0.0593587 0
M  V30 10976 C 1025.98 -1.56792 -1.41349 0
M  V30 10977 O 1025.33 -0.839373 -2.12525 0
M  V30 10978 C 1025.54 -3.47902 0.276647 0
M  V30 10979 C 1026.89 -4.24271 0.167044 0
M  V30 10980 O 1027.91 -3.55594 0.207731 0
M  V30 10981 O 1026.77 -5.46458 0.0675 0
M  V30 10982 H 1023.86 -0.826612 -0.0253422 0
M  V30 10983 H 1026.41 -1.54718 0.697159 0
M  V30 10984 H 1025.18 -3.69115 1.29885 0
M  V30 10985 H 1024.8 -3.95628 -0.395547 0
M  V30 10986 N 1025.8 -0.366053 -1.5329 0
M  V30 10987 C 1027.03 0.226839 -2.06156 0
M  V30 10988 C 1027.45 1.41637 -1.23776 0
M  V30 10989 O 1026.81 1.7947 -0.256948 0
M  V30 10990 C 1026.86 0.597956 -3.55608 0
M  V30 10991 O 1025.96 1.69512 -3.75951 0
M  V30 10992 H 1025.3 0.0329156 -0.663184 0
M  V30 10993 H 1027.83 -0.526793 -1.97702 0
M  V30 10994 H 1027.84 0.868831 -3.98642 0
M  V30 10995 H 1026.52 -0.271838 -4.15011 0
M  V30 10996 H 1025.09 1.41976 -3.44815 0
M  V30 10997 N 1027.28 1.57312 -0.0952337 0
M  V30 10998 C 1028.53 1.94646 0.569284 0
M  V30 10999 C 1028.86 0.977152 1.67825 0
M  V30 11000 O 1028.13 0.0102318 1.94497 0
M  V30 11001 C 1028.42 3.42098 1.12433 0
M  V30 11002 C 1028.27 4.49795 0.0204016 0
M  V30 11003 C 1029.59 3.90866 2.02266 0
M  V30 11004 H 1026.71 0.707779 0.205469 0
M  V30 11005 H 1029.35 1.89274 -0.16597 0
M  V30 11006 H 1027.5 3.46807 1.75092 0
M  V30 11007 H 1029.17 4.57198 -0.613845 0
M  V30 11008 H 1027.41 4.28964 -0.645965 0
M  V30 11009 H 1028.09 5.50166 0.449579 0
M  V30 11010 H 1030.56 3.88311 1.49512 0
M  V30 11011 H 1029.44 4.94604 2.38029 0
M  V30 11012 H 1029.7 3.30167 2.9401 0
M  V30 11013 N 1028.76 -0.17846 1.56586 0
M  V30 11014 C 1029.67 -1.24115 1.9908 0
M  V30 11015 C 1030.68 -1.48854 0.901031 0
M  V30 11016 O 1031.86 -1.61142 1.2081 0
M  V30 11017 C 1028.92 -2.56187 2.33601 0
M  V30 11018 C 1027.99 -2.39373 3.56369 0
M  V30 11019 C 1027.22 -3.65147 3.89234 0
M  V30 11020 O 1027.44 -4.70024 3.23162 0
M  V30 11021 O 1026.38 -3.59683 4.82609 0
M  V30 11022 H 1030.2 -0.910482 2.89731 0
M  V30 11023 H 1027.79 -0.38477 1.4436 0
M  V30 11024 H 1029.67 -3.34109 2.56806 0
M  V30 11025 H 1028.34 -2.88847 1.46113 0
M  V30 11026 H 1027.25 -1.59506 3.38391 0
M  V30 11027 H 1028.58 -2.1164 4.44375 0
M  V30 11028 N 1030.24 -1.51135 -0.446768 0
M  V30 11029 C 1031.2 -1.71187 -1.52406 0
M  V30 11030 C 1032.2 -0.582037 -1.49897 0
M  V30 11031 O 1033.39 -0.849452 -1.52085 0
M  V30 11032 C 1030.52 -1.75962 -2.91976 0
M  V30 11033 H 1031.71 -2.67324 -1.35934 0
M  V30 11034 H 1029.27 -1.40982 -0.674813 0
M  V30 11035 H 1030 -0.816065 -3.13864 0
M  V30 11036 H 1029.79 -2.58065 -2.95203 0
M  V30 11037 H 1031.28 -1.93347 -3.70144 0
M  V30 11038 N 1031.71 0.701592 -1.41122 0
M  V30 11039 C 1032.68 1.79733 -1.42227 0
M  V30 11040 C 1033.68 1.57708 -0.313831 0
M  V30 11041 O 1034.87 1.64492 -0.573423 0
M  V30 11042 C 1032 3.18024 -1.22775 0
M  V30 11043 H 1033.19 1.80148 -2.39764 0
M  V30 11044 H 1030.74 0.908624 -1.27176 0
M  V30 11045 H 1031.48 3.23252 -0.260552 0
M  V30 11046 H 1031.26 3.35411 -2.0308 0
M  V30 11047 H 1032.75 3.98021 -1.2637 0
M  V30 11048 N 1033.19 1.2685 0.935242 0
M  V30 11049 C 1034.15 1.08975 2.01636 0
M  V30 11050 C 1035.15 0.0361543 1.60759 0
M  V30 11051 O 1036.34 0.280087 1.71934 0
M  V30 11052 C 1033.48 0.658831 3.34473 0
M  V30 11053 H 1034.67 2.04968 2.18925 0
M  V30 11054 H 1032.22 1.09531 1.11501 0
M  V30 11055 H 1032.96 -0.302824 3.22883 0
M  V30 11056 H 1032.74 1.41967 3.65497 0
M  V30 11057 H 1034.23 0.555783 4.13885 0
M  V30 11058 N 1034.67 -1.14067 1.0875 0
M  V30 11059 C 1036.08 -1.66747 0.839778 0
M  V30 11060 C 1036.43 -1.85711 -0.632909 0
M  V30 11061 O 1035.56 -1.57084 -1.48841 0
M  V30 11062 C 1036.15 -3.02896 1.51787 0
M  V30 11063 C 1034.71 -3.52596 1.3173 0
M  V30 11064 C 1033.86 -2.27994 1.57841 0
M  V30 11065 H 1036.81 -0.980838 1.24761 0
M  V30 11066 H 1036.83 -3.68526 0.947057 0
M  V30 11067 H 1036.34 -2.89062 2.58969 0
M  V30 11068 H 1034.44 -3.71647 0.266339 0
M  V30 11069 H 1034.56 -4.33151 2.04736 0
M  V30 11070 H 1032.92 -2.34241 1.00015 0
M  V30 11071 H 1033.7 -2.16732 2.66237 0
M  V30 11072 N 1036.15 -0.873678 -1.31166 0
M  V30 11073 C 1037.56 -0.53852 -1.78765 0
M  V30 11074 C 1037.91 0.944765 -1.71955 0
M  V30 11075 O 1037.04 1.73781 -1.28954 0
M  V30 11076 C 1037.63 -0.970749 -3.24595 0
M  V30 11077 C 1036.19 -0.687189 -3.70074 0
M  V30 11078 C 1035.34 -1.16001 -2.51871 0
M  V30 11079 H 1038.29 -1.05903 -1.18196 0
M  V30 11080 H 1038.31 -0.294966 -3.79355 0
M  V30 11081 H 1037.82 -2.05034 -3.29519 0
M  V30 11082 H 1035.92 0.380881 -3.70648 0
M  V30 11083 H 1036.03 -1.26682 -4.62048 0
M  V30 11084 H 1034.4 -0.579663 -2.48016 0
M  V30 11085 H 1035.18 -2.2471 -2.59539 0
M  V30 11086 N 1037.63 1.44308 -0.633487 0
M  V30 11087 C 1039.04 1.85387 -0.221009 0
M  V30 11088 C 1039.39 1.5301 1.22811 0
M  V30 11089 O 1038.51 0.969325 1.93476 0
M  V30 11090 C 1039.11 3.36497 -0.394331 0
M  V30 11091 C 1037.67 3.76382 -0.0363405 0
M  V30 11092 C 1036.81 2.68146 -0.706598 0
M  V30 11093 H 1039.77 1.34741 -0.83849 0
M  V30 11094 H 1039.79 3.78735 0.366026 0
M  V30 11095 H 1039.3 3.60031 -1.44911 0
M  V30 11096 H 1037.4 3.58463 1.01661 0
M  V30 11097 H 1037.51 4.77 -0.448045 0
M  V30 11098 H 1035.88 2.54306 -0.14168 0
M  V30 11099 H 1036.66 2.94512 -1.76401 0
M  V30 11100 N 1039.1 0.374177 1.53094 0
M  V30 11101 C 1040.35 -0.213981 2.00562 0
M  V30 11102 C 1040.67 -1.4916 1.26533 0
M  V30 11103 O 1041.87 -2.15889 1.64634 0
M  V30 11104 C 1040.33 -0.431876 3.57299 0
M  V30 11105 C 1039.94 0.831615 4.40214 0
M  V30 11106 C 1041.68 -0.977222 4.13099 0
M  V30 11107 C 1039.59 0.582831 5.88521 0
M  V30 11108 H 1038.52 -0.0837386 0.749336 0
M  V30 11109 H 1041.17 0.494245 1.76719 0
M  V30 11110 H 1039.55 -1.20158 3.7733 0
M  V30 11111 H 1040.72 1.60477 4.31953 0
M  V30 11112 H 1039.04 1.30081 3.9556 0
M  V30 11113 H 1041.64 -1.17881 5.21544 0
M  V30 11114 H 1041.98 -1.94189 3.68234 0
M  V30 11115 H 1042.51 -0.267473 3.969 0
M  V30 11116 H 1039.25 1.51807 6.37679 0
M  V30 11117 H 1038.77 -0.151666 5.99608 0
M  V30 11118 H 1040.45 0.211604 6.46654 0
M  V30 11119 N 1040.58 -1.57259 0.103575 0
M  V30 11120 C 1041.51 -2.17509 -0.84923 0
M  V30 11121 C 1042.49 -1.11079 -1.28824 0
M  V30 11122 O 1043.68 -1.39252 -1.35361 0
M  V30 11123 C 1040.81 -2.76221 -2.10522 0
M  V30 11124 C 1039.76 -3.88098 -1.80454 0
M  V30 11125 C 1039.09 -4.33549 -3.12952 0
M  V30 11126 C 1040.39 -5.10909 -1.08486 0
M  V30 11127 H 1042.08 -2.9738 -0.347217 0
M  V30 11128 H 1039.63 -1.43045 -0.165568 0
M  V30 11129 H 1041.58 -3.17024 -2.77621 0
M  V30 11130 H 1040.31 -1.93617 -2.63021 0
M  V30 11131 H 1038.96 -3.47847 -1.15749 0
M  V30 11132 H 1038.61 -3.47825 -3.63355 0
M  V30 11133 H 1038.31 -5.08984 -2.93614 0
M  V30 11134 H 1039.84 -4.76992 -3.81196 0
M  V30 11135 H 1041.25 -5.48828 -1.65711 0
M  V30 11136 H 1039.65 -5.91828 -0.992973 0
M  V30 11137 H 1040.72 -4.84851 -0.0690108 0
M  V30 11138 N 1042.06 0.170153 -1.56679 0
M  V30 11139 C 1043.29 0.90618 -1.86556 0
M  V30 11140 C 1043.71 1.74986 -0.690044 0
M  V30 11141 O 1043.07 1.77672 0.360862 0
M  V30 11142 C 1043.12 1.75777 -3.14857 0
M  V30 11143 O 1042.22 2.85952 -2.97162 0
M  V30 11144 H 1041.56 0.253781 -0.613589 0
M  V30 11145 H 1044.09 0.167943 -2.0391 0
M  V30 11146 H 1044.1 2.15747 -3.46291 0
M  V30 11147 H 1042.78 1.13807 -4.00026 0
M  V30 11148 H 1041.35 2.49557 -2.77084 0
M  V30 11149 N 1043.54 1.5137 0.438746 0
M  V30 11150 C 1044.76 1.68058 1.21537 0
M  V30 11151 C 1045.19 0.376787 1.84288 0
M  V30 11152 O 1044.55 -0.662911 1.68746 0
M  V30 11153 C 1044.59 2.79684 2.27616 0
M  V30 11154 O 1043.7 2.43189 3.33066 0
M  V30 11155 H 1043.04 0.560408 0.356144 0
M  V30 11156 H 1045.57 1.97926 0.518311 0
M  V30 11157 H 1045.58 3.03726 2.72423 0
M  V30 11158 H 1044.25 3.74293 1.81321 0
M  V30 11159 H 1042.83 2.29713 2.93746 0
M  V30 11160 N 1045.02 -0.694098 1.41492 0
M  V30 11161 C 1046.24 -1.48789 1.44488 0
M  V30 11162 C 1046.67 -1.88028 0.0521588 0
M  V30 11163 O 1046.02 -1.54727 -0.944952 0
M  V30 11164 C 1046.07 -2.72586 2.3607 0
M  V30 11165 O 1045.18 -3.70128 1.81876 0
M  V30 11166 H 1044.52 -0.447758 0.490315 0
M  V30 11167 H 1047.05 -0.853036 1.85969 0
M  V30 11168 H 1047.06 -3.20877 2.51995 0
M  V30 11169 H 1045.73 -2.43363 3.37264 0
M  V30 11170 H 1044.31 -3.29069 1.75408 0
M  V30 11171 N 1046.49 -1.27344 -0.928501 0
M  V30 11172 C 1047.74 -1.13804 -1.67859 0
M  V30 11173 C 1048.07 0.31555 -1.91619 0
M  V30 11174 O 1047.35 1.23087 -1.50599 0
M  V30 11175 C 1047.63 -1.9213 -3.04562 0
M  V30 11176 C 1047.48 -3.45468 -2.88048 0
M  V30 11177 C 1048.8 -1.72513 -4.04879 0
M  V30 11178 H 1045.92 -0.414796 -0.609191 0
M  V30 11179 H 1048.56 -1.5649 -1.07753 0
M  V30 11180 H 1046.71 -1.55853 -3.55868 0
M  V30 11181 H 1048.39 -3.9157 -2.43865 0
M  V30 11182 H 1046.63 -3.71849 -2.23407 0
M  V30 11183 H 1047.3 -3.95515 -3.85061 0
M  V30 11184 H 1049.78 -2.04143 -3.62581 0
M  V30 11185 H 1048.65 -2.29713 -4.98521 0
M  V30 11186 H 1048.91 -0.672856 -4.3695 0
M  V30 11187 N 1047.97 1.13488 -1.09353 0
M  V30 11188 C 1048.88 2.2248 -0.744307 0
M  V30 11189 C 1049.9 1.72145 0.253404 0
M  V30 11190 O 1051.07 2.01176 0.0949339 0
M  V30 11191 C 1048.14 3.46286 -0.16928 0
M  V30 11192 C 1047.2 4.11516 -1.22284 0
M  V30 11193 C 1046.43 5.29412 -0.675161 0
M  V30 11194 O 1046.66 5.68185 0.502182 0
M  V30 11195 O 1045.59 5.8467 -1.42983 0
M  V30 11196 H 1049.42 2.54723 -1.65378 0
M  V30 11197 H 1047 1.21607 -0.867879 0
M  V30 11198 H 1048.88 4.2114 0.14811 0
M  V30 11199 H 1047.56 3.15745 0.713214 0
M  V30 11200 H 1046.47 3.38492 -1.59292 0
M  V30 11201 H 1047.8 4.46186 -2.07796 0
M  V30 11202 N 1049.45 0.880621 1.30701 0
M  V30 11203 C 1050.7 0.506967 1.96981 0
M  V30 11204 C 1051.05 -0.932694 1.68281 0
M  V30 11205 O 1050.35 -1.64954 0.974709 0
M  V30 11206 C 1050.54 0.713203 3.50212 0
M  V30 11207 C 1050.37 2.17136 3.93805 0
M  V30 11208 C 1049.14 2.81508 4.19621 0
M  V30 11209 C 1051.34 3.14473 4.06954 0
M  V30 11210 N 1049.32 4.17965 4.49643 0
M  V30 11211 C 1050.69 4.3599 4.40809 0
M  V30 11212 C 1052.74 3.1032 3.89366 0
M  V30 11213 C 1051.45 5.53889 4.58911 0
M  V30 11214 C 1053.47 4.27487 4.08667 0
M  V30 11215 C 1052.84 5.47769 4.42864 0
M  V30 11216 H 1048.93 0.234756 0.745931 0
M  V30 11217 H 1051.52 1.13745 1.5802 0
M  V30 11218 H 1049.69 0.112239 3.88238 0
M  V30 11219 H 1051.42 0.30688 4.03535 0
M  V30 11220 H 1048.18 2.32399 4.12659 0
M  V30 11221 H 1048.6 4.88425 4.68796 0
M  V30 11222 H 1053.24 2.18428 3.62007 0
M  V30 11223 H 1050.96 6.46289 4.85114 0
M  V30 11224 H 1054.55 4.25738 3.96533 0
M  V30 11225 H 1053.43 6.36922 4.57493 0
M  V30 11226 N 1050.93 -1.4397 0.641131 0
M  V30 11227 C 1052.15 -2.06818 0.155318 0
M  V30 11228 C 1052.58 -1.47665 -1.16519 0
M  V30 11229 O 1051.94 -0.58192 -1.71707 0
M  V30 11230 C 1051.99 -3.60542 0.0647537 0
M  V30 11231 O 1051.09 -4.00674 -0.976447 0
M  V30 11232 H 1050.43 -0.657962 0.0893404 0
M  V30 11233 H 1052.96 -1.84678 0.88064 0
M  V30 11234 H 1052.97 -4.07816 -0.122552 0
M  V30 11235 H 1051.65 -4.02975 1.02878 0
M  V30 11236 H 1050.22 -3.65013 -0.762905 0
M  V30 11237 N 1052.41 -0.382291 -1.52893 0
M  V30 11238 C 1053.64 0.202408 -2.05908 0
M  V30 11239 C 1054.05 1.4109 -1.25456 0
M  V30 11240 O 1053.41 1.80027 -0.29942 0
M  V30 11241 C 1053.46 0.579452 -3.56826 0
M  V30 11242 O 1053.18 -0.58102 -4.3423 0
M  V30 11243 C 1054.68 1.22076 -4.2616 0
M  V30 11244 H 1051.9 0.0321859 -0.670228 0
M  V30 11245 H 1054.44 -0.545494 -1.9709 0
M  V30 11246 H 1052.6 1.27726 -3.65739 0
M  V30 11247 H 1053.01 -0.272693 -5.23791 0
M  V30 11248 H 1054.49 1.435 -5.33021 0
M  V30 11249 H 1054.96 2.18605 -3.80931 0
M  V30 11250 H 1055.57 0.563922 -4.21545 0
M  V30 11251 N 1053.89 1.57202 -0.111913 0
M  V30 11252 C 1055.11 1.99723 0.559054 0
M  V30 11253 C 1055.54 0.990968 1.59879 0
M  V30 11254 O 1054.89 -0.038311 1.8126 0
M  V30 11255 C 1054.94 3.41151 1.16826 0
M  V30 11256 O 1054.05 3.43383 2.2839 0
M  V30 11257 H 1053.39 0.649004 0.140319 0
M  V30 11258 H 1055.92 2.03637 -0.198295 0
M  V30 11259 H 1055.93 3.79208 1.50551 0
M  V30 11260 H 1054.6 4.13907 0.406637 0
M  V30 11261 H 1053.18 3.17138 1.96158 0
M  V30 11262 N 1055.36 -0.161842 1.56767 0
M  V30 11263 C 1056.61 -0.875192 1.82167 0
M  V30 11264 C 1056.93 -1.82367 0.690444 0
M  V30 11265 O 1056.2 -1.93756 -0.289023 0
M  V30 11266 H 1054.78 -0.326178 0.672024 0
M  V30 11267 H 1057.44 -0.159392 1.94247 0
M  V30 11268 H 1056.54 -1.44639 2.76561 0
M  V30 11269 N 1056.84 -1.516 -0.430713 0
M  V30 11270 C 1057.75 -1.76247 -1.54836 0
M  V30 11271 C 1058.77 -0.646985 -1.61524 0
M  V30 11272 O 1059.94 -0.929987 -1.78643 0
M  V30 11273 C 1057.01 -1.88833 -2.90763 0
M  V30 11274 C 1056.07 -3.12701 -2.94137 0
M  V30 11275 C 1055.3 -3.24676 -4.23581 0
M  V30 11276 O 1055.53 -2.42429 -5.16318 0
M  V30 11277 O 1054.46 -4.17697 -4.33374 0
M  V30 11278 H 1058.29 -2.71069 -1.3695 0
M  V30 11279 H 1055.87 -1.36182 -0.614396 0
M  V30 11280 H 1057.75 -1.99057 -3.71422 0
M  V30 11281 H 1056.43 -0.971987 -3.08762 0
M  V30 11282 H 1055.33 -3.0795 -2.1241 0
M  V30 11283 H 1056.67 -4.04045 -2.81084 0
M  V30 11284 N 1058.32 0.686584 -1.41858 0
M  V30 11285 C 1059.74 0.998283 -1.24525 0
M  V30 11286 C 1059.94 2.01006 -0.141007 0
M  V30 11287 O 1058.99 2.47667 0.491648 0
M  V30 11288 C 1060.3 1.51432 -2.59786 0
M  V30 11289 C 1061.85 1.6327 -2.67043 0
M  V30 11290 C 1062.33 2.18274 -4.02642 0
M  V30 11291 N 1063.82 2.25622 -4.04535 0
M  V30 11292 C 1064.55 2.69229 -5.06264 0
M  V30 11293 N 1064.05 3.12375 -6.1838 0
M  V30 11294 N 1065.84 2.68873 -4.93623 0
M  V30 11295 H 1057.99 0.0164825 -2.12394 0
M  V30 11296 H 1060.26 0.0698613 -0.945422 0
M  V30 11297 H 1059.96 0.845426 -3.41388 0
M  V30 11298 H 1059.84 2.49502 -2.82894 0
M  V30 11299 H 1062.22 2.29269 -1.85794 0
M  V30 11300 H 1062.3 0.637221 -2.47736 0
M  V30 11301 H 1061.95 1.52887 -4.84343 0
M  V30 11302 H 1061.88 3.18591 -4.19294 0
M  V30 11303 H 1064.37 1.95186 -3.23591 0
M  V30 11304 H 1064.68 3.44301 -6.91864 0
M  V30 11305 H 1063.03 3.10262 -6.21902 0
M  V30 11306 H 1066.22 2.34521 -4.05114 0
M  V30 11307 H 1066.39 3.02539 -5.7304 0
M  V30 11308 N 1059.8 1.27835 0.921735 0
M  V30 11309 C 1061.02 1.17465 1.70929 0
M  V30 11310 C 1061.45 -0.264171 1.86236 0
M  V30 11311 O 1060.81 -1.19124 1.36671 0
M  V30 11312 C 1060.85 1.8697 3.08342 0
M  V30 11313 O 1059.96 1.17173 3.95404 0
M  V30 11314 H 1059.3 0.408206 0.523702 0
M  V30 11315 H 1061.83 1.69013 1.15307 0
M  V30 11316 H 1061.84 1.94564 3.58621 0
M  V30 11317 H 1060.51 2.91633 2.96518 0
M  V30 11318 H 1059.09 1.17688 3.53842 0
M  V30 11319 N 1061.28 -1.12907 1.09954 0
M  V30 11320 C 1062.24 -2.16673 0.747364 0
M  V30 11321 C 1063.24 -1.59208 -0.225741 0
M  V30 11322 O 1064.43 -1.742 -0.00322482 0
M  V30 11323 C 1061.56 -3.40735 0.106169 0
M  V30 11324 H 1062.75 -2.49341 1.6664 0
M  V30 11325 H 1060.31 -1.27828 0.899421 0
M  V30 11326 H 1061.04 -3.13661 -0.82384 0
M  V30 11327 H 1060.83 -3.83717 0.806434 0
M  V30 11328 H 1062.32 -4.17414 -0.12464 0
M  V30 11329 N 1062.75 -0.88754 -1.30232 0
M  V30 11330 C 1063.98 -0.521562 -2.00735 0
M  V30 11331 C 1064.4 0.883247 -1.66073 0
M  V30 11332 O 1063.76 1.58581 -0.878731 0
M  V30 11333 C 1063.81 -0.706521 -3.53611 0
M  V30 11334 O 1062.91 0.246447 -4.11663 0
M  V30 11335 H 1062.25 -0.205216 -0.631492 0
M  V30 11336 H 1064.78 -1.19579 -1.66018 0
M  V30 11337 H 1064.79 -0.606501 -4.03467 0
M  V30 11338 H 1063.47 -1.73076 -3.78177 0
M  V30 11339 H 1062.05 0.0999062 -3.72766 0
M  V30 11340 N 1064.23 1.43628 -0.648757 0
M  V30 11341 C 1065.2 2.29172 0.0360713 0
M  V30 11342 C 1066.2 1.41974 0.754976 0
M  V30 11343 O 1067.39 1.63654 0.5969 0
M  V30 11344 C 1064.52 3.23942 1.0618 0
M  V30 11345 H 1065.71 2.91214 -0.716544 0
M  V30 11346 H 1063.26 1.50833 -0.409759 0
M  V30 11347 H 1064 2.66786 1.8438 0
M  V30 11348 H 1063.78 3.88223 0.550016 0
M  V30 11349 H 1065.27 3.8816 1.54019 0
M  V30 11350 N 1065.71 0.390394 1.52688 0
M  V30 11351 C 1067.13 0.0404028 1.59549 0
M  V30 11352 C 1067.33 -1.44503 1.40432 0
M  V30 11353 O 1066.38 -2.20968 1.22187 0
M  V30 11354 C 1067.7 0.518561 2.96195 0
M  V30 11355 C 1069.24 0.474913 3.09376 0
M  V30 11356 C 1069.72 0.929278 4.48473 0
M  V30 11357 N 1071.21 0.885335 4.5466 0
M  V30 11358 C 1071.94 1.2083 5.60524 0
M  V30 11359 N 1071.44 1.6018 6.74028 0
M  V30 11360 N 1073.23 1.12949 5.50635 0
M  V30 11361 H 1065.38 1.35743 1.63363 0
M  V30 11362 H 1067.65 0.556453 0.767505 0
M  V30 11363 H 1067.35 1.55606 3.15404 0
M  V30 11364 H 1067.23 -0.081779 3.77111 0
M  V30 11365 H 1069.61 -0.553503 2.89863 0
M  V30 11366 H 1069.7 1.11107 2.3041 0
M  V30 11367 H 1069.34 1.95593 4.68728 0
M  V30 11368 H 1069.27 0.270121 5.25907 0
M  V30 11369 H 1071.76 0.595787 3.73174 0
M  V30 11370 H 1072.07 1.83184 7.50775 0
M  V30 11371 H 1070.42 1.64067 6.75357 0
M  V30 11372 H 1073.61 0.821074 4.60843 0
M  V30 11373 H 1073.78 1.3845 6.33037 0
M  V30 11374 N 1067.19 -1.57141 0.120249 0
M  V30 11375 C 1068.44 -1.95238 -0.537449 0
M  V30 11376 C 1068.76 -1.00361 -1.66607 0
M  V30 11377 O 1068.02 -0.0277306 -1.9568 0
M  V30 11378 C 1068.32 -3.39745 -1.10941 0
M  V30 11379 C 1067.98 -4.50785 -0.102012 0
M  V30 11380 C 1066.65 -4.80882 0.174994 0
M  V30 11381 C 1069 -5.17913 0.584462 0
M  V30 11382 C 1066.33 -5.75424 1.14474 0
M  V30 11383 C 1068.68 -6.13497 1.54284 0
M  V30 11384 C 1067.34 -6.41987 1.82782 0
M  V30 11385 H 1066.61 -0.714425 -0.196666 0
M  V30 11386 H 1069.26 -1.90438 0.201418 0
M  V30 11387 H 1067.56 -3.41246 -1.92506 0
M  V30 11388 H 1069.26 -3.66536 -1.62642 0
M  V30 11389 H 1065.85 -4.27342 -0.328097 0
M  V30 11390 H 1070.03 -4.94815 0.383625 0
M  V30 11391 H 1065.29 -5.95801 1.37226 0
M  V30 11392 H 1069.46 -6.64598 2.08044 0
M  V30 11393 H 1067.09 -7.15052 2.5808 0
M  V30 11394 N 1068.67 0.153526 -1.5685 0
M  V30 11395 C 1070.08 0.714247 -1.72498 0
M  V30 11396 C 1070.43 1.81968 -0.733621 0
M  V30 11397 O 1069.55 2.16163 0.10118 0
M  V30 11398 C 1070.15 1.30238 -3.12767 0
M  V30 11399 C 1068.71 1.80974 -3.30038 0
M  V30 11400 C 1067.85 0.695638 -2.68433 0
M  V30 11401 H 1070.81 -0.0720733 -1.58536 0
M  V30 11402 H 1070.83 2.17217 -3.12405 0
M  V30 11403 H 1070.34 0.497605 -3.84897 0
M  V30 11404 H 1068.44 2.64039 -2.62895 0
M  V30 11405 H 1068.55 1.94294 -4.37934 0
M  V30 11406 H 1066.92 1.12061 -2.28723 0
M  V30 11407 H 1067.7 -0.0975885 -3.43161 0
M  V30 11408 N 1070.14 1.51827 0.422667 0
M  V30 11409 C 1071.11 1.7359 1.49663 0
M  V30 11410 C 1072.11 0.605811 1.48952 0
M  V30 11411 O 1073.3 0.87354 1.50715 0
M  V30 11412 C 1070.43 1.80585 2.8914 0
M  V30 11413 H 1071.62 2.69453 1.31664 0
M  V30 11414 H 1069.18 1.42038 0.652298 0
M  V30 11415 H 1069.91 0.865895 3.12526 0
M  V30 11416 H 1069.7 2.62729 2.9106 0
M  V30 11417 H 1071.19 1.99212 3.67021 0
M  V30 11418 N 1071.62 -0.679052 1.4222 0
M  V30 11419 C 1072.85 -1.46747 1.45852 0
M  V30 11420 C 1073.27 -1.88675 0.0685937 0
M  V30 11421 O 1072.62 -1.57861 -0.915757 0
M  V30 11422 C 1072.67 -2.71935 2.38188 0
M  V30 11423 O 1072.39 -2.31768 3.71773 0
M  V30 11424 C 1073.9 -3.65536 2.50796 0
M  V30 11425 H 1071.12 -0.451682 0.49621 0
M  V30 11426 H 1073.66 -0.834723 1.86689 0
M  V30 11427 H 1071.81 -3.31409 2.00616 0
M  V30 11428 H 1072.23 -3.12579 4.21182 0
M  V30 11429 H 1073.7 -4.50113 3.19535 0
M  V30 11430 H 1074.18 -4.11148 1.54447 0
M  V30 11431 H 1074.79 -3.11957 2.89072 0
M  V30 11432 N 1073.1 -1.28322 -0.914942 0
M  V30 11433 C 1074.35 -1.15179 -1.66067 0
M  V30 11434 C 1074.67 0.300279 -1.92674 0
M  V30 11435 O 1073.94 1.20821 -1.54205 0
M  V30 11436 H 1072.52 -0.423264 -0.615513 0
M  V30 11437 H 1075.18 -1.61034 -1.09791 0
M  V30 11438 H 1074.28 -1.69048 -2.62353 0
M  V30 11439 N 1074.58 1.12322 -1.10551 0
M  V30 11440 C 1075.99 1.6539 -0.8662 0
M  V30 11441 C 1076.34 1.86695 0.603284 0
M  V30 11442 O 1075.47 1.59432 1.46323 0
M  V30 11443 C 1076.06 3.00443 -1.56587 0
M  V30 11444 C 1074.62 3.50456 -1.37323 0
M  V30 11445 C 1073.77 2.25454 -1.61449 0
M  V30 11446 H 1076.72 0.960866 -1.26305 0
M  V30 11447 H 1076.74 3.66972 -1.00557 0
M  V30 11448 H 1076.25 2.84905 -2.63535 0
M  V30 11449 H 1074.35 3.71176 -0.325431 0
M  V30 11450 H 1074.46 4.29839 -2.11601 0
M  V30 11451 H 1072.83 2.32621 -1.03729 0
M  V30 11452 H 1073.61 2.12469 -2.69651 0
M  V30 11453 N 1076.06 0.894434 1.2976 0
M  V30 11454 C 1077.3 0.516646 1.95385 0
M  V30 11455 C 1077.63 -0.939141 1.70895 0
M  V30 11456 O 1076.9 -1.66153 1.03778 0
M  V30 11457 H 1075.48 0.188072 0.722937 0
M  V30 11458 H 1078.14 1.13958 1.58113 0
M  V30 11459 H 1077.23 0.694819 3.04267 0
M  V30 11460 N 1077.53 -1.43282 0.656365 0
M  V30 11461 C 1078.76 -2.06641 0.177245 0
M  V30 11462 C 1079.18 -1.48893 -1.14946 0
M  V30 11463 O 1078.54 -0.600099 -1.7108 0
M  V30 11464 C 1078.59 -3.60453 0.10299 0
M  V30 11465 O 1077.69 -4.01687 -0.933895 0
M  V30 11466 H 1077.04 -0.656978 0.096314 0
M  V30 11467 H 1079.57 -1.83733 0.900178 0
M  V30 11468 H 1079.58 -4.07923 -0.079291 0
M  V30 11469 H 1078.25 -4.01861 1.07147 0
M  V30 11470 H 1076.83 -3.65801 -0.724148 0
M  V30 11471 N 1079.01 -0.398486 -1.52479 0
M  V30 11472 C 1080.24 0.183059 -2.06591 0
M  V30 11473 C 1080.66 1.3898 -1.26753 0
M  V30 11474 O 1080.02 1.78885 -0.294959 0
M  V30 11475 C 1080.07 0.522392 -3.56796 0
M  V30 11476 O 1079.17 1.61499 -3.79462 0
M  V30 11477 H 1078.51 0.0188411 -0.663733 0
M  V30 11478 H 1081.04 -0.56861 -1.9654 0
M  V30 11479 H 1081.05 0.784078 -4.00395 0
M  V30 11480 H 1079.73 -0.359807 -4.14341 0
M  V30 11481 H 1078.31 1.3463 -3.47749 0
M  V30 11482 N 1080.49 1.57075 -0.12858 0
M  V30 11483 C 1081.77 1.87075 0.571162 0
M  V30 11484 C 1082.15 1.03141 1.84188 0
M  V30 11485 O 1081.5 0.113001 2.2822 0
M  V30 11486 C 1081.71 3.3838 0.854383 0
M  V30 11487 C 1083.05 4.07194 1.20326 0
M  V30 11488 O 1084.08 3.43454 0.944338 0
M  V30 11489 O 1082.94 5.19725 1.68963 0
M  V30 11490 H 1080.03 0.774764 0.289258 0
M  V30 11491 H 1082.58 1.68908 -0.163806 0
M  V30 11492 H 1081.35 3.91273 -0.0456925 0
M  V30 11493 H 1080.97 3.62012 1.64418 0
M  V30 11494 N 1081.97 -0.145205 1.5693 0
M  V30 11495 C 1083.25 -0.88631 1.74367 0
M  V30 11496 C 1083.63 -1.99259 0.697081 0
M  V30 11497 O 1082.97 -2.26732 -0.28368 0
M  V30 11498 C 1083.18 -1.42712 3.18488 0
M  V30 11499 C 1084.53 -1.88982 3.80225 0
M  V30 11500 O 1085.56 -1.5245 3.21928 0
M  V30 11501 O 1084.42 -2.56361 4.8264 0
M  V30 11502 H 1081.51 -0.418979 0.713011 0
M  V30 11503 H 1084.06 -0.130991 1.69194 0
M  V30 11504 H 1082.83 -0.632165 3.8616 0
M  V30 11505 H 1082.45 -2.24589 3.28094 0
M  V30 11506 N 1083.45 -1.52049 -0.414609 0
M  V30 11507 C 1084.36 -1.7788 -1.52958 0
M  V30 11508 C 1085.37 -0.66408 -1.60829 0
M  V30 11509 O 1086.55 -0.948882 -1.77646 0
M  V30 11510 C 1083.61 -1.91906 -2.88744 0
M  V30 11511 C 1082.68 -3.15803 -2.90804 0
M  V30 11512 C 1081.91 -3.29151 -4.20114 0
M  V30 11513 O 1082.13 -2.47892 -5.13718 0
M  V30 11514 O 1081.07 -4.2227 -4.28919 0
M  V30 11515 H 1084.89 -2.72506 -1.34067 0
M  V30 11516 H 1082.48 -1.36826 -0.599918 0
M  V30 11517 H 1084.36 -2.02986 -3.6929 0
M  V30 11518 H 1083.03 -1.00468 -3.07714 0
M  V30 11519 H 1081.94 -3.10185 -2.09131 0
M  V30 11520 H 1083.27 -4.07004 -2.76783 0
M  V30 11521 N 1084.93 0.6715 -1.42579 0
M  V30 11522 C 1086.2 1.42766 -1.33706 0
M  V30 11523 C 1086.58 2.11086 0.0239748 0
M  V30 11524 O 1085.93 2.03479 1.03964 0
M  V30 11525 C 1086.14 2.42739 -2.50756 0
M  V30 11526 C 1087.49 3.07284 -2.93021 0
M  V30 11527 O 1088.51 2.53066 -2.50671 0
M  V30 11528 O 1087.37 4.05541 -3.66331 0
M  V30 11529 H 1084.47 0.636955 -0.527463 0
M  V30 11530 H 1087.01 0.699946 -1.54593 0
M  V30 11531 H 1085.78 1.91076 -3.41476 0
M  V30 11532 H 1085.41 3.22986 -2.31874 0
M  V30 11533 N 1086.4 1.28806 0.908124 0
M  V30 11534 C 1087.68 1.06981 1.63751 0
M  V30 11535 C 1088.06 -0.388936 2.07486 0
M  V30 11536 O 1087.41 -1.37611 1.82415 0
M  V30 11537 C 1087.62 2.04962 2.82474 0
M  V30 11538 C 1088.97 2.35418 3.5336 0
M  V30 11539 O 1089.99 2.03091 2.92631 0
M  V30 11540 O 1088.85 2.90617 4.62822 0
M  V30 11541 H 1085.94 0.409267 0.71863 0
M  V30 11542 H 1088.49 1.40146 0.956934 0
M  V30 11543 H 1087.26 3.03254 2.47291 0
M  V30 11544 H 1086.88 1.72476 3.58242 0
M  V30 11545 N 1087.88 -1.11734 1.11145 0
M  V30 11546 C 1089.16 -1.79795 0.770261 0
M  V30 11547 C 1089.54 -1.97624 -0.742158 0
M  V30 11548 O 1088.89 -1.55847 -1.67105 0
M  V30 11549 C 1089.1 -3.13684 1.52982 0
M  V30 11550 C 1090.44 -3.88771 1.70711 0
M  V30 11551 O 1091.47 -3.23363 1.49381 0
M  V30 11552 O 1090.33 -5.06134 2.06132 0
M  V30 11553 H 1087.42 -0.778617 0.27872 0
M  V30 11554 H 1089.97 -1.18504 1.2147 0
M  V30 11555 H 1088.74 -2.96043 2.55879 0
M  V30 11556 H 1088.36 -3.82687 1.07873 0
M  V30 11557 N 1089.36 -0.901303 -1.29284 0
M  V30 11558 C 1090.27 -0.3849 -2.31421 0
M  V30 11559 C 1091.29 0.521163 -1.66012 0
M  V30 11560 O 1092.46 0.410356 -1.97175 0
M  V30 11561 C 1089.53 0.377804 -3.44635 0
M  V30 11562 C 1088.59 -0.559974 -4.25632 0
M  V30 11563 C 1087.82 0.166425 -5.3344 0
M  V30 11564 O 1088.04 1.39012 -5.53202 0
M  V30 11565 O 1086.98 -0.491875 -5.99887 0
M  V30 11566 H 1090.8 -1.2323 -2.77575 0
M  V30 11567 H 1088.39 -0.665683 -1.3375 0
M  V30 11568 H 1090.27 0.809041 -4.13561 0
M  V30 11569 H 1088.95 1.20124 -3.00586 0
M  V30 11570 H 1087.85 -1.04036 -3.59343 0
M  V30 11571 H 1089.19 -1.34987 -4.73328 0
M  V30 11572 N 1090.84 1.42931 -0.663954 0
M  V30 11573 C 1092.11 1.95284 -0.111174 0
M  V30 11574 C 1092.49 1.60484 1.37142 0
M  V30 11575 O 1091.84 0.895425 2.10225 0
M  V30 11576 C 1092.05 3.47046 -0.368789 0
M  V30 11577 C 1093.4 4.23679 -0.279473 0
M  V30 11578 O 1094.42 3.54918 -0.301937 0
M  V30 11579 O 1093.28 5.46087 -0.21236 0
M  V30 11580 H 1090.38 0.826993 0.00341718 0
M  V30 11581 H 1092.92 1.52816 -0.737935 0
M  V30 11582 H 1091.7 3.65541 -1.39626 0
M  V30 11583 H 1091.32 3.96537 0.290514 0
M  V30 11584 N 1092.32 0.406567 1.52266 0
M  V30 11585 C 1093.23 -0.4271 2.30679 0
M  V30 11586 C 1094.24 -1.0559 1.383 0
M  V30 11587 O 1095.42 -1.05797 1.71374 0
M  V30 11588 C 1092.48 -1.53008 3.1111 0
M  V30 11589 C 1091.54 -0.924604 4.19225 0
M  V30 11590 C 1090.78 -1.97502 4.95811 0
M  V30 11591 O 1091 -3.19277 4.72671 0
M  V30 11592 O 1089.93 -1.58268 5.80719 0
M  V30 11593 H 1093.76 0.212187 3.02958 0
M  V30 11594 H 1091.34 0.169835 1.48432 0
M  V30 11595 H 1093.23 -2.17046 3.61205 0
M  V30 11596 H 1091.9 -2.15401 2.41628 0
M  V30 11597 H 1090.81 -0.247009 3.73284 0
M  V30 11598 H 1092.14 -0.34463 4.90992 0
M  V30 11599 N 1093.79 -1.57004 0.136909 0
M  V30 11600 C 1094.74 -2.12815 -0.818144 0
M  V30 11601 C 1095.73 -1.0534 -1.21623 0
M  V30 11602 O 1096.92 -1.31539 -1.18434 0
M  V30 11603 C 1094.05 -2.74533 -2.06122 0
M  V30 11604 C 1093.14 -3.89117 -1.68669 0
M  V30 11605 N 1093.53 -4.95412 -1.01983 0
M  V30 11606 C 1091.82 -3.99636 -1.98009 0
M  V30 11607 C 1092.53 -5.75594 -0.840624 0
M  V30 11608 N 1091.5 -5.26019 -1.37131 0
M  V30 11609 H 1095.3 -2.92372 -0.299315 0
M  V30 11610 H 1092.82 -1.6227 -0.0649741 0
M  V30 11611 H 1094.81 -3.12872 -2.7553 0
M  V30 11612 H 1093.47 -1.96446 -2.58532 0
M  V30 11613 H 1094.49 -5.13393 -0.681744 0
M  V30 11614 H 1091.16 -3.32613 -2.52339 0
M  V30 11615 H 1092.55 -6.71157 -0.315807 0
M  V30 11616 N 1095.27 0.136881 -1.57004 0
M  V30 11617 C 1096.52 0.8461 -1.83536 0
M  V30 11618 C 1096.84 1.81246 -0.71937 0
M  V30 11619 O 1096.11 1.94191 0.258161 0
M  V30 11620 H 1094.69 0.315446 -0.677128 0
M  V30 11621 H 1097.35 0.128469 -1.94476 0
M  V30 11622 H 1096.45 1.40221 -2.78827 0
M  V30 11623 N 1096.75 1.52266 0.40654 0
M  V30 11624 C 1098 1.66123 1.15097 0
M  V30 11625 C 1098.32 0.394836 1.90961 0
M  V30 11626 O 1097.59 -0.590349 1.86793 0
M  V30 11627 H 1096.17 0.612317 0.427875 0
M  V30 11628 H 1098.83 1.89318 0.463106 0
M  V30 11629 H 1097.93 2.50351 1.86361 0
M  V30 11630 N 1098.23 -0.663929 1.42933 0
M  V30 11631 C 1099.47 -1.42603 1.44195 0
M  V30 11632 C 1099.81 -1.94101 0.0620284 0
M  V30 11633 O 1099.08 -1.71609 -0.91546 0
M  V30 11634 C 1099.37 -2.61522 2.47544 0
M  V30 11635 C 1099.22 -2.15587 3.94769 0
M  V30 11636 C 1100.54 -3.6374 2.47753 0
M  V30 11637 H 1097.66 -0.517189 0.525056 0
M  V30 11638 H 1100.3 -0.75361 1.74415 0
M  V30 11639 H 1098.45 -3.1889 2.21904 0
M  V30 11640 H 1100.12 -1.63303 4.31428 0
M  V30 11641 H 1098.36 -1.47057 4.08114 0
M  V30 11642 H 1099.03 -3.01053 4.62678 0
M  V30 11643 H 1101.51 -3.16111 2.70579 0
M  V30 11644 H 1100.39 -4.44512 3.22025 0
M  V30 11645 H 1100.65 -4.15607 1.50742 0
M  V30 11646 N 1099.71 -1.29285 -0.901281 0
M  V30 11647 C 1100.95 -1.17165 -1.65162 0
M  V30 11648 C 1101.28 0.277184 -1.92515 0
M  V30 11649 O 1100.54 1.2168 -1.53273 0
M  V30 11650 C 1100.84 -1.92865 -3.00895 0
M  V30 11651 C 1100.5 -3.42593 -2.93157 0
M  V30 11652 C 1099.16 -3.83426 -2.90754 0
M  V30 11653 C 1101.52 -4.38011 -2.82481 0
M  V30 11654 C 1098.84 -5.17997 -2.75492 0
M  V30 11655 C 1101.2 -5.7267 -2.68759 0
M  V30 11656 C 1099.86 -6.12764 -2.64721 0
M  V30 11657 H 1099.13 -0.428737 -0.604372 0
M  V30 11658 H 1101.78 -1.60204 -1.04914 0
M  V30 11659 H 1100.08 -1.42412 -3.65001 0
M  V30 11660 H 1101.78 -1.80893 -3.57881 0
M  V30 11661 H 1098.37 -3.10134 -2.95829 0
M  V30 11662 H 1102.55 -4.07417 -2.83416 0
M  V30 11663 H 1097.81 -5.48173 -2.70769 0
M  V30 11664 H 1101.98 -6.46258 -2.59469 0
M  V30 11665 H 1099.61 -7.16987 -2.52652 0
M  V30 11666 N 1101.18 1.11143 -1.11736 0
M  V30 11667 C 1102.41 1.87285 -0.891007 0
M  V30 11668 C 1102.83 1.79758 0.553971 0
M  V30 11669 O 1102.19 1.16221 1.39149 0
M  V30 11670 C 1102.24 3.33924 -1.36114 0
M  V30 11671 O 1101.34 4.08917 -0.534851 0
M  V30 11672 H 1100.69 0.581418 -0.320701 0
M  V30 11673 H 1103.22 1.40469 -1.4876 0
M  V30 11674 H 1103.23 3.84772 -1.35701 0
M  V30 11675 H 1101.9 3.38719 -2.41334 0
M  V30 11676 H 1100.48 3.67954 -0.605355 0
M  V30 11677 N 1102.66 0.908147 1.28804 0
M  V30 11678 C 1103.59 0.34957 2.26519 0
M  V30 11679 C 1104.61 -0.508845 1.54643 0
M  V30 11680 O 1105.8 -0.324633 1.75523 0
M  V30 11681 C 1102.9 -0.519461 3.34895 0
M  V30 11682 C 1102.07 0.315157 4.36263 0
M  V30 11683 C 1101.13 -0.488059 5.23932 0
M  V30 11684 O 1100.15 0.0974133 5.69117 0
M  V30 11685 N 1101.36 -1.79233 5.52137 0
M  V30 11686 H 1104.12 1.18945 2.75086 0
M  V30 11687 H 1101.68 0.77351 1.42227 0
M  V30 11688 H 1103.67 -1.0634 3.90479 0
M  V30 11689 H 1102.24 -1.26004 2.8608 0
M  V30 11690 H 1101.46 1.04049 3.8022 0
M  V30 11691 H 1102.75 0.886438 5.01019 0
M  V30 11692 H 1102.15 -2.2906 5.1725 0
M  V30 11693 H 1100.71 -2.28322 6.10502 0
M  V30 11694 N 1104.14 -1.42577 0.671525 0
M  V30 11695 C 1105.37 -2.06442 0.199152 0
M  V30 11696 C 1105.79 -1.50104 -1.1336 0
M  V30 11697 O 1105.15 -0.618211 -1.70434 0
M  V30 11698 C 1105.2 -3.60323 0.141215 0
M  V30 11699 O 1104.3 -4.02655 -0.891238 0
M  V30 11700 H 1103.64 -0.655919 0.103277 0
M  V30 11701 H 1106.17 -1.82768 0.919614 0
M  V30 11702 H 1106.18 -4.07984 -0.0360209 0
M  V30 11703 H 1104.86 -4.00702 1.11403 0
M  V30 11704 H 1103.43 -3.66549 -0.685309 0
M  V30 11705 N 1105.62 -0.414636 -1.52048 0
M  V30 11706 C 1106.87 0.159349 -2.01872 0
M  V30 11707 C 1107.19 1.44674 -1.29999 0
M  V30 11708 O 1106.45 1.91641 -0.396511 0
M  V30 11709 C 1106.75 0.448327 -3.54577 0
M  V30 11710 C 1106.41 -0.75052 -4.4461 0
M  V30 11711 C 1105.08 -1.07935 -4.68939 0
M  V30 11712 C 1107.43 -1.55134 -4.97577 0
M  V30 11713 C 1104.76 -2.21008 -5.43482 0
M  V30 11714 C 1107.11 -2.67288 -5.73358 0
M  V30 11715 C 1105.77 -3.00651 -5.95958 0
M  V30 11716 H 1105.04 0.05831 -0.738702 0
M  V30 11717 H 1107.69 -0.557184 -1.83215 0
M  V30 11718 H 1105.99 1.24649 -3.71443 0
M  V30 11719 H 1107.69 0.90549 -3.90643 0
M  V30 11720 H 1104.28 -0.484257 -4.25856 0
M  V30 11721 H 1108.46 -1.31052 -4.78685 0
M  V30 11722 H 1103.72 -2.47197 -5.59199 0
M  V30 11723 H 1107.89 -3.29725 -6.13396 0
M  V30 11724 H 1105.52 -3.88384 -6.535 0
M  V30 11725 N 1107.1 1.56929 -0.145233 0
M  V30 11726 C 1108.03 2.19685 0.791263 0
M  V30 11727 C 1109.01 1.14455 1.25833 0
M  V30 11728 O 1110.19 1.42791 1.31622 0
M  V30 11729 C 1107.32 2.81705 2.03124 0
M  V30 11730 C 1106.28 3.92746 1.70101 0
M  V30 11731 C 1105.6 4.41694 3.01347 0
M  V30 11732 C 1106.9 5.13606 0.949025 0
M  V30 11733 H 1108.6 2.98196 0.26825 0
M  V30 11734 H 1106.14 1.43434 0.127584 0
M  V30 11735 H 1108.1 3.24273 2.69119 0
M  V30 11736 H 1106.82 2.00523 2.57795 0
M  V30 11737 H 1105.48 3.50794 1.06486 0
M  V30 11738 H 1105.13 3.57336 3.54006 0
M  V30 11739 H 1104.83 5.1659 2.80016 0
M  V30 11740 H 1106.35 4.86931 3.68416 0
M  V30 11741 H 1107.76 5.53029 1.51102 0
M  V30 11742 H 1106.16 5.94252 0.835711 0
M  V30 11743 H 1107.23 4.84863 -0.0595631 0
M  V30 11744 N 1108.58 -0.128553 1.57075 0
M  V30 11745 C 1109.99 -0.686713 1.73612 0
M  V30 11746 C 1110.34 -1.80778 0.762478 0
M  V30 11747 O 1109.46 -2.16297 -0.0667779 0
M  V30 11748 C 1110.06 -1.25246 3.148 0
M  V30 11749 C 1108.62 -1.757 3.32876 0
M  V30 11750 C 1107.76 -0.652844 2.69506 0
M  V30 11751 H 1110.71 0.0972859 1.58402 0
M  V30 11752 H 1110.74 -2.1222 3.15821 0
M  V30 11753 H 1110.25 -0.436308 3.8564 0
M  V30 11754 H 1108.35 -2.59824 2.67063 0
M  V30 11755 H 1108.46 -1.87302 4.4097 0
M  V30 11756 H 1106.83 -1.08408 2.30477 0
M  V30 11757 H 1107.61 0.15217 3.42963 0
M  V30 11758 N 1110.05 -1.5248 -0.398459 0
M  V30 11759 C 1111.02 -1.75949 -1.46883 0
M  V30 11760 C 1112.02 -0.629431 -1.47969 0
M  V30 11761 O 1113.21 -0.897407 -1.49306 0
M  V30 11762 C 1110.34 -1.85162 -2.8623 0
M  V30 11763 H 1111.53 -2.71513 -1.2736 0
M  V30 11764 H 1109.08 -1.43058 -0.629619 0
M  V30 11765 H 1109.82 -0.915505 -3.11109 0
M  V30 11766 H 1109.6 -2.67326 -2.86844 0
M  V30 11767 H 1111.09 -2.05025 -3.63805 0
M  V30 11768 N 1111.53 0.65634 -1.43283 0
M  V30 11769 C 1112.76 1.44906 -1.48382 0
M  V30 11770 C 1113.18 1.87823 -0.101993 0
M  V30 11771 O 1112.54 1.57178 0.903597 0
M  V30 11772 C 1112.59 2.66231 -2.43215 0
M  V30 11773 O 1111.69 3.65176 -1.91625 0
M  V30 11774 H 1111.03 0.434601 -0.502014 0
M  V30 11775 H 1113.56 0.803429 -1.88165 0
M  V30 11776 H 1113.57 3.14083 -2.60414 0
M  V30 11777 H 1112.25 2.34336 -3.43598 0
M  V30 11778 H 1110.82 3.24302 -1.84072 0
M  V30 11779 N 1113.01 1.29761 0.894412 0
M  V30 11780 C 1114.29 1.08711 1.62608 0
M  V30 11781 C 1114.67 -0.366907 2.07887 0
M  V30 11782 O 1114.01 -1.35669 1.83865 0
M  V30 11783 C 1114.22 2.07947 2.80284 0
M  V30 11784 C 1115.57 2.39153 3.50843 0
M  V30 11785 O 1116.6 2.06183 2.9046 0
M  V30 11786 O 1115.46 2.95509 4.59713 0
M  V30 11787 H 1112.55 0.416866 0.714249 0
M  V30 11788 H 1115.1 1.41153 0.942015 0
M  V30 11789 H 1113.87 3.05859 2.44061 0
M  V30 11790 H 1113.49 1.76266 3.56393 0
M  V30 11791 N 1114.49 -1.10549 1.12324 0
M  V30 11792 C 1115.71 -1.8681 0.900927 0
M  V30 11793 C 1116.14 -1.80049 -0.54443 0
M  V30 11794 O 1115.5 -1.16957 -1.38531 0
M  V30 11795 C 1115.54 -3.33197 1.37883 0
M  V30 11796 O 1114.65 -4.08628 0.556529 0
M  V30 11797 H 1113.99 -0.579709 0.32378 0
M  V30 11798 H 1116.52 -1.39678 1.49503 0
M  V30 11799 H 1116.53 -3.84047 1.37739 0
M  V30 11800 H 1115.2 -3.37435 2.43127 0
M  V30 11801 H 1113.78 -3.67627 0.62486 0
M  V30 11802 N 1115.97 -0.914965 -1.28321 0
M  V30 11803 C 1116.88 -0.409424 -2.31 0
M  V30 11804 C 1117.89 0.503526 -1.66555 0
M  V30 11805 O 1119.07 0.38942 -1.97599 0
M  V30 11806 C 1116.13 0.34123 -3.45017 0
M  V30 11807 C 1115.19 -0.605087 -4.25014 0
M  V30 11808 C 1114.43 0.109837 -5.33587 0
M  V30 11809 O 1114.65 1.33136 -5.54645 0
M  V30 11810 O 1113.58 -0.555474 -5.99331 0
M  V30 11811 H 1117.41 -1.26167 -2.76253 0
M  V30 11812 H 1114.99 -0.679831 -1.33036 0
M  V30 11813 H 1116.88 0.765132 -4.14396 0
M  V30 11814 H 1115.55 1.16929 -3.01843 0
M  V30 11815 H 1114.46 -1.07841 -3.58219 0
M  V30 11816 H 1115.79 -1.39999 -4.7187 0
M  V30 11817 N 1117.44 1.42219 -0.679077 0
M  V30 11818 C 1118.67 2.06333 -0.210097 0
M  V30 11819 C 1119.09 1.50703 1.12562 0
M  V30 11820 O 1118.45 0.627241 1.70104 0
M  V30 11821 C 1118.5 3.60243 -0.160322 0
M  V30 11822 O 1117.6 4.03122 0.869872 0
M  V30 11823 H 1116.94 0.655362 -0.106754 0
M  V30 11824 H 1119.47 1.82278 -0.929294 0
M  V30 11825 H 1119.48 4.07997 0.014384 0
M  V30 11826 H 1118.16 4.00106 -1.13526 0
M  V30 11827 H 1116.74 3.66907 0.66586 0
M  V30 11828 N 1118.92 0.422693 1.51826 0
M  V30 11829 C 1120.2 -0.20786 1.94492 0
M  V30 11830 C 1120.58 -1.61414 1.36047 0
M  V30 11831 O 1119.93 -2.21987 0.541657 0
M  V30 11832 C 1120.14 -0.200457 3.48424 0
M  V30 11833 C 1121.48 -0.413199 4.22585 0
M  V30 11834 O 1122.51 -0.27922 3.55104 0
M  V30 11835 O 1121.37 -0.678469 5.42272 0
M  V30 11836 H 1118.46 -0.137851 0.81543 0
M  V30 11837 H 1121.01 0.479617 1.62781 0
M  V30 11838 H 1119.78 0.783263 3.83381 0
M  V30 11839 H 1119.4 -0.931464 3.86535 0
M  V30 11840 N 1120.4 -1.5685 0.153553 0
M  V30 11841 C 1121.65 -1.95509 -0.495911 0
M  V30 11842 C 1121.96 -1.04129 -1.65579 0
M  V30 11843 O 1123.17 -1.32394 -2.37032 0
M  V30 11844 C 1121.62 -3.47579 -0.933622 0
M  V30 11845 C 1121.23 -4.47555 0.199684 0
M  V30 11846 C 1122.98 -3.95092 -1.55251 0
M  V30 11847 C 1120.88 -5.90843 -0.256663 0
M  V30 11848 H 1119.81 -0.729919 -0.189035 0
M  V30 11849 H 1122.46 -1.81938 0.238947 0
M  V30 11850 H 1120.85 -3.56506 -1.72394 0
M  V30 11851 H 1122.02 -4.50329 0.976744 0
M  V30 11852 H 1120.33 -4.09997 0.727394 0
M  V30 11853 H 1122.93 -4.99588 -1.90567 0
M  V30 11854 H 1123.27 -3.37015 -2.4439 0
M  V30 11855 H 1123.81 -3.89109 -0.826969 0
M  V30 11856 H 1120.55 -6.52753 0.599515 0
M  V30 11857 H 1120.07 -5.91414 -0.999458 0
M  V30 11858 H 1121.75 -6.43131 -0.70649 0
M  V30 11859 N 1121.88 0.120221 -1.57141 0
M  V30 11860 C 1123.13 0.826791 -1.83976 0
M  V30 11861 C 1123.44 1.81102 -0.739014 0
M  V30 11862 O 1124.65 2.56368 -0.893736 0
M  V30 11863 C 1123.1 1.52108 -3.26176 0
M  V30 11864 C 1122.71 0.577902 -4.44257 0
M  V30 11865 C 1124.45 2.21286 -3.62261 0
M  V30 11866 C 1122.36 1.27535 -5.77485 0
M  V30 11867 H 1121.29 0.312508 -0.686189 0
M  V30 11868 H 1123.94 0.0795343 -1.83328 0
M  V30 11869 H 1122.32 2.31492 -3.2129 0
M  V30 11870 H 1123.5 -0.182629 -4.60438 0
M  V30 11871 H 1121.81 -0.00684348 -4.16399 0
M  V30 11872 H 1124.41 2.74154 -4.59068 0
M  V30 11873 H 1124.75 2.99029 -2.89634 0
M  V30 11874 H 1125.29 1.48791 -3.68925 0
M  V30 11875 H 1122.02 0.539237 -6.53278 0
M  V30 11876 H 1121.54 2.00792 -5.65192 0
M  V30 11877 H 1123.22 1.80888 -6.21199 0
M  V30 11878 N 1123.36 1.52689 0.390367 0
M  V30 11879 C 1124.6 1.67666 1.13553 0
M  V30 11880 C 1124.93 0.415903 1.90001 0
M  V30 11881 O 1124.19 -0.601664 1.86222 0
M  V30 11882 C 1124.49 2.86177 2.14096 0
M  V30 11883 C 1124.15 4.23671 1.54316 0
M  V30 11884 C 1122.81 4.61066 1.37739 0
M  V30 11885 C 1125.17 5.09278 1.1084 0
M  V30 11886 C 1122.49 5.81727 0.76231 0
M  V30 11887 C 1124.85 6.30562 0.507433 0
M  V30 11888 C 1123.51 6.66689 0.328945 0
M  V30 11889 H 1122.78 0.613533 0.415521 0
M  V30 11890 H 1125.43 1.8683 0.420339 0
M  V30 11891 H 1123.73 2.61424 2.9183 0
M  V30 11892 H 1125.43 2.9496 2.7166 0
M  V30 11893 H 1122.02 3.94214 1.68207 0
M  V30 11894 H 1126.2 4.80957 1.2245 0
M  V30 11895 H 1121.46 6.08327 0.612208 0
M  V30 11896 H 1125.63 6.96211 0.162248 0
M  V30 11897 H 1123.26 7.60052 -0.149748 0
M  V30 11898 N 1124.83 -0.648732 1.43629 0
M  V30 11899 C 1126.11 -1.4062 1.35961 0
M  V30 11900 C 1126.49 -2.11098 0.00961023 0
M  V30 11901 O 1125.84 -2.05107 -1.00714 0
M  V30 11902 C 1126.05 -2.38719 2.54586 0
M  V30 11903 C 1127.4 -3.02584 2.97873 0
M  V30 11904 O 1128.42 -2.49046 2.54665 0
M  V30 11905 O 1127.28 -3.99662 3.72736 0
M  V30 11906 H 1124.37 -0.628483 0.53753 0
M  V30 11907 H 1126.92 -0.675263 1.55687 0
M  V30 11908 H 1125.69 -1.85619 3.44472 0
M  V30 11909 H 1125.32 -3.19257 2.36983 0
M  V30 11910 N 1126.31 -1.30234 -0.887518 0
M  V30 11911 C 1127.26 -1.16302 -2.01436 0
M  V30 11912 C 1128.25 -0.0755422 -1.69231 0
M  V30 11913 O 1129.46 -0.236213 -1.78443 0
M  V30 11914 H 1125.84 -0.35961 -0.660443 0
M  V30 11915 H 1127.81 -2.11677 -2.10322 0
M  V30 11916 C 1126.56 -0.869009 -3.36665 0
M  V30 11917 H 1125.88 -1.69787 -3.61956 0
M  V30 11918 H 1127.32 -0.811621 -4.16159 0
M  V30 11919 C 1125.78 0.428021 -3.3417 0
M  V30 11920 O 1126.31 1.45033 -3.74604 0
M  V30 11921 N 1124.51 0.438264 -2.87276 0
M  V30 11922 H 1124.06 -0.394142 -2.54567 0
M  V30 11923 H 1124.02 1.30604 -2.85989 0
M  V30 11924 N 1127.79 1.09952 -1.12909 0
M  V30 11925 C 1128.7 2.19999 -0.81471 0
M  V30 11926 C 1129.72 1.72864 0.19851 0
M  V30 11927 O 1130.89 2.01376 0.0308832 0
M  V30 11928 C 1127.96 3.45573 -0.279363 0
M  V30 11929 C 1127.02 4.07417 -1.35314 0
M  V30 11930 C 1126.25 5.26996 -0.843247 0
M  V30 11931 O 1126.47 5.69495 0.321164 0
M  V30 11932 O 1125.41 5.79826 -1.61511 0
M  V30 11933 H 1129.23 2.49333 -1.73398 0
M  V30 11934 H 1126.82 1.18784 -0.906128 0
M  V30 11935 H 1128.7 4.21398 0.0140531 0
M  V30 11936 H 1127.38 3.17854 0.612401 0
M  V30 11937 H 1126.28 3.33253 -1.6998 0
M  V30 11938 H 1127.62 4.39349 -2.21885 0
M  V30 11939 N 1129.27 0.921757 1.27833 0
M  V30 11940 C 1130.55 0.477706 1.89677 0
M  V30 11941 C 1130.93 -1.04392 1.83481 0
M  V30 11942 O 1130.27 -1.89549 1.27606 0
M  V30 11943 C 1130.48 1.01709 3.33851 0
M  V30 11944 C 1131.83 1.074 4.10792 0
M  V30 11945 O 1132.86 0.966295 3.42843 0
M  V30 11946 O 1131.71 1.23909 5.32268 0
M  V30 11947 H 1128.81 0.15271 0.812778 0
M  V30 11948 H 1131.35 1.01306 1.36144 0
M  V30 11949 H 1130.13 2.061 3.32623 0
M  V30 11950 H 1129.75 0.463031 3.94895 0
M  V30 11951 N 1130.75 -1.41857 0.686609 0
M  V30 11952 C 1131.66 -2.34595 0.0159005 0
M  V30 11953 C 1132.67 -1.55741 -0.775933 0
M  V30 11954 O 1133.85 -1.8826 -0.71555 0
M  V30 11955 C 1130.91 -3.34395 -0.915473 0
M  V30 11956 C 1129.97 -4.29141 -0.116851 0
M  V30 11957 C 1129.21 -5.24174 -1.00386 0
M  V30 11958 O 1129.43 -5.24431 -2.2434 0
M  V30 11959 O 1128.36 -6.00152 -0.458337 0
M  V30 11960 H 1132.19 -2.9351 0.780101 0
M  V30 11961 H 1129.78 -1.42559 0.446896 0
M  V30 11962 H 1131.66 -3.95675 -1.44981 0
M  V30 11963 H 1130.33 -2.77936 -1.65932 0
M  V30 11964 H 1129.24 -3.71238 0.461871 0
M  V30 11965 H 1130.57 -4.88673 0.588138 0
M  V30 11966 N 1132.22 -0.430739 -1.51599 0
M  V30 11967 C 1133.17 0.398482 -2.29161 0
M  V30 11968 C 1134.17 1.02676 -1.34737 0
M  V30 11969 O 1135.37 0.96248 -1.52106 0
M  V30 11970 H 1131.75 0.14731 -0.737431 0
M  V30 11971 H 1133.72 -0.276619 -2.97115 0
M  V30 11972 C 1132.47 1.49094 -3.14112 0
M  V30 11973 H 1131.79 1.01685 -3.86652 0
M  V30 11974 H 1133.23 2.04453 -3.7145 0
M  V30 11975 C 1131.69 2.47049 -2.29059 0
M  V30 11976 O 1132.22 3.51435 -1.94567 0
M  V30 11977 N 1130.43 2.17778 -1.92409 0
M  V30 11978 H 1129.97 1.3292 -2.20658 0
M  V30 11979 H 1129.93 2.8356 -1.35798 0
M  V30 11980 N 1133.7 1.56767 -0.161869 0
M  V30 11981 C 1134.93 2.01401 0.49523 0
M  V30 11982 C 1135.35 1.04133 1.56646 0
M  V30 11983 O 1134.71 0.0193747 1.8129 0
M  V30 11984 C 1134.76 3.44695 1.05913 0
M  V30 11985 O 1133.86 3.50475 2.1735 0
M  V30 11986 H 1133.2 0.65314 0.1196 0
M  V30 11987 H 1135.73 2.02903 -0.26298 0
M  V30 11988 H 1135.74 3.83805 1.3841 0
M  V30 11989 H 1134.42 4.14991 0.274749 0
M  V30 11990 H 1133 3.23218 1.85969 0
M  V30 11991 N 1135.18 -0.111886 1.57202 0
M  V30 11992 C 1136.13 -1.13688 2.00858 0
M  V30 11993 C 1137.1 -1.40752 0.881939 0
M  V30 11994 O 1138.28 -1.52498 1.14669 0
M  V30 11995 C 1135.42 -2.45641 2.42393 0
M  V30 11996 C 1134.54 -2.25452 3.68504 0
M  V30 11997 C 1133.67 -3.50686 3.9899 0
M  V30 11998 C 1132.71 -3.25685 5.18262 0
M  V30 11999 N 1131.85 -4.4314 5.44583 0
M  V30 12000 H 1136.69 -0.757611 2.88209 0
M  V30 12001 H 1134.22 -0.362582 1.42561 0
M  V30 12002 H 1136.18 -3.22627 2.64514 0
M  V30 12003 H 1134.81 -2.81447 1.58074 0
M  V30 12004 H 1133.86 -1.39349 3.53958 0
M  V30 12005 H 1135.18 -2.0296 4.55641 0
M  V30 12006 H 1134.33 -4.36087 4.21797 0
M  V30 12007 H 1133.07 -3.76216 3.10343 0
M  V30 12008 H 1132.07 -2.38675 4.95292 0
M  V30 12009 H 1133.3 -3.01518 6.08493 0
M  V30 12010 H 1131.24 -4.68778 4.58893 0
M  V30 12011 H 1131.16 -4.23778 6.26058 0
M  V30 12012 H 1132.43 -5.29654 5.71915 0
M  V30 12013 N 1136.66 -1.52894 -0.382264 0
M  V30 12014 C 1137.88 -1.72453 -1.15216 0
M  V30 12015 C 1138.31 -0.444925 -1.82762 0
M  V30 12016 O 1137.67 0.599825 -1.7109 0
M  V30 12017 C 1137.71 -2.87939 -2.17079 0
M  V30 12018 O 1136.82 -2.55383 -3.23811 0
M  V30 12019 H 1136.16 -0.57324 -0.335099 0
M  V30 12020 H 1138.69 -1.99713 -0.444495 0
M  V30 12021 H 1138.7 -3.13628 -2.60963 0
M  V30 12022 H 1137.37 -3.80765 -1.67305 0
M  V30 12023 H 1135.95 -2.40457 -2.85018 0
M  V30 12024 N 1138.14 0.641106 -1.43971 0
M  V30 12025 C 1139.07 1.76645 -1.46046 0
M  V30 12026 C 1140.08 1.58881 -0.355049 0
M  V30 12027 O 1141.27 1.67379 -0.620207 0
M  V30 12028 C 1138.37 3.14237 -1.26918 0
M  V30 12029 C 1137.54 3.5855 -2.50521 0
M  V30 12030 C 1136.6 4.74986 -2.26438 0
M  V30 12031 O 1135.63 4.83807 -2.99866 0
M  V30 12032 N 1136.83 5.66016 -1.28866 0
M  V30 12033 H 1139.6 1.75339 -2.43056 0
M  V30 12034 H 1137.16 0.82535 -1.39282 0
M  V30 12035 H 1139.15 3.89837 -1.0867 0
M  V30 12036 H 1137.72 3.10244 -0.383082 0
M  V30 12037 H 1136.94 2.73265 -2.84112 0
M  V30 12038 H 1138.23 3.84906 -3.32754 0
M  V30 12039 H 1137.63 5.61574 -0.682018 0
M  V30 12040 H 1136.18 6.41286 -1.16599 0
M  V30 12041 N 1139.62 1.30703 0.880598 0
M  V30 12042 C 1140.56 1.17369 2.00817 0
M  V30 12043 C 1141.56 0.0845159 1.69189 0
M  V30 12044 O 1142.76 0.245673 1.78316 0
M  V30 12045 H 1139.14 0.363107 0.658527 0
M  V30 12046 H 1141.11 2.12789 2.09197 0
M  V30 12047 C 1139.86 0.886851 3.362 0
M  V30 12048 H 1139.18 1.71704 3.61051 0
M  V30 12049 H 1140.62 0.83368 4.15723 0
M  V30 12050 C 1139.08 -0.410293 3.34392 0
M  V30 12051 O 1139.61 -1.43044 3.75368 0
M  V30 12052 N 1137.82 -0.423023 2.87505 0
M  V30 12053 H 1137.36 0.407637 2.54354 0
M  V30 12054 H 1137.32 -1.29086 2.86678 0
M  V30 12055 N 1141.09 -1.09351 1.1349 0
M  V30 12056 C 1142.03 -2.15852 0.770763 0
M  V30 12057 C 1143.04 -1.61468 -0.207866 0
M  V30 12058 O 1144.23 -1.78496 0.0124385 0
M  V30 12059 C 1141.33 -3.38681 0.121871 0
M  V30 12060 C 1140.5 -4.22477 1.13279 0
M  V30 12061 C 1139.56 -5.23728 0.509448 0
M  V30 12062 O 1138.59 -5.57052 1.16967 0
M  V30 12063 N 1139.79 -5.76041 -0.718159 0
M  V30 12064 H 1142.55 -2.47696 1.6872 0
M  V30 12065 H 1140.11 -1.25074 1.02801 0
M  V30 12066 H 1142.11 -4.03531 -0.307404 0
M  V30 12067 H 1140.68 -3.04718 -0.697527 0
M  V30 12068 H 1139.9 -3.53753 1.73933 0
M  V30 12069 H 1141.18 -4.75288 1.81601 0
M  V30 12070 H 1140.58 -5.51183 -1.27331 0
M  V30 12071 H 1139.14 -6.4262 -1.09008 0
M  V30 12072 N 1142.57 -0.928524 -1.27343 0
M  V30 12073 C 1143.85 -0.487758 -1.89421 0
M  V30 12074 C 1144.23 1.03418 -1.84032 0
M  V30 12075 O 1143.58 1.8887 -1.2861 0
M  V30 12076 C 1143.79 -1.03478 -3.33307 0
M  V30 12077 C 1145.13 -1.09577 -4.10217 0
M  V30 12078 O 1146.16 -0.984463 -3.42326 0
M  V30 12079 O 1145.02 -1.2673 -5.31603 0
M  V30 12080 H 1142.11 -0.157018 -0.811957 0
M  V30 12081 H 1144.66 -1.02027 -1.35605 0
M  V30 12082 H 1143.43 -2.07861 -3.31526 0
M  V30 12083 H 1143.05 -0.483967 -3.94644 0
M  V30 12084 N 1144.05 1.41491 -0.694123 0
M  V30 12085 C 1144.96 2.34583 -0.0283414 0
M  V30 12086 C 1145.98 1.5615 0.767662 0
M  V30 12087 O 1147.15 1.88637 0.705556 0
M  V30 12088 C 1144.22 3.34876 0.897726 0
M  V30 12089 C 1143.28 4.29197 0.0940905 0
M  V30 12090 C 1142.51 5.24699 0.976051 0
M  V30 12091 O 1142.73 5.25613 2.21556 0
M  V30 12092 O 1141.67 6.00387 0.426503 0
M  V30 12093 H 1145.49 2.93092 -0.795656 0
M  V30 12094 H 1143.08 1.4232 -0.45445 0
M  V30 12095 H 1144.96 3.96438 1.4288 0
M  V30 12096 H 1143.64 2.78812 1.64456 0
M  V30 12097 H 1142.54 3.70988 -0.481552 0
M  V30 12098 H 1143.88 4.88355 -0.614045 0
M  V30 12099 N 1145.53 0.438773 1.51369 0
M  V30 12100 C 1146.8 -0.18722 1.94702 0
M  V30 12101 C 1147.18 -1.59962 1.37752 0
M  V30 12102 O 1146.53 -2.214 0.565171 0
M  V30 12103 C 1146.74 -0.163491 3.48617 0
M  V30 12104 C 1148.09 -0.368355 4.22999 0
M  V30 12105 O 1149.11 -0.241541 3.5538 0
M  V30 12106 O 1147.97 -0.620916 5.42961 0
M  V30 12107 H 1145.07 -0.129194 0.816846 0
M  V30 12108 H 1147.61 0.496855 1.62263 0
M  V30 12109 H 1146.39 0.823882 3.82528 0
M  V30 12110 H 1146.01 -0.890414 3.87501 0
M  V30 12111 N 1147.01 -1.56678 0.170181 0
M  V30 12112 C 1148.25 -1.98743 -0.477534 0
M  V30 12113 C 1148.61 -1.0538 -1.60497 0
M  V30 12114 O 1149.81 -1.3658 -2.31515 0
M  V30 12115 C 1148.08 -3.44565 -0.949186 0
M  V30 12116 S 1149.64 -4.08658 -1.59824 0
M  V30 12117 H 1146.46 -0.694202 -0.153639 0
M  V30 12118 H 1149.06 -1.93663 0.267373 0
M  V30 12119 H 1147.76 -4.1023 -0.118205 0
M  V30 12120 H 1147.3 -3.53409 -1.72816 0
M  V30 12121 H 1149.31 -4.03614 -2.88635 0
M  V30 12122 N 1148.48 0.103547 -1.57259 0
M  V30 12123 C 1149.43 1.14513 -2.02459 0
M  V30 12124 C 1150.43 1.4197 -0.924163 0
M  V30 12125 O 1151.63 1.41751 -1.10936 0
M  V30 12126 H 1148.01 0.386469 -0.645094 0
M  V30 12127 H 1149.98 0.737531 -2.89142 0
M  V30 12128 C 1148.73 2.45948 -2.45775 0
M  V30 12129 H 1148.05 2.25662 -3.30026 0
M  V30 12130 H 1149.49 3.17351 -2.81184 0
M  V30 12131 C 1147.95 3.09639 -1.32759 0
M  V30 12132 O 1148.48 3.96372 -0.652059 0
M  V30 12133 N 1146.68 2.69757 -1.08072 0
M  V30 12134 H 1146.23 1.9932 -1.63185 0
M  V30 12135 H 1146.19 3.127 -0.326532 0
M  V30 12136 N 1149.96 1.53094 0.37415 0
M  V30 12137 C 1150.87 1.81872 1.48188 0
M  V30 12138 C 1151.89 0.706487 1.59012 0
M  V30 12139 O 1153.06 0.995648 1.75068 0
M  V30 12140 C 1150.13 1.99494 2.83554 0
M  V30 12141 C 1149.19 3.23402 2.82329 0
M  V30 12142 C 1148.42 3.40174 4.11239 0
M  V30 12143 O 1148.65 2.61425 5.06965 0
M  V30 12144 O 1147.58 4.33493 4.17573 0
M  V30 12145 H 1151.41 2.75965 1.26795 0
M  V30 12146 H 1148.99 1.38368 0.56343 0
M  V30 12147 H 1150.87 2.12705 3.63778 0
M  V30 12148 H 1149.55 1.08591 3.04942 0
M  V30 12149 H 1148.45 3.15621 2.00834 0
M  V30 12150 H 1149.79 4.14199 2.65894 0
M  V30 12151 N 1151.44 -0.633461 1.44309 0
M  V30 12152 C 1152.39 -1.74554 1.50995 0
M  V30 12153 C 1153.36 -1.62199 0.357873 0
M  V30 12154 O 1154.54 -1.82156 0.567787 0
M  V30 12155 C 1151.68 -3.12792 1.45791 0
M  V30 12156 C 1150.79 -3.3614 2.71356 0
M  V30 12157 C 1149.93 -4.64337 2.58002 0
M  V30 12158 C 1148.97 -4.80855 3.78741 0
M  V30 12159 N 1148.11 -6.00327 3.64077 0
M  V30 12160 H 1152.95 -1.68174 2.46011 0
M  V30 12161 H 1150.48 -0.820407 1.22097 0
M  V30 12162 H 1152.44 -3.92735 1.40765 0
M  V30 12163 H 1151.07 -3.18193 0.543445 0
M  V30 12164 H 1150.12 -2.50154 2.86579 0
M  V30 12165 H 1151.43 -3.44226 3.60985 0
M  V30 12166 H 1150.59 -5.52437 2.50795 0
M  V30 12167 H 1149.33 -4.58605 1.65929 0
M  V30 12168 H 1148.33 -3.91185 3.86334 0
M  V30 12169 H 1149.56 -4.88403 4.71847 0
M  V30 12170 H 1147.5 -5.9569 2.74754 0
M  V30 12171 H 1147.42 -6.09459 4.47321 0
M  V30 12172 H 1148.69 -6.90995 3.60758 0
M  V30 12173 N 1152.92 -1.31168 -0.873655 0
M  V30 12174 C 1153.87 -1.18432 -2.00191 0
M  V30 12175 C 1154.86 -0.0934873 -1.69142 0
M  V30 12176 O 1156.07 -0.255126 -1.78183 0
M  V30 12177 H 1152.44 -0.366594 -0.656592 0
M  V30 12178 H 1154.41 -2.13896 -2.08065 0
M  V30 12179 C 1153.16 -0.904668 -3.35725 0
M  V30 12180 H 1152.48 -1.73617 -3.60135 0
M  V30 12181 H 1153.92 -0.855715 -4.15275 0
M  V30 12182 C 1152.38 0.392554 -3.34605 0
M  V30 12183 O 1152.91 1.41052 -3.76121 0
M  V30 12184 N 1151.12 0.40777 -2.87725 0
M  V30 12185 H 1150.67 -0.42112 -2.54134 0
M  V30 12186 H 1150.62 1.27564 -2.87358 0
M  V30 12187 N 1154.4 1.08748 -1.14068 0
M  V30 12188 C 1155.64 1.80707 -0.904947 0
M  V30 12189 C 1155.97 1.86478 0.570167 0
M  V30 12190 O 1155.24 1.35536 1.41445 0
M  V30 12191 H 1153.82 0.669261 -0.331811 0
M  V30 12192 H 1156.48 1.31494 -1.43859 0
M  V30 12193 H 1155.57 2.83653 -1.30182 0
M  V30 12194 N 1155.87 0.935264 1.26849 0
M  V30 12195 C 1157.11 0.587087 1.95787 0
M  V30 12196 C 1157.48 -0.856974 1.71814 0
M  V30 12197 O 1158.68 -1.3138 2.34505 0
M  V30 12198 C 1156.95 0.91303 3.45541 0
M  V30 12199 S 1158.51 0.674506 4.33585 0
M  V30 12200 H 1155.33 0.216442 0.677255 0
M  V30 12201 H 1157.93 1.20532 1.53923 0
M  V30 12202 H 1156.63 1.96154 3.60488 0
M  V30 12203 H 1156.16 0.28429 3.92371 0
M  V30 12204 H 1158.18 -0.464121 4.94025 0
M  V30 12205 N 1157.35 -1.41121 0.701616 0
M  V30 12206 C 1158.3 -2.27994 0.0168361 0
M  V30 12207 C 1159.29 -1.42523 -0.746733 0
M  V30 12208 O 1160.48 -1.6574 -0.621232 0
M  V30 12209 C 1157.61 -3.30898 -0.914417 0
M  V30 12210 C 1156.69 -4.23846 -0.146776 0
M  V30 12211 N 1157.08 -4.9839 0.862624 0
M  V30 12212 C 1155.38 -4.44366 -0.38138 0
M  V30 12213 C 1156.08 -5.66463 1.32266 0
M  V30 12214 N 1155.06 -5.39731 0.647433 0
M  V30 12215 H 1158.86 -2.83065 0.790675 0
M  V30 12216 H 1156.38 -1.53405 0.532977 0
M  V30 12217 H 1158.37 -3.91964 -1.4202 0
M  V30 12218 H 1157.03 -2.77387 -1.68779 0
M  V30 12219 H 1158.04 -5.02761 1.24305 0
M  V30 12220 H 1154.72 -4.01856 -1.13216 0
M  V30 12221 H 1156.11 -6.36213 2.16061 0
M  V30 12222 N 1158.83 -0.446794 -1.51134 0
M  V30 12223 C 1159.74 0.36579 -2.31731 0
M  V30 12224 C 1160.76 1.01886 -1.41051 0
M  V30 12225 O 1161.93 1.01216 -1.74119 0
M  V30 12226 C 1159 1.44705 -3.15058 0
M  V30 12227 C 1158.06 0.813129 -4.21529 0
M  V30 12228 C 1157.29 1.84287 -5.00873 0
M  V30 12229 O 1157.51 3.06633 -4.8097 0
M  V30 12230 O 1156.45 1.42816 -5.84711 0
M  V30 12231 H 1160.27 -0.292436 -3.02289 0
M  V30 12232 H 1157.86 -0.209129 -1.47929 0
M  V30 12233 H 1159.74 2.07393 -3.66833 0
M  V30 12234 H 1158.42 2.08919 -2.47254 0
M  V30 12235 H 1157.32 0.147953 -3.73807 0
M  V30 12236 H 1158.66 0.214331 -4.91733 0
M  V30 12237 N 1160.31 1.56586 -0.178487 0
M  V30 12238 C 1161.53 2.01915 0.473841 0
M  V30 12239 C 1161.96 1.05789 1.55533 0
M  V30 12240 O 1161.32 0.0386018 1.81259 0
M  V30 12241 C 1161.36 3.45799 1.02251 0
M  V30 12242 O 1160.47 3.52761 2.1362 0
M  V30 12243 H 1159.81 0.654372 0.112666 0
M  V30 12244 H 1162.34 2.02613 -0.284486 0
M  V30 12245 H 1162.35 3.85252 1.34332 0
M  V30 12246 H 1161.02 4.1526 0.230719 0
M  V30 12247 H 1159.6 3.25172 1.8253 0
M  V30 12248 N 1161.79 -0.095206 1.57312 0
M  V30 12249 C 1162.7 -1.13388 2.05379 0
M  V30 12250 C 1163.71 -1.43868 0.978668 0
M  V30 12251 O 1164.89 -1.54512 1.29182 0
M  V30 12252 C 1161.95 -2.43444 2.46852 0
M  V30 12253 C 1161.01 -2.20146 3.68557 0
M  V30 12254 C 1160.25 -3.44001 4.08043 0
M  V30 12255 O 1160.47 -4.52233 3.47623 0
M  V30 12256 O 1159.4 -3.33596 5.00997 0
M  V30 12257 H 1163.23 -0.755622 2.9415 0
M  V30 12258 H 1160.82 -0.307707 1.46197 0
M  V30 12259 H 1162.7 -3.20027 2.74155 0
M  V30 12260 H 1161.37 -2.80696 1.61219 0
M  V30 12261 H 1160.28 -1.41345 3.46371 0
M  V30 12262 H 1161.61 -1.87787 4.54969 0
M  V30 12263 N 1163.26 -1.53291 -0.366026 0
M  V30 12264 C 1164.68 -1.61144 -0.942849 0
M  V30 12265 C 1165.03 -0.478571 -1.90274 0
M  V30 12266 O 1164.15 0.395069 -2.12763 0
M  V30 12267 C 1164.75 -2.92081 -1.71681 0
M  V30 12268 C 1163.31 -3.0227 -2.24298 0
M  V30 12269 C 1162.45 -2.56436 -1.05526 0
M  V30 12270 H 1165.4 -1.58038 -0.144835 0
M  V30 12271 H 1165.42 -2.79858 -2.57798 0
M  V30 12272 H 1164.94 -3.74513 -1.01793 0
M  V30 12273 H 1163.04 -2.24425 -2.97429 0
M  V30 12274 H 1163.15 -4.07341 -2.5221 0
M  V30 12275 H 1161.51 -2.11301 -1.42211 0
M  V30 12276 H 1162.3 -3.41285 -0.371376 0
M  V30 12277 N 1164.74 0.6258 -1.44643 0
M  V30 12278 C 1165.97 1.41726 -1.51422 0
M  V30 12279 C 1166.39 1.87565 -0.14181 0
M  V30 12280 O 1165.75 1.59059 0.870054 0
M  V30 12281 C 1165.8 2.61012 -2.48807 0
M  V30 12282 O 1164.9 3.61029 -1.99328 0
M  V30 12283 H 1164.24 0.423855 -0.511119 0
M  V30 12284 H 1166.77 0.763336 -1.89827 0
M  V30 12285 H 1166.78 3.08489 -2.67018 0
M  V30 12286 H 1165.46 2.26995 -3.48491 0
M  V30 12287 H 1164.04 3.20325 -1.90909 0
M  V30 12288 N 1166.22 1.31629 0.866686 0
M  V30 12289 C 1167.47 1.21683 1.62238 0
M  V30 12290 C 1167.8 -0.223767 1.92907 0
M  V30 12291 O 1167.07 -1.15761 1.563 0
M  V30 12292 C 1167.36 2.06443 2.95048 0
M  V30 12293 C 1167.21 3.58818 2.71237 0
M  V30 12294 C 1168.53 1.91634 3.96187 0
M  V30 12295 H 1165.65 0.443389 0.588707 0
M  V30 12296 H 1168.29 1.61453 1.00164 0
M  V30 12297 H 1166.44 1.72654 3.48027 0
M  V30 12298 H 1168.11 4.0276 2.24905 0
M  V30 12299 H 1166.36 3.82085 2.05411 0
M  V30 12300 H 1167.03 4.13436 3.65752 0
M  V30 12301 H 1169.5 2.21209 3.52428 0
M  V30 12302 H 1168.38 2.53236 4.86993 0
M  V30 12303 H 1168.64 0.880564 4.33242 0
M  V30 12304 N 1167.7 -1.08142 1.14644 0
M  V30 12305 C 1168.93 -1.84318 0.939926 0
M  V30 12306 C 1169.34 -1.81735 -0.511636 0
M  V30 12307 O 1168.7 -1.22297 -1.35461 0
M  V30 12308 C 1168.75 -3.31744 1.43625 0
M  V30 12309 O 1168.47 -3.3435 2.83094 0
M  V30 12310 C 1169.97 -4.24717 1.27007 0
M  V30 12311 H 1167.19 -0.581781 0.334323 0
M  V30 12312 H 1169.74 -1.36561 1.52221 0
M  V30 12313 H 1167.89 -3.7688 0.896664 0
M  V30 12314 H 1168.31 -4.26399 3.05425 0
M  V30 12315 H 1169.78 -5.26262 1.66591 0
M  V30 12316 H 1170.26 -4.38682 0.213257 0
M  V30 12317 H 1170.86 -3.85409 1.79833 0
M  V30 12318 N 1169.18 -0.941978 -1.26351 0
M  V30 12319 C 1170.41 -0.606748 -1.97803 0
M  V30 12320 C 1170.82 0.818441 -1.70138 0
M  V30 12321 O 1170.18 1.54583 -0.970076 0
M  V30 12322 C 1170.23 -0.840431 -3.51595 0
M  V30 12323 O 1169.95 -2.20957 -3.78299 0
M  V30 12324 C 1171.45 -0.515855 -4.40288 0
M  V30 12325 H 1168.67 -0.228591 -0.630862 0
M  V30 12326 H 1171.21 -1.2629 -1.60845 0
M  V30 12327 H 1169.37 -0.230875 -3.86711 0
M  V30 12328 H 1169.78 -2.2702 -4.72824 0
M  V30 12329 H 1171.26 -0.72998 -5.47152 0
M  V30 12330 H 1171.73 0.549178 -4.35753 0
M  V30 12331 H 1172.34 -1.10417 -4.10717 0
M  V30 12332 N 1170.66 1.40747 -0.709091 0
M  V30 12333 C 1171.57 2.3454 -0.0532205 0
M  V30 12334 C 1172.58 1.56956 0.751057 0
M  V30 12335 O 1173.76 1.89375 0.685509 0
M  V30 12336 C 1170.82 3.35809 0.862157 0
M  V30 12337 C 1169.88 4.29273 0.0485632 0
M  V30 12338 C 1169.12 5.25705 0.920345 0
M  V30 12339 O 1169.34 5.27933 2.15969 0
M  V30 12340 O 1168.27 6.00806 0.3628 0
M  V30 12341 H 1172.1 2.92232 -0.826698 0
M  V30 12342 H 1169.68 1.4183 -0.469519 0
M  V30 12343 H 1171.57 3.97931 1.38668 0
M  V30 12344 H 1170.24 2.8054 1.61489 0
M  V30 12345 H 1169.15 3.70456 -0.520873 0
M  V30 12346 H 1170.48 4.87676 -0.665807 0
M  V30 12347 N 1172.13 0.454803 1.50895 0
M  V30 12348 C 1173.1 -0.336293 2.26719 0
M  V30 12349 C 1174.1 -0.93464 1.30848 0
M  V30 12350 O 1175.29 -0.80636 1.54413 0
M  V30 12351 C 1172.42 -1.47744 3.07221 0
M  V30 12352 H 1173.61 0.328462 2.98096 0
M  V30 12353 H 1171.16 0.208419 1.54904 0
M  V30 12354 H 1171.9 -2.17773 2.40302 0
M  V30 12355 H 1171.68 -1.05438 3.77658 0
M  V30 12356 H 1173.17 -2.03592 3.6461 0
M  V30 12357 N 1173.61 -1.56489 0.186789 0
M  V30 12358 C 1174.86 -1.97634 -0.454831 0
M  V30 12359 C 1175.19 -1.07334 -1.61843 0
M  V30 12360 O 1174.47 -0.123612 -1.94107 0
M  V30 12361 C 1174.75 -3.48071 -0.922962 0
M  V30 12362 C 1174.6 -4.49149 0.241877 0
M  V30 12363 C 1175.92 -4.01994 -1.79134 0
M  V30 12364 H 1173.04 -0.718555 -0.163854 0
M  V30 12365 H 1175.68 -1.87984 0.27604 0
M  V30 12366 H 1173.83 -3.56425 -1.54575 0
M  V30 12367 H 1175.5 -4.52841 0.87936 0
M  V30 12368 H 1173.75 -4.24468 0.894964 0
M  V30 12369 H 1174.42 -5.51851 -0.128051 0
M  V30 12370 H 1176.89 -3.96367 -1.26618 0
M  V30 12371 H 1175.77 -5.07641 -2.08787 0
M  V30 12372 H 1176.03 -3.46747 -2.74261 0
M  V30 12373 N 1175.09 0.086862 -1.5736 0
M  V30 12374 C 1176.04 1.11134 -1.99081 0
M  V30 12375 C 1177.02 1.35318 -0.870506 0
M  V30 12376 O 1178.22 1.35871 -1.13437 0
M  V30 12377 C 1175.34 2.42931 -2.42569 0
M  V30 12378 C 1174.43 2.22085 -3.61302 0
M  V30 12379 N 1174.82 1.71128 -4.75971 0
M  V30 12380 C 1173.12 2.52619 -3.67559 0
M  V30 12381 C 1173.82 1.64745 -5.57883 0
M  V30 12382 N 1172.8 2.10257 -5.01291 0
M  V30 12383 H 1176.6 0.710431 -2.85184 0
M  V30 12384 H 1174.11 0.294168 -1.59714 0
M  V30 12385 H 1176.11 3.17069 -2.7069 0
M  V30 12386 H 1174.77 2.83751 -1.57846 0
M  V30 12387 H 1175.78 1.40207 -4.9856 0
M  V30 12388 H 1172.46 2.96908 -2.93516 0
M  V30 12389 H 1173.85 1.26329 -6.59917 0
M  V30 12390 N 1176.57 1.53483 0.357892 0
M  V30 12391 C 1177.8 1.73704 1.11851 0
M  V30 12392 C 1178.21 0.469388 1.83285 0
M  V30 12393 O 1177.55 -0.567894 1.74702 0
M  V30 12394 C 1177.61 2.85301 2.18732 0
M  V30 12395 C 1177.27 4.25395 1.66998 0
M  V30 12396 C 1178.27 5.07472 1.12994 0
M  V30 12397 C 1175.96 4.71832 1.72279 0
M  V30 12398 C 1177.95 6.34081 0.649574 0
M  V30 12399 C 1175.64 5.98417 1.23854 0
M  V30 12400 C 1176.64 6.79374 0.702839 0
M  V30 12401 O 1176.32 8.03583 0.225763 0
M  V30 12402 H 1176.06 0.584251 0.34004 0
M  V30 12403 H 1178.61 2.01054 0.420313 0
M  V30 12404 H 1176.84 2.53442 2.92068 0
M  V30 12405 H 1178.53 2.93627 2.80247 0
M  V30 12406 H 1179.29 4.72766 1.08248 0
M  V30 12407 H 1175.17 4.08886 2.12916 0
M  V30 12408 H 1178.72 6.97218 0.230774 0
M  V30 12409 H 1174.61 6.32622 1.28296 0
M  V30 12410 H 1175.38 8.17775 0.344381 0
M  V30 12411 N 1178.05 -0.61812 1.44973 0
M  V30 12412 C 1178.98 -1.74035 1.55673 0
M  V30 12413 C 1179.96 -1.65112 0.4089 0
M  V30 12414 O 1181.14 -1.83673 0.630698 0
M  V30 12415 C 1178.27 -3.1261 1.51303 0
M  V30 12416 C 1177.23 -3.36334 2.64696 0
M  V30 12417 C 1176.55 -4.75072 2.45378 0
M  V30 12418 C 1177.85 -3.27618 4.06772 0
M  V30 12419 H 1179.55 -1.65336 2.49608 0
M  V30 12420 H 1177.09 -0.794003 1.20132 0
M  V30 12421 H 1179.04 -3.90906 1.57388 0
M  V30 12422 H 1177.77 -3.22123 0.538914 0
M  V30 12423 H 1176.43 -2.60423 2.58022 0
M  V30 12424 H 1176.08 -4.81306 1.46129 0
M  V30 12425 H 1175.78 -4.91903 3.21412 0
M  V30 12426 H 1177.3 -5.55582 2.53301 0
M  V30 12427 H 1178.71 -3.95802 4.14746 0
M  V30 12428 H 1177.11 -3.55981 4.83113 0
M  V30 12429 H 1178.18 -2.25219 4.29423 0
M  V30 12430 N 1179.52 -1.32087 -0.859693 0
M  V30 12431 C 1180.75 -1.25167 -1.64368 0
M  V30 12432 C 1181.16 0.183572 -1.88307 0
M  V30 12433 O 1180.5 1.12945 -1.44876 0
M  V30 12434 C 1180.57 -1.93641 -3.02892 0
M  V30 12435 C 1180.23 -3.4298 -3.02017 0
M  V30 12436 C 1181.23 -4.38551 -2.79229 0
M  V30 12437 C 1178.91 -3.84835 -3.22812 0
M  V30 12438 C 1180.91 -5.73952 -2.77232 0
M  V30 12439 C 1178.59 -5.20346 -3.20442 0
M  V30 12440 C 1179.59 -6.14716 -2.97681 0
M  V30 12441 O 1179.28 -7.47748 -2.95175 0
M  V30 12442 H 1179.01 -0.433327 -0.518848 0
M  V30 12443 H 1181.57 -1.7468 -1.08055 0
M  V30 12444 H 1179.8 -1.3869 -3.60974 0
M  V30 12445 H 1181.48 -1.80497 -3.63559 0
M  V30 12446 H 1182.25 -4.07542 -2.62935 0
M  V30 12447 H 1178.13 -3.11806 -3.39555 0
M  V30 12448 H 1181.67 -6.47584 -2.59385 0
M  V30 12449 H 1177.57 -5.50987 -3.36279 0
M  V30 12450 H 1178.34 -7.57046 -3.11165 0
M  V30 12451 N 1181 1.07532 -1.15215 0
M  V30 12452 C 1182.25 1.79474 -0.920439 0
M  V30 12453 C 1182.56 1.87593 0.553926 0
M  V30 12454 O 1183.77 2.56037 0.903169 0
M  V30 12455 C 1182.23 3.22509 -1.59738 0
M  V30 12456 C 1181.83 3.22596 -3.10863 0
M  V30 12457 C 1183.58 3.99072 -1.44714 0
M  V30 12458 C 1181.48 4.60273 -3.71352 0
M  V30 12459 H 1180.41 0.672625 -0.340722 0
M  V30 12460 H 1183.07 1.2071 -1.38208 0
M  V30 12461 H 1181.45 3.81454 -1.06342 0
M  V30 12462 H 1182.62 2.73306 -3.70999 0
M  V30 12463 H 1180.94 2.5953 -3.25627 0
M  V30 12464 H 1183.53 5.00823 -1.87299 0
M  V30 12465 H 1183.88 4.14428 -0.394386 0
M  V30 12466 H 1184.41 3.46617 -1.95195 0
M  V30 12467 H 1181.15 4.50122 -4.76519 0
M  V30 12468 H 1180.67 5.09809 -3.15998 0
M  V30 12469 H 1182.35 5.29243 -3.7217 0
M  V30 12470 N 1182.48 0.948665 1.2585 0
M  V30 12471 C 1183.41 0.421458 2.25292 0
M  V30 12472 C 1184.43 -0.459389 1.56184 0
M  V30 12473 O 1185.61 -0.268627 1.76467 0
M  V30 12474 C 1182.71 -0.412653 3.36378 0
M  V30 12475 C 1181.89 0.453792 4.3504 0
M  V30 12476 C 1180.95 -0.321127 5.25219 0
M  V30 12477 O 1179.97 0.278424 5.68519 0
M  V30 12478 N 1181.17 -1.61576 5.5756 0
M  V30 12479 H 1183.94 1.27636 2.71162 0
M  V30 12480 H 1181.5 0.818367 1.39694 0
M  V30 12481 H 1183.49 -0.938637 3.93664 0
M  V30 12482 H 1182.06 -1.16839 2.89944 0
M  V30 12483 H 1181.28 1.16093 3.76718 0
M  V30 12484 H 1182.57 1.04538 4.97945 0
M  V30 12485 H 1181.97 -2.12488 5.24276 0
M  V30 12486 H 1180.53 -2.08783 6.17457 0
M  V30 12487 N 1183.96 -1.40369 0.716545 0
M  V30 12488 C 1184.89 -2.28196 0.013671 0
M  V30 12489 C 1185.87 -1.4339 -0.766685 0
M  V30 12490 O 1187.05 -1.72801 -0.753123 0
M  V30 12491 C 1184.18 -3.23969 -0.988006 0
M  V30 12492 C 1183.23 -4.25455 -0.298345 0
M  V30 12493 S 1184.06 -5.26559 0.974456 0
M  V30 12494 C 1185.22 -6.25895 -0.0250932 0
M  V30 12495 H 1185.45 -2.87461 0.758526 0
M  V30 12496 H 1182.98 -1.45817 0.507606 0
M  V30 12497 H 1184.94 -3.79674 -1.56071 0
M  V30 12498 H 1183.6 -2.63759 -1.70557 0
M  V30 12499 H 1182.79 -4.92821 -1.05561 0
M  V30 12500 H 1182.4 -3.73455 0.201828 0
M  V30 12501 H 1184.69 -6.7187 -0.871615 0
M  V30 12502 H 1185.63 -7.05422 0.615206 0
M  V30 12503 H 1186.04 -5.63156 -0.389248 0
M  V30 12504 N 1185.44 -0.462799 -1.50652 0
M  V30 12505 C 1186.35 0.341191 -2.32106 0
M  V30 12506 C 1187.36 1.00384 -1.42123 0
M  V30 12507 O 1188.54 0.993635 -1.75182 0
M  V30 12508 C 1185.6 1.41356 -3.16575 0
M  V30 12509 C 1184.66 0.768375 -4.22368 0
M  V30 12510 C 1183.9 1.78964 -5.028 0
M  V30 12511 O 1184.12 3.01515 -4.84195 0
M  V30 12512 O 1183.05 1.36606 -5.86193 0
M  V30 12513 H 1186.88 -0.324482 -3.01962 0
M  V30 12514 H 1184.47 -0.224807 -1.47699 0
M  V30 12515 H 1186.35 2.0349 -3.69012 0
M  V30 12516 H 1185.02 2.06285 -2.49456 0
M  V30 12517 H 1183.93 0.108297 -3.73943 0
M  V30 12518 H 1185.26 0.162164 -4.91933 0
M  V30 12519 N 1186.91 1.56388 -0.195085 0
M  V30 12520 C 1188.14 2.0167 0.448637 0
M  V30 12521 C 1188.55 1.07439 1.55736 0
M  V30 12522 O 1187.9 0.071441 1.83561 0
M  V30 12523 C 1187.96 3.43348 1.06547 0
M  V30 12524 C 1187.62 4.569 0.0954901 0
M  V30 12525 C 1188.62 5.15232 -0.695116 0
M  V30 12526 C 1186.3 5.02298 -0.0155889 0
M  V30 12527 C 1188.3 6.1741 -1.58377 0
M  V30 12528 C 1185.98 6.0432 -0.907799 0
M  V30 12529 C 1186.98 6.6175 -1.69045 0
M  V30 12530 O 1186.67 7.6179 -2.56771 0
M  V30 12531 H 1186.4 0.665805 0.116962 0
M  V30 12532 H 1188.96 2.03182 -0.301062 0
M  V30 12533 H 1187.19 3.38823 1.86376 0
M  V30 12534 H 1188.88 3.72438 1.61385 0
M  V30 12535 H 1189.64 4.81026 -0.619604 0
M  V30 12536 H 1185.52 4.57293 0.583424 0
M  V30 12537 H 1189.06 6.62164 -2.1951 0
M  V30 12538 H 1184.96 6.37949 -0.984427 0
M  V30 12539 H 1185.73 7.79209 -2.50551 0
M  V30 12540 N 1188.39 -0.0785156 1.57404 0
M  V30 12541 C 1189.63 -0.784359 1.88752 0
M  V30 12542 C 1190 -1.75081 0.788079 0
M  V30 12543 O 1191.2 -2.50125 0.984431 0
M  V30 12544 C 1189.47 -1.47962 3.25334 0
M  V30 12545 S 1191.03 -2.22146 3.78413 0
M  V30 12546 H 1187.85 -0.260976 0.661372 0
M  V30 12547 H 1190.45 -0.0407396 1.95458 0
M  V30 12548 H 1189.15 -0.762338 4.03257 0
M  V30 12549 H 1188.68 -2.26281 3.21808 0
M  V30 12550 H 1190.7 -3.48558 3.5316 0
M  V30 12551 N 1189.87 -1.5367 -0.349747 0
M  V30 12552 C 1190.78 -1.84207 -1.45275 0
M  V30 12553 C 1191.8 -0.731695 -1.57868 0
M  V30 12554 O 1192.97 -1.02337 -1.73462 0
M  V30 12555 C 1190.04 -2.0398 -2.80345 0
M  V30 12556 C 1189.1 -3.27853 -2.77148 0
M  V30 12557 C 1188.33 -3.46673 -4.05775 0
M  V30 12558 O 1188.55 -2.69457 -5.02741 0
M  V30 12559 O 1187.49 -4.40082 -4.10623 0
M  V30 12560 H 1191.31 -2.77947 -1.22389 0
M  V30 12561 H 1188.9 -1.39247 -0.541345 0
M  V30 12562 H 1190.78 -2.18466 -3.60348 0
M  V30 12563 H 1189.46 -1.13429 -3.03176 0
M  V30 12564 H 1188.36 -3.18776 -1.95787 0
M  V30 12565 H 1189.7 -4.18377 -2.59271 0
M  V30 12566 N 1191.35 0.610423 -1.45298 0
M  V30 12567 C 1192.3 1.7213 -1.53753 0
M  V30 12568 C 1193.27 1.61609 -0.383632 0
M  V30 12569 O 1194.45 1.8123 -0.596694 0
M  V30 12570 C 1191.59 3.10433 -1.50749 0
M  V30 12571 C 1190.7 3.3178 -2.76669 0
M  V30 12572 C 1189.84 4.60173 -2.65356 0
M  V30 12573 C 1188.88 4.74769 -3.86343 0
M  V30 12574 N 1188.01 5.94459 -3.73581 0
M  V30 12575 H 1192.85 1.64239 -2.48655 0
M  V30 12576 H 1190.39 0.800879 -1.23387 0
M  V30 12577 H 1192.35 3.90446 -1.46996 0
M  V30 12578 H 1190.98 3.17288 -0.593998 0
M  V30 12579 H 1190.03 2.45563 -2.90522 0
M  V30 12580 H 1191.34 3.38439 -3.66416 0
M  V30 12581 H 1190.5 5.48377 -2.59553 0
M  V30 12582 H 1189.24 4.55907 -1.73204 0
M  V30 12583 H 1188.24 3.8499 -3.92509 0
M  V30 12584 H 1189.47 4.80834 -4.79557 0
M  V30 12585 H 1187.41 5.91243 -2.84196 0
M  V30 12586 H 1187.33 6.02265 -4.5696 0
M  V30 12587 H 1188.6 6.85168 -3.71705 0
M  V30 12588 N 1192.83 1.32541 0.852676 0
M  V30 12589 C 1194.05 1.2636 1.64462 0
M  V30 12590 C 1194.48 -0.16508 1.87374 0
M  V30 12591 O 1193.83 -1.11712 1.42794 0
M  V30 12592 C 1193.88 2.03052 2.97997 0
M  V30 12593 O 1192.99 1.37967 3.88637 0
M  V30 12594 H 1192.33 0.435393 0.501327 0
M  V30 12595 H 1194.86 1.74888 1.06186 0
M  V30 12596 H 1194.87 2.133 3.47803 0
M  V30 12597 H 1193.54 3.06941 2.80642 0
M  V30 12598 H 1192.12 1.36279 3.47106 0
M  V30 12599 N 1194.3 -1.0692 1.15784 0
M  V30 12600 C 1195.53 -1.8331 0.959422 0
M  V30 12601 C 1195.95 -1.82268 -0.492332 0
M  V30 12602 O 1195.3 -1.23727 -1.34156 0
M  V30 12603 C 1195.36 -3.30202 1.47135 0
M  V30 12604 O 1195.08 -3.31328 2.86624 0
M  V30 12605 C 1196.58 -4.23346 1.31504 0
M  V30 12606 H 1193.8 -0.578202 0.340475 0
M  V30 12607 H 1196.34 -1.34939 1.53661 0
M  V30 12608 H 1194.5 -3.75908 0.936587 0
M  V30 12609 H 1194.91 -4.23135 3.0993 0
M  V30 12610 H 1196.38 -5.24465 1.72163 0
M  V30 12611 H 1196.86 -4.38431 0.259773 0
M  V30 12612 H 1197.47 -3.8348 1.83911 0
M  V30 12613 N 1195.78 -0.955326 -1.25345 0
M  V30 12614 C 1196.71 -0.494145 -2.28211 0
M  V30 12615 C 1197.69 0.459875 -1.63766 0
M  V30 12616 O 1198.88 0.358679 -1.90859 0
M  V30 12617 C 1196.01 0.228228 -3.46549 0
M  V30 12618 C 1194.96 -0.640601 -4.23179 0
M  V30 12619 C 1194.29 0.212553 -5.34277 0
M  V30 12620 C 1195.59 -1.91906 -4.85767 0
M  V30 12621 H 1197.28 -1.35391 -2.67039 0
M  V30 12622 H 1194.83 -0.652462 -1.2837 0
M  V30 12623 H 1196.78 0.561995 -4.17636 0
M  V30 12624 H 1195.51 1.12224 -3.06714 0
M  V30 12625 H 1194.16 -0.957462 -3.53876 0
M  V30 12626 H 1193.81 1.10634 -4.90682 0
M  V30 12627 H 1193.51 -0.365473 -5.86462 0
M  V30 12628 H 1195.04 0.541271 -6.08196 0
M  V30 12629 H 1196.45 -1.65165 -5.48993 0
M  V30 12630 H 1194.85 -2.44279 -5.48131 0
M  V30 12631 H 1195.92 -2.62173 -4.07914 0
M  V30 12632 N 1197.26 1.39987 -0.723979 0
M  V30 12633 C 1198.68 1.54547 -0.398403 0
M  V30 12634 C 1198.88 1.69348 1.09194 0
M  V30 12635 O 1197.93 1.68778 1.87804 0
M  V30 12636 C 1199.25 2.76929 -1.1718 0
M  V30 12637 C 1200.79 2.90754 -1.15893 0
M  V30 12638 C 1201.27 4.16059 -1.91465 0
M  V30 12639 N 1202.76 4.23076 -1.88576 0
M  V30 12640 C 1203.5 5.18957 -2.43867 0
M  V30 12641 N 1202.99 6.20695 -3.0775 0
M  V30 12642 N 1204.78 5.11095 -2.33962 0
M  V30 12643 H 1196.94 1.28626 -1.69024 0
M  V30 12644 H 1199.2 0.6226 -0.714894 0
M  V30 12645 H 1198.9 2.72298 -2.22591 0
M  V30 12646 H 1198.78 3.69279 -0.768941 0
M  V30 12647 H 1201.17 2.94884 -0.112978 0
M  V30 12648 H 1201.25 1.99498 -1.60107 0
M  V30 12649 H 1200.89 4.12691 -2.96055 0
M  V30 12650 H 1200.82 5.06339 -1.44665 0
M  V30 12651 H 1203.31 3.50195 -1.42027 0
M  V30 12652 H 1203.62 6.90296 -3.47435 0
M  V30 12653 H 1201.97 6.21114 -3.11837 0
M  V30 12654 H 1205.16 4.30546 -1.83706 0
M  V30 12655 H 1205.33 5.85644 -2.77353 0
M  V30 12656 N 1198.74 0.470782 1.50404 0
M  V30 12657 C 1200.02 -0.145879 1.95055 0
M  V30 12658 C 1200.4 -1.57004 1.41114 0
M  V30 12659 O 1199.74 -2.20152 0.612006 0
M  V30 12660 C 1199.95 -0.0895071 3.48885 0
M  V30 12661 C 1201.3 -0.278548 4.23685 0
M  V30 12662 O 1202.33 -0.166105 3.55812 0
M  V30 12663 O 1201.19 -0.505606 5.44156 0
M  V30 12664 H 1198.28 -0.111838 0.819403 0
M  V30 12665 H 1200.83 0.531162 1.61173 0
M  V30 12666 H 1199.6 0.904836 3.80695 0
M  V30 12667 H 1199.22 -0.808019 3.89303 0
M  V30 12668 N 1200.22 -1.56282 0.203376 0
M  V30 12669 C 1201.45 -2.02198 -0.438572 0
M  V30 12670 C 1201.86 -1.08343 -1.54619 0
M  V30 12671 O 1201.22 -0.0897594 -1.82279 0
M  V30 12672 C 1201.27 -3.4776 -0.987184 0
M  V30 12673 O 1200.99 -4.38034 0.0762552 0
M  V30 12674 C 1202.49 -4.09234 -1.70419 0
M  V30 12675 H 1199.71 -0.662041 -0.109282 0
M  V30 12676 H 1202.25 -2.02067 0.314509 0
M  V30 12677 H 1200.41 -3.48564 -1.69061 0
M  V30 12678 H 1200.82 -5.2344 -0.333322 0
M  V30 12679 H 1202.3 -5.1291 -2.04027 0
M  V30 12680 H 1202.77 -3.53172 -2.61087 0
M  V30 12681 H 1203.38 -4.12226 -1.04641 0
M  V30 12682 N 1201.7 0.070167 -1.57444 0
M  V30 12683 C 1202.94 0.767842 -1.86513 0
M  V30 12684 C 1203.26 1.78659 -0.796257 0
M  V30 12685 O 1204.46 2.53395 -0.974845 0
M  V30 12686 C 1202.92 1.41654 -3.30851 0
M  V30 12687 C 1202.53 0.436273 -4.45871 0
M  V30 12688 C 1204.27 2.09649 -3.69117 0
M  V30 12689 C 1202.18 1.09098 -5.8125 0
M  V30 12690 H 1201.11 0.290519 -0.695784 0
M  V30 12691 H 1203.76 0.0211697 -1.83488 0
M  V30 12692 H 1202.14 2.21153 -3.28493 0
M  V30 12693 H 1203.32 -0.329022 -4.59624 0
M  V30 12694 H 1201.63 -0.139314 -4.16167 0
M  V30 12695 H 1204.23 2.59411 -4.67558 0
M  V30 12696 H 1204.57 2.89663 -2.99 0
M  V30 12697 H 1205.1 1.36979 -3.73472 0
M  V30 12698 H 1201.84 0.331128 -6.54663 0
M  V30 12699 H 1201.36 1.8271 -5.71294 0
M  V30 12700 H 1203.04 1.61034 -6.2664 0
M  V30 12701 N 1203.17 1.53854 0.341593 0
M  V30 12702 C 1204.45 1.61823 1.09875 0
M  V30 12703 C 1204.83 0.440711 2.06448 0
M  V30 12704 O 1204.18 -0.566833 2.21358 0
M  V30 12705 C 1204.39 2.9799 1.81668 0
M  V30 12706 C 1205.74 3.53411 2.35341 0
M  V30 12707 O 1206.76 3.00177 1.91761 0
M  V30 12708 O 1205.62 4.4653 3.15076 0
M  V30 12709 H 1202.71 0.654599 0.5054 0
M  V30 12710 H 1205.26 1.66199 0.342929 0
M  V30 12711 H 1204.03 3.7513 1.11323 0
M  V30 12712 H 1203.65 2.97213 2.64103 0
M  V30 12713 N 1204.65 -0.602709 1.4562 0
M  V30 12714 C 1205.58 -1.7271 1.50678 0
M  V30 12715 C 1206.6 -1.57884 0.397048 0
M  V30 12716 O 1207.79 -1.65676 0.664367 0
M  V30 12717 C 1204.89 -3.10762 1.35204 0
M  V30 12718 C 1204.06 -3.51782 2.59939 0
M  V30 12719 C 1203.12 -4.68816 2.38952 0
M  V30 12720 O 1202.14 -4.75686 3.12588 0
M  V30 12721 N 1203.35 -5.624 1.43827 0
M  V30 12722 H 1206.11 -1.68833 2.47619 0
M  V30 12723 H 1203.67 -0.788131 1.41422 0
M  V30 12724 H 1205.66 -3.86819 1.18967 0
M  V30 12725 H 1204.23 -3.09119 0.465203 0
M  V30 12726 H 1203.45 -2.65637 2.91257 0
M  V30 12727 H 1204.74 -3.75948 3.42842 0
M  V30 12728 H 1204.14 -5.59568 0.830669 0
M  V30 12729 H 1202.7 -6.37969 1.33561 0
M  V30 12730 N 1206.13 -1.32992 -0.845635 0
M  V30 12731 C 1207.38 -1.2382 -1.59728 0
M  V30 12732 C 1207.7 0.197724 -1.93995 0
M  V30 12733 O 1206.97 1.12477 -1.60392 0
M  V30 12734 H 1205.55 -0.455296 -0.592212 0
M  V30 12735 H 1208.21 -1.66627 -1.01101 0
M  V30 12736 H 1207.31 -1.82717 -2.53023 0
M  V30 12737 N 1207.61 1.06304 -1.1635 0
M  V30 12738 C 1208.54 2.15745 -0.893103 0
M  V30 12739 C 1209.52 1.69341 0.160531 0
M  V30 12740 O 1210.7 1.94196 0.0126526 0
M  V30 12741 C 1207.83 3.45066 -0.393287 0
M  V30 12742 C 1206.79 4.04978 -1.38482 0
M  V30 12743 C 1206.11 5.29507 -0.743409 0
M  V30 12744 C 1207.41 4.4377 -2.75438 0
M  V30 12745 H 1209.11 2.38622 -1.80831 0
M  V30 12746 H 1206.65 1.14681 -0.870878 0
M  V30 12747 H 1208.61 4.20964 -0.191607 0
M  V30 12748 H 1207.33 3.21808 0.557426 0
M  V30 12749 H 1205.99 3.31136 -1.57304 0
M  V30 12750 H 1205.64 5.02545 0.213787 0
M  V30 12751 H 1205.34 5.7055 -1.40521 0
M  V30 12752 H 1206.86 6.08102 -0.551746 0
M  V30 12753 H 1208.28 5.1075 -2.60398 0
M  V30 12754 H 1206.67 4.95797 -3.38091 0
M  V30 12755 H 1207.74 3.54636 -3.30699 0
M  V30 12756 N 1209.09 0.96196 1.24836 0
M  V30 12757 C 1210.32 0.637214 1.96528 0
M  V30 12758 C 1210.72 -0.79638 1.71623 0
M  V30 12759 O 1210.07 -1.54524 0.993372 0
M  V30 12760 C 1210.13 0.824972 3.49906 0
M  V30 12761 C 1209.79 2.23711 3.985 0
M  V30 12762 C 1210.79 3.21439 4.08623 0
M  V30 12763 C 1208.47 2.56327 4.31974 0
M  V30 12764 C 1210.47 4.49872 4.51546 0
M  V30 12765 C 1208.16 3.84987 4.74582 0
M  V30 12766 C 1209.15 4.81572 4.84332 0
M  V30 12767 O 1208.84 6.07938 5.25991 0
M  V30 12768 H 1208.57 0.237214 0.633013 0
M  V30 12769 H 1211.13 1.29081 1.59773 0
M  V30 12770 H 1209.36 0.114219 3.86531 0
M  V30 12771 H 1211.05 0.500179 4.02806 0
M  V30 12772 H 1211.81 2.97569 3.82985 0
M  V30 12773 H 1207.69 1.81872 4.23608 0
M  V30 12774 H 1211.24 5.25261 4.59071 0
M  V30 12775 H 1207.13 4.08661 4.99666 0
M  V30 12776 H 1207.9 6.11421 5.44157 0
M  V30 12777 N 1210.56 -1.39601 0.731392 0
M  V30 12778 C 1211.98 -1.54334 0.406594 0
M  V30 12779 C 1212.18 -1.69925 -1.08295 0
M  V30 12780 O 1211.24 -1.69771 -1.86906 0
M  V30 12781 C 1212.55 -2.76303 1.18647 0
M  V30 12782 C 1214.1 -2.90135 1.17433 0
M  V30 12783 C 1214.57 -4.15038 1.93669 0
M  V30 12784 N 1216.06 -4.2207 1.90817 0
M  V30 12785 C 1216.8 -5.17656 2.46616 0
M  V30 12786 N 1216.29 -6.19054 3.11037 0
M  V30 12787 N 1218.09 -5.09847 2.3667 0
M  V30 12788 H 1210.24 -1.27728 1.69703 0
M  V30 12789 H 1212.5 -0.6188 0.718186 0
M  V30 12790 H 1212.21 -2.71113 2.24032 0
M  V30 12791 H 1212.08 -3.68866 0.788514 0
M  V30 12792 H 1214.47 -2.9482 0.128615 0
M  V30 12793 H 1214.55 -1.98646 1.61163 0
M  V30 12794 H 1214.19 -4.11115 2.9824 0
M  V30 12795 H 1214.12 -5.05565 1.47349 0
M  V30 12796 H 1216.61 -3.49437 1.43882 0
M  V30 12797 H 1216.93 -6.88444 3.51091 0
M  V30 12798 H 1215.27 -6.19452 3.15126 0
M  V30 12799 H 1218.46 -4.29566 1.85987 0
M  V30 12800 H 1218.64 -5.84165 2.80455 0
M  V30 12801 N 1212.04 -0.478751 -1.50152 0
M  V30 12802 C 1213.32 0.135533 -1.9513 0
M  V30 12803 C 1213.7 1.56253 -1.41944 0
M  V30 12804 O 1213.05 2.19824 -0.623673 0
M  V30 12805 C 1213.26 0.0710037 -3.48928 0
M  V30 12806 C 1214.61 0.256075 -4.23827 0
M  V30 12807 O 1215.63 0.147234 -3.55896 0
M  V30 12808 O 1214.49 0.476741 -5.44417 0
M  V30 12809 H 1211.58 0.107491 -0.819985 0
M  V30 12810 H 1214.13 -0.539701 -1.60889 0
M  V30 12811 H 1212.9 -0.925012 -3.80209 0
M  V30 12812 H 1212.52 0.787362 -3.89726 0
M  V30 12813 N 1213.52 1.56172 -0.211661 0
M  V30 12814 C 1214.75 2.02428 0.427843 0
M  V30 12815 C 1215.16 1.09162 1.54043 0
M  V30 12816 O 1214.52 0.0994249 1.82229 0
M  V30 12817 C 1214.57 3.48279 0.968728 0
M  V30 12818 O 1214.29 4.37987 -0.0994841 0
M  V30 12819 C 1215.79 4.10132 1.68246 0
M  V30 12820 H 1213.01 0.662611 0.10577 0
M  V30 12821 H 1215.56 2.01897 -0.32522 0
M  V30 12822 H 1213.71 3.49456 1.6721 0
M  V30 12823 H 1214.13 5.23609 0.305558 0
M  V30 12824 H 1215.6 5.13985 2.01304 0
M  V30 12825 H 1216.08 3.54552 2.5921 0
M  V30 12826 H 1216.68 4.12775 1.02453 0
M  V30 12827 N 1215 -0.0618163 1.57479 0
M  V30 12828 C 1216.24 -0.760193 1.88013 0
M  V30 12829 C 1216.58 -1.76718 0.805258 0
M  V30 12830 O 1215.85 -1.93633 -0.183408 0
M  V30 12831 C 1216.14 -1.45924 3.29208 0
M  V30 12832 C 1215.99 -0.467994 4.47359 0
M  V30 12833 C 1217.31 -2.40166 3.68793 0
M  V30 12834 H 1214.43 -0.274896 0.683814 0
M  V30 12835 H 1217.07 -0.0232433 1.89986 0
M  V30 12836 H 1215.22 -2.08741 3.27657 0
M  V30 12837 H 1216.89 0.155735 4.61037 0
M  V30 12838 H 1215.13 0.215797 4.33263 0
M  V30 12839 H 1215.8 -0.994942 5.42959 0
M  V30 12840 H 1218.28 -1.87419 3.71501 0
M  V30 12841 H 1217.16 -2.86076 4.68457 0
M  V30 12842 H 1217.42 -3.25413 2.99264 0
M  V30 12843 N 1216.48 -1.54033 -0.333429 0
M  V30 12844 C 1217.89 -1.44522 -0.677166 0
M  V30 12845 C 1218.09 -0.610122 -1.92041 0
M  V30 12846 O 1217.15 -0.105058 -2.52281 0
M  V30 12847 C 1218.46 -2.88129 -0.860369 0
M  V30 12848 C 1220.01 -2.97968 -0.958342 0
M  V30 12849 C 1220.48 -4.42703 -1.17379 0
M  V30 12850 N 1221.98 -4.46273 -1.24075 0
M  V30 12851 C 1222.71 -5.55407 -1.42515 0
M  V30 12852 N 1222.21 -6.74528 -1.58062 0
M  V30 12853 N 1224 -5.43037 -1.45144 0
M  V30 12854 H 1216.15 -2.06815 0.483858 0
M  V30 12855 H 1218.41 -0.935307 0.15461 0
M  V30 12856 H 1218.12 -3.51695 -0.0182085 0
M  V30 12857 H 1217.99 -3.33668 -1.75913 0
M  V30 12858 H 1220.38 -2.34535 -1.79102 0
M  V30 12859 H 1220.46 -2.55774 -0.0362643 0
M  V30 12860 H 1220.11 -5.0672 -0.346004 0
M  V30 12861 H 1220.04 -4.82498 -2.10959 0
M  V30 12862 H 1222.53 -3.60439 -1.13545 0
M  V30 12863 H 1222.84 -7.53462 -1.71797 0
M  V30 12864 H 1221.18 -6.77454 -1.55179 0
M  V30 12865 H 1224.38 -4.4893 -1.32588 0
M  V30 12866 H 1224.55 -6.28146 -1.59173 0
M  V30 12867 N 1217.95 0.594978 -1.45938 0
M  V30 12868 C 1218.88 1.71536 -1.58422 0
M  V30 12869 C 1219.87 1.64441 -0.435116 0
M  V30 12870 O 1221.05 1.82647 -0.659839 0
M  V30 12871 C 1218.18 3.10163 -1.56257 0
M  V30 12872 C 1217.13 3.3208 -2.70013 0
M  V30 12873 C 1216.46 4.71108 -2.52905 0
M  V30 12874 C 1217.76 3.21105 -4.11933 0
M  V30 12875 H 1219.45 1.61344 -2.52207 0
M  V30 12876 H 1217 0.774791 -1.2138 0
M  V30 12877 H 1218.95 3.88352 -1.63587 0
M  V30 12878 H 1217.68 3.21225 -0.590093 0
M  V30 12879 H 1216.34 2.56286 -2.62132 0
M  V30 12880 H 1215.98 4.7892 -1.53768 0
M  V30 12881 H 1215.68 4.86727 -3.29197 0
M  V30 12882 H 1217.21 5.51482 -2.62107 0
M  V30 12883 H 1218.62 3.89153 -4.2099 0
M  V30 12884 H 1217.02 3.4825 -4.88715 0
M  V30 12885 H 1218.09 2.18359 -4.32952 0
M  V30 12886 N 1219.43 1.33438 0.838571 0
M  V30 12887 C 1220.68 1.26106 1.59589 0
M  V30 12888 C 1221.03 -0.171524 1.91634 0
M  V30 12889 O 1220.33 -1.11368 1.55909 0
M  V30 12890 C 1220.52 2.07002 2.9135 0
M  V30 12891 C 1220.35 3.57981 2.72175 0
M  V30 12892 C 1219.12 4.27293 2.69719 0
M  V30 12893 C 1221.32 4.52308 2.4479 0
M  V30 12894 N 1219.3 5.64221 2.41925 0
M  V30 12895 C 1220.67 5.77127 2.26549 0
M  V30 12896 C 1222.73 4.4139 2.3039 0
M  V30 12897 C 1221.43 6.9226 1.95368 0
M  V30 12898 C 1223.45 5.56339 2.00602 0
M  V30 12899 C 1222.82 6.80167 1.83173 0
M  V30 12900 H 1218.92 0.516656 0.587018 0
M  V30 12901 H 1221.5 1.67982 0.984382 0
M  V30 12902 H 1219.67 1.67446 3.50452 0
M  V30 12903 H 1221.4 1.91437 3.56558 0
M  V30 12904 H 1218.16 3.79571 2.83236 0
M  V30 12905 H 1218.58 6.36403 2.30911 0
M  V30 12906 H 1223.22 3.46289 2.42577 0
M  V30 12907 H 1220.94 7.87357 1.81918 0
M  V30 12908 H 1224.53 5.49827 1.90214 0
M  V30 12909 H 1223.41 7.67609 1.60455 0
M  V30 12910 N 1220.91 -1.05686 1.16912 0
M  V30 12911 C 1222.33 -1.30744 0.915327 0
M  V30 12912 C 1222.53 -1.96895 -0.428344 0
M  V30 12913 O 1221.58 -2.23941 -1.16647 0
M  V30 12914 C 1222.9 -2.18209 2.06894 0
M  V30 12915 C 1224.44 -2.31607 2.1054 0
M  V30 12916 C 1224.92 -3.2243 3.25273 0
M  V30 12917 N 1226.41 -3.30015 3.2503 0
M  V30 12918 C 1227.14 -4.00401 4.10447 0
M  V30 12919 N 1226.64 -4.73256 5.05965 0
M  V30 12920 N 1228.43 -3.96514 3.98413 0
M  V30 12921 H 1220.58 -0.611449 2.03409 0
M  V30 12922 H 1222.85 -0.332188 0.887894 0
M  V30 12923 H 1222.55 -1.76887 3.0398 0
M  V30 12924 H 1222.43 -3.18823 2.01573 0
M  V30 12925 H 1224.81 -2.72173 1.14044 0
M  V30 12926 H 1224.9 -1.30639 2.19925 0
M  V30 12927 H 1224.54 -2.82579 4.22032 0
M  V30 12928 H 1224.47 -4.23392 3.13125 0
M  V30 12929 H 1226.96 -2.781 2.55869 0
M  V30 12930 H 1227.27 -5.24509 5.67547 0
M  V30 12931 H 1225.62 -4.72215 5.09939 0
M  V30 12932 H 1228.81 -3.38719 3.2309 0
M  V30 12933 H 1228.98 -4.511 4.65202 0
M  V30 12934 N 1222.39 -0.968567 -1.24324 0
M  V30 12935 C 1223.32 -0.518323 -2.27674 0
M  V30 12936 C 1224.3 0.442479 -1.64244 0
M  V30 12937 O 1225.48 0.338416 -1.91229 0
M  V30 12938 C 1222.61 0.191459 -3.46772 0
M  V30 12939 C 1221.57 -0.685449 -4.22476 0
M  V30 12940 C 1220.89 0.155873 -5.34473 0
M  V30 12941 C 1222.19 -1.97047 -4.83704 0
M  V30 12942 H 1223.89 -1.38215 -2.65588 0
M  V30 12943 H 1221.43 -0.66604 -1.27671 0
M  V30 12944 H 1223.39 0.517667 -4.18208 0
M  V30 12945 H 1222.11 1.08965 -3.07887 0
M  V30 12946 H 1220.77 -0.994942 -3.52841 0
M  V30 12947 H 1220.42 1.05424 -4.91828 0
M  V30 12948 H 1220.12 -0.427655 -5.86042 0
M  V30 12949 H 1221.64 0.476733 -6.08736 0
M  V30 12950 H 1223.06 -1.70979 -5.4721 0
M  V30 12951 H 1221.45 -2.50079 -5.45509 0
M  V30 12952 H 1222.52 -2.66484 -4.0511 0
M  V30 12953 N 1223.87 1.39211 -0.738786 0
M  V30 12954 C 1225.11 2.00436 -0.28839 0
M  V30 12955 C 1225.44 1.58626 1.12552 0
M  V30 12956 O 1224.7 0.808154 1.78234 0
M  V30 12957 C 1225 3.55758 -0.342224 0
M  V30 12958 C 1224.66 4.1723 -1.70968 0
M  V30 12959 C 1223.32 4.33734 -2.08395 0
M  V30 12960 C 1225.68 4.51294 -2.60736 0
M  V30 12961 C 1223 4.81592 -3.35091 0
M  V30 12962 C 1225.36 5.00562 -3.86808 0
M  V30 12963 C 1224.02 5.15274 -4.24322 0
M  V30 12964 H 1223.29 0.733447 -0.105529 0
M  V30 12965 H 1225.94 1.66481 -0.94637 0
M  V30 12966 H 1224.24 3.8976 0.399331 0
M  V30 12967 H 1225.94 4.00993 0.0244582 0
M  V30 12968 H 1222.53 4.04788 -1.4087 0
M  V30 12969 H 1226.71 4.38158 -2.3309 0
M  V30 12970 H 1221.97 4.91167 -3.64095 0
M  V30 12971 H 1226.14 5.25892 -4.5652 0
M  V30 12972 H 1223.77 5.52119 -5.2256 0
M  V30 12973 N 1225.34 0.486708 1.49896 0
M  V30 12974 C 1226.76 0.141788 1.58969 0
M  V30 12975 C 1226.96 -1.35279 1.49338 0
M  V30 12976 O 1226.02 -2.1275 1.35992 0
M  V30 12977 C 1227.33 0.70588 2.92297 0
M  V30 12978 C 1228.88 0.670704 3.0573 0
M  V30 12979 C 1229.35 1.21261 4.41656 0
M  V30 12980 N 1230.84 1.17269 4.4811 0
M  V30 12981 C 1231.58 1.56233 5.51705 0
M  V30 12982 N 1231.07 2.02721 6.62477 0
M  V30 12983 N 1232.87 1.47738 5.42337 0
M  V30 12984 H 1225.02 1.45858 1.544 0
M  V30 12985 H 1227.28 0.604137 0.730563 0
M  V30 12986 H 1226.99 1.7535 3.04869 0
M  V30 12987 H 1226.86 0.158215 3.76868 0
M  V30 12988 H 1229.25 -0.368041 2.92796 0
M  V30 12989 H 1229.33 1.25535 2.22878 0
M  V30 12990 H 1228.97 2.25006 4.5534 0
M  V30 12991 H 1228.9 0.604031 5.23124 0
M  V30 12992 H 1231.39 0.831905 3.6863 0
M  V30 12993 H 1231.71 2.3056 7.37606 0
M  V30 12994 H 1230.05 2.06686 6.63556 0
M  V30 12995 H 1233.24 1.11249 4.54688 0
M  V30 12996 H 1233.42 1.78429 6.2295 0
M  V30 12997 N 1226.82 -1.56058 0.219941 0
M  V30 12998 C 1227.73 -2.23844 -0.70222 0
M  V30 12999 C 1228.75 -1.24554 -1.215 0
M  V30 13000 O 1229.93 -1.57362 -1.25695 0
M  V30 13001 C 1226.99 -2.90384 -1.89416 0
M  V30 13002 C 1226.05 -4.05012 -1.42351 0
M  V30 13003 C 1225.28 -4.68369 -2.55863 0
M  V30 13004 O 1225.51 -4.3071 -3.73958 0
M  V30 13005 O 1224.44 -5.5739 -2.27157 0
M  V30 13006 H 1228.27 -3.03305 -0.15478 0
M  V30 13007 H 1225.85 -1.49396 -0.010438 0
M  V30 13008 H 1227.73 -3.32389 -2.59028 0
M  V30 13009 H 1226.41 -2.13883 -2.42973 0
M  V30 13010 H 1225.32 -3.67579 -0.695448 0
M  V30 13011 H 1226.65 -4.83251 -0.934332 0
M  V30 13012 N 1228.3 0.053464 -1.57509 0
M  V30 13013 C 1229.55 0.748016 -1.87317 0
M  V30 13014 C 1229.86 1.77805 -0.815161 0
M  V30 13015 O 1231.07 2.52347 -1.00167 0
M  V30 13016 C 1229.53 1.38137 -3.32334 0
M  V30 13017 C 1229.13 0.388958 -4.46308 0
M  V30 13018 C 1230.88 2.05722 -3.7132 0
M  V30 13019 C 1228.78 1.02927 -5.82374 0
M  V30 13020 H 1227.71 0.283123 -0.698826 0
M  V30 13021 H 1230.37 0.00170723 -1.835 0
M  V30 13022 H 1228.75 2.17656 -3.3082 0
M  V30 13023 H 1229.92 -0.377752 -4.59249 0
M  V30 13024 H 1228.24 -0.183447 -4.15996 0
M  V30 13025 H 1230.83 2.54437 -4.70283 0
M  V30 13026 H 1231.18 2.86475 -3.02056 0
M  V30 13027 H 1231.71 1.3301 -3.74904 0
M  V30 13028 H 1228.45 0.261674 -6.54977 0
M  V30 13029 H 1227.97 1.7664 -5.732 0
M  V30 13030 H 1229.65 1.54378 -6.28312 0
M  V30 13031 N 1229.78 1.54207 0.325255 0
M  V30 13032 C 1230.71 1.86467 1.40543 0
M  V30 13033 C 1231.69 0.721324 1.54048 0
M  V30 13034 O 1232.88 0.974905 1.67956 0
M  V30 13035 C 1230.01 2.09052 2.77335 0
M  V30 13036 C 1228.96 3.24893 2.78619 0
M  V30 13037 C 1228.29 3.32846 4.1847 0
M  V30 13038 C 1229.59 4.62582 2.42518 0
M  V30 13039 H 1231.28 2.76932 1.13794 0
M  V30 13040 H 1228.83 1.33248 0.545971 0
M  V30 13041 H 1230.78 2.30204 3.52964 0
M  V30 13042 H 1229.5 1.15335 3.05558 0
M  V30 13043 H 1228.16 3.03625 2.05444 0
M  V30 13044 H 1227.81 2.3669 4.43832 0
M  V30 13045 H 1227.51 4.10701 4.20237 0
M  V30 13046 H 1229.03 3.56231 4.95915 0
M  V30 13047 H 1230.45 4.83627 3.07861 0
M  V30 13048 H 1228.84 5.42974 2.55538 0
M  V30 13049 H 1229.91 4.64946 1.3767 0
M  V30 13050 N 1231.26 -0.58723 1.46251 0
M  V30 13051 C 1232.53 -1.34727 1.41802 0
M  V30 13052 C 1232.91 -2.10867 0.0991354 0
M  V30 13053 O 1232.26 -2.09194 -0.919242 0
M  V30 13054 C 1232.47 -2.27706 2.64482 0
M  V30 13055 C 1233.82 -2.89678 3.10438 0
M  V30 13056 O 1234.84 -2.38021 2.64999 0
M  V30 13057 O 1233.7 -3.83493 3.89352 0
M  V30 13058 H 1230.8 -0.605119 0.563702 0
M  V30 13059 H 1233.34 -0.608623 1.5841 0
M  V30 13060 H 1232.12 -1.70842 3.52035 0
M  V30 13061 H 1231.74 -3.08918 2.50311 0
M  V30 13062 N 1232.74 -1.33881 -0.831482 0
M  V30 13063 C 1233.98 -1.25507 -1.58406 0
M  V30 13064 C 1234.3 0.177137 -1.94194 0
M  V30 13065 O 1233.57 1.10769 -1.61576 0
M  V30 13066 H 1232.15 -0.461551 -0.587349 0
M  V30 13067 H 1234.82 -1.6769 -0.99328 0
M  V30 13068 H 1233.91 -1.85391 -2.51071 0
M  V30 13069 N 1234.21 1.05064 -1.1747 0
M  V30 13070 C 1235.14 2.14786 -0.915936 0
M  V30 13071 C 1236.12 1.69502 0.142561 0
M  V30 13072 O 1237.31 1.94198 -0.00794522 0
M  V30 13073 C 1234.44 3.44629 -0.429864 0
M  V30 13074 C 1233.39 4.03486 -1.42769 0
M  V30 13075 C 1232.72 5.28689 -0.799528 0
M  V30 13076 C 1234.02 4.40823 -2.80129 0
M  V30 13077 H 1235.71 2.3669 -1.83352 0
M  V30 13078 H 1233.26 1.13751 -0.882992 0
M  V30 13079 H 1235.21 4.20737 -0.236245 0
M  V30 13080 H 1233.94 3.22381 0.523263 0
M  V30 13081 H 1232.6 3.29449 -1.60808 0
M  V30 13082 H 1232.24 5.02744 0.160474 0
M  V30 13083 H 1231.94 5.69028 -1.46565 0
M  V30 13084 H 1233.47 6.07483 -0.616212 0
M  V30 13085 H 1234.88 5.07959 -2.65801 0
M  V30 13086 H 1233.28 4.92183 -3.43331 0
M  V30 13087 H 1234.35 3.51108 -3.34441 0
M  V30 13088 N 1235.69 0.975146 1.23809 0
M  V30 13089 C 1236.65 0.516157 2.23312 0
M  V30 13090 C 1237.65 -0.39136 1.55965 0
M  V30 13091 O 1238.84 -0.185783 1.73206 0
M  V30 13092 C 1235.98 -0.251534 3.39971 0
M  V30 13093 H 1237.17 1.3959 2.65433 0
M  V30 13094 H 1234.72 0.760493 1.36551 0
M  V30 13095 H 1235.46 -1.14805 3.03299 0
M  V30 13096 H 1235.24 0.399825 3.90056 0
M  V30 13097 H 1236.73 -0.561438 4.13809 0
M  V30 13098 N 1237.17 -1.38817 0.746158 0
M  V30 13099 C 1238.4 -2.04274 0.309156 0
M  V30 13100 C 1238.81 -1.56389 -1.06486 0
M  V30 13101 O 1238.15 -0.728875 -1.68621 0
M  V30 13102 C 1238.21 -3.58664 0.245003 0
M  V30 13103 C 1237.88 -4.29574 1.55933 0
M  V30 13104 C 1238.87 -4.55454 2.50714 0
M  V30 13105 C 1236.56 -4.67907 1.82671 0
M  V30 13106 C 1238.55 -5.18691 3.70458 0
M  V30 13107 C 1236.24 -5.30869 3.0269 0
M  V30 13108 C 1237.24 -5.56195 3.96404 0
M  V30 13109 O 1236.93 -6.17848 5.14314 0
M  V30 13110 H 1236.66 -0.663162 0.131121 0
M  V30 13111 H 1239.21 -1.78636 1.01382 0
M  V30 13112 H 1237.44 -3.83244 -0.515847 0
M  V30 13113 H 1239.13 -4.05579 -0.16149 0
M  V30 13114 H 1239.9 -4.26276 2.3133 0
M  V30 13115 H 1235.78 -4.47544 1.10568 0
M  V30 13116 H 1239.32 -5.38375 4.4362 0
M  V30 13117 H 1235.22 -5.59469 3.2197 0
M  V30 13118 H 1235.98 -6.36338 5.14797 0
M  V30 13119 N 1238.65 -0.49465 -1.49636 0
M  V30 13120 C 1239.9 0.0539277 -2.01628 0
M  V30 13121 C 1240.21 1.38634 -1.37986 0
M  V30 13122 O 1241.42 2.02123 -1.81269 0
M  V30 13123 C 1239.87 0.146582 -3.59601 0
M  V30 13124 C 1239.48 -1.1788 -4.32213 0
M  V30 13125 C 1241.22 0.645862 -4.19558 0
M  V30 13126 C 1239.13 -1.04866 -5.82028 0
M  V30 13127 H 1238.06 0.0239278 -0.75362 0
M  V30 13128 H 1240.71 -0.633112 -1.72232 0
M  V30 13129 H 1239.09 0.897931 -3.85685 0
M  V30 13130 H 1240.27 -1.94295 -4.17835 0
M  V30 13131 H 1238.58 -1.61102 -3.83973 0
M  V30 13132 H 1241.18 0.76064 -5.29262 0
M  V30 13133 H 1241.52 1.64313 -3.82501 0
M  V30 13134 H 1242.06 -0.04877 -3.9777 0
M  V30 13135 H 1238.79 -2.02 -6.23599 0
M  V30 13136 H 1238.31 -0.325293 -5.98917 0
M  V30 13137 H 1239.99 -0.724799 -6.42927 0
M  V30 13138 N 1240.13 1.55939 -0.228214 0
M  V30 13139 C 1241.08 2.17223 0.692674 0
M  V30 13140 C 1242.06 1.12252 1.15275 0
M  V30 13141 O 1243.25 1.3822 1.10563 0
M  V30 13142 C 1240.38 2.86084 1.89766 0
M  V30 13143 C 1239.47 3.98288 1.45695 0
M  V30 13144 N 1239.86 5.00515 0.729258 0
M  V30 13145 C 1238.16 4.105 1.74372 0
M  V30 13146 C 1238.86 5.79516 0.503606 0
M  V30 13147 N 1237.83 5.33119 1.06229 0
M  V30 13148 H 1241.63 2.9362 0.128345 0
M  V30 13149 H 1239.15 1.62373 -0.0297445 0
M  V30 13150 H 1241.15 3.28404 2.5682 0
M  V30 13151 H 1239.81 2.11185 2.46639 0
M  V30 13152 H 1240.82 5.16495 0.381261 0
M  V30 13153 H 1237.49 3.46759 2.32518 0
M  V30 13154 H 1238.88 6.71857 -0.0760344 0
M  V30 13155 N 1241.6 -0.0451101 1.57535 0
M  V30 13156 C 1242.51 -1.06796 2.08882 0
M  V30 13157 C 1243.53 -1.40682 1.02394 0
M  V30 13158 O 1244.71 -1.50324 1.34033 0
M  V30 13159 C 1241.77 -2.35467 2.54472 0
M  V30 13160 C 1240.83 -2.0831 3.75374 0
M  V30 13161 C 1240.07 -3.30846 4.1878 0
M  V30 13162 O 1240.29 -4.40945 3.61834 0
M  V30 13163 O 1239.22 -3.17488 5.11356 0
M  V30 13164 H 1243.05 -0.661658 2.96405 0
M  V30 13165 H 1240.63 -0.26104 1.47102 0
M  V30 13166 H 1242.52 -3.11143 2.84198 0
M  V30 13167 H 1241.19 -2.75425 1.70068 0
M  V30 13168 H 1240.1 -1.30254 3.50692 0
M  V30 13169 H 1241.43 -1.73218 4.60713 0
M  V30 13170 N 1243.08 -1.54377 -0.317073 0
M  V30 13171 C 1244.03 -1.84214 -1.39046 0
M  V30 13172 C 1245 -0.689742 -1.51102 0
M  V30 13173 O 1246.18 -0.936809 -1.66218 0
M  V30 13174 C 1243.32 -2.08087 -2.75307 0
M  V30 13175 C 1242.44 -3.35756 -2.7183 0
M  V30 13176 C 1241.57 -3.49556 -3.9998 0
M  V30 13177 C 1240.61 -4.71076 -3.90837 0
M  V30 13178 N 1239.75 -4.81767 -5.10729 0
M  V30 13179 H 1244.59 -2.75785 -1.12902 0
M  V30 13180 H 1242.13 -1.36575 -0.546404 0
M  V30 13181 H 1244.08 -2.19921 -3.54529 0
M  V30 13182 H 1242.71 -1.19801 -2.99746 0
M  V30 13183 H 1241.77 -3.32627 -1.84563 0
M  V30 13184 H 1243.08 -4.2509 -2.60959 0
M  V30 13185 H 1242.23 -3.60967 -4.87635 0
M  V30 13186 H 1240.97 -2.58326 -4.13665 0
M  V30 13187 H 1239.98 -4.59715 -3.01566 0
M  V30 13188 H 1241.2 -5.63698 -3.78711 0
M  V30 13189 H 1239.15 -3.93455 -5.24908 0
M  V30 13190 H 1239.06 -5.65077 -5.02219 0
M  V30 13191 H 1240.33 -4.97517 -6.00081 0
M  V30 13192 N 1244.56 0.579466 -1.4656 0
M  V30 13193 C 1245.81 1.33492 -1.51738 0
M  V30 13194 C 1246.13 1.94241 -0.171926 0
M  V30 13195 O 1245.4 1.78737 0.801875 0
M  V30 13196 H 1243.98 0.49565 -0.558874 0
M  V30 13197 H 1246.64 0.678394 -1.82712 0
M  V30 13198 H 1245.74 2.13995 -2.27183 0
M  V30 13199 N 1246.04 1.3432 0.824371 0
M  V30 13200 C 1246.97 1.2012 1.94027 0
M  V30 13201 C 1247.95 0.0931808 1.62333 0
M  V30 13202 O 1249.13 0.258069 1.86725 0
M  V30 13203 C 1246.26 0.845628 3.27974 0
M  V30 13204 C 1245.31 1.9632 3.7863 0
M  V30 13205 S 1246.14 3.57642 3.98563 0
M  V30 13206 C 1247.3 3.24124 5.35439 0
M  V30 13207 H 1247.53 2.14579 2.05775 0
M  V30 13208 H 1245.06 1.1933 0.979783 0
M  V30 13209 H 1247.02 0.647266 4.05365 0
M  V30 13210 H 1245.68 -0.0805948 3.13997 0
M  V30 13211 H 1244.87 1.66812 4.75594 0
M  V30 13212 H 1244.48 2.11897 3.08181 0
M  V30 13213 H 1246.77 2.75848 6.188 0
M  V30 13214 H 1247.71 4.20222 5.69929 0
M  V30 13215 H 1248.12 2.60343 5.00881 0
M  V30 13216 N 1247.52 -1.0444 1.18026 0
M  V30 13217 C 1248.77 -1.7697 0.9677 0
M  V30 13218 C 1249.08 -1.88995 -0.503994 0
M  V30 13219 O 1250.28 -2.58342 -0.834968 0
M  V30 13220 C 1248.74 -3.1816 1.68232 0
M  V30 13221 C 1248.35 -3.14241 3.19307 0
M  V30 13222 C 1250.09 -3.95095 1.55244 0
M  V30 13223 C 1248 -4.50266 3.83425 0
M  V30 13224 H 1246.93 -0.663355 0.358436 0
M  V30 13225 H 1249.58 -1.17003 1.4136 0
M  V30 13226 H 1247.96 -3.78501 1.16418 0
M  V30 13227 H 1249.14 -2.63373 3.78115 0
M  V30 13228 H 1247.45 -2.50805 3.32394 0
M  V30 13229 H 1250.05 -4.95681 2.00511 0
M  V30 13230 H 1250.39 -4.13236 0.504125 0
M  V30 13231 H 1250.92 -3.4132 2.04317 0
M  V30 13232 H 1247.66 -4.37329 4.88286 0
M  V30 13233 H 1247.18 -5.01251 3.29404 0
M  V30 13234 H 1248.86 -5.1919 3.86071 0
M  V30 13235 N 1248.99 -0.981699 -1.2329 0
M  V30 13236 C 1249.94 -0.494116 -2.22581 0
M  V30 13237 C 1250.93 0.431573 -1.55004 0
M  V30 13238 O 1252.12 0.260215 -1.75077 0
M  V30 13239 C 1249.25 0.200884 -3.42712 0
M  V30 13240 C 1248.34 -0.744451 -4.17515 0
M  V30 13241 N 1248.73 -1.88762 -4.69257 0
M  V30 13242 C 1247.02 -0.558044 -4.42495 0
M  V30 13243 C 1247.73 -2.48006 -5.26182 0
M  V30 13244 N 1246.7 -1.76382 -5.14189 0
M  V30 13245 H 1250.5 -1.36616 -2.60218 0
M  V30 13246 H 1248.02 -0.842537 -1.38835 0
M  V30 13247 H 1250.01 0.567506 -4.13019 0
M  V30 13248 H 1248.67 1.0692 -3.06591 0
M  V30 13249 H 1249.69 -2.26877 -4.65561 0
M  V30 13250 H 1246.36 0.265139 -4.16657 0
M  V30 13251 H 1247.75 -3.44555 -5.76829 0
M  V30 13252 N 1250.47 1.3842 -0.753509 0
M  V30 13253 C 1251.89 1.53668 -0.431095 0
M  V30 13254 C 1252.09 1.71626 1.05578 0
M  V30 13255 O 1251.14 1.72723 1.84182 0
M  V30 13256 C 1252.46 2.74381 -1.23027 0
M  V30 13257 C 1254.01 2.8823 -1.22034 0
M  V30 13258 C 1254.48 4.11904 -2.00248 0
M  V30 13259 N 1255.97 4.18981 -1.97508 0
M  V30 13260 C 1256.71 5.13667 -2.5482 0
M  V30 13261 N 1256.2 6.14027 -3.20846 0
M  V30 13262 N 1258 5.06017 -2.44751 0
M  V30 13263 H 1250.15 1.25012 -1.71714 0
M  V30 13264 H 1252.41 0.607296 -0.727939 0
M  V30 13265 H 1252.12 2.67515 -2.28317 0
M  V30 13266 H 1251.99 3.67565 -0.847098 0
M  V30 13267 H 1254.38 2.94578 -0.175502 0
M  V30 13268 H 1254.46 1.96057 -1.64303 0
M  V30 13269 H 1254.1 4.06318 -3.04742 0
M  V30 13270 H 1254.03 5.03157 -1.55373 0
M  V30 13271 H 1256.52 3.47104 -1.49423 0
M  V30 13272 H 1256.84 6.82771 -3.61999 0
M  V30 13273 H 1255.18 6.1436 -3.24941 0
M  V30 13274 H 1258.37 4.26552 -1.92797 0
M  V30 13275 H 1258.54 5.7963 -2.89713 0
M  V30 13276 N 1251.95 0.502579 1.49372 0
M  V30 13277 C 1253.23 -0.104472 1.95321 0
M  V30 13278 C 1253.61 -1.53975 1.44412 0
M  V30 13279 O 1252.96 -2.18804 0.658566 0
M  V30 13280 C 1253.17 -0.0154833 3.48997 0
M  V30 13281 C 1254.51 -0.188615 4.24181 0
M  V30 13282 O 1255.54 -0.090595 3.56085 0
M  V30 13283 O 1254.4 -0.390068 5.45106 0
M  V30 13284 H 1251.49 -0.0944325 0.821591 0
M  V30 13285 H 1254.04 0.565229 1.6001 0
M  V30 13286 H 1252.81 0.985383 3.7869 0
M  V30 13287 H 1252.43 -0.72526 3.90929 0
M  V30 13288 N 1253.43 -1.55816 0.23648 0
M  V30 13289 C 1254.36 -2.23924 -0.661834 0
M  V30 13290 C 1255.34 -1.21597 -1.18946 0
M  V30 13291 O 1256.52 -1.50222 -1.23073 0
M  V30 13292 C 1253.65 -2.93069 -1.86355 0
M  V30 13293 C 1252.61 -4.01996 -1.46913 0
M  V30 13294 C 1251.93 -4.58512 -2.75083 0
M  V30 13295 C 1253.23 -5.18265 -0.647964 0
M  V30 13296 H 1254.93 -2.99253 -0.0939368 0
M  V30 13297 H 1252.47 -1.43934 -0.0437407 0
M  V30 13298 H 1254.43 -3.39412 -2.49755 0
M  V30 13299 H 1253.15 -2.15212 -2.45665 0
M  V30 13300 H 1251.81 -3.56406 -0.858522 0
M  V30 13301 H 1251.46 -3.77368 -3.3257 0
M  V30 13302 H 1251.16 -5.32037 -2.49421 0
M  V30 13303 H 1252.68 -5.07583 -3.39399 0
M  V30 13304 H 1254.1 -5.60898 -1.18602 0
M  V30 13305 H 1252.49 -5.98114 -0.487823 0
M  V30 13306 H 1253.56 -4.83691 0.342151 0
M  V30 13307 N 1254.91 0.036755 -1.57557 0
M  V30 13308 C 1255.85 1.03975 -2.06053 0
M  V30 13309 C 1256.82 1.36384 -0.948089 0
M  V30 13310 O 1258.01 1.46853 -1.21815 0
M  V30 13311 C 1255.15 2.33796 -2.53837 0
M  V30 13312 C 1254.26 2.07614 -3.78841 0
M  V30 13313 C 1253.4 3.3125 -4.15267 0
M  V30 13314 C 1252.44 3.00587 -5.33211 0
M  V30 13315 N 1251.57 4.16653 -5.65106 0
M  V30 13316 H 1256.41 0.61924 -2.91495 0
M  V30 13317 H 1253.95 0.294151 -1.44129 0
M  V30 13318 H 1255.91 3.09639 -2.79606 0
M  V30 13319 H 1254.54 2.73584 -1.71323 0
M  V30 13320 H 1253.59 1.22302 -3.60203 0
M  V30 13321 H 1254.9 1.80989 -4.64806 0
M  V30 13322 H 1254.06 4.15466 -4.42123 0
M  V30 13323 H 1252.79 3.60981 -3.27939 0
M  V30 13324 H 1251.8 2.14772 -5.06115 0
M  V30 13325 H 1253.02 2.72142 -6.22186 0
M  V30 13326 H 1250.97 4.4635 -4.80737 0
M  V30 13327 H 1250.89 3.93425 -6.45564 0
M  V30 13328 H 1252.16 5.01764 -5.96534 0
M  V30 13329 N 1256.39 1.54543 0.308881 0
M  V30 13330 C 1257.8 1.64532 0.882392 0
M  V30 13331 C 1258.15 0.54886 1.88367 0
M  V30 13332 O 1257.27 -0.315832 2.14083 0
M  V30 13333 C 1257.87 2.98251 1.60722 0
M  V30 13334 C 1256.43 3.10387 2.12925 0
M  V30 13335 C 1255.57 2.60176 0.959362 0
M  V30 13336 H 1258.52 1.58466 0.0860803 0
M  V30 13337 H 1258.55 2.89233 2.47233 0
M  V30 13338 H 1258.06 3.78033 0.878233 0
M  V30 13339 H 1256.16 2.35309 2.88895 0
M  V30 13340 H 1256.27 4.16421 2.36918 0
M  V30 13341 H 1254.64 2.16434 1.3427 0
M  V30 13342 H 1255.42 3.42429 0.244454 0
M  V30 13343 N 1257.86 -0.571685 1.46866 0
M  V30 13344 C 1259.11 -1.33145 1.52972 0
M  V30 13345 C 1259.44 -1.93314 0.185344 0
M  V30 13346 O 1258.72 -1.77083 -0.80447 0
M  V30 13347 C 1259 -2.4525 2.63675 0
M  V30 13348 C 1258.85 -1.90044 4.0768 0
M  V30 13349 C 1260.17 -3.47247 2.70384 0
M  V30 13350 H 1257.29 -0.482751 0.556885 0
M  V30 13351 H 1259.93 -0.641163 1.78855 0
M  V30 13352 H 1258.08 -3.04132 2.41735 0
M  V30 13353 H 1259.76 -1.35535 4.4094 0
M  V30 13354 H 1258 -1.20805 4.1664 0
M  V30 13355 H 1258.67 -2.71019 4.80887 0
M  V30 13356 H 1261.15 -2.98263 2.90135 0
M  V30 13357 H 1260.02 -4.23132 3.49643 0
M  V30 13358 H 1260.28 -4.05179 1.76868 0
M  V30 13359 N 1259.34 -1.34755 -0.817236 0
M  V30 13360 C 1260.29 -1.26816 -1.94988 0
M  V30 13361 C 1261.28 -0.165142 -1.68593 0
M  V30 13362 O 1262.49 -0.330469 -1.7694 0
M  V30 13363 H 1258.86 -0.394113 -0.640452 0
M  V30 13364 H 1260.84 -2.22528 -1.98806 0
M  V30 13365 C 1259.58 -1.04625 -3.31586 0
M  V30 13366 H 1258.91 -1.88735 -3.52447 0
M  V30 13367 H 1260.35 -1.03108 -4.11272 0
M  V30 13368 C 1258.81 0.250283 -3.35969 0
M  V30 13369 O 1259.34 1.24972 -3.81765 0
M  V30 13370 N 1257.54 0.285369 -2.89195 0
M  V30 13371 H 1257.09 -0.528528 -2.5212 0
M  V30 13372 H 1257.05 1.15261 -2.9251 0
M  V30 13373 N 1260.82 1.03812 -1.18578 0
M  V30 13374 C 1262.07 1.76455 -0.977071 0
M  V30 13375 C 1262.38 1.8926 0.493964 0
M  V30 13376 O 1263.59 2.58781 0.821256 0
M  V30 13377 C 1262.04 3.17264 -1.69917 0
M  V30 13378 C 1261.65 3.12543 -3.20969 0
M  V30 13379 C 1263.4 3.94266 -1.57337 0
M  V30 13380 C 1261.3 4.48226 -3.85807 0
M  V30 13381 H 1260.23 0.661445 -0.361949 0
M  V30 13382 H 1262.88 1.16252 -1.41978 0
M  V30 13383 H 1261.27 3.77878 -1.18424 0
M  V30 13384 H 1262.44 2.61364 -3.79507 0
M  V30 13385 H 1260.75 2.49039 -3.33719 0
M  V30 13386 H 1263.35 4.9461 -2.03137 0
M  V30 13387 H 1263.69 4.12963 -0.526033 0
M  V30 13388 H 1264.23 3.40232 -2.06124 0
M  V30 13389 H 1260.97 4.34734 -4.90599 0
M  V30 13390 H 1260.49 4.99497 -3.32058 0
M  V30 13391 H 1262.17 5.17135 -3.88819 0
M  V30 13392 N 1262.3 0.988223 1.22768 0
M  V30 13393 C 1263.54 0.661461 1.91392 0
M  V30 13394 C 1263.87 -0.805942 1.77016 0
M  V30 13395 O 1263.13 -1.5978 1.12999 0
M  V30 13396 C 1263.43 1.00744 3.42907 0
M  V30 13397 C 1263.09 2.46634 3.77469 0
M  V30 13398 C 1261.75 2.86503 3.86613 0
M  V30 13399 C 1264.11 3.41217 3.9398 0
M  V30 13400 C 1261.43 4.19954 4.09702 0
M  V30 13401 C 1263.79 4.74321 4.18572 0
M  V30 13402 C 1262.45 5.13938 4.25939 0
M  V30 13403 H 1261.72 0.242046 0.700353 0
M  V30 13404 H 1264.37 1.24354 1.45631 0
M  V30 13405 H 1262.67 0.34338 3.90292 0
M  V30 13406 H 1264.37 0.732714 3.94249 0
M  V30 13407 H 1260.96 2.14729 3.70931 0
M  V30 13408 H 1265.14 3.11589 3.86298 0
M  V30 13409 H 1260.4 4.50243 4.13631 0
M  V30 13410 H 1264.57 5.47561 4.30291 0
M  V30 13411 H 1262.2 6.17364 4.43583 0
M  V30 13412 N 1263.78 -1.38018 0.760839 0
M  V30 13413 C 1264.71 -2.32995 0.153557 0
M  V30 13414 C 1265.69 -1.55234 -0.695448 0
M  V30 13415 O 1266.87 -1.8352 -0.635148 0
M  V30 13416 C 1264 -3.39437 -0.734811 0
M  V30 13417 C 1262.96 -4.27998 0.0120287 0
M  V30 13418 C 1262.28 -5.25359 -0.995067 0
M  V30 13419 C 1263.58 -5.08687 1.18468 0
M  V30 13420 H 1265.28 -2.8403 0.946956 0
M  V30 13421 H 1262.82 -1.36562 0.456816 0
M  V30 13422 H 1264.77 -4.0485 -1.16938 0
M  V30 13423 H 1263.5 -2.86901 -1.56061 0
M  V30 13424 H 1262.16 -3.64102 0.427254 0
M  V30 13425 H 1261.81 -4.69108 -1.81512 0
M  V30 13426 H 1261.51 -5.85469 -0.499969 0
M  V30 13427 H 1263.03 -5.93648 -1.4288 0
M  V30 13428 H 1264.44 -5.67299 0.8273 0
M  V30 13429 H 1262.84 -5.78068 1.61112 0
M  V30 13430 H 1263.91 -4.42 1.99409 0
M  V30 13431 N 1265.25 -0.510493 -1.49103 0
M  V30 13432 C 1266.53 0.0941122 -1.95373 0
M  V30 13433 C 1266.91 1.53207 -1.45227 0
M  V30 13434 O 1266.26 2.18452 -0.670161 0
M  V30 13435 C 1266.47 -0.00302507 -3.49 0
M  V30 13436 C 1267.82 0.166117 -4.24275 0
M  V30 13437 O 1268.84 0.0717097 -3.56128 0
M  V30 13438 O 1267.7 0.361155 -5.45305 0
M  V30 13439 H 1264.79 0.0900741 -0.82208 0
M  V30 13440 H 1267.34 -0.573707 -1.59708 0
M  V30 13441 H 1266.11 -1.00545 -3.78162 0
M  V30 13442 H 1265.73 0.704518 -3.91308 0
M  V30 13443 N 1266.73 1.55688 -0.24474 0
M  V30 13444 C 1267.96 2.03743 0.387776 0
M  V30 13445 C 1268.38 1.1229 1.50906 0
M  V30 13446 O 1267.74 0.115445 1.80932 0
M  V30 13447 C 1267.79 3.49825 0.874927 0
M  V30 13448 O 1266.89 3.61504 1.98466 0
M  V30 13449 H 1266.23 0.658561 0.0848107 0
M  V30 13450 H 1268.76 2.01224 -0.370165 0
M  V30 13451 H 1268.77 3.90603 1.17871 0
M  V30 13452 H 1267.45 4.15864 0.0543852 0
M  V30 13453 H 1266.02 3.32622 1.68574 0
M  V30 13454 N 1268.21 -0.0283989 1.57574 0
M  V30 13455 C 1269.49 -0.754527 1.80461 0
M  V30 13456 C 1269.87 -1.93539 0.842966 0
M  V30 13457 O 1269.21 -2.28212 -0.114714 0
M  V30 13458 C 1269.42 -1.18694 3.28196 0
M  V30 13459 C 1270.77 -1.60257 3.93196 0
M  V30 13460 O 1271.8 -1.2815 3.32349 0
M  V30 13461 O 1270.66 -2.19853 5.00327 0
M  V30 13462 H 1267.75 -0.364936 0.742126 0
M  V30 13463 H 1270.3 -0.00512589 1.69699 0
M  V30 13464 H 1269.07 -0.34398 3.89785 0
M  V30 13465 H 1268.69 -1.99633 3.43849 0
M  V30 13466 N 1269.69 -1.54705 -0.300681 0
M  V30 13467 C 1270.96 -1.6468 -1.05546 0
M  V30 13468 C 1271.34 -0.495292 -2.05207 0
M  V30 13469 O 1270.69 0.507944 -2.22783 0
M  V30 13470 C 1270.9 -3.02702 -1.73703 0
M  V30 13471 C 1272.25 -3.59527 -2.25888 0
M  V30 13472 O 1273.27 -3.05156 -1.83735 0
M  V30 13473 O 1272.13 -4.54727 -3.03126 0
M  V30 13474 H 1269.23 -0.667769 -0.487867 0
M  V30 13475 H 1271.77 -1.6705 -0.298743 0
M  V30 13476 H 1270.55 -3.7795 -1.01338 0
M  V30 13477 H 1270.17 -3.0411 -2.5613 0
M  V30 13478 N 1271.17 0.563888 -1.47167 0
M  V30 13479 C 1272.12 1.66687 -1.55562 0
M  V30 13480 C 1273.1 1.55455 -0.415024 0
M  V30 13481 O 1274.29 1.64051 -0.664557 0
M  V30 13482 C 1271.42 3.05469 -1.56665 0
M  V30 13483 C 1270.51 3.21928 -2.76085 0
M  V30 13484 N 1270.9 3.08477 -4.00844 0
M  V30 13485 C 1269.2 3.52913 -2.72706 0
M  V30 13486 C 1269.9 3.27447 -4.80784 0
M  V30 13487 N 1268.87 3.53474 -4.12986 0
M  V30 13488 H 1272.68 1.54846 -2.498 0
M  V30 13489 H 1270.19 0.76846 -1.43068 0
M  V30 13490 H 1272.19 3.84655 -1.60768 0
M  V30 13491 H 1270.85 3.18427 -0.635174 0
M  V30 13492 H 1271.86 2.85944 -4.31806 0
M  V30 13493 H 1268.53 3.7244 -1.88666 0
M  V30 13494 H 1269.92 3.22072 -5.89677 0
M  V30 13495 N 1272.64 1.35187 0.810078 0
M  V30 13496 C 1273.89 1.28454 1.56931 0
M  V30 13497 C 1274.22 -0.141747 1.93682 0
M  V30 13498 O 1273.5 -1.09028 1.61069 0
M  V30 13499 C 1273.78 2.18771 2.86027 0
M  V30 13500 C 1273.63 3.69999 2.55774 0
M  V30 13501 C 1274.95 2.08265 3.87703 0
M  V30 13502 H 1272.07 0.467959 0.569371 0
M  V30 13503 H 1274.71 1.65556 0.932262 0
M  V30 13504 H 1272.86 1.8726 3.40391 0
M  V30 13505 H 1274.54 4.11936 2.07621 0
M  V30 13506 H 1272.78 3.90453 1.89021 0
M  V30 13507 H 1273.45 4.28577 3.47888 0
M  V30 13508 H 1275.93 2.35958 3.42729 0
M  V30 13509 H 1274.8 2.73663 4.75815 0
M  V30 13510 H 1275.06 1.06352 4.29117 0
M  V30 13511 N 1274.12 -1.03182 1.19127 0
M  V30 13512 C 1275.07 -2.11394 0.926339 0
M  V30 13513 C 1276.04 -1.65528 -0.137703 0
M  V30 13514 O 1277.22 -1.908 0.00381804 0
M  V30 13515 C 1274.36 -3.41913 0.467894 0
M  V30 13516 C 1273.48 -4.01343 1.59837 0
M  V30 13517 C 1272.61 -5.1986 1.09175 0
M  V30 13518 C 1271.65 -5.71339 2.19632 0
M  V30 13519 N 1270.79 -6.81133 1.703 0
M  V30 13520 H 1275.63 -2.33393 1.85288 0
M  V30 13521 H 1273.17 -1.14473 0.923811 0
M  V30 13522 H 1275.12 -4.16796 0.183513 0
M  V30 13523 H 1273.75 -3.20034 -0.421656 0
M  V30 13524 H 1272.81 -3.23702 1.99803 0
M  V30 13525 H 1274.12 -4.35568 2.43068 0
M  V30 13526 H 1273.27 -6.0189 0.762427 0
M  V30 13527 H 1272.01 -4.87161 0.22914 0
M  V30 13528 H 1271.02 -4.87923 2.53399 0
M  V30 13529 H 1272.24 -6.06078 3.06344 0
M  V30 13530 H 1270.19 -6.50293 0.863415 0
M  V30 13531 H 1270.1 -7.1447 2.47122 0
M  V30 13532 H 1271.37 -7.66766 1.40321 0
M  V30 13533 N 1275.6 -0.99472 -1.22242 0
M  V30 13534 C 1276.85 -0.667045 -1.90351 0
M  V30 13535 C 1277.16 0.804615 -1.78284 0
M  V30 13536 O 1278.37 1.24395 -2.41326 0
M  V30 13537 C 1276.82 -1.14256 -3.41282 0
M  V30 13538 C 1276.43 -2.63958 -3.61981 0
M  V30 13539 C 1278.18 -0.889302 -4.1508 0
M  V30 13540 C 1276.08 -3.05103 -5.06622 0
M  V30 13541 H 1275.01 -0.245795 -0.712812 0
M  V30 13542 H 1277.66 -1.20452 -1.38432 0
M  V30 13543 H 1276.05 -0.533203 -3.92394 0
M  V30 13544 H 1277.22 -3.30255 -3.21354 0
M  V30 13545 H 1275.54 -2.87186 -3.01518 0
M  V30 13546 H 1278.13 -1.17239 -5.21689 0
M  V30 13547 H 1278.48 0.174556 -4.15934 0
M  V30 13548 H 1279.01 -1.46095 -3.70002 0
M  V30 13549 H 1275.75 -4.10672 -5.1091 0
M  V30 13550 H 1275.27 -2.4351 -5.48145 0
M  V30 13551 H 1276.95 -2.96506 -5.75059 0
M  V30 13552 N 1277.08 1.37613 -0.768148 0
M  V30 13553 C 1278.33 1.99384 -0.330187 0
M  V30 13554 C 1278.65 1.61283 1.09604 0
M  V30 13555 O 1277.92 0.876551 1.75195 0
M  V30 13556 H 1276.5 0.737445 -0.119095 0
M  V30 13557 H 1279.16 1.6815 -0.985476 0
M  V30 13558 H 1278.26 3.09462 -0.40494 0
M  V30 13559 N 1278.56 0.518393 1.4883 0
M  V30 13560 C 1279.83 -0.0837498 1.95421 0
M  V30 13561 C 1280.21 -1.52435 1.46037 0
M  V30 13562 O 1279.56 -2.18093 0.681736 0
M  V30 13563 C 1279.77 0.0215333 3.48993 0
M  V30 13564 C 1281.12 -0.143615 4.24357 0
M  V30 13565 O 1282.14 -0.0528223 3.56161 0
M  V30 13566 O 1281 -0.332231 5.45489 0
M  V30 13567 H 1278.1 -0.0857132 0.822546 0
M  V30 13568 H 1280.64 0.582169 1.59402 0
M  V30 13569 H 1279.41 1.02549 3.77623 0
M  V30 13570 H 1279.04 -0.683756 3.91677 0
M  V30 13571 N 1280.03 -1.55556 0.252993 0
M  V30 13572 C 1281.28 -1.9909 -0.37005 0
M  V30 13573 C 1281.61 -1.1412 -1.57502 0
M  V30 13574 O 1280.86 -0.193471 -1.94741 0
M  V30 13575 C 1281.16 -3.47925 -0.817484 0
M  V30 13576 C 1280.83 -4.50027 0.280398 0
M  V30 13577 C 1279.49 -4.77669 0.581914 0
M  V30 13578 C 1281.84 -5.11096 1.02129 0
M  V30 13579 C 1279.17 -5.63652 1.62829 0
M  V30 13580 C 1281.52 -5.98215 2.05723 0
M  V30 13581 C 1280.19 -6.24186 2.36533 0
M  V30 13582 H 1279.46 -0.728522 -0.135411 0
M  V30 13583 H 1282.1 -1.88046 0.36209 0
M  V30 13584 H 1280.41 -3.56333 -1.62893 0
M  V30 13585 H 1282.11 -3.79001 -1.30993 0
M  V30 13586 H 1278.7 -4.28585 0.0352579 0
M  V30 13587 H 1282.88 -4.89784 0.801603 0
M  V30 13588 H 1278.14 -5.82028 1.87227 0
M  V30 13589 H 1282.31 -6.44575 2.6362 0
M  V30 13590 H 1279.94 -6.90607 3.17752 0
M  V30 13591 N 1281.51 0.0200419 -1.57587 0
M  V30 13592 C 1282.76 0.707627 -1.89307 0
M  V30 13593 C 1283.08 1.7541 -0.851831 0
M  V30 13594 O 1282.35 1.95571 0.113404 0
M  V30 13595 H 1280.93 0.264349 -0.698662 0
M  V30 13596 H 1283.59 -0.0161428 -1.94893 0
M  V30 13597 H 1282.69 1.19152 -2.8846 0
M  V30 13598 N 1282.99 1.54862 0.292472 0
M  V30 13599 C 1283.92 1.89406 1.36556 0
M  V30 13600 C 1284.9 0.753838 1.52484 0
M  V30 13601 O 1286.09 1.01031 1.6585 0
M  V30 13602 C 1283.22 2.14888 2.72838 0
M  V30 13603 C 1282.17 3.3073 2.71665 0
M  V30 13604 C 1281.5 3.41648 4.11316 0
M  V30 13605 C 1282.8 4.67622 2.32651 0
M  V30 13606 H 1284.49 2.79284 1.07894 0
M  V30 13607 H 1282.04 1.34377 0.517585 0
M  V30 13608 H 1283.99 2.3764 3.48002 0
M  V30 13609 H 1282.71 1.2179 3.03042 0
M  V30 13610 H 1281.37 3.07915 1.98958 0
M  V30 13611 H 1281.02 2.46051 4.38711 0
M  V30 13612 H 1280.72 4.19522 4.11431 0
M  V30 13613 H 1282.24 3.6667 4.88248 0
M  V30 13614 H 1283.66 4.90048 2.97533 0
M  V30 13615 H 1282.06 5.48272 2.43963 0
M  V30 13616 H 1283.13 4.67762 1.27777 0
M  V30 13617 N 1284.47 -0.556076 1.47464 0
M  V30 13618 C 1285.43 -1.64515 1.59586 0
M  V30 13619 C 1286.43 -1.53751 0.470881 0
M  V30 13620 O 1287.62 -1.57889 0.735979 0
M  V30 13621 C 1284.75 -3.0406 1.54143 0
M  V30 13622 H 1285.95 -1.55116 2.56669 0
M  V30 13623 H 1283.5 -0.776087 1.35671 0
M  V30 13624 H 1284.23 -3.18991 0.584395 0
M  V30 13625 H 1284.02 -3.13282 2.3579 0
M  V30 13626 H 1285.51 -3.8329 1.65766 0
M  V30 13627 N 1285.95 -1.35615 -0.802897 0
M  V30 13628 C 1287.18 -1.32217 -1.59142 0
M  V30 13629 C 1287.59 0.0995496 -1.88537 0
M  V30 13630 O 1286.95 1.05258 -1.49087 0
M  V30 13631 C 1287 -2.13048 -2.92049 0
M  V30 13632 O 1286.72 -3.49677 -2.63927 0
M  V30 13633 C 1288.22 -2.17278 -3.864 0
M  V30 13634 H 1285.44 -0.454054 -0.49404 0
M  V30 13635 H 1287.98 -1.78521 -0.997516 0
M  V30 13636 H 1286.14 -1.70334 -3.47944 0
M  V30 13637 H 1286.55 -3.917 -3.48814 0
M  V30 13638 H 1288.03 -2.7822 -4.76758 0
M  V30 13639 H 1288.5 -1.17253 -4.23259 0
M  V30 13640 H 1289.11 -2.6017 -3.3644 0
M  V30 13641 N 1287.43 1.02549 -1.19673 0
M  V30 13642 C 1288.7 1.73106 -0.9107 0
M  V30 13643 C 1289.08 2.02897 0.582769 0
M  V30 13644 O 1288.43 1.68633 1.54192 0
M  V30 13645 C 1288.64 3.00535 -1.77425 0
M  V30 13646 C 1289.99 3.73976 -2.01065 0
M  V30 13647 O 1291.01 3.1047 -1.74605 0
M  V30 13648 O 1289.87 4.88153 -2.457 0
M  V30 13649 H 1286.97 0.754006 -0.339711 0
M  V30 13650 H 1289.51 1.08477 -1.30502 0
M  V30 13651 H 1288.28 2.74773 -2.78595 0
M  V30 13652 H 1287.91 3.72904 -1.37943 0
M  V30 13653 N 1288.9 1.00119 1.21713 0
M  V30 13654 C 1289.85 0.529464 2.21767 0
M  V30 13655 C 1290.84 -0.406858 1.55671 0
M  V30 13656 O 1292.03 -0.232329 1.75469 0
M  V30 13657 C 1289.16 -0.146336 3.42988 0
M  V30 13658 C 1288.24 0.81078 4.16278 0
M  V30 13659 N 1288.64 1.96204 4.66195 0
M  V30 13660 C 1286.93 0.628371 4.41551 0
M  V30 13661 C 1287.63 2.56346 5.2217 0
M  V30 13662 N 1286.61 1.8454 5.11318 0
M  V30 13663 H 1290.41 1.40738 2.58012 0
M  V30 13664 H 1287.93 0.864518 1.37477 0
M  V30 13665 H 1289.92 -0.501726 4.1387 0
M  V30 13666 H 1288.58 -1.02029 3.08254 0
M  V30 13667 H 1289.59 2.34255 4.61893 0
M  V30 13668 H 1286.27 -0.198819 4.17026 0
M  V30 13669 H 1287.66 3.53688 5.71274 0
M  V30 13670 N 1290.38 -1.37203 0.775435 0
M  V30 13671 C 1291.31 -2.32819 0.17826 0
M  V30 13672 C 1292.29 -1.55963 -0.678944 0
M  V30 13673 O 1293.48 -1.84183 -0.615648 0
M  V30 13674 C 1290.61 -3.40198 -0.698768 0
M  V30 13675 C 1289.56 -4.27961 0.057423 0
M  V30 13676 C 1288.89 -5.26385 -0.93929 0
M  V30 13677 C 1290.19 -5.07402 1.23856 0
M  V30 13678 H 1291.88 -2.8301 0.977028 0
M  V30 13679 H 1289.43 -1.3607 0.471274 0
M  V30 13680 H 1291.38 -4.06067 -1.12637 0
M  V30 13681 H 1290.1 -2.88541 -1.53009 0
M  V30 13682 H 1288.76 -3.63628 0.465848 0
M  V30 13683 H 1288.41 -4.71007 -1.76527 0
M  V30 13684 H 1288.11 -5.85966 -0.437844 0
M  V30 13685 H 1289.64 -5.9513 -1.36576 0
M  V30 13686 H 1291.05 -5.6639 0.887423 0
M  V30 13687 H 1289.45 -5.76327 1.67234 0
M  V30 13688 H 1290.52 -4.3986 2.04085 0
M  V30 13689 N 1291.86 -0.526279 -1.48553 0
M  V30 13690 C 1292.82 0.227739 -2.28066 0
M  V30 13691 C 1293.82 0.871146 -1.35158 0
M  V30 13692 O 1295.01 0.731769 -1.58085 0
M  V30 13693 C 1292.14 1.32918 -3.1392 0
M  V30 13694 H 1293.34 -0.470313 -2.96189 0
M  V30 13695 H 1290.89 -0.282089 -1.53733 0
M  V30 13696 H 1291.63 2.0606 -2.50419 0
M  V30 13697 H 1291.41 0.872991 -3.82258 0
M  V30 13698 H 1292.9 1.85964 -3.73908 0
M  V30 13699 N 1293.34 1.5542 -0.261239 0
M  V30 13700 C 1294.58 1.99284 0.359487 0
M  V30 13701 C 1294.91 1.14954 1.56894 0
M  V30 13702 O 1294.17 0.203796 1.94636 0
M  V30 13703 C 1294.47 3.48354 0.799021 0
M  V30 13704 C 1294.13 4.49872 -0.30426 0
M  V30 13705 C 1292.79 4.77353 -0.607237 0
M  V30 13706 C 1295.15 5.10547 -1.04838 0
M  V30 13707 C 1292.47 5.62781 -1.65816 0
M  V30 13708 C 1294.83 5.97115 -2.08893 0
M  V30 13709 C 1293.49 6.22923 -2.3984 0
M  V30 13710 H 1292.76 0.72923 0.131546 0
M  V30 13711 H 1295.41 1.87851 -0.372058 0
M  V30 13712 H 1293.71 3.57192 1.61001 0
M  V30 13713 H 1295.41 3.7969 1.28981 0
M  V30 13714 H 1292 4.28561 -0.0579863 0
M  V30 13715 H 1296.18 4.89352 -0.827566 0
M  V30 13716 H 1291.44 5.81026 -1.90311 0
M  V30 13717 H 1295.61 6.43168 -2.67035 0
M  V30 13718 H 1293.24 6.88912 -3.2141 0
M  V30 13719 N 1294.82 -0.0116844 1.57596 0
M  V30 13720 C 1296.04 -0.713924 1.94725 0
M  V30 13721 C 1296.47 -1.67157 0.862565 0
M  V30 13722 O 1295.82 -1.80401 -0.180308 0
M  V30 13723 C 1295.87 -1.43214 3.30941 0
M  V30 13724 O 1294.98 -2.5461 3.24419 0
M  V30 13725 H 1294.32 -0.190772 0.636005 0
M  V30 13726 H 1296.85 0.0380247 2.04565 0
M  V30 13727 H 1296.86 -1.79819 3.66237 0
M  V30 13728 H 1295.53 -0.729906 4.09445 0
M  V30 13729 H 1294.11 -2.20419 3.00782 0
M  V30 13730 N 1296.29 -1.55015 -0.284256 0
M  V30 13731 C 1297.26 -1.8636 -1.33426 0
M  V30 13732 C 1298.26 -0.737457 -1.42892 0
M  V30 13733 O 1299.45 -1.00569 -1.42238 0
M  V30 13734 C 1296.58 -2.05884 -2.71707 0
M  V30 13735 H 1297.77 -2.80212 -1.06869 0
M  V30 13736 H 1295.32 -1.47334 -0.521767 0
M  V30 13737 H 1296.06 -1.14376 -3.03461 0
M  V30 13738 H 1295.84 -2.87867 -2.66224 0
M  V30 13739 H 1297.33 -2.31447 -3.47595 0
M  V30 13740 N 1297.77 0.548248 -1.47757 0
M  V30 13741 C 1299.05 1.3092 -1.45325 0
M  V30 13742 C 1299.43 2.1053 -0.155008 0
M  V30 13743 O 1298.78 2.11558 0.863455 0
M  V30 13744 C 1298.99 2.20614 -2.70426 0
M  V30 13745 C 1300.33 2.81345 -3.18009 0
M  V30 13746 O 1301.36 2.30911 -2.71216 0
M  V30 13747 O 1300.22 3.73036 -3.99383 0
M  V30 13748 H 1297.31 0.58996 -0.579548 0
M  V30 13749 H 1299.86 0.56641 -1.59968 0
M  V30 13750 H 1298.63 1.61449 -3.56441 0
M  V30 13751 H 1298.25 3.02173 -2.58413 0
M  V30 13752 N 1299.25 1.36039 0.795694 0
M  V30 13753 C 1300.47 1.33222 1.58955 0
M  V30 13754 C 1300.9 -0.0854596 1.87906 0
M  V30 13755 O 1300.26 -1.05555 1.47403 0
M  V30 13756 C 1300.31 2.15508 2.89117 0
M  V30 13757 O 1299.41 1.54327 3.82436 0
M  V30 13758 H 1298.75 0.456264 0.48241 0
M  V30 13759 H 1301.28 1.79234 0.986726 0
M  V30 13760 H 1301.29 2.2786 3.38444 0
M  V30 13761 H 1299.97 3.18568 2.67371 0
M  V30 13762 H 1298.54 1.50879 3.41013 0
M  V30 13763 N 1300.73 -1.01913 1.20215 0
M  V30 13764 C 1301.68 -2.104 0.948708 0
M  V30 13765 C 1302.65 -1.65665 -0.120139 0
M  V30 13766 O 1303.83 -1.90785 0.0240547 0
M  V30 13767 C 1300.97 -3.41398 0.504132 0
M  V30 13768 C 1300.08 -3.99625 1.64085 0
M  V30 13769 C 1299.22 -5.18673 1.14683 0
M  V30 13770 C 1298.26 -5.68977 2.2568 0
M  V30 13771 N 1297.39 -6.79289 1.77514 0
M  V30 13772 H 1302.23 -2.31415 1.87753 0
M  V30 13773 H 1299.77 -1.13487 0.935901 0
M  V30 13774 H 1301.73 -4.16578 0.22771 0
M  V30 13775 H 1300.36 -3.20463 -0.387689 0
M  V30 13776 H 1299.41 -3.21565 2.03225 0
M  V30 13777 H 1300.72 -4.32965 2.47674 0
M  V30 13778 H 1299.88 -6.01048 0.826223 0
M  V30 13779 H 1298.62 -4.86891 0.280797 0
M  V30 13780 H 1297.62 -4.85208 2.5856 0
M  V30 13781 H 1298.85 -6.02794 3.12755 0
M  V30 13782 H 1296.79 -6.49341 0.932338 0
M  V30 13783 H 1296.71 -7.11808 2.54686 0
M  V30 13784 H 1297.98 -7.65235 1.48446 0
M  V30 13785 N 1302.21 -1.00763 -1.2118 0
M  V30 13786 C 1303.14 -0.528468 -2.23024 0
M  V30 13787 C 1304.15 0.384348 -1.58198 0
M  V30 13788 O 1305.34 0.184127 -1.77548 0
M  V30 13789 C 1302.44 0.251693 -3.37964 0
M  V30 13790 C 1301.61 -0.660838 -4.32379 0
M  V30 13791 C 1300.67 0.0701723 -5.26153 0
M  V30 13792 O 1299.7 -0.549355 -5.66543 0
M  V30 13793 N 1300.9 1.34791 -5.64634 0
M  V30 13794 H 1303.67 -1.40428 -2.64764 0
M  V30 13795 H 1301.23 -0.884085 -1.3563 0
M  V30 13796 H 1303.22 0.749746 -3.97694 0
M  V30 13797 H 1301.79 1.02872 -2.95188 0
M  V30 13798 H 1301.01 -1.33934 -3.7075 0
M  V30 13799 H 1302.3 -1.28177 -4.9239 0
M  V30 13800 H 1301.69 1.87232 -5.33817 0
M  V30 13801 H 1300.25 1.79086 -6.26715 0
M  V30 13802 N 1303.68 1.3679 -0.7827 0
M  V30 13803 C 1304.96 1.93639 -0.276278 0
M  V30 13804 C 1305.34 1.7153 1.23048 0
M  V30 13805 O 1304.69 1.07037 2.01879 0
M  V30 13806 C 1304.9 3.42672 -0.661586 0
M  V30 13807 C 1306.25 4.19786 -0.637538 0
M  V30 13808 O 1307.27 3.51082 -0.601645 0
M  V30 13809 O 1306.13 5.42323 -0.674408 0
M  V30 13810 H 1303.22 0.824307 -0.0666832 0
M  V30 13811 H 1305.77 1.46012 -0.864792 0
M  V30 13812 H 1304.54 3.52393 -1.70103 0
M  V30 13813 H 1304.17 3.97573 -0.0465987 0
M  V30 13814 N 1305.16 0.53415 1.48272 0
M  V30 13815 C 1306.44 -0.0630181 1.95498 0
M  V30 13816 C 1306.82 -1.50877 1.47646 0
M  V30 13817 O 1306.17 -2.17358 0.704829 0
M  V30 13818 C 1306.38 0.0585475 3.48951 0
M  V30 13819 C 1307.73 -0.0985978 4.24486 0
M  V30 13820 O 1308.75 -0.0150438 3.56197 0
M  V30 13821 O 1307.61 -0.274356 5.45811 0
M  V30 13822 H 1304.7 -0.0769841 0.823409 0
M  V30 13823 H 1307.25 0.599043 1.58775 0
M  V30 13824 H 1306.02 1.06549 3.76514 0
M  V30 13825 H 1305.64 -0.642175 3.9238 0
M  V30 13826 N 1306.64 -1.55279 0.269478 0
M  V30 13827 C 1307.57 -2.19684 -0.653573 0
M  V30 13828 C 1308.59 -1.17985 -1.12176 0
M  V30 13829 O 1309.77 -1.44739 -1.04464 0
M  V30 13830 C 1306.87 -2.80438 -1.90284 0
M  V30 13831 C 1306.05 -4.07774 -1.58239 0
M  V30 13832 C 1305.11 -4.52629 -2.68354 0
M  V30 13833 O 1304.13 -5.18524 -2.3478 0
M  V30 13834 N 1305.33 -4.22297 -3.98303 0
M  V30 13835 H 1308.1 -2.99525 -0.102379 0
M  V30 13836 H 1305.66 -1.61648 0.0903465 0
M  V30 13837 H 1307.65 -3.07392 -2.63234 0
M  V30 13838 H 1306.22 -2.04622 -2.36323 0
M  V30 13839 H 1305.44 -3.88168 -0.686983 0
M  V30 13840 H 1306.73 -4.90749 -1.34323 0
M  V30 13841 H 1306.13 -3.69441 -4.28404 0
M  V30 13842 H 1304.69 -4.54035 -4.67649 0
M  V30 13843 N 1308.12 0.00332656 -1.576 0
M  V30 13844 C 1309.35 0.699945 -1.94701 0
M  V30 13845 C 1309.76 1.67492 -0.871312 0
M  V30 13846 O 1309.12 1.81882 0.150054 0
M  V30 13847 C 1309.17 1.43471 -3.31811 0
M  V30 13848 O 1308.89 0.498835 -4.35251 0
M  V30 13849 C 1310.39 2.22614 -3.83351 0
M  V30 13850 H 1307.61 0.195158 -0.641993 0
M  V30 13851 H 1310.16 -0.0468044 -2.04446 0
M  V30 13852 H 1308.31 2.13311 -3.23384 0
M  V30 13853 H 1308.72 1.01688 -5.14548 0
M  V30 13854 H 1310.2 2.69527 -4.81725 0
M  V30 13855 H 1310.68 3.05146 -3.15883 0
M  V30 13856 H 1311.28 1.57796 -3.94944 0
M  V30 13857 N 1309.6 1.55164 0.276031 0
M  V30 13858 C 1310.84 1.7528 1.00604 0
M  V30 13859 C 1311.17 0.555256 1.86928 0
M  V30 13860 O 1310.44 -0.429917 1.91124 0
M  V30 13861 H 1309.02 0.646377 0.374441 0
M  V30 13862 H 1311.68 1.92562 0.300992 0
M  V30 13863 H 1310.77 2.65245 1.64473 0
M  V30 13864 N 1311.07 -0.540404 1.48045 0
M  V30 13865 C 1312.35 -1.30148 1.46017 0
M  V30 13866 C 1312.73 -2.10445 0.166171 0
M  V30 13867 O 1312.08 -2.12013 -0.852223 0
M  V30 13868 C 1312.29 -2.19177 2.71593 0
M  V30 13869 C 1313.64 -2.79655 3.19497 0
M  V30 13870 O 1314.66 -2.2947 2.72437 0
M  V30 13871 O 1313.52 -3.70912 4.01356 0
M  V30 13872 H 1310.61 -0.586879 0.582668 0
M  V30 13873 H 1313.16 -0.557918 1.60267 0
M  V30 13874 H 1311.93 -1.59556 3.57292 0
M  V30 13875 H 1311.56 -3.00798 2.60012 0
M  V30 13876 N 1312.55 -1.36459 -0.788468 0
M  V30 13877 C 1313.48 -1.33545 -1.91541 0
M  V30 13878 C 1314.46 -0.206762 -1.68839 0
M  V30 13879 O 1315.65 -0.404553 -1.89939 0
M  V30 13880 C 1312.78 -1.12492 -3.28577 0
M  V30 13881 C 1311.73 -2.22196 -3.65805 0
M  V30 13882 C 1311.06 -1.86285 -5.01201 0
M  V30 13883 C 1312.36 -3.64286 -3.7429 0
M  V30 13884 H 1314.05 -2.27844 -1.94236 0
M  V30 13885 H 1311.6 -1.09677 -0.933105 0
M  V30 13886 H 1313.55 -1.09089 -4.07035 0
M  V30 13887 H 1312.28 -0.146446 -3.26272 0
M  V30 13888 H 1310.93 -2.24727 -2.89644 0
M  V30 13889 H 1310.58 -0.87009 -4.95417 0
M  V30 13890 H 1310.28 -2.59734 -5.27079 0
M  V30 13891 H 1311.81 -1.84439 -5.82078 0
M  V30 13892 H 1313.22 -3.63977 -4.42937 0
M  V30 13893 H 1311.62 -4.36648 -4.11653 0
M  V30 13894 H 1312.69 -3.99123 -2.75371 0
M  V30 13895 N 1314.03 1.01274 -1.20754 0
M  V30 13896 C 1315.28 1.74342 -1.01428 0
M  V30 13897 C 1315.59 1.90265 0.453708 0
M  V30 13898 O 1316.8 2.60465 0.76618 0
M  V30 13899 C 1315.25 3.13588 -1.76609 0
M  V30 13900 C 1314.86 3.05664 -3.27526 0
M  V30 13901 C 1316.61 3.9084 -1.65664 0
M  V30 13902 C 1314.51 4.39942 -3.95228 0
M  V30 13903 H 1313.44 0.653619 -0.375897 0
M  V30 13904 H 1316.09 1.13214 -1.44412 0
M  V30 13905 H 1314.48 3.75281 -1.26413 0
M  V30 13906 H 1315.65 2.53256 -3.84965 0
M  V30 13907 H 1313.97 2.41904 -3.38927 0
M  V30 13908 H 1316.56 4.9019 -2.13583 0
M  V30 13909 H 1316.91 4.11754 -0.61351 0
M  V30 13910 H 1317.44 3.35783 -2.13294 0
M  V30 13911 H 1314.18 4.24229 -4.9971 0
M  V30 13912 H 1313.7 4.92342 -3.42578 0
M  V30 13913 H 1315.38 5.08771 -3.99701 0
M  V30 13914 N 1315.51 1.01404 1.20644 0
M  V30 13915 C 1316.46 0.582109 2.23339 0
M  V30 13916 C 1317.43 -0.39649 1.61298 0
M  V30 13917 O 1318.61 -0.296504 1.88482 0
M  V30 13918 C 1315.75 -0.076029 3.45016 0
M  V30 13919 C 1314.86 0.946829 4.21496 0
M  V30 13920 C 1314 0.26001 5.30563 0
M  V30 13921 C 1313.04 1.2698 5.98784 0
M  V30 13922 N 1312.18 0.609827 6.99447 0
M  V30 13923 H 1317.02 1.46248 2.59645 0
M  V30 13924 H 1314.55 0.732145 1.27585 0
M  V30 13925 H 1316.51 -0.474714 4.1449 0
M  V30 13926 H 1315.14 -0.920062 3.0941 0
M  V30 13927 H 1314.19 1.4637 3.51113 0
M  V30 13928 H 1315.5 1.71491 4.68393 0
M  V30 13929 H 1314.66 -0.19431 6.06389 0
M  V30 13930 H 1313.4 -0.540395 4.84697 0
M  V30 13931 H 1312.4 1.73453 5.21722 0
M  V30 13932 H 1313.63 2.07144 6.46737 0
M  V30 13933 H 1311.57 -0.170756 6.55778 0
M  V30 13934 H 1311.49 1.31601 7.44458 0
M  V30 13935 H 1312.76 0.179014 7.79294 0
M  V30 13936 N 1316.99 -1.36373 0.789944 0
M  V30 13937 C 1318.21 -2.04011 0.373396 0
M  V30 13938 C 1318.64 -1.59171 -1.00231 0
M  V30 13939 O 1318 -0.760431 -1.64582 0
M  V30 13940 C 1318.04 -3.5783 0.446083 0
M  V30 13941 O 1317.15 -4.08759 -0.54678 0
M  V30 13942 H 1316.49 -0.644807 0.158495 0
M  V30 13943 H 1319.02 -1.74317 1.0712 0
M  V30 13944 H 1319.03 -4.06822 0.309877 0
M  V30 13945 H 1317.7 -3.89819 1.44962 0
M  V30 13946 H 1316.28 -3.71038 -0.372192 0
M  V30 13947 N 1318.47 -0.542005 -1.47987 0
M  V30 13948 C 1319.74 0.0526494 -1.95529 0
M  V30 13949 C 1320.12 1.50092 -1.48444 0
M  V30 13950 O 1319.47 2.16981 -0.716347 0
M  V30 13951 C 1319.68 -0.0770524 -3.48915 0
M  V30 13952 C 1321.03 0.0760849 -4.24532 0
M  V30 13953 O 1322.05 -0.00384644 -3.562 0
M  V30 13954 O 1320.91 0.245406 -5.45949 0
M  V30 13955 H 1318.01 0.0726163 -0.823806 0
M  V30 13956 H 1320.55 -0.607454 -1.58455 0
M  V30 13957 H 1319.32 -1.08544 -3.75944 0
M  V30 13958 H 1318.95 0.621357 -3.92715 0
M  V30 13959 N 1319.94 1.55134 -0.277709 0
M  V30 13960 C 1321.35 1.85405 0.219543 0
M  V30 13961 C 1321.71 1.19973 1.55245 0
M  V30 13962 O 1320.83 0.488986 2.10803 0
M  V30 13963 C 1321.43 3.36369 0.405127 0
M  V30 13964 C 1319.98 3.66755 0.846609 0
M  V30 13965 C 1319.13 2.77238 -0.0586063 0
M  V30 13966 H 1322.08 1.50637 -0.499422 0
M  V30 13967 H 1322.1 3.59615 1.24329 0
M  V30 13968 H 1321.62 3.83963 -0.565138 0
M  V30 13969 H 1319.72 3.24662 1.82825 0
M  V30 13970 H 1319.83 4.74219 0.682135 0
M  V30 13971 H 1318.19 2.50546 0.458153 0
M  V30 13972 H 1318.98 3.27647 -1.0248 0
M  V30 13973 N 1321.42 0.00503138 1.57599 0
M  V30 13974 C 1322.65 -0.693231 1.95471 0
M  V30 13975 C 1323.07 -1.66233 0.880246 0
M  V30 13976 O 1322.43 -1.80582 -0.161164 0
M  V30 13977 C 1322.48 -1.39696 3.32442 0
M  V30 13978 O 1321.58 -2.51154 3.27101 0
M  V30 13979 H 1320.92 -0.184015 0.637992 0
M  V30 13980 H 1323.45 0.0597194 2.04513 0
M  V30 13981 H 1323.46 -1.75924 3.68123 0
M  V30 13982 H 1322.14 -0.686438 4.10196 0
M  V30 13983 H 1320.71 -2.17216 3.03103 0
M  V30 13984 N 1322.9 -1.55308 -0.267798 0
M  V30 13985 C 1324.15 -1.75811 -0.996734 0
M  V30 13986 C 1324.47 -0.565161 -1.8663 0
M  V30 13987 O 1323.74 0.419775 -1.9135 0
M  V30 13988 H 1322.32 -0.648353 -0.371008 0
M  V30 13989 H 1324.98 -1.92719 -0.290775 0
M  V30 13990 H 1324.08 -2.66113 -1.63064 0
M  V30 13991 N 1324.38 0.532545 -1.4833 0
M  V30 13992 C 1325.33 1.6335 -1.59062 0
M  V30 13993 C 1326.31 1.5454 -0.447905 0
M  V30 13994 O 1327.5 1.62604 -0.699205 0
M  V30 13995 C 1324.63 3.02077 -1.63109 0
M  V30 13996 C 1323.72 3.16 -2.82851 0
M  V30 13997 N 1324.11 2.99905 -4.07297 0
M  V30 13998 C 1322.41 3.47049 -2.8013 0
M  V30 13999 C 1323.11 3.17176 -4.87621 0
M  V30 14000 N 1322.08 3.44634 -4.20391 0
M  V30 14001 H 1325.89 1.49512 -2.53028 0
M  V30 14002 H 1323.4 0.73794 -1.44666 0
M  V30 14003 H 1325.4 3.81158 -1.68891 0
M  V30 14004 H 1324.06 3.17008 -0.702574 0
M  V30 14005 H 1325.07 2.76721 -4.37774 0
M  V30 14006 H 1321.75 3.68354 -1.96524 0
M  V30 14007 H 1323.14 3.09491 -5.96376 0
M  V30 14008 N 1325.86 1.36875 0.78122 0
M  V30 14009 C 1326.79 1.34559 1.9083 0
M  V30 14010 C 1327.77 0.215713 1.68727 0
M  V30 14011 O 1328.95 0.41462 1.89722 0
M  V30 14012 C 1326.08 1.14233 3.27976 0
M  V30 14013 C 1325.04 2.24132 3.64621 0
M  V30 14014 C 1324.36 1.8894 5.00206 0
M  V30 14015 C 1325.66 3.66266 3.72353 0
M  V30 14016 H 1327.36 2.28871 1.93025 0
M  V30 14017 H 1324.9 1.10171 0.927275 0
M  V30 14018 H 1326.85 1.11246 4.06451 0
M  V30 14019 H 1325.58 0.163747 3.26189 0
M  V30 14020 H 1324.24 2.26259 2.88448 0
M  V30 14021 H 1323.89 0.896351 4.94949 0
M  V30 14022 H 1323.59 2.62525 5.25694 0
M  V30 14023 H 1325.11 1.87523 5.81092 0
M  V30 14024 H 1326.52 3.66321 4.41001 0
M  V30 14025 H 1324.92 4.38825 4.09332 0
M  V30 14026 H 1325.99 4.00578 2.7325 0
M  V30 14027 N 1327.33 -1.00632 1.21289 0
M  V30 14028 C 1328.56 -1.77967 1.05524 0
M  V30 14029 C 1328.98 -1.84621 -0.395023 0
M  V30 14030 O 1328.33 -1.30664 -1.27409 0
M  V30 14031 C 1328.38 -3.21939 1.64432 0
M  V30 14032 O 1328.11 -3.15669 3.03784 0
M  V30 14033 C 1329.61 -4.1578 1.5376 0
M  V30 14034 H 1326.83 -0.559341 0.370646 0
M  V30 14035 H 1329.37 -1.26604 1.60598 0
M  V30 14036 H 1327.53 -3.70415 1.13453 0
M  V30 14037 H 1327.94 -4.06112 3.31924 0
M  V30 14038 H 1329.41 -5.14602 1.99722 0
M  V30 14039 H 1329.89 -4.36438 0.491811 0
M  V30 14040 H 1330.5 -3.73192 2.0398 0
M  V30 14041 N 1328.81 -1.02043 -1.20104 0
M  V30 14042 C 1330.06 -0.710566 -1.89197 0
M  V30 14043 C 1330.38 0.762471 -1.79475 0
M  V30 14044 O 1329.65 1.54871 -1.19965 0
M  V30 14045 H 1328.23 -0.259839 -0.700352 0
M  V30 14046 H 1330.89 -1.29285 -1.45848 0
M  V30 14047 H 1329.99 -0.997363 -2.95735 0
M  V30 14048 N 1330.29 1.35952 -0.797165 0
M  V30 14049 C 1331.22 2.27728 -0.146693 0
M  V30 14050 C 1332.2 1.47616 0.68178 0
M  V30 14051 O 1333.39 1.76898 0.651094 0
M  V30 14052 C 1330.51 3.29179 0.797442 0
M  V30 14053 C 1329.56 4.26471 0.0497851 0
M  V30 14054 S 1330.39 5.19982 -1.2798 0
M  V30 14055 C 1331.55 6.24977 -0.339864 0
M  V30 14056 H 1331.78 2.82549 -0.924834 0
M  V30 14057 H 1329.31 1.4261 -0.591759 0
M  V30 14058 H 1331.27 3.88127 1.33669 0
M  V30 14059 H 1329.93 2.73255 1.54889 0
M  V30 14060 H 1329.13 4.98138 0.766487 0
M  V30 14061 H 1328.73 3.71643 -0.419219 0
M  V30 14062 H 1331.02 6.75809 0.478412 0
M  V30 14063 H 1331.96 7.00636 -1.02544 0
M  V30 14064 H 1332.37 5.64468 0.0602491 0
M  V30 14065 N 1331.77 0.549846 1.47697 0
M  V30 14066 C 1333.01 0.0230845 2.02787 0
M  V30 14067 C 1333.35 -1.32035 1.42409 0
M  V30 14068 O 1332.62 -1.85745 0.576978 0
M  V30 14069 C 1332.91 -0.0778363 3.60016 0
M  V30 14070 C 1332.76 1.29217 4.3084 0
M  V30 14071 C 1334.08 -0.794909 4.32862 0
M  V30 14072 H 1331.2 0.00986307 0.736934 0
M  V30 14073 H 1333.84 0.710714 1.76207 0
M  V30 14074 H 1331.99 -0.663464 3.82793 0
M  V30 14075 H 1333.66 1.92044 4.19424 0
M  V30 14076 H 1331.9 1.86883 3.91481 0
M  V30 14077 H 1332.57 1.17435 5.39364 0
M  V30 14078 H 1335.05 -0.297743 4.15033 0
M  V30 14079 H 1333.93 -0.834466 5.4252 0
M  V30 14080 H 1334.19 -1.84948 4.01555 0
M  V30 14081 N 1333.25 -1.54984 0.285932 0
M  V30 14082 C 1334.49 -1.99436 -0.32709 0
M  V30 14083 C 1334.82 -1.17582 -1.55562 0
M  V30 14084 O 1334.09 -0.268002 -1.94058 0
M  V30 14085 H 1332.67 -0.736662 -0.123846 0
M  V30 14086 H 1335.33 -1.90881 0.393774 0
M  V30 14087 H 1334.42 -3.0609 -0.609523 0
M  V30 14088 N 1334.72 -0.0133892 -1.57594 0
M  V30 14089 C 1335.95 0.679255 -1.95432 0
M  V30 14090 C 1336.37 1.66558 -0.889028 0
M  V30 14091 O 1335.72 1.82031 0.130755 0
M  V30 14092 C 1335.78 1.39943 -3.33314 0
M  V30 14093 O 1335.5 0.452643 -4.35755 0
M  V30 14094 C 1337 2.18535 -3.85691 0
M  V30 14095 H 1334.22 0.188337 -0.644026 0
M  V30 14096 H 1336.76 -0.0684861 -2.04385 0
M  V30 14097 H 1334.92 2.0987 -3.25628 0
M  V30 14098 H 1335.33 0.962243 -5.15598 0
M  V30 14099 H 1336.8 2.64403 -4.84557 0
M  V30 14100 H 1337.28 3.01779 -3.19102 0
M  V30 14101 H 1337.89 1.53598 -3.96595 0
M  V30 14102 N 1336.2 1.55448 0.259558 0
M  V30 14103 C 1337.17 1.88459 1.30445 0
M  V30 14104 C 1338.17 0.760096 1.41701 0
M  V30 14105 O 1339.36 1.02819 1.4062 0
M  V30 14106 C 1336.49 2.10181 2.68397 0
M  V30 14107 H 1337.68 2.81877 1.02398 0
M  V30 14108 H 1335.23 1.48145 0.498262 0
M  V30 14109 H 1335.97 1.19189 3.01603 0
M  V30 14110 H 1335.75 2.92066 2.6161 0
M  V30 14111 H 1337.24 2.36947 3.43869 0
M  V30 14112 N 1337.68 -0.524672 1.4861 0
M  V30 14113 C 1338.61 -1.63782 1.66426 0
M  V30 14114 C 1339.59 -1.62177 0.513077 0
M  V30 14115 O 1340.78 -1.7929 0.74623 0
M  V30 14116 C 1337.91 -3.02354 1.70877 0
M  V30 14117 C 1336.86 -3.18819 2.85549 0
M  V30 14118 C 1336.19 -4.58506 2.75094 0
M  V30 14119 C 1337.49 -3.01086 4.26784 0
M  V30 14120 H 1339.18 -1.49127 2.59618 0
M  V30 14121 H 1336.73 -0.715997 1.24938 0
M  V30 14122 H 1338.68 -3.80105 1.81929 0
M  V30 14123 H 1337.4 -3.18044 0.742682 0
M  V30 14124 H 1336.06 -2.43487 2.74061 0
M  V30 14125 H 1335.71 -4.71038 1.76443 0
M  V30 14126 H 1335.41 -4.70466 3.52044 0
M  V30 14127 H 1336.93 -5.38348 2.88121 0
M  V30 14128 H 1338.35 -3.68624 4.39077 0
M  V30 14129 H 1336.75 -3.24536 5.04774 0
M  V30 14130 H 1337.82 -1.97454 4.42877 0
M  V30 14131 N 1339.16 -1.37287 -0.77395 0
M  V30 14132 C 1340.39 -1.35366 -1.56075 0
M  V30 14133 C 1340.8 0.0634437 -1.89094 0
M  V30 14134 O 1340.14 1.03503 -1.51766 0
M  V30 14135 C 1340.2 -2.12512 -2.89964 0
M  V30 14136 C 1339.87 -3.61492 -2.79593 0
M  V30 14137 C 1340.86 -4.55421 -2.50774 0
M  V30 14138 C 1338.55 -4.04585 -2.97684 0
M  V30 14139 C 1340.54 -5.90421 -2.4017 0
M  V30 14140 C 1338.23 -5.39672 -2.86701 0
M  V30 14141 C 1339.23 -6.32403 -2.57984 0
M  V30 14142 O 1338.91 -7.65006 -2.47024 0
M  V30 14143 H 1338.65 -0.465447 -0.49024 0
M  V30 14144 H 1341.2 -1.81199 -0.967273 0
M  V30 14145 H 1339.43 -1.61366 -3.51423 0
M  V30 14146 H 1341.12 -2.03253 -3.51345 0
M  V30 14147 H 1341.89 -4.23438 -2.36485 0
M  V30 14148 H 1337.76 -3.32769 -3.19038 0
M  V30 14149 H 1341.31 -6.62769 -2.17676 0
M  V30 14150 H 1337.21 -5.71258 -3.00558 0
M  V30 14151 H 1337.97 -7.75302 -2.6239 0
M  V30 14152 N 1340.64 0.999871 -1.21821 0
M  V30 14153 C 1341.88 1.74098 -1.04009 0
M  V30 14154 C 1342.22 1.89499 0.424716 0
M  V30 14155 O 1341.49 1.43306 1.31505 0
M  V30 14156 C 1341.77 3.1506 -1.74382 0
M  V30 14157 C 1341.63 3.0735 -3.28414 0
M  V30 14158 C 1342.95 4.1409 -1.49055 0
M  V30 14159 H 1340.06 0.631935 -0.379245 0
M  V30 14160 H 1342.71 1.16534 -1.50066 0
M  V30 14161 H 1340.86 3.64206 -1.35227 0
M  V30 14162 H 1342.53 2.65879 -3.76969 0
M  V30 14163 H 1340.77 2.44325 -3.58452 0
M  V30 14164 H 1341.44 4.07069 -3.72825 0
M  V30 14165 H 1343.92 3.73672 -1.83054 0
M  V30 14166 H 1342.79 5.10853 -2.008 0
M  V30 14167 H 1343.06 4.40085 -0.421641 0
M  V30 14168 N 1342.11 1.02678 1.19562 0
M  V30 14169 C 1343.34 0.741424 1.93695 0
M  V30 14170 C 1343.76 -0.693203 1.74861 0
M  V30 14171 O 1343.12 -1.47833 1.04953 0
M  V30 14172 C 1343.17 1.09514 3.43568 0
M  V30 14173 O 1342.27 0.212596 4.11852 0
M  V30 14174 H 1341.62 0.274128 0.604773 0
M  V30 14175 H 1344.15 1.37289 1.517 0
M  V30 14176 H 1344.16 1.05115 3.94227 0
M  V30 14177 H 1342.83 2.14034 3.56598 0
M  V30 14178 H 1341.41 0.315 3.71567 0
M  V30 14179 N 1343.59 -1.35528 0.804364 0
M  V30 14180 C 1345 -1.81321 0.444933 0
M  V30 14181 C 1345.35 -1.66816 -1.03281 0
M  V30 14182 O 1344.48 -1.19753 -1.80245 0
M  V30 14183 C 1345.07 -3.29199 0.800827 0
M  V30 14184 C 1343.63 -3.73144 0.494026 0
M  V30 14185 C 1342.78 -2.57557 1.02761 0
M  V30 14186 H 1345.73 -1.23537 0.996203 0
M  V30 14187 H 1345.75 -3.80375 0.0975117 0
M  V30 14188 H 1345.26 -3.39725 1.8764 0
M  V30 14189 H 1343.37 -3.68169 -0.572901 0
M  V30 14190 H 1343.48 -4.68005 1.0251 0
M  V30 14191 H 1341.84 -2.50692 0.450048 0
M  V30 14192 H 1342.63 -2.70861 2.10925 0
M  V30 14193 N 1345.07 -0.557671 -1.47404 0
M  V30 14194 C 1345.98 0.19289 -2.33806 0
M  V30 14195 C 1347 0.911424 -1.4822 0
M  V30 14196 O 1348.17 0.880214 -1.81147 0
M  V30 14197 C 1345.24 1.20937 -3.24923 0
M  V30 14198 C 1344.3 0.498209 -4.26399 0
M  V30 14199 C 1343.53 1.46626 -5.13163 0
M  V30 14200 O 1343.76 2.70111 -5.0239 0
M  V30 14201 O 1342.69 0.990497 -5.93694 0
M  V30 14202 H 1346.52 -0.515861 -2.99287 0
M  V30 14203 H 1344.1 -0.318283 -1.4597 0
M  V30 14204 H 1345.98 1.7961 -3.81206 0
M  V30 14205 H 1344.66 1.90003 -2.6207 0
M  V30 14206 H 1343.56 -0.129736 -3.73875 0
M  V30 14207 H 1344.9 -0.151015 -4.91968 0
M  V30 14208 N 1346.55 1.54831 -0.294147 0
M  V30 14209 C 1347.8 2.00298 0.317605 0
M  V30 14210 C 1348.13 1.18228 1.54064 0
M  V30 14211 O 1347.4 0.257034 1.92794 0
M  V30 14212 C 1347.69 3.53602 0.680991 0
M  V30 14213 C 1347.54 4.46416 -0.550711 0
M  V30 14214 C 1348.86 4.13379 1.51016 0
M  V30 14215 H 1345.98 0.728135 0.113965 0
M  V30 14216 H 1348.62 1.85636 -0.404883 0
M  V30 14217 H 1346.77 3.66227 1.29654 0
M  V30 14218 H 1348.44 4.45707 -1.18922 0
M  V30 14219 H 1346.68 4.17294 -1.18524 0
M  V30 14220 H 1347.36 5.51423 -0.252412 0
M  V30 14221 H 1349.83 4.04148 0.99012 0
M  V30 14222 H 1348.71 5.20818 1.73321 0
M  V30 14223 H 1348.97 3.64817 2.49722 0
M  V30 14224 N 1348.03 0.0217466 1.57585 0
M  V30 14225 C 1348.96 -0.99116 2.06661 0
M  V30 14226 C 1349.97 -1.29346 0.988604 0
M  V30 14227 O 1351.16 -1.25941 1.26496 0
M  V30 14228 C 1348.26 -2.32047 2.46997 0
M  V30 14229 C 1347.43 -2.20441 3.77789 0
M  V30 14230 C 1346.49 -3.36243 4.04755 0
M  V30 14231 O 1345.52 -3.13458 4.75114 0
M  V30 14232 N 1346.72 -4.598 3.54351 0
M  V30 14233 H 1349.49 -0.572486 2.94181 0
M  V30 14234 H 1347.05 -0.165175 1.61055 0
M  V30 14235 H 1349.04 -3.0833 2.62135 0
M  V30 14236 H 1347.61 -2.65581 1.64881 0
M  V30 14237 H 1346.83 -1.28931 3.72519 0
M  V30 14238 H 1348.12 -2.09882 4.63494 0
M  V30 14239 H 1347.52 -4.81207 2.97416 0
M  V30 14240 H 1346.07 -5.33276 3.7478 0
M  V30 14241 N 1349.51 -1.55583 -0.251311 0
M  V30 14242 C 1350.75 -1.76859 -0.978031 0
M  V30 14243 C 1351.07 -0.584924 -1.86021 0
M  V30 14244 O 1350.34 0.399456 -1.91784 0
M  V30 14245 H 1348.92 -0.652252 -0.364111 0
M  V30 14246 H 1351.59 -1.93016 -0.270319 0
M  V30 14247 H 1350.68 -2.67828 -1.60233 0
M  V30 14248 N 1350.98 0.516783 -1.48886 0
M  V30 14249 C 1352.21 1.30103 -1.61518 0
M  V30 14250 C 1352.63 1.85996 -0.28055 0
M  V30 14251 O 1351.99 1.65075 0.749671 0
M  V30 14252 C 1352.04 2.41837 -2.67483 0
M  V30 14253 O 1351.14 3.45249 -2.25559 0
M  V30 14254 H 1350.48 0.384774 -0.541152 0
M  V30 14255 H 1353.01 0.620424 -1.94966 0
M  V30 14256 H 1353.02 2.87832 -2.89165 0
M  V30 14257 H 1351.7 2.00519 -3.64369 0
M  V30 14258 H 1350.28 3.05281 -2.14144 0
M  V30 14259 N 1352.46 1.37696 0.766659 0
M  V30 14260 C 1353.69 1.3639 1.55581 0
M  V30 14261 C 1354.1 -0.0495272 1.88735 0
M  V30 14262 O 1353.46 -1.01268 1.51826 0
M  V30 14263 C 1353.51 2.20717 2.86298 0
M  V30 14264 O 1353.23 3.56552 2.54563 0
M  V30 14265 C 1354.73 2.27446 3.80504 0
M  V30 14266 H 1351.95 0.466993 0.481828 0
M  V30 14267 H 1354.5 1.81103 0.949834 0
M  V30 14268 H 1352.65 1.79499 3.43306 0
M  V30 14269 H 1353.07 4.00811 3.38306 0
M  V30 14270 H 1354.54 2.90762 4.69214 0
M  V30 14271 H 1355.02 1.28434 4.20002 0
M  V30 14272 H 1355.62 2.68998 3.29424 0
M  V30 14273 N 1353.94 -0.993397 1.22349 0
M  V30 14274 C 1354.89 -2.0834 0.993123 0
M  V30 14275 C 1355.86 -1.65883 -0.0849717 0
M  V30 14276 O 1357.04 -1.90691 0.0645176 0
M  V30 14277 C 1354.18 -3.40252 0.576434 0
M  V30 14278 C 1353.29 -3.96055 1.72524 0
M  V30 14279 C 1352.43 -5.16123 1.25659 0
M  V30 14280 C 1351.47 -5.64062 2.37698 0
M  V30 14281 N 1350.61 -6.7537 1.91883 0
M  V30 14282 H 1355.45 -2.27381 1.92619 0
M  V30 14283 H 1352.98 -1.11476 0.959763 0
M  V30 14284 H 1354.94 -4.16001 0.316021 0
M  V30 14285 H 1353.57 -3.21214 -0.319626 0
M  V30 14286 H 1352.62 -3.17182 2.1 0
M  V30 14287 H 1353.93 -4.27614 2.56802 0
M  V30 14288 H 1353.09 -5.9916 0.953528 0
M  V30 14289 H 1351.83 -4.86186 0.384011 0
M  V30 14290 H 1350.83 -4.79614 2.68794 0
M  V30 14291 H 1352.06 -5.96025 3.25471 0
M  V30 14292 H 1350 -6.47217 1.06986 0
M  V30 14293 H 1349.92 -7.06246 2.69727 0
M  V30 14294 H 1351.19 -7.61914 1.64644 0
M  V30 14295 N 1355.42 -1.03311 -1.19015 0
M  V30 14296 C 1356.64 -0.751686 -1.93299 0
M  V30 14297 C 1357.07 0.68392 -1.75226 0
M  V30 14298 O 1356.43 1.47274 -1.05736 0
M  V30 14299 C 1356.47 -1.11335 -3.42982 0
M  V30 14300 O 1355.58 -0.234434 -4.11733 0
M  V30 14301 H 1354.92 -0.277331 -0.60331 0
M  V30 14302 H 1357.45 -1.38092 -1.5097 0
M  V30 14303 H 1357.46 -1.07204 -3.93664 0
M  V30 14304 H 1356.13 -2.15922 -3.55458 0
M  V30 14305 H 1354.71 -0.3347 -3.71395 0
M  V30 14306 N 1356.9 1.35099 -0.81154 0
M  V30 14307 C 1357.86 2.28033 -0.230947 0
M  V30 14308 C 1358.86 1.49798 0.584575 0
M  V30 14309 O 1360.05 1.6949 0.402336 0
M  V30 14310 C 1357.18 3.341 0.677486 0
M  V30 14311 H 1358.37 2.80893 -1.05067 0
M  V30 14312 H 1355.93 1.45038 -0.582554 0
M  V30 14313 H 1356.66 2.86435 1.5207 0
M  V30 14314 H 1356.45 3.91986 0.0943563 0
M  V30 14315 H 1357.94 4.0345 1.07787 0
M  V30 14316 N 1358.37 0.56548 1.47106 0
M  V30 14317 C 1359.6 0.0495579 2.06541 0
M  V30 14318 C 1360.01 -1.25325 1.4174 0
M  V30 14319 O 1359.35 -1.76455 0.510818 0
M  V30 14320 C 1359.42 -0.20843 3.58895 0
M  V30 14321 C 1359.08 1.00618 4.45786 0
M  V30 14322 C 1360.08 1.91387 4.83391 0
M  V30 14323 C 1357.76 1.22318 4.87179 0
M  V30 14324 C 1359.76 3.02218 5.61198 0
M  V30 14325 C 1357.44 2.33457 5.64749 0
M  V30 14326 C 1358.44 3.23238 6.0167 0
M  V30 14327 O 1358.13 4.32449 6.77675 0
M  V30 14328 H 1357.86 0.0466 0.674392 0
M  V30 14329 H 1360.42 0.780887 1.89977 0
M  V30 14330 H 1358.65 -0.994169 3.73702 0
M  V30 14331 H 1360.33 -0.670745 4.0032 0
M  V30 14332 H 1361.1 1.75831 4.52005 0
M  V30 14333 H 1356.98 0.533514 4.57902 0
M  V30 14334 H 1360.52 3.72321 5.89935 0
M  V30 14335 H 1356.42 2.48983 5.95548 0
M  V30 14336 H 1357.19 4.306 6.96079 0
M  V30 14337 N 1359.85 -1.54672 0.302354 0
M  V30 14338 C 1360.8 -2.25022 -0.58887 0
M  V30 14339 C 1361.79 -1.25671 -1.13592 0
M  V30 14340 O 1363 -1.43518 -1.0864 0
M  V30 14341 H 1359.38 -0.722515 -0.208509 0
M  V30 14342 H 1361.35 -2.98388 0.0269928 0
M  V30 14343 C 1360.1 -3.00532 -1.74859 0
M  V30 14344 H 1359.42 -3.76786 -1.33688 0
M  V30 14345 H 1360.86 -3.53036 -2.34823 0
M  V30 14346 C 1359.32 -2.0758 -2.65353 0
M  V30 14347 O 1359.85 -1.64473 -3.66485 0
M  V30 14348 N 1358.05 -1.73508 -2.33116 0
M  V30 14349 H 1357.6 -2.0876 -1.5092 0
M  V30 14350 H 1357.56 -1.11591 -2.9393 0
M  V30 14351 N 1361.33 -0.0301034 -1.57571 0
M  V30 14352 C 1362.26 0.980187 -2.07183 0
M  V30 14353 C 1363.28 1.2882 -0.995449 0
M  V30 14354 O 1364.46 1.25268 -1.27162 0
M  V30 14355 C 1361.56 2.30734 -2.48224 0
M  V30 14356 C 1360.74 2.18434 -3.78953 0
M  V30 14357 C 1359.8 3.34092 -4.06533 0
M  V30 14358 O 1358.82 3.10934 -4.76769 0
M  V30 14359 N 1360.02 4.57914 -3.56784 0
M  V30 14360 H 1362.79 0.556877 -2.94481 0
M  V30 14361 H 1360.35 0.156632 -1.61141 0
M  V30 14362 H 1362.34 3.06936 -2.63766 0
M  V30 14363 H 1360.91 2.64703 -1.66287 0
M  V30 14364 H 1360.13 1.26953 -3.73198 0
M  V30 14365 H 1361.42 2.07421 -4.64601 0
M  V30 14366 H 1360.82 4.79623 -2.99964 0
M  V30 14367 H 1359.38 5.31281 -3.77603 0
M  V30 14368 N 1362.81 1.55714 0.243056 0
M  V30 14369 C 1363.76 1.90638 1.30099 0
M  V30 14370 C 1364.73 0.761049 1.47639 0
M  V30 14371 O 1365.91 1.01505 1.61559 0
M  V30 14372 C 1363.05 2.20985 2.65065 0
M  V30 14373 C 1362.16 3.48343 2.55501 0
M  V30 14374 C 1361.3 3.68241 3.82847 0
M  V30 14375 C 1360.34 4.89187 3.67916 0
M  V30 14376 N 1359.47 5.05586 4.87162 0
M  V30 14377 H 1364.31 2.80857 0.996155 0
M  V30 14378 H 1361.85 1.39027 0.480619 0
M  V30 14379 H 1363.81 2.36585 3.43632 0
M  V30 14380 H 1362.44 1.33966 2.93689 0
M  V30 14381 H 1361.49 3.41054 1.68483 0
M  V30 14382 H 1362.8 4.37057 2.4038 0
M  V30 14383 H 1361.96 3.83822 4.69857 0
M  V30 14384 H 1360.7 2.77768 4.00869 0
M  V30 14385 H 1359.7 4.7358 2.79289 0
M  V30 14386 H 1360.93 5.81124 3.51385 0
M  V30 14387 H 1358.87 4.18051 5.05538 0
M  V30 14388 H 1358.79 5.88395 4.74686 0
M  V30 14389 H 1360.06 5.25582 5.7566 0
M  V30 14390 N 1364.29 -0.50888 1.49158 0
M  V30 14391 C 1365.53 -1.26537 1.58481 0
M  V30 14392 C 1365.87 -1.92353 0.267168 0
M  V30 14393 O 1365.14 -1.80336 -0.728639 0
M  V30 14394 C 1365.42 -2.33846 2.73839 0
M  V30 14395 C 1365.28 -1.72582 4.15374 0
M  V30 14396 C 1366.6 -3.35467 2.84868 0
M  V30 14397 H 1363.71 -0.458697 0.576859 0
M  V30 14398 H 1366.36 -0.564728 1.81413 0
M  V30 14399 H 1364.51 -2.93605 2.54417 0
M  V30 14400 H 1366.18 -1.16711 4.46292 0
M  V30 14401 H 1364.42 -1.03025 4.21389 0
M  V30 14402 H 1365.09 -2.5038 4.91949 0
M  V30 14403 H 1367.57 -2.85689 3.02524 0
M  V30 14404 H 1366.44 -4.07922 3.67275 0
M  V30 14405 H 1366.71 -3.97313 1.93894 0
M  V30 14406 N 1365.76 -1.381 -0.759346 0
M  V30 14407 C 1367.04 -1.24517 -1.50847 0
M  V30 14408 C 1367.42 0.155929 -2.10523 0
M  V30 14409 O 1366.77 1.16485 -1.96579 0
M  V30 14410 C 1366.98 -2.35086 -2.57945 0
M  V30 14411 C 1368.33 -2.73232 -3.25007 0
M  V30 14412 O 1369.35 -2.34355 -2.68247 0
M  V30 14413 O 1368.21 -3.40254 -4.27656 0
M  V30 14414 H 1365.3 -0.486599 -0.668693 0
M  V30 14415 H 1367.85 -1.49913 -0.795249 0
M  V30 14416 H 1366.62 -3.28858 -2.12056 0
M  V30 14417 H 1366.25 -2.11222 -3.36854 0
M  V30 14418 N 1367.24 0.986894 -1.22875 0
M  V30 14419 C 1368.17 2.09628 -1.0285 0
M  V30 14420 C 1369.15 1.70019 0.0525118 0
M  V30 14421 O 1370.34 1.93883 -0.110874 0
M  V30 14422 C 1367.47 3.41866 -0.61194 0
M  V30 14423 C 1366.42 3.95351 -1.63956 0
M  V30 14424 C 1365.75 5.23707 -1.07865 0
M  V30 14425 C 1367.05 4.25354 -3.03102 0
M  V30 14426 H 1368.74 2.26639 -1.95641 0
M  V30 14427 H 1366.29 1.0891 -0.942048 0
M  V30 14428 H 1368.24 4.18893 -0.458936 0
M  V30 14429 H 1366.97 3.24701 0.35164 0
M  V30 14430 H 1365.62 3.20462 -1.78045 0
M  V30 14431 H 1365.27 5.02888 -0.106246 0
M  V30 14432 H 1364.97 5.60459 -1.76522 0
M  V30 14433 H 1366.5 6.03362 -0.937359 0
M  V30 14434 H 1367.91 4.93156 -2.92353 0
M  V30 14435 H 1366.31 4.73292 -3.68938 0
M  V30 14436 H 1367.38 3.32887 -3.52583 0
M  V30 14437 N 1368.72 1.0394 1.18466 0
M  V30 14438 C 1369.97 0.742042 1.88414 0
M  V30 14439 C 1370.3 -0.730138 1.80275 0
M  V30 14440 O 1369.55 -1.54844 1.19674 0
M  V30 14441 C 1369.85 1.15198 3.38326 0
M  V30 14442 C 1369.52 2.62422 3.66668 0
M  V30 14443 C 1368.18 3.02643 3.74113 0
M  V30 14444 C 1370.53 3.5762 3.79153 0
M  V30 14445 C 1367.86 4.36953 3.91522 0
M  V30 14446 C 1370.21 4.91647 3.98077 0
M  V30 14447 C 1368.87 5.31541 4.03758 0
M  V30 14448 H 1368.14 0.271532 0.689457 0
M  V30 14449 H 1370.79 1.30419 1.40225 0
M  V30 14450 H 1369.1 0.508607 3.88485 0
M  V30 14451 H 1370.79 0.899269 3.90787 0
M  V30 14452 H 1367.38 2.30268 3.61489 0
M  V30 14453 H 1371.57 3.27693 3.72735 0
M  V30 14454 H 1366.82 4.67382 3.94163 0
M  V30 14455 H 1371 5.65318 4.0668 0
M  V30 14456 H 1368.62 6.35622 4.16999 0
M  V30 14457 N 1370.2 -1.34667 0.818693 0
M  V30 14458 C 1371.42 -2.03173 0.416585 0
M  V30 14459 C 1371.85 -1.61261 -0.968321 0
M  V30 14460 O 1371.21 -0.79517 -1.62932 0
M  V30 14461 C 1371.25 -3.56803 0.521884 0
M  V30 14462 O 1370.36 -4.09827 -0.459953 0
M  V30 14463 H 1369.7 -0.6413 0.172136 0
M  V30 14464 H 1372.23 -1.72006 1.10794 0
M  V30 14465 H 1372.24 -4.06073 0.3961 0
M  V30 14466 H 1370.91 -3.86656 1.53198 0
M  V30 14467 H 1369.49 -3.71744 -0.293405 0
M  V30 14468 N 1371.68 -0.573274 -1.46804 0
M  V30 14469 C 1372.61 0.153316 -2.32996 0
M  V30 14470 C 1373.59 0.893013 -1.44773 0
M  V30 14471 O 1374.77 0.870329 -1.73606 0
M  V30 14472 C 1371.9 1.1736 -3.2687 0
M  V30 14473 C 1370.86 0.549347 -4.2446 0
M  V30 14474 C 1370.18 1.67542 -5.07773 0
M  V30 14475 C 1371.48 -0.50736 -5.1983 0
M  V30 14476 H 1373.18 -0.566305 -2.93995 0
M  V30 14477 H 1370.72 -0.273785 -1.41373 0
M  V30 14478 H 1372.68 1.6902 -3.86019 0
M  V30 14479 H 1371.4 1.92337 -2.63958 0
M  V30 14480 H 1370.06 0.0539142 -3.6656 0
M  V30 14481 H 1369.71 2.41463 -4.41253 0
M  V30 14482 H 1369.41 1.26343 -5.73856 0
M  V30 14483 H 1370.93 2.19496 -5.69784 0
M  V30 14484 H 1372.34 -0.0762061 -5.73249 0
M  V30 14485 H 1370.74 -0.839139 -5.94204 0
M  V30 14486 H 1371.81 -1.39723 -4.64333 0
M  V30 14487 N 1373.15 1.5451 -0.310553 0
M  V30 14488 C 1374.4 1.99931 0.29532 0
M  V30 14489 C 1374.72 1.20042 1.53672 0
M  V30 14490 O 1373.99 0.298841 1.93607 0
M  V30 14491 H 1372.57 0.738539 0.112111 0
M  V30 14492 H 1375.24 1.9023 -0.424092 0
M  V30 14493 H 1374.33 3.07021 0.560749 0
M  V30 14494 N 1374.63 0.0384594 1.57553 0
M  V30 14495 C 1375.88 -0.637533 1.91359 0
M  V30 14496 C 1376.2 -1.7275 0.91744 0
M  V30 14497 O 1377.4 -2.46078 1.14709 0
M  V30 14498 C 1375.86 -1.18526 3.39823 0
M  V30 14499 C 1375.47 -0.128086 4.47817 0
M  V30 14500 C 1377.21 -1.83723 3.82683 0
M  V30 14501 C 1375.12 -0.687978 5.87385 0
M  V30 14502 H 1374.05 -0.241898 0.714144 0
M  V30 14503 H 1376.7 0.105281 1.83198 0
M  V30 14504 H 1375.08 -1.97999 3.42947 0
M  V30 14505 H 1376.25 0.644865 4.56265 0
M  V30 14506 H 1374.57 0.425672 4.14219 0
M  V30 14507 H 1377.17 -2.26585 4.84317 0
M  V30 14508 H 1377.51 -2.68377 3.18244 0
M  V30 14509 H 1378.04 -1.10926 3.82021 0
M  V30 14510 H 1374.78 0.120642 6.55389 0
M  V30 14511 H 1374.3 -1.4292 5.82524 0
M  V30 14512 H 1375.98 -1.17483 6.36244 0
M  V30 14513 N 1376.11 -1.55841 -0.234795 0
M  V30 14514 C 1377.36 -1.77438 -0.959094 0
M  V30 14515 C 1377.67 -0.604621 -1.86021 0
M  V30 14516 O 1378.88 -0.703897 -2.62217 0
M  V30 14517 C 1377.34 -3.14182 -1.7555 0
M  V30 14518 C 1376.94 -4.38843 -0.90118 0
M  V30 14519 C 1378.69 -3.45112 -2.47181 0
M  V30 14520 C 1376.59 -5.66614 -1.69417 0
M  V30 14521 H 1375.52 -0.661503 -0.361843 0
M  V30 14522 H 1378.18 -1.82255 -0.213364 0
M  V30 14523 H 1376.56 -3.03505 -2.54364 0
M  V30 14524 H 1377.73 -4.60541 -0.154515 0
M  V30 14525 H 1376.05 -4.15335 -0.297631 0
M  V30 14526 H 1378.64 -4.37794 -3.06986 0
M  V30 14527 H 1378.99 -2.66995 -3.19405 0
M  V30 14528 H 1379.52 -3.57059 -1.75368 0
M  V30 14529 H 1376.26 -6.47587 -1.01545 0
M  V30 14530 H 1375.78 -5.48998 -2.4158 0
M  V30 14531 H 1377.46 -6.06311 -2.25824 0
M  V30 14532 N 1377.59 0.500963 -1.49426 0
M  V30 14533 C 1378.84 1.25509 -1.58915 0
M  V30 14534 C 1379.16 1.92534 -0.275868 0
M  V30 14535 O 1378.42 1.81324 0.736212 0
M  V30 14536 C 1378.72 2.34448 -2.69757 0
M  V30 14537 C 1378.38 1.8488 -4.11254 0
M  V30 14538 C 1377.05 1.71081 -4.49761 0
M  V30 14539 C 1379.4 1.4778 -4.9981 0
M  V30 14540 C 1376.73 1.18561 -5.74596 0
M  V30 14541 C 1379.08 0.967118 -6.25164 0
M  V30 14542 C 1377.74 0.815523 -6.62499 0
M  V30 14543 H 1377.01 0.459268 -0.58151 0
M  V30 14544 H 1379.66 0.555817 -1.83256 0
M  V30 14545 H 1377.96 3.10163 -2.39387 0
M  V30 14546 H 1379.66 2.925 -2.74308 0
M  V30 14547 H 1376.25 1.9658 -3.8086 0
M  V30 14548 H 1380.44 1.57288 -4.70717 0
M  V30 14549 H 1375.69 1.05536 -6.02223 0
M  V30 14550 H 1379.87 0.670857 -6.93161 0
M  V30 14551 H 1377.49 0.406375 -7.59113 0
M  V30 14552 N 1379.07 1.38501 0.752011 0
M  V30 14553 C 1380.31 1.34795 1.51118 0
M  V30 14554 C 1380.64 -0.0615084 1.94403 0
M  V30 14555 O 1379.9 -1.03892 1.65846 0
M  V30 14556 C 1380.2 2.25111 2.77596 0
M  V30 14557 C 1379.86 3.73052 2.53265 0
M  V30 14558 C 1378.52 4.13365 2.46339 0
M  V30 14559 C 1380.88 4.66692 2.32051 0
M  V30 14560 C 1378.2 5.45406 2.16216 0
M  V30 14561 C 1380.56 5.98992 2.03448 0
M  V30 14562 C 1379.22 6.38388 1.94979 0
M  V30 14563 H 1378.49 0.49325 0.552979 0
M  V30 14564 H 1381.14 1.70872 0.864588 0
M  V30 14565 H 1379.44 1.82096 3.46913 0
M  V30 14566 H 1381.14 2.19547 3.3556 0
M  V30 14567 H 1377.73 3.41091 2.59528 0
M  V30 14568 H 1381.91 4.36392 2.3638 0
M  V30 14569 H 1377.17 5.7487 2.08168 0
M  V30 14570 H 1381.34 6.71091 1.86037 0
M  V30 14571 H 1378.97 7.40625 1.71402 0
M  V30 14572 N 1380.55 -0.980364 1.23396 0
M  V30 14573 C 1381.46 -2.10688 1.03188 0
M  V30 14574 C 1382.47 -1.73984 -0.0236159 0
M  V30 14575 O 1383.65 -2.00666 0.171841 0
M  V30 14576 C 1380.71 -3.4101 0.625563 0
M  V30 14577 C 1379.77 -3.91739 1.75611 0
M  V30 14578 C 1379.01 -5.15841 1.36908 0
M  V30 14579 O 1379.23 -5.69837 0.253329 0
M  V30 14580 O 1378.16 -5.60638 2.19018 0
M  V30 14581 H 1381.99 -2.30626 1.97599 0
M  V30 14582 H 1379.57 -1.09067 1.02102 0
M  V30 14583 H 1381.46 -4.19402 0.409909 0
M  V30 14584 H 1380.13 -3.22402 -0.28956 0
M  V30 14585 H 1379.04 -3.14464 2.0264 0
M  V30 14586 H 1380.37 -4.14801 2.64955 0
M  V30 14587 N 1382.02 -1.04567 -1.17913 0
M  V30 14588 C 1382.96 -0.585519 -2.2056 0
M  V30 14589 C 1383.93 0.382581 -1.58035 0
M  V30 14590 O 1385.12 0.295692 -1.86166 0
M  V30 14591 C 1382.25 0.14396 -3.38394 0
M  V30 14592 C 1381.29 -0.778174 -4.19341 0
M  V30 14593 S 1382.12 -2.26385 -4.85294 0
M  V30 14594 C 1383.28 -1.54537 -6.06522 0
M  V30 14595 H 1383.51 -1.4552 -2.59251 0
M  V30 14596 H 1381.05 -0.857075 -1.28427 0
M  V30 14597 H 1383 0.558661 -4.06681 0
M  V30 14598 H 1381.67 0.989593 -2.98104 0
M  V30 14599 H 1380.86 -0.214053 -5.03545 0
M  V30 14600 H 1380.46 -1.13195 -3.56459 0
M  V30 14601 H 1382.75 -0.841199 -6.72257 0
M  V30 14602 H 1383.7 -2.36465 -6.6745 0
M  V30 14603 H 1384.1 -1.03551 -5.54921 0
M  V30 14604 N 1383.5 1.34231 -0.825823 0
M  V30 14605 C 1384.73 2.02949 -0.427354 0
M  V30 14606 C 1385.15 1.61772 0.959755 0
M  V30 14607 O 1384.51 0.803799 1.62508 0
M  V30 14608 C 1384.56 3.56522 -0.540799 0
M  V30 14609 O 1383.66 4.10065 0.438213 0
M  V30 14610 H 1383 0.640378 -0.175535 0
M  V30 14611 H 1385.53 1.71416 -1.11704 0
M  V30 14612 H 1385.54 4.05857 -0.41763 0
M  V30 14613 H 1384.22 3.85839 -1.55246 0
M  V30 14614 H 1382.79 3.71894 0.273687 0
M  V30 14615 N 1384.98 0.581051 1.46498 0
M  V30 14616 C 1386.21 0.0714615 2.06476 0
M  V30 14617 C 1386.62 -1.23815 1.43061 0
M  V30 14618 O 1385.96 -1.75903 0.529504 0
M  V30 14619 C 1386.02 -0.170353 3.59096 0
M  V30 14620 C 1385.69 1.05341 4.44694 0
M  V30 14621 C 1386.68 1.96503 4.81334 0
M  V30 14622 C 1384.37 1.27479 4.85854 0
M  V30 14623 C 1386.36 3.08154 5.57961 0
M  V30 14624 C 1384.05 2.39434 5.62241 0
M  V30 14625 C 1385.05 3.29601 5.98207 0
M  V30 14626 O 1384.74 4.39612 6.7305 0
M  V30 14627 H 1384.47 0.0537502 0.67386 0
M  V30 14628 H 1387.02 0.800993 1.89138 0
M  V30 14629 H 1385.25 -0.954477 3.74735 0
M  V30 14630 H 1386.94 -0.628248 4.01009 0
M  V30 14631 H 1387.71 1.80615 4.50115 0
M  V30 14632 H 1383.59 0.582051 4.57311 0
M  V30 14633 H 1387.13 3.78557 5.85953 0
M  V30 14634 H 1383.03 2.55286 5.92874 0
M  V30 14635 H 1383.79 4.37959 6.91473 0
M  V30 14636 N 1386.46 -1.54343 0.318742 0
M  V30 14637 C 1387.41 -2.20892 -0.564849 0
M  V30 14638 C 1388.39 -1.18782 -1.08534 0
M  V30 14639 O 1389.58 -1.44431 -1.02316 0
M  V30 14640 C 1386.71 -2.96661 -1.72763 0
M  V30 14641 C 1385.8 -4.06105 -1.22226 0
M  V30 14642 N 1386.19 -5.03916 -0.436203 0
M  V30 14643 C 1384.49 -4.19968 -1.50142 0
M  V30 14644 C 1385.19 -5.81466 -0.164875 0
M  V30 14645 N 1384.16 -5.38406 -0.74966 0
M  V30 14646 H 1387.97 -2.93868 0.0430622 0
M  V30 14647 H 1385.48 -1.61923 0.124362 0
M  V30 14648 H 1387.48 -3.42819 -2.37236 0
M  V30 14649 H 1386.14 -2.25206 -2.33907 0
M  V30 14650 H 1387.15 -5.17839 -0.0794815 0
M  V30 14651 H 1383.83 -3.59726 -2.11905 0
M  V30 14652 H 1385.22 -6.70271 0.467617 0
M  V30 14653 N 1387.94 -0.0468143 -1.5753 0
M  V30 14654 C 1389.35 0.489509 -1.80169 0
M  V30 14655 C 1389.7 1.71184 -0.958669 0
M  V30 14656 O 1388.82 2.15699 -0.174025 0
M  V30 14657 C 1389.42 0.894838 -3.26769 0
M  V30 14658 C 1387.98 1.37617 -3.50341 0
M  V30 14659 C 1387.12 0.349275 -2.75092 0
M  V30 14660 H 1390.07 -0.272728 -1.56339 0
M  V30 14661 H 1390.1 1.75805 -3.3745 0
M  V30 14662 H 1389.61 0.00501096 -3.881 0
M  V30 14663 H 1387.71 2.28533 -2.94285 0
M  V30 14664 H 1387.82 1.37133 -4.59055 0
M  V30 14665 H 1386.19 0.821219 -2.41098 0
M  V30 14666 H 1386.97 -0.532391 -3.39147 0
M  V30 14667 N 1389.41 1.55964 0.226527 0
M  V30 14668 C 1390.35 1.87013 1.30772 0
M  V30 14669 C 1391.33 0.727044 1.4544 0
M  V30 14670 O 1392.51 0.974898 1.61332 0
M  V30 14671 C 1389.64 2.07278 2.67869 0
M  V30 14672 C 1388.68 3.29956 2.70243 0
M  V30 14673 S 1389.52 4.86026 2.24808 0
M  V30 14674 C 1390.67 5.09321 3.6379 0
M  V30 14675 H 1390.9 2.78427 1.0424 0
M  V30 14676 H 1388.44 1.48334 0.428525 0
M  V30 14677 H 1390.4 2.19636 3.468 0
M  V30 14678 H 1389.06 1.1667 2.91628 0
M  V30 14679 H 1388.25 3.41164 3.70975 0
M  V30 14680 H 1387.85 3.16429 1.99371 0
M  V30 14681 H 1390.14 4.97914 4.59443 0
M  V30 14682 H 1391.09 6.11227 3.57501 0
M  V30 14683 H 1391.49 4.37076 3.57247 0
M  V30 14684 N 1390.89 -0.493031 1.4969 0
M  V30 14685 C 1392.14 -1.24849 1.59814 0
M  V30 14686 C 1392.47 -1.92059 0.287555 0
M  V30 14687 O 1391.75 -1.81099 -0.709471 0
M  V30 14688 C 1392.03 -2.30929 2.76304 0
M  V30 14689 C 1391.88 -1.68167 4.17181 0
M  V30 14690 C 1393.2 -3.32427 2.8841 0
M  V30 14691 H 1390.32 -0.452553 0.581691 0
M  V30 14692 H 1392.96 -0.545455 1.82002 0
M  V30 14693 H 1391.11 -2.9089 2.57517 0
M  V30 14694 H 1392.78 -1.11971 4.47504 0
M  V30 14695 H 1391.03 -0.985496 4.22458 0
M  V30 14696 H 1391.7 -2.45148 4.94577 0
M  V30 14697 H 1394.17 -2.82464 3.05537 0
M  V30 14698 H 1393.05 -4.04004 3.71581 0
M  V30 14699 H 1393.31 -3.95234 1.98097 0
M  V30 14700 N 1392.37 -1.38898 -0.744656 0
M  V30 14701 C 1393.6 -1.38848 -1.53391 0
M  V30 14702 C 1394.01 0.0194949 -1.8879 0
M  V30 14703 O 1393.37 0.988399 -1.53417 0
M  V30 14704 C 1393.42 -2.25243 -2.8275 0
M  V30 14705 O 1393.14 -3.60557 -2.48858 0
M  V30 14706 C 1394.64 -2.33471 -3.76837 0
M  V30 14707 H 1391.86 -0.4746 -0.474338 0
M  V30 14708 H 1394.41 -1.82591 -0.920902 0
M  V30 14709 H 1392.56 -1.84938 -3.40407 0
M  V30 14710 H 1392.98 -4.06142 -3.31887 0
M  V30 14711 H 1394.45 -2.9819 -4.64528 0
M  V30 14712 H 1394.93 -1.351 -4.17905 0
M  V30 14713 H 1395.53 -2.74205 -3.25103 0
M  V30 14714 N 1393.85 0.973806 -1.23914 0
M  V30 14715 C 1394.81 2.04892 -1.02723 0
M  V30 14716 C 1395.81 1.60795 0.0132972 0
M  V30 14717 O 1397 1.72714 -0.227084 0
M  V30 14718 C 1394.13 3.36341 -0.555667 0
M  V30 14719 H 1395.33 2.25124 -1.98139 0
M  V30 14720 H 1392.88 1.14817 -1.06051 0
M  V30 14721 H 1393.61 3.21799 0.40197 0
M  V30 14722 H 1393.4 3.69689 -1.30661 0
M  V30 14723 H 1394.89 4.15398 -0.428248 0
M  V30 14724 N 1395.33 1.05191 1.17357 0
M  V30 14725 C 1396.55 0.782343 1.92079 0
M  V30 14726 C 1396.98 -0.655957 1.76292 0
M  V30 14727 O 1396.33 -1.45573 1.08065 0
M  V30 14728 C 1396.38 1.16777 3.41168 0
M  V30 14729 O 1395.49 0.299908 4.11308 0
M  V30 14730 H 1394.83 0.286894 0.598822 0
M  V30 14731 H 1397.36 1.40476 1.48754 0
M  V30 14732 H 1397.37 1.13454 3.91909 0
M  V30 14733 H 1396.04 2.2155 3.51978 0
M  V30 14734 H 1394.62 0.393744 3.70815 0
M  V30 14735 N 1396.8 -1.33791 0.83293 0
M  V30 14736 C 1397.71 -2.33108 0.264169 0
M  V30 14737 C 1398.73 -1.6308 -0.606694 0
M  V30 14738 O 1399.91 -1.94777 -0.512225 0
M  V30 14739 C 1396.97 -3.42208 -0.556315 0
M  V30 14740 C 1396.03 -4.27966 0.338123 0
M  V30 14741 C 1395.27 -5.31856 -0.443297 0
M  V30 14742 O 1395.49 -5.45234 -1.6756 0
M  V30 14743 O 1394.42 -6.01632 0.179599 0
M  V30 14744 H 1398.25 -2.83602 1.08645 0
M  V30 14745 H 1395.83 -1.37027 0.595307 0
M  V30 14746 H 1397.72 -4.088 -1.02277 0
M  V30 14747 H 1396.39 -2.9394 -1.35575 0
M  V30 14748 H 1395.3 -3.64262 0.852293 0
M  V30 14749 H 1396.63 -4.79701 1.10217 0
M  V30 14750 N 1398.28 -0.588812 -1.46187 0
M  V30 14751 C 1399.7 -0.250962 -1.57615 0
M  V30 14752 C 1399.9 1.2467 -1.58302 0
M  V30 14753 O 1398.95 2.02876 -1.50325 0
M  V30 14754 C 1400.27 -0.905561 -2.8674 0
M  V30 14755 C 1401.82 -0.879721 -3.00383 0
M  V30 14756 C 1402.29 -1.51398 -4.32253 0
M  V30 14757 N 1403.78 -1.4786 -4.38967 0
M  V30 14758 C 1404.52 -1.93868 -5.39632 0
M  V30 14759 N 1404.01 -2.47876 -6.46938 0
M  V30 14760 N 1405.81 -1.84748 -5.30872 0
M  V30 14761 H 1397.96 -1.56148 -1.43985 0
M  V30 14762 H 1400.22 -0.653028 -0.68721 0
M  V30 14763 H 1399.93 -1.95935 -2.92066 0
M  V30 14764 H 1399.8 -0.417456 -3.74883 0
M  V30 14765 H 1402.19 0.165466 -2.94636 0
M  V30 14766 H 1402.27 -1.40591 -2.137 0
M  V30 14767 H 1401.91 -2.55839 -4.38758 0
M  V30 14768 H 1401.84 -0.962965 -5.17721 0
M  V30 14769 H 1404.33 -1.08387 -3.62023 0
M  V30 14770 H 1404.65 -2.80824 -7.1997 0
M  V30 14771 H 1402.99 -2.51905 -6.47741 0
M  V30 14772 H 1406.18 -1.42307 -4.45944 0
M  V30 14773 H 1406.35 -2.20919 -6.09179 0
M  V30 14774 N 1399.76 1.54172 -0.326923 0
M  V30 14775 C 1401.01 1.99809 0.275554 0
M  V30 14776 C 1401.32 1.21886 1.52981 0
M  V30 14777 O 1402.53 1.57917 2.20849 0
M  V30 14778 C 1400.98 3.55802 0.541543 0
M  V30 14779 C 1400.59 4.42563 -0.695853 0
M  V30 14780 C 1402.34 4.09898 1.10379 0
M  V30 14781 C 1400.24 5.90035 -0.401581 0
M  V30 14782 H 1399.17 0.746406 0.106742 0
M  V30 14783 H 1401.82 1.78155 -0.439669 0
M  V30 14784 H 1400.21 3.73457 1.31704 0
M  V30 14785 H 1401.38 4.36684 -1.47118 0
M  V30 14786 H 1399.7 3.99373 -1.17855 0
M  V30 14787 H 1402.29 5.17672 1.33863 0
M  V30 14788 H 1402.64 3.62089 2.0542 0
M  V30 14789 H 1403.17 3.9589 0.389395 0
M  V30 14790 H 1399.91 6.42046 -1.32126 0
M  V30 14791 H 1399.43 5.98858 0.335977 0
M  V30 14792 H 1401.11 6.46999 -0.0126539 0
M  V30 14793 N 1401.24 0.0551678 1.57503 0
M  V30 14794 C 1402.49 -0.61772 1.92848 0
M  V30 14795 C 1402.81 -1.70614 0.933862 0
M  V30 14796 O 1402.07 -1.95628 -0.0532073 0
M  V30 14797 C 1402.37 -1.24895 3.34867 0
M  V30 14798 C 1402.03 -0.288325 4.49977 0
M  V30 14799 C 1400.7 -0.0240016 4.81194 0
M  V30 14800 C 1403.05 0.369804 5.19886 0
M  V30 14801 C 1400.38 0.905818 5.79665 0
M  V30 14802 C 1402.73 1.28784 6.19352 0
M  V30 14803 C 1401.39 1.5608 6.48996 0
M  V30 14804 H 1400.66 -0.22604 0.705682 0
M  V30 14805 H 1403.31 0.1225 1.91108 0
M  V30 14806 H 1401.61 -2.06452 3.32993 0
M  V30 14807 H 1403.31 -1.77659 3.59497 0
M  V30 14808 H 1399.9 -0.504524 4.2562 0
M  V30 14809 H 1404.08 0.178689 4.95978 0
M  V30 14810 H 1399.34 1.12472 6.00966 0
M  V30 14811 H 1403.51 1.80385 6.72632 0
M  V30 14812 H 1401.14 2.28292 7.25112 0
M  V30 14813 N 1402.72 -1.56081 -0.218252 0
M  V30 14814 C 1403.96 -1.79513 -0.943553 0
M  V30 14815 C 1404.3 -0.625367 -1.83855 0
M  V30 14816 O 1403.57 0.375226 -1.90846 0
M  V30 14817 C 1403.85 -3.13049 -1.77967 0
M  V30 14818 C 1403.71 -4.40479 -0.910939 0
M  V30 14819 C 1405.03 -3.43057 -2.7568 0
M  V30 14820 H 1402.14 -0.653057 -0.341593 0
M  V30 14821 H 1404.79 -1.88811 -0.212226 0
M  V30 14822 H 1402.94 -3.05254 -2.40318 0
M  V30 14823 H 1404.61 -4.60298 -0.303922 0
M  V30 14824 H 1402.85 -4.33259 -0.216513 0
M  V30 14825 H 1403.52 -5.3036 -1.53042 0
M  V30 14826 H 1406 -3.51002 -2.23465 0
M  V30 14827 H 1404.87 -4.37657 -3.31282 0
M  V30 14828 H 1405.14 -2.65389 -3.53584 0
M  V30 14829 N 1404.2 0.485086 -1.49949 0
M  V30 14830 C 1405.13 1.59312 -1.7071 0
M  V30 14831 C 1406.11 1.6076 -0.555896 0
M  V30 14832 O 1407.29 1.77249 -0.793504 0
M  V30 14833 C 1404.42 2.97718 -1.78834 0
M  V30 14834 C 1403.38 3.11136 -2.93902 0
M  V30 14835 C 1402.7 4.51051 -2.87154 0
M  V30 14836 C 1404 2.89665 -4.34617 0
M  V30 14837 H 1405.7 1.42192 -2.6348 0
M  V30 14838 H 1403.24 0.68262 -1.26792 0
M  V30 14839 H 1405.19 3.75148 -1.91943 0
M  V30 14840 H 1403.92 3.15963 -0.826744 0
M  V30 14841 H 1402.58 2.36135 -2.80421 0
M  V30 14842 H 1402.23 4.66195 -1.88869 0
M  V30 14843 H 1401.93 4.60967 -3.64394 0
M  V30 14844 H 1403.45 5.3052 -3.02293 0
M  V30 14845 H 1404.86 3.56853 -4.48697 0
M  V30 14846 H 1403.26 3.11039 -5.13201 0
M  V30 14847 H 1404.33 1.85642 -4.47956 0
M  V30 14848 N 1405.67 1.39291 0.737279 0
M  V30 14849 C 1406.62 1.37969 1.87263 0
M  V30 14850 C 1407.62 0.263156 1.67344 0
M  V30 14851 O 1408.82 0.433069 1.74713 0
M  V30 14852 H 1405.2 0.430782 0.616385 0
M  V30 14853 H 1407.17 2.33741 1.85494 0
M  V30 14854 C 1405.92 1.23779 3.24922 0
M  V30 14855 H 1405.24 2.08963 3.40844 0
M  V30 14856 H 1406.68 1.26911 4.04561 0
M  V30 14857 C 1405.14 -0.0539778 3.36857 0
M  V30 14858 O 1405.67 -1.02501 3.88402 0
M  V30 14859 N 1403.87 -0.116275 2.90367 0
M  V30 14860 H 1403.42 0.674622 2.48609 0
M  V30 14861 H 1403.38 -0.980107 2.98733 0
M  V30 14862 N 1407.15 -0.967221 1.24429 0
M  V30 14863 C 1408.08 -2.06479 0.994946 0
M  V30 14864 C 1409.1 -1.62761 -0.0357582 0
M  V30 14865 O 1410.29 -1.77361 0.201336 0
M  V30 14866 C 1407.39 -3.35487 0.479736 0
M  V30 14867 C 1406.56 -4.0811 1.57368 0
M  V30 14868 C 1405.62 -5.15392 1.06104 0
M  V30 14869 O 1404.64 -5.41539 1.75283 0
M  V30 14870 N 1405.85 -5.80406 -0.104288 0
M  V30 14871 H 1408.61 -2.28443 1.93995 0
M  V30 14872 H 1406.17 -1.13488 1.15465 0
M  V30 14873 H 1408.16 -4.04517 0.121528 0
M  V30 14874 H 1406.73 -3.1039 -0.371012 0
M  V30 14875 H 1405.95 -3.33351 2.10406 0
M  V30 14876 H 1407.24 -4.53391 2.30897 0
M  V30 14877 H 1406.64 -5.61566 -0.682638 0
M  V30 14878 H 1405.2 -6.50549 -0.403638 0
M  V30 14879 N 1408.63 -1.05812 -1.16797 0
M  V30 14880 C 1409.56 -0.685778 -2.23202 0
M  V30 14881 C 1410.54 0.319428 -1.67074 0
M  V30 14882 O 1411.73 0.195635 -1.93212 0
M  V30 14883 C 1408.86 -0.0662958 -3.47237 0
M  V30 14884 C 1407.81 -0.996943 -4.16227 0
M  V30 14885 C 1407.14 -0.241015 -5.34157 0
M  V30 14886 C 1408.44 -2.32384 -4.67755 0
M  V30 14887 H 1410.13 -1.57535 -2.54604 0
M  V30 14888 H 1407.68 -0.758909 -1.22379 0
M  V30 14889 H 1409.63 0.206024 -4.20896 0
M  V30 14890 H 1408.35 0.858263 -3.15121 0
M  V30 14891 H 1407.01 -1.25393 -3.44488 0
M  V30 14892 H 1406.66 0.686508 -4.98293 0
M  V30 14893 H 1406.36 -0.861188 -5.81255 0
M  V30 14894 H 1407.88 0.0238739 -6.10595 0
M  V30 14895 H 1409.3 -2.11099 -5.3302 0
M  V30 14896 H 1407.69 -2.89855 -5.25456 0
M  V30 14897 H 1408.76 -2.958 -3.84227 0
M  V30 14898 N 1410.11 1.33347 -0.840014 0
M  V30 14899 C 1411.52 1.50615 -0.52795 0
M  V30 14900 C 1411.72 1.77993 0.944493 0
M  V30 14901 O 1410.78 1.84087 1.72824 0
M  V30 14902 C 1412.09 2.66001 -1.40228 0
M  V30 14903 C 1413.64 2.79886 -1.40117 0
M  V30 14904 C 1414.12 3.98335 -2.26038 0
M  V30 14905 N 1415.61 4.05572 -2.23753 0
M  V30 14906 C 1416.34 4.96422 -2.86972 0
M  V30 14907 N 1415.84 5.9238 -3.59247 0
M  V30 14908 N 1417.63 4.89428 -2.76436 0
M  V30 14909 H 1409.78 1.13839 -1.79317 0
M  V30 14910 H 1412.04 0.559772 -0.765088 0
M  V30 14911 H 1411.75 2.52453 -2.44868 0
M  V30 14912 H 1411.62 3.61434 -1.07914 0
M  V30 14913 H 1414.01 2.92865 -0.362487 0
M  V30 14914 H 1414.09 1.85211 -1.76439 0
M  V30 14915 H 1413.74 3.86115 -3.29966 0
M  V30 14916 H 1413.67 4.92257 -1.87057 0
M  V30 14917 H 1416.16 3.36899 -1.71195 0
M  V30 14918 H 1416.47 6.58367 -4.04688 0
M  V30 14919 H 1414.82 5.92451 -3.63354 0
M  V30 14920 H 1418.01 4.13428 -2.19534 0
M  V30 14921 H 1418.18 5.60032 -3.25989 0
M  V30 14922 N 1411.59 0.596556 1.45873 0
M  V30 14923 C 1412.86 0.0199562 1.9559 0
M  V30 14924 C 1413.24 -1.44479 1.53912 0
M  V30 14925 O 1412.59 -2.14173 0.796384 0
M  V30 14926 C 1412.8 0.206497 3.48389 0
M  V30 14927 C 1414.15 0.0815298 4.24522 0
M  V30 14928 O 1415.17 0.136045 3.5594 0
M  V30 14929 O 1414.03 -0.0426117 5.46483 0
M  V30 14930 H 1411.13 -0.0419913 0.825933 0
M  V30 14931 H 1413.67 0.665846 1.56092 0
M  V30 14932 H 1412.44 1.22422 3.71656 0
M  V30 14933 H 1412.07 -0.475175 3.9475 0
M  V30 14934 N 1413.06 -1.53996 0.335095 0
M  V30 14935 C 1414.47 -1.86092 -0.15058 0
M  V30 14936 C 1414.83 -1.25652 -1.50685 0
M  V30 14937 O 1413.95 -0.566887 -2.08843 0
M  V30 14938 C 1414.55 -3.37641 -0.280007 0
M  V30 14939 C 1413.1 -3.69645 -0.709907 0
M  V30 14940 C 1412.25 -2.7683 0.161461 0
M  V30 14941 H 1415.2 -1.4868 0.554986 0
M  V30 14942 H 1415.22 -3.63981 -1.10896 0
M  V30 14943 H 1414.74 -3.81601 0.707254 0
M  V30 14944 H 1412.84 -3.31224 -1.7065 0
M  V30 14945 H 1412.95 -4.76424 -0.505661 0
M  V30 14946 H 1411.31 -2.52073 -0.364849 0
M  V30 14947 H 1412.1 -3.23618 1.1457 0
M  V30 14948 N 1414.54 -0.0635198 -1.57472 0
M  V30 14949 C 1415.77 0.616735 -1.97494 0
M  V30 14950 C 1416.18 1.63646 -0.941568 0
M  V30 14951 O 1415.54 1.82355 0.0727768 0
M  V30 14952 C 1415.59 1.29268 -3.37597 0
M  V30 14953 O 1415.31 0.313781 -4.36975 0
M  V30 14954 C 1416.81 2.06154 -3.92448 0
M  V30 14955 H 1414.03 0.167753 -0.649692 0
M  V30 14956 H 1416.58 -0.133475 -2.04064 0
M  V30 14957 H 1414.73 1.99404 -3.3214 0
M  V30 14958 H 1415.15 0.797723 -5.18398 0
M  V30 14959 H 1416.62 2.48853 -4.92723 0
M  V30 14960 H 1417.1 2.91474 -3.28541 0
M  V30 14961 H 1417.7 1.40903 -4.01281 0
M  V30 14962 N 1416.02 1.56195 0.209972 0
M  V30 14963 C 1417.24 1.84189 0.953364 0
M  V30 14964 C 1417.67 0.645288 1.76685 0
M  V30 14965 O 1417.03 -0.405962 1.76696 0
M  V30 14966 C 1417.08 3.10281 1.83733 0
M  V30 14967 O 1416.18 2.89788 2.93422 0
M  V30 14968 H 1415.52 0.606931 0.269314 0
M  V30 14969 H 1418.05 2.03416 0.219783 0
M  V30 14970 H 1418.06 3.40688 2.2449 0
M  V30 14971 H 1416.74 3.97 1.23951 0
M  V30 14972 H 1415.31 2.70643 2.56528 0
M  V30 14973 N 1417.5 -0.477127 1.50204 0
M  V30 14974 C 1418.91 -1.05815 1.53819 0
M  V30 14975 C 1419.26 -1.93264 0.338169 0
M  V30 14976 O 1418.38 -2.09305 -0.549576 0
M  V30 14977 C 1418.98 -1.92577 2.78746 0
M  V30 14978 C 1417.54 -2.45799 2.85061 0
M  V30 14979 C 1416.69 -1.23994 2.48034 0
M  V30 14980 H 1419.64 -0.259998 1.56556 0
M  V30 14981 H 1419.66 -2.7757 2.6026 0
M  V30 14982 H 1419.17 -1.28904 3.66068 0
M  V30 14983 H 1417.27 -3.13042 2.02077 0
M  V30 14984 H 1417.38 -2.81318 3.8781 0
M  V30 14985 H 1415.75 -1.5728 2.00338 0
M  V30 14986 H 1416.53 -0.619917 3.37657 0
M  V30 14987 N 1418.98 -1.3968 -0.729882 0
M  V30 14988 C 1419.92 -1.38808 -1.84393 0
M  V30 14989 C 1420.89 -0.247035 -1.64253 0
M  V30 14990 O 1422.08 -0.44293 -1.85588 0
M  V30 14991 C 1419.22 -1.2424 -3.2196 0
M  V30 14992 C 1418.33 -2.47932 -3.53771 0
M  V30 14993 C 1417.47 -2.25913 -4.80767 0
M  V30 14994 C 1416.51 -3.45254 -5.05436 0
M  V30 14995 N 1415.64 -3.2252 -6.23638 0
M  V30 14996 H 1420.48 -2.34038 -1.84473 0
M  V30 14997 H 1418.02 -1.16252 -0.901332 0
M  V30 14998 H 1419.98 -1.13804 -4.01378 0
M  V30 14999 H 1418.61 -0.326375 -3.21146 0
M  V30 15000 H 1417.66 -2.68952 -2.69015 0
M  V30 15001 H 1418.97 -3.36806 -3.67917 0
M  V30 15002 H 1418.13 -2.12748 -5.68175 0
M  V30 15003 H 1416.86 -1.34441 -4.68804 0
M  V30 15004 H 1415.87 -3.58912 -4.16488 0
M  V30 15005 H 1417.09 -4.37634 -5.19282 0
M  V30 15006 H 1415.04 -2.33718 -6.12953 0
M  V30 15007 H 1414.96 -4.04954 -6.38395 0
M  V30 15008 H 1416.23 -3.1306 -7.13872 0
M  V30 15009 N 1420.45 0.960609 -1.2494 0
M  V30 15010 C 1421.7 1.70448 -1.09333 0
M  V30 15011 C 1422.03 1.91012 0.366687 0
M  V30 15012 O 1421.28 1.4743 1.28697 0
M  V30 15013 C 1421.58 3.09564 -1.78619 0
M  V30 15014 C 1421.25 3.08819 -3.28545 0
M  V30 15015 C 1419.91 3.08323 -3.69446 0
M  V30 15016 C 1422.26 3.02606 -4.24357 0
M  V30 15017 C 1419.59 2.99356 -5.04582 0
M  V30 15018 C 1421.94 2.9518 -5.5951 0
M  V30 15019 C 1420.61 2.93017 -5.99748 0
M  V30 15020 H 1419.88 0.623714 -0.400078 0
M  V30 15021 H 1422.52 1.12273 -1.55136 0
M  V30 15022 H 1420.83 3.71247 -1.2523 0
M  V30 15023 H 1422.53 3.6593 -1.64001 0
M  V30 15024 H 1419.12 3.09974 -2.95997 0
M  V30 15025 H 1423.3 3.02113 -3.93753 0
M  V30 15026 H 1418.56 2.96046 -5.34946 0
M  V30 15027 H 1422.73 2.89333 -6.3345 0
M  V30 15028 H 1420.36 2.85824 -7.04421 0
M  V30 15029 N 1421.93 1.0643 1.16234 0
M  V30 15030 C 1423.34 0.806012 1.68405 0
M  V30 15031 C 1423.69 -0.670197 1.84398 0
M  V30 15032 O 1422.82 -1.51975 1.54054 0
M  V30 15033 C 1423.41 1.45654 3.05893 0
M  V30 15034 C 1421.97 1.24599 3.55179 0
M  V30 15035 C 1421.12 1.53216 2.31128 0
M  V30 15036 H 1424.07 1.22759 1.00578 0
M  V30 15037 H 1424.09 0.872616 3.70359 0
M  V30 15038 H 1423.6 2.53092 2.94221 0
M  V30 15039 H 1421.71 0.191407 3.72108 0
M  V30 15040 H 1421.82 1.95967 4.37188 0
M  V30 15041 H 1420.18 0.952755 2.36209 0
M  V30 15042 H 1420.97 2.61816 2.22052 0
M  V30 15043 N 1423.41 -1.329 0.847073 0
M  V30 15044 C 1424.32 -2.32815 0.288878 0
M  V30 15045 C 1425.34 -1.63715 -0.589363 0
M  V30 15046 O 1426.51 -1.9531 -0.491537 0
M  V30 15047 C 1423.58 -3.42778 -0.519988 0
M  V30 15048 C 1422.64 -4.27584 0.383496 0
M  V30 15049 C 1421.87 -5.32296 -0.386862 0
M  V30 15050 O 1422.09 -5.4698 -1.61768 0
M  V30 15051 O 1421.03 -6.01408 0.2434 0
M  V30 15052 H 1424.85 -2.82434 1.11647 0
M  V30 15053 H 1422.44 -1.36388 0.609807 0
M  V30 15054 H 1424.32 -4.09862 -0.979357 0
M  V30 15055 H 1423 -2.95362 -1.3245 0
M  V30 15056 H 1421.9 -3.63338 0.890879 0
M  V30 15057 H 1423.24 -4.78505 1.15299 0
M  V30 15058 N 1424.89 -0.604284 -1.45555 0
M  V30 15059 C 1426.17 -0.0303285 -1.95576 0
M  V30 15060 C 1426.55 1.43661 -1.54676 0
M  V30 15061 O 1425.89 2.13747 -0.807731 0
M  V30 15062 C 1426.1 -0.22497 -3.48274 0
M  V30 15063 C 1427.45 -0.104042 -4.24473 0
M  V30 15064 O 1428.48 -0.154919 -3.55863 0
M  V30 15065 O 1427.33 0.0136297 -5.46498 0
M  V30 15066 H 1424.43 0.0376106 -0.826144 0
M  V30 15067 H 1426.97 -0.674114 -1.55736 0
M  V30 15068 H 1425.75 -1.24391 -3.71002 0
M  V30 15069 H 1425.37 0.454234 -3.94997 0
M  V30 15070 N 1426.37 1.53816 -0.343257 0
M  V30 15071 C 1427.61 2.00909 0.253346 0
M  V30 15072 C 1427.94 1.23109 1.5058 0
M  V30 15073 O 1427.2 0.306682 1.93282 0
M  V30 15074 C 1427.5 3.521 0.613243 0
M  V30 15075 C 1427.16 4.47627 -0.5423 0
M  V30 15076 C 1425.82 4.73463 -0.859418 0
M  V30 15077 C 1428.18 5.04272 -1.31754 0
M  V30 15078 C 1425.5 5.532 -1.95415 0
M  V30 15079 C 1427.86 5.85203 -2.40251 0
M  V30 15080 C 1426.52 6.09334 -2.72523 0
M  V30 15081 H 1425.79 0.735178 0.0927058 0
M  V30 15082 H 1428.44 1.85615 -0.471111 0
M  V30 15083 H 1426.74 3.65224 1.41841 0
M  V30 15084 H 1428.44 3.85994 1.08673 0
M  V30 15085 H 1425.03 4.27651 -0.285076 0
M  V30 15086 H 1429.21 4.84277 -1.0858 0
M  V30 15087 H 1424.47 5.70122 -2.20842 0
M  V30 15088 H 1428.64 6.28109 -3.00753 0
M  V30 15089 H 1426.27 6.70906 -3.57476 0
M  V30 15090 N 1427.84 0.0718701 1.57436 0
M  V30 15091 C 1429.12 -0.638233 1.84894 0
M  V30 15092 C 1429.5 -1.87786 0.964343 0
M  V30 15093 O 1428.85 -2.28479 0.0306523 0
M  V30 15094 C 1429.06 -0.975817 3.3508 0
M  V30 15095 C 1430.41 -1.34927 4.02591 0
M  V30 15096 O 1431.43 -1.06754 3.39826 0
M  V30 15097 O 1430.29 -1.87589 5.13296 0
M  V30 15098 H 1427.38 -0.317 0.763832 0
M  V30 15099 H 1429.93 0.102807 1.69388 0
M  V30 15100 H 1428.7 -0.0953948 3.91184 0
M  V30 15101 H 1428.33 -1.77362 3.55849 0
M  V30 15102 N 1429.32 -1.56304 -0.201686 0
M  V30 15103 C 1430.6 -1.71059 -0.948595 0
M  V30 15104 C 1430.98 -0.624794 -2.01642 0
M  V30 15105 O 1430.33 0.365235 -2.25562 0
M  V30 15106 C 1430.54 -3.13136 -1.54101 0
M  V30 15107 C 1431.89 -3.73165 -2.02567 0
M  V30 15108 O 1432.91 -3.16223 -1.63956 0
M  V30 15109 O 1431.77 -4.73084 -2.73594 0
M  V30 15110 H 1428.86 -0.697443 -0.444412 0
M  V30 15111 H 1431.41 -1.68611 -0.191901 0
M  V30 15112 H 1430.18 -3.8363 -0.770968 0
M  V30 15113 H 1429.8 -3.19784 -2.36271 0
M  V30 15114 N 1430.8 0.469154 -1.50455 0
M  V30 15115 C 1432.05 1.21868 -1.61222 0
M  V30 15116 C 1432.37 1.9243 -0.315535 0
M  V30 15117 O 1431.64 1.84192 0.667083 0
M  V30 15118 H 1430.22 0.452828 -0.594101 0
M  V30 15119 H 1432.88 0.540993 -1.87241 0
M  V30 15120 H 1431.98 1.96554 -2.42431 0
M  V30 15121 N 1432.28 1.40065 0.722464 0
M  V30 15122 C 1433.19 1.42086 1.86678 0
M  V30 15123 C 1434.2 0.314223 1.71139 0
M  V30 15124 O 1435.38 0.55771 1.93524 0
M  V30 15125 C 1432.45 1.27498 3.22405 0
M  V30 15126 C 1431.51 2.48243 3.50248 0
M  V30 15127 C 1430.74 2.34342 4.79499 0
M  V30 15128 O 1430.96 1.35355 5.54108 0
M  V30 15129 O 1429.9 3.23579 5.07523 0
M  V30 15130 H 1433.72 2.38571 1.87929 0
M  V30 15131 H 1431.31 1.21314 0.871968 0
M  V30 15132 H 1433.19 1.21543 4.03491 0
M  V30 15133 H 1431.86 0.341141 3.21897 0
M  V30 15134 H 1430.77 2.59775 2.69199 0
M  V30 15135 H 1432.1 3.40364 3.55547 0
M  V30 15136 N 1433.76 -0.95397 1.25448 0
M  V30 15137 C 1434.71 -2.03623 1.02575 0
M  V30 15138 C 1435.69 -1.60856 -0.0375824 0
M  V30 15139 O 1436.88 -1.76104 0.177833 0
M  V30 15140 C 1434.01 -3.37145 0.64714 0
M  V30 15141 C 1433.1 -3.86434 1.74726 0
M  V30 15142 N 1433.49 -4.08509 2.98251 0
M  V30 15143 C 1431.79 -4.15228 1.62793 0
M  V30 15144 C 1432.49 -4.49137 3.69663 0
M  V30 15145 N 1431.46 -4.55106 2.97287 0
M  V30 15146 H 1435.27 -2.18685 1.96352 0
M  V30 15147 H 1432.78 -1.13884 1.15777 0
M  V30 15148 H 1434.78 -4.14305 0.464462 0
M  V30 15149 H 1433.44 -3.23462 -0.283296 0
M  V30 15150 H 1434.45 -3.95564 3.3429 0
M  V30 15151 H 1431.13 -4.10403 0.766501 0
M  V30 15152 H 1432.52 -4.74515 4.75695 0
M  V30 15153 N 1435.24 -1.07045 -1.15668 0
M  V30 15154 C 1436.2 -0.69198 -2.18505 0
M  V30 15155 C 1437.2 0.266185 -1.58582 0
M  V30 15156 O 1438.39 0.0475566 -1.74135 0
M  V30 15157 C 1435.52 -0.0194196 -3.40894 0
M  V30 15158 H 1436.71 -1.60241 -2.53501 0
M  V30 15159 H 1434.27 -0.866598 -1.30076 0
M  V30 15160 H 1435 0.903398 -3.11463 0
M  V30 15161 H 1434.79 -0.708519 -3.85645 0
M  V30 15162 H 1436.28 0.230829 -4.16962 0
M  V30 15163 N 1436.71 1.32449 -0.85411 0
M  V30 15164 C 1437.66 2.2889 -0.296341 0
M  V30 15165 C 1438.63 1.55024 0.596378 0
M  V30 15166 O 1439.82 1.8325 0.531406 0
M  V30 15167 C 1436.96 3.41315 0.509729 0
M  V30 15168 C 1436.07 4.30062 -0.40872 0
M  V30 15169 C 1435.2 5.29616 0.409928 0
M  V30 15170 C 1434.24 6.10005 -0.505953 0
M  V30 15171 N 1433.38 7.01559 0.275483 0
M  V30 15172 H 1438.22 2.75989 -1.12401 0
M  V30 15173 H 1435.76 1.35787 -0.565717 0
M  V30 15174 H 1437.71 4.05218 0.992697 0
M  V30 15175 H 1436.34 2.95367 1.30223 0
M  V30 15176 H 1435.4 3.66745 -1.01007 0
M  V30 15177 H 1436.71 4.86255 -1.11165 0
M  V30 15178 H 1435.86 5.99119 0.956083 0
M  V30 15179 H 1434.6 4.74039 1.14623 0
M  V30 15180 H 1433.61 5.39406 -1.064 0
M  V30 15181 H 1434.83 6.67667 -1.24086 0
M  V30 15182 H 1432.78 6.48412 0.994887 0
M  V30 15183 H 1432.69 7.55102 -0.368426 0
M  V30 15184 H 1433.96 7.75349 0.803382 0
M  V30 15185 N 1438.19 0.611994 1.45232 0
M  V30 15186 C 1439.12 -0.142449 2.28757 0
M  V30 15187 C 1440.14 -0.827486 1.40202 0
M  V30 15188 O 1441.33 -0.692136 1.64535 0
M  V30 15189 C 1438.43 -1.22296 3.16065 0
M  V30 15190 C 1437.6 -0.624178 4.32924 0
M  V30 15191 C 1436.66 -1.59615 5.01408 0
M  V30 15192 O 1435.68 -1.12073 5.58058 0
M  V30 15193 N 1436.89 -2.93057 5.01097 0
M  V30 15194 H 1439.65 0.574276 2.94147 0
M  V30 15195 H 1437.21 0.451789 1.55469 0
M  V30 15196 H 1439.2 -1.87309 3.58744 0
M  V30 15197 H 1437.77 -1.84215 2.52554 0
M  V30 15198 H 1436.99 0.204141 3.93671 0
M  V30 15199 H 1438.28 -0.204435 5.08389 0
M  V30 15200 H 1437.68 -3.3428 4.5637 0
M  V30 15201 H 1436.24 -3.53481 5.47626 0
M  V30 15202 N 1439.67 -1.53632 0.351409 0
M  V30 15203 C 1440.62 -2.25281 -0.501724 0
M  V30 15204 C 1441.59 -1.25406 -1.08915 0
M  V30 15205 O 1442.77 -1.54157 -1.1243 0
M  V30 15206 C 1439.91 -3.03491 -1.64278 0
M  V30 15207 C 1439.02 -4.18233 -1.0819 0
M  V30 15208 C 1438.16 -4.83914 -2.1909 0
M  V30 15209 C 1437.2 -5.90712 -1.60394 0
M  V30 15210 N 1436.34 -6.50141 -2.65068 0
M  V30 15211 H 1441.18 -2.97775 0.11579 0
M  V30 15212 H 1438.71 -1.46938 0.0689141 0
M  V30 15213 H 1440.67 -3.47101 -2.31467 0
M  V30 15214 H 1439.3 -2.33279 -2.23116 0
M  V30 15215 H 1438.35 -3.7921 -0.300713 0
M  V30 15216 H 1439.66 -4.95023 -0.612644 0
M  V30 15217 H 1438.82 -5.30635 -2.94128 0
M  V30 15218 H 1437.56 -4.06565 -2.69362 0
M  V30 15219 H 1436.56 -5.43366 -0.838646 0
M  V30 15220 H 1437.79 -6.69973 -1.10964 0
M  V30 15221 H 1435.73 -5.75652 -3.14581 0
M  V30 15222 H 1435.65 -7.22427 -2.22788 0
M  V30 15223 H 1436.92 -7.01513 -3.39852 0
M  V30 15224 N 1441.15 -0.0802183 -1.57396 0
M  V30 15225 C 1442.37 0.599179 -1.98556 0
M  V30 15226 C 1442.8 1.61844 -0.958555 0
M  V30 15227 O 1442.16 1.81146 0.0748226 0
M  V30 15228 C 1442.2 1.23675 -3.38728 0
M  V30 15229 O 1441.31 2.35262 -3.38712 0
M  V30 15230 H 1440.65 0.153366 -0.646045 0
M  V30 15231 H 1443.18 -0.157227 -2.03995 0
M  V30 15232 H 1443.19 1.5816 -3.76098 0
M  V30 15233 H 1441.86 0.489946 -4.13004 0
M  V30 15234 H 1440.44 2.02507 -3.13122 0
M  V30 15235 N 1442.63 1.56409 0.193394 0
M  V30 15236 C 1443.87 1.80991 0.914875 0
M  V30 15237 C 1444.2 0.654538 1.82837 0
M  V30 15238 O 1443.48 -0.344816 1.91419 0
M  V30 15239 C 1443.76 3.15841 1.72964 0
M  V30 15240 C 1443.62 4.41873 0.840748 0
M  V30 15241 C 1444.93 3.474 2.70188 0
M  V30 15242 H 1442.05 0.658408 0.331161 0
M  V30 15243 H 1444.7 1.89125 0.182161 0
M  V30 15244 H 1442.85 3.09038 2.35431 0
M  V30 15245 H 1444.52 4.60723 0.230654 0
M  V30 15246 H 1442.76 4.33549 0.147558 0
M  V30 15247 H 1443.43 5.32728 1.44586 0
M  V30 15248 H 1445.91 3.54513 2.17852 0
M  V30 15249 H 1444.78 4.42872 3.24278 0
M  V30 15250 H 1445.04 2.7098 3.49317 0
M  V30 15251 N 1444.1 -0.461169 1.50702 0
M  V30 15252 C 1445.35 -1.20934 1.61425 0
M  V30 15253 C 1445.67 -1.92884 0.32481 0
M  V30 15254 O 1446.87 -2.69712 0.311081 0
M  V30 15255 C 1445.33 -2.19797 2.84987 0
M  V30 15256 C 1444.94 -1.53604 4.20844 0
M  V30 15257 C 1446.68 -2.95194 3.05059 0
M  V30 15258 C 1444.59 -2.50811 5.35582 0
M  V30 15259 H 1443.52 -0.455088 0.601174 0
M  V30 15260 H 1446.17 -0.478771 1.77144 0
M  V30 15261 H 1444.55 -2.96187 2.62848 0
M  V30 15262 H 1445.72 -0.829345 4.53275 0
M  V30 15263 H 1444.04 -0.904504 4.06457 0
M  V30 15264 H 1446.64 -3.67965 3.87951 0
M  V30 15265 H 1446.98 -3.5516 2.1718 0
M  V30 15266 H 1447.51 -2.25915 3.27425 0
M  V30 15267 H 1444.25 -1.9557 6.25646 0
M  V30 15268 H 1443.77 -3.19604 5.07556 0
M  V30 15269 H 1445.45 -3.12437 5.66561 0
M  V30 15270 N 1445.58 -1.40446 -0.715026 0
M  V30 15271 C 1446.81 -1.42263 -1.50917 0
M  V30 15272 C 1447.23 -0.0242402 -1.88084 0
M  V30 15273 O 1446.59 0.967817 -1.53307 0
M  V30 15274 C 1446.64 -2.31998 -2.7606 0
M  V30 15275 O 1445.74 -1.76361 -3.72787 0
M  V30 15276 H 1445.08 -0.483614 -0.454988 0
M  V30 15277 H 1447.61 -1.84682 -0.880549 0
M  V30 15278 H 1447.62 -2.47204 -3.24583 0
M  V30 15279 H 1446.3 -3.33614 -2.48343 0
M  V30 15280 H 1444.87 -1.70504 -3.31636 0
M  V30 15281 N 1447.06 0.947303 -1.25952 0
M  V30 15282 C 1448.31 1.69583 -1.12308 0
M  V30 15283 C 1448.66 1.89526 0.331301 0
M  V30 15284 O 1447.95 1.46042 1.24026 0
M  V30 15285 C 1448.15 3.07652 -1.81892 0
M  V30 15286 C 1447.98 3.0118 -3.33947 0
M  V30 15287 C 1446.75 3.04533 -4.03222 0
M  V30 15288 C 1448.94 2.81785 -4.30234 0
M  V30 15289 N 1446.93 2.88296 -5.41995 0
M  V30 15290 C 1448.3 2.74054 -5.56142 0
M  V30 15291 C 1450.35 2.66522 -4.2056 0
M  V30 15292 C 1449.06 2.52618 -6.73481 0
M  V30 15293 C 1451.08 2.46458 -5.37599 0
M  V30 15294 C 1450.44 2.39454 -6.62451 0
M  V30 15295 H 1446.54 0.628198 -0.465716 0
M  V30 15296 H 1449.13 1.12151 -1.59155 0
M  V30 15297 H 1447.3 3.63236 -1.3753 0
M  V30 15298 H 1449.03 3.71329 -1.60925 0
M  V30 15299 H 1445.78 3.14009 -3.54536 0
M  V30 15300 H 1446.21 2.83361 -6.14846 0
M  V30 15301 H 1450.85 2.70707 -3.24773 0
M  V30 15302 H 1448.57 2.47174 -7.6937 0
M  V30 15303 H 1452.15 2.35562 -5.31979 0
M  V30 15304 H 1451.03 2.24133 -7.51488 0
M  V30 15305 N 1448.54 1.07657 1.15099 0
M  V30 15306 C 1449.47 0.721201 2.22083 0
M  V30 15307 C 1450.45 -0.292808 1.67561 0
M  V30 15308 O 1451.63 -0.164872 1.93499 0
M  V30 15309 C 1448.76 0.12153 3.47087 0
M  V30 15310 C 1447.72 1.06303 4.14588 0
M  V30 15311 C 1447.04 0.325964 5.33706 0
M  V30 15312 C 1448.34 2.39796 4.63999 0
M  V30 15313 H 1450.04 1.61566 2.52065 0
M  V30 15314 H 1447.58 0.778282 1.21156 0
M  V30 15315 H 1449.54 -0.139037 4.21171 0
M  V30 15316 H 1448.26 -0.808022 3.16447 0
M  V30 15317 H 1446.92 1.30858 3.4245 0
M  V30 15318 H 1446.57 -0.607147 4.99322 0
M  V30 15319 H 1446.27 0.953552 5.79811 0
M  V30 15320 H 1447.79 0.0732695 6.10556 0
M  V30 15321 H 1449.21 2.19552 5.29594 0
M  V30 15322 H 1447.6 2.98178 5.20778 0
M  V30 15323 H 1448.67 3.01876 3.79472 0
M  V30 15324 N 1450.02 -1.31994 0.861122 0
M  V30 15325 C 1450.95 -2.31214 0.325963 0
M  V30 15326 C 1451.93 -1.59965 -0.578383 0
M  V30 15327 O 1453.11 -1.87726 -0.497268 0
M  V30 15328 C 1450.24 -3.43953 -0.481001 0
M  V30 15329 C 1449.2 -4.2673 0.329474 0
M  V30 15330 C 1448.52 -5.31293 -0.602627 0
M  V30 15331 C 1449.82 -4.98498 1.55874 0
M  V30 15332 H 1451.52 -2.76223 1.15503 0
M  V30 15333 H 1449.06 -1.32797 0.556856 0
M  V30 15334 H 1451.02 -4.12409 -0.86585 0
M  V30 15335 H 1449.74 -2.97687 -1.3435 0
M  V30 15336 H 1448.4 -3.59929 0.696159 0
M  V30 15337 H 1448.05 -4.8128 -1.46215 0
M  V30 15338 H 1447.75 -5.87565 -0.0643044 0
M  V30 15339 H 1449.27 -6.02611 -0.984512 0
M  V30 15340 H 1450.68 -5.596 1.24583 0
M  V30 15341 H 1449.08 -5.64525 2.03548 0
M  V30 15342 H 1450.15 -4.25991 2.31646 0
M  V30 15343 N 1451.49 -0.619688 -1.44906 0
M  V30 15344 C 1452.44 0.104373 -2.32366 0
M  V30 15345 C 1453.44 0.847423 -1.4668 0
M  V30 15346 O 1454.64 0.761618 -1.63093 0
M  V30 15347 H 1451.02 0.0525126 -0.750164 0
M  V30 15348 H 1452.99 -0.651525 -2.912 0
M  V30 15349 C 1451.74 1.08017 -3.30496 0
M  V30 15350 H 1451.06 0.517831 -3.96432 0
M  V30 15351 H 1452.5 1.5565 -3.94397 0
M  V30 15352 C 1450.96 2.15975 -2.58566 0
M  V30 15353 O 1451.49 3.23895 -2.37603 0
M  V30 15354 N 1449.7 1.91593 -2.18496 0
M  V30 15355 H 1449.24 1.03835 -2.35746 0
M  V30 15356 H 1449.2 2.64028 -1.70694 0
M  V30 15357 N 1452.97 1.53444 -0.359552 0
M  V30 15358 C 1453.92 2.22312 0.506084 0
M  V30 15359 C 1454.91 1.21618 1.05347 0
M  V30 15360 O 1456.1 1.47093 0.984511 0
M  V30 15361 C 1453.23 3.01137 1.64837 0
M  V30 15362 C 1452.31 4.09203 1.11416 0
M  V30 15363 N 1452.7 5.04895 0.302445 0
M  V30 15364 C 1451 4.23801 1.38954 0
M  V30 15365 C 1451.7 5.81699 0.0106517 0
M  V30 15366 N 1450.68 5.40204 0.606648 0
M  V30 15367 H 1454.48 2.93651 -0.120961 0
M  V30 15368 H 1452 1.61536 -0.167249 0
M  V30 15369 H 1453.99 3.48988 2.28063 0
M  V30 15370 H 1452.65 2.31328 2.27854 0
M  V30 15371 H 1453.66 5.17868 -0.0578423 0
M  V30 15372 H 1450.34 3.65217 2.02293 0
M  V30 15373 H 1451.73 6.68795 -0.645163 0
M  V30 15374 N 1454.45 0.0885642 1.57351 0
M  V30 15375 C 1455.73 -0.618587 1.85561 0
M  V30 15376 C 1456.11 -1.86753 0.984206 0
M  V30 15377 O 1455.46 -2.28434 0.0548839 0
M  V30 15378 C 1455.67 -0.940222 3.36096 0
M  V30 15379 C 1457.01 -1.30649 4.04 0
M  V30 15380 O 1458.04 -1.03144 3.4094 0
M  V30 15381 O 1456.9 -1.82135 5.15256 0
M  V30 15382 H 1453.99 -0.308881 0.767152 0
M  V30 15383 H 1456.54 0.120767 1.6927 0
M  V30 15384 H 1455.31 -0.0538991 3.91263 0
M  V30 15385 H 1454.93 -1.73577 3.5771 0
M  V30 15386 N 1455.93 -1.56509 -0.185096 0
M  V30 15387 C 1457.34 -1.71024 -0.748856 0
M  V30 15388 C 1457.69 -0.69681 -1.83409 0
M  V30 15389 O 1456.82 0.144711 -2.15916 0
M  V30 15390 C 1457.41 -3.1008 -1.36513 0
M  V30 15391 C 1455.97 -3.26325 -1.87587 0
M  V30 15392 C 1455.12 -2.66977 -0.749579 0
M  V30 15393 H 1458.07 -1.58649 0.0401175 0
M  V30 15394 H 1458.09 -3.07965 -2.23468 0
M  V30 15395 H 1457.6 -3.83816 -0.575051 0
M  V30 15396 H 1455.7 -2.57522 -2.69283 0
M  V30 15397 H 1455.81 -4.33931 -2.03078 0
M  V30 15398 H 1454.18 -2.26419 -1.16647 0
M  V30 15399 H 1454.96 -3.43288 0.0284301 0
M  V30 15400 N 1457.41 0.45317 -1.50944 0
M  V30 15401 C 1458.37 1.5313 -1.7054 0
M  V30 15402 C 1459.37 1.50142 -0.575678 0
M  V30 15403 O 1460.56 1.52444 -0.842997 0
M  V30 15404 C 1457.69 2.92719 -1.74723 0
M  V30 15405 H 1458.88 1.37066 -2.66745 0
M  V30 15406 H 1456.44 0.680783 -1.40695 0
M  V30 15407 H 1457.17 3.14208 -0.802753 0
M  V30 15408 H 1456.96 2.96295 -2.56811 0
M  V30 15409 H 1458.45 3.7096 -1.91777 0
M  V30 15410 N 1458.88 1.40823 0.707568 0
M  V30 15411 C 1459.83 1.41724 1.82162 0
M  V30 15412 C 1460.8 0.273135 1.63839 0
M  V30 15413 O 1461.99 0.472399 1.84859 0
M  V30 15414 C 1459.13 1.29347 3.19943 0
M  V30 15415 C 1458.24 2.53529 3.49782 0
M  V30 15416 C 1457.37 2.33533 4.77112 0
M  V30 15417 C 1456.41 3.53252 4.9988 0
M  V30 15418 N 1455.55 3.32401 6.18429 0
M  V30 15419 H 1460.39 2.36943 1.80726 0
M  V30 15420 H 1457.93 1.17671 0.882723 0
M  V30 15421 H 1459.89 1.20175 3.99517 0
M  V30 15422 H 1458.52 0.377426 3.20586 0
M  V30 15423 H 1457.57 2.73198 2.64702 0
M  V30 15424 H 1458.88 3.42617 3.62512 0
M  V30 15425 H 1458.03 2.2176 5.64719 0
M  V30 15426 H 1456.77 1.41883 4.66605 0
M  V30 15427 H 1455.78 3.65492 4.10725 0
M  V30 15428 H 1457 4.4584 5.12253 0
M  V30 15429 H 1454.95 2.4344 6.09158 0
M  V30 15430 H 1454.87 4.15059 6.31872 0
M  V30 15431 H 1456.13 3.24377 7.08802 0
M  V30 15432 N 1460.36 -0.94061 1.26453 0
M  V30 15433 C 1461.78 -1.21424 1.03578 0
M  V30 15434 C 1461.98 -2.00081 -0.238726 0
M  V30 15435 O 1461.03 -2.3404 -0.947709 0
M  V30 15436 C 1462.35 -1.97496 2.26751 0
M  V30 15437 C 1463.9 -2.10485 2.31657 0
M  V30 15438 C 1464.37 -2.89959 3.54525 0
M  V30 15439 N 1465.86 -2.97533 3.55005 0
M  V30 15440 C 1466.6 -3.59456 4.46742 0
M  V30 15441 N 1466.09 -4.22876 5.48769 0
M  V30 15442 N 1467.89 -3.56734 4.34393 0
M  V30 15443 H 1460.04 -0.414788 2.08311 0
M  V30 15444 H 1462.3 -0.246047 0.915513 0
M  V30 15445 H 1462.01 -1.47109 3.19456 0
M  V30 15446 H 1461.88 -2.98159 2.31043 0
M  V30 15447 H 1464.27 -2.60064 1.39466 0
M  V30 15448 H 1464.35 -1.09082 2.31376 0
M  V30 15449 H 1463.99 -2.41067 4.47045 0
M  V30 15450 H 1463.92 -3.91619 3.52054 0
M  V30 15451 H 1466.41 -2.52446 2.81211 0
M  V30 15452 H 1466.73 -4.68026 6.14956 0
M  V30 15453 H 1465.07 -4.21461 5.52626 0
M  V30 15454 H 1468.26 -3.06381 3.53904 0
M  V30 15455 H 1468.43 -4.04706 5.0608 0
M  V30 15456 N 1461.84 -1.08266 -1.14527 0
M  V30 15457 C 1463.25 -0.832702 -1.67102 0
M  V30 15458 C 1463.6 0.640776 -1.85441 0
M  V30 15459 O 1462.73 1.49505 -1.56452 0
M  V30 15460 C 1463.32 -1.50502 -3.03537 0
M  V30 15461 C 1461.88 -1.30234 -3.53152 0
M  V30 15462 C 1461.03 -1.56873 -2.28661 0
M  V30 15463 H 1463.98 -1.24344 -0.986118 0
M  V30 15464 H 1464 -0.931426 -3.68924 0
M  V30 15465 H 1463.51 -2.57741 -2.90157 0
M  V30 15466 H 1461.61 -0.250582 -3.71756 0
M  V30 15467 H 1461.73 -2.02898 -4.34015 0
M  V30 15468 H 1460.09 -0.990214 -2.34663 0
M  V30 15469 H 1460.87 -2.65316 -2.17859 0
M  V30 15470 N 1463.32 1.31536 -0.86811 0
M  V30 15471 C 1464.55 2.00952 -0.492529 0
M  V30 15472 C 1464.96 1.65174 0.914487 0
M  V30 15473 O 1464.32 0.880002 1.59882 0
M  V30 15474 C 1464.37 3.55829 -0.637798 0
M  V30 15475 O 1464.09 3.90326 -1.9894 0
M  V30 15476 C 1465.59 4.42519 -0.262986 0
M  V30 15477 H 1462.81 0.642913 -0.192105 0
M  V30 15478 H 1465.36 1.6781 -1.16876 0
M  V30 15479 H 1463.51 3.87399 -0.0091406 0
M  V30 15480 H 1463.93 4.85043 -1.99583 0
M  V30 15481 H 1465.4 5.50433 -0.415591 0
M  V30 15482 H 1465.88 4.31895 0.797705 0
M  V30 15483 H 1466.48 4.16363 -0.867268 0
M  V30 15484 N 1464.8 0.627364 1.44575 0
M  V30 15485 C 1465.76 -0.0700881 2.29093 0
M  V30 15486 C 1466.76 -0.775969 1.40838 0
M  V30 15487 O 1467.95 -0.621129 1.6275 0
M  V30 15488 C 1465.08 -1.10977 3.2233 0
M  V30 15489 H 1466.28 0.673234 2.92246 0
M  V30 15490 H 1463.83 0.387322 1.51425 0
M  V30 15491 H 1464.56 -1.8832 2.64019 0
M  V30 15492 H 1464.35 -0.607587 3.87364 0
M  V30 15493 H 1465.84 -1.59764 3.8583 0
M  V30 15494 N 1466.28 -1.53251 0.367684 0
M  V30 15495 C 1467.5 -2.05705 -0.222047 0
M  V30 15496 C 1467.92 -1.24104 -1.4228 0
M  V30 15497 O 1467.28 -0.282228 -1.80305 0
M  V30 15498 C 1467.33 -3.56257 -0.613475 0
M  V30 15499 O 1467.05 -4.34765 0.539558 0
M  V30 15500 C 1468.55 -4.24976 -1.26137 0
M  V30 15501 H 1465.77 -0.66989 -0.0385799 0
M  V30 15502 H 1468.31 -1.97602 0.526663 0
M  V30 15503 H 1466.47 -3.64503 -1.3121 0
M  V30 15504 H 1466.88 -5.24027 0.222699 0
M  V30 15505 H 1468.36 -5.31628 -1.4858 0
M  V30 15506 H 1468.83 -3.78828 -2.2223 0
M  V30 15507 H 1469.44 -4.20987 -0.604121 0
M  V30 15508 N 1467.75 -0.0969077 -1.57302 0
M  V30 15509 C 1468.66 0.875561 -2.17649 0
M  V30 15510 C 1469.68 1.30892 -1.14645 0
M  V30 15511 O 1470.86 1.37646 -1.47022 0
M  V30 15512 C 1467.92 2.116 -2.74639 0
M  V30 15513 C 1466.98 1.73667 -3.92604 0
M  V30 15514 C 1466.21 2.91798 -4.46867 0
M  V30 15515 O 1466.44 4.06577 -4.00064 0
M  V30 15516 O 1465.37 2.70159 -5.37864 0
M  V30 15517 H 1469.2 0.392107 -3.01158 0
M  V30 15518 H 1466.78 0.127539 -1.48855 0
M  V30 15519 H 1468.66 2.84292 -3.11057 0
M  V30 15520 H 1467.34 2.58994 -1.94174 0
M  V30 15521 H 1466.25 0.981505 -3.60995 0
M  V30 15522 H 1467.58 1.31035 -4.74437 0
M  V30 15523 N 1469.23 1.56605 0.176793 0
M  V30 15524 C 1470.16 1.99014 1.2213 0
M  V30 15525 C 1471.14 0.86487 1.46472 0
M  V30 15526 O 1472.33 1.13055 1.57899 0
M  V30 15527 C 1469.46 2.34534 2.56146 0
M  V30 15528 C 1468.41 3.4997 2.46384 0
M  V30 15529 C 1467.74 3.71217 3.8484 0
M  V30 15530 C 1469.04 4.83592 1.97323 0
M  V30 15531 H 1470.73 2.86517 0.8688 0
M  V30 15532 H 1468.28 1.37846 0.416481 0
M  V30 15533 H 1470.23 2.62799 3.29416 0
M  V30 15534 H 1468.95 1.43933 2.93174 0
M  V30 15535 H 1467.61 3.21824 1.75569 0
M  V30 15536 H 1467.26 2.77916 4.19251 0
M  V30 15537 H 1466.96 4.48885 3.79178 0
M  V30 15538 H 1468.49 4.01877 4.59704 0
M  V30 15539 H 1469.9 5.10768 2.60363 0
M  V30 15540 H 1468.3 5.64858 2.02622 0
M  V30 15541 H 1469.37 4.75951 0.927275 0
M  V30 15542 N 1470.71 -0.445159 1.51182 0
M  V30 15543 C 1471.64 -1.5473 1.74874 0
M  V30 15544 C 1472.62 -1.5923 0.598323 0
M  V30 15545 O 1473.81 -1.75083 0.840219 0
M  V30 15546 C 1470.94 -2.92872 1.86664 0
M  V30 15547 C 1469.89 -3.03235 3.02048 0
M  V30 15548 C 1469.22 -4.43279 2.99012 0
M  V30 15549 C 1470.52 -2.7804 4.42144 0
M  V30 15550 H 1472.21 -1.35156 2.67158 0
M  V30 15551 H 1469.76 -0.648763 1.28558 0
M  V30 15552 H 1471.71 -3.69927 2.01822 0
M  V30 15553 H 1470.43 -3.1366 0.910225 0
M  V30 15554 H 1469.09 -2.28617 2.86583 0
M  V30 15555 H 1468.74 -4.61023 2.01163 0
M  V30 15556 H 1468.44 -4.51144 3.76488 0
M  V30 15557 H 1469.96 -5.22319 3.16252 0
M  V30 15558 H 1471.38 -3.44831 4.58 0
M  V30 15559 H 1469.77 -2.97323 5.21267 0
M  V30 15560 H 1470.84 -1.737 4.52721 0
M  V30 15561 N 1472.19 -1.41197 -0.700089 0
M  V30 15562 C 1473.13 -1.42688 -1.81407 0
M  V30 15563 C 1474.1 -0.28182 -1.63692 0
M  V30 15564 O 1475.29 -0.482196 -1.84606 0
M  V30 15565 C 1472.43 -1.31041 -3.19252 0
M  V30 15566 C 1471.54 -2.5538 -3.48432 0
M  V30 15567 C 1470.68 -2.3606 -4.75867 0
M  V30 15568 C 1469.72 -3.55898 -4.97999 0
M  V30 15569 N 1468.85 -3.35676 -6.16657 0
M  V30 15570 H 1473.69 -2.37898 -1.79467 0
M  V30 15571 H 1471.23 -1.18137 -0.87647 0
M  V30 15572 H 1473.19 -1.22292 -3.98874 0
M  V30 15573 H 1471.82 -0.394422 -3.20381 0
M  V30 15574 H 1470.87 -2.74598 -2.6325 0
M  V30 15575 H 1472.18 -3.44535 -3.6069 0
M  V30 15576 H 1471.34 -2.24752 -5.63535 0
M  V30 15577 H 1470.08 -1.44355 -4.65846 0
M  V30 15578 H 1469.08 -3.67665 -4.08781 0
M  V30 15579 H 1470.31 -4.4855 -5.09882 0
M  V30 15580 H 1468.25 -2.46667 -6.07858 0
M  V30 15581 H 1468.17 -4.18404 -6.29662 0
M  V30 15582 H 1469.44 -3.28132 -7.07071 0
M  V30 15583 N 1473.67 0.933891 -1.2695 0
M  V30 15584 C 1474.89 1.72042 -1.15828 0
M  V30 15585 C 1475.32 1.85975 0.28193 0
M  V30 15586 O 1474.67 1.35528 1.20423 0
M  V30 15587 C 1474.72 3.10112 -1.84019 0
M  V30 15588 O 1473.83 3.96504 -1.13394 0
M  V30 15589 H 1473.17 0.527573 -0.40319 0
M  V30 15590 H 1475.7 1.16914 -1.67905 0
M  V30 15591 H 1475.71 3.60461 -1.91133 0
M  V30 15592 H 1474.38 2.99287 -2.8879 0
M  V30 15593 H 1472.96 3.54948 -1.14307 0
M  V30 15594 N 1475.14 1.08871 1.13951 0
M  V30 15595 C 1476.05 0.734869 2.22793 0
M  V30 15596 C 1477.07 -0.260699 1.72036 0
M  V30 15597 O 1478.25 -0.103461 2.01134 0
M  V30 15598 C 1475.31 0.154599 3.46355 0
M  V30 15599 C 1474.37 1.20539 4.1203 0
M  V30 15600 C 1473.6 0.652712 5.29694 0
M  V30 15601 O 1473.83 -0.526264 5.67967 0
M  V30 15602 O 1472.76 1.40503 5.85271 0
M  V30 15603 H 1476.59 1.64297 2.55422 0
M  V30 15604 H 1474.17 0.862716 1.21974 0
M  V30 15605 H 1476.05 -0.165962 4.21073 0
M  V30 15606 H 1474.73 -0.726592 3.1544 0
M  V30 15607 H 1473.64 1.57855 3.39164 0
M  V30 15608 H 1474.97 2.05902 4.47063 0
M  V30 15609 N 1476.62 -1.31073 0.875073 0
M  V30 15610 C 1477.55 -2.30855 0.350468 0
M  V30 15611 C 1478.53 -1.60569 -0.561384 0
M  V30 15612 O 1479.72 -1.88242 -0.477329 0
M  V30 15613 C 1476.85 -3.44444 -0.444493 0
M  V30 15614 C 1475.8 -4.26357 0.374716 0
M  V30 15615 C 1475.13 -5.31903 -0.546243 0
M  V30 15616 C 1476.43 -4.96817 1.61153 0
M  V30 15617 H 1478.12 -2.74983 1.18427 0
M  V30 15618 H 1475.67 -1.32199 0.570909 0
M  V30 15619 H 1477.62 -4.13304 -0.82206 0
M  V30 15620 H 1476.34 -2.99096 -1.31185 0
M  V30 15621 H 1475 -3.59171 0.734295 0
M  V30 15622 H 1474.65 -4.82803 -1.41102 0
M  V30 15623 H 1474.35 -5.876 -0.00198173 0
M  V30 15624 H 1475.88 -6.03621 -0.920542 0
M  V30 15625 H 1477.29 -5.58247 1.30511 0
M  V30 15626 H 1475.69 -5.62334 2.09524 0
M  V30 15627 H 1476.76 -4.2351 2.36151 0
M  V30 15628 N 1478.1 -0.635022 -1.4424 0
M  V30 15629 C 1479.03 0.0543561 -2.33437 0
M  V30 15630 C 1480.01 0.830807 -1.48431 0
M  V30 15631 O 1481.2 0.795913 -1.77141 0
M  V30 15632 C 1478.33 1.03391 -3.31553 0
M  V30 15633 C 1477.28 0.368824 -4.26408 0
M  V30 15634 C 1476.61 1.45855 -5.14422 0
M  V30 15635 C 1477.91 -0.727381 -5.1721 0
M  V30 15636 H 1479.6 -0.690489 -2.91329 0
M  V30 15637 H 1477.15 -0.3335 -1.40085 0
M  V30 15638 H 1479.1 1.52495 -3.9284 0
M  V30 15639 H 1477.82 1.80969 -2.71878 0
M  V30 15640 H 1476.48 -0.101605 -3.66459 0
M  V30 15641 H 1476.13 2.22531 -4.51098 0
M  V30 15642 H 1475.83 1.0189 -5.78699 0
M  V30 15643 H 1477.35 1.95132 -5.78581 0
M  V30 15644 H 1478.77 -0.319272 -5.7241 0
M  V30 15645 H 1477.17 -1.09041 -5.9011 0
M  V30 15646 H 1478.24 -1.59292 -4.57989 0
M  V30 15647 N 1479.58 1.53054 -0.375806 0
M  V30 15648 C 1480.99 1.86426 0.101188 0
M  V30 15649 C 1481.34 1.29603 1.47301 0
M  V30 15650 O 1480.47 0.622059 2.07266 0
M  V30 15651 C 1481.06 3.38265 0.190389 0
M  V30 15652 C 1479.62 3.71397 0.611653 0
M  V30 15653 C 1478.77 2.76304 -0.234801 0
M  V30 15654 H 1481.72 1.47156 -0.594211 0
M  V30 15655 H 1481.74 3.66793 1.01207 0
M  V30 15656 H 1481.25 3.79592 -0.80818 0
M  V30 15657 H 1479.35 3.35632 1.61808 0
M  V30 15658 H 1479.46 4.77597 0.379168 0
M  V30 15659 H 1477.83 2.52952 0.297888 0
M  V30 15660 H 1478.61 3.20467 -1.2311 0
M  V30 15661 N 1481.06 0.105248 1.57248 0
M  V30 15662 C 1482.47 -0.422304 1.81861 0
M  V30 15663 C 1482.82 -1.67508 1.02154 0
M  V30 15664 O 1481.94 -2.14905 0.253961 0
M  V30 15665 C 1482.54 -0.772943 3.29865 0
M  V30 15666 C 1481.1 -1.24519 3.55207 0
M  V30 15667 C 1480.24 -0.246936 2.76198 0
M  V30 15668 H 1483.2 0.330565 1.55219 0
M  V30 15669 H 1483.22 -1.6316 3.43743 0
M  V30 15670 H 1482.73 0.139033 3.87851 0
M  V30 15671 H 1480.83 -2.17453 3.02564 0
M  V30 15672 H 1480.94 -1.20001 4.63828 0
M  V30 15673 H 1479.31 -0.731171 2.43979 0
M  V30 15674 H 1480.09 0.657896 3.36937 0
M  V30 15675 N 1482.53 -1.56697 -0.168486 0
M  V30 15676 C 1483.95 -1.71808 -0.730674 0
M  V30 15677 C 1484.3 -0.716224 -1.8266 0
M  V30 15678 O 1483.42 0.121803 -2.16057 0
M  V30 15679 C 1484.02 -3.1151 -1.33217 0
M  V30 15680 C 1482.58 -3.28297 -1.84115 0
M  V30 15681 C 1481.72 -2.67757 -0.72122 0
M  V30 15682 H 1484.67 -1.58598 0.0569421 0
M  V30 15683 H 1484.69 -3.10318 -2.20189 0
M  V30 15684 H 1484.21 -3.84404 -0.53431 0
M  V30 15685 H 1482.31 -2.60364 -2.66536 0
M  V30 15686 H 1482.42 -4.3606 -1.98464 0
M  V30 15687 H 1480.78 -2.27644 -1.14239 0
M  V30 15688 H 1481.57 -3.43239 0.0648388 0
M  V30 15689 N 1484.01 0.437135 -1.51416 0
M  V30 15690 C 1484.94 1.54894 -1.68939 0
M  V30 15691 C 1485.96 1.52493 -0.570059 0
M  V30 15692 O 1487.15 1.57266 -0.844381 0
M  V30 15693 C 1484.25 2.9381 -1.68904 0
M  V30 15694 C 1483.42 3.20714 -2.97425 0
M  V30 15695 C 1482.48 4.39355 -2.89575 0
M  V30 15696 O 1481.5 4.37999 -3.63519 0
M  V30 15697 N 1482.71 5.42931 -2.05441 0
M  V30 15698 H 1485.47 1.40267 -2.64849 0
M  V30 15699 H 1483.03 0.626075 -1.49305 0
M  V30 15700 H 1485.02 3.71201 -1.61221 0
M  V30 15701 H 1483.59 3.02034 -0.805871 0
M  V30 15702 H 1482.81 2.31621 -3.18975 0
M  V30 15703 H 1484.1 3.35516 -3.825 0
M  V30 15704 H 1483.5 5.4687 -1.44742 0
M  V30 15705 H 1482.06 6.19173 -2.03636 0
M  V30 15706 N 1485.49 1.41566 0.692592 0
M  V30 15707 C 1486.42 1.38067 1.81694 0
M  V30 15708 C 1487.4 0.247482 1.60706 0
M  V30 15709 O 1488.59 0.43487 1.83415 0
M  V30 15710 C 1485.71 1.15438 3.18421 0
M  V30 15711 C 1484.76 2.31515 3.58194 0
M  V30 15712 S 1485.59 3.94003 3.6266 0
M  V30 15713 C 1486.75 3.73683 5.02108 0
M  V30 15714 H 1486.98 2.33215 1.84386 0
M  V30 15715 H 1484.51 1.28125 0.861585 0
M  V30 15716 H 1486.47 1.03069 3.9735 0
M  V30 15717 H 1485.13 0.219055 3.13335 0
M  V30 15718 H 1484.33 2.11383 4.57529 0
M  V30 15719 H 1483.93 2.40307 2.86581 0
M  V30 15720 H 1486.22 3.33573 5.89691 0
M  V30 15721 H 1487.16 4.72631 5.27281 0
M  V30 15722 H 1487.57 3.06899 4.73786 0
M  V30 15723 N 1486.97 -0.927146 1.27443 0
M  V30 15724 C 1487.88 -2.06122 1.12031 0
M  V30 15725 C 1488.89 -1.73928 0.0501979 0
M  V30 15726 O 1490.07 -1.99756 0.256796 0
M  V30 15727 C 1487.14 -3.3805 0.769634 0
M  V30 15728 C 1486.2 -3.83938 1.92068 0
M  V30 15729 C 1485.43 -5.0957 1.58664 0
M  V30 15730 O 1485.65 -5.6825 0.494789 0
M  V30 15731 O 1484.59 -5.50844 2.42599 0
M  V30 15732 H 1488.41 -2.22037 2.07203 0
M  V30 15733 H 1486 -1.04638 1.06636 0
M  V30 15734 H 1487.88 -4.17286 0.587423 0
M  V30 15735 H 1486.55 -3.2334 -0.152557 0
M  V30 15736 H 1485.46 -3.05587 2.15795 0
M  V30 15737 H 1486.79 -4.0319 2.8231 0
M  V30 15738 N 1488.45 -1.09474 -1.13372 0
M  V30 15739 C 1489.36 -0.746674 -2.224 0
M  V30 15740 C 1490.37 0.251572 -1.72172 0
M  V30 15741 O 1491.55 0.092793 -2.01186 0
M  V30 15742 C 1488.61 -0.172965 -3.46268 0
M  V30 15743 C 1487.67 -1.22722 -4.11385 0
M  V30 15744 C 1486.91 -0.680794 -5.2934 0
M  V30 15745 O 1487.13 0.496135 -5.68238 0
M  V30 15746 O 1486.06 -1.43605 -5.84518 0
M  V30 15747 H 1489.89 -1.65649 -2.54547 0
M  V30 15748 H 1487.48 -0.869172 -1.21514 0
M  V30 15749 H 1489.36 0.143629 -4.21155 0
M  V30 15750 H 1488.03 0.709853 -3.15821 0
M  V30 15751 H 1486.94 -1.59652 -3.38323 0
M  V30 15752 H 1488.27 -2.0827 -4.45965 0
M  V30 15753 N 1489.92 1.30607 -0.882012 0
M  V30 15754 C 1491.15 2.00954 -0.513048 0
M  V30 15755 C 1491.57 1.65697 0.890279 0
M  V30 15756 O 1490.93 0.872001 1.58952 0
M  V30 15757 C 1490.98 3.53907 -0.691525 0
M  V30 15758 O 1490.08 4.11555 0.263896 0
M  V30 15759 H 1489.43 0.632356 -0.202537 0
M  V30 15760 H 1491.96 1.66524 -1.18874 0
M  V30 15761 H 1491.97 4.0372 -0.589392 0
M  V30 15762 H 1490.64 3.78907 -1.71471 0
M  V30 15763 H 1489.22 3.7272 0.115707 0
M  V30 15764 N 1491.4 0.642663 1.43901 0
M  V30 15765 C 1492.31 -0.0562462 2.34533 0
M  V30 15766 C 1493.33 -0.823457 1.53281 0
M  V30 15767 O 1494.5 -0.773103 1.85971 0
M  V30 15768 C 1491.57 -1.01787 3.31422 0
M  V30 15769 C 1490.63 -0.248759 4.28579 0
M  V30 15770 C 1489.86 -1.16458 5.20839 0
M  V30 15771 O 1490.09 -2.40361 5.17284 0
M  V30 15772 O 1489.02 -0.642671 5.98459 0
M  V30 15773 H 1492.85 0.689476 2.9577 0
M  V30 15774 H 1490.43 0.402847 1.43866 0
M  V30 15775 H 1492.31 -1.5708 3.91029 0
M  V30 15776 H 1490.99 -1.744 2.72702 0
M  V30 15777 H 1489.9 0.347495 3.72483 0
M  V30 15778 H 1491.23 0.437589 4.90251 0
M  V30 15779 N 1492.88 -1.52852 0.383918 0
M  V30 15780 C 1493.81 -2.29213 -0.44539 0
M  V30 15781 C 1494.79 -1.3238 -1.06815 0
M  V30 15782 O 1495.98 -1.61269 -1.08194 0
M  V30 15783 C 1493.11 -3.09497 -1.57573 0
M  V30 15784 C 1492.06 -4.14168 -1.07928 0
M  V30 15785 C 1491.39 -4.82644 -2.30128 0
M  V30 15786 C 1492.69 -5.22082 -0.151035 0
M  V30 15787 H 1494.38 -2.98786 0.19172 0
M  V30 15788 H 1491.93 -1.43695 0.0936471 0
M  V30 15789 H 1493.88 -3.61672 -2.16267 0
M  V30 15790 H 1492.6 -2.37647 -2.24034 0
M  V30 15791 H 1491.26 -3.62966 -0.514909 0
M  V30 15792 H 1490.91 -4.07348 -2.95087 0
M  V30 15793 H 1490.61 -5.53388 -1.97574 0
M  V30 15794 H 1492.14 -5.37621 -2.89475 0
M  V30 15795 H 1493.55 -5.69649 -0.646003 0
M  V30 15796 H 1491.95 -6.00041 0.0844833 0
M  V30 15797 H 1493.02 -4.78228 0.801618 0
M  V30 15798 N 1494.36 -0.113586 -1.5719 0
M  V30 15799 C 1495.31 0.849646 -2.11577 0
M  V30 15800 C 1496.29 1.23174 -1.03523 0
M  V30 15801 O 1497.49 1.20373 -1.29766 0
M  V30 15802 C 1494.61 2.10175 -2.71443 0
M  V30 15803 C 1493.7 1.74427 -3.8657 0
M  V30 15804 N 1494.09 1.09326 -4.93843 0
M  V30 15805 C 1492.39 2.03919 -3.96652 0
M  V30 15806 C 1493.09 0.925979 -5.74283 0
M  V30 15807 N 1492.07 1.44924 -5.23925 0
M  V30 15808 H 1495.87 0.342685 -2.91895 0
M  V30 15809 H 1493.38 0.0890561 -1.62156 0
M  V30 15810 H 1495.38 2.80144 -3.08747 0
M  V30 15811 H 1494.04 2.6142 -1.92587 0
M  V30 15812 H 1495.05 0.757883 -5.12325 0
M  V30 15813 H 1491.73 2.57249 -3.2883 0
M  V30 15814 H 1493.12 0.415406 -6.70615 0
M  V30 15815 N 1495.84 1.56784 0.160173 0
M  V30 15816 C 1496.75 2.00514 1.21783 0
M  V30 15817 C 1497.76 0.918341 1.47792 0
M  V30 15818 O 1498.94 1.22683 1.59721 0
M  V30 15819 C 1496 2.36575 2.53443 0
M  V30 15820 C 1495.07 3.59138 2.35198 0
M  V30 15821 C 1494.3 3.93469 3.6058 0
M  V30 15822 O 1494.52 3.28625 4.6622 0
M  V30 15823 O 1493.46 4.86774 3.54027 0
M  V30 15824 H 1497.28 2.90774 0.876607 0
M  V30 15825 H 1494.87 1.44799 0.367897 0
M  V30 15826 H 1496.75 2.60687 3.31089 0
M  V30 15827 H 1495.42 1.49474 2.87122 0
M  V30 15828 H 1494.33 3.4023 1.55546 0
M  V30 15829 H 1495.66 4.46815 2.0644 0
M  V30 15830 N 1497.32 -0.429099 1.51646 0
M  V30 15831 C 1498.56 -1.17958 1.64966 0
M  V30 15832 C 1498.89 -1.90667 0.368755 0
M  V30 15833 O 1498.17 -1.83945 -0.632023 0
M  V30 15834 C 1498.45 -2.19002 2.8585 0
M  V30 15835 C 1498.31 -1.50321 4.23938 0
M  V30 15836 C 1499.62 -3.19895 3.0225 0
M  V30 15837 H 1496.74 -0.427474 0.600362 0
M  V30 15838 H 1499.39 -0.46777 1.84152 0
M  V30 15839 H 1497.54 -2.79707 2.69623 0
M  V30 15840 H 1499.21 -0.928902 4.51851 0
M  V30 15841 H 1497.45 -0.805431 4.26257 0
M  V30 15842 H 1498.12 -2.2395 5.0453 0
M  V30 15843 H 1500.6 -2.69251 3.17243 0
M  V30 15844 H 1499.47 -3.8788 3.88381 0
M  V30 15845 H 1499.73 -3.86477 2.14682 0
M  V30 15846 N 1498.79 -1.41931 -0.685074 0
M  V30 15847 C 1499.72 -1.47385 -1.81107 0
M  V30 15848 C 1500.7 -0.331433 -1.6684 0
M  V30 15849 O 1501.89 -0.544331 -1.86415 0
M  V30 15850 C 1499.02 -1.36555 -3.19327 0
M  V30 15851 C 1497.97 -2.48718 -3.48315 0
M  V30 15852 C 1497.3 -2.2295 -4.86002 0
M  V30 15853 C 1498.6 -3.91047 -3.46237 0
M  V30 15854 H 1500.29 -2.41624 -1.768 0
M  V30 15855 H 1497.84 -1.16297 -0.849178 0
M  V30 15856 H 1499.79 -1.38981 -3.97822 0
M  V30 15857 H 1498.52 -0.388063 -3.24286 0
M  V30 15858 H 1497.18 -2.45592 -2.72176 0
M  V30 15859 H 1496.82 -1.23518 -4.87598 0
M  V30 15860 H 1496.52 -2.98116 -5.0636 0
M  V30 15861 H 1498.05 -2.27108 -5.66793 0
M  V30 15862 H 1499.46 -3.95831 -4.14718 0
M  V30 15863 H 1497.86 -4.65981 -3.7813 0
M  V30 15864 H 1498.93 -4.1845 -2.45006 0
M  V30 15865 N 1500.27 0.920374 -1.27933 0
M  V30 15866 C 1501.22 2.00832 -1.07937 0
M  V30 15867 C 1502.21 1.60899 -0.005079 0
M  V30 15868 O 1503.4 1.75571 -0.224461 0
M  V30 15869 C 1500.53 3.35311 -0.736301 0
M  V30 15870 C 1499.61 3.81666 -1.8491 0
M  V30 15871 N 1500 4.00458 -3.08977 0
M  V30 15872 C 1498.3 4.10766 -1.73745 0
M  V30 15873 C 1499 4.39178 -3.81441 0
M  V30 15874 N 1497.98 4.47064 -3.09249 0
M  V30 15875 H 1501.78 2.13402 -2.02081 0
M  V30 15876 H 1499.29 1.10774 -1.18755 0
M  V30 15877 H 1501.29 4.12928 -0.574144 0
M  V30 15878 H 1499.95 3.24099 0.197437 0
M  V30 15879 H 1500.96 3.86562 -3.4466 0
M  V30 15880 H 1497.64 4.08227 -0.875042 0
M  V30 15881 H 1499.03 4.61736 -4.88109 0
M  V30 15882 N 1501.75 1.10074 1.1279 0
M  V30 15883 C 1502.7 0.715508 2.16482 0
M  V30 15884 C 1503.68 -0.273462 1.58559 0
M  V30 15885 O 1504.88 -0.0827829 1.76806 0
M  V30 15886 C 1502 0.144874 3.42994 0
M  V30 15887 C 1501.09 1.16066 4.07909 0
M  V30 15888 N 1501.48 2.35008 4.47889 0
M  V30 15889 C 1499.78 1.00033 4.34637 0
M  V30 15890 C 1500.48 2.99678 4.98566 0
M  V30 15891 N 1499.46 2.2721 4.93839 0
M  V30 15892 H 1503.26 1.62098 2.45156 0
M  V30 15893 H 1500.77 0.97792 1.29655 0
M  V30 15894 H 1502.77 -0.149164 4.16633 0
M  V30 15895 H 1501.43 -0.755369 3.15791 0
M  V30 15896 H 1502.44 2.72557 4.40378 0
M  V30 15897 H 1499.12 0.155328 4.17211 0
M  V30 15898 H 1500.51 4.00831 5.39244 0
M  V30 15899 N 1503.23 -1.30138 0.888926 0
M  V30 15900 C 1504.46 -2.00143 0.524437 0
M  V30 15901 C 1504.87 -1.66608 -0.888093 0
M  V30 15902 O 1504.23 -0.905326 -1.58462 0
M  V30 15903 C 1504.28 -3.54769 0.694327 0
M  V30 15904 O 1504 -3.87112 2.05125 0
M  V30 15905 C 1505.5 -4.42045 0.333354 0
M  V30 15906 H 1502.72 -0.639775 0.202309 0
M  V30 15907 H 1505.26 -1.65929 1.19531 0
M  V30 15908 H 1503.42 -3.87335 0.0707712 0
M  V30 15909 H 1503.83 -4.81807 2.07275 0
M  V30 15910 H 1505.31 -5.49702 0.503107 0
M  V30 15911 H 1505.78 -4.33109 -0.728893 0
M  V30 15912 H 1506.39 -4.14931 0.933398 0
M  V30 15913 N 1504.71 -0.650285 -1.43559 0
M  V30 15914 C 1505.64 0.0295939 -2.33481 0
M  V30 15915 C 1506.62 0.815017 -1.49303 0
M  V30 15916 O 1507.8 0.77708 -1.77975 0
M  V30 15917 C 1504.93 0.998683 -3.32631 0
M  V30 15918 C 1503.89 0.323577 -4.26775 0
M  V30 15919 C 1503.21 1.40391 -5.1594 0
M  V30 15920 C 1504.51 -0.782197 -5.1641 0
M  V30 15921 H 1506.21 -0.721349 -2.9058 0
M  V30 15922 H 1503.75 -0.348339 -1.39723 0
M  V30 15923 H 1505.7 1.4832 -3.94435 0
M  V30 15924 H 1504.43 1.78075 -2.73782 0
M  V30 15925 H 1503.09 -0.140467 -3.66331 0
M  V30 15926 H 1502.74 2.17734 -4.53432 0
M  V30 15927 H 1502.44 0.957462 -5.79747 0
M  V30 15928 H 1503.96 1.88985 -5.80618 0
M  V30 15929 H 1505.37 -0.379966 -5.72039 0
M  V30 15930 H 1503.77 -1.15293 -5.88921 0
M  V30 15931 H 1504.84 -1.6414 -4.56274 0
M  V30 15932 N 1506.18 1.52647 -0.392018 0
M  V30 15933 C 1507.41 2.06032 0.189293 0
M  V30 15934 C 1507.83 1.26351 1.40288 0
M  V30 15935 O 1507.18 0.310877 1.79833 0
M  V30 15936 C 1507.23 3.57187 0.55672 0
M  V30 15937 O 1506.96 4.33851 -0.608657 0
M  V30 15938 C 1508.46 4.26929 1.1936 0
M  V30 15939 H 1505.68 0.670419 0.0279177 0
M  V30 15940 H 1508.22 1.96739 -0.558033 0
M  V30 15941 H 1506.38 3.66545 1.25394 0
M  V30 15942 H 1506.79 5.23606 -0.306039 0
M  V30 15943 H 1508.26 5.33924 1.40104 0
M  V30 15944 H 1508.74 3.82315 2.16175 0
M  V30 15945 H 1509.35 4.21895 0.537069 0
M  V30 15946 N 1507.66 0.121921 1.57128 0
M  V30 15947 C 1508.61 -0.844503 2.16728 0
M  V30 15948 C 1509.6 -1.2733 1.1173 0
M  V30 15949 O 1510.81 -1.2447 1.30028 0
M  V30 15950 H 1507.19 -0.290459 0.693641 0
M  V30 15951 H 1509.16 -0.317379 2.96707 0
M  V30 15952 C 1507.91 -2.08359 2.78356 0
M  V30 15953 H 1507.23 -1.76258 3.5885 0
M  V30 15954 H 1508.67 -2.73978 3.23592 0
M  V30 15955 C 1507.13 -2.87526 1.75586 0
M  V30 15956 O 1507.66 -3.83011 1.21101 0
M  V30 15957 N 1505.86 -2.51575 1.4546 0
M  V30 15958 H 1505.41 -1.73993 1.89958 0
M  V30 15959 H 1505.37 -3.0484 0.769411 0
M  V30 15960 N 1509.14 -1.56867 -0.151857 0
M  V30 15961 C 1510.39 -1.83353 -0.866566 0
M  V30 15962 C 1510.72 -0.702784 -1.81038 0
M  V30 15963 O 1509.99 0.293944 -1.92266 0
M  V30 15964 C 1510.28 -3.20316 -1.64529 0
M  V30 15965 C 1510.13 -4.43946 -0.723297 0
M  V30 15966 C 1511.45 -3.54441 -2.60882 0
M  V30 15967 H 1508.57 -0.666957 -0.313588 0
M  V30 15968 H 1511.21 -1.89541 -0.131954 0
M  V30 15969 H 1509.36 -3.15172 -2.27154 0
M  V30 15970 H 1511.03 -4.61173 -0.10842 0
M  V30 15971 H 1509.28 -4.33788 -0.0325582 0
M  V30 15972 H 1509.95 -5.36374 -1.3041 0
M  V30 15973 H 1512.42 -3.60164 -2.08377 0
M  V30 15974 H 1511.3 -4.51314 -3.12422 0
M  V30 15975 H 1511.56 -2.80146 -3.42009 0
M  V30 15976 N 1510.62 0.421051 -1.51871 0
M  V30 15977 C 1511.9 1.18133 -1.55897 0
M  V30 15978 C 1512.28 2.08459 -0.332876 0
M  V30 15979 O 1511.62 2.18114 0.681052 0
M  V30 15980 C 1511.83 1.96902 -2.88151 0
M  V30 15981 C 1513.18 2.53382 -3.4071 0
M  V30 15982 O 1514.21 2.07095 -2.89811 0
M  V30 15983 O 1513.06 3.37846 -4.29561 0
M  V30 15984 H 1510.16 0.538721 -0.627462 0
M  V30 15985 H 1512.7 0.428798 -1.64193 0
M  V30 15986 H 1511.48 1.30659 -3.68841 0
M  V30 15987 H 1511.1 2.79185 -2.83093 0
M  V30 15988 N 1512.1 1.42293 0.677538 0
M  V30 15989 C 1513.34 1.42334 1.43476 0
M  V30 15990 C 1513.67 0.0397842 1.94959 0
M  V30 15991 O 1512.94 -0.921258 1.72886 0
M  V30 15992 H 1511.52 0.523969 0.532415 0
M  V30 15993 H 1514.18 1.7769 0.800758 0
M  V30 15994 H 1513.27 2.12146 2.28912 0
M  V30 15995 N 1513.57 -0.913576 1.28419 0
M  V30 15996 C 1514.52 -2.01603 1.12361 0
M  V30 15997 C 1515.49 -1.66087 0.0206953 0
M  V30 15998 O 1516.68 -1.89895 0.185659 0
M  V30 15999 C 1513.82 -3.35897 0.791655 0
M  V30 16000 C 1512.93 -3.84281 1.97363 0
M  V30 16001 C 1512.06 -5.07087 1.58228 0
M  V30 16002 C 1511.1 -5.47804 2.73089 0
M  V30 16003 N 1510.24 -6.618 2.34446 0
M  V30 16004 H 1515.08 -2.1467 2.0669 0
M  V30 16005 H 1512.62 -1.05147 1.02871 0
M  V30 16006 H 1514.58 -4.13149 0.579943 0
M  V30 16007 H 1513.21 -3.22596 -0.114699 0
M  V30 16008 H 1512.26 -3.03184 2.29746 0
M  V30 16009 H 1513.57 -4.10417 2.83477 0
M  V30 16010 H 1512.72 -5.91883 1.33264 0
M  V30 16011 H 1511.46 -4.82759 0.692429 0
M  V30 16012 H 1510.47 -4.61549 2.98751 0
M  V30 16013 H 1511.69 -5.74119 3.62717 0
M  V30 16014 H 1509.64 -6.39103 1.4793 0
M  V30 16015 H 1509.56 -6.87663 3.14096 0
M  V30 16016 H 1510.82 -7.49901 2.12766 0
M  V30 16017 N 1515.05 -1.1067 -1.12204 0
M  V30 16018 C 1516.02 -0.761145 -2.16193 0
M  V30 16019 C 1517.02 0.215599 -1.59348 0
M  V30 16020 O 1518.21 -0.00786723 -1.74198 0
M  V30 16021 C 1515.34 -0.127863 -3.4066 0
M  V30 16022 H 1516.53 -1.68225 -2.48275 0
M  V30 16023 H 1514.08 -0.907542 -1.27253 0
M  V30 16024 H 1514.82 0.803851 -3.14179 0
M  V30 16025 H 1514.6 -0.83085 -3.83196 0
M  V30 16026 H 1516.09 0.0980593 -4.17485 0
M  V30 16027 N 1516.53 1.29665 -0.895815 0
M  V30 16028 C 1517.76 1.99572 -0.534267 0
M  V30 16029 C 1518.17 1.67254 0.884455 0
M  V30 16030 O 1517.51 0.911762 1.59476 0
M  V30 16031 C 1517.57 3.53719 -0.642099 0
M  V30 16032 C 1517.24 4.09583 -2.02709 0
M  V30 16033 C 1518.23 4.24769 -2.99779 0
M  V30 16034 C 1515.92 4.44706 -2.33542 0
M  V30 16035 C 1517.91 4.74305 -4.25809 0
M  V30 16036 C 1515.6 4.93939 -3.59815 0
M  V30 16037 C 1516.6 5.08693 -4.55763 0
M  V30 16038 O 1516.29 5.5686 -5.79795 0
M  V30 16039 H 1516.02 0.644481 -0.204012 0
M  V30 16040 H 1518.57 1.66262 -1.20607 0
M  V30 16041 H 1516.8 3.86603 0.0867197 0
M  V30 16042 H 1518.49 4.04861 -0.290265 0
M  V30 16043 H 1519.26 3.97925 -2.77273 0
M  V30 16044 H 1515.14 4.32483 -1.59622 0
M  V30 16045 H 1518.68 4.85736 -5.00706 0
M  V30 16046 H 1514.58 5.2022 -3.82154 0
M  V30 16047 H 1515.35 5.75182 -5.82329 0
M  V30 16048 N 1518.01 0.657889 1.43212 0
M  V30 16049 C 1519.42 0.325876 1.56238 0
M  V30 16050 C 1519.62 -1.16975 1.6407 0
M  V30 16051 O 1518.68 -1.95473 1.59833 0
M  V30 16052 C 1519.99 1.04134 2.82093 0
M  V30 16053 C 1521.54 1.02204 2.95844 0
M  V30 16054 C 1522.02 1.71849 4.24537 0
M  V30 16055 N 1523.51 1.68635 4.31412 0
M  V30 16056 C 1524.24 2.19393 5.29768 0
M  V30 16057 N 1523.74 2.7846 6.34375 0
M  V30 16058 N 1525.53 2.09866 5.21452 0
M  V30 16059 H 1517.68 1.62839 1.36371 0
M  V30 16060 H 1519.95 0.685072 0.655271 0
M  V30 16061 H 1519.65 2.09647 2.82385 0
M  V30 16062 H 1519.53 0.595842 3.72464 0
M  V30 16063 H 1521.91 -0.0247029 2.9509 0
M  V30 16064 H 1521.99 1.50627 2.06749 0
M  V30 16065 H 1521.64 2.76482 4.26052 0
M  V30 16066 H 1521.57 1.20888 5.12536 0
M  V30 16067 H 1524.06 1.25536 3.56439 0
M  V30 16068 H 1524.37 3.14855 7.05752 0
M  V30 16069 H 1522.72 2.82523 6.34985 0
M  V30 16070 H 1525.91 1.63422 4.38647 0
M  V30 16071 H 1526.08 2.49732 5.97945 0
M  V30 16072 N 1519.49 -1.52437 0.400108 0
M  V30 16073 C 1520.71 -2.0613 -0.178364 0
M  V30 16074 C 1521.13 -1.27094 -1.39616 0
M  V30 16075 O 1520.49 -0.320409 -1.79665 0
M  V30 16076 C 1520.54 -3.57478 -0.53777 0
M  V30 16077 O 1520.26 -4.33522 0.631657 0
M  V30 16078 C 1521.76 -4.27556 -1.17094 0
M  V30 16079 H 1518.98 -0.670558 -0.0243619 0
M  V30 16080 H 1521.52 -1.9644 0.568459 0
M  V30 16081 H 1519.68 -3.67205 -1.23449 0
M  V30 16082 H 1520.09 -5.23437 0.333803 0
M  V30 16083 H 1521.57 -5.3466 -1.3727 0
M  V30 16084 H 1522.04 -3.83456 -2.14145 0
M  V30 16085 H 1522.65 -4.22174 -0.514687 0
M  V30 16086 N 1520.96 -0.130252 -1.57061 0
M  V30 16087 C 1521.9 0.853341 -2.11644 0
M  V30 16088 C 1522.88 1.25349 -1.03568 0
M  V30 16089 O 1524.06 1.35256 -1.31294 0
M  V30 16090 C 1521.19 2.14354 -2.6224 0
M  V30 16091 C 1520.23 1.8906 -3.82307 0
M  V30 16092 S 1521.07 1.0967 -5.2415 0
M  V30 16093 C 1522.22 2.39845 -5.78122 0
M  V30 16094 H 1522.45 0.389112 -2.94743 0
M  V30 16095 H 1519.99 0.083734 -1.54173 0
M  V30 16096 H 1521.95 2.8848 -2.92044 0
M  V30 16097 H 1520.61 2.57894 -1.79303 0
M  V30 16098 H 1519.8 2.84687 -4.15896 0
M  V30 16099 H 1519.4 1.23051 -3.53178 0
M  V30 16100 H 1521.69 3.35612 -5.88533 0
M  V30 16101 H 1522.64 2.10785 -6.75999 0
M  V30 16102 H 1523.04 2.49727 -5.06257 0
M  V30 16103 N 1522.44 1.56945 0.143535 0
M  V30 16104 C 1523.38 1.93682 1.20675 0
M  V30 16105 C 1524.35 0.803117 1.41382 0
M  V30 16106 O 1525.54 1.05905 1.55937 0
M  V30 16107 C 1522.67 2.21185 2.56505 0
M  V30 16108 C 1521.71 3.43817 2.52372 0
M  V30 16109 S 1522.54 4.9726 1.98728 0
M  V30 16110 C 1523.7 5.27889 3.3628 0
M  V30 16111 H 1523.93 2.83561 0.893345 0
M  V30 16112 H 1521.47 1.50397 0.349294 0
M  V30 16113 H 1523.42 2.3771 3.3467 0
M  V30 16114 H 1522.09 1.31964 2.85034 0
M  V30 16115 H 1521.28 3.60349 3.5237 0
M  V30 16116 H 1520.88 3.26552 1.82318 0
M  V30 16117 H 1523.17 5.21568 4.32404 0
M  V30 16118 H 1524.12 6.29318 3.24598 0
M  V30 16119 H 1524.52 4.55398 3.33576 0
M  V30 16120 N 1523.92 -0.412991 1.52093 0
M  V30 16121 C 1524.88 -1.48555 1.7454 0
M  V30 16122 C 1525.88 -1.48563 0.615283 0
M  V30 16123 O 1527.07 -1.50155 0.883119 0
M  V30 16124 C 1524.21 -2.87984 1.82423 0
M  V30 16125 H 1525.4 -1.29945 2.70285 0
M  V30 16126 H 1522.95 -0.643241 1.4245 0
M  V30 16127 H 1523.69 -3.11969 0.885777 0
M  V30 16128 H 1523.47 -2.89381 2.64577 0
M  V30 16129 H 1524.96 -3.65745 2.01545 0
M  V30 16130 N 1525.4 -1.4265 -0.669982 0
M  V30 16131 C 1526.33 -1.42457 -1.79551 0
M  V30 16132 C 1527.34 -0.322966 -1.59564 0
M  V30 16133 O 1528.53 -0.586359 -1.68594 0
M  V30 16134 C 1525.63 -1.20561 -3.16731 0
M  V30 16135 C 1524.81 -2.43246 -3.63525 0
M  V30 16136 C 1523.87 -2.16823 -4.79452 0
M  V30 16137 O 1522.89 -2.90058 -4.8975 0
M  V30 16138 N 1524.09 -1.17436 -5.68497 0
M  V30 16139 H 1526.86 -2.39474 -1.80201 0
M  V30 16140 H 1524.42 -1.37591 -0.853244 0
M  V30 16141 H 1526.41 -1.00794 -3.91947 0
M  V30 16142 H 1524.98 -0.320497 -3.10953 0
M  V30 16143 H 1524.2 -2.78549 -2.78934 0
M  V30 16144 H 1525.49 -3.24931 -3.91532 0
M  V30 16145 H 1524.89 -0.568736 -5.62834 0
M  V30 16146 H 1523.44 -1.03655 -6.43505 0
M  V30 16147 N 1526.88 0.906753 -1.28902 0
M  V30 16148 C 1528.13 1.65119 -1.15839 0
M  V30 16149 C 1528.44 1.93426 0.290825 0
M  V30 16150 O 1529.65 2.66021 0.542678 0
M  V30 16151 C 1528.1 2.97492 -2.0255 0
M  V30 16152 C 1527.71 2.76807 -3.52253 0
M  V30 16153 C 1529.45 3.75393 -1.98192 0
M  V30 16154 C 1527.36 4.04863 -4.31091 0
M  V30 16155 H 1526.29 0.619409 -0.429939 0
M  V30 16156 H 1528.94 1.00567 -1.53488 0
M  V30 16157 H 1527.32 3.63217 -1.57763 0
M  V30 16158 H 1528.5 2.19719 -4.05044 0
M  V30 16159 H 1526.81 2.1231 -3.58209 0
M  V30 16160 H 1529.41 4.70325 -2.54358 0
M  V30 16161 H 1529.75 4.05074 -0.960267 0
M  V30 16162 H 1530.29 3.16498 -2.40985 0
M  V30 16163 H 1527.02 3.80353 -5.33865 0
M  V30 16164 H 1526.54 4.61537 -3.83072 0
M  V30 16165 H 1528.22 4.73066 -4.41381 0
M  V30 16166 N 1528.36 1.11264 1.11616 0
M  V30 16167 C 1529.6 0.860364 1.83314 0
M  V30 16168 C 1529.93 -0.614011 1.84554 0
M  V30 16169 O 1529.19 -1.4692 1.29279 0
M  V30 16170 C 1529.48 1.36481 3.30315 0
M  V30 16171 C 1529.15 2.85209 3.49237 0
M  V30 16172 C 1527.81 3.25822 3.54109 0
M  V30 16173 C 1530.16 3.81009 3.55642 0
M  V30 16174 C 1527.49 4.60968 3.62941 0
M  V30 16175 C 1529.84 5.15968 3.66005 0
M  V30 16176 C 1528.51 5.56142 3.69137 0
M  V30 16177 H 1527.78 0.314829 0.670793 0
M  V30 16178 H 1530.43 1.39073 1.31647 0
M  V30 16179 H 1528.73 0.754639 3.84464 0
M  V30 16180 H 1530.43 1.14597 3.84276 0
M  V30 16181 H 1527.02 2.52791 3.46114 0
M  V30 16182 H 1531.2 3.50734 3.5114 0
M  V30 16183 H 1526.46 4.91503 3.63641 0
M  V30 16184 H 1530.63 5.90037 3.69904 0
M  V30 16185 H 1528.26 6.60855 3.75732 0
M  V30 16186 N 1529.83 -1.29188 0.902679 0
M  V30 16187 C 1531.06 -2.00113 0.544953 0
M  V30 16188 C 1531.48 -1.67093 -0.863805 0
M  V30 16189 O 1530.84 -0.897179 -1.57545 0
M  V30 16190 C 1530.89 -3.52762 0.747741 0
M  V30 16191 O 1529.99 -4.11923 -0.198388 0
M  V30 16192 H 1529.33 -0.629054 0.212572 0
M  V30 16193 H 1531.86 -1.64611 1.21508 0
M  V30 16194 H 1531.87 -4.02732 0.653546 0
M  V30 16195 H 1530.55 -3.76131 1.77478 0
M  V30 16196 H 1529.13 -3.72857 -0.0563959 0
M  V30 16197 N 1531.31 -0.665475 -1.42861 0
M  V30 16198 C 1532.24 0.0574495 -2.29128 0
M  V30 16199 C 1533.26 0.774881 -1.43176 0
M  V30 16200 O 1534.45 0.630593 -1.6699 0
M  V30 16201 C 1531.55 1.10481 -3.20386 0
M  V30 16202 C 1530.72 0.463071 -4.34942 0
M  V30 16203 C 1529.78 1.40896 -5.06986 0
M  V30 16204 O 1528.8 0.912839 -5.61833 0
M  V30 16205 N 1530.01 2.74257 -5.11628 0
M  V30 16206 H 1532.77 -0.683051 -2.91812 0
M  V30 16207 H 1530.33 -0.509179 -1.53685 0
M  V30 16208 H 1532.32 1.73866 -3.65449 0
M  V30 16209 H 1530.89 1.74715 -2.59217 0
M  V30 16210 H 1530.11 -0.350109 -3.92642 0
M  V30 16211 H 1531.4 0.0156092 -5.08798 0
M  V30 16212 H 1530.8 3.17112 -4.68462 0
M  V30 16213 H 1529.36 3.32913 -5.60368 0
M  V30 16214 N 1532.79 1.52222 -0.408187 0
M  V30 16215 C 1534.21 1.59491 -0.0590201 0
M  V30 16216 C 1534.41 1.42109 1.42854 0
M  V30 16217 O 1533.46 1.24757 2.19527 0
M  V30 16218 C 1534.77 2.9557 -0.553093 0
M  V30 16219 C 1536.32 3.08801 -0.510986 0
M  V30 16220 C 1536.8 4.47358 -0.981554 0
M  V30 16221 N 1538.29 4.53596 -0.938335 0
M  V30 16222 C 1539.02 5.59076 -1.27364 0
M  V30 16223 N 1538.52 6.72113 -1.68035 0
M  V30 16224 N 1540.31 5.49279 -1.19367 0
M  V30 16225 H 1532.46 1.61768 -1.37641 0
M  V30 16226 H 1534.73 0.760959 -0.565372 0
M  V30 16227 H 1534.43 3.13566 -1.59276 0
M  V30 16228 H 1534.31 3.77181 0.0377629 0
M  V30 16229 H 1536.69 2.90489 0.519637 0
M  V30 16230 H 1536.77 2.29098 -1.13788 0
M  V30 16231 H 1536.42 4.66413 -2.0105 0
M  V30 16232 H 1536.35 5.25556 -0.331478 0
M  V30 16233 H 1538.84 3.72453 -0.639297 0
M  V30 16234 H 1539.15 7.48586 -1.91934 0
M  V30 16235 H 1537.5 6.73396 -1.71938 0
M  V30 16236 H 1540.69 4.59853 -0.8748 0
M  V30 16237 H 1540.86 6.31378 -1.45829 0
M  V30 16238 N 1534.27 0.138579 1.5699 0
M  V30 16239 C 1535.52 -0.514545 1.95026 0
M  V30 16240 C 1535.83 -1.66565 1.02544 0
M  V30 16241 O 1537.04 -2.38284 1.30126 0
M  V30 16242 C 1535.49 -0.966746 3.46673 0
M  V30 16243 C 1535.1 0.156969 4.47725 0
M  V30 16244 C 1536.84 -1.59014 3.93592 0
M  V30 16245 C 1534.75 -0.313031 5.90571 0
M  V30 16246 H 1533.68 -0.195991 0.728082 0
M  V30 16247 H 1536.33 0.221575 1.82157 0
M  V30 16248 H 1534.71 -1.75788 3.54845 0
M  V30 16249 H 1535.89 0.933728 4.51241 0
M  V30 16250 H 1534.2 0.688238 4.10673 0
M  V30 16251 H 1536.8 -1.95326 4.97747 0
M  V30 16252 H 1537.14 -2.47595 3.34668 0
M  V30 16253 H 1537.68 -0.864061 3.88302 0
M  V30 16254 H 1534.41 0.5372 6.53295 0
M  V30 16255 H 1533.93 -1.05585 5.90434 0
M  V30 16256 H 1535.61 -0.767826 6.42428 0
M  V30 16257 N 1535.75 -1.57019 -0.13521 0
M  V30 16258 C 1536.97 -1.88528 -0.864399 0
M  V30 16259 C 1537.4 -0.728852 -1.73405 0
M  V30 16260 O 1536.75 0.321196 -1.78432 0
M  V30 16261 C 1536.8 -3.18694 -1.6872 0
M  V30 16262 O 1535.91 -3.03458 -2.79262 0
M  V30 16263 H 1535.25 -0.61909 -0.24005 0
M  V30 16264 H 1537.78 -2.04233 -0.12248 0
M  V30 16265 H 1537.79 -3.51011 -2.0798 0
M  V30 16266 H 1536.46 -4.02462 -1.04868 0
M  V30 16267 H 1535.04 -2.82575 -2.43323 0
M  V30 16268 N 1537.22 0.404919 -1.52309 0
M  V30 16269 C 1538.64 0.983553 -1.58692 0
M  V30 16270 C 1538.99 1.9143 -0.429993 0
M  V30 16271 O 1538.11 2.11689 0.449088 0
M  V30 16272 C 1538.71 1.79059 -2.87617 0
M  V30 16273 C 1537.27 2.31918 -2.96464 0
M  V30 16274 C 1536.41 1.12018 -2.53667 0
M  V30 16275 H 1539.36 0.185007 -1.57618 0
M  V30 16276 H 1539.38 2.64836 -2.73207 0
M  V30 16277 H 1538.9 1.11291 -3.71801 0
M  V30 16278 H 1537 3.03044 -2.16783 0
M  V30 16279 H 1537.11 2.62495 -4.00791 0
M  V30 16280 H 1535.47 1.47542 -2.07614 0
M  V30 16281 H 1536.26 0.458111 -3.4023 0
M  V30 16282 N 1538.7 1.43003 0.662408 0
M  V30 16283 C 1539.67 1.4713 1.75743 0
M  V30 16284 C 1540.67 0.357203 1.56782 0
M  V30 16285 O 1541.86 0.618566 1.62848 0
M  V30 16286 C 1538.99 1.31499 3.14517 0
M  V30 16287 H 1540.18 2.44641 1.73467 0
M  V30 16288 H 1537.73 1.29633 0.873208 0
M  V30 16289 H 1538.47 0.349596 3.2241 0
M  V30 16290 H 1538.25 2.12253 3.29683 0
M  V30 16291 H 1539.74 1.37298 3.94384 0
M  V30 16292 N 1540.18 -0.899904 1.29381 0
M  V30 16293 C 1541.43 -1.64502 1.16713 0
M  V30 16294 C 1541.74 -1.93577 -0.280563 0
M  V30 16295 O 1542.95 -2.66305 -0.528563 0
M  V30 16296 C 1541.4 -2.96414 2.04125 0
M  V30 16297 C 1541.01 -2.74935 3.53716 0
M  V30 16298 C 1542.76 -3.74337 2.0018 0
M  V30 16299 C 1540.66 -4.02571 4.33232 0
M  V30 16300 H 1539.59 -0.617121 0.433218 0
M  V30 16301 H 1542.24 -0.997521 1.54019 0
M  V30 16302 H 1540.63 -3.62375 1.59687 0
M  V30 16303 H 1541.8 -2.17567 4.06203 0
M  V30 16304 H 1540.12 -2.10407 3.5933 0
M  V30 16305 H 1542.71 -4.6897 2.56849 0
M  V30 16306 H 1543.06 -4.04559 0.981735 0
M  V30 16307 H 1543.59 -3.15216 2.4266 0
M  V30 16308 H 1540.33 -3.77516 5.35875 0
M  V30 16309 H 1539.85 -4.59499 3.85514 0
M  V30 16310 H 1541.53 -4.70719 4.43884 0
M  V30 16311 N 1541.66 -1.11854 -1.11024 0
M  V30 16312 C 1542.94 -0.781693 -1.79301 0
M  V30 16313 C 1543.32 0.72956 -1.98092 0
M  V30 16314 O 1542.66 1.66109 -1.56908 0
M  V30 16315 C 1542.87 -1.54976 -3.12703 0
M  V30 16316 C 1544.22 -1.73183 -3.87676 0
M  V30 16317 O 1545.25 -1.51437 -3.22406 0
M  V30 16318 O 1544.1 -2.0935 -5.04812 0
M  V30 16319 H 1541.2 -0.283672 -0.776826 0
M  V30 16320 H 1543.74 -1.22222 -1.17728 0
M  V30 16321 H 1542.52 -2.57759 -2.94408 0
M  V30 16322 H 1542.14 -1.10308 -3.81992 0
M  V30 16323 N 1543.14 1.28707 -0.909517 0
M  V30 16324 C 1544.37 1.98995 -0.555405 0
M  V30 16325 C 1544.77 1.68183 0.866665 0
M  V30 16326 O 1544.12 0.928626 1.585 0
M  V30 16327 C 1544.18 3.53018 -0.67958 0
M  V30 16328 C 1543.84 4.0741 -2.07042 0
M  V30 16329 C 1544.84 4.21565 -3.04268 0
M  V30 16330 C 1542.53 4.42204 -2.38245 0
M  V30 16331 C 1544.52 4.69762 -4.30816 0
M  V30 16332 C 1542.21 4.90095 -3.65034 0
M  V30 16333 C 1543.2 5.03831 -4.61133 0
M  V30 16334 O 1542.89 5.50679 -5.85668 0
M  V30 16335 H 1542.62 0.64228 -0.210836 0
M  V30 16336 H 1545.18 1.64974 -1.22364 0
M  V30 16337 H 1543.41 3.86673 0.0457104 0
M  V30 16338 H 1545.1 4.0453 -0.33319 0
M  V30 16339 H 1545.86 3.94962 -2.81478 0
M  V30 16340 H 1541.74 4.30766 -1.642 0
M  V30 16341 H 1545.29 4.80398 -5.0583 0
M  V30 16342 H 1541.18 5.16137 -3.8765 0
M  V30 16343 H 1541.95 5.68974 -5.88397 0
M  V30 16344 N 1544.61 0.673042 1.42506 0
M  V30 16345 C 1545.84 0.202922 2.05902 0
M  V30 16346 C 1546.26 -1.13923 1.50556 0
M  V30 16347 O 1545.61 -1.70735 0.644662 0
M  V30 16348 C 1545.67 0.12735 3.61276 0
M  V30 16349 O 1545.39 1.41646 4.1457 0
M  V30 16350 C 1546.89 -0.366477 4.41783 0
M  V30 16351 H 1544.11 0.0991021 0.663641 0
M  V30 16352 H 1546.65 0.919282 1.82673 0
M  V30 16353 H 1544.81 -0.539687 3.83622 0
M  V30 16354 H 1545.22 1.28866 5.08423 0
M  V30 16355 H 1546.69 -0.368267 5.5077 0
M  V30 16356 H 1547.17 -1.40142 4.16241 0
M  V30 16357 H 1547.78 0.268761 4.2445 0
M  V30 16358 N 1546.09 -1.52004 0.416254 0
M  V30 16359 C 1547.32 -2.06008 -0.156264 0
M  V30 16360 C 1547.73 -1.28562 -1.3881 0
M  V30 16361 O 1547.07 -0.33265 -1.80663 0
M  V30 16362 C 1547.14 -3.55039 -0.564614 0
M  V30 16363 C 1546.8 -4.53587 0.557481 0
M  V30 16364 C 1547.8 -5.0004 1.42324 0
M  V30 16365 C 1545.48 -4.96935 0.732205 0
M  V30 16366 C 1547.48 -5.88492 2.4486 0
M  V30 16367 C 1545.16 -5.85181 1.76087 0
M  V30 16368 C 1546.16 -6.30855 2.61747 0
M  V30 16369 O 1545.85 -7.17353 3.6285 0
M  V30 16370 H 1545.58 -0.675681 -0.0207555 0
M  V30 16371 H 1548.13 -1.96806 0.58792 0
M  V30 16372 H 1546.36 -3.61951 -1.36119 0
M  V30 16373 H 1548.05 -3.91656 -1.06586 0
M  V30 16374 H 1548.82 -4.67261 1.29968 0
M  V30 16375 H 1544.7 -4.60939 0.0751016 0
M  V30 16376 H 1548.24 -6.24063 3.11754 0
M  V30 16377 H 1544.14 -6.17373 1.8847 0
M  V30 16378 H 1544.91 -7.35481 3.59179 0
M  V30 16379 N 1547.57 -0.146903 -1.56914 0
M  V30 16380 C 1548.85 0.549291 -1.87729 0
M  V30 16381 C 1549.23 1.82971 -1.05284 0
M  V30 16382 O 1548.58 2.28073 -0.139628 0
M  V30 16383 C 1548.79 0.814835 -3.39354 0
M  V30 16384 C 1550.13 1.15565 -4.0857 0
M  V30 16385 O 1551.16 0.904191 -3.44533 0
M  V30 16386 O 1550.02 1.62886 -5.21661 0
M  V30 16387 H 1547.11 0.280196 -0.778087 0
M  V30 16388 H 1549.66 -0.183507 -1.68705 0
M  V30 16389 H 1548.43 -0.0913527 -3.91193 0
M  V30 16390 H 1548.05 1.60182 -3.63906 0
M  V30 16391 N 1549.05 1.57088 0.126881 0
M  V30 16392 C 1550.27 1.88984 0.854389 0
M  V30 16393 C 1550.7 0.738037 1.73016 0
M  V30 16394 O 1550.06 -0.311728 1.786 0
M  V30 16395 C 1550.1 3.19584 1.67028 0
M  V30 16396 O 1549.21 3.04935 2.77648 0
M  V30 16397 H 1548.55 0.620354 0.236763 0
M  V30 16398 H 1551.08 2.04295 0.111647 0
M  V30 16399 H 1551.09 3.52109 2.06115 0
M  V30 16400 H 1549.76 4.03012 1.02732 0
M  V30 16401 H 1548.34 2.83861 2.41821 0
M  V30 16402 N 1550.53 -0.396836 1.52522 0
M  V30 16403 C 1551.8 -1.15638 1.57757 0
M  V30 16404 C 1552.18 -2.07903 0.365998 0
M  V30 16405 O 1551.53 -2.1917 -0.646266 0
M  V30 16406 C 1551.74 -1.92292 2.91247 0
M  V30 16407 C 1553.09 -2.47929 3.44697 0
M  V30 16408 O 1554.11 -2.02458 2.93069 0
M  V30 16409 O 1552.97 -3.30969 4.34881 0
M  V30 16410 H 1550.07 -0.52867 0.635953 0
M  V30 16411 H 1552.61 -0.402622 1.64855 0
M  V30 16412 H 1551.38 -1.24775 3.70873 0
M  V30 16413 H 1551.01 -2.74646 2.87498 0
M  V30 16414 N 1552.01 -1.43353 -0.654814 0
M  V30 16415 C 1553.25 -1.44172 -1.41058 0
M  V30 16416 C 1553.57 -0.0690586 -1.95478 0
M  V30 16417 O 1554.77 0.0453021 -2.71462 0
M  V30 16418 C 1553.23 -2.53701 -2.55272 0
M  V30 16419 C 1552.84 -3.97066 -2.07466 0
M  V30 16420 C 1554.58 -2.63713 -3.3265 0
M  V30 16421 C 1552.49 -4.98065 -3.18881 0
M  V30 16422 H 1551.42 -0.536303 -0.529995 0
M  V30 16423 H 1554.07 -1.69336 -0.706941 0
M  V30 16424 H 1552.45 -2.21736 -3.28099 0
M  V30 16425 H 1553.63 -4.38485 -1.4166 0
M  V30 16426 H 1551.94 -3.91086 -1.42972 0
M  V30 16427 H 1554.54 -3.36346 -4.15663 0
M  V30 16428 H 1554.88 -1.68729 -3.80574 0
M  V30 16429 H 1555.41 -2.94971 -2.66902 0
M  V30 16430 H 1552.15 -5.94596 -2.75927 0
M  V30 16431 H 1551.67 -4.61261 -3.83404 0
M  V30 16432 H 1553.35 -5.20696 -3.84037 0
M  V30 16433 N 1553.48 0.89303 -1.29857 0
M  V30 16434 C 1554.41 2.01422 -1.18117 0
M  V30 16435 C 1555.39 1.6994 -0.0737487 0
M  V30 16436 O 1556.58 1.92527 -0.254387 0
M  V30 16437 C 1553.71 3.36385 -0.863842 0
M  V30 16438 C 1552.66 3.821 -1.92831 0
M  V30 16439 C 1551.99 5.14263 -1.46415 0
M  V30 16440 C 1553.29 4.01699 -3.33819 0
M  V30 16441 H 1554.98 2.11502 -2.11913 0
M  V30 16442 H 1552.53 1.01622 -1.02024 0
M  V30 16443 H 1554.48 4.14335 -0.768397 0
M  V30 16444 H 1553.21 3.26415 0.109816 0
M  V30 16445 H 1551.87 3.06372 -2.01325 0
M  V30 16446 H 1551.51 5.00714 -0.478983 0
M  V30 16447 H 1551.21 5.45821 -2.17609 0
M  V30 16448 H 1552.74 5.94747 -1.38234 0
M  V30 16449 H 1554.15 4.70111 -3.28129 0
M  V30 16450 H 1552.55 4.44621 -4.03029 0
M  V30 16451 H 1553.62 3.05816 -3.76304 0
M  V30 16452 N 1554.96 1.12442 1.10429 0
M  V30 16453 C 1555.91 0.792332 2.16773 0
M  V30 16454 C 1556.88 -0.240945 1.64343 0
M  V30 16455 O 1558.06 -0.115504 1.9045 0
M  V30 16456 C 1555.2 0.253166 3.4417 0
M  V30 16457 C 1554.32 1.34426 4.10553 0
M  V30 16458 C 1553.45 0.764527 5.2567 0
M  V30 16459 C 1552.49 1.83474 5.83955 0
M  V30 16460 N 1551.63 1.27372 6.9045 0
M  V30 16461 H 1556.47 1.7033 2.44524 0
M  V30 16462 H 1554 0.850418 1.20026 0
M  V30 16463 H 1555.96 -0.0774862 4.17128 0
M  V30 16464 H 1554.59 -0.620962 3.16771 0
M  V30 16465 H 1553.64 1.79169 3.35563 0
M  V30 16466 H 1554.96 2.15354 4.49916 0
M  V30 16467 H 1554.11 0.384548 6.0548 0
M  V30 16468 H 1552.85 -0.0759512 4.87641 0
M  V30 16469 H 1551.85 2.22391 5.02814 0
M  V30 16470 H 1553.08 2.67844 6.24048 0
M  V30 16471 H 1551.03 0.455069 6.5442 0
M  V30 16472 H 1550.94 2.01959 7.28525 0
M  V30 16473 H 1552.21 0.920975 7.7404 0
M  V30 16474 N 1556.44 -1.28223 0.91633 0
M  V30 16475 C 1557.69 -1.9448 0.549734 0
M  V30 16476 C 1558.01 -1.72465 -0.909999 0
M  V30 16477 O 1557.28 -1.06583 -1.64368 0
M  V30 16478 H 1555.86 -0.719641 0.200315 0
M  V30 16479 H 1558.52 -1.56156 1.16625 0
M  V30 16480 H 1557.62 -3.03044 0.746363 0
M  V30 16481 N 1557.92 -0.68059 -1.42147 0
M  V30 16482 C 1558.87 0.00572503 -2.32599 0
M  V30 16483 C 1559.86 0.784449 -1.50142 0
M  V30 16484 O 1561.07 0.69176 -1.66177 0
M  V30 16485 H 1557.44 0.0206483 -0.751716 0
M  V30 16486 H 1559.41 -0.774447 -2.88175 0
M  V30 16487 C 1558.16 0.939019 -3.3478 0
M  V30 16488 H 1557.48 0.349225 -3.98272 0
M  V30 16489 H 1558.92 1.38782 -4.00644 0
M  V30 16490 C 1557.38 2.04814 -2.67493 0
M  V30 16491 O 1557.91 3.13526 -2.51126 0
M  V30 16492 N 1556.12 1.82153 -2.26426 0
M  V30 16493 H 1555.67 0.93743 -2.39938 0
M  V30 16494 H 1555.62 2.56551 -1.81738 0
M  V30 16495 N 1559.4 1.51781 -0.424309 0
M  V30 16496 C 1560.64 2.01969 0.146492 0
M  V30 16497 C 1560.97 1.30918 1.43843 0
M  V30 16498 O 1560.23 0.408705 1.91385 0
M  V30 16499 C 1560.52 3.54855 0.42574 0
M  V30 16500 C 1560.19 4.44123 -0.778814 0
M  V30 16501 C 1558.85 4.68242 -1.10918 0
M  V30 16502 C 1561.2 4.96579 -1.58299 0
M  V30 16503 C 1558.53 5.42063 -2.24464 0
M  V30 16504 C 1560.88 5.71645 -2.70934 0
M  V30 16505 C 1559.55 5.94031 -3.04439 0
M  V30 16506 H 1558.82 0.739059 0.0536052 0
M  V30 16507 H 1561.47 1.82856 -0.568838 0
M  V30 16508 H 1559.77 3.72229 1.22282 0
M  V30 16509 H 1561.47 3.91212 0.880598 0
M  V30 16510 H 1558.06 4.25539 -0.511363 0
M  V30 16511 H 1562.24 4.77841 -1.34098 0
M  V30 16512 H 1557.5 5.57614 -2.50753 0
M  V30 16513 H 1561.67 6.11284 -3.33624 0
M  V30 16514 H 1559.3 6.51014 -3.92537 0
M  V30 16515 N 1560.87 0.155222 1.56834 0
M  V30 16516 C 1562.1 -0.503763 2.01189 0
M  V30 16517 C 1562.52 -1.57086 1.03468 0
M  V30 16518 O 1561.88 -1.81296 0.0116895 0
M  V30 16519 C 1561.93 -1.07373 3.44243 0
M  V30 16520 O 1561.03 -2.18834 3.49551 0
M  V30 16521 H 1560.37 -0.122368 0.652627 0
M  V30 16522 H 1562.9 0.254377 2.03013 0
M  V30 16523 H 1562.91 -1.40036 3.83215 0
M  V30 16524 H 1561.59 -0.292339 4.14871 0
M  V30 16525 H 1560.17 -1.87337 3.22427 0
M  V30 16526 N 1562.35 -1.57153 -0.118549 0
M  V30 16527 C 1563.6 -1.84064 -0.824832 0
M  V30 16528 C 1563.91 -0.740941 -1.81023 0
M  V30 16529 O 1565.12 -0.896464 -2.56273 0
M  V30 16530 C 1563.58 -3.26338 -1.51761 0
M  V30 16531 C 1563.18 -4.44318 -0.573174 0
M  V30 16532 C 1564.93 -3.62496 -2.209 0
M  V30 16533 C 1562.83 -5.7762 -1.2692 0
M  V30 16534 H 1561.76 -0.686521 -0.311777 0
M  V30 16535 H 1564.42 -1.83336 -0.0775833 0
M  V30 16536 H 1562.8 -3.21537 -2.3115 0
M  V30 16537 H 1563.97 -4.60418 0.187529 0
M  V30 16538 H 1562.29 -4.16398 0.0112747 0
M  V30 16539 H 1564.88 -4.5936 -2.73666 0
M  V30 16540 H 1565.23 -2.89952 -2.9872 0
M  V30 16541 H 1565.76 -3.69084 -1.48399 0
M  V30 16542 H 1562.5 -6.53335 -0.532285 0
M  V30 16543 H 1562.02 -5.65406 -2.00191 0
M  V30 16544 H 1563.7 -6.21391 -1.80227 0
M  V30 16545 N 1563.83 0.388742 -1.5273 0
M  V30 16546 C 1565.25 0.728828 -1.41987 0
M  V30 16547 C 1565.45 1.94116 -0.540493 0
M  V30 16548 O 1564.5 2.52496 -0.0140397 0
M  V30 16549 C 1565.81 0.963683 -2.8484 0
M  V30 16550 C 1567.36 1.06514 -2.94319 0
M  V30 16551 C 1567.84 1.33262 -4.38184 0
M  V30 16552 N 1569.33 1.40083 -4.4151 0
M  V30 16553 C 1570.06 1.62446 -5.49908 0
M  V30 16554 N 1569.56 1.82277 -6.68391 0
M  V30 16555 N 1571.35 1.64627 -5.37452 0
M  V30 16556 H 1563.5 -0.408984 -2.08425 0
M  V30 16557 H 1565.77 -0.120791 -0.940273 0
M  V30 16558 H 1565.47 0.144986 -3.51401 0
M  V30 16559 H 1565.35 1.87828 -3.27109 0
M  V30 16560 H 1567.73 1.8744 -2.27926 0
M  V30 16561 H 1567.81 0.12845 -2.55477 0
M  V30 16562 H 1567.46 0.528457 -5.05143 0
M  V30 16563 H 1567.39 2.28216 -4.74579 0
M  V30 16564 H 1569.88 1.26465 -3.56111 0
M  V30 16565 H 1570.19 1.98848 -7.46779 0
M  V30 16566 H 1568.54 1.79501 -6.7142 0
M  V30 16567 H 1571.73 1.48686 -4.43858 0
M  V30 16568 H 1571.9 1.81715 -6.22 0
M  V30 16569 N 1565.31 1.43698 0.647203 0
M  V30 16570 C 1566.54 1.49085 1.43462 0
M  V30 16571 C 1566.95 0.110605 1.88476 0
M  V30 16572 O 1566.31 -0.880365 1.59862 0
M  V30 16573 C 1566.36 2.44186 2.66562 0
M  V30 16574 O 1566.08 3.76844 2.23429 0
M  V30 16575 C 1567.58 2.58876 3.59858 0
M  V30 16576 H 1564.8 0.506148 0.440517 0
M  V30 16577 H 1567.34 1.88502 0.792931 0
M  V30 16578 H 1565.5 2.07949 3.26858 0
M  V30 16579 H 1565.91 4.2804 3.0312 0
M  V30 16580 H 1567.39 3.29482 4.42883 0
M  V30 16581 H 1567.86 1.63567 4.07606 0
M  V30 16582 H 1568.47 2.95949 3.05441 0
M  V30 16583 N 1566.79 -0.886131 1.30328 0
M  V30 16584 C 1567.75 -1.97328 1.16594 0
M  V30 16585 C 1568.75 -1.60504 0.0975023 0
M  V30 16586 O 1569.94 -1.70739 0.345524 0
M  V30 16587 C 1567.07 -3.31714 0.786045 0
M  V30 16588 H 1568.26 -2.1094 2.13177 0
M  V30 16589 H 1565.82 -1.07238 1.13708 0
M  V30 16590 H 1566.55 -3.23804 -0.179334 0
M  V30 16591 H 1566.34 -3.5981 1.55817 0
M  V30 16592 H 1567.83 -4.11461 0.71339 0
M  V30 16593 N 1568.26 -1.13026 -1.09832 0
M  V30 16594 C 1569.21 -0.803817 -2.1635 0
M  V30 16595 C 1570.18 0.232226 -1.64469 0
M  V30 16596 O 1571.37 0.105403 -1.90509 0
M  V30 16597 C 1568.51 -0.271414 -3.44031 0
M  V30 16598 C 1567.62 -1.36602 -4.09834 0
M  V30 16599 C 1566.75 -0.792393 -5.25257 0
M  V30 16600 C 1565.79 -1.86569 -5.82974 0
M  V30 16601 N 1564.93 -1.31032 -6.89764 0
M  V30 16602 H 1569.77 -1.71624 -2.43617 0
M  V30 16603 H 1567.31 -0.856772 -1.19574 0
M  V30 16604 H 1569.27 0.0553638 -4.17163 0
M  V30 16605 H 1567.9 0.604154 -3.17096 0
M  V30 16606 H 1566.95 -1.80946 -3.34608 0
M  V30 16607 H 1568.26 -2.17737 -4.48767 0
M  V30 16608 H 1567.41 -0.416652 -6.05268 0
M  V30 16609 H 1566.15 0.0500894 -4.87674 0
M  V30 16610 H 1565.16 -2.25054 -5.01628 0
M  V30 16611 H 1566.38 -2.7115 -6.22619 0
M  V30 16612 H 1564.33 -0.489768 -6.54169 0
M  V30 16613 H 1564.25 -2.0582 -7.27444 0
M  V30 16614 H 1565.51 -0.962011 -7.73541 0
M  V30 16615 N 1569.74 1.27735 -0.923117 0
M  V30 16616 C 1570.68 2.25293 -0.363081 0
M  V30 16617 C 1571.65 1.53442 0.537978 0
M  V30 16618 O 1572.84 1.82299 0.479521 0
M  V30 16619 C 1569.96 3.35281 0.480058 0
M  V30 16620 C 1569.01 4.25004 -0.356928 0
M  V30 16621 S 1569.84 5.05417 -1.76959 0
M  V30 16622 C 1571 6.18892 -0.934006 0
M  V30 16623 H 1571.23 2.72448 -1.18993 0
M  V30 16624 H 1568.77 1.3632 -0.724991 0
M  V30 16625 H 1570.72 3.99101 0.960668 0
M  V30 16626 H 1569.38 2.86774 1.28139 0
M  V30 16627 H 1568.58 5.03175 0.288203 0
M  V30 16628 H 1568.18 3.65955 -0.771538 0
M  V30 16629 H 1570.47 6.77292 -0.167905 0
M  V30 16630 H 1571.41 6.87672 -1.68858 0
M  V30 16631 H 1571.82 5.62472 -0.478042 0
M  V30 16632 N 1571.22 0.688118 1.41784 0
M  V30 16633 C 1572.15 -0.02099 2.2919 0
M  V30 16634 C 1573.17 -0.752005 1.44391 0
M  V30 16635 O 1574.35 -0.603947 1.67972 0
M  V30 16636 C 1571.45 -1.0537 3.22103 0
M  V30 16637 C 1570.63 -0.393817 4.35624 0
M  V30 16638 C 1569.69 -1.32812 5.09163 0
M  V30 16639 O 1568.71 -0.823341 5.63214 0
M  V30 16640 N 1569.91 -2.66083 5.15927 0
M  V30 16641 H 1572.68 0.729389 2.90689 0
M  V30 16642 H 1570.24 0.533564 1.52855 0
M  V30 16643 H 1572.23 -1.6803 3.68169 0
M  V30 16644 H 1570.8 -1.70568 2.61964 0
M  V30 16645 H 1570.02 0.41253 3.92035 0
M  V30 16646 H 1571.31 0.065338 5.08758 0
M  V30 16647 H 1570.71 -3.09619 4.73448 0
M  V30 16648 H 1569.27 -3.23956 5.65593 0
M  V30 16649 N 1572.7 -1.51554 0.432352 0
M  V30 16650 C 1573.63 -2.25369 -0.417328 0
M  V30 16651 C 1574.64 -1.29197 -0.990551 0
M  V30 16652 O 1575.83 -1.54985 -0.885539 0
M  V30 16653 C 1572.93 -2.99006 -1.59526 0
M  V30 16654 C 1572.11 -4.22234 -1.1418 0
M  V30 16655 C 1571.16 -4.78495 -2.18928 0
M  V30 16656 O 1570.19 -5.40465 -1.78566 0
M  V30 16657 N 1571.39 -4.62091 -3.51358 0
M  V30 16658 H 1574.16 -2.98926 0.215294 0
M  V30 16659 H 1571.72 -1.59783 0.26097 0
M  V30 16660 H 1573.71 -3.33532 -2.29212 0
M  V30 16661 H 1572.28 -2.28491 -2.13332 0
M  V30 16662 H 1571.5 -3.93259 -0.272182 0
M  V30 16663 H 1572.79 -5.02212 -0.816145 0
M  V30 16664 H 1572.19 -4.12718 -3.86885 0
M  V30 16665 H 1570.74 -5.00992 -4.16953 0
M  V30 16666 N 1574.18 -0.163538 -1.56749 0
M  V30 16667 C 1575.13 0.781904 -2.14173 0
M  V30 16668 C 1576.11 1.19818 -1.07389 0
M  V30 16669 O 1577.3 1.16184 -1.3353 0
M  V30 16670 C 1574.43 2.01433 -2.77992 0
M  V30 16671 C 1573.52 1.6204 -3.91923 0
M  V30 16672 N 1573.91 0.935598 -4.97072 0
M  V30 16673 C 1572.21 1.91197 -4.02939 0
M  V30 16674 C 1572.91 0.742806 -5.76938 0
M  V30 16675 N 1571.88 1.28183 -5.28271 0
M  V30 16676 H 1575.69 0.249647 -2.92838 0
M  V30 16677 H 1573.2 0.0374224 -1.62357 0
M  V30 16678 H 1575.2 2.7018 -3.17504 0
M  V30 16679 H 1573.86 2.55161 -2.00806 0
M  V30 16680 H 1574.87 0.594507 -5.14476 0
M  V30 16681 H 1571.54 2.46657 -3.36848 0
M  V30 16682 H 1572.93 0.201845 -6.71597 0
M  V30 16683 N 1575.65 1.57214 0.110213 0
M  V30 16684 C 1576.9 1.85586 0.817649 0
M  V30 16685 C 1577.23 0.750536 1.79111 0
M  V30 16686 O 1576.51 -0.242864 1.92978 0
M  V30 16687 C 1576.79 3.24565 1.55979 0
M  V30 16688 C 1576.64 4.45708 0.605339 0
M  V30 16689 C 1577.96 3.61233 2.51393 0
M  V30 16690 H 1575.08 0.675037 0.295794 0
M  V30 16691 H 1577.72 1.89824 0.0816541 0
M  V30 16692 H 1575.87 3.21083 2.18718 0
M  V30 16693 H 1577.55 4.61298 -0.0138894 0
M  V30 16694 H 1575.79 4.33722 -0.0824644 0
M  V30 16695 H 1576.46 5.39643 1.16143 0
M  V30 16696 H 1578.94 3.65563 1.98754 0
M  V30 16697 H 1577.81 4.59438 3.00346 0
M  V30 16698 H 1578.07 2.89116 3.34461 0
M  V30 16699 N 1577.13 -0.380637 1.52934 0
M  V30 16700 C 1578.37 -1.13369 1.70079 0
M  V30 16701 C 1578.74 -1.86994 0.435592 0
M  V30 16702 O 1579.94 -2.64416 0.483515 0
M  V30 16703 C 1578.21 -2.07933 2.90686 0
M  V30 16704 S 1579.77 -2.90962 3.28461 0
M  V30 16705 H 1576.59 -0.383638 0.598617 0
M  V30 16706 H 1579.19 -0.416966 1.91002 0
M  V30 16707 H 1577.89 -1.52581 3.80982 0
M  V30 16708 H 1577.42 -2.84101 2.72121 0
M  V30 16709 H 1579.44 -4.10129 2.793 0
M  V30 16710 N 1578.61 -1.44039 -0.639573 0
M  V30 16711 C 1579.52 -1.52728 -1.78077 0
M  V30 16712 C 1580.54 -0.413467 -1.69016 0
M  V30 16713 O 1581.71 -0.669592 -1.89943 0
M  V30 16714 C 1578.78 -1.46078 -3.14424 0
M  V30 16715 C 1577.84 -2.68242 -3.35179 0
M  V30 16716 C 1577.07 -2.61899 -4.65021 0
M  V30 16717 O 1577.29 -1.67431 -5.45273 0
M  V30 16718 O 1576.23 -3.52619 -4.87795 0
M  V30 16719 H 1580.05 -2.49122 -1.737 0
M  V30 16720 H 1577.64 -1.26191 -0.799755 0
M  V30 16721 H 1579.52 -1.44861 -3.95719 0
M  V30 16722 H 1578.2 -0.528236 -3.19361 0
M  V30 16723 H 1577.1 -2.75028 -2.53595 0
M  V30 16724 H 1578.44 -3.60514 -3.35098 0
M  V30 16725 N 1580.09 0.879207 -1.30796 0
M  V30 16726 C 1581.32 1.66449 -1.22891 0
M  V30 16727 C 1581.73 1.87658 0.207306 0
M  V30 16728 O 1581.09 1.42818 1.13619 0
M  V30 16729 C 1581.14 3.03765 -1.95982 0
M  V30 16730 O 1580.86 2.8351 -3.33997 0
M  V30 16731 C 1582.36 3.98204 -1.94804 0
M  V30 16732 H 1579.58 0.51922 -0.425031 0
M  V30 16733 H 1582.13 1.09807 -1.72519 0
M  V30 16734 H 1580.28 3.57124 -1.50138 0
M  V30 16735 H 1580.69 3.70663 -3.71092 0
M  V30 16736 H 1582.17 4.91901 -2.50474 0
M  V30 16737 H 1582.65 4.29277 -0.928336 0
M  V30 16738 H 1583.25 3.50781 -2.40485 0
M  V30 16739 N 1581.57 1.13606 1.09231 0
M  V30 16740 C 1582.82 0.893694 1.8082 0
M  V30 16741 C 1583.13 -0.581713 1.8675 0
M  V30 16742 O 1584.34 -0.941079 2.54668 0
M  V30 16743 C 1582.79 1.54932 3.24845 0
M  V30 16744 C 1582.4 3.0604 3.27175 0
M  V30 16745 C 1584.14 1.38773 4.01176 0
M  V30 16746 C 1582.05 3.64478 4.65735 0
M  V30 16747 H 1580.98 0.330699 0.677609 0
M  V30 16748 H 1583.63 1.36401 1.22748 0
M  V30 16749 H 1582.01 1.00668 3.82991 0
M  V30 16750 H 1583.19 3.66901 2.78783 0
M  V30 16751 H 1581.5 3.21739 2.64335 0
M  V30 16752 H 1584.1 1.79843 5.03548 0
M  V30 16753 H 1584.44 0.33282 4.14967 0
M  V30 16754 H 1584.98 1.90028 3.49477 0
M  V30 16755 H 1581.71 4.69785 4.57146 0
M  V30 16756 H 1581.23 3.08396 5.14444 0
M  V30 16757 H 1582.91 3.64272 5.3471 0
M  V30 16758 N 1583.05 -1.27244 0.929878 0
M  V30 16759 C 1584.29 -1.93559 0.567267 0
M  V30 16760 C 1584.61 -1.73864 -0.896138 0
M  V30 16761 O 1585.81 -2.34538 -1.36763 0
M  V30 16762 C 1584.27 -3.46756 0.963743 0
M  V30 16763 C 1583.88 -3.75204 2.44798 0
M  V30 16764 C 1585.62 -4.19139 0.672487 0
M  V30 16765 C 1583.53 -5.21787 2.78375 0
M  V30 16766 H 1582.46 -0.724617 0.208437 0
M  V30 16767 H 1585.11 -1.44502 1.13099 0
M  V30 16768 H 1583.49 -3.94634 0.328654 0
M  V30 16769 H 1584.67 -3.38075 3.13116 0
M  V30 16770 H 1582.98 -3.16029 2.71136 0
M  V30 16771 H 1585.58 -5.27074 0.899816 0
M  V30 16772 H 1585.92 -4.14466 -0.390378 0
M  V30 16773 H 1586.45 -3.77091 1.26678 0
M  V30 16774 H 1583.19 -5.31552 3.83579 0
M  V30 16775 H 1582.71 -5.60054 2.14708 0
M  V30 16776 H 1584.39 -5.89685 2.66234 0
M  V30 16777 N 1584.52 -0.695628 -1.41417 0
M  V30 16778 C 1585.94 -0.367185 -1.55319 0
M  V30 16779 C 1586.14 1.12584 -1.67114 0
M  V30 16780 O 1585.2 1.91166 -1.64959 0
M  V30 16781 C 1586.51 -1.11576 -2.79233 0
M  V30 16782 C 1588.06 -1.10011 -2.9303 0
M  V30 16783 C 1588.53 -1.83044 -4.19832 0
M  V30 16784 N 1590.02 -1.80014 -4.26789 0
M  V30 16785 C 1590.76 -2.33362 -5.23765 0
M  V30 16786 N 1590.25 -2.95182 -6.26769 0
M  V30 16787 N 1592.05 -2.23618 -5.15705 0
M  V30 16788 H 1584.2 -1.66398 -1.32006 0
M  V30 16789 H 1586.46 -0.702205 -0.636877 0
M  V30 16790 H 1586.17 -2.1706 -2.76727 0
M  V30 16791 H 1586.04 -0.694385 -3.70753 0
M  V30 16792 H 1588.43 -0.0535436 -2.95051 0
M  V30 16793 H 1588.51 -1.56055 -2.02683 0
M  V30 16794 H 1588.15 -2.8768 -4.18572 0
M  V30 16795 H 1588.08 -1.34434 -5.09151 0
M  V30 16796 H 1590.57 -1.34942 -3.52986 0
M  V30 16797 H 1590.89 -3.33456 -6.97156 0
M  V30 16798 H 1589.23 -2.99259 -6.27271 0
M  V30 16799 H 1592.42 -1.74994 -4.3416 0
M  V30 16800 H 1592.6 -2.65497 -5.91113 0
M  V30 16801 N 1586 1.51322 -0.440383 0
M  V30 16802 C 1587.25 2.01302 0.126581 0
M  V30 16803 C 1587.56 1.32898 1.43518 0
M  V30 16804 O 1588.77 1.73864 2.08527 0
M  V30 16805 C 1587.23 3.58839 0.276126 0
M  V30 16806 C 1586.83 4.36182 -1.02222 0
M  V30 16807 C 1588.58 4.16957 0.796697 0
M  V30 16808 C 1586.48 5.85431 -0.838148 0
M  V30 16809 H 1585.41 0.752268 0.0510809 0
M  V30 16810 H 1588.07 1.74403 -0.570609 0
M  V30 16811 H 1586.45 3.82198 1.03639 0
M  V30 16812 H 1587.62 4.24568 -1.79105 0
M  V30 16813 H 1585.94 3.89531 -1.47155 0
M  V30 16814 H 1588.53 5.26176 0.95095 0
M  V30 16815 H 1588.88 3.76329 1.77996 0
M  V30 16816 H 1589.41 3.97687 0.0946613 0
M  V30 16817 H 1586.15 6.30476 -1.79387 0
M  V30 16818 H 1585.67 5.99701 -0.109167 0
M  V30 16819 H 1587.35 6.45122 -0.492547 0
M  V30 16820 N 1587.48 0.171848 1.5666 0
M  V30 16821 C 1588.73 -0.472968 1.96899 0
M  V30 16822 C 1589.05 -1.63217 1.05785 0
M  V30 16823 O 1588.31 -1.95483 0.0920511 0
M  V30 16824 C 1588.61 -0.99711 3.43209 0
M  V30 16825 C 1588.27 0.0462519 4.50876 0
M  V30 16826 C 1586.94 0.333002 4.80046 0
M  V30 16827 C 1589.29 0.754424 5.15711 0
M  V30 16828 C 1586.62 1.3333 5.71349 0
M  V30 16829 C 1588.97 1.74371 6.08093 0
M  V30 16830 C 1587.63 2.03791 6.3563 0
M  V30 16831 H 1586.9 -0.173071 0.720505 0
M  V30 16832 H 1589.55 0.263921 1.89673 0
M  V30 16833 H 1587.85 -1.81183 3.4739 0
M  V30 16834 H 1589.55 -1.50503 3.71685 0
M  V30 16835 H 1586.14 -0.187419 4.2819 0
M  V30 16836 H 1590.33 0.546102 4.93286 0
M  V30 16837 H 1585.58 1.56741 5.90967 0
M  V30 16838 H 1589.76 2.29782 6.57399 0
M  V30 16839 H 1587.38 2.8145 7.0618 0
M  V30 16840 N 1588.96 -1.5727 -0.101874 0
M  V30 16841 C 1589.9 -2.01577 -1.12406 0
M  V30 16842 C 1590.87 -0.890883 -1.40187 0
M  V30 16843 O 1592.06 -1.15638 -1.51764 0
M  V30 16844 C 1589.2 -2.43952 -2.44093 0
M  V30 16845 C 1588.31 -3.69932 -2.23101 0
M  V30 16846 C 1587.45 -4.01215 -3.48138 0
M  V30 16847 C 1586.49 -5.20325 -3.22379 0
M  V30 16848 N 1585.62 -5.47394 -4.39664 0
M  V30 16849 H 1590.46 -2.88685 -0.739244 0
M  V30 16850 H 1588 -1.42789 -0.353497 0
M  V30 16851 H 1589.96 -2.66563 -3.20936 0
M  V30 16852 H 1588.59 -1.59863 -2.80435 0
M  V30 16853 H 1587.64 -3.54838 -1.37092 0
M  V30 16854 H 1588.95 -4.56924 -2.00054 0
M  V30 16855 H 1588.11 -4.24566 -4.33392 0
M  V30 16856 H 1586.85 -3.12732 -3.74233 0
M  V30 16857 H 1585.85 -4.96802 -2.35517 0
M  V30 16858 H 1587.08 -6.10401 -2.97637 0
M  V30 16859 H 1585.02 -4.61869 -4.65847 0
M  V30 16860 H 1584.94 -6.28743 -4.19783 0
M  V30 16861 H 1586.21 -5.75276 -5.26002 0
M  V30 16862 N 1590.44 0.372521 -1.53134 0
M  V30 16863 C 1591.85 0.713727 -1.42752 0
M  V30 16864 C 1592.05 1.93532 -0.561051 0
M  V30 16865 O 1591.11 2.52467 -0.0408195 0
M  V30 16866 C 1592.42 0.933418 -2.85846 0
M  V30 16867 C 1593.97 1.03386 -2.95432 0
M  V30 16868 C 1594.44 1.28607 -4.39573 0
M  V30 16869 N 1595.93 1.35393 -4.42971 0
M  V30 16870 C 1596.67 1.56604 -5.516 0
M  V30 16871 N 1596.17 1.75178 -6.70287 0
M  V30 16872 N 1597.96 1.58917 -5.39168 0
M  V30 16873 H 1590.11 -0.431068 -2.0798 0
M  V30 16874 H 1592.37 -0.130757 -0.938939 0
M  V30 16875 H 1592.08 0.107707 -3.51535 0
M  V30 16876 H 1591.95 1.84348 -3.29083 0
M  V30 16877 H 1594.34 1.85012 -2.29901 0
M  V30 16878 H 1594.42 0.101346 -2.55599 0
M  V30 16879 H 1594.06 0.47485 -5.05675 0
M  V30 16880 H 1593.99 2.2317 -4.76973 0
M  V30 16881 H 1596.49 1.22681 -3.57432 0
M  V30 16882 H 1596.8 1.90916 -7.48846 0
M  V30 16883 H 1595.14 1.7237 -6.73286 0
M  V30 16884 H 1598.33 1.4397 -4.4541 0
M  V30 16885 H 1598.51 1.75108 -6.23892 0
M  V30 16886 N 1591.91 1.44376 0.631925 0
M  V30 16887 C 1592.86 1.47617 1.73762 0
M  V30 16888 C 1593.85 0.342055 1.57222 0
M  V30 16889 O 1595.04 0.587306 1.66972 0
M  V30 16890 C 1592.17 1.42245 3.12444 0
M  V30 16891 C 1591.25 2.60767 3.34457 0
M  V30 16892 N 1591.65 3.86017 3.2684 0
M  V30 16893 C 1589.94 2.55946 3.6525 0
M  V30 16894 C 1590.64 4.64986 3.49519 0
M  V30 16895 N 1589.62 3.96047 3.72354 0
M  V30 16896 H 1593.42 2.42305 1.6633 0
M  V30 16897 H 1590.94 1.39328 0.834362 0
M  V30 16898 H 1592.93 1.4265 3.91735 0
M  V30 16899 H 1591.59 0.485942 3.21043 0
M  V30 16900 H 1592.6 4.17997 3.05776 0
M  V30 16901 H 1589.28 1.71087 3.80835 0
M  V30 16902 H 1590.67 5.74011 3.49229 0
M  V30 16903 N 1593.39 -0.872258 1.31261 0
M  V30 16904 C 1594.64 -1.6219 1.20576 0
M  V30 16905 C 1594.96 -1.93557 -0.236769 0
M  V30 16906 O 1594.23 -1.58094 -1.15686 0
M  V30 16907 H 1592.81 -0.601265 0.443272 0
M  V30 16908 H 1595.47 -1.04438 1.64556 0
M  V30 16909 H 1594.57 -2.56653 1.77582 0
M  V30 16910 N 1594.87 -1.14184 -1.08627 0
M  V30 16911 C 1595.83 -0.82954 -2.13662 0
M  V30 16912 C 1596.83 0.164794 -1.59953 0
M  V30 16913 O 1598.02 -0.0632831 -1.74085 0
M  V30 16914 C 1595.15 -0.236176 -3.40081 0
M  V30 16915 H 1596.35 -1.76038 -2.42797 0
M  V30 16916 H 1593.9 -0.947568 -1.24301 0
M  V30 16917 H 1594.64 0.70349 -3.16578 0
M  V30 16918 H 1594.42 -0.952341 -3.80359 0
M  V30 16919 H 1595.91 -0.03481 -4.17585 0
M  V30 16920 N 1596.35 1.26749 -0.936613 0
M  V30 16921 C 1597.59 1.94251 -0.582616 0
M  V30 16922 C 1597.93 1.73352 0.875361 0
M  V30 16923 O 1597.2 1.06784 1.62565 0
M  V30 16924 C 1597.49 3.48145 -0.920151 0
M  V30 16925 C 1597.34 3.78349 -2.43253 0
M  V30 16926 C 1598.66 4.37971 -0.432326 0
M  V30 16927 H 1595.78 0.705507 -0.213141 0
M  V30 16928 H 1598.42 1.49703 -1.17001 0
M  V30 16929 H 1596.57 3.8622 -0.420279 0
M  V30 16930 H 1598.24 3.50015 -3.00478 0
M  V30 16931 H 1596.48 3.24586 -2.87795 0
M  V30 16932 H 1597.15 4.85902 -2.61922 0
M  V30 16933 H 1599.63 4.07098 -0.860857 0
M  V30 16934 H 1598.51 5.44452 -0.697366 0
M  V30 16935 H 1598.77 4.37029 0.667694 0
M  V30 16936 N 1597.83 0.703118 1.41046 0
M  V30 16937 C 1598.76 0.00331992 2.292 0
M  V30 16938 C 1599.77 -0.736648 1.4518 0
M  V30 16939 O 1600.96 -0.586097 1.68604 0
M  V30 16940 C 1598.06 -1.01948 3.23203 0
M  V30 16941 C 1597.23 -0.347591 4.36017 0
M  V30 16942 C 1596.29 -1.27404 5.10543 0
M  V30 16943 O 1595.32 -0.763558 5.64055 0
M  V30 16944 N 1596.52 -2.60596 5.1872 0
M  V30 16945 H 1599.29 0.760179 2.89899 0
M  V30 16946 H 1596.85 0.549747 1.52281 0
M  V30 16947 H 1598.84 -1.64115 3.6993 0
M  V30 16948 H 1597.41 -1.6778 2.63758 0
M  V30 16949 H 1596.63 0.454088 3.91576 0
M  V30 16950 H 1597.92 0.119295 5.0866 0
M  V30 16951 H 1597.31 -3.0458 4.76705 0
M  V30 16952 H 1595.87 -3.17939 5.68998 0
M  V30 16953 N 1599.3 -1.51086 0.448402 0
M  V30 16954 C 1600.23 -2.30896 -0.347773 0
M  V30 16955 C 1601.22 -1.36792 -1.01104 0
M  V30 16956 O 1602.4 -1.65713 -1.01257 0
M  V30 16957 C 1599.53 -3.15901 -1.44304 0
M  V30 16958 C 1598.48 -4.18373 -0.90265 0
M  V30 16959 C 1597.81 -4.9197 -2.0945 0
M  V30 16960 C 1599.11 -5.22252 0.0705335 0
M  V30 16961 H 1600.8 -2.97704 0.318273 0
M  V30 16962 H 1598.35 -1.43169 0.154509 0
M  V30 16963 H 1600.3 -3.70519 -2.00733 0
M  V30 16964 H 1599.03 -2.46935 -2.13753 0
M  V30 16965 H 1597.69 -3.64823 -0.3605 0
M  V30 16966 H 1597.33 -4.19497 -2.77545 0
M  V30 16967 H 1597.03 -5.6127 -1.73926 0
M  V30 16968 H 1598.56 -5.49415 -2.66412 0
M  V30 16969 H 1599.97 -5.71876 -0.403814 0
M  V30 16970 H 1598.37 -5.99142 0.338905 0
M  V30 16971 H 1599.44 -4.74398 1.00373 0
M  V30 16972 N 1600.78 -0.180154 -1.56567 0
M  V30 16973 C 1602.02 0.464869 -1.99044 0
M  V30 16974 C 1602.39 1.59822 -1.06399 0
M  V30 16975 O 1603.59 2.30641 -1.38052 0
M  V30 16976 C 1601.86 0.927227 -3.45163 0
M  V30 16977 S 1603.42 1.57219 -4.09668 0
M  V30 16978 H 1600.24 0.149215 -0.695166 0
M  V30 16979 H 1602.84 -0.279699 -1.93489 0
M  V30 16980 H 1601.54 0.0920814 -4.10297 0
M  V30 16981 H 1601.07 1.70562 -3.54503 0
M  V30 16982 H 1603.09 2.86059 -4.05444 0
M  V30 16983 N 1602.26 1.57322 0.0935319 0
M  V30 16984 C 1603.49 1.90375 0.810245 0
M  V30 16985 C 1603.9 0.774011 1.72205 0
M  V30 16986 O 1603.26 -0.253918 1.80725 0
M  V30 16987 C 1603.31 3.23054 1.62228 0
M  V30 16988 O 1603.03 4.31682 0.747157 0
M  V30 16989 C 1604.53 3.6998 2.44192 0
M  V30 16990 H 1601.75 0.629769 0.231586 0
M  V30 16991 H 1604.3 2.04379 0.0702984 0
M  V30 16992 H 1602.45 3.10643 2.31472 0
M  V30 16993 H 1602.87 5.07884 1.30974 0
M  V30 16994 H 1604.34 4.65507 2.96659 0
M  V30 16995 H 1604.82 2.97899 3.22727 0
M  V30 16996 H 1605.42 3.85264 1.80144 0
M  V30 16997 N 1603.74 -0.364395 1.53329 0
M  V30 16998 C 1605.15 -0.941133 1.61244 0
M  V30 16999 C 1605.5 -1.90223 0.480596 0
M  V30 17000 O 1604.63 -2.12805 -0.392805 0
M  V30 17001 C 1605.22 -1.7137 2.92263 0
M  V30 17002 C 1603.78 -2.23976 3.02509 0
M  V30 17003 C 1602.93 -1.05253 2.56548 0
M  V30 17004 H 1605.88 -0.143153 1.58053 0
M  V30 17005 H 1605.9 -2.575 2.80132 0
M  V30 17006 H 1605.41 -1.01395 3.74621 0
M  V30 17007 H 1603.51 -2.9719 2.24741 0
M  V30 17008 H 1603.62 -2.51777 4.07609 0
M  V30 17009 H 1601.99 -1.41986 2.11452 0
M  V30 17010 H 1602.77 -0.367744 3.41325 0
M  V30 17011 N 1605.22 -1.44709 -0.62426 0
M  V30 17012 C 1606.15 -1.54934 -1.74693 0
M  V30 17013 C 1607.13 -0.401897 -1.65284 0
M  V30 17014 O 1608.31 -0.622906 -1.83939 0
M  V30 17015 C 1605.44 -1.49976 -3.13248 0
M  V30 17016 C 1604.4 -2.63267 -3.37453 0
M  V30 17017 C 1603.72 -2.43362 -4.76108 0
M  V30 17018 C 1605.02 -4.0538 -3.2934 0
M  V30 17019 H 1606.72 -2.48905 -1.66393 0
M  V30 17020 H 1604.26 -1.19794 -0.799088 0
M  V30 17021 H 1606.22 -1.55729 -3.91569 0
M  V30 17022 H 1604.94 -0.525254 -3.22349 0
M  V30 17023 H 1603.6 -2.56915 -2.61515 0
M  V30 17024 H 1603.25 -1.44088 -4.81921 0
M  V30 17025 H 1602.95 -3.19324 -4.93261 0
M  V30 17026 H 1604.47 -2.50943 -5.56651 0
M  V30 17027 H 1605.88 -4.13064 -3.97556 0
M  V30 17028 H 1604.28 -4.81599 -3.58025 0
M  V30 17029 H 1605.35 -4.28465 -2.27038 0
M  V30 17030 N 1606.69 0.865285 -1.31722 0
M  V30 17031 C 1607.62 1.98871 -1.22362 0
M  V30 17032 C 1608.61 1.69745 -0.109779 0
M  V30 17033 O 1609.79 1.91944 -0.295167 0
M  V30 17034 C 1606.92 3.34477 -0.935 0
M  V30 17035 C 1605.87 3.77924 -2.00892 0
M  V30 17036 C 1605.2 5.11042 -1.57291 0
M  V30 17037 C 1606.5 3.94528 -3.42264 0
M  V30 17038 H 1608.19 2.06959 -2.16352 0
M  V30 17039 H 1605.74 0.994355 -1.04157 0
M  V30 17040 H 1607.69 4.12612 -0.856111 0
M  V30 17041 H 1606.42 3.26575 0.0405536 0
M  V30 17042 H 1605.08 3.02032 -2.07779 0
M  V30 17043 H 1604.72 4.99586 -0.585084 0
M  V30 17044 H 1604.42 5.41082 -2.29138 0
M  V30 17045 H 1605.95 5.91681 -1.50818 0
M  V30 17046 H 1607.36 4.63045 -3.38027 0
M  V30 17047 H 1605.76 4.35972 -4.12369 0
M  V30 17048 H 1606.83 2.97765 -3.82706 0
M  V30 17049 N 1608.17 1.14759 1.0802 0
M  V30 17050 C 1609.1 0.860977 2.17047 0
M  V30 17051 C 1610.08 -0.185652 1.69084 0
M  V30 17052 O 1611.27 -0.0414797 1.94156 0
M  V30 17053 C 1608.4 0.342018 3.45612 0
M  V30 17054 C 1607.35 1.32455 4.06989 0
M  V30 17055 C 1606.68 0.664721 5.30552 0
M  V30 17056 C 1607.98 2.68819 4.4781 0
M  V30 17057 H 1609.67 1.77269 2.4128 0
M  V30 17058 H 1607.22 0.853757 1.15961 0
M  V30 17059 H 1609.17 0.129093 4.21202 0
M  V30 17060 H 1607.9 -0.605138 3.20945 0
M  V30 17061 H 1606.55 1.52371 3.33435 0
M  V30 17062 H 1606.2 -0.288367 5.02173 0
M  V30 17063 H 1605.9 1.32036 5.72573 0
M  V30 17064 H 1607.43 0.461412 6.08854 0
M  V30 17065 H 1608.84 2.52787 5.14559 0
M  V30 17066 H 1607.24 3.30694 5.00761 0
M  V30 17067 H 1608.31 3.25398 3.59506 0
M  V30 17068 N 1609.65 -1.26251 0.943322 0
M  V30 17069 C 1611.06 -1.75591 0.634391 0
M  V30 17070 C 1611.41 -1.76812 -0.850406 0
M  V30 17071 O 1610.54 -1.38162 -1.66554 0
M  V30 17072 C 1611.13 -3.18871 1.14484 0
M  V30 17073 C 1609.69 -3.65817 0.886285 0
M  V30 17074 C 1608.84 -2.4523 1.2945 0
M  V30 17075 H 1611.79 -1.12297 1.12139 0
M  V30 17076 H 1611.81 -3.77205 0.499654 0
M  V30 17077 H 1611.32 -3.17951 2.22551 0
M  V30 17078 H 1609.42 -3.72165 -0.179913 0
M  V30 17079 H 1609.54 -4.54523 1.5148 0
M  V30 17080 H 1607.9 -2.44519 0.712919 0
M  V30 17081 H 1608.68 -2.47009 2.38415 0
M  V30 17082 N 1611.13 -0.710588 -1.40671 0
M  V30 17083 C 1612.55 -0.383638 -1.54921 0
M  V30 17084 C 1612.75 1.10805 -1.68299 0
M  V30 17085 O 1611.8 1.89406 -1.66978 0
M  V30 17086 C 1613.11 -1.14532 -2.78034 0
M  V30 17087 C 1614.66 -1.13113 -2.91847 0
M  V30 17088 C 1615.14 -1.87487 -4.17867 0
M  V30 17089 N 1616.63 -1.8453 -4.24856 0
M  V30 17090 C 1617.36 -2.38904 -5.2126 0
M  V30 17091 N 1616.86 -3.01813 -6.23603 0
M  V30 17092 N 1618.65 -2.29075 -5.13304 0
M  V30 17093 H 1610.8 -1.67789 -1.30233 0
M  V30 17094 H 1613.07 -0.70892 -0.629393 0
M  V30 17095 H 1612.77 -2.19983 -2.74409 0
M  V30 17096 H 1612.65 -0.733669 -3.69996 0
M  V30 17097 H 1615.03 -0.0848347 -2.94978 0
M  V30 17098 H 1615.11 -1.58196 -2.01017 0
M  V30 17099 H 1614.76 -2.92104 -4.15497 0
M  V30 17100 H 1614.69 -1.39827 -5.07697 0
M  V30 17101 H 1617.18 -1.38679 -3.51535 0
M  V30 17102 H 1617.49 -3.40832 -6.9358 0
M  V30 17103 H 1615.84 -3.05896 -6.24062 0
M  V30 17104 H 1619.03 -1.79589 -4.32279 0
M  V30 17105 H 1619.2 -2.71752 -5.88264 0
M  V30 17106 N 1612.61 1.50847 -0.456408 0
M  V30 17107 C 1613.56 2.29805 0.359529 0
M  V30 17108 C 1614.55 1.3646 1.00374 0
M  V30 17109 O 1615.76 1.53718 0.936524 0
M  V30 17110 H 1612.13 0.739825 0.134772 0
M  V30 17111 H 1614.1 2.96603 -0.327009 0
M  V30 17112 C 1612.85 3.16597 1.43741 0
M  V30 17113 H 1612.17 3.88323 0.95108 0
M  V30 17114 H 1613.61 3.74866 1.98119 0
M  V30 17115 C 1612.07 2.3322 2.43126 0
M  V30 17116 O 1612.6 2.00504 3.48082 0
M  V30 17117 N 1610.81 1.96078 2.1448 0
M  V30 17118 H 1610.36 2.22883 1.29155 0
M  V30 17119 H 1610.31 1.40592 2.81214 0
M  V30 17120 N 1614.09 0.188454 1.56469 0
M  V30 17121 C 1615.5 -0.167487 1.58719 0
M  V30 17122 C 1615.7 -1.61543 1.20442 0
M  V30 17123 O 1614.76 -2.34985 0.924041 0
M  V30 17124 C 1616.07 0.128854 3.00424 0
M  V30 17125 C 1617.62 0.0684301 3.12925 0
M  V30 17126 C 1618.09 0.337991 4.56751 0
M  V30 17127 N 1619.58 0.286373 4.62314 0
M  V30 17128 C 1620.32 0.468886 5.7148 0
M  V30 17129 N 1619.82 0.711388 6.89138 0
M  V30 17130 N 1621.61 0.403602 5.60649 0
M  V30 17131 H 1613.76 1.13339 1.79633 0
M  V30 17132 H 1616.02 0.451885 0.833369 0
M  V30 17133 H 1615.73 1.13255 3.32966 0
M  V30 17134 H 1615.6 -0.571644 3.72843 0
M  V30 17135 H 1617.99 -0.925864 2.802 0
M  V30 17136 H 1618.07 0.801903 2.42906 0
M  V30 17137 H 1617.71 1.32957 4.90189 0
M  V30 17138 H 1617.64 -0.416293 5.24952 0
M  V30 17139 H 1620.14 0.105286 3.77753 0
M  V30 17140 H 1620.45 0.839643 7.68225 0
M  V30 17141 H 1618.79 0.748205 6.90961 0
M  V30 17142 H 1621.98 0.214616 4.67608 0
M  V30 17143 H 1622.16 0.549261 6.45668 0
M  V30 17144 N 1615.56 -1.5737 -0.0851874 0
M  V30 17145 C 1616.5 -1.99462 -1.12905 0
M  V30 17146 C 1617.51 -0.898597 -1.35754 0
M  V30 17147 O 1618.7 -1.17662 -1.34231 0
M  V30 17148 C 1615.8 -2.30689 -2.48266 0
M  V30 17149 C 1614.97 -3.61967 -2.45557 0
M  V30 17150 C 1614.03 -3.81017 -3.62922 0
M  V30 17151 O 1613.06 -4.52759 -3.44961 0
M  V30 17152 N 1614.26 -3.22348 -4.82775 0
M  V30 17153 H 1617.02 -2.89621 -0.7707 0
M  V30 17154 H 1614.58 -1.59564 -0.274033 0
M  V30 17155 H 1616.58 -2.40618 -3.254 0
M  V30 17156 H 1615.15 -1.46488 -2.76152 0
M  V30 17157 H 1614.37 -3.62916 -1.539 0
M  V30 17158 H 1615.65 -4.48191 -2.40836 0
M  V30 17159 H 1615.05 -2.64093 -5.00271 0
M  V30 17160 H 1613.61 -3.37747 -5.57468 0
M  V30 17161 N 1617.04 0.356258 -1.53521 0
M  V30 17162 C 1618.29 1.09526 -1.69372 0
M  V30 17163 C 1618.6 1.90189 -0.456912 0
M  V30 17164 O 1619.81 2.66928 -0.496141 0
M  V30 17165 C 1618.27 1.99643 -2.99451 0
M  V30 17166 C 1617.87 1.24248 -4.30426 0
M  V30 17167 C 1619.62 2.73478 -3.24669 0
M  V30 17168 C 1617.52 2.13321 -5.51587 0
M  V30 17169 H 1616.45 0.412594 -0.631096 0
M  V30 17170 H 1619.11 0.355603 -1.80021 0
M  V30 17171 H 1617.49 2.77377 -2.82627 0
M  V30 17172 H 1618.66 0.515123 -4.57912 0
M  V30 17173 H 1616.98 0.622355 -4.11723 0
M  V30 17174 H 1619.57 3.40366 -4.12377 0
M  V30 17175 H 1619.92 3.39355 -2.4113 0
M  V30 17176 H 1620.45 2.02823 -3.4221 0
M  V30 17177 H 1617.19 1.52006 -6.37632 0
M  V30 17178 H 1616.71 2.8388 -5.28368 0
M  V30 17179 H 1618.39 2.72666 -5.86739 0
M  V30 17180 N 1618.52 1.45038 0.616577 0
M  V30 17181 C 1619.75 1.51874 1.40064 0
M  V30 17182 C 1620.16 0.147105 1.88627 0
M  V30 17183 O 1619.5 -0.85995 1.62329 0
M  V30 17184 C 1619.56 2.43421 2.64549 0
M  V30 17185 C 1619.23 3.90326 2.37685 0
M  V30 17186 C 1620.22 4.80471 1.98605 0
M  V30 17187 C 1617.91 4.35163 2.50875 0
M  V30 17188 C 1619.9 6.13456 1.73064 0
M  V30 17189 C 1617.59 5.68192 2.24947 0
M  V30 17190 C 1618.59 6.57157 1.86102 0
M  V30 17191 O 1618.28 7.87721 1.60472 0
M  V30 17192 H 1618.01 0.517048 0.435474 0
M  V30 17193 H 1620.56 1.90826 0.759899 0
M  V30 17194 H 1618.79 1.99423 3.31312 0
M  V30 17195 H 1620.48 2.41042 3.26579 0
M  V30 17196 H 1621.25 4.47098 1.87959 0
M  V30 17197 H 1617.13 3.66165 2.80078 0
M  V30 17198 H 1620.67 6.82855 1.42669 0
M  V30 17199 H 1616.57 6.01122 2.35207 0
M  V30 17200 H 1617.33 7.99661 1.74598 0
M  V30 17201 N 1620 -0.858287 1.32179 0
M  V30 17202 C 1620.91 -1.99894 1.228 0
M  V30 17203 C 1621.92 -1.73417 0.142323 0
M  V30 17204 O 1623.1 -1.98114 0.362321 0
M  V30 17205 C 1620.16 -3.33495 0.947745 0
M  V30 17206 C 1619.23 -3.73217 2.12149 0
M  V30 17207 C 1618.46 -5.00443 1.85452 0
M  V30 17208 O 1618.68 -5.64828 0.79531 0
M  V30 17209 O 1617.62 -5.3721 2.71457 0
M  V30 17210 H 1621.44 -2.10742 2.18682 0
M  V30 17211 H 1619.03 -0.988385 1.12033 0
M  V30 17212 H 1620.91 -4.13585 0.807791 0
M  V30 17213 H 1619.58 -3.23694 0.019053 0
M  V30 17214 H 1618.49 -2.93718 2.3169 0
M  V30 17215 H 1619.82 -3.87659 3.03285 0
M  V30 17216 N 1621.48 -1.1533 -1.07409 0
M  V30 17217 C 1622.43 -0.81798 -2.12822 0
M  V30 17218 C 1623.41 0.1975 -1.59683 0
M  V30 17219 O 1624.6 -0.00166798 -1.77 0
M  V30 17220 C 1621.73 -0.308356 -3.41912 0
M  V30 17221 C 1620.82 -1.35396 -4.01906 0
M  V30 17222 N 1621.21 -2.5611 -4.36167 0
M  V30 17223 C 1619.51 -1.20656 -4.29369 0
M  V30 17224 C 1620.21 -3.23124 -4.837 0
M  V30 17225 N 1619.18 -2.50513 -4.82436 0
M  V30 17226 H 1622.98 -1.73611 -2.37143 0
M  V30 17227 H 1620.5 -1.03867 -1.24842 0
M  V30 17228 H 1622.5 -0.0497865 -4.1687 0
M  V30 17229 H 1621.16 0.60384 -3.19036 0
M  V30 17230 H 1622.17 -2.93258 -4.26873 0
M  V30 17231 H 1618.84 -0.354208 -4.15995 0
M  V30 17232 H 1620.23 -4.26103 -5.19505 0
M  V30 17233 N 1622.95 1.25748 -0.950004 0
M  V30 17234 C 1623.9 2.28056 -0.457542 0
M  V30 17235 C 1624.9 1.62756 0.469776 0
M  V30 17236 O 1626.1 1.76623 0.347016 0
M  V30 17237 H 1622.48 0.740775 -0.129447 0
M  V30 17238 H 1624.45 2.66984 -1.33275 0
M  V30 17239 C 1623.2 3.46774 0.2536 0
M  V30 17240 H 1622.52 3.9725 -0.450808 0
M  V30 17241 H 1623.96 4.20255 0.562264 0
M  V30 17242 C 1622.42 3.02919 1.4745 0
M  V30 17243 O 1622.95 3.08527 2.57243 0
M  V30 17244 N 1621.15 2.58162 1.33419 0
M  V30 17245 H 1620.7 2.53799 0.440894 0
M  V30 17246 H 1620.66 2.29184 2.15226 0
M  V30 17247 N 1624.43 0.718038 1.40292 0
M  V30 17248 C 1625.34 0.0681535 2.34501 0
M  V30 17249 C 1626.36 -0.741048 1.57431 0
M  V30 17250 O 1627.53 -0.673437 1.89807 0
M  V30 17251 C 1624.6 -0.840758 3.36351 0
M  V30 17252 C 1623.66 -0.0212287 4.29295 0
M  V30 17253 C 1622.89 -0.886852 5.2628 0
M  V30 17254 O 1623.12 -2.12603 5.29298 0
M  V30 17255 O 1622.05 -0.324537 6.01024 0
M  V30 17256 H 1625.88 0.845288 2.91699 0
M  V30 17257 H 1623.46 0.478541 1.41529 0
M  V30 17258 H 1625.34 -1.36131 3.98806 0
M  V30 17259 H 1624.02 -1.597 2.81563 0
M  V30 17260 H 1622.92 0.544451 3.70117 0
M  V30 17261 H 1624.26 0.696846 4.87242 0
M  V30 17262 N 1625.91 -1.50602 0.464402 0
M  V30 17263 C 1626.87 -2.26929 -0.32185 0
M  V30 17264 C 1627.87 -1.3144 -0.926289 0
M  V30 17265 O 1629.06 -1.54924 -0.796511 0
M  V30 17266 C 1626.2 -3.08155 -1.45785 0
M  V30 17267 H 1627.39 -2.97881 0.347436 0
M  V30 17268 H 1624.94 -1.54768 0.218278 0
M  V30 17269 H 1625.68 -2.41684 -2.16239 0
M  V30 17270 H 1625.46 -3.78321 -1.03031 0
M  V30 17271 H 1626.95 -3.65899 -2.01266 0
M  V30 17272 N 1627.39 -0.19675 -1.56367 0
M  V30 17273 C 1628.35 0.709734 -2.17934 0
M  V30 17274 C 1629.35 1.13979 -1.13426 0
M  V30 17275 O 1630.54 1.05261 -1.38801 0
M  V30 17276 C 1627.67 1.96917 -2.78274 0
M  V30 17277 H 1628.87 0.173342 -2.99399 0
M  V30 17278 H 1626.42 0.0528698 -1.56211 0
M  V30 17279 H 1627.15 2.54804 -2.00613 0
M  V30 17280 H 1626.94 1.66951 -3.54781 0
M  V30 17281 H 1628.43 2.61554 -3.25545 0
M  V30 17282 N 1628.87 1.57413 0.0768405 0
M  V30 17283 C 1629.8 2.06378 1.09226 0
M  V30 17284 C 1630.78 0.956269 1.40675 0
M  V30 17285 O 1631.96 1.22868 1.5039 0
M  V30 17286 C 1629.09 2.50349 2.40712 0
M  V30 17287 C 1628.05 3.64931 2.23628 0
M  V30 17288 C 1627.37 3.9494 3.60453 0
M  V30 17289 C 1628.67 4.95162 1.66169 0
M  V30 17290 H 1630.37 2.91463 0.684827 0
M  V30 17291 H 1627.91 1.40215 0.327974 0
M  V30 17292 H 1629.87 2.83216 3.12036 0
M  V30 17293 H 1628.59 1.62287 2.83426 0
M  V30 17294 H 1627.25 3.32339 1.54747 0
M  V30 17295 H 1626.9 3.04016 4.00728 0
M  V30 17296 H 1626.6 4.72091 3.49863 0
M  V30 17297 H 1628.12 4.30299 4.33215 0
M  V30 17298 H 1629.53 5.26292 2.27353 0
M  V30 17299 H 1627.93 5.76601 1.66289 0
M  V30 17300 H 1629 4.80885 0.62271 0
M  V30 17301 N 1630.34 -0.348112 1.53707 0
M  V30 17302 C 1631.59 -1.08886 1.70734 0
M  V30 17303 C 1631.92 -1.88782 0.468142 0
M  V30 17304 O 1631.17 -1.8781 -0.550081 0
M  V30 17305 C 1631.47 -2.06123 2.91973 0
M  V30 17306 C 1631.14 -1.42574 4.27766 0
M  V30 17307 C 1629.8 -1.24971 4.64689 0
M  V30 17308 C 1632.15 -0.967538 5.12141 0
M  V30 17309 C 1629.48 -0.601597 5.83607 0
M  V30 17310 C 1631.83 -0.33335 6.31721 0
M  V30 17311 C 1630.5 -0.144967 6.67343 0
M  V30 17312 H 1629.77 -0.398444 0.624759 0
M  V30 17313 H 1632.41 -0.368657 1.87918 0
M  V30 17314 H 1630.72 -2.84509 2.69373 0
M  V30 17315 H 1632.42 -2.63423 3.0234 0
M  V30 17316 H 1629.01 -1.57271 3.98702 0
M  V30 17317 H 1633.19 -1.0914 4.84151 0
M  V30 17318 H 1628.45 -0.444216 6.09784 0
M  V30 17319 H 1632.62 0.0298081 6.96394 0
M  V30 17320 H 1630.25 0.359291 7.5935 0
M  V30 17321 N 1631.82 -1.45363 -0.608876 0
M  V30 17322 C 1632.76 -1.48425 -1.73336 0
M  V30 17323 C 1633.73 -0.340757 -1.58989 0
M  V30 17324 O 1634.92 -0.541066 -1.80568 0
M  V30 17325 C 1632.04 -1.33807 -3.11149 0
M  V30 17326 C 1631.09 -2.52005 -3.44087 0
M  V30 17327 S 1631.92 -4.14477 -3.39071 0
M  V30 17328 C 1633.08 -4.02321 -4.79467 0
M  V30 17329 H 1633.31 -2.43568 -1.70475 0
M  V30 17330 H 1630.85 -1.32931 -0.785418 0
M  V30 17331 H 1632.8 -1.2606 -3.90665 0
M  V30 17332 H 1631.46 -0.401365 -3.11525 0
M  V30 17333 H 1630.66 -2.37699 -4.44427 0
M  V30 17334 H 1630.26 -2.56606 -2.72083 0
M  V30 17335 H 1632.55 -3.67386 -5.6924 0
M  V30 17336 H 1633.49 -5.02569 -4.98829 0
M  V30 17337 H 1633.9 -3.34 -4.55087 0
M  V30 17338 N 1633.3 0.851265 -1.32632 0
M  V30 17339 C 1634.58 1.58945 -1.13999 0
M  V30 17340 C 1634.96 2.08981 0.29836 0
M  V30 17341 O 1634.31 1.88226 1.2955 0
M  V30 17342 C 1634.52 2.73296 -2.17049 0
M  V30 17343 C 1635.86 3.42791 -2.50559 0
M  V30 17344 O 1636.89 2.83524 -2.15621 0
M  V30 17345 O 1635.75 4.49749 -3.10464 0
M  V30 17346 H 1632.84 0.700157 -0.440124 0
M  V30 17347 H 1635.39 0.895098 -1.44174 0
M  V30 17348 H 1634.16 2.33873 -3.13718 0
M  V30 17349 H 1633.78 3.50405 -1.87888 0
M  V30 17350 N 1634.78 1.15898 1.06796 0
M  V30 17351 C 1635.73 0.829255 2.12385 0
M  V30 17352 C 1636.71 -0.189029 1.59786 0
M  V30 17353 O 1637.9 0.0110547 1.76997 0
M  V30 17354 C 1635.03 0.326484 3.41744 0
M  V30 17355 C 1634.12 1.37525 4.01183 0
M  V30 17356 N 1634.51 2.58419 4.34802 0
M  V30 17357 C 1632.81 1.22931 4.28724 0
M  V30 17358 C 1633.51 3.25684 4.8198 0
M  V30 17359 N 1632.49 2.53068 4.811 0
M  V30 17360 H 1636.29 1.74866 2.36218 0
M  V30 17361 H 1633.8 1.04527 1.24289 0
M  V30 17362 H 1635.8 0.0718935 4.16838 0
M  V30 17363 H 1634.46 -0.586913 3.19352 0
M  V30 17364 H 1635.47 2.95518 4.25311 0
M  V30 17365 H 1632.15 0.376264 4.15801 0
M  V30 17366 H 1633.54 4.28852 5.17238 0
M  V30 17367 N 1636.26 -1.25243 0.956659 0
M  V30 17368 C 1637.48 -1.97621 0.629337 0
M  V30 17369 C 1637.91 -1.70606 -0.792158 0
M  V30 17370 O 1637.26 -0.963192 -1.53598 0
M  V30 17371 C 1637.31 -3.49273 0.896687 0
M  V30 17372 O 1636.42 -4.12393 -0.0234986 0
M  V30 17373 H 1635.76 -0.619472 0.239061 0
M  V30 17374 H 1638.29 -1.5931 1.28381 0
M  V30 17375 H 1638.3 -3.99597 0.82377 0
M  V30 17376 H 1636.97 -3.68265 1.93271 0
M  V30 17377 H 1635.55 -3.72761 0.101796 0
M  V30 17378 N 1637.73 -0.725468 -1.3991 0
M  V30 17379 C 1638.98 -0.268719 -2.00306 0
M  V30 17380 C 1639.3 1.14511 -1.57836 0
M  V30 17381 O 1638.57 1.77808 -0.822263 0
M  V30 17382 H 1637.15 -0.0963614 -0.740759 0
M  V30 17383 H 1639.82 -0.933303 -1.71101 0
M  V30 17384 H 1638.91 -0.309587 -3.10561 0
M  V30 17385 N 1639.21 1.50354 -0.472382 0
M  V30 17386 C 1640.15 2.25227 0.367135 0
M  V30 17387 C 1641.12 1.28594 0.99511 0
M  V30 17388 O 1642.31 1.57819 1.03079 0
M  V30 17389 C 1639.43 3.02952 1.51452 0
M  V30 17390 C 1638.48 4.14519 1.0038 0
M  V30 17391 S 1639.31 5.35436 -0.082542 0
M  V30 17392 C 1640.47 6.16709 1.06869 0
M  V30 17393 H 1640.7 2.96086 -0.268437 0
M  V30 17394 H 1638.24 1.52241 -0.257282 0
M  V30 17395 H 1640.19 3.48324 2.17212 0
M  V30 17396 H 1638.85 2.31617 2.12161 0
M  V30 17397 H 1638.05 4.68311 1.86282 0
M  V30 17398 H 1637.65 3.7159 0.423896 0
M  V30 17399 H 1639.94 6.4792 1.98004 0
M  V30 17400 H 1640.88 7.05802 0.570008 0
M  V30 17401 H 1641.29 5.48775 1.3231 0
M  V30 17402 N 1640.69 0.205039 1.56261 0
M  V30 17403 C 1641.62 -0.706815 2.22545 0
M  V30 17404 C 1642.6 -1.21372 1.19176 0
M  V30 17405 O 1643.79 -1.26074 1.47712 0
M  V30 17406 C 1640.92 -1.92221 2.89255 0
M  V30 17407 C 1639.87 -1.54982 3.98954 0
M  V30 17408 C 1639.2 -2.84265 4.52877 0
M  V30 17409 C 1640.5 -0.75225 5.16854 0
M  V30 17410 H 1642.19 -0.15421 2.99003 0
M  V30 17411 H 1639.74 -0.0727309 1.43816 0
M  V30 17412 H 1641.69 -2.56542 3.34311 0
M  V30 17413 H 1640.41 -2.49952 2.10218 0
M  V30 17414 H 1639.07 -0.930155 3.54604 0
M  V30 17415 H 1638.72 -3.40105 3.70591 0
M  V30 17416 H 1638.42 -2.60089 5.26904 0
M  V30 17417 H 1639.95 -3.49557 5.00642 0
M  V30 17418 H 1641.36 -1.29878 5.58395 0
M  V30 17419 H 1639.76 -0.60823 5.9701 0
M  V30 17420 H 1640.83 0.24463 4.84283 0
M  V30 17421 N 1642.17 -1.57451 -0.0684915 0
M  V30 17422 C 1643.42 -1.87689 -0.768156 0
M  V30 17423 C 1643.75 -0.79776 -1.77058 0
M  V30 17424 O 1643.02 0.191614 -1.93554 0
M  V30 17425 C 1643.31 -3.28587 -1.47319 0
M  V30 17426 C 1643.16 -4.47156 -0.486954 0
M  V30 17427 C 1644.48 -3.67772 -2.41727 0
M  V30 17428 H 1641.6 -0.682642 -0.277793 0
M  V30 17429 H 1644.24 -1.89974 -0.0312968 0
M  V30 17430 H 1642.39 -3.26769 -2.10129 0
M  V30 17431 H 1644.06 -4.61099 0.136189 0
M  V30 17432 H 1642.3 -4.33351 0.197429 0
M  V30 17433 H 1642.98 -5.42533 -1.01795 0
M  V30 17434 H 1645.45 -3.70704 -1.88992 0
M  V30 17435 H 1644.33 -4.6724 -2.88059 0
M  V30 17436 H 1644.59 -2.97882 -3.26679 0
M  V30 17437 N 1643.65 0.339955 -1.5389 0
M  V30 17438 C 1644.58 1.44096 -1.76951 0
M  V30 17439 C 1645.56 1.50367 -0.618758 0
M  V30 17440 O 1646.74 1.68028 -0.854329 0
M  V30 17441 C 1643.87 2.82307 -1.87137 0
M  V30 17442 C 1642.92 2.93645 -3.09314 0
M  V30 17443 S 1643.75 2.59742 -4.68288 0
M  V30 17444 C 1644.9 4.00055 -4.81359 0
M  V30 17445 H 1645.14 1.24318 -2.7006 0
M  V30 17446 H 1642.67 0.535835 -1.44804 0
M  V30 17447 H 1644.63 3.61931 -1.93692 0
M  V30 17448 H 1643.29 2.99378 -0.950349 0
M  V30 17449 H 1642.48 3.94927 -3.13127 0
M  V30 17450 H 1642.08 2.21974 -3.01004 0
M  V30 17451 H 1644.38 4.94619 -4.62989 0
M  V30 17452 H 1645.32 4.01234 -5.83452 0
M  V30 17453 H 1645.73 3.88248 -4.09785 0
M  V30 17454 N 1645.13 1.45684 0.601159 0
M  V30 17455 C 1646.06 1.57694 1.72206 0
M  V30 17456 C 1647.04 0.428141 1.64624 0
M  V30 17457 O 1648.22 0.65209 1.82925 0
M  V30 17458 C 1645.35 1.54941 3.10822 0
M  V30 17459 C 1644.31 2.68603 3.33222 0
M  V30 17460 C 1643.63 2.50906 4.72176 0
M  V30 17461 C 1644.93 4.10568 3.22849 0
M  V30 17462 H 1646.63 2.51521 1.62412 0
M  V30 17463 H 1644.17 1.2105 0.779929 0
M  V30 17464 H 1646.12 1.61939 3.89042 0
M  V30 17465 H 1644.85 0.576471 3.21472 0
M  V30 17466 H 1643.51 2.61043 2.57394 0
M  V30 17467 H 1643.16 1.51736 4.79568 0
M  V30 17468 H 1642.86 3.27131 4.88118 0
M  V30 17469 H 1644.38 2.59767 5.52588 0
M  V30 17470 H 1645.79 4.19336 3.90935 0
M  V30 17471 H 1644.19 4.87234 3.50318 0
M  V30 17472 H 1645.26 4.32022 2.20192 0
M  V30 17473 N 1646.6 -0.84422 1.33082 0
M  V30 17474 C 1648.01 -1.41526 1.21767 0
M  V30 17475 C 1648.37 -1.955 -0.165606 0
M  V30 17476 O 1647.49 -1.88384 -1.06492 0
M  V30 17477 C 1648.09 -2.57266 2.20454 0
M  V30 17478 C 1646.64 -3.10339 2.12995 0
M  V30 17479 C 1645.79 -1.83119 2.08237 0
M  V30 17480 H 1648.74 -0.650452 1.44758 0
M  V30 17481 H 1648.76 -3.34739 1.80914 0
M  V30 17482 H 1648.28 -2.17952 3.21121 0
M  V30 17483 H 1646.38 -3.5421 1.15612 0
M  V30 17484 H 1646.49 -3.70875 3.03296 0
M  V30 17485 H 1644.85 -2.03148 1.53632 0
M  V30 17486 H 1645.64 -1.46009 3.10703 0
M  V30 17487 N 1648.08 -1.16463 -1.0618 0
M  V30 17488 C 1649.33 -0.946846 -1.79 0
M  V30 17489 C 1649.66 0.525259 -1.87273 0
M  V30 17490 O 1648.91 1.40584 -1.36142 0
M  V30 17491 C 1649.21 -1.52085 -3.23427 0
M  V30 17492 C 1648.88 -3.01547 -3.35232 0
M  V30 17493 C 1647.54 -3.42346 -3.38161 0
M  V30 17494 C 1649.89 -3.97543 -3.37059 0
M  V30 17495 C 1647.22 -4.77759 -3.40534 0
M  V30 17496 C 1649.57 -5.32843 -3.4097 0
M  V30 17497 C 1648.23 -5.73121 -3.42182 0
M  V30 17498 H 1647.5 -0.346475 -0.655008 0
M  V30 17499 H 1650.15 -1.45195 -1.24862 0
M  V30 17500 H 1648.46 -0.937212 -3.80426 0
M  V30 17501 H 1650.15 -1.32801 -3.78371 0
M  V30 17502 H 1646.74 -2.69017 -3.33658 0
M  V30 17503 H 1650.93 -3.67088 -3.34006 0
M  V30 17504 H 1646.18 -5.08293 -3.39777 0
M  V30 17505 H 1650.36 -6.07014 -3.41332 0
M  V30 17506 H 1647.98 -6.78029 -3.43774 0
M  V30 17507 N 1649.56 1.24734 -0.963288 0
M  V30 17508 C 1650.84 1.88004 -0.539809 0
M  V30 17509 C 1651.22 1.86814 0.983035 0
M  V30 17510 O 1650.56 1.33769 1.85251 0
M  V30 17511 C 1650.77 3.30326 -1.1263 0
M  V30 17512 C 1652.12 4.07039 -1.20848 0
M  V30 17513 O 1653.15 3.3948 -1.07849 0
M  V30 17514 O 1652.01 5.27906 -1.41342 0
M  V30 17515 H 1649.1 0.807318 -0.17935 0
M  V30 17516 H 1651.65 1.3274 -1.05727 0
M  V30 17517 H 1650.42 3.25668 -2.16925 0
M  V30 17518 H 1650.04 3.93159 -0.592614 0
M  V30 17519 N 1651.04 0.732878 1.39523 0
M  V30 17520 C 1651.97 0.106583 2.33257 0
M  V30 17521 C 1652.95 -0.726582 1.53801 0
M  V30 17522 O 1654.13 -0.671994 1.82203 0
M  V30 17523 C 1651.26 -0.803051 3.37888 0
M  V30 17524 C 1650.22 -0.0742048 4.27936 0
M  V30 17525 C 1649.54 -1.10071 5.23248 0
M  V30 17526 C 1650.84 1.08195 5.10971 0
M  V30 17527 H 1652.54 0.889539 2.8588 0
M  V30 17528 H 1650.08 0.429209 1.37455 0
M  V30 17529 H 1652.04 -1.25071 4.02412 0
M  V30 17530 H 1650.76 -1.6181 2.83699 0
M  V30 17531 H 1649.42 0.35381 3.64889 0
M  V30 17532 H 1649.07 -1.90927 4.65356 0
M  V30 17533 H 1648.77 -0.617825 5.84343 0
M  V30 17534 H 1650.29 -1.54812 5.90649 0
M  V30 17535 H 1651.71 0.712835 5.68851 0
M  V30 17536 H 1650.1 1.49433 5.81197 0
M  V30 17537 H 1651.17 1.90463 4.45928 0
M  V30 17538 N 1652.52 -1.50101 0.480349 0
M  V30 17539 C 1653.93 -1.59028 0.135048 0
M  V30 17540 C 1654.13 -1.48763 -1.35911 0
M  V30 17541 O 1653.19 -1.35089 -2.13324 0
M  V30 17542 C 1654.5 -2.92594 0.693483 0
M  V30 17543 C 1656.05 -3.06011 0.657737 0
M  V30 17544 C 1656.52 -4.42166 1.19388 0
M  V30 17545 N 1658.01 -4.48603 1.15368 0
M  V30 17546 C 1658.75 -5.52363 1.53893 0
M  V30 17547 N 1658.25 -6.6333 1.99911 0
M  V30 17548 N 1660.04 -5.42959 1.45438 0
M  V30 17549 H 1652.19 -1.55017 1.45202 0
M  V30 17550 H 1654.45 -0.733118 0.601034 0
M  V30 17551 H 1654.16 -3.0561 1.74056 0
M  V30 17552 H 1654.03 -3.76932 0.142238 0
M  V30 17553 H 1656.42 -2.92637 -0.38045 0
M  V30 17554 H 1656.5 -2.23408 1.24589 0
M  V30 17555 H 1656.14 -4.5629 2.23074 0
M  V30 17556 H 1656.07 -5.23376 0.58185 0
M  V30 17557 H 1658.57 -3.68979 0.816271 0
M  V30 17558 H 1658.88 -7.38576 2.27431 0
M  V30 17559 H 1657.22 -6.64426 2.03871 0
M  V30 17560 H 1660.41 -4.55156 1.09321 0
M  V30 17561 H 1660.59 -6.23701 1.75786 0
M  V30 17562 N 1653.99 -0.213323 -1.5615 0
M  V30 17563 C 1655.24 0.420909 -1.97259 0
M  V30 17564 C 1655.56 1.61483 -1.10375 0
M  V30 17565 O 1656.76 2.31804 -1.41347 0
M  V30 17566 C 1655.22 0.800243 -3.5089 0
M  V30 17567 C 1654.83 -0.370405 -4.46466 0
M  V30 17568 C 1656.57 1.40054 -4.00731 0
M  V30 17569 C 1654.48 0.0309052 -5.91392 0
M  V30 17570 H 1653.41 0.16103 -0.736604 0
M  V30 17571 H 1656.06 -0.308232 -1.80893 0
M  V30 17572 H 1654.44 1.58657 -3.62828 0
M  V30 17573 H 1655.61 -1.14796 -4.46272 0
M  V30 17574 H 1653.93 -0.883391 -4.06922 0
M  V30 17575 H 1656.53 1.71355 -5.06499 0
M  V30 17576 H 1656.87 2.31345 -3.461 0
M  V30 17577 H 1657.4 0.677813 -3.91983 0
M  V30 17578 H 1654.14 -0.848284 -6.49988 0
M  V30 17579 H 1653.66 0.772941 -5.94799 0
M  V30 17580 H 1655.34 0.460441 -6.4536 0
M  V30 17581 N 1655.47 1.57485 0.0601405 0
M  V30 17582 C 1656.88 1.76433 0.610583 0
M  V30 17583 C 1657.23 0.840353 1.77292 0
M  V30 17584 O 1656.36 0.0273238 2.16383 0
M  V30 17585 C 1656.95 3.19947 1.11441 0
M  V30 17586 C 1655.51 3.402 1.61062 0
M  V30 17587 C 1654.66 2.72089 0.535055 0
M  V30 17588 H 1657.61 1.57829 -0.166062 0
M  V30 17589 H 1657.63 3.24749 1.98288 0
M  V30 17590 H 1657.14 3.87172 0.268233 0
M  V30 17591 H 1655.25 2.78106 2.47967 0
M  V30 17592 H 1655.36 4.48696 1.67954 0
M  V30 17593 H 1653.72 2.34972 0.982855 0
M  V30 17594 H 1654.51 3.41977 -0.301135 0
M  V30 17595 N 1656.95 -0.331789 1.54068 0
M  V30 17596 C 1658.2 -1.07069 1.71879 0
M  V30 17597 C 1658.53 -1.88275 0.488139 0
M  V30 17598 O 1657.78 -1.88383 -0.53013 0
M  V30 17599 C 1658.08 -2.03015 2.94142 0
M  V30 17600 C 1657.75 -1.38029 4.29254 0
M  V30 17601 C 1656.41 -1.20036 4.65988 0
M  V30 17602 C 1658.76 -0.913164 5.13138 0
M  V30 17603 C 1656.09 -0.539664 5.84213 0
M  V30 17604 C 1658.44 -0.266329 6.32039 0
M  V30 17605 C 1657.1 -0.0741787 6.67459 0
M  V30 17606 H 1656.37 -0.391795 0.62895 0
M  V30 17607 H 1659.02 -0.348705 1.88298 0
M  V30 17608 H 1657.33 -2.81636 2.72375 0
M  V30 17609 H 1659.02 -2.60201 3.05117 0
M  V30 17610 H 1655.61 -1.53034 4.00348 0
M  V30 17611 H 1659.8 -1.03999 4.85281 0
M  V30 17612 H 1655.05 -0.379516 6.10221 0
M  V30 17613 H 1659.23 0.103668 6.96323 0
M  V30 17614 H 1656.85 0.43981 7.58927 0
M  V30 17615 N 1658.43 -1.46001 -0.593424 0
M  V30 17616 C 1659.39 -1.55347 -1.68523 0
M  V30 17617 C 1660.39 -0.431599 -1.549 0
M  V30 17618 O 1661.58 -0.695559 -1.59711 0
M  V30 17619 C 1658.71 -1.46355 -3.07885 0
M  V30 17620 H 1659.91 -2.52639 -1.61597 0
M  V30 17621 H 1657.46 -1.33652 -0.810363 0
M  V30 17622 H 1658.19 -0.503024 -3.20375 0
M  V30 17623 H 1657.98 -2.27741 -3.19181 0
M  V30 17624 H 1659.47 -1.55958 -3.87385 0
M  V30 17625 N 1659.91 0.83715 -1.33527 0
M  V30 17626 C 1661.32 1.12809 -1.12899 0
M  V30 17627 C 1661.52 2.01345 0.0789761 0
M  V30 17628 O 1660.58 2.40831 0.758732 0
M  V30 17629 C 1661.89 1.78852 -2.41728 0
M  V30 17630 C 1663.44 1.91411 -2.47651 0
M  V30 17631 C 1663.91 2.6087 -3.76445 0
M  V30 17632 N 1665.41 2.68381 -3.77526 0
M  V30 17633 C 1666.14 3.22819 -4.73894 0
M  V30 17634 N 1665.64 3.77931 -5.80638 0
M  V30 17635 N 1667.43 3.21087 -4.61367 0
M  V30 17636 H 1659.58 0.247942 -2.10948 0
M  V30 17637 H 1661.84 0.172518 -0.93217 0
M  V30 17638 H 1661.55 1.21258 -3.30135 0
M  V30 17639 H 1661.42 2.78856 -2.54006 0
M  V30 17640 H 1663.81 2.48159 -1.59691 0
M  V30 17641 H 1663.89 0.903512 -2.39312 0
M  V30 17642 H 1663.54 2.0478 -4.64787 0
M  V30 17643 H 1663.47 3.62404 -3.82061 0
M  V30 17644 H 1665.96 2.29301 -3.00382 0
M  V30 17645 H 1666.27 4.17678 -6.50204 0
M  V30 17646 H 1664.61 3.76214 -5.8437 0
M  V30 17647 H 1667.81 2.7729 -3.77131 0
M  V30 17648 H 1667.98 3.6321 -5.3664 0
M  V30 17649 N 1661.38 1.17024 1.05561 0
M  V30 17650 C 1662.61 0.979328 1.81914 0
M  V30 17651 C 1663.02 -0.475688 1.83122 0
M  V30 17652 O 1662.37 -1.34205 1.25438 0
M  V30 17653 C 1662.43 1.4391 3.29439 0
M  V30 17654 C 1662.09 2.9155 3.5192 0
M  V30 17655 C 1663.09 3.89509 3.44353 0
M  V30 17656 C 1660.77 3.2964 3.79003 0
M  V30 17657 C 1662.77 5.23557 3.63548 0
M  V30 17658 C 1660.45 4.63855 3.97846 0
M  V30 17659 C 1661.45 5.60623 3.90117 0
M  V30 17660 O 1661.14 6.92411 4.08439 0
M  V30 17661 H 1660.87 0.34689 0.58021 0
M  V30 17662 H 1663.43 1.55641 1.34034 0
M  V30 17663 H 1661.66 0.805555 3.78216 0
M  V30 17664 H 1663.35 1.21445 3.87306 0
M  V30 17665 H 1664.11 3.61428 3.23412 0
M  V30 17666 H 1659.99 2.54891 3.84124 0
M  V30 17667 H 1663.53 5.99074 3.5743 0
M  V30 17668 H 1659.43 4.91644 4.18278 0
M  V30 17669 H 1660.2 6.99095 4.25685 0
M  V30 17670 N 1662.86 -1.24221 0.969889 0
M  V30 17671 C 1664.11 -1.92638 0.633913 0
M  V30 17672 C 1664.44 -1.75612 -0.829092 0
M  V30 17673 O 1663.72 -1.11057 -1.59677 0
M  V30 17674 C 1664 -3.45583 1.01213 0
M  V30 17675 C 1663.85 -3.71766 2.53199 0
M  V30 17676 C 1665.17 -4.36671 0.548294 0
M  V30 17677 H 1662.29 -0.699608 0.231772 0
M  V30 17678 H 1664.93 -1.46548 1.20929 0
M  V30 17679 H 1663.08 -3.8497 0.522531 0
M  V30 17680 H 1664.75 -3.41925 3.09653 0
M  V30 17681 H 1663 -3.16842 2.963 0
M  V30 17682 H 1663.67 -4.78787 2.74713 0
M  V30 17683 H 1666.14 -4.04672 0.968489 0
M  V30 17684 H 1665.02 -5.42412 0.841472 0
M  V30 17685 H 1665.28 -4.38646 -0.551588 0
M  V30 17686 N 1664.34 -0.740267 -1.39132 0
M  V30 17687 C 1665.3 -0.112183 -2.28925 0
M  V30 17688 C 1666.3 0.661598 -1.46559 0
M  V30 17689 O 1667.49 0.489835 -1.67171 0
M  V30 17690 C 1664.63 0.850121 -3.3013 0
M  V30 17691 H 1665.82 -0.903339 -2.85972 0
M  V30 17692 H 1663.37 -0.506427 -1.47868 0
M  V30 17693 H 1664.11 1.66744 -2.78149 0
M  V30 17694 H 1663.89 0.297847 -3.90967 0
M  V30 17695 H 1665.38 1.28599 -3.97306 0
M  V30 17696 N 1665.82 1.49844 -0.488302 0
M  V30 17697 C 1667.23 1.58954 -0.14348 0
M  V30 17698 C 1667.43 1.49482 1.3512 0
M  V30 17699 O 1666.49 1.36218 2.12605 0
M  V30 17700 C 1667.8 2.92222 -0.708991 0
M  V30 17701 C 1669.35 3.05658 -0.673957 0
M  V30 17702 C 1669.83 4.41526 -1.21731 0
M  V30 17703 N 1671.32 4.47985 -1.17746 0
M  V30 17704 C 1672.05 5.51539 -1.5682 0
M  V30 17705 N 1671.55 6.62261 -2.03426 0
M  V30 17706 N 1673.34 5.4218 -1.48315 0
M  V30 17707 H 1665.49 1.54244 -1.46022 0
M  V30 17708 H 1667.76 0.72992 -0.604914 0
M  V30 17709 H 1667.46 3.04683 -1.75674 0
M  V30 17710 H 1667.34 3.76851 -0.162226 0
M  V30 17711 H 1669.72 2.92835 0.364925 0
M  V30 17712 H 1669.8 2.22744 -1.25772 0
M  V30 17713 H 1669.45 4.551 -2.25491 0
M  V30 17714 H 1669.38 5.2306 -0.609598 0
M  V30 17715 H 1671.87 3.68541 -0.835828 0
M  V30 17716 H 1672.18 7.3736 -2.31345 0
M  V30 17717 H 1670.53 6.63335 -2.07392 0
M  V30 17718 H 1673.72 4.54569 -1.11733 0
M  V30 17719 H 1673.89 6.2276 -1.79092 0
M  V30 17720 N 1667.3 0.221601 1.56034 0
M  V30 17721 C 1668.24 -0.704963 2.2166 0
M  V30 17722 C 1669.24 -1.19966 1.19601 0
M  V30 17723 O 1670.44 -1.15949 1.37681 0
M  V30 17724 H 1666.82 -0.245758 0.710709 0
M  V30 17725 H 1668.79 -0.128041 2.98125 0
M  V30 17726 C 1667.54 -1.90234 2.91043 0
M  V30 17727 H 1666.86 -1.53079 3.69333 0
M  V30 17728 H 1668.3 -2.52844 3.40361 0
M  V30 17729 C 1666.76 -2.75777 1.93516 0
M  V30 17730 O 1667.29 -3.74534 1.45214 0
M  V30 17731 N 1665.5 -2.41815 1.61165 0
M  V30 17732 H 1665.04 -1.61561 2.00639 0
M  V30 17733 H 1665 -2.9933 0.96172 0
M  V30 17734 N 1668.77 -1.57515 -0.0517878 0
M  V30 17735 C 1669.72 -2.06114 -1.07795 0
M  V30 17736 C 1670.72 -0.97034 -1.38855 0
M  V30 17737 O 1671.92 -1.15536 -1.38027 0
M  V30 17738 H 1668.3 -0.657451 -0.365051 0
M  V30 17739 H 1670.27 -2.9141 -0.642068 0
M  V30 17740 C 1669.02 -2.53728 -2.37734 0
M  V30 17741 H 1668.34 -3.37266 -2.14689 0
M  V30 17742 H 1669.78 -2.91466 -3.07934 0
M  V30 17743 C 1668.24 -1.42868 -3.05107 0
M  V30 17744 O 1668.77 -0.782025 -3.94014 0
M  V30 17745 N 1666.98 -1.16882 -2.66058 0
M  V30 17746 H 1666.52 -1.6965 -1.93847 0
M  V30 17747 H 1666.48 -0.429164 -3.11457 0
M  V30 17748 N 1670.25 0.323614 -1.54242 0
M  V30 17749 C 1671.5 1.05909 -1.71657 0
M  V30 17750 C 1671.82 1.89177 -0.497151 0
M  V30 17751 O 1673.02 2.65816 -0.552649 0
M  V30 17752 C 1671.48 1.93246 -3.03618 0
M  V30 17753 C 1671.09 1.1509 -4.32965 0
M  V30 17754 C 1672.83 2.6653 -3.30397 0
M  V30 17755 C 1670.74 2.01573 -5.55988 0
M  V30 17756 H 1669.67 0.399114 -0.639706 0
M  V30 17757 H 1672.32 0.317338 -1.80735 0
M  V30 17758 H 1670.7 2.71319 -2.88447 0
M  V30 17759 H 1671.87 0.417877 -4.58901 0
M  V30 17760 H 1670.19 0.534882 -4.1295 0
M  V30 17761 H 1672.79 3.31542 -4.19504 0
M  V30 17762 H 1673.13 3.34164 -2.48274 0
M  V30 17763 H 1673.66 1.95518 -3.46435 0
M  V30 17764 H 1670.4 1.38446 -6.40713 0
M  V30 17765 H 1669.92 2.72609 -5.3427 0
M  V30 17766 H 1671.6 2.60159 -5.9239 0
M  V30 17767 N 1671.73 1.46313 0.585673 0
M  V30 17768 C 1672.66 1.59511 1.70524 0
M  V30 17769 C 1673.64 0.445578 1.6416 0
M  V30 17770 O 1674.83 0.671455 1.82223 0
M  V30 17771 C 1671.96 1.58229 3.09162 0
M  V30 17772 C 1670.91 2.72122 3.30354 0
M  V30 17773 C 1670.24 2.559 4.69489 0
M  V30 17774 C 1671.54 4.13969 3.18476 0
M  V30 17775 H 1673.23 2.53229 1.59735 0
M  V30 17776 H 1670.78 1.2187 0.767046 0
M  V30 17777 H 1672.73 1.66056 3.87303 0
M  V30 17778 H 1671.45 0.610535 3.20843 0
M  V30 17779 H 1670.11 2.63759 2.54611 0
M  V30 17780 H 1669.76 1.56814 4.77931 0
M  V30 17781 H 1669.46 3.32289 4.84621 0
M  V30 17782 H 1670.99 2.65613 5.49802 0
M  V30 17783 H 1672.4 4.23459 3.86465 0
M  V30 17784 H 1670.8 4.90922 3.45131 0
M  V30 17785 H 1671.87 4.34334 2.15598 0
M  V30 17786 N 1673.21 -0.830057 1.33969 0
M  V30 17787 C 1674.16 -1.96189 1.2495 0
M  V30 17788 C 1675.15 -1.68743 0.149047 0
M  V30 17789 O 1676.36 -1.77248 0.31357 0
M  V30 17790 H 1672.73 -0.644184 0.387983 0
M  V30 17791 H 1674.7 -2.0092 2.20621 0
M  V30 17792 C 1673.45 -3.32569 1.01456 0
M  V30 17793 H 1672.78 -3.54232 1.85363 0
M  V30 17794 H 1674.22 -4.12237 0.991786 0
M  V30 17795 C 1672.67 -3.35715 -0.282331 0
M  V30 17796 O 1673.2 -3.80556 -1.28609 0
M  V30 17797 N 1671.41 -2.8891 -0.312952 0
M  V30 17798 H 1670.96 -2.52613 0.504446 0
M  V30 17799 H 1670.92 -2.91397 -1.18047 0
M  V30 17800 N 1674.69 -1.17582 -1.04939 0
M  V30 17801 C 1675.62 -0.918221 -2.14688 0
M  V30 17802 C 1676.6 0.140757 -1.69517 0
M  V30 17803 O 1677.78 -0.0100118 -1.94197 0
M  V30 17804 C 1674.91 -0.433531 -3.44584 0
M  V30 17805 C 1673.87 -1.43199 -4.03334 0
M  V30 17806 C 1673.19 -0.805154 -5.28603 0
M  V30 17807 C 1674.49 -2.80598 -4.40525 0
M  V30 17808 H 1676.19 -1.83604 -2.36495 0
M  V30 17809 H 1673.73 -0.884202 -1.13657 0
M  V30 17810 H 1675.69 -0.240722 -4.20712 0
M  V30 17811 H 1674.41 0.519832 -3.22437 0
M  V30 17812 H 1673.07 -1.61158 -3.29277 0
M  V30 17813 H 1672.72 0.155124 -5.02761 0
M  V30 17814 H 1672.42 -1.4717 -5.68871 0
M  V30 17815 H 1673.94 -0.622677 -6.07417 0
M  V30 17816 H 1675.36 -2.66341 -5.07676 0
M  V30 17817 H 1673.75 -3.43854 -4.91817 0
M  V30 17818 H 1674.82 -3.34815 -3.50752 0
M  V30 17819 N 1676.17 1.23705 -0.976463 0
M  V30 17820 C 1677.11 2.25023 -0.513156 0
M  V30 17821 C 1678.08 1.60003 0.445903 0
M  V30 17822 O 1679.27 1.87481 0.354323 0
M  V30 17823 C 1676.41 3.44619 0.182088 0
M  V30 17824 C 1675.52 4.24209 -0.816769 0
M  V30 17825 C 1674.66 5.31112 -0.0967355 0
M  V30 17826 C 1673.69 6.02406 -1.08507 0
M  V30 17827 N 1672.83 7.00991 -0.394455 0
M  V30 17828 H 1677.67 2.64019 -1.38194 0
M  V30 17829 H 1675.21 1.29777 -0.692566 0
M  V30 17830 H 1677.17 4.12835 0.601948 0
M  V30 17831 H 1675.8 3.06435 1.01477 0
M  V30 17832 H 1674.85 3.55448 -1.35503 0
M  V30 17833 H 1676.16 4.73445 -1.57006 0
M  V30 17834 H 1675.31 6.05504 0.380686 0
M  V30 17835 H 1674.05 4.82806 0.689187 0
M  V30 17836 H 1673.06 5.26809 -1.57328 0
M  V30 17837 H 1674.28 6.528 -1.87159 0
M  V30 17838 H 1672.23 6.54943 0.372331 0
M  V30 17839 H 1672.15 7.48152 -1.08647 0
M  V30 17840 H 1673.41 7.79476 0.0607087 0
M  V30 17841 N 1677.64 0.747635 1.38738 0
M  V30 17842 C 1679.06 0.424577 1.53849 0
M  V30 17843 C 1679.26 -1.06304 1.71177 0
M  V30 17844 O 1678.32 -1.84912 1.71941 0
M  V30 17845 C 1679.63 1.21863 2.749 0
M  V30 17846 C 1681.18 1.20811 2.88745 0
M  V30 17847 C 1681.65 1.985 4.12749 0
M  V30 17848 N 1683.14 1.9573 4.19814 0
M  V30 17849 C 1683.88 2.52641 5.14743 0
M  V30 17850 N 1683.37 3.18241 6.15382 0
M  V30 17851 N 1685.17 2.42604 5.0705 0
M  V30 17852 H 1677.32 1.71182 1.25739 0
M  V30 17853 H 1679.58 0.725358 0.610376 0
M  V30 17854 H 1679.29 2.27181 2.6848 0
M  V30 17855 H 1679.16 0.831509 3.67921 0
M  V30 17856 H 1681.55 0.163013 2.94649 0
M  V30 17857 H 1681.63 1.6347 1.96752 0
M  V30 17858 H 1681.27 3.03017 4.07606 0
M  V30 17859 H 1681.2 1.53239 5.03811 0
M  V30 17860 H 1683.69 1.4795 3.47734 0
M  V30 17861 H 1684.01 3.59101 6.843 0
M  V30 17862 H 1682.35 3.22334 6.15732 0
M  V30 17863 H 1685.54 1.90987 4.27366 0
M  V30 17864 H 1685.72 2.87253 5.80852 0
M  V30 17865 N 1679.12 -1.49583 0.496242 0
M  V30 17866 C 1680.35 -2.06547 -0.0468437 0
M  V30 17867 C 1680.76 -1.3574 -1.31801 0
M  V30 17868 O 1680.1 -0.427948 -1.78646 0
M  V30 17869 C 1680.16 -3.57532 -0.375622 0
M  V30 17870 C 1679.83 -4.49994 0.797134 0
M  V30 17871 C 1680.83 -4.91793 1.6863 0
M  V30 17872 C 1678.51 -4.92355 0.99459 0
M  V30 17873 C 1680.5 -5.74685 2.7571 0
M  V30 17874 C 1678.19 -5.75024 2.06859 0
M  V30 17875 C 1679.19 -6.16093 2.94819 0
M  V30 17876 O 1678.88 -6.9711 4.00366 0
M  V30 17877 H 1678.61 -0.675832 0.0150901 0
M  V30 17878 H 1681.16 -1.93413 0.691416 0
M  V30 17879 H 1679.39 -3.68658 -1.16741 0
M  V30 17880 H 1681.08 -3.96755 -0.856757 0
M  V30 17881 H 1681.85 -4.59715 1.54554 0
M  V30 17882 H 1677.73 -4.59893 0.31933 0
M  V30 17883 H 1681.27 -6.06661 3.44396 0
M  V30 17884 H 1677.17 -6.06514 2.20931 0
M  V30 17885 H 1677.94 -7.15408 3.9766 0
M  V30 17886 N 1680.6 -0.229873 -1.55915 0
M  V30 17887 C 1681.84 0.40131 -2.00422 0
M  V30 17888 C 1682.2 1.56356 -1.1143 0
M  V30 17889 O 1683.4 2.26132 -1.45319 0
M  V30 17890 C 1681.68 0.816946 -3.47938 0
M  V30 17891 S 1683.23 1.44106 -4.14462 0
M  V30 17892 H 1680.05 0.127024 -0.699561 0
M  V30 17893 H 1682.65 -0.341114 -1.92501 0
M  V30 17894 H 1681.36 -0.038498 -4.10382 0
M  V30 17895 H 1680.89 1.59198 -3.59749 0
M  V30 17896 H 1682.9 2.73016 -4.14339 0
M  V30 17897 N 1682.08 1.5754 0.0434337 0
M  V30 17898 C 1683.33 1.87789 0.736074 0
M  V30 17899 C 1683.64 0.826466 1.77282 0
M  V30 17900 O 1684.85 1.01771 2.51704 0
M  V30 17901 C 1683.3 3.33207 1.36018 0
M  V30 17902 C 1682.91 4.46547 0.360532 0
M  V30 17903 C 1684.65 3.72623 2.03353 0
M  V30 17904 C 1682.56 5.83018 0.992167 0
M  V30 17905 H 1681.49 0.700614 0.278667 0
M  V30 17906 H 1684.14 1.83497 -0.00997697 0
M  V30 17907 H 1682.52 3.32199 2.15546 0
M  V30 17908 H 1683.7 4.58999 -0.406987 0
M  V30 17909 H 1682.01 4.1587 -0.209931 0
M  V30 17910 H 1684.61 4.71893 2.51437 0
M  V30 17911 H 1684.95 3.03874 2.84546 0
M  V30 17912 H 1685.49 3.75744 1.3062 0
M  V30 17913 H 1682.22 6.55131 0.219964 0
M  V30 17914 H 1681.74 5.74313 1.72987 0
M  V30 17915 H 1683.42 6.29283 1.50374 0
M  V30 17916 N 1683.56 -0.31543 1.54411 0
M  V30 17917 C 1684.47 -1.41136 1.87397 0
M  V30 17918 C 1685.48 -1.56199 0.76668 0
M  V30 17919 O 1686.66 -1.71139 1.06176 0
M  V30 17920 C 1683.72 -2.75731 2.10174 0
M  V30 17921 C 1682.78 -2.69776 3.33945 0
M  V30 17922 C 1682.02 -3.97952 3.55626 0
M  V30 17923 O 1682.24 -4.96614 2.80589 0
M  V30 17924 O 1681.17 -4.00719 4.49119 0
M  V30 17925 H 1685 -1.16167 2.80605 0
M  V30 17926 H 1682.58 -0.510193 1.40419 0
M  V30 17927 H 1684.47 -3.55392 2.26439 0
M  V30 17928 H 1683.14 -3.00574 1.20154 0
M  V30 17929 H 1682.05 -1.88638 3.23058 0
M  V30 17930 H 1683.38 -2.49887 4.24049 0
M  V30 17931 N 1685.03 -1.46622 -0.577906 0
M  V30 17932 C 1686.45 -1.31683 -0.901762 0
M  V30 17933 C 1686.65 -0.291842 -1.99375 0
M  V30 17934 O 1685.71 0.303913 -2.50664 0
M  V30 17935 C 1687.02 -2.70443 -1.31457 0
M  V30 17936 C 1688.57 -2.7857 -1.42715 0
M  V30 17937 C 1689.04 -4.17923 -1.87361 0
M  V30 17938 N 1690.53 -4.20364 -1.94546 0
M  V30 17939 C 1691.27 -5.25085 -2.30376 0
M  V30 17940 N 1690.76 -6.4013 -2.64964 0
M  V30 17941 N 1692.56 -5.12453 -2.30972 0
M  V30 17942 H 1684.71 -2.11916 0.143367 0
M  V30 17943 H 1686.97 -0.947999 0.00146914 0
M  V30 17944 H 1686.68 -3.46781 -0.586174 0
M  V30 17945 H 1686.55 -3.00864 -2.2751 0
M  V30 17946 H 1688.94 -2.02518 -2.14641 0
M  V30 17947 H 1689.02 -2.51828 -0.449021 0
M  V30 17948 H 1688.66 -4.94473 -1.16012 0
M  V30 17949 H 1688.59 -4.42076 -2.8614 0
M  V30 17950 H 1691.08 -3.37359 -1.70286 0
M  V30 17951 H 1691.4 -7.15808 -2.91271 0
M  V30 17952 H 1689.74 -6.43483 -2.62591 0
M  V30 17953 H 1692.93 -4.21611 -2.03376 0
M  V30 17954 H 1693.11 -5.94178 -2.58566 0
M  V30 17955 N 1686.51 0.822941 -1.34408 0
M  V30 17956 C 1687.76 1.58149 -1.26951 0
M  V30 17957 C 1688.09 1.93538 0.160222 0
M  V30 17958 O 1687.37 1.60021 1.1056 0
M  V30 17959 C 1687.65 2.88101 -2.16032 0
M  V30 17960 C 1687.5 2.59293 -3.67542 0
M  V30 17961 C 1688.82 3.89673 -2.04556 0
M  V30 17962 H 1685.94 0.573811 -0.462504 0
M  V30 17963 H 1688.58 0.948017 -1.64659 0
M  V30 17964 H 1686.73 3.42162 -1.84003 0
M  V30 17965 H 1688.4 2.11542 -4.09936 0
M  V30 17966 H 1686.65 1.92738 -3.88632 0
M  V30 17967 H 1687.32 3.51962 -4.25238 0
M  V30 17968 H 1689.79 3.44965 -2.32677 0
M  V30 17969 H 1688.67 4.78404 -2.69111 0
M  V30 17970 H 1688.93 4.30113 -1.02253 0
M  V30 17971 N 1687.99 1.18137 1.04314 0
M  V30 17972 C 1689.24 0.975203 1.77471 0
M  V30 17973 C 1689.57 -0.495399 1.88085 0
M  V30 17974 O 1688.82 -1.38401 1.38361 0
M  V30 17975 C 1689.12 1.57211 3.20966 0
M  V30 17976 C 1688.79 3.06842 3.30392 0
M  V30 17977 C 1687.45 3.47683 3.32671 0
M  V30 17978 C 1689.8 4.02855 3.30692 0
M  V30 17979 C 1687.13 4.83116 3.3289 0
M  V30 17980 C 1689.48 5.382 3.3245 0
M  V30 17981 C 1688.14 5.78492 3.33021 0
M  V30 17982 H 1687.41 0.356852 0.649413 0
M  V30 17983 H 1690.06 1.47163 1.22536 0
M  V30 17984 H 1688.37 0.997616 3.78886 0
M  V30 17985 H 1690.06 1.38804 3.76211 0
M  V30 17986 H 1686.65 2.74291 3.29336 0
M  V30 17987 H 1690.84 3.72355 3.28124 0
M  V30 17988 H 1686.09 5.13634 3.31647 0
M  V30 17989 H 1690.27 6.12367 3.31631 0
M  V30 17990 H 1687.89 6.83412 3.32944 0
M  V30 17991 N 1689.47 -1.23186 0.98301 0
M  V30 17992 C 1690.88 -1.43814 0.69207 0
M  V30 17993 C 1691.08 -1.87387 -0.740823 0
M  V30 17994 O 1690.14 -2.02154 -1.51295 0
M  V30 17995 C 1691.45 -2.48769 1.68922 0
M  V30 17996 C 1693 -2.62579 1.70356 0
M  V30 17997 C 1693.48 -3.70746 2.68908 0
M  V30 17998 N 1694.97 -3.78192 2.67442 0
M  V30 17999 C 1695.7 -4.61453 3.40366 0
M  V30 18000 N 1695.2 -5.48784 4.22857 0
M  V30 18001 N 1696.99 -4.55673 3.29118 0
M  V30 18002 H 1689.14 -0.932046 1.90858 0
M  V30 18003 H 1691.41 -0.471274 0.82256 0
M  V30 18004 H 1691.11 -2.23675 2.71408 0
M  V30 18005 H 1690.99 -3.47201 1.47415 0
M  V30 18006 H 1693.37 -2.87022 0.685728 0
M  V30 18007 H 1693.45 -1.64454 1.9593 0
M  V30 18008 H 1693.1 -3.47051 3.70834 0
M  V30 18009 H 1693.03 -4.68418 2.40607 0
M  V30 18010 H 1695.52 -3.15785 2.07577 0
M  V30 18011 H 1695.83 -6.09312 4.75351 0
M  V30 18012 H 1694.18 -5.48398 4.26948 0
M  V30 18013 H 1697.37 -3.86468 2.64122 0
M  V30 18014 H 1697.54 -5.20332 3.8621 0
M  V30 18015 N 1690.95 -0.754982 -1.38339 0
M  V30 18016 C 1692.36 -0.379276 -1.82807 0
M  V30 18017 C 1692.71 1.09228 -1.62984 0
M  V30 18018 O 1691.83 1.84445 -1.13177 0
M  V30 18019 C 1692.43 -0.681628 -3.31872 0
M  V30 18020 C 1690.99 -0.359183 -3.74682 0
M  V30 18021 C 1690.13 -0.93409 -2.61094 0
M  V30 18022 H 1693.09 -0.951019 -1.27048 0
M  V30 18023 H 1693.11 0.0396803 -3.80479 0
M  V30 18024 H 1692.62 -1.75271 -3.46268 0
M  V30 18025 H 1690.72 0.705257 -3.65865 0
M  V30 18026 H 1690.83 -0.85571 -4.71396 0
M  V30 18027 H 1689.2 -0.359379 -2.52152 0
M  V30 18028 H 1689.98 -2.01023 -2.78289 0
M  V30 18029 N 1692.42 1.49318 -0.504168 0
M  V30 18030 C 1693.84 1.58793 -0.160331 0
M  V30 18031 C 1694.04 1.50906 1.33527 0
M  V30 18032 O 1693.1 1.38466 2.11148 0
M  V30 18033 C 1694.41 2.91454 -0.739945 0
M  V30 18034 C 1695.96 3.04926 -0.706338 0
M  V30 18035 C 1696.43 4.4021 -1.26407 0
M  V30 18036 N 1697.92 4.46711 -1.22491 0
M  V30 18037 C 1698.66 5.49844 -1.62661 0
M  V30 18038 N 1698.15 6.60066 -2.10439 0
M  V30 18039 N 1699.95 5.40576 -1.54058 0
M  V30 18040 H 1692.1 1.52687 -1.4765 0
M  V30 18041 H 1694.36 0.723463 -0.612622 0
M  V30 18042 H 1694.07 3.02802 -1.78896 0
M  V30 18043 H 1693.94 3.76658 -0.202187 0
M  V30 18044 H 1696.33 2.93206 0.333845 0
M  V30 18045 H 1696.41 2.21398 -1.28128 0
M  V30 18046 H 1696.05 4.52683 -2.30305 0
M  V30 18047 H 1695.98 5.22384 -0.665041 0
M  V30 18048 H 1698.47 3.67634 -0.874869 0
M  V30 18049 H 1698.79 7.34865 -2.39153 0
M  V30 18050 H 1697.13 6.61098 -2.14415 0
M  V30 18051 H 1700.32 4.53359 -1.16548 0
M  V30 18052 H 1700.5 6.20826 -1.85687 0
M  V30 18053 N 1693.9 0.238138 1.5579 0
M  V30 18054 C 1694.85 -0.665098 2.21009 0
M  V30 18055 C 1695.82 -1.17793 1.17107 0
M  V30 18056 O 1697 -1.234 1.45523 0
M  V30 18057 C 1694.14 -1.86028 2.90667 0
M  V30 18058 C 1693.26 -1.3848 4.09203 0
M  V30 18059 C 1692.39 -2.53885 4.666 0
M  V30 18060 C 1691.43 -2.03155 5.77403 0
M  V30 18061 N 1690.57 -3.11895 6.2902 0
M  V30 18062 H 1695.41 -0.102242 2.97825 0
M  V30 18063 H 1692.95 -0.0387064 1.47049 0
M  V30 18064 H 1694.9 -2.56226 3.29248 0
M  V30 18065 H 1693.53 -2.39575 2.16341 0
M  V30 18066 H 1692.59 -0.577172 3.75996 0
M  V30 18067 H 1693.9 -0.972946 4.89219 0
M  V30 18068 H 1693.05 -3.32139 5.07709 0
M  V30 18069 H 1691.79 -2.98368 3.85782 0
M  V30 18070 H 1690.8 -1.23369 5.3578 0
M  V30 18071 H 1692.02 -1.59653 6.60067 0
M  V30 18072 H 1689.97 -3.55828 5.5111 0
M  V30 18073 H 1689.88 -2.75013 7.04204 0
M  V30 18074 H 1691.15 -3.90234 6.74787 0
M  V30 18075 N 1695.38 -1.57561 -0.0350783 0
M  V30 18076 C 1696.31 -2.09201 -1.03716 0
M  V30 18077 C 1697.29 -0.993231 -1.3809 0
M  V30 18078 O 1698.48 -1.26812 -1.47079 0
M  V30 18079 C 1695.61 -2.56643 -2.3399 0
M  V30 18080 C 1694.56 -3.70731 -2.13874 0
M  V30 18081 C 1693.89 -4.04358 -3.49855 0
M  V30 18082 C 1695.19 -4.99393 -1.52982 0
M  V30 18083 H 1696.88 -2.93176 -0.60731 0
M  V30 18084 H 1694.43 -1.41036 -0.290683 0
M  V30 18085 H 1696.38 -2.9139 -3.04417 0
M  V30 18086 H 1695.1 -1.69744 -2.79024 0
M  V30 18087 H 1693.76 -3.36325 -1.45881 0
M  V30 18088 H 1693.41 -3.14534 -3.92527 0
M  V30 18089 H 1693.11 -4.81201 -3.37223 0
M  V30 18090 H 1694.63 -4.41633 -4.21654 0
M  V30 18091 H 1696.05 -5.32135 -2.13319 0
M  V30 18092 H 1694.45 -5.80807 -1.50943 0
M  V30 18093 H 1695.52 -4.82367 -0.494993 0
M  V30 18094 N 1696.86 0.307236 -1.54576 0
M  V30 18095 C 1698.14 1.06243 -1.64231 0
M  V30 18096 C 1698.52 2.05415 -0.486589 0
M  V30 18097 O 1697.86 2.22565 0.517384 0
M  V30 18098 C 1698.07 1.74985 -3.01962 0
M  V30 18099 C 1699.42 2.2741 -3.58566 0
M  V30 18100 O 1700.45 1.85027 -3.04374 0
M  V30 18101 O 1699.3 3.05051 -4.53438 0
M  V30 18102 H 1696.4 0.490693 -0.665695 0
M  V30 18103 H 1698.94 0.305822 -1.66922 0
M  V30 18104 H 1697.72 1.02939 -3.77517 0
M  V30 18105 H 1697.34 2.57417 -3.03022 0
M  V30 18106 N 1698.34 1.46926 0.570122 0
M  V30 18107 C 1699.75 1.32159 0.894766 0
M  V30 18108 C 1699.95 0.302411 1.99218 0
M  V30 18109 O 1699.01 -0.290615 2.50822 0
M  V30 18110 C 1700.32 2.71136 1.30021 0
M  V30 18111 C 1701.87 2.79323 1.41236 0
M  V30 18112 C 1702.34 4.18911 1.85142 0
M  V30 18113 N 1703.84 4.2139 1.92314 0
M  V30 18114 C 1704.57 5.263 2.27588 0
M  V30 18115 N 1704.07 6.41526 2.61565 0
M  V30 18116 N 1705.86 5.13671 2.28251 0
M  V30 18117 H 1698.01 2.11837 -0.154603 0
M  V30 18118 H 1700.27 0.947978 -0.00649658 0
M  V30 18119 H 1699.98 3.47087 0.567775 0
M  V30 18120 H 1699.85 3.02066 2.25911 0
M  V30 18121 H 1702.24 2.03653 2.13564 0
M  V30 18122 H 1702.32 2.52063 0.43566 0
M  V30 18123 H 1701.97 4.95081 1.13389 0
M  V30 18124 H 1701.9 4.43587 2.83792 0
M  V30 18125 H 1704.39 3.38257 1.68495 0
M  V30 18126 H 1704.7 7.17343 2.8747 0
M  V30 18127 H 1703.04 6.44867 2.59175 0
M  V30 18128 H 1706.24 4.22684 2.01137 0
M  V30 18129 H 1706.41 5.95541 2.55412 0
M  V30 18130 N 1699.82 -0.815801 1.34842 0
M  V30 18131 C 1701.06 -1.57241 1.27599 0
M  V30 18132 C 1701.39 -1.93904 -0.152127 0
M  V30 18133 O 1700.65 -1.60819 -1.11515 0
M  V30 18134 C 1700.94 -2.87795 2.11917 0
M  V30 18135 C 1700.61 -2.70392 3.60831 0
M  V30 18136 C 1699.27 -2.65353 4.01424 0
M  V30 18137 C 1701.62 -2.53569 4.55359 0
M  V30 18138 C 1698.95 -2.41422 5.34726 0
M  V30 18139 C 1701.3 -2.31169 5.8885 0
M  V30 18140 C 1699.97 -2.24546 6.28598 0
M  V30 18141 H 1699.24 -0.575386 0.466918 0
M  V30 18142 H 1701.89 -0.943355 1.66653 0
M  V30 18143 H 1700.19 -3.5503 1.65714 0
M  V30 18144 H 1701.89 -3.45436 2.03654 0
M  V30 18145 H 1698.48 -2.75157 3.28613 0
M  V30 18146 H 1702.66 -2.5648 4.2489 0
M  V30 18147 H 1697.92 -2.34758 5.64534 0
M  V30 18148 H 1702.09 -2.1714 6.61682 0
M  V30 18149 H 1699.72 -2.05765 7.31823 0
M  V30 18150 N 1701.29 -1.18689 -1.03686 0
M  V30 18151 C 1702.24 -0.885273 -2.10112 0
M  V30 18152 C 1703.23 0.146598 -1.60231 0
M  V30 18153 O 1704.42 -0.0579783 -1.76905 0
M  V30 18154 C 1701.55 -0.416977 -3.40758 0
M  V30 18155 C 1700.63 -1.48114 -3.97396 0
M  V30 18156 N 1701.03 -2.69857 -4.27798 0
M  V30 18157 C 1699.32 -1.34255 -4.25314 0
M  V30 18158 C 1700.02 -3.38349 -4.73175 0
M  V30 18159 N 1699 -2.65735 -4.74222 0
M  V30 18160 H 1702.8 -1.81067 -2.31499 0
M  V30 18161 H 1700.32 -1.07786 -1.21474 0
M  V30 18162 H 1702.31 -0.182385 -4.16501 0
M  V30 18163 H 1700.97 0.502036 -3.20795 0
M  V30 18164 H 1701.98 -3.0669 -4.17327 0
M  V30 18165 H 1698.66 -0.486374 -4.14657 0
M  V30 18166 H 1700.05 -4.42415 -5.05686 0
M  V30 18167 N 1702.77 1.22662 -0.989529 0
M  V30 18168 C 1704.18 1.73116 -0.699124 0
M  V30 18169 C 1704.53 1.79847 0.784197 0
M  V30 18170 O 1703.66 1.44248 1.61311 0
M  V30 18171 C 1704.25 3.14403 -1.2624 0
M  V30 18172 C 1702.81 3.62275 -1.02144 0
M  V30 18173 C 1701.96 2.40257 -1.38463 0
M  V30 18174 H 1704.91 1.08057 -1.1623 0
M  V30 18175 H 1704.93 3.75091 -0.639307 0
M  V30 18176 H 1704.44 3.09472 -2.34198 0
M  V30 18177 H 1702.54 3.72577 0.0416622 0
M  V30 18178 H 1702.66 4.48587 -1.68245 0
M  V30 18179 H 1701.02 2.41705 -0.803179 0
M  V30 18180 H 1701.8 2.3799 -2.47418 0
M  V30 18181 N 1704.25 0.762308 1.37937 0
M  V30 18182 C 1705.2 0.140412 2.30372 0
M  V30 18183 C 1706.17 -0.700152 1.50622 0
M  V30 18184 O 1707.35 -0.654474 1.79224 0
M  V30 18185 C 1704.49 -0.740056 3.37071 0
M  V30 18186 C 1703.6 0.116084 4.31844 0
M  V30 18187 C 1702.74 -0.768203 5.25616 0
M  V30 18188 C 1701.78 0.0910442 6.12032 0
M  V30 18189 N 1700.92 -0.75069 6.98075 0
M  V30 18190 H 1705.76 0.934224 2.82977 0
M  V30 18191 H 1703.29 0.472316 1.39311 0
M  V30 18192 H 1705.25 -1.26525 3.97551 0
M  V30 18193 H 1703.88 -1.49956 2.85855 0
M  V30 18194 H 1702.93 0.758999 3.72751 0
M  V30 18195 H 1704.24 0.779285 4.92675 0
M  V30 18196 H 1703.4 -1.36024 5.91255 0
M  V30 18197 H 1702.14 -1.46511 4.65173 0
M  V30 18198 H 1701.14 0.695687 5.45381 0
M  V30 18199 H 1702.37 0.785145 6.74546 0
M  V30 18200 H 1700.31 -1.43239 6.40171 0
M  V30 18201 H 1700.23 -0.144579 7.55862 0
M  V30 18202 H 1701.5 -1.32742 7.68114 0
M  V30 18203 N 1705.73 -1.49049 0.51208 0
M  V30 18204 C 1706.64 -2.33102 -0.264695 0
M  V30 18205 C 1707.65 -1.45347 -0.956571 0
M  V30 18206 O 1708.83 -1.78355 -0.935501 0
M  V30 18207 C 1705.89 -3.21051 -1.30871 0
M  V30 18208 C 1704.96 -4.24666 -0.629094 0
M  V30 18209 C 1704.19 -5.08412 -1.62337 0
M  V30 18210 O 1704.41 -4.93847 -2.85432 0
M  V30 18211 O 1703.35 -5.90368 -1.17259 0
M  V30 18212 H 1707.17 -3.00732 0.423585 0
M  V30 18213 H 1704.76 -1.4688 0.273246 0
M  V30 18214 H 1706.64 -3.75503 -1.91248 0
M  V30 18215 H 1705.31 -2.56103 -1.97972 0
M  V30 18216 H 1704.22 -3.74097 0.0147056 0
M  V30 18217 H 1705.55 -4.922 -0.000339859 0
M  V30 18218 N 1707.21 -0.246397 -1.55662 0
M  V30 18219 C 1708.14 0.647563 -2.24341 0
M  V30 18220 C 1709.12 1.1817 -1.22352 0
M  V30 18221 O 1710.3 1.22114 -1.51003 0
M  V30 18222 C 1707.43 1.84485 -2.94249 0
M  V30 18223 C 1706.39 1.4435 -4.02923 0
M  V30 18224 C 1705.71 2.72158 -4.60255 0
M  V30 18225 C 1707.01 0.614951 -5.18667 0
M  V30 18226 H 1708.71 0.0748803 -2.99306 0
M  V30 18227 H 1706.25 0.034575 -1.43958 0
M  V30 18228 H 1708.2 2.47588 -3.40995 0
M  V30 18229 H 1706.93 2.4429 -2.16772 0
M  V30 18230 H 1705.59 0.835811 -3.56945 0
M  V30 18231 H 1705.24 3.3016 -3.79478 0
M  V30 18232 H 1704.94 2.46028 -5.33614 0
M  V30 18233 H 1706.46 3.36161 -5.09734 0
M  V30 18234 H 1707.87 1.15028 -5.61642 0
M  V30 18235 H 1706.27 0.449729 -5.98412 0
M  V30 18236 H 1707.34 -0.372943 -4.83464 0
M  V30 18237 N 1708.68 1.57577 0.026722 0
M  V30 18238 C 1709.61 2.09748 1.02605 0
M  V30 18239 C 1710.59 1.00054 1.37562 0
M  V30 18240 O 1711.78 1.2759 1.46405 0
M  V30 18241 C 1708.91 2.57881 2.32626 0
M  V30 18242 C 1707.86 3.7186 2.11905 0
M  V30 18243 C 1707.19 4.06208 3.47706 0
M  V30 18244 C 1708.49 5.00198 1.50332 0
M  V30 18245 H 1710.18 2.93494 0.591753 0
M  V30 18246 H 1707.73 1.41188 0.283199 0
M  V30 18247 H 1709.68 2.93 3.02868 0
M  V30 18248 H 1708.41 1.71222 2.7812 0
M  V30 18249 H 1707.07 3.37094 1.44096 0
M  V30 18250 H 1706.71 3.16611 3.90853 0
M  V30 18251 H 1706.41 4.82982 3.34667 0
M  V30 18252 H 1707.94 4.43863 4.19306 0
M  V30 18253 H 1709.35 5.33259 2.10494 0
M  V30 18254 H 1707.75 5.81599 1.4786 0
M  V30 18255 H 1708.82 4.82623 0.469405 0
M  V30 18256 N 1710.16 -0.299034 1.54737 0
M  V30 18257 C 1711.07 -1.39141 1.88884 0
M  V30 18258 C 1712.09 -1.55377 0.783203 0
M  V30 18259 O 1713.26 -1.70003 1.07985 0
M  V30 18260 C 1710.33 -2.73487 2.13087 0
M  V30 18261 C 1709.39 -2.66219 3.36788 0
M  V30 18262 C 1708.62 -3.94158 3.59827 0
M  V30 18263 O 1708.85 -4.9361 2.85841 0
M  V30 18264 O 1707.78 -3.95933 4.53344 0
M  V30 18265 H 1711.61 -1.13184 2.81821 0
M  V30 18266 H 1709.19 -0.495271 1.40952 0
M  V30 18267 H 1711.07 -3.5297 2.30195 0
M  V30 18268 H 1709.75 -2.99283 1.23335 0
M  V30 18269 H 1708.65 -1.85201 3.25041 0
M  V30 18270 H 1709.99 -2.45376 4.26675 0
M  V30 18271 N 1711.64 -1.47227 -0.562322 0
M  V30 18272 C 1712.88 -1.55163 -1.33056 0
M  V30 18273 C 1713.24 -0.206867 -1.90882 0
M  V30 18274 O 1714.44 -0.161056 -2.68317 0
M  V30 18275 C 1712.72 -2.63484 -2.41477 0
M  V30 18276 S 1714.27 -2.90968 -3.28455 0
M  V30 18277 H 1711.09 -0.547974 -0.45304 0
M  V30 18278 H 1713.69 -1.84578 -0.644301 0
M  V30 18279 H 1712.4 -3.59797 -1.9742 0
M  V30 18280 H 1711.93 -2.35867 -3.14849 0
M  V30 18281 H 1713.94 -2.27793 -4.40823 0
M  V30 18282 N 1713.12 0.808639 -1.35273 0
M  V30 18283 C 1714.08 1.90195 -1.279 0
M  V30 18284 C 1715.08 1.59663 -0.190915 0
M  V30 18285 O 1716.27 1.68434 -0.444482 0
M  V30 18286 C 1713.4 3.26567 -0.978106 0
M  V30 18287 H 1714.6 1.98152 -2.25113 0
M  V30 18288 H 1712.15 1.00426 -1.19767 0
M  V30 18289 H 1712.88 3.24299 -0.00975789 0
M  V30 18290 H 1712.67 3.50114 -1.7653 0
M  V30 18291 H 1714.16 4.06602 -0.95207 0
M  V30 18292 N 1714.6 1.19237 1.03055 0
M  V30 18293 C 1715.84 0.993971 1.76427 0
M  V30 18294 C 1716.17 -0.475422 1.886 0
M  V30 18295 O 1715.43 -1.36925 1.39821 0
M  V30 18296 C 1715.73 1.60607 3.19281 0
M  V30 18297 C 1715.39 3.10329 3.27119 0
M  V30 18298 C 1714.05 3.51192 3.28965 0
M  V30 18299 C 1716.41 4.0634 3.264 0
M  V30 18300 C 1713.73 4.8662 3.27747 0
M  V30 18301 C 1716.09 5.41696 3.26723 0
M  V30 18302 C 1714.75 5.81992 3.26866 0
M  V30 18303 H 1714.02 0.36372 0.645592 0
M  V30 18304 H 1716.67 1.48455 1.20969 0
M  V30 18305 H 1714.97 1.03775 3.77807 0
M  V30 18306 H 1716.67 1.42786 3.74717 0
M  V30 18307 H 1713.26 2.77769 3.26409 0
M  V30 18308 H 1717.44 3.75814 3.24156 0
M  V30 18309 H 1712.7 5.17123 3.26181 0
M  V30 18310 H 1716.87 6.1585 3.25118 0
M  V30 18311 H 1714.5 6.86905 3.25676 0
M  V30 18312 N 1716.07 -1.22136 0.99602 0
M  V30 18313 C 1717.35 -1.86506 0.589466 0
M  V30 18314 C 1717.73 -1.89355 -0.933159 0
M  V30 18315 O 1717.08 -1.38634 -1.8164 0
M  V30 18316 C 1717.29 -3.27224 1.21349 0
M  V30 18317 C 1718.64 -4.03692 1.31597 0
M  V30 18318 O 1719.66 -3.36502 1.16812 0
M  V30 18319 O 1718.52 -5.23973 1.55289 0
M  V30 18320 H 1715.61 -0.802279 0.200692 0
M  V30 18321 H 1718.16 -1.2989 1.0921 0
M  V30 18322 H 1716.93 -3.19802 2.25483 0
M  V30 18323 H 1716.56 -3.91449 0.696645 0
M  V30 18324 N 1717.55 -0.769612 -1.37531 0
M  V30 18325 C 1718.8 -0.329661 -1.98988 0
M  V30 18326 C 1719.11 1.0993 -1.61786 0
M  V30 18327 O 1720.32 1.64053 -2.1633 0
M  V30 18328 C 1718.78 -0.538461 -3.55849 0
M  V30 18329 C 1718.38 -1.97755 -4.01991 0
M  V30 18330 C 1720.13 -0.162026 -4.24191 0
M  V30 18331 C 1718.04 -2.13406 -5.51554 0
M  V30 18332 H 1716.97 -0.119514 -0.744468 0
M  V30 18333 H 1719.62 -0.948436 -1.57089 0
M  V30 18334 H 1718 0.14974 -3.95717 0
M  V30 18335 H 1719.17 -2.70053 -3.73374 0
M  V30 18336 H 1717.49 -2.31038 -3.46425 0
M  V30 18337 H 1720.08 -0.257508 -5.3408 0
M  V30 18338 H 1720.43 0.887442 -4.06731 0
M  V30 18339 H 1720.96 -0.802692 -3.89617 0
M  V30 18340 H 1717.7 -3.16664 -5.73937 0
M  V30 18341 H 1717.22 -1.45589 -5.81862 0
M  V30 18342 H 1718.9 -1.93165 -6.17492 0
M  V30 18343 N 1719.03 1.48775 -0.519977 0
M  V30 18344 C 1720.28 2.02792 0.0177768 0
M  V30 18345 C 1720.61 1.3972 1.34878 0
M  V30 18346 O 1719.88 0.539438 1.8687 0
M  V30 18347 C 1720.17 3.59786 0.150355 0
M  V30 18348 C 1720.02 4.33356 -1.20511 0
M  V30 18349 C 1721.34 4.31172 0.881959 0
M  V30 18350 H 1718.46 0.736983 0.00498634 0
M  V30 18351 H 1721.1 1.77603 -0.675069 0
M  V30 18352 H 1719.25 3.81378 0.740452 0
M  V30 18353 H 1720.92 4.23209 -1.83554 0
M  V30 18354 H 1719.17 3.95167 -1.78957 0
M  V30 18355 H 1719.84 5.4162 -1.06544 0
M  V30 18356 H 1722.31 4.14349 0.381302 0
M  V30 18357 H 1721.19 5.40729 0.943601 0
M  V30 18358 H 1721.45 3.97747 1.93001 0
M  V30 18359 N 1720.51 0.254649 1.55529 0
M  V30 18360 C 1721.74 -0.371856 2.03531 0
M  V30 18361 C 1722.15 -1.50974 1.13368 0
M  V30 18362 O 1721.51 -1.81885 0.14964 0
M  V30 18363 C 1721.56 -0.872314 3.50818 0
M  V30 18364 O 1721.28 0.22023 4.37546 0
M  V30 18365 C 1722.78 -1.56872 4.14616 0
M  V30 18366 H 1720 -0.0874565 0.665276 0
M  V30 18367 H 1722.55 0.380774 2.00924 0
M  V30 18368 H 1720.7 -1.5751 3.53934 0
M  V30 18369 H 1721.11 -0.161046 5.24253 0
M  V30 18370 H 1722.59 -1.87053 5.19341 0
M  V30 18371 H 1723.07 -2.49334 3.61565 0
M  V30 18372 H 1723.67 -0.910314 4.15444 0
M  V30 18373 N 1721.99 -1.57589 -0.0183649 0
M  V30 18374 C 1723.21 -1.94421 -0.722172 0
M  V30 18375 C 1723.64 -0.855471 -1.67521 0
M  V30 18376 O 1722.99 0.187954 -1.80323 0
M  V30 18377 C 1723.04 -3.30331 -1.44615 0
M  V30 18378 O 1722.15 -3.23337 -2.55982 0
M  V30 18379 H 1721.49 -0.63519 -0.193466 0
M  V30 18380 H 1724.02 -2.04579 0.0293527 0
M  V30 18381 H 1724.03 -3.65471 -1.8137 0
M  V30 18382 H 1722.7 -4.09132 -0.747256 0
M  V30 18383 H 1721.28 -2.99845 -2.21692 0
M  V30 18384 N 1723.46 0.290824 -1.54893 0
M  V30 18385 C 1724.69 1.04344 -1.78661 0
M  V30 18386 C 1725.11 1.80578 -0.551083 0
M  V30 18387 O 1724.46 1.76091 0.479394 0
M  V30 18388 C 1724.52 2.01604 -3.00064 0
M  V30 18389 O 1724.24 1.28461 -4.18843 0
M  V30 18390 C 1725.74 2.88822 -3.36298 0
M  V30 18391 H 1722.96 0.309018 -0.595608 0
M  V30 18392 H 1725.5 0.327011 -2.01868 0
M  V30 18393 H 1723.66 2.68735 -2.79035 0
M  V30 18394 H 1724.07 1.93864 -4.87357 0
M  V30 18395 H 1725.54 3.52898 -4.24461 0
M  V30 18396 H 1726.02 3.5766 -2.54904 0
M  V30 18397 H 1726.63 2.27208 -3.59523 0
M  V30 18398 N 1724.94 1.47523 0.554506 0
M  V30 18399 C 1726.17 1.57907 1.3369 0
M  V30 18400 C 1726.59 0.230244 1.87391 0
M  V30 18401 O 1725.94 -0.776917 1.65137 0
M  V30 18402 C 1725.99 2.60644 2.50493 0
M  V30 18403 O 1725.71 3.9029 1.99011 0
M  V30 18404 C 1727.22 2.81238 3.42666 0
M  V30 18405 H 1724.44 0.533139 0.407436 0
M  V30 18406 H 1726.98 1.93163 0.671445 0
M  V30 18407 H 1725.13 2.28315 3.12971 0
M  V30 18408 H 1725.55 4.46451 2.75285 0
M  V30 18409 H 1727.02 3.56981 4.21033 0
M  V30 18410 H 1727.5 1.89159 3.96378 0
M  V30 18411 H 1728.11 3.14775 2.86001 0
M  V30 18412 N 1726.42 -0.801453 1.357 0
M  V30 18413 C 1727.37 -1.93495 1.29083 0
M  V30 18414 C 1728.36 -1.68389 0.184806 0
M  V30 18415 O 1729.57 -1.76543 0.351097 0
M  V30 18416 H 1725.94 -0.635809 0.40156 0
M  V30 18417 H 1727.91 -1.96195 2.24833 0
M  V30 18418 C 1726.66 -3.30342 1.08487 0
M  V30 18419 H 1725.99 -3.50221 1.92835 0
M  V30 18420 H 1727.43 -4.10041 1.079 0
M  V30 18421 C 1725.89 -3.36238 -0.211057 0
M  V30 18422 O 1726.42 -3.83198 -1.20508 0
M  V30 18423 N 1724.62 -2.89509 -0.251599 0
M  V30 18424 H 1724.17 -2.51486 0.557916 0
M  V30 18425 H 1724.13 -2.93836 -1.11839 0
M  V30 18426 N 1727.9 -1.19782 -1.02421 0
M  V30 18427 C 1729.12 -1.02939 -1.80051 0
M  V30 18428 C 1729.55 0.417153 -1.83416 0
M  V30 18429 O 1728.91 1.3001 -1.26361 0
M  V30 18430 C 1728.95 -1.60853 -3.22736 0
M  V30 18431 O 1728.06 -0.840999 -4.03734 0
M  V30 18432 H 1727.4 -0.363537 -0.555641 0
M  V30 18433 H 1729.93 -1.58908 -1.28878 0
M  V30 18434 H 1729.94 -1.64266 -3.73471 0
M  V30 18435 H 1728.61 -2.66135 -3.19602 0
M  V30 18436 H 1727.19 -0.880482 -3.62356 0
M  V30 18437 N 1729.38 1.21606 -1.00248 0
M  V30 18438 C 1730.62 1.90607 -0.683752 0
M  V30 18439 C 1730.95 1.77945 0.785228 0
M  V30 18440 O 1730.21 1.14856 1.58451 0
M  V30 18441 C 1730.51 3.41708 -1.04739 0
M  V30 18442 C 1730.17 3.74565 -2.51022 0
M  V30 18443 C 1728.83 3.83243 -2.90995 0
M  V30 18444 C 1731.19 3.89971 -3.45792 0
M  V30 18445 C 1728.51 4.04773 -4.24707 0
M  V30 18446 C 1730.87 4.13008 -4.79174 0
M  V30 18447 C 1729.53 4.19912 -5.18874 0
M  V30 18448 H 1728.8 0.697481 -0.250203 0
M  V30 18449 H 1731.45 1.4417 -1.26045 0
M  V30 18450 H 1729.75 3.89865 -0.388905 0
M  V30 18451 H 1731.45 3.93367 -0.778675 0
M  V30 18452 H 1728.04 3.68399 -2.19043 0
M  V30 18453 H 1732.22 3.82635 -3.16076 0
M  V30 18454 H 1727.48 4.08349 -4.5504 0
M  V30 18455 H 1731.65 4.23871 -5.52545 0
M  V30 18456 H 1729.28 4.36348 -6.22499 0
M  V30 18457 N 1730.86 0.776895 1.37121 0
M  V30 18458 C 1731.79 0.180738 2.32799 0
M  V30 18459 C 1732.77 -0.677284 1.56035 0
M  V30 18460 O 1733.95 -0.613687 1.84249 0
M  V30 18461 C 1731.08 -0.695148 3.40272 0
M  V30 18462 C 1730.04 0.0619772 4.27955 0
M  V30 18463 C 1729.36 -0.933688 5.26485 0
M  V30 18464 C 1730.66 1.24396 5.0727 0
M  V30 18465 H 1732.36 0.980039 2.82906 0
M  V30 18466 H 1729.9 0.472722 1.3602 0
M  V30 18467 H 1731.85 -1.12205 4.06187 0
M  V30 18468 H 1730.58 -1.52702 2.88703 0
M  V30 18469 H 1729.24 0.469717 3.63578 0
M  V30 18470 H 1728.89 -1.76025 4.71194 0
M  V30 18471 H 1728.59 -0.431608 5.86013 0
M  V30 18472 H 1730.11 -1.35942 5.95275 0
M  V30 18473 H 1731.52 0.89345 5.66295 0
M  V30 18474 H 1729.92 1.67848 5.76149 0
M  V30 18475 H 1730.99 2.04553 4.39643 0
M  V30 18476 N 1732.33 -1.48497 0.527859 0
M  V30 18477 C 1733.74 -1.86498 0.0868541 0
M  V30 18478 C 1734.1 -1.43763 -1.33517 0
M  V30 18479 O 1733.22 -0.827397 -1.99958 0
M  V30 18480 C 1733.82 -3.38464 0.150843 0
M  V30 18481 C 1732.37 -3.75666 -0.234956 0
M  V30 18482 C 1731.52 -2.72541 0.511549 0
M  V30 18483 H 1734.47 -1.40432 0.739223 0
M  V30 18484 H 1734.49 -3.75114 -0.637972 0
M  V30 18485 H 1734.01 -3.69537 1.18592 0
M  V30 18486 H 1732.11 -3.50206 -1.27225 0
M  V30 18487 H 1732.22 -4.78989 0.103178 0
M  V30 18488 H 1730.58 -2.54665 -0.0419281 0
M  V30 18489 H 1731.37 -3.06457 1.54722 0
M  V30 18490 N 1733.81 -0.262893 -1.55392 0
M  V30 18491 C 1735.04 0.361057 -2.03725 0
M  V30 18492 C 1735.45 1.5037 -1.14168 0
M  V30 18493 O 1734.81 1.81804 -0.159284 0
M  V30 18494 C 1734.86 0.853697 -3.51275 0
M  V30 18495 O 1734.58 -0.243431 -4.37423 0
M  V30 18496 C 1736.08 1.54671 -4.15442 0
M  V30 18497 H 1733.3 0.0839272 -0.665731 0
M  V30 18498 H 1735.85 -0.391424 -2.00719 0
M  V30 18499 H 1734 1.55631 -3.54765 0
M  V30 18500 H 1734.42 0.133241 -5.24331 0
M  V30 18501 H 1735.89 1.84296 -5.20326 0
M  V30 18502 H 1736.37 2.47413 -3.62882 0
M  V30 18503 H 1736.97 0.888269 -4.15921 0
M  V30 18504 N 1735.29 1.57597 0.0100073 0
M  V30 18505 C 1736.25 2.06745 0.989401 0
M  V30 18506 C 1737.25 0.97499 1.27869 0
M  V30 18507 O 1738.44 1.23798 1.22555 0
M  V30 18508 C 1735.57 2.50048 2.31709 0
M  V30 18509 H 1736.77 2.9454 0.564473 0
M  V30 18510 H 1734.32 1.54168 0.257266 0
M  V30 18511 H 1735.06 1.65466 2.78911 0
M  V30 18512 H 1734.84 3.29823 2.12035 0
M  V30 18513 H 1736.33 2.88433 3.01987 0
M  V30 18514 N 1736.77 -0.282606 1.55045 0
M  V30 18515 C 1737.68 -1.37129 1.90349 0
M  V30 18516 C 1738.69 -1.54537 0.799639 0
M  V30 18517 O 1739.87 -1.68849 1.09782 0
M  V30 18518 C 1736.93 -2.71211 2.15975 0
M  V30 18519 C 1736 -2.62632 3.39592 0
M  V30 18520 C 1735.23 -3.90319 3.63987 0
M  V30 18521 O 1735.45 -4.90551 2.9106 0
M  V30 18522 O 1734.39 -3.91102 4.57518 0
M  V30 18523 H 1738.21 -1.10189 2.83006 0
M  V30 18524 H 1735.8 -0.480293 1.41469 0
M  V30 18525 H 1737.68 -3.50509 2.33926 0
M  V30 18526 H 1736.35 -2.97958 1.26503 0
M  V30 18527 H 1735.26 -1.81743 3.26987 0
M  V30 18528 H 1736.59 -2.40836 4.29254 0
M  V30 18529 N 1738.25 -1.47815 -0.546675 0
M  V30 18530 C 1739.49 -1.54238 -1.29975 0
M  V30 18531 C 1739.81 -0.213869 -1.94427 0
M  V30 18532 O 1741.01 -0.156187 -2.7105 0
M  V30 18533 C 1739.47 -2.71938 -2.35749 0
M  V30 18534 C 1739.08 -4.11362 -1.77441 0
M  V30 18535 C 1740.82 -2.87661 -3.12172 0
M  V30 18536 C 1738.73 -5.20347 -2.81057 0
M  V30 18537 H 1737.66 -0.574139 -0.488754 0
M  V30 18538 H 1740.31 -1.74113 -0.579384 0
M  V30 18539 H 1738.69 -2.45463 -3.10747 0
M  V30 18540 H 1739.87 -4.47785 -1.08744 0
M  V30 18541 H 1738.18 -4.00614 -1.13568 0
M  V30 18542 H 1740.78 -3.66252 -3.89568 0
M  V30 18543 H 1741.12 -1.96494 -3.67009 0
M  V30 18544 H 1741.65 -3.13957 -2.44286 0
M  V30 18545 H 1738.39 -6.13426 -2.31061 0
M  V30 18546 H 1737.91 -4.8843 -3.48132 0
M  V30 18547 H 1739.59 -5.47748 -3.44355 0
M  V30 18548 N 1739.72 0.794246 -1.36123 0
M  V30 18549 C 1740.97 1.54708 -1.29416 0
M  V30 18550 C 1741.29 1.95195 0.125849 0
M  V30 18551 O 1742.49 2.69663 0.315271 0
M  V30 18552 C 1740.95 2.79256 -2.27034 0
M  V30 18553 C 1740.56 2.45957 -3.74445 0
M  V30 18554 C 1742.3 3.57246 -2.29294 0
M  V30 18555 C 1740.21 3.66871 -4.63853 0
M  V30 18556 H 1739.14 0.580743 -0.480888 0
M  V30 18557 H 1741.79 0.871975 -1.61458 0
M  V30 18558 H 1740.17 3.4854 -1.87979 0
M  V30 18559 H 1741.34 1.846 -4.22208 0
M  V30 18560 H 1739.66 1.81187 -3.74913 0
M  V30 18561 H 1742.26 4.47076 -2.93304 0
M  V30 18562 H 1742.6 3.95478 -1.30011 0
M  V30 18563 H 1743.13 2.94936 -2.66941 0
M  V30 18564 H 1739.87 3.33739 -5.6418 0
M  V30 18565 H 1739.39 4.27411 -4.20809 0
M  V30 18566 H 1741.07 4.33957 -4.79886 0
M  V30 18567 N 1741.2 1.20323 1.01785 0
M  V30 18568 C 1742.43 1.03671 1.78706 0
M  V30 18569 C 1742.84 -0.417188 1.84543 0
M  V30 18570 O 1742.18 -1.30146 1.29645 0
M  V30 18571 C 1742.24 1.54318 3.24694 0
M  V30 18572 C 1741.91 3.02598 3.42466 0
M  V30 18573 C 1742.91 4.00267 3.31787 0
M  V30 18574 C 1740.59 3.41531 3.68323 0
M  V30 18575 C 1742.58 5.34858 3.46707 0
M  V30 18576 C 1740.27 4.76278 3.82887 0
M  V30 18577 C 1741.27 5.7275 3.72083 0
M  V30 18578 O 1740.96 7.05055 3.86203 0
M  V30 18579 H 1740.69 0.365174 0.56888 0
M  V30 18580 H 1743.24 1.59826 1.29014 0
M  V30 18581 H 1741.47 0.925474 3.75462 0
M  V30 18582 H 1743.16 1.33705 3.83246 0
M  V30 18583 H 1743.93 3.71534 3.11749 0
M  V30 18584 H 1739.81 2.66983 3.75821 0
M  V30 18585 H 1743.35 6.10142 3.3819 0
M  V30 18586 H 1739.25 5.04702 4.02425 0
M  V30 18587 H 1740.02 7.12284 4.03228 0
M  V30 18588 N 1742.68 -1.21073 1.00892 0
M  V30 18589 C 1743.91 -1.94233 0.712813 0
M  V30 18590 C 1744.32 -1.74315 -0.725249 0
M  V30 18591 O 1743.68 -1.05224 -1.49111 0
M  V30 18592 C 1743.73 -3.46536 1.02931 0
M  V30 18593 O 1743.45 -3.65798 2.41088 0
M  V30 18594 C 1744.95 -4.36855 0.753166 0
M  V30 18595 H 1742.17 -0.617579 0.262367 0
M  V30 18596 H 1744.72 -1.53781 1.34802 0
M  V30 18597 H 1742.87 -3.84897 0.439634 0
M  V30 18598 H 1743.29 -4.59857 2.52254 0
M  V30 18599 H 1744.76 -5.42405 1.02476 0
M  V30 18600 H 1745.24 -4.38085 -0.312761 0
M  V30 18601 H 1745.84 -4.04145 1.32464 0
M  V30 18602 N 1744.16 -0.784156 -1.36707 0
M  V30 18603 C 1745.41 -0.350748 -1.98627 0
M  V30 18604 C 1745.72 1.08208 -1.62943 0
M  V30 18605 O 1746.93 1.6175 -2.18058 0
M  V30 18606 C 1745.38 -0.576173 -3.55258 0
M  V30 18607 C 1744.99 -2.02008 -3.99871 0
M  V30 18608 C 1746.73 -0.207008 -4.23995 0
M  V30 18609 C 1744.64 -2.19244 -5.4926 0
M  V30 18610 H 1743.57 -0.127403 -0.743158 0
M  V30 18611 H 1746.22 -0.965044 -1.56074 0
M  V30 18612 H 1744.6 0.10776 -3.95853 0
M  V30 18613 H 1745.78 -2.73998 -3.70489 0
M  V30 18614 H 1744.09 -2.34699 -3.43955 0
M  V30 18615 H 1746.69 -0.314139 -5.33776 0
M  V30 18616 H 1747.03 0.844253 -4.07649 0
M  V30 18617 H 1747.57 -0.843971 -3.88744 0
M  V30 18618 H 1744.31 -3.22734 -5.70546 0
M  V30 18619 H 1743.83 -1.51752 -5.80286 0
M  V30 18620 H 1745.5 -1.99703 -6.15408 0
M  V30 18621 N 1745.64 1.48215 -0.535727 0
M  V30 18622 C 1746.87 2.06598 -0.00793498 0
M  V30 18623 C 1747.27 1.39186 1.28155 0
M  V30 18624 O 1746.62 0.475163 1.77448 0
M  V30 18625 C 1746.68 3.58402 0.280696 0
M  V30 18626 C 1746.34 4.47723 -0.916162 0
M  V30 18627 C 1747.34 4.87149 -1.81609 0
M  V30 18628 C 1745.03 4.89545 -1.12478 0
M  V30 18629 C 1747.02 5.67173 -2.9085 0
M  V30 18630 C 1744.71 5.69337 -2.22032 0
M  V30 18631 C 1745.7 6.0806 -3.1105 0
M  V30 18632 O 1745.39 6.8625 -4.18707 0
M  V30 18633 H 1745.12 0.675194 -0.0330032 0
M  V30 18634 H 1747.68 1.91512 -0.742453 0
M  V30 18635 H 1745.91 3.71623 1.06926 0
M  V30 18636 H 1747.6 3.98887 0.751264 0
M  V30 18637 H 1748.36 4.55456 -1.66688 0
M  V30 18638 H 1744.24 4.58884 -0.44115 0
M  V30 18639 H 1747.79 5.97316 -3.6036 0
M  V30 18640 H 1743.68 6.00444 -2.36934 0
M  V30 18641 H 1744.45 7.04613 -4.16488 0
M  V30 18642 N 1747.11 0.27113 1.5525 0
M  V30 18643 C 1748.02 -0.628245 2.26031 0
M  V30 18644 C 1749.04 -1.17339 1.28481 0
M  V30 18645 O 1750.22 -1.20453 1.61409 0
M  V30 18646 C 1747.28 -1.79766 2.96454 0
M  V30 18647 C 1746.34 -1.28958 4.09473 0
M  V30 18648 C 1745.58 -2.40326 4.76528 0
M  V30 18649 O 1745.8 -3.59595 4.42772 0
M  V30 18650 O 1744.73 -2.08708 5.64557 0
M  V30 18651 H 1748.56 -0.0549756 3.0365 0
M  V30 18652 H 1746.14 0.0386859 1.4935 0
M  V30 18653 H 1748.03 -2.4796 3.40725 0
M  V30 18654 H 1746.7 -2.35809 2.21756 0
M  V30 18655 H 1745.61 -0.57422 3.69667 0
M  V30 18656 H 1746.94 -0.774945 4.86061 0
M  V30 18657 N 1748.59 -1.576 -0.00164943 0
M  V30 18658 C 1749.84 -1.89675 -0.686026 0
M  V30 18659 C 1750.15 -0.873179 -1.75028 0
M  V30 18660 O 1751.36 -1.08409 -2.48917 0
M  V30 18661 C 1749.82 -3.36696 -1.27136 0
M  V30 18662 C 1749.42 -4.47346 -0.242011 0
M  V30 18663 C 1751.17 -3.77883 -1.93402 0
M  V30 18664 C 1749.08 -5.85444 -0.837241 0
M  V30 18665 H 1748.01 -0.707756 -0.259994 0
M  V30 18666 H 1750.66 -1.83406 0.0586245 0
M  V30 18667 H 1749.04 -3.37797 -2.06662 0
M  V30 18668 H 1750.21 -4.57759 0.528539 0
M  V30 18669 H 1748.53 -4.15168 0.320118 0
M  V30 18670 H 1751.12 -4.78394 -2.38838 0
M  V30 18671 H 1751.47 -3.11311 -2.76389 0
M  V30 18672 H 1752 -3.79075 -1.20612 0
M  V30 18673 H 1748.74 -6.55484 -0.04619 0
M  V30 18674 H 1748.26 -5.78698 -1.57699 0
M  V30 18675 H 1749.94 -6.33048 -1.33637 0
M  V30 18676 N 1750.07 0.274379 -1.55193 0
M  V30 18677 C 1751.32 1.00394 -1.7494 0
M  V30 18678 C 1751.63 1.87499 -0.557084 0
M  V30 18679 O 1752.84 2.63923 -0.636936 0
M  V30 18680 C 1751.29 1.83489 -3.09612 0
M  V30 18681 C 1750.9 1.01257 -4.36407 0
M  V30 18682 C 1752.65 2.55883 -3.38709 0
M  V30 18683 C 1750.55 1.83782 -5.62119 0
M  V30 18684 H 1749.48 0.378561 -0.65208 0
M  V30 18685 H 1752.13 0.259678 -1.81653 0
M  V30 18686 H 1750.52 2.62005 -2.96933 0
M  V30 18687 H 1751.69 0.27167 -4.59998 0
M  V30 18688 H 1750.01 0.403235 -4.14443 0
M  V30 18689 H 1752.6 3.18028 -4.2984 0
M  V30 18690 H 1752.95 3.26096 -2.58779 0
M  V30 18691 H 1753.48 1.84398 -3.5248 0
M  V30 18692 H 1750.22 1.17992 -6.44793 0
M  V30 18693 H 1749.74 2.55473 -5.42673 0
M  V30 18694 H 1751.42 2.41181 -6.00367 0
M  V30 18695 N 1751.55 1.48103 0.538828 0
M  V30 18696 C 1752.48 1.58044 1.65996 0
M  V30 18697 C 1753.49 0.465316 1.56009 0
M  V30 18698 O 1754.68 0.735769 1.62631 0
M  V30 18699 C 1751.78 1.48587 3.0459 0
M  V30 18700 C 1750.96 2.74987 3.40148 0
M  V30 18701 C 1750.01 2.59109 4.57984 0
M  V30 18702 O 1749.04 3.32974 4.61646 0
M  V30 18703 N 1750.24 1.68143 5.55615 0
M  V30 18704 H 1753.01 2.54726 1.57908 0
M  V30 18705 H 1750.57 1.44715 0.725901 0
M  V30 18706 H 1752.56 1.35673 3.81281 0
M  V30 18707 H 1751.13 0.599157 3.06804 0
M  V30 18708 H 1750.35 3.02531 2.52723 0
M  V30 18709 H 1751.64 3.58862 3.60687 0
M  V30 18710 H 1751.04 1.07317 5.55427 0
M  V30 18711 H 1749.59 1.61171 6.31559 0
M  V30 18712 N 1753.03 -0.787016 1.36542 0
M  V30 18713 C 1753.94 -1.93103 1.33223 0
M  V30 18714 C 1754.95 -1.72419 0.234047 0
M  V30 18715 O 1756.13 -1.95915 0.466828 0
M  V30 18716 C 1753.19 -3.28002 1.12319 0
M  V30 18717 C 1752.25 -3.61447 2.31635 0
M  V30 18718 C 1751.49 -4.89909 2.11719 0
M  V30 18719 O 1751.71 -5.59818 1.0936 0
M  V30 18720 O 1750.64 -5.22065 2.99552 0
M  V30 18721 H 1754.47 -1.98853 2.29545 0
M  V30 18722 H 1752.06 -0.92761 1.17114 0
M  V30 18723 H 1753.94 -4.08722 1.02589 0
M  V30 18724 H 1752.61 -3.23138 0.19061 0
M  V30 18725 H 1751.52 -2.81024 2.46934 0
M  V30 18726 H 1752.85 -3.71037 3.23407 0
M  V30 18727 N 1754.5 -1.20861 -1.01145 0
M  V30 18728 C 1755.75 -1.02191 -1.74823 0
M  V30 18729 C 1756.08 0.445357 -1.89333 0
M  V30 18730 O 1755.33 1.34684 -1.41982 0
M  V30 18731 C 1755.63 -1.65666 -3.16685 0
M  V30 18732 C 1755.3 -3.15494 -3.2214 0
M  V30 18733 C 1753.96 -3.56381 -3.23336 0
M  V30 18734 C 1756.31 -4.11481 -3.19895 0
M  V30 18735 C 1753.64 -4.91772 -3.19964 0
M  V30 18736 C 1755.99 -5.46826 -3.18064 0
M  V30 18737 C 1754.66 -5.87118 -3.17566 0
M  V30 18738 H 1753.93 -0.373945 -0.639724 0
M  V30 18739 H 1756.57 -1.50361 -1.18592 0
M  V30 18740 H 1754.88 -1.09772 -3.76108 0
M  V30 18741 H 1756.58 -1.4873 -3.72398 0
M  V30 18742 H 1753.17 -2.82926 -3.21948 0
M  V30 18743 H 1757.35 -3.80924 -3.18136 0
M  V30 18744 H 1752.61 -5.22247 -3.17913 0
M  V30 18745 H 1756.78 -6.20945 -3.15279 0
M  V30 18746 H 1754.41 -6.92 -3.14707 0
M  V30 18747 N 1755.98 1.20536 -1.01532 0
M  V30 18748 C 1757.39 1.71594 -0.735687 0
M  V30 18749 C 1757.74 1.81469 0.745873 0
M  V30 18750 O 1756.87 1.47638 1.58215 0
M  V30 18751 C 1757.46 3.11654 -1.3288 0
M  V30 18752 C 1756.02 3.60027 -1.09806 0
M  V30 18753 C 1755.17 2.37266 -1.43528 0
M  V30 18754 H 1758.12 1.05568 -1.18495 0
M  V30 18755 H 1758.14 3.7365 -0.718725 0
M  V30 18756 H 1757.65 3.04434 -2.4071 0
M  V30 18757 H 1755.76 3.72581 -0.0373763 0
M  V30 18758 H 1755.87 4.44918 -1.77722 0
M  V30 18759 H 1754.23 2.39947 -0.854268 0
M  V30 18760 H 1755.02 2.32688 -2.5241 0
M  V30 18761 N 1757.46 0.791395 1.36289 0
M  V30 18762 C 1758.42 0.197069 2.28351 0
M  V30 18763 C 1759.42 -0.606748 1.48913 0
M  V30 18764 O 1760.61 -0.427453 1.68874 0
M  V30 18765 C 1757.75 -0.727009 3.33058 0
M  V30 18766 H 1758.94 1.00885 2.82422 0
M  V30 18767 H 1756.49 0.560959 1.45887 0
M  V30 18768 H 1757.23 -1.56306 2.84146 0
M  V30 18769 H 1757.01 -0.152537 3.91803 0
M  V30 18770 H 1758.5 -1.13765 4.01805 0
M  V30 18771 N 1758.94 -1.47929 0.54358 0
M  V30 18772 C 1759.87 -2.3264 -0.200228 0
M  V30 18773 C 1760.85 -1.42945 -0.922 0
M  V30 18774 O 1762.04 -1.71817 -0.905129 0
M  V30 18775 C 1759.17 -3.24439 -1.23922 0
M  V30 18776 C 1758.12 -4.23267 -0.634753 0
M  V30 18777 C 1757.45 -5.04295 -1.77739 0
M  V30 18778 C 1758.75 -5.20747 0.402524 0
M  V30 18779 H 1760.44 -2.95077 0.506957 0
M  V30 18780 H 1757.99 -1.41896 0.245246 0
M  V30 18781 H 1759.94 -3.82535 -1.76763 0
M  V30 18782 H 1758.66 -2.60029 -1.97616 0
M  V30 18783 H 1757.32 -3.66377 -0.127756 0
M  V30 18784 H 1756.97 -4.36299 -2.50304 0
M  V30 18785 H 1756.67 -5.71195 -1.37879 0
M  V30 18786 H 1758.19 -5.65246 -2.30932 0
M  V30 18787 H 1759.61 -5.73287 -0.039305 0
M  V30 18788 H 1758 -5.95774 0.719251 0
M  V30 18789 H 1759.07 -4.67054 1.3034 0
M  V30 18790 N 1760.42 -0.27936 -1.55104 0
M  V30 18791 C 1761.35 0.639572 -2.20096 0
M  V30 18792 C 1762.36 1.11423 -1.18696 0
M  V30 18793 O 1763.55 1.0354 -1.45402 0
M  V30 18794 C 1760.65 1.88494 -2.81644 0
M  V30 18795 C 1759.82 1.55639 -4.08773 0
M  V30 18796 C 1758.88 2.65466 -4.54328 0
M  V30 18797 O 1757.91 2.31473 -5.20008 0
M  V30 18798 N 1759.11 3.95606 -4.24825 0
M  V30 18799 H 1761.88 0.0833048 -2.99584 0
M  V30 18800 H 1759.44 -0.100637 -1.61587 0
M  V30 18801 H 1761.43 2.61272 -3.09062 0
M  V30 18802 H 1760 2.35015 -2.06123 0
M  V30 18803 H 1759.22 0.662253 -3.88597 0
M  V30 18804 H 1760.51 1.31196 -4.91594 0
M  V30 18805 H 1759.91 4.26043 -3.72161 0
M  V30 18806 H 1758.46 4.64748 -4.57004 0
M  V30 18807 N 1761.9 1.57599 -0.0067085 0
M  V30 18808 C 1762.81 2.1228 0.998709 0
M  V30 18809 C 1763.82 1.06964 1.37239 0
M  V30 18810 O 1765 1.38902 1.45836 0
M  V30 18811 C 1762.06 2.62076 2.26973 0
M  V30 18812 C 1761.12 3.8202 1.95855 0
M  V30 18813 C 1760.36 4.29431 3.16898 0
M  V30 18814 O 1760.58 3.76136 4.2881 0
M  V30 18815 O 1759.51 5.21518 3.00504 0
M  V30 18816 H 1763.34 2.9842 0.563849 0
M  V30 18817 H 1760.92 1.47881 0.212535 0
M  V30 18818 H 1762.81 2.94274 3.01631 0
M  V30 18819 H 1761.48 1.79031 2.69684 0
M  V30 18820 H 1760.39 3.54785 1.18653 0
M  V30 18821 H 1761.72 4.66159 1.57977 0
M  V30 18822 N 1763.37 -0.266145 1.55336 0
M  V30 18823 C 1764.79 -0.613693 1.47329 0
M  V30 18824 C 1764.99 -1.89207 0.693038 0
M  V30 18825 O 1764.05 -2.51586 0.214642 0
M  V30 18826 C 1765.36 -0.734287 2.91597 0
M  V30 18827 C 1766.91 -0.82789 3.01853 0
M  V30 18828 C 1767.38 -0.980205 4.47388 0
M  V30 18829 N 1768.87 -1.04556 4.51245 0
M  V30 18830 C 1769.61 -1.18233 5.61078 0
M  V30 18831 N 1769.1 -1.28587 6.80762 0
M  V30 18832 N 1770.9 -1.21398 5.48834 0
M  V30 18833 H 1763.05 0.573316 2.04516 0
M  V30 18834 H 1765.31 0.195128 0.927701 0
M  V30 18835 H 1765.02 0.134714 3.51442 0
M  V30 18836 H 1764.89 -1.6124 3.41001 0
M  V30 18837 H 1767.28 -1.68735 2.421 0
M  V30 18838 H 1767.36 0.0749719 2.5569 0
M  V30 18839 H 1767 -0.125373 5.07745 0
M  V30 18840 H 1766.93 -1.89782 4.91213 0
M  V30 18841 H 1769.42 -0.977667 3.65034 0
M  V30 18842 H 1769.74 -1.38876 7.60219 0
M  V30 18843 H 1768.08 -1.25579 6.8356 0
M  V30 18844 H 1771.27 -1.12944 4.5427 0
M  V30 18845 H 1771.45 -1.31713 6.34473 0
M  V30 18846 N 1764.85 -1.48386 -0.530967 0
M  V30 18847 C 1765.8 -1.63279 -1.65658 0
M  V30 18848 C 1766.79 -0.499261 -1.61876 0
M  V30 18849 O 1768 -0.677951 -1.66745 0
M  V30 18850 H 1764.37 -0.514332 -0.548605 0
M  V30 18851 H 1766.35 -2.57818 -1.50241 0
M  V30 18852 C 1765.09 -1.68878 -3.03933 0
M  V30 18853 H 1764.42 -2.55462 -3.07537 0
M  V30 18854 H 1765.86 -1.83343 -3.82311 0
M  V30 18855 C 1764.32 -0.427267 -3.3418 0
M  V30 18856 O 1764.85 0.460276 -3.99054 0
M  V30 18857 N 1763.05 -0.299268 -2.89055 0
M  V30 18858 H 1762.6 -1.02248 -2.36438 0
M  V30 18859 H 1762.56 0.543787 -3.09662 0
M  V30 18860 N 1766.33 0.779763 -1.36958 0
M  V30 18861 C 1767.56 1.56648 -1.34704 0
M  V30 18862 C 1767.97 1.89065 0.071459 0
M  V30 18863 O 1767.31 1.51325 1.04146 0
M  V30 18864 C 1767.37 2.90862 -2.11281 0
M  V30 18865 C 1767.04 2.81123 -3.60304 0
M  V30 18866 C 1768.03 2.52702 -4.54354 0
M  V30 18867 C 1765.72 2.99397 -4.0332 0
M  V30 18868 C 1767.71 2.42671 -5.89398 0
M  V30 18869 C 1765.4 2.88987 -5.38451 0
M  V30 18870 C 1766.4 2.60663 -6.31303 0
M  V30 18871 O 1766.09 2.50264 -7.63952 0
M  V30 18872 H 1765.82 0.492209 -0.463364 0
M  V30 18873 H 1768.37 0.974946 -1.80787 0
M  V30 18874 H 1766.6 3.52104 -1.59875 0
M  V30 18875 H 1768.29 3.52203 -2.01762 0
M  V30 18876 H 1769.06 2.38277 -4.22432 0
M  V30 18877 H 1764.94 3.20446 -3.31414 0
M  V30 18878 H 1768.48 2.20484 -6.6184 0
M  V30 18879 H 1764.38 3.02977 -5.69978 0
M  V30 18880 H 1765.14 2.65674 -7.74183 0
M  V30 18881 N 1767.81 1.21396 1.00503 0
M  V30 18882 C 1769.03 1.05791 1.7839 0
M  V30 18883 C 1769.46 -0.387921 1.84056 0
M  V30 18884 O 1768.82 -1.27983 1.28413 0
M  V30 18885 C 1768.86 1.65967 3.20137 0
M  V30 18886 O 1767.97 0.905123 4.02345 0
M  V30 18887 H 1767.31 0.372331 0.549787 0
M  V30 18888 H 1769.84 1.60938 1.26334 0
M  V30 18889 H 1769.85 1.70186 3.70811 0
M  V30 18890 H 1768.52 2.71185 3.15327 0
M  V30 18891 H 1767.1 0.938019 3.60909 0
M  V30 18892 N 1769.29 -1.19996 1.0217 0
M  V30 18893 C 1770.53 -1.88818 0.709281 0
M  V30 18894 C 1770.85 -1.80032 -0.764702 0
M  V30 18895 O 1772.05 -2.44037 -1.18988 0
M  V30 18896 C 1770.51 -3.38652 1.2183 0
M  V30 18897 C 1770.12 -3.56012 2.71955 0
M  V30 18898 C 1771.86 -4.12996 0.981542 0
M  V30 18899 C 1769.77 -4.997 3.16313 0
M  V30 18900 H 1768.7 -0.70716 0.261613 0
M  V30 18901 H 1771.35 -1.35715 1.23506 0
M  V30 18902 H 1769.73 -3.91109 0.620478 0
M  V30 18903 H 1770.91 -3.13918 3.37331 0
M  V30 18904 H 1769.22 -2.95046 2.93831 0
M  V30 18905 H 1771.82 -5.18948 1.28831 0
M  V30 18906 H 1772.16 -4.1622 -0.0818616 0
M  V30 18907 H 1772.69 -3.66656 1.543 0
M  V30 18908 H 1769.43 -5.01635 4.21951 0
M  V30 18909 H 1768.95 -5.42585 2.5566 0
M  V30 18910 H 1770.63 -5.68312 3.09242 0
M  V30 18911 N 1770.76 -0.798611 -1.35867 0
M  V30 18912 C 1771.99 -0.386918 -2.02945 0
M  V30 18913 C 1772.4 1.00438 -1.6034 0
M  V30 18914 O 1771.74 1.65716 -0.792719 0
M  V30 18915 C 1771.81 -0.381754 -3.57467 0
M  V30 18916 C 1771.47 -1.72219 -4.23308 0
M  V30 18917 C 1772.47 -2.67919 -4.45551 0
M  V30 18918 C 1770.15 -2.00402 -4.60591 0
M  V30 18919 C 1772.15 -3.8999 -5.04169 0
M  V30 18920 C 1769.83 -3.22737 -5.18926 0
M  V30 18921 C 1770.83 -4.1735 -5.40655 0
M  V30 18922 O 1770.52 -5.37527 -5.97762 0
M  V30 18923 H 1770.25 -0.156344 -0.657672 0
M  V30 18924 H 1772.81 -1.08128 -1.74635 0
M  V30 18925 H 1771.04 0.369157 -3.84934 0
M  V30 18926 H 1772.72 0.00653107 -4.05899 0
M  V30 18927 H 1773.49 -2.47436 -4.17134 0
M  V30 18928 H 1769.37 -1.27573 -4.42997 0
M  V30 18929 H 1772.91 -4.6385 -5.21046 0
M  V30 18930 H 1768.81 -3.43094 -5.46769 0
M  V30 18931 H 1769.58 -5.38716 -6.16221 0
M  V30 18932 N 1772.24 1.47639 -0.551417 0
M  V30 18933 C 1773.17 2.32743 0.187887 0
M  V30 18934 C 1774.15 1.43432 0.914407 0
M  V30 18935 O 1775.34 1.72295 0.896005 0
M  V30 18936 C 1772.47 3.25092 1.22199 0
M  V30 18937 C 1771.42 4.23598 0.612298 0
M  V30 18938 C 1770.75 5.0523 1.75062 0
M  V30 18939 C 1772.05 5.20526 -0.430135 0
M  V30 18940 H 1773.74 2.94804 -0.522598 0
M  V30 18941 H 1771.29 1.41764 -0.252768 0
M  V30 18942 H 1773.24 3.83467 1.74731 0
M  V30 18943 H 1771.96 2.61074 1.96235 0
M  V30 18944 H 1770.62 3.6644 0.108324 0
M  V30 18945 H 1770.27 4.3762 2.47987 0
M  V30 18946 H 1769.97 5.71918 1.34848 0
M  V30 18947 H 1771.5 5.66463 2.27931 0
M  V30 18948 H 1772.91 5.73299 0.00890168 0
M  V30 18949 H 1771.31 5.95384 -0.750836 0
M  V30 18950 H 1772.38 4.66356 -1.32815 0
M  V30 18951 N 1773.72 0.287581 1.54954 0
M  V30 18952 C 1774.67 -0.610315 2.2445 0
M  V30 18953 C 1775.66 -1.14786 1.24582 0
M  V30 18954 O 1776.87 -1.10005 1.42474 0
M  V30 18955 H 1773.24 -0.215394 0.720493 0
M  V30 18956 H 1775.21 -0.00148121 2.984 0
M  V30 18957 C 1773.96 -1.77719 2.9885 0
M  V30 18958 H 1773.29 -1.37277 3.75493 0
M  V30 18959 H 1774.73 -2.38181 3.50779 0
M  V30 18960 C 1773.19 -2.67321 2.05039 0
M  V30 18961 O 1773.72 -3.68038 1.60968 0
M  V30 18962 N 1771.92 -2.34761 1.71276 0
M  V30 18963 H 1771.47 -1.52905 2.07311 0
M  V30 18964 H 1771.43 -2.94981 1.08781 0
M  V30 18965 N 1775.2 -1.57593 0.0150662 0
M  V30 18966 C 1776.15 -2.0585 -0.980291 0
M  V30 18967 C 1777.13 -0.956179 -1.29406 0
M  V30 18968 O 1778.32 -1.21985 -1.28253 0
M  V30 18969 C 1775.45 -2.57769 -2.26738 0
M  V30 18970 C 1774.54 -3.74906 -1.98259 0
M  V30 18971 N 1774.93 -4.8604 -1.39995 0
M  V30 18972 C 1773.23 -3.83124 -2.28325 0
M  V30 18973 C 1773.93 -5.67368 -1.28329 0
M  V30 18974 N 1772.91 -5.13837 -1.77404 0
M  V30 18975 H 1776.71 -2.89181 -0.524549 0
M  V30 18976 H 1774.22 -1.61281 -0.190285 0
M  V30 18977 H 1776.22 -2.90624 -2.98903 0
M  V30 18978 H 1774.88 -1.75862 -2.72952 0
M  V30 18979 H 1775.89 -5.06583 -1.07678 0
M  V30 18980 H 1772.57 -3.12099 -2.77309 0
M  V30 18981 H 1773.96 -6.66704 -0.833956 0
M  V30 18982 N 1776.68 0.257904 -1.55475 0
M  V30 18983 C 1777.9 1.00531 -1.80834 0
M  V30 18984 C 1778.32 1.79369 -0.589263 0
M  V30 18985 O 1777.68 1.77068 0.441935 0
M  V30 18986 C 1777.73 1.95194 -3.04272 0
M  V30 18987 O 1777.45 1.19548 -4.21473 0
M  V30 18988 C 1778.95 2.81624 -3.42349 0
M  V30 18989 H 1776.17 0.296315 -0.602029 0
M  V30 18990 H 1778.71 0.284118 -2.02517 0
M  V30 18991 H 1776.87 2.62756 -2.84672 0
M  V30 18992 H 1777.28 1.83483 -4.9136 0
M  V30 18993 H 1778.76 3.43815 -4.31851 0
M  V30 18994 H 1779.23 3.52172 -2.62434 0
M  V30 18995 H 1779.84 2.19531 -3.64261 0
M  V30 18996 N 1778.15 1.48666 0.52309 0
M  V30 18997 C 1779.09 1.58279 1.64387 0
M  V30 18998 C 1780.07 0.432873 1.56732 0
M  V30 18999 O 1781.25 0.645422 1.77106 0
M  V30 19000 C 1778.38 1.5172 3.02818 0
M  V30 19001 C 1777.42 2.71637 3.28809 0
M  V30 19002 S 1778.26 4.3354 3.14329 0
M  V30 19003 C 1779.41 4.29591 4.55195 0
M  V30 19004 H 1779.64 2.53093 1.55984 0
M  V30 19005 H 1777.18 1.37284 0.70658 0
M  V30 19006 H 1779.14 1.48623 3.82651 0
M  V30 19007 H 1777.8 0.582311 3.08655 0
M  V30 19008 H 1776.99 2.63206 4.29812 0
M  V30 19009 H 1776.59 2.72033 2.56659 0
M  V30 19010 H 1778.88 3.99949 5.46852 0
M  V30 19011 H 1779.83 5.30797 4.68679 0
M  V30 19012 H 1780.23 3.59964 4.3484 0
M  V30 19013 N 1779.63 -0.772489 1.37369 0
M  V30 19014 C 1780.56 -1.89969 1.35772 0
M  V30 19015 C 1781.54 -1.68586 0.226452 0
M  V30 19016 O 1782.73 -1.89454 0.426692 0
M  V30 19017 C 1779.86 -3.27242 1.16319 0
M  V30 19018 C 1778.81 -3.63187 2.2645 0
M  V30 19019 C 1778.14 -4.98992 1.92121 0
M  V30 19020 C 1779.44 -3.70013 3.6863 0
M  V30 19021 H 1781.13 -1.91564 2.30095 0
M  V30 19022 H 1778.68 -0.920241 1.10759 0
M  V30 19023 H 1780.63 -4.05734 1.13832 0
M  V30 19024 H 1779.36 -3.26078 0.184513 0
M  V30 19025 H 1778.01 -2.87001 2.28091 0
M  V30 19026 H 1777.66 -4.94368 0.927848 0
M  V30 19027 H 1777.36 -5.24012 2.65867 0
M  V30 19028 H 1778.89 -5.79886 1.91219 0
M  V30 19029 H 1780.3 -4.38659 3.69122 0
M  V30 19030 H 1778.7 -4.06529 4.41423 0
M  V30 19031 H 1779.77 -2.70694 4.02309 0
M  V30 19032 N 1781.11 -1.21927 -0.998575 0
M  V30 19033 C 1782.04 -1.00845 -2.106 0
M  V30 19034 C 1783.02 0.068733 -1.69961 0
M  V30 19035 O 1784.21 -0.0923686 -1.9398 0
M  V30 19036 C 1781.34 -0.57929 -3.42435 0
M  V30 19037 C 1780.29 -1.60177 -3.96897 0
M  V30 19038 C 1779.62 -1.02863 -5.24713 0
M  V30 19039 C 1780.92 -2.9903 -4.28227 0
M  V30 19040 H 1782.61 -1.93469 -2.28495 0
M  V30 19041 H 1780.16 -0.931612 -1.09804 0
M  V30 19042 H 1782.11 -0.418944 -4.19312 0
M  V30 19043 H 1780.83 0.382608 -3.24351 0
M  V30 19044 H 1779.49 -1.74979 -3.22146 0
M  V30 19045 H 1779.14 -0.058254 -5.02966 0
M  V30 19046 H 1778.84 -1.71166 -5.62117 0
M  V30 19047 H 1780.36 -0.879743 -6.04229 0
M  V30 19048 H 1781.78 -2.87634 -4.95923 0
M  V30 19049 H 1780.18 -3.64404 -4.76791 0
M  V30 19050 H 1781.25 -3.4939 -3.36236 0
M  V30 19051 N 1782.59 1.19452 -1.02805 0
M  V30 19052 C 1783.54 2.22644 -0.608134 0
M  V30 19053 C 1784.51 1.6175 0.377639 0
M  V30 19054 O 1785.69 1.88815 0.274487 0
M  V30 19055 C 1782.83 3.45081 0.0357589 0
M  V30 19056 C 1781.94 4.20363 -0.995955 0
M  V30 19057 C 1781.08 5.30224 -0.321911 0
M  V30 19058 C 1780.12 5.97261 -1.33959 0
M  V30 19059 N 1779.25 6.98687 -0.691414 0
M  V30 19060 H 1784.09 2.57921 -1.49268 0
M  V30 19061 H 1781.63 1.26722 -0.746985 0
M  V30 19062 H 1783.59 4.15016 0.426309 0
M  V30 19063 H 1782.22 3.10463 0.883889 0
M  V30 19064 H 1781.27 3.49381 -1.50457 0
M  V30 19065 H 1782.58 4.6636 -1.76945 0
M  V30 19066 H 1781.74 6.06574 0.123528 0
M  V30 19067 H 1780.48 4.85294 0.483792 0
M  V30 19068 H 1779.48 5.19662 -1.7953 0
M  V30 19069 H 1780.71 6.44275 -2.14678 0
M  V30 19070 H 1778.65 6.55932 0.0942121 0
M  V30 19071 H 1778.57 7.42871 -1.40281 0
M  V30 19072 H 1779.84 7.79032 -0.269948 0
M  V30 19073 N 1784.07 0.805805 1.35442 0
M  V30 19074 C 1785.03 0.221278 2.28129 0
M  V30 19075 C 1786.03 -0.590919 1.49549 0
M  V30 19076 O 1787.22 -0.409518 1.69318 0
M  V30 19077 C 1784.35 -0.691643 3.3381 0
M  V30 19078 H 1785.54 1.03875 2.81336 0
M  V30 19079 H 1783.1 0.5764 1.45284 0
M  V30 19080 H 1783.83 -1.53283 2.85788 0
M  V30 19081 H 1783.62 -0.110972 3.91943 0
M  V30 19082 H 1785.11 -1.09497 4.02989 0
M  V30 19083 N 1785.54 -1.47344 0.559239 0
M  V30 19084 C 1786.79 -2.01672 0.0337843 0
M  V30 19085 C 1787.11 -1.43883 -1.32503 0
M  V30 19086 O 1788.31 -1.89885 -1.94051 0
M  V30 19087 C 1786.77 -3.59899 0.00989925 0
M  V30 19088 C 1786.38 -4.2668 1.3656 0
M  V30 19089 C 1788.12 -4.21969 -0.462842 0
M  V30 19090 C 1786.03 -5.76919 1.30071 0
M  V30 19091 H 1784.96 -0.753948 0.00885972 0
M  V30 19092 H 1787.61 -1.69317 0.707394 0
M  V30 19093 H 1785.99 -3.89225 -0.729399 0
M  V30 19094 H 1787.16 -4.08993 2.12277 0
M  V30 19095 H 1785.48 -3.76605 1.77644 0
M  V30 19096 H 1788.08 -5.32069 -0.529816 0
M  V30 19097 H 1788.42 -3.89283 -1.47528 0
M  V30 19098 H 1788.95 -3.97182 0.221661 0
M  V30 19099 H 1785.69 -6.14227 2.28921 0
M  V30 19100 H 1785.21 -5.96937 0.585375 0
M  V30 19101 H 1786.89 -6.39168 1.00364 0
M  V30 19102 N 1787.02 -0.295795 -1.54799 0
M  V30 19103 C 1787.95 0.575863 -2.26288 0
M  V30 19104 C 1788.93 1.14217 -1.26049 0
M  V30 19105 O 1790.12 1.17248 -1.54812 0
M  V30 19106 C 1787.25 1.7503 -2.9997 0
M  V30 19107 C 1786.2 1.31459 -4.07311 0
M  V30 19108 C 1785.53 2.57377 -4.6868 0
M  V30 19109 C 1786.83 0.449629 -5.20361 0
M  V30 19110 H 1788.52 -0.0203797 -2.99393 0
M  V30 19111 H 1786.07 -0.0112418 -1.43996 0
M  V30 19112 H 1788.02 2.36615 -3.487 0
M  V30 19113 H 1786.75 2.3727 -2.24434 0
M  V30 19114 H 1785.4 0.721829 -3.59423 0
M  V30 19115 H 1785.05 3.1792 -3.89789 0
M  V30 19116 H 1784.75 2.28927 -5.41171 0
M  V30 19117 H 1786.28 3.19774 -5.2017 0
M  V30 19118 H 1787.69 0.971014 -5.65017 0
M  V30 19119 H 1786.09 0.259121 -5.9954 0
M  V30 19120 H 1787.16 -0.526564 -4.82032 0
M  V30 19121 N 1788.5 1.57583 -0.0234236 0
M  V30 19122 C 1789.43 2.12907 0.958804 0
M  V30 19123 C 1790.41 1.0438 1.34309 0
M  V30 19124 O 1791.6 1.32184 1.42271 0
M  V30 19125 C 1788.73 2.65151 2.24304 0
M  V30 19126 C 1787.68 3.78414 1.99967 0
M  V30 19127 C 1787.01 4.17064 3.34607 0
M  V30 19128 C 1788.31 5.04727 1.34342 0
M  V30 19129 H 1790 2.95228 0.498081 0
M  V30 19130 H 1787.55 1.42017 0.238138 0
M  V30 19131 H 1789.5 3.02487 2.93393 0
M  V30 19132 H 1788.22 1.79983 2.72532 0
M  V30 19133 H 1786.88 3.41507 1.33298 0
M  V30 19134 H 1786.53 3.28886 3.80583 0
M  V30 19135 H 1786.23 4.93385 3.19132 0
M  V30 19136 H 1787.76 4.56978 4.04973 0
M  V30 19137 H 1789.17 5.39686 1.93422 0
M  V30 19138 H 1787.57 5.86009 1.29282 0
M  V30 19139 H 1788.64 4.83872 0.315625 0
M  V30 19140 N 1789.98 -0.249655 1.5561 0
M  V30 19141 C 1790.93 -1.31189 1.86477 0
M  V30 19142 C 1791.91 -1.43619 0.725415 0
M  V30 19143 O 1793.11 -1.46907 0.987281 0
M  V30 19144 C 1790.23 -2.66786 2.16056 0
M  V30 19145 C 1789.32 -2.58371 3.36311 0
M  V30 19146 N 1789.71 -2.19587 4.55648 0
M  V30 19147 C 1788.01 -2.8939 3.39366 0
M  V30 19148 C 1788.71 -2.21737 5.3778 0
M  V30 19149 N 1787.69 -2.61131 4.76772 0
M  V30 19150 H 1791.49 -1.00248 2.76275 0
M  V30 19151 H 1789 -0.458283 1.558 0
M  V30 19152 H 1791 -3.43442 2.36333 0
M  V30 19153 H 1789.66 -2.98597 1.27555 0
M  V30 19154 H 1790.67 -1.91176 4.81323 0
M  V30 19155 H 1787.35 -3.25758 2.61128 0
M  V30 19156 H 1788.74 -1.94114 6.43249 0
M  V30 19157 N 1791.46 -1.48941 -0.515198 0
M  V30 19158 C 1792.7 -1.59318 -1.28052 0
M  V30 19159 C 1793.06 -0.26749 -1.90128 0
M  V30 19160 O 1794.26 -0.246338 -2.67669 0
M  V30 19161 C 1792.53 -2.71033 -2.32972 0
M  V30 19162 S 1794.09 -3.01271 -3.19032 0
M  V30 19163 H 1790.91 -0.56211 -0.435378 0
M  V30 19164 H 1793.51 -1.86534 -0.585253 0
M  V30 19165 H 1792.22 -3.65895 -1.85873 0
M  V30 19166 H 1791.75 -2.45765 -3.07186 0
M  V30 19167 H 1793.76 -2.41702 -4.33353 0
M  V30 19168 N 1792.94 0.765193 -1.37777 0
M  V30 19169 C 1794.18 1.52096 -1.33084 0
M  V30 19170 C 1794.5 1.94827 0.08221 0
M  V30 19171 O 1793.77 1.66787 1.02757 0
M  V30 19172 H 1792.35 0.564139 -0.489649 0
M  V30 19173 H 1795.02 0.910308 -1.72335 0
M  V30 19174 H 1794.11 2.4173 -1.97416 0
M  V30 19175 N 1794.41 1.22455 0.992094 0
M  V30 19176 C 1795.66 1.04373 1.72596 0
M  V30 19177 C 1795.98 -0.421349 1.91008 0
M  V30 19178 O 1797.18 -0.72186 2.61728 0
M  V30 19179 C 1795.64 1.81906 3.10545 0
M  V30 19180 C 1795.25 3.32667 3.00061 0
M  V30 19181 C 1796.99 1.72274 3.87972 0
M  V30 19182 C 1794.9 4.02638 4.3317 0
M  V30 19183 H 1793.83 0.386937 0.647144 0
M  V30 19184 H 1796.48 1.46313 1.10746 0
M  V30 19185 H 1794.86 1.32764 3.73081 0
M  V30 19186 H 1796.03 3.89208 2.46685 0
M  V30 19187 H 1794.35 3.42984 2.36117 0
M  V30 19188 H 1796.95 2.21872 4.86494 0
M  V30 19189 H 1797.29 0.68331 4.10654 0
M  V30 19190 H 1797.82 2.18963 3.32115 0
M  V30 19191 H 1794.56 5.06838 4.15687 0
M  V30 19192 H 1794.08 3.50885 4.86456 0
M  V30 19193 H 1795.76 4.08279 5.01914 0
M  V30 19194 N 1795.89 -1.18905 1.03437 0
M  V30 19195 C 1797.3 -1.70402 0.762893 0
M  V30 19196 C 1797.65 -1.82633 -0.716908 0
M  V30 19197 O 1796.78 -1.50136 -1.55847 0
M  V30 19198 C 1797.37 -3.09501 1.37822 0
M  V30 19199 C 1795.93 -3.58235 1.1552 0
M  V30 19200 C 1795.08 -2.34953 1.47284 0
M  V30 19201 H 1798.03 -1.03669 1.2016 0
M  V30 19202 H 1798.05 -3.7246 0.778079 0
M  V30 19203 H 1797.56 -3.00566 2.45523 0
M  V30 19204 H 1795.66 -3.72475 0.096646 0
M  V30 19205 H 1795.78 -4.42034 1.84778 0
M  V30 19206 H 1794.14 -2.38557 0.892333 0
M  V30 19207 H 1794.92 -2.28643 2.5608 0
M  V30 19208 N 1797.37 -0.812977 -1.35013 0
M  V30 19209 C 1798.28 -0.229534 -2.33474 0
M  V30 19210 C 1799.3 0.630837 -1.62162 0
M  V30 19211 O 1800.47 0.541083 -1.93995 0
M  V30 19212 C 1797.54 0.607055 -3.41344 0
M  V30 19213 C 1796.6 -0.274554 -4.28421 0
M  V30 19214 C 1795.83 0.522202 -5.31139 0
M  V30 19215 O 1796.05 1.75636 -5.42686 0
M  V30 19216 O 1794.99 -0.0902666 -6.01832 0
M  V30 19217 H 1798.81 -1.04423 -2.85183 0
M  V30 19218 H 1796.4 -0.5749 -1.37896 0
M  V30 19219 H 1798.28 1.08335 -4.07236 0
M  V30 19220 H 1796.96 1.39924 -2.91895 0
M  V30 19221 H 1795.86 -0.798124 -3.65487 0
M  V30 19222 H 1797.2 -1.03084 -4.81284 0
M  V30 19223 N 1798.85 1.47045 -0.567045 0
M  V30 19224 C 1800.12 1.9559 0.0194544 0
M  V30 19225 C 1800.5 1.5097 1.47551 0
M  V30 19226 O 1799.85 0.753072 2.15734 0
M  V30 19227 C 1800.06 3.48734 -0.136263 0
M  V30 19228 C 1801.41 4.246 0.00401745 0
M  V30 19229 O 1802.43 3.56142 -0.0643042 0
M  V30 19230 O 1801.29 5.46287 0.152706 0
M  V30 19231 H 1798.39 0.82492 0.0586233 0
M  V30 19232 H 1800.93 1.57401 -0.634262 0
M  V30 19233 H 1799.71 3.74048 -1.14909 0
M  V30 19234 H 1799.33 3.93713 0.554612 0
M  V30 19235 N 1800.33 0.304 1.5464 0
M  V30 19236 C 1801.27 -0.570762 2.23631 0
M  V30 19237 C 1802.24 -1.1272 1.21998 0
M  V30 19238 O 1803.43 -1.17117 1.50626 0
M  V30 19239 C 1800.57 -1.73533 2.98296 0
M  V30 19240 C 1799.68 -1.21 4.14708 0
M  V30 19241 C 1798.82 -2.33867 4.76948 0
M  V30 19242 C 1797.85 -1.78483 5.855 0
M  V30 19243 N 1796.99 -2.84935 6.41682 0
M  V30 19244 H 1801.83 0.024168 2.9799 0
M  V30 19245 H 1799.37 0.023697 1.47081 0
M  V30 19246 H 1801.33 -2.42031 3.39819 0
M  V30 19247 H 1799.96 -2.30184 2.26308 0
M  V30 19248 H 1799.01 -0.41718 3.78105 0
M  V30 19249 H 1800.32 -0.764576 4.92905 0
M  V30 19250 H 1799.47 -3.10306 5.21339 0
M  V30 19251 H 1798.21 -2.81737 3.9809 0
M  V30 19252 H 1797.22 -1.00534 5.4053 0
M  V30 19253 H 1798.44 -1.31513 6.66244 0
M  V30 19254 H 1796.39 -3.32133 5.65706 0
M  V30 19255 H 1796.31 -2.44898 7.15235 0
M  V30 19256 H 1797.57 -3.61263 6.90731 0
M  V30 19257 N 1801.8 -1.57568 0.0317802 0
M  V30 19258 C 1802.73 -2.13412 -0.947499 0
M  V30 19259 C 1803.71 -1.05091 -1.33753 0
M  V30 19260 O 1804.9 -1.32936 -1.41568 0
M  V30 19261 C 1802.03 -2.66337 -2.22895 0
M  V30 19262 C 1800.98 -3.79469 -1.97958 0
M  V30 19263 C 1800.31 -4.18833 -3.3239 0
M  V30 19264 C 1801.61 -5.05432 -1.31664 0
M  V30 19265 H 1803.3 -2.95488 -0.482417 0
M  V30 19266 H 1800.85 -1.42142 -0.230603 0
M  V30 19267 H 1802.8 -3.04039 -2.91784 0
M  V30 19268 H 1801.53 -1.81426 -2.71574 0
M  V30 19269 H 1800.19 -3.42209 -1.31485 0
M  V30 19270 H 1799.83 -3.30899 -3.78833 0
M  V30 19271 H 1799.53 -4.95071 -3.16511 0
M  V30 19272 H 1801.06 -4.5912 -4.02544 0
M  V30 19273 H 1802.47 -5.40704 -1.90558 0
M  V30 19274 H 1800.87 -5.86686 -1.26173 0
M  V30 19275 H 1801.94 -4.84032 -0.28996 0
M  V30 19276 N 1803.28 0.241399 -1.5574 0
M  V30 19277 C 1804.51 0.99028 -1.82231 0
M  V30 19278 C 1804.93 1.77949 -0.609559 0
M  V30 19279 O 1804.29 1.75843 0.44148 0
M  V30 19280 C 1804.34 1.89947 -3.06516 0
M  V30 19281 O 1803.44 2.99201 -2.83818 0
M  V30 19282 H 1802.78 0.281488 -0.601382 0
M  V30 19283 H 1805.31 0.260721 -2.02932 0
M  V30 19284 H 1805.32 2.31308 -3.36096 0
M  V30 19285 H 1804 1.31924 -3.94422 0
M  V30 19286 H 1802.58 2.61929 -2.6542 0
M  V30 19287 N 1804.76 1.49212 0.507292 0
M  V30 19288 C 1805.69 1.61529 1.62606 0
M  V30 19289 C 1806.71 0.498303 1.54986 0
M  V30 19290 O 1807.89 0.7701 1.61033 0
M  V30 19291 C 1804.99 1.55015 3.0137 0
M  V30 19292 C 1804.17 2.8214 3.34239 0
M  V30 19293 C 1803.23 2.68765 4.52385 0
M  V30 19294 O 1802.25 3.42691 4.54479 0
M  V30 19295 N 1803.45 1.7989 5.51924 0
M  V30 19296 H 1806.22 2.58018 1.52469 0
M  V30 19297 H 1803.78 1.46222 0.695042 0
M  V30 19298 H 1805.77 1.4373 3.78317 0
M  V30 19299 H 1804.34 0.6641 3.05464 0
M  V30 19300 H 1803.56 3.07823 2.46249 0
M  V30 19301 H 1804.85 3.66432 3.52994 0
M  V30 19302 H 1804.25 1.19074 5.53026 0
M  V30 19303 H 1802.81 1.74531 6.27999 0
M  V30 19304 N 1806.24 -0.757876 1.38181 0
M  V30 19305 C 1807.48 -1.51912 1.34352 0
M  V30 19306 C 1807.82 -1.94082 -0.0677003 0
M  V30 19307 O 1807.09 -1.65114 -1.02799 0
M  V30 19308 C 1807.38 -2.77466 2.29531 0
M  V30 19309 C 1807.23 -2.41462 3.79495 0
M  V30 19310 C 1808.55 -3.79469 2.22915 0
M  V30 19311 H 1805.67 -0.551091 0.489355 0
M  V30 19312 H 1808.31 -0.868376 1.68995 0
M  V30 19313 H 1806.46 -3.32994 2.00119 0
M  V30 19314 H 1808.13 -1.91742 4.19562 0
M  V30 19315 H 1806.37 -1.73976 3.97385 0
M  V30 19316 H 1807.04 -3.31272 4.41546 0
M  V30 19317 H 1809.52 -3.33471 2.48871 0
M  V30 19318 H 1808.4 -4.6502 2.91629 0
M  V30 19319 H 1808.66 -4.24744 1.22658 0
M  V30 19320 N 1807.72 -1.22979 -0.985586 0
M  V30 19321 C 1808.95 -1.08372 -1.75895 0
M  V30 19322 C 1809.35 0.368113 -1.85584 0
M  V30 19323 O 1808.7 1.26663 -1.3305 0
M  V30 19324 C 1808.76 -1.62873 -3.20488 0
M  V30 19325 C 1808.42 -3.11572 -3.34323 0
M  V30 19326 C 1809.42 -4.08923 -3.21058 0
M  V30 19327 C 1807.11 -3.51176 -3.59139 0
M  V30 19328 C 1809.1 -5.43862 -3.32404 0
M  V30 19329 C 1806.79 -4.86262 -3.70125 0
M  V30 19330 C 1807.78 -5.82414 -3.56767 0
M  V30 19331 O 1807.47 -7.15046 -3.67374 0
M  V30 19332 H 1807.2 -0.380128 -0.558998 0
M  V30 19333 H 1809.76 -1.63191 -1.24731 0
M  V30 19334 H 1807.99 -1.0247 -3.72876 0
M  V30 19335 H 1809.68 -1.43819 -3.79567 0
M  V30 19336 H 1810.44 -3.79669 -3.01789 0
M  V30 19337 H 1806.32 -2.76853 -3.6861 0
M  V30 19338 H 1809.87 -6.18894 -3.21895 0
M  V30 19339 H 1805.76 -5.15194 -3.88903 0
M  V30 19340 H 1806.53 -7.22725 -3.84202 0
M  V30 19341 N 1809.19 1.18355 -1.04066 0
M  V30 19342 C 1810.44 1.87665 -0.73923 0
M  V30 19343 C 1810.76 1.81226 0.735963 0
M  V30 19344 O 1811.96 2.45899 1.15091 0
M  V30 19345 C 1810.42 3.36671 -1.27203 0
M  V30 19346 C 1810.03 3.5164 -2.77585 0
M  V30 19347 C 1811.77 4.11383 -1.04712 0
M  V30 19348 C 1809.68 4.94605 -3.24222 0
M  V30 19349 H 1808.61 0.702908 -0.27283 0
M  V30 19350 H 1811.26 1.33733 -1.25649 0
M  V30 19351 H 1809.64 3.90072 -0.682621 0
M  V30 19352 H 1810.81 3.08511 -3.42283 0
M  V30 19353 H 1809.13 2.90334 -2.98488 0
M  V30 19354 H 1811.73 5.16832 -1.37071 0
M  V30 19355 H 1812.07 4.16297 0.0156344 0
M  V30 19356 H 1812.6 3.64154 -1.60114 0
M  V30 19357 H 1809.34 4.94859 -4.29878 0
M  V30 19358 H 1808.86 5.38449 -2.6426 0
M  V30 19359 H 1810.54 5.6332 -3.18245 0
M  V30 19360 N 1810.67 0.820125 1.3458 0
M  V30 19361 C 1811.92 0.403287 1.97627 0
M  V30 19362 C 1812.23 -1.0385 1.65754 0
M  V30 19363 O 1813.44 -1.55911 2.2227 0
M  V30 19364 C 1811.9 0.670161 3.53606 0
M  V30 19365 C 1811.5 2.12538 3.94375 0
M  V30 19366 C 1813.25 0.31935 4.23297 0
M  V30 19367 C 1811.16 2.3373 5.43254 0
M  V30 19368 H 1810.09 0.147062 0.739519 0
M  V30 19369 H 1812.74 1.00609 1.53461 0
M  V30 19370 H 1811.12 -0.00276896 3.96 0
M  V30 19371 H 1812.29 2.83724 3.63094 0
M  V30 19372 H 1810.61 2.43736 3.37612 0
M  V30 19373 H 1813.2 0.45555 5.32756 0
M  V30 19374 H 1813.55 -0.735875 4.09745 0
M  V30 19375 H 1814.08 0.946743 3.8637 0
M  V30 19376 H 1810.82 3.37747 5.61789 0
M  V30 19377 H 1810.34 1.67084 5.76058 0
M  V30 19378 H 1812.02 2.1595 6.09897 0
M  V30 19379 N 1812.15 -1.46743 0.574835 0
M  V30 19380 C 1813.08 -2.33012 -0.150836 0
M  V30 19381 C 1814.06 -1.44868 -0.891472 0
M  V30 19382 O 1815.25 -1.73698 -0.868481 0
M  V30 19383 C 1812.38 -3.26995 -1.17012 0
M  V30 19384 C 1811.33 -4.24518 -0.544829 0
M  V30 19385 C 1810.66 -5.07951 -1.67002 0
M  V30 19386 C 1811.96 -5.19776 0.512891 0
M  V30 19387 H 1813.65 -2.93935 0.569433 0
M  V30 19388 H 1811.2 -1.41344 0.275289 0
M  V30 19389 H 1813.15 -3.86198 -1.68609 0
M  V30 19390 H 1811.87 -2.64163 -1.92056 0
M  V30 19391 H 1810.53 -3.66566 -0.0500133 0
M  V30 19392 H 1810.18 -4.4151 -2.40993 0
M  V30 19393 H 1809.88 -5.73991 -1.25732 0
M  V30 19394 H 1811.4 -5.70017 -2.1889 0
M  V30 19395 H 1812.82 -5.73241 0.0823064 0
M  V30 19396 H 1811.22 -5.94114 0.845462 0
M  V30 19397 H 1812.29 -4.64184 1.40217 0
M  V30 19398 N 1813.63 -0.312197 -1.54477 0
M  V30 19399 C 1814.86 0.295632 -2.04474 0
M  V30 19400 C 1815.27 1.47211 -1.18851 0
M  V30 19401 O 1814.61 1.82503 -0.209347 0
M  V30 19402 C 1814.67 0.804123 -3.50391 0
M  V30 19403 C 1814.34 -0.248547 -4.56324 0
M  V30 19404 C 1815.33 -1.0808 -5.08542 0
M  V30 19405 C 1813.02 -0.393467 -5.00757 0
M  V30 19406 C 1815.01 -2.04381 -6.03744 0
M  V30 19407 C 1812.7 -1.35991 -5.95777 0
M  V30 19408 C 1813.7 -2.18355 -6.47155 0
M  V30 19409 O 1813.38 -3.13359 -7.40311 0
M  V30 19410 H 1813.12 0.0665366 -0.672718 0
M  V30 19411 H 1815.67 -0.45308 -2.00341 0
M  V30 19412 H 1813.9 1.60355 -3.51885 0
M  V30 19413 H 1815.59 1.32905 -3.83524 0
M  V30 19414 H 1816.36 -0.979766 -4.75001 0
M  V30 19415 H 1812.23 0.237709 -4.60387 0
M  V30 19416 H 1815.78 -2.68708 -6.43771 0
M  V30 19417 H 1811.68 -1.46162 -6.28734 0
M  V30 19418 H 1812.44 -3.08467 -7.58149 0
M  V30 19419 N 1815.11 1.57549 -0.040136 0
M  V30 19420 C 1816.38 1.83571 0.675355 0
M  V30 19421 C 1816.76 0.926313 1.89691 0
M  V30 19422 O 1816.11 -0.0153869 2.28495 0
M  V30 19423 C 1816.32 3.33046 1.04313 0
M  V30 19424 C 1817.67 3.99791 1.43011 0
M  V30 19425 O 1818.69 3.37607 1.13579 0
M  V30 19426 O 1817.55 5.09412 1.97893 0
M  V30 19427 H 1814.65 0.75729 0.332325 0
M  V30 19428 H 1817.19 1.69561 -0.0686584 0
M  V30 19429 H 1815.96 3.90912 0.174189 0
M  V30 19430 H 1815.59 3.52203 1.84495 0
M  V30 19431 N 1816.58 -0.233136 1.55866 0
M  V30 19432 C 1817.55 -1.27227 1.90646 0
M  V30 19433 C 1818.55 -1.4039 0.784038 0
M  V30 19434 O 1819.74 -1.38854 1.05191 0
M  V30 19435 C 1816.87 -2.64791 2.14706 0
M  V30 19436 H 1818.06 -0.975986 2.83575 0
M  V30 19437 H 1815.62 -0.473045 1.4897 0
M  V30 19438 H 1816.35 -2.99537 1.24291 0
M  V30 19439 H 1816.14 -2.56615 2.96464 0
M  V30 19440 H 1817.63 -3.39797 2.4275 0
M  V30 19441 N 1818.06 -1.49479 -0.499372 0
M  V30 19442 C 1819.31 -1.59284 -1.25525 0
M  V30 19443 C 1819.64 -0.27941 -1.92179 0
M  V30 19444 O 1818.92 0.717142 -1.80796 0
M  V30 19445 C 1819.2 -2.75323 -2.32098 0
M  V30 19446 C 1819.05 -4.16464 -1.69934 0
M  V30 19447 C 1820.37 -2.86998 -3.33646 0
M  V30 19448 H 1817.49 -0.579768 -0.455015 0
M  V30 19449 H 1820.13 -1.81769 -0.553165 0
M  V30 19450 H 1818.28 -2.56282 -2.91979 0
M  V30 19451 H 1819.96 -4.47026 -1.13867 0
M  V30 19452 H 1818.2 -4.22036 -1.0034 0
M  V30 19453 H 1818.87 -4.93534 -2.47242 0
M  V30 19454 H 1821.35 -3.04337 -2.83757 0
M  V30 19455 H 1820.22 -3.69865 -4.05575 0
M  V30 19456 H 1820.48 -1.96419 -3.9607 0
M  V30 19457 N 1819.54 0.750537 -1.38581 0
M  V30 19458 C 1820.77 1.53978 -1.38196 0
M  V30 19459 C 1821.18 1.8878 0.0274976 0
M  V30 19460 O 1820.54 1.52997 0.994894 0
M  V30 19461 C 1820.59 2.83702 -2.24043 0
M  V30 19462 O 1820.31 2.50384 -3.59499 0
M  V30 19463 C 1821.81 3.77823 -2.31872 0
M  V30 19464 H 1819.03 0.476345 -0.472585 0
M  V30 19465 H 1821.58 0.928634 -1.82199 0
M  V30 19466 H 1819.73 3.41187 -1.83494 0
M  V30 19467 H 1820.15 3.33605 -4.04732 0
M  V30 19468 H 1821.62 4.65788 -2.96218 0
M  V30 19469 H 1822.1 4.18474 -1.33327 0
M  V30 19470 H 1822.7 3.26262 -2.72824 0
M  V30 19471 N 1821.02 1.235 0.979051 0
M  V30 19472 C 1821.93 1.03412 2.10578 0
M  V30 19473 C 1822.95 -0.0217644 1.73986 0
M  V30 19474 O 1824.12 0.173977 2.00647 0
M  V30 19475 C 1821.19 0.629192 3.40943 0
M  V30 19476 C 1820.25 1.76028 3.91552 0
M  V30 19477 C 1819.48 1.37457 5.15695 0
M  V30 19478 O 1819.7 0.259393 5.6981 0
M  V30 19479 O 1818.64 2.19614 5.60404 0
M  V30 19480 H 1822.46 1.97845 2.30415 0
M  V30 19481 H 1820.05 1.02218 1.08958 0
M  V30 19482 H 1821.93 0.414372 4.19358 0
M  V30 19483 H 1820.61 -0.286128 3.22433 0
M  V30 19484 H 1819.51 2.02975 3.14248 0
M  V30 19485 H 1820.85 2.65396 4.14519 0
M  V30 19486 N 1822.5 -1.17802 1.04693 0
M  V30 19487 C 1823.44 -2.21648 0.643478 0
M  V30 19488 C 1824.41 -1.6233 -0.351858 0
M  V30 19489 O 1825.6 -1.89228 -0.244414 0
M  V30 19490 C 1822.74 -3.45095 0.019145 0
M  V30 19491 C 1821.85 -4.18725 1.06271 0
M  V30 19492 C 1820.99 -5.29644 0.406224 0
M  V30 19493 C 1820.03 -5.95055 1.43444 0
M  V30 19494 N 1819.16 -6.97499 0.802482 0
M  V30 19495 H 1824 -2.55513 1.53352 0
M  V30 19496 H 1821.54 -1.25518 0.767051 0
M  V30 19497 H 1823.5 -4.15642 -0.36023 0
M  V30 19498 H 1822.13 -3.1183 -0.834386 0
M  V30 19499 H 1821.18 -3.46943 1.55996 0
M  V30 19500 H 1822.49 -4.63486 1.84342 0
M  V30 19501 H 1821.65 -6.06694 -0.027012 0
M  V30 19502 H 1820.39 -4.86003 -0.406525 0
M  V30 19503 H 1819.39 -5.1674 1.87775 0
M  V30 19504 H 1820.62 -6.40778 2.249 0
M  V30 19505 H 1818.56 -6.55999 0.010153 0
M  V30 19506 H 1818.48 -7.40545 1.52081 0
M  V30 19507 H 1819.75 -7.78504 0.393852 0
M  V30 19508 N 1823.98 -0.827251 -1.34143 0
M  V30 19509 C 1824.91 -0.267015 -2.31968 0
M  V30 19510 C 1825.89 0.618906 -1.58441 0
M  V30 19511 O 1827.07 0.544882 -1.86399 0
M  V30 19512 C 1824.2 0.568379 -3.42617 0
M  V30 19513 C 1823.16 -0.220767 -4.2743 0
M  V30 19514 C 1822.48 0.737643 -5.29587 0
M  V30 19515 C 1823.78 -1.43137 -5.02304 0
M  V30 19516 H 1825.48 -1.08436 -2.79073 0
M  V30 19517 H 1823.02 -0.522879 -1.34171 0
M  V30 19518 H 1824.97 0.970525 -4.10072 0
M  V30 19519 H 1823.7 1.41882 -2.94172 0
M  V30 19520 H 1822.36 -0.604333 -3.61585 0
M  V30 19521 H 1822.01 1.58416 -4.77403 0
M  V30 19522 H 1821.71 0.213815 -5.87211 0
M  V30 19523 H 1823.23 1.13755 -5.9991 0
M  V30 19524 H 1824.64 -1.10301 -5.62589 0
M  V30 19525 H 1823.04 -1.89115 -5.69522 0
M  V30 19526 H 1824.11 -2.2073 -4.31748 0
M  V30 19527 N 1825.45 1.46436 -0.582609 0
M  V30 19528 C 1826.68 2.06768 -0.0737657 0
M  V30 19529 C 1827.1 1.43137 1.23115 0
M  V30 19530 O 1826.45 0.536633 1.74432 0
M  V30 19531 C 1826.5 3.61365 0.0988205 0
M  V30 19532 O 1826.23 4.22616 -1.15444 0
M  V30 19533 C 1827.73 4.38626 0.642025 0
M  V30 19534 H 1824.95 0.66854 -0.0574078 0
M  V30 19535 H 1827.49 1.88064 -0.80325 0
M  V30 19536 H 1825.65 3.79497 0.778526 0
M  V30 19537 H 1826.06 5.15486 -0.968204 0
M  V30 19538 H 1827.53 5.47389 0.711966 0
M  V30 19539 H 1828.01 4.06663 1.65897 0
M  V30 19540 H 1828.62 4.253 -0.00280852 0
M  V30 19541 N 1826.93 0.320385 1.54309 0
M  V30 19542 C 1828.35 -0.0323699 1.59567 0
M  V30 19543 C 1828.55 -1.50754 1.33699 0
M  V30 19544 O 1827.6 -2.26308 1.11987 0
M  V30 19545 C 1828.92 0.383001 2.98251 0
M  V30 19546 C 1830.46 0.33339 3.11219 0
M  V30 19547 C 1830.94 0.723874 4.52243 0
M  V30 19548 N 1832.43 0.677156 4.58224 0
M  V30 19549 C 1833.17 0.951531 5.6545 0
M  V30 19550 N 1832.66 1.29288 6.8063 0
M  V30 19551 N 1834.45 0.877303 5.55211 0
M  V30 19552 H 1826.61 1.28155 1.69381 0
M  V30 19553 H 1828.87 0.520887 0.792074 0
M  V30 19554 H 1828.57 1.41067 3.22169 0
M  V30 19555 H 1828.45 -0.253601 3.76347 0
M  V30 19556 H 1830.84 -0.685063 2.87038 0
M  V30 19557 H 1830.92 1.00488 2.35236 0
M  V30 19558 H 1830.56 1.74023 4.77157 0
M  V30 19559 H 1830.49 0.0301039 5.26591 0
M  V30 19560 H 1832.98 0.425055 3.75502 0
M  V30 19561 H 1833.29 1.4877 7.58345 0
M  V30 19562 H 1831.64 1.33111 6.82134 0
M  V30 19563 H 1834.83 0.610144 4.64107 0
M  V30 19564 H 1835 1.09449 6.3869 0
M  V30 19565 N 1828.41 -1.57525 0.0484906 0
M  V30 19566 C 1829.83 -1.56599 -0.308041 0
M  V30 19567 C 1830.03 -1.05591 -1.71618 0
M  V30 19568 O 1829.08 -0.711302 -2.42274 0
M  V30 19569 C 1830.39 -3.00379 -0.138955 0
M  V30 19570 C 1831.94 -3.12293 -0.210262 0
M  V30 19571 C 1832.42 -4.57947 -0.0697369 0
M  V30 19572 N 1833.91 -4.63028 -0.1261 0
M  V30 19573 C 1834.64 -5.73385 -0.0414392 0
M  V30 19574 N 1834.14 -6.92734 0.0954164 0
M  V30 19575 N 1835.93 -5.62017 -0.0968281 0
M  V30 19576 H 1828.08 -1.89005 0.969069 0
M  V30 19577 H 1830.35 -0.87027 0.375944 0
M  V30 19578 H 1830.05 -3.41722 0.831808 0
M  V30 19579 H 1829.93 -3.66278 -0.901109 0
M  V30 19580 H 1832.31 -2.7085 -1.1715 0
M  V30 19581 H 1832.39 -2.49077 0.582601 0
M  V30 19582 H 1832.04 -5.00074 0.888161 0
M  V30 19583 H 1831.97 -5.19166 -0.881711 0
M  V30 19584 H 1834.46 -3.77192 -0.231232 0
M  V30 19585 H 1834.77 -7.72649 0.152796 0
M  V30 19586 H 1833.12 -6.94878 0.130465 0
M  V30 19587 H 1836.31 -4.67663 -0.202283 0
M  V30 19588 H 1836.48 -6.47994 -0.0273908 0
M  V30 19589 N 1829.89 0.224867 -1.55988 0
M  V30 19590 C 1830.8 1.2997 -1.95307 0
M  V30 19591 C 1831.81 1.51463 -0.856444 0
M  V30 19592 O 1832.99 1.64658 -1.15973 0
M  V30 19593 C 1830.05 2.63009 -2.25892 0
M  V30 19594 C 1829.12 2.49847 -3.49106 0
M  V30 19595 C 1828.35 3.76541 -3.78223 0
M  V30 19596 O 1828.57 4.7941 -3.09066 0
M  V30 19597 O 1827.51 3.73852 -4.71718 0
M  V30 19598 H 1831.33 0.996093 -2.869 0
M  V30 19599 H 1828.92 0.427457 -1.43154 0
M  V30 19600 H 1830.8 3.41586 -2.46774 0
M  V30 19601 H 1829.47 2.93057 -1.37474 0
M  V30 19602 H 1828.38 1.69482 -3.33507 0
M  V30 19603 H 1829.71 2.24739 -4.37896 0
M  V30 19604 N 1831.37 1.49742 0.491438 0
M  V30 19605 C 1832.61 1.59947 1.24679 0
M  V30 19606 C 1832.94 0.289598 1.92029 0
M  V30 19607 O 1832.22 -0.707544 1.81174 0
M  V30 19608 C 1832.5 2.7655 2.30634 0
M  V30 19609 C 1832.36 4.1736 1.67723 0
M  V30 19610 C 1833.67 2.88764 3.3212 0
M  V30 19611 H 1830.79 0.582173 0.451934 0
M  V30 19612 H 1833.44 1.8206 0.543517 0
M  V30 19613 H 1831.59 2.57826 2.90616 0
M  V30 19614 H 1833.26 4.47623 1.11495 0
M  V30 19615 H 1831.5 4.22562 0.981 0
M  V30 19616 H 1832.17 4.94838 2.44621 0
M  V30 19617 H 1834.65 3.05838 2.82139 0
M  V30 19618 H 1833.52 3.7201 4.03608 0
M  V30 19619 H 1833.78 1.98517 3.95023 0
M  V30 19620 N 1832.84 -0.743177 1.38977 0
M  V30 19621 C 1833.75 -1.88767 1.39299 0
M  V30 19622 C 1834.77 -1.71587 0.288782 0
M  V30 19623 O 1835.95 -1.94331 0.52892 0
M  V30 19624 C 1833.01 -3.24263 1.22697 0
M  V30 19625 C 1832.07 -3.53895 2.43017 0
M  V30 19626 C 1831.31 -4.82925 2.27198 0
M  V30 19627 O 1831.53 -5.56056 1.27114 0
M  V30 19628 O 1830.46 -5.12271 3.16009 0
M  V30 19629 H 1834.29 -1.9145 2.35755 0
M  V30 19630 H 1831.87 -0.889881 1.20006 0
M  V30 19631 H 1833.76 -4.05251 1.1554 0
M  V30 19632 H 1832.43 -3.22368 0.293317 0
M  V30 19633 H 1831.34 -2.73026 2.5575 0
M  V30 19634 H 1832.67 -3.6056 3.35048 0
M  V30 19635 N 1834.32 -1.24018 -0.972487 0
M  V30 19636 C 1835.29 -1.02941 -2.04782 0
M  V30 19637 C 1836.29 0.0115861 -1.60796 0
M  V30 19638 O 1837.48 -0.228922 -1.72689 0
M  V30 19639 C 1834.61 -0.559246 -3.36282 0
M  V30 19640 H 1835.8 -1.98379 -2.24913 0
M  V30 19641 H 1833.35 -1.06173 -1.14704 0
M  V30 19642 H 1834.09 0.398545 -3.21842 0
M  V30 19643 H 1833.87 -1.31054 -3.6955 0
M  V30 19644 H 1835.36 -0.432669 -4.15353 0
M  V30 19645 N 1835.8 1.17245 -1.05316 0
M  V30 19646 C 1836.75 2.21304 -0.655223 0
M  V30 19647 C 1837.72 1.62515 0.343244 0
M  V30 19648 O 1838.9 1.89355 0.234375 0
M  V30 19649 C 1836.04 3.4508 -0.037446 0
M  V30 19650 C 1835.16 4.18155 -1.0849 0
M  V30 19651 C 1834.29 5.29422 -0.434307 0
M  V30 19652 C 1833.33 5.94286 -1.46598 0
M  V30 19653 N 1832.47 6.97063 -0.839461 0
M  V30 19654 H 1837.31 2.54696 -1.54705 0
M  V30 19655 H 1834.84 1.25109 -0.773697 0
M  V30 19656 H 1836.8 4.15827 0.338182 0
M  V30 19657 H 1835.43 3.12268 0.817837 0
M  V30 19658 H 1834.48 3.46111 -1.57834 0
M  V30 19659 H 1835.8 4.62502 -1.86798 0
M  V30 19660 H 1834.95 6.067 -0.00516288 0
M  V30 19661 H 1833.69 4.86212 0.380745 0
M  V30 19662 H 1832.69 5.15737 -1.90513 0
M  V30 19663 H 1833.92 6.39576 -2.28295 0
M  V30 19664 H 1831.86 6.55985 -0.0449421 0
M  V30 19665 H 1831.78 7.39728 -1.56006 0
M  V30 19666 H 1833.05 7.78285 -0.435132 0
M  V30 19667 N 1837.28 0.834353 1.33702 0
M  V30 19668 C 1838.53 0.427887 1.97928 0
M  V30 19669 C 1838.85 -1.0118 1.66111 0
M  V30 19670 O 1838.11 -1.72144 0.930848 0
M  V30 19671 C 1838.41 0.590236 3.52493 0
M  V30 19672 C 1838.07 1.99735 4.04249 0
M  V30 19673 C 1836.74 2.38224 4.18094 0
M  V30 19674 C 1839.09 2.91665 4.3195 0
M  V30 19675 C 1836.42 3.67957 4.56973 0
M  V30 19676 C 1838.77 4.20874 4.72279 0
M  V30 19677 C 1837.43 4.59326 4.8433 0
M  V30 19678 H 1836.7 0.156575 0.724269 0
M  V30 19679 H 1839.35 1.06051 1.59454 0
M  V30 19680 H 1837.65 -0.125718 3.91598 0
M  V30 19681 H 1839.35 0.256094 4.00181 0
M  V30 19682 H 1835.94 1.6884 3.93943 0
M  V30 19683 H 1840.12 2.63168 4.20781 0
M  V30 19684 H 1835.38 3.9756 4.64495 0
M  V30 19685 H 1839.55 4.92187 4.92671 0
M  V30 19686 H 1837.18 5.59901 5.14213 0
M  V30 19687 N 1838.76 -1.46125 0.590367 0
M  V30 19688 C 1840 -2.04237 0.0816639 0
M  V30 19689 C 1840.36 -1.45099 -1.25739 0
M  V30 19690 O 1841.56 -1.94458 -1.85578 0
M  V30 19691 C 1839.83 -3.57391 0.0248878 0
M  V30 19692 S 1841.39 -4.36736 -0.425128 0
M  V30 19693 H 1838.21 -0.709806 0.0411891 0
M  V30 19694 H 1840.81 -1.79065 0.784592 0
M  V30 19695 H 1839.52 -3.97948 1.00327 0
M  V30 19696 H 1839.05 -3.87112 -0.700572 0
M  V30 19697 H 1841.06 -4.66956 -1.6783 0
M  V30 19698 N 1840.23 -0.328564 -1.54137 0
M  V30 19699 C 1841.18 0.550592 -2.25989 0
M  V30 19700 C 1842.18 1.11442 -1.27581 0
M  V30 19701 O 1843.38 1.06189 -1.45341 0
M  V30 19702 H 1839.76 0.196215 -0.72595 0
M  V30 19703 H 1841.73 -0.0776348 -2.98299 0
M  V30 19704 C 1840.48 1.69733 -3.03457 0
M  V30 19705 H 1839.8 1.27273 -3.79001 0
M  V30 19706 H 1841.24 2.28797 -3.56971 0
M  V30 19707 C 1839.7 2.61791 -2.12054 0
M  V30 19708 O 1840.23 3.63641 -1.7067 0
M  V30 19709 N 1838.44 2.30138 -1.7744 0
M  V30 19710 H 1837.98 1.47355 -2.11292 0
M  V30 19711 H 1837.94 2.91994 -1.16564 0
M  V30 19712 N 1841.71 1.57497 -0.0568439 0
M  V30 19713 C 1842.64 2.14892 0.913427 0
M  V30 19714 C 1843.62 1.07205 1.32065 0
M  V30 19715 O 1844.81 1.35172 1.39435 0
M  V30 19716 C 1841.94 2.69849 2.18629 0
M  V30 19717 C 1840.89 3.8257 1.91896 0
M  V30 19718 C 1840.22 4.24068 3.25685 0
M  V30 19719 C 1841.52 5.07463 1.23606 0
M  V30 19720 H 1843.21 2.96218 0.435347 0
M  V30 19721 H 1840.76 1.4249 0.20796 0
M  V30 19722 H 1842.71 3.08643 2.86911 0
M  V30 19723 H 1841.44 1.85723 2.68653 0
M  V30 19724 H 1840.09 3.44258 1.26024 0
M  V30 19725 H 1839.74 3.36884 3.73521 0
M  V30 19726 H 1839.44 5.00043 3.08594 0
M  V30 19727 H 1840.97 4.65466 3.95189 0
M  V30 19728 H 1842.38 5.43667 1.81931 0
M  V30 19729 H 1840.78 5.88619 1.16823 0
M  V30 19730 H 1841.85 4.84432 0.212918 0
M  V30 19731 N 1843.19 -0.216591 1.56105 0
M  V30 19732 C 1844.42 -0.961164 1.83784 0
M  V30 19733 C 1844.84 -1.76957 0.637792 0
M  V30 19734 O 1844.2 -1.76523 -0.413449 0
M  V30 19735 C 1844.25 -1.85047 3.095 0
M  V30 19736 O 1843.35 -2.94648 2.88542 0
M  V30 19737 H 1842.69 -0.271885 0.605784 0
M  V30 19738 H 1845.22 -0.228404 2.03321 0
M  V30 19739 H 1845.23 -2.25932 3.39733 0
M  V30 19740 H 1843.91 -1.25633 3.96471 0
M  V30 19741 H 1842.48 -2.57673 2.69554 0
M  V30 19742 N 1844.67 -1.5 -0.48349 0
M  V30 19743 C 1845.6 -1.70879 -1.5913 0
M  V30 19744 C 1846.58 -0.557606 -1.60701 0
M  V30 19745 O 1847.76 -0.79539 -1.77164 0
M  V30 19746 C 1844.89 -1.7915 -2.97527 0
M  V30 19747 C 1843.85 -2.94233 -3.10823 0
M  V30 19748 C 1843.17 -2.87634 -4.50745 0
M  V30 19749 C 1844.47 -4.34925 -2.89202 0
M  V30 19750 H 1846.17 -2.63632 -1.41911 0
M  V30 19751 H 1843.71 -1.26865 -0.68127 0
M  V30 19752 H 1845.67 -1.92342 -3.74943 0
M  V30 19753 H 1844.39 -0.830106 -3.15875 0
M  V30 19754 H 1843.05 -2.80672 -2.35837 0
M  V30 19755 H 1842.7 -1.89365 -4.65993 0
M  V30 19756 H 1842.4 -3.64885 -4.60579 0
M  V30 19757 H 1843.92 -3.02857 -5.30198 0
M  V30 19758 H 1845.34 -4.49076 -3.56376 0
M  V30 19759 H 1843.73 -5.13531 -3.10492 0
M  V30 19760 H 1844.8 -4.48154 -1.85165 0
M  V30 19761 N 1846.15 0.735796 -1.39369 0
M  V30 19762 C 1847.37 1.53013 -1.40007 0
M  V30 19763 C 1847.8 1.881 0.00368376 0
M  V30 19764 O 1847.15 1.51853 0.990469 0
M  V30 19765 C 1847.2 2.79474 -2.27874 0
M  V30 19766 O 1846.31 3.75364 -1.70808 0
M  V30 19767 H 1845.65 0.462117 -0.476806 0
M  V30 19768 H 1848.18 0.907868 -1.83355 0
M  V30 19769 H 1848.19 3.28217 -2.42358 0
M  V30 19770 H 1846.86 2.53268 -3.29891 0
M  V30 19771 H 1845.44 3.34131 -1.65562 0
M  V30 19772 N 1847.63 1.24532 0.965897 0
M  V30 19773 C 1848.85 1.11412 1.74934 0
M  V30 19774 C 1849.28 -0.329168 1.85197 0
M  V30 19775 O 1848.63 -1.23833 1.3242 0
M  V30 19776 C 1848.68 1.76068 3.14694 0
M  V30 19777 O 1847.79 1.03267 3.99261 0
M  V30 19778 H 1847.13 0.389633 0.537663 0
M  V30 19779 H 1849.66 1.64875 1.2115 0
M  V30 19780 H 1849.67 1.81897 3.65209 0
M  V30 19781 H 1848.34 2.8108 3.0654 0
M  V30 19782 H 1846.92 1.05236 3.57743 0
M  V30 19783 N 1849.1 -1.16685 1.05936 0
M  V30 19784 C 1850.05 -2.2301 0.66101 0
M  V30 19785 C 1851.05 -1.66324 -0.321334 0
M  V30 19786 O 1852.25 -1.7903 -0.186587 0
M  V30 19787 H 1848.63 -0.726112 0.195616 0
M  V30 19788 H 1850.6 -2.539 1.56772 0
M  V30 19789 C 1849.35 -3.47649 0.0596424 0
M  V30 19790 H 1848.67 -3.91578 0.806635 0
M  V30 19791 H 1850.11 -4.23611 -0.18161 0
M  V30 19792 C 1848.57 -3.14965 -1.19578 0
M  V30 19793 O 1849.1 -3.30434 -2.28421 0
M  V30 19794 N 1847.3 -2.69126 -1.09634 0
M  V30 19795 H 1846.85 -2.56738 -0.210599 0
M  V30 19796 H 1846.81 -2.4763 -1.93718 0
M  V30 19797 N 1850.58 -0.841432 -1.33258 0
M  V30 19798 C 1851.81 -0.45101 -2.02437 0
M  V30 19799 C 1852.23 0.940811 -1.62881 0
M  V30 19800 O 1851.59 1.61559 -0.82271 0
M  V30 19801 C 1851.64 -0.58237 -3.55866 0
M  V30 19802 O 1850.74 0.390326 -4.10549 0
M  V30 19803 H 1850.08 -0.182996 -0.638285 0
M  V30 19804 H 1852.61 -1.13697 -1.701 0
M  V30 19805 H 1852.62 -0.464967 -4.05342 0
M  V30 19806 H 1851.3 -1.59739 -3.84 0
M  V30 19807 H 1849.87 0.230266 -3.72188 0
M  V30 19808 N 1852.06 1.4581 -0.598108 0
M  V30 19809 C 1852.99 2.33223 0.113747 0
M  V30 19810 C 1853.97 1.46268 0.868312 0
M  V30 19811 O 1855.16 1.75058 0.840737 0
M  V30 19812 C 1852.29 3.28815 1.11795 0
M  V30 19813 C 1851.24 4.25331 0.477223 0
M  V30 19814 C 1850.57 5.10544 1.589 0
M  V30 19815 C 1851.87 5.18894 -0.595518 0
M  V30 19816 H 1853.56 2.92992 -0.616123 0
M  V30 19817 H 1851.11 1.40888 -0.297741 0
M  V30 19818 H 1853.06 3.88832 1.62443 0
M  V30 19819 H 1851.78 2.67185 1.87829 0
M  V30 19820 H 1850.44 3.66599 -0.00831044 0
M  V30 19821 H 1850.09 4.45288 2.33939 0
M  V30 19822 H 1849.79 5.75918 1.16584 0
M  V30 19823 H 1851.31 5.73427 2.09794 0
M  V30 19824 H 1852.73 5.73037 -0.173494 0
M  V30 19825 H 1851.12 5.92694 -0.939873 0
M  V30 19826 H 1852.19 4.61895 -1.47584 0
M  V30 19827 N 1853.54 0.336733 1.53961 0
M  V30 19828 C 1854.78 -0.26229 2.0271 0
M  V30 19829 C 1855.14 -1.48309 1.21936 0
M  V30 19830 O 1856.34 -2.15584 1.60552 0
M  V30 19831 C 1854.61 -0.575319 3.52739 0
M  V30 19832 S 1856.17 -1.15212 4.23405 0
M  V30 19833 H 1852.99 -0.0785306 0.70665 0
M  V30 19834 H 1855.59 0.472914 1.89694 0
M  V30 19835 H 1854.3 0.32111 4.09142 0
M  V30 19836 H 1853.83 -1.34037 3.69862 0
M  V30 19837 H 1855.84 -2.43824 4.32162 0
M  V30 19838 N 1855.02 -1.57465 0.0651956 0
M  V30 19839 C 1856.43 -1.56917 -0.291414 0
M  V30 19840 C 1856.63 -1.07405 -1.70489 0
M  V30 19841 O 1855.69 -0.736958 -2.41506 0
M  V30 19842 C 1857 -3.00509 -0.107088 0
M  V30 19843 C 1858.55 -3.12498 -0.177127 0
M  V30 19844 C 1859.02 -4.57995 -0.0211616 0
M  V30 19845 N 1860.51 -4.63136 -0.0769824 0
M  V30 19846 C 1861.25 -5.73397 0.0193783 0
M  V30 19847 N 1860.75 -6.92594 0.168885 0
M  V30 19848 N 1862.54 -5.62088 -0.0372133 0
M  V30 19849 H 1854.69 -1.87966 0.989061 0
M  V30 19850 H 1856.95 -0.866234 0.385154 0
M  V30 19851 H 1856.66 -3.4082 0.868005 0
M  V30 19852 H 1856.53 -3.67214 -0.86221 0
M  V30 19853 H 1858.92 -2.72078 -1.1427 0
M  V30 19854 H 1859 -2.48445 0.608986 0
M  V30 19855 H 1858.64 -4.99104 0.941151 0
M  V30 19856 H 1858.57 -5.20072 -0.826597 0
M  V30 19857 H 1861.07 -3.77416 -0.191213 0
M  V30 19858 H 1861.38 -7.72443 0.234737 0
M  V30 19859 H 1859.72 -6.947 0.204159 0
M  V30 19860 H 1862.91 -4.67851 -0.152669 0
M  V30 19861 H 1863.09 -6.47987 0.0413392 0
M  V30 19862 N 1856.49 0.20831 -1.56217 0
M  V30 19863 C 1857.42 1.26115 -1.96513 0
M  V30 19864 C 1858.4 1.48185 -0.835183 0
M  V30 19865 O 1859.59 1.60145 -1.09851 0
M  V30 19866 C 1856.72 2.6082 -2.29326 0
M  V30 19867 C 1855.67 2.53385 -3.44935 0
M  V30 19868 C 1855 3.92241 -3.63388 0
M  V30 19869 C 1856.3 2.07026 -4.79518 0
M  V30 19870 H 1857.99 0.92635 -2.84709 0
M  V30 19871 H 1855.54 0.444169 -1.36979 0
M  V30 19872 H 1857.49 3.34644 -2.56109 0
M  V30 19873 H 1856.22 2.96014 -1.37997 0
M  V30 19874 H 1854.88 1.82018 -3.18222 0
M  V30 19875 H 1854.52 4.24766 -2.69413 0
M  V30 19876 H 1854.22 3.88145 -4.41154 0
M  V30 19877 H 1855.75 4.67707 -3.92533 0
M  V30 19878 H 1857.16 2.70601 -5.05419 0
M  V30 19879 H 1855.56 2.13961 -5.60661 0
M  V30 19880 H 1856.63 1.02298 -4.73986 0
M  V30 19881 N 1857.97 1.50255 0.475528 0
M  V30 19882 C 1859.2 1.64532 1.24951 0
M  V30 19883 C 1859.61 0.326223 1.86366 0
M  V30 19884 O 1858.95 -0.701313 1.69786 0
M  V30 19885 C 1859.01 2.67528 2.40143 0
M  V30 19886 C 1858.68 4.11204 1.99399 0
M  V30 19887 C 1859.68 4.97213 1.51906 0
M  V30 19888 C 1857.36 4.57094 2.08256 0
M  V30 19889 C 1859.35 6.27158 1.13805 0
M  V30 19890 C 1857.04 5.87046 1.69766 0
M  V30 19891 C 1858.04 6.71903 1.22618 0
M  V30 19892 O 1857.73 7.9943 0.846604 0
M  V30 19893 H 1857.46 0.556201 0.384209 0
M  V30 19894 H 1860.01 1.972 0.574555 0
M  V30 19895 H 1858.24 2.30094 3.10795 0
M  V30 19896 H 1859.93 2.71072 3.02117 0
M  V30 19897 H 1860.7 4.62977 1.44489 0
M  V30 19898 H 1856.58 3.91194 2.43903 0
M  V30 19899 H 1860.12 6.93345 0.769334 0
M  V30 19900 H 1856.02 6.20804 1.76841 0
M  V30 19901 H 1856.79 8.12662 0.975845 0
M  V30 19902 N 1859.45 -0.728395 1.39758 0
M  V30 19903 C 1860.4 -1.84245 1.39005 0
M  V30 19904 C 1861.37 -1.64226 0.248783 0
M  V30 19905 O 1862.55 -1.8554 0.444904 0
M  V30 19906 C 1859.69 -3.21828 1.24583 0
M  V30 19907 C 1858.8 -3.53507 2.48308 0
M  V30 19908 C 1857.94 -4.80526 2.26425 0
M  V30 19909 C 1856.98 -5.05069 3.45792 0
M  V30 19910 N 1856.12 -6.23295 3.23184 0
M  V30 19911 H 1860.96 -1.84224 2.34234 0
M  V30 19912 H 1858.49 -0.900094 1.16347 0
M  V30 19913 H 1860.45 -4.01257 1.14231 0
M  V30 19914 H 1859.08 -3.21111 0.329793 0
M  V30 19915 H 1858.13 -2.68729 2.69238 0
M  V30 19916 H 1859.44 -3.67558 3.37198 0
M  V30 19917 H 1858.6 -5.67949 2.13353 0
M  V30 19918 H 1857.34 -4.6866 1.3494 0
M  V30 19919 H 1856.34 -4.16106 3.59355 0
M  V30 19920 H 1857.57 -5.18815 4.38186 0
M  V30 19921 H 1855.51 -6.12704 2.3437 0
M  V30 19922 H 1855.43 -6.37964 4.05633 0
M  V30 19923 H 1856.7 -7.13539 3.13819 0
M  V30 19924 N 1860.93 -1.25042 -0.959279 0
M  V30 19925 C 1862.17 -1.09514 -1.70332 0
M  V30 19926 C 1862.5 0.364654 -1.91051 0
M  V30 19927 O 1861.76 1.2854 -1.47566 0
M  V30 19928 C 1862.06 -1.78948 -3.09374 0
M  V30 19929 C 1861.72 -3.28873 -3.08469 0
M  V30 19930 C 1860.38 -3.69774 -3.0793 0
M  V30 19931 C 1862.74 -4.24679 -3.02154 0
M  V30 19932 C 1860.06 -5.049 -2.98818 0
M  V30 19933 C 1862.42 -5.59824 -2.94585 0
M  V30 19934 C 1861.08 -6.00059 -2.92378 0
M  V30 19935 H 1860.35 -0.400741 -0.623288 0
M  V30 19936 H 1863 -1.55255 -1.12107 0
M  V30 19937 H 1861.3 -1.25625 -3.71114 0
M  V30 19938 H 1863 -1.64391 -3.65755 0
M  V30 19939 H 1859.59 -2.96327 -3.09659 0
M  V30 19940 H 1863.77 -3.94074 -3.01694 0
M  V30 19941 H 1859.03 -5.3526 -2.95476 0
M  V30 19942 H 1863.2 -6.33758 -2.88659 0
M  V30 19943 H 1860.83 -7.04725 -2.85074 0
M  V30 19944 N 1862.41 1.16121 -1.06553 0
M  V30 19945 C 1863.66 1.86055 -0.778871 0
M  V30 19946 C 1863.97 1.82747 0.697357 0
M  V30 19947 O 1865.17 2.48285 1.09849 0
M  V30 19948 C 1863.63 3.33897 -1.34315 0
M  V30 19949 C 1863.24 3.45673 -2.84981 0
M  V30 19950 C 1864.98 4.09069 -1.13415 0
M  V30 19951 C 1862.89 4.87616 -3.34641 0
M  V30 19952 H 1861.82 0.696963 -0.287678 0
M  V30 19953 H 1864.47 1.31038 -1.28458 0
M  V30 19954 H 1862.85 3.88536 -0.765208 0
M  V30 19955 H 1864.03 3.01181 -3.4875 0
M  V30 19956 H 1862.34 2.83938 -3.04579 0
M  V30 19957 H 1864.94 5.13809 -1.48002 0
M  V30 19958 H 1865.28 4.16237 -0.0726719 0
M  V30 19959 H 1865.81 3.60676 -1.67802 0
M  V30 19960 H 1862.55 4.85629 -4.40278 0
M  V30 19961 H 1862.07 5.32722 -2.75622 0
M  V30 19962 H 1863.75 5.56443 -3.30122 0
M  V30 19963 N 1863.88 0.848487 1.3281 0
M  V30 19964 C 1864.79 0.291355 2.32784 0
M  V30 19965 C 1865.81 -0.587621 1.63777 0
M  V30 19966 O 1866.99 -0.489458 1.95362 0
M  V30 19967 C 1864.05 -0.51634 3.42834 0
M  V30 19968 C 1863.11 0.388046 4.27543 0
M  V30 19969 C 1862.35 -0.381197 5.32337 0
M  V30 19970 O 1862.57 -1.61186 5.47152 0
M  V30 19971 O 1861.5 0.2498 6.01381 0
M  V30 19972 H 1865.33 1.11947 2.82315 0
M  V30 19973 H 1862.91 0.611259 1.36323 0
M  V30 19974 H 1864.8 -0.974995 4.09966 0
M  V30 19975 H 1863.47 -1.32136 2.95503 0
M  V30 19976 H 1862.38 0.894745 3.63243 0
M  V30 19977 H 1863.71 1.15808 4.78382 0
M  V30 19978 N 1865.36 -1.4549 0.605832 0
M  V30 19979 C 1866.29 -2.28694 -0.152145 0
M  V30 19980 C 1867.31 -1.3985 -0.833422 0
M  V30 19981 O 1868.5 -1.6424 -0.699105 0
M  V30 19982 C 1865.6 -3.15544 -1.23634 0
M  V30 19983 C 1864.77 -4.32655 -0.642525 0
M  V30 19984 C 1863.83 -5.00726 -1.61739 0
M  V30 19985 O 1862.85 -5.57577 -1.14438 0
M  V30 19986 N 1864.06 -4.9985 -2.95178 0
M  V30 19987 H 1866.82 -2.94387 0.561801 0
M  V30 19988 H 1864.38 -1.55659 0.445195 0
M  V30 19989 H 1866.37 -3.57947 -1.88828 0
M  V30 19990 H 1864.94 -2.51771 -1.85284 0
M  V30 19991 H 1864.16 -3.93754 0.187451 0
M  V30 19992 H 1865.45 -5.08298 -0.225985 0
M  V30 19993 H 1864.85 -4.54949 -3.36211 0
M  V30 19994 H 1863.41 -5.46123 -3.558 0
M  V30 19995 N 1866.84 -0.344893 -1.5378 0
M  V30 19996 C 1867.79 0.511269 -2.25066 0
M  V30 19997 C 1868.76 1.09446 -1.24944 0
M  V30 19998 O 1869.94 1.13082 -1.53679 0
M  V30 19999 C 1867.08 1.65563 -3.02792 0
M  V30 20000 C 1866.2 1.09962 -4.17771 0
M  V30 20001 C 1865.33 2.21139 -4.82981 0
M  V30 20002 C 1864.37 1.62897 -5.90026 0
M  V30 20003 N 1863.51 2.67822 -6.49011 0
M  V30 20004 H 1868.35 -0.103166 -2.97821 0
M  V30 20005 H 1865.88 -0.0626846 -1.46966 0
M  V30 20006 H 1867.84 2.32936 -3.46117 0
M  V30 20007 H 1866.47 2.24103 -2.32331 0
M  V30 20008 H 1865.52 0.316786 -3.79079 0
M  V30 20009 H 1866.84 0.633622 -4.94759 0
M  V30 20010 H 1865.99 2.96375 -5.29383 0
M  V30 20011 H 1864.73 2.71083 -4.0542 0
M  V30 20012 H 1863.73 0.861672 -5.43006 0
M  V30 20013 H 1864.96 1.13803 -6.69497 0
M  V30 20014 H 1862.9 3.17018 -5.74313 0
M  V30 20015 H 1862.82 2.25848 -7.21477 0
M  V30 20016 H 1864.09 3.42822 -7.00066 0
M  V30 20017 N 1868.32 1.57428 -0.0735454 0
M  V30 20018 C 1869.57 1.93174 0.593996 0
M  V30 20019 C 1869.89 0.954462 1.70044 0
M  V30 20020 O 1869.16 0.00289765 1.959 0
M  V30 20021 H 1867.74 0.713123 0.222407 0
M  V30 20022 H 1870.4 1.94454 -0.131813 0
M  V30 20023 H 1869.5 2.95025 1.01818 0
M  V30 20024 N 1869.8 -0.200022 1.56326 0
M  V30 20025 C 1871.07 -0.946774 1.71159 0
M  V30 20026 C 1871.45 -2.01576 0.626939 0
M  V30 20027 O 1870.8 -2.25601 -0.362834 0
M  V30 20028 C 1871.01 -1.53767 3.13299 0
M  V30 20029 C 1872.36 -2.02169 3.7338 0
M  V30 20030 O 1873.38 -1.6362 3.16397 0
M  V30 20031 O 1872.24 -2.7309 4.73375 0
M  V30 20032 H 1869.34 -0.443669 0.697916 0
M  V30 20033 H 1871.88 -0.190107 1.68632 0
M  V30 20034 H 1870.65 -0.766886 3.83712 0
M  V30 20035 H 1870.28 -2.35931 3.20035 0
M  V30 20036 N 1871.27 -1.50505 -0.467553 0
M  V30 20037 C 1872.2 -1.72558 -1.57309 0
M  V30 20038 C 1873.19 -0.574619 -1.601 0
M  V30 20039 O 1874.37 -0.814135 -1.76311 0
M  V30 20040 C 1871.5 -1.82296 -2.9561 0
M  V30 20041 C 1870.45 -2.97513 -3.07685 0
M  V30 20042 C 1869.78 -2.92398 -4.47669 0
M  V30 20043 C 1871.08 -4.37968 -2.84573 0
M  V30 20044 H 1872.77 -2.65122 -1.39107 0
M  V30 20045 H 1870.32 -1.2758 -0.667776 0
M  V30 20046 H 1872.27 -1.96308 -3.72882 0
M  V30 20047 H 1871 -0.863562 -3.14976 0
M  V30 20048 H 1869.66 -2.83157 -2.32847 0
M  V30 20049 H 1869.3 -1.94297 -4.63959 0
M  V30 20050 H 1869 -3.69749 -4.56683 0
M  V30 20051 H 1870.53 -3.08464 -5.26956 0
M  V30 20052 H 1871.94 -4.52831 -3.51593 0
M  V30 20053 H 1870.34 -5.16796 -3.05028 0
M  V30 20054 H 1871.41 -4.50093 -1.80402 0
M  V30 20055 N 1872.75 0.720973 -1.40142 0
M  V30 20056 C 1873.68 1.8457 -1.35891 0
M  V30 20057 C 1874.7 1.60625 -0.265232 0
M  V30 20058 O 1875.89 1.70599 -0.525198 0
M  V30 20059 C 1872.99 3.20871 -1.09064 0
M  V30 20060 C 1872.16 3.72058 -2.29982 0
M  V30 20061 C 1871.22 4.86957 -1.99397 0
M  V30 20062 O 1870.24 4.99888 -2.72213 0
M  V30 20063 N 1871.45 5.72361 -0.968645 0
M  V30 20064 H 1874.21 1.88717 -2.32822 0
M  V30 20065 H 1871.77 0.902293 -1.34426 0
M  V30 20066 H 1873.76 3.95326 -0.865979 0
M  V30 20067 H 1872.33 3.11906 -0.208188 0
M  V30 20068 H 1871.55 2.88795 -2.68312 0
M  V30 20069 H 1872.84 4.02991 -3.10605 0
M  V30 20070 H 1872.24 5.64518 -0.36546 0
M  V30 20071 H 1870.8 6.46824 -0.803886 0
M  V30 20072 N 1874.23 1.25549 0.952634 0
M  V30 20073 C 1875.51 1.01186 1.67394 0
M  V30 20074 C 1875.89 -0.461292 2.05998 0
M  V30 20075 O 1875.24 -1.43909 1.77489 0
M  V30 20076 C 1875.45 1.94954 2.89472 0
M  V30 20077 C 1876.79 2.22911 3.6138 0
M  V30 20078 O 1877.82 1.92728 2.99557 0
M  V30 20079 O 1876.68 2.74246 4.72706 0
M  V30 20080 H 1873.77 0.383874 0.732509 0
M  V30 20081 H 1876.32 1.36712 1.00538 0
M  V30 20082 H 1875.09 2.94416 2.5775 0
M  V30 20083 H 1874.71 1.59837 3.64058 0
M  V30 20084 N 1875.71 -1.15554 1.07168 0
M  V30 20085 C 1876.64 -2.22387 0.71178 0
M  V30 20086 C 1877.62 -1.67435 -0.299908 0
M  V30 20087 O 1878.8 -1.93427 -0.173073 0
M  V30 20088 C 1875.93 -3.47136 0.106815 0
M  V30 20089 C 1874.89 -4.15035 1.04545 0
M  V30 20090 C 1874.21 -5.33839 0.303337 0
M  V30 20091 C 1875.51 -4.65011 2.37827 0
M  V30 20092 H 1877.21 -2.52748 1.60496 0
M  V30 20093 H 1874.75 -1.21485 0.773139 0
M  V30 20094 H 1876.71 -4.21108 -0.15689 0
M  V30 20095 H 1875.43 -3.16101 -0.821429 0
M  V30 20096 H 1874.09 -3.43001 1.29405 0
M  V30 20097 H 1873.74 -4.9906 -0.628308 0
M  V30 20098 H 1873.44 -5.8021 0.928964 0
M  V30 20099 H 1874.96 -6.10582 0.0473869 0
M  V30 20100 H 1876.38 -5.3052 2.17305 0
M  V30 20101 H 1874.77 -5.22038 2.95967 0
M  V30 20102 H 1875.84 -3.80748 3.00264 0
M  V30 20103 N 1877.19 -0.855519 -1.32358 0
M  V30 20104 C 1878.12 -0.245562 -2.26875 0
M  V30 20105 C 1879.1 0.616957 -1.50441 0
M  V30 20106 O 1880.28 0.573569 -1.79562 0
M  V30 20107 C 1877.41 0.653572 -3.32334 0
M  V30 20108 C 1876.46 -0.135677 -4.26284 0
M  V30 20109 S 1877.29 -1.50466 -5.13926 0
M  V30 20110 C 1878.44 -0.611261 -6.22908 0
M  V30 20111 H 1878.68 -1.0468 -2.78261 0
M  V30 20112 H 1876.21 -0.653201 -1.39902 0
M  V30 20113 H 1878.17 1.16668 -3.93572 0
M  V30 20114 H 1876.83 1.42863 -2.7973 0
M  V30 20115 H 1876.02 0.549189 -5.00999 0
M  V30 20116 H 1875.62 -0.580401 -3.69469 0
M  V30 20117 H 1877.92 0.184141 -6.7725 0
M  V30 20118 H 1878.86 -1.32908 -6.95515 0
M  V30 20119 H 1879.27 -0.185219 -5.64196 0
M  V30 20120 N 1878.67 1.45167 -0.61354 0
M  V30 20121 C 1880.08 1.85674 -0.19544 0
M  V30 20122 C 1880.43 1.51303 1.24908 0
M  V30 20123 O 1879.55 0.94257 1.94794 0
M  V30 20124 C 1880.15 3.37009 -0.347921 0
M  V30 20125 C 1878.71 3.76397 0.0155323 0
M  V30 20126 C 1877.85 2.69095 -0.669578 0
M  V30 20127 H 1880.8 1.35883 -0.819842 0
M  V30 20128 H 1880.83 3.78195 0.418185 0
M  V30 20129 H 1880.34 3.61994 -1.39935 0
M  V30 20130 H 1878.44 3.57028 1.06591 0
M  V30 20131 H 1878.55 4.77573 -0.382267 0
M  V30 20132 H 1876.92 2.54477 -0.10662 0
M  V30 20133 H 1877.7 2.96915 -1.72326 0
M  V30 20134 N 1880.14 0.353044 1.53595 0
M  V30 20135 C 1881.37 -0.241665 2.05484 0
M  V30 20136 C 1881.79 -1.43458 1.2274 0
M  V30 20137 O 1881.14 -1.80566 0.26501 0
M  V30 20138 C 1881.19 -0.647442 3.55655 0
M  V30 20139 O 1880.92 0.498047 4.3526 0
M  V30 20140 C 1882.42 -1.30187 4.23753 0
M  V30 20141 H 1879.64 -0.0449704 0.669491 0
M  V30 20142 H 1882.18 0.507783 1.98095 0
M  V30 20143 H 1880.34 -1.34682 3.63235 0
M  V30 20144 H 1880.75 0.172685 5.24216 0
M  V30 20145 H 1882.22 -1.53646 5.30186 0
M  V30 20146 H 1882.7 -2.25835 3.7669 0
M  V30 20147 H 1883.31 -0.644265 4.20392 0
M  V30 20148 N 1881.62 -1.57387 0.0818932 0
M  V30 20149 C 1882.87 -1.93045 -0.584519 0
M  V30 20150 C 1883.18 -0.96473 -1.70154 0
M  V30 20151 O 1884.39 -1.21451 -2.42821 0
M  V30 20152 C 1882.85 -3.42962 -1.0911 0
M  V30 20153 C 1882.45 -4.48 -0.00454233 0
M  V30 20154 C 1884.2 -3.87604 -1.731 0
M  V30 20155 C 1882.1 -5.89059 -0.525733 0
M  V30 20156 H 1881.03 -0.720543 -0.222112 0
M  V30 20157 H 1883.69 -1.82838 0.155762 0
M  V30 20158 H 1882.07 -3.48277 -1.88466 0
M  V30 20159 H 1883.24 -4.54314 0.770444 0
M  V30 20160 H 1881.56 -4.12887 0.539739 0
M  V30 20161 H 1884.15 -4.90382 -2.13143 0
M  V30 20162 H 1884.5 -3.25524 -2.59499 0
M  V30 20163 H 1885.03 -3.84935 -1.00349 0
M  V30 20164 H 1881.77 -6.54807 0.301333 0
M  V30 20165 H 1881.29 -5.86243 -1.26802 0
M  V30 20166 H 1882.97 -6.39242 -0.998928 0
M  V30 20167 N 1883.1 0.191729 -1.56429 0
M  V30 20168 C 1884.05 1.25706 -1.95706 0
M  V30 20169 C 1885.04 1.46938 -0.842948 0
M  V30 20170 O 1886.25 1.47759 -1.02797 0
M  V30 20171 H 1882.62 0.422099 -0.622364 0
M  V30 20172 H 1884.59 0.8988 -2.84542 0
M  V30 20173 C 1883.34 2.59366 -2.3157 0
M  V30 20174 H 1882.67 2.43845 -3.16827 0
M  V30 20175 H 1884.11 3.32646 -2.62912 0
M  V30 20176 C 1882.56 3.16609 -1.15155 0
M  V30 20177 O 1883.09 3.9941 -0.428355 0
M  V30 20178 N 1881.3 2.75402 -0.927467 0
M  V30 20179 H 1880.85 2.08172 -1.5173 0
M  V30 20180 H 1880.81 3.1404 -0.150348 0
M  V30 20181 N 1884.58 1.50751 0.459565 0
M  V30 20182 C 1885.8 1.66367 1.23842 0
M  V30 20183 C 1886.23 0.351355 1.84789 0
M  V30 20184 O 1885.59 -0.686103 1.67816 0
M  V30 20185 C 1885.63 2.76521 2.31449 0
M  V30 20186 O 1884.74 2.38576 3.36386 0
M  V30 20187 H 1884.08 0.555447 0.363833 0
M  V30 20188 H 1886.61 1.97193 0.545538 0
M  V30 20189 H 1886.62 2.99943 2.76583 0
M  V30 20190 H 1885.29 3.71759 1.86462 0
M  V30 20191 H 1883.87 2.25643 2.96883 0
M  V30 20192 N 1886.06 -0.713531 1.40522 0
M  V30 20193 C 1886.99 -1.8404 1.43707 0
M  V30 20194 C 1887.97 -1.67474 0.297751 0
M  V30 20195 O 1889.15 -1.87474 0.506662 0
M  V30 20196 C 1886.28 -3.22014 1.30094 0
M  V30 20197 C 1885.24 -3.53255 2.4165 0
M  V30 20198 C 1884.56 -4.90395 2.13113 0
M  V30 20199 C 1885.86 -3.54045 3.83991 0
M  V30 20200 H 1887.56 -1.81632 2.38013 0
M  V30 20201 H 1885.1 -0.872437 1.14562 0
M  V30 20202 H 1887.05 -4.00541 1.30938 0
M  V30 20203 H 1885.78 -3.25002 0.322648 0
M  V30 20204 H 1884.44 -2.77069 2.40059 0
M  V30 20205 H 1884.09 -4.89988 1.13669 0
M  V30 20206 H 1883.79 -5.12264 2.87853 0
M  V30 20207 H 1885.31 -5.71254 2.15642 0
M  V30 20208 H 1886.72 -4.22609 3.87395 0
M  V30 20209 H 1885.12 -3.87441 4.58268 0
M  V30 20210 H 1886.19 -2.53387 4.13428 0
M  V30 20211 N 1887.53 -1.26053 -0.945962 0
M  V30 20212 C 1888.78 -1.10706 -1.68603 0
M  V30 20213 C 1889.1 0.350167 -1.9244 0
M  V30 20214 O 1890.3 0.624224 -2.64227 0
M  V30 20215 C 1888.76 -1.93306 -3.0358 0
M  V30 20216 C 1888.37 -3.43574 -2.87508 0
M  V30 20217 C 1890.11 -1.86555 -3.8131 0
M  V30 20218 C 1888.02 -4.18438 -4.17928 0
M  V30 20219 H 1886.95 -0.410689 -0.632337 0
M  V30 20220 H 1889.6 -1.50322 -1.0524 0
M  V30 20221 H 1887.98 -1.4652 -3.67897 0
M  V30 20222 H 1889.15 -3.98096 -2.3207 0
M  V30 20223 H 1887.47 -3.51511 -2.23224 0
M  V30 20224 H 1890.07 -2.39775 -4.77925 0
M  V30 20225 H 1890.41 -0.83525 -4.07835 0
M  V30 20226 H 1890.94 -2.31138 -3.23759 0
M  V30 20227 H 1887.68 -5.21917 -3.96589 0
M  V30 20228 H 1887.2 -3.68698 -4.73098 0
M  V30 20229 H 1888.88 -4.26626 -4.86415 0
M  V30 20230 N 1889.01 1.14984 -1.07779 0
M  V30 20231 C 1889.96 2.19864 -0.702018 0
M  V30 20232 C 1890.93 1.63206 0.308695 0
M  V30 20233 O 1892.11 1.8981 0.194157 0
M  V30 20234 C 1889.25 3.44923 -0.110634 0
M  V30 20235 C 1888.37 4.1576 -1.17335 0
M  V30 20236 C 1887.5 5.28381 -0.546508 0
M  V30 20237 C 1886.54 5.91042 -1.59171 0
M  V30 20238 N 1885.68 6.95126 -0.987129 0
M  V30 20239 H 1890.52 2.51358 -1.60073 0
M  V30 20240 H 1888.05 1.2344 -0.80006 0
M  V30 20241 H 1890.01 4.16451 0.249903 0
M  V30 20242 H 1888.64 3.13932 0.751416 0
M  V30 20243 H 1887.69 3.42685 -1.6514 0
M  V30 20244 H 1889.01 4.58436 -1.96566 0
M  V30 20245 H 1888.16 6.06552 -0.133852 0
M  V30 20246 H 1886.9 4.8691 0.277527 0
M  V30 20247 H 1885.9 5.1158 -2.01409 0
M  V30 20248 H 1887.13 6.3459 -2.4181 0
M  V30 20249 H 1885.08 6.55742 -0.184076 0
M  V30 20250 H 1884.99 7.36253 -1.71662 0
M  V30 20251 H 1886.26 7.77186 -0.60012 0
M  V30 20252 N 1890.49 0.862526 1.31902 0
M  V30 20253 C 1891.42 0.270103 2.27603 0
M  V30 20254 C 1892.43 -0.562639 1.52768 0
M  V30 20255 O 1893.62 -0.385845 1.7428 0
M  V30 20256 C 1890.72 -0.636314 3.32873 0
M  V30 20257 C 1889.9 0.162327 4.37099 0
M  V30 20258 C 1888.96 -0.67107 5.21903 0
M  V30 20259 O 1887.98 -0.101765 5.69109 0
M  V30 20260 N 1889.18 -1.98441 5.45529 0
M  V30 20261 H 1891.95 1.09248 2.79079 0
M  V30 20262 H 1889.51 0.723275 1.44846 0
M  V30 20263 H 1891.5 -1.19937 3.86519 0
M  V30 20264 H 1890.07 -1.35936 2.81496 0
M  V30 20265 H 1889.29 0.906824 3.83628 0
M  V30 20266 H 1890.58 0.710602 5.03813 0
M  V30 20267 H 1889.98 -2.47017 5.0892 0
M  V30 20268 H 1888.53 -2.49542 6.0214 0
M  V30 20269 N 1891.97 -1.4484 0.62123 0
M  V30 20270 C 1892.92 -2.30626 -0.0895817 0
M  V30 20271 C 1893.89 -1.42906 -0.846593 0
M  V30 20272 O 1895.07 -1.7182 -0.829611 0
M  V30 20273 C 1892.21 -3.28032 -1.07188 0
M  V30 20274 C 1891.32 -4.30855 -0.314319 0
M  V30 20275 C 1890.46 -5.1536 -1.28755 0
M  V30 20276 C 1889.5 -6.09899 -0.518581 0
M  V30 20277 N 1888.63 -6.87137 -1.44178 0
M  V30 20278 H 1893.47 -2.90871 0.64793 0
M  V30 20279 H 1891.01 -1.4332 0.33131 0
M  V30 20280 H 1892.97 -3.82984 -1.65467 0
M  V30 20281 H 1891.6 -2.6951 -1.77664 0
M  V30 20282 H 1890.65 -3.78455 0.38422 0
M  V30 20283 H 1891.96 -4.97985 0.285042 0
M  V30 20284 H 1891.12 -5.7478 -1.94198 0
M  V30 20285 H 1889.86 -4.4828 -1.92084 0
M  V30 20286 H 1888.86 -5.49597 0.149399 0
M  V30 20287 H 1890.09 -6.79011 0.109851 0
M  V30 20288 H 1888.03 -6.22735 -2.06246 0
M  V30 20289 H 1887.95 -7.50669 -0.896192 0
M  V30 20290 H 1889.22 -7.51088 -2.08536 0
M  V30 20291 N 1893.45 -0.361184 -1.53405 0
M  V30 20292 C 1894.67 0.230765 -2.05609 0
M  V30 20293 C 1895.09 1.42805 -1.23499 0
M  V30 20294 O 1894.45 1.80423 -0.274582 0
M  V30 20295 C 1894.5 0.628571 -3.55993 0
M  V30 20296 O 1894.22 -0.521123 -4.3499 0
M  V30 20297 C 1895.72 1.27938 -4.24437 0
M  V30 20298 H 1892.94 0.0414193 -0.66972 0
M  V30 20299 H 1895.48 -0.518281 -1.97823 0
M  V30 20300 H 1893.64 1.32754 -3.63944 0
M  V30 20301 H 1894.05 -0.200483 -5.24117 0
M  V30 20302 H 1895.53 1.50832 -5.30993 0
M  V30 20303 H 1896 2.23834 -3.77882 0
M  V30 20304 H 1896.61 0.621961 -4.20728 0
M  V30 20305 N 1894.92 1.57341 -0.0902386 0
M  V30 20306 C 1896.17 1.93793 0.573474 0
M  V30 20307 C 1896.49 0.972444 1.69022 0
M  V30 20308 O 1895.76 0.0236753 1.95886 0
M  V30 20309 H 1894.34 0.715442 0.21483 0
M  V30 20310 H 1897.01 1.94303 -0.15243 0
M  V30 20311 H 1896.1 2.96088 0.986829 0
M  V30 20312 N 1896.4 -0.183431 1.56529 0
M  V30 20313 C 1897.65 -0.900237 1.80495 0
M  V30 20314 C 1897.96 -1.83932 0.665454 0
M  V30 20315 O 1899.17 -2.59761 0.789728 0
M  V30 20316 C 1897.63 -1.65125 3.19784 0
M  V30 20317 C 1897.23 -0.756411 4.41568 0
M  V30 20318 C 1898.98 -2.357 3.53052 0
M  V30 20319 C 1896.89 -1.50696 5.71878 0
M  V30 20320 H 1895.82 -0.339898 0.673042 0
M  V30 20321 H 1898.47 -0.153327 1.82858 0
M  V30 20322 H 1896.85 -2.44248 3.11703 0
M  V30 20323 H 1898.02 -0.00301509 4.608 0
M  V30 20324 H 1896.34 -0.160916 4.16089 0
M  V30 20325 H 1898.93 -2.92426 4.4765 0
M  V30 20326 H 1899.28 -3.10454 2.77352 0
M  V30 20327 H 1899.81 -1.63533 3.62632 0
M  V30 20328 H 1896.55 -0.801985 6.50575 0
M  V30 20329 H 1896.07 -2.23399 5.56644 0
M  V30 20330 H 1897.75 -2.05768 6.13407 0
M  V30 20331 N 1897.88 -1.50992 -0.451564 0
M  V30 20332 C 1898.84 -1.70703 -1.52949 0
M  V30 20333 C 1899.84 -0.577275 -1.50081 0
M  V30 20334 O 1901.03 -0.844619 -1.52354 0
M  V30 20335 C 1898.17 -1.75035 -2.92533 0
M  V30 20336 H 1899.36 -2.66891 -1.36782 0
M  V30 20337 H 1896.91 -1.40767 -0.679285 0
M  V30 20338 H 1897.65 -0.806096 -3.14122 0
M  V30 20339 H 1897.43 -2.57126 -2.96021 0
M  V30 20340 H 1898.92 -1.92171 -3.70756 0
M  V30 20341 N 1899.36 0.706069 -1.40899 0
M  V30 20342 C 1900.29 1.83119 -1.37841 0
M  V30 20343 C 1901.3 1.60335 -0.282253 0
M  V30 20344 O 1902.49 1.70032 -0.543263 0
M  V30 20345 C 1899.59 3.19696 -1.12461 0
M  V30 20346 C 1898.77 3.69598 -2.33915 0
M  V30 20347 C 1897.82 4.84815 -2.04551 0
M  V30 20348 O 1896.85 4.96973 -2.775 0
M  V30 20349 N 1898.05 5.71302 -1.0293 0
M  V30 20350 H 1900.82 1.86237 -2.34811 0
M  V30 20351 H 1898.38 0.887984 -1.35375 0
M  V30 20352 H 1900.37 3.94386 -0.90786 0
M  V30 20353 H 1898.94 3.11668 -0.241258 0
M  V30 20354 H 1898.16 2.85933 -2.7136 0
M  V30 20355 H 1899.45 3.99674 -3.14862 0
M  V30 20356 H 1898.85 5.64099 -0.425314 0
M  V30 20357 H 1897.4 6.45935 -0.872446 0
M  V30 20358 N 1900.84 1.26553 0.939264 0
M  V30 20359 C 1901.77 1.10778 2.05549 0
M  V30 20360 C 1902.75 0.0124359 1.70095 0
M  V30 20361 O 1903.93 0.184814 1.93319 0
M  V30 20362 C 1901.06 0.742011 3.39281 0
M  V30 20363 C 1900.02 1.78931 3.88803 0
M  V30 20364 C 1899.34 1.2778 5.19207 0
M  V30 20365 C 1900.64 3.1912 4.13473 0
M  V30 20366 H 1902.34 2.04151 2.19004 0
M  V30 20367 H 1899.88 0.98294 1.05234 0
M  V30 20368 H 1901.84 0.618526 4.16836 0
M  V30 20369 H 1900.56 -0.22742 3.25807 0
M  V30 20370 H 1899.22 1.9015 3.13431 0
M  V30 20371 H 1898.87 0.298159 5.02116 0
M  V30 20372 H 1898.57 1.9779 5.53311 0
M  V30 20373 H 1900.09 1.16703 5.99344 0
M  V30 20374 H 1901.5 3.10967 4.81635 0
M  V30 20375 H 1899.9 3.86738 4.58862 0
M  V30 20376 H 1900.97 3.65034 3.19183 0
M  V30 20377 N 1902.31 -1.14411 1.08387 0
M  V30 20378 C 1903.56 -1.85719 0.814638 0
M  V30 20379 C 1903.89 -1.82715 -0.657934 0
M  V30 20380 O 1903.17 -1.2577 -1.48365 0
M  V30 20381 C 1903.45 -3.34363 1.33691 0
M  V30 20382 C 1903.3 -3.4594 2.87481 0
M  V30 20383 C 1904.62 -4.29457 0.962006 0
M  V30 20384 H 1901.74 -0.674332 0.297399 0
M  V30 20385 H 1904.38 -1.34354 1.34346 0
M  V30 20386 H 1902.53 -3.78237 0.887082 0
M  V30 20387 H 1904.21 -3.10854 3.40833 0
M  V30 20388 H 1902.45 -2.87158 3.25151 0
M  V30 20389 H 1903.12 -4.50423 3.19097 0
M  V30 20390 H 1905.6 -3.93599 1.34979 0
M  V30 20391 H 1904.47 -5.31922 1.35464 0
M  V30 20392 H 1904.73 -4.41906 -0.130987 0
M  V30 20393 N 1903.79 -0.869509 -1.31443 0
M  V30 20394 C 1904.74 -0.323034 -2.28528 0
M  V30 20395 C 1905.71 0.578245 -1.5571 0
M  V30 20396 O 1906.89 0.509983 -1.83858 0
M  V30 20397 C 1904.03 0.469861 -3.41886 0
M  V30 20398 C 1903.15 -0.458883 -4.29556 0
M  V30 20399 C 1902.28 0.348092 -5.30058 0
M  V30 20400 C 1901.32 -0.577109 -6.09373 0
M  V30 20401 N 1900.46 0.193589 -7.01833 0
M  V30 20402 H 1905.3 -1.15614 -2.74659 0
M  V30 20403 H 1902.84 -0.581526 -1.35117 0
M  V30 20404 H 1904.79 0.945338 -4.06349 0
M  V30 20405 H 1903.42 1.26767 -2.96867 0
M  V30 20406 H 1902.48 -1.05281 -3.65541 0
M  V30 20407 H 1903.79 -1.16833 -4.84924 0
M  V30 20408 H 1902.94 0.886098 -6.00194 0
M  V30 20409 H 1901.68 1.09083 -4.75344 0
M  V30 20410 H 1900.69 -1.12687 -5.38128 0
M  V30 20411 H 1901.91 -1.31869 -6.66174 0
M  V30 20412 H 1899.86 0.919147 -6.49529 0
M  V30 20413 H 1899.77 -0.456525 -7.5462 0
M  V30 20414 H 1901.04 0.71284 -7.76234 0
M  V30 20415 N 1905.27 1.44508 -0.628902 0
M  V30 20416 C 1906.5 2.0613 -0.139308 0
M  V30 20417 C 1906.91 1.47055 1.19044 0
M  V30 20418 O 1906.25 0.587051 1.74067 0
M  V30 20419 C 1906.31 3.59462 0.0521977 0
M  V30 20420 C 1905.98 4.4099 -1.19904 0
M  V30 20421 C 1906.97 4.74613 -2.12222 0
M  V30 20422 C 1904.66 4.81401 -1.43383 0
M  V30 20423 C 1906.65 5.47528 -3.26332 0
M  V30 20424 C 1904.34 5.54065 -2.5779 0
M  V30 20425 C 1905.34 5.87047 -3.49091 0
M  V30 20426 O 1905.03 6.58233 -4.61503 0
M  V30 20427 H 1904.76 0.671728 -0.0758762 0
M  V30 20428 H 1907.31 1.86402 -0.862745 0
M  V30 20429 H 1905.54 3.77671 0.830756 0
M  V30 20430 H 1907.23 4.02857 0.496066 0
M  V30 20431 H 1908 4.43933 -1.95316 0
M  V30 20432 H 1903.88 4.5515 -0.73209 0
M  V30 20433 H 1907.42 5.7319 -3.97617 0
M  V30 20434 H 1903.32 5.8416 -2.7464 0
M  V30 20435 H 1904.09 6.767 -4.60456 0
M  V30 20436 N 1906.75 0.369315 1.53212 0
M  V30 20437 C 1908 -0.218776 2.00912 0
M  V30 20438 C 1908.32 -1.48977 1.25821 0
M  V30 20439 O 1907.59 -1.92325 0.372538 0
M  V30 20440 H 1906.17 -0.0838334 0.742281 0
M  V30 20441 H 1908.83 0.496408 1.88472 0
M  V30 20442 H 1907.93 -0.443127 3.08938 0
M  V30 20443 N 1908.23 -1.57291 0.0985816 0
M  V30 20444 C 1909.16 -2.17239 -0.856131 0
M  V30 20445 C 1910.14 -1.10669 -1.29176 0
M  V30 20446 O 1911.32 -1.38821 -1.35803 0
M  V30 20447 C 1908.45 -2.75551 -2.11398 0
M  V30 20448 C 1907.41 -3.87524 -1.81685 0
M  V30 20449 C 1906.73 -4.32553 -3.14327 0
M  V30 20450 C 1908.03 -5.10562 -1.10108 0
M  V30 20451 H 1909.73 -2.97268 -0.356657 0
M  V30 20452 H 1907.27 -1.42992 -0.170108 0
M  V30 20453 H 1909.23 -3.16141 -2.78627 0
M  V30 20454 H 1907.95 -1.92781 -2.63634 0
M  V30 20455 H 1906.61 -3.47478 -1.16853 0
M  V30 20456 H 1906.26 -3.46669 -3.64458 0
M  V30 20457 H 1905.96 -5.08049 -2.95228 0
M  V30 20458 H 1907.48 -4.7578 -3.82709 0
M  V30 20459 H 1908.9 -5.483 -1.67453 0
M  V30 20460 H 1907.29 -5.91509 -1.01176 0
M  V30 20461 H 1908.36 -4.84827 -0.0844041 0
M  V30 20462 N 1909.71 0.175127 -1.56624 0
M  V30 20463 C 1910.65 1.21687 -1.96114 0
M  V30 20464 C 1911.62 1.44191 -0.824518 0
M  V30 20465 O 1912.81 1.56994 -1.08433 0
M  V30 20466 C 1909.95 2.55207 -2.323 0
M  V30 20467 C 1909.06 2.40115 -3.59122 0
M  V30 20468 C 1908.2 3.66475 -3.84538 0
M  V30 20469 C 1907.23 3.463 -5.04721 0
M  V30 20470 N 1906.37 4.6472 -5.26288 0
M  V30 20471 H 1911.21 0.873106 -2.84923 0
M  V30 20472 H 1908.75 0.419721 -1.40985 0
M  V30 20473 H 1910.71 3.33022 -2.51302 0
M  V30 20474 H 1909.34 2.87587 -1.46607 0
M  V30 20475 H 1908.39 1.53496 -3.48056 0
M  V30 20476 H 1909.7 2.21151 -4.47095 0
M  V30 20477 H 1908.85 4.52726 -4.03886 0
M  V30 20478 H 1907.59 3.88414 -2.94934 0
M  V30 20479 H 1906.6 2.58435 -4.85274 0
M  V30 20480 H 1907.82 3.25787 -5.95852 0
M  V30 20481 H 1905.77 4.86885 -4.39635 0
M  V30 20482 H 1905.69 4.48656 -6.08477 0
M  V30 20483 H 1906.95 5.52265 -5.50112 0
M  V30 20484 N 1911.18 1.5123 0.44355 0
M  V30 20485 C 1912.46 1.54127 1.20434 0
M  V30 20486 C 1912.84 0.301893 2.0893 0
M  V30 20487 O 1912.19 -0.713356 2.17079 0
M  V30 20488 C 1912.4 2.85196 2.01157 0
M  V30 20489 C 1913.75 3.3691 2.58411 0
M  V30 20490 O 1914.77 2.86704 2.11374 0
M  V30 20491 O 1913.63 4.24498 3.44185 0
M  V30 20492 H 1910.72 0.619396 0.547976 0
M  V30 20493 H 1913.27 1.63539 0.453125 0
M  V30 20494 H 1912.04 3.66861 1.3612 0
M  V30 20495 H 1911.66 2.78917 2.83357 0
M  V30 20496 N 1912.66 -0.698586 1.41271 0
M  V30 20497 C 1913.59 -1.82505 1.4565 0
M  V30 20498 C 1914.57 -1.67149 0.315497 0
M  V30 20499 O 1915.76 -1.86926 0.526518 0
M  V30 20500 C 1912.89 -3.20616 1.33502 0
M  V30 20501 C 1911.84 -3.50672 2.45383 0
M  V30 20502 C 1911.17 -4.88107 2.18302 0
M  V30 20503 C 1912.47 -3.49952 3.87725 0
M  V30 20504 H 1914.16 -1.79098 2.39926 0
M  V30 20505 H 1911.71 -0.860237 1.15481 0
M  V30 20506 H 1913.66 -3.9913 1.35179 0
M  V30 20507 H 1912.38 -3.24642 0.357101 0
M  V30 20508 H 1911.04 -2.74507 2.42984 0
M  V30 20509 H 1910.69 -4.88755 1.1886 0
M  V30 20510 H 1910.39 -5.09182 2.9327 0
M  V30 20511 H 1911.92 -5.68934 2.21689 0
M  V30 20512 H 1913.33 -4.18476 3.91855 0
M  V30 20513 H 1911.73 -3.82559 4.62351 0
M  V30 20514 H 1912.8 -2.48988 4.16093 0
M  V30 20515 N 1914.14 -1.27049 -0.93254 0
M  V30 20516 C 1915.05 -1.11156 -2.06595 0
M  V30 20517 C 1916.07 -0.0428245 -1.73947 0
M  V30 20518 O 1917.24 -0.248326 -1.99863 0
M  V30 20519 C 1914.31 -0.755297 -3.38373 0
M  V30 20520 C 1913.37 -1.90439 -3.84749 0
M  V30 20521 C 1912.6 -1.56502 -5.10238 0
M  V30 20522 O 1912.82 -0.470696 -5.68455 0
M  V30 20523 O 1911.76 -2.40262 -5.51868 0
M  V30 20524 H 1915.58 -2.0626 -2.22914 0
M  V30 20525 H 1913.17 -1.06191 -1.05089 0
M  V30 20526 H 1915.05 -0.569728 -4.17531 0
M  V30 20527 H 1913.73 0.166262 -3.23273 0
M  V30 20528 H 1912.63 -2.14498 -3.06499 0
M  V30 20529 H 1913.97 -2.80598 -4.04383 0
M  V30 20530 N 1915.62 1.13835 -1.08993 0
M  V30 20531 C 1916.53 2.22715 -0.73724 0
M  V30 20532 C 1917.54 1.72064 0.258869 0
M  V30 20533 O 1918.72 2.01145 0.101321 0
M  V30 20534 C 1915.78 3.46338 -0.158285 0
M  V30 20535 C 1914.85 4.11902 -1.20977 0
M  V30 20536 C 1914.08 5.29624 -0.658349 0
M  V30 20537 O 1914.3 5.68023 0.520219 0
M  V30 20538 O 1913.24 5.85121 -1.41126 0
M  V30 20539 H 1917.06 2.55247 -1.64568 0
M  V30 20540 H 1914.65 1.21882 -0.864013 0
M  V30 20541 H 1916.53 4.2109 0.161481 0
M  V30 20542 H 1915.2 3.15517 0.723235 0
M  V30 20543 H 1914.11 3.38996 -1.58216 0
M  V30 20544 H 1915.44 4.46843 -2.06378 0
M  V30 20545 N 1917.1 0.876467 1.3098 0
M  V30 20546 C 1918.34 0.491367 1.96757 0
M  V30 20547 C 1918.67 -0.955274 1.6908 0
M  V30 20548 O 1917.95 -1.6737 0.990843 0
M  V30 20549 C 1918.23 0.756745 3.52059 0
M  V30 20550 C 1918.09 2.25339 3.89284 0
M  V30 20551 C 1919.4 0.227549 4.39511 0
M  V30 20552 H 1916.52 0.179998 0.714681 0
M  V30 20553 H 1919.17 1.0989 1.54997 0
M  V30 20554 H 1917.32 0.239657 3.8776 0
M  V30 20555 H 1918.99 2.83824 3.63651 0
M  V30 20556 H 1917.23 2.72341 3.37658 0
M  V30 20557 H 1917.9 2.38971 4.97591 0
M  V30 20558 H 1920.38 0.670016 4.1067 0
M  V30 20559 H 1919.25 0.442629 5.47112 0
M  V30 20560 H 1919.51 -0.870833 4.33438 0
M  V30 20561 N 1918.57 -1.44173 0.636557 0
M  V30 20562 C 1919.82 -2.02292 0.143429 0
M  V30 20563 C 1920.15 -1.49996 -1.23348 0
M  V30 20564 O 1919.43 -0.686228 -1.81992 0
M  V30 20565 C 1919.71 -3.59843 0.136025 0
M  V30 20566 C 1919.56 -4.22409 1.54566 0
M  V30 20567 C 1920.88 -4.36817 -0.536538 0
M  V30 20568 H 1918 -0.735049 0.0535939 0
M  V30 20569 H 1920.64 -1.71677 0.814066 0
M  V30 20570 H 1918.79 -3.86056 -0.435048 0
M  V30 20571 H 1920.47 -4.07284 2.16604 0
M  V30 20572 H 1918.71 -3.79696 2.09793 0
M  V30 20573 H 1919.38 -5.31441 1.49247 0
M  V30 20574 H 1921.86 -4.16069 -0.0508327 0
M  V30 20575 H 1920.73 -5.46517 -0.510926 0
M  V30 20576 H 1920.99 -4.11827 -1.60783 0
M  V30 20577 N 1920.05 -0.377435 -1.53014 0
M  V30 20578 C 1921.3 0.208118 -2.01026 0
M  V30 20579 C 1921.62 1.48307 -1.26609 0
M  V30 20580 O 1920.89 1.92125 -0.382732 0
M  V30 20581 H 1919.47 0.0798957 -0.742715 0
M  V30 20582 H 1922.13 -0.506396 -1.88206 0
M  V30 20583 H 1921.23 0.426737 -3.09169 0
M  V30 20584 N 1921.53 1.57237 -0.106922 0
M  V30 20585 C 1922.46 2.1769 0.844599 0
M  V30 20586 C 1923.44 1.11352 1.28587 0
M  V30 20587 O 1924.63 1.39539 1.35065 0
M  V30 20588 C 1921.76 2.76668 2.09933 0
M  V30 20589 C 1920.71 3.88482 1.79627 0
M  V30 20590 C 1920.04 4.34214 3.12029 0
M  V30 20591 C 1921.34 5.11139 1.07399 0
M  V30 20592 H 1923.03 2.97453 0.340887 0
M  V30 20593 H 1920.58 1.4308 0.162523 0
M  V30 20594 H 1922.53 3.17614 2.76946 0
M  V30 20595 H 1921.25 1.94176 2.62608 0
M  V30 20596 H 1919.91 3.48093 1.15008 0
M  V30 20597 H 1919.56 3.48597 3.62614 0
M  V30 20598 H 1919.26 5.09608 2.9253 0
M  V30 20599 H 1920.78 4.77803 3.8018 0
M  V30 20600 H 1922.2 5.4918 1.64543 0
M  V30 20601 H 1920.6 5.92038 0.980375 0
M  V30 20602 H 1921.67 4.84864 0.0586914 0
M  V30 20603 N 1923.01 -0.166818 1.56715 0
M  V30 20604 C 1923.94 -1.2086 1.99787 0
M  V30 20605 C 1924.92 -1.45918 0.874178 0
M  V30 20606 O 1926.1 -1.57176 1.14058 0
M  V30 20607 C 1923.23 -2.54648 2.3616 0
M  V30 20608 C 1922.19 -2.44151 3.51532 0
M  V30 20609 C 1921.51 -3.82469 3.7366 0
M  V30 20610 C 1922.81 -1.9424 4.84838 0
M  V30 20611 H 1924.51 -0.850538 2.87065 0
M  V30 20612 H 1922.05 -0.407696 1.38108 0
M  V30 20613 H 1924.01 -3.27736 2.64891 0
M  V30 20614 H 1922.73 -2.92251 1.45797 0
M  V30 20615 H 1921.39 -1.73516 3.22936 0
M  V30 20616 H 1921.04 -4.17473 2.8058 0
M  V30 20617 H 1920.74 -3.76312 4.5129 0
M  V30 20618 H 1922.26 -4.57136 4.04796 0
M  V30 20619 H 1923.68 -2.57105 5.12416 0
M  V30 20620 H 1922.07 -1.99021 5.66137 0
M  V30 20621 H 1923.14 -0.89695 4.76532 0
M  V30 20622 N 1924.49 -1.51463 -0.435524 0
M  V30 20623 C 1925.43 -1.72908 -1.52877 0
M  V30 20624 C 1926.4 -0.570809 -1.55984 0
M  V30 20625 O 1927.59 -0.805443 -1.72966 0
M  V30 20626 C 1924.73 -1.8617 -2.90576 0
M  V30 20627 C 1923.84 -3.13726 -2.96985 0
M  V30 20628 C 1922.98 -3.17573 -4.25818 0
M  V30 20629 C 1922.02 -4.39437 -4.26101 0
M  V30 20630 N 1921.15 -4.40823 -5.46461 0
M  V30 20631 H 1925.99 -2.66226 -1.33894 0
M  V30 20632 H 1923.53 -1.3194 -0.650399 0
M  V30 20633 H 1925.49 -1.91841 -3.70476 0
M  V30 20634 H 1924.12 -0.962585 -3.08114 0
M  V30 20635 H 1923.17 -3.17356 -2.09737 0
M  V30 20636 H 1924.48 -4.03634 -2.93055 0
M  V30 20637 H 1923.64 -3.2217 -5.14093 0
M  V30 20638 H 1922.37 -2.25558 -4.32406 0
M  V30 20639 H 1921.38 -4.35014 -3.36219 0
M  V30 20640 H 1922.6 -5.32718 -4.21175 0
M  V30 20641 H 1920.55 -3.51679 -5.53767 0
M  V30 20642 H 1920.47 -5.24541 -5.44419 0
M  V30 20643 H 1921.74 -4.49615 -6.36763 0
M  V30 20644 N 1925.96 0.691085 -1.4164 0
M  V30 20645 C 1926.91 1.80495 -1.43841 0
M  V30 20646 C 1927.88 1.63509 -0.292237 0
M  V30 20647 O 1929.07 1.84296 -0.493941 0
M  V30 20648 C 1926.21 3.18412 -1.33072 0
M  V30 20649 C 1925.32 3.46799 -2.57594 0
M  V30 20650 C 1924.45 4.74354 -2.39085 0
M  V30 20651 C 1923.49 4.95723 -3.59061 0
M  V30 20652 N 1922.63 6.14507 -3.39596 0
M  V30 20653 H 1927.47 1.77949 -2.39036 0
M  V30 20654 H 1925.01 0.86893 -1.18693 0
M  V30 20655 H 1926.97 3.98087 -1.24829 0
M  V30 20656 H 1925.6 3.20124 -0.414814 0
M  V30 20657 H 1924.65 2.61496 -2.76268 0
M  V30 20658 H 1925.96 3.58489 -3.46824 0
M  V30 20659 H 1925.11 5.62092 -2.28336 0
M  V30 20660 H 1923.85 4.64918 -1.47319 0
M  V30 20661 H 1922.86 4.06432 -3.70261 0
M  V30 20662 H 1924.08 5.07015 -4.51788 0
M  V30 20663 H 1922.03 6.06275 -2.50532 0
M  V30 20664 H 1921.95 6.26985 -4.22405 0
M  V30 20665 H 1923.21 7.04968 -3.32627 0
M  V30 20666 N 1927.44 1.27542 0.925789 0
M  V30 20667 C 1928.37 1.12952 2.04363 0
M  V30 20668 C 1929.35 0.0304761 1.70073 0
M  V30 20669 O 1930.54 0.205307 1.93112 0
M  V30 20670 C 1927.67 0.777954 3.38475 0
M  V30 20671 C 1926.62 1.83044 3.86883 0
M  V30 20672 C 1925.95 1.3328 5.17823 0
M  V30 20673 C 1927.25 3.23488 4.10065 0
M  V30 20674 H 1928.94 2.06462 2.16827 0
M  V30 20675 H 1926.49 0.994046 1.04186 0
M  V30 20676 H 1928.44 0.662702 4.16156 0
M  V30 20677 H 1927.17 -0.192851 3.2603 0
M  V30 20678 H 1925.82 1.93463 3.11396 0
M  V30 20679 H 1925.47 0.351399 5.01771 0
M  V30 20680 H 1925.17 2.03648 5.51182 0
M  V30 20681 H 1926.7 1.23053 5.98072 0
M  V30 20682 H 1928.11 3.16058 4.7831 0
M  V30 20683 H 1926.51 3.91583 4.54734 0
M  V30 20684 H 1927.58 3.68399 3.15293 0
M  V30 20685 N 1928.92 -1.13255 1.09595 0
M  V30 20686 C 1930.17 -1.84206 0.831411 0
M  V30 20687 C 1930.49 -1.8403 -0.64483 0
M  V30 20688 O 1929.76 -1.29728 -1.46791 0
M  V30 20689 H 1928.34 -0.682085 0.304579 0
M  V30 20690 H 1931 -1.37183 1.38444 0
M  V30 20691 H 1930.1 -2.88667 1.18649 0
M  V30 20692 N 1930.4 -0.883401 -1.30514 0
M  V30 20693 C 1931.65 -0.497118 -1.95478 0
M  V30 20694 C 1931.96 0.958235 -1.7052 0
M  V30 20695 O 1933.17 1.45129 -2.29455 0
M  V30 20696 C 1931.62 -0.838108 -3.50005 0
M  V30 20697 C 1931.23 -2.31113 -3.83785 0
M  V30 20698 C 1932.97 -0.520947 -4.21291 0
M  V30 20699 C 1930.88 -2.59383 -5.31483 0
M  V30 20700 H 1929.81 -0.182178 -0.731661 0
M  V30 20701 H 1932.46 -1.07816 -1.48486 0
M  V30 20702 H 1930.84 -0.186171 -3.95562 0
M  V30 20703 H 1932.02 -3.00725 -3.49144 0
M  V30 20704 H 1930.33 -2.59566 -3.25598 0
M  V30 20705 H 1932.93 -0.709216 -5.29976 0
M  V30 20706 H 1933.27 0.539542 -4.12789 0
M  V30 20707 H 1933.81 -1.13001 -3.81413 0
M  V30 20708 H 1930.55 -3.64166 -5.45035 0
M  V30 20709 H 1930.07 -1.94378 -5.6743 0
M  V30 20710 H 1931.74 -2.44803 -5.989 0
M  V30 20711 N 1931.88 1.43833 -0.644194 0
M  V30 20712 C 1932.82 2.30739 0.0528797 0
M  V30 20713 C 1933.79 1.44234 0.823751 0
M  V30 20714 O 1934.98 1.73118 0.802171 0
M  V30 20715 C 1932.12 3.29695 1.01956 0
M  V30 20716 C 1931.23 4.31301 0.245734 0
M  V30 20717 C 1930.37 5.17343 1.2054 0
M  V30 20718 C 1929.41 6.10647 0.421486 0
M  V30 20719 N 1928.54 6.89344 1.33228 0
M  V30 20720 H 1933.38 2.89803 -0.694123 0
M  V30 20721 H 1930.92 1.42775 -0.354069 0
M  V30 20722 H 1932.88 3.85568 1.59353 0
M  V30 20723 H 1931.51 2.72302 1.73354 0
M  V30 20724 H 1930.56 3.77795 -0.44438 0
M  V30 20725 H 1931.87 4.97468 -0.364231 0
M  V30 20726 H 1931.03 5.77797 1.85029 0
M  V30 20727 H 1929.76 4.51279 1.84928 0
M  V30 20728 H 1928.77 5.4929 -0.236816 0
M  V30 20729 H 1929.99 6.7875 -0.217862 0
M  V30 20730 H 1927.94 6.25937 1.96312 0
M  V30 20731 H 1927.86 7.52 0.776653 0
M  V30 20732 H 1929.13 7.54311 1.9656 0
M  V30 20733 N 1933.35 0.385544 1.52811 0
M  V30 20734 C 1934.28 -0.442951 2.2926 0
M  V30 20735 C 1935.27 -1.06674 1.32494 0
M  V30 20736 O 1936.45 -1.08022 1.61384 0
M  V30 20737 C 1933.58 -1.57243 3.09664 0
M  V30 20738 C 1932.53 -1.07488 4.14283 0
M  V30 20739 C 1931.86 -2.29614 4.82889 0
M  V30 20740 C 1933.16 -0.145479 5.22097 0
M  V30 20741 H 1934.85 0.1949 2.98765 0
M  V30 20742 H 1932.4 0.0951762 1.43685 0
M  V30 20743 H 1934.35 -2.15882 3.61902 0
M  V30 20744 H 1933.08 -2.23781 2.37885 0
M  V30 20745 H 1931.74 -0.511047 3.6302 0
M  V30 20746 H 1931.38 -2.94653 4.07662 0
M  V30 20747 H 1931.08 -1.96985 5.53598 0
M  V30 20748 H 1932.61 -2.88902 5.37929 0
M  V30 20749 H 1934.02 -0.639941 5.69717 0
M  V30 20750 H 1932.42 0.0908687 6.00031 0
M  V30 20751 H 1933.49 0.806707 4.78142 0
M  V30 20752 N 1934.83 -1.57178 0.115259 0
M  V30 20753 C 1935.76 -2.1218 -0.866728 0
M  V30 20754 C 1936.78 -1.06365 -1.23249 0
M  V30 20755 O 1937.97 -1.33749 -1.18209 0
M  V30 20756 C 1935.07 -2.60337 -2.16975 0
M  V30 20757 C 1934.24 -3.90209 -1.97625 0
M  V30 20758 C 1933.3 -4.24003 -3.11622 0
M  V30 20759 O 1932.32 -4.92884 -2.847 0
M  V30 20760 N 1933.53 -3.81022 -4.37953 0
M  V30 20761 H 1936.29 -2.97061 -0.396835 0
M  V30 20762 H 1933.85 -1.61752 -0.0692734 0
M  V30 20763 H 1935.84 -2.79976 -2.92225 0
M  V30 20764 H 1934.41 -1.80356 -2.55324 0
M  V30 20765 H 1933.63 -3.79516 -1.06589 0
M  V30 20766 H 1934.92 -4.75137 -1.81996 0
M  V30 20767 H 1934.32 -3.25459 -4.62702 0
M  V30 20768 H 1932.88 -4.05777 -5.10086 0
M  V30 20769 N 1936.31 0.158505 -1.56801 0
M  V30 20770 C 1937.56 0.874331 -1.82984 0
M  V30 20771 C 1937.89 1.81334 -0.695103 0
M  V30 20772 O 1937.17 1.9214 0.302091 0
M  V30 20773 C 1937.45 1.65886 -3.19615 0
M  V30 20774 C 1937.3 0.74211 -4.43636 0
M  V30 20775 C 1938.62 2.62382 -3.53332 0
M  V30 20776 H 1935.74 0.316412 -0.665622 0
M  V30 20777 H 1938.38 0.139988 -1.89484 0
M  V30 20778 H 1936.53 2.28488 -3.14206 0
M  V30 20779 H 1938.2 0.127969 -4.61122 0
M  V30 20780 H 1936.45 0.0509465 -4.3377 0
M  V30 20781 H 1937.12 1.32683 -5.35816 0
M  V30 20782 H 1939.59 2.09902 -3.59278 0
M  V30 20783 H 1938.47 3.14332 -4.49985 0
M  V30 20784 H 1938.73 3.43194 -2.78694 0
M  V30 20785 N 1937.79 1.51692 0.427485 0
M  V30 20786 C 1938.72 1.76668 1.52679 0
M  V30 20787 C 1939.7 0.616865 1.58521 0
M  V30 20788 O 1940.89 0.860595 1.7409 0
M  V30 20789 C 1938.02 1.9007 2.90673 0
M  V30 20790 C 1936.97 3.05566 2.99689 0
M  V30 20791 C 1936.3 3.04165 4.39759 0
M  V30 20792 C 1937.6 4.45359 2.72861 0
M  V30 20793 H 1939.29 2.68717 1.32029 0
M  V30 20794 H 1936.84 1.29306 0.633716 0
M  V30 20795 H 1938.79 2.06125 3.67546 0
M  V30 20796 H 1937.51 0.946769 3.12576 0
M  V30 20797 H 1936.17 2.89231 2.25257 0
M  V30 20798 H 1935.82 2.0653 4.58644 0
M  V30 20799 H 1935.52 3.81727 4.46719 0
M  V30 20800 H 1937.04 3.22326 5.18592 0
M  V30 20801 H 1938.46 4.61993 3.39463 0
M  V30 20802 H 1936.85 5.24701 2.91219 0
M  V30 20803 H 1937.92 4.54717 1.68405 0
M  V30 20804 N 1939.27 -0.683564 1.42004 0
M  V30 20805 C 1940.52 -1.43934 1.413 0
M  V30 20806 C 1940.83 -1.95578 0.0296606 0
M  V30 20807 O 1942.04 -2.71316 -0.0999859 0
M  V30 20808 C 1940.49 -2.60331 2.48507 0
M  V30 20809 C 1940.1 -2.15424 3.92806 0
M  V30 20810 C 1941.84 -3.37895 2.56957 0
M  V30 20811 C 1939.75 -3.28851 4.91539 0
M  V30 20812 H 1938.68 -0.540693 0.525516 0
M  V30 20813 H 1941.33 -0.740914 1.67877 0
M  V30 20814 H 1939.71 -3.325 2.15081 0
M  V30 20815 H 1940.89 -1.50466 4.35542 0
M  V30 20816 H 1939.2 -1.50822 3.88126 0
M  V30 20817 H 1941.8 -4.22355 3.27903 0
M  V30 20818 H 1942.14 -3.83896 1.61027 0
M  V30 20819 H 1942.68 -2.72791 2.89534 0
M  V30 20820 H 1939.41 -2.87851 5.88916 0
M  V30 20821 H 1938.93 -3.92619 4.53443 0
M  V30 20822 H 1940.61 -3.9445 5.12853 0
M  V30 20823 N 1940.75 -1.28031 -0.919012 0
M  V30 20824 C 1941.69 -1.11355 -2.04213 0
M  V30 20825 C 1942.69 -0.0342517 -1.69365 0
M  V30 20826 O 1943.89 -0.192628 -1.78966 0
M  V30 20827 H 1940.27 -0.343397 -0.669016 0
M  V30 20828 H 1942.24 -2.06485 -2.15421 0
M  V30 20829 C 1940.99 -0.786653 -3.38684 0
M  V30 20830 H 1940.31 -1.6091 -3.65989 0
M  V30 20831 H 1941.75 -0.709897 -4.18015 0
M  V30 20832 C 1940.21 0.509383 -3.33027 0
M  V30 20833 O 1940.74 1.54125 -3.70956 0
M  V30 20834 N 1938.95 0.508188 -2.86122 0
M  V30 20835 H 1938.49 -0.331947 -2.55452 0
M  V30 20836 H 1938.45 1.37539 -2.82719 0
M  V30 20837 N 1942.22 1.12672 -1.10194 0
M  V30 20838 C 1943.15 2.20422 -0.770492 0
M  V30 20839 C 1944.13 1.68172 0.25541 0
M  V30 20840 O 1945.32 1.93818 0.121728 0
M  V30 20841 C 1942.45 3.4673 -0.198815 0
M  V30 20842 C 1941.4 4.12118 -1.15512 0
M  V30 20843 C 1940.73 5.32847 -0.444768 0
M  V30 20844 C 1942.03 4.58542 -2.50073 0
M  V30 20845 H 1943.72 2.48404 -1.67141 0
M  V30 20846 H 1941.27 1.19392 -0.805077 0
M  V30 20847 H 1943.22 4.21376 0.0451853 0
M  V30 20848 H 1941.95 3.18168 0.737331 0
M  V30 20849 H 1940.61 3.3945 -1.38453 0
M  V30 20850 H 1940.25 5.00551 0.49577 0
M  V30 20851 H 1939.95 5.77543 -1.08247 0
M  V30 20852 H 1941.48 6.10241 -0.209255 0
M  V30 20853 H 1942.89 5.24572 -2.31294 0
M  V30 20854 H 1941.29 5.14007 -3.09704 0
M  V30 20855 H 1942.36 3.72654 -3.10254 0
M  V30 20856 N 1943.7 0.89031 1.30043 0
M  V30 20857 C 1944.95 0.51044 1.95548 0
M  V30 20858 C 1945.27 -0.944562 1.70596 0
M  V30 20859 O 1944.54 -1.66482 1.0325 0
M  V30 20860 H 1943.12 0.185776 0.723531 0
M  V30 20861 H 1945.78 1.13455 1.58474 0
M  V30 20862 H 1944.88 0.685155 3.04487 0
M  V30 20863 N 1945.18 -1.43489 0.651812 0
M  V30 20864 C 1946.11 -2.33484 -0.0271093 0
M  V30 20865 C 1947.09 -1.4939 -0.813427 0
M  V30 20866 O 1948.28 -1.78058 -0.775186 0
M  V30 20867 C 1945.41 -3.32737 -0.995143 0
M  V30 20868 C 1944.36 -4.26809 -0.319036 0
M  V30 20869 C 1943.69 -5.1609 -1.39842 0
M  V30 20870 C 1944.99 -5.16326 0.787692 0
M  V30 20871 H 1946.68 -2.90503 0.724441 0
M  V30 20872 H 1944.23 -1.39686 0.349826 0
M  V30 20873 H 1946.18 -3.94593 -1.479 0
M  V30 20874 H 1944.9 -2.73972 -1.77784 0
M  V30 20875 H 1943.56 -3.66316 0.144366 0
M  V30 20876 H 1943.21 -4.53664 -2.17251 0
M  V30 20877 H 1942.91 -5.79848 -0.951292 0
M  V30 20878 H 1944.43 -5.80819 -1.88367 0
M  V30 20879 H 1945.85 -5.71999 0.386053 0
M  V30 20880 H 1944.24 -5.88798 1.1592 0
M  V30 20881 H 1945.31 -4.56099 1.64626 0
M  V30 20882 N 1946.66 -0.393643 -1.52605 0
M  V30 20883 C 1947.9 0.187431 -2.01932 0
M  V30 20884 C 1948.24 1.46098 -1.27942 0
M  V30 20885 O 1947.51 1.90729 -0.381154 0
M  V30 20886 C 1947.79 0.450933 -3.57265 0
M  V30 20887 C 1947.65 -0.838204 -4.41921 0
M  V30 20888 C 1948.97 1.23971 -4.22278 0
M  V30 20889 H 1946.09 0.0666471 -0.73398 0
M  V30 20890 H 1948.73 -0.524064 -1.8263 0
M  V30 20891 H 1946.88 1.05703 -3.73844 0
M  V30 20892 H 1948.55 -1.47492 -4.37086 0
M  V30 20893 H 1946.79 -1.45258 -4.08757 0
M  V30 20894 H 1947.46 -0.608424 -5.48637 0
M  V30 20895 H 1949.94 0.726733 -4.09705 0
M  V30 20896 H 1948.82 1.39283 -5.30935 0
M  V30 20897 H 1949.08 2.25611 -3.802 0
M  V30 20898 N 1948.14 1.57115 -0.123593 0
M  V30 20899 C 1949.37 1.99415 0.540103 0
M  V30 20900 C 1949.77 1.00228 1.60471 0
M  V30 20901 O 1949.12 -0.0123101 1.83696 0
M  V30 20902 C 1949.18 3.38134 1.22088 0
M  V30 20903 C 1948.84 4.5599 0.30367 0
M  V30 20904 C 1949.84 5.17865 -0.459524 0
M  V30 20905 C 1947.52 5.01846 0.213401 0
M  V30 20906 C 1949.52 6.23988 -1.30067 0
M  V30 20907 C 1947.21 6.0783 -0.631375 0
M  V30 20908 C 1948.2 6.68768 -1.38704 0
M  V30 20909 O 1947.89 7.72703 -2.21778 0
M  V30 20910 H 1947.62 0.659781 0.147192 0
M  V30 20911 H 1950.18 2.04343 -0.208128 0
M  V30 20912 H 1948.41 3.29975 2.01628 0
M  V30 20913 H 1950.1 3.64694 1.78195 0
M  V30 20914 H 1950.86 4.8335 -0.399683 0
M  V30 20915 H 1946.74 4.54158 0.791276 0
M  V30 20916 H 1950.29 6.71482 -1.89097 0
M  V30 20917 H 1946.18 6.41774 -0.692592 0
M  V30 20918 H 1946.95 7.8982 -2.1477 0
M  V30 20919 N 1949.61 -0.150187 1.56883 0
M  V30 20920 C 1950.56 -1.18552 1.98025 0
M  V30 20921 C 1951.53 -1.42861 0.847353 0
M  V30 20922 O 1952.72 -1.55249 1.10917 0
M  V30 20923 C 1949.86 -2.51479 2.36331 0
M  V30 20924 C 1948.97 -2.34371 3.62897 0
M  V30 20925 C 1948.1 -3.60311 3.9032 0
M  V30 20926 C 1947.14 -3.38226 5.10166 0
M  V30 20927 N 1946.28 -4.56289 5.33615 0
M  V30 20928 H 1951.12 -0.827667 2.86276 0
M  V30 20929 H 1948.66 -0.397238 1.41635 0
M  V30 20930 H 1950.61 -3.28981 2.56568 0
M  V30 20931 H 1949.24 -2.85218 1.51164 0
M  V30 20932 H 1948.3 -1.47939 3.50454 0
M  V30 20933 H 1949.61 -2.1401 4.50556 0
M  V30 20934 H 1948.76 -4.46243 4.11038 0
M  V30 20935 H 1947.5 -3.83672 3.01076 0
M  V30 20936 H 1946.51 -2.50682 4.89324 0
M  V30 20937 H 1947.73 -3.16266 6.0096 0
M  V30 20938 H 1945.68 -4.79829 4.47325 0
M  V30 20939 H 1945.59 -4.38919 6.15537 0
M  V30 20940 H 1946.86 -5.43443 5.58829 0
M  V30 20941 N 1951.09 -1.51916 -0.419434 0
M  V30 20942 C 1952.34 -1.65714 -1.16905 0
M  V30 20943 C 1952.67 -0.380888 -1.90428 0
M  V30 20944 O 1951.95 0.620297 -1.84344 0
M  V30 20945 C 1952.23 -2.87239 -2.17177 0
M  V30 20946 C 1952.08 -4.24887 -1.47619 0
M  V30 20947 C 1953.4 -3.04281 -3.17964 0
M  V30 20948 H 1950.52 -0.603072 -0.423643 0
M  V30 20949 H 1953.16 -1.84446 -0.456035 0
M  V30 20950 H 1951.31 -2.71398 -2.77984 0
M  V30 20951 H 1952.98 -4.52433 -0.900112 0
M  V30 20952 H 1951.23 -4.26761 -0.778273 0
M  V30 20953 H 1951.9 -5.05945 -2.20733 0
M  V30 20954 H 1954.37 -3.18951 -2.67226 0
M  V30 20955 H 1953.25 -3.90843 -3.85399 0
M  V30 20956 H 1953.51 -2.17138 -3.85102 0
M  V30 20957 N 1952.57 0.676023 -1.42365 0
M  V30 20958 C 1953.5 1.80154 -1.41695 0
M  V30 20959 C 1954.52 1.597 -0.316199 0
M  V30 20960 O 1955.7 1.68841 -0.579207 0
M  V30 20961 C 1952.8 3.17239 -1.19217 0
M  V30 20962 C 1951.98 3.64553 -2.41703 0
M  V30 20963 C 1951.04 4.80367 -2.14788 0
M  V30 20964 O 1950.06 4.90975 -2.87979 0
M  V30 20965 N 1951.26 5.6899 -1.15025 0
M  V30 20966 H 1954.03 1.81214 -2.38708 0
M  V30 20967 H 1951.59 0.859069 -1.37228 0
M  V30 20968 H 1953.58 3.92371 -0.991311 0
M  V30 20969 H 1952.15 3.11086 -0.307313 0
M  V30 20970 H 1951.37 2.80112 -2.77364 0
M  V30 20971 H 1952.66 3.92906 -3.23268 0
M  V30 20972 H 1952.06 5.6307 -0.544872 0
M  V30 20973 H 1950.62 6.43939 -1.00926 0
M  V30 20974 N 1954.05 1.28517 0.912209 0
M  V30 20975 C 1954.98 1.08378 2.01958 0
M  V30 20976 C 1955.99 0.0350385 1.62762 0
M  V30 20977 O 1957.18 0.278256 1.76318 0
M  V30 20978 C 1954.28 0.62514 3.33084 0
M  V30 20979 C 1953.46 1.74963 4.00882 0
M  V30 20980 C 1952.51 1.28411 5.10291 0
M  V30 20981 O 1951.54 1.98662 5.33406 0
M  V30 20982 N 1952.74 0.148151 5.80311 0
M  V30 20983 H 1955.51 2.03744 2.19792 0
M  V30 20984 H 1953.07 1.2029 1.0836 0
M  V30 20985 H 1955.06 0.297284 4.03607 0
M  V30 20986 H 1953.63 -0.235714 3.1171 0
M  V30 20987 H 1952.85 2.247 3.23888 0
M  V30 20988 H 1954.14 2.50391 4.42924 0
M  V30 20989 H 1953.54 -0.437843 5.64003 0
M  V30 20990 H 1952.09 -0.120419 6.51689 0
M  V30 20991 N 1955.53 -1.12086 1.1079 0
M  V30 20992 C 1956.48 -2.16022 0.729278 0
M  V30 20993 C 1957.46 -1.5873 -0.263361 0
M  V30 20994 O 1958.65 -1.76855 -0.0715232 0
M  V30 20995 C 1955.78 -3.42895 0.166711 0
M  V30 20996 C 1954.87 -4.07161 1.18661 0
M  V30 20997 N 1955.26 -4.46384 2.37855 0
M  V30 20998 C 1953.56 -4.33991 1.02798 0
M  V30 20999 C 1954.26 -4.96648 3.02846 0
M  V30 21000 N 1953.23 -4.92382 2.3035 0
M  V30 21001 H 1957.04 -2.44119 1.63656 0
M  V30 21002 H 1954.55 -1.2903 0.986155 0
M  V30 21003 H 1956.55 -4.1672 -0.122633 0
M  V30 21004 H 1955.21 -3.16266 -0.735246 0
M  V30 21005 H 1956.22 -4.38634 2.75356 0
M  V30 21006 H 1952.89 -4.17104 0.181891 0
M  V30 21007 H 1954.28 -5.36681 4.04257 0
M  V30 21008 N 1957 -0.897194 -1.29569 0
M  V30 21009 C 1957.95 -0.362849 -2.29752 0
M  V30 21010 C 1958.95 0.536674 -1.60674 0
M  V30 21011 O 1960.15 0.419753 -1.75037 0
M  V30 21012 H 1956.53 -0.0987052 -0.745494 0
M  V30 21013 H 1958.5 -1.22122 -2.72266 0
M  V30 21014 C 1957.25 0.396775 -3.45429 0
M  V30 21015 H 1956.57 -0.286159 -3.98775 0
M  V30 21016 H 1958.01 0.73556 -4.17571 0
M  V30 21017 C 1956.47 1.59849 -2.96563 0
M  V30 21018 O 1957 2.69781 -2.97626 0
M  V30 21019 N 1955.21 1.4398 -2.52424 0
M  V30 21020 H 1954.75 0.545463 -2.51759 0
M  V30 21021 H 1954.71 2.24519 -2.20088 0
M  V30 21022 N 1958.48 1.43142 -0.659413 0
M  V30 21023 C 1959.73 2.01341 -0.174987 0
M  V30 21024 C 1960.05 1.52322 1.21749 0
M  V30 21025 O 1959.32 0.738424 1.8145 0
M  V30 21026 H 1957.9 0.744447 -0.0617013 0
M  V30 21027 H 1960.56 1.75268 -0.852471 0
M  V30 21028 H 1959.66 3.11667 -0.164379 0
M  V30 21029 N 1959.96 0.40173 1.52394 0
M  V30 21030 C 1961.21 -0.177771 2.00915 0
M  V30 21031 C 1961.52 -1.46854 1.29203 0
M  V30 21032 O 1962.73 -2.12884 1.68501 0
M  V30 21033 C 1961.18 -0.367359 3.5802 0
M  V30 21034 C 1960.79 0.910882 4.38642 0
M  V30 21035 C 1962.54 -0.902552 4.14794 0
M  V30 21036 C 1960.44 0.688888 5.87374 0
M  V30 21037 H 1959.37 -0.0702091 0.750724 0
M  V30 21038 H 1962.02 0.52604 1.75798 0
M  V30 21039 H 1960.41 -1.13332 3.79436 0
M  V30 21040 H 1961.58 1.68242 4.28989 0
M  V30 21041 H 1959.9 1.37194 3.9315 0
M  V30 21042 H 1962.49 -1.08455 5.23585 0
M  V30 21043 H 1962.84 -1.87515 3.71677 0
M  V30 21044 H 1963.37 -0.19584 3.97318 0
M  V30 21045 H 1960.11 1.63284 6.34837 0
M  V30 21046 H 1959.63 -0.0434889 5.99784 0
M  V30 21047 H 1961.31 0.328207 6.46167 0
M  V30 21048 N 1961.44 -1.57047 0.131923 0
M  V30 21049 C 1962.69 -1.94807 -0.522807 0
M  V30 21050 C 1963 -1.01837 -1.66998 0
M  V30 21051 O 1964.21 -1.29115 -2.38834 0
M  V30 21052 C 1962.66 -3.4626 -0.981434 0
M  V30 21053 C 1962.27 -4.47787 0.137988 0
M  V30 21054 C 1964.01 -3.92915 -1.60681 0
M  V30 21055 C 1961.92 -5.90433 -0.338063 0
M  V30 21056 H 1960.85 -0.727245 -0.199076 0
M  V30 21057 H 1963.5 -1.8225 0.213851 0
M  V30 21058 H 1961.88 -3.54096 -1.7729 0
M  V30 21059 H 1963.06 -4.51632 0.914591 0
M  V30 21060 H 1961.37 -4.10961 0.670823 0
M  V30 21061 H 1963.97 -4.96914 -1.97434 0
M  V30 21062 H 1964.31 -3.33615 -2.49011 0
M  V30 21063 H 1964.85 -3.87933 -0.880514 0
M  V30 21064 H 1961.59 -6.53517 0.509502 0
M  V30 21065 H 1961.11 -5.89981 -1.08087 0
M  V30 21066 H 1962.78 -6.42096 -0.795053 0
M  V30 21067 N 1962.92 0.141865 -1.5696 0
M  V30 21068 C 1964.16 0.853609 -1.83629 0
M  V30 21069 C 1964.49 1.80937 -0.713591 0
M  V30 21070 O 1963.75 1.93433 0.296981 0
M  V30 21071 C 1964.05 1.65717 -3.16658 0
M  V30 21072 C 1963.71 0.847748 -4.42859 0
M  V30 21073 C 1962.37 0.624458 -4.77131 0
M  V30 21074 C 1964.73 0.282029 -5.20436 0
M  V30 21075 C 1962.05 -0.175174 -5.86438 0
M  V30 21076 C 1964.41 -0.50467 -6.30584 0
M  V30 21077 C 1963.07 -0.738489 -6.63402 0
M  V30 21078 H 1962.34 0.312358 -0.671948 0
M  V30 21079 H 1964.99 0.117006 -1.91142 0
M  V30 21080 H 1963.29 2.46403 -3.04619 0
M  V30 21081 H 1964.99 2.21144 -3.34509 0
M  V30 21082 H 1961.58 1.03185 -4.15994 0
M  V30 21083 H 1965.76 0.441806 -4.9433 0
M  V30 21084 H 1961.02 -0.365778 -6.10305 0
M  V30 21085 H 1965.19 -0.950134 -6.89888 0
M  V30 21086 H 1962.82 -1.35995 -7.47937 0
M  V30 21087 N 1964.39 1.52136 0.411372 0
M  V30 21088 C 1965.33 1.71544 1.52005 0
M  V30 21089 C 1966.34 0.595859 1.51504 0
M  V30 21090 O 1967.53 0.870952 1.5581 0
M  V30 21091 C 1964.63 1.73867 2.90901 0
M  V30 21092 C 1963.8 3.02826 3.15619 0
M  V30 21093 C 1962.86 2.96991 4.34376 0
M  V30 21094 O 1961.89 3.70901 4.31765 0
M  V30 21095 N 1963.09 2.14626 5.39366 0
M  V30 21096 H 1965.85 2.67192 1.35752 0
M  V30 21097 H 1963.41 1.50346 0.600643 0
M  V30 21098 H 1965.41 1.67498 3.68411 0
M  V30 21099 H 1963.98 0.85702 3.00623 0
M  V30 21100 H 1963.2 3.22861 2.26174 0
M  V30 21101 H 1964.48 3.8814 3.28976 0
M  V30 21102 H 1963.88 1.54003 5.44334 0
M  V30 21103 H 1962.44 2.14116 6.15628 0
M  V30 21104 N 1965.87 -0.668464 1.42721 0
M  V30 21105 C 1967.12 -1.42849 1.43528 0
M  V30 21106 C 1967.45 -1.94425 0.0540077 0
M  V30 21107 O 1966.7 -1.71721 -0.938629 0
M  V30 21108 C 1967 -2.63743 2.41194 0
M  V30 21109 C 1966.67 -2.30672 3.87429 0
M  V30 21110 C 1965.33 -2.21365 4.2726 0
M  V30 21111 C 1967.68 -2.03937 4.79645 0
M  V30 21112 C 1965.01 -1.83456 5.5728 0
M  V30 21113 C 1967.36 -1.6753 6.10013 0
M  V30 21114 C 1966.03 -1.56737 6.48837 0
M  V30 21115 H 1965.3 -0.522721 0.525208 0
M  V30 21116 H 1967.94 -0.761625 1.75703 0
M  V30 21117 H 1966.25 -3.35491 2.02369 0
M  V30 21118 H 1967.95 -3.21934 2.3908 0
M  V30 21119 H 1964.54 -2.38821 3.55896 0
M  V30 21120 H 1968.72 -2.10057 4.49655 0
M  V30 21121 H 1963.98 -1.73674 5.86214 0
M  V30 21122 H 1968.15 -1.4587 6.80952 0
M  V30 21123 H 1965.78 -1.27133 7.49494 0
M  V30 21124 N 1967.35 -1.28999 -0.905381 0
M  V30 21125 C 1968.6 -1.16813 -1.65779 0
M  V30 21126 C 1968.93 0.280936 -1.92157 0
M  V30 21127 O 1968.21 1.2035 -1.52794 0
M  V30 21128 C 1968.49 -1.97593 -3.01047 0
M  V30 21129 C 1968.34 -3.50608 -2.8177 0
M  V30 21130 C 1969.66 -1.79788 -4.01702 0
M  V30 21131 H 1966.78 -0.425716 -0.60161 0
M  V30 21132 H 1969.42 -1.58409 -1.04913 0
M  V30 21133 H 1967.57 -1.62246 -3.52999 0
M  V30 21134 H 1969.24 -3.95905 -2.36763 0
M  V30 21135 H 1967.49 -3.75818 -2.16663 0
M  V30 21136 H 1968.16 -4.02396 -3.77865 0
M  V30 21137 H 1970.63 -2.10649 -3.5884 0
M  V30 21138 H 1969.51 -2.38667 -4.94297 0
M  V30 21139 H 1969.77 -0.75156 -4.35665 0
M  V30 21140 N 1968.83 1.11497 -1.11383 0
M  V30 21141 C 1969.79 2.15704 -0.774896 0
M  V30 21142 C 1970.79 1.59482 0.205448 0
M  V30 21143 O 1971.98 1.7419 -0.018959 0
M  V30 21144 C 1969.11 3.40572 -0.149551 0
M  V30 21145 H 1970.31 2.47199 -1.69802 0
M  V30 21146 H 1967.86 1.26673 -0.915627 0
M  V30 21147 H 1968.6 3.14685 0.78383 0
M  V30 21148 H 1968.38 3.82659 -0.855233 0
M  V30 21149 H 1969.87 4.17539 0.0714744 0
M  V30 21150 N 1970.31 0.904053 1.29092 0
M  V30 21151 C 1971.55 0.532203 1.95381 0
M  V30 21152 C 1971.88 -0.922327 1.71241 0
M  V30 21153 O 1971.14 -1.66968 1.02079 0
M  V30 21154 C 1971.44 0.776255 3.48868 0
M  V30 21155 C 1971.1 2.20882 3.93093 0
M  V30 21156 C 1969.76 2.60052 4.04878 0
M  V30 21157 C 1972.12 3.14152 4.15882 0
M  V30 21158 C 1969.44 3.91663 4.36826 0
M  V30 21159 C 1971.8 4.45317 4.49306 0
M  V30 21160 C 1970.46 4.84354 4.59301 0
M  V30 21161 H 1969.73 0.194747 0.714951 0
M  V30 21162 H 1972.38 1.14354 1.53608 0
M  V30 21163 H 1970.68 0.0820369 3.91714 0
M  V30 21164 H 1972.38 0.467861 3.98261 0
M  V30 21165 H 1968.97 1.89485 3.84439 0
M  V30 21166 H 1973.15 2.85103 4.06239 0
M  V30 21167 H 1968.41 4.21623 4.42769 0
M  V30 21168 H 1972.58 5.17611 4.65888 0
M  V30 21169 H 1970.21 5.86371 4.83811 0
M  V30 21170 N 1971.79 -1.4279 0.666995 0
M  V30 21171 C 1973.03 -2.00866 0.183286 0
M  V30 21172 C 1973.35 -1.53315 -1.21465 0
M  V30 21173 O 1974.55 -2.03756 -1.79432 0
M  V30 21174 C 1973.01 -3.58834 0.276836 0
M  V30 21175 C 1972.62 -4.15374 1.67834 0
M  V30 21176 C 1974.36 -4.2424 -0.14856 0
M  V30 21177 C 1972.27 -5.65681 1.72507 0
M  V30 21178 H 1971.2 -0.751214 0.0647613 0
M  V30 21179 H 1973.85 -1.63603 0.83104 0
M  V30 21180 H 1972.23 -3.93563 -0.438672 0
M  V30 21181 H 1973.41 -3.9212 2.4203 0
M  V30 21182 H 1971.72 -3.62391 2.0509 0
M  V30 21183 H 1974.32 -5.34533 -0.133681 0
M  V30 21184 H 1974.66 -3.99154 -1.18245 0
M  V30 21185 H 1975.19 -3.94444 0.51567 0
M  V30 21186 H 1971.93 -5.95555 2.73852 0
M  V30 21187 H 1971.45 -5.9095 1.02655 0
M  V30 21188 H 1973.13 -6.29963 1.47499 0
M  V30 21189 N 1973.26 -0.409806 -1.52179 0
M  V30 21190 C 1974.21 0.415351 -2.27032 0
M  V30 21191 C 1975.18 1.04048 -1.29473 0
M  V30 21192 O 1976.37 1.06462 -1.58336 0
M  V30 21193 C 1973.51 1.52571 -3.09542 0
M  V30 21194 C 1972.62 0.921439 -4.22059 0
M  V30 21195 C 1971.75 2.00455 -4.91926 0
M  V30 21196 C 1970.79 1.37725 -5.96404 0
M  V30 21197 N 1969.93 2.40054 -6.59787 0
M  V30 21198 H 1974.77 -0.22939 -2.97116 0
M  V30 21199 H 1972.31 -0.124962 -1.46568 0
M  V30 21200 H 1974.26 2.18046 -3.55685 0
M  V30 21201 H 1972.89 2.14047 -2.41627 0
M  V30 21202 H 1971.95 0.15572 -3.80081 0
M  V30 21203 H 1973.26 0.423208 -4.97001 0
M  V30 21204 H 1972.41 2.73655 -5.41477 0
M  V30 21205 H 1971.15 2.53644 -4.16552 0
M  V30 21206 H 1970.16 0.63059 -5.46172 0
M  V30 21207 H 1971.38 0.853049 -6.73721 0
M  V30 21208 H 1969.33 2.92374 -5.87242 0
M  V30 21209 H 1969.24 1.95045 -7.30406 0
M  V30 21210 H 1970.51 3.12822 -7.13977 0
M  V30 21211 N 1974.74 1.56975 -0.14025 0
M  V30 21212 C 1976.16 1.58129 0.216215 0
M  V30 21213 C 1976.36 1.15417 1.6517 0
M  V30 21214 O 1975.41 0.851345 2.37715 0
M  V30 21215 C 1976.73 3.00678 -0.0364108 0
M  V30 21216 C 1978.27 3.12988 0.0278286 0
M  V30 21217 C 1978.75 4.57574 -0.197378 0
M  V30 21218 N 1980.24 4.62976 -0.144073 0
M  V30 21219 C 1980.98 5.72651 -0.292931 0
M  V30 21220 N 1980.47 6.91 -0.499138 0
M  V30 21221 N 1982.26 5.61625 -0.231008 0
M  V30 21222 H 1974.42 1.83033 -1.07762 0
M  V30 21223 H 1976.68 0.846871 -0.426044 0
M  V30 21224 H 1976.38 3.36291 -1.02963 0
M  V30 21225 H 1976.26 3.70909 0.686026 0
M  V30 21226 H 1978.65 2.7722 1.01159 0
M  V30 21227 H 1978.73 2.45257 -0.726829 0
M  V30 21228 H 1978.37 4.94045 -1.17821 0
M  V30 21229 H 1978.3 5.23424 0.577522 0
M  V30 21230 H 1980.79 3.77898 0.0109252 0
M  V30 21231 H 1981.1 7.70444 -0.603012 0
M  V30 21232 H 1979.45 6.92935 -0.535376 0
M  V30 21233 H 1982.64 4.68047 -0.0707224 0
M  V30 21234 H 1982.81 6.47052 -0.350455 0
M  V30 21235 N 1976.22 -0.133539 1.57033 0
M  V30 21236 C 1977.64 -0.486622 1.52 0
M  V30 21237 C 1977.84 -1.82653 0.850899 0
M  V30 21238 O 1976.89 -2.48862 0.42709 0
M  V30 21239 C 1978.2 -0.484516 2.96771 0
M  V30 21240 C 1979.75 -0.56909 3.07783 0
M  V30 21241 C 1980.23 -0.597515 4.54086 0
M  V30 21242 N 1981.72 -0.659363 4.58483 0
M  V30 21243 C 1982.45 -0.702564 5.6908 0
M  V30 21244 N 1981.95 -0.704292 6.89211 0
M  V30 21245 N 1983.74 -0.74447 5.57148 0
M  V30 21246 H 1975.89 0.744582 1.98921 0
M  V30 21247 H 1978.16 0.273049 0.907826 0
M  V30 21248 H 1977.86 0.432078 3.49036 0
M  V30 21249 H 1977.74 -1.3176 3.53439 0
M  V30 21250 H 1980.12 -1.4761 2.55529 0
M  V30 21251 H 1980.2 0.291401 2.54135 0
M  V30 21252 H 1979.85 0.305395 5.06981 0
M  V30 21253 H 1979.78 -1.47469 5.0553 0
M  V30 21254 H 1982.27 -0.664781 3.72007 0
M  V30 21255 H 1982.58 -0.739477 7.69254 0
M  V30 21256 H 1980.93 -0.67195 6.91744 0
M  V30 21257 H 1984.12 -0.740383 4.62208 0
M  V30 21258 H 1984.29 -0.774672 6.43353 0
M  V30 21259 N 1977.7 -1.52352 -0.403298 0
M  V30 21260 C 1978.63 -1.72347 -1.51093 0
M  V30 21261 C 1979.64 -0.603886 -1.51186 0
M  V30 21262 O 1980.83 -0.879203 -1.55346 0
M  V30 21263 C 1977.93 -1.75407 -2.89975 0
M  V30 21264 C 1977.1 -3.04495 -3.14009 0
M  V30 21265 C 1976.16 -2.9929 -4.32795 0
M  V30 21266 O 1975.19 -3.73185 -4.29792 0
M  V30 21267 N 1976.39 -2.17484 -5.3822 0
M  V30 21268 H 1979.16 -2.67908 -1.34333 0
M  V30 21269 H 1976.72 -1.50662 -0.592661 0
M  V30 21270 H 1978.71 -1.6945 -3.67517 0
M  V30 21271 H 1977.28 -0.87295 -3.00164 0
M  V30 21272 H 1976.5 -3.24056 -2.24458 0
M  V30 21273 H 1977.79 -3.89879 -3.26913 0
M  V30 21274 H 1977.19 -1.56888 -5.4351 0
M  V30 21275 H 1975.74 -2.17378 -6.14484 0
M  V30 21276 N 1979.18 0.660885 -1.43074 0
M  V30 21277 C 1980.59 0.97566 -1.26305 0
M  V30 21278 C 1980.79 2.00719 -0.17724 0
M  V30 21279 O 1979.85 2.48514 0.446896 0
M  V30 21280 C 1981.16 1.46722 -2.62475 0
M  V30 21281 C 1982.71 1.58427 -2.69944 0
M  V30 21282 C 1983.18 2.10976 -4.06514 0
M  V30 21283 N 1984.67 2.18289 -4.08539 0
M  V30 21284 C 1985.41 2.60054 -5.11038 0
M  V30 21285 N 1984.91 3.01171 -6.23913 0
M  V30 21286 N 1986.7 2.59926 -4.98392 0
M  V30 21287 H 1978.85 -0.02183 -2.12389 0
M  V30 21288 H 1981.11 0.0527972 -0.946529 0
M  V30 21289 H 1980.82 0.783712 -3.42857 0
M  V30 21290 H 1980.69 2.44359 -2.87348 0
M  V30 21291 H 1983.08 2.25881 -1.899 0
M  V30 21292 H 1983.16 0.592433 -2.48845 0
M  V30 21293 H 1982.8 1.44126 -4.87022 0
M  V30 21294 H 1982.73 3.10976 -4.24972 0
M  V30 21295 H 1985.23 1.89317 -3.27059 0
M  V30 21296 H 1985.54 3.31766 -6.97962 0
M  V30 21297 H 1983.88 2.98994 -6.27398 0
M  V30 21298 H 1987.07 2.27175 -4.09279 0
M  V30 21299 H 1987.25 2.92154 -5.78403 0
M  V30 21300 N 1980.65 1.29477 0.898527 0
M  V30 21301 C 1981.62 1.14706 1.98432 0
M  V30 21302 C 1982.62 0.0821822 1.6059 0
M  V30 21303 O 1983.81 0.329216 1.71061 0
M  V30 21304 C 1980.94 0.754356 3.32449 0
M  V30 21305 H 1982.13 2.11154 2.12964 0
M  V30 21306 H 1979.69 1.1268 1.08319 0
M  V30 21307 H 1980.42 -0.210224 3.23618 0
M  V30 21308 H 1980.21 1.52377 3.61281 0
M  V30 21309 H 1981.7 0.674095 4.12123 0
M  V30 21310 N 1982.13 -1.10905 1.11972 0
M  V30 21311 C 1983.38 -1.83033 0.873311 0
M  V30 21312 C 1983.71 -1.84716 -0.599472 0
M  V30 21313 O 1982.99 -1.30427 -1.44288 0
M  V30 21314 C 1983.27 -3.29941 1.44261 0
M  V30 21315 C 1983.12 -3.36619 2.98341 0
M  V30 21316 C 1984.44 -4.26179 1.09815 0
M  V30 21317 H 1981.56 -0.664529 0.318701 0
M  V30 21318 H 1984.2 -1.30012 1.38553 0
M  V30 21319 H 1982.35 -3.75223 1.00697 0
M  V30 21320 H 1984.02 -2.99854 3.5055 0
M  V30 21321 H 1982.27 -2.76668 3.34122 0
M  V30 21322 H 1982.94 -4.40043 3.33266 0
M  V30 21323 H 1985.41 -3.89105 1.47433 0
M  V30 21324 H 1984.29 -5.27343 1.52318 0
M  V30 21325 H 1984.55 -4.42099 0.00966838 0
M  V30 21326 N 1983.61 -0.910886 -1.2861 0
M  V30 21327 C 1985.02 -0.589499 -1.77149 0
M  V30 21328 C 1985.37 0.895128 -1.74591 0
M  V30 21329 O 1984.5 1.70016 -1.33879 0
M  V30 21330 C 1985.09 -1.06332 -3.21682 0
M  V30 21331 C 1983.65 -0.792899 -3.67954 0
M  V30 21332 C 1982.8 -1.23167 -2.48445 0
M  V30 21333 H 1985.75 -1.09245 -1.15114 0
M  V30 21334 H 1985.77 -0.403495 -3.78355 0
M  V30 21335 H 1985.28 -2.14387 -3.23512 0
M  V30 21336 H 1983.38 0.274569 -3.71587 0
M  V30 21337 H 1983.5 -1.39863 -4.5823 0
M  V30 21338 H 1981.86 -0.650459 -2.46254 0
M  V30 21339 H 1982.64 -2.32051 -2.52996 0
M  V30 21340 N 1985.09 1.42434 -0.674558 0
M  V30 21341 C 1986 2.346 0.00398919 0
M  V30 21342 C 1987.01 1.55078 0.789109 0
M  V30 21343 O 1988.19 1.87647 0.731485 0
M  V30 21344 C 1985.26 3.33607 0.94379 0
M  V30 21345 C 1984.32 4.29026 0.153229 0
M  V30 21346 C 1983.55 5.23304 1.04827 0
M  V30 21347 O 1983.77 5.2251 2.28779 0
M  V30 21348 O 1982.71 5.99742 0.509202 0
M  V30 21349 H 1986.53 2.94161 -0.755189 0
M  V30 21350 H 1984.12 1.42933 -0.434794 0
M  V30 21351 H 1986 3.94431 1.4833 0
M  V30 21352 H 1984.67 2.76519 1.68282 0
M  V30 21353 H 1983.58 3.71616 -0.430381 0
M  V30 21354 H 1984.91 4.89155 -0.546686 0
M  V30 21355 N 1986.57 0.417871 1.51959 0
M  V30 21356 C 1987.82 -0.156451 2.01092 0
M  V30 21357 C 1988.13 -1.45475 1.30753 0
M  V30 21358 O 1989.33 -2.11085 1.70749 0
M  V30 21359 C 1987.79 -0.329366 3.5839 0
M  V30 21360 C 1987.4 0.957354 4.37651 0
M  V30 21361 C 1989.14 -0.858507 4.15728 0
M  V30 21362 C 1987.05 0.751148 5.8661 0
M  V30 21363 H 1985.98 -0.0622427 0.751427 0
M  V30 21364 H 1988.63 0.544656 1.75231 0
M  V30 21365 H 1987.01 -1.09301 3.80617 0
M  V30 21366 H 1988.19 1.72783 4.2718 0
M  V30 21367 H 1986.5 1.41356 3.91673 0
M  V30 21368 H 1989.1 -1.02896 5.24706 0
M  V30 21369 H 1989.44 -1.83563 3.73645 0
M  V30 21370 H 1989.97 -0.153688 3.97503 0
M  V30 21371 H 1986.71 1.70008 6.3307 0
M  V30 21372 H 1986.23 0.0201287 5.99797 0
M  V30 21373 H 1987.91 0.396724 6.45783 0
M  V30 21374 N 1988.04 -1.56898 0.148573 0
M  V30 21375 C 1988.97 -2.19852 -0.786585 0
M  V30 21376 C 1989.96 -1.14723 -1.2559 0
M  V30 21377 O 1991.14 -1.43071 -1.31317 0
M  V30 21378 C 1988.27 -2.82137 -2.02524 0
M  V30 21379 C 1987.22 -3.93108 -1.69264 0
M  V30 21380 C 1986.55 -4.42335 -3.00407 0
M  V30 21381 C 1987.85 -5.13807 -0.938092 0
M  V30 21382 H 1989.54 -2.98252 -0.261903 0
M  V30 21383 H 1987.09 -1.43461 -0.124531 0
M  V30 21384 H 1989.04 -3.24845 -2.68428 0
M  V30 21385 H 1987.77 -2.01071 -2.57368 0
M  V30 21386 H 1986.43 -3.5102 -1.05739 0
M  V30 21387 H 1986.07 -3.58089 -3.53244 0
M  V30 21388 H 1985.77 -5.17185 -2.78915 0
M  V30 21389 H 1987.3 -4.87714 -3.67378 0
M  V30 21390 H 1988.71 -5.53349 -1.49924 0
M  V30 21391 H 1987.11 -5.94429 -0.823062 0
M  V30 21392 H 1988.18 -4.8485 0.0698825 0
M  V30 21393 N 1989.52 0.125209 -1.57102 0
M  V30 21394 C 1990.49 1.13792 -1.98957 0
M  V30 21395 C 1991.49 1.34656 -0.878887 0
M  V30 21396 O 1992.68 1.31278 -1.14506 0
M  V30 21397 C 1989.81 2.49371 -2.32437 0
M  V30 21398 H 1991 0.778319 -2.89624 0
M  V30 21399 H 1988.55 0.369299 -1.51875 0
M  V30 21400 H 1989.29 2.90263 -1.4463 0
M  V30 21401 H 1989.07 2.35583 -3.13437 0
M  V30 21402 H 1990.56 3.22268 -2.65581 0
M  V30 21403 N 1991 1.52564 0.395213 0
M  V30 21404 C 1991.96 1.76262 1.46508 0
M  V30 21405 C 1992.96 0.632579 1.47835 0
M  V30 21406 O 1994.15 0.900582 1.49115 0
M  V30 21407 C 1991.29 1.85771 2.85835 0
M  V30 21408 H 1992.48 2.71784 1.26782 0
M  V30 21409 H 1990.03 1.43191 0.626572 0
M  V30 21410 H 1990.77 0.922125 3.10914 0
M  V30 21411 H 1990.55 2.67936 2.86274 0
M  V30 21412 H 1992.04 2.05799 3.63368 0
M  V30 21413 N 1992.48 -0.653289 1.43422 0
M  V30 21414 C 1993.73 -1.41039 1.44749 0
M  V30 21415 C 1994.05 -1.94864 0.0728692 0
M  V30 21416 O 1993.32 -1.74425 -0.891782 0
M  V30 21417 H 1991.9 -0.523445 0.53293 0
M  V30 21418 H 1994.56 -0.770483 1.79024 0
M  V30 21419 H 1993.66 -2.25278 2.16001 0
M  V30 21420 N 1993.96 -1.29952 -0.891648 0
M  V30 21421 C 1995.2 -1.18155 -1.63963 0
M  V30 21422 C 1995.53 0.265477 -1.93184 0
M  V30 21423 O 1994.8 1.1802 -1.56359 0
M  V30 21424 H 1993.38 -0.434297 -0.607779 0
M  V30 21425 H 1996.04 -1.62988 -1.06869 0
M  V30 21426 H 1995.13 -1.73753 -2.59261 0
M  V30 21427 N 1995.44 1.1031 -1.12559 0
M  V30 21428 C 1996.85 1.34325 -0.861911 0
M  V30 21429 C 1997.05 1.95009 0.507319 0
M  V30 21430 O 1996.11 2.1906 1.25574 0
M  V30 21431 C 1997.42 2.26367 -1.97935 0
M  V30 21432 C 1998.97 2.39901 -2.01039 0
M  V30 21433 C 1999.44 3.35273 -3.1202 0
M  V30 21434 N 2000.93 3.42841 -3.11471 0
M  V30 21435 C 2001.67 4.16611 -3.93983 0
M  V30 21436 N 2001.17 4.93256 -4.86488 0
M  V30 21437 N 2002.96 4.12243 -3.82116 0
M  V30 21438 H 1995.11 0.692899 -2.0078 0
M  V30 21439 H 1997.37 0.367689 -0.87379 0
M  V30 21440 H 1997.08 1.8899 -2.96607 0
M  V30 21441 H 1996.95 3.26685 -1.88565 0
M  V30 21442 H 1999.34 2.76546 -1.02986 0
M  V30 21443 H 1999.42 1.39393 -2.14484 0
M  V30 21444 H 1999.06 2.99352 -4.10306 0
M  V30 21445 H 1998.99 4.35663 -2.95813 0
M  V30 21446 H 2001.49 2.88182 -2.44457 0
M  V30 21447 H 2001.8 5.46948 -5.45956 0
M  V30 21448 H 2000.14 4.92376 -4.90501 0
M  V30 21449 H 2003.33 3.5146 -3.09182 0
M  V30 21450 H 2003.51 4.69475 -4.46651 0
M  V30 21451 N 1996.91 0.917694 1.28125 0
M  V30 21452 C 1998.14 0.568064 1.98637 0
M  V30 21453 C 1998.55 -0.855939 1.68732 0
M  V30 21454 O 1997.89 -1.57905 0.938699 0
M  V30 21455 C 1997.96 0.702044 3.52578 0
M  V30 21456 C 1997.62 2.09632 4.06083 0
M  V30 21457 C 1998.62 3.06946 4.19619 0
M  V30 21458 C 1996.3 2.41056 4.40678 0
M  V30 21459 C 1998.3 4.33798 4.67009 0
M  V30 21460 C 1995.98 3.68147 4.87761 0
M  V30 21461 C 1996.98 4.64332 5.00884 0
M  V30 21462 O 1996.67 5.89163 5.46939 0
M  V30 21463 H 1996.4 0.214921 0.640925 0
M  V30 21464 H 1998.96 1.23412 1.64191 0
M  V30 21465 H 1997.19 -0.0210885 3.86694 0
M  V30 21466 H 1998.87 0.358941 4.0431 0
M  V30 21467 H 1999.64 2.83987 3.93162 0
M  V30 21468 H 1995.52 1.6694 4.29712 0
M  V30 21469 H 1999.06 5.08878 4.77167 0
M  V30 21470 H 1994.96 3.90929 5.13659 0
M  V30 21471 H 1995.73 5.92008 5.65216 0
M  V30 21472 N 1998.39 -1.42074 0.682102 0
M  V30 21473 C 1999.67 -1.95126 0.136033 0
M  V30 21474 C 2000.05 -1.62218 -1.35088 0
M  V30 21475 O 1999.4 -0.922124 -2.09067 0
M  V30 21476 C 1999.61 -3.46548 0.412954 0
M  V30 21477 C 2000.95 -4.23289 0.333404 0
M  V30 21478 O 2001.98 -3.54505 0.34711 0
M  V30 21479 O 2000.84 -5.45773 0.281884 0
M  V30 21480 H 1997.93 -0.826969 0.00711447 0
M  V30 21481 H 2000.48 -1.51864 0.757335 0
M  V30 21482 H 1999.25 -3.63733 1.4427 0
M  V30 21483 H 1998.87 -3.96875 -0.239993 0
M  V30 21484 N 1999.87 -0.425924 -1.51735 0
M  V30 21485 C 2000.8 0.382011 -2.30354 0
M  V30 21486 C 2001.78 1.03124 -1.35276 0
M  V30 21487 O 2002.97 1.03705 -1.64191 0
M  V30 21488 C 2000.1 1.48978 -3.13724 0
M  V30 21489 C 1999.05 0.964659 -4.16987 0
M  V30 21490 C 1998.38 2.1673 -4.88807 0
M  V30 21491 C 1999.68 0.00700314 -5.223 0
M  V30 21492 H 2001.37 -0.274043 -2.98143 0
M  V30 21493 H 1998.92 -0.133238 -1.43382 0
M  V30 21494 H 2000.87 2.06211 -3.67498 0
M  V30 21495 H 1999.59 2.17396 -2.43735 0
M  V30 21496 H 1998.25 0.414618 -3.64248 0
M  V30 21497 H 1997.9 2.83741 -4.15331 0
M  V30 21498 H 1997.6 1.82239 -5.58626 0
M  V30 21499 H 1999.12 2.74538 -5.454 0
M  V30 21500 H 2000.54 0.488665 -5.71214 0
M  V30 21501 H 1998.93 -0.249924 -5.99579 0
M  V30 21502 H 2000 -0.933195 -4.75836 0
M  V30 21503 N 2001.35 1.56817 -0.156891 0
M  V30 21504 C 2002.28 2.20266 0.774915 0
M  V30 21505 C 2003.26 1.15387 1.24979 0
M  V30 21506 O 2004.44 1.43766 1.30557 0
M  V30 21507 C 2001.57 2.83207 2.01025 0
M  V30 21508 C 2000.53 3.94 1.67177 0
M  V30 21509 C 1999.85 4.43921 2.98057 0
M  V30 21510 C 2001.15 5.14297 0.91083 0
M  V30 21511 H 2002.85 2.98387 0.246082 0
M  V30 21512 H 2000.39 1.43525 0.116921 0
M  V30 21513 H 2002.35 3.26264 2.66701 0
M  V30 21514 H 2001.07 2.02433 2.56298 0
M  V30 21515 H 1999.73 3.51576 1.03876 0
M  V30 21516 H 1999.38 3.59957 3.5134 0
M  V30 21517 H 1999.08 5.18657 2.76169 0
M  V30 21518 H 2000.6 4.89656 3.64787 0
M  V30 21519 H 2002.02 5.54137 1.46988 0
M  V30 21520 H 2000.41 5.94857 0.791526 0
M  V30 21521 H 2001.48 4.84806 -0.0955943 0
M  V30 21522 N 2002.83 -0.116876 1.57166 0
M  V30 21523 C 2004.07 -0.822873 1.84151 0
M  V30 21524 C 2004.39 -1.80944 0.742867 0
M  V30 21525 O 2005.59 -2.56177 0.89919 0
M  V30 21526 C 2004.05 -1.51414 3.26499 0
M  V30 21527 C 2003.66 -0.568446 4.44379 0
M  V30 21528 C 2005.4 -2.20514 3.62731 0
M  V30 21529 C 2003.31 -1.26306 5.77755 0
M  V30 21530 H 2002.24 -0.311047 0.686852 0
M  V30 21531 H 2004.89 -0.0756323 1.83344 0
M  V30 21532 H 2003.27 -2.30807 3.21782 0
M  V30 21533 H 2004.45 0.192429 4.60398 0
M  V30 21534 H 2002.76 0.0157058 4.16397 0
M  V30 21535 H 2005.36 -2.73177 4.5965 0
M  V30 21536 H 2005.7 -2.98411 2.90269 0
M  V30 21537 H 2006.23 -1.48006 3.69241 0
M  V30 21538 H 2002.97 -0.525332 6.53392 0
M  V30 21539 H 2002.49 -1.99589 5.65618 0
M  V30 21540 H 2004.17 -1.79566 6.21583 0
M  V30 21541 N 2004.3 -1.52772 -0.387116 0
M  V30 21542 C 2005.71 -1.59829 -0.964966 0
M  V30 21543 C 2006.07 -0.452304 -1.90915 0
M  V30 21544 O 2005.19 0.424353 -2.12199 0
M  V30 21545 C 2005.79 -2.89687 -1.7569 0
M  V30 21546 C 2004.34 -2.99151 -2.28442 0
M  V30 21547 C 2003.49 -2.54957 -1.0905 0
M  V30 21548 H 2006.44 -1.57823 -0.1666 0
M  V30 21549 H 2006.46 -2.76279 -2.6163 0
M  V30 21550 H 2005.98 -3.73074 -1.06945 0
M  V30 21551 H 2004.08 -2.20305 -3.00494 0
M  V30 21552 H 2004.19 -4.03827 -2.578 0
M  V30 21553 H 2002.55 -2.09321 -1.45109 0
M  V30 21554 H 2003.34 -3.40741 -0.418373 0
M  V30 21555 N 2005.78 0.645673 -1.43767 0
M  V30 21556 C 2006.71 1.77107 -1.45484 0
M  V30 21557 C 2007.73 1.58993 -0.350002 0
M  V30 21558 O 2008.92 1.67575 -0.61489 0
M  V30 21559 C 2006.02 3.14639 -1.25919 0
M  V30 21560 C 2005.19 3.59344 -2.49381 0
M  V30 21561 C 2004.25 4.75703 -2.24929 0
M  V30 21562 O 2003.27 4.84756 -2.98329 0
M  V30 21563 N 2004.48 5.66422 -1.27068 0
M  V30 21564 H 2007.24 1.7611 -2.42498 0
M  V30 21565 H 2004.8 0.829768 -1.3902 0
M  V30 21566 H 2006.79 3.9018 -1.07432 0
M  V30 21567 H 2005.36 3.10364 -0.37323 0
M  V30 21568 H 2004.58 2.74166 -2.83243 0
M  V30 21569 H 2005.87 3.8596 -3.3153 0
M  V30 21570 H 2005.27 5.61787 -0.664185 0
M  V30 21571 H 2003.83 6.41653 -1.14562 0
M  V30 21572 N 2007.26 1.30423 0.884744 0
M  V30 21573 C 2008.51 1.19259 1.63657 0
M  V30 21574 C 2008.83 -0.252645 1.92852 0
M  V30 21575 O 2008.09 -1.19718 1.5481 0
M  V30 21576 C 2008.39 1.96681 2.98415 0
M  V30 21577 C 2008.05 3.46298 2.8877 0
M  V30 21578 C 2006.72 3.87098 2.85847 0
M  V30 21579 C 2009.07 4.41573 2.7688 0
M  V30 21580 C 2006.4 5.21464 2.68873 0
M  V30 21581 C 2008.75 5.76047 2.61444 0
M  V30 21582 C 2007.41 6.16085 2.56896 0
M  V30 21583 H 2006.68 0.436399 0.598863 0
M  V30 21584 H 2009.33 1.61527 1.02865 0
M  V30 21585 H 2007.63 1.47049 3.63158 0
M  V30 21586 H 2009.33 1.85436 3.55548 0
M  V30 21587 H 2005.92 3.13877 2.91855 0
M  V30 21588 H 2010.11 4.10994 2.78205 0
M  V30 21589 H 2005.36 5.51577 2.63766 0
M  V30 21590 H 2009.54 6.49509 2.51218 0
M  V30 21591 H 2007.16 7.20147 2.43501 0
M  V30 21592 N 2008.74 -1.09711 1.13142 0
M  V30 21593 C 2010.15 -1.33866 0.869023 0
M  V30 21594 C 2010.35 -1.95275 -0.49697 0
M  V30 21595 O 2009.41 -2.19723 -1.2441 0
M  V30 21596 C 2010.72 -2.25314 1.99133 0
M  V30 21597 C 2012.27 -2.38831 2.02308 0
M  V30 21598 C 2012.75 -3.33613 3.13793 0
M  V30 21599 N 2014.24 -3.41185 3.13284 0
M  V30 21600 C 2014.97 -4.14516 3.96187 0
M  V30 21601 N 2014.47 -4.90669 4.89097 0
M  V30 21602 N 2016.26 -4.1021 3.84297 0
M  V30 21603 H 2008.41 -0.682242 2.01145 0
M  V30 21604 H 2010.67 -0.36305 0.875728 0
M  V30 21605 H 2010.38 -1.87415 2.97605 0
M  V30 21606 H 2010.25 -3.25681 1.90294 0
M  V30 21607 H 2012.64 -2.75996 1.04451 0
M  V30 21608 H 2012.72 -1.38254 2.1522 0
M  V30 21609 H 2012.37 -2.97172 4.11887 0
M  V30 21610 H 2012.3 -4.34088 2.9812 0
M  V30 21611 H 2014.79 -2.86882 2.45982 0
M  V30 21612 H 2015.1 -5.44045 5.48849 0
M  V30 21613 H 2013.45 -4.89768 4.93105 0
M  V30 21614 H 2016.64 -3.49815 3.11042 0
M  V30 21615 H 2016.81 -4.671 4.49135 0
M  V30 21616 N 2010.22 -0.924476 -1.27637 0
M  V30 21617 C 2011.46 -0.562107 -1.94126 0
M  V30 21618 C 2011.79 0.898999 -1.7304 0
M  V30 21619 O 2011.06 1.63686 -1.07627 0
M  V30 21620 H 2009.64 -0.204894 -0.718351 0
M  V30 21621 H 2012.3 -1.17617 -1.5541 0
M  V30 21622 H 2011.39 -0.765644 -3.02563 0
M  V30 21623 N 2011.69 1.41711 -0.689627 0
M  V30 21624 C 2013.11 1.84377 -0.293587 0
M  V30 21625 C 2013.46 1.57711 1.16712 0
M  V30 21626 O 2012.58 1.0445 1.89523 0
M  V30 21627 C 2013.18 3.34691 -0.526073 0
M  V30 21628 C 2011.74 3.7595 -0.184009 0
M  V30 21629 C 2010.88 2.65167 -0.811277 0
M  V30 21630 H 2013.83 1.31347 -0.890718 0
M  V30 21631 H 2013.85 3.7988 0.217124 0
M  V30 21632 H 2013.37 3.54068 -1.58927 0
M  V30 21633 H 2011.47 3.62176 0.875158 0
M  V30 21634 H 2011.58 4.74875 -0.63488 0
M  V30 21635 H 2009.94 2.53554 -0.241363 0
M  V30 21636 H 2010.73 2.87363 -1.87822 0
M  V30 21637 N 2013.17 0.433965 1.51507 0
M  V30 21638 C 2014.1 -0.41493 2.25413 0
M  V30 21639 C 2015.12 -0.989176 1.29303 0
M  V30 21640 O 2016.31 -0.883889 1.55079 0
M  V30 21641 C 2013.41 -1.59207 2.99176 0
M  V30 21642 C 2012.58 -1.1373 4.22355 0
M  V30 21643 C 2011.64 -2.18418 4.78727 0
M  V30 21644 O 2010.66 -1.77991 5.40655 0
M  V30 21645 N 2011.87 -3.50866 4.62465 0
M  V30 21646 H 2014.63 0.218474 2.98903 0
M  V30 21647 H 2012.19 0.26267 1.59755 0
M  V30 21648 H 2014.18 -2.28857 3.33776 0
M  V30 21649 H 2012.75 -2.13089 2.28718 0
M  V30 21650 H 2011.97 -0.267997 3.93288 0
M  V30 21651 H 2013.26 -0.8108 5.02298 0
M  V30 21652 H 2012.66 -3.86446 4.1313 0
M  V30 21653 H 2011.22 -4.1642 5.01436 0
M  V30 21654 N 2014.65 -1.56732 0.165206 0
M  V30 21655 C 2015.61 -2.1646 -0.753498 0
M  V30 21656 C 2016.61 -1.11106 -1.16241 0
M  V30 21657 O 2017.8 -1.36652 -1.08037 0
M  V30 21658 C 2014.94 -2.7425 -2.02483 0
M  V30 21659 H 2016.13 -2.98989 -0.233629 0
M  V30 21660 H 2013.68 -1.56072 -0.0843317 0
M  V30 21661 H 2014.42 -1.95439 -2.58794 0
M  V30 21662 H 2014.2 -3.51345 -1.74065 0
M  V30 21663 H 2015.69 -3.20209 -2.6806 0
M  V30 21664 N 2016.13 0.10854 -1.57226 0
M  V30 21665 C 2017.06 1.13362 -2.04135 0
M  V30 21666 C 2018.04 1.42573 -0.927733 0
M  V30 21667 O 2019.22 1.52835 -1.19813 0
M  V30 21668 C 2016.35 2.45708 -2.45449 0
M  V30 21669 C 2015.31 2.30935 -3.60351 0
M  V30 21670 C 2014.63 3.68337 -3.87597 0
M  V30 21671 C 2015.93 1.76112 -4.91713 0
M  V30 21672 H 2017.63 0.74341 -2.90024 0
M  V30 21673 H 2015.17 0.356157 -1.39526 0
M  V30 21674 H 2017.13 3.17679 -2.76872 0
M  V30 21675 H 2015.85 2.86639 -1.56544 0
M  V30 21676 H 2014.51 1.61411 -3.29153 0
M  V30 21677 H 2014.16 4.06772 -2.95881 0
M  V30 21678 H 2013.86 3.59303 -4.64946 0
M  V30 21679 H 2015.38 4.41797 -4.21483 0
M  V30 21680 H 2016.8 2.3791 -5.21605 0
M  V30 21681 H 2015.19 1.77872 -5.73133 0
M  V30 21682 H 2016.26 0.71947 -4.79533 0
M  V30 21683 N 2017.61 1.52975 0.379009 0
M  V30 21684 C 2018.85 1.68172 1.12082 0
M  V30 21685 C 2019.18 0.429215 1.90218 0
M  V30 21686 O 2018.45 -0.556561 1.87828 0
M  V30 21687 H 2017.03 0.619935 0.416761 0
M  V30 21688 H 2019.69 1.90123 0.428883 0
M  V30 21689 H 2018.78 2.53672 1.81815 0
M  V30 21690 N 2019.08 -0.63804 1.44107 0
M  V30 21691 C 2020.5 -1.21954 1.41365 0
M  V30 21692 C 2020.85 -1.95799 0.125451 0
M  V30 21693 O 2019.97 -2.02066 -0.774492 0
M  V30 21694 C 2020.57 -2.21819 2.56089 0
M  V30 21695 C 2019.13 -2.75412 2.56564 0
M  V30 21696 C 2018.27 -1.50296 2.33037 0
M  V30 21697 H 2021.22 -0.429131 1.52788 0
M  V30 21698 H 2021.24 -3.0429 2.28447 0
M  V30 21699 H 2020.76 -1.68045 3.49832 0
M  V30 21700 H 2018.86 -3.33207 1.66744 0
M  V30 21701 H 2018.97 -3.21922 3.54828 0
M  V30 21702 H 2017.33 -1.78184 1.81996 0
M  V30 21703 H 2018.12 -0.984346 3.28885 0
M  V30 21704 N 2020.56 -1.3089 -0.877815 0
M  V30 21705 C 2021.81 -1.20303 -1.63264 0
M  V30 21706 C 2022.14 0.240114 -1.9271 0
M  V30 21707 O 2021.42 1.17082 -1.55313 0
M  V30 21708 C 2021.7 -2.03934 -2.96788 0
M  V30 21709 C 2021.55 -3.56506 -2.74269 0
M  V30 21710 C 2022.87 -1.88268 -3.97798 0
M  V30 21711 H 2019.99 -0.438382 -0.592445 0
M  V30 21712 H 2022.63 -1.60598 -1.01529 0
M  V30 21713 H 2020.78 -1.69698 -3.49478 0
M  V30 21714 H 2022.45 -4.00838 -2.28312 0
M  V30 21715 H 2020.7 -3.8033 -2.08643 0
M  V30 21716 H 2021.37 -4.1032 -3.69244 0
M  V30 21717 H 2023.84 -2.18214 -3.54291 0
M  V30 21718 H 2022.72 -2.49098 -4.89123 0
M  V30 21719 H 2022.98 -0.843802 -4.33973 0
M  V30 21720 N 2022.04 1.0911 -1.13723 0
M  V30 21721 C 2023.45 1.62841 -0.913213 0
M  V30 21722 C 2023.8 1.88346 0.549566 0
M  V30 21723 O 2022.93 1.63558 1.41696 0
M  V30 21724 C 2023.52 2.95835 -1.65127 0
M  V30 21725 C 2022.08 3.46379 -1.47304 0
M  V30 21726 C 2021.23 2.20738 -1.6784 0
M  V30 21727 H 2024.18 0.924297 -1.29006 0
M  V30 21728 H 2024.2 3.63942 -1.11026 0
M  V30 21729 H 2023.71 2.77241 -2.71587 0
M  V30 21730 H 2021.81 3.70092 -0.431605 0
M  V30 21731 H 2021.93 4.23603 -2.23825 0
M  V30 21732 H 2020.29 2.29554 -1.10349 0
M  V30 21733 H 2021.07 2.04659 -2.75626 0
M  V30 21734 N 2023.52 0.931232 1.27145 0
M  V30 21735 C 2024.75 0.589956 1.98311 0
M  V30 21736 C 2025.16 -0.832836 1.69438 0
M  V30 21737 O 2024.52 -1.55399 0.956935 0
M  V30 21738 C 2024.57 0.810592 3.52295 0
M  V30 21739 O 2024.29 2.17741 3.80158 0
M  V30 21740 C 2025.79 0.478508 4.4071 0
M  V30 21741 H 2023.01 0.223234 0.632778 0
M  V30 21742 H 2025.56 1.24922 1.6191 0
M  V30 21743 H 2023.71 0.198081 3.86893 0
M  V30 21744 H 2024.12 2.23003 4.74731 0
M  V30 21745 H 2025.6 0.683566 5.47751 0
M  V30 21746 H 2026.08 -0.586102 4.35272 0
M  V30 21747 H 2026.68 1.06931 4.11638 0
M  V30 21748 N 2025 -1.41343 0.697132 0
M  V30 21749 C 2025.96 -2.29162 0.0417336 0
M  V30 21750 C 2026.96 -1.44455 -0.706353 0
M  V30 21751 O 2028.15 -1.65586 -0.54101 0
M  V30 21752 C 2025.28 -3.2736 -0.951235 0
M  V30 21753 H 2026.48 -2.88614 0.814974 0
M  V30 21754 H 2024.03 -1.49356 0.460717 0
M  V30 21755 H 2024.76 -2.7289 -1.75218 0
M  V30 21756 H 2024.55 -3.89866 -0.417931 0
M  V30 21757 H 2026.04 -3.93164 -1.40756 0
M  V30 21758 N 2026.48 -0.441993 -1.51275 0
M  V30 21759 C 2027.72 0.124439 -2.01316 0
M  V30 21760 C 2028.04 1.43376 -1.33051 0
M  V30 21761 O 2029.24 2.08342 -1.74086 0
M  V30 21762 C 2027.7 0.272307 -3.58868 0
M  V30 21763 C 2027.31 -1.02686 -4.36073 0
M  V30 21764 C 2029.05 0.792259 -4.17041 0
M  V30 21765 C 2026.96 -0.844378 -5.85341 0
M  V30 21766 H 2025.89 0.0502803 -0.752322 0
M  V30 21767 H 2028.54 -0.572465 -1.74342 0
M  V30 21768 H 2026.92 1.03232 -3.82308 0
M  V30 21769 H 2028.1 -1.79557 -4.24377 0
M  V30 21770 H 2026.41 -1.4757 -3.89374 0
M  V30 21771 H 2029.01 0.94535 -5.26277 0
M  V30 21772 H 2029.35 1.77595 -3.76518 0
M  V30 21773 H 2029.88 0.0904292 -3.97697 0
M  V30 21774 H 2026.62 -1.80058 -6.30285 0
M  V30 21775 H 2026.14 -0.115549 -5.99689 0
M  V30 21776 H 2027.82 -0.499412 -6.4507 0
M  V30 21777 N 2027.95 1.56642 -0.173515 0
M  V30 21778 C 2029.2 1.9656 0.469943 0
M  V30 21779 C 2029.52 1.06067 1.6363 0
M  V30 21780 O 2028.79 0.127477 1.95485 0
M  V30 21781 H 2027.37 0.725824 0.176604 0
M  V30 21782 H 2030.03 1.93222 -0.255212 0
M  V30 21783 H 2029.13 3.00903 0.828491 0
M  V30 21784 N 2029.43 -0.1002 1.57281 0
M  V30 21785 C 2030.68 -0.805815 1.86103 0
M  V30 21786 C 2031.01 -1.78629 0.761925 0
M  V30 21787 O 2030.29 -1.93128 -0.230572 0
M  V30 21788 C 2030.57 -1.53909 3.25552 0
M  V30 21789 C 2030.42 -0.576946 4.46084 0
M  V30 21790 C 2031.74 -2.49088 3.62827 0
M  V30 21791 H 2028.86 -0.29149 0.676907 0
M  V30 21792 H 2031.5 -0.0695656 1.89873 0
M  V30 21793 H 2029.65 -2.16669 3.2247 0
M  V30 21794 H 2031.32 0.0432618 4.6128 0
M  V30 21795 H 2029.57 0.11008 4.3366 0
M  V30 21796 H 2030.24 -1.12705 5.40372 0
M  V30 21797 H 2032.71 -1.96423 3.66821 0
M  V30 21798 H 2031.59 -2.97415 4.61341 0
M  V30 21799 H 2031.85 -3.32614 2.9124 0
M  V30 21800 N 2030.91 -1.53174 -0.370891 0
M  V30 21801 C 2032.13 -1.73304 -1.13932 0
M  V30 21802 C 2032.56 -0.458494 -1.82427 0
M  V30 21803 O 2031.92 0.587094 -1.71531 0
M  V30 21804 C 2031.97 -2.89544 -2.14933 0
M  V30 21805 O 2031.07 -2.57782 -3.21904 0
M  V30 21806 H 2030.41 -0.575715 -0.33083 0
M  V30 21807 H 2032.94 -2.00038 -0.429641 0
M  V30 21808 H 2032.95 -3.15559 -2.58625 0
M  V30 21809 H 2031.63 -3.81998 -1.64471 0
M  V30 21810 H 2030.2 -2.42568 -2.83223 0
M  V30 21811 N 2032.39 0.630389 -1.44443 0
M  V30 21812 C 2033.64 1.38591 -1.46545 0
M  V30 21813 C 2033.95 1.95333 -0.102227 0
M  V30 21814 O 2035.16 2.715 -0.000780135 0
M  V30 21815 C 2033.61 2.50929 -2.57998 0
M  V30 21816 C 2033.22 2.00697 -4.00531 0
M  V30 21817 C 2034.96 3.28126 -2.69321 0
M  V30 21818 C 2032.87 3.10381 -5.03406 0
M  V30 21819 H 2031.8 0.520816 -0.545221 0
M  V30 21820 H 2034.45 0.678097 -1.70511 0
M  V30 21821 H 2032.83 3.24288 -2.27273 0
M  V30 21822 H 2034.01 1.34197 -4.40826 0
M  V30 21823 H 2032.32 1.36313 -3.93456 0
M  V30 21824 H 2034.92 4.09894 -3.43353 0
M  V30 21825 H 2035.26 3.77655 -1.75164 0
M  V30 21826 H 2035.8 2.61857 -2.99459 0
M  V30 21827 H 2032.53 2.65795 -5.99194 0
M  V30 21828 H 2032.05 3.7552 -4.67702 0
M  V30 21829 H 2033.73 3.75144 -5.27139 0
M  V30 21830 N 2033.87 1.31354 0.870861 0
M  V30 21831 C 2034.83 1.18889 1.95954 0
M  V30 21832 C 2035.83 0.116227 1.60379 0
M  V30 21833 O 2037.02 0.365426 1.70324 0
M  V30 21834 C 2034.15 0.824704 3.30774 0
M  V30 21835 H 2035.34 2.15624 2.08438 0
M  V30 21836 H 2032.9 1.14952 1.05904 0
M  V30 21837 H 2033.63 -0.141533 3.23991 0
M  V30 21838 H 2033.42 1.60006 3.57967 0
M  V30 21839 H 2034.91 0.761361 4.10601 0
M  V30 21840 N 2035.34 -1.08505 1.143 0
M  V30 21841 C 2036.59 -1.80248 0.90519 0
M  V30 21842 C 2036.91 -1.87116 -0.56981 0
M  V30 21843 O 2038.11 -2.55262 -0.924844 0
M  V30 21844 C 2036.57 -3.23851 1.56998 0
M  V30 21845 C 2036.18 -3.2522 3.08117 0
M  V30 21846 C 2037.92 -4.00284 1.41325 0
M  V30 21847 C 2035.83 -4.63405 3.67437 0
M  V30 21848 H 2034.76 -0.67549 0.335007 0
M  V30 21849 H 2037.41 -1.21877 1.3718 0
M  V30 21850 H 2035.79 -3.82342 1.03104 0
M  V30 21851 H 2036.96 -2.76441 3.68669 0
M  V30 21852 H 2035.28 -2.62281 3.23415 0
M  V30 21853 H 2037.88 -5.02393 1.83046 0
M  V30 21854 H 2038.22 -4.14747 0.359236 0
M  V30 21855 H 2038.75 -3.4826 1.9225 0
M  V30 21856 H 2035.49 -4.54145 4.72686 0
M  V30 21857 H 2035.01 -5.1247 3.11665 0
M  V30 21858 H 2036.69 -5.3238 3.6767 0
M  V30 21859 N 2036.82 -0.937962 -1.26649 0
M  V30 21860 C 2038.1 -0.501822 -1.89053 0
M  V30 21861 C 2038.48 1.02047 -1.84796 0
M  V30 21862 O 2037.83 1.87909 -1.3001 0
M  V30 21863 C 2038.04 -1.05952 -3.32528 0
M  V30 21864 C 2039.38 -1.12622 -4.09391 0
M  V30 21865 O 2040.41 -1.00988 -3.41584 0
M  V30 21866 O 2039.27 -1.30677 -5.30646 0
M  V30 21867 H 2036.36 -0.163048 -0.810768 0
M  V30 21868 H 2038.91 -1.03032 -1.34843 0
M  V30 21869 H 2037.68 -2.10319 -3.29972 0
M  V30 21870 H 2037.3 -0.513282 -3.94273 0
M  V30 21871 N 2038.3 1.40971 -0.704618 0
M  V30 21872 C 2039.25 2.30756 -0.0450323 0
M  V30 21873 C 2040.22 1.47598 0.761835 0
M  V30 21874 O 2041.4 1.76365 0.728023 0
M  V30 21875 C 2038.54 3.33723 0.878802 0
M  V30 21876 C 2037.65 4.31955 0.0625832 0
M  V30 21877 C 2036.79 5.2199 0.984889 0
M  V30 21878 C 2035.83 6.11885 0.16211 0
M  V30 21879 N 2034.97 6.94374 1.0387 0
M  V30 21880 H 2039.81 2.86598 -0.816414 0
M  V30 21881 H 2037.34 1.41145 -0.414306 0
M  V30 21882 H 2039.3 3.9198 1.42856 0
M  V30 21883 H 2037.93 2.79409 1.61648 0
M  V30 21884 H 2036.98 3.75571 -0.604216 0
M  V30 21885 H 2038.29 4.95476 -0.574897 0
M  V30 21886 H 2037.45 5.85125 1.60356 0
M  V30 21887 H 2036.19 4.58717 1.65621 0
M  V30 21888 H 2035.19 5.47791 -0.469576 0
M  V30 21889 H 2036.42 6.77216 -0.505547 0
M  V30 21890 H 2034.36 6.337 1.69588 0
M  V30 21891 H 2034.28 7.54617 0.457006 0
M  V30 21892 H 2035.55 7.61969 1.6439 0
M  V30 21893 N 2039.78 0.45001 1.51039 0
M  V30 21894 C 2041.03 -0.113761 2.01379 0
M  V30 21895 C 2041.34 -1.42669 1.33809 0
M  V30 21896 O 2042.55 -2.07416 1.75188 0
M  V30 21897 C 2041 -0.253272 3.59008 0
M  V30 21898 C 2040.61 1.04997 4.35522 0
M  V30 21899 C 2042.35 -0.770131 4.17456 0
M  V30 21900 C 2040.26 0.875408 5.84885 0
M  V30 21901 H 2039.19 -0.0462899 0.752578 0
M  V30 21902 H 2041.84 0.581702 1.74036 0
M  V30 21903 H 2040.22 -1.01203 3.8285 0
M  V30 21904 H 2041.4 1.81805 4.23419 0
M  V30 21905 H 2039.71 1.49632 3.88586 0
M  V30 21906 H 2042.31 -0.917427 5.26771 0
M  V30 21907 H 2042.65 -1.75596 3.77454 0
M  V30 21908 H 2043.19 -0.0693371 3.9774 0
M  V30 21909 H 2039.93 1.83398 6.29321 0
M  V30 21910 H 2039.45 0.14735 5.99619 0
M  V30 21911 H 2041.12 0.533614 6.44796 0
M  V30 21912 N 2041.26 -1.56548 0.18182 0
M  V30 21913 C 2042.48 -2.02015 -0.469543 0
M  V30 21914 C 2042.91 -1.06119 -1.55307 0
M  V30 21915 O 2042.26 -0.0424595 -1.8125 0
M  V30 21916 C 2042.31 -3.46016 -1.01515 0
M  V30 21917 O 2041.42 -3.53215 -2.12869 0
M  V30 21918 H 2040.76 -0.65461 -0.111273 0
M  V30 21919 H 2043.29 -2.02552 0.288798 0
M  V30 21920 H 2043.3 -3.85537 -1.33511 0
M  V30 21921 H 2041.97 -4.15308 -0.22188 0
M  V30 21922 H 2040.55 -3.2556 -1.81838 0
M  V30 21923 N 2042.73 0.0918577 -1.57332 0
M  V30 21924 C 2043.7 1.09546 -2.01326 0
M  V30 21925 C 2044.7 1.32761 -0.907252 0
M  V30 21926 O 2045.89 1.2882 -1.17265 0
M  V30 21927 C 2043.02 2.44385 -2.37674 0
M  V30 21928 H 2044.21 0.71671 -2.9121 0
M  V30 21929 H 2041.77 0.337001 -1.52624 0
M  V30 21930 H 2042.5 2.8713 -1.50755 0
M  V30 21931 H 2042.29 2.28882 -3.18364 0
M  V30 21932 H 2043.78 3.16562 -2.72357 0
M  V30 21933 N 2044.21 1.53368 0.362763 0
M  V30 21934 C 2045.18 1.7933 1.42736 0
M  V30 21935 C 2046.18 0.663794 1.4646 0
M  V30 21936 O 2047.37 0.932009 1.47171 0
M  V30 21937 C 2044.5 1.91792 2.81831 0
M  V30 21938 H 2045.69 2.74412 1.20989 0
M  V30 21939 H 2043.24 1.44488 0.596058 0
M  V30 21940 H 2043.98 0.987867 3.08888 0
M  V30 21941 H 2043.76 2.73948 2.80526 0
M  V30 21942 H 2045.25 2.13461 3.58921 0
M  V30 21943 N 2045.69 -0.62272 1.44776 0
M  V30 21944 C 2046.94 -1.38415 1.4822 0
M  V30 21945 C 2047.27 -1.93844 0.117595 0
M  V30 21946 O 2046.54 -1.7416 -0.865935 0
M  V30 21947 C 2046.83 -2.54325 2.54933 0
M  V30 21948 C 2046.68 -2.04192 4.00782 0
M  V30 21949 C 2048 -3.56495 2.58069 0
M  V30 21950 H 2045.12 -0.501939 0.539654 0
M  V30 21951 H 2047.76 -0.703347 1.76502 0
M  V30 21952 H 2045.91 -3.12403 2.30947 0
M  V30 21953 H 2047.58 -1.50879 4.35928 0
M  V30 21954 H 2045.83 -1.35308 4.12158 0
M  V30 21955 H 2046.5 -2.87679 4.7111 0
M  V30 21956 H 2048.97 -3.08232 2.79522 0
M  V30 21957 H 2047.85 -4.35106 3.34625 0
M  V30 21958 H 2048.11 -4.11119 1.62583 0
M  V30 21959 N 2047.17 -1.31814 -0.863883 0
M  V30 21960 C 2048.1 -1.22574 -1.98741 0
M  V30 21961 C 2049.08 -0.111585 -1.69734 0
M  V30 21962 O 2050.26 -0.29721 -1.91912 0
M  V30 21963 C 2047.39 -0.938559 -3.34378 0
M  V30 21964 C 2046.35 -2.01295 -3.7771 0
M  V30 21965 C 2045.67 -1.57834 -5.10874 0
M  V30 21966 C 2046.97 -3.42684 -3.94164 0
M  V30 21967 H 2048.67 -2.16572 -2.06729 0
M  V30 21968 H 2046.21 -1.04262 -0.993246 0
M  V30 21969 H 2048.17 -0.860501 -4.12521 0
M  V30 21970 H 2046.89 0.0370783 -3.26579 0
M  V30 21971 H 2045.55 -2.081 -3.01811 0
M  V30 21972 H 2045.2 -0.5904 -4.99523 0
M  V30 21973 H 2044.9 -2.29713 -5.40838 0
M  V30 21974 H 2046.42 -1.51448 -5.9152 0
M  V30 21975 H 2047.84 -3.38519 -4.62685 0
M  V30 21976 H 2046.23 -4.12833 -4.35533 0
M  V30 21977 H 2047.3 -3.83023 -2.97358 0
M  V30 21978 N 2048.65 1.07897 -1.14873 0
M  V30 21979 C 2049.59 2.17052 -0.836135 0
M  V30 21980 C 2050.59 1.68352 0.188148 0
M  V30 21981 O 2051.79 1.79947 0.0437298 0
M  V30 21982 H 2048.17 0.708271 -0.252698 0
M  V30 21983 H 2050.14 2.40639 -1.76452 0
M  V30 21984 C 2048.89 3.46076 -0.335713 0
M  V30 21985 H 2048.21 3.8393 -1.11525 0
M  V30 21986 H 2049.65 4.23714 -0.155587 0
M  V30 21987 C 2048.11 3.23471 0.941711 0
M  V30 21988 O 2048.64 3.47541 2.0144 0
M  V30 21989 N 2046.85 2.76987 0.879016 0
M  V30 21990 H 2046.39 2.57599 0.00591639 0
M  V30 21991 H 2046.35 2.62241 1.73427 0
M  V30 21992 N 2050.12 0.944665 1.2615 0
M  V30 21993 C 2051.06 0.401268 2.24644 0
M  V30 21994 C 2052.04 -0.511856 1.54333 0
M  V30 21995 O 2053.22 -0.44851 1.83086 0
M  V30 21996 C 2050.35 -0.423081 3.36047 0
M  V30 21997 C 2049.39 0.429013 4.24337 0
M  V30 21998 S 2050.23 1.85512 5.0234 0
M  V30 21999 C 2051.38 1.03892 6.17217 0
M  V30 22000 H 2051.61 1.236 2.70389 0
M  V30 22001 H 2049.15 0.748025 1.3507 0
M  V30 22002 H 2051.11 -0.892789 4.00674 0
M  V30 22003 H 2049.77 -1.23253 2.88907 0
M  V30 22004 H 2048.96 -0.202757 5.03592 0
M  V30 22005 H 2048.56 0.833541 3.64593 0
M  V30 22006 H 2050.85 0.282839 6.76909 0
M  V30 22007 H 2051.8 1.80505 6.84707 0
M  V30 22008 H 2052.2 0.573442 5.6158 0
M  V30 22009 N 2051.6 -1.40596 0.712085 0
M  V30 22010 C 2052.51 -2.34528 0.0582122 0
M  V30 22011 C 2053.53 -1.57115 -0.747715 0
M  V30 22012 O 2054.7 -1.8952 -0.681477 0
M  V30 22013 C 2051.77 -3.35992 -0.855008 0
M  V30 22014 C 2050.83 -4.29282 -0.0394267 0
M  V30 22015 C 2050.06 -5.25899 -0.909154 0
M  V30 22016 O 2050.29 -5.28392 -2.14845 0
M  V30 22017 O 2049.22 -6.00881 -0.350012 0
M  V30 22018 H 2053.05 -2.92055 0.832915 0
M  V30 22019 H 2050.63 -1.4173 0.472537 0
M  V30 22020 H 2052.51 -3.98225 -1.3782 0
M  V30 22021 H 2051.19 -2.80883 -1.60892 0
M  V30 22022 H 2050.1 -3.70344 0.528757 0
M  V30 22023 H 2051.43 -4.87533 0.676185 0
M  V30 22024 N 2053.08 -0.458013 -1.50798 0
M  V30 22025 C 2053.99 0.348558 -2.31996 0
M  V30 22026 C 2055.01 1.00835 -1.41804 0
M  V30 22027 O 2056.18 0.999192 -1.74866 0
M  V30 22028 C 2053.25 1.4236 -3.16124 0
M  V30 22029 C 2052.31 0.781781 -4.22122 0
M  V30 22030 C 2051.54 1.8056 -5.02229 0
M  V30 22031 O 2051.76 3.0305 -4.83236 0
M  V30 22032 O 2050.7 1.38466 -5.85757 0
M  V30 22033 H 2054.52 -0.314893 -3.02063 0
M  V30 22034 H 2052.11 -0.220117 -1.4777 0
M  V30 22035 H 2053.99 2.04661 -3.68364 0
M  V30 22036 H 2052.67 2.07076 -2.488 0
M  V30 22037 H 2051.57 0.120169 -3.73907 0
M  V30 22038 H 2052.91 0.177782 -4.91879 0
M  V30 22039 N 2054.56 1.56449 -0.190119 0
M  V30 22040 C 2055.78 2.02261 0.458823 0
M  V30 22041 C 2056.21 1.06942 1.54742 0
M  V30 22042 O 2055.57 0.0520711 1.81225 0
M  V30 22043 C 2055.62 3.46549 0.996786 0
M  V30 22044 O 2054.72 3.54338 2.10993 0
M  V30 22045 H 2054.06 0.655191 0.1078 0
M  V30 22046 H 2056.59 2.02396 -0.299535 0
M  V30 22047 H 2056.6 3.8624 1.31465 0
M  V30 22048 H 2055.28 4.1542 0.199852 0
M  V30 22049 H 2053.85 3.2652 1.80109 0
M  V30 22050 N 2056.04 -0.0835127 1.57379 0
M  V30 22051 C 2057.28 -0.786031 1.86948 0
M  V30 22052 C 2057.62 -1.77811 0.780828 0
M  V30 22053 O 2056.89 -1.93362 -0.210075 0
M  V30 22054 C 2057.17 -1.50447 3.27166 0
M  V30 22055 C 2057.03 -0.529601 4.46671 0
M  V30 22056 C 2058.35 -2.45226 3.65448 0
M  V30 22057 H 2055.47 -0.284294 0.67996 0
M  V30 22058 H 2058.11 -0.0494231 1.89936 0
M  V30 22059 H 2056.26 -2.13237 3.24749 0
M  V30 22060 H 2057.93 0.0921842 4.61208 0
M  V30 22061 H 2056.17 0.156069 4.33519 0
M  V30 22062 H 2056.84 -1.06967 5.41537 0
M  V30 22063 H 2059.32 -1.92521 3.68883 0
M  V30 22064 H 2058.2 -2.92505 4.6447 0
M  V30 22065 H 2058.46 -3.29506 2.94751 0
M  V30 22066 N 2057.52 -1.53558 -0.354624 0
M  V30 22067 C 2058.74 -1.74194 -1.11643 0
M  V30 22068 C 2059.16 -0.475943 -1.82703 0
M  V30 22069 O 2058.52 0.551798 -1.73958 0
M  V30 22070 C 2058.57 -2.91471 -2.13839 0
M  V30 22071 O 2058.29 -4.13173 -1.45671 0
M  V30 22072 C 2059.79 -3.24068 -3.02481 0
M  V30 22073 H 2057.01 -0.58232 -0.333383 0
M  V30 22074 H 2059.55 -2.00344 -0.410204 0
M  V30 22075 H 2057.71 -2.67684 -2.80043 0
M  V30 22076 H 2058.12 -4.78924 -2.13851 0
M  V30 22077 H 2059.6 -4.09506 -3.70147 0
M  V30 22078 H 2060.07 -2.39897 -3.67894 0
M  V30 22079 H 2060.68 -3.4982 -2.4188 0
M  V30 22080 N 2058.99 0.615033 -1.45104 0
M  V30 22081 C 2060.24 1.37029 -1.48007 0
M  V30 22082 C 2060.56 1.95213 -0.122939 0
M  V30 22083 O 2061.76 2.71484 -0.0295763 0
M  V30 22084 C 2060.22 2.48178 -2.60645 0
M  V30 22085 C 2059.83 1.96437 -4.02637 0
M  V30 22086 C 2061.57 3.25251 -2.72786 0
M  V30 22087 C 2059.48 3.05024 -5.0667 0
M  V30 22088 H 2058.41 0.515004 -0.550715 0
M  V30 22089 H 2061.06 0.659974 -1.71221 0
M  V30 22090 H 2059.44 3.2186 -2.307 0
M  V30 22091 H 2060.61 1.29514 -4.42225 0
M  V30 22092 H 2058.93 1.32132 -3.9488 0
M  V30 22093 H 2061.53 4.06229 -3.47681 0
M  V30 22094 H 2061.87 3.75776 -1.7916 0
M  V30 22095 H 2062.4 2.58666 -3.0222 0
M  V30 22096 H 2059.14 2.59425 -6.01979 0
M  V30 22097 H 2058.66 3.70538 -4.71658 0
M  V30 22098 H 2060.34 3.69532 -5.31089 0
M  V30 22099 N 2060.47 1.3227 0.85688 0
M  V30 22100 C 2061.7 1.25837 1.64863 0
M  V30 22101 C 2062.12 -0.171028 1.87321 0
M  V30 22102 O 2061.48 -1.12165 1.42438 0
M  V30 22103 C 2061.53 2.02105 2.9864 0
M  V30 22104 O 2060.63 1.36733 3.89073 0
M  V30 22105 H 2059.97 0.433799 0.502707 0
M  V30 22106 H 2062.5 1.7455 1.0674 0
M  V30 22107 H 2062.51 2.12195 3.48479 0
M  V30 22108 H 2061.19 3.06048 2.81616 0
M  V30 22109 H 2059.76 1.35177 3.47537 0
M  V30 22110 N 2061.95 -1.07287 1.15444 0
M  V30 22111 C 2063.17 -1.84153 0.954061 0
M  V30 22112 C 2063.6 -1.81534 -0.492639 0
M  V30 22113 O 2062.96 -1.20877 -1.35124 0
M  V30 22114 C 2063.01 -3.29112 1.4737 0
M  V30 22115 O 2062.11 -4.06866 0.673335 0
M  V30 22116 H 2061.45 -0.570198 0.34025 0
M  V30 22117 H 2063.98 -1.35339 1.53442 0
M  V30 22118 H 2063.99 -3.79944 1.48682 0
M  V30 22119 H 2062.67 -3.30333 2.52691 0
M  V30 22120 H 2061.24 -3.65687 0.729894 0
M  V30 22121 N 2063.43 -0.951342 -1.25647 0
M  V30 22122 C 2064.67 -0.611972 -1.95024 0
M  V30 22123 C 2065.03 0.835025 -1.72891 0
M  V30 22124 O 2066.23 1.28383 -2.3616 0
M  V30 22125 C 2064.5 -0.956959 -3.4435 0
M  V30 22126 S 2066.06 -0.729667 -4.32691 0
M  V30 22127 H 2062.88 -0.225049 -0.674444 0
M  V30 22128 H 2065.48 -1.22482 -1.52376 0
M  V30 22129 H 2064.19 -2.00729 -3.57961 0
M  V30 22130 H 2063.72 -0.334234 -3.91978 0
M  V30 22131 H 2065.73 0.401172 -4.94576 0
M  V30 22132 N 2064.91 1.40216 -0.719531 0
M  V30 22133 C 2066.18 1.94697 -0.18772 0
M  V30 22134 C 2066.56 1.65742 1.30739 0
M  V30 22135 O 2065.91 0.97723 2.06549 0
M  V30 22136 C 2066.12 3.45332 -0.50469 0
M  V30 22137 C 2067.47 4.22256 -0.445515 0
M  V30 22138 O 2068.49 3.5346 -0.440978 0
M  V30 22139 O 2067.35 5.44833 -0.426487 0
M  V30 22140 H 2064.45 0.82649 -0.0290376 0
M  V30 22141 H 2066.99 1.49802 -0.797333 0
M  V30 22142 H 2065.76 3.5978 -1.53863 0
M  V30 22143 H 2065.39 3.97372 0.134684 0
M  V30 22144 N 2066.38 0.466004 1.50553 0
M  V30 22145 C 2067.31 -0.320802 2.31286 0
M  V30 22146 C 2068.29 -0.995008 1.37962 0
M  V30 22147 O 2069.48 -0.993158 1.66883 0
M  V30 22148 C 2066.61 -1.40607 3.17564 0
M  V30 22149 C 2065.56 -0.853763 4.19398 0
M  V30 22150 C 2064.89 -2.03694 4.94381 0
M  V30 22151 C 2066.19 0.131478 5.22134 0
M  V30 22152 H 2067.88 0.352995 2.97312 0
M  V30 22153 H 2065.43 0.171207 1.42979 0
M  V30 22154 H 2067.38 -1.96395 3.72836 0
M  V30 22155 H 2066.11 -2.10857 2.49413 0
M  V30 22156 H 2064.77 -0.317899 3.65219 0
M  V30 22157 H 2064.41 -2.7263 4.22708 0
M  V30 22158 H 2064.11 -1.67364 5.63261 0
M  V30 22159 H 2065.64 -2.59982 5.52487 0
M  V30 22160 H 2067.05 -0.337046 5.72308 0
M  V30 22161 H 2065.45 0.408804 5.98706 0
M  V30 22162 H 2066.52 1.05903 4.73194 0
M  V30 22163 N 2067.86 -1.56346 0.198413 0
M  V30 22164 C 2068.79 -2.22244 -0.716243 0
M  V30 22165 C 2069.77 -1.1866 -1.21876 0
M  V30 22166 O 2070.96 -1.47177 -1.26699 0
M  V30 22167 C 2068.09 -2.88437 -1.93446 0
M  V30 22168 C 2067.04 -3.98294 -1.56672 0
M  V30 22169 C 2066.37 -4.51668 -2.86182 0
M  V30 22170 C 2067.67 -5.16531 -0.774153 0
M  V30 22171 H 2069.36 -2.98935 -0.166883 0
M  V30 22172 H 2066.91 -1.43784 -0.0788267 0
M  V30 22173 H 2068.86 -3.33221 -2.57957 0
M  V30 22174 H 2067.58 -2.09157 -2.5084 0
M  V30 22175 H 2066.24 -3.54206 -0.945178 0
M  V30 22176 H 2065.89 -3.69146 -3.41673 0
M  V30 22177 H 2065.59 -5.25796 -2.6232 0
M  V30 22178 H 2067.12 -4.99155 -3.51676 0
M  V30 22179 H 2068.53 -5.57839 -1.32244 0
M  V30 22180 H 2066.93 -5.96746 -0.633532 0
M  V30 22181 H 2068 -4.84382 0.224098 0
M  V30 22182 N 2069.34 0.0751653 -1.57421 0
M  V30 22183 C 2070.59 0.776106 -1.87362 0
M  V30 22184 C 2070.92 1.77394 -0.790247 0
M  V30 22185 O 2070.19 1.93471 0.199817 0
M  V30 22186 C 2070.48 1.4871 -3.27959 0
M  V30 22187 C 2070.33 0.505905 -4.46946 0
M  V30 22188 C 2071.65 2.43284 -3.66744 0
M  V30 22189 H 2068.77 0.280684 -0.681458 0
M  V30 22190 H 2071.41 0.0393497 -1.89959 0
M  V30 22191 H 2069.56 2.11512 -3.25876 0
M  V30 22192 H 2071.23 -0.116642 -4.61153 0
M  V30 22193 H 2069.48 -0.179057 -4.3343 0
M  V30 22194 H 2070.15 1.04094 -5.42096 0
M  V30 22195 H 2072.62 1.90562 -3.69899 0
M  V30 22196 H 2071.5 2.90037 -4.66015 0
M  V30 22197 H 2071.76 3.27938 -2.96494 0
M  V30 22198 N 2070.82 1.53744 0.346476 0
M  V30 22199 C 2072.06 1.71103 1.08866 0
M  V30 22200 C 2072.4 0.47131 1.88394 0
M  V30 22201 O 2071.67 -0.531638 1.87093 0
M  V30 22202 C 2071.96 2.97273 2.03225 0
M  V30 22203 C 2071.81 4.31446 1.27179 0
M  V30 22204 C 2073.13 3.19105 3.03084 0
M  V30 22205 H 2070.25 0.622598 0.394387 0
M  V30 22206 H 2072.89 1.86412 0.367514 0
M  V30 22207 H 2071.04 2.84352 2.64719 0
M  V30 22208 H 2072.71 4.56212 0.683225 0
M  V30 22209 H 2070.95 4.29989 0.573773 0
M  V30 22210 H 2071.62 5.15901 1.96343 0
M  V30 22211 H 2074.1 3.31337 2.51704 0
M  V30 22212 H 2072.98 4.08786 3.66313 0
M  V30 22213 H 2073.24 2.35265 3.74303 0
M  V30 22214 N 2072.3 -0.607329 1.45428 0
M  V30 22215 C 2073.52 -1.39786 1.53214 0
M  V30 22216 C 2073.95 -1.87369 0.165684 0
M  V30 22217 O 2073.3 -1.60154 -0.849728 0
M  V30 22218 C 2073.35 -2.57823 2.52111 0
M  V30 22219 O 2072.46 -3.58462 2.03909 0
M  V30 22220 H 2071.8 -0.417312 0.516476 0
M  V30 22221 H 2074.33 -0.739101 1.90784 0
M  V30 22222 H 2074.34 -3.05064 2.70925 0
M  V30 22223 H 2073.01 -2.22539 3.51354 0
M  V30 22224 H 2071.59 -3.17868 1.94973 0
M  V30 22225 N 2073.77 -1.32722 -0.849853 0
M  V30 22226 C 2075.02 -1.23739 -1.60675 0
M  V30 22227 C 2075.35 0.199183 -1.93176 0
M  V30 22228 O 2074.63 1.13761 -1.57761 0
M  V30 22229 C 2074.91 -2.10183 -2.92395 0
M  V30 22230 C 2074.76 -3.62243 -2.66646 0
M  V30 22231 C 2076.08 -1.96664 -3.93715 0
M  V30 22232 H 2073.2 -0.45085 -0.583013 0
M  V30 22233 H 2075.84 -1.62716 -0.980999 0
M  V30 22234 H 2073.99 -1.77072 -3.458 0
M  V30 22235 H 2075.67 -4.05591 -2.19758 0
M  V30 22236 H 2073.91 -3.8467 -2.00529 0
M  V30 22237 H 2074.58 -4.1806 -3.60458 0
M  V30 22238 H 2077.06 -2.25679 -3.49583 0
M  V30 22239 H 2075.93 -2.59417 -4.83729 0
M  V30 22240 H 2076.19 -0.935664 -4.32085 0
M  V30 22241 N 2075.25 1.06673 -1.16011 0
M  V30 22242 C 2076.5 1.79046 -0.937394 0
M  V30 22243 C 2076.82 1.87476 0.536438 0
M  V30 22244 O 2076.09 1.38065 1.38977 0
M  V30 22245 H 2074.67 0.663167 -0.343829 0
M  V30 22246 H 2077.33 1.28878 -1.46207 0
M  V30 22247 H 2076.43 2.81259 -1.35278 0
M  V30 22248 N 2076.73 0.957992 1.25141 0
M  V30 22249 C 2077.66 0.438189 2.24972 0
M  V30 22250 C 2078.68 -0.447769 1.56521 0
M  V30 22251 O 2079.86 -0.255506 1.76662 0
M  V30 22252 C 2076.96 -0.387644 3.36676 0
M  V30 22253 C 2076.14 0.486109 4.3469 0
M  V30 22254 C 2075.2 -0.282086 5.25443 0
M  V30 22255 O 2074.22 0.320666 5.68296 0
M  V30 22256 N 2075.42 -1.57428 5.58746 0
M  V30 22257 H 2078.19 1.29648 2.70206 0
M  V30 22258 H 2075.75 0.828726 1.39082 0
M  V30 22259 H 2077.74 -0.909356 3.94351 0
M  V30 22260 H 2076.31 -1.14681 2.90804 0
M  V30 22261 H 2075.53 1.18889 3.75844 0
M  V30 22262 H 2076.82 1.08236 4.97154 0
M  V30 22263 H 2076.22 -2.08586 5.25841 0
M  V30 22264 H 2074.78 -2.04189 6.18991 0
M  V30 22265 N 2078.21 -1.39832 0.726957 0
M  V30 22266 C 2079.14 -2.28179 0.0306291 0
M  V30 22267 C 2080.12 -1.43956 -0.756008 0
M  V30 22268 O 2081.3 -1.73356 -0.74026 0
M  V30 22269 C 2078.43 -3.24695 -0.963903 0
M  V30 22270 C 2077.48 -4.25665 -0.266719 0
M  V30 22271 S 2078.31 -5.2582 1.01356 0
M  V30 22272 C 2079.47 -6.25896 0.0214211 0
M  V30 22273 H 2079.7 -2.86889 0.779868 0
M  V30 22274 H 2077.23 -1.45436 0.518429 0
M  V30 22275 H 2079.19 -3.80823 -1.53245 0
M  V30 22276 H 2077.85 -2.6502 -1.68592 0
M  V30 22277 H 2077.04 -4.93592 -1.01896 0
M  V30 22278 H 2076.65 -3.73295 0.229576 0
M  V30 22279 H 2078.94 -6.72499 -0.82166 0
M  V30 22280 H 2079.88 -7.04946 0.667612 0
M  V30 22281 H 2080.29 -5.6343 -0.347386 0
M  V30 22282 N 2079.69 -0.473982 -1.50304 0
M  V30 22283 C 2080.91 0.0798733 -2.07246 0
M  V30 22284 C 2081.34 1.3249 -1.33521 0
M  V30 22285 O 2080.69 1.77192 -0.383743 0
M  V30 22286 C 2080.74 0.343926 -3.58956 0
M  V30 22287 O 2079.85 1.42387 -3.8704 0
M  V30 22288 H 2079.19 -0.0142608 -0.663847 0
M  V30 22289 H 2081.72 -0.665854 -1.93462 0
M  V30 22290 H 2081.73 0.583558 -4.03805 0
M  V30 22291 H 2080.4 -0.565855 -4.12033 0
M  V30 22292 H 2078.98 1.17132 -3.54026 0
M  V30 22293 N 2081.16 1.56239 -0.206702 0
M  V30 22294 C 2082.1 2.15555 0.749098 0
M  V30 22295 C 2083.08 1.09559 1.20148 0
M  V30 22296 O 2084.26 1.37735 1.28691 0
M  V30 22297 C 2081.39 2.72383 2.01308 0
M  V30 22298 C 2080.43 3.91073 1.70189 0
M  V30 22299 S 2081.27 5.28875 0.839744 0
M  V30 22300 C 2082.42 5.89132 2.11362 0
M  V30 22301 H 2082.65 2.9629 0.24489 0
M  V30 22302 H 2080.19 1.54398 0.00843775 0
M  V30 22303 H 2082.15 3.05767 2.73892 0
M  V30 22304 H 2080.81 1.91668 2.48841 0
M  V30 22305 H 2080 4.29286 2.64064 0
M  V30 22306 H 2079.6 3.58759 1.05679 0
M  V30 22307 H 2081.89 6.04202 3.06507 0
M  V30 22308 H 2082.84 6.85476 1.77563 0
M  V30 22309 H 2083.24 5.17835 2.24738 0
M  V30 22310 N 2082.64 -0.0668159 1.57458 0
M  V30 22311 C 2083.87 -0.781616 1.92108 0
M  V30 22312 C 2084.29 -1.70072 0.803553 0
M  V30 22313 O 2083.65 -1.7966 -0.243316 0
M  V30 22314 C 2083.7 -1.54705 3.25728 0
M  V30 22315 O 2082.8 -2.65804 3.15312 0
M  V30 22316 H 2082.14 -0.212907 0.628941 0
M  V30 22317 H 2084.67 -0.0335704 2.04572 0
M  V30 22318 H 2084.68 -1.92522 3.59721 0
M  V30 22319 H 2083.36 -0.872713 4.06641 0
M  V30 22320 H 2081.94 -2.30807 2.92886 0
M  V30 22321 N 2084.12 -1.53926 -0.338317 0
M  V30 22322 C 2085.54 -1.44306 -0.681751 0
M  V30 22323 C 2085.74 -0.604022 -1.92234 0
M  V30 22324 O 2084.79 -0.0970474 -2.52313 0
M  V30 22325 C 2086.11 -2.87854 -0.869513 0
M  V30 22326 C 2087.65 -2.97662 -0.967798 0
M  V30 22327 C 2088.13 -4.42328 -1.18784 0
M  V30 22328 N 2089.62 -4.45877 -1.25492 0
M  V30 22329 C 2090.36 -5.54952 -1.44278 0
M  V30 22330 N 2089.85 -6.74023 -1.60203 0
M  V30 22331 N 2091.64 -5.42574 -1.46868 0
M  V30 22332 H 2083.8 -2.06968 0.477289 0
M  V30 22333 H 2086.06 -0.935793 0.15164 0
M  V30 22334 H 2085.76 -3.51688 -0.0293745 0
M  V30 22335 H 2085.64 -3.33108 -1.76971 0
M  V30 22336 H 2088.03 -2.33965 -1.79845 0
M  V30 22337 H 2088.11 -2.55761 -0.0443848 0
M  V30 22338 H 2087.75 -5.06608 -0.362091 0
M  V30 22339 H 2087.68 -4.81825 -2.1249 0
M  V30 22340 H 2090.17 -3.60076 -1.14688 0
M  V30 22341 H 2090.48 -7.52913 -1.74188 0
M  V30 22342 H 2088.83 -6.76958 -1.57329 0
M  V30 22343 H 2092.02 -4.48507 -1.34012 0
M  V30 22344 H 2092.19 -6.27638 -1.61167 0
M  V30 22345 N 2085.6 0.599608 -1.45748 0
M  V30 22346 C 2086.56 1.6918 -1.54631 0
M  V30 22347 C 2087.56 1.55081 -0.425029 0
M  V30 22348 O 2088.75 1.60004 -0.688782 0
M  V30 22349 C 2085.88 3.08502 -1.45049 0
M  V30 22350 H 2087.08 1.62667 -2.51951 0
M  V30 22351 H 2084.63 0.816022 -1.33307 0
M  V30 22352 H 2085.37 3.20585 -0.489439 0
M  V30 22353 H 2085.15 3.20144 -2.26386 0
M  V30 22354 H 2086.64 3.88042 -1.54315 0
M  V30 22355 N 2087.08 1.33171 0.842803 0
M  V30 22356 C 2088.33 1.23754 1.59273 0
M  V30 22357 C 2088.64 -0.196137 1.94614 0
M  V30 22358 O 2089.85 -0.412282 2.68351 0
M  V30 22359 C 2088.3 2.16819 2.87259 0
M  V30 22360 C 2087.91 3.65335 2.59296 0
M  V30 22361 C 2089.65 2.16266 3.6528 0
M  V30 22362 C 2087.56 4.50325 3.83355 0
M  V30 22363 H 2086.49 0.459639 0.597702 0
M  V30 22364 H 2089.14 1.5821 0.929616 0
M  V30 22365 H 2087.52 1.75291 3.5509 0
M  V30 22366 H 2088.7 4.15278 1.99701 0
M  V30 22367 H 2087.01 3.68138 1.94586 0
M  V30 22368 H 2089.61 2.76995 4.57359 0
M  V30 22369 H 2089.95 1.1567 3.99908 0
M  V30 22370 H 2090.49 2.56135 3.04368 0
M  V30 22371 H 2087.22 5.51781 3.53861 0
M  V30 22372 H 2086.74 4.05127 4.42303 0
M  V30 22373 H 2088.42 4.6393 4.50975 0
M  V30 22374 N 2088.56 -1.06056 1.16576 0
M  V30 22375 C 2089.5 -2.15694 0.87056 0
M  V30 22376 C 2090.5 -1.6863 -0.161341 0
M  V30 22377 O 2091.7 -1.79994 -0.0150963 0
M  V30 22378 H 2088.08 -0.704161 0.263934 0
M  V30 22379 H 2090.05 -2.37802 1.80258 0
M  V30 22380 C 2088.8 -3.45498 0.390729 0
M  V30 22381 H 2088.12 -3.82107 1.17619 0
M  V30 22382 H 2089.56 -4.23413 0.222977 0
M  V30 22383 C 2088.02 -3.24928 -0.890131 0
M  V30 22384 O 2088.55 -3.50702 -1.95886 0
M  V30 22385 N 2086.76 -2.7835 -0.834838 0
M  V30 22386 H 2086.3 -2.57576 0.0350662 0
M  V30 22387 H 2086.26 -2.64967 -1.69233 0
M  V30 22388 N 2090.03 -0.964615 -1.24631 0
M  V30 22389 C 2090.96 -0.511091 -2.27838 0
M  V30 22390 C 2091.94 0.447692 -1.64103 0
M  V30 22391 O 2093.13 0.344485 -1.9112 0
M  V30 22392 C 2090.26 0.202467 -3.46709 0
M  V30 22393 C 2089.21 -0.672032 -4.22691 0
M  V30 22394 C 2088.54 0.172842 -5.34421 0
M  V30 22395 C 2089.84 -1.9551 -4.84327 0
M  V30 22396 H 2091.53 -1.37371 -2.66025 0
M  V30 22397 H 2089.08 -0.661983 -1.27882 0
M  V30 22398 H 2091.03 0.530942 -4.18042 0
M  V30 22399 H 2089.76 1.09942 -3.07539 0
M  V30 22400 H 2088.42 -0.983734 -3.53155 0
M  V30 22401 H 2088.06 1.06985 -4.91491 0
M  V30 22402 H 2087.76 -0.409046 -5.86175 0
M  V30 22403 H 2089.29 0.496057 -6.08582 0
M  V30 22404 H 2090.7 -1.69241 -5.4775 0
M  V30 22405 H 2089.1 -2.48346 -5.46301 0
M  V30 22406 H 2090.17 -2.65197 -4.05954 0
M  V30 22407 N 2091.51 1.39445 -0.734362 0
M  V30 22408 C 2092.74 2.04826 -0.29225 0
M  V30 22409 C 2093.15 1.55366 1.0727 0
M  V30 22410 O 2092.51 0.718282 1.67771 0
M  V30 22411 C 2092.56 3.6038 -0.2843 0
M  V30 22412 O 2092.28 4.08019 -1.59536 0
M  V30 22413 C 2093.78 4.42958 0.174058 0
M  V30 22414 H 2091 0.658705 -0.127861 0
M  V30 22415 H 2093.55 1.78504 -0.997833 0
M  V30 22416 H 2091.7 3.85606 0.372391 0
M  V30 22417 H 2092.12 5.02339 -1.50849 0
M  V30 22418 H 2093.59 5.5185 0.128462 0
M  V30 22419 H 2094.07 4.21941 1.21913 0
M  V30 22420 H 2094.67 4.2288 -0.453043 0
M  V30 22421 N 2092.99 0.481946 1.5005 0
M  V30 22422 C 2093.92 -0.343006 2.26619 0
M  V30 22423 C 2094.93 -0.947538 1.32384 0
M  V30 22424 O 2096.12 -0.834105 1.57813 0
M  V30 22425 C 2093.22 -1.49609 3.0409 0
M  V30 22426 C 2092.4 -1.00236 4.2576 0
M  V30 22427 C 2091.46 -2.03077 4.85434 0
M  V30 22428 O 2090.48 -1.607 5.46044 0
M  V30 22429 N 2091.68 -3.35975 4.73393 0
M  V30 22430 H 2094.45 0.313457 2.98056 0
M  V30 22431 H 2092.01 0.313362 1.58838 0
M  V30 22432 H 2094 -2.18123 3.40888 0
M  V30 22433 H 2092.57 -2.05705 2.35381 0
M  V30 22434 H 2091.79 -0.14274 3.93941 0
M  V30 22435 H 2093.08 -0.650587 5.04623 0
M  V30 22436 H 2092.48 -3.73107 4.25215 0
M  V30 22437 H 2091.03 -4.00256 5.1443 0
M  V30 22438 N 2094.47 -1.56127 0.214985 0
M  V30 22439 C 2095.41 -2.19998 -0.697834 0
M  V30 22440 C 2096.38 -1.15346 -1.19518 0
M  V30 22441 O 2097.57 -1.43676 -1.25547 0
M  V30 22442 C 2094.71 -2.87874 -1.90323 0
M  V30 22443 C 2093.82 -4.07102 -1.44539 0
M  V30 22444 C 2092.96 -4.6278 -2.60784 0
M  V30 22445 C 2092 -5.74324 -2.11705 0
M  V30 22446 N 2091.13 -6.24321 -3.21198 0
M  V30 22447 H 2095.97 -2.9764 -0.146443 0
M  V30 22448 H 2093.51 -1.46975 -0.0605317 0
M  V30 22449 H 2095.47 -3.25408 -2.61085 0
M  V30 22450 H 2094.1 -2.12761 -2.42761 0
M  V30 22451 H 2093.15 -3.75098 -0.632926 0
M  V30 22452 H 2094.46 -4.87721 -1.04546 0
M  V30 22453 H 2093.62 -5.02723 -3.39639 0
M  V30 22454 H 2092.36 -3.8131 -3.04062 0
M  V30 22455 H 2091.36 -5.33889 -1.31309 0
M  V30 22456 H 2092.59 -6.57624 -1.69434 0
M  V30 22457 H 2090.53 -5.45767 -3.6397 0
M  V30 22458 H 2090.45 -7.00044 -2.85437 0
M  V30 22459 H 2091.72 -6.6892 -4.00208 0
M  V30 22460 N 2095.95 0.0584645 -1.57492 0
M  V30 22461 C 2096.88 1.0681 -2.07639 0
M  V30 22462 C 2097.86 1.3955 -0.972622 0
M  V30 22463 O 2099.04 1.48946 -1.24615 0
M  V30 22464 C 2096.17 2.37774 -2.53142 0
M  V30 22465 C 2095.13 2.19354 -3.67516 0
M  V30 22466 C 2094.45 3.5582 -3.9912 0
M  V30 22467 C 2095.75 1.60379 -4.97067 0
M  V30 22468 H 2097.45 0.650765 -2.92242 0
M  V30 22469 H 2094.99 0.311587 -1.40589 0
M  V30 22470 H 2096.94 3.08709 -2.86839 0
M  V30 22471 H 2095.67 2.81513 -1.65583 0
M  V30 22472 H 2094.33 1.50858 -3.34122 0
M  V30 22473 H 2093.98 3.97153 -3.08672 0
M  V30 22474 H 2093.68 3.4433 -4.76142 0
M  V30 22475 H 2095.2 4.28164 -4.35325 0
M  V30 22476 H 2096.61 2.21195 -5.2891 0
M  V30 22477 H 2095.01 1.59548 -5.78502 0
M  V30 22478 H 2096.08 0.566547 -4.81579 0
M  V30 22479 N 2097.42 1.54103 0.330149 0
M  V30 22480 C 2098.67 1.73185 1.0667 0
M  V30 22481 C 2099.02 0.496012 1.85896 0
M  V30 22482 O 2098.32 -0.511524 1.84646 0
M  V30 22483 C 2098.51 2.94358 2.02702 0
M  V30 22484 C 2098.34 4.29608 1.32916 0
M  V30 22485 C 2097.11 4.93876 1.06841 0
M  V30 22486 C 2099.31 5.08825 0.748462 0
M  V30 22487 N 2097.29 6.1297 0.337775 0
M  V30 22488 C 2098.66 6.19821 0.149089 0
M  V30 22489 C 2100.72 4.93631 0.650627 0
M  V30 22490 C 2099.42 7.17281 -0.538618 0
M  V30 22491 C 2101.45 5.91395 -0.0233663 0
M  V30 22492 C 2100.81 7.01739 -0.611712 0
M  V30 22493 H 2096.91 0.686626 0.374258 0
M  V30 22494 H 2099.49 1.91553 0.348664 0
M  V30 22495 H 2097.66 2.77468 2.71783 0
M  V30 22496 H 2099.39 3.02098 2.69293 0
M  V30 22497 H 2096.15 4.53682 1.35903 0
M  V30 22498 H 2096.57 6.76999 -0.0132085 0
M  V30 22499 H 2101.21 4.08475 1.09122 0
M  V30 22500 H 2098.93 8.02 -0.991066 0
M  V30 22501 H 2102.52 5.81716 -0.0986164 0
M  V30 22502 H 2101.4 7.76089 -1.12497 0
M  V30 22503 N 2098.9 -0.59187 1.46064 0
M  V30 22504 C 2100.13 -1.37666 1.54453 0
M  V30 22505 C 2100.55 -1.87916 0.18248 0
M  V30 22506 O 2099.9 -1.63106 -0.818692 0
M  V30 22507 C 2099.95 -2.57045 2.54185 0
M  V30 22508 O 2099.67 -2.08879 3.85099 0
M  V30 22509 C 2101.18 -3.49713 2.72426 0
M  V30 22510 H 2098.4 -0.420872 0.522597 0
M  V30 22511 H 2100.94 -0.720387 1.91391 0
M  V30 22512 H 2099.09 -3.18681 2.20276 0
M  V30 22513 H 2099.51 -2.86557 4.39301 0
M  V30 22514 H 2100.98 -4.29981 3.4615 0
M  V30 22515 H 2101.46 -4.01064 1.7901 0
M  V30 22516 H 2102.07 -2.9392 3.07395 0
M  V30 22517 N 2100.38 -1.33616 -0.835729 0
M  V30 22518 C 2101.34 -1.24042 -1.92733 0
M  V30 22519 C 2102.34 -0.158708 -1.60015 0
M  V30 22520 O 2103.53 -0.410456 -1.69295 0
M  V30 22521 C 2100.67 -0.912113 -3.28471 0
M  V30 22522 H 2101.86 -2.21075 -2.02647 0
M  V30 22523 H 2099.41 -1.1772 -1.02819 0
M  V30 22524 H 2100.15 0.0555823 -3.24252 0
M  V30 22525 H 2099.93 -1.69441 -3.53599 0
M  V30 22526 H 2101.42 -0.869957 -4.08438 0
M  V30 22527 N 2101.86 1.05436 -1.17136 0
M  V30 22528 C 2103.11 1.78041 -0.956331 0
M  V30 22529 C 2103.43 1.88035 0.516524 0
M  V30 22530 O 2102.7 1.39532 1.37505 0
M  V30 22531 H 2101.28 0.659483 -0.350843 0
M  V30 22532 H 2103.94 1.2732 -1.47566 0
M  V30 22533 H 2103.04 2.79808 -1.38253 0
M  V30 22534 N 2103.34 0.971211 1.24118 0
M  V30 22535 C 2104.59 0.630598 1.91589 0
M  V30 22536 C 2104.9 -0.838491 1.76716 0
M  V30 22537 O 2106.1 -1.28978 2.38908 0
M  V30 22538 C 2104.56 1.07723 3.434 0
M  V30 22539 C 2104.17 2.57002 3.66953 0
M  V30 22540 C 2105.91 0.809928 4.16702 0
M  V30 22541 C 2103.82 2.95379 5.12352 0
M  V30 22542 H 2102.75 0.232148 0.717373 0
M  V30 22543 H 2105.4 1.17789 1.40706 0
M  V30 22544 H 2103.78 0.458223 3.9334 0
M  V30 22545 H 2104.96 3.24062 3.27598 0
M  V30 22546 H 2103.27 2.8138 3.06944 0
M  V30 22547 H 2105.87 1.07262 5.23831 0
M  V30 22548 H 2106.21 -0.253899 4.15525 0
M  V30 22549 H 2106.74 1.39007 3.72722 0
M  V30 22550 H 2103.48 4.00847 5.18654 0
M  V30 22551 H 2103 2.33005 5.52692 0
M  V30 22552 H 2104.68 2.85478 5.80613 0
M  V30 22553 N 2104.81 -1.39054 0.741747 0
M  V30 22554 C 2106.04 -2.04668 0.303108 0
M  V30 22555 C 2106.46 -1.55933 -1.06444 0
M  V30 22556 O 2105.81 -0.72717 -1.67387 0
M  V30 22557 C 2105.87 -3.60224 0.303407 0
M  V30 22558 O 2105.59 -4.07167 1.61698 0
M  V30 22559 C 2107.09 -4.43044 -0.150565 0
M  V30 22560 H 2104.31 -0.658018 0.131353 0
M  V30 22561 H 2106.85 -1.77972 1.00729 0
M  V30 22562 H 2105.01 -3.85798 -0.351936 0
M  V30 22563 H 2105.42 -5.01532 1.53511 0
M  V30 22564 H 2106.89 -5.51911 -0.0991946 0
M  V30 22565 H 2107.37 -4.22581 -1.19674 0
M  V30 22566 H 2107.98 -4.22634 0.475463 0
M  V30 22567 N 2106.29 -0.489897 -1.49792 0
M  V30 22568 C 2107.26 0.283286 -2.27443 0
M  V30 22569 C 2108.26 0.903846 -1.32993 0
M  V30 22570 O 2109.45 0.770101 -1.56253 0
M  V30 22571 C 2106.58 1.40534 -3.10585 0
M  V30 22572 H 2107.77 -0.397946 -2.97248 0
M  V30 22573 H 2105.32 -0.244516 -1.54376 0
M  V30 22574 H 2106.06 2.12106 -2.4532 0
M  V30 22575 H 2105.84 0.965947 -3.80016 0
M  V30 22576 H 2107.33 1.95026 -3.69262 0
M  V30 22577 N 2107.77 1.56011 -0.223262 0
M  V30 22578 C 2108.68 2.23993 0.697454 0
M  V30 22579 C 2109.7 1.24812 1.21235 0
M  V30 22580 O 2110.87 1.57629 1.2536 0
M  V30 22581 C 2107.94 2.90786 1.88797 0
M  V30 22582 C 2107 4.05314 1.41489 0
M  V30 22583 C 2106.23 4.68913 2.54866 0
M  V30 22584 O 2106.45 4.31505 3.73041 0
M  V30 22585 O 2105.39 5.57872 2.2597 0
M  V30 22586 H 2109.21 3.03338 0.148324 0
M  V30 22587 H 2106.8 1.49398 0.00725836 0
M  V30 22588 H 2108.68 3.32939 2.5832 0
M  V30 22589 H 2107.36 2.144 2.42517 0
M  V30 22590 H 2106.26 3.67726 0.687623 0
M  V30 22591 H 2107.6 4.83448 0.924045 0
M  V30 22592 N 2109.25 -0.0501116 1.5752 0
M  V30 22593 C 2110.5 -0.744028 1.87476 0
M  V30 22594 C 2110.81 -1.77631 0.818943 0
M  V30 22595 O 2112.02 -2.52133 1.00703 0
M  V30 22596 C 2110.47 -1.37429 3.32628 0
M  V30 22597 C 2110.08 -0.379458 4.4639 0
M  V30 22598 C 2111.82 -2.04931 3.71757 0
M  V30 22599 C 2109.73 -1.01687 5.82592 0
M  V30 22600 H 2108.66 -0.281635 0.699427 0
M  V30 22601 H 2111.31 0.00219827 1.835 0
M  V30 22602 H 2109.69 -2.16952 3.31282 0
M  V30 22603 H 2110.87 0.387526 4.59168 0
M  V30 22604 H 2109.18 0.1923 4.15956 0
M  V30 22605 H 2111.78 -2.53436 4.70823 0
M  V30 22606 H 2112.12 -2.85832 3.02665 0
M  V30 22607 H 2112.66 -1.32212 3.75186 0
M  V30 22608 H 2109.4 -0.247733 6.55032 0
M  V30 22609 H 2108.92 -1.7542 5.73575 0
M  V30 22610 H 2110.59 -1.53041 6.28639 0
M  V30 22611 N 2110.73 -1.54276 -0.321972 0
M  V30 22612 C 2111.66 -1.7862 -1.42021 0
M  V30 22613 C 2112.64 -0.636264 -1.49634 0
M  V30 22614 O 2113.82 -0.873881 -1.6702 0
M  V30 22615 C 2110.95 -1.90419 -2.80104 0
M  V30 22616 C 2109.99 -3.1272 -2.90015 0
M  V30 22617 S 2110.83 -4.71288 -2.5426 0
M  V30 22618 C 2111.98 -4.85995 -3.94411 0
M  V30 22619 H 2112.22 -2.71492 -1.21158 0
M  V30 22620 H 2109.75 -1.45419 -0.518899 0
M  V30 22621 H 2111.71 -1.97902 -3.59646 0
M  V30 22622 H 2110.37 -0.985223 -2.98249 0
M  V30 22623 H 2109.56 -3.17715 -3.91246 0
M  V30 22624 H 2109.16 -3.03574 -2.18446 0
M  V30 22625 H 2111.46 -4.6873 -4.89182 0
M  V30 22626 H 2112.4 -5.88095 -3.94398 0
M  V30 22627 H 2112.81 -4.14288 -3.83439 0
M  V30 22628 N 2112.2 0.584116 -1.46376 0
M  V30 22629 C 2113.43 1.36646 -1.54956 0
M  V30 22630 C 2113.84 1.88253 -0.189086 0
M  V30 22631 O 2113.19 1.64204 0.823577 0
M  V30 22632 C 2113.25 2.59061 -2.49254 0
M  V30 22633 C 2112.91 2.28931 -3.95524 0
M  V30 22634 C 2113.91 1.87853 -4.84775 0
M  V30 22635 C 2111.59 2.41119 -4.40644 0
M  V30 22636 C 2113.59 1.59356 -6.17158 0
M  V30 22637 C 2111.27 2.12234 -5.73062 0
M  V30 22638 C 2112.27 1.71417 -6.61139 0
M  V30 22639 O 2111.96 1.42885 -7.911 0
M  V30 22640 H 2111.69 0.423848 -0.52662 0
M  V30 22641 H 2114.25 0.717203 -1.92472 0
M  V30 22642 H 2112.48 3.26787 -2.06754 0
M  V30 22643 H 2114.17 3.21128 -2.48257 0
M  V30 22644 H 2114.93 1.77953 -4.51174 0
M  V30 22645 H 2110.81 2.71852 -3.72313 0
M  V30 22646 H 2114.35 1.27422 -6.85864 0
M  V30 22647 H 2110.25 2.21758 -6.06212 0
M  V30 22648 H 2111.02 1.56742 -8.03352 0
M  V30 22649 N 2113.68 1.34058 0.828631 0
M  V30 22650 C 2114.96 1.1668 1.56988 0
M  V30 22651 C 2115.34 -0.262846 2.09457 0
M  V30 22652 O 2114.69 -1.26337 1.90398 0
M  V30 22653 C 2114.9 2.21657 2.69572 0
M  V30 22654 C 2116.25 2.56341 3.38489 0
M  V30 22655 O 2117.27 2.20402 2.79824 0
M  V30 22656 O 2116.13 3.18053 4.44415 0
M  V30 22657 H 2113.22 0.451944 0.692586 0
M  V30 22658 H 2115.77 1.45672 0.870498 0
M  V30 22659 H 2114.54 3.17643 2.28515 0
M  V30 22660 H 2114.16 1.93809 3.47166 0
M  V30 22661 N 2115.16 -1.04814 1.17694 0
M  V30 22662 C 2116.41 -1.78283 0.979111 0
M  V30 22663 C 2116.76 -1.8614 -0.486773 0
M  V30 22664 O 2116.06 -1.35294 -1.35669 0
M  V30 22665 C 2116.25 -3.2163 1.55849 0
M  V30 22666 C 2116.08 -3.27744 3.07919 0
M  V30 22667 C 2114.85 -3.3681 3.76679 0
M  V30 22668 C 2117.05 -3.16372 4.05479 0
M  V30 22669 N 2115.03 -3.32095 5.1632 0
M  V30 22670 C 2116.4 -3.19071 5.31595 0
M  V30 22671 C 2118.45 -3.00361 3.97099 0
M  V30 22672 C 2117.16 -3.07404 6.50304 0
M  V30 22673 C 2119.18 -2.90037 5.15395 0
M  V30 22674 C 2118.55 -2.93373 6.404 0
M  V30 22675 H 2114.64 -0.664532 0.412216 0
M  V30 22676 H 2117.23 -1.24919 1.49343 0
M  V30 22677 H 2115.4 -3.73358 1.07045 0
M  V30 22678 H 2117.13 -3.83356 1.29692 0
M  V30 22679 H 2113.89 -3.4223 3.27377 0
M  V30 22680 H 2114.31 -3.33197 5.89329 0
M  V30 22681 H 2118.95 -2.96617 3.01294 0
M  V30 22682 H 2116.67 -3.09902 7.46315 0
M  V30 22683 H 2120.26 -2.78714 5.10696 0
M  V30 22684 H 2119.14 -2.85462 7.30398 0
M  V30 22685 N 2116.64 -0.977779 -1.23601 0
M  V30 22686 C 2117.86 -0.662789 -1.96524 0
M  V30 22687 C 2118.29 0.763086 -1.71926 0
M  V30 22688 O 2117.65 1.51941 -0.989123 0
M  V30 22689 C 2117.7 -0.95584 -3.47701 0
M  V30 22690 O 2116.8 -0.046501 -4.12374 0
M  V30 22691 H 2116.14 -0.249541 -0.615325 0
M  V30 22692 H 2118.67 -1.31066 -1.57108 0
M  V30 22693 H 2118.68 -0.891475 -3.98142 0
M  V30 22694 H 2117.36 -1.99494 -3.64932 0
M  V30 22695 H 2115.93 -0.165051 -3.72535 0
M  V30 22696 N 2118.12 1.38658 -0.749111 0
M  V30 22697 C 2119.05 2.29065 -0.0786741 0
M  V30 22698 C 2120.06 1.47524 0.688517 0
M  V30 22699 O 2121.25 1.70439 0.530347 0
M  V30 22700 C 2118.35 3.2638 0.912663 0
M  V30 22701 C 2117.52 4.36924 0.204051 0
M  V30 22702 C 2116.58 5.14456 1.1055 0
M  V30 22703 O 2115.61 5.66261 0.577696 0
M  V30 22704 N 2116.81 5.27007 2.434 0
M  V30 22705 H 2119.58 2.87243 -0.855081 0
M  V30 22706 H 2117.14 1.50391 -0.599516 0
M  V30 22707 H 2119.13 3.75126 1.51864 0
M  V30 22708 H 2117.7 2.69132 1.59018 0
M  V30 22709 H 2116.92 3.89871 -0.582584 0
M  V30 22710 H 2118.21 5.07993 -0.286467 0
M  V30 22711 H 2117.61 4.86461 2.88742 0
M  V30 22712 H 2116.16 5.79143 2.99059 0
M  V30 22713 N 2119.6 0.497834 1.49531 0
M  V30 22714 C 2120.82 -0.0468921 2.07347 0
M  V30 22715 C 2121.25 -1.30349 1.35612 0
M  V30 22716 O 2120.6 -1.76559 0.411884 0
M  V30 22717 C 2120.65 -0.286776 3.59458 0
M  V30 22718 O 2119.76 -1.36212 3.89256 0
M  V30 22719 H 2119.1 0.0248202 0.663536 0
M  V30 22720 H 2121.63 0.696547 1.92378 0
M  V30 22721 H 2121.64 -0.519243 4.04682 0
M  V30 22722 H 2120.31 0.631334 4.1108 0
M  V30 22723 H 2118.89 -1.11485 3.55845 0
M  V30 22724 N 2121.07 -1.5589 0.231532 0
M  V30 22725 C 2122.01 -2.18025 -0.70695 0
M  V30 22726 C 2123.02 -1.15214 -1.1502 0
M  V30 22727 O 2124.21 -1.42149 -1.07963 0
M  V30 22728 C 2121.31 -2.75714 -1.97066 0
M  V30 22729 C 2120.48 -4.03794 -1.68135 0
M  V30 22730 C 2119.54 -4.4595 -2.79312 0
M  V30 22731 O 2118.57 -5.12645 -2.47354 0
M  V30 22732 N 2119.77 -4.12459 -4.08483 0
M  V30 22733 H 2122.53 -2.99186 -0.175389 0
M  V30 22734 H 2120.09 -1.6182 0.0509009 0
M  V30 22735 H 2122.09 -3.00882 -2.70652 0
M  V30 22736 H 2120.66 -1.98799 -2.41242 0
M  V30 22737 H 2119.88 -3.86377 -0.781436 0
M  V30 22738 H 2121.16 -4.87328 -1.46251 0
M  V30 22739 H 2120.56 -3.58884 -4.37286 0
M  V30 22740 H 2119.12 -4.42496 -4.78581 0
M  V30 22741 N 2122.55 0.0417572 -1.57545 0
M  V30 22742 C 2123.46 1.06351 -2.09109 0
M  V30 22743 C 2124.48 1.40464 -1.02694 0
M  V30 22744 O 2125.65 1.50038 -1.34352 0
M  V30 22745 C 2122.72 2.34925 -2.54973 0
M  V30 22746 C 2121.78 2.0751 -3.75816 0
M  V30 22747 C 2121.01 3.29954 -4.19483 0
M  V30 22748 O 2121.24 4.40174 -3.62772 0
M  V30 22749 O 2120.17 3.16399 -5.12031 0
M  V30 22750 H 2124 0.655348 -2.96545 0
M  V30 22751 H 2121.58 0.257909 -1.47157 0
M  V30 22752 H 2123.46 3.10537 -2.84859 0
M  V30 22753 H 2122.14 2.75062 -1.70653 0
M  V30 22754 H 2121.04 1.29507 -3.50968 0
M  V30 22755 H 2122.38 1.72237 -4.61081 0
M  V30 22756 N 2124.03 1.54445 0.313786 0
M  V30 22757 C 2124.94 1.87547 1.40937 0
M  V30 22758 C 2125.96 0.768341 1.56117 0
M  V30 22759 O 2127.13 1.06358 1.71026 0
M  V30 22760 C 2124.2 2.10467 2.75508 0
M  V30 22761 C 2123.26 3.34232 2.69421 0
M  V30 22762 C 2122.49 3.56049 3.97574 0
M  V30 22763 O 2122.71 2.81118 4.96316 0
M  V30 22764 O 2121.65 4.49546 4.0024 0
M  V30 22765 H 2125.47 2.80728 1.15868 0
M  V30 22766 H 2123.06 1.40473 0.508698 0
M  V30 22767 H 2124.94 2.26817 3.55151 0
M  V30 22768 H 2123.62 1.20474 3.00446 0
M  V30 22769 H 2122.52 3.23259 1.88294 0
M  V30 22770 H 2123.86 4.24314 2.49436 0
M  V30 22771 N 2125.51 -0.576345 1.46683 0
M  V30 22772 C 2126.44 -1.69505 1.60594 0
M  V30 22773 C 2127.42 -1.63873 0.456022 0
M  V30 22774 O 2128.6 -1.81791 0.683045 0
M  V30 22775 C 2125.73 -3.08148 1.60194 0
M  V30 22776 C 2124.69 -3.28615 2.7422 0
M  V30 22777 C 2124.01 -4.6785 2.58884 0
M  V30 22778 C 2125.31 -3.15834 4.15989 0
M  V30 22779 H 2127.01 -1.58119 2.54241 0
M  V30 22780 H 2124.55 -0.759271 1.22356 0
M  V30 22781 H 2126.51 -3.86237 1.68519 0
M  V30 22782 H 2125.23 -3.20447 0.630952 0
M  V30 22783 H 2123.89 -2.52927 2.65375 0
M  V30 22784 H 2123.54 -4.76923 1.59854 0
M  V30 22785 H 2123.24 -4.82495 3.35368 0
M  V30 22786 H 2124.76 -5.48099 2.69109 0
M  V30 22787 H 2126.18 -3.83761 4.25911 0
M  V30 22788 H 2124.57 -3.41998 4.9311 0
M  V30 22789 H 2125.64 -2.12828 4.35698 0
M  V30 22790 N 2126.99 -1.34495 -0.82151 0
M  V30 22791 C 2127.92 -1.22033 -1.94012 0
M  V30 22792 C 2128.93 -0.147079 -1.62134 0
M  V30 22793 O 2130.12 -0.399057 -1.73982 0
M  V30 22794 C 2127.22 -0.85311 -3.27987 0
M  V30 22795 C 2126.39 -2.02163 -3.87877 0
M  V30 22796 C 2125.45 -1.63259 -5.00233 0
M  V30 22797 O 2124.48 -2.34935 -5.18454 0
M  V30 22798 N 2125.68 -0.547563 -5.77912 0
M  V30 22799 H 2128.44 -2.18401 -2.05235 0
M  V30 22800 H 2126.01 -1.27469 -0.998165 0
M  V30 22801 H 2128 -0.574614 -4.006 0
M  V30 22802 H 2126.57 0.0204234 -3.12593 0
M  V30 22803 H 2125.79 -2.46478 -3.0764 0
M  V30 22804 H 2127.08 -2.80308 -4.24623 0
M  V30 22805 H 2126.47 0.0482732 -5.65679 0
M  V30 22806 H 2125.03 -0.328801 -6.5097 0
M  V30 22807 N 2128.46 1.04188 -1.18248 0
M  V30 22808 C 2129.37 2.15666 -0.923339 0
M  V30 22809 C 2130.39 1.73638 0.112112 0
M  V30 22810 O 2131.57 2.0128 -0.0695153 0
M  V30 22811 C 2128.63 3.43751 -0.451239 0
M  V30 22812 C 2127.69 4.00167 -1.55451 0
M  V30 22813 C 2126.93 5.22139 -1.10484 0
M  V30 22814 O 2127.15 5.70388 0.0369453 0
M  V30 22815 O 2126.08 5.71056 -1.90207 0
M  V30 22816 H 2129.91 2.40381 -1.85609 0
M  V30 22817 H 2127.49 1.14121 -0.9642 0
M  V30 22818 H 2129.38 4.20944 -0.195977 0
M  V30 22819 H 2128.05 3.20511 0.45323 0
M  V30 22820 H 2126.96 3.24368 -1.86377 0
M  V30 22821 H 2128.29 4.27745 -2.43506 0
M  V30 22822 N 2129.94 0.98432 1.23081 0
M  V30 22823 C 2131.17 0.672559 1.95346 0
M  V30 22824 C 2131.58 -0.765295 1.73031 0
M  V30 22825 O 2130.92 -1.52708 1.02108 0
M  V30 22826 C 2130.99 0.887951 3.48361 0
M  V30 22827 C 2130.65 2.30863 3.944 0
M  V30 22828 C 2131.65 3.28757 4.02759 0
M  V30 22829 C 2129.33 2.64077 4.27281 0
M  V30 22830 C 2131.33 4.57943 4.43358 0
M  V30 22831 C 2129.01 3.93485 4.67561 0
M  V30 22832 C 2130.01 4.9023 4.75567 0
M  V30 22833 O 2129.7 6.17327 5.1494 0
M  V30 22834 H 2129.43 0.248593 0.628631 0
M  V30 22835 H 2131.98 1.31942 1.57418 0
M  V30 22836 H 2130.21 0.183919 3.86262 0
M  V30 22837 H 2131.9 0.572752 4.01839 0
M  V30 22838 H 2132.67 3.04428 3.77556 0
M  V30 22839 H 2128.55 1.89483 4.20258 0
M  V30 22840 H 2132.09 5.33456 4.49522 0
M  V30 22841 H 2127.99 4.17607 4.92214 0
M  V30 22842 H 2128.76 6.21137 5.3304 0
M  V30 22843 N 2131.42 -1.38259 0.756453 0
M  V30 22844 C 2132.66 -2.01898 0.318855 0
M  V30 22845 C 2133.02 -1.5875 -1.07993 0
M  V30 22846 O 2134.23 -2.14739 -1.6168 0
M  V30 22847 C 2132.5 -3.54672 0.440749 0
M  V30 22848 S 2134.06 -4.38715 0.0861551 0
M  V30 22849 H 2130.87 -0.700186 0.123536 0
M  V30 22850 H 2133.48 -1.68715 0.987703 0
M  V30 22851 H 2132.18 -3.83564 1.45969 0
M  V30 22852 H 2131.71 -3.92635 -0.245183 0
M  V30 22853 H 2133.73 -4.83318 -1.12332 0
M  V30 22854 N 2132.9 -0.505757 -1.49264 0
M  V30 22855 C 2134.31 -0.162021 -1.58775 0
M  V30 22856 C 2134.51 1.33366 -1.51048 0
M  V30 22857 O 2133.57 2.11001 -1.3869 0
M  V30 22858 C 2134.88 -0.743046 -2.91375 0
M  V30 22859 C 2136.43 -0.709582 -3.04851 0
M  V30 22860 C 2136.91 -1.26875 -4.40076 0
M  V30 22861 N 2138.4 -1.22966 -4.4658 0
M  V30 22862 C 2139.13 -1.63246 -5.49671 0
M  V30 22863 N 2138.63 -2.11141 -6.59842 0
M  V30 22864 N 2140.42 -1.54633 -5.40412 0
M  V30 22865 H 2132.57 -1.47812 -1.5253 0
M  V30 22866 H 2134.84 -0.613391 -0.722811 0
M  V30 22867 H 2134.54 -1.79218 -3.02612 0
M  V30 22868 H 2134.42 -0.206195 -3.76636 0
M  V30 22869 H 2136.8 0.330725 -2.93241 0
M  V30 22870 H 2136.88 -1.28363 -2.21261 0
M  V30 22871 H 2136.53 -2.30787 -4.52438 0
M  V30 22872 H 2136.46 -0.670599 -5.22313 0
M  V30 22873 H 2138.95 -0.878781 -3.6754 0
M  V30 22874 H 2139.26 -2.39934 -7.3461 0
M  V30 22875 H 2137.61 -2.15119 -6.6087 0
M  V30 22876 H 2140.8 -1.1703 -4.53235 0
M  V30 22877 H 2140.97 -1.86347 -6.20628 0
M  V30 22878 N 2134.38 1.55765 -0.239796 0
M  V30 22879 C 2135.33 2.17732 0.676512 0
M  V30 22880 C 2136.31 1.13106 1.14438 0
M  V30 22881 O 2137.5 1.39038 1.09533 0
M  V30 22882 C 2134.63 2.87486 1.87634 0
M  V30 22883 C 2133.72 3.9936 1.42731 0
M  V30 22884 N 2134.11 5.01043 0.692042 0
M  V30 22885 C 2132.41 4.11785 1.71316 0
M  V30 22886 C 2133.11 5.79874 0.460525 0
M  V30 22887 N 2132.08 5.33894 1.02264 0
M  V30 22888 H 2135.89 2.93707 0.106521 0
M  V30 22889 H 2133.4 1.62346 -0.0418104 0
M  V30 22890 H 2135.4 3.30304 2.54372 0
M  V30 22891 H 2134.06 2.13012 2.45063 0
M  V30 22892 H 2135.07 5.16764 0.342867 0
M  V30 22893 H 2131.74 3.48477 2.29934 0
M  V30 22894 H 2133.13 6.71782 -0.125962 0
M  V30 22895 N 2135.85 -0.0334016 1.57565 0
M  V30 22896 C 2136.8 -1.04313 2.02738 0
M  V30 22897 C 2137.79 -1.32286 0.915933 0
M  V30 22898 O 2138.98 -1.31943 1.17983 0
M  V30 22899 C 2136.11 -2.34558 2.50674 0
M  V30 22900 C 2135.2 -2.09694 3.68632 0
M  V30 22901 N 2135.59 -1.54874 4.81506 0
M  V30 22902 C 2133.88 -2.39998 3.75922 0
M  V30 22903 C 2134.59 -1.45715 5.63154 0
M  V30 22904 N 2133.56 -1.93121 5.08139 0
M  V30 22905 H 2137.36 -0.613226 2.87431 0
M  V30 22906 H 2134.88 -0.23979 1.6062 0
M  V30 22907 H 2136.87 -3.07699 2.81296 0
M  V30 22908 H 2135.53 -2.7823 1.67386 0
M  V30 22909 H 2136.55 -1.23205 5.03032 0
M  V30 22910 H 2133.22 -2.86775 3.03424 0
M  V30 22911 H 2134.61 -1.03858 6.63825 0
M  V30 22912 N 2137.33 -1.54609 -0.305591 0
M  V30 22913 C 2138.24 -1.88292 -1.3994 0
M  V30 22914 C 2139.26 -0.77661 -1.55707 0
M  V30 22915 O 2140.43 -1.07264 -1.7046 0
M  V30 22916 C 2137.5 -2.11925 -2.74388 0
M  V30 22917 C 2136.56 -3.35656 -2.67644 0
M  V30 22918 C 2135.79 -3.58152 -3.9568 0
M  V30 22919 O 2136.02 -2.83746 -4.94818 0
M  V30 22920 O 2134.95 -4.51662 -3.97851 0
M  V30 22921 H 2138.78 -2.81339 -1.14378 0
M  V30 22922 H 2136.36 -1.40741 -0.501242 0
M  V30 22923 H 2138.24 -2.28697 -3.53943 0
M  V30 22924 H 2136.92 -1.22065 -2.99803 0
M  V30 22925 H 2135.83 -3.24253 -1.86577 0
M  V30 22926 H 2137.16 -4.25631 -2.47182 0
M  V30 22927 N 2138.81 0.568558 -1.46987 0
M  V30 22928 C 2140.06 1.32251 -1.52291 0
M  V30 22929 C 2140.37 1.94723 -0.184983 0
M  V30 22930 O 2141.58 2.71252 -0.115932 0
M  V30 22931 C 2140.03 2.3976 -2.68408 0
M  V30 22932 C 2139.64 1.83528 -4.08682 0
M  V30 22933 C 2141.39 3.16408 -2.82996 0
M  V30 22934 C 2139.29 2.88751 -5.16117 0
M  V30 22935 H 2138.22 0.497223 -0.56682 0
M  V30 22936 H 2140.87 0.605168 -1.73234 0
M  V30 22937 H 2139.26 3.14357 -2.40823 0
M  V30 22938 H 2140.43 1.1538 -4.46121 0
M  V30 22939 H 2138.75 1.19503 -3.98884 0
M  V30 22940 H 2141.34 3.94962 -3.60429 0
M  V30 22941 H 2141.69 3.69886 -1.91024 0
M  V30 22942 H 2142.22 2.4892 -3.10296 0
M  V30 22943 H 2138.96 2.40142 -6.09928 0
M  V30 22944 H 2138.48 3.55345 -4.83208 0
M  V30 22945 H 2140.16 3.52449 -5.42576 0
M  V30 22946 N 2140.29 1.34929 0.814366 0
M  V30 22947 C 2141.52 1.30863 1.60257 0
M  V30 22948 C 2141.93 -0.11553 1.88446 0
M  V30 22949 O 2141.29 -1.06518 1.4819 0
M  V30 22950 C 2141.34 2.10565 2.93845 0
M  V30 22951 O 2141.06 3.47427 2.66882 0
M  V30 22952 C 2142.56 2.13994 3.88228 0
M  V30 22953 H 2139.78 0.449849 0.497872 0
M  V30 22954 H 2142.33 1.77669 1.01262 0
M  V30 22955 H 2140.48 1.67378 3.49376 0
M  V30 22956 H 2140.89 3.88729 3.52122 0
M  V30 22957 H 2142.37 2.74168 4.79099 0
M  V30 22958 H 2142.85 1.13661 4.24238 0
M  V30 22959 H 2143.45 2.57308 3.38634 0
M  V30 22960 N 2141.77 -1.0356 1.18799 0
M  V30 22961 C 2143 -1.80226 1.01006 0
M  V30 22962 C 2143.4 -1.83904 -0.444538 0
M  V30 22963 O 2142.75 -1.27698 -1.32056 0
M  V30 22964 C 2142.81 -3.26949 1.49481 0
M  V30 22965 C 2142.47 -3.46921 2.97481 0
M  V30 22966 C 2143.47 -3.37692 3.95297 0
M  V30 22967 C 2141.16 -3.73353 3.36025 0
M  V30 22968 C 2143.15 -3.54609 5.29652 0
M  V30 22969 C 2140.84 -3.89916 4.70541 0
M  V30 22970 C 2141.83 -3.80545 5.67164 0
M  V30 22971 O 2141.52 -3.96627 6.99244 0
M  V30 22972 H 2141.25 -0.574238 0.356688 0
M  V30 22973 H 2143.81 -1.31373 1.57894 0
M  V30 22974 H 2142.04 -3.76795 0.869635 0
M  V30 22975 H 2143.73 -3.85189 1.28001 0
M  V30 22976 H 2144.49 -3.1723 3.66865 0
M  V30 22977 H 2140.37 -3.79743 2.61374 0
M  V30 22978 H 2143.92 -3.47211 6.05054 0
M  V30 22979 H 2139.81 -4.09873 4.98672 0
M  V30 22980 H 2140.58 -4.13758 7.0622 0
M  V30 22981 N 2143.25 -0.990834 -1.22557 0
M  V30 22982 C 2144.49 -0.666519 -1.91534 0
M  V30 22983 C 2144.82 0.799165 -1.76994 0
M  V30 22984 O 2144.1 1.57769 -1.13751 0
M  V30 22985 C 2144.38 -1.07064 -3.43816 0
M  V30 22986 C 2144.24 -2.59473 -3.67415 0
M  V30 22987 C 2145.55 -0.622332 -4.35678 0
M  V30 22988 H 2142.67 -0.243613 -0.695573 0
M  V30 22989 H 2145.32 -1.23399 -1.44474 0
M  V30 22990 H 2143.47 -0.587797 -3.84028 0
M  V30 22991 H 2145.14 -3.15412 -3.3662 0
M  V30 22992 H 2143.38 -3.01635 -3.11767 0
M  V30 22993 H 2144.05 -2.828 -4.74055 0
M  V30 22994 H 2146.53 -1.03704 -4.0297 0
M  V30 22995 H 2145.4 -0.933416 -5.40905 0
M  V30 22996 H 2145.66 0.477057 -4.39519 0
M  V30 22997 N 2144.72 1.37856 -0.763775 0
M  V30 22998 C 2145.69 2.28702 -0.151022 0
M  V30 22999 C 2146.69 1.47661 0.636627 0
M  V30 23000 O 2147.88 1.67979 0.46139 0
M  V30 23001 C 2145.01 3.31525 0.793965 0
M  V30 23002 H 2146.2 2.84397 -0.951747 0
M  V30 23003 H 2143.75 1.46987 -0.531452 0
M  V30 23004 H 2144.49 2.80939 1.61999 0
M  V30 23005 H 2144.27 3.91416 0.231444 0
M  V30 23006 H 2145.76 3.99432 1.21837 0
M  V30 23007 N 2146.2 0.513665 1.48994 0
M  V30 23008 C 2147.13 -0.247058 2.32189 0
M  V30 23009 C 2148.11 -0.950613 1.41058 0
M  V30 23010 O 2149.3 -0.939562 1.69958 0
M  V30 23011 C 2146.43 -1.30433 3.21876 0
M  V30 23012 C 2145.38 -0.719902 4.21902 0
M  V30 23013 C 2144.71 -1.87863 5.00611 0
M  V30 23014 C 2146.01 0.297524 5.21452 0
M  V30 23015 H 2147.7 0.447403 2.96038 0
M  V30 23016 H 2145.25 0.216608 1.42362 0
M  V30 23017 H 2147.2 -1.84434 3.78896 0
M  V30 23018 H 2145.92 -2.02815 2.55995 0
M  V30 23019 H 2144.58 -0.201546 3.66046 0
M  V30 23020 H 2144.23 -2.59044 4.31167 0
M  V30 23021 H 2143.93 -1.49359 5.68301 0
M  V30 23022 H 2145.46 -2.42273 5.60478 0
M  V30 23023 H 2146.87 -0.1548 5.73091 0
M  V30 23024 H 2145.27 0.599071 5.97102 0
M  V30 23025 H 2146.34 1.20903 4.69585 0
M  V30 23026 N 2147.68 -1.55636 0.248053 0
M  V30 23027 C 2148.93 -1.99266 -0.376927 0
M  V30 23028 C 2149.26 -1.13602 -1.57506 0
M  V30 23029 O 2148.53 -0.199686 -1.93472 0
M  V30 23030 C 2148.82 -3.51425 -0.785664 0
M  V30 23031 C 2148.67 -4.47854 0.417942 0
M  V30 23032 C 2149.99 -4.08714 -1.63221 0
M  V30 23033 H 2147.11 -0.724431 -0.135531 0
M  V30 23034 H 2149.75 -1.86756 0.349594 0
M  V30 23035 H 2147.9 -3.62216 -1.40469 0
M  V30 23036 H 2149.57 -4.49041 1.05638 0
M  V30 23037 H 2147.81 -4.20629 1.06084 0
M  V30 23038 H 2148.49 -5.51929 0.0886002 0
M  V30 23039 H 2150.96 -4.01031 -1.10966 0
M  V30 23040 H 2149.84 -5.15443 -1.88706 0
M  V30 23041 H 2150.1 -3.57242 -2.60443 0
M  V30 23042 N 2149.16 0.0250451 -1.5758 0
M  V30 23043 C 2150.38 0.730408 -1.94113 0
M  V30 23044 C 2150.81 1.67882 -0.848362 0
M  V30 23045 O 2150.17 1.80242 0.195596 0
M  V30 23046 C 2150.21 1.46014 -3.29715 0
M  V30 23047 O 2149.32 2.57351 -3.22249 0
M  V30 23048 H 2148.66 0.196157 -0.634365 0
M  V30 23049 H 2151.19 -0.0206802 -2.0459 0
M  V30 23050 H 2151.2 1.82917 -3.64699 0
M  V30 23051 H 2149.87 0.764593 -4.08811 0
M  V30 23052 H 2148.45 2.22961 -2.98903 0
M  V30 23053 N 2150.64 1.54769 0.297388 0
M  V30 23054 C 2151.91 1.64904 1.05195 0
M  V30 23055 C 2152.29 0.499658 2.05102 0
M  V30 23056 O 2151.64 -0.503202 2.2289 0
M  V30 23057 C 2151.85 3.03071 1.73058 0
M  V30 23058 C 2153.2 3.60007 2.25123 0
M  V30 23059 O 2154.22 3.05546 1.83085 0
M  V30 23060 O 2153.08 4.55371 3.02158 0
M  V30 23061 H 2150.18 0.668805 0.486444 0
M  V30 23062 H 2152.72 1.67113 0.295187 0
M  V30 23063 H 2151.49 3.78165 1.00534 0
M  V30 23064 H 2151.12 3.04655 2.55482 0
M  V30 23065 N 2152.11 -0.560755 1.47286 0
M  V30 23066 C 2153.06 -1.66812 1.59507 0
M  V30 23067 C 2154.03 -1.60214 0.438263 0
M  V30 23068 O 2155.22 -1.791 0.657862 0
M  V30 23069 C 2152.36 -3.05138 1.61199 0
M  V30 23070 C 2151.47 -3.22198 2.87771 0
M  V30 23071 C 2150.6 -4.50902 2.80822 0
M  V30 23072 C 2149.64 -4.61382 4.02235 0
M  V30 23073 N 2148.78 -5.81436 3.93543 0
M  V30 23074 H 2153.62 -1.55705 2.54087 0
M  V30 23075 H 2151.16 -0.758538 1.26034 0
M  V30 23076 H 2153.11 -3.85232 1.60163 0
M  V30 23077 H 2151.74 -3.15089 0.701347 0
M  V30 23078 H 2150.8 -2.3556 2.9869 0
M  V30 23079 H 2152.11 -3.25807 3.77692 0
M  V30 23080 H 2151.26 -5.39251 2.78016 0
M  V30 23081 H 2150 -4.49766 1.88578 0
M  V30 23082 H 2149.01 -3.71445 4.0535 0
M  V30 23083 H 2150.23 -4.6428 4.95601 0
M  V30 23084 H 2148.18 -5.81257 3.041 0
M  V30 23085 H 2148.09 -5.86408 4.77139 0
M  V30 23086 H 2149.36 -6.72157 3.94747 0
M  V30 23087 N 2153.59 -1.35359 -0.807199 0
M  V30 23088 C 2154.5 -1.30342 -1.9506 0
M  V30 23089 C 2155.52 -0.208425 -1.72747 0
M  V30 23090 O 2156.69 -0.437692 -1.96586 0
M  V30 23091 C 2153.76 -1.07437 -3.29633 0
M  V30 23092 C 2152.82 -2.26243 -3.64846 0
M  V30 23093 C 2152.05 -2.04423 -4.92998 0
M  V30 23094 O 2152.28 -1.01037 -5.6138 0
M  V30 23095 O 2151.21 -2.91769 -5.26455 0
M  V30 23096 H 2155.04 -2.26568 -2.02239 0
M  V30 23097 H 2152.62 -1.15724 -0.944893 0
M  V30 23098 H 2154.5 -0.9651 -4.102 0
M  V30 23099 H 2153.18 -0.142618 -3.23386 0
M  V30 23100 H 2152.08 -2.42735 -2.84659 0
M  V30 23101 H 2153.42 -3.17864 -3.75797 0
M  V30 23102 N 2155.07 1.02928 -1.19346 0
M  V30 23103 C 2156.32 1.75973 -0.993881 0
M  V30 23104 C 2156.64 1.89088 0.476523 0
M  V30 23105 O 2155.91 1.42417 1.34515 0
M  V30 23106 H 2154.49 0.651893 -0.364753 0
M  V30 23107 H 2157.15 1.24161 -1.50233 0
M  V30 23108 H 2156.25 2.76812 -1.44157 0
M  V30 23109 N 2156.55 0.997319 1.2203 0
M  V30 23110 C 2157.77 0.69397 1.95445 0
M  V30 23111 C 2158.2 -0.735638 1.73118 0
M  V30 23112 O 2157.56 -1.50348 1.01317 0
M  V30 23113 C 2157.6 1.01104 3.46136 0
M  V30 23114 O 2156.71 0.1121 4.12248 0
M  V30 23115 H 2156.05 0.259299 0.611277 0
M  V30 23116 H 2158.58 1.33549 1.55003 0
M  V30 23117 H 2158.59 0.954704 3.96673 0
M  V30 23118 H 2157.26 2.05274 3.61712 0
M  V30 23119 H 2155.84 0.224297 3.72225 0
M  V30 23120 N 2158.03 -1.37449 0.771075 0
M  V30 23121 C 2158.98 -2.27627 0.130441 0
M  V30 23122 C 2159.96 -1.46067 -0.674776 0
M  V30 23123 O 2161.15 -1.6863 -0.53786 0
M  V30 23124 C 2158.28 -3.35044 -0.748371 0
M  V30 23125 C 2157.37 -4.24051 0.0646391 0
M  V30 23126 N 2157.76 -4.93471 1.10994 0
M  V30 23127 C 2156.06 -4.45715 -0.159446 0
M  V30 23128 C 2156.76 -5.59168 1.60332 0
M  V30 23129 N 2155.73 -5.35833 0.915614 0
M  V30 23130 H 2159.54 -2.78772 0.930764 0
M  V30 23131 H 2157.05 -1.50558 0.608767 0
M  V30 23132 H 2159.05 -3.98555 -1.22309 0
M  V30 23133 H 2157.71 -2.85454 -1.54745 0
M  V30 23134 H 2158.72 -4.95941 1.49207 0
M  V30 23135 H 2155.39 -4.06999 -0.930484 0
M  V30 23136 H 2156.78 -6.24655 2.475 0
M  V30 23137 N 2159.5 -0.52156 -1.4872 0
M  V30 23138 C 2160.75 0.0156187 -2.02794 0
M  V30 23139 C 2161.08 1.34729 -1.39863 0
M  V30 23140 O 2160.36 1.86812 -0.541426 0
M  V30 23141 C 2160.64 0.146526 -3.59802 0
M  V30 23142 C 2160.49 -1.20972 -4.33227 0
M  V30 23143 C 2161.81 0.87737 -4.31266 0
M  V30 23144 H 2158.93 0.00420207 -0.736988 0
M  V30 23145 H 2161.57 -0.676958 -1.77531 0
M  V30 23146 H 2159.72 0.736393 -3.81457 0
M  V30 23147 H 2161.4 -1.84005 -4.23013 0
M  V30 23148 H 2159.64 -1.79378 -3.94976 0
M  V30 23149 H 2160.31 -1.07121 -5.41506 0
M  V30 23150 H 2162.79 0.376892 -4.1439 0
M  V30 23151 H 2161.66 0.937846 -5.40829 0
M  V30 23152 H 2161.92 1.92578 -3.97953 0
M  V30 23153 N 2160.98 1.55502 -0.256304 0
M  V30 23154 C 2161.93 2.2177 0.63926 0
M  V30 23155 C 2162.9 1.18474 1.16418 0
M  V30 23156 O 2164.08 1.46954 1.21693 0
M  V30 23157 C 2161.22 2.92819 1.82623 0
M  V30 23158 C 2160.34 4.10791 1.33695 0
M  V30 23159 C 2159.47 4.69531 2.48423 0
M  V30 23160 C 2158.51 5.79735 1.96403 0
M  V30 23161 N 2157.65 6.32617 3.04533 0
M  V30 23162 H 2162.49 2.97924 0.0674772 0
M  V30 23163 H 2160.03 1.47084 0.0215424 0
M  V30 23164 H 2161.98 3.32216 2.52366 0
M  V30 23165 H 2160.61 2.19122 2.37034 0
M  V30 23166 H 2159.67 3.76644 0.533253 0
M  V30 23167 H 2160.98 4.90321 0.915786 0
M  V30 23168 H 2160.13 5.11551 3.26191 0
M  V30 23169 H 2158.87 3.89238 2.93845 0
M  V30 23170 H 2157.88 5.37183 1.17108 0
M  V30 23171 H 2159.1 6.61885 1.51939 0
M  V30 23172 H 2157.05 5.55225 3.49372 0
M  V30 23173 H 2156.96 7.07366 2.66776 0
M  V30 23174 H 2158.23 6.79295 3.82332 0
M  V30 23175 N 2162.46 -0.0166879 1.57591 0
M  V30 23176 C 2163.71 -0.706033 1.90113 0
M  V30 23177 C 2164.04 -1.74339 0.855541 0
M  V30 23178 O 2163.31 -1.94079 -0.127874 0
M  V30 23179 C 2163.6 -1.36436 3.33253 0
M  V30 23180 C 2163.45 -0.339675 4.48516 0
M  V30 23181 C 2164.77 -2.29505 3.7552 0
M  V30 23182 H 2161.89 -0.255199 0.691406 0
M  V30 23183 H 2164.53 0.0311796 1.89974 0
M  V30 23184 H 2162.68 -1.99271 3.33501 0
M  V30 23185 H 2164.35 0.287715 4.60402 0
M  V30 23186 H 2162.6 0.339799 4.32467 0
M  V30 23187 H 2163.27 -0.839026 5.45586 0
M  V30 23188 H 2165.74 -1.76702 3.76717 0
M  V30 23189 H 2164.62 -2.72542 4.76458 0
M  V30 23190 H 2164.88 -3.16708 3.08461 0
M  V30 23191 N 2163.94 -1.54924 -0.289176 0
M  V30 23192 C 2164.89 -1.86692 -1.35701 0
M  V30 23193 C 2165.86 -0.716885 -1.49833 0
M  V30 23194 O 2167.04 -0.966637 -1.64502 0
M  V30 23195 C 2164.18 -2.13019 -2.71509 0
M  V30 23196 C 2163.29 -3.40605 -2.6573 0
M  V30 23197 C 2162.43 -3.56714 -3.9361 0
M  V30 23198 C 2161.47 -4.78049 -3.82276 0
M  V30 23199 N 2160.6 -4.90901 -5.01957 0
M  V30 23200 H 2165.44 -2.77776 -1.07909 0
M  V30 23201 H 2162.98 -1.37539 -0.52168 0
M  V30 23202 H 2164.94 -2.2628 -3.50504 0
M  V30 23203 H 2163.57 -1.25188 -2.97536 0
M  V30 23204 H 2162.62 -3.35902 -1.78533 0
M  V30 23205 H 2163.93 -4.29728 -2.53249 0
M  V30 23206 H 2163.09 -3.69704 -4.81045 0
M  V30 23207 H 2161.83 -2.65745 -4.08939 0
M  V30 23208 H 2160.83 -4.6508 -2.93225 0
M  V30 23209 H 2162.06 -5.70437 -3.68482 0
M  V30 23210 H 2160 -4.02859 -5.17726 0
M  V30 23211 H 2159.92 -5.74044 -4.91945 0
M  V30 23212 H 2161.19 -5.0826 -5.91009 0
M  V30 23213 N 2165.42 0.552936 -1.47582 0
M  V30 23214 C 2166.64 1.34003 -1.58297 0
M  V30 23215 C 2167.07 1.86625 -0.23511 0
M  V30 23216 O 2166.42 1.63197 0.789702 0
M  V30 23217 C 2166.47 2.48288 -2.61506 0
M  V30 23218 O 2165.58 3.50647 -2.17073 0
M  V30 23219 H 2164.92 0.397855 -0.531608 0
M  V30 23220 H 2167.45 0.667783 -1.93395 0
M  V30 23221 H 2167.46 2.94798 -2.8206 0
M  V30 23222 H 2166.13 2.09345 -3.59371 0
M  V30 23223 H 2164.71 3.10413 -2.06636 0
M  V30 23224 N 2166.89 1.35785 0.800009 0
M  V30 23225 C 2168.14 1.29425 1.55741 0
M  V30 23226 C 2168.47 -0.129487 1.94068 0
M  V30 23227 O 2167.72 -1.09631 1.6211 0
M  V30 23228 C 2168.02 2.15261 2.85302 0
M  V30 23229 C 2167.69 3.63962 2.66162 0
M  V30 23230 C 2166.35 4.04493 2.60651 0
M  V30 23231 C 2168.7 4.58288 2.48238 0
M  V30 23232 C 2166.03 5.37507 2.35166 0
M  V30 23233 C 2168.38 5.91507 2.24281 0
M  V30 23234 C 2167.05 6.31175 2.17195 0
M  V30 23235 H 2166.32 0.473601 0.569898 0
M  V30 23236 H 2168.96 1.67742 0.923842 0
M  V30 23237 H 2167.27 1.69846 3.53071 0
M  V30 23238 H 2168.97 2.07672 3.43036 0
M  V30 23239 H 2165.56 3.31802 2.71303 0
M  V30 23240 H 2169.74 4.27854 2.51504 0
M  V30 23241 H 2165 5.67235 2.28154 0
M  V30 23242 H 2169.17 6.64171 2.09403 0
M  V30 23243 H 2166.8 7.34175 1.9721 0
M  V30 23244 N 2168.37 -1.02294 1.19891 0
M  V30 23245 C 2169.28 -2.14169 0.957533 0
M  V30 23246 C 2170.3 -1.73795 -0.0844739 0
M  V30 23247 O 2171.47 -2.01144 0.101528 0
M  V30 23248 C 2168.54 -3.4299 0.50587 0
M  V30 23249 C 2167.6 -3.97643 1.61797 0
M  V30 23250 C 2166.83 -5.20315 1.18777 0
M  V30 23251 O 2167.06 -5.70375 0.0538032 0
M  V30 23252 O 2165.99 -5.67957 1.99268 0
M  V30 23253 H 2169.82 -2.37398 1.89409 0
M  V30 23254 H 2167.4 -1.12572 0.982234 0
M  V30 23255 H 2169.28 -4.20579 0.26292 0
M  V30 23256 H 2167.96 -3.21192 -0.402182 0
M  V30 23257 H 2166.87 -3.21362 1.91514 0
M  V30 23258 H 2168.2 -4.23817 2.5028 0
M  V30 23259 N 2169.85 -1.00378 -1.21499 0
M  V30 23260 C 2170.8 -0.563153 -2.23824 0
M  V30 23261 C 2171.77 0.410151 -1.60956 0
M  V30 23262 O 2172.95 0.312473 -1.88224 0
M  V30 23263 C 2170.09 0.105277 -3.44939 0
M  V30 23264 C 2169.21 -0.91106 -4.22284 0
M  V30 23265 C 2168.34 -0.215019 -5.30765 0
M  V30 23266 C 2167.38 -1.21899 -5.99839 0
M  V30 23267 N 2166.52 -0.550506 -6.99938 0
M  V30 23268 H 2171.36 -1.44041 -2.60876 0
M  V30 23269 H 2168.89 -0.721302 -1.28202 0
M  V30 23270 H 2170.85 0.509838 -4.14073 0
M  V30 23271 H 2169.48 0.946261 -3.08619 0
M  V30 23272 H 2168.53 -1.43387 -3.52341 0
M  V30 23273 H 2169.85 -1.67513 -4.69831 0
M  V30 23274 H 2169 0.245713 -6.06202 0
M  V30 23275 H 2167.74 0.581469 -4.84221 0
M  V30 23276 H 2166.74 -1.69024 -5.23174 0
M  V30 23277 H 2167.97 -2.01654 -6.48469 0
M  V30 23278 H 2165.91 0.226347 -6.55609 0
M  V30 23279 H 2165.83 -1.25285 -7.45547 0
M  V30 23280 H 2167.1 -0.112938 -7.79418 0
M  V30 23281 N 2171.33 1.37038 -0.778354 0
M  V30 23282 C 2172.24 2.33983 -0.170042 0
M  V30 23283 C 2173.25 1.60504 0.671902 0
M  V30 23284 O 2174.43 1.92556 0.590278 0
M  V30 23285 C 2171.5 3.39689 0.693729 0
M  V30 23286 C 2170.56 4.28981 -0.165434 0
M  V30 23287 C 2169.79 5.29638 0.657205 0
M  V30 23288 O 2170.01 5.38041 1.8939 0
M  V30 23289 O 2168.95 6.01867 0.0629255 0
M  V30 23290 H 2172.77 2.87749 -0.97131 0
M  V30 23291 H 2170.36 1.39314 -0.53962 0
M  V30 23292 H 2172.24 4.04348 1.18664 0
M  V30 23293 H 2170.91 2.8824 1.47307 0
M  V30 23294 H 2169.82 3.674 -0.704851 0
M  V30 23295 H 2171.15 4.83752 -0.908023 0
M  V30 23296 N 2172.81 0.529439 1.48441 0
M  V30 23297 C 2174.22 0.18726 1.58498 0
M  V30 23298 C 2174.42 -1.30947 1.53151 0
M  V30 23299 O 2173.48 -2.08768 1.42029 0
M  V30 23300 C 2174.79 0.789307 2.90156 0
M  V30 23301 C 2176.34 0.757992 3.03683 0
M  V30 23302 C 2176.82 1.33861 4.38002 0
M  V30 23303 N 2178.31 1.30055 4.44567 0
M  V30 23304 C 2179.04 1.7197 5.47004 0
M  V30 23305 N 2178.54 2.21612 6.56399 0
M  V30 23306 N 2180.33 1.63211 5.37884 0
M  V30 23307 H 2172.48 1.5022 1.50159 0
M  V30 23308 H 2174.74 0.624813 0.712961 0
M  V30 23309 H 2174.45 1.84009 2.99722 0
M  V30 23310 H 2174.32 0.266088 3.7626 0
M  V30 23311 H 2176.71 -0.284031 2.9373 0
M  V30 23312 H 2176.79 1.31867 2.19191 0
M  V30 23313 H 2176.44 2.37955 4.48709 0
M  V30 23314 H 2176.37 0.75361 5.2118 0
M  V30 23315 H 2178.86 0.937142 3.66096 0
M  V30 23316 H 2179.17 2.51591 7.30699 0
M  V30 23317 H 2177.52 2.25605 6.57364 0
M  V30 23318 H 2180.71 1.24226 4.51315 0
M  V30 23319 H 2180.88 1.96197 6.17584 0
M  V30 23320 N 2174.29 -1.55364 0.264547 0
M  V30 23321 C 2175.22 -2.19475 -0.660544 0
M  V30 23322 C 2176.23 -1.17628 -1.1255 0
M  V30 23323 O 2177.42 -1.44407 -1.04923 0
M  V30 23324 C 2174.52 -2.79832 -1.91173 0
M  V30 23325 C 2173.69 -4.07269 -1.59533 0
M  V30 23326 C 2172.75 -4.51774 -2.6979 0
M  V30 23327 O 2171.78 -5.17776 -2.36425 0
M  V30 23328 N 2172.98 -4.2103 -3.99642 0
M  V30 23329 H 2175.74 -2.99491 -0.111888 0
M  V30 23330 H 2173.31 -1.61676 0.0852139 0
M  V30 23331 H 2175.3 -3.06555 -2.64209 0
M  V30 23332 H 2173.87 -2.03871 -2.36971 0
M  V30 23333 H 2173.09 -3.87948 -0.699303 0
M  V30 23334 H 2174.38 -4.9032 -1.35881 0
M  V30 23335 H 2173.77 -3.68079 -4.29575 0
M  V30 23336 H 2172.33 -4.52548 -4.69088 0
M  V30 23337 N 2175.76 0.00833021 -1.57598 0
M  V30 23338 C 2176.99 0.706123 -1.94478 0
M  V30 23339 C 2177.41 1.67768 -0.86599 0
M  V30 23340 O 2176.76 1.81834 0.155828 0
M  V30 23341 C 2176.81 1.44523 -3.31354 0
M  V30 23342 O 2176.54 0.512651 -4.3509 0
M  V30 23343 C 2178.04 2.2383 -3.82642 0
M  V30 23344 H 2175.26 0.197195 -0.64137 0
M  V30 23345 H 2177.8 -0.0403132 -2.0446 0
M  V30 23346 H 2175.96 2.14337 -3.22705 0
M  V30 23347 H 2176.37 1.03321 -5.14223 0
M  V30 23348 H 2177.84 2.71055 -4.80867 0
M  V30 23349 H 2178.32 3.06148 -3.14913 0
M  V30 23350 H 2178.93 1.59049 -3.94441 0
M  V30 23351 N 2177.24 1.55075 0.280956 0
M  V30 23352 C 2178.15 1.90495 1.36927 0
M  V30 23353 C 2179.17 0.801283 1.54452 0
M  V30 23354 O 2180.34 1.09962 1.68732 0
M  V30 23355 C 2177.41 2.16264 2.70981 0
M  V30 23356 C 2176.47 3.39872 2.6227 0
M  V30 23357 C 2175.7 3.64402 3.89932 0
M  V30 23358 O 2175.93 2.91582 4.90241 0
M  V30 23359 O 2174.86 4.57934 3.90615 0
M  V30 23360 H 2178.69 2.83123 1.09888 0
M  V30 23361 H 2176.27 1.4152 0.478787 0
M  V30 23362 H 2178.15 2.34299 3.5026 0
M  V30 23363 H 2176.83 1.2682 2.97823 0
M  V30 23364 H 2175.73 3.2718 1.81395 0
M  V30 23365 H 2177.07 4.2951 2.40379 0
M  V30 23366 N 2178.72 -0.545102 1.47873 0
M  V30 23367 C 2179.67 -1.65111 1.61267 0
M  V30 23368 C 2180.64 -1.5974 0.455231 0
M  V30 23369 O 2181.82 -1.78392 0.676821 0
M  V30 23370 C 2178.96 -3.03411 1.64426 0
M  V30 23371 C 2178.07 -3.19128 2.91172 0
M  V30 23372 C 2177.21 -4.47898 2.85589 0
M  V30 23373 C 2176.25 -4.5709 4.07106 0
M  V30 23374 N 2175.39 -5.7723 3.99688 0
M  V30 23375 H 2180.23 -1.53001 2.55724 0
M  V30 23376 H 2177.76 -0.745128 1.26832 0
M  V30 23377 H 2179.72 -3.83511 1.6424 0
M  V30 23378 H 2178.35 -3.14327 0.734727 0
M  V30 23379 H 2177.4 -2.32379 3.01171 0
M  V30 23380 H 2178.71 -3.21783 3.81126 0
M  V30 23381 H 2177.87 -5.36272 2.8372 0
M  V30 23382 H 2176.61 -4.47741 1.93338 0
M  V30 23383 H 2175.61 -3.67125 4.09267 0
M  V30 23384 H 2176.84 -4.58998 5.00498 0
M  V30 23385 H 2174.78 -5.77998 3.10248 0
M  V30 23386 H 2174.7 -5.81315 4.83332 0
M  V30 23387 H 2175.97 -6.67932 4.01854 0
M  V30 23388 N 2180.2 -1.36208 -0.792797 0
M  V30 23389 C 2181.61 -1.16547 -1.09036 0
M  V30 23390 C 2181.81 0.0127355 -2.01496 0
M  V30 23391 O 2180.87 0.679142 -2.43195 0
M  V30 23392 C 2182.18 -2.47477 -1.70808 0
M  V30 23393 C 2183.73 -2.5381 -1.83165 0
M  V30 23394 C 2184.21 -3.84818 -2.48352 0
M  V30 23395 N 2185.7 -3.86146 -2.55824 0
M  V30 23396 C 2186.43 -4.84251 -3.07064 0
M  V30 23397 N 2185.93 -5.92749 -3.58637 0
M  V30 23398 N 2187.72 -4.71674 -3.05745 0
M  V30 23399 H 2179.87 -2.11649 -0.178453 0
M  V30 23400 H 2182.13 -0.937338 -0.141777 0
M  V30 23401 H 2181.84 -3.33944 -1.10338 0
M  V30 23402 H 2181.71 -2.63037 -2.70354 0
M  V30 23403 H 2184.1 -1.67764 -2.42774 0
M  V30 23404 H 2184.18 -2.42153 -0.824343 0
M  V30 23405 H 2183.83 -4.71269 -1.89388 0
M  V30 23406 H 2183.76 -3.9377 -3.49647 0
M  V30 23407 H 2186.25 -3.07758 -2.19301 0
M  V30 23408 H 2186.56 -6.63584 -3.96075 0
M  V30 23409 H 2184.91 -5.96423 -3.56798 0
M  V30 23410 H 2188.1 -3.86044 -2.6474 0
M  V30 23411 H 2188.27 -5.48291 -3.4537 0
M  V30 23412 N 2181.68 1.01656 -1.20431 0
M  V30 23413 C 2182.92 1.75515 -1.016 0
M  V30 23414 C 2183.25 1.88896 0.450791 0
M  V30 23415 O 2182.53 1.4148 1.33468 0
M  V30 23416 C 2182.81 3.17433 -1.70024 0
M  V30 23417 C 2182.67 3.11847 -3.24147 0
M  V30 23418 C 2183.98 4.16105 -1.43334 0
M  V30 23419 H 2181.1 0.637102 -0.370501 0
M  V30 23420 H 2183.75 1.18591 -1.48446 0
M  V30 23421 H 2181.9 3.66035 -1.30195 0
M  V30 23422 H 2183.57 2.71049 -3.7327 0
M  V30 23423 H 2181.81 2.49242 -3.55051 0
M  V30 23424 H 2182.48 4.12169 -3.6718 0
M  V30 23425 H 2184.96 3.76159 -1.77887 0
M  V30 23426 H 2183.83 5.13571 -1.93741 0
M  V30 23427 H 2184.09 4.40624 -0.360952 0
M  V30 23428 N 2183.15 1.01021 1.20965 0
M  V30 23429 C 2184.08 0.5953 2.25784 0
M  V30 23430 C 2185.06 -0.386477 1.65651 0
M  V30 23431 O 2186.25 -0.273315 1.92267 0
M  V30 23432 C 2183.38 -0.0736489 3.47222 0
M  V30 23433 C 2182.33 0.828449 4.19906 0
M  V30 23434 C 2181.66 0.0256242 5.34694 0
M  V30 23435 C 2182.96 2.13351 4.76737 0
M  V30 23436 H 2184.65 1.4715 2.60744 0
M  V30 23437 H 2182.2 0.70899 1.25337 0
M  V30 23438 H 2184.15 -0.375423 4.19724 0
M  V30 23439 H 2182.88 -0.984519 3.11408 0
M  V30 23440 H 2181.54 1.11413 3.4926 0
M  V30 23441 H 2181.18 -0.886697 4.95123 0
M  V30 23442 H 2180.88 0.626319 5.84253 0
M  V30 23443 H 2182.41 -0.269844 6.10003 0
M  V30 23444 H 2183.82 1.89453 5.41092 0
M  V30 23445 H 2182.22 2.68451 5.36707 0
M  V30 23446 H 2183.29 2.80081 3.95832 0
M  V30 23447 N 2184.63 -1.36623 0.78561 0
M  V30 23448 C 2185.54 -2.33889 0.182448 0
M  V30 23449 C 2186.56 -1.60858 -0.66338 0
M  V30 23450 O 2187.73 -1.92866 -0.580058 0
M  V30 23451 C 2184.8 -3.40052 -0.675704 0
M  V30 23452 C 2183.86 -4.28887 0.188182 0
M  V30 23453 C 2183.09 -5.29979 -0.629108 0
M  V30 23454 O 2183.32 -5.39037 -1.86534 0
M  V30 23455 O 2182.25 -6.01892 -0.0310062 0
M  V30 23456 H 2186.08 -2.87229 0.986556 0
M  V30 23457 H 2183.66 -1.39026 0.547001 0
M  V30 23458 H 2185.54 -4.04971 -1.16518 0
M  V30 23459 H 2184.22 -2.89017 -1.45777 0
M  V30 23460 H 2183.12 -3.67021 0.724325 0
M  V30 23461 H 2184.46 -4.83263 0.933665 0
M  V30 23462 N 2186.11 -0.537304 -1.48158 0
M  V30 23463 C 2187.34 -0.0101482 -2.06898 0
M  V30 23464 C 2187.75 1.27458 -1.39283 0
M  V30 23465 O 2187.11 1.76 -0.48274 0
M  V30 23466 C 2187.16 0.209896 -3.6089 0
M  V30 23467 O 2186.88 -1.02394 -4.25966 0
M  V30 23468 C 2188.38 0.776601 -4.36444 0
M  V30 23469 H 2185.6 -0.0368227 -0.669989 0
M  V30 23470 H 2188.15 -0.745039 -1.90445 0
M  V30 23471 H 2186.3 0.894855 -3.76923 0
M  V30 23472 H 2186.72 -0.809231 -5.1822 0
M  V30 23473 H 2188.19 0.879955 -5.44941 0
M  V30 23474 H 2188.67 1.78324 -4.01369 0
M  V30 23475 H 2189.27 0.127975 -4.25107 0
M  V30 23476 N 2187.59 1.55221 -0.272782 0
M  V30 23477 C 2188.5 2.26098 0.62584 0
M  V30 23478 C 2189.51 1.28606 1.17203 0
M  V30 23479 O 2190.69 1.61537 1.20281 0
M  V30 23480 C 2187.76 2.96645 1.7945 0
M  V30 23481 C 2186.82 4.0961 1.28522 0
M  V30 23482 C 2186.05 4.76784 2.39819 0
M  V30 23483 O 2186.27 4.43155 3.59124 0
M  V30 23484 O 2185.21 5.64779 2.08107 0
M  V30 23485 H 2189.03 3.03656 0.0517442 0
M  V30 23486 H 2186.62 1.49346 -0.0402752 0
M  V30 23487 H 2188.5 3.40989 2.47597 0
M  V30 23488 H 2187.17 2.22006 2.35573 0
M  V30 23489 H 2186.08 3.69728 0.570286 0
M  V30 23490 H 2187.41 4.86143 0.769772 0
M  V30 23491 N 2189.07 2.77022e-05 1.576 0
M  V30 23492 C 2190 -0.990304 2.1146 0
M  V30 23493 C 2190.98 -1.35844 1.02374 0
M  V30 23494 O 2192.16 -1.44218 1.30057 0
M  V30 23495 C 2189.29 -2.28215 2.61792 0
M  V30 23496 C 2188.25 -2.05563 3.75404 0
M  V30 23497 C 2187.57 -3.40761 4.12051 0
M  V30 23498 C 2188.87 -1.4182 5.02677 0
M  V30 23499 H 2190.57 -0.541853 2.94456 0
M  V30 23500 H 2188.11 -0.259194 1.41648 0
M  V30 23501 H 2190.07 -2.97851 2.98099 0
M  V30 23502 H 2188.79 -2.75174 1.75918 0
M  V30 23503 H 2187.45 -1.38353 3.39491 0
M  V30 23504 H 2187.1 -3.85423 3.232 0
M  V30 23505 H 2186.8 -3.26421 4.88593 0
M  V30 23506 H 2188.32 -4.11712 4.50916 0
M  V30 23507 H 2189.73 -2.01413 5.36755 0
M  V30 23508 H 2188.13 -1.37967 5.84025 0
M  V30 23509 H 2189.2 -0.387421 4.8335 0
M  V30 23510 N 2190.54 -1.55222 -0.272728 0
M  V30 23511 C 2191.79 -1.76102 -1.00578 0
M  V30 23512 C 2192.12 -0.560658 -1.85931 0
M  V30 23513 O 2191.4 0.441768 -1.89417 0
M  V30 23514 C 2191.68 -3.06631 -1.88811 0
M  V30 23515 C 2191.53 -4.37022 -1.06449 0
M  V30 23516 C 2192.85 -3.33202 -2.87514 0
M  V30 23517 H 2189.97 -0.640705 -0.364233 0
M  V30 23518 H 2192.61 -1.87953 -0.278156 0
M  V30 23519 H 2190.76 -2.96659 -2.5085 0
M  V30 23520 H 2192.44 -4.58953 -0.464782 0
M  V30 23521 H 2190.68 -4.32237 -0.367967 0
M  V30 23522 H 2191.35 -5.24681 -1.71505 0
M  V30 23523 H 2193.83 -3.42969 -2.35609 0
M  V30 23524 H 2192.7 -4.25798 -3.46392 0
M  V30 23525 H 2192.96 -2.52855 -3.62652 0
M  V30 23526 N 2192.02 0.537252 -1.4816 0
M  V30 23527 C 2193.3 1.29837 -1.46294 0
M  V30 23528 C 2193.68 2.10409 -0.17065 0
M  V30 23529 O 2193.03 2.12194 0.847709 0
M  V30 23530 C 2193.24 2.18598 -2.72058 0
M  V30 23531 C 2194.59 2.78974 -3.20092 0
M  V30 23532 O 2195.61 2.28889 -2.72925 0
M  V30 23533 O 2194.47 3.70057 -4.02144 0
M  V30 23534 H 2191.56 0.585637 -0.583916 0
M  V30 23535 H 2194.11 0.554506 -1.60385 0
M  V30 23536 H 2192.88 1.58795 -3.57631 0
M  V30 23537 H 2192.5 3.00244 -2.60651 0
M  V30 23538 N 2193.5 1.36626 0.785562 0
M  V30 23539 C 2194.45 1.27793 1.8882 0
M  V30 23540 C 2195.43 0.168607 1.60014 0
M  V30 23541 O 2196.63 0.401767 1.7238 0
M  V30 23542 C 2193.76 1.07333 3.2609 0
M  V30 23543 C 2192.84 2.22749 3.60893 0
M  V30 23544 N 2193.23 3.48083 3.66976 0
M  V30 23545 C 2191.53 2.14599 3.90977 0
M  V30 23546 C 2192.23 4.24108 3.98129 0
M  V30 23547 N 2191.21 3.53091 4.13313 0
M  V30 23548 H 2195.01 2.22727 1.91755 0
M  V30 23549 H 2192.52 1.29401 0.981288 0
M  V30 23550 H 2194.52 0.990913 4.04952 0
M  V30 23551 H 2193.18 0.133034 3.24427 0
M  V30 23552 H 2194.19 3.82169 3.49525 0
M  V30 23553 H 2190.87 1.28547 3.97218 0
M  V30 23554 H 2192.26 5.32516 4.09727 0
M  V30 23555 N 2194.98 -1.01016 1.20969 0
M  V30 23556 C 2196.22 -1.74973 1.02529 0
M  V30 23557 C 2196.56 -1.89132 -0.440767 0
M  V30 23558 O 2195.83 -1.42186 -1.32715 0
M  V30 23559 C 2196.12 -3.16527 1.71705 0
M  V30 23560 C 2195.97 -3.10124 3.25797 0
M  V30 23561 C 2197.29 -4.15339 1.45539 0
M  V30 23562 H 2194.41 -0.635128 0.373874 0
M  V30 23563 H 2197.05 -1.17802 1.49073 0
M  V30 23564 H 2195.2 -3.65339 1.32135 0
M  V30 23565 H 2196.87 -2.69066 3.74702 0
M  V30 23566 H 2195.11 -2.47356 3.56367 0
M  V30 23567 H 2195.78 -4.10216 3.6936 0
M  V30 23568 H 2198.26 -3.7521 1.79879 0
M  V30 23569 H 2197.14 -5.12537 1.96462 0
M  V30 23570 H 2197.4 -4.40426 0.384315 0
M  V30 23571 N 2196.46 -1.01661 -1.20428 0
M  V30 23572 C 2197.39 -0.607265 -2.25465 0
M  V30 23573 C 2198.37 0.377687 -1.65854 0
M  V30 23574 O 2199.55 0.263115 -1.92409 0
M  V30 23575 C 2196.68 0.0552339 -3.47256 0
M  V30 23576 C 2195.64 -0.850705 -4.1946 0
M  V30 23577 C 2194.96 -0.0539799 -5.34673 0
M  V30 23578 C 2196.26 -2.15876 -4.75599 0
M  V30 23579 H 2197.96 -1.48531 -2.5996 0
M  V30 23580 H 2195.5 -0.715627 -1.24959 0
M  V30 23581 H 2197.46 0.353159 -4.19918 0
M  V30 23582 H 2196.18 0.967991 -3.11925 0
M  V30 23583 H 2194.84 -1.13263 -3.48665 0
M  V30 23584 H 2194.49 0.860427 -4.95586 0
M  V30 23585 H 2194.19 -0.657295 -5.83912 0
M  V30 23586 H 2195.71 0.237491 -6.10138 0
M  V30 23587 H 2197.12 -1.9232 -5.40079 0
M  V30 23588 H 2195.52 -2.71293 -5.35276 0
M  V30 23589 H 2196.59 -2.82176 -3.94341 0
M  V30 23590 N 2197.93 1.36205 -0.792844 0
M  V30 23591 C 2198.87 2.28699 -0.15151 0
M  V30 23592 C 2199.88 1.4964 0.641235 0
M  V30 23593 O 2201.07 1.7204 0.475854 0
M  V30 23594 C 2198.17 3.29118 0.808366 0
M  V30 23595 C 2197.34 4.37352 0.0649434 0
M  V30 23596 C 2196.4 5.17713 0.941267 0
M  V30 23597 O 2195.43 5.67812 0.397252 0
M  V30 23598 N 2196.63 5.34484 2.26511 0
M  V30 23599 H 2199.39 2.84377 -0.946032 0
M  V30 23600 H 2196.95 1.48407 -0.647058 0
M  V30 23601 H 2198.95 3.79767 1.39853 0
M  V30 23602 H 2197.52 2.74055 1.50375 0
M  V30 23603 H 2196.74 3.8782 -0.706324 0
M  V30 23604 H 2198.02 5.06824 -0.447936 0
M  V30 23605 H 2197.42 4.95401 2.73119 0
M  V30 23606 H 2195.98 5.88364 2.80483 0
M  V30 23607 N 2199.41 0.545154 1.47871 0
M  V30 23608 C 2200.36 -0.20926 2.29849 0
M  V30 23609 C 2201.33 -0.919683 1.38315 0
M  V30 23610 O 2202.51 -0.917743 1.67279 0
M  V30 23611 C 2199.65 -1.24083 3.22021 0
M  V30 23612 C 2198.77 -0.537702 4.28641 0
M  V30 23613 C 2197.9 -1.55351 5.07976 0
M  V30 23614 C 2196.94 -0.834694 6.06382 0
M  V30 23615 N 2196.08 -1.79676 6.7872 0
M  V30 23616 H 2200.92 0.495962 2.93844 0
M  V30 23617 H 2198.46 0.256415 1.44848 0
M  V30 23618 H 2200.41 -1.85137 3.73872 0
M  V30 23619 H 2199.04 -1.91424 2.59917 0
M  V30 23620 H 2198.1 0.187112 3.7994 0
M  V30 23621 H 2199.41 0.0259783 4.98793 0
M  V30 23622 H 2198.56 -2.23793 5.63916 0
M  V30 23623 H 2197.3 -2.1511 4.37697 0
M  V30 23624 H 2196.31 -0.136291 5.49631 0
M  V30 23625 H 2197.53 -0.24301 6.78665 0
M  V30 23626 H 2195.48 -2.38315 6.11181 0
M  V30 23627 H 2195.39 -1.28492 7.45001 0
M  V30 23628 H 2196.66 -2.47269 7.39242 0
M  V30 23629 N 2200.89 -1.55074 0.28101 0
M  V30 23630 C 2201.82 -2.25728 -0.597429 0
M  V30 23631 C 2202.8 -1.24954 -1.15415 0
M  V30 23632 O 2203.99 -1.53686 -1.1872 0
M  V30 23633 C 2201.12 -2.98286 -1.77884 0
M  V30 23634 C 2200.07 -4.06038 -1.35339 0
M  V30 23635 C 2199.4 -4.66203 -2.61838 0
M  V30 23636 C 2200.7 -5.19908 -0.499263 0
M  V30 23637 H 2202.39 -2.99399 -0.00819002 0
M  V30 23638 H 2199.94 -1.44 -0.00249909 0
M  V30 23639 H 2201.89 -3.46426 -2.39931 0
M  V30 23640 H 2200.61 -2.22159 -2.39401 0
M  V30 23641 H 2199.27 -3.58718 -0.756093 0
M  V30 23642 H 2198.92 -3.86738 -3.21625 0
M  V30 23643 H 2198.62 -5.38962 -2.3408 0
M  V30 23644 H 2200.14 -5.17095 -3.24723 0
M  V30 23645 H 2201.56 -5.64065 -1.02488 0
M  V30 23646 H 2199.96 -5.99266 -0.316319 0
M  V30 23647 H 2201.03 -4.82513 0.480544 0
M  V30 23648 N 2202.37 -0.00838561 -1.57598 0
M  V30 23649 C 2203.79 0.347795 -1.55764 0
M  V30 23650 C 2203.99 1.7425 -1.01189 0
M  V30 23651 O 2203.04 2.44006 -0.649414 0
M  V30 23652 C 2204.35 0.215355 -2.99928 0
M  V30 23653 C 2205.9 0.289671 -3.11657 0
M  V30 23654 C 2206.38 0.186259 -4.57621 0
M  V30 23655 N 2207.87 0.243897 -4.62557 0
M  V30 23656 C 2208.6 0.187349 -5.73094 0
M  V30 23657 N 2208.1 0.0809113 -6.92753 0
M  V30 23658 N 2209.89 0.239827 -5.61588 0
M  V30 23659 H 2202.04 -0.920654 -1.9141 0
M  V30 23660 H 2204.31 -0.353675 -0.879556 0
M  V30 23661 H 2204.01 -0.744572 -3.43728 0
M  V30 23662 H 2203.89 0.994033 -3.63866 0
M  V30 23663 H 2206.27 1.24005 -2.67781 0
M  V30 23664 H 2206.35 -0.519024 -2.50479 0
M  V30 23665 H 2206 -0.760608 -5.02172 0
M  V30 23666 H 2205.93 1.01355 -5.16754 0
M  V30 23667 H 2208.42 0.327151 -3.76481 0
M  V30 23668 H 2208.73 0.0438883 -7.72788 0
M  V30 23669 H 2207.08 0.0464198 -6.94984 0
M  V30 23670 H 2210.27 0.321234 -4.66996 0
M  V30 23671 H 2210.44 0.192293 -6.47715 0
M  V30 23672 N 2203.85 1.55365 0.264492 0
M  V30 23673 C 2205.08 1.80407 1.01297 0
M  V30 23674 C 2205.49 0.581654 1.79617 0
M  V30 23675 O 2204.85 -0.449437 1.76879 0
M  V30 23676 C 2204.9 3.03442 1.96482 0
M  V30 23677 O 2204.62 4.20963 1.21334 0
M  V30 23678 C 2206.12 3.41152 2.83073 0
M  V30 23679 H 2203.34 0.600767 0.298865 0
M  V30 23680 H 2205.88 2.02394 0.2927 0
M  V30 23681 H 2204.04 2.83556 2.6396 0
M  V30 23682 H 2204.45 4.90577 1.85564 0
M  V30 23683 H 2205.93 4.3039 3.45642 0
M  V30 23684 H 2206.4 2.60938 3.53282 0
M  V30 23685 H 2207.01 3.63327 2.21073 0
M  V30 23686 N 2205.33 -0.529387 1.48443 0
M  V30 23687 C 2206.27 -1.63391 1.63009 0
M  V30 23688 C 2207.24 -1.59248 0.472148 0
M  V30 23689 O 2208.43 -1.77664 0.695704 0
M  V30 23690 C 2205.57 -3.0165 1.67635 0
M  V30 23691 C 2204.68 -3.16022 2.94541 0
M  V30 23692 C 2203.82 -4.44844 2.90323 0
M  V30 23693 C 2202.85 -4.52747 4.11931 0
M  V30 23694 N 2201.99 -5.72958 4.05788 0
M  V30 23695 H 2206.83 -1.5028 2.57332 0
M  V30 23696 H 2204.37 -0.731634 1.27615 0
M  V30 23697 H 2206.33 -3.81748 1.68299 0
M  V30 23698 H 2204.96 -3.1353 0.768025 0
M  V30 23699 H 2204.01 -2.29172 3.03619 0
M  V30 23700 H 2205.32 -3.17723 3.84518 0
M  V30 23701 H 2204.47 -5.33233 2.89391 0
M  V30 23702 H 2203.21 -4.45665 1.98076 0
M  V30 23703 H 2202.22 -3.62764 4.13137 0
M  V30 23704 H 2203.44 -4.53663 5.05338 0
M  V30 23705 H 2201.39 -5.74675 3.16361 0
M  V30 23706 H 2201.31 -5.76155 4.8947 0
M  V30 23707 H 2202.57 -6.63633 4.08915 0
M  V30 23708 N 2206.8 -1.37041 -0.778305 0
M  V30 23709 C 2208.05 -1.32082 -1.5389 0
M  V30 23710 C 2208.38 0.0965045 -1.9396 0
M  V30 23711 O 2207.66 1.05239 -1.6357 0
M  V30 23712 C 2207.94 -2.25387 -2.80843 0
M  V30 23713 C 2207.79 -3.75868 -2.47069 0
M  V30 23714 C 2209.11 -2.17257 -3.82737 0
M  V30 23715 H 2206.23 -0.48112 -0.558294 0
M  V30 23716 H 2208.87 -1.67687 -0.893368 0
M  V30 23717 H 2207.02 -1.95153 -3.35928 0
M  V30 23718 H 2208.7 -4.1667 -1.9795 0
M  V30 23719 H 2206.94 -3.94758 -1.79856 0
M  V30 23720 H 2207.61 -4.36579 -3.3779 0
M  V30 23721 H 2210.09 -2.43893 -3.37128 0
M  V30 23722 H 2208.96 -2.84694 -4.69298 0
M  V30 23723 H 2209.22 -1.16339 -4.26518 0
M  V30 23724 N 2208.28 1.00373 -1.21503 0
M  V30 23725 C 2209.51 1.77742 -1.05903 0
M  V30 23726 C 2209.92 1.84705 0.391093 0
M  V30 23727 O 2209.28 1.30935 1.27131 0
M  V30 23728 C 2209.33 3.21588 -1.65116 0
M  V30 23729 O 2209.05 3.15022 -3.04455 0
M  V30 23730 C 2210.55 4.15451 -1.54645 0
M  V30 23731 H 2207.77 0.558551 -0.371835 0
M  V30 23732 H 2210.32 1.26262 -1.60867 0
M  V30 23733 H 2208.47 3.70173 -1.14241 0
M  V30 23734 H 2208.89 4.05404 -3.32788 0
M  V30 23735 H 2210.36 5.14176 -2.00817 0
M  V30 23736 H 2210.84 4.36332 -0.501099 0
M  V30 23737 H 2211.44 3.72757 -2.04773 0
M  V30 23738 N 2209.76 1.02298 1.19887 0
M  V30 23739 C 2211.04 0.630864 1.85147 0
M  V30 23740 C 2211.42 -0.890748 1.91387 0
M  V30 23741 O 2210.76 -1.78506 1.42645 0
M  V30 23742 C 2210.97 1.28608 3.2444 0
M  V30 23743 C 2212.32 1.40557 4.00661 0
M  V30 23744 O 2213.35 1.24279 3.33816 0
M  V30 23745 O 2212.21 1.66922 5.20384 0
M  V30 23746 H 2209.3 0.218513 0.79761 0
M  V30 23747 H 2211.85 1.12076 1.27425 0
M  V30 23748 H 2210.62 2.32551 3.147 0
M  V30 23749 H 2210.24 0.783669 3.898 0
M  V30 23750 N 2211.24 -1.35782 0.800057 0
M  V30 23751 C 2212.15 -2.33683 0.207245 0
M  V30 23752 C 2213.16 -1.61552 -0.646282 0
M  V30 23753 O 2214.34 -1.9347 -0.55957 0
M  V30 23754 C 2211.4 -3.40749 -0.639599 0
M  V30 23755 C 2210.47 -4.28664 0.23366 0
M  V30 23756 C 2209.7 -5.30617 -0.572861 0
M  V30 23757 O 2209.92 -5.40986 -1.80806 0
M  V30 23758 O 2208.86 -6.01891 0.0328343 0
M  V30 23759 H 2212.68 -2.86167 1.01697 0
M  V30 23760 H 2210.27 -1.38438 0.561715 0
M  V30 23761 H 2212.15 -4.06184 -1.12216 0
M  V30 23762 H 2210.82 -2.90547 -1.42703 0
M  V30 23763 H 2209.73 -3.66232 0.763212 0
M  V30 23764 H 2211.06 -4.82246 0.984869 0
M  V30 23765 N 2212.72 -0.552988 -1.4758 0
M  V30 23766 C 2214.13 -0.212452 -1.5818 0
M  V30 23767 C 2214.33 1.28493 -1.55215 0
M  V30 23768 O 2213.39 2.06482 -1.45333 0
M  V30 23769 C 2214.7 -0.835368 -2.88863 0
M  V30 23770 C 2216.25 -0.806209 -3.02439 0
M  V30 23771 C 2216.72 -1.40812 -4.35817 0
M  V30 23772 N 2218.21 -1.37111 -4.42442 0
M  V30 23773 C 2218.95 -1.80651 -5.44199 0
M  V30 23774 N 2218.45 -2.32027 -6.5279 0
M  V30 23775 N 2220.24 -1.71747 -5.35219 0
M  V30 23776 H 2212.39 -1.5259 -1.4775 0
M  V30 23777 H 2214.65 -0.636076 -0.70293 0
M  V30 23778 H 2214.36 -1.88754 -2.96757 0
M  V30 23779 H 2214.23 -0.325914 -3.75789 0
M  V30 23780 H 2216.62 0.237265 -2.94145 0
M  V30 23781 H 2216.7 -1.35338 -2.17065 0
M  V30 23782 H 2216.34 -2.45064 -4.44866 0
M  V30 23783 H 2216.27 -0.83643 -5.19915 0
M  V30 23784 H 2218.77 -0.995266 -3.64558 0
M  V30 23785 H 2219.08 -2.63184 -7.26604 0
M  V30 23786 H 2217.42 -2.36035 -6.53691 0
M  V30 23787 H 2220.61 -1.3139 -4.49282 0
M  V30 23788 H 2220.79 -2.05998 -6.14385 0
M  V30 23789 N 2214.19 1.54923 -0.28923 0
M  V30 23790 C 2215.14 2.24515 0.607926 0
M  V30 23791 C 2216.14 1.24704 1.14653 0
M  V30 23792 O 2217.34 1.42591 1.09853 0
M  V30 23793 H 2213.72 0.720721 0.214627 0
M  V30 23794 H 2215.69 2.984 -0.00169428 0
M  V30 23795 C 2214.44 2.99039 1.77401 0
M  V30 23796 H 2213.76 3.75639 1.36877 0
M  V30 23797 H 2215.2 3.51032 2.37807 0
M  V30 23798 C 2213.66 2.05323 2.67103 0
M  V30 23799 O 2214.19 1.6136 3.67867 0
M  V30 23800 N 2212.39 1.71526 2.34579 0
M  V30 23801 H 2211.94 2.07473 1.52685 0
M  V30 23802 H 2211.9 1.09095 2.94865 0
M  V30 23803 N 2215.67 0.0167433 1.57591 0
M  V30 23804 C 2216.92 -0.663251 1.90907 0
M  V30 23805 C 2217.24 -1.73375 0.892539 0
M  V30 23806 O 2216.51 -1.95783 -0.0677279 0
M  V30 23807 H 2215.09 -0.247971 0.704641 0
M  V30 23808 H 2217.75 0.0616251 1.94803 0
M  V30 23809 H 2216.85 -1.12387 2.91162 0
M  V30 23810 N 2217.15 -1.55503 -0.256249 0
M  V30 23811 C 2218.57 -1.47717 -0.604299 0
M  V30 23812 C 2218.77 -0.705072 -1.88762 0
M  V30 23813 O 2217.82 -0.230657 -2.51444 0
M  V30 23814 C 2219.14 -2.92058 -0.715705 0
M  V30 23815 C 2220.68 -3.02374 -0.808653 0
M  V30 23816 C 2221.16 -4.48003 -0.951698 0
M  V30 23817 N 2222.65 -4.51902 -1.0168 0
M  V30 23818 C 2223.38 -5.61819 -1.14658 0
M  V30 23819 N 2222.88 -6.81567 -1.24249 0
M  V30 23820 N 2224.67 -5.49596 -1.17901 0
M  V30 23821 H 2216.82 -2.04147 0.586327 0
M  V30 23822 H 2219.09 -0.92644 0.201031 0
M  V30 23823 H 2218.79 -3.51349 0.157089 0
M  V30 23824 H 2218.67 -3.42021 -1.59065 0
M  V30 23825 H 2221.05 -2.43169 -1.6719 0
M  V30 23826 H 2221.14 -2.55637 0.0912512 0
M  V30 23827 H 2220.78 -5.07815 -0.0930398 0
M  V30 23828 H 2220.71 -4.92412 -1.8665 0
M  V30 23829 H 2223.2 -3.65649 -0.954404 0
M  V30 23830 H 2223.51 -7.61088 -1.34033 0
M  V30 23831 H 2221.86 -6.84346 -1.21224 0
M  V30 23832 H 2225.05 -4.5498 -1.10049 0
M  V30 23833 H 2225.22 -6.35299 -1.2767 0
M  V30 23834 N 2218.63 0.521507 -1.48721 0
M  V30 23835 C 2219.54 1.652 -1.66572 0
M  V30 23836 C 2220.55 1.65138 -0.548226 0
M  V30 23837 O 2221.73 1.83934 -0.820371 0
M  V30 23838 C 2218.8 3.01639 -1.70923 0
M  V30 23839 C 2217.86 3.1249 -2.94361 0
M  V30 23840 C 2217.09 4.42421 -2.98495 0
M  V30 23841 O 2217.31 5.3002 -2.10796 0
M  V30 23842 O 2216.25 4.57815 -3.90754 0
M  V30 23843 H 2220.07 1.53075 -2.62301 0
M  V30 23844 H 2217.66 0.695541 -1.32222 0
M  V30 23845 H 2219.54 3.82768 -1.76256 0
M  V30 23846 H 2218.21 3.1407 -0.783688 0
M  V30 23847 H 2217.12 2.30625 -2.94556 0
M  V30 23848 H 2218.45 3.04979 -3.86327 0
M  V30 23849 N 2220.11 1.37452 0.771027 0
M  V30 23850 C 2221.07 1.33097 1.86596 0
M  V30 23851 C 2222.07 0.234873 1.59075 0
M  V30 23852 O 2223.26 0.490762 1.67144 0
M  V30 23853 C 2220.39 1.06779 3.23745 0
M  V30 23854 H 2221.58 2.30492 1.91869 0
M  V30 23855 H 2219.14 1.22491 0.970855 0
M  V30 23856 H 2219.87 0.099186 3.24148 0
M  V30 23857 H 2219.66 1.86118 3.45112 0
M  V30 23858 H 2221.15 1.06384 4.03822 0
M  V30 23859 N 2221.58 -0.997276 1.22033 0
M  V30 23860 C 2222.81 -1.77713 1.06924 0
M  V30 23861 C 2223.23 -1.843 -0.376193 0
M  V30 23862 O 2222.59 -1.29226 -1.27163 0
M  V30 23863 C 2222.64 -3.19073 1.68002 0
M  V30 23864 O 2221.74 -4.0176 0.930723 0
M  V30 23865 H 2221.09 -0.547405 0.375824 0
M  V30 23866 H 2223.62 -1.25306 1.61739 0
M  V30 23867 H 2223.63 -3.6972 1.72544 0
M  V30 23868 H 2222.3 -3.13594 2.73188 0
M  V30 23869 H 2220.88 -3.60305 0.96098 0
M  V30 23870 N 2223.06 -1.02932 -1.19343 0
M  V30 23871 C 2224.34 -0.640674 -1.8481 0
M  V30 23872 C 2224.72 0.880586 -1.91856 0
M  V30 23873 O 2224.07 1.77747 -1.4359 0
M  V30 23874 C 2224.28 -1.30327 -3.23753 0
M  V30 23875 C 2225.63 -1.4268 -3.9991 0
M  V30 23876 O 2226.65 -1.26047 -3.33152 0
M  V30 23877 O 2225.51 -1.69679 -5.19491 0
M  V30 23878 H 2222.6 -0.22274 -0.79644 0
M  V30 23879 H 2225.15 -1.1275 -1.26829 0
M  V30 23880 H 2223.92 -2.34216 -3.13462 0
M  V30 23881 H 2223.54 -0.80433 -3.89379 0
M  V30 23882 N 2224.54 1.35356 -0.807246 0
M  V30 23883 C 2225.49 2.31684 -0.206181 0
M  V30 23884 C 2226.48 1.56664 0.644418 0
M  V30 23885 O 2227.69 1.71787 0.537508 0
M  V30 23886 H 2224.06 0.750472 -0.0479138 0
M  V30 23887 H 2226.03 2.79922 -1.03373 0
M  V30 23888 C 2224.78 3.41942 0.630152 0
M  V30 23889 H 2224.11 3.99797 -0.0150261 0
M  V30 23890 H 2225.55 4.1162 1.01709 0
M  V30 23891 C 2224.01 2.85038 1.79596 0
M  V30 23892 O 2224.54 2.78642 2.89346 0
M  V30 23893 N 2222.74 2.42077 1.6077 0
M  V30 23894 H 2222.29 2.47479 0.714965 0
M  V30 23895 H 2222.25 2.04353 2.38929 0
M  V30 23896 N 2226.02 0.560807 1.47284 0
M  V30 23897 C 2226.95 -0.173064 2.32858 0
M  V30 23898 C 2227.93 -0.905255 1.44011 0
M  V30 23899 O 2229.11 -0.885016 1.72862 0
M  V30 23900 C 2226.24 -1.20127 3.25863 0
M  V30 23901 C 2225.2 -0.585313 4.23979 0
M  V30 23902 C 2224.52 -1.71841 5.06335 0
M  V30 23903 C 2225.82 0.46327 5.20241 0
M  V30 23904 H 2227.52 0.541359 2.94465 0
M  V30 23905 H 2225.06 0.261789 1.416 0
M  V30 23906 H 2227.02 -1.72286 3.84572 0
M  V30 23907 H 2225.74 -1.94568 2.62318 0
M  V30 23908 H 2224.4 -0.0849896 3.66501 0
M  V30 23909 H 2224.05 -2.45195 4.3919 0
M  V30 23910 H 2223.75 -1.31203 5.72765 0
M  V30 23911 H 2225.27 -2.24319 5.67902 0
M  V30 23912 H 2226.69 0.0276027 5.73293 0
M  V30 23913 H 2225.08 0.788731 5.94894 0
M  V30 23914 H 2226.15 1.35782 4.65501 0
M  V30 23915 N 2227.5 -1.54768 0.297442 0
M  V30 23916 C 2228.46 -2.22067 -0.567336 0
M  V30 23917 C 2229.46 -1.20558 -1.06407 0
M  V30 23918 O 2230.65 -1.45316 -0.960666 0
M  V30 23919 C 2227.78 -2.90424 -1.78512 0
M  V30 23920 H 2228.97 -2.99893 0.0206061 0
M  V30 23921 H 2226.53 -1.56226 0.0482438 0
M  V30 23922 H 2227.26 -2.16668 -2.41299 0
M  V30 23923 H 2227.05 -3.64834 -1.43663 0
M  V30 23924 H 2228.54 -3.41775 -2.39958 0
M  V30 23925 N 2228.97 -0.0251005 -1.5758 0
M  V30 23926 C 2230.22 0.65538 -1.91918 0
M  V30 23927 C 2230.55 1.7201 -0.901464 0
M  V30 23928 O 2229.83 1.9435 0.0763727 0
M  V30 23929 C 2230.11 1.27552 -3.36753 0
M  V30 23930 C 2229.96 0.22064 -4.49259 0
M  V30 23931 C 2231.28 2.19468 -3.81473 0
M  V30 23932 H 2228.4 0.236778 -0.697929 0
M  V30 23933 H 2231.04 -0.081537 -1.89825 0
M  V30 23934 H 2229.19 1.90359 -3.38667 0
M  V30 23935 H 2230.87 -0.409682 -4.59477 0
M  V30 23936 H 2229.11 -0.45434 -4.31414 0
M  V30 23937 H 2229.78 0.694079 -5.47619 0
M  V30 23938 H 2232.26 1.66652 -3.81269 0
M  V30 23939 H 2231.13 2.59813 -4.83516 0
M  V30 23940 H 2231.39 3.08419 -3.1675 0
M  V30 23941 N 2230.45 1.55637 0.247999 0
M  V30 23942 C 2231.38 1.86672 1.3299 0
M  V30 23943 C 2232.4 0.752903 1.44344 0
M  V30 23944 O 2233.59 1.03101 1.45714 0
M  V30 23945 C 2230.69 2.03687 2.7086 0
M  V30 23946 C 2229.86 3.34537 2.81786 0
M  V30 23947 C 2228.92 3.41308 4.00494 0
M  V30 23948 O 2227.94 4.14526 3.90073 0
M  V30 23949 N 2229.15 2.70521 5.13613 0
M  V30 23950 H 2231.91 2.80062 1.06702 0
M  V30 23951 H 2229.47 1.5586 0.438101 0
M  V30 23952 H 2231.46 2.05559 3.48608 0
M  V30 23953 H 2230.03 1.17046 2.8986 0
M  V30 23954 H 2229.25 3.44991 1.90723 0
M  V30 23955 H 2230.54 4.20786 2.86036 0
M  V30 23956 H 2229.94 2.10765 5.24971 0
M  V30 23957 H 2228.5 2.78087 5.895 0
M  V30 23958 N 2231.93 -0.513613 1.48996 0
M  V30 23959 C 2232.88 -1.63741 1.65201 0
M  V30 23960 C 2233.87 -1.61282 0.518118 0
M  V30 23961 O 2235.08 -1.65942 0.697364 0
M  V30 23962 H 2231.45 -0.542565 0.520699 0
M  V30 23963 H 2233.43 -1.47222 2.59554 0
M  V30 23964 C 2232.17 -3.01942 1.72414 0
M  V30 23965 H 2231.5 -3.04535 2.59034 0
M  V30 23966 H 2232.94 -3.80145 1.87792 0
M  V30 23967 C 2231.4 -3.33658 0.466238 0
M  V30 23968 O 2231.93 -3.99564 -0.413674 0
M  V30 23969 N 2230.13 -2.88686 0.332981 0
M  V30 23970 H 2229.68 -2.35229 1.05001 0
M  V30 23971 H 2229.64 -3.10275 -0.507611 0
M  V30 23972 N 2233.41 -1.37859 -0.763727 0
M  V30 23973 C 2234.34 -1.36978 -1.89101 0
M  V30 23974 C 2235.32 -0.237182 -1.68438 0
M  V30 23975 O 2236.51 -0.438747 -1.89179 0
M  V30 23976 C 2233.64 -1.18401 -3.26494 0
M  V30 23977 C 2232.59 -2.28758 -3.61737 0
M  V30 23978 C 2231.92 -1.95295 -4.97759 0
M  V30 23979 C 2233.22 -3.70978 -3.67658 0
M  V30 23980 H 2234.91 -2.3131 -1.90095 0
M  V30 23981 H 2232.46 -1.11343 -0.91317 0
M  V30 23982 H 2234.41 -1.16413 -4.05001 0
M  V30 23983 H 2233.13 -0.205272 -3.25954 0
M  V30 23984 H 2231.79 -2.29914 -2.85543 0
M  V30 23985 H 2231.44 -0.959307 -4.93767 0
M  V30 23986 H 2231.14 -2.69198 -5.22308 0
M  V30 23987 H 2232.66 -1.94908 -5.78656 0
M  V30 23988 H 2234.08 -3.71907 -4.363 0
M  V30 23989 H 2232.47 -4.44002 -4.0371 0
M  V30 23990 H 2233.54 -4.04025 -2.68127 0
M  V30 23991 N 2234.89 0.990791 -1.22561 0
M  V30 23992 C 2235.83 2.08129 -0.997555 0
M  V30 23993 C 2236.8 1.659 0.081441 0
M  V30 23994 O 2237.99 1.90677 -0.0685759 0
M  V30 23995 C 2235.13 3.40128 -0.583675 0
M  V30 23996 C 2234.24 3.95687 -1.73367 0
M  V30 23997 C 2233.38 5.15855 -1.26757 0
M  V30 23998 C 2232.42 5.63555 -2.38898 0
M  V30 23999 N 2231.55 6.74961 -1.9332 0
M  V30 24000 H 2236.39 2.2697 -1.93103 0
M  V30 24001 H 2233.93 1.11272 -0.962133 0
M  V30 24002 H 2235.89 4.15933 -0.324874 0
M  V30 24003 H 2234.52 3.21281 0.312789 0
M  V30 24004 H 2233.57 3.16734 -2.10674 0
M  V30 24005 H 2234.88 4.27067 -2.57712 0
M  V30 24006 H 2234.04 5.98956 -0.966278 0
M  V30 24007 H 2232.78 4.86103 -0.394357 0
M  V30 24008 H 2231.78 4.79041 -2.69814 0
M  V30 24009 H 2233.01 5.95331 -3.26739 0
M  V30 24010 H 2230.95 6.46988 -1.08364 0
M  V30 24011 H 2230.87 7.0567 -2.7123 0
M  V30 24012 H 2232.14 7.61562 -1.66265 0
M  V30 24013 N 2236.37 1.03564 1.18795 0
M  V30 24014 C 2237.61 0.734602 1.88276 0
M  V30 24015 C 2237.93 -0.739554 1.80432 0
M  V30 24016 O 2237.2 -1.53331 1.21928 0
M  V30 24017 H 2235.78 0.268737 0.696986 0
M  V30 24018 H 2238.45 1.31131 1.44189 0
M  V30 24019 H 2237.54 1.03494 2.94441 0
M  V30 24020 N 2237.84 -1.34926 0.814413 0
M  V30 24021 C 2239.07 -2.03304 0.410133 0
M  V30 24022 C 2239.49 -1.60953 -0.973436 0
M  V30 24023 O 2238.85 -0.789993 -1.63183 0
M  V30 24024 C 2238.9 -3.56967 0.510553 0
M  V30 24025 O 2238 -4.09679 -0.472963 0
M  V30 24026 H 2237.34 -0.641843 0.170099 0
M  V30 24027 H 2239.87 -1.72356 1.10247 0
M  V30 24028 H 2239.88 -4.06196 0.383206 0
M  V30 24029 H 2238.56 -3.87141 1.5197 0
M  V30 24030 H 2237.14 -3.71649 -0.305206 0
M  V30 24031 N 2239.32 -0.56861 -1.46985 0
M  V30 24032 C 2240.57 -0.0488342 -2.02441 0
M  V30 24033 C 2240.9 1.30556 -1.44171 0
M  V30 24034 O 2240.15 1.86555 -0.591246 0
M  V30 24035 C 2240.45 0.0817731 -3.57306 0
M  V30 24036 C 2240.12 -1.2032 -4.3455 0
M  V30 24037 C 2238.78 -1.55528 -4.55373 0
M  V30 24038 C 2241.13 -2.05419 -4.79012 0
M  V30 24039 C 2238.46 -2.7566 -5.17908 0
M  V30 24040 C 2240.81 -3.24764 -5.42873 0
M  V30 24041 C 2239.47 -3.60271 -5.61926 0
M  V30 24042 H 2238.74 -0.0178697 -0.740784 0
M  V30 24043 H 2241.39 -0.742415 -1.76523 0
M  V30 24044 H 2239.7 0.858396 -3.82281 0
M  V30 24045 H 2241.39 0.499476 -3.97877 0
M  V30 24046 H 2237.98 -0.919088 -4.1863 0
M  V30 24047 H 2242.17 -1.79524 -4.62693 0
M  V30 24048 H 2237.42 -3.03324 -5.30852 0
M  V30 24049 H 2241.6 -3.90983 -5.76286 0
M  V30 24050 H 2239.22 -4.5345 -6.10153 0
M  V30 24051 N 2240.8 1.54608 -0.305646 0
M  V30 24052 C 2242.02 2.05107 0.307526 0
M  V30 24053 C 2242.45 1.18125 1.46383 0
M  V30 24054 O 2241.81 0.186356 1.8034 0
M  V30 24055 C 2241.86 3.52989 0.736978 0
M  V30 24056 O 2240.96 3.69013 1.84128 0
M  V30 24057 H 2240.3 0.661382 0.0589027 0
M  V30 24058 H 2242.83 1.99616 -0.448842 0
M  V30 24059 H 2242.84 3.94927 1.02452 0
M  V30 24060 H 2241.52 4.15758 -0.108847 0
M  V30 24061 H 2240.09 3.3898 1.55392 0
M  V30 24062 N 2242.28 0.033457 1.57564 0
M  V30 24063 C 2243.23 -0.964923 2.11641 0
M  V30 24064 C 2244.22 -1.33405 1.044 0
M  V30 24065 O 2245.43 -1.31578 1.2283 0
M  V30 24066 H 2241.8 -0.328968 0.676228 0
M  V30 24067 H 2243.77 -0.483562 2.94456 0
M  V30 24068 C 2242.52 -2.23667 2.66211 0
M  V30 24069 H 2241.84 -1.96139 3.48381 0
M  V30 24070 H 2243.28 -2.91724 3.0769 0
M  V30 24071 C 2241.74 -2.96936 1.59156 0
M  V30 24072 O 2242.27 -3.89209 0.993927 0
M  V30 24073 N 2240.48 -2.59349 1.31097 0
M  V30 24074 H 2240.03 -1.8439 1.79883 0
M  V30 24075 H 2239.98 -3.08681 0.596943 0
M  V30 24076 N 2243.76 -1.55766 -0.239741 0
M  V30 24077 C 2244.72 -1.90105 -1.28034 0
M  V30 24078 C 2245.72 -0.77808 -1.40722 0
M  V30 24079 O 2246.91 -1.04601 -1.39299 0
M  V30 24080 C 2244.04 -2.13581 -2.65699 0
M  V30 24081 H 2245.23 -2.83158 -0.987998 0
M  V30 24082 H 2242.79 -1.48768 -0.479356 0
M  V30 24083 H 2243.52 -1.2302 -3.00061 0
M  V30 24084 H 2243.31 -2.95374 -2.5787 0
M  V30 24085 H 2244.8 -2.41307 -3.40823 0
M  V30 24086 N 2245.23 0.505704 -1.49266 0
M  V30 24087 C 2246.46 1.28899 -1.6248 0
M  V30 24088 C 2246.88 1.85782 -0.294365 0
M  V30 24089 O 2246.24 1.65627 0.737383 0
M  V30 24090 C 2246.29 2.39843 -2.69273 0
M  V30 24091 O 2245.39 3.43563 -2.28119 0
M  V30 24092 H 2244.73 0.380741 -0.543996 0
M  V30 24093 H 2247.26 0.605918 -1.95422 0
M  V30 24094 H 2247.27 2.85676 -2.91296 0
M  V30 24095 H 2245.95 1.97806 -3.65849 0
M  V30 24096 H 2244.53 3.03682 -2.16407 0
M  V30 24097 N 2246.71 1.38262 0.756405 0
M  V30 24098 C 2247.96 1.34049 1.51245 0
M  V30 24099 C 2248.28 -0.069803 1.94875 0
M  V30 24100 O 2247.55 -1.01693 1.67438 0
M  V30 24101 H 2246.13 0.493232 0.561009 0
M  V30 24102 H 2248.79 1.72911 0.899317 0
M  V30 24103 H 2247.89 1.98951 2.40468 0
M  V30 24104 N 2248.19 -0.984277 1.23084 0
M  V30 24105 C 2249.12 -2.09409 1.03296 0
M  V30 24106 C 2250.1 -1.7003 -0.0488931 0
M  V30 24107 O 2251.29 -1.93859 0.115001 0
M  V30 24108 C 2248.42 -3.41735 0.619215 0
M  V30 24109 C 2247.37 -3.95001 1.64798 0
M  V30 24110 C 2246.7 -5.23476 1.08979 0
M  V30 24111 C 2248 -4.24708 3.04007 0
M  V30 24112 H 2249.69 -2.26222 1.96123 0
M  V30 24113 H 2247.24 -1.0871 0.944363 0
M  V30 24114 H 2249.19 -4.18795 0.467851 0
M  V30 24115 H 2247.91 -3.24776 -0.344729 0
M  V30 24116 H 2246.57 -3.20082 1.78726 0
M  V30 24117 H 2246.22 -5.02864 0.116948 0
M  V30 24118 H 2245.92 -5.60082 1.77714 0
M  V30 24119 H 2247.44 -6.03161 0.950199 0
M  V30 24120 H 2248.86 -4.92532 2.93402 0
M  V30 24121 H 2247.26 -4.72506 3.69944 0
M  V30 24122 H 2248.33 -3.32135 3.5329 0
M  V30 24123 N 2249.67 -1.04192 -1.18244 0
M  V30 24124 C 2250.92 -0.74605 -1.88256 0
M  V30 24125 C 2251.24 0.726299 -1.8043 0
M  V30 24126 O 2250.5 1.54589 -1.20003 0
M  V30 24127 C 2250.8 -1.15917 -3.3808 0
M  V30 24128 C 2250.46 -2.63202 -3.66109 0
M  V30 24129 C 2249.13 -3.03438 -3.73468 0
M  V30 24130 C 2251.48 -3.58426 -3.78391 0
M  V30 24131 C 2248.81 -4.37785 -3.90591 0
M  V30 24132 C 2251.16 -4.92493 -3.9703 0
M  V30 24133 C 2249.82 -5.32399 -4.02626 0
M  V30 24134 H 2249.09 -0.272999 -0.688878 0
M  V30 24135 H 2251.74 -1.30717 -1.39947 0
M  V30 24136 H 2250.04 -0.516874 -3.88376 0
M  V30 24137 H 2251.74 -0.907585 -3.90594 0
M  V30 24138 H 2248.33 -2.31037 -3.60999 0
M  V30 24139 H 2252.51 -3.28485 -3.72036 0
M  V30 24140 H 2247.77 -4.6822 -3.93167 0
M  V30 24141 H 2251.94 -5.66182 -4.05476 0
M  V30 24142 H 2249.57 -6.36508 -4.15646 0
M  V30 24143 N 2251.15 1.34492 -0.821557 0
M  V30 24144 C 2252.06 2.33324 -0.244396 0
M  V30 24145 C 2253.07 1.6256 0.620499 0
M  V30 24146 O 2254.25 1.94336 0.52872 0
M  V30 24147 C 2251.31 3.41724 0.585308 0
M  V30 24148 C 2250.37 4.28238 -0.301827 0
M  V30 24149 C 2249.61 5.31461 0.488372 0
M  V30 24150 O 2249.83 5.43794 1.72177 0
M  V30 24151 O 2248.76 6.01763 -0.128586 0
M  V30 24152 H 2252.59 2.84513 -1.06236 0
M  V30 24153 H 2250.18 1.37527 -0.583669 0
M  V30 24154 H 2252.06 4.07918 1.0574 0
M  V30 24155 H 2250.73 2.9278 1.38063 0
M  V30 24156 H 2249.64 3.64971 -0.821379 0
M  V30 24157 H 2250.97 4.80618 -1.06147 0
M  V30 24158 N 2252.62 0.576397 1.46681 0
M  V30 24159 C 2253.87 0.057318 2.01619 0
M  V30 24160 C 2254.19 -1.30815 1.45419 0
M  V30 24161 O 2255.39 -1.91822 1.92137 0
M  V30 24162 C 2253.85 0.0519003 3.59863 0
M  V30 24163 C 2253.46 1.4153 4.25057 0
M  V30 24164 C 2255.2 -0.413565 4.22481 0
M  V30 24165 C 2253.11 1.36795 5.75362 0
M  V30 24166 H 2252.04 0.017658 0.753793 0
M  V30 24167 H 2254.69 0.727106 1.6848 0
M  V30 24168 H 2253.07 -0.683925 3.90049 0
M  V30 24169 H 2254.24 2.17036 4.06488 0
M  V30 24170 H 2252.56 1.82027 3.74507 0
M  V30 24171 H 2255.16 -0.467685 5.32651 0
M  V30 24172 H 2255.5 -1.42975 3.90978 0
M  V30 24173 H 2256.03 0.267999 3.96896 0
M  V30 24174 H 2252.77 2.36074 6.11514 0
M  V30 24175 H 2252.29 0.655 5.96213 0
M  V30 24176 H 2253.97 1.07816 6.37953 0
M  V30 24177 N 2254.1 -1.54444 0.313841 0
M  V30 24178 C 2255.05 -2.20712 -0.571859 0
M  V30 24179 C 2256.04 -1.18437 -1.08911 0
M  V30 24180 O 2257.23 -1.44106 -1.02774 0
M  V30 24181 C 2254.36 -2.96111 -1.73704 0
M  V30 24182 C 2253.44 -4.05715 -1.23515 0
M  V30 24183 N 2253.83 -5.03775 -0.4522 0
M  V30 24184 C 2252.13 -4.1949 -1.51475 0
M  V30 24185 C 2252.83 -5.81411 -0.183335 0
M  V30 24186 N 2251.81 -5.38165 -0.76675 0
M  V30 24187 H 2255.61 -2.93881 0.0337319 0
M  V30 24188 H 2253.13 -1.61962 0.11922 0
M  V30 24189 H 2255.12 -3.42064 -2.38323 0
M  V30 24190 H 2253.78 -2.24462 -2.34621 0
M  V30 24191 H 2254.79 -5.17811 -0.0959221 0
M  V30 24192 H 2251.47 -3.59051 -2.13046 0
M  V30 24193 H 2252.86 -6.70416 0.446334 0
M  V30 24194 N 2255.58 -0.0418125 -1.57545 0
M  V30 24195 C 2256.83 0.632796 -1.91938 0
M  V30 24196 C 2257.15 1.71933 -0.920008 0
M  V30 24197 O 2256.42 1.95866 0.0365719 0
M  V30 24198 H 2255 0.236729 -0.708497 0
M  V30 24199 H 2257.66 -0.0926087 -1.9468 0
M  V30 24200 H 2256.76 1.07741 -2.92913 0
M  V30 24201 N 2257.06 1.55891 0.231477 0
M  V30 24202 C 2258.02 1.90781 1.27024 0
M  V30 24203 C 2259.02 0.785531 1.40307 0
M  V30 24204 O 2260.21 1.05338 1.38742 0
M  V30 24205 C 2257.34 2.14988 2.64562 0
M  V30 24206 H 2258.54 2.83678 0.972968 0
M  V30 24207 H 2256.09 1.4902 0.47146 0
M  V30 24208 H 2256.82 1.2461 2.99404 0
M  V30 24209 H 2256.61 2.96737 2.563 0
M  V30 24210 H 2258.1 2.43111 3.39539 0
M  V30 24211 N 2258.54 -0.497781 1.49532 0
M  V30 24212 C 2259.76 -1.27564 1.62896 0
M  V30 24213 C 2260.18 -1.86375 0.301618 0
M  V30 24214 O 2259.54 -1.67983 -0.713305 0
M  V30 24215 C 2259.59 -2.4036 2.70018 0
M  V30 24216 O 2259.31 -1.83965 3.97603 0
M  V30 24217 C 2260.81 -3.3168 2.94115 0
M  V30 24218 H 2258.03 -0.386785 0.548305 0
M  V30 24219 H 2260.57 -0.597211 1.95585 0
M  V30 24220 H 2258.73 -3.04027 2.40097 0
M  V30 24221 H 2259.14 -2.58039 4.56635 0
M  V30 24222 H 2260.62 -4.07097 3.72795 0
M  V30 24223 H 2261.09 -3.88868 2.04153 0
M  V30 24224 H 2261.7 -2.73775 3.25464 0
M  V30 24225 N 2260.01 -1.38661 -0.749062 0
M  V30 24226 C 2261.26 -1.35317 -1.51054 0
M  V30 24227 C 2261.59 0.055341 -1.94121 0
M  V30 24228 O 2260.87 1.01746 -1.65765 0
M  V30 24229 C 2261.15 -2.31293 -2.75999 0
M  V30 24230 C 2261 -3.81024 -2.39041 0
M  V30 24231 C 2262.32 -2.25327 -3.78042 0
M  V30 24232 H 2259.44 -0.492854 -0.547963 0
M  V30 24233 H 2262.08 -1.69544 -0.857598 0
M  V30 24234 H 2260.23 -2.02235 -3.31713 0
M  V30 24235 H 2261.91 -4.20775 -1.89067 0
M  V30 24236 H 2260.15 -3.98485 -1.71442 0
M  V30 24237 H 2260.82 -4.43646 -3.28454 0
M  V30 24238 H 2263.3 -2.50989 -3.31879 0
M  V30 24239 H 2262.17 -2.94584 -4.63154 0
M  V30 24240 H 2262.43 -1.2536 -4.23954 0
M  V30 24241 N 2261.49 0.977736 -1.23605 0
M  V30 24242 C 2262.74 1.72193 -1.07132 0
M  V30 24243 C 2263.07 1.90234 0.390467 0
M  V30 24244 O 2262.35 1.45655 1.28899 0
M  V30 24245 C 2262.63 3.11864 -1.80037 0
M  V30 24246 C 2262.48 3.01377 -3.33904 0
M  V30 24247 C 2263.8 4.11334 -1.56499 0
M  V30 24248 H 2260.92 0.624992 -0.390582 0
M  V30 24249 H 2263.56 1.13808 -1.52144 0
M  V30 24250 H 2261.71 3.61707 -1.41775 0
M  V30 24251 H 2263.39 2.59036 -3.81704 0
M  V30 24252 H 2261.63 2.3782 -3.628 0
M  V30 24253 H 2262.3 4.00278 -3.80107 0
M  V30 24254 H 2264.78 3.70309 -1.89764 0
M  V30 24255 H 2263.65 5.07148 -2.09982 0
M  V30 24256 H 2263.91 4.39253 -0.500951 0
M  V30 24257 N 2262.97 1.04818 1.1769 0
M  V30 24258 C 2264.38 0.782728 1.695 0
M  V30 24259 C 2264.73 -0.695545 1.83457 0
M  V30 24260 O 2263.86 -1.54084 1.51945 0
M  V30 24261 C 2264.45 1.41424 3.07871 0
M  V30 24262 C 2263.01 1.19693 3.56862 0
M  V30 24263 C 2262.16 1.50016 2.33218 0
M  V30 24264 H 2265.11 1.21362 1.0226 0
M  V30 24265 H 2265.13 0.821494 3.71526 0
M  V30 24266 H 2264.64 2.49014 2.97681 0
M  V30 24267 H 2262.74 0.140109 3.72336 0
M  V30 24268 H 2262.86 1.89924 4.39847 0
M  V30 24269 H 2261.22 0.920113 2.375 0
M  V30 24270 H 2262 2.58731 2.25639 0
M  V30 24271 N 2264.45 -1.34055 0.828678 0
M  V30 24272 C 2265.7 -1.97366 0.415863 0
M  V30 24273 C 2266.01 -1.66412 -1.02793 0
M  V30 24274 O 2267.22 -2.23258 -1.54493 0
M  V30 24275 C 2265.67 -3.53172 0.692663 0
M  V30 24276 C 2265.28 -3.93013 2.15045 0
M  V30 24277 C 2267.03 -4.23085 0.346296 0
M  V30 24278 C 2264.93 -5.41754 2.37184 0
M  V30 24279 H 2263.86 -0.738568 0.151768 0
M  V30 24280 H 2266.51 -1.52817 1.01584 0
M  V30 24281 H 2264.9 -3.95994 0.022446 0
M  V30 24282 H 2266.07 -3.6128 2.8603 0
M  V30 24283 H 2264.38 -3.36053 2.45881 0
M  V30 24284 H 2266.98 -5.32455 0.489464 0
M  V30 24285 H 2267.32 -4.10205 -0.70977 0
M  V30 24286 H 2267.86 -3.85759 0.971326 0
M  V30 24287 H 2264.6 -5.59627 3.41317 0
M  V30 24288 H 2264.12 -5.74983 1.70749 0
M  V30 24289 H 2265.8 -6.0851 2.19829 0
M  V30 24290 N 2265.93 -0.584167 -1.46374 0
M  V30 24291 C 2267.17 -0.0704072 -2.02678 0
M  V30 24292 C 2267.51 1.28676 -1.45452 0
M  V30 24293 O 2266.78 1.84348 -0.620172 0
M  V30 24294 C 2267.06 -0.00621004 -3.60099 0
M  V30 24295 C 2266.92 -1.39238 -4.27707 0
M  V30 24296 C 2268.24 0.693666 -4.34599 0
M  V30 24297 H 2265.36 -0.0270599 -0.736503 0
M  V30 24298 H 2268 -0.751646 -1.745 0
M  V30 24299 H 2266.15 0.573942 -3.84237 0
M  V30 24300 H 2267.82 -2.01781 -4.14828 0
M  V30 24301 H 2266.06 -1.95969 -3.87013 0
M  V30 24302 H 2266.73 -1.29991 -5.36476 0
M  V30 24303 H 2269.21 0.200796 -4.15615 0
M  V30 24304 H 2268.09 0.707618 -5.4432 0
M  V30 24305 H 2268.35 1.75526 -4.05762 0
M  V30 24306 N 2267.41 1.54275 -0.322027 0
M  V30 24307 C 2268.63 2.05422 0.285755 0
M  V30 24308 C 2269.06 1.19671 1.45122 0
M  V30 24309 O 2268.41 0.205473 1.80132 0
M  V30 24310 C 2268.46 3.5375 0.699497 0
M  V30 24311 O 2267.57 3.70945 1.80203 0
M  V30 24312 H 2266.91 0.66197 0.0518846 0
M  V30 24313 H 2269.44 1.99129 -0.469989 0
M  V30 24314 H 2269.45 3.95992 0.982579 0
M  V30 24315 H 2268.12 4.15619 -0.152937 0
M  V30 24316 H 2266.7 3.40609 1.51788 0
M  V30 24317 N 2268.88 0.0501669 1.5752 0
M  V30 24318 C 2270.13 -0.624764 1.92937 0
M  V30 24319 C 2270.46 -1.70554 0.928715 0
M  V30 24320 O 2269.74 -1.94447 -0.0454437 0
M  V30 24321 C 2270.02 -1.22179 3.38739 0
M  V30 24322 C 2269.87 -0.149139 4.49553 0
M  V30 24323 C 2271.19 -2.13371 3.84916 0
M  V30 24324 H 2268.31 -0.225644 0.701608 0
M  V30 24325 H 2270.95 0.111726 1.89671 0
M  V30 24326 H 2269.1 -1.84947 3.41653 0
M  V30 24327 H 2270.78 0.482729 4.58767 0
M  V30 24328 H 2269.02 0.522917 4.30637 0
M  V30 24329 H 2269.69 -0.60687 5.48654 0
M  V30 24330 H 2272.17 -1.60565 3.83872 0
M  V30 24331 H 2271.04 -2.52088 4.87589 0
M  V30 24332 H 2271.3 -3.0334 3.21616 0
M  V30 24333 N 2270.36 -1.56011 -0.223207 0
M  V30 24334 C 2271.29 -1.953 -1.27984 0
M  V30 24335 C 2272.27 -0.821005 -1.48975 0
M  V30 24336 O 2273.46 -1.08318 -1.61186 0
M  V30 24337 C 2270.59 -2.26827 -2.62996 0
M  V30 24338 C 2269.54 -3.42501 -2.56665 0
M  V30 24339 C 2268.87 -3.59629 -3.95691 0
M  V30 24340 C 2270.17 -4.77521 -2.11592 0
M  V30 24341 H 2271.86 -2.83812 -0.953475 0
M  V30 24342 H 2269.41 -1.36549 -0.45722 0
M  V30 24343 H 2271.36 -2.52904 -3.37072 0
M  V30 24344 H 2270.08 -1.35167 -2.97317 0
M  V30 24345 H 2268.74 -3.16471 -1.85046 0
M  V30 24346 H 2268.39 -2.65347 -4.27317 0
M  V30 24347 H 2268.09 -4.37431 -3.92337 0
M  V30 24348 H 2269.62 -3.88052 -4.71432 0
M  V30 24349 H 2271.03 -5.02814 -2.75411 0
M  V30 24350 H 2269.43 -5.58594 -2.19301 0
M  V30 24351 H 2270.5 -4.72989 -1.06816 0
M  V30 24352 N 2271.84 0.489844 -1.49794 0
M  V30 24353 C 2272.8 1.57243 -1.66755 0
M  V30 24354 C 2273.8 1.51501 -0.538894 0
M  V30 24355 O 2274.99 1.54454 -0.805572 0
M  V30 24356 C 2272.12 2.96893 -1.67533 0
M  V30 24357 H 2273.32 1.4353 -2.63323 0
M  V30 24358 H 2270.87 0.71489 -1.38993 0
M  V30 24359 H 2271.61 3.16072 -0.725893 0
M  V30 24360 H 2271.39 3.02469 -2.49509 0
M  V30 24361 H 2272.88 3.75526 -1.82674 0
M  V30 24362 N 2273.32 1.39056 0.741698 0
M  V30 24363 C 2274.73 1.3207 1.31963 0
M  V30 24364 C 2275.08 -0.0180453 1.96192 0
M  V30 24365 O 2274.2 -0.920162 1.95862 0
M  V30 24366 C 2274.8 2.39185 2.3995 0
M  V30 24367 C 2273.36 2.35741 2.93434 0
M  V30 24368 C 2272.51 2.21425 1.66932 0
M  V30 24369 H 2275.46 1.49241 0.539695 0
M  V30 24370 H 2275.48 2.05587 3.20178 0
M  V30 24371 H 2274.99 3.36609 1.93174 0
M  V30 24372 H 2273.09 1.41935 3.44507 0
M  V30 24373 H 2273.2 3.30341 3.47004 0
M  V30 24374 H 2271.57 1.68481 1.91014 0
M  V30 24375 H 2272.35 3.20808 1.22218 0
M  V30 24376 N 2274.8 -0.971167 1.24121 0
M  V30 24377 C 2275.71 -2.09915 1.04751 0
M  V30 24378 C 2276.72 -1.73997 -0.0106856 0
M  V30 24379 O 2277.9 -2.00532 0.186749 0
M  V30 24380 C 2274.96 -3.40535 0.650888 0
M  V30 24381 C 2274.02 -3.90423 1.78517 0
M  V30 24382 C 2273.26 -5.14809 1.40738 0
M  V30 24383 O 2273.48 -5.69633 0.29567 0
M  V30 24384 O 2272.41 -5.58995 2.23178 0
M  V30 24385 H 2276.24 -2.29151 1.99308 0
M  V30 24386 H 2273.82 -1.08305 1.0291 0
M  V30 24387 H 2275.71 -4.19085 0.441066 0
M  V30 24388 H 2274.38 -3.22609 -0.265592 0
M  V30 24389 H 2273.29 -3.1295 2.04972 0
M  V30 24390 H 2274.62 -4.1282 2.6803 0
M  V30 24391 N 2276.27 -1.05441 -1.17133 0
M  V30 24392 C 2277.22 -0.657578 -2.21234 0
M  V30 24393 C 2278.19 0.341515 -1.62551 0
M  V30 24394 O 2279.38 0.23236 -1.8938 0
M  V30 24395 C 2276.52 -0.0411182 -3.45076 0
M  V30 24396 C 2275.63 -1.08935 -4.1804 0
M  V30 24397 C 2274.76 -0.439941 -5.29375 0
M  V30 24398 C 2273.8 -1.4723 -5.94129 0
M  V30 24399 N 2272.94 -0.846878 -6.96974 0
M  V30 24400 H 2277.78 -1.54976 -2.54532 0
M  V30 24401 H 2275.32 -0.775028 -1.25027 0
M  V30 24402 H 2277.28 0.333757 -4.15863 0
M  V30 24403 H 2275.91 0.814513 -3.12355 0
M  V30 24404 H 2274.96 -1.58202 -3.45942 0
M  V30 24405 H 2276.27 -1.8729 -4.62303 0
M  V30 24406 H 2275.42 -0.0116192 -6.06699 0
M  V30 24407 H 2274.16 0.375571 -4.86252 0
M  V30 24408 H 2273.17 -1.91061 -5.15534 0
M  V30 24409 H 2274.39 -2.28976 -6.39333 0
M  V30 24410 H 2272.34 -0.0519228 -6.55979 0
M  V30 24411 H 2272.26 -1.56793 -7.39562 0
M  V30 24412 H 2273.52 -0.443414 -7.78238 0
M  V30 24413 N 2277.75 1.33613 -0.835776 0
M  V30 24414 C 2278.68 2.31794 -0.28178 0
M  V30 24415 C 2279.66 1.58832 0.608805 0
M  V30 24416 O 2280.85 1.86742 0.533002 0
M  V30 24417 C 2277.98 3.42972 0.546552 0
M  V30 24418 C 2276.93 4.27281 -0.247979 0
M  V30 24419 C 2276.26 5.30046 0.703907 0
M  V30 24420 C 2277.56 5.01382 -1.46333 0
M  V30 24421 H 2279.25 2.78377 -1.10211 0
M  V30 24422 H 2276.8 1.33836 -0.531412 0
M  V30 24423 H 2278.75 4.10681 0.944395 0
M  V30 24424 H 2277.48 2.95069 1.40006 0
M  V30 24425 H 2276.13 3.61192 -0.627345 0
M  V30 24426 H 2275.78 4.78402 1.55373 0
M  V30 24427 H 2275.48 5.87335 0.176421 0
M  V30 24428 H 2277.01 6.00622 1.09933 0
M  V30 24429 H 2278.42 5.61875 -1.13881 0
M  V30 24430 H 2276.82 5.68306 -1.92738 0
M  V30 24431 H 2277.89 4.30334 -2.23474 0
M  V30 24432 N 2279.23 0.591922 1.46062 0
M  V30 24433 C 2280.46 0.0850678 2.07225 0
M  V30 24434 C 2280.88 -1.21461 1.43628 0
M  V30 24435 O 2280.24 -1.73583 0.523336 0
M  V30 24436 C 2280.29 -0.0575933 3.60554 0
M  V30 24437 O 2279.39 -1.11181 3.9713 0
M  V30 24438 H 2278.73 0.0669684 0.660614 0
M  V30 24439 H 2281.26 0.817483 1.87559 0
M  V30 24440 H 2281.27 -0.260829 4.07165 0
M  V30 24441 H 2279.95 0.891488 4.06233 0
M  V30 24442 H 2278.52 -0.886292 3.62214 0
M  V30 24443 N 2280.71 -1.54102 0.330204 0
M  V30 24444 C 2281.67 -2.23221 -0.520105 0
M  V30 24445 C 2282.67 -1.22788 -1.03826 0
M  V30 24446 O 2283.86 -1.47321 -0.929626 0
M  V30 24447 C 2280.99 -2.94145 -1.72312 0
M  V30 24448 H 2282.19 -2.99782 0.0842132 0
M  V30 24449 H 2279.74 -1.56088 0.0813707 0
M  V30 24450 H 2280.47 -2.21738 -2.36649 0
M  V30 24451 H 2280.26 -3.67799 -1.35892 0
M  V30 24452 H 2281.75 -3.46788 -2.32654 0
M  V30 24453 N 2282.19 -0.0585199 -1.57491 0
M  V30 24454 C 2283.41 0.626486 -1.97712 0
M  V30 24455 C 2283.84 1.63149 -0.93616 0
M  V30 24456 O 2283.19 1.81025 0.0997792 0
M  V30 24457 C 2283.24 1.28332 -3.36992 0
M  V30 24458 O 2282.35 2.39907 -3.35437 0
M  V30 24459 H 2281.69 0.162255 -0.643871 0
M  V30 24460 H 2284.22 -0.1291 -2.04192 0
M  V30 24461 H 2284.23 1.63328 -3.73882 0
M  V30 24462 H 2282.9 0.546816 -4.1229 0
M  V30 24463 H 2281.48 2.06803 -3.10301 0
M  V30 24464 N 2283.66 1.56128 0.21493 0
M  V30 24465 C 2284.89 1.83538 0.95506 0
M  V30 24466 C 2285.31 0.638503 1.77675 0
M  V30 24467 O 2284.66 -0.392937 1.7822 0
M  V30 24468 C 2284.72 3.09539 1.86729 0
M  V30 24469 O 2284.44 4.2461 1.0788 0
M  V30 24470 C 2285.94 3.49985 2.72076 0
M  V30 24471 H 2283.16 0.609971 0.2796 0
M  V30 24472 H 2285.7 2.03223 0.228162 0
M  V30 24473 H 2283.86 2.9181 2.54805 0
M  V30 24474 H 2284.27 4.96233 1.69863 0
M  V30 24475 H 2285.74 4.41168 3.31775 0
M  V30 24476 H 2286.22 2.72046 3.44801 0
M  V30 24477 H 2286.83 3.70177 2.09402 0
M  V30 24478 N 2285.14 -0.481893 1.50052 0
M  V30 24479 C 2286.56 -0.814732 1.37238 0
M  V30 24480 C 2286.76 -1.97071 0.420144 0
M  V30 24481 O 2285.81 -2.52105 -0.141201 0
M  V30 24482 C 2287.13 -1.13696 2.78377 0
M  V30 24483 C 2288.68 -1.24405 2.87215 0
M  V30 24484 C 2289.15 -1.59946 4.29163 0
M  V30 24485 N 2290.64 -1.66959 4.32064 0
M  V30 24486 C 2291.38 -1.95942 5.38882 0
M  V30 24487 N 2290.87 -2.2302 6.55922 0
M  V30 24488 N 2292.67 -1.97354 5.26315 0
M  V30 24489 H 2284.82 0.280087 2.10545 0
M  V30 24490 H 2287.08 0.062762 0.94592 0
M  V30 24491 H 2286.79 -0.360725 3.49845 0
M  V30 24492 H 2286.66 -2.07581 3.14945 0
M  V30 24493 H 2289.05 -2.01097 2.15972 0
M  V30 24494 H 2289.13 -0.285254 2.54205 0
M  V30 24495 H 2288.77 -0.837979 5.00939 0
M  V30 24496 H 2288.7 -2.56958 4.59652 0
M  V30 24497 H 2291.19 -1.48117 3.47663 0
M  V30 24498 H 2291.51 -2.44378 7.33143 0
M  V30 24499 H 2289.85 -2.20435 6.59116 0
M  V30 24500 H 2293.04 -1.75689 4.33879 0
M  V30 24501 H 2293.21 -2.19607 6.09653 0
M  V30 24502 N 2286.62 -1.39448 -0.734313 0
M  V30 24503 C 2288.04 -1.21067 -1.03995 0
M  V30 24504 C 2288.24 -0.0727373 -2.01369 0
M  V30 24505 O 2287.29 0.575383 -2.45857 0
M  V30 24506 C 2288.61 -2.54499 -1.60158 0
M  V30 24507 C 2290.15 -2.6135 -1.72235 0
M  V30 24508 C 2290.63 -3.95006 -2.31807 0
M  V30 24509 N 2292.12 -3.96648 -2.39216 0
M  V30 24510 C 2292.85 -4.96839 -2.86249 0
M  V30 24511 N 2292.35 -6.07427 -3.33173 0
M  V30 24512 N 2294.14 -4.84218 -2.85464 0
M  V30 24513 H 2286.29 -2.12215 -0.0885251 0
M  V30 24514 H 2288.56 -0.942508 -0.101893 0
M  V30 24515 H 2288.26 -3.38323 -0.960752 0
M  V30 24516 H 2288.14 -2.74267 -2.58955 0
M  V30 24517 H 2290.52 -1.7791 -2.3544 0
M  V30 24518 H 2290.61 -2.45432 -0.720896 0
M  V30 24519 H 2290.25 -4.78877 -1.6923 0
M  V30 24520 H 2290.18 -4.08245 -3.32631 0
M  V30 24521 H 2292.67 -3.16783 -2.06051 0
M  V30 24522 H 2292.98 -6.79786 -3.67574 0
M  V30 24523 H 2291.33 -6.11019 -3.3118 0
M  V30 24524 H 2294.52 -3.96925 -2.48129 0
M  V30 24525 H 2294.69 -5.62446 -3.21804 0
M  V30 24526 N 2288.1 0.964571 -1.24635 0
M  V30 24527 C 2289.51 1.23379 -1.01242 0
M  V30 24528 C 2289.71 1.99589 0.276865 0
M  V30 24529 O 2288.77 2.32189 0.9922 0
M  V30 24530 C 2290.08 2.01787 -2.22941 0
M  V30 24531 C 2291.63 2.14868 -2.27598 0
M  V30 24532 C 2292.11 2.96672 -3.48927 0
M  V30 24533 N 2293.6 3.04253 -3.49262 0
M  V30 24534 C 2294.33 3.67916 -4.39801 0
M  V30 24535 N 2293.83 4.33272 -5.40599 0
M  V30 24536 N 2295.62 3.64959 -4.27506 0
M  V30 24537 H 2287.77 0.454466 -2.07481 0
M  V30 24538 H 2290.04 0.263474 -0.910651 0
M  V30 24539 H 2289.74 1.53178 -3.1659 0
M  V30 24540 H 2289.62 3.02514 -2.25311 0
M  V30 24541 H 2292 2.62678 -1.34478 0
M  V30 24542 H 2292.08 1.13478 -2.29252 0
M  V30 24543 H 2291.73 2.49555 -4.42363 0
M  V30 24544 H 2291.66 3.98266 -3.44517 0
M  V30 24545 H 2294.15 2.57767 -2.76342 0
M  V30 24546 H 2294.46 4.79676 -6.05913 0
M  V30 24547 H 2292.81 4.31931 -5.44482 0
M  V30 24548 H 2296 3.13079 -3.47993 0
M  V30 24549 H 2296.17 4.1429 -4.98265 0
M  V30 24550 N 2289.58 1.0606 1.16572 0
M  V30 24551 C 2290.81 0.79543 1.90674 0
M  V30 24552 C 2291.21 -0.653704 1.77548 0
M  V30 24553 O 2290.56 -1.45905 1.11613 0
M  V30 24554 C 2290.62 1.1077 3.42009 0
M  V30 24555 C 2290.28 2.55478 3.7892 0
M  V30 24556 C 2291.28 3.53706 3.81036 0
M  V30 24557 C 2288.97 2.90716 4.09621 0
M  V30 24558 C 2290.96 4.85212 4.13337 0
M  V30 24559 C 2288.65 4.22423 4.4159 0
M  V30 24560 C 2289.64 5.19482 4.43427 0
M  V30 24561 O 2289.33 6.48825 4.74638 0
M  V30 24562 H 2289.06 0.288069 0.611549 0
M  V30 24563 H 2291.62 1.41686 1.48709 0
M  V30 24564 H 2289.85 0.429196 3.84311 0
M  V30 24565 H 2291.54 0.827147 3.97383 0
M  V30 24566 H 2292.3 3.27823 3.57431 0
M  V30 24567 H 2288.18 2.15826 4.07357 0
M  V30 24568 H 2291.73 5.60964 4.14686 0
M  V30 24569 H 2287.62 4.48065 4.64659 0
M  V30 24570 H 2288.39 6.53779 4.92459 0
M  V30 24571 N 2291.06 -1.33168 0.84285 0
M  V30 24572 C 2291.97 -2.32905 0.281485 0
M  V30 24573 C 2292.98 -1.63527 -0.594558 0
M  V30 24574 O 2294.16 -1.95153 -0.497735 0
M  V30 24575 C 2291.22 -3.42612 -0.530869 0
M  V30 24576 C 2290.28 -4.27703 0.369918 0
M  V30 24577 C 2289.52 -5.32171 -0.40376 0
M  V30 24578 O 2289.74 -5.46464 -1.63504 0
M  V30 24579 O 2288.67 -6.01482 0.224305 0
M  V30 24580 H 2292.5 -2.82787 1.10749 0
M  V30 24581 H 2290.08 -1.36581 0.605474 0
M  V30 24582 H 2291.97 -4.09549 -0.992365 0
M  V30 24583 H 2290.64 -2.9494 -1.33387 0
M  V30 24584 H 2289.55 -3.63619 0.879339 0
M  V30 24585 H 2290.88 -4.78869 1.13779 0
M  V30 24586 N 2292.53 -0.599659 -1.45746 0
M  V30 24587 C 2293.76 -0.0978914 -2.06668 0
M  V30 24588 C 2294.18 1.21436 -1.44564 0
M  V30 24589 O 2293.53 1.73794 -0.556953 0
M  V30 24590 C 2293.58 0.0566409 -3.61456 0
M  V30 24591 O 2293.31 -1.20369 -4.2124 0
M  V30 24592 C 2294.81 0.590791 -4.39346 0
M  V30 24593 H 2292.03 -0.0652061 -0.667824 0
M  V30 24594 H 2294.57 -0.825143 -1.87114 0
M  V30 24595 H 2292.73 0.734184 -3.80379 0
M  V30 24596 H 2293.14 -1.0283 -5.14321 0
M  V30 24597 H 2294.61 0.648035 -5.48183 0
M  V30 24598 H 2295.09 1.6114 -4.08571 0
M  V30 24599 H 2295.7 -0.0524427 -4.25268 0
M  V30 24600 N 2294.01 1.53925 -0.338371 0
M  V30 24601 C 2294.94 2.22377 0.555078 0
M  V30 24602 C 2295.96 1.22864 1.0681 0
M  V30 24603 O 2297.15 1.49249 0.979137 0
M  V30 24604 C 2294.25 2.88635 1.77604 0
M  V30 24605 C 2293.42 4.14417 1.3992 0
M  V30 24606 C 2292.48 4.64132 2.47928 0
M  V30 24607 O 2291.5 5.28466 2.11452 0
M  V30 24608 N 2292.71 4.39618 3.79099 0
M  V30 24609 H 2295.47 2.99684 -0.0311305 0
M  V30 24610 H 2293.03 1.61085 -0.162254 0
M  V30 24611 H 2295.02 3.18811 2.49282 0
M  V30 24612 H 2293.59 2.14945 2.26975 0
M  V30 24613 H 2292.81 3.90842 0.513412 0
M  V30 24614 H 2294.1 4.96245 1.12332 0
M  V30 24615 H 2293.5 3.88155 4.11524 0
M  V30 24616 H 2292.06 4.74414 4.46962 0
M  V30 24617 N 2295.49 0.0668712 1.57458 0
M  V30 24618 C 2296.74 -0.604266 1.93588 0
M  V30 24619 C 2297.07 -1.69559 0.946752 0
M  V30 24620 O 2296.34 -1.94484 -0.0248174 0
M  V30 24621 C 2296.63 -1.18579 3.40016 0
M  V30 24622 C 2296.48 -0.10145 4.49686 0
M  V30 24623 C 2297.8 -2.09277 3.87158 0
M  V30 24624 H 2294.92 -0.21819 0.703962 0
M  V30 24625 H 2297.56 0.131837 1.89542 0
M  V30 24626 H 2295.71 -1.81313 3.43595 0
M  V30 24627 H 2297.38 0.53136 4.58229 0
M  V30 24628 H 2295.62 0.568562 4.30058 0
M  V30 24629 H 2296.3 -0.548643 5.49267 0
M  V30 24630 H 2298.77 -1.56485 3.85554 0
M  V30 24631 H 2297.65 -2.46903 4.90235 0
M  V30 24632 H 2297.91 -2.99912 3.24816 0
M  V30 24633 N 2296.97 -1.56239 -0.206647 0
M  V30 24634 C 2297.9 -1.90132 -1.27994 0
M  V30 24635 C 2298.91 -0.790908 -1.42297 0
M  V30 24636 O 2300.1 -1.06928 -1.42929 0
M  V30 24637 C 2297.2 -2.10796 -2.65364 0
M  V30 24638 C 2296.37 -3.41891 -2.72818 0
M  V30 24639 C 2295.43 -3.51806 -3.91304 0
M  V30 24640 O 2294.46 -4.24722 -3.78946 0
M  V30 24641 N 2295.66 -2.84043 -5.0626 0
M  V30 24642 H 2298.43 -2.82793 -0.992394 0
M  V30 24643 H 2295.99 -1.56967 -0.396624 0
M  V30 24644 H 2297.98 -2.1473 -3.43035 0
M  V30 24645 H 2296.55 -1.2469 -2.86655 0
M  V30 24646 H 2295.77 -3.49926 -1.81509 0
M  V30 24647 H 2297.06 -4.28222 -2.74779 0
M  V30 24648 H 2296.46 -2.24609 -5.19199 0
M  V30 24649 H 2295.01 -2.93619 -5.8192 0
M  V30 24650 N 2298.45 0.473929 -1.50305 0
M  V30 24651 C 2299.67 1.24957 -1.64904 0
M  V30 24652 C 2300.09 1.85872 -0.331231 0
M  V30 24653 O 2299.45 1.69096 0.68649 0
M  V30 24654 C 2299.5 2.36033 -2.73807 0
M  V30 24655 O 2299.22 1.77617 -4.0048 0
M  V30 24656 C 2300.72 3.26958 -2.99354 0
M  V30 24657 H 2297.94 0.378013 -0.554389 0
M  V30 24658 H 2300.48 0.566019 -1.96511 0
M  V30 24659 H 2298.64 3.00169 -2.44903 0
M  V30 24660 H 2299.05 2.50742 -4.60683 0
M  V30 24661 H 2300.53 4.01115 -3.79224 0
M  V30 24662 H 2301 3.8557 -2.10314 0
M  V30 24663 H 2301.61 2.68563 -3.29779 0
M  V30 24664 N 2299.92 1.39835 0.726907 0
M  V30 24665 C 2301.34 1.21617 1.03352 0
M  V30 24666 C 2301.54 0.0834153 2.01327 0
M  V30 24667 O 2300.6 -0.562337 2.46159 0
M  V30 24668 C 2301.91 2.55345 1.58806 0
M  V30 24669 C 2303.46 2.6226 1.70847 0
M  V30 24670 C 2303.93 3.96229 2.29709 0
M  V30 24671 N 2305.42 3.97912 2.37109 0
M  V30 24672 C 2306.16 4.9835 2.8361 0
M  V30 24673 N 2305.65 6.09185 3.29947 0
M  V30 24674 N 2307.45 4.85725 2.82892 0
M  V30 24675 H 2299.6 2.12259 0.0772696 0
M  V30 24676 H 2301.86 0.943035 0.0968937 0
M  V30 24677 H 2301.57 3.38828 0.942796 0
M  V30 24678 H 2301.44 2.75636 2.57497 0
M  V30 24679 H 2303.83 1.79156 2.34493 0
M  V30 24680 H 2303.91 2.45811 0.70787 0
M  V30 24681 H 2303.55 4.79768 1.66688 0
M  V30 24682 H 2303.48 4.10003 3.30462 0
M  V30 24683 H 2305.97 3.17871 2.04368 0
M  V30 24684 H 2306.29 6.81726 3.63964 0
M  V30 24685 H 2304.63 6.12767 3.27935 0
M  V30 24686 H 2307.82 3.98236 2.4602 0
M  V30 24687 H 2308 5.64145 3.18817 0
M  V30 24688 N 2301.4 -0.957948 1.25144 0
M  V30 24689 C 2302.33 -2.07171 1.07715 0
M  V30 24690 C 2303.31 -1.70095 -0.0128163 0
M  V30 24691 O 2304.5 -1.93572 0.156095 0
M  V30 24692 C 2301.63 -3.40345 0.691562 0
M  V30 24693 C 2300.58 -3.91416 1.73139 0
M  V30 24694 C 2299.91 -5.21047 1.20059 0
M  V30 24695 C 2301.21 -4.18164 3.12947 0
M  V30 24696 H 2302.9 -2.22011 2.00877 0
M  V30 24697 H 2300.45 -1.06682 0.96721 0
M  V30 24698 H 2302.4 -4.17708 0.556578 0
M  V30 24699 H 2301.12 -3.25434 -0.275761 0
M  V30 24700 H 2299.78 -3.16219 1.85476 0
M  V30 24701 H 2299.43 -5.02503 0.223587 0
M  V30 24702 H 2299.13 -5.56186 1.89554 0
M  V30 24703 H 2300.66 -6.0101 1.07792 0
M  V30 24704 H 2302.07 -4.86198 3.03783 0
M  V30 24705 H 2300.47 -4.64552 3.79883 0
M  V30 24706 H 2301.54 -3.24567 3.60256 0
M  V30 24707 N 2302.88 -1.06677 -1.16008 0
M  V30 24708 C 2303.81 -0.63896 -2.20113 0
M  V30 24709 C 2304.82 0.305029 -1.59917 0
M  V30 24710 O 2306.01 0.0954133 -1.78245 0
M  V30 24711 C 2303.11 0.0829487 -3.38798 0
M  V30 24712 C 2302.29 -0.875502 -4.28548 0
M  V30 24713 C 2301.35 -0.192134 -5.25849 0
M  V30 24714 O 2300.37 -0.83102 -5.63101 0
M  V30 24715 N 2301.57 1.06483 -5.7065 0
M  V30 24716 H 2304.34 -1.53449 -2.57436 0
M  V30 24717 H 2301.9 -0.95058 -1.31056 0
M  V30 24718 H 2303.89 0.550615 -4.00937 0
M  V30 24719 H 2302.46 0.880333 -2.99948 0
M  V30 24720 H 2301.68 -1.52245 -3.63614 0
M  V30 24721 H 2302.97 -1.52557 -4.8539 0
M  V30 24722 H 2302.37 1.60396 -5.42485 0
M  V30 24723 H 2300.92 1.4763 -6.34861 0
M  V30 24724 N 2304.36 1.32719 -0.8499 0
M  V30 24725 C 2305.59 2.01612 -0.464789 0
M  V30 24726 C 2306 1.63898 0.937163 0
M  V30 24727 O 2305.36 0.857885 1.61079 0
M  V30 24728 C 2305.41 3.56674 -0.588701 0
M  V30 24729 O 2305.13 3.93031 -1.93542 0
M  V30 24730 C 2306.63 4.4284 -0.201977 0
M  V30 24731 H 2303.85 0.645499 -0.183227 0
M  V30 24732 H 2306.39 1.69405 -1.14553 0
M  V30 24733 H 2304.55 3.87375 0.0442478 0
M  V30 24734 H 2304.96 4.87747 -1.9288 0
M  V30 24735 H 2306.44 5.50954 -0.339696 0
M  V30 24736 H 2306.91 4.30755 0.857149 0
M  V30 24737 H 2307.52 4.17519 -0.809806 0
M  V30 24738 N 2305.84 0.60738 1.45426 0
M  V30 24739 C 2307.06 0.107042 2.07124 0
M  V30 24740 C 2307.49 -1.19931 1.44908 0
M  V30 24741 O 2306.84 -1.73018 0.541717 0
M  V30 24742 C 2306.89 -0.0193485 3.60595 0
M  V30 24743 O 2306 -1.06963 3.98287 0
M  V30 24744 H 2305.34 0.0739713 0.659867 0
M  V30 24745 H 2307.87 0.83733 1.86681 0
M  V30 24746 H 2307.88 -0.217629 4.07419 0
M  V30 24747 H 2306.55 0.934524 4.05265 0
M  V30 24748 H 2305.13 -0.847825 3.63134 0
M  V30 24749 N 2307.31 -1.53743 0.34653 0
M  V30 24750 C 2308.24 -2.28059 -0.501153 0
M  V30 24751 C 2309.23 -1.29736 -1.10011 0
M  V30 24752 O 2310.41 -1.58583 -1.12094 0
M  V30 24753 C 2307.54 -3.05562 -1.65073 0
M  V30 24754 C 2306.49 -4.11413 -1.17996 0
M  V30 24755 C 2305.82 -4.76889 -2.41829 0
M  V30 24756 C 2307.12 -5.21558 -0.278303 0
M  V30 24757 H 2308.81 -2.99164 0.118803 0
M  V30 24758 H 2306.36 -1.43881 0.0585784 0
M  V30 24759 H 2308.31 -3.56291 -2.25022 0
M  V30 24760 H 2307.04 -2.32113 -2.29763 0
M  V30 24761 H 2305.7 -3.61602 -0.603268 0
M  V30 24762 H 2305.34 -4.00031 -3.04933 0
M  V30 24763 H 2305.04 -5.48405 -2.1101 0
M  V30 24764 H 2306.57 -5.30403 -3.02499 0
M  V30 24765 H 2307.98 -5.67904 -0.784723 0
M  V30 24766 H 2306.38 -6.00068 -0.0618652 0
M  V30 24767 H 2307.45 -4.80041 0.684761 0
M  V30 24768 N 2308.79 -0.0752207 -1.5742 0
M  V30 24769 C 2309.76 0.876166 -2.11792 0
M  V30 24770 C 2310.76 1.22411 -1.0427 0
M  V30 24771 O 2311.95 1.15681 -1.30244 0
M  V30 24772 C 2309.08 2.1785 -2.6221 0
M  V30 24773 H 2310.27 0.404388 -2.97161 0
M  V30 24774 H 2307.82 0.17353 -1.55334 0
M  V30 24775 H 2308.56 2.69556 -1.80305 0
M  V30 24776 H 2308.34 1.93891 -3.40806 0
M  V30 24777 H 2309.83 2.85949 -3.0434 0
M  V30 24778 N 2310.27 1.56347 0.198358 0
M  V30 24779 C 2311.22 1.95171 1.26534 0
M  V30 24780 C 2312.21 0.836711 1.47294 0
M  V30 24781 O 2313.42 1.0217 1.48194 0
M  V30 24782 H 2309.79 0.620569 0.424733 0
M  V30 24783 H 2311.76 2.84158 0.910854 0
M  V30 24784 C 2310.51 2.30468 2.60346 0
M  V30 24785 H 2309.84 3.15791 2.45186 0
M  V30 24786 H 2311.28 2.61499 3.33757 0
M  V30 24787 C 2309.74 1.13812 3.17094 0
M  V30 24788 O 2310.27 0.41142 3.99588 0
M  V30 24789 N 2308.47 0.915784 2.75793 0
M  V30 24790 H 2308.02 1.50846 2.08814 0
M  V30 24791 H 2307.98 0.137034 3.14101 0
M  V30 24792 N 2311.75 -0.465951 1.50554 0
M  V30 24793 C 2312.68 -1.57125 1.72725 0
M  V30 24794 C 2313.66 -1.60039 0.576322 0
M  V30 24795 O 2314.84 -1.76224 0.816011 0
M  V30 24796 C 2311.97 -2.95416 1.82611 0
M  V30 24797 C 2310.93 -3.07368 2.9784 0
M  V30 24798 C 2310.25 -4.47357 2.92875 0
M  V30 24799 C 2311.55 -2.84106 4.3827 0
M  V30 24800 H 2313.25 -1.38825 2.6527 0
M  V30 24801 H 2310.79 -0.666418 1.27651 0
M  V30 24802 H 2312.75 -3.72673 1.96705 0
M  V30 24803 H 2311.47 -3.14884 0.866914 0
M  V30 24804 H 2310.13 -2.32545 2.83405 0
M  V30 24805 H 2309.78 -4.63752 1.94791 0
M  V30 24806 H 2309.48 -4.56289 3.70235 0
M  V30 24807 H 2311 -5.26627 3.09024 0
M  V30 24808 H 2312.42 -3.5111 4.53205 0
M  V30 24809 H 2310.81 -3.04478 5.1712 0
M  V30 24810 H 2311.88 -1.79923 4.50284 0
M  V30 24811 N 2313.23 -1.40218 -0.719481 0
M  V30 24812 C 2314.18 -1.36656 -1.82508 0
M  V30 24813 C 2315.16 -0.24476 -1.59027 0
M  V30 24814 O 2316.35 -0.483554 -1.70267 0
M  V30 24815 C 2313.48 -1.22769 -3.20597 0
M  V30 24816 C 2312.57 -2.39714 -3.49854 0
M  V30 24817 N 2312.96 -3.65196 -3.49951 0
M  V30 24818 C 2311.26 -2.33009 -3.80293 0
M  V30 24819 C 2311.96 -4.42621 -3.77441 0
M  V30 24820 N 2310.93 -3.72409 -3.95996 0
M  V30 24821 H 2314.74 -2.31622 -1.8091 0
M  V30 24822 H 2312.25 -1.33935 -0.918432 0
M  V30 24823 H 2314.25 -1.18299 -3.99764 0
M  V30 24824 H 2312.91 -0.287671 -3.23423 0
M  V30 24825 H 2313.92 -3.9841 -3.30893 0
M  V30 24826 H 2310.59 -1.47353 -3.90632 0
M  V30 24827 H 2311.98 -5.51458 -3.83854 0
M  V30 24828 N 2314.7 0.951297 -1.25651 0
M  V30 24829 C 2315.64 2.05195 -1.02116 0
M  V30 24830 C 2316.65 1.62793 0.0150285 0
M  V30 24831 O 2317.84 1.7709 -0.223906 0
M  V30 24832 C 2314.94 3.34849 -0.522419 0
M  V30 24833 C 2314.11 4.06073 -1.62553 0
M  V30 24834 C 2313.17 5.13999 -1.12659 0
M  V30 24835 O 2312.2 5.39263 -1.82165 0
M  V30 24836 N 2313.4 5.80492 0.030368 0
M  V30 24837 H 2316.16 2.25954 -1.96888 0
M  V30 24838 H 2313.72 1.12008 -1.16901 0
M  V30 24839 H 2315.72 4.0433 -0.173032 0
M  V30 24840 H 2314.29 3.10838 0.331455 0
M  V30 24841 H 2313.51 3.30645 -2.14634 0
M  V30 24842 H 2314.79 4.50414 -2.36652 0
M  V30 24843 H 2314.19 5.6239 0.61107 0
M  V30 24844 H 2312.75 6.5101 0.320761 0
M  V30 24845 N 2316.18 1.07291 1.1544 0
M  V30 24846 C 2317.13 0.692691 2.2016 0
M  V30 24847 C 2318.1 -0.315611 1.63074 0
M  V30 24848 O 2319.28 -0.202202 1.89726 0
M  V30 24849 C 2316.42 0.0960115 3.44966 0
M  V30 24850 C 2315.54 1.15571 4.16254 0
M  V30 24851 C 2314.67 0.524104 5.28608 0
M  V30 24852 C 2313.71 1.56664 5.91712 0
M  V30 24853 N 2312.85 0.957653 6.95538 0
M  V30 24854 H 2317.69 1.59006 2.52034 0
M  V30 24855 H 2315.23 0.79482 1.23778 0
M  V30 24856 H 2317.18 -0.267555 4.16341 0
M  V30 24857 H 2315.81 -0.764717 3.13611 0
M  V30 24858 H 2314.87 1.63686 3.43382 0
M  V30 24859 H 2316.18 1.94621 4.59265 0
M  V30 24860 H 2315.33 0.108138 6.06604 0
M  V30 24861 H 2314.07 -0.298165 4.86788 0
M  V30 24862 H 2313.08 1.99239 5.12429 0
M  V30 24863 H 2314.3 2.39118 6.35609 0
M  V30 24864 H 2312.25 0.156277 6.55814 0
M  V30 24865 H 2312.16 1.68539 7.36974 0
M  V30 24866 H 2313.43 0.567169 7.77434 0
M  V30 24867 N 2317.66 -1.32267 0.856927 0
M  V30 24868 C 2318.89 -2.01897 0.474605 0
M  V30 24869 C 2319.31 -1.63968 -0.921738 0
M  V30 24870 O 2318.67 -0.841509 -1.60587 0
M  V30 24871 C 2318.72 -3.55162 0.623861 0
M  V30 24872 O 2317.82 -4.10976 -0.342387 0
M  V30 24873 H 2317.16 -0.636106 0.190433 0
M  V30 24874 H 2319.69 -1.68762 1.15675 0
M  V30 24875 H 2319.7 -4.04772 0.51224 0
M  V30 24876 H 2318.38 -3.8211 1.64209 0
M  V30 24877 H 2316.95 -3.72432 -0.186814 0
M  V30 24878 N 2319.14 -0.615084 -1.45102 0
M  V30 24879 C 2320.36 -0.118025 -2.07064 0
M  V30 24880 C 2320.79 1.1916 -1.45542 0
M  V30 24881 O 2320.15 1.72728 -0.550885 0
M  V30 24882 C 2320.19 0.000225002 -3.606 0
M  V30 24883 O 2319.3 1.04849 -3.98849 0
M  V30 24884 H 2318.64 -0.0774697 -0.659465 0
M  V30 24885 H 2321.17 -0.847218 -1.86235 0
M  V30 24886 H 2321.18 0.196019 -4.07529 0
M  V30 24887 H 2319.85 -0.956003 -4.04763 0
M  V30 24888 H 2318.43 0.828555 -3.63579 0
M  V30 24889 N 2320.62 1.53557 -0.354678 0
M  V30 24890 C 2321.53 2.29098 0.50511 0
M  V30 24891 C 2322.54 1.34638 1.10221 0
M  V30 24892 O 2323.72 1.67686 1.1155 0
M  V30 24893 C 2320.78 3.0574 1.63474 0
M  V30 24894 C 2319.85 4.15847 1.06629 0
M  V30 24895 C 2319.08 4.88826 2.14208 0
M  V30 24896 O 2319.3 4.61568 3.35129 0
M  V30 24897 O 2318.24 5.75016 1.77877 0
M  V30 24898 H 2322.06 3.03503 -0.10929 0
M  V30 24899 H 2319.65 1.48922 -0.119384 0
M  V30 24900 H 2321.53 3.53634 2.29174 0
M  V30 24901 H 2320.2 2.34182 2.23474 0
M  V30 24902 H 2319.11 3.72231 0.373499 0
M  V30 24903 H 2320.44 4.8954 0.510995 0
M  V30 24904 N 2322.1 0.083568 1.57378 0
M  V30 24905 C 2323.34 -0.582464 1.93107 0
M  V30 24906 C 2323.66 -1.70051 0.96654 0
M  V30 24907 O 2324.86 -2.42691 1.2171 0
M  V30 24908 C 2323.32 -1.08745 3.43078 0
M  V30 24909 C 2322.93 0.000225151 4.48 0
M  V30 24910 C 2324.67 -1.72687 3.87788 0
M  V30 24911 C 2322.58 -0.519464 5.89114 0
M  V30 24912 H 2321.51 -0.221345 0.720779 0
M  V30 24913 H 2324.16 0.157707 1.82821 0
M  V30 24914 H 2322.54 -1.88095 3.48477 0
M  V30 24915 H 2323.72 0.775279 4.54231 0
M  V30 24916 H 2322.03 0.544133 4.12829 0
M  V30 24917 H 2324.63 -2.12621 4.90608 0
M  V30 24918 H 2324.97 -2.59152 3.258 0
M  V30 24919 H 2325.5 -0.999389 3.85042 0
M  V30 24920 H 2322.24 0.308301 6.54775 0
M  V30 24921 H 2321.76 -1.26178 5.86378 0
M  V30 24922 H 2323.44 -0.992125 6.39348 0
M  V30 24923 N 2323.57 -1.5645 -0.190064 0
M  V30 24924 C 2324.48 -1.98154 -1.25587 0
M  V30 24925 C 2325.5 -0.88997 -1.49518 0
M  V30 24926 O 2326.68 -1.19612 -1.62034 0
M  V30 24927 C 2323.74 -2.31695 -2.57912 0
M  V30 24928 C 2322.8 -3.54585 -2.42009 0
M  V30 24929 C 2322.03 -3.86516 -3.68023 0
M  V30 24930 O 2322.26 -3.19668 -4.72407 0
M  V30 24931 O 2321.19 -4.79929 -3.63251 0
M  V30 24932 H 2325.02 -2.89048 -0.931938 0
M  V30 24933 H 2322.6 -1.44071 -0.395463 0
M  V30 24934 H 2324.48 -2.54321 -3.36004 0
M  V30 24935 H 2323.16 -1.43968 -2.89922 0
M  V30 24936 H 2322.07 -3.37199 -1.62011 0
M  V30 24937 H 2323.4 -4.42794 -2.14929 0
M  V30 24938 N 2325.05 0.45796 -1.50799 0
M  V30 24939 C 2326.3 1.2059 -1.61682 0
M  V30 24940 C 2326.61 1.92815 -0.328914 0
M  V30 24941 O 2327.82 2.69645 -0.316821 0
M  V30 24942 C 2326.28 2.1919 -2.85454 0
M  V30 24943 C 2325.88 1.52708 -4.2117 0
M  V30 24944 C 2327.63 2.94544 -3.05686 0
M  V30 24945 C 2325.53 2.49671 -5.36114 0
M  V30 24946 H 2324.46 0.453808 -0.602142 0
M  V30 24947 H 2327.12 0.475 -1.77246 0
M  V30 24948 H 2325.5 2.95627 -2.63478 0
M  V30 24949 H 2326.67 0.819696 -4.53451 0
M  V30 24950 H 2324.99 0.895851 -4.06649 0
M  V30 24951 H 2327.58 3.67139 -3.88733 0
M  V30 24952 H 2327.93 3.54697 -2.17935 0
M  V30 24953 H 2328.46 2.25218 -3.27905 0
M  V30 24954 H 2325.2 1.94238 -6.26061 0
M  V30 24955 H 2324.72 3.18523 -5.08236 0
M  V30 24956 H 2326.4 3.11231 -5.67225 0
M  V30 24957 N 2326.53 1.40598 0.712035 0
M  V30 24958 C 2327.46 1.43902 1.83887 0
M  V30 24959 C 2328.44 0.299533 1.67442 0
M  V30 24960 O 2329.63 0.508657 1.8742 0
M  V30 24961 C 2326.76 1.30437 3.21875 0
M  V30 24962 C 2325.71 2.42026 3.52998 0
M  V30 24963 C 2325.04 2.13634 4.90168 0
M  V30 24964 C 2326.34 3.84368 3.53636 0
M  V30 24965 H 2328.03 2.38206 1.81379 0
M  V30 24966 H 2325.58 1.14655 0.871217 0
M  V30 24967 H 2327.53 1.31364 4.00402 0
M  V30 24968 H 2326.25 0.326107 3.24968 0
M  V30 24969 H 2324.91 2.40354 2.76813 0
M  V30 24970 H 2324.56 1.14191 4.89867 0
M  V30 24971 H 2324.26 2.88398 5.11957 0
M  V30 24972 H 2325.78 2.1625 5.71024 0
M  V30 24973 H 2327.2 3.87844 4.22196 0
M  V30 24974 H 2325.59 4.5868 3.86953 0
M  V30 24975 H 2326.66 4.13698 2.52947 0
M  V30 24976 N 2328.01 -0.94462 1.26153 0
M  V30 24977 C 2328.97 -2.02438 1.07477 0
M  V30 24978 C 2329.97 -1.60782 0.0242347 0
M  V30 24979 O 2331.16 -1.72136 0.267333 0
M  V30 24980 C 2328.29 -3.34952 0.634015 0
M  V30 24981 H 2329.49 -2.20438 2.0334 0
M  V30 24982 H 2327.04 -1.1231 1.08702 0
M  V30 24983 H 2327.77 -3.2265 -0.326754 0
M  V30 24984 H 2327.56 -3.66539 1.39253 0
M  V30 24985 H 2329.05 -4.14286 0.525083 0
M  V30 24986 N 2329.49 -1.07901 -1.1487 0
M  V30 24987 C 2330.73 -0.806758 -1.86063 0
M  V30 24988 C 2331.06 0.665674 -1.82435 0
M  V30 24989 O 2330.34 1.48896 -1.2514 0
M  V30 24990 C 2330.62 -1.32273 -3.34927 0
M  V30 24991 C 2330.48 -2.86012 -3.47156 0
M  V30 24992 C 2331.79 -0.943792 -4.29861 0
M  V30 24993 H 2328.91 -0.294537 -0.675586 0
M  V30 24994 H 2331.56 -1.33775 -1.34923 0
M  V30 24995 H 2329.71 -0.87104 -3.78609 0
M  V30 24996 H 2331.38 -3.39512 -3.12296 0
M  V30 24997 H 2329.62 -3.2393 -2.88533 0
M  V30 24998 H 2330.29 -3.17185 -4.51772 0
M  V30 24999 H 2332.77 -1.33309 -3.94167 0
M  V30 25000 H 2331.64 -1.33207 -5.32491 0
M  V30 25001 H 2331.9 0.149719 -4.41846 0
M  V30 25002 N 2330.96 1.31811 -0.863929 0
M  V30 25003 C 2332.24 1.91616 -0.392784 0
M  V30 25004 C 2332.62 1.78652 1.12458 0
M  V30 25005 O 2331.97 1.1904 1.95043 0
M  V30 25006 C 2332.18 3.38048 -0.867445 0
M  V30 25007 C 2333.53 4.15167 -0.890039 0
M  V30 25008 O 2334.55 3.46805 -0.812696 0
M  V30 25009 O 2333.41 5.37256 -1.00089 0
M  V30 25010 H 2330.5 0.818771 -0.116372 0
M  V30 25011 H 2333.05 1.40519 -0.951443 0
M  V30 25012 H 2331.82 3.4147 -1.91087 0
M  V30 25013 H 2331.44 3.96565 -0.286757 0
M  V30 25014 N 2332.44 0.62277 1.44773 0
M  V30 25015 C 2333.37 -0.0741451 2.33382 0
M  V30 25016 C 2334.35 -0.843361 1.47721 0
M  V30 25017 O 2335.54 -0.810903 1.7646 0
M  V30 25018 C 2332.67 -1.06198 3.30665 0
M  V30 25019 C 2331.62 -0.404962 4.2608 0
M  V30 25020 C 2330.95 -1.50211 5.13167 0
M  V30 25021 C 2332.25 0.683505 5.17808 0
M  V30 25022 H 2333.94 0.665765 2.91904 0
M  V30 25023 H 2331.49 0.321611 1.40363 0
M  V30 25024 H 2333.44 -1.5582 3.91533 0
M  V30 25025 H 2332.16 -1.83267 2.70334 0
M  V30 25026 H 2330.82 0.0705327 3.66532 0
M  V30 25027 H 2330.47 -2.26347 4.49195 0
M  V30 25028 H 2330.17 -1.06792 5.77814 0
M  V30 25029 H 2331.7 -2.00031 5.76906 0
M  V30 25030 H 2333.11 0.270731 5.7266 0
M  V30 25031 H 2331.51 1.04034 5.91014 0
M  V30 25032 H 2332.58 1.55403 4.59323 0
M  V30 25033 N 2333.92 -1.53367 0.362817 0
M  V30 25034 C 2335.33 -1.86333 -0.116989 0
M  V30 25035 C 2335.68 -1.28349 -1.48394 0
M  V30 25036 O 2334.81 -0.604464 -2.07786 0
M  V30 25037 C 2335.4 -3.38091 -0.21906 0
M  V30 25038 C 2333.96 -3.70865 -0.643118 0
M  V30 25039 C 2333.11 -2.76493 0.211367 0
M  V30 25040 H 2336.06 -1.47654 0.581713 0
M  V30 25041 H 2336.08 -3.65922 -1.04313 0
M  V30 25042 H 2335.59 -3.80264 0.775969 0
M  V30 25043 H 2333.69 -3.34248 -1.64648 0
M  V30 25044 H 2333.81 -4.77259 -0.419646 0
M  V30 25045 H 2332.17 -2.5269 -0.319323 0
M  V30 25046 H 2332.95 -3.21499 1.20388 0
M  V30 25047 N 2335.4 -0.091913 -1.57332 0
M  V30 25048 C 2336.35 0.868173 -2.13849 0
M  V30 25049 C 2337.32 1.28194 -1.0562 0
M  V30 25050 O 2338.5 1.36425 -1.3339 0
M  V30 25051 C 2335.64 2.12307 -2.72065 0
M  V30 25052 C 2334.75 1.76013 -3.94517 0
M  V30 25053 C 2333.89 2.96265 -4.40908 0
M  V30 25054 C 2332.93 2.56082 -5.55957 0
M  V30 25055 N 2332.06 3.69159 -5.97215 0
M  V30 25056 H 2336.9 0.379354 -2.95576 0
M  V30 25057 H 2334.44 0.17558 -1.46048 0
M  V30 25058 H 2336.4 2.85795 -3.03936 0
M  V30 25059 H 2335.03 2.58695 -1.93072 0
M  V30 25060 H 2334.08 0.92507 -3.68981 0
M  V30 25061 H 2335.39 1.42464 -4.78022 0
M  V30 25062 H 2334.55 3.78009 -4.74546 0
M  V30 25063 H 2333.29 3.33022 -3.56297 0
M  V30 25064 H 2332.29 1.72764 -5.21951 0
M  V30 25065 H 2333.52 2.20473 -6.42315 0
M  V30 25066 H 2331.46 4.0564 -5.1555 0
M  V30 25067 H 2331.38 3.39444 -6.7551 0
M  V30 25068 H 2332.65 4.51423 -6.35482 0
M  V30 25069 N 2336.88 1.56548 0.181765 0
M  V30 25070 C 2337.79 1.98817 1.24535 0
M  V30 25071 C 2338.8 0.897887 1.49044 0
M  V30 25072 O 2339.98 1.2047 1.61397 0
M  V30 25073 C 2337.04 2.33059 2.56679 0
M  V30 25074 C 2336.1 3.55863 2.40125 0
M  V30 25075 C 2335.34 3.88463 3.65968 0
M  V30 25076 O 2335.56 3.22169 4.70705 0
M  V30 25077 O 2334.49 4.81849 3.60701 0
M  V30 25078 H 2338.32 2.89538 0.916596 0
M  V30 25079 H 2335.91 1.44279 0.387817 0
M  V30 25080 H 2337.79 2.561 3.3465 0
M  V30 25081 H 2336.46 1.45503 2.89155 0
M  V30 25082 H 2335.37 3.38054 1.6022 0
M  V30 25083 H 2336.7 4.43928 2.12578 0
M  V30 25084 N 2338.35 -0.449957 1.5104 0
M  V30 25085 C 2339.58 -1.22317 1.66871 0
M  V30 25086 C 2340 -1.85321 0.360759 0
M  V30 25087 O 2339.35 -1.70167 -0.659501 0
M  V30 25088 C 2339.41 -2.31648 2.77528 0
M  V30 25089 O 2339.13 -1.71223 4.03255 0
M  V30 25090 C 2340.63 -3.22155 3.04518 0
M  V30 25091 H 2337.85 -0.369145 0.560333 0
M  V30 25092 H 2340.39 -0.534684 1.97386 0
M  V30 25093 H 2338.55 -2.96234 2.49648 0
M  V30 25094 H 2338.96 -2.43381 4.64614 0
M  V30 25095 H 2340.43 -3.95031 3.85557 0
M  V30 25096 H 2340.91 -3.82176 2.16422 0
M  V30 25097 H 2341.52 -2.63282 3.3401 0
M  V30 25098 N 2339.83 -1.40974 -0.704569 0
M  V30 25099 C 2341.08 -1.39148 -1.46016 0
M  V30 25100 C 2341.39 -0.000623636 -1.956 0
M  V30 25101 O 2342.6 0.140252 -2.71138 0
M  V30 25102 C 2341.06 -2.44615 -2.63992 0
M  V30 25103 C 2340.66 -3.89565 -2.21231 0
M  V30 25104 C 2342.41 -2.51913 -3.41673 0
M  V30 25105 C 2340.32 -4.86603 -3.36112 0
M  V30 25106 H 2339.25 -0.517431 -0.548435 0
M  V30 25107 H 2341.9 -1.66759 -0.765754 0
M  V30 25108 H 2340.28 -2.10121 -3.35656 0
M  V30 25109 H 2341.45 -4.3326 -1.56915 0
M  V30 25110 H 2339.77 -3.85844 -1.56567 0
M  V30 25111 H 2342.36 -3.21597 -4.27176 0
M  V30 25112 H 2342.71 -1.5531 -3.86244 0
M  V30 25113 H 2343.24 -2.85453 -2.77059 0
M  V30 25114 H 2339.98 -5.84578 -2.96562 0
M  V30 25115 H 2339.5 -4.47564 -3.99307 0
M  V30 25116 H 2341.18 -5.06941 -4.0202 0
M  V30 25117 N 2341.31 0.937917 -1.26653 0
M  V30 25118 C 2342.24 2.05431 -1.10997 0
M  V30 25119 C 2343.22 1.70094 -0.014246 0
M  V30 25120 O 2344.41 1.93299 -0.186871 0
M  V30 25121 C 2341.54 3.39202 -0.745621 0
M  V30 25122 C 2340.49 3.88612 -1.79344 0
M  V30 25123 C 2339.82 5.19071 -1.28333 0
M  V30 25124 C 2341.12 4.13133 -3.1956 0
M  V30 25125 H 2342.81 2.18787 -2.04384 0
M  V30 25126 H 2340.36 1.0513 -0.98406 0
M  V30 25127 H 2342.31 4.1677 -0.622961 0
M  V30 25128 H 2341.03 3.25831 0.223953 0
M  V30 25129 H 2339.69 3.13228 -1.90483 0
M  V30 25130 H 2339.34 5.02084 -0.303503 0
M  V30 25131 H 2339.04 5.531 -1.98379 0
M  V30 25132 H 2340.56 5.99219 -1.1734 0
M  V30 25133 H 2341.98 4.81304 -3.1148 0
M  V30 25134 H 2340.38 4.5845 -3.87226 0
M  V30 25135 H 2341.45 3.18794 -3.65374 0
M  V30 25136 N 2342.79 1.08509 1.14296 0
M  V30 25137 C 2343.72 0.673897 2.19069 0
M  V30 25138 C 2344.73 -0.279549 1.60382 0
M  V30 25139 O 2345.92 -0.067044 1.78374 0
M  V30 25140 C 2343.02 -0.0290383 3.38888 0
M  V30 25141 C 2342.2 0.943569 4.27101 0
M  V30 25142 C 2341.25 0.275768 5.25477 0
M  V30 25143 O 2340.28 0.9205 5.61708 0
M  V30 25144 N 2341.48 -0.973913 5.72272 0
M  V30 25145 H 2344.25 1.57525 2.54963 0
M  V30 25146 H 2341.81 0.97131 1.29527 0
M  V30 25147 H 2343.8 -0.486759 4.01762 0
M  V30 25148 H 2342.37 -0.832502 3.01311 0
M  V30 25149 H 2341.59 1.5801 3.61146 0
M  V30 25150 H 2342.88 1.6026 4.82902 0
M  V30 25151 H 2342.28 -1.51745 5.44968 0
M  V30 25152 H 2340.83 -1.37511 6.37129 0
M  V30 25153 N 2344.27 -1.31351 0.870907 0
M  V30 25154 C 2345.51 -1.96672 0.482307 0
M  V30 25155 C 2345.84 -1.68838 -0.965608 0
M  V30 25156 O 2345.1 -0.977967 -1.69512 0
M  V30 25157 C 2345.4 -3.50731 0.687219 0
M  V30 25158 C 2345.06 -3.98587 2.10807 0
M  V30 25159 C 2343.72 -4.11366 2.49663 0
M  V30 25160 C 2346.08 -4.23742 3.03466 0
M  V30 25161 C 2343.4 -4.46652 3.80419 0
M  V30 25162 C 2345.76 -4.60493 4.33738 0
M  V30 25163 C 2344.42 -4.71479 4.72508 0
M  V30 25164 H 2343.69 -0.719675 0.176489 0
M  V30 25165 H 2346.34 -1.56469 1.10407 0
M  V30 25166 H 2344.64 -3.91796 -0.0176787 0
M  V30 25167 H 2346.34 -3.99323 0.366355 0
M  V30 25168 H 2342.93 -3.89137 1.79639 0
M  V30 25169 H 2347.11 -4.13363 2.74672 0
M  V30 25170 H 2342.37 -4.53355 4.10218 0
M  V30 25171 H 2346.54 -4.7891 5.05587 0
M  V30 25172 H 2344.17 -4.98577 5.73868 0
M  V30 25173 N 2345.74 -0.630439 -1.44441 0
M  V30 25174 C 2346.67 0.0617672 -2.33418 0
M  V30 25175 C 2347.66 0.835515 -1.48166 0
M  V30 25176 O 2348.84 0.801533 -1.76887 0
M  V30 25177 C 2345.97 1.04443 -3.31223 0
M  V30 25178 C 2344.92 0.382361 -4.26289 0
M  V30 25179 C 2344.25 1.47488 -5.13957 0
M  V30 25180 C 2345.55 -0.710956 -5.17439 0
M  V30 25181 H 2347.24 -0.681236 -2.91547 0
M  V30 25182 H 2344.79 -0.329051 -1.4019 0
M  V30 25183 H 2346.74 1.53742 -3.92354 0
M  V30 25184 H 2345.47 1.81831 -2.71302 0
M  V30 25185 H 2344.13 -0.0899698 -3.6649 0
M  V30 25186 H 2343.77 2.23962 -4.50389 0
M  V30 25187 H 2343.47 1.03727 -5.78372 0
M  V30 25188 H 2345 1.96968 -5.77958 0
M  V30 25189 H 2346.41 -0.301097 -5.72509 0
M  V30 25190 H 2344.81 -1.07166 -5.90454 0
M  V30 25191 H 2345.88 -1.57837 -4.58493 0
M  V30 25192 N 2347.22 1.53172 -0.370945 0
M  V30 25193 C 2348.45 2.06227 0.220257 0
M  V30 25194 C 2348.87 1.24228 1.41241 0
M  V30 25195 O 2348.23 0.262677 1.79387 0
M  V30 25196 C 2348.28 3.55797 0.5866 0
M  V30 25197 O 2347.38 3.76491 1.68311 0
M  V30 25198 H 2346.72 0.663285 0.0307982 0
M  V30 25199 H 2349.25 1.97533 -0.533102 0
M  V30 25200 H 2349.26 3.98917 0.8561 0
M  V30 25201 H 2347.94 4.14922 -0.285086 0
M  V30 25202 H 2346.52 3.45266 1.40875 0
M  V30 25203 N 2348.7 0.100255 1.57281 0
M  V30 25204 C 2349.63 -0.853819 2.1733 0
M  V30 25205 C 2350.61 -1.29058 1.10806 0
M  V30 25206 O 2351.8 -1.35655 1.38966 0
M  V30 25207 C 2348.93 -2.11104 2.75776 0
M  V30 25208 C 2347.88 -1.81273 3.87717 0
M  V30 25209 C 2347.21 -3.13867 4.32888 0
M  V30 25210 C 2348.51 -1.09565 5.10679 0
M  V30 25211 H 2350.2 -0.353493 2.97306 0
M  V30 25212 H 2347.75 -0.168587 1.4301 0
M  V30 25213 H 2349.7 -2.7829 3.16437 0
M  V30 25214 H 2348.42 -2.63429 1.93061 0
M  V30 25215 H 2347.08 -1.16483 3.47602 0
M  V30 25216 H 2346.73 -3.64089 3.47057 0
M  V30 25217 H 2346.43 -2.94687 5.08363 0
M  V30 25218 H 2347.95 -3.82202 4.76187 0
M  V30 25219 H 2349.37 -1.66869 5.48477 0
M  V30 25220 H 2347.77 -1.00546 5.91617 0
M  V30 25221 H 2348.84 -0.0792447 4.84835 0
M  V30 25222 N 2350.18 -1.56643 -0.17346 0
M  V30 25223 C 2351.09 -1.99475 -1.23479 0
M  V30 25224 C 2352.11 -0.905778 -1.48565 0
M  V30 25225 O 2353.28 -1.21324 -1.60756 0
M  V30 25226 C 2350.35 -2.34417 -2.5544 0
M  V30 25227 C 2349.41 -3.57131 -2.38234 0
M  V30 25228 C 2348.64 -3.90398 -3.63903 0
M  V30 25229 O 2348.86 -3.24661 -4.6899 0
M  V30 25230 O 2347.8 -4.83755 -3.58141 0
M  V30 25231 H 2351.62 -2.9002 -0.901228 0
M  V30 25232 H 2349.21 -1.44482 -0.38016 0
M  V30 25233 H 2351.09 -2.57871 -3.33287 0
M  V30 25234 H 2349.77 -1.47035 -2.88379 0
M  V30 25235 H 2348.67 -3.38899 -1.58425 0
M  V30 25236 H 2350.01 -4.45049 -2.1022 0
M  V30 25237 N 2351.66 0.44194 -1.51277 0
M  V30 25238 C 2352.9 1.19047 -1.64922 0
M  V30 25239 C 2353.26 1.89026 -0.358764 0
M  V30 25240 O 2352.55 1.80411 0.645161 0
M  V30 25241 C 2352.75 2.23681 -2.7875 0
M  V30 25242 C 2352.57 1.63972 -4.1874 0
M  V30 25243 C 2351.34 1.42665 -4.84742 0
M  V30 25244 C 2353.54 1.11849 -5.0199 0
M  V30 25245 N 2351.52 0.785052 -6.0886 0
M  V30 25246 C 2352.9 0.60188 -6.17072 0
M  V30 25247 C 2354.95 1.00981 -4.87552 0
M  V30 25248 C 2353.65 -0.0127276 -7.19299 0
M  V30 25249 C 2355.68 0.409103 -5.89983 0
M  V30 25250 C 2355.04 -0.0969889 -7.04333 0
M  V30 25251 H 2351.14 0.42346 -0.657424 0
M  V30 25252 H 2353.72 0.487787 -1.88491 0
M  V30 25253 H 2351.9 2.91343 -2.56853 0
M  V30 25254 H 2353.63 2.90661 -2.816 0
M  V30 25255 H 2350.38 1.68711 -4.42531 0
M  V30 25256 H 2350.81 0.481823 -6.75283 0
M  V30 25257 H 2355.45 1.38696 -3.99404 0
M  V30 25258 H 2353.17 -0.402021 -8.07099 0
M  V30 25259 H 2356.75 0.326977 -5.8088 0
M  V30 25260 H 2355.63 -0.554511 -7.82237 0
M  V30 25261 N 2353.14 1.41345 0.697083 0
M  V30 25262 C 2354.41 1.31112 1.45152 0
M  V30 25263 C 2354.79 -0.0620078 2.11009 0
M  V30 25264 O 2354.14 -1.07614 2.01572 0
M  V30 25265 C 2354.35 2.46342 2.47218 0
M  V30 25266 C 2355.7 2.87436 3.12515 0
M  V30 25267 O 2356.72 2.4607 2.57542 0
M  V30 25268 O 2355.58 3.58964 4.12077 0
M  V30 25269 H 2352.68 0.5159 0.646356 0
M  V30 25270 H 2355.22 1.53306 0.727689 0
M  V30 25271 H 2353.99 3.37977 1.97198 0
M  V30 25272 H 2353.62 2.26016 3.27112 0
M  V30 25273 N 2354.61 -0.931187 1.27148 0
M  V30 25274 C 2355.58 -2.01287 1.09618 0
M  V30 25275 C 2356.58 -1.60747 0.0412864 0
M  V30 25276 O 2357.77 -1.71843 0.285575 0
M  V30 25277 C 2354.9 -3.34261 0.669505 0
M  V30 25278 H 2356.09 -2.18269 2.05666 0
M  V30 25279 H 2353.64 -1.11151 1.09887 0
M  V30 25280 H 2354.38 -3.22978 -0.292515 0
M  V30 25281 H 2354.16 -3.65042 1.43133 0
M  V30 25282 H 2355.65 -4.13705 0.568994 0
M  V30 25283 N 2356.09 -1.09114 -1.13719 0
M  V30 25284 C 2357.37 -0.737737 -1.81154 0
M  V30 25285 C 2357.75 0.777649 -1.96255 0
M  V30 25286 O 2357.1 1.69886 -1.5281 0
M  V30 25287 C 2357.31 -1.47305 -3.16389 0
M  V30 25288 C 2358.65 -1.63677 -3.91784 0
M  V30 25289 O 2359.68 -1.4353 -3.26003 0
M  V30 25290 O 2358.54 -1.96978 -5.09767 0
M  V30 25291 H 2355.63 -0.264644 -0.783513 0
M  V30 25292 H 2358.18 -1.19315 -1.20674 0
M  V30 25293 H 2356.95 -2.50503 -3.00606 0
M  V30 25294 H 2356.57 -1.0096 -3.84568 0
M  V30 25295 N 2357.57 1.30887 -0.877861 0
M  V30 25296 C 2358.48 2.32077 -0.343136 0
M  V30 25297 C 2359.5 1.65046 0.550993 0
M  V30 25298 O 2360.67 1.96404 0.445819 0
M  V30 25299 C 2357.74 3.43899 0.439845 0
M  V30 25300 C 2356.8 4.26572 -0.483186 0
M  V30 25301 C 2356.03 5.33054 0.262522 0
M  V30 25302 O 2356.25 5.50607 1.48958 0
M  V30 25303 O 2355.19 6.00676 -0.383698 0
M  V30 25304 H 2359.01 2.79751 -1.18208 0
M  V30 25305 H 2356.6 1.34928 -0.641473 0
M  V30 25306 H 2358.48 4.12036 0.883432 0
M  V30 25307 H 2357.16 2.98373 1.25521 0
M  V30 25308 H 2356.06 3.61159 -0.975437 0
M  V30 25309 H 2357.4 4.75684 -1.26436 0
M  V30 25310 N 2359.05 0.638091 1.44105 0
M  V30 25311 C 2359.98 -0.101165 2.28977 0
M  V30 25312 C 2360.99 -0.802063 1.41671 0
M  V30 25313 O 2362.18 -0.662346 1.65757 0
M  V30 25314 C 2359.28 -1.16575 3.18219 0
M  V30 25315 C 2358.45 -0.54599 4.33979 0
M  V30 25316 C 2357.51 -1.50545 5.04205 0
M  V30 25317 O 2356.54 -1.01989 5.59988 0
M  V30 25318 N 2357.74 -2.83971 5.06301 0
M  V30 25319 H 2360.51 0.627238 2.93063 0
M  V30 25320 H 2358.07 0.479758 1.54628 0
M  V30 25321 H 2360.06 -1.80808 3.62064 0
M  V30 25322 H 2358.63 -1.79629 2.55836 0
M  V30 25323 H 2357.85 0.275115 3.93239 0
M  V30 25324 H 2359.14 -0.112703 5.08675 0
M  V30 25325 H 2358.54 -3.25994 4.62325 0
M  V30 25326 H 2357.09 -3.43546 5.53913 0
M  V30 25327 N 2360.53 -1.52973 0.379063 0
M  V30 25328 C 2361.49 -2.24763 -0.448826 0
M  V30 25329 C 2362.49 -1.26029 -0.998667 0
M  V30 25330 O 2363.68 -1.50204 -0.882286 0
M  V30 25331 C 2360.81 -2.99478 -1.62866 0
M  V30 25332 H 2362 -2.99362 0.179544 0
M  V30 25333 H 2359.56 -1.5575 0.130988 0
M  V30 25334 H 2360.29 -2.29155 -2.29475 0
M  V30 25335 H 2360.08 -3.71936 -1.24121 0
M  V30 25336 H 2361.57 -3.54014 -2.21504 0
M  V30 25337 N 2362 -0.108595 -1.57225 0
M  V30 25338 C 2363.25 0.551909 -1.94834 0
M  V30 25339 C 2363.58 1.67346 -0.991233 0
M  V30 25340 O 2362.83 1.95696 -0.0132222 0
M  V30 25341 C 2363.13 1.13457 -3.38913 0
M  V30 25342 C 2362.8 0.13543 -4.50697 0
M  V30 25343 C 2361.46 -0.139336 -4.80998 0
M  V30 25344 C 2363.81 -0.546048 -5.18332 0
M  V30 25345 C 2361.14 -1.10204 -5.76257 0
M  V30 25346 C 2363.49 -1.49732 -6.14624 0
M  V30 25347 C 2362.16 -1.78018 -6.43324 0
M  V30 25348 H 2361.43 0.201958 -0.712947 0
M  V30 25349 H 2364.07 -0.187294 -1.90582 0
M  V30 25350 H 2362.38 1.95031 -3.39809 0
M  V30 25351 H 2364.08 1.65355 -3.6532 0
M  V30 25352 H 2360.67 0.359771 -4.27087 0
M  V30 25353 H 2364.85 -0.346929 -4.95086 0
M  V30 25354 H 2360.11 -1.32805 -5.96802 0
M  V30 25355 H 2364.28 -2.03111 -6.66122 0
M  V30 25356 H 2361.91 -2.52771 -7.16945 0
M  V30 25357 N 2363.48 1.56732 0.16515 0
M  V30 25358 C 2364.43 1.97811 1.22366 0
M  V30 25359 C 2365.42 0.867766 1.45486 0
M  V30 25360 O 2366.63 1.0529 1.45993 0
M  V30 25361 H 2363 0.629438 0.411474 0
M  V30 25362 H 2364.98 2.86027 0.850375 0
M  V30 25363 C 2363.72 2.35938 2.55398 0
M  V30 25364 H 2363.05 3.2092 2.38433 0
M  V30 25365 H 2364.49 2.6852 3.28136 0
M  V30 25366 C 2362.95 1.20512 3.14608 0
M  V30 25367 O 2363.48 0.496086 3.98625 0
M  V30 25368 N 2361.68 0.974078 2.73788 0
M  V30 25369 H 2361.23 1.55242 2.05567 0
M  V30 25370 H 2361.19 0.203629 3.1374 0
M  V30 25371 N 2364.96 -0.433911 1.51509 0
M  V30 25372 C 2366.19 -1.2054 1.68159 0
M  V30 25373 C 2366.6 -1.84928 0.380395 0
M  V30 25374 O 2365.96 -1.70857 -0.641416 0
M  V30 25375 C 2366.01 -2.28691 2.79969 0
M  V30 25376 O 2365.73 -1.66936 4.05048 0
M  V30 25377 C 2367.23 -3.18907 3.07918 0
M  V30 25378 H 2364.45 -0.363181 0.564217 0
M  V30 25379 H 2367 -0.513719 1.97942 0
M  V30 25380 H 2365.15 -2.9357 2.52776 0
M  V30 25381 H 2365.57 -2.3844 4.67169 0
M  V30 25382 H 2367.04 -3.90919 3.89726 0
M  V30 25383 H 2367.52 -3.79859 2.20463 0
M  V30 25384 H 2368.12 -2.59725 3.36783 0
M  V30 25385 N 2366.44 -1.41713 -0.689577 0
M  V30 25386 C 2367.67 -1.4476 -1.47825 0
M  V30 25387 C 2368.08 -0.0546035 -1.88721 0
M  V30 25388 O 2367.44 0.927435 -1.57178 0
M  V30 25389 C 2367.49 -2.36165 -2.73694 0
M  V30 25390 O 2367.21 -3.70045 -2.34518 0
M  V30 25391 C 2368.71 -2.48079 -3.67385 0
M  V30 25392 H 2365.93 -0.492848 -0.455349 0
M  V30 25393 H 2368.48 -1.86065 -0.848541 0
M  V30 25394 H 2366.63 -1.98154 -3.32887 0
M  V30 25395 H 2367.04 -4.18853 -3.15694 0
M  V30 25396 H 2368.52 -3.16189 -4.52469 0
M  V30 25397 H 2369 -1.51395 -4.12282 0
M  V30 25398 H 2369.6 -2.86751 -3.14092 0
M  V30 25399 N 2367.92 0.924431 -1.2764 0
M  V30 25400 C 2369.16 1.67495 -1.14339 0
M  V30 25401 C 2369.5 1.91719 0.309431 0
M  V30 25402 O 2368.77 1.50991 1.22605 0
M  V30 25403 C 2369.05 3.03947 -1.93102 0
M  V30 25404 C 2368.91 2.86943 -3.46386 0
M  V30 25405 C 2370.23 4.04327 -1.73805 0
M  V30 25406 H 2367.34 0.607864 -0.416738 0
M  V30 25407 H 2369.99 1.07253 -1.56834 0
M  V30 25408 H 2368.14 3.55369 -1.56988 0
M  V30 25409 H 2369.81 2.42614 -3.92347 0
M  V30 25410 H 2368.05 2.22219 -3.72561 0
M  V30 25411 H 2368.72 3.83797 -3.96742 0
M  V30 25412 H 2371.2 3.61927 -2.05299 0
M  V30 25413 H 2370.07 4.97785 -2.31303 0
M  V30 25414 H 2370.34 4.36733 -0.686802 0
M  V30 25415 N 2369.39 1.09715 1.13139 0
M  V30 25416 C 2370.34 0.739235 2.18641 0
M  V30 25417 C 2371.31 -0.28095 1.63707 0
M  V30 25418 O 2372.5 -0.161912 1.90112 0
M  V30 25419 C 2369.64 0.169162 3.44685 0
M  V30 25420 C 2368.75 1.24375 4.13709 0
M  V30 25421 C 2367.88 0.636112 5.27378 0
M  V30 25422 C 2366.92 1.6918 5.88256 0
M  V30 25423 N 2366.06 1.10497 6.9335 0
M  V30 25424 H 2370.9 1.64316 2.48604 0
M  V30 25425 H 2368.44 0.820896 1.22064 0
M  V30 25426 H 2370.4 -0.179182 4.16815 0
M  V30 25427 H 2369.03 -0.698024 3.15163 0
M  V30 25428 H 2368.08 1.70933 3.39832 0
M  V30 25429 H 2369.39 2.04319 4.55033 0
M  V30 25430 H 2368.54 0.236784 6.06238 0
M  V30 25431 H 2367.28 -0.194843 4.87311 0
M  V30 25432 H 2366.29 2.10064 5.08088 0
M  V30 25433 H 2367.51 2.52547 6.30394 0
M  V30 25434 H 2365.46 0.29535 6.55335 0
M  V30 25435 H 2365.38 1.84134 7.33233 0
M  V30 25436 H 2366.64 0.731946 7.76056 0
M  V30 25437 N 2370.87 -1.30419 0.88479 0
M  V30 25438 C 2371.8 -2.27112 0.308695 0
M  V30 25439 C 2372.82 -1.53701 -0.536628 0
M  V30 25440 O 2374.01 -1.7491 -0.356209 0
M  V30 25441 C 2371.11 -3.33905 -0.579723 0
M  V30 25442 C 2370.28 -4.3676 0.236493 0
M  V30 25443 C 2369.34 -5.22967 -0.58239 0
M  V30 25444 O 2368.36 -5.692 -0.00515497 0
M  V30 25445 N 2369.57 -5.48818 -1.89153 0
M  V30 25446 H 2372.33 -2.77184 1.13969 0
M  V30 25447 H 2369.89 -1.43597 0.747756 0
M  V30 25448 H 2371.88 -3.88499 -1.13359 0
M  V30 25449 H 2370.45 -2.83763 -1.31139 0
M  V30 25450 H 2369.67 -3.82033 0.971807 0
M  V30 25451 H 2370.96 -5.02535 0.796013 0
M  V30 25452 H 2370.36 -5.13039 -2.38343 0
M  V30 25453 H 2368.92 -6.06288 -2.39286 0
M  V30 25454 N 2372.35 -0.645724 -1.43764 0
M  V30 25455 C 2373.28 0.0370066 -2.33471 0
M  V30 25456 C 2374.26 0.819753 -1.49044 0
M  V30 25457 O 2375.45 0.782727 -1.77727 0
M  V30 25458 C 2372.58 1.00924 -3.32313 0
M  V30 25459 C 2371.53 0.337126 -4.2667 0
M  V30 25460 C 2370.86 1.42028 -5.15492 0
M  V30 25461 C 2372.16 -0.765797 -5.16655 0
M  V30 25462 H 2373.85 -0.71212 -2.90808 0
M  V30 25463 H 2371.4 -0.343901 -1.39833 0
M  V30 25464 H 2373.35 1.49571 -3.93962 0
M  V30 25465 H 2372.07 1.78943 -2.73216 0
M  V30 25466 H 2370.73 -0.128836 -3.66374 0
M  V30 25467 H 2370.38 2.19172 -4.52739 0
M  V30 25468 H 2370.08 0.975864 -5.7944 0
M  V30 25469 H 2371.6 1.90827 -5.80015 0
M  V30 25470 H 2373.02 -0.361802 -5.72157 0
M  V30 25471 H 2371.42 -1.13423 -5.89284 0
M  V30 25472 H 2372.49 -1.62691 -4.56793 0
M  V30 25473 N 2373.83 1.5277 -0.38717 0
M  V30 25474 C 2374.76 2.29307 0.440511 0
M  V30 25475 C 2375.74 1.32607 1.06533 0
M  V30 25476 O 2376.92 1.61499 1.0785 0
M  V30 25477 C 2374.05 3.09831 1.56914 0
M  V30 25478 C 2373.01 4.14397 1.07047 0
M  V30 25479 C 2372.33 4.83133 2.291 0
M  V30 25480 C 2373.63 5.22113 0.139923 0
M  V30 25481 H 2375.33 2.98744 -0.198079 0
M  V30 25482 H 2372.87 1.43675 -0.0967052 0
M  V30 25483 H 2374.83 3.62131 2.15497 0
M  V30 25484 H 2373.55 2.38123 2.23528 0
M  V30 25485 H 2372.21 3.63075 0.507183 0
M  V30 25486 H 2371.86 4.07975 2.94219 0
M  V30 25487 H 2371.56 5.53807 1.96396 0
M  V30 25488 H 2373.08 5.38236 2.8833 0
M  V30 25489 H 2374.5 5.69785 0.633878 0
M  V30 25490 H 2372.89 6.00021 -0.097254 0
M  V30 25491 H 2373.96 4.78056 -0.811795 0
M  V30 25492 N 2375.31 0.116931 1.57166 0
M  V30 25493 C 2376.53 -0.552675 1.99901 0
M  V30 25494 C 2376.96 -1.59562 0.996067 0
M  V30 25495 O 2376.31 -1.81271 -0.0325241 0
M  V30 25496 C 2376.36 -1.15736 3.41522 0
M  V30 25497 O 2375.47 -2.27292 3.4411 0
M  V30 25498 H 2374.81 -0.138246 0.649449 0
M  V30 25499 H 2377.34 0.204795 2.03572 0
M  V30 25500 H 2377.35 -1.49339 3.79686 0
M  V30 25501 H 2376.02 -0.393421 4.14035 0
M  V30 25502 H 2374.6 -1.95144 3.17763 0
M  V30 25503 N 2376.78 -1.56818 -0.156836 0
M  V30 25504 C 2378.2 -1.51261 -0.509133 0
M  V30 25505 C 2378.4 -0.82369 -1.83896 0
M  V30 25506 O 2377.46 -0.390099 -2.49468 0
M  V30 25507 C 2378.77 -2.96019 -0.528518 0
M  V30 25508 C 2380.32 -3.06904 -0.614718 0
M  V30 25509 C 2380.79 -4.53149 -0.664858 0
M  V30 25510 N 2382.28 -4.57454 -0.727353 0
M  V30 25511 C 2383.02 -5.67974 -0.786967 0
M  V30 25512 N 2382.51 -6.88089 -0.806528 0
M  V30 25513 N 2384.31 -5.55982 -0.827097 0
M  V30 25514 H 2376.46 -2.00005 0.71497 0
M  V30 25515 H 2378.72 -0.911779 0.259542 0
M  V30 25516 H 2378.43 -3.49639 0.380216 0
M  V30 25517 H 2378.3 -3.51444 -1.36992 0
M  V30 25518 H 2380.69 -2.5331 -1.51387 0
M  V30 25519 H 2380.77 -2.54539 0.253642 0
M  V30 25520 H 2380.41 -5.07379 0.2301 0
M  V30 25521 H 2380.34 -5.03285 -1.54957 0
M  V30 25522 H 2382.83 -3.70979 -0.719933 0
M  V30 25523 H 2383.15 -7.68071 -0.853592 0
M  V30 25524 H 2381.49 -6.9067 -0.774566 0
M  V30 25525 H 2384.68 -4.61058 -0.808917 0
M  V30 25526 H 2384.86 -6.42132 -0.870093 0
M  V30 25527 N 2378.26 0.425871 -1.51737 0
M  V30 25528 C 2379.19 1.52491 -1.7683 0
M  V30 25529 C 2380.17 1.58455 -0.618551 0
M  V30 25530 O 2381.36 1.73999 -0.862447 0
M  V30 25531 C 2378.49 2.90471 -1.90379 0
M  V30 25532 C 2377.44 2.99363 -3.05885 0
M  V30 25533 C 2376.77 4.39435 -3.04632 0
M  V30 25534 C 2378.07 2.72387 -4.45649 0
M  V30 25535 H 2379.76 1.31743 -2.68857 0
M  V30 25536 H 2377.31 0.632339 -1.29373 0
M  V30 25537 H 2379.26 3.67327 -2.06516 0
M  V30 25538 H 2377.99 3.12475 -0.950095 0
M  V30 25539 H 2376.64 2.24949 -2.89471 0
M  V30 25540 H 2376.29 4.58424 -2.07018 0
M  V30 25541 H 2375.99 4.46313 -3.82202 0
M  V30 25542 H 2377.52 5.18249 -3.22878 0
M  V30 25543 H 2378.93 3.38971 -4.62354 0
M  V30 25544 H 2377.33 2.90661 -5.25011 0
M  V30 25545 H 2378.4 1.67921 -4.54896 0
M  V30 25546 N 2379.74 1.42077 0.682052 0
M  V30 25547 C 2381.15 1.37548 1.26243 0
M  V30 25548 C 2381.5 0.0651826 1.96092 0
M  V30 25549 O 2380.63 -0.836262 1.99589 0
M  V30 25550 C 2381.22 2.49147 2.29589 0
M  V30 25551 C 2379.78 2.47974 2.83171 0
M  V30 25552 C 2378.93 2.28305 1.57391 0
M  V30 25553 H 2381.88 1.51396 0.475911 0
M  V30 25554 H 2381.9 2.18982 3.11171 0
M  V30 25555 H 2381.41 3.44499 1.78723 0
M  V30 25556 H 2379.51 1.56419 3.38177 0
M  V30 25557 H 2379.63 3.44761 3.32681 0
M  V30 25558 H 2377.99 1.76431 1.83696 0
M  V30 25559 H 2378.77 3.25703 1.08501 0
M  V30 25560 N 2381.22 -0.917649 1.28129 0
M  V30 25561 C 2382.17 -2.01958 1.1172 0
M  V30 25562 C 2383.14 -1.66093 0.0154221 0
M  V30 25563 O 2384.32 -1.89953 0.179629 0
M  V30 25564 C 2381.46 -3.36147 0.780987 0
M  V30 25565 C 2380.57 -3.84906 1.96142 0
M  V30 25566 C 2379.71 -5.07587 1.56617 0
M  V30 25567 C 2378.75 -5.48668 2.71348 0
M  V30 25568 N 2377.89 -6.62541 2.32343 0
M  V30 25569 H 2382.73 -2.15326 2.06007 0
M  V30 25570 H 2380.26 -1.05473 1.02537 0
M  V30 25571 H 2382.22 -4.13332 0.566822 0
M  V30 25572 H 2380.85 -3.22558 -0.124941 0
M  V30 25573 H 2379.9 -3.03912 2.28782 0
M  V30 25574 H 2381.21 -4.11315 2.82172 0
M  V30 25575 H 2380.37 -5.92303 1.31384 0
M  V30 25576 H 2379.11 -4.82977 0.677098 0
M  V30 25577 H 2378.11 -4.62496 2.97284 0
M  V30 25578 H 2379.34 -5.75268 3.60892 0
M  V30 25579 H 2377.28 -6.39569 1.459 0
M  V30 25580 H 2377.2 -6.88656 3.11911 0
M  V30 25581 H 2378.47 -7.50572 2.10384 0
M  V30 25582 N 2382.7 -1.10314 -1.12555 0
M  V30 25583 C 2383.63 -0.708664 -2.17969 0
M  V30 25584 C 2384.64 0.253998 -1.60806 0
M  V30 25585 O 2385.83 0.0386578 -1.78458 0
M  V30 25586 C 2382.93 -0.0248794 -3.38891 0
M  V30 25587 C 2382.1 -1.0114 -4.25546 0
M  V30 25588 C 2381.16 -0.359332 -5.24972 0
M  V30 25589 O 2380.19 -1.00975 -5.60172 0
M  V30 25590 N 2381.39 0.882746 -5.73749 0
M  V30 25591 H 2384.16 -1.61561 -2.52424 0
M  V30 25592 H 2381.72 -0.991793 -1.27965 0
M  V30 25593 H 2383.71 0.422781 -4.02486 0
M  V30 25594 H 2382.28 0.784461 -3.02597 0
M  V30 25595 H 2381.5 -1.63736 -3.58586 0
M  V30 25596 H 2382.79 -1.67922 -4.80291 0
M  V30 25597 H 2382.19 1.43056 -5.47313 0
M  V30 25598 H 2380.74 1.27358 -6.39237 0
M  V30 25599 N 2384.18 1.29948 -0.891694 0
M  V30 25600 C 2385.59 1.48427 -0.586646 0
M  V30 25601 C 2385.79 1.81562 0.873919 0
M  V30 25602 O 2384.85 1.90727 1.65468 0
M  V30 25603 C 2386.16 2.60294 -1.50558 0
M  V30 25604 C 2387.71 2.74172 -1.50993 0
M  V30 25605 C 2388.18 3.89158 -2.41495 0
M  V30 25606 N 2389.67 3.96479 -2.39496 0
M  V30 25607 C 2390.41 4.84778 -3.06231 0
M  V30 25608 N 2389.91 5.77826 -3.82216 0
M  V30 25609 N 2391.7 4.78203 -2.95429 0
M  V30 25610 H 2383.85 1.06715 -1.83646 0
M  V30 25611 H 2386.11 0.529318 -0.786464 0
M  V30 25612 H 2385.82 2.4265 -2.54586 0
M  V30 25613 H 2385.69 3.56921 -1.22014 0
M  V30 25614 H 2388.08 2.91217 -0.477132 0
M  V30 25615 H 2388.16 1.78145 -1.83571 0
M  V30 25616 H 2387.8 3.7287 -3.44863 0
M  V30 25617 H 2387.73 4.84538 -2.0623 0
M  V30 25618 H 2390.23 3.29921 -1.84283 0
M  V30 25619 H 2390.54 6.4198 -4.30211 0
M  V30 25620 H 2388.88 5.77737 -3.86323 0
M  V30 25621 H 2392.07 4.04494 -2.35588 0
M  V30 25622 H 2392.25 5.46808 -3.47714 0
M  V30 25623 N 2385.65 0.653339 1.4342 0
M  V30 25624 C 2386.88 0.174275 2.05864 0
M  V30 25625 C 2387.29 -1.16531 1.49054 0
M  V30 25626 O 2386.63 -1.73046 0.616511 0
M  V30 25627 C 2386.7 0.00882192 3.59499 0
M  V30 25628 C 2386.36 1.27372 4.38891 0
M  V30 25629 C 2387.36 2.20248 4.70943 0
M  V30 25630 C 2385.04 1.51534 4.78898 0
M  V30 25631 C 2387.04 3.35578 5.4191 0
M  V30 25632 C 2384.72 2.67157 5.49609 0
M  V30 25633 C 2385.72 3.59004 5.81038 0
M  V30 25634 O 2385.41 4.72609 6.50305 0
M  V30 25635 H 2385.14 0.0872666 0.670344 0
M  V30 25636 H 2387.7 0.894259 1.84911 0
M  V30 25637 H 2385.93 -0.766534 3.79027 0
M  V30 25638 H 2387.61 -0.427616 4.03641 0
M  V30 25639 H 2388.38 2.02823 4.40554 0
M  V30 25640 H 2384.26 0.809238 4.53842 0
M  V30 25641 H 2387.8 4.07289 5.66358 0
M  V30 25642 H 2383.7 2.84516 5.79414 0
M  V30 25643 H 2384.47 4.71875 6.68787 0
M  V30 25644 N 2387.13 -1.52563 0.395266 0
M  V30 25645 C 2388.06 -2.29538 -0.428344 0
M  V30 25646 C 2389.04 -1.33171 -1.05828 0
M  V30 25647 O 2390.23 -1.62069 -1.06992 0
M  V30 25648 C 2387.36 -3.10659 -1.55268 0
M  V30 25649 C 2386.31 -4.14959 -1.04848 0
M  V30 25650 C 2385.64 -4.84341 -2.26535 0
M  V30 25651 C 2386.94 -5.22179 -0.112232 0
M  V30 25652 H 2388.63 -2.98635 0.213919 0
M  V30 25653 H 2386.18 -1.43622 0.104323 0
M  V30 25654 H 2388.13 -3.63269 -2.13573 0
M  V30 25655 H 2386.85 -2.39306 -2.22262 0
M  V30 25656 H 2385.51 -3.63339 -0.487921 0
M  V30 25657 H 2385.16 -4.0953 -2.92052 0
M  V30 25658 H 2384.86 -5.54841 -1.93457 0
M  V30 25659 H 2386.39 -5.39758 -2.85471 0
M  V30 25660 H 2387.8 -5.70113 -0.603652 0
M  V30 25661 H 2386.2 -5.99961 0.129073 0
M  V30 25662 H 2387.27 -4.77619 0.837136 0
M  V30 25663 N 2388.61 -0.125265 -1.57101 0
M  V30 25664 C 2389.56 0.822617 -2.15642 0
M  V30 25665 C 2390.53 1.25925 -1.08315 0
M  V30 25666 O 2391.71 1.33565 -1.36254 0
M  V30 25667 C 2388.85 2.06489 -2.76508 0
M  V30 25668 C 2387.96 1.67605 -3.98161 0
M  V30 25669 C 2387.1 2.86846 -4.47094 0
M  V30 25670 C 2386.14 2.44232 -5.61264 0
M  V30 25671 N 2385.28 3.56408 -6.04911 0
M  V30 25672 H 2390.12 0.316573 -2.96314 0
M  V30 25673 H 2387.65 0.144562 -1.46388 0
M  V30 25674 H 2389.61 2.79284 -3.0993 0
M  V30 25675 H 2388.24 2.54541 -1.98516 0
M  V30 25676 H 2387.29 0.846595 -3.7086 0
M  V30 25677 H 2388.6 1.32292 -4.80937 0
M  V30 25678 H 2387.76 3.67859 -4.82457 0
M  V30 25679 H 2386.5 3.2539 -3.63281 0
M  V30 25680 H 2385.5 1.61654 -5.25498 0
M  V30 25681 H 2386.73 2.06799 -6.46847 0
M  V30 25682 H 2384.67 3.94613 -5.24038 0
M  V30 25683 H 2384.59 3.25039 -6.82558 0
M  V30 25684 H 2385.86 4.37841 -6.44915 0
M  V30 25685 N 2390.09 1.56899 0.148518 0
M  V30 25686 C 2391.02 2.01184 1.18521 0
M  V30 25687 C 2392 0.891148 1.44888 0
M  V30 25688 O 2393.18 1.15885 1.55834 0
M  V30 25689 C 2390.31 2.39116 2.51874 0
M  V30 25690 C 2389.27 3.54357 2.40031 0
M  V30 25691 C 2388.59 3.78098 3.78082 0
M  V30 25692 C 2389.89 4.87072 1.88568 0
M  V30 25693 H 2391.59 2.88038 0.816979 0
M  V30 25694 H 2389.13 1.38574 0.39155 0
M  V30 25695 H 2391.09 2.68698 3.24622 0
M  V30 25696 H 2389.81 1.49198 2.9053 0
M  V30 25697 H 2388.47 3.24939 1.69736 0
M  V30 25698 H 2388.12 2.85433 4.1417 0
M  V30 25699 H 2387.82 4.55651 3.7102 0
M  V30 25700 H 2389.34 4.10103 4.5238 0
M  V30 25701 H 2390.76 5.15381 2.51108 0
M  V30 25702 H 2389.15 5.68421 1.924 0
M  V30 25703 H 2390.22 4.77546 0.841276 0
M  V30 25704 N 2391.57 -0.417818 1.51961 0
M  V30 25705 C 2392.81 -1.16729 1.65838 0
M  V30 25706 C 2393.14 -1.90388 0.382914 0
M  V30 25707 O 2392.42 -1.8441 -0.618335 0
M  V30 25708 C 2392.7 -2.16871 2.8747 0
M  V30 25709 C 2392.56 -1.47167 4.25043 0
M  V30 25710 C 2393.87 -3.1764 3.04619 0
M  V30 25711 H 2390.99 -0.423001 0.603522 0
M  V30 25712 H 2393.64 -0.454072 1.84494 0
M  V30 25713 H 2391.79 -2.77695 2.71694 0
M  V30 25714 H 2393.46 -0.895297 4.52529 0
M  V30 25715 H 2391.7 -0.773731 4.26844 0
M  V30 25716 H 2392.37 -2.20195 5.0618 0
M  V30 25717 H 2394.85 -2.66886 3.19235 0
M  V30 25718 H 2393.72 -3.84983 3.91253 0
M  V30 25719 H 2393.98 -3.84871 2.17548 0
M  V30 25720 N 2393.04 -1.42436 -0.674508 0
M  V30 25721 C 2394.28 -1.44407 -1.44658 0
M  V30 25722 C 2394.65 -0.0586121 -1.91911 0
M  V30 25723 O 2395.85 0.0469519 -2.68759 0
M  V30 25724 C 2394.12 -2.44018 -2.61132 0
M  V30 25725 S 2395.68 -2.64693 -3.49976 0
M  V30 25726 H 2392.5 -0.511293 -0.494066 0
M  V30 25727 H 2395.1 -1.79042 -0.78513 0
M  V30 25728 H 2393.8 -3.4345 -2.24656 0
M  V30 25729 H 2393.33 -2.10809 -3.32149 0
M  V30 25730 H 2395.35 -1.93015 -4.57121 0
M  V30 25731 N 2394.52 0.910841 -1.28614 0
M  V30 25732 C 2395.8 1.63977 -1.06635 0
M  V30 25733 C 2396.18 2.07404 0.393314 0
M  V30 25734 O 2395.53 1.82125 1.37996 0
M  V30 25735 C 2395.74 2.82906 -2.04365 0
M  V30 25736 C 2397.08 3.53856 -2.34672 0
M  V30 25737 O 2398.11 2.93059 -2.02472 0
M  V30 25738 O 2396.97 4.63434 -2.89639 0
M  V30 25739 H 2394.06 0.719492 -0.40775 0
M  V30 25740 H 2396.61 0.95989 -1.39944 0
M  V30 25741 H 2395.38 2.47931 -3.02731 0
M  V30 25742 H 2395 3.58606 -1.7172 0
M  V30 25743 N 2396 1.10909 1.11969 0
M  V30 25744 C 2396.91 0.774935 2.21432 0
M  V30 25745 C 2397.93 -0.229627 1.72478 0
M  V30 25746 O 2399.1 -0.0671654 2.01288 0
M  V30 25747 C 2396.17 0.217047 3.4602 0
M  V30 25748 C 2395.23 1.27951 4.09789 0
M  V30 25749 C 2394.46 0.748148 5.2843 0
M  V30 25750 O 2394.68 -0.423733 5.68824 0
M  V30 25751 O 2393.62 1.51037 5.82642 0
M  V30 25752 H 2397.44 1.68877 2.52417 0
M  V30 25753 H 2395.03 0.884576 1.20398 0
M  V30 25754 H 2396.91 -0.089985 4.21304 0
M  V30 25755 H 2395.59 -0.669577 3.16699 0
M  V30 25756 H 2394.49 1.63947 3.36262 0
M  V30 25757 H 2395.83 2.13932 4.43276 0
M  V30 25758 N 2397.48 -1.29474 0.898573 0
M  V30 25759 C 2398.73 -1.94884 0.519898 0
M  V30 25760 C 2399.04 -1.71627 -0.93827 0
M  V30 25761 O 2400.25 -2.31134 -1.42441 0
M  V30 25762 C 2398.7 -3.49003 0.878898 0
M  V30 25763 C 2398.31 -3.81062 2.35576 0
M  V30 25764 C 2400.05 -4.20655 0.570078 0
M  V30 25765 C 2397.96 -5.2842 2.65568 0
M  V30 25766 H 2396.89 -0.729485 0.190704 0
M  V30 25767 H 2399.54 -1.47217 1.09541 0
M  V30 25768 H 2397.92 -3.95318 0.232322 0
M  V30 25769 H 2399.1 -3.4561 3.04779 0
M  V30 25770 H 2397.41 -3.22547 2.63349 0
M  V30 25771 H 2400.01 -5.29112 0.771018 0
M  V30 25772 H 2400.35 -4.1339 -0.491331 0
M  V30 25773 H 2400.89 -3.80068 1.17444 0
M  V30 25774 H 2397.63 -5.40748 3.70502 0
M  V30 25775 H 2397.15 -5.65123 2.00987 0
M  V30 25776 H 2398.82 -5.96002 2.51775 0
M  V30 25777 N 2398.96 -0.660936 -1.43071 0
M  V30 25778 C 2400.19 -0.18519 -2.05768 0
M  V30 25779 C 2400.59 1.15739 -1.4967 0
M  V30 25780 O 2399.94 1.72716 -0.62568 0
M  V30 25781 C 2400 -0.0278869 -3.59489 0
M  V30 25782 C 2399.66 -1.29698 -4.38209 0
M  V30 25783 C 2400.66 -2.22742 -4.69768 0
M  V30 25784 C 2398.35 -1.54071 -4.78087 0
M  V30 25785 C 2400.34 -3.38447 -5.40123 0
M  V30 25786 C 2398.03 -2.70068 -5.48185 0
M  V30 25787 C 2399.02 -3.62081 -5.79126 0
M  V30 25788 O 2398.71 -4.76051 -6.47789 0
M  V30 25789 H 2398.44 -0.0908204 -0.669871 0
M  V30 25790 H 2401 -0.904052 -1.84434 0
M  V30 25791 H 2399.23 0.746422 -3.79428 0
M  V30 25792 H 2400.92 0.406204 -4.03862 0
M  V30 25793 H 2401.68 -2.05157 -4.39472 0
M  V30 25794 H 2397.56 -0.833295 -4.53406 0
M  V30 25795 H 2401.11 -4.10287 -5.6419 0
M  V30 25796 H 2397 -2.87584 -5.77897 0
M  V30 25797 H 2397.77 -4.75416 -6.66275 0
M  V30 25798 N 2400.43 1.52351 -0.403352 0
M  V30 25799 C 2401.38 2.28406 0.439712 0
M  V30 25800 C 2402.38 1.32865 1.05087 0
M  V30 25801 O 2403.58 1.50347 0.989733 0
M  V30 25802 H 2399.96 0.734656 0.160574 0
M  V30 25803 H 2401.93 2.97565 -0.223035 0
M  V30 25804 C 2400.68 3.11374 1.5473 0
M  V30 25805 H 2400 3.84757 1.08636 0
M  V30 25806 H 2401.44 3.67705 2.11114 0
M  V30 25807 C 2399.9 2.2457 2.51137 0
M  V30 25808 O 2400.43 1.88203 3.54884 0
M  V30 25809 N 2398.64 1.88454 2.21209 0
M  V30 25810 H 2398.18 2.18227 1.36874 0
M  V30 25811 H 2398.14 1.30667 2.85961 0
M  V30 25812 N 2401.91 0.133594 1.57033 0
M  V30 25813 C 2403.16 -0.520734 1.94862 0
M  V30 25814 C 2403.47 -1.6689 1.02015 0
M  V30 25815 O 2404.68 -2.38696 1.29369 0
M  V30 25816 C 2403.14 -0.977748 3.46364 0
M  V30 25817 C 2402.74 0.142753 4.47773 0
M  V30 25818 C 2404.49 -1.60263 3.93085 0
M  V30 25819 C 2402.4 -0.331779 5.90469 0
M  V30 25820 H 2401.33 -0.198302 0.727456 0
M  V30 25821 H 2403.98 0.215791 1.82227 0
M  V30 25822 H 2402.36 -1.76913 3.54285 0
M  V30 25823 H 2403.53 0.919396 4.51535 0
M  V30 25824 H 2401.85 0.675196 4.10889 0
M  V30 25825 H 2404.44 -1.96905 4.97124 0
M  V30 25826 H 2404.79 -2.48656 3.3388 0
M  V30 25827 H 2405.32 -0.876385 3.88026 0
M  V30 25828 H 2402.06 0.516456 6.53462 0
M  V30 25829 H 2401.58 -1.07459 5.90095 0
M  V30 25830 H 2403.26 -0.788219 6.42181 0
M  V30 25831 N 2403.39 -1.56975 -0.140195 0
M  V30 25832 C 2404.34 -1.98776 -1.17289 0
M  V30 25833 C 2405.31 -0.856433 -1.42318 0
M  V30 25834 O 2406.49 -1.11903 -1.54539 0
M  V30 25835 C 2403.63 -2.37927 -2.49969 0
M  V30 25836 C 2402.75 -3.64382 -2.32056 0
M  V30 25837 C 2401.88 -3.92606 -3.57818 0
M  V30 25838 C 2400.92 -5.12309 -3.34971 0
M  V30 25839 N 2400.06 -5.3651 -4.52882 0
M  V30 25840 H 2404.9 -2.86797 -0.809422 0
M  V30 25841 H 2402.43 -1.41885 -0.388212 0
M  V30 25842 H 2404.39 -2.58657 -3.27341 0
M  V30 25843 H 2403.02 -1.52977 -2.8425 0
M  V30 25844 H 2402.07 -3.51389 -1.45704 0
M  V30 25845 H 2403.39 -4.5191 -2.11137 0
M  V30 25846 H 2402.54 -4.13871 -4.43617 0
M  V30 25847 H 2401.28 -3.03513 -3.81748 0
M  V30 25848 H 2400.28 -4.90911 -2.47561 0
M  V30 25849 H 2401.51 -6.02961 -3.12433 0
M  V30 25850 H 2399.45 -4.50372 -4.76971 0
M  V30 25851 H 2399.37 -6.1832 -4.3499 0
M  V30 25852 H 2400.64 -5.62278 -5.39874 0
M  V30 25853 N 2404.87 0.409753 -1.5218 0
M  V30 25854 C 2406.11 1.15848 -1.66455 0
M  V30 25855 C 2406.45 1.90182 -0.393005 0
M  V30 25856 O 2405.72 1.84735 0.608547 0
M  V30 25857 C 2406.01 2.15344 -2.88616 0
M  V30 25858 C 2405.86 1.44911 -4.25818 0
M  V30 25859 C 2407.18 3.1602 -3.06299 0
M  V30 25860 H 2404.3 0.419794 -0.605757 0
M  V30 25861 H 2406.94 0.444282 -1.84733 0
M  V30 25862 H 2405.09 2.7625 -2.73163 0
M  V30 25863 H 2406.76 0.871285 -4.52997 0
M  V30 25864 H 2405 0.751084 -4.27248 0
M  V30 25865 H 2405.67 2.17507 -5.07341 0
M  V30 25866 H 2408.15 2.6519 -3.20646 0
M  V30 25867 H 2407.03 3.82903 -3.93289 0
M  V30 25868 H 2407.29 3.83711 -2.19586 0
M  V30 25869 N 2406.35 1.42792 0.666944 0
M  V30 25870 C 2407.26 1.49302 1.80959 0
M  V30 25871 C 2408.27 0.381138 1.69774 0
M  V30 25872 O 2409.45 0.633222 1.91186 0
M  V30 25873 C 2406.51 1.40051 3.17154 0
M  V30 25874 C 2405.57 2.61796 3.40237 0
M  V30 25875 C 2404.81 2.52977 4.69934 0
M  V30 25876 O 2405.03 1.56995 5.48369 0
M  V30 25877 O 2403.96 3.43246 4.94435 0
M  V30 25878 H 2407.79 2.45762 1.78423 0
M  V30 25879 H 2405.38 1.24642 0.823691 0
M  V30 25880 H 2407.26 1.37283 3.98411 0
M  V30 25881 H 2405.93 0.467194 3.20311 0
M  V30 25882 H 2404.84 2.70138 2.58798 0
M  V30 25883 H 2406.17 3.54053 3.41917 0
M  V30 25884 N 2407.82 -0.904008 1.29095 0
M  V30 25885 C 2408.77 -2.00762 1.13856 0
M  V30 25886 C 2409.74 -1.66067 0.0330376 0
M  V30 25887 O 2410.93 -1.89751 0.199766 0
M  V30 25888 C 2408.07 -3.35299 0.816595 0
M  V30 25889 C 2407.18 -3.82804 2.00213 0
M  V30 25890 C 2406.31 -5.05897 1.61992 0
M  V30 25891 C 2405.35 -5.45759 2.77152 0
M  V30 25892 N 2404.49 -6.6004 2.39357 0
M  V30 25893 H 2409.33 -2.13128 2.08279 0
M  V30 25894 H 2406.87 -1.0438 1.0365 0
M  V30 25895 H 2408.83 -4.12707 0.61063 0
M  V30 25896 H 2407.46 -3.22672 -0.0907223 0
M  V30 25897 H 2406.51 -3.01469 2.31993 0
M  V30 25898 H 2407.82 -4.08299 2.86519 0
M  V30 25899 H 2406.97 -5.90876 1.37659 0
M  V30 25900 H 2405.71 -4.82232 0.728287 0
M  V30 25901 H 2404.72 -4.59316 3.02173 0
M  V30 25902 H 2405.94 -5.71408 3.66974 0
M  V30 25903 H 2403.89 -6.37986 1.52676 0
M  V30 25904 H 2403.81 -6.85309 3.19197 0
M  V30 25905 H 2405.07 -7.48299 2.18333 0
M  V30 25906 N 2409.3 -1.11501 -1.11379 0
M  V30 25907 C 2410.25 -0.773925 -2.17437 0
M  V30 25908 C 2411.22 0.25487 -1.64133 0
M  V30 25909 O 2412.4 0.131647 -1.90345 0
M  V30 25910 C 2409.54 -0.223977 -3.44372 0
M  V30 25911 C 2408.66 -1.30941 -4.11678 0
M  V30 25912 C 2407.79 -0.719932 -5.26299 0
M  V30 25913 C 2406.83 -1.78517 -5.8549 0
M  V30 25914 N 2405.97 -1.21514 -6.91505 0
M  V30 25915 H 2410.81 -1.68251 -2.45959 0
M  V30 25916 H 2408.35 -0.840212 -1.20743 0
M  V30 25917 H 2410.3 0.112848 -4.17047 0
M  V30 25918 H 2408.93 0.647796 -3.16233 0
M  V30 25919 H 2407.99 -1.76318 -3.3707 0
M  V30 25920 H 2409.3 -2.11532 -4.51725 0
M  V30 25921 H 2408.45 -0.333201 -6.05784 0
M  V30 25922 H 2407.19 0.117291 -4.87559 0
M  V30 25923 H 2406.2 -2.1812 -5.04682 0
M  V30 25924 H 2407.42 -2.62544 -6.26297 0
M  V30 25925 H 2405.37 -0.39957 -6.54782 0
M  V30 25926 H 2405.28 -1.95776 -7.30211 0
M  V30 25927 H 2406.55 -0.855318 -7.74793 0
M  V30 25928 N 2410.78 1.28995 -0.905426 0
M  V30 25929 C 2412.03 1.95614 -0.535073 0
M  V30 25930 C 2412.36 1.71166 0.917374 0
M  V30 25931 O 2411.64 1.02788 1.65121 0
M  V30 25932 C 2411.92 3.50286 -0.83498 0
M  V30 25933 C 2411.77 3.84168 -2.33955 0
M  V30 25934 C 2413.09 4.38895 -0.325395 0
M  V30 25935 H 2410.21 0.710495 -0.195874 0
M  V30 25936 H 2412.85 1.52511 -1.13315 0
M  V30 25937 H 2411 3.8713 -0.325972 0
M  V30 25938 H 2412.67 3.57238 -2.91854 0
M  V30 25939 H 2410.92 3.31508 -2.79795 0
M  V30 25940 H 2411.59 4.92145 -2.49995 0
M  V30 25941 H 2414.06 4.09076 -0.761328 0
M  V30 25942 H 2412.94 5.45991 -0.564391 0
M  V30 25943 H 2413.2 4.35271 0.774067 0
M  V30 25944 N 2412.26 0.668514 1.42719 0
M  V30 25945 C 2413.48 0.194794 2.06483 0
M  V30 25946 C 2413.91 -1.13677 1.49864 0
M  V30 25947 O 2413.27 -1.70564 0.614612 0
M  V30 25948 C 2413.32 0.133609 3.60352 0
M  V30 25949 O 2412.42 -0.899736 4.02466 0
M  V30 25950 H 2411.76 0.101892 0.656136 0
M  V30 25951 H 2414.29 0.915754 1.82962 0
M  V30 25952 H 2414.3 -0.0446324 4.07976 0
M  V30 25953 H 2412.98 1.10557 4.00936 0
M  V30 25954 H 2411.55 -0.693044 3.66403 0
M  V30 25955 N 2413.74 -1.52135 0.411426 0
M  V30 25956 C 2414.98 -2.02137 -0.163852 0
M  V30 25957 C 2415.32 -1.29638 -1.44595 0
M  V30 25958 O 2414.59 -0.403387 -1.90271 0
M  V30 25959 C 2414.87 -3.57767 -0.409208 0
M  V30 25960 C 2414.73 -4.40913 0.889721 0
M  V30 25961 C 2416.05 -4.23697 -1.19035 0
M  V30 25962 H 2413.17 -0.734708 -0.0580766 0
M  V30 25963 H 2415.81 -1.82006 0.545342 0
M  V30 25964 H 2413.96 -3.75052 -1.01333 0
M  V30 25965 H 2415.63 -4.35334 1.52583 0
M  V30 25966 H 2413.87 -4.07034 1.50018 0
M  V30 25967 H 2414.54 -5.47889 0.672411 0
M  V30 25968 H 2417.02 -4.10525 -0.67887 0
M  V30 25969 H 2415.9 -5.32524 -1.33077 0
M  V30 25970 H 2416.16 -3.82807 -2.21159 0
M  V30 25971 N 2415.22 -0.14192 -1.5696 0
M  V30 25972 C 2416.15 0.795898 -2.19517 0
M  V30 25973 C 2417.13 1.26075 -1.14189 0
M  V30 25974 O 2418.31 1.31923 -1.42513 0
M  V30 25975 C 2415.44 2.03718 -2.81276 0
M  V30 25976 C 2414.4 1.70929 -3.92387 0
M  V30 25977 C 2413.72 3.02279 -4.41057 0
M  V30 25978 C 2415.02 0.959864 -5.13404 0
M  V30 25979 H 2416.72 0.274543 -2.98139 0
M  V30 25980 H 2414.26 0.130611 -1.43406 0
M  V30 25981 H 2416.21 2.69802 -3.23705 0
M  V30 25982 H 2414.94 2.58218 -1.99978 0
M  V30 25983 H 2413.6 1.07226 -3.50568 0
M  V30 25984 H 2413.25 3.54759 -3.56588 0
M  V30 25985 H 2412.95 2.81105 -5.15998 0
M  V30 25986 H 2414.47 3.69443 -4.86153 0
M  V30 25987 H 2415.88 1.52269 -5.52709 0
M  V30 25988 H 2414.28 0.848253 -5.94075 0
M  V30 25989 H 2415.35 -0.0493287 -4.84875 0
M  V30 25990 N 2416.69 1.57047 0.131868 0
M  V30 25991 C 2417.94 1.84169 0.8419 0
M  V30 25992 C 2418.27 0.725098 1.80479 0
M  V30 25993 O 2417.52 -0.284658 1.93619 0
M  V30 25994 C 2417.82 3.17707 1.63698 0
M  V30 25995 C 2417.49 4.4339 0.819532 0
M  V30 25996 C 2416.15 4.77519 0.594064 0
M  V30 25997 C 2418.5 5.20605 0.248885 0
M  V30 25998 C 2415.83 5.86315 -0.212512 0
M  V30 25999 C 2418.18 6.3025 -0.544812 0
M  V30 26000 C 2416.85 6.62919 -0.780716 0
M  V30 26001 H 2416.12 0.673923 0.308073 0
M  V30 26002 H 2418.76 1.91213 0.104833 0
M  V30 26003 H 2417.07 3.06182 2.44459 0
M  V30 26004 H 2418.77 3.35911 2.19009 0
M  V30 26005 H 2415.36 4.16642 1.00534 0
M  V30 26006 H 2419.54 4.94601 0.410321 0
M  V30 26007 H 2414.8 6.1006 -0.404631 0
M  V30 26008 H 2418.97 6.89269 -0.994043 0
M  V30 26009 H 2416.6 7.47056 -1.40755 0
M  V30 26010 N 2418.17 -0.401677 1.52395 0
M  V30 26011 C 2419.1 -1.49658 1.79234 0
M  V30 26012 C 2420.08 -1.57451 0.643682 0
M  V30 26013 O 2421.27 -1.72604 0.89002 0
M  V30 26014 C 2418.4 -2.87405 1.94976 0
M  V30 26015 C 2417.35 -2.94459 3.10609 0
M  V30 26016 C 2416.68 -4.34533 3.11585 0
M  V30 26017 C 2417.98 -2.65262 4.49926 0
M  V30 26018 H 2419.67 -1.27449 2.70919 0
M  V30 26019 H 2417.22 -0.611677 1.30363 0
M  V30 26020 H 2419.17 -3.63995 2.12334 0
M  V30 26021 H 2417.89 -3.10924 0.999687 0
M  V30 26022 H 2416.55 -2.20316 2.93013 0
M  V30 26023 H 2416.2 -4.55072 2.14285 0
M  V30 26024 H 2415.9 -4.40176 3.89255 0
M  V30 26025 H 2417.43 -5.13047 3.31082 0
M  V30 26026 H 2418.84 -3.31573 4.67689 0
M  V30 26027 H 2417.24 -2.82271 5.29569 0
M  V30 26028 H 2418.31 -1.60663 4.5751 0
M  V30 26029 N 2419.65 -1.43144 -0.659362 0
M  V30 26030 C 2420.88 -1.47649 -1.44511 0
M  V30 26031 C 2421.29 -0.0910428 -1.88981 0
M  V30 26032 O 2420.63 0.907761 -1.59704 0
M  V30 26033 C 2420.69 -2.3546 -2.71659 0
M  V30 26034 C 2420.36 -3.83098 -2.49168 0
M  V30 26035 C 2421.35 -4.74363 -2.12781 0
M  V30 26036 C 2419.04 -4.27524 -2.63683 0
M  V30 26037 C 2421.03 -6.08047 -1.91199 0
M  V30 26038 C 2418.72 -5.61264 -2.41716 0
M  V30 26039 C 2419.72 -6.51342 -2.05529 0
M  V30 26040 O 2419.41 -7.8261 -1.83786 0
M  V30 26041 H 2419.14 -0.503892 -0.450632 0
M  V30 26042 H 2421.69 -1.88486 -0.816215 0
M  V30 26043 H 2419.92 -1.89499 -3.37086 0
M  V30 26044 H 2421.61 -2.3124 -3.33591 0
M  V30 26045 H 2422.38 -4.41321 -2.01149 0
M  V30 26046 H 2418.26 -3.57689 -2.90825 0
M  V30 26047 H 2421.8 -6.78319 -1.62878 0
M  V30 26048 H 2417.7 -5.93875 -2.52949 0
M  V30 26049 H 2418.46 -7.94125 -1.98261 0
M  V30 26050 N 2421.13 0.897149 -1.29572 0
M  V30 26051 C 2422.35 1.68654 -1.20708 0
M  V30 26052 C 2422.78 1.86706 0.22855 0
M  V30 26053 O 2422.14 1.38922 1.16492 0
M  V30 26054 C 2422.18 3.04714 -1.92826 0
M  V30 26055 O 2421.29 3.93094 -1.24704 0
M  V30 26056 H 2420.63 0.515809 -0.418135 0
M  V30 26057 H 2423.16 1.12057 -1.71185 0
M  V30 26058 H 2423.17 3.54839 -2.01378 0
M  V30 26059 H 2421.84 2.90894 -2.97244 0
M  V30 26060 H 2420.42 3.51529 -1.24426 0
M  V30 26061 N 2422.61 1.1209 1.10786 0
M  V30 26062 C 2423.84 0.895384 1.86189 0
M  V30 26063 C 2424.24 -0.55867 1.80764 0
M  V30 26064 O 2423.59 -1.39783 1.1919 0
M  V30 26065 C 2423.65 1.28743 3.35657 0
M  V30 26066 C 2423.31 2.75204 3.64845 0
M  V30 26067 C 2424.31 3.73406 3.61751 0
M  V30 26068 C 2421.99 3.1202 3.93635 0
M  V30 26069 C 2423.99 5.0644 3.87036 0
M  V30 26070 C 2421.68 4.45237 4.18577 0
M  V30 26071 C 2422.67 5.42256 4.15267 0
M  V30 26072 O 2422.36 6.73073 4.39578 0
M  V30 26073 H 2422.09 0.320081 0.59542 0
M  V30 26074 H 2424.65 1.49369 1.40989 0
M  V30 26075 H 2422.88 0.632307 3.81495 0
M  V30 26076 H 2424.57 1.03663 3.9244 0
M  V30 26077 H 2425.33 3.46309 3.39551 0
M  V30 26078 H 2421.21 2.37116 3.95344 0
M  V30 26079 H 2424.76 5.82157 3.84368 0
M  V30 26080 H 2420.65 4.72065 4.40255 0
M  V30 26081 H 2421.42 6.78964 4.57111 0
M  V30 26082 N 2424.08 -1.28513 0.912254 0
M  V30 26083 C 2425.5 -1.47475 0.610185 0
M  V30 26084 C 2425.7 -1.8293 -0.844923 0
M  V30 26085 O 2424.76 -1.93335 -1.62412 0
M  V30 26086 C 2426.07 -2.57865 1.5468 0
M  V30 26087 C 2427.62 -2.71735 1.55335 0
M  V30 26088 C 2428.09 -3.85267 2.47655 0
M  V30 26089 N 2429.58 -3.92619 2.45774 0
M  V30 26090 C 2430.32 -4.79845 3.13905 0
M  V30 26091 N 2429.81 -5.71672 3.9136 0
M  V30 26092 N 2431.61 -4.73443 3.02999 0
M  V30 26093 H 2423.76 -1.03779 1.8532 0
M  V30 26094 H 2426.02 -0.516739 0.794786 0
M  V30 26095 H 2425.73 -2.38569 2.58414 0
M  V30 26096 H 2425.6 -3.54934 1.27677 0
M  V30 26097 H 2427.99 -2.90421 0.523401 0
M  V30 26098 H 2428.07 -1.75202 1.86381 0
M  V30 26099 H 2427.71 -3.67336 3.50752 0
M  V30 26100 H 2427.64 -4.81195 2.13912 0
M  V30 26101 H 2430.13 -3.26948 1.89509 0
M  V30 26102 H 2430.45 -6.35054 4.4037 0
M  V30 26103 H 2428.79 -5.71517 3.95465 0
M  V30 26104 H 2431.98 -4.00695 2.41994 0
M  V30 26105 H 2432.16 -5.41207 3.56369 0
M  V30 26106 N 2425.56 -0.676073 -1.42362 0
M  V30 26107 C 2426.84 -0.12776 -1.95182 0
M  V30 26108 C 2427.22 1.35774 -1.61643 0
M  V30 26109 O 2426.57 2.09456 -0.913253 0
M  V30 26110 C 2426.78 -0.39826 -3.4672 0
M  V30 26111 C 2428.13 -0.315458 -4.23427 0
M  V30 26112 O 2429.15 -0.332079 -3.54649 0
M  V30 26113 O 2428.01 -0.258746 -5.45887 0
M  V30 26114 H 2425.1 -0.00360881 -0.826992 0
M  V30 26115 H 2427.65 -0.750891 -1.52183 0
M  V30 26116 H 2426.42 -1.42726 -3.64342 0
M  V30 26117 H 2426.04 0.256815 -3.9677 0
M  V30 26118 N 2427.04 1.51915 -0.419488 0
M  V30 26119 C 2428.32 1.94448 0.211965 0
M  V30 26120 C 2428.7 1.35706 1.617 0
M  V30 26121 O 2428.05 0.53697 2.22101 0
M  V30 26122 C 2428.26 3.48381 0.207811 0
M  V30 26123 C 2429.6 4.22497 0.422118 0
M  V30 26124 O 2430.63 3.55044 0.286715 0
M  V30 26125 O 2429.49 5.42128 0.689913 0
M  V30 26126 H 2426.58 0.815137 0.139571 0
M  V30 26127 H 2429.13 1.62882 -0.47618 0
M  V30 26128 H 2427.9 3.83545 -0.775169 0
M  V30 26129 H 2427.52 3.86338 0.93962 0
M  V30 26130 N 2428.52 0.150242 1.56882 0
M  V30 26131 C 2429.75 -0.506178 2.00303 0
M  V30 26132 C 2430.16 -1.58747 1.02937 0
M  V30 26133 O 2429.5 -1.8369 0.0188707 0
M  V30 26134 C 2429.56 -1.16331 3.40158 0
M  V30 26135 C 2429.23 -0.22623 4.5644 0
M  V30 26136 C 2430.22 0.547356 5.17011 0
M  V30 26137 C 2427.91 -0.128191 5.02136 0
M  V30 26138 C 2429.9 1.4064 6.21691 0
M  V30 26139 C 2427.59 0.734452 6.0667 0
M  V30 26140 C 2428.59 1.50035 6.66317 0
M  V30 26141 O 2428.27 2.34861 7.68827 0
M  V30 26142 H 2428.01 -0.135972 0.662184 0
M  V30 26143 H 2430.56 0.242782 2.0396 0
M  V30 26144 H 2428.79 -1.95998 3.33349 0
M  V30 26145 H 2430.48 -1.71979 3.67666 0
M  V30 26146 H 2431.25 0.481665 4.82602 0
M  V30 26147 H 2427.12 -0.714077 4.55436 0
M  V30 26148 H 2430.67 2.00467 6.68176 0
M  V30 26149 H 2426.57 0.801422 6.40506 0
M  V30 26150 H 2427.33 2.28144 7.86061 0
M  V30 26151 N 2430 -1.57115 -0.123538 0
M  V30 26152 C 2431.23 -1.8852 -0.8452 0
M  V30 26153 C 2431.63 -0.739095 -1.74167 0
M  V30 26154 O 2430.98 0.299323 -1.81245 0
M  V30 26155 C 2431.04 -3.14891 -1.73446 0
M  V30 26156 C 2430.7 -4.45637 -1.01277 0
M  V30 26157 C 2431.7 -5.18682 -0.355683 0
M  V30 26158 C 2429.39 -4.92341 -0.995293 0
M  V30 26159 C 2431.38 -6.36649 0.309226 0
M  V30 26160 C 2429.07 -6.10227 -0.326583 0
M  V30 26161 C 2430.06 -6.82229 0.324526 0
M  V30 26162 O 2429.75 -7.97873 0.982578 0
M  V30 26163 H 2429.48 -0.628659 -0.248523 0
M  V30 26164 H 2432.04 -2.05084 -0.113871 0
M  V30 26165 H 2430.27 -2.94398 -2.50732 0
M  V30 26166 H 2431.96 -3.32354 -2.33015 0
M  V30 26167 H 2432.72 -4.83656 -0.360833 0
M  V30 26168 H 2428.6 -4.36205 -1.49151 0
M  V30 26169 H 2432.15 -6.92787 0.818022 0
M  V30 26170 H 2428.04 -6.4471 -0.319181 0
M  V30 26171 H 2428.81 -8.13684 0.886597 0
M  V30 26172 N 2431.47 0.393589 -1.52606 0
M  V30 26173 C 2432.89 0.733332 -1.41755 0
M  V30 26174 C 2433.09 1.94286 -0.534328 0
M  V30 26175 O 2432.15 2.52499 -0.00602308 0
M  V30 26176 C 2433.46 0.972722 -2.84532 0
M  V30 26177 C 2435.01 1.07448 -2.9398 0
M  V30 26178 C 2435.48 1.34653 -4.37759 0
M  V30 26179 N 2436.97 1.41484 -4.41063 0
M  V30 26180 C 2437.71 1.64191 -5.4939 0
M  V30 26181 N 2437.2 1.84398 -6.67809 0
M  V30 26182 N 2439 1.66333 -5.36926 0
M  V30 26183 H 2431.15 -0.402365 -2.08554 0
M  V30 26184 H 2433.41 -0.117805 -0.940652 0
M  V30 26185 H 2433.12 0.156142 -3.51353 0
M  V30 26186 H 2432.99 1.88865 -3.26511 0
M  V30 26187 H 2435.38 1.88163 -2.27329 0
M  V30 26188 H 2435.46 0.13656 -2.55435 0
M  V30 26189 H 2435.1 0.544492 -5.04973 0
M  V30 26190 H 2435.03 2.29722 -4.73852 0
M  V30 26191 H 2437.52 1.27595 -3.55708 0
M  V30 26192 H 2437.84 2.01218 -7.46144 0
M  V30 26193 H 2436.18 1.81632 -6.70846 0
M  V30 26194 H 2439.37 1.50094 -4.43384 0
M  V30 26195 H 2439.55 1.83689 -6.2142 0
M  V30 26196 N 2432.95 1.43492 0.651762 0
M  V30 26197 C 2434.2 1.44472 1.40751 0
M  V30 26198 C 2434.51 0.0732189 1.95463 0
M  V30 26199 O 2435.72 -0.0395244 2.71471 0
M  V30 26200 C 2434.18 2.54244 2.54731 0
M  V30 26201 C 2433.78 3.97507 2.06621 0
M  V30 26202 C 2435.53 2.6442 3.32088 0
M  V30 26203 C 2433.44 4.98743 3.1782 0
M  V30 26204 H 2432.37 0.53743 0.528853 0
M  V30 26205 H 2435.02 1.69486 0.703335 0
M  V30 26206 H 2433.4 2.22434 3.27626 0
M  V30 26207 H 2434.57 4.38785 1.40727 0
M  V30 26208 H 2432.89 3.91389 1.42139 0
M  V30 26209 H 2435.48 3.3723 4.14946 0
M  V30 26210 H 2435.83 1.69538 3.80214 0
M  V30 26211 H 2436.36 2.95539 2.66274 0
M  V30 26212 H 2433.1 5.95182 2.74661 0
M  V30 26213 H 2432.62 4.62076 3.82421 0
M  V30 26214 H 2434.3 5.21512 3.82928 0
M  V30 26215 N 2434.43 -0.890264 1.30046 0
M  V30 26216 C 2435.36 -2.0117 1.18545 0
M  V30 26217 C 2436.34 -1.69924 0.0773655 0
M  V30 26218 O 2437.53 -1.92472 0.258484 0
M  V30 26219 C 2434.66 -3.36201 0.871 0
M  V30 26220 C 2433.61 -3.81688 1.93644 0
M  V30 26221 C 2432.94 -5.1395 1.47509 0
M  V30 26222 C 2434.24 -4.00988 3.34673 0
M  V30 26223 H 2435.93 -2.1105 2.12363 0
M  V30 26224 H 2433.48 -1.01405 1.0224 0
M  V30 26225 H 2435.43 -4.14171 0.777214 0
M  V30 26226 H 2434.15 -3.26438 -0.102868 0
M  V30 26227 H 2432.81 -3.05943 2.01977 0
M  V30 26228 H 2432.46 -5.00611 0.489639 0
M  V30 26229 H 2432.16 -5.45356 2.1877 0
M  V30 26230 H 2433.68 -5.94451 1.39499 0
M  V30 26231 H 2435.1 -4.69412 3.29128 0
M  V30 26232 H 2433.5 -4.43762 4.03974 0
M  V30 26233 H 2434.57 -3.05014 3.76954 0
M  V30 26234 N 2435.91 -1.12676 -1.1019 0
M  V30 26235 C 2437.16 -0.883638 -1.82203 0
M  V30 26236 C 2437.48 0.590459 -1.85321 0
M  V30 26237 O 2436.74 1.45261 -1.3114 0
M  V30 26238 C 2437.04 -1.40676 -3.2855 0
M  V30 26239 C 2436.7 -2.89633 -3.45577 0
M  V30 26240 C 2435.37 -3.30305 -3.49931 0
M  V30 26241 C 2437.72 -3.85507 -3.50762 0
M  V30 26242 C 2435.05 -4.65552 -3.57041 0
M  V30 26243 C 2437.4 -5.20587 -3.59404 0
M  V30 26244 C 2436.06 -5.60798 -3.62024 0
M  V30 26245 H 2435.33 -0.323346 -0.66673 0
M  V30 26246 H 2437.98 -1.40738 -1.29866 0
M  V30 26247 H 2436.28 -0.803538 -3.83472 0
M  V30 26248 H 2437.98 -1.19482 -3.82786 0
M  V30 26249 H 2434.57 -2.57178 -3.42866 0
M  V30 26250 H 2438.75 -3.55177 -3.46645 0
M  V30 26251 H 2434.01 -4.96094 -3.57353 0
M  V30 26252 H 2438.18 -5.947 -3.62361 0
M  V30 26253 H 2435.81 -6.65586 -3.67286 0
M  V30 26254 O 2437.43 1.22649 -1.05069 0
M  V30 26255 H 2438.12 1.79568 -0.726292 0
M  V30 END ATOM
M  V30 BEGIN BOND
M  V30 END BOND
M  V30 END CTAB
M  END
$$$$
