drugbank_target|Q9NY56 Odorant-binding protein 2a (DB00755)
 OpenBabel12092121033D

  0  0  0     0  0            999 V3000
M  V30 BEGIN CTAB
M  V30 COUNTS 2734 2759 0 0 0
M  V30 BEGIN ATOM
M  V30 1 H -0.908 1.98254 -0.117106 0
M  V30 2 N 0 1.576 0 0
M  V30 3 C 0.933 2.03868 1.02534 0
M  V30 4 C 1.911 0.928543 1.3348 0
M  V30 5 O 3.095 1.19667 1.45644 0
M  V30 6 C 0.222 2.43627 2.35294 0
M  V30 7 C -0.732 3.65373 2.2001 0
M  V30 8 S 0.101 5.13292 1.52614 0
M  V30 9 C 1.257 5.56322 2.86805 0
M  V30 10 H 1.49 2.90518 0.631377 0
M  V30 11 H -0.977 1.52953 0.210867 0
M  V30 12 H 0.981 2.67203 3.11629 0
M  V30 13 H -0.358 1.57376 2.7183 0
M  V30 14 H -1.165 3.90944 3.18086 0
M  V30 15 H -1.563 3.418 1.51819 0
M  V30 16 H 0.729 5.58782 3.83104 0
M  V30 17 H 1.672 6.56266 2.65933 0
M  V30 18 H 2.08 4.83886 2.90714 0
M  V30 19 N 1.4781 -0.272755 1.55222 0
M  V30 20 C 2.4251 -1.33716 1.88119 0
M  V30 21 C 3.3951 -1.49066 0.73271 0
M  V30 22 O 4.5801 -1.63469 0.984002 0
M  V30 23 C 1.7201 -2.69238 2.15882 0
M  V30 24 C 0.8331 -2.62108 3.43399 0
M  V30 25 C -0.0319 -3.89811 3.60861 0
M  V30 26 C -0.9929 -3.77193 4.8207 0
M  V30 27 N -1.8559 -4.9673 4.96189 0
M  V30 28 H 2.9841 -1.04962 2.78903 0
M  V30 29 H 0.5211 -0.507088 1.38083 0
M  V30 30 H 2.4791 -3.48089 2.29978 0
M  V30 31 H 1.1091 -2.96194 1.28331 0
M  V30 32 H 0.1611 -1.74967 3.37773 0
M  V30 33 H 1.4731 -2.48685 4.32386 0
M  V30 34 H 0.6271 -4.77103 3.74777 0
M  V30 35 H -0.6339 -4.06102 2.7006 0
M  V30 36 H -1.6289 -2.88284 4.68159 0
M  V30 37 H -0.4039 -3.62421 5.74307 0
M  V30 38 H -2.4579 -5.13431 4.08319 0
M  V30 39 H -2.5409 -4.85839 5.79221 0
M  V30 40 H -1.2729 -5.85594 5.1449 0
M  V30 41 N 2.9562 -1.48159 -0.537278 0
M  V30 42 C 4.1842 -1.59454 -1.31841 0
M  V30 43 C 4.5992 -0.252065 -1.8711 0
M  V30 44 O 3.9562 0.757621 -1.66031 0
M  V30 45 C 4.0072 -2.63546 -2.47439 0
M  V30 46 O 3.7282 -3.92583 -1.94449 0
M  V30 47 C 5.2292 -2.85212 -3.39366 0
M  V30 48 H 2.4492 -0.53785 -0.401196 0
M  V30 49 H 4.9932 -1.93932 -0.648891 0
M  V30 50 H 3.1482 -2.31946 -3.1029 0
M  V30 51 H 3.5622 -4.49629 -2.70063 0
M  V30 52 H 5.0362 -3.61863 -4.16844 0
M  V30 53 H 5.5132 -1.93765 -3.94147 0
M  V30 54 H 6.1192 -3.18086 -2.82314 0
M  V30 55 N 4.4343 0.785586 -1.36625 0
M  V30 56 C 5.3643 1.91259 -1.33949 0
M  V30 57 C 6.3453 1.68795 -0.210325 0
M  V30 58 O 7.5303 1.89854 -0.408561 0
M  V30 59 C 4.6603 3.28339 -1.13186 0
M  V30 60 C 3.6143 3.65335 -2.22967 0
M  V30 61 C 2.9403 5.00806 -1.87342 0
M  V30 62 C 4.2403 3.7352 -3.65075 0
M  V30 63 H 5.9343 1.93755 -2.28253 0
M  V30 64 H 3.4803 0.930788 -1.09874 0
M  V30 65 H 5.4333 4.06804 -1.09948 0
M  V30 66 H 4.1573 3.2624 -0.153332 0
M  V30 67 H 2.8163 2.89169 -2.25337 0
M  V30 68 H 2.4643 4.95233 -0.880545 0
M  V30 69 H 2.1643 5.26529 -2.60846 0
M  V30 70 H 3.6883 5.81687 -1.85667 0
M  V30 71 H 5.1023 4.42168 -3.64911 0
M  V30 72 H 3.4993 4.10731 -4.37516 0
M  V30 73 H 4.5693 2.74527 -3.99703 0
M  V30 74 N 5.9124 1.20967 1.01018 0
M  V30 75 C 7.1594 1.02374 1.74716 0
M  V30 76 C 7.4874 -0.443375 1.89379 0
M  V30 77 O 6.7424 -1.34535 1.42123 0
M  V30 78 C 7.0414 1.65997 3.16512 0
M  V30 79 C 6.7074 3.15831 3.2181 0
M  V30 80 C 5.3694 3.56719 3.22963 0
M  V30 81 C 7.7214 4.11816 3.19464 0
M  V30 82 C 5.0494 4.92107 3.19449 0
M  V30 83 C 7.4014 5.47158 3.17491 0
M  V30 84 C 6.0654 5.87451 3.16951 0
M  V30 85 H 5.3354 0.374614 0.639332 0
M  V30 86 H 7.9824 1.50485 1.18434 0
M  V30 87 H 6.2874 1.10166 3.75993 0
M  V30 88 H 7.9844 1.49119 3.72242 0
M  V30 89 H 4.5744 2.83263 3.21652 0
M  V30 90 H 8.7584 3.81257 3.17737 0
M  V30 91 H 4.0144 5.22579 3.17366 0
M  V30 92 H 8.1884 6.21274 3.14629 0
M  V30 93 H 5.8154 6.92329 3.13983 0
M  V30 94 N 7.3905 -1.2043 1.01659 0
M  V30 95 C 8.3205 -2.25466 0.607226 0
M  V30 96 C 9.3015 -1.65853 -0.377716 0
M  V30 97 O 10.4865 -1.92409 -0.263149 0
M  V30 98 C 7.6165 -3.47256 -0.0552949 0
M  V30 99 C 6.5705 -4.19462 0.850632 0
M  V30 100 C 5.8965 -5.34673 0.0538859 0
M  V30 101 C 7.1965 -4.75603 2.15868 0
M  V30 102 H 8.8905 -2.59962 1.48526 0
M  V30 103 H 6.4365 -1.2496 0.715605 0
M  V30 104 H 8.3895 -4.19917 -0.353233 0
M  V30 105 H 7.1135 -3.11924 -0.968045 0
M  V30 106 H 5.7725 -3.48667 1.13257 0
M  V30 107 H 5.4205 -4.95585 -0.860514 0
M  V30 108 H 5.1205 -5.83913 0.657192 0
M  V30 109 H 6.6445 -6.10138 -0.237598 0
M  V30 110 H 8.0585 -5.40083 1.92311 0
M  V30 111 H 6.4555 -5.3528 2.71284 0
M  V30 112 H 7.5255 -3.94346 2.82169 0
M  V30 113 N 8.8686 -0.792821 -1.36206 0
M  V30 114 C 10.1166 -0.366062 -1.98757 0
M  V30 115 C 10.4376 1.0668 -1.63231 0
M  V30 116 O 9.7076 1.73587 -0.907978 0
M  V30 117 H 8.2876 -0.132364 -0.735179 0
M  V30 118 H 10.9496 -1.01562 -1.66347 0
M  V30 119 H 10.0456 -0.460638 -3.08682 0
M  V30 120 N 10.3467 1.47872 -0.545128 0
M  V30 121 C 11.5927 2.02793 -0.0166104 0
M  V30 122 C 11.9257 1.41987 1.32489 0
M  V30 123 O 11.2007 0.571045 1.85928 0
M  V30 124 C 11.4837 3.59989 0.0893294 0
M  V30 125 C 11.3367 4.3125 -1.27841 0
M  V30 126 C 12.6557 4.32606 0.808724 0
M  V30 127 H 9.7747 0.736962 -0.00751035 0
M  V30 128 H 12.4167 1.76433 -0.705085 0
M  V30 129 H 10.5667 3.82579 0.675681 0
M  V30 130 H 12.2387 4.20035 -1.90704 0
M  V30 131 H 10.4817 3.92076 -1.85632 0
M  V30 132 H 11.1527 5.39736 -1.15713 0
M  V30 133 H 13.6287 4.14936 0.310992 0
M  V30 134 H 12.5047 5.42251 0.851782 0
M  V30 135 H 12.7657 4.00963 1.86229 0
M  V30 136 N 11.8248 0.280983 1.55075 0
M  V30 137 C 13.0528 -0.337293 2.04132 0
M  V30 138 C 13.4678 -1.4903 1.15912 0
M  V30 139 O 12.8248 -1.81606 0.180459 0
M  V30 140 C 12.8758 -0.812706 3.52246 0
M  V30 141 O 12.5968 0.294387 4.3711 0
M  V30 142 C 14.0978 -1.4982 4.17216 0
M  V30 143 H 11.3178 -0.0761638 0.666663 0
M  V30 144 H 13.8618 0.414787 2.00249 0
M  V30 145 H 12.0168 -1.51486 3.56554 0
M  V30 146 H 12.4308 -0.0721325 5.2445 0
M  V30 147 H 13.9048 -1.7822 5.22438 0
M  V30 148 H 14.3818 -2.43168 3.65741 0
M  V30 149 H 14.9878 -0.839742 4.16927 0
M  V30 150 N 13.3029 -1.57598 0.00835791 0
M  V30 151 C 14.2329 -2.1198 -0.979113 0
M  V30 152 C 15.2139 -1.03091 -1.35301 0
M  V30 153 O 16.3989 -1.30818 -1.43528 0
M  V30 154 C 13.5289 -2.62995 -2.26828 0
M  V30 155 C 12.4829 -3.76485 -2.03576 0
M  V30 156 C 11.8089 -4.13846 -3.38579 0
M  V30 157 C 13.1089 -5.0342 -1.39161 0
M  V30 158 H 14.8029 -2.94738 -0.526281 0
M  V30 159 H 12.3489 -1.41783 -0.251704 0
M  V30 160 H 14.3019 -2.99669 -2.96271 0
M  V30 161 H 13.0259 -1.7737 -2.7424 0
M  V30 162 H 11.6849 -3.40217 -1.36557 0
M  V30 163 H 11.3329 -3.25232 -3.83709 0
M  V30 164 H 11.0329 -4.90312 -3.23834 0
M  V30 165 H 12.5569 -4.53086 -4.09323 0
M  V30 166 H 13.9709 -5.37812 -1.98573 0
M  V30 167 H 12.3679 -5.84746 -1.34878 0
M  V30 168 H 13.4379 -4.83548 -0.361868 0
M  V30 169 N 14.781 0.264519 -1.55364 0
M  V30 170 C 16.029 0.993021 -1.76021 0
M  V30 171 C 16.35 1.86511 -0.569099 0
M  V30 172 O 15.62 1.91438 0.415735 0
M  V30 173 H 14.2 0.369639 -0.649135 0
M  V30 174 H 16.862 0.286707 -1.9278 0
M  V30 175 H 15.958 1.62502 -2.66457 0
M  V30 176 N 16.2591 1.48442 0.529413 0
M  V30 177 C 17.1891 1.65902 1.64313 0
M  V30 178 C 18.1701 0.507897 1.6234 0
M  V30 179 O 19.3551 0.740503 1.79528 0
M  V30 180 C 16.4851 1.69911 3.02898 0
M  V30 181 C 15.4391 2.8453 3.19729 0
M  V30 182 C 14.7651 2.73629 4.59381 0
M  V30 183 C 16.0651 4.25821 3.02447 0
M  V30 184 H 17.7591 2.5914 1.49955 0
M  V30 185 H 15.3051 1.24709 0.719982 0
M  V30 186 H 17.2581 1.80715 3.80684 0
M  V30 187 H 15.9821 0.732524 3.18279 0
M  V30 188 H 14.6411 2.73283 2.44361 0
M  V30 189 H 14.2891 1.74938 4.71599 0
M  V30 190 H 13.9891 3.50541 4.71588 0
M  V30 191 H 15.5131 2.86401 5.39265 0
M  V30 192 H 16.9271 4.37898 3.70024 0
M  V30 193 H 15.3241 5.03735 3.26146 0
M  V30 194 H 16.3941 4.42244 1.98867 0
M  V30 195 N 17.7372 -0.778329 1.37039 0
M  V30 196 C 18.7002 -1.87301 1.32102 0
M  V30 197 C 19.7002 -1.59198 0.226405 0
M  V30 198 O 20.8902 -1.67403 0.481861 0
M  V30 199 C 18.0222 -3.24309 1.05055 0
M  V30 200 H 19.2152 -1.93093 2.29467 0
M  V30 201 H 16.7682 -0.977358 1.21973 0
M  V30 202 H 17.5032 -3.24196 0.0819373 0
M  V30 203 H 17.2882 -3.46098 1.84279 0
M  V30 204 H 18.7782 -4.04382 1.04234 0
M  V30 205 N 19.2153 -1.21501 -1.00376 0
M  V30 206 C 20.1783 -0.976927 -2.07337 0
M  V30 207 C 21.1783 0.0525322 -1.60714 0
M  V30 208 O 22.3683 -0.184869 -1.73216 0
M  V30 209 C 19.5003 -0.473423 -3.37597 0
M  V30 210 H 20.6933 -1.92587 -2.29892 0
M  V30 211 H 18.2463 -1.03217 -1.17371 0
M  V30 212 H 18.9813 0.480379 -3.20722 0
M  V30 213 H 18.7663 -1.216 -3.72768 0
M  V30 214 H 20.2563 -0.32675 -4.1632 0
M  V30 215 N 20.6934 1.19889 -1.02296 0
M  V30 216 C 21.6564 2.21116 -0.603351 0
M  V30 217 C 22.6564 1.5738 0.329884 0
M  V30 218 O 23.8464 1.73802 0.117702 0
M  V30 219 C 20.9784 3.40696 0.117992 0
M  V30 220 H 22.1714 2.59754 -1.49893 0
M  V30 221 H 19.7244 1.33463 -0.813468 0
M  V30 222 H 20.4594 3.07569 1.0282 0
M  V30 223 H 20.2444 3.88188 -0.552511 0
M  V30 224 H 21.7344 4.15692 0.398696 0
M  V30 225 N 22.1715 0.800033 1.35784 0
M  V30 226 C 23.1015 0.220184 2.3246 0
M  V30 227 C 24.0825 -0.65073 1.57161 0
M  V30 228 O 25.2675 -0.582359 1.85263 0
M  V30 229 C 22.3975 -0.637353 3.41402 0
M  V30 230 C 21.3515 0.134531 4.27789 0
M  V30 231 C 20.6775 -0.844285 5.27992 0
M  V30 232 C 21.9775 1.32979 5.05088 0
M  V30 233 H 23.6715 1.02787 2.81203 0
M  V30 234 H 21.2175 0.495717 1.35199 0
M  V30 235 H 23.1705 -1.05302 4.08031 0
M  V30 236 H 21.8945 -1.47785 2.91251 0
M  V30 237 H 20.5535 0.531296 3.6273 0
M  V30 238 H 20.2015 -1.68011 4.74111 0
M  V30 239 H 19.9015 -0.332184 5.8666 0
M  V30 240 H 21.4255 -1.2583 5.97494 0
M  V30 241 H 22.8395 0.98934 5.64699 0
M  V30 242 H 21.2365 1.77593 5.7322 0
M  V30 243 H 22.3065 2.11978 4.36111 0
M  V30 244 N 23.6496 -1.47581 0.552962 0
M  V30 245 C 24.8746 -2.07378 0.0300593 0
M  V30 246 C 25.2996 -1.40355 -1.25229 0
M  V30 247 O 24.6576 -0.477099 -1.7491 0
M  V30 248 C 24.7056 -3.60274 -0.153231 0
M  V30 249 O 23.8096 -3.94041 -1.21678 0
M  V30 250 H 23.1506 -0.662158 0.0494182 0
M  V30 251 H 25.6806 -1.89662 0.767434 0
M  V30 252 H 25.6906 -4.0633 -0.368761 0
M  V30 253 H 24.3656 -4.08455 0.783397 0
M  V30 254 H 22.9426 -3.59735 -0.982079 0
M  V30 255 N 25.1277 -0.289203 -1.54924 0
M  V30 256 C 26.3747 0.323519 -1.99899 0
M  V30 257 C 26.7027 1.54797 -1.17762 0
M  V30 258 O 25.9577 1.94237 -0.238835 0
M  V30 259 C 26.2567 0.736119 -3.49737 0
M  V30 260 C 25.9227 -0.385276 -4.49251 0
M  V30 261 C 24.5847 -0.693156 -4.76181 0
M  V30 262 C 26.9367 -1.14021 -5.08575 0
M  V30 263 C 24.2647 -1.7593 -5.59701 0
M  V30 264 C 26.6167 -2.19619 -5.93254 0
M  V30 265 C 25.2807 -2.51026 -6.185 0
M  V30 266 H 24.5507 0.118384 -0.731482 0
M  V30 267 H 27.1977 -0.405847 -1.8715 0
M  V30 268 H 25.5027 1.54539 -3.60035 0
M  V30 269 H 27.1997 1.22118 -3.81953 0
M  V30 270 H 23.7897 -0.135202 -4.28387 0
M  V30 271 H 27.9737 -0.915611 -4.87781 0
M  V30 272 H 23.2297 -2.0075 -5.77503 0
M  V30 273 H 27.4037 -2.78581 -6.38252 0
M  V30 274 H 25.0307 -3.33772 -6.83008 0
M  V30 275 N 26.6058 1.57591 -0.0167156 0
M  V30 276 C 27.8338 1.95575 0.675128 0
M  V30 277 C 28.2488 0.892542 1.6637 0
M  V30 278 O 27.6058 -0.126912 1.82058 0
M  V30 279 C 27.6568 3.33608 1.39239 0
M  V30 280 O 27.3778 4.3585 0.443444 0
M  V30 281 C 28.8788 3.86151 2.17721 0
M  V30 282 H 26.0988 0.644423 0.186978 0
M  V30 283 H 28.6428 2.0437 -0.0728 0
M  V30 284 H 26.7978 3.2607 2.09182 0
M  V30 285 H 27.2118 5.158 0.951358 0
M  V30 286 H 28.6858 4.85114 2.63379 0
M  V30 287 H 29.1628 3.19738 3.01105 0
M  V30 288 H 29.7688 3.96918 1.52761 0
M  V30 289 N 28.0839 -0.256276 1.55502 0
M  V30 290 C 29.0139 -1.32102 1.92539 0
M  V30 291 C 29.9949 -1.50684 0.789194 0
M  V30 292 O 31.1799 -1.63449 1.04872 0
M  V30 293 C 28.3099 -2.67752 2.21192 0
M  V30 294 C 27.2639 -2.63878 3.36975 0
M  V30 295 C 26.5899 -4.03236 3.51147 0
M  V30 296 C 27.8899 -2.21682 4.72921 0
M  V30 297 H 29.5839 -1.01351 2.81724 0
M  V30 298 H 27.1299 -0.486105 1.35547 0
M  V30 299 H 29.0829 -3.42365 2.45691 0
M  V30 300 H 27.8069 -3.0012 1.28824 0
M  V30 301 H 26.4659 -1.91722 3.12471 0
M  V30 302 H 26.1139 -4.32854 2.56216 0
M  V30 303 H 25.8139 -4.01535 4.29003 0
M  V30 304 H 27.3379 -4.79563 3.77957 0
M  V30 305 H 28.7519 -2.86023 4.96854 0
M  V30 306 H 27.1489 -2.3111 5.53812 0
M  V30 307 H 28.2189 -1.16833 4.70615 0
M  V30 308 N 29.562 -1.4872 -0.521534 0
M  V30 309 C 30.472 -1.66569 -1.65203 0
M  V30 310 C 31.488 -0.548197 -1.65139 0
M  V30 311 O 32.664 -0.820339 -1.83936 0
M  V30 312 C 29.729 -1.70917 -3.01642 0
M  V30 313 C 28.79 -2.94356 -3.12495 0
M  V30 314 C 28.023 -2.98487 -4.42426 0
M  V30 315 O 28.246 -2.10786 -5.30024 0
M  V30 316 O 27.18 -3.90746 -4.57822 0
M  V30 317 H 31.006 -2.62298 -1.5308 0
M  V30 318 H 28.591 -1.3222 -0.695565 0
M  V30 319 H 30.473 -1.7625 -3.82771 0
M  V30 320 H 29.148 -0.783633 -3.14071 0
M  V30 321 H 28.055 -2.94552 -2.3063 0
M  V30 322 H 29.388 -3.86322 -3.04986 0
M  V30 323 N 31.0401 0.771051 -1.3745 0
M  V30 324 C 31.9501 1.91538 -1.35464 0
M  V30 325 C 32.9661 1.72134 -0.254123 0
M  V30 326 O 34.1421 1.95358 -0.489626 0
M  V30 327 C 31.2071 3.26671 -1.16134 0
M  V30 328 C 30.2681 3.58723 -2.35831 0
M  V30 329 C 29.5011 4.87409 -2.17413 0
M  V30 330 O 29.7241 5.58506 -1.15876 0
M  V30 331 O 28.6581 5.18539 -3.05615 0
M  V30 332 H 32.4841 1.96165 -2.31847 0
M  V30 333 H 30.0691 0.9139 -1.18187 0
M  V30 334 H 31.9511 4.07499 -1.07345 0
M  V30 335 H 30.6261 3.22894 -0.228251 0
M  V30 336 H 29.5331 2.78127 -2.50192 0
M  V30 337 H 30.8661 3.67243 -3.27709 0
M  V30 338 N 32.5182 1.22032 0.997298 0
M  V30 339 C 33.4282 1.00271 2.12092 0
M  V30 340 C 34.4442 -0.047621 1.73935 0
M  V30 341 O 35.6202 0.144136 2.00884 0
M  V30 342 C 32.6852 0.578449 3.4184 0
M  V30 343 C 31.7462 1.70189 3.94125 0
M  V30 344 C 30.9792 1.29778 5.17681 0
M  V30 345 O 31.2022 0.174676 5.70132 0
M  V30 346 O 30.1362 2.11261 5.63607 0
M  V30 347 H 33.9622 1.94398 2.3333 0
M  V30 348 H 31.5472 1.00587 1.10465 0
M  V30 349 H 33.4292 0.351998 4.19927 0
M  V30 350 H 32.1042 -0.334019 3.21972 0
M  V30 351 H 31.0112 1.98282 3.1723 0
M  V30 352 H 32.3442 2.59206 4.18417 0
M  V30 353 N 33.9963 -1.19345 1.0293 0
M  V30 354 C 35.2733 -1.84811 0.640642 0
M  V30 355 C 35.6533 -1.91855 -0.88062 0
M  V30 356 O 35.0013 -1.43587 -1.7775 0
M  V30 357 C 35.2113 -3.23755 1.30321 0
M  V30 358 C 36.5593 -3.99912 1.42673 0
M  V30 359 O 37.5833 -3.33155 1.26041 0
M  V30 360 O 36.4423 -5.19494 1.6967 0
M  V30 361 H 33.5363 -0.796443 0.222726 0
M  V30 362 H 36.0823 -1.26831 1.12748 0
M  V30 363 H 34.8543 -3.13466 2.34211 0
M  V30 364 H 34.4773 -3.89381 0.804261 0
M  V30 365 N 35.4744 -0.807222 -1.35358 0
M  V30 366 C 36.7234 -0.384376 -1.98004 0
M  V30 367 C 37.0364 1.0543 -1.64754 0
M  V30 368 O 38.2424 1.58029 -2.20769 0
M  V30 369 C 36.6984 -0.636326 -3.5423 0
M  V30 370 C 36.3064 -2.08759 -3.96388 0
M  V30 371 C 38.0504 -0.278869 -4.23583 0
M  V30 372 C 35.9574 -2.28525 -5.45463 0
M  V30 373 H 34.8874 -0.139986 -0.740891 0
M  V30 374 H 37.5384 -0.991369 -1.54415 0
M  V30 375 H 35.9204 0.0406256 -3.95979 0
M  V30 376 H 37.0944 -2.8024 -3.6579 0
M  V30 377 H 35.4094 -2.40497 -3.39926 0
M  V30 378 H 38.0064 -0.404599 -5.33167 0
M  V30 379 H 38.3494 0.775012 -4.09022 0
M  V30 380 H 38.8824 -0.909764 -3.87257 0
M  V30 381 H 35.6214 -3.32361 -5.64992 0
M  V30 382 H 35.1414 -1.61569 -5.77629 0
M  V30 383 H 36.8204 -2.10109 -6.11934 0
M  V30 384 N 36.9525 1.47285 -0.560781 0
M  V30 385 C 38.1805 2.06855 -0.0430262 0
M  V30 386 C 38.5955 1.41291 1.25229 0
M  V30 387 O 37.9525 0.510648 1.7521 0
M  V30 388 C 38.0035 3.61178 0.152518 0
M  V30 389 O 37.7245 4.24285 -1.0915 0
M  V30 390 C 39.2255 4.37624 0.707145 0
M  V30 391 H 36.4455 0.669319 -0.0474652 0
M  V30 392 H 38.9895 1.89237 -0.77521 0
M  V30 393 H 37.1445 3.78298 0.834843 0
M  V30 394 H 37.5585 5.16868 -0.891482 0
M  V30 395 H 39.0325 5.46271 0.793244 0
M  V30 396 H 39.5095 4.04152 1.71923 0
M  V30 397 H 40.1155 4.25257 0.0604027 0
M  V30 398 N 38.4306 0.297415 1.54768 0
M  V30 399 C 39.6786 -0.312295 1.99673 0
M  V30 400 C 39.9996 -1.54686 1.18732 0
M  V30 401 O 39.2696 -1.93854 0.282382 0
M  V30 402 H 37.8496 -0.118381 0.73756 0
M  V30 403 H 40.5116 0.407915 1.90583 0
M  V30 404 H 39.6076 -0.586813 3.06534 0
M  V30 405 N 39.9087 -1.5758 0.0250728 0
M  V30 406 C 41.1367 -1.9593 -0.664747 0
M  V30 407 C 41.5517 -0.901352 -1.65895 0
M  V30 408 O 40.9087 0.117255 -1.82123 0
M  V30 409 C 40.9597 -3.34342 -1.37468 0
M  V30 410 O 40.6807 -4.36079 -0.420324 0
M  V30 411 C 42.1817 -3.873 -2.1567 0
M  V30 412 H 39.4017 -0.645405 -0.183557 0
M  V30 413 H 41.9457 -2.04329 0.0836372 0
M  V30 414 H 40.1007 -3.27175 -2.0745 0
M  V30 415 H 40.5147 -5.16297 -0.923991 0
M  V30 416 H 41.9887 -4.86504 -2.60803 0
M  V30 417 H 42.4657 -3.21331 -2.99405 0
M  V30 418 H 43.0717 -3.97723 -1.50654 0
M  V30 419 N 41.3868 0.248026 -1.55636 0
M  V30 420 C 42.6328 0.973427 -1.78594 0
M  V30 421 C 42.9878 1.83007 -0.593823 0
M  V30 422 O 42.2808 1.87097 0.412961 0
M  V30 423 C 42.4748 1.86819 -3.04686 0
M  V30 424 C 42.3038 1.09965 -4.36048 0
M  V30 425 C 41.0738 0.805204 -4.98843 0
M  V30 426 C 43.2718 0.477783 -5.12076 0
M  V30 427 N 41.2538 0.0124859 -6.13899 0
M  V30 428 C 42.6248 -0.179565 -6.1974 0
M  V30 429 C 44.6798 0.388136 -4.96385 0
M  V30 430 C 43.3828 -0.91795 -7.13419 0
M  V30 431 C 45.4088 -0.336716 -5.90441 0
M  V30 432 C 44.7708 -0.982705 -6.97511 0
M  V30 433 H 40.8698 0.337348 -0.705493 0
M  V30 434 H 43.4538 0.24667 -1.93131 0
M  V30 435 H 41.6248 2.56698 -2.9148 0
M  V30 436 H 43.3568 2.52907 -3.15944 0
M  V30 437 H 40.1118 1.11671 -4.60246 0
M  V30 438 H 40.5358 -0.371933 -6.75978 0
M  V30 439 H 45.1778 0.873237 -4.13684 0
M  V30 440 H 42.8958 -1.41466 -7.95621 0
M  V30 441 H 46.4818 -0.406731 -5.80377 0
M  V30 442 H 45.3618 -1.53464 -7.69037 0
M  V30 443 N 42.8649 1.48995 0.513639 0
M  V30 444 C 44.0949 1.61297 1.291 0
M  V30 445 C 44.5029 0.278656 1.87137 0
M  V30 446 O 43.8459 -0.744325 1.67945 0
M  V30 447 C 43.9079 2.61326 2.46879 0
M  V30 448 C 43.5719 4.05993 2.09807 0
M  V30 449 C 44.5689 4.93183 1.64519 0
M  V30 450 C 42.2539 4.51642 2.19829 0
M  V30 451 C 44.2479 6.24056 1.2974 0
M  V30 452 C 41.9349 5.82532 1.84662 0
M  V30 453 C 42.9329 6.68562 1.3969 0
M  V30 454 O 42.6209 7.97014 1.04992 0
M  V30 455 H 42.3529 0.546236 0.39825 0
M  V30 456 H 44.9069 1.95673 0.62459 0
M  V30 457 H 43.1369 2.22104 3.16554 0
M  V30 458 H 44.8259 2.6329 3.08923 0
M  V30 459 H 45.5919 4.59147 1.56233 0
M  V30 460 H 41.4709 3.84855 2.53786 0
M  V30 461 H 45.0149 6.91161 0.945659 0
M  V30 462 H 40.9119 6.16099 1.92594 0
M  V30 463 H 41.6799 8.09913 1.18249 0
M  V30 464 N 44.343 -0.763751 1.37857 0
M  V30 465 C 45.589 -1.52483 1.33704 0
M  V30 466 C 45.922 -1.94051 -0.0759612 0
M  V30 467 O 45.197 -1.64675 -1.03501 0
M  V30 468 C 45.48 -2.78441 2.28348 0
M  V30 469 C 45.333 -2.43075 3.78463 0
M  V30 470 C 46.652 -3.80415 2.21298 0
M  V30 471 H 43.771 -0.553169 0.487005 0
M  V30 472 H 46.413 -0.875562 1.68624 0
M  V30 473 H 44.563 -3.33842 1.987 0
M  V30 474 H 46.235 -1.93527 4.18742 0
M  V30 475 H 44.478 -1.75666 3.96641 0
M  V30 476 H 45.149 -3.33149 4.40132 0
M  V30 477 H 47.625 -3.34527 2.47449 0
M  V30 478 H 46.501 -4.66257 2.89647 0
M  V30 479 H 46.762 -4.25262 1.20849 0
M  V30 480 N 45.8211 -1.22559 -0.990812 0
M  V30 481 C 46.7681 -0.997519 -2.0813 0
M  V30 482 C 47.7381 0.0814702 -1.659 0
M  V30 483 O 48.9231 -0.0685424 -1.90677 0
M  V30 484 C 46.0631 -0.583615 -3.40129 0
M  V30 485 C 45.1761 -1.7336 -3.9569 0
M  V30 486 C 44.3111 -1.26748 -5.15857 0
M  V30 487 C 43.3501 -2.38888 -5.63559 0
M  V30 488 N 42.4871 -1.93308 -6.74964 0
M  V30 489 H 47.3271 -1.93099 -2.26973 0
M  V30 490 H 44.8641 -0.962114 -1.11273 0
M  V30 491 H 46.8221 -0.324801 -4.15934 0
M  V30 492 H 45.4521 0.312845 -3.2128 0
M  V30 493 H 44.5041 -2.10669 -3.16738 0
M  V30 494 H 45.8161 -2.57704 -4.27071 0
M  V30 495 H 44.9701 -0.966173 -5.98957 0
M  V30 496 H 43.7091 -0.394272 -4.86104 0
M  V30 497 H 42.7141 -2.69805 -4.79046 0
M  V30 498 H 43.9391 -3.26728 -5.95336 0
M  V30 499 H 41.8851 -1.08352 -6.4699 0
M  V30 500 H 41.8021 -2.71217 -7.05675 0
M  V30 501 H 43.0701 -1.66252 -7.61564 0
M  V30 502 N 47.2992 1.18797 -1.03562 0
M  V30 503 C 48.2622 2.20464 -0.626769 0
M  V30 504 C 49.2622 1.57721 0.313173 0
M  V30 505 O 50.4522 1.73917 0.0992615 0
M  V30 506 C 47.5842 3.40802 0.0818498 0
M  V30 507 H 48.7772 2.58149 -1.5264 0
M  V30 508 H 46.3302 1.32593 -0.827578 0
M  V30 509 H 47.0652 3.08642 0.995518 0
M  V30 510 H 46.8502 3.8758 -0.593652 0
M  V30 511 H 48.3402 4.16092 0.354584 0
M  V30 512 N 48.7773 0.814389 1.34928 0
M  V30 513 C 49.7103 0.175641 2.27523 0
M  V30 514 C 50.6883 -0.662953 1.48471 0
M  V30 515 O 51.8723 -0.628545 1.77712 0
M  V30 516 C 48.9993 -0.755516 3.30166 0
M  V30 517 C 48.0453 0.00445305 4.265 0
M  V30 518 S 48.8783 1.34582 5.18313 0
M  V30 519 C 50.0343 0.419315 6.24494 0
M  V30 520 H 50.2673 0.960691 2.8135 0
M  V30 521 H 47.8003 0.609846 1.41846 0
M  V30 522 H 49.7583 -1.28723 3.89796 0
M  V30 523 H 48.4193 -1.51402 2.75202 0
M  V30 524 H 47.6123 -0.703077 4.99072 0
M  V30 525 H 47.2143 0.466447 3.7108 0
M  V30 526 H 49.5063 -0.392432 6.76362 0
M  V30 527 H 50.4493 1.11446 6.99275 0
M  V30 528 H 50.8573 0.0115389 5.64499 0
M  V30 529 N 50.2554 -1.46986 0.568584 0
M  V30 530 C 51.5014 -2.02741 0.0488709 0
M  V30 531 C 51.8344 -1.44077 -1.30214 0
M  V30 532 O 51.1094 -0.600552 -1.84996 0
M  V30 533 C 51.3924 -3.60086 -0.032047 0
M  V30 534 C 51.2454 -4.29162 1.34686 0
M  V30 535 C 52.5644 -4.33838 -0.739798 0
M  V30 536 H 49.6834 -0.736749 0.0192338 0
M  V30 537 H 52.3254 -1.75289 0.733065 0
M  V30 538 H 50.4754 -3.83606 -0.61473 0
M  V30 539 H 52.1474 -4.16948 1.97362 0
M  V30 540 H 50.3904 -3.89073 1.91846 0
M  V30 541 H 51.0614 -5.37826 1.24285 0
M  V30 542 H 53.5374 -4.15378 -0.244939 0
M  V30 543 H 52.4134 -5.43537 -0.765406 0
M  V30 544 H 52.6744 -4.03875 -1.79827 0
M  V30 545 N 51.7335 -0.305618 -1.54608 0
M  V30 546 C 52.9795 0.302746 -2.00528 0
M  V30 547 C 53.3125 1.53184 -1.19367 0
M  V30 548 O 52.5875 1.92598 -0.271321 0
M  V30 549 C 52.8705 0.654756 -3.54097 0
M  V30 550 C 52.7235 -0.583793 -4.45995 0
M  V30 551 C 54.0425 1.47947 -4.14487 0
M  V30 552 H 51.1615 0.108564 -0.72896 0
M  V30 553 H 53.8035 -0.418634 -1.85331 0
M  V30 554 H 51.9535 1.26935 -3.67178 0
M  V30 555 H 53.6255 -1.22224 -4.44814 0
M  V30 556 H 51.8685 -1.21615 -4.16404 0
M  V30 557 H 52.5395 -0.293287 -5.5122 0
M  V30 558 H 55.0155 0.96013 -4.04871 0
M  V30 559 H 53.8915 1.69454 -5.22088 0
M  V30 560 H 54.1525 2.47011 -3.66658 0
M  V30 561 N 53.2116 1.57565 -0.0334293 0
M  V30 562 C 54.4886 1.83282 0.683163 0
M  V30 563 C 54.8686 0.91823 1.90084 0
M  V30 564 O 54.2166 -0.025113 2.28486 0
M  V30 565 C 54.4266 3.32599 1.0573 0
M  V30 566 C 55.7746 3.99179 1.44711 0
M  V30 567 O 56.7986 3.3712 1.15015 0
M  V30 568 O 55.6576 5.08565 2.0006 0
M  V30 569 H 52.7516 0.755869 0.335546 0
M  V30 570 H 55.2976 1.69589 -0.0614402 0
M  V30 571 H 54.0696 3.90834 0.190828 0
M  V30 572 H 53.6926 3.51415 1.85993 0
M  V30 573 N 54.6897 -0.239769 1.55765 0
M  V30 574 C 55.6367 -1.29696 1.90913 0
M  V30 575 C 56.6067 -1.47478 0.764164 0
M  V30 576 O 57.7917 -1.61345 1.01845 0
M  V30 577 C 54.9317 -2.64598 2.21544 0
M  V30 578 C 54.0447 -2.54765 3.48882 0
M  V30 579 C 53.1797 -3.82069 3.69049 0
M  V30 580 C 52.2187 -3.66883 4.89963 0
M  V30 581 N 51.3557 -4.86094 5.06614 0
M  V30 582 H 56.1957 -0.990224 2.81067 0
M  V30 583 H 53.7327 -0.477684 1.39128 0
M  V30 584 H 55.6907 -3.43132 2.3731 0
M  V30 585 H 54.3207 -2.93405 1.34585 0
M  V30 586 H 53.3727 -1.67763 3.41409 0
M  V30 587 H 54.6847 -2.39457 4.37563 0
M  V30 588 H 53.8387 -4.69046 3.84812 0
M  V30 589 H 52.5777 -4.00282 2.78614 0
M  V30 590 H 51.5827 -2.78289 4.74168 0
M  V30 591 H 52.8077 -3.50157 5.81865 0
M  V30 592 H 50.7537 -5.04655 4.19117 0
M  V30 593 H 50.6707 -4.73443 5.89396 0
M  V30 594 H 51.9387 -5.74549 5.26795 0
M  V30 595 N 56.1678 -1.49265 -0.50573 0
M  V30 596 C 57.4448 -1.49012 -1.26707 0
M  V30 597 C 57.8248 -0.215205 -2.1 0
M  V30 598 O 57.1728 0.802547 -2.13943 0
M  V30 599 C 57.3828 -2.7663 -2.12783 0
M  V30 600 C 58.7308 -3.25932 -2.72127 0
M  V30 601 O 59.7548 -2.77715 -2.23054 0
M  V30 602 O 58.6138 -4.09897 -3.61451 0
M  V30 603 H 55.7078 -0.596197 -0.57313 0
M  V30 604 H 58.2538 -1.61524 -0.52039 0
M  V30 605 H 57.0258 -3.60916 -1.5118 0
M  V30 606 H 56.6488 -2.66956 -2.94653 0
M  V30 607 N 57.6459 0.756429 -1.3826 0
M  V30 608 C 58.8929 1.51547 -1.34312 0
M  V30 609 C 59.2209 1.94382 0.0677144 0
M  V30 610 O 58.4759 1.65514 1.04421 0
M  V30 611 C 58.7749 2.78313 -2.24224 0
M  V30 612 C 58.4409 2.54455 -3.72241 0
M  V30 613 C 57.1029 2.47657 -4.12576 0
M  V30 614 C 59.4549 2.3354 -4.65949 0
M  V30 615 C 56.7829 2.17956 -5.44713 0
M  V30 616 C 59.1349 2.05359 -5.9834 0
M  V30 617 C 57.7989 1.97016 -6.37762 0
M  V30 618 H 57.0689 0.55455 -0.491482 0
M  V30 619 H 59.7159 0.870039 -1.70595 0
M  V30 620 H 58.0209 3.47492 -1.80987 0
M  V30 621 H 59.7179 3.36259 -2.18474 0
M  V30 622 H 56.3079 2.60616 -3.40261 0
M  V30 623 H 60.4919 2.37772 -4.35635 0
M  V30 624 H 55.7479 2.10003 -5.74203 0
M  V30 625 H 59.9219 1.88179 -6.70494 0
M  V30 626 H 57.5489 1.73766 -7.40074 0
M  V30 627 N 59.124 1.23083 0.984299 0
M  V30 628 C 60.535 1.05609 1.5396 0
M  V30 629 C 60.886 -0.377793 1.92528 0
M  V30 630 O 60.011 -1.26398 1.75649 0
M  V30 631 C 60.606 1.91087 2.7977 0
M  V30 632 C 59.165 1.77885 3.31713 0
M  V30 633 C 58.312 1.87028 2.04733 0
M  V30 634 H 61.263 1.36802 0.804419 0
M  V30 635 H 61.284 1.43336 3.5247 0
M  V30 636 H 60.796 2.9544 2.51668 0
M  V30 637 H 58.897 0.762995 3.64704 0
M  V30 638 H 59.01 2.61047 4.01735 0
M  V30 639 H 57.374 1.30565 2.18689 0
M  V30 640 H 58.157 2.92929 1.79017 0
M  V30 641 N 60.6021 -1.18246 1.0419 0
M  V30 642 C 61.5121 -2.25574 0.644476 0
M  V30 643 C 62.5281 -1.70845 -0.329826 0
M  V30 644 O 63.7041 -2.00554 -0.184443 0
M  V30 645 C 60.7691 -3.46697 0.014877 0
M  V30 646 C 59.8301 -4.16554 1.03834 0
M  V30 647 C 59.0631 -5.31894 0.438692 0
M  V30 648 O 59.2861 -5.65385 -0.754752 0
M  V30 649 O 58.2201 -5.90459 1.168 0
M  V30 650 H 62.0461 -2.61836 1.53869 0
M  V30 651 H 59.6311 -1.25352 0.812854 0
M  V30 652 H 61.5131 -4.20062 -0.335538 0
M  V30 653 H 60.1881 -3.12255 -0.853138 0
M  V30 654 H 59.0951 -3.45251 1.44057 0
M  V30 655 H 60.4281 -4.54998 1.87716 0
M  V30 656 N 62.0802 -0.821533 -1.34494 0
M  V30 657 C 63.3572 -0.33159 -1.92769 0
M  V30 658 C 63.7372 1.18088 -1.74981 0
M  V30 659 O 63.0852 1.98733 -1.12772 0
M  V30 660 C 63.2952 -0.759398 -3.40638 0
M  V30 661 C 64.6432 -0.757433 -4.1779 0
M  V30 662 O 65.6672 -0.70189 -3.49216 0
M  V30 663 O 64.5262 -0.829361 -5.4017 0
M  V30 664 H 61.6202 -0.0902502 -0.822061 0
M  V30 665 H 64.1662 -0.906231 -1.43477 0
M  V30 666 H 62.9382 -1.8012 -3.47379 0
M  V30 667 H 62.5612 -0.160378 -3.97276 0
M  V30 668 N 63.5583 1.46682 -0.576371 0
M  V30 669 C 64.9743 1.57822 -0.237562 0
M  V30 670 C 65.1743 1.57237 1.26011 0
M  V30 671 O 64.2303 1.48596 2.04146 0
M  V30 672 C 65.5433 2.87499 -0.881168 0
M  V30 673 C 67.0913 3.01119 -0.85417 0
M  V30 674 C 67.5663 4.33524 -1.4772 0
M  V30 675 N 69.0573 4.40207 -1.44125 0
M  V30 676 C 69.7923 5.4126 -1.89276 0
M  V30 677 N 69.2883 6.49021 -2.42371 0
M  V30 678 N 71.0813 5.32422 -1.80231 0
M  V30 679 H 63.2323 1.45306 -1.54919 0
M  V30 680 H 65.4953 0.692733 -0.647167 0
M  V30 681 H 65.2013 2.9372 -1.93447 0
M  V30 682 H 65.0753 3.75224 -0.385592 0
M  V30 683 H 67.4623 2.94485 0.190491 0
M  V30 684 H 67.5433 2.14887 -1.3877 0
M  V30 685 H 67.1873 4.40916 -2.52103 0
M  V30 686 H 67.1173 5.1852 -0.918947 0
M  V30 687 H 69.6083 3.62931 -1.05307 0
M  V30 688 H 69.9213 7.2233 -2.74698 0
M  V30 689 H 68.2663 6.49858 -2.46393 0
M  V30 690 H 71.4573 4.47137 -1.38514 0
M  V30 691 H 71.6303 6.11034 -2.15735 0
M  V30 692 N 65.0364 0.313813 1.54444 0
M  V30 693 C 66.4524 -0.0391619 1.59552 0
M  V30 694 C 66.6524 -1.51322 1.33056 0
M  V30 695 O 65.7084 -2.26782 1.11022 0
M  V30 696 C 67.0214 0.370302 2.98411 0
M  V30 697 C 68.5694 0.320139 3.11358 0
M  V30 698 C 69.0444 0.704617 4.52547 0
M  V30 699 N 70.5354 0.657645 4.58508 0
M  V30 700 C 71.2704 0.927453 5.6585 0
M  V30 701 N 70.7664 1.26389 6.81174 0
M  V30 702 N 72.5594 0.853662 5.5558 0
M  V30 703 H 64.7104 1.27433 1.69925 0
M  V30 704 H 66.9734 0.517511 0.794284 0
M  V30 705 H 66.6794 1.39694 3.22767 0
M  V30 706 H 66.5534 -0.269619 3.76235 0
M  V30 707 H 68.9404 -0.697275 2.86744 0
M  V30 708 H 69.0214 0.99486 2.35661 0
M  V30 709 H 68.6654 1.7199 4.77893 0
M  V30 710 H 68.5954 0.00768843 5.26599 0
M  V30 711 H 71.0864 0.409067 3.75679 0
M  V30 712 H 71.3994 1.4554 7.58972 0
M  V30 713 H 69.7444 1.30206 6.82694 0
M  V30 714 H 72.9354 0.590383 4.64362 0
M  V30 715 H 73.1084 1.0673 6.3915 0
M  V30 716 N 66.5145 -1.57545 0.0417849 0
M  V30 717 C 67.9255 -1.80011 -0.495259 0
M  V30 718 C 68.2765 -0.953199 -1.71489 0
M  V30 719 O 67.4015 -0.167138 -2.15754 0
M  V30 720 C 67.9965 -3.26482 -0.905265 0
M  V30 721 C 66.5555 -3.499 -1.38734 0
M  V30 722 C 65.7025 -2.74979 -0.358056 0
M  V30 723 H 68.6535 -1.56425 0.267736 0
M  V30 724 H 68.6745 -3.36887 -1.76882 0
M  V30 725 H 68.1865 -3.88096 -0.017401 0
M  V30 726 H 66.2875 -2.93553 -2.29471 0
M  V30 727 H 66.4005 -4.58615 -1.38598 0
M  V30 728 H 64.7645 -2.40834 -0.828912 0
M  V30 729 H 65.5475 -3.39315 0.521561 0
M  V30 730 N 67.9926 0.231505 -1.5589 0
M  V30 731 C 69.4086 0.580748 -1.48659 0
M  V30 732 C 69.6086 1.87617 -0.73498 0
M  V30 733 O 68.6646 2.51046 -0.270586 0
M  V30 734 C 69.9776 0.669202 -2.93159 0
M  V30 735 C 71.5256 0.760499 -3.03621 0
M  V30 736 C 72.0006 0.880383 -4.49459 0
M  V30 737 N 73.4916 0.944861 -4.53461 0
M  V30 738 C 74.2266 1.05716 -5.63571 0
M  V30 739 N 73.7226 1.13403 -6.83456 0
M  V30 740 N 75.5156 1.09152 -5.514 0
M  V30 741 H 67.6666 -0.618695 -2.03189 0
M  V30 742 H 69.9296 -0.215728 -0.923128 0
M  V30 743 H 69.6356 -0.212904 -3.51055 0
M  V30 744 H 69.5096 1.5361 -3.44505 0
M  V30 745 H 71.8966 1.63305 -2.45796 0
M  V30 746 H 71.9776 -0.131864 -2.5546 0
M  V30 747 H 71.6216 0.0123284 -5.07899 0
M  V30 748 H 71.5516 1.78802 -4.95316 0
M  V30 749 H 74.0426 0.896176 -3.6712 0
M  V30 750 H 74.3556 1.21921 -7.63122 0
M  V30 751 H 72.7006 1.10333 -6.86186 0
M  V30 752 H 75.8916 1.02805 -4.56671 0
M  V30 753 H 76.0646 1.17558 -6.37247 0
M  V30 754 N 69.4707 1.49531 0.497807 0
M  V30 755 C 70.4177 1.66436 1.59899 0
M  V30 756 C 71.3877 0.505793 1.58212 0
M  V30 757 O 72.5727 0.733202 1.7615 0
M  V30 758 C 69.7127 1.7399 2.98029 0
M  V30 759 C 68.8257 3.01172 3.09708 0
M  V30 760 C 67.9607 2.99686 4.38591 0
M  V30 761 C 66.9997 4.21434 4.43914 0
M  V30 762 N 66.1367 4.1784 5.64229 0
M  V30 763 H 70.9767 2.60459 1.44793 0
M  V30 764 H 68.5137 1.29137 0.704423 0
M  V30 765 H 70.4717 1.76352 3.78095 0
M  V30 766 H 69.1017 0.834301 3.11832 0
M  V30 767 H 68.1537 3.08408 2.22685 0
M  V30 768 H 69.4657 3.91165 3.09502 0
M  V30 769 H 68.6197 3.00628 5.2698 0
M  V30 770 H 67.3587 2.07477 4.41367 0
M  V30 771 H 66.3637 4.20733 3.53926 0
M  V30 772 H 67.5887 5.14839 4.42851 0
M  V30 773 H 65.5347 3.28469 5.67841 0
M  V30 774 H 65.4517 5.01571 5.65652 0
M  V30 775 H 66.7197 4.22889 6.54817 0
M  V30 776 N 70.9488 -0.749086 1.3866 0
M  V30 777 C 72.1948 -1.51056 1.35314 0
M  V30 778 C 72.5278 -1.94121 -0.0553751 0
M  V30 779 O 71.8028 -1.65763 -1.01749 0
M  V30 780 C 72.0858 -2.76003 2.31288 0
M  V30 781 C 71.9388 -2.39047 3.8102 0
M  V30 782 C 73.2578 -3.78046 2.2532 0
M  V30 783 H 70.3768 -0.547972 0.492844 0
M  V30 784 H 73.0188 -0.857628 1.69543 0
M  V30 785 H 71.1688 -3.31716 2.02229 0
M  V30 786 H 72.8408 -1.89074 4.20771 0
M  V30 787 H 71.0838 -1.71449 3.98482 0
M  V30 788 H 71.7548 -3.28462 4.4364 0
M  V30 789 H 74.2308 -3.31884 2.50983 0
M  V30 790 H 73.1068 -4.63159 2.94576 0
M  V30 791 H 73.3678 -4.23957 1.25352 0
M  V30 792 N 72.4269 -1.23603 -0.977757 0
M  V30 793 C 73.6519 -1.09735 -1.75991 0
M  V30 794 C 74.0769 0.346858 -1.84874 0
M  V30 795 O 73.4349 1.25093 -1.3123 0
M  V30 796 C 73.4829 -1.73051 -3.16363 0
M  V30 797 O 72.5869 -0.994452 -4.0023 0
M  V30 798 H 71.9279 -0.384476 -0.541364 0
M  V30 799 H 74.4579 -1.6371 -1.2272 0
M  V30 800 H 74.4679 -1.78398 -3.66931 0
M  V30 801 H 73.1429 -2.78137 -3.09213 0
M  V30 802 H 71.7199 -1.01812 -3.58732 0
M  V30 803 N 73.905 1.17692 -1.04816 0
M  V30 804 C 75.316 1.69501 -0.782698 0
M  V30 805 C 75.667 1.83456 0.695577 0
M  V30 806 O 74.792 1.51942 1.54086 0
M  V30 807 C 75.387 3.07874 -1.41419 0
M  V30 808 C 73.946 3.56864 -1.19686 0
M  V30 809 C 73.093 2.3322 -1.50012 0
M  V30 810 H 76.044 1.02262 -1.2136 0
M  V30 811 H 76.065 3.71528 -0.821428 0
M  V30 812 H 75.577 2.97685 -2.49009 0
M  V30 813 H 73.678 3.72337 -0.140043 0
M  V30 814 H 73.791 4.39851 -1.89916 0
M  V30 815 H 72.155 2.37501 -0.920071 0
M  V30 816 H 72.938 2.25644 -2.58727 0
M  V30 817 N 75.3831 0.828654 1.34056 0
M  V30 818 C 76.6291 0.42008 1.98402 0
M  V30 819 C 76.9621 -1.01564 1.65525 0
M  V30 820 O 76.2371 -1.70834 0.929831 0
M  V30 821 C 76.5201 0.62927 3.54559 0
M  V30 822 C 76.3731 2.11152 3.97159 0
M  V30 823 C 77.6921 0.0688756 4.40046 0
M  V30 824 H 74.8111 0.154104 0.720709 0
M  V30 825 H 77.4531 1.04228 1.5886 0
M  V30 826 H 75.6031 0.0996418 3.88372 0
M  V30 827 H 77.2751 2.70522 3.73651 0
M  V30 828 H 75.5181 2.59985 3.47261 0
M  V30 829 H 76.1891 2.20868 5.05887 0
M  V30 830 H 78.6651 0.521458 4.1282 0
M  V30 831 H 77.5411 0.245006 5.48353 0
M  V30 832 H 77.8021 -1.0266 4.30015 0
M  V30 833 N 76.8612 -1.46375 0.584142 0
M  V30 834 C 77.8082 -2.30323 -0.148286 0
M  V30 835 C 78.7782 -1.40703 -0.882713 0
M  V30 836 O 79.9632 -1.69651 -0.873099 0
M  V30 837 C 77.1032 -3.25196 -1.15507 0
M  V30 838 C 76.2162 -4.29915 -0.423943 0
M  V30 839 C 75.3512 -5.11914 -1.41838 0
M  V30 840 C 74.3902 -6.08381 -0.673736 0
M  V30 841 N 73.5272 -6.83242 -1.6163 0
M  V30 842 H 78.3672 -2.92427 0.573644 0
M  V30 843 H 75.9042 -1.44118 0.294703 0
M  V30 844 H 77.8622 -3.78646 -1.75166 0
M  V30 845 H 76.4922 -2.64898 -1.8447 0
M  V30 846 H 75.5442 -3.7931 0.287714 0
M  V30 847 H 76.8562 -4.98549 0.158128 0
M  V30 848 H 76.0102 -5.69648 -2.08773 0
M  V30 849 H 74.7492 -4.43243 -2.03438 0
M  V30 850 H 73.7542 -5.49799 0.00938483 0
M  V30 851 H 74.9792 -6.79071 -0.0631082 0
M  V30 852 H 72.9252 -6.1728 -2.22038 0
M  V30 853 H 72.8422 -7.48144 -1.08707 0
M  V30 854 H 74.1102 -7.45534 -2.27596 0
M  V30 855 N 78.3393 -0.321999 -1.54275 0
M  V30 856 C 79.5853 0.281461 -2.00837 0
M  V30 857 C 79.9183 1.51909 -1.20985 0
M  V30 858 O 79.1933 1.923 -0.291733 0
M  V30 859 C 79.4763 0.617162 -3.54772 0
M  V30 860 C 79.3293 -0.631064 -4.45351 0
M  V30 861 C 80.6483 1.43542 -4.16033 0
M  V30 862 H 77.7673 0.100826 -0.730071 0
M  V30 863 H 80.4093 -0.438268 -1.84876 0
M  V30 864 H 78.5593 1.23034 -3.68504 0
M  V30 865 H 80.2313 -1.26934 -4.43492 0
M  V30 866 H 78.4743 -1.26025 -4.15091 0
M  V30 867 H 79.1453 -0.351735 -5.50878 0
M  V30 868 H 81.6213 0.917134 -4.05867 0
M  V30 869 H 80.4973 1.63907 -5.23856 0
M  V30 870 H 80.7583 2.43108 -3.69257 0
M  V30 871 N 79.8174 1.5752 -0.0501392 0
M  V30 872 C 81.0454 1.96963 0.633492 0
M  V30 873 C 81.4604 0.927631 1.6444 0
M  V30 874 O 80.8174 -0.0882665 1.82286 0
M  V30 875 C 80.8684 3.36487 1.32132 0
M  V30 876 O 80.5894 4.36693 0.350894 0
M  V30 877 C 82.0904 3.90682 2.09481 0
M  V30 878 H 79.3104 0.648244 0.173266 0
M  V30 879 H 81.8544 2.0417 -0.116134 0
M  V30 880 H 80.0094 3.30434 2.02218 0
M  V30 881 H 80.4234 5.17702 0.841735 0
M  V30 882 H 81.8974 4.90591 2.5303 0
M  V30 883 H 82.3744 3.26053 2.94255 0
M  V30 884 H 82.9804 4.00069 1.44307 0
M  V30 885 N 81.2955 -0.223234 1.56011 0
M  V30 886 C 82.2585 -1.26014 1.9145 0
M  V30 887 C 83.2585 -1.3989 0.792937 0
M  V30 888 O 84.4485 -1.38184 1.0607 0
M  V30 889 C 81.5805 -2.63422 2.16383 0
M  V30 890 H 82.7735 -0.95796 2.84189 0
M  V30 891 H 80.3265 -0.463576 1.49267 0
M  V30 892 H 81.0615 -2.98741 1.2619 0
M  V30 893 H 80.8465 -2.54728 2.98088 0
M  V30 894 H 82.3365 -3.38249 2.44903 0
M  V30 895 N 82.7736 -1.49793 -0.48987 0
M  V30 896 C 83.7036 -1.70201 -1.59856 0
M  V30 897 C 84.6846 -0.55076 -1.60937 0
M  V30 898 O 85.8696 -0.787841 -1.77501 0
M  V30 899 C 82.9996 -1.77882 -2.98287 0
M  V30 900 C 81.9536 -2.92907 -3.12073 0
M  V30 901 C 81.2796 -2.85712 -4.51965 0
M  V30 902 C 82.5796 -4.3369 -2.91051 0
M  V30 903 H 84.2736 -2.63025 -1.43032 0
M  V30 904 H 81.8196 -1.26574 -0.686664 0
M  V30 905 H 83.7726 -1.90744 -3.75759 0
M  V30 906 H 82.4966 -0.816653 -3.16225 0
M  V30 907 H 81.1556 -2.79665 -2.37029 0
M  V30 908 H 80.8036 -1.8738 -4.66795 0
M  V30 909 H 80.5036 -3.62921 -4.62128 0
M  V30 910 H 82.0276 -3.00598 -5.31482 0
M  V30 911 H 83.4416 -4.47555 -3.58284 0
M  V30 912 H 81.8386 -5.12205 -3.12675 0
M  V30 913 H 82.9086 -4.47362 -1.87071 0
M  V30 914 N 84.2517 0.741722 -1.39055 0
M  V30 915 C 85.4997 1.49818 -1.35643 0
M  V30 916 C 85.8207 1.94938 0.0491642 0
M  V30 917 O 85.0907 1.68505 0.999141 0
M  V30 918 H 83.6707 0.555755 -0.499144 0
M  V30 919 H 86.3327 0.880957 -1.73854 0
M  V30 920 H 85.4287 2.38348 -2.01486 0
M  V30 921 N 85.7298 1.2412 0.971189 0
M  V30 922 C 86.9778 1.07668 1.71032 0
M  V30 923 C 87.2988 -0.385797 1.91146 0
M  V30 924 O 86.5688 -1.27569 1.4867 0
M  V30 925 H 85.1488 0.395429 0.633755 0
M  V30 926 H 87.8108 1.55984 1.16855 0
M  V30 927 H 86.9068 1.57195 2.69622 0
M  V30 928 N 87.2079 -1.17134 1.05439 0
M  V30 929 C 88.4559 -1.87085 0.764429 0
M  V30 930 C 88.7769 -1.81584 -0.710787 0
M  V30 931 O 88.0469 -1.24349 -1.51374 0
M  V30 932 H 86.6269 -0.692627 0.279779 0
M  V30 933 H 89.2889 -1.42087 1.33406 0
M  V30 934 H 88.3849 -2.92759 1.0816 0
M  V30 935 N 88.686 -0.835752 -1.33615 0
M  V30 936 C 89.634 -0.255238 -2.31195 0
M  V30 937 C 90.628 0.61107 -1.57995 0
M  V30 938 O 91.834 0.500979 -1.72888 0
M  V30 939 H 88.209 -0.0638085 -0.749288 0
M  V30 940 H 90.18 -1.09283 -2.77669 0
M  V30 941 C 88.929 0.55754 -3.43201 0
M  V30 942 H 88.252 -0.0997553 -3.99676 0
M  V30 943 H 89.692 0.929622 -4.13683 0
M  V30 944 C 88.151 1.73515 -2.88781 0
M  V30 945 O 88.681 2.83376 -2.84712 0
M  V30 946 N 86.887 1.55603 -2.4543 0
M  V30 947 H 86.434 0.662354 -2.48939 0
M  V30 948 H 86.392 2.34545 -2.09371 0
M  V30 949 N 90.1641 1.46063 -0.591896 0
M  V30 950 C 91.0941 2.33172 0.123673 0
M  V30 951 C 92.0751 1.45897 0.87453 0
M  V30 952 O 93.2601 1.74698 0.848181 0
M  V30 953 C 90.3901 3.28336 1.13194 0
M  V30 954 C 89.3441 4.25124 0.495324 0
M  V30 955 C 88.6701 5.09863 1.61071 0
M  V30 956 C 89.9701 5.19143 -0.573425 0
M  V30 957 H 91.6641 2.93252 -0.603646 0
M  V30 958 H 89.2101 1.41014 -0.291741 0
M  V30 959 H 91.1631 3.88137 1.64097 0
M  V30 960 H 89.8871 2.66383 1.88965 0
M  V30 961 H 88.5461 3.66599 0.00729452 0
M  V30 962 H 88.1941 4.44288 2.35832 0
M  V30 963 H 87.8941 5.75417 1.19035 0
M  V30 964 H 89.4181 5.72529 2.12233 0
M  V30 965 H 90.8321 5.73106 -0.1491 0
M  V30 966 H 89.2291 5.93089 -0.914636 0
M  V30 967 H 90.2991 4.62519 -1.45617 0
M  V30 968 N 91.6422 0.330177 1.54103 0
M  V30 969 C 92.5522 -0.541534 2.28264 0
M  V30 970 C 93.5682 -1.12351 1.32866 0
M  V30 971 O 94.7442 -1.14206 1.65888 0
M  V30 972 C 91.8092 -1.68322 3.03098 0
M  V30 973 C 90.8702 -1.13238 4.14096 0
M  V30 974 C 90.1032 -2.21966 4.85352 0
M  V30 975 O 90.3262 -3.42437 4.56172 0
M  V30 976 O 89.2602 -1.87013 5.7211 0
M  V30 977 H 93.0862 0.060938 3.03639 0
M  V30 978 H 90.6712 0.09565 1.49093 0
M  V30 979 H 92.5532 -2.34777 3.49939 0
M  V30 980 H 91.2282 -2.27176 2.30593 0
M  V30 981 H 90.1352 -0.432736 3.71589 0
M  V30 982 H 91.4682 -0.588898 4.88664 0
M  V30 983 N 93.1203 -1.57491 0.0584922 0
M  V30 984 C 94.0833 -2.1085 -0.898617 0
M  V30 985 C 95.0833 -1.02964 -1.23511 0
M  V30 986 O 96.2733 -1.29007 -1.17059 0
M  V30 987 C 93.4053 -2.59881 -2.20623 0
M  V30 988 H 94.5983 -2.96715 -0.435936 0
M  V30 989 H 92.1513 -1.55141 -0.190023 0
M  V30 990 H 92.8863 -1.77431 -2.71457 0
M  V30 991 H 92.6713 -3.38727 -1.97501 0
M  V30 992 H 94.1613 -3.01285 -2.89166 0
M  V30 993 N 94.5984 0.214957 -1.56127 0
M  V30 994 C 95.8264 0.955092 -1.83536 0
M  V30 995 C 96.2414 1.77677 -0.638472 0
M  V30 996 O 95.5984 1.78219 0.392968 0
M  V30 997 C 95.6494 1.86734 -3.09536 0
M  V30 998 O 95.3704 1.07887 -4.24608 0
M  V30 999 C 96.8714 2.72082 -3.4998 0
M  V30 1000 H 94.0914 0.279611 -0.609966 0
M  V30 1001 H 96.6354 0.228197 -2.03223 0
M  V30 1002 H 94.7904 2.5481 -2.91806 0
M  V30 1003 H 95.2044 1.69872 -4.9623 0
M  V30 1004 H 96.6784 3.31782 -4.41163 0
M  V30 1005 H 97.1554 3.44806 -2.7204 0
M  V30 1006 H 97.7614 2.09409 -3.70173 0
M  V30 1007 N 96.0765 1.50051 0.48192 0
M  V30 1008 C 97.3235 1.60498 1.23477 0
M  V30 1009 C 97.6515 0.300331 1.92167 0
M  V30 1010 O 96.9065 -0.713094 1.82246 0
M  V30 1011 C 97.2055 2.72717 2.30998 0
M  V30 1012 C 96.8715 4.13572 1.79636 0
M  V30 1013 C 95.5335 4.519 1.65348 0
M  V30 1014 C 97.8855 5.01649 1.41412 0
M  V30 1015 C 95.2135 5.76057 1.11244 0
M  V30 1016 C 97.5655 6.26343 0.887538 0
M  V30 1017 C 96.2295 6.63483 0.731207 0
M  V30 1018 H 95.4995 0.587303 0.451836 0
M  V30 1019 H 98.1465 1.83948 0.532468 0
M  V30 1020 H 96.4515 2.43312 3.07094 0
M  V30 1021 H 98.1485 2.78006 2.88988 0
M  V30 1022 H 94.7385 3.83329 1.91721 0
M  V30 1023 H 98.9225 4.72679 1.51289 0
M  V30 1024 H 94.1785 6.03516 0.978686 0
M  V30 1025 H 98.3525 6.93958 0.582654 0
M  V30 1026 H 95.9795 7.59568 0.309806 0
M  V30 1027 N 97.5546 -0.734337 1.39446 0
M  V30 1028 C 98.7826 -1.52358 1.39981 0
M  V30 1029 C 99.1976 -1.88799 -0.0054975 0
M  V30 1030 O 98.5546 -1.54146 -0.976998 0
M  V30 1031 C 98.6056 -2.81072 2.27333 0
M  V30 1032 O 98.3266 -2.46178 3.62392 0
M  V30 1033 C 99.8276 -3.75096 2.36259 0
M  V30 1034 H 97.0476 -0.470806 0.478103 0
M  V30 1035 H 99.5916 -0.907339 1.83269 0
M  V30 1036 H 97.7466 -3.39026 1.87457 0
M  V30 1037 H 98.1606 -3.28866 4.08592 0
M  V30 1038 H 99.6346 -4.62305 3.01626 0
M  V30 1039 H 100.112 -4.16892 1.38194 0
M  V30 1040 H 100.718 -3.23061 2.76608 0
M  V30 1041 N 99.0327 -1.24633 -0.964593 0
M  V30 1042 C 100.28 -1.08788 -1.70796 0
M  V30 1043 C 100.608 0.372783 -1.90894 0
M  V30 1044 O 99.8627 1.29167 -1.47018 0
M  V30 1045 C 100.162 -1.7763 -3.10133 0
M  V30 1046 C 99.8277 -3.27557 -3.09866 0
M  V30 1047 C 98.4897 -3.6846 -3.09501 0
M  V30 1048 C 100.842 -4.23389 -3.03959 0
M  V30 1049 C 98.1697 -5.03624 -3.00965 0
M  V30 1050 C 100.522 -5.58565 -2.96965 0
M  V30 1051 C 99.1857 -5.98809 -2.9493 0
M  V30 1052 H 98.4557 -0.398084 -0.624988 0
M  V30 1053 H 101.103 -1.54777 -1.12767 0
M  V30 1054 H 99.4077 -1.24044 -3.71645 0
M  V30 1055 H 101.105 -1.62832 -3.66451 0
M  V30 1056 H 97.6947 -2.95006 -3.10917 0
M  V30 1057 H 101.879 -3.92787 -3.03368 0
M  V30 1058 H 97.1347 -5.33998 -2.97752 0
M  V30 1059 H 101.309 -6.32523 -2.91354 0
M  V30 1060 H 98.9357 -7.03505 -2.88071 0
M  V30 1061 N 100.511 1.16574 -1.06058 0
M  V30 1062 C 101.444 2.19798 -0.61352 0
M  V30 1063 C 102.422 1.58509 0.362453 0
M  V30 1064 O 103.606 1.86527 0.271994 0
M  V30 1065 C 100.733 3.3855 0.100915 0
M  V30 1066 C 99.7788 4.18317 -0.831438 0
M  V30 1067 S 100.612 4.82375 -2.32539 0
M  V30 1068 C 101.768 6.04508 -1.62238 0
M  V30 1069 H 102.001 2.5738 -1.48805 0
M  V30 1070 H 99.5338 1.27327 -0.873338 0
M  V30 1071 H 101.492 4.07358 0.506898 0
M  V30 1072 H 100.153 2.99338 0.951604 0
M  V30 1073 H 99.3458 5.03232 -0.278071 0
M  V30 1074 H 98.9478 3.5499 -1.17719 0
M  V30 1075 H 101.24 6.71133 -0.926622 0
M  V30 1076 H 102.183 6.64389 -2.44934 0
M  V30 1077 H 102.591 5.53559 -1.106 0
M  V30 1078 N 101.989 0.842826 1.3317 0
M  V30 1079 C 103.405 0.531128 1.50503 0
M  V30 1080 C 103.605 -0.940734 1.78192 0
M  V30 1081 O 102.661 -1.72436 1.84451 0
M  V30 1082 C 103.974 1.40789 2.65705 0
M  V30 1083 C 105.522 1.40708 2.79589 0
M  V30 1084 C 105.997 2.26878 3.97857 0
M  V30 1085 N 107.488 2.24609 4.05099 0
M  V30 1086 C 108.223 2.88019 4.95815 0
M  V30 1087 N 107.719 3.60496 5.9162 0
M  V30 1088 N 109.512 2.77469 4.88843 0
M  V30 1089 H 101.663 1.79557 1.1346 0
M  V30 1090 H 103.926 0.766267 0.558156 0
M  V30 1091 H 103.632 2.454 2.51936 0
M  V30 1092 H 103.506 1.08677 3.61205 0
M  V30 1093 H 105.893 0.368668 2.92788 0
M  V30 1094 H 105.974 1.76829 1.84838 0
M  V30 1095 H 105.618 3.3078 3.85418 0
M  V30 1096 H 105.548 1.88096 4.91861 0
M  V30 1097 H 108.039 1.71906 3.36536 0
M  V30 1098 H 108.352 4.06076 6.57512 0
M  V30 1099 H 106.697 3.64604 5.91683 0
M  V30 1100 H 109.888 2.20406 4.12963 0
M  V30 1101 H 110.061 3.2717 5.59342 0
M  V30 1102 N 103.467 -1.45747 0.599634 0
M  V30 1103 C 104.377 -2.34262 -0.125888 0
M  V30 1104 C 105.393 -1.50768 -0.868625 0
M  V30 1105 O 106.569 -1.83592 -0.828003 0
M  V30 1106 C 103.634 -3.28252 -1.11587 0
M  V30 1107 C 102.695 -4.27651 -0.375956 0
M  V30 1108 C 101.928 -5.1715 -1.31877 0
M  V30 1109 O 102.151 -5.09916 -2.55621 0
M  V30 1110 O 101.085 -5.96286 -0.820157 0
M  V30 1111 H 104.911 -2.97688 0.601315 0
M  V30 1112 H 102.496 -1.44999 0.359934 0
M  V30 1113 H 104.378 -3.86191 -1.68626 0
M  V30 1114 H 103.053 -2.67401 -1.82424 0
M  V30 1115 H 101.96 -3.7335 0.236698 0
M  V30 1116 H 103.293 -4.91334 0.29177 0
M  V30 1117 N 104.945 -0.338344 -1.53925 0
M  V30 1118 C 106.222 0.314774 -1.93051 0
M  V30 1119 C 106.602 1.68669 -1.26941 0
M  V30 1120 O 105.95 2.24636 -0.418445 0
M  V30 1121 C 106.16 0.392249 -3.46789 0
M  V30 1122 C 107.508 0.645554 -4.19664 0
M  V30 1123 O 108.532 0.474575 -3.53024 0
M  V30 1124 O 107.391 0.976408 -5.37707 0
M  V30 1125 H 104.485 0.182598 -0.80659 0
M  V30 1126 H 107.031 -0.389141 -1.65178 0
M  V30 1127 H 105.803 -0.570702 -3.87116 0
M  V30 1128 H 105.426 1.14316 -3.80812 0
M  V30 1129 N 106.423 1.57458 -0.0668435 0
M  V30 1130 C 107.839 1.56947 0.289772 0
M  V30 1131 C 108.039 1.07584 1.70376 0
M  V30 1132 O 107.095 0.739486 2.41429 0
M  V30 1133 C 108.408 3.0052 0.103943 0
M  V30 1134 C 109.956 3.12517 0.173857 0
M  V30 1135 C 110.431 4.57997 0.0163682 0
M  V30 1136 N 111.922 4.63144 0.0721352 0
M  V30 1137 C 112.657 5.73394 -0.0253794 0
M  V30 1138 N 112.153 6.92576 -0.176133 0
M  V30 1139 N 113.946 5.62091 0.0313305 0
M  V30 1140 H 106.097 1.87863 -0.991027 0
M  V30 1141 H 108.36 0.86583 -0.38606 0
M  V30 1142 H 108.066 3.40729 -0.871572 0
M  V30 1143 H 107.94 3.67304 0.858366 0
M  V30 1144 H 110.327 2.72197 1.13985 0
M  V30 1145 H 110.408 2.48381 -0.611586 0
M  V30 1146 H 110.052 4.99005 -0.946374 0
M  V30 1147 H 109.982 5.20158 0.821153 0
M  V30 1148 H 112.473 3.77436 0.187263 0
M  V30 1149 H 112.786 7.72418 -0.242821 0
M  V30 1150 H 111.131 6.94678 -0.211429 0
M  V30 1151 H 114.322 4.67867 0.147773 0
M  V30 1152 H 114.495 6.47982 -0.048121 0
M  V30 1153 N 107.901 -0.206675 1.56239 0
M  V30 1154 C 109.141 -0.93574 1.81723 0
M  V30 1155 C 109.505 -1.80927 0.642609 0
M  V30 1156 O 110.706 -2.57323 0.777081 0
M  V30 1157 C 108.977 -1.74012 3.12177 0
M  V30 1158 S 110.536 -2.52279 3.59028 0
M  V30 1159 H 107.354 -0.314065 0.637875 0
M  V30 1160 H 109.956 -0.200071 1.94474 0
M  V30 1161 H 108.66 -1.0888 3.95693 0
M  V30 1162 H 108.191 -2.51782 3.02274 0
M  V30 1163 H 110.206 -3.76209 3.23545 0
M  V30 1164 N 109.379 -1.50304 -0.473955 0
M  V30 1165 C 110.628 -1.60392 -1.22301 0
M  V30 1166 C 110.941 -0.308411 -1.93153 0
M  V30 1167 O 112.147 -0.288156 -2.69966 0
M  V30 1168 C 110.603 -2.83109 -2.2221 0
M  V30 1169 C 110.211 -4.19524 -1.57173 0
M  V30 1170 C 111.955 -3.0254 -2.97775 0
M  V30 1171 C 109.862 -5.33431 -2.55353 0
M  V30 1172 H 108.792 -0.597286 -0.460179 0
M  V30 1173 H 111.443 -1.76731 -0.493803 0
M  V30 1174 H 109.825 -2.60322 -2.9841 0
M  V30 1175 H 110.999 -4.52554 -0.867824 0
M  V30 1176 H 109.314 -4.05674 -0.939002 0
M  V30 1177 H 111.911 -3.84811 -3.71248 0
M  V30 1178 H 112.254 -2.14154 -3.56992 0
M  V30 1179 H 112.787 -3.25494 -2.28688 0
M  V30 1180 H 109.526 -6.23962 -2.00878 0
M  V30 1181 H 109.046 -5.04823 -3.23904 0
M  V30 1182 H 110.725 -5.63887 -3.17239 0
M  V30 1183 N 110.857 0.726932 -1.39834 0
M  V30 1184 C 111.789 1.85147 -1.35104 0
M  V30 1185 C 112.802 1.60736 -0.258392 0
M  V30 1186 O 113.991 1.70821 -0.517931 0
M  V30 1187 C 111.091 3.21332 -1.07697 0
M  V30 1188 C 110.264 3.73033 -2.28396 0
M  V30 1189 C 109.323 4.87802 -1.97322 0
M  V30 1190 O 108.349 5.01043 -2.70083 0
M  V30 1191 N 109.551 5.72768 -0.944273 0
M  V30 1192 H 112.316 1.89706 -2.32017 0
M  V30 1193 H 109.877 0.908006 -1.3404 0
M  V30 1194 H 111.869 3.95691 -0.849144 0
M  V30 1195 H 110.439 3.11992 -0.194909 0
M  V30 1196 H 109.659 2.89934 -2.6708 0
M  V30 1197 H 110.947 4.0431 -3.08887 0
M  V30 1198 H 110.345 5.64669 -0.341427 0
M  V30 1199 H 108.902 6.4716 -0.776346 0
M  V30 1200 N 112.336 1.25143 0.95797 0
M  V30 1201 C 113.283 1.05235 2.05412 0
M  V30 1202 C 114.253 -0.0374561 1.66058 0
M  V30 1203 O 115.438 0.119073 1.90428 0
M  V30 1204 C 112.578 0.673589 3.38462 0
M  V30 1205 C 111.691 1.8379 3.90954 0
M  V30 1206 C 110.826 1.40381 5.12315 0
M  V30 1207 C 109.865 2.53746 5.57027 0
M  V30 1208 N 109.002 2.11136 6.69601 0
M  V30 1209 H 113.842 1.99048 2.21774 0
M  V30 1210 H 111.379 0.991277 1.08683 0
M  V30 1211 H 113.337 0.434964 4.14926 0
M  V30 1212 H 111.967 -0.227554 3.21997 0
M  V30 1213 H 111.019 2.18992 3.11041 0
M  V30 1214 H 112.331 2.68937 4.20089 0
M  V30 1215 H 111.485 1.12464 5.96185 0
M  V30 1216 H 110.224 0.523015 4.84887 0
M  V30 1217 H 109.229 2.82412 4.71724 0
M  V30 1218 H 110.454 3.42398 5.86464 0
M  V30 1219 H 108.4 1.25468 6.4389 0
M  V30 1220 H 108.317 2.89832 6.98236 0
M  V30 1221 H 109.585 1.86385 7.56889 0
M  V30 1222 N 113.814 -1.1601 1.06675 0
M  V30 1223 C 114.761 -2.20525 0.680967 0
M  V30 1224 C 115.731 -1.62904 -0.324283 0
M  V30 1225 O 116.916 -1.89615 -0.212294 0
M  V30 1226 C 114.056 -3.45013 0.0776551 0
M  V30 1227 C 113.169 -4.16863 1.13355 0
M  V30 1228 C 112.304 -5.2888 0.49597 0
M  V30 1229 C 111.343 -5.92537 1.53513 0
M  V30 1230 N 110.48 -6.96038 0.920631 0
M  V30 1231 H 115.32 -2.52876 1.57663 0
M  V30 1232 H 112.857 -1.24199 0.788223 0
M  V30 1233 H 114.815 -4.16193 -0.289704 0
M  V30 1234 H 113.445 -3.132 -0.781393 0
M  V30 1235 H 112.497 -3.44248 1.61857 0
M  V30 1236 H 113.809 -4.60294 1.92174 0
M  V30 1237 H 112.963 -6.06653 0.0758604 0
M  V30 1238 H 111.702 -4.86622 -0.324062 0
M  V30 1239 H 110.707 -5.13482 1.9651 0
M  V30 1240 H 111.932 -6.36873 2.35733 0
M  V30 1241 H 109.878 -6.55888 0.12138 0
M  V30 1242 H 109.795 -7.3786 1.64616 0
M  V30 1243 H 111.063 -7.77725 0.525795 0
M  V30 1244 N 115.292 -0.849877 -1.32721 0
M  V30 1245 C 116.541 -0.447175 -1.96681 0
M  V30 1246 C 116.854 1.00135 -1.68025 0
M  V30 1247 O 118.06 1.50926 -2.25685 0
M  V30 1248 C 116.516 -0.7487 -3.52026 0
M  V30 1249 C 116.124 -2.21264 -3.89546 0
M  V30 1250 C 117.868 -0.413487 -4.22481 0
M  V30 1251 C 115.775 -2.45763 -5.37917 0
M  V30 1252 H 114.705 -0.163486 -0.736063 0
M  V30 1253 H 117.356 -1.03999 -1.51183 0
M  V30 1254 H 115.738 -0.0853727 -3.95908 0
M  V30 1255 H 116.912 -2.91736 -3.56689 0
M  V30 1256 H 115.227 -2.5119 -3.32103 0
M  V30 1257 H 117.824 -0.574017 -5.3161 0
M  V30 1258 H 118.167 0.644492 -4.11281 0
M  V30 1259 H 118.7 -1.03251 -3.84167 0
M  V30 1260 H 115.439 -3.50168 -5.54132 0
M  V30 1261 H 114.959 -1.79864 -5.72197 0
M  V30 1262 H 116.638 -2.29471 -6.0494 0
M  V30 1263 N 116.77 1.45427 -0.607355 0
M  V30 1264 C 117.7 2.3329 0.0989352 0
M  V30 1265 C 118.681 1.46816 0.859007 0
M  V30 1266 O 119.866 1.75588 0.829604 0
M  V30 1267 C 116.996 3.29518 1.09705 0
M  V30 1268 C 115.95 4.25626 0.450206 0
M  V30 1269 C 115.276 5.11542 1.55655 0
M  V30 1270 C 116.576 5.18505 -0.628455 0
M  V30 1271 H 118.27 2.92595 -0.634716 0
M  V30 1272 H 115.816 1.40696 -0.306681 0
M  V30 1273 H 117.769 3.89855 1.59971 0
M  V30 1274 H 116.493 2.68372 1.86129 0
M  V30 1275 H 115.152 3.66586 -0.0315886 0
M  V30 1276 H 114.8 4.46765 2.31107 0
M  V30 1277 H 114.5 5.76647 1.12925 0
M  V30 1278 H 116.024 5.74748 2.06148 0
M  V30 1279 H 117.438 5.72916 -0.209877 0
M  V30 1280 H 115.835 5.92085 -0.977489 0
M  V30 1281 H 116.905 4.60948 -1.50514 0
M  V30 1282 N 118.248 0.346503 1.53744 0
M  V30 1283 C 119.181 -0.552023 2.21423 0
M  V30 1284 C 120.159 -1.09798 1.19929 0
M  V30 1285 O 121.343 -1.1577 1.4876 0
M  V30 1286 C 118.47 -1.75972 2.89398 0
M  V30 1287 C 117.516 -1.34295 4.04805 0
M  V30 1288 S 118.349 -0.360263 5.34287 0
M  V30 1289 C 119.505 -1.57473 6.05767 0
M  V30 1290 H 119.738 0.0228119 2.97291 0
M  V30 1291 H 117.271 0.130579 1.53847 0
M  V30 1292 H 119.229 -2.45256 3.2918 0
M  V30 1293 H 117.89 -2.30578 2.1329 0
M  V30 1294 H 117.083 -2.24349 4.51313 0
M  V30 1295 H 116.685 -0.729555 3.66815 0
M  V30 1296 H 118.977 -2.50875 6.29339 0
M  V30 1297 H 119.92 -1.15138 6.98676 0
M  V30 1298 H 120.328 -1.77212 5.35963 0
M  V30 1299 N 119.726 -1.57421 0.075193 0
M  V30 1300 C 121.142 -1.57099 -0.281444 0
M  V30 1301 C 121.342 -1.08486 -1.69803 0
M  V30 1302 O 120.398 -0.752279 -2.41033 0
M  V30 1303 C 121.711 -3.00571 -0.0880041 0
M  V30 1304 C 123.259 -3.12605 -0.157281 0
M  V30 1305 C 123.734 -4.57999 0.0079207 0
M  V30 1306 N 125.225 -4.63176 -0.0475725 0
M  V30 1307 C 125.96 -5.73373 0.0557876 0
M  V30 1308 N 125.456 -6.92473 0.21286 0
M  V30 1309 N 127.249 -5.621 -0.00152098 0
M  V30 1310 H 119.4 -1.87335 1.00098 0
M  V30 1311 H 121.663 -0.86377 0.390646 0
M  V30 1312 H 121.369 -3.40262 0.889629 0
M  V30 1313 H 121.243 -3.67754 -0.838875 0
M  V30 1314 H 123.63 -2.72798 -1.1254 0
M  V30 1315 H 123.711 -2.48053 0.62475 0
M  V30 1316 H 123.355 -4.98496 0.972824 0
M  V30 1317 H 123.285 -5.20586 -0.793556 0
M  V30 1318 H 125.776 -3.7753 -0.167244 0
M  V30 1319 H 126.089 -7.72279 0.283781 0
M  V30 1320 H 124.434 -6.94556 0.248267 0
M  V30 1321 H 127.625 -4.67938 -0.122958 0
M  V30 1322 H 127.798 -6.47948 0.0824844 0
M  V30 1323 N 121.204 0.198386 -1.56346 0
M  V30 1324 C 122.151 1.24589 -1.94284 0
M  V30 1325 C 123.121 1.454 -0.802997 0
M  V30 1326 O 124.306 1.58588 -1.06087 0
M  V30 1327 C 121.446 2.58631 -2.28482 0
M  V30 1328 C 120.559 2.45426 -3.55514 0
M  V30 1329 C 119.694 3.7215 -3.79049 0
M  V30 1330 C 118.733 3.53763 -4.99518 0
M  V30 1331 N 117.87 4.72491 -5.19323 0
M  V30 1332 H 122.71 0.915356 -2.83593 0
M  V30 1333 H 120.247 0.440629 -1.40346 0
M  V30 1334 H 122.205 3.3672 -2.46324 0
M  V30 1335 H 120.835 2.89734 -1.42317 0
M  V30 1336 H 119.887 1.58652 -3.45737 0
M  V30 1337 H 121.199 2.27772 -4.43758 0
M  V30 1338 H 120.353 4.58679 -3.97113 0
M  V30 1339 H 119.092 3.92754 -2.89129 0
M  V30 1340 H 118.097 2.65619 -4.8138 0
M  V30 1341 H 119.322 3.34607 -5.90944 0
M  V30 1342 H 117.268 4.93365 -4.3235 0
M  V30 1343 H 117.185 4.5765 -6.01741 0
M  V30 1344 H 118.453 5.6038 -5.41843 0
M  V30 1345 N 122.682 1.50554 0.465978 0
M  V30 1346 C 123.91 1.65563 1.24083 0
M  V30 1347 C 124.325 0.341051 1.85694 0
M  V30 1348 O 123.682 -0.677543 1.69457 0
M  V30 1349 C 123.733 2.75051 2.34583 0
M  V30 1350 O 123.454 4.01413 1.75497 0
M  V30 1351 C 124.955 3.01078 3.25372 0
M  V30 1352 H 122.175 0.55638 0.375077 0
M  V30 1353 H 124.719 1.96807 0.555624 0
M  V30 1354 H 122.874 2.46486 2.9887 0
M  V30 1355 H 123.288 4.62002 2.48303 0
M  V30 1356 H 124.762 3.81339 3.99105 0
M  V30 1357 H 125.239 2.12349 3.84453 0
M  V30 1358 H 125.845 3.31194 2.66816 0
M  V30 1359 N 124.16 -0.719506 1.40217 0
M  V30 1360 C 125.07 -1.86378 1.42479 0
M  V30 1361 C 126.086 -1.71073 0.317834 0
M  V30 1362 O 127.262 -1.93406 0.561794 0
M  V30 1363 C 124.327 -3.22136 1.28178 0
M  V30 1364 C 123.388 -3.49723 2.48982 0
M  V30 1365 C 122.621 -4.79004 2.35353 0
M  V30 1366 O 122.844 -5.53821 1.36524 0
M  V30 1367 O 121.778 -5.06839 3.2465 0
M  V30 1368 H 125.604 -1.87425 2.38968 0
M  V30 1369 H 123.189 -0.869405 1.21498 0
M  V30 1370 H 125.071 -4.03234 1.22395 0
M  V30 1371 H 123.746 -3.21825 0.347934 0
M  V30 1372 H 122.653 -2.6865 2.60342 0
M  V30 1373 H 123.986 -3.54828 3.41113 0
M  V30 1374 N 125.638 -1.25649 -0.95132 0
M  V30 1375 C 126.548 -1.08073 -2.08224 0
M  V30 1376 C 127.564 -0.0169666 -1.73992 0
M  V30 1377 O 128.74 -0.218593 -2.0021 0
M  V30 1378 C 125.805 -0.704922 -3.39458 0
M  V30 1379 C 124.866 -1.84699 -3.87537 0
M  V30 1380 C 124.099 -1.48902 -5.12508 0
M  V30 1381 O 124.322 -0.386156 -5.69091 0
M  V30 1382 O 123.256 -2.32033 -5.55378 0
M  V30 1383 H 127.082 -2.02924 -2.25954 0
M  V30 1384 H 124.667 -1.04618 -1.06656 0
M  V30 1385 H 126.549 -0.507609 -4.18332 0
M  V30 1386 H 125.224 0.214291 -3.2299 0
M  V30 1387 H 124.131 -2.09919 -3.09653 0
M  V30 1388 H 125.464 -2.74557 -4.08509 0
M  V30 1389 N 127.117 1.15442 -1.07289 0
M  V30 1390 C 128.528 1.67803 -0.818475 0
M  V30 1391 C 128.879 1.8489 0.656507 0
M  V30 1392 O 128.004 1.55176 1.50829 0
M  V30 1393 C 128.599 3.04805 -1.47917 0
M  V30 1394 C 127.158 3.54245 -1.27229 0
M  V30 1395 C 126.305 2.29986 -1.54925 0
M  V30 1396 H 129.256 0.996646 -1.23502 0
M  V30 1397 H 129.277 3.69702 -0.90005 0
M  V30 1398 H 128.789 2.92336 -2.55267 0
M  V30 1399 H 126.89 3.71956 -0.21899 0
M  V30 1400 H 127.003 4.35723 -1.99203 0
M  V30 1401 H 125.367 2.35496 -0.970242 0
M  V30 1402 H 126.15 2.20105 -2.63455 0
M  V30 1403 N 128.595 0.856903 1.32268 0
M  V30 1404 C 129.843 0.460474 1.96784 0
M  V30 1405 C 130.164 -0.987701 1.68135 0
M  V30 1406 O 129.434 -1.69058 0.989765 0
M  V30 1407 H 128.014 0.167289 0.728027 0
M  V30 1408 H 130.676 1.09383 1.61312 0
M  V30 1409 H 129.772 0.60739 3.06133 0
M  V30 1410 N 130.073 -1.45103 0.615059 0
M  V30 1411 C 131.02 -2.30586 -0.0993978 0
M  V30 1412 C 131.99 -1.42544 -0.852669 0
M  V30 1413 O 133.175 -1.71465 -0.836917 0
M  V30 1414 C 130.315 -3.27572 -1.08583 0
M  V30 1415 C 129.428 -4.30717 -0.332656 0
M  V30 1416 C 128.563 -5.14807 -1.30947 0
M  V30 1417 C 127.602 -6.09673 -0.544538 0
M  V30 1418 N 126.739 -6.86517 -1.47101 0
M  V30 1419 H 131.579 -2.91144 0.635542 0
M  V30 1420 H 129.116 -1.4346 0.325206 0
M  V30 1421 H 131.074 -3.82276 -1.67095 0
M  V30 1422 H 129.704 -2.68751 -1.78809 0
M  V30 1423 H 128.756 -3.78615 0.368107 0
M  V30 1424 H 130.068 -4.98102 0.263842 0
M  V30 1425 H 129.222 -5.73948 -1.96643 0
M  V30 1426 H 127.961 -4.47458 -1.9399 0
M  V30 1427 H 126.966 -5.49656 0.126003 0
M  V30 1428 H 128.191 -6.79052 0.080947 0
M  V30 1429 H 126.137 -6.21851 -2.08895 0
M  V30 1430 H 126.054 -7.50281 -0.928137 0
M  V30 1431 H 127.322 -7.50194 -2.11731 0
M  V30 1432 N 131.551 -0.354651 -1.53558 0
M  V30 1433 C 132.798 0.238443 -2.01091 0
M  V30 1434 C 133.126 1.49663 -1.24222 0
M  V30 1435 O 132.381 1.93049 -0.321003 0
M  V30 1436 C 132.68 0.587121 -3.52545 0
M  V30 1437 C 132.346 -0.575472 -4.47213 0
M  V30 1438 C 131.008 -0.894497 -4.72813 0
M  V30 1439 C 133.36 -1.35489 -5.03281 0
M  V30 1440 C 130.688 -1.99511 -5.51736 0
M  V30 1441 C 133.04 -2.44583 -5.83405 0
M  V30 1442 C 131.704 -2.77033 -6.07296 0
M  V30 1443 H 130.974 0.0872526 -0.735845 0
M  V30 1444 H 133.621 -0.484859 -1.8526 0
M  V30 1445 H 131.926 1.39129 -3.66265 0
M  V30 1446 H 133.623 1.05809 -3.86789 0
M  V30 1447 H 130.213 -0.316774 -4.27428 0
M  V30 1448 H 134.397 -1.12167 -4.83459 0
M  V30 1449 H 129.653 -2.25063 -5.68469 0
M  V30 1450 H 133.827 -3.05401 -6.25862 0
M  V30 1451 H 131.454 -3.6244 -6.68237 0
M  V30 1452 N 133.029 1.57378 -0.0835403 0
M  V30 1453 C 134.254 1.98682 0.594987 0
M  V30 1454 C 134.679 0.961969 1.61641 0
M  V30 1455 O 134.037 -0.0709989 1.81161 0
M  V30 1456 C 134.085 3.38988 1.2296 0
M  V30 1457 O 133.189 3.39208 2.34546 0
M  V30 1458 H 132.53 0.646368 0.152002 0
M  V30 1459 H 135.06 2.03961 -0.161533 0
M  V30 1460 H 135.07 3.76431 1.57366 0
M  V30 1461 H 133.745 4.13107 0.481228 0
M  V30 1462 H 132.322 3.13548 2.01846 0
M  V30 1463 N 134.507 -0.190092 1.56449 0
M  V30 1464 C 135.47 -1.21925 1.9408 0
M  V30 1465 C 136.47 -1.38176 0.822431 0
M  V30 1466 O 137.66 -1.35903 1.08977 0
M  V30 1467 C 134.792 -2.58773 2.21922 0
M  V30 1468 H 135.985 -0.897464 2.86157 0
M  V30 1469 H 133.538 -0.43181 1.50217 0
M  V30 1470 H 134.273 -2.95998 1.32499 0
M  V30 1471 H 134.058 -2.48348 3.03424 0
M  V30 1472 H 135.548 -3.32978 2.52022 0
M  V30 1473 N 135.985 -1.50799 -0.457987 0
M  V30 1474 C 137.215 -1.65977 -1.23025 0
M  V30 1475 C 137.623 -0.347918 -1.85974 0
M  V30 1476 O 136.966 0.68148 -1.70592 0
M  V30 1477 C 137.028 -2.70309 -2.3701 0
M  V30 1478 C 136.692 -4.135 -1.94594 0
M  V30 1479 C 137.689 -4.98949 -1.46101 0
M  V30 1480 C 135.374 -4.5949 -2.02915 0
M  V30 1481 C 137.368 -6.28442 -1.06489 0
M  V30 1482 C 135.055 -5.88984 -1.62914 0
M  V30 1483 C 136.053 -6.73286 -1.1478 0
M  V30 1484 O 135.741 -8.00362 -0.75339 0
M  V30 1485 H 135.473 -0.56064 -0.377702 0
M  V30 1486 H 138.027 -1.97857 -0.551537 0
M  V30 1487 H 136.257 -2.337 -3.08093 0
M  V30 1488 H 137.946 -2.74574 -2.98938 0
M  V30 1489 H 138.712 -4.6463 -1.39084 0
M  V30 1490 H 134.591 -3.94009 -2.39328 0
M  V30 1491 H 138.135 -6.94194 -0.688488 0
M  V30 1492 H 134.032 -6.22822 -1.69595 0
M  V30 1493 H 134.8 -8.13744 -0.88108 0
M  V30 1494 N 137.463 0.71206 -1.40597 0
M  V30 1495 C 138.711 1.46907 -1.38791 0
M  V30 1496 C 139.032 1.94998 0.00780391 0
M  V30 1497 O 138.302 1.70587 0.963174 0
M  V30 1498 H 136.882 0.545043 -0.51082 0
M  V30 1499 H 139.544 0.843882 -1.75683 0
M  V30 1500 H 138.64 2.34021 -2.06496 0
M  V30 1501 N 138.941 1.26152 0.944643 0
M  V30 1502 C 140.189 1.11271 1.6871 0
M  V30 1503 C 140.51 -0.345166 1.91921 0
M  V30 1504 O 139.78 -1.24387 1.51343 0
M  V30 1505 H 138.36 0.408783 0.625224 0
M  V30 1506 H 141.022 1.58427 1.1352 0
M  V30 1507 H 140.118 1.62879 2.66227 0
M  V30 1508 N 140.419 -1.14872 1.07899 0
M  V30 1509 C 141.835 -1.37776 0.805606 0
M  V30 1510 C 142.035 -1.92743 -0.587555 0
M  V30 1511 O 141.091 -2.13678 -1.34528 0
M  V30 1512 C 142.404 -2.34361 1.88402 0
M  V30 1513 C 143.952 -2.48012 1.90942 0
M  V30 1514 C 144.427 -3.47893 2.97883 0
M  V30 1515 N 145.918 -3.55433 2.97021 0
M  V30 1516 C 146.653 -4.32553 3.76412 0
M  V30 1517 N 146.149 -5.12959 4.65666 0
M  V30 1518 N 147.942 -4.27697 3.64735 0
M  V30 1519 H 140.093 -0.775365 1.97742 0
M  V30 1520 H 142.356 -0.403521 0.857831 0
M  V30 1521 H 142.062 -2.01098 2.88535 0
M  V30 1522 H 141.936 -3.34206 1.74889 0
M  V30 1523 H 144.323 -2.8057 0.914579 0
M  V30 1524 H 144.404 -1.48147 2.08534 0
M  V30 1525 H 144.048 -3.16069 3.97571 0
M  V30 1526 H 143.978 -4.47527 2.77538 0
M  V30 1527 H 146.469 -2.98048 2.32326 0
M  V30 1528 H 146.782 -5.69065 5.22862 0
M  V30 1529 H 145.127 -5.12245 4.69712 0
M  V30 1530 H 148.318 -3.63949 2.94378 0
M  V30 1531 H 148.491 -4.8755 4.26848 0
M  V30 1532 N 141.898 -0.863906 -1.31812 0
M  V30 1533 C 142.845 -0.313303 -2.28664 0
M  V30 1534 C 143.815 0.584868 -1.55462 0
M  V30 1535 O 145 0.517805 -1.83639 0
M  V30 1536 C 142.14 0.48441 -3.41683 0
M  V30 1537 C 141.253 -0.440594 -4.29747 0
M  V30 1538 C 140.388 0.370652 -5.29905 0
M  V30 1539 C 139.427 -0.551164 -6.09613 0
M  V30 1540 N 138.564 0.223462 -7.01744 0
M  V30 1541 H 143.404 -1.14444 -2.75148 0
M  V30 1542 H 140.941 -0.575769 -1.35364 0
M  V30 1543 H 142.899 0.962627 -4.05943 0
M  V30 1544 H 141.529 1.28029 -2.96325 0
M  V30 1545 H 140.581 -1.03724 -3.65986 0
M  V30 1546 H 141.893 -1.14767 -4.85417 0
M  V30 1547 H 141.047 0.911638 -5.99812 0
M  V30 1548 H 139.786 1.11105 -4.74876 0
M  V30 1549 H 138.791 -1.10396 -5.38603 0
M  V30 1550 H 140.016 -1.29032 -6.66729 0
M  V30 1551 H 137.962 0.946787 -6.49132 0
M  V30 1552 H 137.879 -0.424399 -7.54808 0
M  V30 1553 H 139.147 0.745876 -7.75923 0
M  V30 1554 N 143.376 1.44774 -0.622745 0
M  V30 1555 C 144.306 2.33382 0.0741861 0
M  V30 1556 C 145.287 1.47719 0.843387 0
M  V30 1557 O 146.472 1.76458 0.810934 0
M  V30 1558 C 143.602 3.30663 1.06204 0
M  V30 1559 C 142.556 4.26079 0.405037 0
M  V30 1560 C 141.882 5.13165 1.5022 0
M  V30 1561 C 143.182 5.1781 -0.683414 0
M  V30 1562 H 144.876 2.91905 -0.665713 0
M  V30 1563 H 142.422 1.40363 -0.321587 0
M  V30 1564 H 144.375 3.9153 1.55827 0
M  V30 1565 H 143.099 2.70331 1.83272 0
M  V30 1566 H 141.758 3.66532 -0.0704683 0
M  V30 1567 H 141.406 4.49191 2.26355 0
M  V30 1568 H 141.106 5.77812 1.06803 0
M  V30 1569 H 142.63 5.76902 2.00041 0
M  V30 1570 H 144.044 5.72661 -0.270631 0
M  V30 1571 H 142.441 5.91015 -1.04023 0
M  V30 1572 H 143.511 4.59326 -1.55395 0
M  V30 1573 N 144.854 0.36279 1.53368 0
M  V30 1574 C 146.103 -0.22888 2.00397 0
M  V30 1575 C 146.416 -1.50096 1.25421 0
M  V30 1576 O 147.622 -2.17106 1.63025 0
M  V30 1577 C 146.078 -0.458417 3.56969 0
M  V30 1578 C 145.686 0.798877 4.4082 0
M  V30 1579 C 147.43 -1.00789 4.12361 0
M  V30 1580 C 145.337 0.539078 5.88938 0
M  V30 1581 H 144.267 -0.089305 0.748693 0
M  V30 1582 H 146.918 0.481099 1.77081 0
M  V30 1583 H 145.3 -1.22959 3.76427 0
M  V30 1584 H 146.474 1.57262 4.33134 0
M  V30 1585 H 144.789 1.27137 3.96516 0
M  V30 1586 H 147.386 -1.21754 5.20653 0
M  V30 1587 H 147.729 -1.9692 3.66781 0
M  V30 1588 H 148.262 -0.296961 3.9669 0
M  V30 1589 H 145.001 1.47064 6.3879 0
M  V30 1590 H 144.521 -0.196222 5.99479 0
M  V30 1591 H 146.2 0.163542 6.46793 0
M  V30 1592 N 146.332 -1.57332 0.0918853 0
M  V30 1593 C 147.562 -1.98286 -0.580205 0
M  V30 1594 C 147.97 -0.969713 -1.6246 0
M  V30 1595 O 147.313 0.0493501 -1.83634 0
M  V30 1596 C 147.375 -3.35603 -1.28882 0
M  V30 1597 C 147.039 -4.55285 -0.395559 0
M  V30 1598 C 148.036 -5.18687 0.355002 0
M  V30 1599 C 145.721 -5.01314 -0.314556 0
M  V30 1600 C 147.715 -6.26484 1.17458 0
M  V30 1601 C 145.402 -6.08979 0.508677 0
M  V30 1602 C 146.4 -6.71429 1.2519 0
M  V30 1603 O 146.088 -7.77018 2.06151 0
M  V30 1604 H 145.82 -0.656678 -0.160466 0
M  V30 1605 H 148.374 -2.04721 0.16688 0
M  V30 1606 H 146.604 -3.25842 -2.08241 0
M  V30 1607 H 148.293 -3.61026 -1.85512 0
M  V30 1608 H 149.059 -4.84058 0.302134 0
M  V30 1609 H 144.938 -4.5247 -0.882697 0
M  V30 1610 H 148.482 -6.75159 1.75518 0
M  V30 1611 H 144.379 -6.4304 0.563037 0
M  V30 1612 H 145.147 -7.93991 1.98799 0
M  V30 1613 N 147.81 0.181792 -1.56548 0
M  V30 1614 C 148.74 1.22765 -1.98623 0
M  V30 1615 C 149.721 1.46747 -0.860189 0
M  V30 1616 O 150.906 1.58259 -1.12551 0
M  V30 1617 C 148.036 2.56894 -2.33715 0
M  V30 1618 C 146.99 2.475 -3.49182 0
M  V30 1619 C 146.316 3.86023 -3.69986 0
M  V30 1620 C 147.616 1.98866 -4.82959 0
M  V30 1621 H 149.31 0.877942 -2.86239 0
M  V30 1622 H 146.856 0.42088 -1.37712 0
M  V30 1623 H 148.809 3.30253 -2.61746 0
M  V30 1624 H 147.533 2.93632 -1.42997 0
M  V30 1625 H 146.192 1.76596 -3.21262 0
M  V30 1626 H 145.84 4.20136 -2.76576 0
M  V30 1627 H 145.54 3.80609 -4.47672 0
M  V30 1628 H 147.064 4.60984 -4.00407 0
M  V30 1629 H 148.478 2.61992 -5.09934 0
M  V30 1630 H 146.875 2.04424 -5.64208 0
M  V30 1631 H 147.945 0.942465 -4.75653 0
M  V30 1632 N 149.288 1.51039 0.449983 0
M  V30 1633 C 150.22 1.67617 1.56324 0
M  V30 1634 C 151.233 0.557083 1.52972 0
M  V30 1635 O 152.422 0.830989 1.57977 0
M  V30 1636 C 149.522 1.66402 2.95235 0
M  V30 1637 C 148.695 2.9469 3.23229 0
M  V30 1638 C 147.754 2.85832 4.41799 0
M  V30 1639 O 146.78 3.59785 4.41071 0
M  V30 1640 N 147.982 2.00821 5.44657 0
M  V30 1641 H 150.747 2.63648 1.42512 0
M  V30 1642 H 148.308 1.48767 0.638737 0
M  V30 1643 H 150.3 1.58062 3.72557 0
M  V30 1644 H 148.87 0.780182 3.02708 0
M  V30 1645 H 148.09 3.16996 2.34323 0
M  V30 1646 H 149.378 3.79636 3.38754 0
M  V30 1647 H 148.776 1.40091 5.48079 0
M  V30 1648 H 147.333 1.98368 6.20881 0
M  V30 1649 N 150.766 -0.704594 1.40972 0
M  V30 1650 C 151.676 -1.84856 1.44448 0
M  V30 1651 C 152.692 -1.70726 0.335961 0
M  V30 1652 O 153.868 -1.92799 0.582276 0
M  V30 1653 C 150.933 -3.20758 1.31587 0
M  V30 1654 C 149.994 -3.47063 2.52677 0
M  V30 1655 C 149.227 -4.76481 2.4042 0
M  V30 1656 O 149.45 -5.52341 1.42391 0
M  V30 1657 O 148.384 -5.03367 3.30007 0
M  V30 1658 H 152.21 -1.8488 2.40942 0
M  V30 1659 H 149.795 -0.85647 1.22413 0
M  V30 1660 H 151.677 -4.01913 1.26665 0
M  V30 1661 H 150.352 -3.21438 0.382049 0
M  V30 1662 H 149.259 -2.65873 2.63177 0
M  V30 1663 H 150.592 -3.5119 3.44858 0
M  V30 1664 N 152.244 -1.26651 -0.937939 0
M  V30 1665 C 153.174 -1.10993 -2.05433 0
M  V30 1666 C 154.155 -0.0142161 -1.70094 0
M  V30 1667 O 155.34 -0.186837 -1.93299 0
M  V30 1668 C 152.47 -0.745561 -3.39203 0
M  V30 1669 C 151.424 -1.79337 -3.88616 0
M  V30 1670 C 150.75 -1.28324 -5.19073 0
M  V30 1671 C 152.05 -3.19553 -4.13138 0
M  V30 1672 H 153.744 -2.0438 -2.1879 0
M  V30 1673 H 151.29 -0.984041 -1.05131 0
M  V30 1674 H 153.243 -0.622888 -4.16771 0
M  V30 1675 H 151.967 0.22401 -3.25831 0
M  V30 1676 H 150.626 -1.90477 -3.13231 0
M  V30 1677 H 150.274 -0.303414 -5.02084 0
M  V30 1678 H 149.974 -1.98369 -5.53103 0
M  V30 1679 H 151.498 -1.1733 -5.99221 0
M  V30 1680 H 152.912 -3.11471 -4.81309 0
M  V30 1681 H 151.309 -3.87218 -4.58457 0
M  V30 1682 H 152.379 -3.65368 -3.18801 0
M  V30 1683 N 153.722 1.14298 -1.08507 0
M  V30 1684 C 155.133 1.66926 -0.836227 0
M  V30 1685 C 155.484 1.85576 0.63686 0
M  V30 1686 O 154.609 1.56767 1.49175 0
M  V30 1687 C 155.204 3.03219 -1.51142 0
M  V30 1688 C 153.763 3.52876 -1.30979 0
M  V30 1689 C 152.91 2.2833 -1.57356 0
M  V30 1690 H 155.861 0.983491 -1.24552 0
M  V30 1691 H 155.882 3.68726 -0.939211 0
M  V30 1692 H 155.394 2.89612 -2.58353 0
M  V30 1693 H 153.495 3.71703 -0.258429 0
M  V30 1694 H 153.608 4.33586 -2.03814 0
M  V30 1695 H 151.972 2.34454 -0.995164 0
M  V30 1696 H 152.755 2.17298 -2.65775 0
M  V30 1697 N 155.201 0.870884 1.31352 0
M  V30 1698 C 156.449 0.48132 1.96285 0
M  V30 1699 C 156.77 -0.969813 1.69173 0
M  V30 1700 O 156.04 -1.67998 1.00764 0
M  V30 1701 H 154.62 0.175002 0.726212 0
M  V30 1702 H 157.282 1.11087 1.60143 0
M  V30 1703 H 156.378 0.639825 3.05471 0
M  V30 1704 N 156.679 -1.44442 0.630414 0
M  V30 1705 C 157.907 -2.06414 0.141671 0
M  V30 1706 C 158.322 -1.47105 -1.18345 0
M  V30 1707 O 157.679 -0.593662 -1.72574 0
M  V30 1708 C 157.73 -3.61494 0.0199784 0
M  V30 1709 O 157.451 -4.18594 1.29269 0
M  V30 1710 C 158.952 -4.40499 -0.497544 0
M  V30 1711 H 156.172 -0.666292 0.0793452 0
M  V30 1712 H 158.716 -1.85323 0.864614 0
M  V30 1713 H 156.871 -3.8185 -0.653402 0
M  V30 1714 H 157.285 -5.12026 1.13707 0
M  V30 1715 H 158.759 -5.49433 -0.531708 0
M  V30 1716 H 159.236 -4.11895 -1.52445 0
M  V30 1717 H 159.842 -4.25061 0.142562 0
M  V30 1718 N 158.157 -0.370918 -1.53173 0
M  V30 1719 C 159.434 0.273754 -1.93675 0
M  V30 1720 C 159.814 1.65938 -1.3049 0
M  V30 1721 O 159.162 2.23698 -0.465999 0
M  V30 1722 C 159.372 0.318602 -3.47543 0
M  V30 1723 C 160.72 0.556392 -4.20939 0
M  V30 1724 O 161.744 0.399587 -3.53952 0
M  V30 1725 O 160.603 0.862133 -5.39657 0
M  V30 1726 H 157.697 0.165448 -0.810281 0
M  V30 1727 H 160.243 -0.42409 -1.64315 0
M  V30 1728 H 159.015 -0.652687 -3.85818 0
M  V30 1729 H 158.638 1.06212 -3.83151 0
M  V30 1730 N 159.635 1.57281 -0.100228 0
M  V30 1731 C 160.912 1.86014 0.604812 0
M  V30 1732 C 161.292 0.998025 1.86018 0
M  V30 1733 O 160.64 0.0718184 2.28387 0
M  V30 1734 C 160.85 3.36784 0.915278 0
M  V30 1735 C 162.198 4.04957 1.27651 0
M  V30 1736 O 163.222 3.41695 1.00613 0
M  V30 1737 O 162.081 5.16593 1.7831 0
M  V30 1738 H 159.175 0.76942 0.303185 0
M  V30 1739 H 161.721 1.69176 -0.133313 0
M  V30 1740 H 160.493 3.91292 0.0248896 0
M  V30 1741 H 160.116 3.58987 1.70921 0
M  V30 1742 N 161.113 -0.173488 1.56642 0
M  V30 1743 C 162.343 -0.904781 1.85734 0
M  V30 1744 C 162.751 -1.76431 0.68328 0
M  V30 1745 O 162.094 -1.802 -0.356865 0
M  V30 1746 C 162.156 -1.83382 3.09211 0
M  V30 1747 C 161.82 -1.15411 4.42187 0
M  V30 1748 C 162.817 -0.520609 5.17287 0
M  V30 1749 C 160.502 -1.15151 4.88923 0
M  V30 1750 C 162.496 0.106412 6.37311 0
M  V30 1751 C 160.183 -0.520664 6.08878 0
M  V30 1752 C 161.181 0.107196 6.82916 0
M  V30 1753 O 160.869 0.728102 8.00596 0
M  V30 1754 H 160.601 -0.268408 0.62043 0
M  V30 1755 H 163.155 -0.179096 2.04618 0
M  V30 1756 H 161.385 -2.59976 2.86268 0
M  V30 1757 H 163.074 -2.43476 3.24768 0
M  V30 1758 H 163.84 -0.514606 4.82262 0
M  V30 1759 H 159.719 -1.62961 4.31236 0
M  V30 1760 H 163.263 0.597081 6.9504 0
M  V30 1761 H 159.16 -0.524242 6.43368 0
M  V30 1762 H 159.928 0.627138 8.16094 0
M  V30 1763 N 162.591 -1.51276 -0.441967 0
M  V30 1764 C 163.837 -1.63958 -1.19355 0
M  V30 1765 C 164.17 -0.352543 -1.90973 0
M  V30 1766 O 163.445 0.647627 -1.83401 0
M  V30 1767 C 163.728 -2.83979 -2.21422 0
M  V30 1768 C 163.581 -4.22646 -1.53918 0
M  V30 1769 C 164.9 -2.99521 -3.22451 0
M  V30 1770 H 162.019 -0.596709 -0.432559 0
M  V30 1771 H 164.661 -1.83748 -0.483398 0
M  V30 1772 H 162.811 -2.67237 -2.81987 0
M  V30 1773 H 164.483 -4.51045 -0.967256 0
M  V30 1774 H 162.726 -4.25558 -0.841615 0
M  V30 1775 H 163.397 -5.02609 -2.28229 0
M  V30 1776 H 165.873 -3.14944 -2.71937 0
M  V30 1777 H 164.749 -3.85072 -3.91166 0
M  V30 1778 H 165.01 -2.11391 -3.88287 0
M  V30 1779 N 164.069 0.697108 -1.41344 0
M  V30 1780 C 165.316 1.45714 -1.40619 0
M  V30 1781 C 165.644 1.94494 -0.0147907 0
M  V30 1782 O 164.899 1.69794 0.973066 0
M  V30 1783 C 165.198 2.68553 -2.35826 0
M  V30 1784 C 164.864 2.38438 -3.82698 0
M  V30 1785 C 163.526 2.29936 -4.22709 0
M  V30 1786 C 165.878 2.13567 -4.75435 0
M  V30 1787 C 163.206 1.94656 -5.53467 0
M  V30 1788 C 165.558 1.79797 -6.06511 0
M  V30 1789 C 164.222 1.69789 -6.45545 0
M  V30 1790 H 163.492 0.533206 -0.51456 0
M  V30 1791 H 166.139 0.796901 -1.74131 0
M  V30 1792 H 164.444 3.39503 -1.95563 0
M  V30 1793 H 166.141 3.2669 -2.32539 0
M  V30 1794 H 162.731 2.4595 -3.51008 0
M  V30 1795 H 166.915 2.19082 -4.45328 0
M  V30 1796 H 162.171 1.8546 -5.82593 0
M  V30 1797 H 166.345 1.59572 -6.77872 0
M  V30 1798 H 163.972 1.4222 -7.46778 0
M  V30 1799 N 165.547 1.27147 0.931209 0
M  V30 1800 C 166.777 1.15914 1.71019 0
M  V30 1801 C 167.185 -0.287112 1.87009 0
M  V30 1802 O 166.528 -1.20761 1.38429 0
M  V30 1803 C 166.59 1.76647 3.13107 0
M  V30 1804 C 166.254 3.25807 3.20467 0
M  V30 1805 C 167.251 4.22489 3.02983 0
M  V30 1806 C 164.936 3.66452 3.43538 0
M  V30 1807 C 166.93 5.57794 3.08454 0
M  V30 1808 C 164.617 5.01888 3.48643 0
M  V30 1809 C 165.615 5.97369 3.31119 0
M  V30 1810 O 165.303 7.30337 3.35952 0
M  V30 1811 H 165.035 0.404062 0.54195 0
M  V30 1812 H 167.589 1.68457 1.17521 0
M  V30 1813 H 165.819 1.18578 3.68071 0
M  V30 1814 H 167.508 1.60179 3.72958 0
M  V30 1815 H 168.274 3.92425 2.85004 0
M  V30 1816 H 164.153 2.92611 3.5623 0
M  V30 1817 H 167.697 6.32298 2.94694 0
M  V30 1818 H 163.594 5.31609 3.66145 0
M  V30 1819 H 164.362 7.38739 3.5243 0
M  V30 1820 N 167.025 -1.13721 1.09112 0
M  V30 1821 C 168.265 -1.86576 0.834801 0
M  V30 1822 C 168.629 -1.81435 -0.628122 0
M  V30 1823 O 169.83 -2.49497 -1.00024 0
M  V30 1824 C 168.101 -3.30872 1.35124 0
M  V30 1825 S 169.66 -4.21257 1.22832 0
M  V30 1826 H 166.478 -0.643666 0.302017 0
M  V30 1827 H 169.08 -1.37085 1.39385 0
M  V30 1828 H 167.784 -3.32166 2.41027 0
M  V30 1829 H 167.315 -3.85423 0.788185 0
M  V30 1830 H 169.33 -4.95884 0.177191 0
M  V30 1831 N 168.503 -0.877838 -1.30888 0
M  V30 1832 C 169.45 -0.337538 -2.28318 0
M  V30 1833 C 170.42 0.568346 -1.56074 0
M  V30 1834 O 171.605 0.498298 -1.84178 0
M  V30 1835 C 168.745 0.448142 -3.42178 0
M  V30 1836 C 167.858 -0.48615 -4.29256 0
M  V30 1837 C 166.993 0.314427 -5.30269 0
M  V30 1838 C 166.032 -0.615791 -6.08995 0
M  V30 1839 N 165.169 0.14902 -7.01942 0
M  V30 1840 H 170.009 -1.17356 -2.73919 0
M  V30 1841 H 167.546 -0.590094 -1.34745 0
M  V30 1842 H 169.504 0.919517 -4.06941 0
M  V30 1843 H 168.134 1.24879 -2.97666 0
M  V30 1844 H 167.186 -1.076 -3.64865 0
M  V30 1845 H 168.498 -1.19909 -4.84173 0
M  V30 1846 H 167.652 0.847969 -6.00745 0
M  V30 1847 H 166.391 1.06062 -4.76027 0
M  V30 1848 H 165.396 -1.16102 -5.37401 0
M  V30 1849 H 166.621 -1.36097 -6.65323 0
M  V30 1850 H 164.567 0.877884 -6.50099 0
M  V30 1851 H 164.484 -0.504433 -7.54315 0
M  V30 1852 H 165.752 0.663537 -7.76671 0
M  V30 1853 N 169.982 1.44106 -0.638065 0
M  V30 1854 C 171.259 1.95453 -0.0759321 0
M  V30 1855 C 171.639 1.57984 1.40015 0
M  V30 1856 O 170.987 0.857361 2.11806 0
M  V30 1857 C 171.197 3.47655 -0.306132 0
M  V30 1858 C 172.545 4.24114 -0.203008 0
M  V30 1859 O 173.569 3.55405 -0.237871 0
M  V30 1860 O 172.428 5.46381 -0.113827 0
M  V30 1861 H 169.522 0.826797 0.0183332 0
M  V30 1862 H 172.068 1.54122 -0.710251 0
M  V30 1863 H 170.84 3.68 -1.3301 0
M  V30 1864 H 170.463 3.95949 0.361991 0
M  V30 1865 N 171.46 0.379036 1.52974 0
M  V30 1866 C 172.392 -0.495963 2.2377 0
M  V30 1867 C 173.405 -1.03517 1.25651 0
M  V30 1868 O 174.594 -0.939249 1.51791 0
M  V30 1869 C 171.694 -1.69894 2.93239 0
M  V30 1870 C 170.867 -1.2889 4.17979 0
M  V30 1871 C 169.926 -2.35543 4.70538 0
M  V30 1872 O 168.952 -1.97375 5.33883 0
M  V30 1873 N 170.154 -3.67318 4.49508 0
M  V30 1874 H 172.919 0.110523 2.99496 0
M  V30 1875 H 170.48 0.204878 1.60598 0
M  V30 1876 H 172.472 -2.40747 3.25304 0
M  V30 1877 H 171.042 -2.212 2.20883 0
M  V30 1878 H 170.262 -0.409676 3.92065 0
M  V30 1879 H 171.55 -0.991443 4.99047 0
M  V30 1880 H 170.948 -4.01095 3.98923 0
M  V30 1881 H 169.505 -4.34235 4.8609 0
M  V30 1882 N 172.938 -1.57226 0.108567 0
M  V30 1883 C 174.354 -1.5766 -0.248058 0
M  V30 1884 C 174.554 -1.12063 -1.67464 0
M  V30 1885 O 173.61 -0.803236 -2.39383 0
M  V30 1886 C 174.923 -3.0069 -0.0242287 0
M  V30 1887 C 176.471 -3.12868 -0.0909372 0
M  V30 1888 C 176.946 -4.57879 0.105067 0
M  V30 1889 N 178.437 -4.63172 0.0506846 0
M  V30 1890 C 179.172 -5.73126 0.177396 0
M  V30 1891 N 178.668 -6.91866 0.359696 0
M  V30 1892 N 180.461 -5.61977 0.117709 0
M  V30 1893 H 172.612 -1.85169 1.04049 0
M  V30 1894 H 174.875 -0.85529 0.40888 0
M  V30 1895 H 174.581 -3.38299 0.961604 0
M  V30 1896 H 174.455 -3.6945 -0.76068 0
M  V30 1897 H 176.842 -2.75124 -1.06729 0
M  V30 1898 H 176.923 -2.46672 0.677225 0
M  V30 1899 H 176.567 -4.96321 1.07834 0
M  V30 1900 H 176.497 -5.22153 -0.682954 0
M  V30 1901 H 178.988 -3.778 -0.0871266 0
M  V30 1902 H 179.301 -7.71503 0.447529 0
M  V30 1903 H 177.646 -6.93874 0.395536 0
M  V30 1904 H 180.837 -4.68094 -0.0236741 0
M  V30 1905 H 181.01 -6.47627 0.219905 0
M  V30 1906 N 174.416 0.165178 -1.56732 0
M  V30 1907 C 175.832 0.517174 -1.50988 0
M  V30 1908 C 176.032 1.84331 -0.813894 0
M  V30 1909 O 175.088 2.49672 -0.37682 0
M  V30 1910 C 176.401 0.544261 -2.95733 0
M  V30 1911 C 177.949 0.631039 -3.06573 0
M  V30 1912 C 178.424 0.68896 -4.52788 0
M  V30 1913 N 179.915 0.751683 -4.5706 0
M  V30 1914 C 180.65 0.817177 -5.67547 0
M  V30 1915 N 180.146 0.843129 -6.8765 0
M  V30 1916 N 181.939 0.856668 -5.55534 0
M  V30 1917 H 174.09 -0.704318 -2.00382 0
M  V30 1918 H 176.353 -0.254687 -0.913148 0
M  V30 1919 H 176.059 -0.361607 -3.49836 0
M  V30 1920 H 175.933 1.3886 -3.5071 0
M  V30 1921 H 178.32 1.52733 -2.52501 0
M  V30 1922 H 178.401 -0.240095 -2.54671 0
M  V30 1923 H 178.045 -0.2031 -5.07494 0
M  V30 1924 H 177.975 1.57633 -5.02454 0
M  V30 1925 H 180.466 0.739661 -3.70591 0
M  V30 1926 H 180.779 0.894448 -7.67606 0
M  V30 1927 H 179.124 0.811304 -6.90248 0
M  V30 1928 H 182.315 0.833437 -4.60621 0
M  V30 1929 H 182.488 0.904247 -6.4166 0
M  V30 1930 N 175.894 1.51508 0.433938 0
M  V30 1931 C 177.142 1.6402 1.18075 0
M  V30 1932 C 177.463 0.360328 1.91642 0
M  V30 1933 O 176.733 -0.623945 1.85698 0
M  V30 1934 H 175.313 0.6045 0.43885 0
M  V30 1935 H 177.975 1.88452 0.497178 0
M  V30 1936 H 177.071 2.46949 1.90847 0
M  V30 1937 N 177.372 -0.689602 1.41712 0
M  V30 1938 C 178.62 -1.4468 1.4111 0
M  V30 1939 C 178.941 -1.94986 0.0232196 0
M  V30 1940 O 178.211 -1.72097 -0.935913 0
M  V30 1941 H 176.791 -0.536847 0.519427 0
M  V30 1942 H 179.453 -0.815825 1.77004 0
M  V30 1943 H 178.549 -2.30706 2.10193 0
M  V30 1944 N 178.85 -1.27639 -0.924453 0
M  V30 1945 C 179.78 -1.13166 -2.04244 0
M  V30 1946 C 180.761 -0.032256 -1.70069 0
M  V30 1947 O 181.946 -0.207328 -1.9309 0
M  V30 1948 C 179.076 -0.781496 -3.38393 0
M  V30 1949 C 178.03 -1.83449 -3.86692 0
M  V30 1950 C 177.356 -1.33822 -5.17683 0
M  V30 1951 C 178.656 -3.23917 -4.09726 0
M  V30 1952 H 180.35 -2.06689 -2.1661 0
M  V30 1953 H 177.896 -0.995136 -1.04082 0
M  V30 1954 H 179.849 -0.667057 -4.16087 0
M  V30 1955 H 178.573 0.189439 -3.2605 0
M  V30 1956 H 177.232 -1.93789 -3.11193 0
M  V30 1957 H 176.88 -0.35665 -5.01734 0
M  V30 1958 H 176.58 -2.04224 -5.50968 0
M  V30 1959 H 178.104 -1.23679 -5.97943 0
M  V30 1960 H 179.518 -3.16559 -4.77978 0
M  V30 1961 H 177.915 -3.92059 -4.54324 0
M  V30 1962 H 178.985 -3.68729 -3.14908 0
M  V30 1963 N 180.328 1.1314 -1.09713 0
M  V30 1964 C 181.744 1.36477 -0.827423 0
M  V30 1965 C 181.944 1.93654 0.556817 0
M  V30 1966 O 181 2.15791 1.31112 0
M  V30 1967 C 182.313 2.31334 -1.92106 0
M  V30 1968 C 183.861 2.44943 -1.94864 0
M  V30 1969 C 184.336 3.4311 -3.0338 0
M  V30 1970 N 185.827 3.50662 -3.02639 0
M  V30 1971 C 186.562 4.2651 -3.83246 0
M  V30 1972 N 186.058 5.05485 -4.73768 0
M  V30 1973 N 187.851 4.2184 -3.71493 0
M  V30 1974 H 180.002 0.743807 -1.9895 0
M  V30 1975 H 182.265 0.389823 -0.864143 0
M  V30 1976 H 181.971 1.96483 -2.91698 0
M  V30 1977 H 181.845 3.31381 -1.80184 0
M  V30 1978 H 184.232 2.79079 -0.959099 0
M  V30 1979 H 184.313 1.4481 -2.10864 0
M  V30 1980 H 183.957 3.09704 -4.02549 0
M  V30 1981 H 183.887 4.43055 -2.84622 0
M  V30 1982 H 186.378 2.94315 -2.37039 0
M  V30 1983 H 186.691 5.60675 -5.3185 0
M  V30 1984 H 185.036 5.04708 -4.77802 0
M  V30 1985 H 188.227 3.5922 -3.00131 0
M  V30 1986 H 188.4 4.80697 -4.3455 0
M  V30 1987 N 181.806 0.884767 1.30421 0
M  V30 1988 C 183.036 0.517293 2.00019 0
M  V30 1989 C 183.444 -0.898632 1.66497 0
M  V30 1990 O 182.787 -1.60245 0.898181 0
M  V30 1991 C 182.849 0.612025 3.54252 0
M  V30 1992 C 182.513 1.99222 4.1129 0
M  V30 1993 C 183.51 2.9616 4.273 0
M  V30 1994 C 181.195 2.29755 4.46674 0
M  V30 1995 C 183.189 4.21764 4.77906 0
M  V30 1996 C 180.876 3.55606 4.96979 0
M  V30 1997 C 181.874 4.51425 5.12547 0
M  V30 1998 O 181.562 5.75043 5.61766 0
M  V30 1999 H 181.294 0.198529 0.64619 0
M  V30 2000 H 183.848 1.1919 1.67281 0
M  V30 2001 H 182.078 -0.119561 3.86515 0
M  V30 2002 H 183.767 0.255859 4.05093 0
M  V30 2003 H 184.533 2.73882 4.00267 0
M  V30 2004 H 180.412 1.55942 4.33824 0
M  V30 2005 H 183.956 4.96561 4.89972 0
M  V30 2006 H 179.853 3.7772 5.23448 0
M  V30 2007 H 180.621 5.77422 5.80109 0
M  V30 2008 N 183.284 -1.43765 0.645699 0
M  V30 2009 C 184.217 -2.2798 -0.100072 0
M  V30 2010 C 185.195 -1.39391 -0.837194 0
M  V30 2011 O 186.379 -1.68833 -0.838306 0
M  V30 2012 C 183.506 -3.18643 -1.14823 0
M  V30 2013 C 182.552 -4.2344 -0.510009 0
M  V30 2014 S 183.385 -5.30761 0.710824 0
M  V30 2015 C 184.541 -6.24992 -0.33699 0
M  V30 2016 H 184.774 -2.90884 0.614322 0
M  V30 2017 H 182.307 -1.48166 0.434304 0
M  V30 2018 H 184.265 -3.71424 -1.74799 0
M  V30 2019 H 182.926 -2.54932 -1.8349 0
M  V30 2020 H 182.119 -4.86948 -1.29991 0
M  V30 2021 H 181.721 -3.73997 0.0154577 0
M  V30 2022 H 184.013 -6.66691 -1.20537 0
M  V30 2023 H 184.956 -7.07612 0.262879 0
M  V30 2024 H 185.364 -5.60517 -0.669425 0
M  V30 2025 N 184.763 -0.387143 -1.52771 0
M  V30 2026 C 186.011 0.195349 -2.01154 0
M  V30 2027 C 186.332 1.475 -1.27549 0
M  V30 2028 O 185.602 1.91878 -0.394924 0
M  V30 2029 H 184.182 0.075178 -0.743207 0
M  V30 2030 H 186.844 -0.518337 -1.87881 0
M  V30 2031 H 185.94 0.407096 -3.09434 0
M  V30 2032 N 186.241 1.57166 -0.116904 0
M  V30 2033 C 187.188 2.15202 0.83408 0
M  V30 2034 C 188.158 1.07644 1.26499 0
M  V30 2035 O 189.343 1.35541 1.34288 0
M  V30 2036 C 186.483 2.75405 2.07957 0
M  V30 2037 C 185.596 3.97264 1.69721 0
M  V30 2038 C 184.731 4.45561 2.89221 0
M  V30 2039 C 183.77 5.59956 2.47215 0
M  V30 2040 N 182.907 6.03006 3.59622 0
M  V30 2041 H 187.747 2.96141 0.332335 0
M  V30 2042 H 185.284 1.46309 0.152349 0
M  V30 2043 H 187.242 3.08439 2.80929 0
M  V30 2044 H 185.872 1.97159 2.55594 0
M  V30 2045 H 184.924 3.70404 0.866316 0
M  V30 2046 H 186.236 4.80226 1.34849 0
M  V30 2047 H 185.39 4.80493 3.7042 0
M  V30 2048 H 184.129 3.61544 3.27318 0
M  V30 2049 H 183.134 5.2463 1.64448 0
M  V30 2050 H 184.359 6.45738 2.10238 0
M  V30 2051 H 182.305 5.21931 3.97396 0
M  V30 2052 H 182.222 6.80819 3.28667 0
M  V30 2053 H 183.49 6.42576 4.41267 0
M  V30 2054 N 187.719 -0.156864 1.56817 0
M  V30 2055 C 188.649 -1.19589 2.00551 0
M  V30 2056 C 189.63 -1.4536 0.883426 0
M  V30 2057 O 190.815 -1.56449 1.15054 0
M  V30 2058 C 187.945 -2.53143 2.37773 0
M  V30 2059 C 186.899 -2.41913 3.53075 0
M  V30 2060 C 186.225 -3.80088 3.76081 0
M  V30 2061 C 187.525 -1.91157 4.86062 0
M  V30 2062 H 189.219 -0.832293 2.87599 0
M  V30 2063 H 186.765 -0.398918 1.38364 0
M  V30 2064 H 188.718 -3.26047 2.66967 0
M  V30 2065 H 187.442 -2.91319 1.4765 0
M  V30 2066 H 186.101 -1.71462 3.24031 0
M  V30 2067 H 185.749 -4.15683 2.83225 0
M  V30 2068 H 185.449 -3.73439 4.53671 0
M  V30 2069 H 186.973 -4.54556 4.0769 0
M  V30 2070 H 188.387 -2.53846 5.14038 0
M  V30 2071 H 186.784 -1.95422 5.67389 0
M  V30 2072 H 187.854 -0.866673 4.77092 0
M  V30 2073 N 189.197 -1.51736 -0.425897 0
M  V30 2074 C 190.443 -1.65214 -1.1761 0
M  V30 2075 C 190.776 -0.372778 -1.90589 0
M  V30 2076 O 190.051 0.628139 -1.84078 0
M  V30 2077 C 190.334 -2.86312 -2.18398 0
M  V30 2078 C 190.187 -4.24254 -1.49426 0
M  V30 2079 C 191.506 -3.02925 -3.19256 0
M  V30 2080 H 188.625 -0.601263 -0.426206 0
M  V30 2081 H 191.267 -1.8425 -0.463882 0
M  V30 2082 H 189.417 -2.70213 -2.79137 0
M  V30 2083 H 191.089 -4.52046 -0.919362 0
M  V30 2084 H 189.332 -4.26426 -0.796432 0
M  V30 2085 H 190.003 -5.05001 -2.22885 0
M  V30 2086 H 192.479 -3.1781 -2.68581 0
M  V30 2087 H 191.355 -3.89199 -3.8706 0
M  V30 2088 H 191.616 -2.15497 -3.86023 0
M  V30 2089 N 190.675 0.682077 -1.42076 0
M  V30 2090 C 191.923 1.4393 -1.41876 0
M  V30 2091 C 192.244 1.94971 -0.0335599 0
M  V30 2092 O 191.514 1.72591 0.926773 0
M  V30 2093 H 190.094 0.534085 -0.522267 0
M  V30 2094 H 192.756 0.806427 -1.77434 0
M  V30 2095 H 191.852 2.29588 -2.11414 0
M  V30 2096 N 192.153 1.28127 0.917671 0
M  V30 2097 C 193.569 1.05749 1.19538 0
M  V30 2098 C 193.769 -0.202633 2.00479 0
M  V30 2099 O 192.825 -0.905382 2.3571 0
M  V30 2100 C 194.138 2.30273 1.93378 0
M  V30 2101 C 195.686 2.35412 2.06277 0
M  V30 2102 C 196.161 3.59692 2.83524 0
M  V30 2103 N 197.652 3.60309 2.91087 0
M  V30 2104 C 198.387 4.53147 3.51348 0
M  V30 2105 N 197.883 5.563 4.12919 0
M  V30 2106 N 199.676 4.40751 3.48849 0
M  V30 2107 H 191.827 2.09024 0.377184 0
M  V30 2108 H 194.09 0.919798 0.22951 0
M  V30 2109 H 193.796 3.22055 1.41328 0
M  V30 2110 H 193.67 2.36378 2.93947 0
M  V30 2111 H 196.057 1.4413 2.57508 0
M  V30 2112 H 196.138 2.33304 1.04895 0
M  V30 2113 H 195.782 4.51316 2.32973 0
M  V30 2114 H 195.712 3.59054 3.85211 0
M  V30 2115 H 198.203 2.85714 2.47338 0
M  V30 2116 H 198.516 6.2329 4.56869 0
M  V30 2117 H 196.861 5.60131 4.11435 0
M  V30 2118 H 200.052 3.59367 2.99955 0
M  V30 2119 H 200.225 5.13291 3.9552 0
M  V30 2120 N 193.631 -1.12557 1.10312 0
M  V30 2121 C 194.579 -2.20325 0.745629 0
M  V30 2122 C 195.573 -1.67429 -0.25763 0
M  V30 2123 O 196.779 -1.79612 -0.118132 0
M  V30 2124 H 193.154 -0.718118 0.223182 0
M  V30 2125 H 195.125 -2.47733 1.66346 0
M  V30 2126 C 193.874 -3.47168 0.192262 0
M  V30 2127 H 193.197 -3.88215 0.955475 0
M  V30 2128 H 194.637 -4.23995 -0.0198274 0
M  V30 2129 C 193.096 -3.19298 -1.07472 0
M  V30 2130 O 193.626 -3.3891 -2.15645 0
M  V30 2131 N 191.832 -2.73113 -0.992847 0
M  V30 2132 H 191.379 -2.57354 -0.112474 0
M  V30 2133 H 191.337 -2.54842 -1.84127 0
M  V30 2134 N 195.109 -0.891671 -1.2995 0
M  V30 2135 C 196.52 -0.563104 -1.78006 0
M  V30 2136 C 196.871 0.920978 -1.73241 0
M  V30 2137 O 195.996 1.71987 -1.31337 0
M  V30 2138 C 196.591 -1.01539 -3.23226 0
M  V30 2139 C 195.15 -0.738124 -3.69092 0
M  V30 2140 C 194.297 -1.19461 -2.50249 0
M  V30 2141 H 197.248 -1.07522 -1.16725 0
M  V30 2142 H 197.269 -0.347217 -3.78912 0
M  V30 2143 H 196.781 -2.09555 -3.26662 0
M  V30 2144 H 194.882 0.329766 -3.71138 0
M  V30 2145 H 194.995 -1.33037 -4.60259 0
M  V30 2146 H 193.359 -0.613787 -2.47194 0
M  V30 2147 H 194.142 -2.28265 -2.56417 0
M  V30 2148 N 196.587 1.43421 -0.653314 0
M  V30 2149 C 197.535 2.32546 0.0501531 0
M  V30 2150 C 198.529 1.48617 0.812985 0
M  V30 2151 O 199.735 1.64825 0.723375 0
M  V30 2152 H 196.11 0.751185 0.0350032 0
M  V30 2153 H 198.081 2.89602 -0.719261 0
M  V30 2154 C 196.83 3.32925 1.00279 0
M  V30 2155 H 196.153 3.97532 0.425236 0
M  V30 2156 H 197.593 3.9792 1.46409 0
M  V30 2157 C 196.052 2.63532 2.09886 0
M  V30 2158 O 196.582 2.45092 3.18265 0
M  V30 2159 N 194.788 2.22905 1.86445 0
M  V30 2160 H 194.335 2.38103 0.98309 0
M  V30 2161 H 194.293 1.76805 2.59976 0
M  V30 2162 N 198.065 0.39524 1.52563 0
M  V30 2163 C 199.293 -0.184943 2.06072 0
M  V30 2164 C 199.708 -1.40021 1.26647 0
M  V30 2165 O 199.065 -1.79767 0.314672 0
M  V30 2166 C 199.116 -0.549179 3.57304 0
M  V30 2167 O 198.837 0.617813 4.33722 0
M  V30 2168 C 200.338 -1.18459 4.2718 0
M  V30 2169 H 197.558 -0.0265025 0.670476 0
M  V30 2170 H 200.102 0.562184 1.96621 0
M  V30 2171 H 198.257 -1.2462 3.66809 0
M  V30 2172 H 198.671 0.317091 5.23541 0
M  V30 2173 H 200.145 -1.38976 5.34219 0
M  V30 2174 H 200.622 -2.15368 3.82771 0
M  V30 2175 H 201.228 -0.528163 4.22008 0
M  V30 2176 N 199.544 -1.57102 0.125237 0
M  V30 2177 C 200.492 -2.16905 -0.839927 0
M  V30 2178 C 201.486 -1.11998 -1.27094 0
M  V30 2179 O 202.692 -1.3029 -1.24195 0
M  V30 2180 H 199.067 -0.694252 -0.288995 0
M  V30 2181 H 201.038 -2.96774 -0.311115 0
M  V30 2182 C 199.787 -2.78795 -2.07771 0
M  V30 2183 H 199.11 -3.59221 -1.755 0
M  V30 2184 H 200.55 -3.2417 -2.73295 0
M  V30 2185 C 199.009 -1.76193 -2.87155 0
M  V30 2186 O 199.539 -1.21909 -3.82755 0
M  V30 2187 N 197.745 -1.45991 -2.51267 0
M  V30 2188 H 197.292 -1.90325 -1.73592 0
M  V30 2189 H 197.25 -0.775844 -3.04677 0
M  V30 2190 N 201.022 0.148545 -1.56898 0
M  V30 2191 C 201.952 1.18524 -2.01182 0
M  V30 2192 C 202.933 1.4489 -0.891123 0
M  V30 2193 O 204.118 1.55836 -1.15882 0
M  V30 2194 C 201.248 2.51879 -2.39112 0
M  V30 2195 C 200.202 2.40038 -3.54353 0
M  V30 2196 C 199.528 3.78089 -3.78091 0
M  V30 2197 C 200.828 1.88577 -4.87069 0
M  V30 2198 H 202.522 0.817029 -2.88036 0
M  V30 2199 H 200.068 0.391575 -1.38574 0
M  V30 2200 H 202.021 3.24627 -2.68692 0
M  V30 2201 H 200.745 2.90532 -1.49193 0
M  V30 2202 H 199.404 1.69742 -3.24936 0
M  V30 2203 H 199.052 4.14175 -2.85426 0
M  V30 2204 H 198.752 3.71028 -4.55645 0
M  V30 2205 H 200.276 4.52387 -4.10095 0
M  V30 2206 H 201.69 2.51117 -5.15377 0
M  V30 2207 H 200.087 1.9241 -5.68417 0
M  V30 2208 H 201.157 0.84136 -4.77545 0
M  V30 2209 N 202.5 1.5196 0.417844 0
M  V30 2210 C 203.41 1.77554 1.53336 0
M  V30 2211 C 204.426 0.660655 1.6097 0
M  V30 2212 O 205.602 0.945099 1.77848 0
M  V30 2213 C 202.667 1.91291 2.89152 0
M  V30 2214 C 201.728 3.15183 2.91475 0
M  V30 2215 C 200.961 3.28256 4.20813 0
M  V30 2216 O 201.184 2.46798 5.14244 0
M  V30 2217 O 200.118 4.21356 4.29817 0
M  V30 2218 H 203.944 2.7222 1.34647 0
M  V30 2219 H 201.529 1.36698 0.602828 0
M  V30 2220 H 203.411 2.02199 3.69721 0
M  V30 2221 H 202.086 0.998129 3.07927 0
M  V30 2222 H 200.993 3.09739 2.09791 0
M  V30 2223 H 202.326 4.06414 2.77648 0
M  V30 2224 N 203.978 -0.674533 1.42435 0
M  V30 2225 C 204.941 -1.76986 1.45632 0
M  V30 2226 C 205.941 -1.5708 0.343871 0
M  V30 2227 O 207.131 -1.63367 0.604709 0
M  V30 2228 C 204.263 -3.15623 1.28822 0
M  V30 2229 H 205.456 -1.75539 2.43158 0
M  V30 2230 H 203.009 -0.884189 1.28887 0
M  V30 2231 H 203.744 -3.22696 0.322193 0
M  V30 2232 H 203.529 -3.31475 2.09444 0
M  V30 2233 H 205.019 -3.95537 1.33942 0
M  V30 2234 N 205.456 -1.28612 -0.910864 0
M  V30 2235 C 206.386 -1.15326 -2.03032 0
M  V30 2236 C 207.367 -0.0502924 -1.70026 0
M  V30 2237 O 208.552 -0.227797 -1.92859 0
M  V30 2238 C 205.682 -0.817343 -3.37545 0
M  V30 2239 C 204.636 -1.8754 -3.84724 0
M  V30 2240 C 203.962 -1.39305 -5.16235 0
M  V30 2241 C 205.262 -3.28244 -4.06267 0
M  V30 2242 H 206.956 -2.08975 -2.14406 0
M  V30 2243 H 204.502 -1.00612 -1.03021 0
M  V30 2244 H 206.455 -0.711151 -4.15356 0
M  V30 2245 H 205.179 0.154846 -3.26233 0
M  V30 2246 H 203.838 -1.97079 -3.09121 0
M  V30 2247 H 203.486 -0.409846 -5.01328 0
M  V30 2248 H 203.186 -2.10057 -5.48771 0
M  V30 2249 H 204.71 -1.30014 -5.96598 0
M  V30 2250 H 206.124 -3.21611 -4.74594 0
M  V30 2251 H 204.521 -3.96855 -4.5014 0
M  V30 2252 H 205.591 -3.72048 -3.10979 0
M  V30 2253 N 206.934 1.1197 -1.10907 0
M  V30 2254 C 207.844 2.21433 -0.774896 0
M  V30 2255 C 208.86 1.72478 0.229657 0
M  V30 2256 O 210.036 2.01288 0.0672008 0
M  V30 2257 C 207.101 3.4602 -0.216986 0
M  V30 2258 C 206.162 4.09791 -1.27944 0
M  V30 2259 C 205.395 5.28431 -0.748055 0
M  V30 2260 O 205.618 5.68823 0.423833 0
M  V30 2261 O 204.552 5.82644 -1.51027 0
M  V30 2262 H 208.378 2.5242 -1.68873 0
M  V30 2263 H 205.963 1.20399 -0.884555 0
M  V30 2264 H 207.845 4.21304 0.090059 0
M  V30 2265 H 206.52 3.16698 0.669633 0
M  V30 2266 H 205.427 3.36265 -1.63941 0
M  V30 2267 H 206.76 4.4328 -2.13925 0
M  V30 2268 N 208.412 0.89855 1.29475 0
M  V30 2269 C 209.322 0.379974 2.31502 0
M  V30 2270 C 210.338 -0.524695 1.659 0
M  V30 2271 O 211.514 -0.414551 1.97087 0
M  V30 2272 C 208.579 -0.385138 3.44554 0
M  V30 2273 C 207.64 0.550914 4.2575 0
M  V30 2274 C 206.873 -0.177778 5.33404 0
M  V30 2275 O 207.096 -1.40189 5.52904 0
M  V30 2276 O 206.03 0.479106 5.9999 0
M  V30 2277 H 209.856 1.22639 2.77837 0
M  V30 2278 H 207.441 0.662834 1.33891 0
M  V30 2279 H 209.323 -0.817841 4.13388 0
M  V30 2280 H 207.998 -1.20763 3.0033 0
M  V30 2281 H 206.905 1.03271 3.59564 0
M  V30 2282 H 208.238 1.33979 4.73614 0
M  V30 2283 N 209.89 -1.43072 0.660911 0
M  V30 2284 C 211.137 -2.01721 0.177445 0
M  V30 2285 C 211.465 -1.5218 -1.21126 0
M  V30 2286 O 210.72 -0.708659 -1.82419 0
M  V30 2287 C 211.019 -3.57103 0.145563 0
M  V30 2288 C 210.685 -4.26021 1.47705 0
M  V30 2289 C 209.347 -4.44563 1.84165 0
M  V30 2290 C 211.699 -4.64983 2.35458 0
M  V30 2291 C 209.027 -4.99334 3.0803 0
M  V30 2292 C 211.379 -5.21127 3.58622 0
M  V30 2293 C 210.043 -5.37884 3.95268 0
M  V30 2294 H 209.313 -0.73815 0.0649317 0
M  V30 2295 H 211.96 -1.71446 0.853144 0
M  V30 2296 H 210.265 -3.86965 -0.61361 0
M  V30 2297 H 211.962 -4.00248 -0.2455 0
M  V30 2298 H 208.552 -4.11939 1.18339 0
M  V30 2299 H 212.736 -4.50343 2.08579 0
M  V30 2300 H 207.992 -5.10493 3.36462 0
M  V30 2301 H 212.166 -5.50262 4.26831 0
M  V30 2302 H 209.793 -5.80089 4.91325 0
M  V30 2303 N 211.368 -0.403325 -1.52352 0
M  V30 2304 C 212.315 0.425011 -2.26853 0
M  V30 2305 C 213.285 1.04598 -1.29029 0
M  V30 2306 O 214.47 1.07135 -1.57882 0
M  V30 2307 C 211.61 1.53888 -3.08889 0
M  V30 2308 C 210.723 0.939396 -4.21663 0
M  V30 2309 C 209.858 2.02547 -4.91068 0
M  V30 2310 C 208.897 1.40263 -5.95813 0
M  V30 2311 N 208.034 2.4286 -6.58759 0
M  V30 2312 H 212.874 -0.21674 -2.97211 0
M  V30 2313 H 210.411 -0.118722 -1.4662 0
M  V30 2314 H 212.369 2.19558 -3.54753 0
M  V30 2315 H 210.999 2.15074 -2.40714 0
M  V30 2316 H 210.051 0.171898 -3.80011 0
M  V30 2317 H 211.363 0.44436 -4.96817 0
M  V30 2318 H 210.517 2.75958 -5.40308 0
M  V30 2319 H 209.256 2.55415 -4.15469 0
M  V30 2320 H 208.261 0.653833 -5.45898 0
M  V30 2321 H 209.486 0.881719 -6.73352 0
M  V30 2322 H 207.432 2.94871 -5.85992 0
M  V30 2323 H 207.349 1.98152 -7.2957 0
M  V30 2324 H 208.617 3.15858 -7.12639 0
M  V30 2325 N 212.846 1.57033 -0.133567 0
M  V30 2326 C 213.793 2.16074 0.811208 0
M  V30 2327 C 214.763 1.08979 1.2535 0
M  V30 2328 O 215.948 1.36958 1.32843 0
M  V30 2329 C 213.088 2.77595 2.05024 0
M  V30 2330 C 212.201 3.99042 1.65498 0
M  V30 2331 C 211.336 4.48603 2.84479 0
M  V30 2332 C 210.375 5.62547 2.41262 0
M  V30 2333 N 209.512 6.06787 3.53206 0
M  V30 2334 H 214.352 2.96477 0.300906 0
M  V30 2335 H 211.889 1.46462 0.136822 0
M  V30 2336 H 213.847 3.11402 2.77642 0
M  V30 2337 H 212.477 1.99859 2.53488 0
M  V30 2338 H 211.529 3.71302 0.826981 0
M  V30 2339 H 212.841 4.81629 1.29748 0
M  V30 2340 H 211.995 4.84395 3.65303 0
M  V30 2341 H 210.734 3.64995 3.23465 0
M  V30 2342 H 209.739 5.26345 1.58874 0
M  V30 2343 H 210.964 6.47931 2.03377 0
M  V30 2344 H 208.91 5.26117 3.91838 0
M  V30 2345 H 208.827 6.84266 3.21427 0
M  V30 2346 H 210.095 6.4722 4.34427 0
M  V30 2347 N 214.325 -0.140222 1.56975 0
M  V30 2348 C 215.255 -1.17456 2.01808 0
M  V30 2349 C 216.236 -1.44415 0.898794 0
M  V30 2350 O 217.421 -1.5522 1.16707 0
M  V30 2351 C 214.551 -2.50607 2.40444 0
M  V30 2352 C 213.505 -2.38155 3.55621 0
M  V30 2353 C 212.831 -3.76078 3.80091 0
M  V30 2354 C 214.131 -1.85991 4.88062 0
M  V30 2355 H 215.825 -0.801743 2.88466 0
M  V30 2356 H 213.371 -0.38422 1.38779 0
M  V30 2357 H 215.324 -3.23197 2.7041 0
M  V30 2358 H 214.048 -2.89737 1.50732 0
M  V30 2359 H 212.707 -1.68016 3.25832 0
M  V30 2360 H 212.355 -4.12656 2.87618 0
M  V30 2361 H 212.055 -3.68606 4.57606 0
M  V30 2362 H 213.579 -4.50206 4.12488 0
M  V30 2363 H 214.993 -2.4838 5.16701 0
M  V30 2364 H 213.39 -1.89393 5.6943 0
M  V30 2365 H 214.46 -0.816023 4.77984 0
M  V30 2366 N 215.803 -1.52179 -0.40978 0
M  V30 2367 C 217.049 -1.66453 -1.15851 0
M  V30 2368 C 217.382 -0.392972 -1.90182 0
M  V30 2369 O 216.657 0.608579 -1.84734 0
M  V30 2370 C 216.94 -2.88612 -2.15349 0
M  V30 2371 C 216.793 -4.25815 -1.44918 0
M  V30 2372 C 218.112 -3.06294 -3.16026 0
M  V30 2373 H 215.231 -0.60575 -0.419805 0
M  V30 2374 H 217.873 -1.84732 -0.444314 0
M  V30 2375 H 216.023 -2.73158 -2.76255 0
M  V30 2376 H 217.695 -4.52995 -0.871365 0
M  V30 2377 H 215.938 -4.27247 -0.751159 0
M  V30 2378 H 216.609 -5.07337 -2.17516 0
M  V30 2379 H 219.085 -3.20641 -2.65195 0
M  V30 2380 H 217.961 -3.93283 -3.8291 0
M  V30 2381 H 218.222 -2.19579 -3.83715 0
M  V30 2382 N 217.281 0.66697 -1.42791 0
M  V30 2383 C 218.213 1.7925 -1.42836 0
M  V30 2384 C 219.226 1.59496 -0.326333 0
M  V30 2385 O 220.415 1.6847 -0.589916 0
M  V30 2386 C 217.515 3.16476 -1.21229 0
M  V30 2387 C 216.688 3.63011 -2.44013 0
M  V30 2388 C 215.747 4.78993 -2.17834 0
M  V30 2389 O 214.773 4.89137 -2.91091 0
M  V30 2390 N 215.975 5.68248 -1.18635 0
M  V30 2391 H 218.74 1.79695 -2.39854 0
M  V30 2392 H 216.301 0.850338 -1.37771 0
M  V30 2393 H 218.293 3.91734 -1.01621 0
M  V30 2394 H 216.863 3.10884 -0.32706 0
M  V30 2395 H 216.083 2.78346 -2.79137 0
M  V30 2396 H 217.371 3.90845 -3.25757 0
M  V30 2397 H 216.769 5.62712 -0.580615 0
M  V30 2398 H 215.326 6.43285 -1.05013 0
M  V30 2399 N 218.759 1.29093 0.90403 0
M  V30 2400 C 219.709 1.10482 1.99443 0
M  V30 2401 C 220.693 0.0255401 1.6088 0
M  V30 2402 O 221.885 0.24677 1.75271 0
M  V30 2403 C 219.014 0.778882 3.34348 0
M  V30 2404 C 218.1 1.89749 3.79284 0
M  V30 2405 N 218.491 3.14045 3.96497 0
M  V30 2406 C 216.789 1.78955 4.08523 0
M  V30 2407 C 217.49 3.86996 4.34292 0
M  V30 2408 N 216.466 3.14909 4.43095 0
M  V30 2409 H 220.268 2.04778 2.10815 0
M  V30 2410 H 217.782 1.20155 1.09255 0
M  V30 2411 H 219.779 0.62661 4.12164 0
M  V30 2412 H 218.439 -0.156205 3.24324 0
M  V30 2413 H 219.45 3.49548 3.82148 0
M  V30 2414 H 216.127 0.926886 4.07081 0
M  V30 2415 H 217.517 4.93941 4.55491 0
M  V30 2416 N 220.237 -1.11381 1.11499 0
M  V30 2417 C 221.184 -2.17439 0.773887 0
M  V30 2418 C 222.154 -1.64132 -0.254899 0
M  V30 2419 O 223.339 -1.90345 -0.13168 0
M  V30 2420 C 220.479 -3.44373 0.223917 0
M  V30 2421 C 219.592 -4.1168 1.30934 0
M  V30 2422 C 218.727 -5.263 0.71984 0
M  V30 2423 C 217.766 -5.85493 1.78507 0
M  V30 2424 N 216.903 -6.91507 1.21502 0
M  V30 2425 H 221.743 -2.45962 1.68246 0
M  V30 2426 H 219.28 -1.20744 0.840191 0
M  V30 2427 H 221.238 -4.17047 -0.112921 0
M  V30 2428 H 219.868 -3.16232 -0.647851 0
M  V30 2429 H 218.92 -3.37073 1.76312 0
M  V30 2430 H 220.232 -4.51729 2.11524 0
M  V30 2431 H 219.386 -6.05785 0.333094 0
M  V30 2432 H 218.125 -4.87559 -0.117377 0
M  V30 2433 H 217.13 -5.04686 2.18111 0
M  V30 2434 H 218.355 -6.26301 2.62533 0
M  V30 2435 H 216.301 -6.54783 0.399455 0
M  V30 2436 H 216.218 -7.30214 1.95763 0
M  V30 2437 H 217.486 -7.74795 0.855181 0
M  V30 2438 N 221.715 -0.905404 -1.28997 0
M  V30 2439 C 222.963 -0.533192 -1.9494 0
M  V30 2440 C 223.284 0.924618 -1.71685 0
M  V30 2441 O 222.554 1.65268 -1.05183 0
M  V30 2442 H 221.134 -0.194194 -0.721317 0
M  V30 2443 H 223.796 -1.15294 -1.57141 0
M  V30 2444 H 222.892 -0.72059 -3.03667 0
M  V30 2445 N 223.193 1.4272 -0.668489 0
M  V30 2446 C 224.123 2.335 -0.000100175 0
M  V30 2447 C 225.104 1.50328 0.795964 0
M  V30 2448 O 226.289 1.78949 0.754385 0
M  V30 2449 C 223.419 3.33874 0.956302 0
M  V30 2450 C 222.373 4.27152 0.269278 0
M  V30 2451 C 221.699 5.17684 1.33818 0
M  V30 2452 C 222.999 5.15373 -0.847805 0
M  V30 2453 H 224.693 2.89639 -0.758244 0
M  V30 2454 H 222.239 1.39269 -0.366079 0
M  V30 2455 H 224.192 3.9629 1.43292 0
M  V30 2456 H 222.916 2.76025 1.74579 0
M  V30 2457 H 221.575 3.66123 -0.187042 0
M  V30 2458 H 221.223 4.56165 2.1195 0
M  V30 2459 H 220.923 5.80918 0.883659 0
M  V30 2460 H 222.447 5.82974 1.81586 0
M  V30 2461 H 223.861 5.7151 -0.452681 0
M  V30 2462 H 222.258 5.87407 -1.22773 0
M  V30 2463 H 223.328 4.5415 -1.69929 0
M  V30 2464 N 224.671 0.411399 1.52136 0
M  V30 2465 C 225.896 -0.165538 2.06738 0
M  V30 2466 C 226.321 -1.379 1.27926 0
M  V30 2467 O 225.679 -1.78628 0.310114 0
M  V30 2468 C 225.727 -0.492124 3.57226 0
M  V30 2469 O 224.831 -1.58276 3.80818 0
M  V30 2470 H 224.172 -0.0132132 0.663869 0
M  V30 2471 H 226.702 0.585253 1.96051 0
M  V30 2472 H 226.712 -0.750104 4.01045 0
M  V30 2473 H 225.387 0.394922 4.14021 0
M  V30 2474 H 223.964 -1.31677 3.48877 0
M  V30 2475 N 226.149 -1.5696 0.141893 0
M  V30 2476 C 227.059 -2.20066 -0.812905 0
M  V30 2477 C 228.075 -1.18344 -1.27557 0
M  V30 2478 O 229.251 -1.50902 -1.33381 0
M  V30 2479 C 226.316 -2.80583 -2.03652 0
M  V30 2480 C 225.377 -3.97414 -1.62359 0
M  V30 2481 C 224.61 -4.55036 -2.78887 0
M  V30 2482 O 224.833 -4.11538 -3.94959 0
M  V30 2483 O 223.767 -5.45376 -2.54653 0
M  V30 2484 H 227.593 -3.02157 -0.305746 0
M  V30 2485 H 225.178 -1.49159 -0.0848799 0
M  V30 2486 H 227.06 -3.19067 -2.75272 0
M  V30 2487 H 225.735 -2.01508 -2.5333 0
M  V30 2488 H 224.642 -3.63656 -0.877775 0
M  V30 2489 H 225.975 -4.77994 -1.17401 0
M  V30 2490 N 227.627 0.131896 -1.57047 0
M  V30 2491 C 228.537 1.1815 -2.02676 0
M  V30 2492 C 229.553 1.46113 -0.944824 0
M  V30 2493 O 230.729 1.57485 -1.25541 0
M  V30 2494 C 227.794 2.49139 -2.41103 0
M  V30 2495 C 226.855 2.28688 -3.63318 0
M  V30 2496 C 226.088 3.53431 -3.99903 0
M  V30 2497 O 226.311 4.60223 -3.36973 0
M  V30 2498 O 225.245 3.45198 -4.93074 0
M  V30 2499 H 229.071 0.824069 -2.92306 0
M  V30 2500 H 226.656 0.341745 -1.45439 0
M  V30 2501 H 228.538 3.26338 -2.66611 0
M  V30 2502 H 227.213 2.84382 -1.54624 0
M  V30 2503 H 226.12 1.4939 -3.42977 0
M  V30 2504 H 227.453 1.98355 -4.50462 0
M  V30 2505 N 229.106 1.52395 0.401703 0
M  V30 2506 C 230.383 1.57387 1.16141 0
M  V30 2507 C 230.763 0.359359 2.08019 0
M  V30 2508 O 230.111 -0.65326 2.18963 0
M  V30 2509 C 230.321 2.90631 1.93221 0
M  V30 2510 C 231.669 3.43904 2.49028 0
M  V30 2511 O 232.693 2.92421 2.03393 0
M  V30 2512 O 231.552 4.33823 3.32356 0
M  V30 2513 H 228.646 0.634262 0.530698 0
M  V30 2514 H 231.192 1.64725 0.407883 0
M  V30 2515 H 229.964 3.70473 1.25958 0
M  V30 2516 H 229.587 2.8662 2.75563 0
M  V30 2517 N 230.584 -0.659388 1.43143 0
M  V30 2518 C 231.833 -1.41518 1.43721 0
M  V30 2519 C 232.146 -1.95499 0.0628176 0
M  V30 2520 O 233.352 -2.71446 -0.0539683 0
M  V30 2521 C 231.808 -2.5608 2.52885 0
M  V30 2522 C 231.416 -2.08733 3.96402 0
M  V30 2523 C 233.16 -3.3349 2.62649 0
M  V30 2524 C 231.067 -3.20469 4.97045 0
M  V30 2525 H 229.997 -0.531705 0.534608 0
M  V30 2526 H 232.648 -0.712343 1.69109 0
M  V30 2527 H 231.03 -3.28805 2.20688 0
M  V30 2528 H 232.204 -1.43059 4.3803 0
M  V30 2529 H 230.519 -1.44219 3.90627 0
M  V30 2530 H 233.116 -4.16734 3.35017 0
M  V30 2531 H 233.459 -3.8111 1.67513 0
M  V30 2532 H 233.992 -2.67842 2.94118 0
M  V30 2533 H 230.731 -2.77824 5.93712 0
M  V30 2534 H 230.251 -3.84874 4.60034 0
M  V30 2535 H 231.93 -3.85698 5.19467 0
M  V30 2536 N 232.062 -1.29571 -0.897171 0
M  V30 2537 C 233.309 -1.17689 -1.6479 0
M  V30 2538 C 233.637 0.27107 -1.92602 0
M  V30 2539 O 232.892 1.21193 -1.53658 0
M  V30 2540 C 233.191 -1.9382 -3.00281 0
M  V30 2541 C 232.857 -3.43522 -2.92068 0
M  V30 2542 C 231.519 -3.84348 -2.89535 0
M  V30 2543 C 233.871 -4.38906 -2.81089 0
M  V30 2544 C 231.199 -5.18869 -2.73846 0
M  V30 2545 C 233.551 -5.73521 -2.66939 0
M  V30 2546 C 232.215 -6.13601 -2.62774 0
M  V30 2547 H 231.485 -0.430654 -0.603008 0
M  V30 2548 H 234.132 -1.60536 -1.04404 0
M  V30 2549 H 232.437 -1.4357 -3.64547 0
M  V30 2550 H 234.134 -1.82028 -3.57305 0
M  V30 2551 H 230.724 -3.11072 -2.94842 0
M  V30 2552 H 234.908 -4.08315 -2.82121 0
M  V30 2553 H 230.164 -5.4903 -2.69027 0
M  V30 2554 H 234.338 -6.47078 -2.57416 0
M  V30 2555 H 231.965 -7.17786 -2.50375 0
M  V30 2556 N 233.54 1.10788 -1.12088 0
M  V30 2557 C 234.473 2.16237 -0.729168 0
M  V30 2558 C 235.451 1.60207 0.277921 0
M  V30 2559 O 236.635 1.87707 0.172737 0
M  V30 2560 C 233.762 3.38609 -0.0786848 0
M  V30 2561 C 232.808 4.13322 -1.05201 0
M  V30 2562 S 233.641 4.69371 -2.57781 0
M  V30 2563 C 234.797 5.95058 -1.94053 0
M  V30 2564 H 235.03 2.4913 -1.62239 0
M  V30 2565 H 232.563 1.22519 -0.939603 0
M  V30 2566 H 234.521 4.09473 0.290254 0
M  V30 2567 H 233.182 3.03962 0.791593 0
M  V30 2568 H 232.375 5.01051 -0.544433 0
M  V30 2569 H 231.977 3.48251 -1.36371 0
M  V30 2570 H 234.269 6.65278 -1.28107 0
M  V30 2571 H 235.212 6.50472 -2.79807 0
M  V30 2572 H 235.62 5.46918 -1.39787 0
M  V30 2573 N 235.018 0.912232 1.28515 0
M  V30 2574 C 236.429 0.591352 1.77087 0
M  V30 2575 C 236.78 -0.8933 1.74684 0
M  V30 2576 O 235.905 -1.69876 1.34056 0
M  V30 2577 C 236.5 1.06668 3.2157 0
M  V30 2578 C 235.059 0.79675 3.67871 0
M  V30 2579 C 234.206 1.23427 2.48316 0
M  V30 2580 H 237.157 1.09365 1.15 0
M  V30 2581 H 237.178 0.407455 3.78312 0
M  V30 2582 H 236.69 2.14726 3.23287 0
M  V30 2583 H 234.791 -0.270679 3.71616 0
M  V30 2584 H 234.904 1.40343 4.58084 0
M  V30 2585 H 233.268 0.653036 2.46186 0
M  V30 2586 H 234.051 2.32316 2.52753 0
M  V30 2587 N 236.496 -1.42363 0.676048 0
M  V30 2588 C 237.426 -2.33497 0.0124832 0
M  V30 2589 C 238.407 -1.50748 -0.787981 0
M  V30 2590 O 239.592 -1.79346 -0.744884 0
M  V30 2591 C 236.722 -3.34377 -0.938582 0
M  V30 2592 C 235.676 -4.27289 -0.246622 0
M  V30 2593 C 235.002 -5.18386 -1.31071 0
M  V30 2594 C 236.302 -5.14916 0.875125 0
M  V30 2595 H 237.996 -2.89233 0.773593 0
M  V30 2596 H 235.542 -1.39073 0.37346 0
M  V30 2597 H 237.495 -3.97044 -1.41188 0
M  V30 2598 H 236.219 -2.76947 -1.73113 0
M  V30 2599 H 234.878 -3.66018 0.206456 0
M  V30 2600 H 234.526 -4.57282 -2.09528 0
M  V30 2601 H 234.226 -5.81378 -0.852839 0
M  V30 2602 H 235.75 -5.83929 -1.78492 0
M  V30 2603 H 237.164 -5.71262 0.482983 0
M  V30 2604 H 235.561 -5.86747 1.25887 0
M  V30 2605 H 236.631 -4.53242 1.72335 0
M  V30 2606 N 237.974 -0.419461 -1.51915 0
M  V30 2607 C 238.906 0.43646 -2.25006 0
M  V30 2608 C 239.919 1.00149 -1.28351 0
M  V30 2609 O 241.108 0.898674 -1.54227 0
M  V30 2610 C 238.208 1.6206 -2.9764 0
M  V30 2611 C 237.381 1.17763 -4.21249 0
M  V30 2612 C 236.44 2.22985 -4.76617 0
M  V30 2613 O 235.466 1.83151 -5.38929 0
M  V30 2614 N 236.668 3.55271 -4.59089 0
M  V30 2615 H 239.433 -0.18989 -2.99098 0
M  V30 2616 H 236.994 -0.247386 -1.59999 0
M  V30 2617 H 238.986 2.32038 -3.31573 0
M  V30 2618 H 237.556 2.15266 -2.2667 0
M  V30 2619 H 236.776 0.305582 -3.93014 0
M  V30 2620 H 238.064 0.858781 -5.015 0
M  V30 2621 H 237.462 3.90377 -4.09417 0
M  V30 2622 H 236.019 4.21195 -4.97432 0
M  V30 2623 N 239.452 1.56882 -0.150215 0
M  V30 2624 C 240.68 2.00593 0.506948 0
M  V30 2625 C 241.095 1.03033 1.58208 0
M  V30 2626 O 240.452 0.0278396 1.82479 0
M  V30 2627 C 240.503 3.44209 1.10465 0
M  V30 2628 O 240.224 4.3804 0.0724636 0
M  V30 2629 C 241.725 4.03214 1.84211 0
M  V30 2630 H 238.945 0.65795 0.13169 0
M  V30 2631 H 241.489 2.03018 -0.245743 0
M  V30 2632 H 239.644 3.42625 1.80795 0
M  V30 2633 H 240.058 5.22007 0.510793 0
M  V30 2634 H 241.532 5.0569 2.21318 0
M  V30 2635 H 242.009 3.44107 2.72923 0
M  V30 2636 H 242.615 4.08437 1.18572 0
M  V30 2637 N 240.93 -0.123565 1.57115 0
M  V30 2638 C 242.178 -0.83051 1.84247 0
M  V30 2639 C 242.499 -1.80629 0.73471 0
M  V30 2640 O 241.769 -1.94403 -0.241688 0
M  V30 2641 H 240.349 -0.309694 0.679778 0
M  V30 2642 H 243.011 -0.111976 1.94578 0
M  V30 2643 H 242.107 -1.37852 2.80006 0
M  V30 2644 N 242.408 -1.52605 -0.393616 0
M  V30 2645 C 243.633 -1.71592 -1.16495 0
M  V30 2646 C 244.058 -0.43133 -1.83088 0
M  V30 2647 O 243.416 0.612523 -1.7064 0
M  V30 2648 C 243.464 -2.86318 -2.19213 0
M  V30 2649 O 242.568 -2.52969 -3.257 0
M  V30 2650 H 241.909 -0.570734 -0.33935 0
M  V30 2651 H 244.439 -1.99377 -0.459324 0
M  V30 2652 H 244.449 -3.1168 -2.63286 0
M  V30 2653 H 243.124 -3.79511 -1.7013 0
M  V30 2654 H 241.701 -2.38332 -2.86797 0
M  V30 2655 N 243.887 0.651787 -1.4349 0
M  V30 2656 C 245.127 1.42345 -1.46688 0
M  V30 2657 C 245.491 1.91793 -0.0891023 0
M  V30 2658 O 246.692 2.688 0.00423594 0
M  V30 2659 C 244.963 2.57221 -2.48137 0
M  V30 2660 S 246.522 3.45725 -2.70221 0
M  V30 2661 H 243.34 0.485878 -0.51908 0
M  V30 2662 H 245.942 0.756578 -1.80267 0
M  V30 2663 H 244.646 2.1917 -3.46976 0
M  V30 2664 H 244.177 3.28757 -2.16061 0
M  V30 2665 H 246.192 4.53996 -2.00255 0
M  V30 2666 N 245.365 1.30045 0.890287 0
M  V30 2667 C 246.611 1.18737 1.64406 0
M  V30 2668 C 246.944 -0.258525 1.92472 0
M  V30 2669 O 246.219 -1.18562 1.54186 0
M  V30 2670 C 246.502 2.01087 2.98724 0
M  V30 2671 C 246.355 3.53867 2.77665 0
M  V30 2672 C 247.674 1.84457 3.9958 0
M  V30 2673 H 244.793 0.432698 0.596608 0
M  V30 2674 H 247.435 1.5962 1.0306 0
M  V30 2675 H 245.585 1.66349 3.51084 0
M  V30 2676 H 247.257 3.98637 2.32133 0
M  V30 2677 H 245.5 3.78318 2.12269 0
M  V30 2678 H 246.171 4.06772 3.7315 0
M  V30 2679 H 248.647 2.14817 3.56361 0
M  V30 2680 H 247.523 2.44411 4.91482 0
M  V30 2681 H 247.784 0.802276 4.3476 0
M  V30 2682 N 246.843 -1.10192 1.12674 0
M  V30 2683 C 247.773 -2.18652 0.819362 0
M  V30 2684 C 248.754 -1.68698 -0.217915 0
M  V30 2685 O 249.939 -1.94041 -0.0785581 0
M  V30 2686 C 247.069 -3.46202 0.27594 0
M  V30 2687 C 246.023 -4.09444 1.24656 0
M  V30 2688 C 245.349 -5.31725 0.563258 0
M  V30 2689 C 246.649 -4.52863 2.60217 0
M  V30 2690 H 248.343 -2.44622 1.72628 0
M  V30 2691 H 245.889 -1.17571 0.831451 0
M  V30 2692 H 247.842 -4.21372 0.0486149 0
M  V30 2693 H 246.566 -3.1973 -0.666331 0
M  V30 2694 H 245.225 -3.36284 1.45974 0
M  V30 2695 H 244.873 -5.0153 -0.384235 0
M  V30 2696 H 244.573 -5.74991 1.21075 0
M  V30 2697 H 246.097 -6.09624 0.34503 0
M  V30 2698 H 247.511 -5.19294 2.42913 0
M  V30 2699 H 245.908 -5.06986 3.21068 0
M  V30 2700 H 246.978 -3.65656 3.18471 0
M  V30 2701 N 248.321 -0.919034 -1.28029 0
M  V30 2702 C 249.231 -0.416756 -2.30869 0
M  V30 2703 C 250.247 0.498235 -1.66714 0
M  V30 2704 O 251.423 0.383144 -1.97722 0
M  V30 2705 C 248.488 0.330274 -3.45123 0
M  V30 2706 C 247.549 -0.618578 -4.2482 0
M  V30 2707 C 246.782 0.0928959 -5.33619 0
M  V30 2708 O 247.005 1.31375 -5.55065 0
M  V30 2709 O 245.939 -0.574499 -5.99152 0
M  V30 2710 H 249.765 -1.27043 -2.75851 0
M  V30 2711 H 247.35 -0.684052 -1.3282 0
M  V30 2712 H 249.232 0.751972 -4.14636 0
M  V30 2713 H 247.907 1.1597 -3.02213 0
M  V30 2714 H 246.814 -1.08978 -3.57875 0
M  V30 2715 H 248.147 -1.41497 -4.71423 0
M  V30 2716 N 249.799 1.42003 -0.683588 0
M  V30 2717 C 250.749 2.27997 0.0121992 0
M  V30 2718 C 251.733 1.4156 0.764822 0
M  V30 2719 O 252.925 1.64935 0.642287 0
M  V30 2720 C 250.054 3.29706 0.956482 0
M  V30 2721 C 249.14 4.23625 0.200739 0
M  V30 2722 N 249.531 4.99448 -0.799087 0
M  V30 2723 C 247.829 4.43845 0.437937 0
M  V30 2724 C 248.53 5.68102 -1.25041 0
M  V30 2725 N 247.506 5.40511 -0.578648 0
M  V30 2726 H 251.308 2.84048 -0.754564 0
M  V30 2727 H 248.822 1.54071 -0.513398 0
M  V30 2728 H 250.819 3.90124 1.47 0
M  V30 2729 H 249.479 2.75216 1.72297 0
M  V30 2730 H 250.49 5.04303 -1.17893 0
M  V30 2731 H 247.167 4.00382 1.18325 0
M  V30 2732 H 248.557 6.38913 -2.07942 0
M  V30 2733 O 251.316 0.569597 1.51122 0
M  V30 2734 H 252.007 0.0705798 1.93571 0
M  V30 END ATOM
M  V30 BEGIN BOND
M  V30 END BOND
M  V30 END CTAB
M  END
$$$$
