drugbank_target|P29320 Ephrin type-A receptor 3 (DB12010)
 OpenBabel12092121153D

  0  0  0     0  0            999 V3000
M  V30 BEGIN CTAB
M  V30 COUNTS 15387 15559 0 0 0
M  V30 BEGIN ATOM
M  V30 1 H -0.908 1.98254 -0.117106 0
M  V30 2 N 0 1.576 0 0
M  V30 3 C 0.933 2.03868 1.02534 0
M  V30 4 C 1.911 0.928543 1.3348 0
M  V30 5 O 3.095 1.19667 1.45644 0
M  V30 6 C 0.222 2.43627 2.35294 0
M  V30 7 C -0.732 3.65373 2.2001 0
M  V30 8 S 0.101 5.13292 1.52614 0
M  V30 9 C 1.257 5.56322 2.86805 0
M  V30 10 H 1.49 2.90518 0.631377 0
M  V30 11 H -0.977 1.52953 0.210867 0
M  V30 12 H 0.981 2.67203 3.11629 0
M  V30 13 H -0.358 1.57376 2.7183 0
M  V30 14 H -1.165 3.90944 3.18086 0
M  V30 15 H -1.563 3.418 1.51819 0
M  V30 16 H 0.729 5.58782 3.83104 0
M  V30 17 H 1.672 6.56266 2.65933 0
M  V30 18 H 2.08 4.83886 2.90714 0
M  V30 19 N 1.4781 -0.272755 1.55222 0
M  V30 20 C 2.7551 -1.02562 1.66555 0
M  V30 21 C 3.1351 -2.04282 0.532189 0
M  V30 22 O 2.4831 -2.23662 -0.467717 0
M  V30 23 C 2.6931 -1.6822 3.05782 0
M  V30 24 C 4.0411 -2.19373 3.63539 0
M  V30 25 O 5.0651 -1.78206 3.08417 0
M  V30 26 O 3.9241 -2.94883 4.60115 0
M  V30 27 H 1.0181 -0.475755 0.676451 0
M  V30 28 H 3.5641 -0.268593 1.67561 0
M  V30 29 H 2.3361 -0.945112 3.79715 0
M  V30 30 H 1.9591 -2.50609 3.08676 0
M  V30 31 N 2.9562 -1.48159 -0.537278 0
M  V30 32 C 4.1962 -1.57397 -1.30405 0
M  V30 33 C 4.5602 -0.239202 -1.90504 0
M  V30 34 O 5.7612 -0.206528 -2.68005 0
M  V30 35 C 4.0322 -2.6754 -2.36974 0
M  V30 36 S 5.5912 -2.96496 -3.23475 0
M  V30 37 H 2.4092 -0.555577 -0.443684 0
M  V30 38 H 5.0112 -1.85644 -0.612912 0
M  V30 39 H 3.7152 -3.63092 -1.91291 0
M  V30 40 H 3.2462 -2.41172 -3.10805 0
M  V30 41 H 5.2612 -2.35234 -4.36897 0
M  V30 42 N 4.4343 0.785586 -1.36625 0
M  V30 43 C 5.3663 1.90711 -1.2713 0
M  V30 44 C 6.3793 1.61688 -0.189986 0
M  V30 45 O 7.5683 1.72864 -0.445014 0
M  V30 46 C 4.6683 3.25611 -0.939713 0
M  V30 47 C 3.8413 3.82385 -2.12369 0
M  V30 48 C 2.9003 4.95732 -1.76456 0
M  V30 49 O 1.9263 5.12047 -2.48589 0
M  V30 50 N 3.1283 5.76258 -0.700492 0
M  V30 51 H 5.8933 1.99376 -2.23762 0
M  V30 52 H 3.4543 0.964041 -1.30069 0
M  V30 53 H 5.4463 3.98937 -0.680554 0
M  V30 54 H 4.0163 3.12538 -0.0624074 0
M  V30 55 H 3.2363 3.01001 -2.54543 0
M  V30 56 H 4.5243 4.17047 -2.9146 0
M  V30 57 H 3.9223 5.65609 -0.101624 0
M  V30 58 H 2.4793 6.4987 -0.501165 0
M  V30 59 N 5.9124 1.20967 1.01018 0
M  V30 60 C 6.8424 0.988272 2.11555 0
M  V30 61 C 7.8234 -0.0849778 1.69888 0
M  V30 62 O 9.0084 0.0738202 1.9406 0
M  V30 63 C 6.1384 0.546528 3.42973 0
M  V30 64 C 5.0924 1.56375 3.9841 0
M  V30 65 C 4.4184 0.97842 5.25672 0
M  V30 66 C 5.7184 2.94922 4.31066 0
M  V30 67 H 7.4124 1.91276 2.30334 0
M  V30 68 H 4.9584 0.921073 1.1069 0
M  V30 69 H 6.9114 0.378839 4.19694 0
M  V30 70 H 5.6354 -0.413598 3.23971 0
M  V30 71 H 4.2944 1.71891 3.23804 0
M  V30 72 H 3.9424 0.0101688 5.02999 0
M  V30 73 H 3.6424 1.65784 5.63728 0
M  V30 74 H 5.1664 0.821939 6.05043 0
M  V30 75 H 6.5804 2.8288 4.9865 0
M  V30 76 H 4.9774 3.5983 4.80253 0
M  V30 77 H 6.0474 3.4616 3.39561 0
M  V30 78 N 7.3905 -1.2043 1.01659 0
M  V30 79 C 8.6155 -1.94318 0.724942 0
M  V30 80 C 9.0405 -1.74266 -0.708034 0
M  V30 81 O 8.3985 -1.03694 -1.48719 0
M  V30 82 C 8.4465 -3.44486 1.06591 0
M  V30 83 O 7.5505 -4.12017 0.177599 0
M  V30 84 H 6.8915 -0.60708 0.26898 0
M  V30 85 H 9.4215 -1.52861 1.35995 0
M  V30 86 H 9.4315 -3.95106 1.01762 0
M  V30 87 H 8.1065 -3.58404 2.10997 0
M  V30 88 H 6.6835 -3.71821 0.283421 0
M  V30 89 N 8.8686 -0.792821 -1.36206 0
M  V30 90 C 10.1176 -0.363353 -1.984 0
M  V30 91 C 10.4306 1.07172 -1.63626 0
M  V30 92 O 11.6366 1.60362 -2.19081 0
M  V30 93 C 10.0926 -0.59872 -3.54885 0
M  V30 94 C 9.7006 -2.04543 -3.9858 0
M  V30 95 C 11.4446 -0.233926 -4.23855 0
M  V30 96 C 9.3516 -2.22727 -5.47856 0
M  V30 97 H 8.2816 -0.13212 -0.742334 0
M  V30 98 H 10.9326 -0.974935 -1.55458 0
M  V30 99 H 9.3146 0.0826222 -3.95914 0
M  V30 100 H 10.4886 -2.76345 -3.68741 0
M  V30 101 H 8.8036 -2.36879 -3.42458 0
M  V30 102 H 11.4006 -0.348027 -5.33566 0
M  V30 103 H 11.7436 0.818351 -4.08177 0
M  V30 104 H 12.2766 -0.868639 -3.882 0
M  V30 105 H 9.0156 -3.2635 -5.68486 0
M  V30 106 H 8.5356 -1.55434 -5.7931 0
M  V30 107 H 10.2146 -2.03607 -6.14128 0
M  V30 108 N 10.3467 1.47872 -0.545128 0
M  V30 109 C 11.2767 2.32661 0.197793 0
M  V30 110 C 12.2577 1.43041 0.920504 0
M  V30 111 O 13.4427 1.71912 0.90333 0
M  V30 112 C 10.5727 3.24569 1.23582 0
M  V30 113 C 9.5267 4.23333 0.630323 0
M  V30 114 C 8.8527 5.0448 1.77211 0
M  V30 115 C 10.1527 5.20704 -0.407974 0
M  V30 116 H 11.8467 2.95024 -0.510045 0
M  V30 117 H 9.3927 1.4187 -0.246731 0
M  V30 118 H 11.3457 3.8272 1.76362 0
M  V30 119 H 10.0697 2.60236 1.97344 0
M  V30 120 H 8.7287 3.6639 0.123922 0
M  V30 121 H 8.3767 4.36561 2.49847 0
M  V30 122 H 8.0767 5.71339 1.37281 0
M  V30 123 H 9.6007 5.65487 2.3034 0
M  V30 124 H 11.0147 5.7329 0.033305 0
M  V30 125 H 9.4117 5.95699 -0.725486 0
M  V30 126 H 10.4817 4.66917 -1.30828 0
M  V30 127 N 11.8248 0.280983 1.55075 0
M  V30 128 C 12.7548 -0.597469 2.25727 0
M  V30 129 C 13.7358 -1.15417 1.24952 0
M  V30 130 O 14.9208 -1.18722 1.53684 0
M  V30 131 C 12.0508 -1.7789 2.98283 0
M  V30 132 C 11.0048 -1.35347 4.06036 0
M  V30 133 C 10.3308 -2.61846 4.66198 0
M  V30 134 C 11.6308 -0.499354 5.19907 0
M  V30 135 H 13.3248 -0.00824265 2.99399 0
M  V30 136 H 10.8708 -0.0025244 1.44 0
M  V30 137 H 12.8238 -2.39937 3.46422 0
M  V30 138 H 11.5478 -2.39405 2.22155 0
M  V30 139 H 10.2068 -0.756156 3.58717 0
M  V30 140 H 9.8548 -3.21632 3.86732 0
M  V30 141 H 9.5548 -2.3409 5.38958 0
M  V30 142 H 11.0788 -3.24732 5.1709 0
M  V30 143 H 12.4928 -1.02498 5.64063 0
M  V30 144 H 10.8898 -0.316424 5.99265 0
M  V30 145 H 11.9598 0.480459 4.82514 0
M  V30 146 N 13.3029 -1.57598 0.00835791 0
M  V30 147 C 14.2329 -2.1198 -0.979113 0
M  V30 148 C 15.2139 -1.03091 -1.35301 0
M  V30 149 O 16.3989 -1.30818 -1.43528 0
M  V30 150 C 13.5289 -2.62995 -2.26828 0
M  V30 151 C 12.4829 -3.76485 -2.03576 0
M  V30 152 C 11.8089 -4.13846 -3.38579 0
M  V30 153 C 13.1089 -5.0342 -1.39161 0
M  V30 154 H 14.8029 -2.94738 -0.526281 0
M  V30 155 H 12.3489 -1.41783 -0.251704 0
M  V30 156 H 14.3019 -2.99669 -2.96271 0
M  V30 157 H 13.0259 -1.7737 -2.7424 0
M  V30 158 H 11.6849 -3.40217 -1.36557 0
M  V30 159 H 11.3329 -3.25232 -3.83709 0
M  V30 160 H 11.0329 -4.90312 -3.23834 0
M  V30 161 H 12.5569 -4.53086 -4.09323 0
M  V30 162 H 13.9709 -5.37812 -1.98573 0
M  V30 163 H 12.3679 -5.84746 -1.34878 0
M  V30 164 H 13.4379 -4.83548 -0.361868 0
M  V30 165 N 14.781 0.264519 -1.55364 0
M  V30 166 C 15.711 1.33121 -1.91836 0
M  V30 167 C 16.692 1.51101 -0.781192 0
M  V30 168 O 17.877 1.64003 -1.04003 0
M  V30 169 C 15.007 2.68921 -2.19769 0
M  V30 170 C 13.961 2.65661 -3.35571 0
M  V30 171 C 13.287 4.05093 -3.49004 0
M  V30 172 C 14.587 2.24187 -4.71739 0
M  V30 173 H 16.281 1.02844 -2.81182 0
M  V30 174 H 13.827 0.493286 -1.35287 0
M  V30 175 H 15.78 3.43663 -2.43872 0
M  V30 176 H 14.504 3.00799 -1.27231 0
M  V30 177 H 13.163 1.93377 -3.1145 0
M  V30 178 H 12.811 4.34206 -2.53917 0
M  V30 179 H 12.511 4.03804 -4.26868 0
M  V30 180 H 14.035 4.81561 -3.75408 0
M  V30 181 H 15.449 2.88654 -4.9533 0
M  V30 182 H 13.846 2.34044 -5.52579 0
M  V30 183 H 14.916 1.19327 -4.69988 0
M  V30 184 N 16.2591 1.48442 0.529413 0
M  V30 185 C 17.4841 1.60406 1.31471 0
M  V30 186 C 17.9091 0.264738 1.86228 0
M  V30 187 O 17.2671 -0.763668 1.64432 0
M  V30 188 C 17.3151 2.65419 2.44101 0
M  V30 189 O 16.4191 2.22618 3.47153 0
M  V30 190 H 15.7601 0.537863 0.389357 0
M  V30 191 H 18.2901 1.94432 0.636965 0
M  V30 192 H 18.3001 2.86709 2.90279 0
M  V30 193 H 16.9751 3.62652 2.03608 0
M  V30 194 H 15.5521 2.11543 3.0709 0
M  V30 195 N 17.7372 -0.778329 1.37039 0
M  V30 196 C 18.9772 -1.54973 1.33276 0
M  V30 197 C 19.3412 -1.91816 -0.0839376 0
M  V30 198 O 20.5422 -2.6767 -0.246228 0
M  V30 199 C 18.8132 -2.78517 2.23971 0
M  V30 200 S 20.3722 -3.6865 2.37997 0
M  V30 201 H 17.1902 -0.530639 0.473226 0
M  V30 202 H 19.7922 -0.915806 1.72723 0
M  V30 203 H 18.4962 -2.4952 3.25835 0
M  V30 204 H 18.0272 -3.46875 1.85584 0
M  V30 205 H 20.0422 -4.70182 1.58567 0
M  V30 206 N 19.2153 -1.21501 -1.00376 0
M  V30 207 C 20.4403 -1.05977 -1.78279 0
M  V30 208 C 20.8653 0.385994 -1.84097 0
M  V30 209 O 20.2233 1.27849 -1.28547 0
M  V30 210 C 20.2713 -1.66302 -3.19963 0
M  V30 211 O 19.3753 -0.909333 -4.0225 0
M  V30 212 H 18.7163 -0.372906 -0.549397 0
M  V30 213 H 21.2463 -1.6107 -1.26165 0
M  V30 214 H 21.2563 -1.70574 -3.70632 0
M  V30 215 H 19.9313 -2.71515 -3.15043 0
M  V30 216 H 18.5083 -0.941795 -3.60811 0
M  V30 217 N 20.6934 1.19889 -1.02296 0
M  V30 218 C 21.9394 1.89701 -0.717033 0
M  V30 219 C 22.2724 1.7905 0.751989 0
M  V30 220 O 21.5474 1.17891 1.547 0
M  V30 221 C 21.8304 3.40858 -1.16136 0
M  V30 222 C 21.6834 3.60411 -2.69117 0
M  V30 223 C 23.0024 4.33876 -0.737549 0
M  V30 224 H 20.1214 0.688874 -0.261957 0
M  V30 225 H 22.7634 1.41154 -1.27183 0
M  V30 226 H 20.9134 3.82335 -0.689342 0
M  V30 227 H 22.5854 3.28145 -3.2422 0
M  V30 228 H 20.8284 3.03665 -3.0979 0
M  V30 229 H 21.4994 4.66396 -2.95261 0
M  V30 230 H 23.9754 4.00081 -1.14344 0
M  V30 231 H 22.8514 5.38242 -1.0764 0
M  V30 232 H 23.1124 4.40628 0.360436 0
M  V30 233 N 22.1715 0.800033 1.35784 0
M  V30 234 C 23.1015 0.220184 2.3246 0
M  V30 235 C 24.0825 -0.65073 1.57161 0
M  V30 236 O 25.2675 -0.582359 1.85263 0
M  V30 237 C 22.3975 -0.637353 3.41402 0
M  V30 238 C 21.3515 0.134531 4.27789 0
M  V30 239 C 20.6775 -0.844285 5.27992 0
M  V30 240 C 21.9775 1.32979 5.05088 0
M  V30 241 H 23.6715 1.02787 2.81203 0
M  V30 242 H 21.2175 0.495717 1.35199 0
M  V30 243 H 23.1705 -1.05302 4.08031 0
M  V30 244 H 21.8945 -1.47785 2.91251 0
M  V30 245 H 20.5535 0.531296 3.6273 0
M  V30 246 H 20.2015 -1.68011 4.74111 0
M  V30 247 H 19.9015 -0.332184 5.8666 0
M  V30 248 H 21.4255 -1.2583 5.97494 0
M  V30 249 H 22.8395 0.98934 5.64699 0
M  V30 250 H 21.2365 1.77593 5.7322 0
M  V30 251 H 22.3065 2.11978 4.36111 0
M  V30 252 N 23.6496 -1.47581 0.552962 0
M  V30 253 C 24.9266 -1.95563 -0.0381515 0
M  V30 254 C 25.3066 -1.49552 -1.48988 0
M  V30 255 O 24.6546 -0.732414 -2.16444 0
M  V30 256 C 24.8646 -3.48848 0.102919 0
M  V30 257 C 26.2126 -4.24577 -0.0446082 0
M  V30 258 O 27.2366 -3.56187 0.0302548 0
M  V30 259 O 26.0956 -5.46116 -0.204923 0
M  V30 260 H 23.1896 -0.824321 -0.0665067 0
M  V30 261 H 25.7356 -1.58001 0.619186 0
M  V30 262 H 24.5076 -3.75129 1.11328 0
M  V30 263 H 24.1306 -3.93165 -0.592224 0
M  V30 264 N 25.1277 -0.289203 -1.54924 0
M  V30 265 C 26.3527 0.329299 -2.04769 0
M  V30 266 C 26.7777 1.4763 -1.16564 0
M  V30 267 O 26.1357 1.80527 -0.167186 0
M  V30 268 C 26.1837 0.774438 -3.52186 0
M  V30 269 O 25.2877 1.88038 -3.67036 0
M  V30 270 H 24.6287 0.0659259 -0.660719 0
M  V30 271 H 27.1587 -0.42761 -2.00082 0
M  V30 272 H 27.1687 1.06642 -3.93816 0
M  V30 273 H 25.8437 -0.0646707 -4.1585 0
M  V30 274 H 24.4207 1.58985 -3.3731 0
M  V30 275 N 26.6058 1.57591 -0.0167156 0
M  V30 276 C 27.8528 1.91283 0.664597 0
M  V30 277 C 28.1808 0.891949 1.72842 0
M  V30 278 O 27.4358 -0.100931 1.9544 0
M  V30 279 C 27.7348 3.3172 1.33029 0
M  V30 280 C 27.4008 4.4914 0.398047 0
M  V30 281 C 26.0628 4.80992 0.141421 0
M  V30 282 C 28.4148 5.20634 -0.242825 0
M  V30 283 C 25.7428 5.81703 -0.764092 0
M  V30 284 C 28.0948 6.22311 -1.13632 0
M  V30 285 C 26.7588 6.52611 -1.40196 0
M  V30 286 H 26.0288 0.699956 0.243193 0
M  V30 287 H 28.6758 1.9135 -0.0758267 0
M  V30 288 H 26.9808 3.27856 2.14517 0
M  V30 289 H 28.6778 3.55055 1.86379 0
M  V30 290 H 25.2678 4.24262 0.608238 0
M  V30 291 H 29.4518 4.96267 -0.0576019 0
M  V30 292 H 24.7078 6.03532 -0.977732 0
M  V30 293 H 28.8818 6.76834 -1.63917 0
M  V30 294 H 26.5088 7.30467 -2.10529 0
M  V30 295 N 28.0839 -0.256276 1.55502 0
M  V30 296 C 29.3319 -0.983672 1.76545 0
M  V30 297 C 29.6529 -1.86206 0.578982 0
M  V30 298 O 28.9229 -1.91656 -0.405577 0
M  V30 299 H 27.5029 -0.366191 0.651086 0
M  V30 300 H 30.1649 -0.276479 1.92929 0
M  V30 301 H 29.2609 -1.61087 2.67315 0
M  V30 302 N 29.562 -1.4872 -0.521534 0
M  V30 303 C 30.472 -1.66569 -1.65203 0
M  V30 304 C 31.488 -0.548197 -1.65139 0
M  V30 305 O 32.664 -0.820339 -1.83936 0
M  V30 306 C 29.729 -1.70917 -3.01642 0
M  V30 307 C 28.79 -2.94356 -3.12495 0
M  V30 308 C 28.023 -2.98487 -4.42426 0
M  V30 309 O 28.246 -2.10786 -5.30024 0
M  V30 310 O 27.18 -3.90746 -4.57822 0
M  V30 311 H 31.006 -2.62298 -1.5308 0
M  V30 312 H 28.591 -1.3222 -0.695565 0
M  V30 313 H 30.473 -1.7625 -3.82771 0
M  V30 314 H 29.148 -0.783633 -3.14071 0
M  V30 315 H 28.055 -2.94552 -2.3063 0
M  V30 316 H 29.388 -3.86322 -3.04986 0
M  V30 317 N 31.0401 0.771051 -1.3745 0
M  V30 318 C 31.9701 1.89827 -1.3597 0
M  V30 319 C 32.9511 1.68562 -0.228216 0
M  V30 320 O 34.1361 1.8941 -0.428675 0
M  V30 321 C 31.2661 3.2712 -1.16662 0
M  V30 322 C 30.2201 3.6295 -2.2683 0
M  V30 323 C 29.5461 4.98791 -1.92644 0
M  V30 324 C 30.8461 3.69627 -3.69017 0
M  V30 325 H 32.5401 1.91323 -2.30295 0
M  V30 326 H 30.0861 0.919082 -1.10855 0
M  V30 327 H 32.0391 4.05615 -1.14256 0
M  V30 328 H 30.7631 3.26059 -0.187926 0
M  V30 329 H 29.4221 2.86763 -2.28392 0
M  V30 330 H 29.0701 4.94271 -0.933021 0
M  V30 331 H 28.7701 5.23733 -2.66416 0
M  V30 332 H 30.2941 5.79685 -1.91826 0
M  V30 333 H 31.7081 4.38273 -3.69581 0
M  V30 334 H 30.1051 4.06067 -4.41848 0
M  V30 335 H 31.1751 2.70273 -4.02592 0
M  V30 336 N 32.5182 1.22032 0.997298 0
M  V30 337 C 33.7672 1.03637 1.73038 0
M  V30 338 C 34.0802 -0.429475 1.90827 0
M  V30 339 O 35.2862 -0.732995 2.61418 0
M  V30 340 C 33.7422 1.80582 3.11317 0
M  V30 341 C 33.3502 3.31387 3.01474 0
M  V30 342 C 35.0942 1.70621 3.88701 0
M  V30 343 C 33.0012 4.00791 4.3488 0
M  V30 344 H 31.9312 0.384179 0.648785 0
M  V30 345 H 34.5822 1.4584 1.11368 0
M  V30 346 H 32.9642 1.31175 3.73643 0
M  V30 347 H 34.1382 3.88155 2.4834 0
M  V30 348 H 32.4532 3.41976 2.37575 0
M  V30 349 H 35.0502 2.19799 4.87434 0
M  V30 350 H 35.3932 0.665823 4.10941 0
M  V30 351 H 35.9262 2.17547 3.33044 0
M  V30 352 H 32.6652 5.05064 4.1784 0
M  V30 353 H 32.1852 3.48811 4.87945 0
M  V30 354 H 33.8642 4.06139 5.03647 0
M  V30 355 N 33.9963 -1.19345 1.0293 0
M  V30 356 C 35.4073 -1.70725 0.755633 0
M  V30 357 C 35.7583 -1.82326 -0.724676 0
M  V30 358 O 34.8833 -1.49471 -1.56484 0
M  V30 359 C 35.4783 -3.10084 1.36503 0
M  V30 360 C 34.0373 -3.58723 1.13994 0
M  V30 361 C 33.1843 -2.35577 1.46283 0
M  V30 362 H 36.1353 -1.0418 1.19718 0
M  V30 363 H 36.1563 -3.72787 0.762217 0
M  V30 364 H 35.6683 -3.01609 2.44241 0
M  V30 365 H 33.7693 -3.72512 0.0807901 0
M  V30 366 H 33.8823 -4.42816 1.82894 0
M  V30 367 H 32.2463 -2.38935 0.88217 0
M  V30 368 H 33.0293 -2.29731 2.55105 0
M  V30 369 N 35.4744 -0.807222 -1.35358 0
M  V30 370 C 36.4064 -0.175717 -2.28525 0
M  V30 371 C 37.4194 0.625354 -1.5031 0
M  V30 372 O 38.6084 0.457611 -1.72535 0
M  V30 373 C 35.7084 0.773471 -3.29956 0
M  V30 374 C 34.8814 0.0186296 -4.37396 0
M  V30 375 C 33.9404 0.886395 -5.18681 0
M  V30 376 O 32.9664 0.337106 -5.68201 0
M  V30 377 N 34.1684 2.20839 -5.36852 0
M  V30 378 H 36.9334 -0.976091 -2.83359 0
M  V30 379 H 34.4944 -0.662737 -1.47714 0
M  V30 380 H 36.4864 1.35824 -3.81227 0
M  V30 381 H 35.0564 1.47465 -2.75632 0
M  V30 382 H 34.2764 -0.747349 -3.87051 0
M  V30 383 H 35.5644 -0.501577 -5.06322 0
M  V30 384 H 34.9624 2.67858 -4.98265 0
M  V30 385 H 33.5194 2.74237 -5.91301 0
M  V30 386 N 36.9525 1.47285 -0.560781 0
M  V30 387 C 38.3635 1.86258 -0.128343 0
M  V30 388 C 38.7145 1.46699 1.30284 0
M  V30 389 O 37.8395 0.871698 1.98067 0
M  V30 390 C 38.4345 3.38044 -0.22614 0
M  V30 391 C 36.9935 3.76096 0.151283 0
M  V30 392 C 36.1405 2.71335 -0.572084 0
M  V30 393 H 39.0915 1.38752 -0.770297 0
M  V30 394 H 39.1125 3.76441 0.554322 0
M  V30 395 H 38.6245 3.66806 -1.26788 0
M  V30 396 H 36.7255 3.52951 1.19399 0
M  V30 397 H 36.8385 4.78641 -0.209765 0
M  V30 398 H 35.2025 2.54696 -0.0147653 0
M  V30 399 H 35.9855 3.02938 -1.61504 0
M  V30 400 N 38.4306 0.297415 1.54768 0
M  V30 401 C 39.6556 -0.318435 2.04941 0
M  V30 402 C 40.0806 -1.4701 1.17345 0
M  V30 403 O 39.4386 -1.80436 0.176758 0
M  V30 404 C 39.4866 -0.755749 3.52592 0
M  V30 405 O 38.5906 -1.86088 3.68028 0
M  V30 406 H 37.9316 -0.062421 0.661059 0
M  V30 407 H 40.4616 0.438215 1.99852 0
M  V30 408 H 40.4716 -1.04552 3.94376 0
M  V30 409 H 39.1466 0.0867233 4.1581 0
M  V30 410 H 37.7236 -1.57193 3.38149 0
M  V30 411 N 39.9087 -1.5758 0.0250728 0
M  V30 412 C 40.8567 -2.11125 -0.97617 0
M  V30 413 C 41.8507 -1.03689 -1.33959 0
M  V30 414 O 43.0567 -1.22128 -1.3223 0
M  V30 415 H 39.4317 -0.674468 -0.332561 0
M  V30 416 H 41.4027 -2.94194 -0.499223 0
M  V30 417 C 40.1517 -2.65017 -2.2508 0
M  V30 418 H 39.4747 -3.47333 -1.9799 0
M  V30 419 H 40.9147 -3.06133 -2.93357 0
M  V30 420 C 39.3737 -1.57574 -2.97779 0
M  V30 421 O 39.9037 -0.973203 -3.89733 0
M  V30 422 N 38.1097 -1.29716 -2.60043 0
M  V30 423 H 37.6567 -1.789 -1.85345 0
M  V30 424 H 37.6147 -0.58051 -3.08994 0
M  V30 425 N 41.3868 0.248026 -1.55636 0
M  V30 426 C 42.2968 1.32859 -1.93354 0
M  V30 427 C 43.3128 1.52719 -0.833838 0
M  V30 428 O 44.4888 1.66363 -1.13513 0
M  V30 429 C 41.5538 2.66337 -2.21958 0
M  V30 430 C 40.6148 2.55008 -3.45354 0
M  V30 431 C 39.8478 3.82121 -3.72584 0
M  V30 432 O 40.0708 4.83951 -3.01907 0
M  V30 433 O 39.0048 3.80822 -4.6611 0
M  V30 434 H 42.8308 1.03862 -2.85388 0
M  V30 435 H 40.4158 0.448686 -1.42503 0
M  V30 436 H 42.2978 3.45216 -2.4167 0
M  V30 437 H 40.9728 2.95068 -1.33103 0
M  V30 438 H 39.8798 1.7442 -3.30951 0
M  V30 439 H 41.2128 2.31222 -4.34508 0
M  V30 440 N 42.8649 1.48995 0.513639 0
M  V30 441 C 44.1109 1.58076 1.27042 0
M  V30 442 C 44.4439 0.261026 1.92438 0
M  V30 443 O 43.7189 -0.734393 1.80103 0
M  V30 444 C 44.0019 2.73091 2.34719 0
M  V30 445 C 43.8549 4.14821 1.73907 0
M  V30 446 C 45.1739 2.83796 3.36375 0
M  V30 447 H 42.2929 0.575391 0.460536 0
M  V30 448 H 44.9349 1.81232 0.570516 0
M  V30 449 H 43.0849 2.53479 2.94416 0
M  V30 450 H 44.7569 4.45917 1.18135 0
M  V30 451 H 42.9999 4.21058 1.0437 0
M  V30 452 H 43.6709 4.91147 2.51949 0
M  V30 453 H 46.1469 3.01611 2.86653 0
M  V30 454 H 45.0229 3.65971 4.09093 0
M  V30 455 H 45.2839 1.92624 3.9793 0
M  V30 456 N 44.343 -0.763751 1.37857 0
M  V30 457 C 45.291 -1.89864 1.34367 0
M  V30 458 C 46.285 -1.67816 0.231143 0
M  V30 459 O 47.491 -1.75508 0.399617 0
M  V30 460 H 43.866 -0.624501 0.41893 0
M  V30 461 H 45.837 -1.89925 2.30155 0
M  V30 462 C 44.586 -3.27227 1.1755 0
M  V30 463 H 43.909 -3.44773 2.02414 0
M  V30 464 H 45.349 -4.06911 1.1916 0
M  V30 465 C 43.808 -3.36692 -0.118311 0
M  V30 466 O 44.338 -3.86374 -1.09902 0
M  V30 467 N 42.544 -2.90092 -0.171717 0
M  V30 468 H 42.091 -2.49853 0.627012 0
M  V30 469 H 42.049 -2.96806 -1.03699 0
M  V30 470 N 45.8211 -1.22559 -0.990812 0
M  V30 471 C 46.7511 -1.0218 -2.09956 0
M  V30 472 C 47.7321 0.0579394 -1.70001 0
M  V30 473 O 48.9171 -0.104684 -1.93918 0
M  V30 474 C 46.0471 -0.601023 -3.4206 0
M  V30 475 C 45.0011 -1.62694 -3.95872 0
M  V30 476 C 44.3271 -1.06193 -5.24049 0
M  V30 477 C 45.6271 -3.01743 -4.2632 0
M  V30 478 H 47.3211 -1.94916 -2.27262 0
M  V30 479 H 44.8671 -0.938566 -1.09211 0
M  V30 480 H 46.8201 -0.445561 -4.19038 0
M  V30 481 H 45.5441 0.362005 -3.24588 0
M  V30 482 H 44.2031 -1.77021 -3.21028 0
M  V30 483 H 43.8511 -0.0901903 -5.02919 0
M  V30 484 H 43.5511 -1.74732 -5.61019 0
M  V30 485 H 45.0751 -0.918092 -6.03658 0
M  V30 486 H 46.4891 -2.90777 -4.94087 0
M  V30 487 H 44.8861 -3.67425 -4.74467 0
M  V30 488 H 45.9561 -3.51518 -3.34011 0
M  V30 489 N 47.2992 1.18797 -1.03562 0
M  V30 490 C 48.2292 2.24472 -0.643019 0
M  V30 491 C 49.2102 1.66433 0.351283 0
M  V30 492 O 50.3952 1.92803 0.232505 0
M  V30 493 C 47.5252 3.473 4.24935e-05 0
M  V30 494 C 46.4792 4.18055 -0.917257 0
M  V30 495 C 45.8052 5.34519 -0.138941 0
M  V30 496 C 47.1052 4.72109 -2.23407 0
M  V30 497 H 48.7992 2.57566 -1.52643 0
M  V30 498 H 46.3452 1.23806 -0.735394 0
M  V30 499 H 48.2982 4.20426 0.286383 0
M  V30 500 H 47.0222 3.13424 0.918299 0
M  V30 501 H 45.6812 3.46821 -1.1879 0
M  V30 502 H 45.3292 4.96891 0.781562 0
M  V30 503 H 45.0292 5.82794 -0.750005 0
M  V30 504 H 46.5532 6.10438 0.1405 0
M  V30 505 H 47.9672 5.36955 -2.00879 0
M  V30 506 H 46.3642 5.30897 -2.79765 0
M  V30 507 H 47.4342 3.89807 -2.88407 0
M  V30 508 N 48.7773 0.814389 1.34928 0
M  V30 509 C 50.0543 0.321363 1.92942 0
M  V30 510 C 50.4343 -1.19014 1.74353 0
M  V30 511 O 49.7823 -1.99328 1.11716 0
M  V30 512 C 49.9923 0.741323 3.41036 0
M  V30 513 C 51.3403 0.735266 4.18185 0
M  V30 514 O 52.3643 0.68336 3.49584 0
M  V30 515 O 51.2233 0.800703 5.40602 0
M  V30 516 H 48.3173 0.0858893 0.822528 0
M  V30 517 H 50.8633 0.898609 1.43955 0
M  V30 518 H 49.6353 1.78276 3.4833 0
M  V30 519 H 49.2583 0.139307 3.97356 0
M  V30 520 N 50.2554 -1.46986 0.568584 0
M  V30 521 C 51.4804 -2.07335 0.0520528 0
M  V30 522 C 51.9054 -1.41675 -1.23733 0
M  V30 523 O 51.2634 -0.495623 -1.74394 0
M  V30 524 C 51.3114 -3.60417 -0.11501 0
M  V30 525 O 50.4154 -3.95309 -1.17492 0
M  V30 526 H 49.7564 -0.661597 0.0564385 0
M  V30 527 H 52.2864 -1.88837 0.787507 0
M  V30 528 H 52.2964 -4.06698 -0.325644 0
M  V30 529 H 50.9714 -4.07601 0.826675 0
M  V30 530 H 49.5484 -3.60757 -0.943869 0
M  V30 531 N 51.7335 -0.305618 -1.54608 0
M  V30 532 C 52.6805 0.568421 -2.23691 0
M  V30 533 C 53.6505 1.12592 -1.22116 0
M  V30 534 O 54.8355 1.16959 -1.50749 0
M  V30 535 C 51.9755 1.7322 -2.98477 0
M  V30 536 C 51.0885 1.20566 -4.14835 0
M  V30 537 C 50.2235 2.33368 -4.77193 0
M  V30 538 C 49.2625 1.7787 -5.85686 0
M  V30 539 N 48.3995 2.84263 -6.4198 0
M  V30 540 H 53.2395 -0.0272867 -2.97988 0
M  V30 541 H 50.7765 -0.0252363 -1.47078 0
M  V30 542 H 52.7345 2.41675 -3.40072 0
M  V30 543 H 51.3645 2.29947 -2.26548 0
M  V30 544 H 50.4165 0.413223 -3.78149 0
M  V30 545 H 51.7285 0.759417 -4.92985 0
M  V30 546 H 50.8825 3.09761 -5.21664 0
M  V30 547 H 49.6215 2.8132 -3.98385 0
M  V30 548 H 48.6265 0.99968 -5.40635 0
M  V30 549 H 49.8515 1.30816 -6.66381 0
M  V30 550 H 47.7975 3.31541 -5.66053 0
M  V30 551 H 47.7145 2.44149 -7.15491 0
M  V30 552 H 48.9825 3.6054 -6.91109 0
M  V30 553 N 53.2116 1.57565 -0.0334293 0
M  V30 554 C 54.4396 1.9628 0.654347 0
M  V30 555 C 54.8546 0.910138 1.65414 0
M  V30 556 O 54.2116 -0.107595 1.82183 0
M  V30 557 C 54.2626 3.35067 1.35693 0
M  V30 558 O 53.9836 4.36296 0.397191 0
M  V30 559 C 55.4846 3.88439 2.13613 0
M  V30 560 H 52.7046 0.646369 0.180132 0
M  V30 561 H 55.2486 2.04282 -0.0944721 0
M  V30 562 H 53.4036 3.2827 2.05712 0
M  V30 563 H 53.8176 5.1678 0.896597 0
M  V30 564 H 55.2916 4.8788 2.58219 0
M  V30 565 H 55.7686 3.22914 2.97696 0
M  V30 566 H 56.3746 3.98516 1.48543 0
M  V30 567 N 54.6897 -0.239769 1.55765 0
M  V30 568 C 55.9387 -0.964754 1.77131 0
M  V30 569 C 56.2517 -1.86213 0.59868 0
M  V30 570 O 57.4577 -2.6244 0.695522 0
M  V30 571 C 55.9137 -1.76552 3.1362 0
M  V30 572 C 55.5217 -0.915185 4.38553 0
M  V30 573 C 57.2657 -2.48281 3.44321 0
M  V30 574 C 55.1727 -1.71225 5.66071 0
M  V30 575 H 54.1027 -0.363953 0.660344 0
M  V30 576 H 56.7537 -0.219181 1.82186 0
M  V30 577 H 55.1357 -2.55331 3.02691 0
M  V30 578 H 56.3097 -0.169217 4.60489 0
M  V30 579 H 54.6247 -0.310889 4.15238 0
M  V30 580 H 57.2217 -3.08382 4.36812 0
M  V30 581 H 57.5647 -3.20256 2.65973 0
M  V30 582 H 58.0977 -1.76507 3.56497 0
M  V30 583 H 54.8367 -1.03612 6.4726 0
M  V30 584 H 54.3567 -2.43331 5.48224 0
M  V30 585 H 56.0357 -2.27758 6.05587 0
M  V30 586 N 56.1678 -1.49265 -0.50573 0
M  V30 587 C 57.0998 -1.617 -1.62437 0
M  V30 588 C 58.1128 -0.499924 -1.54934 0
M  V30 589 O 59.3018 -0.771785 -1.60953 0
M  V30 590 C 56.4018 -1.5533 -3.01207 0
M  V30 591 C 55.5748 -2.8249 -3.33943 0
M  V30 592 C 54.6338 -2.69238 -4.52103 0
M  V30 593 O 53.6598 -3.43167 -4.5412 0
M  V30 594 N 54.8618 -1.80468 -5.51735 0
M  V30 595 H 57.6268 -2.58177 -1.52199 0
M  V30 596 H 55.1878 -1.46294 -0.693511 0
M  V30 597 H 57.1798 -1.44125 -3.78167 0
M  V30 598 H 55.7498 -0.667297 -3.05395 0
M  V30 599 H 54.9698 -3.08081 -2.45926 0
M  V30 600 H 56.2578 -3.66802 -3.5261 0
M  V30 601 H 55.6558 -1.19653 -5.52901 0
M  V30 602 H 54.2128 -1.75188 -6.27816 0
M  V30 603 N 57.6459 0.756429 -1.3826 0
M  V30 604 C 58.8939 1.51248 -1.34047 0
M  V30 605 C 59.2149 1.94875 0.0698372 0
M  V30 606 O 58.4849 1.67436 1.01696 0
M  V30 607 H 57.0649 0.561018 -0.493222 0
M  V30 608 H 59.7269 0.899347 -1.7291 0
M  V30 609 H 58.8229 2.40472 -1.98947 0
M  V30 610 N 59.124 1.23083 0.984299 0
M  V30 611 C 60.034 1.02515 2.11016 0
M  V30 612 C 61.05 -0.0291702 1.73976 0
M  V30 613 O 62.226 0.165434 2.00719 0
M  V30 614 C 59.291 0.614673 3.41208 0
M  V30 615 C 58.352 1.74359 3.92297 0
M  V30 616 C 57.585 1.35261 5.16275 0
M  V30 617 O 57.808 0.235136 5.69915 0
M  V30 618 O 56.742 2.17227 5.61334 0
M  V30 619 H 60.568 1.96862 2.31255 0
M  V30 620 H 58.153 1.01753 1.09392 0
M  V30 621 H 60.035 0.396518 4.1953 0
M  V30 622 H 58.71 -0.299851 3.22308 0
M  V30 623 H 57.617 2.01635 3.1511 0
M  V30 624 H 58.95 2.63629 4.15645 0
M  V30 625 N 60.6021 -1.18246 1.0419 0
M  V30 626 C 61.5321 -2.24127 0.654914 0
M  V30 627 C 62.5131 -1.66617 -0.342451 0
M  V30 628 O 63.6981 -1.92924 -0.222277 0
M  V30 629 C 60.8281 -3.47295 0.0183757 0
M  V30 630 C 59.7821 -4.17563 0.939414 0
M  V30 631 C 59.1081 -5.34438 0.167286 0
M  V30 632 C 60.4081 -4.70917 2.25908 0
M  V30 633 H 62.1021 -2.56753 1.54007 0
M  V30 634 H 59.6481 -1.23414 0.74195 0
M  V30 635 H 61.6011 -4.20572 -0.264082 0
M  V30 636 H 60.3251 -3.13907 -0.901664 0
M  V30 637 H 58.9841 -3.46186 1.20628 0
M  V30 638 H 58.6321 -4.97298 -0.7552 0
M  V30 639 H 58.3321 -5.82388 0.780901 0
M  V30 640 H 59.8561 -6.10504 -0.108125 0
M  V30 641 H 61.2701 -5.35882 2.03724 0
M  V30 642 H 59.6671 -5.29406 2.82577 0
M  V30 643 H 60.7371 -3.88272 2.9047 0
M  V30 644 N 62.0802 -0.821533 -1.34494 0
M  V30 645 C 63.3282 -0.408139 -1.97936 0
M  V30 646 C 63.6492 1.03193 -1.65457 0
M  V30 647 O 62.9192 1.71622 -0.944595 0
M  V30 648 H 61.4992 -0.147928 -0.732206 0
M  V30 649 H 64.1612 -1.05067 -1.64155 0
M  V30 650 H 63.2572 -0.52601 -3.07635 0
M  V30 651 N 63.5583 1.46682 -0.576371 0
M  V30 652 C 64.8043 2.03287 -0.0679305 0
M  V30 653 C 65.1593 1.44063 1.27529 0
M  V30 654 O 64.4523 0.593973 1.82161 0
M  V30 655 C 64.6463 3.57345 0.062886 0
M  V30 656 C 64.4753 4.31509 -1.26611 0
M  V30 657 C 63.2453 4.70664 -1.83856 0
M  V30 658 C 65.4433 4.65444 -2.18783 0
M  V30 659 N 63.4253 5.29552 -3.10561 0
M  V30 660 C 64.7963 5.24835 -3.30072 0
M  V30 661 C 66.8513 4.47375 -2.18542 0
M  V30 662 C 65.5543 5.68063 -4.41244 0
M  V30 663 C 67.5803 4.91614 -3.28739 0
M  V30 664 C 66.9423 5.51071 -4.38748 0
M  V30 665 H 63.0413 0.779083 -0.0674836 0
M  V30 666 H 65.6253 1.78918 -0.767877 0
M  V30 667 H 63.7963 3.8144 0.731988 0
M  V30 668 H 65.5283 4.00592 0.575134 0
M  V30 669 H 62.2833 4.53224 -1.37424 0
M  V30 670 H 62.7073 5.63523 -3.75195 0
M  V30 671 H 67.3493 4.00747 -1.34765 0
M  V30 672 H 65.0673 6.13672 -5.25768 0
M  V30 673 H 68.6533 4.79389 -3.29662 0
M  V30 674 H 67.5333 5.84678 -5.22611 0
M  V30 675 N 65.0364 0.313813 1.54444 0
M  V30 676 C 66.2854 -0.292519 1.99568 0
M  V30 677 C 66.5984 -1.54011 1.20582 0
M  V30 678 O 67.8044 -2.22183 1.56035 0
M  V30 679 C 66.2604 -0.571752 3.55329 0
M  V30 680 C 65.8684 0.658229 4.43138 0
M  V30 681 C 67.6124 -1.13857 4.08946 0
M  V30 682 C 65.5194 0.351439 5.90355 0
M  V30 683 H 64.4494 -0.113079 0.745472 0
M  V30 684 H 67.1004 0.424518 1.78522 0
M  V30 685 H 65.4824 -1.34872 3.72325 0
M  V30 686 H 66.6564 1.43403 4.37918 0
M  V30 687 H 64.9714 1.14458 4.0036 0
M  V30 688 H 67.5684 -1.38257 5.16516 0
M  V30 689 H 67.9114 -2.08489 3.6033 0
M  V30 690 H 68.4444 -0.423015 3.95544 0
M  V30 691 H 65.1834 1.26667 6.43145 0
M  V30 692 H 64.7034 -0.386842 5.98551 0
M  V30 693 H 66.3824 -0.0423134 6.46986 0
M  V30 694 N 66.5145 -1.57545 0.0417849 0
M  V30 695 C 67.7395 -1.97035 -0.647455 0
M  V30 696 C 68.1645 -0.918775 -1.64135 0
M  V30 697 O 67.5225 0.119006 -1.80909 0
M  V30 698 C 67.5705 -3.35609 -1.31905 0
M  V30 699 O 66.6745 -3.3287 -2.43457 0
M  V30 700 H 66.0155 -0.64211 -0.169086 0
M  V30 701 H 68.5455 -2.04318 0.107399 0
M  V30 702 H 68.5555 -3.72126 -1.67291 0
M  V30 703 H 67.2305 -4.11685 -0.590586 0
M  V30 704 H 65.8075 -3.08087 -2.10088 0
M  V30 705 N 67.9926 0.231505 -1.5589 0
M  V30 706 C 69.2226 0.973092 -1.82248 0
M  V30 707 C 69.6306 1.78845 -0.617328 0
M  V30 708 O 68.9736 1.78752 0.423499 0
M  V30 709 C 69.0356 1.94732 -3.02192 0
M  V30 710 C 68.6996 1.31743 -4.37599 0
M  V30 711 C 69.6966 0.712238 -5.14998 0
M  V30 712 C 67.3816 1.33218 -4.84312 0
M  V30 713 C 69.3756 0.130195 -6.37267 0
M  V30 714 C 67.0626 0.746286 -6.06526 0
M  V30 715 C 68.0606 0.146337 -6.82843 0
M  V30 716 O 67.7486 -0.430465 -8.02747 0
M  V30 717 H 67.4806 0.29125 -0.61004 0
M  V30 718 H 70.0346 0.254915 -2.03812 0
M  V30 719 H 68.2646 2.70422 -2.76422 0
M  V30 720 H 69.9536 2.55362 -3.15508 0
M  V30 721 H 70.7196 0.69324 -4.8002 0
M  V30 722 H 66.5986 1.78854 -4.24891 0
M  V30 723 H 70.1426 -0.33871 -6.96777 0
M  V30 724 H 66.0396 0.762663 -6.40979 0
M  V30 725 H 66.8076 -0.323818 -8.17859 0
M  V30 726 N 69.4707 1.49531 0.497807 0
M  V30 727 C 70.8817 1.52344 1.07927 0
M  V30 728 C 71.2327 0.311469 1.93712 0
M  V30 729 O 70.3577 -0.578405 2.08527 0
M  V30 730 C 70.9527 2.76062 1.96405 0
M  V30 731 C 69.5117 2.81643 2.49709 0
M  V30 732 C 68.6587 2.46299 1.27404 0
M  V30 733 H 71.6097 1.56182 0.281576 0
M  V30 734 H 71.6307 2.56405 2.81135 0
M  V30 735 H 71.1427 3.64254 1.33943 0
M  V30 736 H 69.2437 1.97739 3.15801 0
M  V30 737 H 69.3567 3.83891 2.86643 0
M  V30 738 H 67.7207 1.98148 1.60029 0
M  V30 739 H 68.5037 3.36769 0.66645 0
M  V30 740 N 70.9488 -0.749086 1.3866 0
M  V30 741 C 72.1738 -1.54344 1.38538 0
M  V30 742 C 72.5988 -1.88088 -0.0216655 0
M  V30 743 O 71.9568 -1.50899 -1.00494 0
M  V30 744 C 72.0048 -2.8164 2.25192 0
M  V30 745 O 71.1088 -3.7698 1.67212 0
M  V30 746 H 70.4498 -0.466654 0.472367 0
M  V30 747 H 72.9798 -0.925355 1.82478 0
M  V30 748 H 72.9898 -3.30519 2.3921 0
M  V30 749 H 71.6648 -2.56411 3.27454 0
M  V30 750 H 70.2418 -3.35699 1.6236 0
M  V30 751 N 72.4269 -1.23603 -0.977757 0
M  V30 752 C 73.3769 -0.986664 -2.05545 0
M  V30 753 C 74.3609 0.0683009 -1.60755 0
M  V30 754 O 75.5529 -0.144162 -1.76412 0
M  V30 755 C 72.6819 -0.582623 -3.3832 0
M  V30 756 C 71.7679 -1.67313 -3.89701 0
M  V30 757 N 72.1589 -2.90394 -4.14132 0
M  V30 758 C 70.4569 -1.54832 -4.18262 0
M  V30 759 C 71.1579 -3.61017 -4.56116 0
M  V30 760 N 70.1339 -2.8854 -4.60701 0
M  V30 761 H 73.9359 -1.92139 -2.22396 0
M  V30 762 H 71.4499 -1.1358 -1.16074 0
M  V30 763 H 73.4469 -0.38524 -4.15116 0
M  V30 764 H 72.1069 0.34503 -3.22862 0
M  V30 765 H 73.1179 -3.26673 -4.01877 0
M  V30 766 H 69.7949 -0.687969 -4.11793 0
M  V30 767 H 71.1849 -4.66544 -4.83514 0
M  V30 768 N 73.905 1.17692 -1.04816 0
M  V30 769 C 75.153 1.87488 -0.754497 0
M  V30 770 C 75.474 1.81205 0.720407 0
M  V30 771 O 74.744 1.23544 1.52032 0
M  V30 772 H 73.324 0.694101 -0.276102 0
M  V30 773 H 75.986 1.42793 -1.32651 0
M  V30 774 H 75.082 2.93328 -1.06606 0
M  V30 775 N 75.3831 0.828654 1.34056 0
M  V30 776 C 76.6291 0.429279 1.98818 0
M  V30 777 C 76.9841 -0.998011 1.64492 0
M  V30 778 O 76.2771 -1.68652 0.909228 0
M  V30 779 C 76.4711 0.575226 3.52741 0
M  V30 780 C 76.3001 2.01515 4.02022 0
M  V30 781 C 75.0701 2.64825 4.30344 0
M  V30 782 C 77.2681 2.98261 4.18981 0
M  V30 783 N 75.2501 3.99998 4.65698 0
M  V30 784 C 76.6211 4.18356 4.57578 0
M  V30 785 C 78.6761 2.94802 4.01243 0
M  V30 786 C 77.3791 5.35454 4.80293 0
M  V30 787 C 79.4051 4.11121 4.25128 0
M  V30 788 C 78.7671 5.29969 4.64018 0
M  V30 789 H 74.8661 0.205304 0.754569 0
M  V30 790 H 77.4501 1.07457 1.62361 0
M  V30 791 H 75.6211 -0.0401962 3.88379 0
M  V30 792 H 77.3531 0.148292 4.04428 0
M  V30 793 H 74.1081 2.16027 4.21461 0
M  V30 794 H 74.5321 4.69653 4.87601 0
M  V30 795 H 79.1741 2.04054 3.70299 0
M  V30 796 H 76.8921 6.26755 5.10102 0
M  V30 797 H 80.4781 4.0985 4.12934 0
M  V30 798 H 79.3581 6.18479 4.82134 0
M  V30 799 N 76.8612 -1.46375 0.584142 0
M  V30 800 C 77.7712 -2.34115 -0.150728 0
M  V30 801 C 78.7872 -1.49838 -0.884567 0
M  V30 802 O 79.9632 -1.82704 -0.847429 0
M  V30 803 C 77.0282 -3.2705 -1.15062 0
M  V30 804 C 76.0892 -4.27228 -0.421293 0
M  V30 805 C 75.3222 -5.15722 -1.37355 0
M  V30 806 O 75.5452 -5.07176 -2.61014 0
M  V30 807 O 74.4792 -5.95383 -0.883355 0
M  V30 808 H 78.3052 -2.98309 0.569708 0
M  V30 809 H 75.8902 -1.45373 0.344535 0
M  V30 810 H 77.7722 -3.84381 -1.72712 0
M  V30 811 H 76.4472 -2.65451 -1.8525 0
M  V30 812 H 75.3542 -3.7358 0.197085 0
M  V30 813 H 76.6872 -4.91616 0.239641 0
M  V30 814 N 78.3393 -0.321999 -1.54275 0
M  V30 815 C 79.2493 0.553631 -2.27974 0
M  V30 816 C 80.2653 1.13054 -1.32268 0
M  V30 817 O 81.4413 1.15084 -1.6528 0
M  V30 818 C 78.5063 1.69927 -3.02201 0
M  V30 819 C 77.5673 1.15433 -4.1349 0
M  V30 820 C 76.8003 2.24537 -4.84168 0
M  V30 821 O 77.0233 3.44852 -4.5435 0
M  V30 822 O 75.9573 1.90044 -5.7111 0
M  V30 823 H 79.7833 -0.0448345 -3.03667 0
M  V30 824 H 77.3683 -0.0877418 -1.49142 0
M  V30 825 H 79.2503 2.3663 -3.48689 0
M  V30 826 H 77.9253 2.28395 -2.29385 0
M  V30 827 H 76.8323 0.452436 -3.71354 0
M  V30 828 H 78.1653 0.614805 -4.88345 0
M  V30 829 N 79.8174 1.5752 -0.0501392 0
M  V30 830 C 81.0664 1.91827 0.623328 0
M  V30 831 C 81.3794 0.930222 1.72065 0
M  V30 832 O 82.5854 1.1653 2.4522 0
M  V30 833 C 81.0414 3.40692 1.16003 0
M  V30 834 C 80.6494 4.479 0.0948811 0
M  V30 835 C 82.3934 3.84034 1.80881 0
M  V30 836 C 80.3004 5.87879 0.644411 0
M  V30 837 H 79.2304 0.715918 0.236596 0
M  V30 838 H 81.8814 1.83115 -0.118861 0
M  V30 839 H 80.2634 3.44405 1.9545 0
M  V30 840 H 81.4374 4.55775 -0.678675 0
M  V30 841 H 79.7524 4.13892 -0.45637 0
M  V30 842 H 82.3494 4.85984 2.22988 0
M  V30 843 H 82.6924 3.20225 2.6601 0
M  V30 844 H 83.2254 3.82833 1.0809 0
M  V30 845 H 79.9644 6.55282 -0.169229 0
M  V30 846 H 79.4844 5.83567 1.38598 0
M  V30 847 H 81.1634 6.37098 1.12763 0
M  V30 848 N 81.2955 -0.223234 1.56011 0
M  V30 849 C 82.5205 -0.968978 1.83373 0
M  V30 850 C 82.9455 -1.77227 0.630254 0
M  V30 851 O 82.3035 -1.76345 -0.420959 0
M  V30 852 C 82.3515 -1.86363 3.08709 0
M  V30 853 O 81.4555 -2.95873 2.87285 0
M  V30 854 H 80.7965 -0.274461 0.604622 0
M  V30 855 H 83.3265 -0.237056 2.03222 0
M  V30 856 H 83.3365 -2.27376 3.38768 0
M  V30 857 H 82.0115 -1.27319 3.95933 0
M  V30 858 H 80.5885 -2.58818 2.68454 0
M  V30 859 N 82.7736 -1.49793 -0.48987 0
M  V30 860 C 84.0216 -1.59525 -1.24081 0
M  V30 861 C 84.3426 -0.288953 -1.92847 0
M  V30 862 O 83.6126 0.692436 -1.83254 0
M  V30 863 H 82.1926 -0.587796 -0.460983 0
M  V30 864 H 84.8546 -1.86477 -0.566778 0
M  V30 865 H 83.9506 -2.39696 -1.99881 0
M  V30 866 N 84.2517 0.741722 -1.39055 0
M  V30 867 C 85.4977 1.50336 -1.36113 0
M  V30 868 C 85.8307 1.94148 0.0450796 0
M  V30 869 O 85.1057 1.66301 1.00868 0
M  V30 870 C 85.3887 2.74773 -2.32749 0
M  V30 871 C 85.2417 2.37023 -3.82283 0
M  V30 872 C 86.5607 3.76846 -2.27322 0
M  V30 873 H 83.6797 0.545351 -0.495743 0
M  V30 874 H 86.3217 0.848624 -1.69995 0
M  V30 875 H 84.4717 3.30639 -2.03986 0
M  V30 876 H 86.1437 1.8684 -4.21768 0
M  V30 877 H 84.3867 1.69334 -3.99385 0
M  V30 878 H 85.0577 3.26104 -4.45376 0
M  V30 879 H 87.5337 3.30548 -2.5274 0
M  V30 880 H 86.4097 4.6159 -2.97028 0
M  V30 881 H 86.6707 4.23286 -1.27599 0
M  V30 882 N 85.7298 1.2412 0.971189 0
M  V30 883 C 87.0068 0.986867 1.6888 0
M  V30 884 C 87.3868 -0.491857 2.0529 0
M  V30 885 O 86.7348 -1.46531 1.75331 0
M  V30 886 C 86.9448 1.9063 2.92338 0
M  V30 887 C 88.2928 2.17515 3.64654 0
M  V30 888 O 89.3168 1.88254 3.02388 0
M  V30 889 O 88.1758 2.6719 4.7673 0
M  V30 890 H 85.2698 0.372944 0.738134 0
M  V30 891 H 87.8158 1.35203 1.02559 0
M  V30 892 H 86.5878 2.90552 2.62097 0
M  V30 893 H 86.2108 1.54408 3.66393 0
M  V30 894 N 87.2079 -1.17134 1.05439 0
M  V30 895 C 88.1179 -2.24878 0.668365 0
M  V30 896 C 89.1339 -1.71186 -0.311687 0
M  V30 897 O 90.3099 -2.00738 -0.163161 0
M  V30 898 C 87.3749 -3.46662 0.051648 0
M  V30 899 C 86.4359 -4.15429 1.08246 0
M  V30 900 C 85.6689 -5.31399 0.495082 0
M  V30 901 O 85.8919 -5.66153 -0.694743 0
M  V30 902 O 84.8259 -5.89187 1.23056 0
M  V30 903 H 88.6519 -2.60189 1.56637 0
M  V30 904 H 86.2369 -1.24482 0.826104 0
M  V30 905 H 88.1189 -4.20394 -0.290966 0
M  V30 906 H 86.7939 -3.13142 -0.819971 0
M  V30 907 H 85.7009 -3.43704 1.47711 0
M  V30 908 H 87.0339 -4.52982 1.92532 0
M  V30 909 N 88.686 -0.835752 -1.33615 0
M  V30 910 C 89.636 -0.238856 -2.26745 0
M  V30 911 C 90.62 0.604343 -1.49119 0
M  V30 912 O 91.812 0.456822 -1.71003 0
M  V30 913 C 88.941 0.587725 -3.38232 0
M  V30 914 C 88.027 -0.266811 -4.2326 0
M  V30 915 N 88.418 -1.34403 -4.87616 0
M  V30 916 C 86.716 -0.0533131 -4.45968 0
M  V30 917 C 87.417 -1.86819 -5.50884 0
M  V30 918 N 86.393 -1.17013 -5.30857 0
M  V30 919 H 90.195 -1.06266 -2.74016 0
M  V30 920 H 87.709 -0.679881 -1.47483 0
M  V30 921 H 89.706 1.03161 -4.03935 0
M  V30 922 H 88.366 1.40954 -2.9251 0
M  V30 923 H 89.377 -1.7269 -4.88261 0
M  V30 924 H 86.054 0.735312 -4.10974 0
M  V30 925 H 87.444 -2.7701 -6.1214 0
M  V30 926 N 90.1641 1.46063 -0.591896 0
M  V30 927 C 91.3941 2.06418 -0.0867676 0
M  V30 928 C 91.8021 1.43975 1.22751 0
M  V30 929 O 91.1451 0.542531 1.75506 0
M  V30 930 C 91.2071 3.59213 0.143725 0
M  V30 931 C 90.8711 4.439 -1.08635 0
M  V30 932 C 91.8681 4.79864 -2.00067 0
M  V30 933 C 89.5531 4.84896 -1.31077 0
M  V30 934 C 91.5471 5.55661 -3.12282 0
M  V30 935 C 89.2341 5.6045 -2.43596 0
M  V30 936 C 90.2321 5.95747 -3.34027 0
M  V30 937 O 89.9201 6.69772 -4.4459 0
M  V30 938 H 89.6521 0.673443 -0.0587447 0
M  V30 939 H 92.2061 1.88539 -0.814994 0
M  V30 940 H 90.4361 3.75433 0.926668 0
M  V30 941 H 92.1251 4.01463 0.5985 0
M  V30 942 H 92.8911 4.48763 -1.83947 0
M  V30 943 H 88.7701 4.56867 -0.61594 0
M  V30 944 H 92.3141 5.8313 -3.82891 0
M  V30 945 H 88.2111 5.90965 -2.59674 0
M  V30 946 H 88.9791 6.88207 -4.43073 0
M  V30 947 N 91.6422 0.330177 1.54103 0
M  V30 948 C 92.8702 -0.272179 2.05102 0
M  V30 949 C 93.2852 -1.45267 1.20595 0
M  V30 950 O 92.6422 -1.8094 0.238144 0
M  V30 951 C 92.6932 -0.70023 3.54653 0
M  V30 952 O 92.4142 0.433301 4.35952 0
M  V30 953 C 93.9152 -1.3647 4.21771 0
M  V30 954 H 91.1352 -0.0549159 0.668749 0
M  V30 955 H 93.6792 0.478285 1.98828 0
M  V30 956 H 91.8342 -1.40066 3.61193 0
M  V30 957 H 92.2482 0.0947539 5.24414 0
M  V30 958 H 93.7222 -1.61509 5.27843 0
M  V30 959 H 94.1992 -2.31409 3.73292 0
M  V30 960 H 94.8052 -0.706675 4.19388 0
M  V30 961 N 93.1203 -1.57491 0.0584922 0
M  V30 962 C 94.5313 -1.80526 -0.476138 0
M  V30 963 C 94.8823 -0.971334 -1.70469 0
M  V30 964 O 94.0073 -0.190012 -2.15564 0
M  V30 965 C 94.6023 -3.27424 -0.870587 0
M  V30 966 C 93.1613 -3.51351 -1.35015 0
M  V30 967 C 92.3083 -2.75343 -0.32887 0
M  V30 968 H 95.2593 -1.56133 0.284312 0
M  V30 969 H 95.2803 -3.38745 -1.73299 0
M  V30 970 H 94.7923 -3.88093 0.0237627 0
M  V30 971 H 92.8933 -2.95971 -2.26345 0
M  V30 972 H 93.0063 -4.60059 -1.33726 0
M  V30 973 H 91.3703 -2.417 -0.803321 0
M  V30 974 H 92.1533 -3.38743 0.557521 0
M  V30 975 N 94.5984 0.214957 -1.56127 0
M  V30 976 C 95.8474 0.936451 -1.78643 0
M  V30 977 C 96.1604 1.85237 -0.628229 0
M  V30 978 O 97.3664 2.613 -0.737186 0
M  V30 979 C 95.8224 1.7154 -3.16389 0
M  V30 980 C 95.4304 0.845299 -4.39953 0
M  V30 981 C 97.1744 2.42772 -3.48227 0
M  V30 982 C 95.0814 1.62198 -5.68723 0
M  V30 983 H 94.0114 0.353401 -0.666051 0
M  V30 984 H 96.6624 0.190169 -1.82512 0
M  V30 985 H 95.0444 2.50484 -3.06715 0
M  V30 986 H 96.2184 0.0959353 -4.607 0
M  V30 987 H 94.5334 0.244789 -4.1568 0
M  V30 988 H 97.1304 3.01394 -4.41663 0
M  V30 989 H 97.4734 3.15984 -2.71035 0
M  V30 990 H 98.0064 1.70813 -3.5926 0
M  V30 991 H 94.7454 0.933011 -6.48826 0
M  V30 992 H 94.2654 2.34579 -5.52026 0
M  V30 993 H 95.9444 2.18095 -6.09133 0
M  V30 994 N 96.0765 1.50051 0.48192 0
M  V30 995 C 97.4925 1.37237 0.814756 0
M  V30 996 C 97.6925 0.420109 1.97072 0
M  V30 997 O 96.7485 -0.141246 2.52105 0
M  V30 998 C 98.0615 2.78375 1.13701 0
M  V30 999 C 99.6095 2.87213 1.2441 0
M  V30 1000 C 100.084 4.29161 1.59954 0
M  V30 1001 N 101.575 4.32061 1.66967 0
M  V30 1002 C 102.31 5.38879 1.95952 0
M  V30 1003 N 101.806 6.55918 2.23031 0
M  V30 1004 N 103.599 5.26312 1.97363 0
M  V30 1005 H 95.7505 2.10546 -0.28005 0
M  V30 1006 H 98.0135 0.945921 -0.0627454 0
M  V30 1007 H 97.7195 3.49845 0.360787 0
M  V30 1008 H 97.5935 3.14941 2.07586 0
M  V30 1009 H 99.9805 2.15969 2.01101 0
M  V30 1010 H 100.061 2.54204 0.285299 0
M  V30 1011 H 99.7055 5.00938 0.838067 0
M  V30 1012 H 99.6355 4.59648 2.56966 0
M  V30 1013 H 102.126 3.47661 1.48123 0
M  V30 1014 H 102.439 7.33139 2.44391 0
M  V30 1015 H 100.784 6.59112 2.20447 0
M  V30 1016 H 103.975 4.33876 1.75697 0
M  V30 1017 H 104.148 6.09649 2.19618 0
M  V30 1018 N 97.5546 -0.734337 1.39446 0
M  V30 1019 C 98.7826 -1.52358 1.39981 0
M  V30 1020 C 99.1976 -1.88799 -0.0054975 0
M  V30 1021 O 98.5546 -1.54146 -0.976998 0
M  V30 1022 C 98.6056 -2.81072 2.27333 0
M  V30 1023 O 98.3266 -2.46178 3.62392 0
M  V30 1024 C 99.8276 -3.75096 2.36259 0
M  V30 1025 H 97.0476 -0.470806 0.478103 0
M  V30 1026 H 99.5916 -0.907339 1.83269 0
M  V30 1027 H 97.7466 -3.39026 1.87457 0
M  V30 1028 H 98.1606 -3.28866 4.08592 0
M  V30 1029 H 99.6346 -4.62305 3.01626 0
M  V30 1030 H 100.112 -4.16892 1.38194 0
M  V30 1031 H 100.718 -3.23061 2.76608 0
M  V30 1032 N 99.0327 -1.24633 -0.964593 0
M  V30 1033 C 100.263 -1.11339 -1.74032 0
M  V30 1034 C 100.671 0.336593 -1.86182 0
M  V30 1035 O 100.014 1.24389 -1.35178 0
M  V30 1036 C 100.076 -1.68284 -3.1768 0
M  V30 1037 C 99.7397 -3.17196 -3.28992 0
M  V30 1038 C 100.737 -4.14308 -3.14078 0
M  V30 1039 C 98.4217 -3.57215 -3.53133 0
M  V30 1040 C 100.416 -5.4942 -3.23135 0
M  V30 1041 C 98.1027 -4.92468 -3.61827 0
M  V30 1042 C 99.1007 -5.8838 -3.46841 0
M  V30 1043 O 98.7887 -7.21173 -3.55197 0
M  V30 1044 H 98.5207 -0.389551 -0.552472 0
M  V30 1045 H 101.075 -1.65282 -1.21946 0
M  V30 1046 H 99.3047 -1.08777 -3.71085 0
M  V30 1047 H 100.994 -1.50234 -3.77074 0
M  V30 1048 H 101.76 -3.84731 -2.95308 0
M  V30 1049 H 97.6387 -2.83063 -3.63863 0
M  V30 1050 H 101.183 -6.24263 -3.11355 0
M  V30 1051 H 97.0797 -5.21714 -3.80111 0
M  V30 1052 H 97.8477 -7.29135 -3.71892 0
M  V30 1053 N 100.511 1.16574 -1.06058 0
M  V30 1054 C 101.443 2.2045 -0.627239 0
M  V30 1055 C 102.456 1.59752 0.313534 0
M  V30 1056 O 103.645 1.78192 0.104896 0
M  V30 1057 C 100.745 3.3875 0.100974 0
M  V30 1058 C 99.9178 4.29008 -0.852687 0
M  V30 1059 C 98.9768 5.25944 -0.164152 0
M  V30 1060 O 98.0028 5.63535 -0.801047 0
M  V30 1061 N 99.2048 5.70075 1.09518 0
M  V30 1062 H 101.97 2.58249 -1.52077 0
M  V30 1063 H 99.5308 1.3156 -0.943594 0
M  V30 1064 H 101.523 4.00638 0.57194 0
M  V30 1065 H 100.093 2.99476 0.89628 0
M  V30 1066 H 99.3128 3.64419 -1.50308 0
M  V30 1067 H 100.601 4.86195 -1.49972 0
M  V30 1068 H 99.9988 5.41624 1.6328 0
M  V30 1069 H 98.5558 6.34067 1.51006 0
M  V30 1070 N 101.989 0.842826 1.3317 0
M  V30 1071 C 103.235 0.441099 1.97945 0
M  V30 1072 C 103.568 -0.998024 1.66593 0
M  V30 1073 O 102.843 -1.69839 0.947898 0
M  V30 1074 C 103.126 0.666841 3.53872 0
M  V30 1075 C 102.979 2.15352 3.94897 0
M  V30 1076 C 104.298 0.115544 4.39948 0
M  V30 1077 H 101.417 0.161739 0.719034 0
M  V30 1078 H 104.059 1.05907 1.57746 0
M  V30 1079 H 102.209 0.140828 3.88245 0
M  V30 1080 H 103.881 2.7447 3.70761 0
M  V30 1081 H 102.124 2.63653 3.44484 0
M  V30 1082 H 102.795 2.26221 5.03516 0
M  V30 1083 H 105.271 0.565213 4.12243 0
M  V30 1084 H 104.147 0.303152 5.48062 0
M  V30 1085 H 104.408 -0.980935 4.3108 0
M  V30 1086 N 103.467 -1.45747 0.599634 0
M  V30 1087 C 104.707 -2.04181 0.0946309 0
M  V30 1088 C 105.071 -1.45895 -1.24815 0
M  V30 1089 O 106.272 -1.95633 -1.8434 0
M  V30 1090 C 104.543 -3.57368 0.047581 0
M  V30 1091 S 106.102 -4.36997 -0.397387 0
M  V30 1092 H 102.92 -0.70953 0.0456954 0
M  V30 1093 H 105.522 -1.78564 0.795946 0
M  V30 1094 H 104.226 -3.97303 1.02852 0
M  V30 1095 H 103.757 -3.87549 -0.675977 0
M  V30 1096 H 105.772 -4.68012 -1.64862 0
M  V30 1097 N 104.945 -0.338344 -1.53925 0
M  V30 1098 C 105.893 0.536231 -2.26335 0
M  V30 1099 C 106.887 1.1063 -1.28286 0
M  V30 1100 O 108.093 1.05264 -1.46012 0
M  V30 1101 H 104.468 0.191602 -0.727181 0
M  V30 1102 H 106.439 -0.0965747 -2.98244 0
M  V30 1103 C 105.188 1.67803 -3.04528 0
M  V30 1104 H 104.511 1.24864 -3.79801 0
M  V30 1105 H 105.951 2.26526 -3.58416 0
M  V30 1106 C 104.41 2.60439 -2.13712 0
M  V30 1107 O 104.94 3.6255 -1.72975 0
M  V30 1108 N 103.146 2.29006 -1.78898 0
M  V30 1109 H 102.693 1.46011 -2.12223 0
M  V30 1110 H 102.651 2.91248 -1.18416 0
M  V30 1111 N 106.423 1.57458 -0.0668435 0
M  V30 1112 C 107.669 1.93587 0.6043 0
M  V30 1113 C 108.002 0.946722 1.69561 0
M  V30 1114 O 107.277 -0.0248516 1.94484 0
M  V30 1115 C 107.56 3.40014 1.18585 0
M  V30 1116 C 107.413 4.49685 0.101529 0
M  V30 1117 C 108.732 3.87154 2.09284 0
M  V30 1118 H 105.851 0.703958 0.218202 0
M  V30 1119 H 108.493 1.89542 -0.131804 0
M  V30 1120 H 106.643 3.43592 1.81319 0
M  V30 1121 H 108.315 4.5823 -0.531279 0
M  V30 1122 H 106.558 4.30059 -0.568487 0
M  V30 1123 H 107.229 5.49266 0.54874 0
M  V30 1124 H 109.705 3.85551 1.56491 0
M  V30 1125 H 108.581 4.90231 2.46911 0
M  V30 1126 H 108.842 3.2481 2.99918 0
M  V30 1127 N 107.901 -0.206675 1.56239 0
M  V30 1128 C 108.834 -1.28383 1.88661 0
M  V30 1129 C 109.812 -1.44504 0.745481 0
M  V30 1130 O 110.996 -1.60079 0.995336 0
M  V30 1131 C 108.123 -2.65211 2.10667 0
M  V30 1132 C 107.169 -2.66025 3.33366 0
M  V30 1133 S 108.002 -2.18609 4.88846 0
M  V30 1134 C 109.158 -3.57283 5.13906 0
M  V30 1135 H 109.391 -1.00691 2.7973 0
M  V30 1136 H 106.924 -0.409627 1.48867 0
M  V30 1137 H 108.882 -3.43979 2.24029 0
M  V30 1138 H 107.543 -2.90121 1.20369 0
M  V30 1139 H 106.736 -3.66607 3.45855 0
M  V30 1140 H 106.338 -1.95331 3.18938 0
M  V30 1141 H 108.63 -4.53074 5.03717 0
M  V30 1142 H 109.573 -3.49699 6.15724 0
M  V30 1143 H 109.981 -3.51659 4.41583 0
M  V30 1144 N 109.379 -1.50304 -0.473955 0
M  V30 1145 C 110.656 -1.51667 -1.23518 0
M  V30 1146 C 111.036 -0.259701 -2.09496 0
M  V30 1147 O 110.384 0.756986 -2.15597 0
M  V30 1148 C 110.594 -2.81082 -2.06868 0
M  V30 1149 C 111.942 -3.31631 -2.65153 0
M  V30 1150 O 112.966 -2.82384 -2.17113 0
M  V30 1151 O 111.825 -4.17471 -3.52675 0
M  V30 1152 H 108.919 -0.60822 -0.560355 0
M  V30 1153 H 111.465 -1.62592 -0.486011 0
M  V30 1154 H 110.237 -3.64041 -1.4349 0
M  V30 1155 H 109.86 -2.73146 -2.88924 0
M  V30 1156 N 110.857 0.726932 -1.39834 0
M  V30 1157 C 111.807 1.83232 -1.35683 0
M  V30 1158 C 112.791 1.59155 -0.236295 0
M  V30 1159 O 113.983 1.70522 -0.474488 0
M  V30 1160 C 111.112 3.21246 -1.21062 0
M  V30 1161 C 110.198 3.51125 -2.37849 0
M  V30 1162 N 110.589 3.51889 -3.63329 0
M  V30 1163 C 108.887 3.81527 -2.30982 0
M  V30 1164 C 109.588 3.79791 -4.40606 0
M  V30 1165 N 108.564 3.97971 -3.70297 0
M  V30 1166 H 112.366 1.8214 -2.30656 0
M  V30 1167 H 109.88 0.925545 -1.33444 0
M  V30 1168 H 111.877 4.00387 -1.16171 0
M  V30 1169 H 110.537 3.23572 -0.270458 0
M  V30 1170 H 111.548 3.33008 -3.96643 0
M  V30 1171 H 108.225 3.91411 -1.45272 0
M  V30 1172 H 109.615 3.86783 -5.49408 0
M  V30 1173 N 112.336 1.25143 0.95797 0
M  V30 1174 C 113.561 1.12521 1.74223 0
M  V30 1175 C 113.986 -0.317402 1.85403 0
M  V30 1176 O 113.344 -1.2299 1.33204 0
M  V30 1177 C 113.392 1.78062 3.1357 0
M  V30 1178 O 112.496 1.058 3.98598 0
M  V30 1179 H 111.837 0.39304 0.535178 0
M  V30 1180 H 114.367 1.65641 1.201 0
M  V30 1181 H 114.377 1.84213 3.64046 0
M  V30 1182 H 113.052 2.83021 3.04749 0
M  V30 1183 H 111.629 1.07506 3.57067 0
M  V30 1184 N 113.814 -1.1601 1.06675 0
M  V30 1185 C 114.746 -2.20115 0.638921 0
M  V30 1186 C 115.759 -1.59916 -0.305057 0
M  V30 1187 O 116.948 -1.78245 -0.0954446 0
M  V30 1188 C 114.048 -3.38798 -0.0830083 0
M  V30 1189 C 113.221 -4.2855 0.875426 0
M  V30 1190 C 112.28 -5.25849 0.192042 0
M  V30 1191 O 111.306 -5.63102 0.830921 0
M  V30 1192 N 112.508 -5.70648 -1.06493 0
M  V30 1193 H 115.273 -2.57439 1.53444 0
M  V30 1194 H 112.834 -1.31057 0.950557 0
M  V30 1195 H 114.826 -4.00936 -0.550685 0
M  V30 1196 H 113.396 -2.99947 -0.880386 0
M  V30 1197 H 112.616 -3.63617 1.52238 0
M  V30 1198 H 113.904 -4.85393 1.52548 0
M  V30 1199 H 113.302 -5.42482 -1.60405 0
M  V30 1200 H 111.859 -6.34859 -1.47641 0
M  V30 1201 N 115.292 -0.849877 -1.32721 0
M  V30 1202 C 116.24 -0.279745 -2.30912 0
M  V30 1203 C 117.234 0.594278 -1.58634 0
M  V30 1204 O 118.44 0.482613 -1.73409 0
M  V30 1205 H 114.815 -0.0717521 -0.748569 0
M  V30 1206 H 116.786 -1.12222 -2.76494 0
M  V30 1207 C 115.535 0.521108 -3.43773 0
M  V30 1208 H 114.858 -0.142141 -3.99547 0
M  V30 1209 H 116.298 0.885693 -4.14646 0
M  V30 1210 C 114.757 1.70442 -2.90605 0
M  V30 1211 O 115.287 2.8034 -2.87702 0
M  V30 1212 N 113.493 1.52991 -2.47067 0
M  V30 1213 H 113.04 0.635914 -2.49628 0
M  V30 1214 H 112.998 2.32311 -2.11847 0
M  V30 1215 N 116.77 1.45427 -0.607355 0
M  V30 1216 C 117.718 2.32269 0.12411 0
M  V30 1217 C 118.712 1.45955 0.859854 0
M  V30 1218 O 119.918 1.6244 0.775447 0
M  V30 1219 H 116.293 0.749691 0.0588839 0
M  V30 1220 H 118.264 2.91743 -0.626762 0
M  V30 1221 C 117.013 3.29567 1.1082 0
M  V30 1222 H 116.336 3.95978 0.551492 0
M  V30 1223 H 117.776 3.93061 1.58995 0
M  V30 1224 C 116.235 2.56722 2.18164 0
M  V30 1225 O 116.765 2.34842 3.25902 0
M  V30 1226 N 114.971 2.16861 1.93442 0
M  V30 1227 H 114.518 2.34855 1.05834 0
M  V30 1228 H 114.476 1.68444 2.65469 0
M  V30 1229 N 118.248 0.346503 1.53744 0
M  V30 1230 C 119.494 -0.242135 2.01954 0
M  V30 1231 C 119.849 -1.47962 1.22984 0
M  V30 1232 O 119.142 -1.89077 0.309924 0
M  V30 1233 C 119.336 -0.605809 3.52228 0
M  V30 1234 C 119.165 0.594882 4.45748 0
M  V30 1235 C 117.935 1.1011 4.93157 0
M  V30 1236 C 120.133 1.45425 4.93311 0
M  V30 1237 N 118.115 2.26381 5.70636 0
M  V30 1238 C 119.486 2.46383 5.68942 0
M  V30 1239 C 121.541 1.47935 4.75415 0
M  V30 1240 C 120.244 3.49684 6.28581 0
M  V30 1241 C 122.27 2.50119 5.35905 0
M  V30 1242 C 121.632 3.49803 6.11406 0
M  V30 1243 H 117.731 -0.0518296 0.780281 0
M  V30 1244 H 120.315 0.486736 1.88518 0
M  V30 1245 H 118.486 -1.30378 3.65864 0
M  V30 1246 H 120.218 -1.17789 3.87179 0
M  V30 1247 H 116.973 0.668721 4.68855 0
M  V30 1248 H 117.397 2.85094 6.14044 0
M  V30 1249 H 122.039 0.722274 4.16585 0
M  V30 1250 H 119.757 4.26285 6.86518 0
M  V30 1251 H 123.343 2.52892 5.23963 0
M  V30 1252 H 122.223 4.27576 6.5738 0
M  V30 1253 N 119.726 -1.57421 0.075193 0
M  V30 1254 C 120.656 -2.15942 -0.888324 0
M  V30 1255 C 121.637 -1.08737 -1.30806 0
M  V30 1256 O 122.822 -1.36787 -1.37851 0
M  V30 1257 C 119.952 -2.72379 -2.1547 0
M  V30 1258 C 118.906 -3.8478 -1.87425 0
M  V30 1259 C 118.232 -4.27834 -3.20721 0
M  V30 1260 C 119.532 -5.08869 -1.17684 0
M  V30 1261 H 121.226 -2.96705 -0.400799 0
M  V30 1262 H 118.772 -1.42723 -0.191342 0
M  V30 1263 H 120.725 -3.11965 -2.83295 0
M  V30 1264 H 119.449 -1.88841 -2.6647 0
M  V30 1265 H 118.108 -3.45703 -1.22004 0
M  V30 1266 H 117.756 -3.41214 -3.6957 0
M  V30 1267 H 117.456 -5.03605 -3.02746 0
M  V30 1268 H 118.98 -4.70039 -3.89738 0
M  V30 1269 H 120.394 -5.4575 -1.75584 0
M  V30 1270 H 118.791 -5.8994 -1.09956 0
M  V30 1271 H 119.861 -4.84648 -0.156453 0
M  V30 1272 N 121.204 0.198386 -1.56346 0
M  V30 1273 C 122.62 0.549085 -1.49857 0
M  V30 1274 C 122.82 1.86016 -0.774611 0
M  V30 1275 O 121.876 2.50416 -0.323776 0
M  V30 1276 C 123.189 0.606868 -2.94512 0
M  V30 1277 C 124.737 0.695925 -3.05165 0
M  V30 1278 C 125.212 0.784848 -4.51225 0
M  V30 1279 N 126.703 0.848463 -4.55363 0
M  V30 1280 C 127.438 0.937378 -5.65686 0
M  V30 1281 N 126.934 0.9888 -6.85707 0
M  V30 1282 N 128.727 0.974312 -5.53592 0
M  V30 1283 H 120.878 -0.661655 -2.01831 0
M  V30 1284 H 123.141 -0.235261 -0.918344 0
M  V30 1285 H 122.847 -0.28732 -3.50524 0
M  V30 1286 H 122.721 1.46268 -3.47686 0
M  V30 1287 H 125.108 1.58055 -2.49204 0
M  V30 1288 H 125.189 -0.186022 -2.55123 0
M  V30 1289 H 124.833 -0.0954072 -5.0781 0
M  V30 1290 H 124.763 1.68255 -4.98997 0
M  V30 1291 H 127.254 0.818103 -3.68938 0
M  V30 1292 H 127.567 1.05707 -7.65536 0
M  V30 1293 H 125.912 0.957534 -6.88372 0
M  V30 1294 H 129.103 0.930954 -4.58749 0
M  V30 1295 H 129.276 1.04015 -6.39597 0
M  V30 1296 N 122.682 1.50554 0.465978 0
M  V30 1297 C 123.91 1.65563 1.24083 0
M  V30 1298 C 124.325 0.341051 1.85694 0
M  V30 1299 O 123.682 -0.677543 1.69457 0
M  V30 1300 C 123.733 2.75051 2.34583 0
M  V30 1301 O 123.454 4.01413 1.75497 0
M  V30 1302 C 124.955 3.01078 3.25372 0
M  V30 1303 H 122.175 0.55638 0.375077 0
M  V30 1304 H 124.719 1.96807 0.555624 0
M  V30 1305 H 122.874 2.46486 2.9887 0
M  V30 1306 H 123.288 4.62002 2.48303 0
M  V30 1307 H 124.762 3.81339 3.99105 0
M  V30 1308 H 125.239 2.12349 3.84453 0
M  V30 1309 H 125.845 3.31194 2.66816 0
M  V30 1310 N 124.16 -0.719506 1.40217 0
M  V30 1311 C 125.108 -1.85493 1.40339 0
M  V30 1312 C 126.102 -1.66995 0.284415 0
M  V30 1313 O 127.308 -1.74148 0.455252 0
M  V30 1314 H 123.683 -0.610857 0.438586 0
M  V30 1315 H 125.654 -1.82506 2.36081 0
M  V30 1316 C 124.403 -3.23321 1.27901 0
M  V30 1317 H 123.726 -3.38159 2.1328 0
M  V30 1318 H 125.166 -4.02914 1.32045 0
M  V30 1319 C 123.625 -3.36898 -0.0111355 0
M  V30 1320 O 124.155 -3.89674 -0.975538 0
M  V30 1321 N 122.361 -2.90492 -0.0793393 0
M  V30 1322 H 121.908 -2.47731 0.706183 0
M  V30 1323 H 121.866 -2.99955 -0.942038 0
M  V30 1324 N 125.638 -1.25649 -0.95132 0
M  V30 1325 C 126.884 -1.11766 -1.69941 0
M  V30 1326 C 127.239 0.33735 -1.89419 0
M  V30 1327 O 126.532 1.24491 -1.45645 0
M  V30 1328 C 126.726 -1.80909 -3.08231 0
M  V30 1329 C 126.555 -3.32984 -3.02245 0
M  V30 1330 C 125.325 -4.02247 -3.05819 0
M  V30 1331 C 127.523 -4.29332 -2.83157 0
M  V30 1332 N 125.505 -5.41072 -2.90024 0
M  V30 1333 C 126.876 -5.55265 -2.75828 0
M  V30 1334 C 128.931 -4.19707 -2.67863 0
M  V30 1335 C 127.634 -6.72671 -2.54767 0
M  V30 1336 C 129.66 -5.36809 -2.48173 0
M  V30 1337 C 129.022 -6.61683 -2.41567 0
M  V30 1338 H 125.121 -0.463708 -0.629682 0
M  V30 1339 H 127.705 -1.58796 -1.12659 0
M  V30 1340 H 125.876 -1.36369 -3.63673 0
M  V30 1341 H 127.608 -1.59739 -3.71841 0
M  V30 1342 H 124.363 -3.53531 -3.15139 0
M  V30 1343 H 124.787 -6.13938 -2.85323 0
M  V30 1344 H 129.429 -3.23907 -2.71743 0
M  V30 1345 H 127.147 -7.68577 -2.49629 0
M  V30 1346 H 130.733 -5.31224 -2.37259 0
M  V30 1347 H 129.613 -7.50768 -2.26531 0
M  V30 1348 N 127.117 1.15442 -1.07289 0
M  V30 1349 C 128.363 1.86489 -0.796846 0
M  V30 1350 C 128.696 1.82078 0.675371 0
M  V30 1351 O 127.971 1.24346 1.4956 0
M  V30 1352 C 128.254 3.35626 -1.30489 0
M  V30 1353 C 128.107 3.48673 -2.84161 0
M  V30 1354 C 129.426 4.30357 -0.920907 0
M  V30 1355 H 126.545 0.677144 -0.290939 0
M  V30 1356 H 129.187 1.35633 -1.33056 0
M  V30 1357 H 127.337 3.79068 -0.850883 0
M  V30 1358 H 129.009 3.14099 -3.37846 0
M  V30 1359 H 127.252 2.90253 -3.22391 0
M  V30 1360 H 127.923 4.53453 -3.14777 0
M  V30 1361 H 130.399 3.94871 -1.3121 0
M  V30 1362 H 129.275 5.33193 -1.30372 0
M  V30 1363 H 129.536 4.4176 0.173226 0
M  V30 1364 N 128.595 0.856903 1.32268 0
M  V30 1365 C 130.006 0.515711 1.79436 0
M  V30 1366 C 130.357 -0.966586 1.70738 0
M  V30 1367 O 129.482 -1.75409 1.26731 0
M  V30 1368 C 130.077 0.929335 3.25805 0
M  V30 1369 C 128.636 0.640006 3.70919 0
M  V30 1370 C 127.783 1.12784 2.53328 0
M  V30 1371 H 130.734 1.04389 1.19535 0
M  V30 1372 H 130.755 0.246633 3.797 0
M  V30 1373 H 130.267 2.00821 3.32103 0
M  V30 1374 H 128.368 -0.428051 3.70133 0
M  V30 1375 H 128.481 1.20788 4.63624 0
M  V30 1376 H 126.845 0.548033 2.48734 0
M  V30 1377 H 127.628 2.21387 2.62379 0
M  V30 1378 N 130.073 -1.45103 0.615059 0
M  V30 1379 C 131.489 -1.57137 0.279322 0
M  V30 1380 C 131.689 -1.60523 -1.21797 0
M  V30 1381 O 130.745 -1.53956 -2.00134 0
M  V30 1382 C 132.058 -2.85062 0.957083 0
M  V30 1383 C 133.606 -2.98749 0.933706 0
M  V30 1384 C 134.081 -4.29455 1.59162 0
M  V30 1385 N 135.572 -4.36231 1.55746 0
M  V30 1386 C 136.307 -5.36051 2.0356 0
M  V30 1387 N 135.803 -6.42367 2.59494 0
M  V30 1388 N 137.596 -5.27456 1.94284 0
M  V30 1389 H 129.747 -1.41148 1.58717 0
M  V30 1390 H 132.01 -0.675331 0.665306 0
M  V30 1391 H 131.716 -2.88488 2.01166 0
M  V30 1392 H 131.59 -3.7407 0.48494 0
M  V30 1393 H 133.977 -2.94886 -0.112347 0
M  V30 1394 H 134.058 -2.11132 1.44419 0
M  V30 1395 H 133.702 -4.34077 2.63704 0
M  V30 1396 H 133.632 -5.15901 1.0561 0
M  V30 1397 H 136.123 -3.60011 1.14893 0
M  V30 1398 H 136.436 -7.14793 2.93752 0
M  V30 1399 H 134.781 -6.43097 2.63537 0
M  V30 1400 H 137.972 -4.43308 1.5032 0
M  V30 1401 H 138.145 -6.05099 2.3186 0
M  V30 1402 N 131.551 -0.354651 -1.53558 0
M  V30 1403 C 132.499 0.512195 -2.26891 0
M  V30 1404 C 133.493 1.09263 -1.29452 0
M  V30 1405 O 134.699 1.03709 -1.47121 0
M  V30 1406 H 131.074 0.183878 -0.729173 0
M  V30 1407 H 133.045 -0.128202 -2.98124 0
M  V30 1408 C 131.794 1.64563 -3.06291 0
M  V30 1409 H 131.117 1.20829 -3.81104 0
M  V30 1410 H 132.557 2.22711 -3.60799 0
M  V30 1411 C 131.016 2.58158 -2.16462 0
M  V30 1412 O 131.546 3.60695 -1.76811 0
M  V30 1413 N 129.752 2.27096 -1.81317 0
M  V30 1414 H 129.299 1.43751 -2.1376 0
M  V30 1415 H 129.257 2.89975 -1.21498 0
M  V30 1416 N 133.029 1.57378 -0.0835403 0
M  V30 1417 C 134.254 1.98682 0.594987 0
M  V30 1418 C 134.679 0.961969 1.61641 0
M  V30 1419 O 134.037 -0.0709989 1.81161 0
M  V30 1420 C 134.085 3.38988 1.2296 0
M  V30 1421 O 133.189 3.39208 2.34546 0
M  V30 1422 H 132.53 0.646368 0.152002 0
M  V30 1423 H 135.06 2.03961 -0.161533 0
M  V30 1424 H 135.07 3.76431 1.57366 0
M  V30 1425 H 133.745 4.13107 0.481228 0
M  V30 1426 H 132.322 3.13548 2.01846 0
M  V30 1427 N 134.507 -0.190092 1.56449 0
M  V30 1428 C 135.47 -1.21925 1.9408 0
M  V30 1429 C 136.47 -1.38176 0.822431 0
M  V30 1430 O 137.66 -1.35903 1.08977 0
M  V30 1431 C 134.792 -2.58773 2.21922 0
M  V30 1432 H 135.985 -0.897464 2.86157 0
M  V30 1433 H 133.538 -0.43181 1.50217 0
M  V30 1434 H 134.273 -2.95998 1.32499 0
M  V30 1435 H 134.058 -2.48348 3.03424 0
M  V30 1436 H 135.548 -3.32978 2.52022 0
M  V30 1437 N 135.985 -1.50799 -0.457987 0
M  V30 1438 C 136.917 -1.66786 -1.57211 0
M  V30 1439 C 137.93 -0.548962 -1.53265 0
M  V30 1440 O 139.119 -0.8226 -1.58416 0
M  V30 1441 C 136.219 -1.64834 -2.96113 0
M  V30 1442 C 135.392 -2.92971 -3.24787 0
M  V30 1443 C 134.451 -2.83485 -4.43309 0
M  V30 1444 O 133.477 -3.5744 -4.42973 0
M  V30 1445 N 134.679 -1.97929 -5.45714 0
M  V30 1446 H 137.444 -2.62889 -1.43909 0
M  V30 1447 H 135.005 -1.48427 -0.646617 0
M  V30 1448 H 136.997 -1.56084 -3.7339 0
M  V30 1449 H 135.567 -0.764118 -3.03117 0
M  V30 1450 H 134.787 -3.15749 -2.36 0
M  V30 1451 H 136.075 -3.77834 -3.40762 0
M  V30 1452 H 135.473 -1.37182 -5.48815 0
M  V30 1453 H 134.03 -1.95073 -6.21924 0
M  V30 1454 N 137.463 0.71206 -1.40597 0
M  V30 1455 C 138.41 1.82613 -1.41142 0
M  V30 1456 C 139.38 1.63925 -0.267903 0
M  V30 1457 O 140.565 1.85009 -0.466495 0
M  V30 1458 C 137.705 3.20354 -1.28324 0
M  V30 1459 C 136.818 3.50589 -2.52411 0
M  V30 1460 C 135.953 4.77855 -2.32009 0
M  V30 1461 C 134.992 5.01005 -3.51654 0
M  V30 1462 N 134.129 6.19487 -3.30425 0
M  V30 1463 H 138.969 1.81482 -2.36365 0
M  V30 1464 H 136.506 0.886475 -1.17388 0
M  V30 1465 H 138.464 3.99899 -1.18899 0
M  V30 1466 H 137.094 3.20705 -0.367189 0
M  V30 1467 H 136.146 2.65573 -2.72351 0
M  V30 1468 H 137.458 3.63604 -3.41458 0
M  V30 1469 H 136.612 5.65424 -2.19956 0
M  V30 1470 H 135.351 4.67056 -1.40392 0
M  V30 1471 H 134.356 4.1189 -3.64179 0
M  V30 1472 H 135.581 5.13674 -4.44202 0
M  V30 1473 H 133.527 6.09932 -2.41494 0
M  V30 1474 H 133.444 6.33194 -4.13039 0
M  V30 1475 H 134.712 7.09834 -3.22113 0
M  V30 1476 N 138.941 1.26152 0.944643 0
M  V30 1477 C 140.19 1.10883 1.68487 0
M  V30 1478 C 140.503 -0.348153 1.92477 0
M  V30 1479 O 141.709 -0.621459 2.64292 0
M  V30 1480 C 140.165 1.93624 3.03377 0
M  V30 1481 C 139.773 3.43875 2.87148 0
M  V30 1482 C 141.517 1.86954 3.81115 0
M  V30 1483 C 139.424 4.18875 4.1749 0
M  V30 1484 H 138.354 0.41135 0.631907 0
M  V30 1485 H 141.005 1.50433 1.05082 0
M  V30 1486 H 139.387 1.46904 3.67743 0
M  V30 1487 H 140.561 3.98338 2.31653 0
M  V30 1488 H 138.876 3.51744 2.22856 0
M  V30 1489 H 141.473 2.40275 4.77673 0
M  V30 1490 H 141.816 0.839518 4.07747 0
M  V30 1491 H 142.349 2.31477 3.23517 0
M  V30 1492 H 139.088 5.22332 3.96043 0
M  V30 1493 H 138.608 3.69193 4.72712 0
M  V30 1494 H 140.287 4.27134 4.85968 0
M  V30 1495 N 140.419 -1.14872 1.07899 0
M  V30 1496 C 141.649 -1.89386 0.825631 0
M  V30 1497 C 142.057 -1.78565 -0.625406 0
M  V30 1498 O 141.4 -1.13918 -1.44113 0
M  V30 1499 C 141.462 -3.40206 1.16191 0
M  V30 1500 C 141.126 -3.74812 2.61467 0
M  V30 1501 C 142.123 -3.75367 3.59716 0
M  V30 1502 C 139.808 -4.0495 2.97189 0
M  V30 1503 C 141.802 -4.05574 4.9172 0
M  V30 1504 C 139.489 -4.34821 4.29388 0
M  V30 1505 C 140.487 -4.35116 5.26463 0
M  V30 1506 O 140.175 -4.64267 6.56286 0
M  V30 1507 H 139.907 -0.606894 0.297751 0
M  V30 1508 H 142.461 -1.46438 1.44031 0
M  V30 1509 H 140.691 -3.8358 0.490214 0
M  V30 1510 H 142.38 -3.96018 0.890193 0
M  V30 1511 H 143.146 -3.52176 3.33462 0
M  V30 1512 H 139.025 -4.03876 2.22273 0
M  V30 1513 H 142.569 -4.05719 5.67484 0
M  V30 1514 H 138.466 -4.5748 4.55392 0
M  V30 1515 H 139.234 -4.82007 6.61522 0
M  V30 1516 N 141.898 -0.863906 -1.31812 0
M  V30 1517 C 143.144 -0.472535 -1.97218 0
M  V30 1518 C 143.477 0.971394 -1.68159 0
M  V30 1519 O 142.752 1.68309 -0.974798 0
M  V30 1520 C 143.035 -0.723054 -3.52766 0
M  V30 1521 C 142.888 -2.21608 -3.91421 0
M  V30 1522 C 144.207 -0.185522 -4.39709 0
M  V30 1523 H 141.326 -0.173158 -0.71637 0
M  V30 1524 H 143.968 -1.08403 -1.56041 0
M  V30 1525 H 142.118 -0.202577 -3.87971 0
M  V30 1526 H 143.79 -2.80334 -3.66347 0
M  V30 1527 H 142.033 -2.691 -3.40246 0
M  V30 1528 H 142.704 -2.34203 -4.99853 0
M  V30 1529 H 145.18 -0.630726 -4.11292 0
M  V30 1530 H 144.056 -0.390306 -5.47511 0
M  V30 1531 H 144.317 0.912229 -4.32586 0
M  V30 1532 N 143.376 1.44774 -0.622745 0
M  V30 1533 C 144.286 2.34433 0.0886031 0
M  V30 1534 C 145.302 1.52131 0.844529 0
M  V30 1535 O 146.478 1.84886 0.798691 0
M  V30 1536 C 143.543 3.29986 1.0635 0
M  V30 1537 C 142.604 4.28195 0.307873 0
M  V30 1538 C 141.837 5.19183 1.23633 0
M  V30 1539 O 142.06 5.13918 2.47476 0
M  V30 1540 O 140.994 5.97515 0.725189 0
M  V30 1541 H 144.82 2.96693 -0.648599 0
M  V30 1542 H 142.405 1.44408 -0.382957 0
M  V30 1543 H 144.287 3.88825 1.6246 0
M  V30 1544 H 142.962 2.70269 1.78146 0
M  V30 1545 H 141.869 3.72927 -0.296064 0
M  V30 1546 H 143.202 4.90808 -0.3699 0
M  V30 1547 N 144.854 0.36279 1.53368 0
M  V30 1548 C 145.784 -0.476976 2.28576 0
M  V30 1549 C 146.765 -1.08631 1.30894 0
M  V30 1550 O 147.95 -1.10409 1.59761 0
M  V30 1551 C 145.08 -1.61828 3.07293 0
M  V30 1552 C 144.034 -1.13633 4.1264 0
M  V30 1553 C 143.36 -2.36766 4.79423 0
M  V30 1554 C 144.66 -0.223061 5.21823 0
M  V30 1555 H 146.354 0.150474 2.99022 0
M  V30 1556 H 143.9 0.0738103 1.43811 0
M  V30 1557 H 145.853 -2.21237 3.58653 0
M  V30 1558 H 144.577 -2.27292 2.34533 0
M  V30 1559 H 143.236 -0.564945 3.62221 0
M  V30 1560 H 142.884 -3.0068 4.03238 0
M  V30 1561 H 142.584 -2.05192 5.50609 0
M  V30 1562 H 144.108 -2.96865 5.33576 0
M  V30 1563 H 145.522 -0.724545 5.68703 0
M  V30 1564 H 143.919 0.001678 6.001 0
M  V30 1565 H 144.989 0.735553 4.79289 0
M  V30 1566 N 146.332 -1.57332 0.0918853 0
M  V30 1567 C 147.279 -2.13847 -0.868211 0
M  V30 1568 C 148.249 -1.05618 -1.28196 0
M  V30 1569 O 149.434 -1.33387 -1.36427 0
M  V30 1570 C 146.574 -2.72062 -2.12312 0
M  V30 1571 C 145.687 -3.94514 -1.7602 0
M  V30 1572 C 144.822 -4.40903 -2.96273 0
M  V30 1573 C 143.861 -5.55953 -2.56092 0
M  V30 1574 N 142.998 -5.97209 -3.69169 0
M  V30 1575 H 147.838 -2.95575 -0.379406 0
M  V30 1576 H 145.375 -1.46048 -0.175606 0
M  V30 1577 H 147.333 -3.03931 -2.858 0
M  V30 1578 H 145.963 -1.93068 -2.58698 0
M  V30 1579 H 145.015 -3.68979 -0.925135 0
M  V30 1580 H 146.327 -4.7802 -1.42472 0
M  V30 1581 H 145.481 -4.74539 -3.78018 0
M  V30 1582 H 144.22 -3.56291 -3.33029 0
M  V30 1583 H 143.225 -5.21948 -1.72773 0
M  V30 1584 H 144.45 -6.42311 -2.20484 0
M  V30 1585 H 142.396 -5.15543 -4.05649 0
M  V30 1586 H 142.313 -6.75504 -3.39456 0
M  V30 1587 H 143.581 -6.35475 -4.51434 0
M  V30 1588 N 147.81 0.181792 -1.56548 0
M  V30 1589 C 149.057 0.900097 -1.81396 0
M  V30 1590 C 149.385 1.82695 -0.667281 0
M  V30 1591 O 148.64 1.92614 0.346146 0
M  V30 1592 C 148.939 1.73728 -3.12335 0
M  V30 1593 C 148.605 0.960255 -4.40556 0
M  V30 1594 C 147.267 0.745766 -4.75386 0
M  V30 1595 C 149.619 0.414477 -5.19549 0
M  V30 1596 C 146.947 -0.0257694 -5.86694 0
M  V30 1597 C 149.299 -0.343916 -6.31664 0
M  V30 1598 C 147.963 -0.569301 -6.65068 0
M  V30 1599 H 147.233 0.329369 -0.663775 0
M  V30 1600 H 149.88 0.165647 -1.90782 0
M  V30 1601 H 148.185 2.54081 -2.98245 0
M  V30 1602 H 149.882 2.29591 -3.28769 0
M  V30 1603 H 146.472 1.13746 -4.13231 0
M  V30 1604 H 150.656 0.567554 -4.93044 0
M  V30 1605 H 145.912 -0.210233 -6.11038 0
M  V30 1606 H 150.086 -0.774133 -6.92084 0
M  V30 1607 H 147.713 -1.16903 -7.51158 0
M  V30 1608 N 149.288 1.51039 0.449983 0
M  V30 1609 C 150.516 1.66869 1.2232 0
M  V30 1610 C 150.931 0.360727 1.85322 0
M  V30 1611 O 150.288 -0.659531 1.70166 0
M  V30 1612 C 150.339 2.77524 2.31652 0
M  V30 1613 O 150.06 4.03252 1.7123 0
M  V30 1614 C 151.561 3.04512 3.2216 0
M  V30 1615 H 148.781 0.560326 0.369155 0
M  V30 1616 H 151.325 1.97385 0.534719 0
M  V30 1617 H 149.48 2.49642 2.96239 0
M  V30 1618 H 149.894 4.64609 2.43389 0
M  V30 1619 H 151.368 3.85551 3.95038 0
M  V30 1620 H 151.845 2.16415 3.8218 0
M  V30 1621 H 152.451 3.34005 2.63288 0
M  V30 1622 N 150.766 -0.704594 1.40972 0
M  V30 1623 C 151.696 -1.83124 1.44872 0
M  V30 1624 C 152.677 -1.67281 0.30838 0
M  V30 1625 O 153.862 -1.87149 0.518556 0
M  V30 1626 C 150.992 -3.21181 1.32136 0
M  V30 1627 C 149.946 -3.51714 2.43888 0
M  V30 1628 C 149.272 -4.89032 2.16222 0
M  V30 1629 C 150.572 -3.516 3.86232 0
M  V30 1630 H 152.266 -1.80117 2.39161 0
M  V30 1631 H 149.812 -0.865145 1.15114 0
M  V30 1632 H 151.765 -3.99702 1.33479 0
M  V30 1633 H 150.489 -3.24791 0.343279 0
M  V30 1634 H 149.148 -2.75539 2.41813 0
M  V30 1635 H 148.796 -4.89256 1.16778 0
M  V30 1636 H 148.496 -5.10426 2.911 0
M  V30 1637 H 150.02 -5.69873 2.19265 0
M  V30 1638 H 151.434 -4.2014 3.9007 0
M  V30 1639 H 149.831 -3.84523 4.60719 0
M  V30 1640 H 150.901 -2.50757 4.15029 0
M  V30 1641 N 152.244 -1.26651 -0.937939 0
M  V30 1642 C 153.66 -1.03834 -1.21205 0
M  V30 1643 C 153.86 0.234502 -2.00131 0
M  V30 1644 O 152.916 0.942767 -2.3424 0
M  V30 1645 C 154.229 -2.27167 -1.97017 0
M  V30 1646 C 155.777 -2.32101 -2.09996 0
M  V30 1647 C 156.252 -3.55136 -2.8921 0
M  V30 1648 N 157.743 -3.55632 -2.96783 0
M  V30 1649 C 158.478 -4.475 -3.58512 0
M  V30 1650 N 157.974 -5.4966 -4.21717 0
M  V30 1651 N 159.767 -4.35145 -3.55816 0
M  V30 1652 H 151.918 -2.08398 -0.410391 0
M  V30 1653 H 154.181 -0.916031 -0.244114 0
M  V30 1654 H 153.887 -3.19765 -1.46434 0
M  V30 1655 H 153.761 -2.31672 -2.97671 0
M  V30 1656 H 156.148 -1.40015 -2.59769 0
M  V30 1657 H 156.229 -2.31605 -1.08594 0
M  V30 1658 H 155.873 -4.47553 -2.40123 0
M  V30 1659 H 155.803 -3.5288 -3.90875 0
M  V30 1660 H 158.294 -2.81743 -2.51852 0
M  V30 1661 H 158.607 -6.15943 -4.66727 0
M  V30 1662 H 156.952 -5.53514 -4.20294 0
M  V30 1663 H 160.143 -3.5455 -3.05634 0
M  V30 1664 H 160.316 -5.06934 -4.03636 0
M  V30 1665 N 153.722 1.14298 -1.08507 0
M  V30 1666 C 154.999 1.81544 -0.728088 0
M  V30 1667 C 155.379 1.95838 0.78808 0
M  V30 1668 O 154.727 1.51904 1.70697 0
M  V30 1669 C 154.937 3.17169 -1.45619 0
M  V30 1670 C 156.285 3.9265 -1.61591 0
M  V30 1671 O 157.309 3.26762 -1.41793 0
M  V30 1672 O 156.168 5.10807 -1.94263 0
M  V30 1673 H 153.262 0.78491 -0.260471 0
M  V30 1674 H 155.808 1.21307 -1.18671 0
M  V30 1675 H 154.58 3.01934 -2.489 0
M  V30 1676 H 154.203 3.851 -0.989124 0
M  V30 1677 N 155.201 0.870884 1.31352 0
M  V30 1678 C 156.441 0.488783 1.9847 0
M  V30 1679 C 156.805 -0.941536 1.67329 0
M  V30 1680 O 158.006 -1.42903 2.27667 0
M  V30 1681 C 156.277 0.739688 3.49662 0
M  V30 1682 S 157.836 0.457582 4.36408 0
M  V30 1683 H 154.654 0.18242 0.6872 0
M  V30 1684 H 157.256 1.12711 1.59739 0
M  V30 1685 H 155.96 1.77944 3.69816 0
M  V30 1686 H 155.491 0.0883905 3.93301 0
M  V30 1687 H 157.506 -0.709752 4.91098 0
M  V30 1688 N 156.679 -1.44442 0.630414 0
M  V30 1689 C 157.627 -2.32437 -0.0871428 0
M  V30 1690 C 158.621 -1.47304 -0.836525 0
M  V30 1691 O 159.827 -1.63653 -0.749506 0
M  V30 1692 H 156.202 -0.750533 -0.0469495 0
M  V30 1693 H 158.173 -2.90709 0.673096 0
M  V30 1694 C 156.922 -3.31288 -1.05563 0
M  V30 1695 H 156.245 -3.96805 -0.488426 0
M  V30 1696 H 157.685 -3.9554 -1.52721 0
M  V30 1697 C 156.144 -2.6016 -2.14052 0
M  V30 1698 O 156.674 -2.39997 -3.22124 0
M  V30 1699 N 154.88 -2.19911 -1.89967 0
M  V30 1700 H 154.427 -2.36509 -1.02085 0
M  V30 1701 H 154.385 -1.72646 -2.62756 0
M  V30 1702 N 158.157 -0.370918 -1.53173 0
M  V30 1703 C 159.382 0.220293 -2.06227 0
M  V30 1704 C 159.807 1.41243 -1.24225 0
M  V30 1705 O 159.165 1.79387 -0.262645 0
M  V30 1706 C 159.213 0.586663 -3.55796 0
M  V30 1707 O 158.317 1.68317 -3.76488 0
M  V30 1708 H 157.658 0.0308099 -0.663285 0
M  V30 1709 H 160.188 -0.533068 -1.97534 0
M  V30 1710 H 160.198 0.85617 -3.98916 0
M  V30 1711 H 158.873 -0.285013 -4.14922 0
M  V30 1712 H 157.45 1.40881 -3.45264 0
M  V30 1713 N 159.635 1.57281 -0.100228 0
M  V30 1714 C 160.884 1.93713 0.561984 0
M  V30 1715 C 161.197 0.984492 1.69018 0
M  V30 1716 O 162.403 1.24273 2.41389 0
M  V30 1717 C 160.859 3.4421 1.05106 0
M  V30 1718 C 160.467 4.47975 -0.0476628 0
M  V30 1719 C 162.211 3.89595 1.68571 0
M  V30 1720 C 160.118 5.89631 0.457055 0
M  V30 1721 H 159.048 0.723082 0.2137 0
M  V30 1722 H 161.699 1.82644 -0.177057 0
M  V30 1723 H 160.081 3.50449 1.84395 0
M  V30 1724 H 161.255 4.53385 -0.823333 0
M  V30 1725 H 159.57 4.1223 -0.587816 0
M  V30 1726 H 162.167 4.92832 2.07414 0
M  V30 1727 H 162.51 3.28526 2.55688 0
M  V30 1728 H 163.043 3.86078 0.958562 0
M  V30 1729 H 159.782 6.54411 -0.377616 0
M  V30 1730 H 159.302 5.87681 1.19962 0
M  V30 1731 H 160.981 6.40363 0.92437 0
M  V30 1732 N 161.113 -0.173488 1.56642 0
M  V30 1733 C 162.524 -0.736155 1.71574 0
M  V30 1734 C 162.875 -1.82888 0.710389 0
M  V30 1735 O 162 -2.16017 -0.1287 0
M  V30 1736 C 162.595 -1.34211 3.11083 0
M  V30 1737 C 161.154 -1.85162 3.27707 0
M  V30 1738 C 160.301 -0.729765 2.67525 0
M  V30 1739 H 163.252 0.0518786 1.58615 0
M  V30 1740 H 163.273 -2.21178 3.09613 0
M  V30 1741 H 162.785 -0.546579 3.84232 0
M  V30 1742 H 160.886 -2.67366 2.59512 0
M  V30 1743 H 160.999 -1.99855 4.35425 0
M  V30 1744 H 159.363 -1.14965 2.27278 0
M  V30 1745 H 160.146 0.0538806 3.43258 0
M  V30 1746 N 162.591 -1.51276 -0.441967 0
M  V30 1747 C 163.521 -1.752 -1.54361 0
M  V30 1748 C 164.502 -0.601682 -1.59103 0
M  V30 1749 O 165.687 -0.843913 -1.74905 0
M  V30 1750 C 162.817 -1.87282 -2.92477 0
M  V30 1751 C 161.771 -3.02687 -3.02596 0
M  V30 1752 C 161.097 -2.99947 -4.42647 0
M  V30 1753 C 162.397 -4.4273 -2.77106 0
M  V30 1754 H 164.091 -2.67442 -1.34592 0
M  V30 1755 H 161.637 -1.28694 -0.646048 0
M  V30 1756 H 163.59 -2.02602 -3.695 0
M  V30 1757 H 162.314 -0.916844 -3.13467 0
M  V30 1758 H 160.973 -2.87065 -2.28012 0
M  V30 1759 H 160.621 -2.02136 -4.60597 0
M  V30 1760 H 160.321 -3.77439 -4.50348 0
M  V30 1761 H 161.845 -3.17354 -5.2165 0
M  V30 1762 H 163.259 -4.58727 -3.43864 0
M  V30 1763 H 161.656 -5.21893 -2.96222 0
M  V30 1764 H 162.726 -4.53087 -1.72744 0
M  V30 1765 N 164.069 0.697108 -1.41344 0
M  V30 1766 C 165.315 1.4593 -1.40827 0
M  V30 1767 C 165.648 1.94193 -0.0167098 0
M  V30 1768 O 164.923 1.69425 0.955263 0
M  V30 1769 C 165.206 2.67229 -2.41373 0
M  V30 1770 C 165.059 2.24741 -3.8963 0
M  V30 1771 C 166.378 3.69423 -2.39196 0
M  V30 1772 H 163.497 0.529303 -0.512842 0
M  V30 1773 H 166.139 0.794112 -1.72609 0
M  V30 1774 H 164.289 3.23982 -2.14401 0
M  V30 1775 H 165.961 1.73327 -4.27499 0
M  V30 1776 H 164.204 1.56542 -4.0457 0
M  V30 1777 H 164.875 3.1177 -4.55525 0
M  V30 1778 H 167.351 3.2234 -2.63128 0
M  V30 1779 H 166.227 4.51907 -3.11563 0
M  V30 1780 H 166.488 4.19012 -1.41001 0
M  V30 1781 N 165.547 1.27147 0.931209 0
M  V30 1782 C 166.477 1.12081 2.04842 0
M  V30 1783 C 167.458 0.0232364 1.70084 0
M  V30 1784 O 168.643 0.197085 1.93197 0
M  V30 1785 C 165.773 0.76354 3.38803 0
M  V30 1786 C 164.727 1.81396 3.87659 0
M  V30 1787 C 164.053 1.31075 5.18385 0
M  V30 1788 C 165.353 3.21739 4.11438 0
M  V30 1789 H 167.047 2.05537 2.17703 0
M  V30 1790 H 164.593 0.989603 1.04608 0
M  V30 1791 H 166.546 0.644982 4.16435 0
M  V30 1792 H 165.27 -0.206727 3.25945 0
M  V30 1793 H 163.929 1.92136 3.12217 0
M  V30 1794 H 163.577 0.330037 5.01916 0
M  V30 1795 H 163.277 2.013 5.52044 0
M  V30 1796 H 164.801 1.20506 5.98591 0
M  V30 1797 H 166.215 3.14019 4.79651 0
M  V30 1798 H 164.612 3.89644 4.56397 0
M  V30 1799 H 165.682 3.67054 3.16859 0
M  V30 1800 N 167.025 -1.13721 1.09112 0
M  V30 1801 C 168.273 -1.84559 0.823562 0
M  V30 1802 C 168.594 -1.83754 -0.652658 0
M  V30 1803 O 167.864 -1.29102 -1.47342 0
M  V30 1804 H 166.444 -0.683376 0.301673 0
M  V30 1805 H 169.106 -1.37771 1.37859 0
M  V30 1806 H 168.202 -2.8917 1.17419 0
M  V30 1807 N 168.503 -0.877838 -1.30888 0
M  V30 1808 C 169.731 -0.507414 -2.00581 0
M  V30 1809 C 170.146 0.902216 -1.65848 0
M  V30 1810 O 169.503 1.59225 -0.891831 0
M  V30 1811 C 169.554 -0.664162 -3.55347 0
M  V30 1812 O 169.275 -2.01829 -3.8884 0
M  V30 1813 C 170.776 -0.295787 -4.42312 0
M  V30 1814 H 167.996 -0.196866 -0.641471 0
M  V30 1815 H 170.54 -1.18117 -1.66939 0
M  V30 1816 H 168.695 -0.0378619 -3.87381 0
M  V30 1817 H 169.109 -2.03174 -4.8355 0
M  V30 1818 H 170.583 -0.456388 -5.5011 0
M  V30 1819 H 171.06 0.765663 -4.32475 0
M  V30 1820 H 171.666 -0.898113 -4.15709 0
M  V30 1821 N 169.982 1.44106 -0.638065 0
M  V30 1822 C 171.222 2.03858 -0.148733 0
M  V30 1823 C 171.586 1.49153 1.20903 0
M  V30 1824 O 172.787 2.00452 1.79088 0
M  V30 1825 C 171.058 3.57117 -0.142314 0
M  V30 1826 S 172.617 4.37897 0.281385 0
M  V30 1827 H 169.435 0.708069 -0.0644912 0
M  V30 1828 H 172.037 1.7639 -0.843009 0
M  V30 1829 H 170.741 3.94436 -1.13349 0
M  V30 1830 H 170.272 3.89205 0.572988 0
M  V30 1831 H 172.287 4.72218 1.52395 0
M  V30 1832 N 171.46 0.379036 1.52974 0
M  V30 1833 C 172.407 -0.461048 2.26148 0
M  V30 1834 C 173.377 -1.06637 1.27349 0
M  V30 1835 O 174.562 -1.09633 1.56157 0
M  V30 1836 C 171.702 -1.58782 3.06402 0
M  V30 1837 C 170.815 -1.00636 4.20115 0
M  V30 1838 C 169.95 -2.10334 4.87784 0
M  V30 1839 C 168.989 -1.49724 5.93506 0
M  V30 1840 N 168.126 -2.5331 6.54812 0
M  V30 1841 H 172.966 0.169429 2.97518 0
M  V30 1842 H 170.503 0.0953806 1.4679 0
M  V30 1843 H 172.461 -2.25174 3.51215 0
M  V30 1844 H 171.091 -2.18876 2.37261 0
M  V30 1845 H 170.143 -0.232332 3.7969 0
M  V30 1846 H 171.455 -0.523343 4.96047 0
M  V30 1847 H 170.609 -2.84519 5.35849 0
M  V30 1848 H 169.348 -2.61992 4.11353 0
M  V30 1849 H 168.353 -0.740598 5.44789 0
M  V30 1850 H 169.578 -0.988732 6.71864 0
M  V30 1851 H 167.524 -3.04156 5.81227 0
M  V30 1852 H 167.441 -2.09734 7.26325 0
M  V30 1853 H 168.709 -3.27155 7.07524 0
M  V30 1854 N 172.938 -1.57226 0.108567 0
M  V30 1855 C 173.848 -2.18292 -0.859401 0
M  V30 1856 C 174.864 -1.15612 -1.30038 0
M  V30 1857 O 176.04 -1.48039 -1.36552 0
M  V30 1858 C 173.105 -2.762 -2.09558 0
M  V30 1859 C 172.166 -3.93881 -1.70752 0
M  V30 1860 C 171.399 -4.49018 -2.88477 0
M  V30 1861 O 171.622 -4.03068 -4.036 0
M  V30 1862 O 170.556 -5.39852 -2.66164 0
M  V30 1863 H 174.382 -3.01441 -0.369769 0
M  V30 1864 H 171.967 -1.48945 -0.1165 0
M  V30 1865 H 173.849 -3.13156 -2.81978 0
M  V30 1866 H 172.524 -1.96089 -2.57548 0
M  V30 1867 H 171.431 -3.61713 -0.954714 0
M  V30 1868 H 172.764 -4.75396 -1.27513 0
M  V30 1869 N 174.416 0.165178 -1.56732 0
M  V30 1870 C 175.644 0.896218 -1.86482 0
M  V30 1871 C 176.059 1.75555 -0.694675 0
M  V30 1872 O 175.416 1.79379 0.33607 0
M  V30 1873 C 175.467 1.76792 -3.1532 0
M  V30 1874 O 175.188 0.943239 -4.27825 0
M  V30 1875 C 176.689 2.6081 -3.58459 0
M  V30 1876 H 173.909 0.260064 -0.618553 0
M  V30 1877 H 176.453 0.163428 -2.03846 0
M  V30 1878 H 174.608 2.45398 -2.99764 0
M  V30 1879 H 175.022 1.53998 -5.01383 0
M  V30 1880 H 176.496 3.17579 -4.51495 0
M  V30 1881 H 176.973 3.35977 -2.82872 0
M  V30 1882 H 177.579 1.97526 -3.76648 0
M  V30 1883 N 175.894 1.51508 0.433938 0
M  V30 1884 C 177.141 1.64345 1.18309 0
M  V30 1885 C 177.469 0.361315 1.91115 0
M  V30 1886 O 176.724 -0.654753 1.84422 0
M  V30 1887 C 177.023 2.79928 2.22205 0
M  V30 1888 C 176.689 4.19078 1.66387 0
M  V30 1889 C 175.351 4.56932 1.50887 0
M  V30 1890 C 177.703 5.05894 1.25381 0
M  V30 1891 C 175.031 5.79305 0.928608 0
M  V30 1892 C 177.383 6.2885 0.687823 0
M  V30 1893 C 176.047 6.65473 0.519755 0
M  V30 1894 H 175.317 0.601381 0.432923 0
M  V30 1895 H 177.964 1.85549 0.473676 0
M  V30 1896 H 176.269 2.52959 2.99197 0
M  V30 1897 H 177.966 2.87059 2.79997 0
M  V30 1898 H 174.556 3.89234 1.79428 0
M  V30 1899 H 178.74 4.77253 1.36175 0
M  V30 1900 H 173.996 6.06324 0.786186 0
M  V30 1901 H 178.17 6.95461 0.361581 0
M  V30 1902 H 175.797 7.6017 0.0679979 0
M  V30 1903 N 177.372 -0.689602 1.41712 0
M  V30 1904 C 178.32 -1.82475 1.44242 0
M  V30 1905 C 179.314 -1.66354 0.319774 0
M  V30 1906 O 180.52 -1.73143 0.492089 0
M  V30 1907 H 176.895 -0.601416 0.451445 0
M  V30 1908 H 178.866 -1.77458 2.39899 0
M  V30 1909 C 177.615 -3.20535 1.3473 0
M  V30 1910 H 176.938 -3.33559 2.20405 0
M  V30 1911 H 178.378 -4.00023 1.40562 0
M  V30 1912 C 176.837 -3.36846 0.0603281 0
M  V30 1913 O 177.367 -3.91656 -0.892663 0
M  V30 1914 N 175.573 -2.90595 -0.0177039 0
M  V30 1915 H 175.12 -2.46178 0.758572 0
M  V30 1916 H 175.078 -3.01886 -0.878201 0
M  V30 1917 N 178.85 -1.27639 -0.924453 0
M  V30 1918 C 179.78 -1.13166 -2.04244 0
M  V30 1919 C 180.761 -0.032256 -1.70069 0
M  V30 1920 O 181.946 -0.207328 -1.9309 0
M  V30 1921 C 179.076 -0.781496 -3.38393 0
M  V30 1922 C 178.03 -1.83449 -3.86692 0
M  V30 1923 C 177.356 -1.33822 -5.17683 0
M  V30 1924 C 178.656 -3.23917 -4.09726 0
M  V30 1925 H 180.35 -2.06689 -2.1661 0
M  V30 1926 H 177.896 -0.995136 -1.04082 0
M  V30 1927 H 179.849 -0.667057 -4.16087 0
M  V30 1928 H 178.573 0.189439 -3.2605 0
M  V30 1929 H 177.232 -1.93789 -3.11193 0
M  V30 1930 H 176.88 -0.35665 -5.01734 0
M  V30 1931 H 176.58 -2.04224 -5.50968 0
M  V30 1932 H 178.104 -1.23679 -5.97943 0
M  V30 1933 H 179.518 -3.16559 -4.77978 0
M  V30 1934 H 177.915 -3.92059 -4.54324 0
M  V30 1935 H 178.985 -3.68729 -3.14908 0
M  V30 1936 N 180.328 1.1314 -1.09713 0
M  V30 1937 C 181.558 1.88048 -0.855656 0
M  V30 1938 C 181.966 1.79537 0.596919 0
M  V30 1939 O 181.309 1.16196 1.42282 0
M  V30 1940 C 181.371 3.38314 -1.21589 0
M  V30 1941 C 181.035 3.70605 -2.67397 0
M  V30 1942 C 182.032 3.69596 -3.65643 0
M  V30 1943 C 179.717 4.0017 -3.03593 0
M  V30 1944 C 181.711 3.977 -4.9811 0
M  V30 1945 C 179.398 4.27935 -4.36251 0
M  V30 1946 C 180.396 4.26685 -5.33318 0
M  V30 1947 O 180.084 4.53767 -6.63589 0
M  V30 1948 H 179.816 0.60208 -0.307368 0
M  V30 1949 H 182.37 1.44128 -1.46343 0
M  V30 1950 H 180.6 3.82752 -0.551177 0
M  V30 1951 H 182.289 3.94552 -0.953083 0
M  V30 1952 H 183.055 3.46826 -3.39023 0
M  V30 1953 H 178.934 4.00289 -2.2867 0
M  V30 1954 H 182.478 3.9664 -5.73866 0
M  V30 1955 H 178.375 4.50178 -4.62613 0
M  V30 1956 H 179.143 4.71422 -6.69107 0
M  V30 1957 N 181.806 0.884767 1.30421 0
M  V30 1958 C 183.036 0.517293 2.00019 0
M  V30 1959 C 183.444 -0.898632 1.66497 0
M  V30 1960 O 182.787 -1.60245 0.898181 0
M  V30 1961 C 182.849 0.612025 3.54252 0
M  V30 1962 C 182.513 1.99222 4.1129 0
M  V30 1963 C 183.51 2.9616 4.273 0
M  V30 1964 C 181.195 2.29755 4.46674 0
M  V30 1965 C 183.189 4.21764 4.77906 0
M  V30 1966 C 180.876 3.55606 4.96979 0
M  V30 1967 C 181.874 4.51425 5.12547 0
M  V30 1968 O 181.562 5.75043 5.61766 0
M  V30 1969 H 181.294 0.198529 0.64619 0
M  V30 1970 H 183.848 1.1919 1.67281 0
M  V30 1971 H 182.078 -0.119561 3.86515 0
M  V30 1972 H 183.767 0.255859 4.05093 0
M  V30 1973 H 184.533 2.73882 4.00267 0
M  V30 1974 H 180.412 1.55942 4.33824 0
M  V30 1975 H 183.956 4.96561 4.89972 0
M  V30 1976 H 179.853 3.7772 5.23448 0
M  V30 1977 H 180.621 5.77422 5.80109 0
M  V30 1978 N 183.284 -1.43765 0.645699 0
M  V30 1979 C 184.217 -2.2798 -0.100072 0
M  V30 1980 C 185.195 -1.39391 -0.837194 0
M  V30 1981 O 186.379 -1.68833 -0.838306 0
M  V30 1982 C 183.506 -3.18643 -1.14823 0
M  V30 1983 C 182.552 -4.2344 -0.510009 0
M  V30 1984 S 183.385 -5.30761 0.710824 0
M  V30 1985 C 184.541 -6.24992 -0.33699 0
M  V30 1986 H 184.774 -2.90884 0.614322 0
M  V30 1987 H 182.307 -1.48166 0.434304 0
M  V30 1988 H 184.265 -3.71424 -1.74799 0
M  V30 1989 H 182.926 -2.54932 -1.8349 0
M  V30 1990 H 182.119 -4.86948 -1.29991 0
M  V30 1991 H 181.721 -3.73997 0.0154577 0
M  V30 1992 H 184.013 -6.66691 -1.20537 0
M  V30 1993 H 184.956 -7.07612 0.262879 0
M  V30 1994 H 185.364 -5.60517 -0.669425 0
M  V30 1995 N 184.763 -0.387143 -1.52771 0
M  V30 1996 C 185.673 0.456442 -2.30117 0
M  V30 1997 C 186.689 1.07342 -1.36944 0
M  V30 1998 O 187.865 1.07971 -1.70013 0
M  V30 1999 C 184.93 1.56957 -3.09136 0
M  V30 2000 C 183.991 0.977916 -4.18014 0
M  V30 2001 C 183.224 2.038 -4.93256 0
M  V30 2002 O 183.447 3.25271 -4.68567 0
M  V30 2003 O 182.381 1.6565 -5.78657 0
M  V30 2004 H 186.207 -0.17359 -3.03203 0
M  V30 2005 H 183.792 -0.150919 -1.48636 0
M  V30 2006 H 185.674 2.21628 -3.58412 0
M  V30 2007 H 184.349 2.18461 -2.38865 0
M  V30 2008 H 183.256 0.294525 -3.72939 0
M  V30 2009 H 184.589 0.407128 -4.90513 0
M  V30 2010 N 186.241 1.57166 -0.116904 0
M  V30 2011 C 187.466 1.999 0.55271 0
M  V30 2012 C 187.891 0.996039 1.59564 0
M  V30 2013 O 187.249 -0.032556 1.81271 0
M  V30 2014 C 187.297 3.4152 1.15742 0
M  V30 2015 O 186.401 3.44106 2.27299 0
M  V30 2016 H 185.742 0.649447 0.138258 0
M  V30 2017 H 188.272 2.03573 -0.204759 0
M  V30 2018 H 188.282 3.79684 1.49346 0
M  V30 2019 H 186.957 4.14034 0.393493 0
M  V30 2020 H 185.534 3.17759 1.9515 0
M  V30 2021 N 187.719 -0.156864 1.56817 0
M  V30 2022 C 188.996 -0.899244 1.73704 0
M  V30 2023 C 189.376 -1.99771 0.682254 0
M  V30 2024 O 188.724 -2.26515 -0.300522 0
M  V30 2025 C 188.934 -1.45075 3.17418 0
M  V30 2026 C 190.282 -1.91802 3.7881 0
M  V30 2027 O 191.306 -1.54838 3.20786 0
M  V30 2028 O 190.165 -2.5994 4.80722 0
M  V30 2029 H 187.259 -0.424267 0.709878 0
M  V30 2030 H 189.805 -0.143561 1.69092 0
M  V30 2031 H 188.577 -0.660846 3.85679 0
M  V30 2032 H 188.2 -2.27021 3.26416 0
M  V30 2033 N 189.197 -1.51736 -0.425897 0
M  V30 2034 C 190.474 -1.55519 -1.1863 0
M  V30 2035 C 190.854 -0.326219 -2.08564 0
M  V30 2036 O 190.202 0.688012 -2.17896 0
M  V30 2037 C 190.412 -2.87521 -1.9782 0
M  V30 2038 C 191.76 -3.39899 -2.54468 0
M  V30 2039 O 192.784 -2.89148 -2.08019 0
M  V30 2040 O 191.643 -4.2848 -3.39215 0
M  V30 2041 H 188.737 -0.625739 -0.540721 0
M  V30 2042 H 191.283 -1.64055 -0.434038 0
M  V30 2043 H 190.055 -3.68422 -1.31836 0
M  V30 2044 H 189.678 -2.822 -2.80088 0
M  V30 2045 N 190.675 0.682077 -1.42076 0
M  V30 2046 C 191.952 1.43755 -1.32642 0
M  V30 2047 C 192.332 2.11063 0.0396611 0
M  V30 2048 O 191.68 2.02701 1.05474 0
M  V30 2049 C 191.89 2.44596 -2.48946 0
M  V30 2050 C 193.238 3.09454 -2.9073 0
M  V30 2051 O 194.262 2.54922 -2.48783 0
M  V30 2052 O 193.121 4.08253 -3.63307 0
M  V30 2053 H 190.215 0.640857 -0.522715 0
M  V30 2054 H 192.761 0.711415 -1.54068 0
M  V30 2055 H 191.533 1.93609 -3.40046 0
M  V30 2056 H 191.156 3.24701 -2.29467 0
M  V30 2057 N 192.153 1.28127 0.917671 0
M  V30 2058 C 193.103 1.08361 2.00604 0
M  V30 2059 C 194.087 0.00847518 1.60898 0
M  V30 2060 O 195.279 0.228167 1.75523 0
M  V30 2061 C 192.408 0.743376 3.35155 0
M  V30 2062 C 191.494 1.85716 3.81275 0
M  V30 2063 N 191.885 3.09822 3.99805 0
M  V30 2064 C 190.183 1.74612 4.10398 0
M  V30 2065 C 190.884 3.82368 4.38372 0
M  V30 2066 N 189.86 3.10192 4.4641 0
M  V30 2067 H 193.662 2.02531 2.12975 0
M  V30 2068 H 191.176 1.18989 1.10523 0
M  V30 2069 H 193.173 0.582859 4.12805 0
M  V30 2070 H 191.833 -0.190595 3.2414 0
M  V30 2071 H 192.844 3.45475 3.85833 0
M  V30 2072 H 189.521 0.883657 4.08041 0
M  V30 2073 H 190.911 4.89082 4.60704 0
M  V30 2074 N 193.631 -1.12557 1.10312 0
M  V30 2075 C 194.879 -1.83675 0.843091 0
M  V30 2076 C 195.2 -1.84435 -0.633131 0
M  V30 2077 O 194.47 -1.30657 -1.45964 0
M  V30 2078 H 193.05 -0.680138 0.308904 0
M  V30 2079 H 195.712 -1.36301 1.39313 0
M  V30 2080 H 194.808 -2.87908 1.2048 0
M  V30 2081 N 195.109 -0.891671 -1.2995 0
M  V30 2082 C 196.355 -0.514261 -1.96171 0
M  V30 2083 C 196.688 0.935506 -1.70182 0
M  V30 2084 O 195.963 1.66204 -1.01028 0
M  V30 2085 C 196.246 -0.797719 -3.51153 0
M  V30 2086 C 196.099 -2.2986 -3.86632 0
M  V30 2087 C 197.418 -0.278749 -4.39216 0
M  V30 2088 H 194.537 -0.188314 -0.712535 0
M  V30 2089 H 197.179 -1.11689 -1.53706 0
M  V30 2090 H 195.329 -0.284826 -3.87455 0
M  V30 2091 H 197.001 -2.88042 -3.60319 0
M  V30 2092 H 195.244 -2.76257 -3.34462 0
M  V30 2093 H 195.915 -2.44753 -4.94773 0
M  V30 2094 H 198.391 -0.717825 -4.09862 0
M  V30 2095 H 197.267 -0.506353 -5.46559 0
M  V30 2096 H 197.528 0.820266 -4.34424 0
M  V30 2097 N 196.587 1.43421 -0.653314 0
M  V30 2098 C 197.534 2.30768 0.0382271 0
M  V30 2099 C 198.504 1.44755 0.814576 0
M  V30 2100 O 199.689 1.73624 0.791162 0
M  V30 2101 C 196.829 3.30336 0.998599 0
M  V30 2102 C 195.942 4.31448 0.218342 0
M  V30 2103 C 195.077 5.18098 1.17252 0
M  V30 2104 C 194.116 6.10902 0.382702 0
M  V30 2105 N 193.253 6.90176 1.28848 0
M  V30 2106 H 198.093 2.89357 -0.712511 0
M  V30 2107 H 195.63 1.42548 -0.363128 0
M  V30 2108 H 197.588 3.86572 1.56901 0
M  V30 2109 H 196.218 2.73397 1.71621 0
M  V30 2110 H 195.27 3.77506 -0.46836 0
M  V30 2111 H 196.582 4.97227 -0.395812 0
M  V30 2112 H 195.736 5.7896 1.81356 0
M  V30 2113 H 194.475 4.52444 1.82058 0
M  V30 2114 H 193.48 5.49128 -0.27169 0
M  V30 2115 H 194.705 6.78598 -0.260957 0
M  V30 2116 H 192.651 6.27171 1.92334 0
M  V30 2117 H 192.568 7.52478 0.728887 0
M  V30 2118 H 193.836 7.55543 1.91766 0
M  V30 2119 N 198.065 0.39524 1.52563 0
M  V30 2120 C 199.312 -0.185044 2.01653 0
M  V30 2121 C 199.64 -1.46317 1.28146 0
M  V30 2122 O 198.895 -1.9213 0.372074 0
M  V30 2123 C 199.194 -0.493444 3.53977 0
M  V30 2124 C 198.86 0.69384 4.4553 0
M  V30 2125 C 197.522 1.01954 4.70275 0
M  V30 2126 C 199.874 1.48785 4.99512 0
M  V30 2127 C 197.202 2.14069 5.46252 0
M  V30 2128 C 199.554 2.59965 5.76716 0
M  V30 2129 C 198.218 2.93037 5.99738 0
M  V30 2130 H 197.488 -0.0677123 0.7379 0
M  V30 2131 H 200.135 0.533807 1.8391 0
M  V30 2132 H 198.44 -1.29369 3.69825 0
M  V30 2133 H 200.137 -0.955163 3.89458 0
M  V30 2134 H 196.727 0.429987 4.26438 0
M  V30 2135 H 200.911 1.24946 4.80315 0
M  V30 2136 H 196.167 2.40056 5.62302 0
M  V30 2137 H 200.341 3.21887 6.17545 0
M  V30 2138 H 197.968 3.8003 6.58393 0
M  V30 2139 N 199.544 -1.57102 0.125237 0
M  V30 2140 C 200.96 -1.57915 -0.231322 0
M  V30 2141 C 201.16 -1.13833 -1.66266 0
M  V30 2142 O 200.216 -0.828581 -2.38518 0
M  V30 2143 C 201.529 -3.00699 0.00766489 0
M  V30 2144 C 203.077 -3.12947 -0.0577483 0
M  V30 2145 C 203.552 -4.57742 0.153626 0
M  V30 2146 N 205.043 -4.63092 0.0998073 0
M  V30 2147 C 205.778 -5.72905 0.238174 0
M  V30 2148 N 205.274 -6.91445 0.433057 0
M  V30 2149 N 207.067 -5.6182 0.177308 0
M  V30 2150 H 199.218 -1.84055 1.06007 0
M  V30 2151 H 201.481 -0.850905 0.417929 0
M  V30 2152 H 201.187 -3.3726 0.997431 0
M  V30 2153 H 201.061 -3.70236 -0.721452 0
M  V30 2154 H 203.448 -2.7624 -1.03804 0
M  V30 2155 H 203.529 -2.4594 0.70335 0
M  V30 2156 H 203.173 -4.95149 1.13092 0
M  V30 2157 H 203.103 -5.22848 -0.627534 0
M  V30 2158 H 205.594 -3.77871 -0.047051 0
M  V30 2159 H 205.907 -7.70985 0.529332 0
M  V30 2160 H 204.252 -6.93415 0.469109 0
M  V30 2161 H 207.443 -4.68093 0.0259748 0
M  V30 2162 H 207.616 -6.47357 0.288582 0
M  V30 2163 N 201.022 0.148545 -1.56898 0
M  V30 2164 C 201.932 1.20293 -2.01412 0
M  V30 2165 C 202.948 1.47107 -0.929273 0
M  V30 2166 O 204.124 1.58807 -1.23863 0
M  V30 2167 C 201.189 2.51682 -2.38447 0
M  V30 2168 C 200.25 2.32529 -3.60872 0
M  V30 2169 C 199.483 3.57653 -3.96132 0
M  V30 2170 O 199.706 4.63771 -3.32073 0
M  V30 2171 O 198.64 3.50408 -4.89385 0
M  V30 2172 H 202.466 0.855025 -2.91416 0
M  V30 2173 H 200.051 0.357151 -1.45068 0
M  V30 2174 H 201.933 3.29147 -2.63135 0
M  V30 2175 H 200.608 2.86006 -1.51599 0
M  V30 2176 H 199.515 1.53019 -3.41373 0
M  V30 2177 H 200.848 2.03121 -4.48333 0
M  V30 2178 N 202.5 1.5196 0.417844 0
M  V30 2179 C 203.45 1.7106 1.5074 0
M  V30 2180 C 204.434 0.564487 1.50673 0
M  V30 2181 O 205.626 0.821206 1.56797 0
M  V30 2182 C 202.755 1.85677 2.88754 0
M  V30 2183 C 201.841 3.06133 2.93502 0
M  V30 2184 N 202.232 4.28987 2.67962 0
M  V30 2185 C 200.53 3.05787 3.24669 0
M  V30 2186 C 201.231 5.10395 2.79055 0
M  V30 2187 N 200.207 4.45455 3.11561 0
M  V30 2188 H 204.009 2.63696 1.29775 0
M  V30 2189 H 201.523 1.49873 0.625436 0
M  V30 2190 H 203.52 1.97475 3.67164 0
M  V30 2191 H 202.18 0.942348 3.10725 0
M  V30 2192 H 203.191 4.57607 2.4252 0
M  V30 2193 H 199.868 2.2405 3.52289 0
M  V30 2194 H 201.258 6.18247 2.63097 0
M  V30 2195 N 203.978 -0.674533 1.42435 0
M  V30 2196 C 204.91 -1.80005 1.41883 0
M  V30 2197 C 205.923 -1.59667 0.31787 0
M  V30 2198 O 207.112 -1.68781 0.580973 0
M  V30 2199 C 204.212 -3.17114 1.19549 0
M  V30 2200 C 203.385 -3.64299 2.42084 0
M  V30 2201 C 202.444 -4.80142 2.15291 0
M  V30 2202 O 201.47 -4.90673 2.88493 0
M  V30 2203 N 202.672 -5.68869 1.1562 0
M  V30 2204 H 205.437 -1.80964 2.38898 0
M  V30 2205 H 202.998 -0.857633 1.37318 0
M  V30 2206 H 204.99 -3.92267 0.995417 0
M  V30 2207 H 203.56 -3.11053 0.310569 0
M  V30 2208 H 202.78 -2.79822 2.77657 0
M  V30 2209 H 204.068 -3.92567 3.23679 0
M  V30 2210 H 203.466 -5.63012 0.550765 0
M  V30 2211 H 202.023 -6.43833 1.016 0
M  V30 2212 N 205.456 -1.28612 -0.910864 0
M  V30 2213 C 206.703 -1.15934 -1.66029 0
M  V30 2214 C 207.031 0.291483 -1.92303 0
M  V30 2215 O 206.286 1.22816 -1.52364 0
M  V30 2216 C 206.585 -1.90624 -3.0232 0
M  V30 2217 C 206.251 -3.40405 -2.95695 0
M  V30 2218 C 204.913 -3.81255 -2.93595 0
M  V30 2219 C 207.265 -4.359 -2.85728 0
M  V30 2220 C 204.593 -5.15936 -2.79334 0
M  V30 2221 C 206.945 -5.70657 -2.73007 0
M  V30 2222 C 205.609 -6.10779 -2.69267 0
M  V30 2223 H 204.879 -0.424234 -0.607541 0
M  V30 2224 H 207.526 -1.5942 -1.06101 0
M  V30 2225 H 205.831 -1.39696 -3.6605 0
M  V30 2226 H 207.528 -1.78228 -3.59215 0
M  V30 2227 H 204.118 -3.07927 -2.98125 0
M  V30 2228 H 208.302 -4.053 -2.86436 0
M  V30 2229 H 203.558 -5.46146 -2.74835 0
M  V30 2230 H 207.732 -6.44311 -2.64264 0
M  V30 2231 H 205.359 -7.1509 -2.57974 0
M  V30 2232 N 206.934 1.1197 -1.10907 0
M  V30 2233 C 208.162 1.87402 -0.876824 0
M  V30 2234 C 208.577 1.79894 0.573025 0
M  V30 2235 O 207.934 1.17629 1.39534 0
M  V30 2236 C 207.985 3.36428 -1.32282 0
M  V30 2237 O 207.706 3.43765 -2.71582 0
M  V30 2238 C 209.207 4.28783 -1.12518 0
M  V30 2239 H 206.427 0.592793 -0.314384 0
M  V30 2240 H 208.971 1.41649 -1.47499 0
M  V30 2241 H 207.126 3.79706 -0.768229 0
M  V30 2242 H 207.54 4.3652 -2.90776 0
M  V30 2243 H 209.014 5.31613 -1.48633 0
M  V30 2244 H 209.491 4.39153 -0.0642394 0
M  V30 2245 H 210.097 3.91291 -1.66648 0
M  V30 2246 N 208.412 0.89855 1.29475 0
M  V30 2247 C 209.359 0.373819 2.27753 0
M  V30 2248 C 210.329 -0.543444 1.56958 0
M  V30 2249 O 211.514 -0.468934 1.84948 0
M  V30 2250 C 208.654 -0.393648 3.42848 0
M  V30 2251 C 207.767 0.554379 4.28428 0
M  V30 2252 C 206.902 -0.230026 5.30702 0
M  V30 2253 C 205.941 0.712599 6.07938 0
M  V30 2254 N 205.078 -0.0373283 7.0209 0
M  V30 2255 H 209.918 1.21699 2.72017 0
M  V30 2256 H 207.455 0.611456 1.33789 0
M  V30 2257 H 209.413 -0.85466 4.08352 0
M  V30 2258 H 208.043 -1.20128 2.99615 0
M  V30 2259 H 207.095 1.13391 3.63107 0
M  V30 2260 H 208.407 1.27597 4.82204 0
M  V30 2261 H 207.561 -0.752288 6.02018 0
M  V30 2262 H 206.3 -0.984758 4.77654 0
M  V30 2263 H 205.305 1.24637 5.35486 0
M  V30 2264 H 206.53 1.46664 6.63074 0
M  V30 2265 H 204.476 -0.774348 6.51414 0
M  V30 2266 H 204.393 0.624374 7.53417 0
M  V30 2267 H 205.661 -0.539891 7.77628 0
M  V30 2268 N 209.89 -1.43072 0.660911 0
M  V30 2269 C 211.139 -2.00942 0.174735 0
M  V30 2270 C 211.452 -1.52797 -1.22117 0
M  V30 2271 O 212.658 -2.02991 -1.80297 0
M  V30 2272 C 211.114 -3.58948 0.261559 0
M  V30 2273 C 210.722 -4.16085 1.66064 0
M  V30 2274 C 212.466 -4.24173 -0.166617 0
M  V30 2275 C 210.373 -5.6641 1.70098 0
M  V30 2276 H 209.303 -0.751483 0.0615631 0
M  V30 2277 H 211.954 -1.63955 0.824069 0
M  V30 2278 H 210.336 -3.93372 -0.455421 0
M  V30 2279 H 211.51 -3.93147 2.40359 0
M  V30 2280 H 209.825 -3.6326 2.03546 0
M  V30 2281 H 212.422 -5.34471 -0.156433 0
M  V30 2282 H 212.765 -3.98647 -1.19943 0
M  V30 2283 H 213.298 -3.94659 0.498875 0
M  V30 2284 H 210.037 -5.96715 2.71315 0
M  V30 2285 H 209.557 -5.91382 1.00139 0
M  V30 2286 H 211.236 -6.30585 1.44816 0
M  V30 2287 N 211.368 -0.403325 -1.52352 0
M  V30 2288 C 212.645 0.232611 -1.94212 0
M  V30 2289 C 213.025 1.63133 -1.33981 0
M  V30 2290 O 212.373 2.22659 -0.513344 0
M  V30 2291 C 212.583 0.244811 -3.4814 0
M  V30 2292 C 213.931 0.46698 -4.22024 0
M  V30 2293 O 214.955 0.324419 -3.5472 0
M  V30 2294 O 213.814 0.74747 -5.41364 0
M  V30 2295 H 210.908 0.148223 -0.813609 0
M  V30 2296 H 213.454 -0.458848 -1.63379 0
M  V30 2297 H 212.226 -0.734378 -3.84347 0
M  V30 2298 H 211.849 0.980611 -3.85318 0
M  V30 2299 N 212.846 1.57033 -0.133567 0
M  V30 2300 C 214.074 2.00044 0.528195 0
M  V30 2301 C 214.489 1.01349 1.59291 0
M  V30 2302 O 213.846 0.00848369 1.82498 0
M  V30 2303 C 213.897 3.43018 1.1411 0
M  V30 2304 O 213.618 4.37939 0.11892 0
M  V30 2305 C 215.119 4.01237 1.88477 0
M  V30 2306 H 212.339 0.656517 0.138661 0
M  V30 2307 H 214.883 2.03267 -0.224196 0
M  V30 2308 H 213.038 3.40688 1.84418 0
M  V30 2309 H 213.452 5.21436 0.56613 0
M  V30 2310 H 214.926 5.03314 2.26669 0
M  V30 2311 H 215.403 3.41193 2.76558 0
M  V30 2312 H 216.009 4.07156 1.22898 0
M  V30 2313 N 214.325 -0.140222 1.56975 0
M  V30 2314 C 215.574 -0.850152 1.82908 0
M  V30 2315 C 215.887 -1.82028 0.715892 0
M  V30 2316 O 217.093 -2.57485 0.861016 0
M  V30 2317 C 215.549 -1.5625 3.24213 0
M  V30 2318 C 215.157 -0.63443 4.43485 0
M  V30 2319 C 216.901 -2.25881 3.59413 0
M  V30 2320 C 214.808 -1.34879 5.75814 0
M  V30 2321 H 213.738 -0.321221 0.682153 0
M  V30 2322 H 216.389 -0.102874 1.83211 0
M  V30 2323 H 214.771 -2.35565 3.18316 0
M  V30 2324 H 215.945 0.12398 4.60633 0
M  V30 2325 H 214.26 -0.0461836 4.16374 0
M  V30 2326 H 216.857 -2.79978 4.5554 0
M  V30 2327 H 217.2 -3.02693 2.85802 0
M  V30 2328 H 217.733 -1.53477 3.67001 0
M  V30 2329 H 214.472 -0.622385 6.52539 0
M  V30 2330 H 213.992 -2.07974 5.6259 0
M  V30 2331 H 215.671 -1.88784 6.18845 0
M  V30 2332 N 215.803 -1.52179 -0.40978 0
M  V30 2333 C 216.766 -1.74853 -1.48186 0
M  V30 2334 C 217.766 -0.618417 -1.48433 0
M  V30 2335 O 218.956 -0.886286 -1.49969 0
M  V30 2336 C 216.088 -1.8303 -2.87598 0
M  V30 2337 H 217.281 -2.70559 -1.29374 0
M  V30 2338 H 214.834 -1.42586 -0.640233 0
M  V30 2339 H 215.569 -0.89236 -3.11781 0
M  V30 2340 H 215.354 -2.65187 -2.88822 0
M  V30 2341 H 216.844 -2.02316 -3.65319 0
M  V30 2342 N 217.281 0.66697 -1.42791 0
M  V30 2343 C 218.244 1.76211 -1.46568 0
M  V30 2344 C 219.244 1.56896 -0.352196 0
M  V30 2345 O 220.434 1.63044 -0.613364 0
M  V30 2346 C 217.566 3.14935 -1.30494 0
M  V30 2347 H 218.759 1.74247 -2.44086 0
M  V30 2348 H 216.312 0.877342 -1.29354 0
M  V30 2349 H 217.047 3.2252 -0.339301 0
M  V30 2350 H 216.832 3.30359 -2.11199 0
M  V30 2351 H 218.322 3.94821 -1.36038 0
M  V30 2352 N 218.759 1.29093 0.90403 0
M  V30 2353 C 220.036 1.075 1.63411 0
M  V30 2354 C 220.416 -0.382346 2.07609 0
M  V30 2355 O 219.764 -1.37031 1.82851 0
M  V30 2356 C 219.974 2.05858 2.81822 0
M  V30 2357 C 221.322 2.36539 3.52611 0
M  V30 2358 O 222.346 2.04019 2.91984 0
M  V30 2359 O 221.205 2.92085 4.61897 0
M  V30 2360 H 218.299 0.411547 0.717327 0
M  V30 2361 H 220.845 1.40449 0.952479 0
M  V30 2362 H 219.617 3.04037 2.46327 0
M  V30 2363 H 219.24 1.73613 3.57693 0
M  V30 2364 N 220.237 -1.11381 1.11499 0
M  V30 2365 C 221.147 -2.21019 0.786628 0
M  V30 2366 C 222.163 -1.72597 -0.220507 0
M  V30 2367 O 223.339 -2.01321 -0.0565251 0
M  V30 2368 C 220.404 -3.459 0.235333 0
M  V30 2369 C 219.465 -4.09107 1.30115 0
M  V30 2370 C 218.698 -5.28027 0.776068 0
M  V30 2371 O 218.921 -5.6904 -0.393661 0
M  V30 2372 O 217.855 -5.81835 1.54114 0
M  V30 2373 H 221.681 -2.51521 1.70209 0
M  V30 2374 H 219.266 -1.19928 0.890928 0
M  V30 2375 H 221.148 -4.21346 -0.067715 0
M  V30 2376 H 219.823 -3.17049 -0.652828 0
M  V30 2377 H 218.73 -3.35391 1.65722 0
M  V30 2378 H 220.063 -4.42139 2.16273 0
M  V30 2379 N 221.715 -0.905404 -1.28997 0
M  V30 2380 C 222.94 -0.549175 -1.99997 0
M  V30 2381 C 223.365 0.860276 -1.67275 0
M  V30 2382 O 222.723 1.57355 -0.900502 0
M  V30 2383 C 222.771 -0.755185 -3.52604 0
M  V30 2384 O 221.875 0.189692 -4.11964 0
M  V30 2385 H 221.216 -0.213899 -0.628604 0
M  V30 2386 H 223.746 -1.21856 -1.64354 0
M  V30 2387 H 223.756 -0.662045 -4.02593 0
M  V30 2388 H 222.431 -1.78271 -3.75755 0
M  V30 2389 H 221.008 0.0485257 -3.72868 0
M  V30 2390 N 223.193 1.4272 -0.668489 0
M  V30 2391 C 224.44 2.01624 -0.18814 0
M  V30 2392 C 224.768 1.5282 1.20317 0
M  V30 2393 O 224.023 0.718323 1.8204 0
M  V30 2394 C 224.322 3.57021 -0.164499 0
M  V30 2395 C 223.988 4.25232 -1.49962 0
M  V30 2396 C 222.65 4.4358 -1.8652 0
M  V30 2397 C 225.002 4.63727 -2.37921 0
M  V30 2398 C 222.33 4.97694 -3.10674 0
M  V30 2399 C 224.682 5.19218 -3.6138 0
M  V30 2400 C 223.346 5.3578 -3.98115 0
M  V30 2401 H 222.616 0.737795 -0.0688454 0
M  V30 2402 H 225.263 1.70991 -0.862225 0
M  V30 2403 H 223.568 3.87285 0.593079 0
M  V30 2404 H 225.265 4.00372 0.224271 0
M  V30 2405 H 221.855 4.11306 -1.20522 0
M  V30 2406 H 226.039 4.4923 -2.10964 0
M  V30 2407 H 221.295 5.08702 -3.39164 0
M  V30 2408 H 225.469 5.4799 -4.29743 0
M  V30 2409 H 223.096 5.77475 -4.94395 0
M  V30 2410 N 224.671 0.411399 1.52136 0
M  V30 2411 C 225.899 -0.163076 2.06256 0
M  V30 2412 C 226.314 -1.3867 1.28125 0
M  V30 2413 O 225.671 -1.79423 0.333721 0
M  V30 2414 C 225.722 -0.511252 3.57867 0
M  V30 2415 O 225.443 0.66378 4.33042 0
M  V30 2416 C 226.944 -1.13921 4.28412 0
M  V30 2417 H 224.164 -0.0193897 0.67072 0
M  V30 2418 H 226.708 0.583007 1.96013 0
M  V30 2419 H 224.863 -1.20723 3.6811 0
M  V30 2420 H 225.277 0.372601 5.23175 0
M  V30 2421 H 226.751 -1.33302 5.35663 0
M  V30 2422 H 227.228 -2.11296 3.85033 0
M  V30 2423 H 227.834 -0.483373 4.22544 0
M  V30 2424 N 226.149 -1.5696 0.141893 0
M  V30 2425 C 227.081 -2.13619 -0.830627 0
M  V30 2426 C 228.094 -1.08439 -1.21428 0
M  V30 2427 O 229.283 -1.35734 -1.15925 0
M  V30 2428 C 226.383 -2.63978 -2.12529 0
M  V30 2429 C 225.556 -3.93504 -1.9098 0
M  V30 2430 C 224.615 -4.29225 -3.04388 0
M  V30 2431 O 223.641 -4.97641 -2.76302 0
M  V30 2432 N 224.843 -3.88393 -4.31429 0
M  V30 2433 H 227.608 -2.97691 -0.34641 0
M  V30 2434 H 225.169 -1.61846 -0.0418375 0
M  V30 2435 H 227.161 -2.84891 -2.87436 0
M  V30 2436 H 225.731 -1.84659 -2.52229 0
M  V30 2437 H 224.951 -3.81269 -1.00139 0
M  V30 2438 H 226.239 -4.78154 -1.73914 0
M  V30 2439 H 225.637 -3.33257 -4.57117 0
M  V30 2440 H 224.194 -4.14368 -5.03133 0
M  V30 2441 N 227.627 0.131896 -1.57047 0
M  V30 2442 C 228.56 1.19236 -1.94571 0
M  V30 2443 C 229.538 1.40782 -0.813576 0
M  V30 2444 O 230.722 1.55148 -1.07058 0
M  V30 2445 C 227.849 2.54858 -2.23081 0
M  V30 2446 C 226.895 2.49817 -3.45679 0
M  V30 2447 S 227.728 1.95036 -4.98719 0
M  V30 2448 C 228.884 3.32357 -5.30367 0
M  V30 2449 H 229.117 0.872297 -2.84215 0
M  V30 2450 H 226.65 0.338134 -1.50652 0
M  V30 2451 H 228.608 3.32898 -2.40185 0
M  V30 2452 H 227.269 2.84047 -1.34074 0
M  V30 2453 H 226.462 3.49688 -3.62952 0
M  V30 2454 H 226.064 1.79892 -3.27895 0
M  V30 2455 H 228.356 4.28525 -5.2476 0
M  V30 2456 H 229.299 3.19923 -6.31708 0
M  V30 2457 H 229.707 3.3019 -4.57859 0
M  V30 2458 N 229.106 1.52395 0.401703 0
M  V30 2459 C 230.383 1.57387 1.16141 0
M  V30 2460 C 230.763 0.359359 2.08019 0
M  V30 2461 O 230.111 -0.65326 2.18963 0
M  V30 2462 C 230.321 2.90631 1.93221 0
M  V30 2463 C 231.669 3.43904 2.49028 0
M  V30 2464 O 232.693 2.92421 2.03393 0
M  V30 2465 O 231.552 4.33823 3.32356 0
M  V30 2466 H 228.646 0.634262 0.530698 0
M  V30 2467 H 231.192 1.64725 0.407883 0
M  V30 2468 H 229.964 3.70473 1.25958 0
M  V30 2469 H 229.587 2.8662 2.75563 0
M  V30 2470 N 230.584 -0.659388 1.43143 0
M  V30 2471 C 231.514 -1.78422 1.50625 0
M  V30 2472 C 232.495 -1.66216 0.361443 0
M  V30 2473 O 233.68 -1.85404 0.577834 0
M  V30 2474 C 230.81 -3.16815 1.42287 0
M  V30 2475 C 229.764 -3.43777 2.54954 0
M  V30 2476 C 229.09 -4.81905 2.31671 0
M  V30 2477 C 230.39 -3.39134 3.97222 0
M  V30 2478 H 232.084 -1.72417 2.44771 0
M  V30 2479 H 229.63 -0.828084 1.17808 0
M  V30 2480 H 231.583 -3.95253 1.46127 0
M  V30 2481 H 230.307 -3.23534 0.446435 0
M  V30 2482 H 228.966 -2.67707 2.50457 0
M  V30 2483 H 228.614 -4.85294 1.32284 0
M  V30 2484 H 228.314 -5.00906 3.07192 0
M  V30 2485 H 229.838 -5.62609 2.37284 0
M  V30 2486 H 231.252 -4.07518 4.03239 0
M  V30 2487 H 229.649 -3.69671 4.72719 0
M  V30 2488 H 230.719 -2.37426 4.22797 0
M  V30 2489 N 232.062 -1.29571 -0.897171 0
M  V30 2490 C 233.31 -1.17456 -1.64464 0
M  V30 2491 C 233.631 0.273698 -1.9307 0
M  V30 2492 O 232.901 1.18684 -1.55855 0
M  V30 2493 H 231.481 -0.431706 -0.609622 0
M  V30 2494 H 234.143 -1.62531 -1.07562 0
M  V30 2495 H 233.239 -1.72648 -2.59998 0
M  V30 2496 N 233.54 1.10788 -1.12088 0
M  V30 2497 C 234.817 1.79136 -0.785476 0
M  V30 2498 C 235.197 1.98246 0.725377 0
M  V30 2499 O 234.545 1.57258 1.65778 0
M  V30 2500 C 234.755 3.12375 -1.55636 0
M  V30 2501 C 236.103 3.8731 -1.74001 0
M  V30 2502 O 237.127 3.22085 -1.52117 0
M  V30 2503 O 235.986 5.04369 -2.10415 0
M  V30 2504 H 233.08 0.776226 -0.285311 0
M  V30 2505 H 235.626 1.1747 -1.2247 0
M  V30 2506 H 234.398 2.93863 -2.5838 0
M  V30 2507 H 234.021 3.81758 -1.11114 0
M  V30 2508 N 235.018 0.912232 1.28515 0
M  V30 2509 C 236.434 0.610159 1.47476 0
M  V30 2510 C 236.634 -0.844955 1.82928 0
M  V30 2511 O 235.69 -1.62416 1.93332 0
M  V30 2512 C 237.003 1.54675 2.57868 0
M  V30 2513 C 238.551 1.55331 2.71738 0
M  V30 2514 C 239.026 2.47649 3.85272 0
M  V30 2515 N 240.517 2.45767 3.92623 0
M  V30 2516 C 241.252 3.13896 4.79851 0
M  V30 2517 N 240.748 3.9135 5.71679 0
M  V30 2518 N 242.541 3.02991 4.73448 0
M  V30 2519 H 234.692 1.85318 1.03783 0
M  V30 2520 H 236.955 0.794777 0.516753 0
M  V30 2521 H 236.661 2.5841 2.38574 0
M  V30 2522 H 236.535 1.27671 3.54937 0
M  V30 2523 H 238.922 0.52335 2.90422 0
M  V30 2524 H 239.003 1.86378 1.75205 0
M  V30 2525 H 238.647 3.50745 3.67342 0
M  V30 2526 H 238.577 2.13904 4.81199 0
M  V30 2527 H 241.068 1.89503 3.26951 0
M  V30 2528 H 241.381 4.40359 6.35062 0
M  V30 2529 H 239.726 3.95455 5.71524 0
M  V30 2530 H 242.917 2.41987 4.007 0
M  V30 2531 H 243.09 3.5636 5.41213 0
M  V30 2532 N 236.496 -1.42363 0.676048 0
M  V30 2533 C 237.745 -2.00745 0.196037 0
M  V30 2534 C 238.058 -1.54083 -1.20489 0
M  V30 2535 O 239.264 -2.04891 -1.78134 0
M  V30 2536 C 237.72 -3.58651 0.299616 0
M  V30 2537 C 237.328 -4.143 1.70468 0
M  V30 2538 C 239.072 -4.24326 -0.121619 0
M  V30 2539 C 236.979 -5.64574 1.76096 0
M  V30 2540 H 235.909 -0.750787 0.0695301 0
M  V30 2541 H 238.56 -1.63072 0.841412 0
M  V30 2542 H 236.942 -3.93833 -0.413673 0
M  V30 2543 H 238.116 -3.90575 2.44515 0
M  V30 2544 H 236.431 -3.61081 2.07387 0
M  V30 2545 H 239.028 -5.34607 -0.0997362 0
M  V30 2546 H 239.371 -3.99897 -1.15708 0
M  V30 2547 H 239.904 -3.94108 0.540706 0
M  V30 2548 H 236.643 -5.93804 2.77628 0
M  V30 2549 H 236.163 -5.90286 1.06406 0
M  V30 2550 H 237.842 -6.29013 1.51496 0
M  V30 2551 N 237.974 -0.419461 -1.51915 0
M  V30 2552 C 238.904 0.391813 -2.30189 0
M  V30 2553 C 239.885 1.03699 -1.34836 0
M  V30 2554 O 241.07 1.04403 -1.63748 0
M  V30 2555 C 238.2 1.50312 -3.13087 0
M  V30 2556 C 237.154 0.9824 -4.16573 0
M  V30 2557 C 236.48 2.18809 -4.8788 0
M  V30 2558 C 237.78 0.0292356 -5.22292 0
M  V30 2559 H 239.474 -0.26135 -2.98257 0
M  V30 2560 H 237.02 -0.127134 -1.43438 0
M  V30 2561 H 238.973 2.07773 -3.66617 0
M  V30 2562 H 237.697 2.18431 -2.42807 0
M  V30 2563 H 236.356 0.430119 -3.64068 0
M  V30 2564 H 236.004 2.85507 -4.14119 0
M  V30 2565 H 235.704 1.84615 -5.57845 0
M  V30 2566 H 237.228 2.76858 -5.44226 0
M  V30 2567 H 238.642 0.512976 -5.71 0
M  V30 2568 H 237.039 -0.2244 -5.9968 0
M  V30 2569 H 238.109 -0.912931 -4.76228 0
M  V30 2570 N 239.452 1.56882 -0.150215 0
M  V30 2571 C 240.399 2.16922 0.788244 0
M  V30 2572 C 241.369 1.10303 1.24187 0
M  V30 2573 O 242.554 1.38359 1.31383 0
M  V30 2574 C 239.694 2.79754 2.02068 0
M  V30 2575 C 238.807 4.00775 1.61257 0
M  V30 2576 C 237.942 4.51595 2.79705 0
M  V30 2577 C 236.981 5.65074 2.35282 0
M  V30 2578 N 236.118 6.10499 3.4675 0
M  V30 2579 H 240.958 2.96779 0.269444 0
M  V30 2580 H 238.495 1.46599 0.12128 0
M  V30 2581 H 240.453 3.14329 2.74323 0
M  V30 2582 H 239.083 2.02536 2.51354 0
M  V30 2583 H 238.135 3.72158 0.787553 0
M  V30 2584 H 239.447 4.82978 1.24633 0
M  V30 2585 H 238.601 4.88242 3.60145 0
M  V30 2586 H 237.34 3.68406 3.19576 0
M  V30 2587 H 236.345 5.28 1.53283 0
M  V30 2588 H 237.57 6.50052 1.96493 0
M  V30 2589 H 235.516 5.30243 3.86236 0
M  V30 2590 H 235.433 6.87637 3.14152 0
M  V30 2591 H 236.701 6.51791 4.27537 0
M  V30 2592 N 240.93 -0.123565 1.57115 0
M  V30 2593 C 241.86 -1.15309 2.03042 0
M  V30 2594 C 242.841 -1.43454 0.914061 0
M  V30 2595 O 244.026 -1.53973 1.18347 0
M  V30 2596 C 241.156 -2.48043 2.43089 0
M  V30 2597 C 240.11 -2.3437 3.58127 0
M  V30 2598 C 239.436 -3.72026 3.84059 0
M  V30 2599 C 240.736 -1.80804 4.90007 0
M  V30 2600 H 242.43 -0.771102 2.893 0
M  V30 2601 H 239.976 -0.369479 1.39179 0
M  V30 2602 H 241.929 -3.20311 2.73823 0
M  V30 2603 H 240.653 -2.88122 1.53796 0
M  V30 2604 H 239.312 -1.64551 3.27595 0
M  V30 2605 H 238.96 -4.09582 2.91979 0
M  V30 2606 H 238.66 -3.63732 4.6149 0
M  V30 2607 H 240.184 -4.45806 4.1724 0
M  V30 2608 H 241.598 -2.42886 5.19307 0
M  V30 2609 H 239.995 -1.83343 5.71407 0
M  V30 2610 H 241.065 -0.76528 4.78823 0
M  V30 2611 N 242.408 -1.52605 -0.393616 0
M  V30 2612 C 243.356 -1.77688 -1.50099 0
M  V30 2613 C 244.35 -0.644615 -1.56656 0
M  V30 2614 O 245.556 -0.826997 -1.59877 0
M  V30 2615 H 241.931 -0.562159 -0.499481 0
M  V30 2616 H 243.902 -2.7043 -1.26135 0
M  V30 2617 C 242.651 -1.95858 -2.87289 0
M  V30 2618 H 241.974 -2.8241 -2.82992 0
M  V30 2619 H 243.414 -2.174 -3.64024 0
M  V30 2620 C 241.873 -0.729848 -3.28899 0
M  V30 2621 O 242.403 0.0949217 -4.01588 0
M  V30 2622 N 240.609 -0.561283 -2.85128 0
M  V30 2623 H 240.156 -1.23357 -2.26143 0
M  V30 2624 H 240.114 0.2595 -3.13327 0
M  V30 2625 N 243.887 0.651787 -1.4349 0
M  V30 2626 C 245.115 1.43937 -1.48626 0
M  V30 2627 C 245.53 1.8851 -0.104587 0
M  V30 2628 O 244.887 1.5958 0.885464 0
M  V30 2629 C 244.938 2.6734 -2.43334 0
M  V30 2630 O 244.659 2.24631 -3.76128 0
M  V30 2631 C 246.16 3.60683 -2.57726 0
M  V30 2632 H 243.38 0.44213 -0.504739 0
M  V30 2633 H 245.924 0.798944 -1.88248 0
M  V30 2634 H 244.079 3.2752 -2.06904 0
M  V30 2635 H 244.493 3.04485 -4.2707 0
M  V30 2636 H 245.967 4.43933 -3.28067 0
M  V30 2637 H 246.444 4.08126 -1.62265 0
M  V30 2638 H 247.05 3.06384 -2.94973 0
M  V30 2639 N 245.365 1.30045 0.890287 0
M  V30 2640 C 246.275 1.17885 2.02831 0
M  V30 2641 C 247.291 0.0999609 1.73713 0
M  V30 2642 O 248.467 0.313867 1.98939 0
M  V30 2643 C 245.532 0.866079 3.35708 0
M  V30 2644 C 244.593 2.02979 3.78283 0
M  V30 2645 C 243.826 1.73184 5.0482 0
M  V30 2646 O 244.049 0.657237 5.66601 0
M  V30 2647 O 242.983 2.58267 5.43674 0
M  V30 2648 H 246.809 2.13474 2.16015 0
M  V30 2649 H 244.394 1.09587 1.01543 0
M  V30 2650 H 246.276 0.706623 4.15433 0
M  V30 2651 H 244.951 -0.0599443 3.23644 0
M  V30 2652 H 243.858 2.24454 2.99285 0
M  V30 2653 H 245.191 2.93734 3.94944 0
M  V30 2654 N 246.843 -1.10192 1.12674 0
M  V30 2655 C 248.092 -1.81573 0.8783 0
M  V30 2656 C 248.405 -1.86249 -0.597557 0
M  V30 2657 O 249.611 -2.5386 -0.962681 0
M  V30 2658 C 248.067 -3.26149 1.52167 0
M  V30 2659 C 247.675 -3.29763 3.03249 0
M  V30 2660 C 249.419 -4.0234 1.3536 0
M  V30 2661 C 247.326 -4.68815 3.60508 0
M  V30 2662 H 246.256 -0.680394 0.324931 0
M  V30 2663 H 248.907 -1.23902 1.35353 0
M  V30 2664 H 247.289 -3.83832 0.974104 0
M  V30 2665 H 248.463 -2.8189 3.6452 0
M  V30 2666 H 246.778 -2.67059 3.19481 0
M  V30 2667 H 249.375 -5.05058 1.75559 0
M  V30 2668 H 249.718 -4.15235 0.297554 0
M  V30 2669 H 250.251 -3.51079 1.87052 0
M  V30 2670 H 246.99 -4.61121 4.65884 0
M  V30 2671 H 246.51 -5.17045 3.04014 0
M  V30 2672 H 248.189 -5.37785 3.59717 0
M  V30 2673 N 248.321 -0.919034 -1.28029 0
M  V30 2674 C 249.737 -0.617972 -1.4715 0
M  V30 2675 C 249.937 0.835242 -1.83374 0
M  V30 2676 O 248.993 1.61388 -1.94191 0
M  V30 2677 C 250.306 -1.56041 -2.57044 0
M  V30 2678 C 251.854 -1.56769 -2.7091 0
M  V30 2679 C 252.329 -2.49688 -3.83953 0
M  V30 2680 N 253.82 -2.47845 -3.91314 0
M  V30 2681 C 254.555 -3.16437 -4.78179 0
M  V30 2682 N 254.051 -3.94376 -5.69596 0
M  V30 2683 N 255.844 -3.05498 -4.71834 0
M  V30 2684 H 247.995 -1.85866 -1.02798 0
M  V30 2685 H 250.258 -0.797506 -0.512531 0
M  V30 2686 H 249.964 -2.59671 -2.372 0
M  V30 2687 H 249.838 -1.29551 -3.54255 0
M  V30 2688 H 252.225 -0.538745 -2.90141 0
M  V30 2689 H 252.306 -1.87305 -1.74214 0
M  V30 2690 H 251.95 -3.52688 -3.65477 0
M  V30 2691 H 251.88 -2.16453 -4.80058 0
M  V30 2692 H 254.371 -1.91234 -3.25941 0
M  V30 2693 H 254.684 -4.43721 -6.32718 0
M  V30 2694 H 253.029 -3.98481 -5.69419 0
M  V30 2695 H 256.22 -2.44108 -3.99411 0
M  V30 2696 H 256.393 -3.59225 -5.39316 0
M  V30 2697 N 249.799 1.42003 -0.683588 0
M  V30 2698 C 250.709 2.34597 -0.0109075 0
M  V30 2699 C 251.725 1.55576 0.779245 0
M  V30 2700 O 252.901 1.88107 0.719555 0
M  V30 2701 C 249.966 3.34199 0.922588 0
M  V30 2702 C 249.027 4.29115 0.125984 0
M  V30 2703 C 248.26 5.23959 1.01502 0
M  V30 2704 O 248.483 5.23952 2.25456 0
M  V30 2705 O 247.417 6.00053 0.47111 0
M  V30 2706 H 251.243 2.93675 -0.773853 0
M  V30 2707 H 248.828 1.42654 -0.443861 0
M  V30 2708 H 250.71 3.95365 1.45823 0
M  V30 2709 H 249.385 2.77582 1.66523 0
M  V30 2710 H 248.292 3.71335 -0.453969 0
M  V30 2711 H 249.625 4.88798 -0.577736 0
M  V30 2712 N 251.277 0.427512 1.51691 0
M  V30 2713 C 252.523 -0.142439 2.02299 0
M  V30 2714 C 252.856 -1.43214 1.31162 0
M  V30 2715 O 252.131 -1.89833 0.423511 0
M  V30 2716 C 252.414 -0.371301 3.58181 0
M  V30 2717 C 252.267 0.936358 4.39946 0
M  V30 2718 C 253.586 -1.14542 4.24933 0
M  V30 2719 H 250.705 -0.0502937 0.735282 0
M  V30 2720 H 253.347 0.564584 1.81418 0
M  V30 2721 H 251.497 -0.973559 3.76104 0
M  V30 2722 H 253.169 1.57184 4.33694 0
M  V30 2723 H 251.412 1.5432 4.05423 0
M  V30 2724 H 252.083 0.730388 5.47147 0
M  V30 2725 H 254.559 -0.635362 4.11221 0
M  V30 2726 H 253.435 -1.27431 5.33903 0
M  V30 2727 H 253.696 -2.17093 3.85127 0
M  V30 2728 N 252.755 -1.56801 0.158532 0
M  V30 2729 C 254.003 -1.96102 -0.488712 0
M  V30 2730 C 254.324 -1.04498 -1.64636 0
M  V30 2731 O 253.594 -0.108783 -1.95598 0
M  V30 2732 H 252.174 -0.724102 -0.183535 0
M  V30 2733 H 254.836 -1.93457 0.236728 0
M  V30 2734 H 253.932 -3.00097 -0.857219 0
M  V30 2735 N 254.233 0.115231 -1.57178 0
M  V30 2736 C 255.644 0.67197 -1.74188 0
M  V30 2737 C 255.995 1.80125 -0.777777 0
M  V30 2738 O 255.12 2.16346 0.0484376 0
M  V30 2739 C 255.715 1.22573 -3.1585 0
M  V30 2740 C 254.274 1.72872 -3.34353 0
M  V30 2741 C 253.421 0.629972 -2.70049 0
M  V30 2742 H 256.372 -0.110712 -1.58313 0
M  V30 2743 H 256.393 2.09535 -3.17609 0
M  V30 2744 H 255.905 0.403598 -3.85996 0
M  V30 2745 H 254.006 2.5755 -2.69256 0
M  V30 2746 H 254.119 1.83557 -4.42542 0
M  V30 2747 H 252.483 1.0645 -2.31388 0
M  V30 2748 H 253.266 -0.181241 -3.42821 0
M  V30 2749 N 255.711 1.52812 0.385517 0
M  V30 2750 C 256.957 1.68275 1.13188 0
M  V30 2751 C 257.29 0.423179 1.89533 0
M  V30 2752 O 256.565 -0.579113 1.85679 0
M  V30 2753 C 256.848 2.92001 2.1073 0
M  V30 2754 C 256.701 4.28067 1.38125 0
M  V30 2755 C 258.02 3.11283 3.11113 0
M  V30 2756 H 255.139 0.612352 0.410115 0
M  V30 2757 H 257.781 1.85415 0.414869 0
M  V30 2758 H 255.931 2.77519 2.71874 0
M  V30 2759 H 257.603 4.54324 0.799187 0
M  V30 2760 H 255.846 4.28388 0.683092 0
M  V30 2761 H 256.517 5.10733 2.09417 0
M  V30 2762 H 258.993 3.2482 2.6006 0
M  V30 2763 H 257.869 3.99325 3.76605 0
M  V30 2764 H 258.13 2.25656 3.80173 0
M  V30 2765 N 257.189 -0.644168 1.43834 0
M  V30 2766 C 258.137 -1.77793 1.49974 0
M  V30 2767 C 259.131 -1.65253 0.372536 0
M  V30 2768 O 260.337 -1.7149 0.546924 0
M  V30 2769 H 256.712 -0.58675 0.47035 0
M  V30 2770 H 258.683 -1.69736 2.45423 0
M  V30 2771 C 257.432 -3.16087 1.4486 0
M  V30 2772 H 256.755 -3.26378 2.30905 0
M  V30 2773 H 258.195 -3.95349 1.53217 0
M  V30 2774 C 256.654 -3.36484 0.167463 0
M  V30 2775 O 257.184 -3.94298 -0.767609 0
M  V30 2776 N 255.39 -2.90504 0.0747556 0
M  V30 2777 H 254.937 -2.4364 0.836507 0
M  V30 2778 H 254.895 -3.04527 -0.781714 0
M  V30 2779 N 258.668 -1.30515 -0.883378 0
M  V30 2780 C 259.615 -1.17032 -1.98927 0
M  V30 2781 C 260.585 -0.0594241 -1.65994 0
M  V30 2782 O 261.77 -0.229895 -1.8941 0
M  V30 2783 C 258.91 -0.869777 -3.33959 0
M  V30 2784 C 258.023 -2.06271 -3.79574 0
M  V30 2785 C 257.158 -1.70011 -5.03259 0
M  V30 2786 C 256.197 -2.8579 -5.41286 0
M  V30 2787 N 255.334 -2.49816 -6.56153 0
M  V30 2788 H 260.174 -2.1164 -2.09792 0
M  V30 2789 H 257.711 -1.05296 -1.02719 0
M  V30 2790 H 259.669 -0.676138 -4.11685 0
M  V30 2791 H 258.299 0.0394332 -3.22776 0
M  V30 2792 H 257.351 -2.36755 -2.97744 0
M  V30 2793 H 258.663 -2.92971 -4.03694 0
M  V30 2794 H 257.817 -1.47032 -5.88614 0
M  V30 2795 H 256.556 -0.804829 -4.81013 0
M  V30 2796 H 255.561 -3.09434 -4.54456 0
M  V30 2797 H 256.786 -3.76008 -5.65504 0
M  V30 2798 H 254.732 -1.62795 -6.35479 0
M  V30 2799 H 254.649 -3.30048 -6.8015 0
M  V30 2800 H 255.917 -2.30197 -7.44735 0
M  V30 2801 N 260.146 1.09593 -1.13257 0
M  V30 2802 C 261.093 2.1618 -0.808381 0
M  V30 2803 C 262.063 1.64517 0.228754 0
M  V30 2804 O 263.248 1.9053 0.101381 0
M  V30 2805 C 260.388 3.43973 -0.278675 0
M  V30 2806 C 259.501 4.09545 -1.37466 0
M  V30 2807 C 258.636 5.25088 -0.803479 0
M  V30 2808 C 257.675 5.82579 -1.87799 0
M  V30 2809 N 256.812 6.89486 -1.32488 0
M  V30 2810 H 261.652 2.43254 -1.72138 0
M  V30 2811 H 259.189 1.19392 -0.859294 0
M  V30 2812 H 261.147 4.17174 0.0465583 0
M  V30 2813 H 259.777 3.17223 0.597459 0
M  V30 2814 H 258.829 3.34226 -1.81652 0
M  V30 2815 H 260.141 4.48307 -2.18684 0
M  V30 2816 H 259.295 6.05178 -0.429427 0
M  V30 2817 H 258.034 4.87684 0.0397956 0
M  V30 2818 H 257.039 5.01152 -2.26113 0
M  V30 2819 H 258.264 6.22045 -2.72463 0
M  V30 2820 H 256.21 6.54064 -0.503575 0
M  V30 2821 H 256.127 7.27007 -2.07355 0
M  V30 2822 H 257.395 7.73336 -0.978336 0
M  V30 2823 N 261.624 0.925811 1.2754 0
M  V30 2824 C 262.872 0.564138 1.94067 0
M  V30 2825 C 263.193 -0.897188 1.73134 0
M  V30 2826 O 262.463 -1.63573 1.07799 0
M  V30 2827 H 261.043 0.205645 0.718136 0
M  V30 2828 H 263.705 1.1778 1.55287 0
M  V30 2829 H 262.801 0.76881 3.02483 0
M  V30 2830 N 263.102 -1.41638 0.69111 0
M  V30 2831 C 264.349 -2.01299 0.220193 0
M  V30 2832 C 264.677 -1.54715 -1.17871 0
M  V30 2833 O 263.932 -0.747193 -1.80874 0
M  V30 2834 C 264.231 -3.56714 0.221277 0
M  V30 2835 C 263.897 -4.22792 1.56709 0
M  V30 2836 C 262.559 -4.40557 1.93554 0
M  V30 2837 C 264.911 -4.59883 2.45268 0
M  V30 2838 C 262.239 -4.92688 3.18552 0
M  V30 2839 C 264.591 -5.13403 3.69595 0
M  V30 2840 C 263.255 -5.29379 4.06589 0
M  V30 2841 H 262.525 -0.736606 0.0805743 0
M  V30 2842 H 265.172 -1.69598 0.889319 0
M  V30 2843 H 263.477 -3.8818 -0.531391 0
M  V30 2844 H 265.174 -4.00678 -0.160547 0
M  V30 2845 H 261.764 -4.09336 1.2705 0
M  V30 2846 H 265.948 -4.45817 2.18084 0
M  V30 2847 H 261.204 -5.03242 3.47214 0
M  V30 2848 H 265.378 -5.41084 4.38407 0
M  V30 2849 H 263.005 -5.69537 5.03519 0
M  V30 2850 N 264.58 -0.43555 -1.51462 0
M  V30 2851 C 265.81 0.130053 -2.0619 0
M  V30 2852 C 266.218 1.37164 -1.30317 0
M  V30 2853 O 265.561 1.80225 -0.355598 0
M  V30 2854 C 265.623 0.519418 -3.55728 0
M  V30 2855 C 265.287 -0.615119 -4.52841 0
M  V30 2856 C 266.284 -1.48671 -4.9819 0
M  V30 2857 C 263.969 -0.795341 -4.95963 0
M  V30 2858 C 265.963 -2.52324 -5.8533 0
M  V30 2859 C 263.65 -1.83514 -5.82894 0
M  V30 2860 C 264.648 -2.69748 -6.27475 0
M  V30 2861 O 264.336 -3.71944 -7.1268 0
M  V30 2862 H 264.068 0.0121612 -0.675891 0
M  V30 2863 H 266.622 -0.6129 -1.96043 0
M  V30 2864 H 264.852 1.31505 -3.63653 0
M  V30 2865 H 266.541 1.01597 -3.92979 0
M  V30 2866 H 267.307 -1.359 -4.65571 0
M  V30 2867 H 263.186 -0.133713 -4.60806 0
M  V30 2868 H 266.73 -3.19665 -6.20048 0
M  V30 2869 H 262.627 -1.96306 -6.14926 0
M  V30 2870 H 263.395 -3.68503 -7.30854 0
M  V30 2871 N 266.058 1.56714 -0.166846 0
M  V30 2872 C 266.988 2.20754 0.760913 0
M  V30 2873 C 267.969 1.16178 1.24244 0
M  V30 2874 O 269.154 1.44592 1.29641 0
M  V30 2875 C 266.284 2.84478 1.99223 0
M  V30 2876 C 265.238 3.95053 1.64672 0
M  V30 2877 C 264.564 4.45805 2.95232 0
M  V30 2878 C 265.864 5.14865 0.878155 0
M  V30 2879 H 267.558 2.98537 0.22713 0
M  V30 2880 H 265.104 1.43596 0.107805 0
M  V30 2881 H 267.057 3.27951 2.64624 0
M  V30 2882 H 265.781 2.04056 2.55007 0
M  V30 2883 H 264.44 3.52228 1.01641 0
M  V30 2884 H 264.088 3.62181 3.49047 0
M  V30 2885 H 263.788 5.204 2.7287 0
M  V30 2886 H 265.312 4.91962 3.6167 0
M  V30 2887 H 266.726 5.55059 1.43466 0
M  V30 2888 H 265.123 5.95348 0.753738 0
M  V30 2889 H 266.193 4.84735 -0.126377 0
M  V30 2890 N 267.536 -0.106894 1.57237 0
M  V30 2891 C 268.499 -1.11466 2.0027 0
M  V30 2892 C 269.499 -1.33623 0.894519 0
M  V30 2893 O 270.689 -1.29935 1.16028 0
M  V30 2894 C 267.821 -2.46646 2.35327 0
M  V30 2895 H 269.014 -0.744516 2.90512 0
M  V30 2896 H 266.567 -0.351576 1.52295 0
M  V30 2897 H 267.302 -2.88558 1.48003 0
M  V30 2898 H 267.087 -2.31915 3.16161 0
M  V30 2899 H 268.577 -3.19151 2.69318 0
M  V30 2900 N 269.014 -1.53014 -0.377408 0
M  V30 2901 C 270.261 -1.68623 -1.12128 0
M  V30 2902 C 270.589 -0.431997 -1.89642 0
M  V30 2903 O 269.844 0.585855 -1.86725 0
M  V30 2904 C 270.143 -2.87982 -2.11663 0
M  V30 2905 C 269.809 -4.24964 -1.50719 0
M  V30 2906 C 268.471 -4.62217 -1.33825 0
M  V30 2907 C 270.823 -5.10199 -1.06519 0
M  V30 2908 C 268.151 -5.82352 -0.712963 0
M  V30 2909 C 270.503 -6.30969 -0.453955 0
M  V30 2910 C 269.167 -6.66944 -0.272411 0
M  V30 2911 H 268.437 -0.617034 -0.410305 0
M  V30 2912 H 271.084 -1.8718 -0.404484 0
M  V30 2913 H 269.389 -2.63889 -2.89603 0
M  V30 2914 H 271.086 -2.97253 -2.6915 0
M  V30 2915 H 267.676 -3.95626 -1.64858 0
M  V30 2916 H 271.86 -4.81978 -1.18368 0
M  V30 2917 H 267.116 -6.08824 -0.560611 0
M  V30 2918 H 271.29 -6.96324 -0.103217 0
M  V30 2919 H 268.917 -7.59898 0.214181 0
M  V30 2920 N 270.492 0.636531 -1.44174 0
M  V30 2921 C 271.424 1.7618 -1.46606 0
M  V30 2922 C 272.437 1.58768 -0.360091 0
M  V30 2923 O 273.626 1.67181 -0.625518 0
M  V30 2924 C 270.726 3.13833 -1.27915 0
M  V30 2925 C 269.899 3.57753 -2.51658 0
M  V30 2926 C 268.958 4.74265 -2.27945 0
M  V30 2927 O 267.984 4.82852 -3.01401 0
M  V30 2928 N 269.186 5.65604 -1.30662 0
M  V30 2929 H 271.951 1.74567 -2.43612 0
M  V30 2930 H 269.512 0.820924 -1.39544 0
M  V30 2931 H 271.504 3.8949 -1.09907 0
M  V30 2932 H 270.074 3.10121 -0.39293 0
M  V30 2933 H 269.294 2.72362 -2.84978 0
M  V30 2934 H 270.582 3.83847 -3.33974 0
M  V30 2935 H 269.98 5.61354 -0.699844 0
M  V30 2936 H 268.537 6.40913 -1.18634 0
M  V30 2937 N 271.97 1.30982 0.876444 0
M  V30 2938 C 273.247 1.10942 1.61094 0
M  V30 2939 C 273.627 -0.338223 2.08373 0
M  V30 2940 O 272.975 -1.33122 1.85717 0
M  V30 2941 C 273.185 2.11789 2.77392 0
M  V30 2942 C 274.533 2.43965 3.47514 0
M  V30 2943 O 275.557 2.10166 2.87591 0
M  V30 2944 O 274.416 3.01817 4.55597 0
M  V30 2945 H 271.51 0.42667 0.708436 0
M  V30 2946 H 274.056 1.42438 0.922474 0
M  V30 2947 H 272.828 3.09194 2.39823 0
M  V30 2948 H 272.451 1.81161 3.5393 0
M  V30 2949 N 273.449 -1.08991 1.13837 0
M  V30 2950 C 274.695 -1.81526 0.90422 0
M  V30 2951 C 275.028 -1.85706 -0.568066 0
M  V30 2952 O 274.303 -1.32855 -1.42056 0
M  V30 2953 C 274.586 -3.27447 1.49835 0
M  V30 2954 C 274.439 -3.31512 3.04006 0
M  V30 2955 C 275.758 -4.24256 1.17025 0
M  V30 2956 H 272.877 -0.659029 0.329923 0
M  V30 2957 H 275.519 -1.27644 1.40737 0
M  V30 2958 H 273.669 -3.73462 1.07044 0
M  V30 2959 H 275.341 -2.93867 3.55584 0
M  V30 2960 H 273.584 -2.70963 3.38765 0
M  V30 2961 H 274.255 -4.34329 3.40679 0
M  V30 2962 H 276.731 -3.86549 1.54009 0
M  V30 2963 H 275.607 -5.24684 1.61237 0
M  V30 2964 H 275.868 -4.42019 0.0846274 0
M  V30 2965 N 274.927 -0.932562 -1.27047 0
M  V30 2966 C 276.175 -0.574422 -1.93765 0
M  V30 2967 C 276.496 0.887993 -1.73608 0
M  V30 2968 O 275.766 1.62999 -1.08665 0
M  V30 2969 H 274.346 -0.209451 -0.717035 0
M  V30 2970 H 277.008 -1.18601 -1.5466 0
M  V30 2971 H 276.104 -0.784841 -3.02071 0
M  V30 2972 N 276.405 1.4127 -0.698611 0
M  V30 2973 C 277.368 2.29158 -0.044132 0
M  V30 2974 C 278.368 1.44529 0.704841 0
M  V30 2975 O 279.558 1.65643 0.539276 0
M  V30 2976 C 276.69 3.27459 0.947809 0
M  V30 2977 H 277.883 2.88529 -0.817994 0
M  V30 2978 H 275.436 1.49307 -0.46228 0
M  V30 2979 H 276.171 2.73073 1.74933 0
M  V30 2980 H 275.956 3.8991 0.41385 0
M  V30 2981 H 277.446 3.93311 1.40344 0
M  V30 2982 N 277.883 0.443576 1.51229 0
M  V30 2983 C 279.123 -0.119889 2.04048 0
M  V30 2984 C 279.487 -1.39418 1.32009 0
M  V30 2985 O 280.688 -2.03829 1.75235 0
M  V30 2986 C 278.959 -0.327233 3.55899 0
M  V30 2987 S 280.518 -0.853208 4.30425 0
M  V30 2988 H 277.336 -0.028921 0.710412 0
M  V30 2989 H 279.938 0.604413 1.85922 0
M  V30 2990 H 278.642 0.606445 4.05895 0
M  V30 2991 H 278.173 -1.07844 3.7833 0
M  V30 2992 H 280.188 -2.13005 4.48155 0
M  V30 2993 N 279.361 -1.56624 0.175154 0
M  V30 2994 C 280.607 -1.9729 -0.469506 0
M  V30 2995 C 280.94 -1.06128 -1.62636 0
M  V30 2996 O 280.215 -0.109183 -1.94193 0
M  V30 2997 C 280.498 -3.47375 -0.948804 0
M  V30 2998 C 280.351 -4.49317 0.208491 0
M  V30 2999 C 281.67 -4.00652 -1.82116 0
M  V30 3000 H 278.789 -0.717317 -0.16919 0
M  V30 3001 H 281.431 -1.88184 0.262062 0
M  V30 3002 H 279.581 -3.55267 -1.57219 0
M  V30 3003 H 281.253 -4.53482 0.845682 0
M  V30 3004 H 279.496 -4.25121 0.863395 0
M  V30 3005 H 280.167 -5.51741 -0.169059 0
M  V30 3006 H 282.643 -3.95416 -1.2956 0
M  V30 3007 H 281.519 -5.06075 -2.12554 0
M  V30 3008 H 281.78 -3.44699 -2.7683 0
M  V30 3009 N 280.839 0.0985539 -1.57292 0
M  V30 3010 C 281.802 1.10402 -2.00858 0
M  V30 3011 C 282.802 1.33146 -0.901593 0
M  V30 3012 O 283.992 1.29318 -1.16716 0
M  V30 3013 C 281.124 2.45394 -2.36632 0
M  V30 3014 H 282.317 0.729099 -2.90902 0
M  V30 3015 H 279.87 0.343495 -1.52479 0
M  V30 3016 H 280.605 2.87769 -1.49531 0
M  V30 3017 H 280.39 2.30235 -3.17387 0
M  V30 3018 H 281.88 3.17718 -2.71007 0
M  V30 3019 N 282.317 1.53212 0.369288 0
M  V30 3020 C 283.247 1.82365 1.45826 0
M  V30 3021 C 284.228 0.676907 1.56051 0
M  V30 3022 O 285.413 0.926401 1.70679 0
M  V30 3023 C 282.543 2.01023 2.83208 0
M  V30 3024 C 281.497 3.1678 2.8781 0
M  V30 3025 C 280.823 3.20724 4.27832 0
M  V30 3026 C 282.123 4.55447 2.55667 0
M  V30 3027 H 283.817 2.73559 1.21678 0
M  V30 3028 H 281.363 1.3163 0.583911 0
M  V30 3029 H 283.316 2.20001 3.59413 0
M  V30 3030 H 282.04 1.06536 3.08736 0
M  V30 3031 H 280.699 2.97616 2.14056 0
M  V30 3032 H 280.347 2.23882 4.50429 0
M  V30 3033 H 280.047 3.98496 4.31827 0
M  V30 3034 H 281.571 3.41881 5.05915 0
M  V30 3035 H 282.985 4.74611 3.21586 0
M  V30 3036 H 281.382 5.35432 2.70984 0
M  V30 3037 H 282.452 4.60812 1.5093 0
M  V30 3038 N 283.795 -0.628877 1.44509 0
M  V30 3039 C 285.041 -1.39045 1.47629 0
M  V30 3040 C 285.374 -1.93892 0.109343 0
M  V30 3041 O 284.649 -1.7379 -0.87334 0
M  V30 3042 C 284.932 -2.55408 2.53848 0
M  V30 3043 C 284.785 -2.05896 3.99909 0
M  V30 3044 C 286.104 -3.5759 2.56549 0
M  V30 3045 H 283.223 -0.504232 0.537512 0
M  V30 3046 H 285.865 -0.710854 1.76201 0
M  V30 3047 H 284.015 -3.13384 2.29615 0
M  V30 3048 H 285.687 -1.52734 4.35282 0
M  V30 3049 H 283.93 -1.37061 4.11578 0
M  V30 3050 H 284.601 -2.89681 4.69882 0
M  V30 3051 H 287.077 -3.09419 2.78207 0
M  V30 3052 H 285.953 -4.36527 3.32769 0
M  V30 3053 H 286.214 -4.11808 1.60832 0
M  V30 3054 N 285.273 -1.31445 -0.869486 0
M  V30 3055 C 286.498 -1.24256 -1.66058 0
M  V30 3056 C 286.923 0.188928 -1.87149 0
M  V30 3057 O 286.281 1.13522 -1.4136 0
M  V30 3058 C 286.329 -1.9924 -3.00559 0
M  V30 3059 O 285.433 -1.33007 -3.90362 0
M  V30 3060 H 284.774 -0.428973 -0.506831 0
M  V30 3061 H 287.304 -1.73521 -1.08404 0
M  V30 3062 H 287.314 -2.08854 -3.50491 0
M  V30 3063 H 285.989 -3.03342 -2.84528 0
M  V30 3064 H 284.566 -1.31848 -3.48813 0
M  V30 3065 N 286.751 1.08385 -1.14413 0
M  V30 3066 C 287.997 1.81044 -0.913834 0
M  V30 3067 C 288.33 1.86004 0.558209 0
M  V30 3068 O 287.605 1.33606 1.4135 0
M  V30 3069 C 287.888 3.26648 -1.51569 0
M  V30 3070 C 287.741 3.29895 -3.0576 0
M  V30 3071 C 289.06 4.23629 -1.19273 0
M  V30 3072 H 286.179 0.65727 -0.333414 0
M  V30 3073 H 288.821 1.26896 -1.41412 0
M  V30 3074 H 286.971 3.72889 -1.09023 0
M  V30 3075 H 288.643 2.91977 -3.57137 0
M  V30 3076 H 286.886 2.69163 -3.40197 0
M  V30 3077 H 287.557 4.32516 -3.42977 0
M  V30 3078 H 290.033 3.85727 -1.56057 0
M  V30 3079 H 288.909 5.23822 -1.64017 0
M  V30 3080 H 289.17 4.41968 -0.108068 0
M  V30 3081 N 288.23 0.939286 1.26551 0
M  V30 3082 C 289.646 0.641304 1.46149 0
M  V30 3083 C 289.846 -0.805964 1.84679 0
M  V30 3084 O 288.902 -1.58278 1.96734 0
M  V30 3085 C 290.215 1.6011 2.54529 0
M  V30 3086 C 291.763 1.6106 2.68382 0
M  V30 3087 C 292.238 2.55765 3.79932 0
M  V30 3088 N 293.729 2.5404 3.87322 0
M  V30 3089 C 294.464 3.24004 4.73085 0
M  V30 3090 N 293.96 4.03388 5.63249 0
M  V30 3091 N 295.753 3.12965 4.66914 0
M  V30 3092 H 287.904 1.87478 0.998285 0
M  V30 3093 H 290.167 0.805559 0.499779 0
M  V30 3094 H 289.873 2.63412 2.33039 0
M  V30 3095 H 289.747 1.35171 3.52149 0
M  V30 3096 H 292.134 0.584835 2.89247 0
M  V30 3097 H 292.215 1.90053 1.71212 0
M  V30 3098 H 291.859 3.58458 3.5982 0
M  V30 3099 H 291.789 2.24063 4.76554 0
M  V30 3100 H 294.28 1.96396 3.22858 0
M  V30 3101 H 294.593 4.5373 6.25579 0
M  V30 3102 H 292.938 4.07489 5.63008 0
M  V30 3103 H 296.129 2.50432 3.95476 0
M  V30 3104 H 296.302 3.67759 5.33533 0
M  V30 3105 N 289.708 -1.40897 0.706093 0
M  V30 3106 C 290.954 -2.01352 0.241889 0
M  V30 3107 C 291.287 -1.55832 -1.15888 0
M  V30 3108 O 290.562 -0.774145 -1.7843 0
M  V30 3109 C 290.845 -3.58752 0.311311 0
M  V30 3110 C 290.698 -4.1437 1.74978 0
M  V30 3111 C 292.017 -4.38914 -0.322922 0
M  V30 3112 H 289.136 -0.731562 0.0893687 0
M  V30 3113 H 291.778 -1.67504 0.896802 0
M  V30 3114 H 289.928 -3.87718 -0.246302 0
M  V30 3115 H 291.6 -3.96239 2.36205 0
M  V30 3116 H 289.843 -3.69016 2.28057 0
M  V30 3117 H 290.514 -5.23532 1.74981 0
M  V30 3118 H 292.99 -4.15822 0.152089 0
M  V30 3119 H 291.866 -5.48358 -0.243855 0
M  V30 3120 H 292.127 -4.19176 -1.40513 0
M  V30 3121 N 291.186 -0.45159 -1.50991 0
M  V30 3122 C 292.416 0.108177 -2.06317 0
M  V30 3123 C 292.824 1.35774 -1.31765 0
M  V30 3124 O 292.167 1.79838 -0.374694 0
M  V30 3125 C 292.229 0.481659 -3.56259 0
M  V30 3126 C 291.893 -0.663114 -4.52163 0
M  V30 3127 C 292.89 -1.53947 -4.96585 0
M  V30 3128 C 290.575 -0.8479 -4.95092 0
M  V30 3129 C 292.569 -2.58518 -5.82621 0
M  V30 3130 C 290.256 -1.89686 -5.80915 0
M  V30 3131 C 291.254 -2.76388 -6.24579 0
M  V30 3132 O 290.942 -3.79482 -7.08695 0
M  V30 3133 H 290.674 0.00499183 -0.675982 0
M  V30 3134 H 293.228 -0.633659 -1.95381 0
M  V30 3135 H 291.458 1.27641 -3.65027 0
M  V30 3136 H 293.147 0.974233 -3.94035 0
M  V30 3137 H 293.913 -1.4083 -4.64103 0
M  V30 3138 H 289.792 -0.18258 -4.60638 0
M  V30 3139 H 293.336 -3.26224 -6.16623 0
M  V30 3140 H 289.233 -2.02817 -6.12809 0
M  V30 3141 H 290.001 -3.76234 -7.26905 0
M  V30 3142 N 292.664 1.56529 -0.183458 0
M  V30 3143 C 293.911 1.97244 0.458357 0
M  V30 3144 C 294.239 1.06992 1.62428 0
M  V30 3145 O 293.494 0.106542 1.9541 0
M  V30 3146 C 293.793 3.43939 0.971637 0
M  V30 3147 C 293.459 4.5083 -0.0796784 0
M  V30 3148 C 292.121 4.79786 -0.368584 0
M  V30 3149 C 294.473 5.15138 -0.792638 0
M  V30 3150 C 291.801 5.70345 -1.37563 0
M  V30 3151 C 294.153 6.06784 -1.78875 0
M  V30 3152 C 292.817 6.34102 -2.08497 0
M  V30 3153 H 292.087 0.721768 0.167725 0
M  V30 3154 H 294.734 1.89472 -0.277976 0
M  V30 3155 H 293.039 3.48724 1.78602 0
M  V30 3156 H 294.736 3.72791 1.47744 0
M  V30 3157 H 291.326 4.28317 0.155668 0
M  V30 3158 H 295.51 4.92868 -0.582659 0
M  V30 3159 H 290.766 5.89789 -1.61118 0
M  V30 3160 H 294.94 6.55677 -2.3465 0
M  V30 3161 H 292.567 7.04074 -2.86678 0
M  V30 3162 N 294.142 -0.090211 1.57342 0
M  V30 3163 C 295.089 -1.10909 2.02405 0
M  V30 3164 C 296.059 -1.39523 0.901252 0
M  V30 3165 O 297.244 -1.50903 1.1676 0
M  V30 3166 C 294.384 -2.42277 2.45755 0
M  V30 3167 C 293.497 -2.20352 3.71576 0
M  V30 3168 C 292.632 -3.45154 4.03785 0
M  V30 3169 C 291.671 -3.18512 5.22701 0
M  V30 3170 N 290.808 -4.35593 5.50639 0
M  V30 3171 H 295.648 -0.71782 2.89225 0
M  V30 3172 H 293.185 -0.342901 1.43048 0
M  V30 3173 H 295.143 -3.18951 2.68935 0
M  V30 3174 H 293.773 -2.79242 1.61938 0
M  V30 3175 H 292.825 -1.34458 3.55844 0
M  V30 3176 H 294.137 -1.96661 4.58395 0
M  V30 3177 H 293.291 -4.30233 4.27767 0
M  V30 3178 H 292.03 -3.71904 3.15498 0
M  V30 3179 H 291.035 -2.31827 4.98534 0
M  V30 3180 H 292.26 -2.93103 6.12591 0
M  V30 3181 H 290.206 -4.6241 4.6531 0
M  V30 3182 H 290.123 -4.1511 6.31838 0
M  V30 3183 H 291.391 -5.21723 5.7916 0
M  V30 3184 N 295.62 -1.53406 -0.361157 0
M  V30 3185 C 296.567 -1.80156 -1.44265 0
M  V30 3186 C 297.537 -0.646183 -1.53015 0
M  V30 3187 O 298.722 -0.888818 -1.68833 0
M  V30 3188 C 295.862 -2.00116 -2.81154 0
M  V30 3189 C 294.975 -3.27833 -2.81335 0
M  V30 3190 C 294.11 -3.37957 -4.09828 0
M  V30 3191 C 293.149 -4.59689 -4.04168 0
M  V30 3192 N 292.286 -4.66942 -5.24318 0
M  V30 3193 H 297.126 -2.72438 -1.20754 0
M  V30 3194 H 294.663 -1.34954 -0.585296 0
M  V30 3195 H 296.621 -2.09677 -3.60682 0
M  V30 3196 H 295.251 -1.11167 -3.03054 0
M  V30 3197 H 294.303 -3.27204 -1.94014 0
M  V30 3198 H 295.615 -4.17442 -2.73027 0
M  V30 3199 H 294.769 -3.46853 -4.97773 0
M  V30 3200 H 293.508 -2.46372 -4.20894 0
M  V30 3201 H 292.513 -4.50889 -3.14609 0
M  V30 3202 H 293.738 -5.5262 -3.947 0
M  V30 3203 H 291.684 -3.7826 -5.35962 0
M  V30 3204 H 291.601 -5.50462 -5.18197 0
M  V30 3205 H 292.869 -4.80127 -6.14084 0
M  V30 3206 N 297.098 0.621204 -1.44841 0
M  V30 3207 C 298.338 1.39201 -1.49674 0
M  V30 3208 C 298.702 1.91561 -0.129764 0
M  V30 3209 O 299.903 2.68748 -0.0527814 0
M  V30 3210 C 298.174 2.519 -2.53537 0
M  V30 3211 S 299.733 3.39916 -2.77494 0
M  V30 3212 H 296.551 0.474758 -0.529269 0
M  V30 3213 H 299.153 0.718171 -1.81831 0
M  V30 3214 H 297.857 2.11761 -3.51547 0
M  V30 3215 H 297.388 3.241 -2.22986 0
M  V30 3216 H 299.403 4.49646 -2.0984 0
M  V30 3217 N 298.576 1.31904 0.862503 0
M  V30 3218 C 299.987 1.19803 1.43193 0
M  V30 3219 C 300.338 -0.192567 1.95253 0
M  V30 3220 O 299.463 -1.09081 1.86896 0
M  V30 3221 C 300.058 2.16883 2.60283 0
M  V30 3222 C 298.617 2.08692 3.13248 0
M  V30 3223 C 297.764 2.05691 1.85975 0
M  V30 3224 H 300.715 1.43846 0.670365 0
M  V30 3225 H 300.736 1.76278 3.37204 0
M  V30 3226 H 300.248 3.18083 2.22363 0
M  V30 3227 H 298.349 1.10713 3.55771 0
M  V30 3228 H 298.462 2.9815 3.75025 0
M  V30 3229 H 296.826 1.50814 2.05249 0
M  V30 3230 H 297.609 3.08659 1.50282 0
M  V30 3231 N 300.054 -1.07777 1.14986 0
M  V30 3232 C 301.301 -1.8029 0.922056 0
M  V30 3233 C 301.629 -1.86531 -0.55105 0
M  V30 3234 O 300.884 -1.34189 -1.42449 0
M  V30 3235 C 301.183 -3.25495 1.47608 0
M  V30 3236 C 300.849 -3.39361 2.96893 0
M  V30 3237 C 299.511 -3.42852 3.37647 0
M  V30 3238 C 301.863 -3.42512 3.92854 0
M  V30 3239 C 299.191 -3.47094 4.73015 0
M  V30 3240 C 301.543 -3.4829 5.28088 0
M  V30 3241 C 300.207 -3.50058 5.68345 0
M  V30 3242 H 299.477 -0.659727 0.337404 0
M  V30 3243 H 302.124 -1.26854 1.43459 0
M  V30 3244 H 300.429 -3.81683 0.88463 0
M  V30 3245 H 302.126 -3.80168 1.27568 0
M  V30 3246 H 298.716 -3.37339 2.64387 0
M  V30 3247 H 302.9 -3.3904 3.62444 0
M  V30 3248 H 298.156 -3.46758 5.03556 0
M  V30 3249 H 302.33 -3.49675 6.02246 0
M  V30 3250 H 299.957 -3.53097 6.73221 0
M  V30 3251 N 301.532 -0.945985 -1.26051 0
M  V30 3252 C 302.76 -0.613025 -1.9761 0
M  V30 3253 C 303.175 0.813035 -1.70397 0
M  V30 3254 O 302.532 1.54274 -0.974979 0
M  V30 3255 C 302.583 -0.85159 -3.51326 0
M  V30 3256 O 302.304 -2.22157 -3.77595 0
M  V30 3257 C 303.805 -0.529831 -4.40122 0
M  V30 3258 H 301.025 -0.230593 -0.630133 0
M  V30 3259 H 303.569 -1.268 -1.60443 0
M  V30 3260 H 301.724 -0.243151 -3.86636 0
M  V30 3261 H 302.138 -2.2852 -4.721 0
M  V30 3262 H 303.612 -0.747348 -5.46917 0
M  V30 3263 H 304.089 0.535341 -4.35925 0
M  V30 3264 H 304.695 -1.11721 -4.10364 0
M  V30 3265 N 303.011 1.40521 -0.713556 0
M  V30 3266 C 304.257 2.01221 -0.252564 0
M  V30 3267 C 304.59 1.56444 1.1506 0
M  V30 3268 O 303.865 0.783597 1.78017 0
M  V30 3269 C 304.148 3.58582 -0.330332 0
M  V30 3270 C 304.001 4.13437 -1.77173 0
M  V30 3271 C 305.32 4.39079 0.299641 0
M  V30 3272 H 302.439 0.731077 -0.0932471 0
M  V30 3273 H 305.081 1.67026 -0.905673 0
M  V30 3274 H 303.231 3.87844 0.225737 0
M  V30 3275 H 304.903 3.9498 -2.38303 0
M  V30 3276 H 303.146 3.67801 -2.3001 0
M  V30 3277 H 303.817 5.22597 -1.77755 0
M  V30 3278 H 306.293 4.15735 -0.174139 0
M  V30 3279 H 305.169 5.4848 0.214771 0
M  V30 3280 H 305.43 4.19915 1.38288 0
M  V30 3281 N 304.489 0.459591 1.5075 0
M  V30 3282 C 305.436 -0.340524 2.28274 0
M  V30 3283 C 306.406 -0.997371 1.32822 0
M  V30 3284 O 307.591 -1.01202 1.61749 0
M  V30 3285 C 304.731 -1.42317 3.14388 0
M  V30 3286 C 303.844 -0.782251 4.24859 0
M  V30 3287 C 302.979 -1.84182 4.98247 0
M  V30 3288 C 302.018 -1.18053 6.00608 0
M  V30 3289 N 301.155 -2.18244 6.67319 0
M  V30 3290 H 305.995 0.326899 2.96202 0
M  V30 3291 H 303.532 0.173057 1.46078 0
M  V30 3292 H 305.49 -2.06241 3.62658 0
M  V30 3293 H 304.12 -2.05992 2.4853 0
M  V30 3294 H 303.172 -0.0307404 3.80388 0
M  V30 3295 H 304.484 -0.259663 4.98124 0
M  V30 3296 H 303.638 -2.55714 5.50177 0
M  V30 3297 H 302.377 -2.39819 4.24662 0
M  V30 3298 H 301.382 -0.450776 5.47949 0
M  V30 3299 H 302.607 -0.631202 6.7616 0
M  V30 3300 H 300.553 -2.72919 5.96533 0
M  V30 3301 H 300.47 -1.70938 7.36421 0
M  V30 3302 H 301.738 -2.89191 7.23871 0
M  V30 3303 N 305.967 -1.56429 0.191757 0
M  V30 3304 C 306.915 -2.20273 -0.747174 0
M  V30 3305 C 307.909 -1.17288 -1.22229 0
M  V30 3306 O 309.115 -1.35441 -1.18557 0
M  V30 3307 H 305.49 -0.705885 -0.259289 0
M  V30 3308 H 307.461 -2.97826 -0.184963 0
M  V30 3309 C 306.21 -2.87356 -1.95759 0
M  V30 3310 H 305.533 -3.66341 -1.60106 0
M  V30 3311 H 306.973 -3.3547 -2.59299 0
M  V30 3312 C 305.432 -1.88213 -2.79423 0
M  V30 3313 O 305.962 -1.38033 -3.7724 0
M  V30 3314 N 304.168 -1.56516 -2.44849 0
M  V30 3315 H 303.715 -1.97516 -1.65364 0
M  V30 3316 H 303.673 -0.904369 -3.01112 0
M  V30 3317 N 307.445 0.0818655 -1.57387 0
M  V30 3318 C 308.375 1.09885 -2.06028 0
M  V30 3319 C 309.356 1.4098 -0.951774 0
M  V30 3320 O 310.541 1.50781 -1.22387 0
M  V30 3321 C 307.671 2.4151 -2.4958 0
M  V30 3322 C 306.625 2.24792 -3.64215 0
M  V30 3323 C 305.951 3.61712 -3.93787 0
M  V30 3324 C 307.251 1.67749 -4.94629 0
M  V30 3325 H 308.945 0.694128 -2.91243 0
M  V30 3326 H 306.491 0.332448 -1.4011 0
M  V30 3327 H 308.444 3.12939 -2.82219 0
M  V30 3328 H 307.168 2.83943 -1.61381 0
M  V30 3329 H 305.827 1.55807 -3.31843 0
M  V30 3330 H 305.475 4.01697 -3.02735 0
M  V30 3331 H 305.175 3.51368 -4.70971 0
M  V30 3332 H 306.699 4.34587 -4.28913 0
M  V30 3333 H 308.113 2.29032 -5.25564 0
M  V30 3334 H 306.51 1.68128 -5.76067 0
M  V30 3335 H 307.58 0.638059 -4.80684 0
M  V30 3336 N 308.923 1.53595 0.353017 0
M  V30 3337 C 309.886 1.80232 1.41594 0
M  V30 3338 C 310.886 0.673081 1.46035 0
M  V30 3339 O 312.076 0.941335 1.46576 0
M  V30 3340 C 309.208 1.93578 2.80607 0
M  V30 3341 H 310.401 2.75174 1.19244 0
M  V30 3342 H 307.954 1.44864 0.586872 0
M  V30 3343 H 308.689 1.00746 3.08254 0
M  V30 3344 H 308.474 2.75724 2.78781 0
M  V30 3345 H 309.964 2.15735 3.57558 0
M  V30 3346 N 310.401 -0.613514 1.45168 0
M  V30 3347 C 311.334 -1.73809 1.47871 0
M  V30 3348 C 312.312 -1.59097 0.33568 0
M  V30 3349 O 313.496 -1.8074 0.535299 0
M  V30 3350 C 310.623 -3.11574 1.32813 0
M  V30 3351 C 309.669 -3.4489 2.50905 0
M  V30 3352 S 310.502 -3.40393 4.13392 0
M  V30 3353 C 311.658 -4.80749 4.00789 0
M  V30 3354 H 311.891 -1.71252 2.43023 0
M  V30 3355 H 309.424 -0.789658 1.32679 0
M  V30 3356 H 311.382 -3.91065 1.24812 0
M  V30 3357 H 310.043 -3.11652 0.391418 0
M  V30 3358 H 309.236 -4.45183 2.36279 0
M  V30 3359 H 308.838 -2.72901 2.55736 0
M  V30 3360 H 311.13 -5.7041 3.65567 0
M  V30 3361 H 312.073 -5.00431 5.00974 0
M  V30 3362 H 312.481 -4.56151 3.32545 0
M  V30 3363 N 311.879 -1.3236 -0.855495 0
M  V30 3364 C 313.126 -1.22872 -1.60962 0
M  V30 3365 C 313.454 0.209658 -1.93367 0
M  V30 3366 O 312.709 1.16243 -1.57436 0
M  V30 3367 C 313.008 -2.03275 -2.93963 0
M  V30 3368 C 312.674 -3.5264 -2.80991 0
M  V30 3369 C 311.336 -3.93364 -2.7716 0
M  V30 3370 C 313.688 -4.47626 -2.66983 0
M  V30 3371 C 311.016 -5.27319 -2.572 0
M  V30 3372 C 313.368 -5.81723 -2.48558 0
M  V30 3373 C 312.032 -6.2165 -2.4312 0
M  V30 3374 H 311.302 -0.44962 -0.589001 0
M  V30 3375 H 313.949 -1.63777 -0.992442 0
M  V30 3376 H 312.254 -1.55095 -3.59795 0
M  V30 3377 H 313.951 -1.93303 -3.51333 0
M  V30 3378 H 310.541 -3.20295 -2.84797 0
M  V30 3379 H 314.725 -4.17084 -2.68988 0
M  V30 3380 H 309.981 -5.57311 -2.51424 0
M  V30 3381 H 314.155 -6.5494 -2.36699 0
M  V30 3382 H 311.782 -7.25388 -2.27412 0
M  V30 3383 N 313.357 1.07166 -1.15556 0
M  V30 3384 C 314.768 1.6127 -0.940693 0
M  V30 3385 C 315.119 1.89251 0.517551 0
M  V30 3386 O 314.244 1.65937 1.38903 0
M  V30 3387 C 314.839 2.92993 -1.7012 0
M  V30 3388 C 313.398 3.43832 -1.53156 0
M  V30 3389 C 312.545 2.1786 -1.71558 0
M  V30 3390 H 315.496 0.90229 -1.30554 0
M  V30 3391 H 315.517 3.62007 -1.17181 0
M  V30 3392 H 315.029 2.72596 -2.76248 0
M  V30 3393 H 313.13 3.69307 -0.494294 0
M  V30 3394 H 313.243 4.19747 -2.30975 0
M  V30 3395 H 311.607 2.2765 -1.14225 0
M  V30 3396 H 312.39 1.99956 -2.79056 0
M  V30 3397 N 314.835 0.952656 1.25548 0
M  V30 3398 C 316.112 0.523818 1.88456 0
M  V30 3399 C 316.492 -0.998871 1.85973 0
M  V30 3400 O 315.84 -1.86381 1.3219 0
M  V30 3401 C 316.05 1.0982 3.31271 0
M  V30 3402 C 317.398 1.17385 4.08051 0
M  V30 3403 O 318.422 1.04961 3.40384 0
M  V30 3404 O 317.281 1.36852 5.29088 0
M  V30 3405 H 314.375 0.172485 0.808813 0
M  V30 3406 H 316.921 1.04596 1.33633 0
M  V30 3407 H 315.693 2.1415 3.27499 0
M  V30 3408 H 315.316 0.559191 3.93648 0
M  V30 3409 N 316.313 -1.40141 0.720998 0
M  V30 3410 C 317.541 -2.05096 0.272656 0
M  V30 3411 C 317.956 -1.54334 -1.0875 0
M  V30 3412 O 317.313 -0.702211 -1.6845 0
M  V30 3413 C 317.364 -3.60636 0.249835 0
M  V30 3414 O 317.085 -4.09526 1.55629 0
M  V30 3415 C 318.586 -4.42772 -0.216396 0
M  V30 3416 H 315.806 -0.659897 0.121558 0
M  V30 3417 H 318.35 -1.79449 0.980723 0
M  V30 3418 H 316.505 -3.85232 -0.409237 0
M  V30 3419 H 316.919 -5.03758 1.4604 0
M  V30 3420 H 318.393 -5.51702 -0.181212 0
M  V30 3421 H 318.87 -4.20756 -1.25941 0
M  V30 3422 H 319.476 -4.23294 0.412596 0
M  V30 3423 N 317.792 -0.46758 -1.50504 0
M  V30 3424 C 319.038 0.0887532 -2.02606 0
M  V30 3425 C 319.371 1.39686 -1.34913 0
M  V30 3426 O 318.646 1.88644 -0.473694 0
M  V30 3427 C 318.929 0.276206 -3.59039 0
M  V30 3428 C 318.782 -1.05267 -4.37309 0
M  V30 3429 C 320.101 1.03235 -4.27821 0
M  V30 3430 H 317.22 0.0307814 -0.736357 0
M  V30 3431 H 319.862 -0.612485 -1.79857 0
M  V30 3432 H 318.012 0.8735 -3.78553 0
M  V30 3433 H 319.684 -1.68628 -4.29374 0
M  V30 3434 H 317.927 -1.65015 -4.01189 0
M  V30 3435 H 318.598 -0.875197 -5.45018 0
M  V30 3436 H 321.074 0.526111 -4.12761 0
M  V30 3437 H 319.95 1.1323 -5.37094 0
M  V30 3438 H 320.211 2.06806 -3.90748 0
M  V30 3439 N 319.27 1.56325 -0.20005 0
M  V30 3440 C 320.681 1.8408 0.31167 0
M  V30 3441 C 321.032 1.12087 1.61031 0
M  V30 3442 O 320.157 0.38332 2.12978 0
M  V30 3443 C 320.752 3.33932 0.57226 0
M  V30 3444 C 319.311 3.6208 1.02834 0
M  V30 3445 C 318.458 2.77186 0.079634 0
M  V30 3446 H 321.409 1.52939 -0.423729 0
M  V30 3447 H 321.43 3.52971 1.42096 0
M  V30 3448 H 320.942 3.86303 -0.37308 0
M  V30 3449 H 319.043 3.15147 1.98778 0
M  V30 3450 H 319.156 4.7023 0.917624 0
M  V30 3451 H 317.52 2.47951 0.582448 0
M  V30 3452 H 318.303 3.32347 -0.860238 0
M  V30 3453 N 320.748 -0.0735177 1.57428 0
M  V30 3454 C 321.681 -1.11932 1.98863 0
M  V30 3455 C 322.659 -1.37666 0.865266 0
M  V30 3456 O 323.843 -1.51068 1.12742 0
M  V30 3457 C 320.97 -2.46403 2.32386 0
M  V30 3458 C 320.016 -2.36815 3.54713 0
M  V30 3459 S 320.849 -1.76392 5.05614 0
M  V30 3460 C 322.005 -3.12444 5.42337 0
M  V30 3461 H 322.238 -0.766212 2.87257 0
M  V30 3462 H 319.771 -0.281987 1.51803 0
M  V30 3463 H 321.729 -3.23755 2.52375 0
M  V30 3464 H 320.39 -2.78876 1.44524 0
M  V30 3465 H 319.583 -3.35977 3.7568 0
M  V30 3466 H 319.185 -1.67598 3.34345 0
M  V30 3467 H 321.477 -4.08753 5.40303 0
M  V30 3468 H 322.42 -2.96258 6.43146 0
M  V30 3469 H 322.828 -3.1297 4.69798 0
M  V30 3470 N 322.226 -1.5378 -0.344866 0
M  V30 3471 C 323.503 -1.61589 -1.10219 0
M  V30 3472 C 323.883 -0.436316 -2.06542 0
M  V30 3473 O 323.231 0.571543 -2.21237 0
M  V30 3474 C 323.441 -2.97602 -1.82301 0
M  V30 3475 C 324.789 -3.5291 -2.36093 0
M  V30 3476 O 325.813 -2.99768 -1.924 0
M  V30 3477 O 324.672 -4.45859 -3.16026 0
M  V30 3478 H 321.766 -0.653522 -0.506792 0
M  V30 3479 H 324.312 -1.66126 -0.346465 0
M  V30 3480 H 323.084 -3.74893 -1.12121 0
M  V30 3481 H 322.707 -2.9665 -2.64735 0
M  V30 3482 N 323.704 0.605807 -1.45491 0
M  V30 3483 C 324.929 1.39625 -1.53361 0
M  V30 3484 C 325.354 1.87351 -0.167645 0
M  V30 3485 O 324.712 1.60243 0.848051 0
M  V30 3486 C 324.76 2.57559 -2.5238 0
M  V30 3487 O 323.864 3.58248 -2.04285 0
M  V30 3488 H 323.205 0.416771 -0.516912 0
M  V30 3489 H 325.735 0.737103 -1.90861 0
M  V30 3490 H 325.745 3.0478 -2.71244 0
M  V30 3491 H 324.42 2.22171 -3.51586 0
M  V30 3492 H 322.997 3.17664 -1.95305 0
M  V30 3493 N 325.182 1.32811 0.848464 0
M  V30 3494 C 326.114 1.18095 1.96433 0
M  V30 3495 C 327.127 0.114354 1.62398 0
M  V30 3496 O 328.316 0.363892 1.74751 0
M  V30 3497 C 325.416 0.786798 3.2964 0
M  V30 3498 C 324.589 1.943 3.91875 0
M  V30 3499 C 323.648 1.53138 5.03423 0
M  V30 3500 O 322.674 2.24432 5.23086 0
M  V30 3501 N 323.876 0.430915 5.78898 0
M  V30 3502 H 326.641 2.14218 2.09597 0
M  V30 3503 H 324.202 1.2543 1.02367 0
M  V30 3504 H 326.194 0.493715 4.01677 0
M  V30 3505 H 324.764 -0.0834541 3.12489 0
M  V30 3506 H 323.984 2.40224 3.12547 0
M  V30 3507 H 325.272 2.71689 4.30189 0
M  V30 3508 H 324.67 -0.162333 5.65467 0
M  V30 3509 H 323.227 0.197466 6.51501 0
M  V30 3510 N 326.66 -1.06551 1.16123 0
M  V30 3511 C 327.885 -1.83544 0.965735 0
M  V30 3512 C 328.31 -1.81843 -0.481102 0
M  V30 3513 O 327.668 -1.21732 -1.34354 0
M  V30 3514 C 327.716 -3.28169 1.49457 0
M  V30 3515 O 326.82 -4.0643 0.699157 0
M  V30 3516 H 326.161 -0.568026 0.343864 0
M  V30 3517 H 328.691 -1.34362 1.54299 0
M  V30 3518 H 328.701 -3.78992 1.51092 0
M  V30 3519 H 327.376 -3.28722 2.54784 0
M  V30 3520 H 325.953 -3.65216 0.7531 0
M  V30 3521 N 328.138 -0.959301 -1.25041 0
M  V30 3522 C 329.068 -0.501388 -2.28053 0
M  V30 3523 C 330.049 0.454673 -1.63911 0
M  V30 3524 O 331.234 0.352618 -1.90972 0
M  V30 3525 C 328.364 0.217224 -3.4662 0
M  V30 3526 C 327.318 -0.654034 -4.22973 0
M  V30 3527 C 326.644 0.195589 -5.34342 0
M  V30 3528 C 327.944 -1.93447 -4.85155 0
M  V30 3529 H 329.638 -1.36238 -2.66608 0
M  V30 3530 H 327.184 -0.656534 -1.28163 0
M  V30 3531 H 329.137 0.548732 -4.17812 0
M  V30 3532 H 327.861 1.1125 -3.07068 0
M  V30 3533 H 326.52 -0.968693 -3.5357 0
M  V30 3534 H 326.168 1.09076 -4.91031 0
M  V30 3535 H 325.868 -0.384091 -5.86343 0
M  V30 3536 H 327.392 0.521958 -6.08365 0
M  V30 3537 H 328.806 -1.66908 -5.48466 0
M  V30 3538 H 327.203 -2.46018 -5.47353 0
M  V30 3539 H 328.273 -2.63466 -4.07079 0
M  V30 3540 N 329.616 1.39756 -0.72842 0
M  V30 3541 C 330.862 2.00942 -0.273892 0
M  V30 3542 C 331.195 1.57656 1.13394 0
M  V30 3543 O 330.47 0.802434 1.77176 0
M  V30 3544 C 330.753 3.58211 -0.368346 0
M  V30 3545 C 330.606 4.11534 -1.81548 0
M  V30 3546 C 331.925 4.39372 0.253054 0
M  V30 3547 H 329.044 0.730047 -0.100996 0
M  V30 3548 H 331.686 1.66056 -0.923337 0
M  V30 3549 H 329.836 3.88061 0.184588 0
M  V30 3550 H 331.508 3.92431 -2.42478 0
M  V30 3551 H 329.751 3.65341 -2.33898 0
M  V30 3552 H 330.422 5.20682 -1.83288 0
M  V30 3553 H 332.898 4.15527 -0.218224 0
M  V30 3554 H 331.774 5.48677 0.156585 0
M  V30 3555 H 332.035 4.21358 1.33826 0
M  V30 3556 N 331.094 0.475555 1.50254 0
M  V30 3557 C 332.004 -0.321501 2.32387 0
M  V30 3558 C 333.02 -0.991755 1.42969 0
M  V30 3559 O 334.196 -0.978747 1.76018 0
M  V30 3560 C 331.261 -1.38667 3.17762 0
M  V30 3561 C 330.322 -0.732538 4.23004 0
M  V30 3562 C 329.555 -1.74695 5.04299 0
M  V30 3563 O 329.778 -2.97399 4.86734 0
M  V30 3564 O 328.712 -1.31631 5.8733 0
M  V30 3565 H 332.538 0.350071 3.01676 0
M  V30 3566 H 330.123 0.237321 1.47503 0
M  V30 3567 H 332.005 -2.00354 3.70724 0
M  V30 3568 H 330.68 -2.04163 2.51196 0
M  V30 3569 H 329.587 -0.0765902 3.74022 0
M  V30 3570 H 330.92 -0.120452 4.92053 0
M  V30 3571 N 332.573 -1.56217 0.208337 0
M  V30 3572 C 333.819 -1.98242 -0.427552 0
M  V30 3573 C 334.152 -1.09554 -1.60348 0
M  V30 3574 O 333.427 -0.15035 -1.93918 0
M  V30 3575 C 333.71 -3.4931 -0.874907 0
M  V30 3576 C 333.563 -4.48773 0.303751 0
M  V30 3577 C 334.882 -4.04424 -1.73577 0
M  V30 3578 H 332.001 -0.720744 -0.153936 0
M  V30 3579 H 334.643 -1.87586 0.30192 0
M  V30 3580 H 332.793 -3.58522 -1.49648 0
M  V30 3581 H 334.465 -4.51586 0.941682 0
M  V30 3582 H 332.708 -4.23194 0.953375 0
M  V30 3583 H 333.379 -5.51976 -0.0519883 0
M  V30 3584 H 335.855 -3.98075 -1.21143 0
M  V30 3585 H 334.731 -5.1047 -2.01771 0
M  V30 3586 H 334.992 -3.50494 -2.69456 0
M  V30 3587 N 334.051 0.0651679 -1.57465 0
M  V30 3588 C 335.467 0.420105 -1.53972 0
M  V30 3589 C 335.667 1.78782 -0.929474 0
M  V30 3590 O 334.723 2.46771 -0.534839 0
M  V30 3591 C 336.036 0.355084 -2.98596 0
M  V30 3592 C 337.584 0.434792 -3.09965 0
M  V30 3593 C 338.059 0.399609 -4.56253 0
M  V30 3594 N 339.55 0.459488 -4.60915 0
M  V30 3595 C 340.285 0.454584 -5.71595 0
M  V30 3596 N 339.781 0.404102 -6.9162 0
M  V30 3597 N 341.574 0.501635 -5.59857 0
M  V30 3598 H 333.725 -0.830328 -1.95498 0
M  V30 3599 H 335.988 -0.312244 -0.895102 0
M  V30 3600 H 335.694 -0.583357 -3.46828 0
M  V30 3601 H 335.568 1.16275 -3.58831 0
M  V30 3602 H 337.955 1.36366 -2.61703 0
M  V30 3603 H 338.036 -0.40157 -2.52628 0
M  V30 3604 H 337.68 -0.525436 -5.05175 0
M  V30 3605 H 337.61 1.25359 -5.11461 0
M  V30 3606 H 340.101 0.502482 -3.74544 0
M  V30 3607 H 340.414 0.404468 -7.71741 0
M  V30 3608 H 338.759 0.37069 -6.94011 0
M  V30 3609 H 341.95 0.538812 -4.64989 0
M  V30 3610 H 342.123 0.494345 -6.46112 0
M  V30 3611 N 335.529 1.53961 0.336706 0
M  V30 3612 C 336.777 1.71197 1.07405 0
M  V30 3613 C 337.098 0.481475 1.88962 0
M  V30 3614 O 336.368 -0.504585 1.8929 0
M  V30 3615 H 334.948 0.631185 0.399517 0
M  V30 3616 H 337.61 1.91232 0.376323 0
M  V30 3617 H 336.706 2.58587 1.74755 0
M  V30 3618 N 337.007 -0.598083 1.45811 0
M  V30 3619 C 338.232 -1.3881 1.54099 0
M  V30 3620 C 338.657 -1.8726 0.177578 0
M  V30 3621 O 338.015 -1.6069 -0.839541 0
M  V30 3622 C 338.063 -2.56217 2.53743 0
M  V30 3623 O 337.167 -3.5716 2.06182 0
M  V30 3624 H 336.508 -0.414024 0.519115 0
M  V30 3625 H 339.038 -0.726971 1.91249 0
M  V30 3626 H 339.048 -3.03337 2.72856 0
M  V30 3627 H 337.723 -2.20303 3.5276 0
M  V30 3628 H 336.3 -3.16624 1.96987 0
M  V30 3629 N 338.485 -1.33259 -0.841409 0
M  V30 3630 C 339.725 -1.25902 -1.61022 0
M  V30 3631 C 340.089 0.173325 -1.91216 0
M  V30 3632 O 341.29 0.370824 -2.6623 0
M  V30 3633 C 339.561 -2.10735 -2.88662 0
M  V30 3634 S 341.12 -2.20541 -3.79351 0
M  V30 3635 H 337.938 -0.447958 -0.552137 0
M  V30 3636 H 340.54 -1.68263 -0.995382 0
M  V30 3637 H 339.244 -3.1384 -2.64448 0
M  V30 3638 H 338.775 -1.69201 -3.55154 0
M  V30 3639 H 340.79 -1.36462 -4.77067 0
M  V30 3640 N 339.963 1.05934 -1.16686 0
M  V30 3641 C 341.209 1.79065 -0.95203 0
M  V30 3642 C 341.542 1.87147 0.518629 0
M  V30 3643 O 340.817 1.36574 1.38484 0
M  V30 3644 C 341.1 3.23359 -1.58464 0
M  V30 3645 C 340.953 3.23336 -3.12689 0
M  V30 3646 C 342.272 4.21004 -1.28232 0
M  V30 3647 H 339.391 0.65005 -0.34728 0
M  V30 3648 H 342.033 1.23868 -1.44072 0
M  V30 3649 H 340.183 3.70493 -1.16908 0
M  V30 3650 H 341.855 2.84336 -3.6325 0
M  V30 3651 H 340.098 2.61886 -3.4583 0
M  V30 3652 H 340.769 4.25144 -3.52075 0
M  V30 3653 H 343.245 3.8233 -1.64203 0
M  V30 3654 H 342.121 5.20225 -1.75092 0
M  V30 3655 H 342.382 4.41639 -0.201791 0
M  V30 3656 N 341.441 0.965919 1.2453 0
M  V30 3657 C 342.389 0.486506 2.27455 0
M  V30 3658 C 343.383 -0.449041 1.6334 0
M  V30 3659 O 344.589 -0.324527 1.7705 0
M  V30 3660 H 340.964 0.138857 0.739069 0
M  V30 3661 H 342.935 1.3666 2.65267 0
M  V30 3662 C 341.684 -0.209481 3.47068 0
M  V30 3663 H 341.007 0.50129 3.96645 0
M  V30 3664 H 342.447 -0.508775 4.20936 0
M  V30 3665 C 340.906 -1.43586 3.0477 0
M  V30 3666 O 341.436 -2.53299 3.11773 0
M  V30 3667 N 339.642 -1.30126 2.59838 0
M  V30 3668 H 339.189 -0.408583 2.54339 0
M  V30 3669 H 339.147 -2.12294 2.31902 0
M  V30 3670 N 342.919 -1.39368 0.735821 0
M  V30 3671 C 343.867 -2.32443 0.0855131 0
M  V30 3672 C 344.861 -1.53104 -0.724954 0
M  V30 3673 O 346.067 -1.68762 -0.626047 0
M  V30 3674 H 342.442 -0.751948 0.00885257 0
M  V30 3675 H 344.413 -2.84916 0.886883 0
M  V30 3676 C 343.162 -3.38206 -0.806983 0
M  V30 3677 H 342.485 -3.99335 -0.19274 0
M  V30 3678 H 343.925 -4.05779 -1.2296 0
M  V30 3679 C 342.384 -2.75321 -1.94165 0
M  V30 3680 O 342.914 -2.63231 -3.03435 0
M  V30 3681 N 341.12 -2.33396 -1.73132 0
M  V30 3682 H 340.667 -2.4343 -0.842596 0
M  V30 3683 H 340.625 -1.91661 -2.49225 0
M  V30 3684 N 344.397 -0.483516 -1.5 0
M  V30 3685 C 345.622 0.0667119 -2.07293 0
M  V30 3686 C 346.047 1.3164 -1.3436 0
M  V30 3687 O 345.405 1.76945 -0.394987 0
M  V30 3688 C 345.453 0.321126 -3.59167 0
M  V30 3689 O 344.557 1.39927 -3.87936 0
M  V30 3690 H 343.898 -0.0184758 -0.663743 0
M  V30 3691 H 346.428 -0.678125 -1.93035 0
M  V30 3692 H 346.438 0.557906 -4.04168 0
M  V30 3693 H 345.113 -0.592007 -4.11665 0
M  V30 3694 H 343.69 1.14882 -3.54763 0
M  V30 3695 N 345.875 1.56104 -0.216619 0
M  V30 3696 C 346.822 2.2007 0.695531 0
M  V30 3697 C 347.792 1.15471 1.19397 0
M  V30 3698 O 348.977 1.43807 1.25396 0
M  V30 3699 C 346.117 2.88073 1.90021 0
M  V30 3700 C 345.23 4.07253 1.44113 0
M  V30 3701 C 344.365 4.63052 2.603 0
M  V30 3702 C 343.404 5.74545 2.11103 0
M  V30 3703 N 342.541 6.24656 3.20545 0
M  V30 3704 H 347.381 2.97655 0.143327 0
M  V30 3705 H 344.918 1.46982 0.0589934 0
M  V30 3706 H 346.876 3.25681 2.60745 0
M  V30 3707 H 345.506 2.13015 2.42538 0
M  V30 3708 H 344.558 3.75164 0.628999 0
M  V30 3709 H 345.87 4.8783 1.04036 0
M  V30 3710 H 345.024 5.03078 3.39113 0
M  V30 3711 H 343.763 3.81628 3.03663 0
M  V30 3712 H 342.768 5.34027 1.3075 0
M  V30 3713 H 343.993 6.57801 1.68746 0
M  V30 3714 H 341.939 5.46148 3.63399 0
M  V30 3715 H 341.856 7.00343 2.84704 0
M  V30 3716 H 343.124 6.69338 3.99508 0
M  V30 3717 N 347.353 -0.0568162 1.57498 0
M  V30 3718 C 348.263 -1.08346 2.08083 0
M  V30 3719 C 349.279 -1.41439 1.01346 0
M  V30 3720 O 350.455 -1.51316 1.32912 0
M  V30 3721 C 347.52 -2.37352 2.52715 0
M  V30 3722 C 346.581 -2.11093 3.73816 0
M  V30 3723 C 345.814 -3.33949 4.1631 0
M  V30 3724 O 346.037 -4.43622 3.58547 0
M  V30 3725 O 344.971 -3.21279 5.08983 0
M  V30 3726 H 348.797 -0.683667 2.95905 0
M  V30 3727 H 346.382 -0.271965 1.46904 0
M  V30 3728 H 348.264 -3.13246 2.81877 0
M  V30 3729 H 346.939 -2.76681 1.68016 0
M  V30 3730 H 345.846 -1.32856 3.49714 0
M  V30 3731 H 347.179 -1.76637 4.59413 0
M  V30 3732 N 348.832 -1.54138 -0.328536 0
M  V30 3733 C 349.742 -1.86192 -1.42723 0
M  V30 3734 C 350.758 -0.753382 -1.56844 0
M  V30 3735 O 351.934 -1.04718 -1.72035 0
M  V30 3736 C 348.999 -2.07824 -2.77507 0
M  V30 3737 C 348.06 -3.31641 -2.72603 0
M  V30 3738 C 347.293 -3.52232 -4.00959 0
M  V30 3739 O 347.516 -2.7636 -4.9898 0
M  V30 3740 O 346.45 -4.45699 -4.0452 0
M  V30 3741 H 350.276 -2.79608 -1.18547 0
M  V30 3742 H 347.861 -1.3998 -0.522104 0
M  V30 3743 H 349.743 -2.23411 -3.57303 0
M  V30 3744 H 348.418 -1.17596 -3.01584 0
M  V30 3745 H 347.325 -3.21444 -1.91376 0
M  V30 3746 H 348.658 -4.2191 -2.53481 0
M  V30 3747 N 350.31 0.590341 -1.46126 0
M  V30 3748 C 351.587 1.35029 -1.41515 0
M  V30 3749 C 351.967 2.10888 -0.0946472 0
M  V30 3750 O 351.315 2.08998 0.923693 0
M  V30 3751 C 351.525 2.28269 -2.63997 0
M  V30 3752 C 352.873 2.90338 -3.09821 0
M  V30 3753 O 353.897 2.38585 -2.64492 0
M  V30 3754 O 352.756 3.84321 -3.88535 0
M  V30 3755 H 349.85 0.606317 -0.562413 0
M  V30 3756 H 352.396 0.611994 -1.58281 0
M  V30 3757 H 351.168 1.71591 -3.51671 0
M  V30 3758 H 350.791 3.0945 -2.49652 0
M  V30 3759 N 351.788 1.33704 0.83433 0
M  V30 3760 C 353.199 1.22813 1.4062 0
M  V30 3761 C 353.55 -0.151107 1.95617 0
M  V30 3762 O 352.675 -1.05092 1.89168 0
M  V30 3763 C 353.27 2.22355 2.55624 0
M  V30 3764 C 351.829 2.1529 3.08751 0
M  V30 3765 C 350.976 2.09589 1.8157 0
M  V30 3766 H 353.927 1.45236 0.639702 0
M  V30 3767 H 353.948 1.83391 3.33389 0
M  V30 3768 H 353.46 3.22728 2.15566 0
M  V30 3769 H 351.561 1.18235 3.53343 0
M  V30 3770 H 351.674 3.06038 3.68616 0
M  V30 3771 H 350.038 1.55134 2.02004 0
M  V30 3772 H 350.821 3.11777 1.43701 0
M  V30 3773 N 353.266 -1.05314 1.17247 0
M  V30 3774 C 354.677 -1.59753 0.96623 0
M  V30 3775 C 355.028 -1.9005 -0.487378 0
M  V30 3776 O 354.153 -1.68126 -1.36245 0
M  V30 3777 C 354.748 -2.90249 1.74759 0
M  V30 3778 C 353.307 -3.41352 1.58606 0
M  V30 3779 C 352.454 -2.15103 1.75002 0
M  V30 3780 H 355.405 -0.881406 1.31973 0
M  V30 3781 H 355.426 -3.60097 1.22925 0
M  V30 3782 H 354.938 -2.68166 2.8055 0
M  V30 3783 H 353.039 -3.68474 0.552985 0
M  V30 3784 H 353.152 -4.16019 2.37624 0
M  V30 3785 H 351.516 -2.25804 1.17833 0
M  V30 3786 H 352.299 -1.95491 2.82202 0
M  V30 3787 N 354.744 -0.972509 -1.24016 0
M  V30 3788 C 356.16 -0.679827 -1.44397 0
M  V30 3789 C 356.36 0.756716 -1.86751 0
M  V30 3790 O 355.416 1.53007 -2.00861 0
M  V30 3791 C 356.729 -1.66803 -2.50195 0
M  V30 3792 C 358.277 -1.68119 -2.64017 0
M  V30 3793 C 358.752 -2.65748 -3.73017 0
M  V30 3794 N 360.243 -2.64219 -3.8045 0
M  V30 3795 C 360.978 -3.36433 -4.64328 0
M  V30 3796 N 360.474 -4.1818 -5.52356 0
M  V30 3797 N 362.267 -3.25235 -4.58453 0
M  V30 3798 H 354.418 -1.90059 -0.948228 0
M  V30 3799 H 356.681 -0.818527 -0.478245 0
M  V30 3800 H 356.387 -2.69498 -2.25973 0
M  V30 3801 H 356.261 -1.4446 -3.48441 0
M  V30 3802 H 358.648 -0.661319 -2.87594 0
M  V30 3803 H 358.729 -1.94525 -1.66113 0
M  V30 3804 H 358.373 -3.67872 -3.50189 0
M  V30 3805 H 358.303 -2.36619 -4.70446 0
M  V30 3806 H 360.794 -2.04887 -3.17537 0
M  V30 3807 H 361.107 -4.70157 -6.13329 0
M  V30 3808 H 359.452 -4.22273 -5.52006 0
M  V30 3809 H 362.643 -2.60829 -3.88698 0
M  V30 3810 H 362.816 -3.81776 -5.23594 0
M  V30 3811 N 356.222 1.38976 -0.743202 0
M  V30 3812 C 357.155 2.28128 -0.0572165 0
M  V30 3813 C 358.133 1.44827 0.739182 0
M  V30 3814 O 359.317 1.74207 0.720009 0
M  V30 3815 C 356.444 3.25796 0.926001 0
M  V30 3816 C 355.49 4.25947 0.217099 0
M  V30 3817 S 356.323 5.24604 -1.07477 0
M  V30 3818 C 357.479 6.25829 -0.0943545 0
M  V30 3819 H 357.712 2.85961 -0.813246 0
M  V30 3820 H 355.245 1.44822 -0.535341 0
M  V30 3821 H 357.203 3.82583 1.48797 0
M  V30 3822 H 355.864 2.66966 1.65493 0
M  V30 3823 H 355.057 4.94746 0.961372 0
M  V30 3824 H 354.659 3.73002 -0.273059 0
M  V30 3825 H 356.951 6.73411 0.743239 0
M  V30 3826 H 357.894 7.0412 -0.749713 0
M  V30 3827 H 358.302 5.63797 0.281706 0
M  V30 3828 N 357.7 0.491464 1.49741 0
M  V30 3829 C 358.93 -0.0534375 2.06531 0
M  V30 3830 C 359.338 -1.32233 1.35318 0
M  V30 3831 O 358.681 -1.78781 0.422243 0
M  V30 3832 C 358.743 -0.387034 3.57411 0
M  V30 3833 C 358.407 0.782764 4.50246 0
M  V30 3834 C 359.404 1.67059 4.92329 0
M  V30 3835 C 357.089 0.978866 4.9267 0
M  V30 3836 C 359.083 2.73874 5.75562 0
M  V30 3837 C 356.77 2.05022 5.75682 0
M  V30 3838 C 357.768 2.92851 6.17031 0
M  V30 3839 O 357.456 3.98138 6.98385 0
M  V30 3840 H 357.188 0.0129324 0.675876 0
M  V30 3841 H 359.742 0.685238 1.93633 0
M  V30 3842 H 357.972 -1.17918 3.68283 0
M  V30 3843 H 359.661 -0.869419 3.96479 0
M  V30 3844 H 360.427 1.53086 4.60206 0
M  V30 3845 H 356.306 0.304646 4.59992 0
M  V30 3846 H 359.85 3.42458 6.07757 0
M  V30 3847 H 355.747 2.18993 6.07217 0
M  V30 3848 H 356.515 3.95374 7.16674 0
M  V30 3849 N 359.178 -1.55987 0.224894 0
M  V30 3850 C 360.418 -2.00293 -0.407706 0
M  V30 3851 C 360.782 -1.1093 -1.56711 0
M  V30 3852 O 361.983 -1.44597 -2.26595 0
M  V30 3853 C 360.254 -3.47675 -0.82805 0
M  V30 3854 S 361.813 -4.14 -1.45429 0
M  V30 3855 H 358.631 -0.699152 -0.129256 0
M  V30 3856 H 361.233 -1.92609 0.334967 0
M  V30 3857 H 359.937 -4.10392 0.0253964 0
M  V30 3858 H 359.468 -3.59239 -1.60345 0
M  V30 3859 H 361.483 -4.13465 -2.74337 0
M  V30 3860 N 360.656 0.0484629 -1.57525 0
M  V30 3861 C 361.881 0.759177 -1.93006 0
M  V30 3862 C 362.306 1.69125 -0.823317 0
M  V30 3863 O 361.664 1.79931 0.222364 0
M  V30 3864 C 361.712 1.50899 -3.27509 0
M  V30 3865 O 360.816 2.62112 -3.18388 0
M  V30 3866 H 360.157 0.205564 -0.631379 0
M  V30 3867 H 362.687 0.00972959 -2.04598 0
M  V30 3868 H 362.697 1.88317 -3.6194 0
M  V30 3869 H 361.372 0.825269 -4.0763 0
M  V30 3870 H 359.949 2.27379 -2.95556 0
M  V30 3871 N 362.134 1.5431 0.320358 0
M  V30 3872 C 363.362 1.76636 1.07738 0
M  V30 3873 C 363.777 0.51649 1.81598 0
M  V30 3874 O 363.134 -0.512942 1.75143 0
M  V30 3875 C 363.185 2.96158 2.07299 0
M  V30 3876 O 362.906 4.16313 1.36438 0
M  V30 3877 C 364.407 3.3072 2.95193 0
M  V30 3878 H 361.627 0.589597 0.320339 0
M  V30 3879 H 364.171 2.01207 0.36551 0
M  V30 3880 H 362.326 2.73851 2.74016 0
M  V30 3881 H 362.74 4.83565 2.03138 0
M  V30 3882 H 364.214 4.17643 3.60941 0
M  V30 3883 H 364.691 2.48026 3.62463 0
M  V30 3884 H 365.297 3.55117 2.34034 0
M  V30 3885 N 363.613 -0.582584 1.46437 0
M  V30 3886 C 364.523 -1.71949 1.59595 0
M  V30 3887 C 365.539 -1.67264 0.479443 0
M  V30 3888 O 366.715 -1.87171 0.743579 0
M  V30 3889 C 363.78 -3.08452 1.58298 0
M  V30 3890 C 362.841 -3.244 2.81182 0
M  V30 3891 C 362.074 -4.54391 2.79937 0
M  V30 3892 O 362.297 -5.38287 1.8869 0
M  V30 3893 O 361.231 -4.73588 3.71481 0
M  V30 3894 H 365.057 -1.63795 2.55744 0
M  V30 3895 H 362.642 -0.749643 1.29231 0
M  V30 3896 H 364.524 -3.89732 1.60271 0
M  V30 3897 H 363.199 -3.17043 0.653094 0
M  V30 3898 H 362.106 -2.42613 2.84763 0
M  V30 3899 H 363.439 -3.20699 3.7338 0
M  V30 3900 N 365.091 -1.34144 -0.827227 0
M  V30 3901 C 366.339 -1.26009 -1.58007 0
M  V30 3902 C 366.66 0.170971 -1.94249 0
M  V30 3903 O 365.93 1.10256 -1.61927 0
M  V30 3904 H 364.51 -0.463414 -0.585881 0
M  V30 3905 H 367.172 -1.68005 -0.987951 0
M  V30 3906 H 366.268 -1.86187 -2.50481 0
M  V30 3907 N 366.569 1.04691 -1.17803 0
M  V30 3908 C 367.479 2.16057 -0.914151 0
M  V30 3909 C 368.495 1.73589 0.119503 0
M  V30 3910 O 369.671 2.01308 -0.0609468 0
M  V30 3911 C 366.736 3.4394 -0.436603 0
M  V30 3912 C 365.797 4.00825 -1.53746 0
M  V30 3913 C 365.03 5.22604 -1.0826 0
M  V30 3914 O 365.253 5.70367 0.0612244 0
M  V30 3915 O 364.187 5.7186 -1.87775 0
M  V30 3916 H 368.013 2.41169 -1.84584 0
M  V30 3917 H 365.598 1.1453 -0.959334 0
M  V30 3918 H 367.48 4.21024 -0.178057 0
M  V30 3919 H 366.155 3.20316 0.466869 0
M  V30 3920 H 365.062 3.25158 -1.84995 0
M  V30 3921 H 366.395 4.28778 -2.41683 0
M  V30 3922 N 368.047 0.979072 1.23499 0
M  V30 3923 C 369.293 0.6578 1.9247 0
M  V30 3924 C 369.648 -0.799746 1.74991 0
M  V30 3925 O 368.941 -1.56922 1.09937 0
M  V30 3926 C 369.135 0.981932 3.43646 0
M  V30 3927 C 368.964 2.46944 3.75831 0
M  V30 3928 C 367.734 3.13119 3.96591 0
M  V30 3929 C 369.932 3.45006 3.81412 0
M  V30 3930 N 367.914 4.51489 4.15969 0
M  V30 3931 C 369.285 4.68778 4.05768 0
M  V30 3932 C 371.34 3.39505 3.64198 0
M  V30 3933 C 370.043 5.87723 4.14697 0
M  V30 3934 C 372.069 4.57814 3.7438 0
M  V30 3935 C 371.431 5.80381 3.99171 0
M  V30 3936 H 367.53 0.291746 0.72554 0
M  V30 3937 H 370.114 1.25626 1.48749 0
M  V30 3938 H 368.285 0.412179 3.86207 0
M  V30 3939 H 370.017 0.618068 3.99953 0
M  V30 3940 H 366.772 2.63619 3.93449 0
M  V30 3941 H 367.196 5.23221 4.29615 0
M  V30 3942 H 371.838 2.45773 3.44029 0
M  V30 3943 H 369.556 6.81874 4.33675 0
M  V30 3944 H 373.142 4.55132 3.62417 0
M  V30 3945 H 372.022 6.70398 4.06861 0
M  V30 3946 N 369.525 -1.3858 0.750561 0
M  V30 3947 C 370.455 -2.33102 0.136237 0
M  V30 3948 C 371.436 -1.54713 -0.706965 0
M  V30 3949 O 372.621 -1.83043 -0.648769 0
M  V30 3950 C 369.751 -3.38882 -0.760017 0
M  V30 3951 C 368.705 -4.27995 -0.0197785 0
M  V30 3952 C 368.031 -5.24605 -1.03408 0
M  V30 3953 C 369.331 -5.09554 1.14684 0
M  V30 3954 H 371.025 -2.84726 0.925822 0
M  V30 3955 H 368.571 -1.36898 0.446654 0
M  V30 3956 H 370.524 -4.0397 -1.19943 0
M  V30 3957 H 369.248 -2.85734 -1.58189 0
M  V30 3958 H 367.907 -3.64409 0.400184 0
M  V30 3959 H 367.555 -4.67746 -1.84994 0
M  V30 3960 H 367.255 -5.85081 -0.543464 0
M  V30 3961 H 368.779 -5.9257 -1.47288 0
M  V30 3962 H 370.193 -5.67899 0.785118 0
M  V30 3963 H 368.59 -5.7925 1.56812 0
M  V30 3964 H 369.66 -4.4347 1.96118 0
M  V30 3965 N 371.003 -0.499398 -1.49478 0
M  V30 3966 C 372.249 0.0457576 -2.02748 0
M  V30 3967 C 372.582 1.36793 -1.37846 0
M  V30 3968 O 371.857 1.87596 -0.513601 0
M  V30 3969 C 372.14 0.199986 -3.59544 0
M  V30 3970 C 371.993 -1.1452 -4.34977 0
M  V30 3971 C 373.312 0.94137 -4.29914 0
M  V30 3972 H 370.431 0.0151552 -0.736844 0
M  V30 3973 H 373.073 -0.650498 -1.78518 0
M  V30 3974 H 371.223 0.793007 -3.8032 0
M  V30 3975 H 372.895 -1.77697 -4.25701 0
M  V30 3976 H 371.138 -1.73488 -3.97598 0
M  V30 3977 H 371.809 -0.990607 -5.43039 0
M  V30 3978 H 374.285 0.43844 -4.13784 0
M  V30 3979 H 373.161 1.01812 -5.39375 0
M  V30 3980 H 373.422 1.98471 -3.95046 0
M  V30 3981 N 372.481 1.55866 -0.233164 0
M  V30 3982 C 373.892 1.847 0.272554 0
M  V30 3983 C 374.243 1.15477 1.58617 0
M  V30 3984 O 373.368 0.42841 2.12117 0
M  V30 3985 C 373.963 3.35071 0.501299 0
M  V30 3986 C 372.522 3.6418 0.951304 0
M  V30 3987 C 371.669 2.77292 0.0208209 0
M  V30 3988 H 374.62 1.52005 -0.456074 0
M  V30 3989 H 374.641 3.55906 1.34577 0
M  V30 3990 H 374.153 3.85424 -0.454936 0
M  V30 3991 H 372.254 3.19293 1.92049 0
M  V30 3992 H 372.367 4.72071 0.817675 0
M  V30 3993 H 370.731 2.49131 0.529723 0
M  V30 3994 H 371.514 3.30448 -0.93054 0
M  V30 3995 N 373.959 -0.0401083 1.57549 0
M  V30 3996 C 375.208 -0.732108 1.87944 0
M  V30 3997 C 375.521 -1.77107 0.830206 0
M  V30 3998 O 376.727 -2.51488 1.02302 0
M  V30 3999 C 375.183 -1.35315 3.33494 0
M  V30 4000 C 374.791 -0.351105 4.46622 0
M  V30 4001 C 376.535 -2.02566 3.73051 0
M  V30 4002 C 374.442 -0.979859 5.83226 0
M  V30 4003 H 373.372 -0.277188 0.701201 0
M  V30 4004 H 376.023 0.0138501 1.83495 0
M  V30 4005 H 374.405 -2.14844 3.32653 0
M  V30 4006 H 375.579 0.416674 4.58912 0
M  V30 4007 H 373.894 0.218708 4.15825 0
M  V30 4008 H 376.491 -2.50441 4.72423 0
M  V30 4009 H 376.834 -2.83904 3.04474 0
M  V30 4010 H 377.367 -1.29827 3.76018 0
M  V30 4011 H 374.106 -0.206135 6.55176 0
M  V30 4012 H 373.626 -1.71774 5.74677 0
M  V30 4013 H 375.305 -1.49046 6.29599 0
M  V30 4014 N 375.437 -1.54477 -0.31217 0
M  V30 4015 C 376.685 -1.72884 -1.04668 0
M  V30 4016 C 377.006 -0.511477 -1.88173 0
M  V30 4017 O 376.276 0.474407 -1.90069 0
M  V30 4018 H 374.856 -0.637461 -0.389425 0
M  V30 4019 H 377.518 -1.91807 -0.345852 0
M  V30 4020 H 376.614 -2.61334 -1.70619 0
M  V30 4021 N 376.915 0.57481 -1.46744 0
M  V30 4022 C 377.862 1.68329 -1.57905 0
M  V30 4023 C 378.832 1.60625 -0.422927 0
M  V30 4024 O 380.017 1.79721 -0.640711 0
M  V30 4025 C 377.157 3.06665 -1.58274 0
M  V30 4026 C 376.27 3.24935 -2.84678 0
M  V30 4027 C 375.405 4.53566 -2.76499 0
M  V30 4028 C 374.444 4.65207 -3.97806 0
M  V30 4029 N 373.581 5.85172 -3.87967 0
M  V30 4030 H 378.421 1.58127 -2.52587 0
M  V30 4031 H 375.958 0.770552 -1.25303 0
M  V30 4032 H 377.916 3.86745 -1.56473 0
M  V30 4033 H 376.546 3.15745 -0.671194 0
M  V30 4034 H 375.598 2.38405 -2.96424 0
M  V30 4035 H 376.91 3.29403 -3.7456 0
M  V30 4036 H 376.064 5.41885 -2.72848 0
M  V30 4037 H 374.803 4.51548 -1.8427 0
M  V30 4038 H 373.808 3.75304 -4.0178 0
M  V30 4039 H 375.033 4.68997 -4.9114 0
M  V30 4040 H 372.979 5.84137 -2.98529 0
M  V30 4041 H 372.896 5.90943 -4.71511 0
M  V30 4042 H 374.164 6.759 -3.88303 0
M  V30 4043 N 378.394 1.34581 0.820102 0
M  V30 4044 C 379.634 1.28448 1.58998 0
M  V30 4045 C 379.998 -0.142883 1.91468 0
M  V30 4046 O 381.199 -0.328422 2.66786 0
M  V30 4047 C 379.47 2.153 2.85273 0
M  V30 4048 S 381.029 2.26548 3.75794 0
M  V30 4049 H 377.847 0.456685 0.54494 0
M  V30 4050 H 380.449 1.69825 0.968487 0
M  V30 4051 H 379.153 3.18008 2.59421 0
M  V30 4052 H 378.684 1.7483 3.52417 0
M  V30 4053 H 380.699 1.44034 4.74835 0
M  V30 4054 N 379.872 -1.04064 1.18357 0
M  V30 4055 C 381.097 -1.81454 1.00445 0
M  V30 4056 C 381.522 -1.82823 -0.442423 0
M  V30 4057 O 380.88 -1.24555 -1.31741 0
M  V30 4058 C 380.928 -3.24925 1.56384 0
M  V30 4059 O 380.032 -4.04856 0.785209 0
M  V30 4060 H 379.373 -0.560604 0.355835 0
M  V30 4061 H 381.903 -1.31059 1.57114 0
M  V30 4062 H 381.913 -3.75702 1.59097 0
M  V30 4063 H 380.588 -3.23244 2.61699 0
M  V30 4064 H 379.165 -3.63537 0.830399 0
M  V30 4065 N 381.35 -0.985608 -1.22978 0
M  V30 4066 C 382.59 -0.665487 -1.93263 0
M  V30 4067 C 382.954 0.78706 -1.75127 0
M  V30 4068 O 384.155 1.21826 -2.39608 0
M  V30 4069 C 382.426 -1.0515 -3.41582 0
M  V30 4070 S 383.985 -0.848637 -4.30516 0
M  V30 4071 H 380.803 -0.24355 -0.667985 0
M  V30 4072 H 383.405 -1.26635 -1.48942 0
M  V30 4073 H 382.109 -2.10517 -3.52293 0
M  V30 4074 H 381.64 -0.442134 -3.90908 0
M  V30 4075 H 383.655 0.264717 -4.95493 0
M  V30 4076 N 382.828 1.3818 -0.7579 0
M  V30 4077 C 383.776 2.32277 -0.122482 0
M  V30 4078 C 384.77 1.54238 0.700505 0
M  V30 4079 O 385.976 1.69737 0.599119 0
M  V30 4080 H 382.351 0.751712 -0.0208143 0
M  V30 4081 H 384.322 2.83469 -0.932099 0
M  V30 4082 C 383.071 3.39447 0.753076 0
M  V30 4083 H 382.394 3.99591 0.129184 0
M  V30 4084 H 383.834 4.07684 1.16489 0
M  V30 4085 C 382.293 2.78375 1.8976 0
M  V30 4086 O 382.823 2.68025 2.99208 0
M  V30 4087 N 381.029 2.36121 1.69397 0
M  V30 4088 H 380.576 2.4474 0.803762 0
M  V30 4089 H 380.534 1.95602 2.46145 0
M  V30 4090 N 384.306 0.507319 1.49211 0
M  V30 4091 C 385.269 -0.256763 2.27757 0
M  V30 4092 C 386.269 -0.888287 1.34038 0
M  V30 4093 O 387.459 -0.751841 1.5714 0
M  V30 4094 C 384.591 -1.36905 3.12202 0
M  V30 4095 H 385.784 0.432557 2.96764 0
M  V30 4096 H 383.337 0.262488 1.5408 0
M  V30 4097 H 384.072 -2.09233 2.47775 0
M  V30 4098 H 383.857 -0.921599 3.81115 0
M  V30 4099 H 385.347 -1.9071 3.7151 0
M  V30 4100 N 385.784 -1.5574 0.241426 0
M  V30 4101 C 387.032 -1.98417 -0.384075 0
M  V30 4102 C 387.353 -1.13078 -1.58866 0
M  V30 4103 O 386.623 -0.212312 -1.94746 0
M  V30 4104 H 385.203 -0.732813 -0.144894 0
M  V30 4105 H 387.865 -1.9193 0.338943 0
M  V30 4106 H 386.961 -3.04219 -0.696939 0
M  V30 4107 N 387.262 0.0317525 -1.57568 0
M  V30 4108 C 388.492 0.733884 -1.93126 0
M  V30 4109 C 388.9 1.69563 -0.839352 0
M  V30 4110 O 388.243 1.82681 0.193175 0
M  V30 4111 C 388.305 1.54798 -3.24465 0
M  V30 4112 C 387.969 0.751304 -4.50782 0
M  V30 4113 C 388.966 0.0527632 -5.19873 0
M  V30 4114 C 386.651 0.706639 -4.97305 0
M  V30 4115 C 388.645 -0.679774 -6.33765 0
M  V30 4116 C 386.332 -0.0296449 -6.11093 0
M  V30 4117 C 387.33 -0.721614 -6.79177 0
M  V30 4118 O 387.018 -1.44595 -7.90789 0
M  V30 4119 H 386.75 0.211459 -0.642076 0
M  V30 4120 H 389.304 -0.00585615 -2.05399 0
M  V30 4121 H 387.534 2.33147 -3.08512 0
M  V30 4122 H 389.223 2.13247 -3.4537 0
M  V30 4123 H 389.989 0.0783188 -4.84937 0
M  V30 4124 H 385.868 1.23474 -4.44157 0
M  V30 4125 H 389.412 -1.22042 -6.86842 0
M  V30 4126 H 385.309 -0.0571331 -6.45475 0
M  V30 4127 H 386.077 -1.35935 -8.07133 0
M  V30 4128 N 388.74 1.54641 0.303973 0
M  V30 4129 C 389.65 1.88439 1.39743 0
M  V30 4130 C 390.666 0.778239 1.55626 0
M  V30 4131 O 391.842 1.07442 1.70347 0
M  V30 4132 C 388.907 2.12212 2.74166 0
M  V30 4133 C 387.968 3.35936 2.67293 0
M  V30 4134 C 387.201 3.58566 3.95305 0
M  V30 4135 O 387.424 2.84263 4.9452 0
M  V30 4136 O 386.358 4.52078 3.97378 0
M  V30 4137 H 390.184 2.81458 1.14083 0
M  V30 4138 H 387.769 1.40793 0.499768 0
M  V30 4139 H 389.651 2.29067 3.53704 0
M  V30 4140 H 388.326 1.22379 2.99675 0
M  V30 4141 H 387.233 3.24448 1.86237 0
M  V30 4142 H 388.566 4.2589 2.46736 0
M  V30 4143 N 390.218 -0.567019 1.47046 0
M  V30 4144 C 391.128 -1.70247 1.6141 0
M  V30 4145 C 392.144 -1.66746 0.497157 0
M  V30 4146 O 393.32 -1.86371 0.763389 0
M  V30 4147 C 390.385 -3.06756 1.61561 0
M  V30 4148 C 389.446 -3.21399 2.84607 0
M  V30 4149 C 388.679 -4.51396 2.84741 0
M  V30 4150 O 388.902 -5.36255 1.94388 0
M  V30 4151 O 387.836 -4.69621 3.76483 0
M  V30 4152 H 391.662 -1.61073 2.57467 0
M  V30 4153 H 389.247 -0.735894 1.30019 0
M  V30 4154 H 391.129 -3.8801 1.64396 0
M  V30 4155 H 389.804 -3.16333 0.686684 0
M  V30 4156 H 388.711 -2.39579 2.8732 0
M  V30 4157 H 390.044 -3.16721 3.76761 0
M  V30 4158 N 391.696 -1.35014 -0.812953 0
M  V30 4159 C 393.112 -1.14914 -1.10757 0
M  V30 4160 C 393.312 0.0426818 -2.01455 0
M  V30 4161 O 392.368 0.715212 -2.42159 0
M  V30 4162 C 393.681 -2.44911 -1.74468 0
M  V30 4163 C 395.229 -2.5106 -1.86917 0
M  V30 4164 C 395.704 -3.81085 -2.54044 0
M  V30 4165 N 397.195 -3.82301 -2.61535 0
M  V30 4166 C 397.93 -4.79634 -3.14227 0
M  V30 4167 N 397.426 -5.87353 -3.67407 0
M  V30 4168 N 399.219 -4.67078 -3.12721 0
M  V30 4169 H 391.37 -2.1136 -0.20989 0
M  V30 4170 H 393.633 -0.935128 -0.155692 0
M  V30 4171 H 393.339 -3.32267 -1.15289 0
M  V30 4172 H 393.213 -2.58989 -2.74234 0
M  V30 4173 H 395.6 -1.64137 -2.45241 0
M  V30 4174 H 395.681 -2.40901 -0.860242 0
M  V30 4175 H 395.325 -4.68402 -1.96372 0
M  V30 4176 H 395.255 -3.88529 -3.55461 0
M  V30 4177 H 397.746 -3.04465 -2.23851 0
M  V30 4178 H 398.059 -6.57624 -4.05894 0
M  V30 4179 H 396.404 -5.91054 -3.65623 0
M  V30 4180 H 399.595 -3.82067 -2.70449 0
M  V30 4181 H 399.768 -5.43098 -3.53481 0
M  V30 4182 N 393.175 1.03435 -1.18907 0
M  V30 4183 C 394.423 1.76394 -0.986382 0
M  V30 4184 C 394.744 1.88883 0.484567 0
M  V30 4185 O 394.014 1.41843 1.3512 0
M  V30 4186 H 392.594 0.65344 -0.361975 0
M  V30 4187 H 395.256 1.248 -1.49703 0
M  V30 4188 H 394.352 2.77424 -1.42978 0
M  V30 4189 N 394.653 0.992116 1.22453 0
M  V30 4190 C 395.9 0.667534 1.91181 0
M  V30 4191 C 396.228 -0.800317 1.77271 0
M  V30 4192 O 395.483 -1.59421 1.13505 0
M  V30 4193 C 395.782 1.01832 3.42586 0
M  V30 4194 C 395.448 2.47831 3.76684 0
M  V30 4195 C 394.11 2.87729 3.85701 0
M  V30 4196 C 396.462 3.42466 3.92895 0
M  V30 4197 C 393.79 4.21252 4.08367 0
M  V30 4198 C 396.142 4.75648 4.17064 0
M  V30 4199 C 394.806 5.15288 4.24305 0
M  V30 4200 H 394.076 0.244268 0.699581 0
M  V30 4201 H 396.723 1.24816 1.45235 0
M  V30 4202 H 395.028 0.355769 3.90181 0
M  V30 4203 H 396.725 0.745228 3.94014 0
M  V30 4204 H 393.315 2.15905 3.70247 0
M  V30 4205 H 397.499 3.12814 3.85307 0
M  V30 4206 H 392.755 4.51554 4.122 0
M  V30 4207 H 396.929 5.48924 4.2855 0
M  V30 4208 H 394.556 6.18769 4.41621 0
M  V30 4209 N 396.131 -1.37776 0.765217 0
M  V30 4210 C 397.064 -2.28008 0.0935025 0
M  V30 4211 C 398.042 -1.45985 -0.716047 0
M  V30 4212 O 399.226 -1.75331 -0.692203 0
M  V30 4213 C 396.353 -3.27228 -0.874052 0
M  V30 4214 C 395.399 -4.26239 -0.149307 0
M  V30 4215 S 396.232 -5.22827 1.15809 0
M  V30 4216 C 397.388 -6.256 0.193906 0
M  V30 4217 H 397.621 -2.84631 0.858637 0
M  V30 4218 H 395.154 -1.43952 0.558313 0
M  V30 4219 H 397.112 -3.84902 -1.42691 0
M  V30 4220 H 395.773 -2.69565 -1.61225 0
M  V30 4221 H 394.966 -4.96213 -0.88254 0
M  V30 4222 H 394.568 -3.7252 0.332366 0
M  V30 4223 H 396.86 -6.74508 -0.636011 0
M  V30 4224 H 397.803 -7.02838 0.861638 0
M  V30 4225 H 398.211 -5.64173 -0.191975 0
M  V30 4226 N 397.609 -0.515225 -1.4894 0
M  V30 4227 C 398.849 0.0223983 -2.04388 0
M  V30 4228 C 399.213 1.32961 -1.38511 0
M  V30 4229 O 400.414 1.95236 -1.8476 0
M  V30 4230 C 398.685 0.157056 -3.57055 0
M  V30 4231 S 400.244 0.646875 -4.34006 0
M  V30 4232 H 397.062 -0.00500662 -0.710982 0
M  V30 4233 H 399.664 -0.69243 -1.82827 0
M  V30 4234 H 398.368 -0.799412 -4.02539 0
M  V30 4235 H 397.899 0.896704 -3.83044 0
M  V30 4236 H 399.914 1.91381 -4.57808 0
M  V30 4237 N 399.087 1.5561 -0.249682 0
M  V30 4238 C 400.019 2.18834 0.681496 0
M  V30 4239 C 401.032 1.16546 1.1367 0
M  V30 4240 O 402.221 1.43397 1.06299 0
M  V30 4241 C 399.321 2.77992 1.9384 0
M  V30 4242 C 398.494 4.05725 1.63419 0
M  V30 4243 C 397.553 4.49174 2.74096 0
M  V30 4244 O 396.579 5.15492 2.41364 0
M  V30 4245 N 397.781 4.17191 4.03649 0
M  V30 4246 H 400.546 2.9937 0.140514 0
M  V30 4247 H 398.107 1.6175 -0.0697541 0
M  V30 4248 H 400.099 3.04015 2.67127 0
M  V30 4249 H 398.669 2.01596 2.38909 0
M  V30 4250 H 397.889 3.87261 0.736358 0
M  V30 4251 H 399.177 4.88999 1.40562 0
M  V30 4252 H 398.575 3.63955 4.33074 0
M  V30 4253 H 397.132 4.48043 4.73393 0
M  V30 4254 N 400.565 -0.0233959 1.57583 0
M  V30 4255 C 401.528 -1.00693 2.05897 0
M  V30 4256 C 402.528 -1.28693 0.964092 0
M  V30 4257 O 403.718 -1.23602 1.22753 0
M  V30 4258 C 400.85 -2.33825 2.4807 0
M  V30 4259 H 402.043 -0.589476 2.9405 0
M  V30 4260 H 399.596 -0.270354 1.53944 0
M  V30 4261 H 400.331 -2.80307 1.6309 0
M  V30 4262 H 400.116 -2.1483 3.2801 0
M  V30 4263 H 401.606 -3.04426 2.85857 0
M  V30 4264 N 402.043 -1.548 -0.295768 0
M  V30 4265 C 403.283 -1.76069 -1.03823 0
M  V30 4266 C 403.647 -0.537992 -1.84309 0
M  V30 4267 O 404.848 -0.628514 -2.61349 0
M  V30 4268 C 403.119 -3.01705 -1.91596 0
M  V30 4269 S 404.678 -3.43998 -2.72416 0
M  V30 4270 H 401.496 -0.618852 -0.350062 0
M  V30 4271 H 404.098 -1.93009 -0.31106 0
M  V30 4272 H 402.802 -3.88812 -1.31351 0
M  V30 4273 H 402.333 -2.87366 -2.68671 0
M  V30 4274 H 404.348 -3.0148 -3.94112 0
M  V30 4275 N 403.521 0.559213 -1.47345 0
M  V30 4276 C 404.937 0.884943 -1.32819 0
M  V30 4277 C 405.137 1.98988 -0.317173 0
M  V30 4278 O 404.193 2.51031 0.272011 0
M  V30 4279 C 405.506 1.28007 -2.72093 0
M  V30 4280 C 407.054 1.39161 -2.80363 0
M  V30 4281 C 407.529 1.82031 -4.20272 0
M  V30 4282 N 409.02 1.89185 -4.22804 0
M  V30 4283 C 409.755 2.2368 -5.27973 0
M  V30 4284 N 409.251 2.56802 -6.43447 0
M  V30 4285 N 411.044 2.24436 -5.15349 0
M  V30 4286 H 403.195 -0.170304 -2.11716 0
M  V30 4287 H 405.458 -0.0135247 -0.947904 0
M  V30 4288 H 405.164 0.542027 -3.47498 0
M  V30 4289 H 405.038 2.23665 -3.03733 0
M  V30 4290 H 407.425 2.12048 -2.05231 0
M  V30 4291 H 407.506 0.41696 -2.52379 0
M  V30 4292 H 407.15 1.09715 -4.95908 0
M  V30 4293 H 407.08 2.80495 -4.45679 0
M  V30 4294 H 409.571 1.65982 -3.39497 0
M  V30 4295 H 409.884 2.82144 -7.19454 0
M  V30 4296 H 408.229 2.54387 -6.46771 0
M  V30 4297 H 411.42 1.97998 -4.24163 0
M  V30 4298 H 411.593 2.50989 -5.97418 0
M  V30 4299 N 404.999 1.35443 0.805782 0
M  V30 4300 C 406.41 1.25768 1.37983 0
M  V30 4301 C 406.761 -0.10958 1.95894 0
M  V30 4302 O 405.886 -1.01056 1.91355 0
M  V30 4303 C 406.481 2.27727 2.5085 0
M  V30 4304 C 405.04 2.2179 3.04115 0
M  V30 4305 C 404.187 2.13393 1.77084 0
M  V30 4306 H 407.138 1.4656 0.608752 0
M  V30 4307 H 407.159 1.90422 3.29424 0
M  V30 4308 H 406.671 3.27227 2.08671 0
M  V30 4309 H 404.772 1.25703 3.50756 0
M  V30 4310 H 404.885 3.13788 3.62042 0
M  V30 4311 H 403.249 1.59384 1.98668 0
M  V30 4312 H 404.032 3.14755 1.37056 0
M  V30 4313 N 406.477 -1.02803 1.19454 0
M  V30 4314 C 407.725 -1.75869 0.995722 0
M  V30 4315 C 408.046 -1.89138 -0.474543 0
M  V30 4316 O 407.316 -1.42558 -1.34366 0
M  V30 4317 H 405.896 -0.651511 0.365435 0
M  V30 4318 H 408.558 -1.24004 1.50363 0
M  V30 4319 H 407.654 -2.76661 1.44447 0
M  V30 4320 N 407.956 -0.998596 -1.21925 0
M  V30 4321 C 409.203 -0.677663 -1.90824 0
M  V30 4322 C 409.531 0.790905 -1.77693 0
M  V30 4323 O 408.786 1.58817 -1.14349 0
M  V30 4324 C 409.085 -1.03648 -3.42041 0
M  V30 4325 C 408.751 -2.49825 -3.75364 0
M  V30 4326 C 407.413 -2.8977 -3.8417 0
M  V30 4327 C 409.765 -3.44545 -3.91073 0
M  V30 4328 C 407.093 -4.23412 -4.06127 0
M  V30 4329 C 409.445 -4.77853 -4.14535 0
M  V30 4330 C 408.109 -5.17531 -4.21566 0
M  V30 4331 H 407.379 -0.247975 -0.698276 0
M  V30 4332 H 410.026 -1.25584 -1.44571 0
M  V30 4333 H 408.331 -0.376457 -3.89987 0
M  V30 4334 H 410.028 -0.766113 -3.93614 0
M  V30 4335 H 406.618 -2.17866 -3.69097 0
M  V30 4336 H 410.802 -3.14853 -3.83642 0
M  V30 4337 H 406.058 -4.53734 -4.09799 0
M  V30 4338 H 410.232 -5.51189 -4.25633 0
M  V30 4339 H 407.859 -6.21102 -4.38333 0
M  V30 4340 N 409.434 1.37368 -0.772513 0
M  V30 4341 C 410.664 2.03647 -0.348082 0
M  V30 4342 C 411.072 1.58392 1.03482 0
M  V30 4343 O 410.415 0.760921 1.672 0
M  V30 4344 C 410.477 3.58131 -0.313404 0
M  V30 4345 C 410.141 4.2652 -1.64102 0
M  V30 4346 C 411.138 4.50587 -2.5936 0
M  V30 4347 C 408.823 4.64335 -1.91567 0
M  V30 4348 C 410.817 5.11526 -3.80289 0
M  V30 4349 C 408.504 5.24996 -3.12766 0
M  V30 4350 C 409.502 5.48529 -4.06946 0
M  V30 4351 O 409.19 6.07921 -5.26011 0
M  V30 4352 H 408.922 0.660538 -0.143753 0
M  V30 4353 H 411.476 1.76669 -1.04772 0
M  V30 4354 H 409.706 3.84159 0.442617 0
M  V30 4355 H 411.395 4.05813 0.0840613 0
M  V30 4356 H 412.161 4.21784 -2.39423 0
M  V30 4357 H 408.04 4.45353 -1.19088 0
M  V30 4358 H 411.584 5.29811 -4.53813 0
M  V30 4359 H 407.481 5.53223 -3.32588 0
M  V30 4360 H 408.249 6.26398 -5.26847 0
M  V30 4361 N 410.912 0.523116 1.48665 0
M  V30 4362 C 411.859 -0.243398 2.29513 0
M  V30 4363 C 412.829 -0.940139 1.36933 0
M  V30 4364 O 414.014 -0.942503 1.65896 0
M  V30 4365 C 411.154 -1.28855 3.20141 0
M  V30 4366 C 410.267 -0.60135 4.27794 0
M  V30 4367 C 409.402 -1.62884 5.05611 0
M  V30 4368 C 408.441 -0.924726 6.05075 0
M  V30 4369 N 407.578 -1.89744 6.75975 0
M  V30 4370 H 412.418 0.452234 2.94549 0
M  V30 4371 H 409.955 0.234858 1.45213 0
M  V30 4372 H 411.913 -1.90674 3.71079 0
M  V30 4373 H 410.543 -1.95266 2.57043 0
M  V30 4374 H 409.595 0.130623 3.80176 0
M  V30 4375 H 410.907 -0.0481585 4.98777 0
M  V30 4376 H 410.061 -2.32149 5.60528 0
M  V30 4377 H 408.8 -2.21592 4.34452 0
M  V30 4378 H 407.805 -0.217966 5.49368 0
M  V30 4379 H 409.03 -0.343851 6.78229 0
M  V30 4380 H 406.976 -2.47373 6.07571 0
M  V30 4381 H 406.893 -1.3955 7.43009 0
M  V30 4382 H 408.161 -2.58229 7.35485 0
M  V30 4383 N 412.39 -1.55475 0.257931 0
M  V30 4384 C 413.353 -2.20551 -0.623706 0
M  V30 4385 C 414.353 -1.17809 -1.09443 0
M  V30 4386 O 415.543 -1.42823 -0.997362 0
M  V30 4387 C 412.675 -2.85784 -1.8585 0
M  V30 4388 H 413.868 -2.99848 -0.0557743 0
M  V30 4389 H 411.421 -1.56298 0.0084422 0
M  V30 4390 H 412.156 -2.10453 -2.46739 0
M  V30 4391 H 411.941 -3.61057 -1.52907 0
M  V30 4392 H 413.431 -3.35553 -2.48584 0
M  V30 4393 N 413.868 0.0150385 -1.57593 0
M  V30 4394 C 414.798 1.01047 -2.10503 0
M  V30 4395 C 415.779 1.36816 -1.01071 0
M  V30 4396 O 416.964 1.45455 -1.28672 0
M  V30 4397 C 414.094 2.30708 -2.59598 0
M  V30 4398 C 413.048 2.09142 -3.73421 0
M  V30 4399 C 412.374 3.44685 -4.08774 0
M  V30 4400 C 413.674 1.46619 -5.01298 0
M  V30 4401 H 415.368 0.569978 -2.93925 0
M  V30 4402 H 412.914 0.272724 -1.41394 0
M  V30 4403 H 414.867 3.00687 -2.95238 0
M  V30 4404 H 413.591 2.76843 -1.73279 0
M  V30 4405 H 412.25 1.41592 -3.38153 0
M  V30 4406 H 411.898 3.88495 -3.195 0
M  V30 4407 H 411.598 3.31077 -4.8545 0
M  V30 4408 H 413.122 4.16004 -4.4696 0
M  V30 4409 H 414.536 2.06535 -5.34805 0
M  V30 4410 H 412.933 1.43544 -5.82679 0
M  V30 4411 H 414.003 0.433611 -4.82957 0
M  V30 4412 N 415.346 1.54954 0.287554 0
M  V30 4413 C 416.623 1.65569 1.04146 0
M  V30 4414 C 417.003 0.512672 2.0478 0
M  V30 4415 O 416.351 -0.489038 2.23205 0
M  V30 4416 C 416.561 3.04163 1.71131 0
M  V30 4417 C 417.909 3.61429 2.22832 0
M  V30 4418 O 418.933 3.06702 1.81141 0
M  V30 4419 O 417.792 4.57281 2.9926 0
M  V30 4420 H 414.886 0.671881 0.482188 0
M  V30 4421 H 417.432 1.67297 0.28457 0
M  V30 4422 H 416.204 3.78796 0.981303 0
M  V30 4423 H 415.827 3.06271 2.53543 0
M  V30 4424 N 416.824 -0.551391 1.4764 0
M  V30 4425 C 418.072 -1.30572 1.54258 0
M  V30 4426 C 418.393 -1.93877 0.208963 0
M  V30 4427 O 417.663 -1.80234 -0.767619 0
M  V30 4428 H 416.243 -0.484894 0.568231 0
M  V30 4429 H 418.905 -0.643402 1.83974 0
M  V30 4430 H 418.001 -2.09621 2.31226 0
M  V30 4431 N 418.302 -1.35869 -0.798587 0
M  V30 4432 C 419.25 -1.29491 -1.93222 0
M  V30 4433 C 420.244 -0.18836 -1.6835 0
M  V30 4434 O 421.45 -0.354822 -1.76468 0
M  V30 4435 H 417.825 -0.402901 -0.63496 0
M  V30 4436 H 419.796 -2.25247 -1.9572 0
M  V30 4437 C 418.545 -1.09184 -3.30112 0
M  V30 4438 H 417.868 -1.93574 -3.49813 0
M  V30 4439 H 419.308 -1.08766 -4.09812 0
M  V30 4440 C 417.767 0.203959 -3.36282 0
M  V30 4441 O 418.297 1.19699 -3.83451 0
M  V30 4442 N 416.503 0.245488 -2.89561 0
M  V30 4443 H 416.05 -0.563223 -2.51367 0
M  V30 4444 H 416.008 1.11219 -2.94071 0
M  V30 4445 N 419.78 1.02168 -1.19998 0
M  V30 4446 C 420.713 2.10232 -0.887558 0
M  V30 4447 C 421.691 1.61827 0.158317 0
M  V30 4448 O 422.875 1.88471 0.0330249 0
M  V30 4449 C 420.002 3.37092 -0.32964 0
M  V30 4450 C 419.048 4.0438 -1.3557 0
M  V30 4451 S 419.881 4.48956 -2.91888 0
M  V30 4452 C 421.037 5.79024 -2.37658 0
M  V30 4453 H 421.27 2.36409 -1.80272 0
M  V30 4454 H 418.803 1.15211 -1.0279 0
M  V30 4455 H 420.761 4.10498 -0.0142824 0
M  V30 4456 H 419.422 3.08996 0.563941 0
M  V30 4457 H 418.615 4.95632 -0.9146 0
M  V30 4458 H 418.217 3.37176 -1.61828 0
M  V30 4459 H 420.509 6.53942 -1.77103 0
M  V30 4460 H 421.452 6.27924 -3.27287 0
M  V30 4461 H 421.86 5.35043 -1.79971 0
M  V30 4462 N 421.258 1.00505 1.21394 0
M  V30 4463 C 422.205 0.565496 2.23765 0
M  V30 4464 C 423.175 -0.408466 1.60999 0
M  V30 4465 O 424.36 -0.310503 1.88257 0
M  V30 4466 C 421.5 -0.101667 3.4495 0
M  V30 4467 C 420.613 0.915479 4.22188 0
M  V30 4468 C 419.748 0.220574 5.30742 0
M  V30 4469 C 418.787 1.22527 5.99711 0
M  V30 4470 N 417.924 0.557831 6.9988 0
M  V30 4471 H 422.764 1.44314 2.60725 0
M  V30 4472 H 420.301 0.722643 1.28126 0
M  V30 4473 H 422.259 -0.505504 4.14126 0
M  V30 4474 H 420.889 -0.94303 3.08718 0
M  V30 4475 H 419.941 1.43756 3.52191 0
M  V30 4476 H 421.253 1.68005 4.69655 0
M  V30 4477 H 420.407 -0.239368 6.06228 0
M  V30 4478 H 419.146 -0.576401 4.84282 0
M  V30 4479 H 418.151 1.69571 5.22997 0
M  V30 4480 H 419.376 2.02332 6.48258 0
M  V30 4481 H 417.322 -0.219486 6.55633 0
M  V30 4482 H 417.239 1.26065 7.45415 0
M  V30 4483 H 418.507 0.121095 7.79406 0
M  V30 4484 N 422.737 -1.36956 0.779787 0
M  V30 4485 C 423.977 -2.01328 0.353043 0
M  V30 4486 C 424.341 -1.60558 -1.05286 0
M  V30 4487 O 425.542 -2.1745 -1.58016 0
M  V30 4488 C 423.813 -3.53874 0.500822 0
M  V30 4489 S 425.372 -4.38506 0.16053 0
M  V30 4490 H 422.19 -0.69799 0.13539 0
M  V30 4491 H 424.792 -1.67016 1.01617 0
M  V30 4492 H 423.496 -3.81034 1.52451 0
M  V30 4493 H 423.027 -3.92994 -0.178574 0
M  V30 4494 H 425.042 -4.85153 -1.04121 0
M  V30 4495 N 424.215 -0.530993 -1.48385 0
M  V30 4496 C 425.178 0.220497 -2.28137 0
M  V30 4497 C 426.178 0.866851 -1.35434 0
M  V30 4498 O 427.368 0.726746 -1.58316 0
M  V30 4499 C 424.5 1.31921 -3.1434 0
M  V30 4500 H 425.693 -0.479714 -2.96038 0
M  V30 4501 H 423.246 -0.286968 -1.53643 0
M  V30 4502 H 423.981 2.05264 -2.51072 0
M  V30 4503 H 423.766 0.86085 -3.82533 0
M  V30 4504 H 425.256 1.84776 -3.74497 0
M  V30 4505 N 425.693 1.55336 -0.266172 0
M  V30 4506 C 426.64 2.22172 0.625165 0
M  V30 4507 C 427.61 1.19211 1.15663 0
M  V30 4508 O 428.795 1.47723 1.20758 0
M  V30 4509 C 425.935 2.93972 1.8076 0
M  V30 4510 C 425.048 4.11632 1.31084 0
M  V30 4511 C 424.183 4.71099 2.45436 0
M  V30 4512 C 423.222 5.8097 1.92718 0
M  V30 4513 N 422.359 6.34538 3.00509 0
M  V30 4514 H 427.199 2.9796 0.0485582 0
M  V30 4515 H 424.736 1.47095 0.0122024 0
M  V30 4516 H 426.694 3.33811 2.50251 0
M  V30 4517 H 425.324 2.20623 2.35638 0
M  V30 4518 H 424.376 3.76975 0.509326 0
M  V30 4519 H 425.688 4.90893 0.884633 0
M  V30 4520 H 424.842 5.13612 3.22936 0
M  V30 4521 H 423.581 3.91096 2.91368 0
M  V30 4522 H 422.586 5.37916 1.13695 0
M  V30 4523 H 423.811 6.62836 1.47733 0
M  V30 4524 H 421.757 5.57433 3.45839 0
M  V30 4525 H 421.674 7.09046 2.62279 0
M  V30 4526 H 422.942 6.81709 3.78011 0
M  V30 4527 N 427.171 -0.0066808 1.57599 0
M  V30 4528 C 428.411 -0.697501 1.92131 0
M  V30 4529 C 428.775 -1.71306 0.867071 0
M  V30 4530 O 429.976 -2.45377 1.09743 0
M  V30 4531 C 428.247 -1.32978 3.3174 0
M  V30 4532 S 429.806 -2.04665 3.88146 0
M  V30 4533 H 426.624 -0.230555 0.672581 0
M  V30 4534 H 429.226 0.0484026 1.9544 0
M  V30 4535 H 427.93 -0.57772 4.06313 0
M  V30 4536 H 427.461 -2.11376 3.31789 0
M  V30 4537 H 429.476 -3.32097 3.68682 0
M  V30 4538 N 428.649 -1.55105 -0.279332 0
M  V30 4539 C 430.06 -1.66186 -0.850832 0
M  V30 4540 C 430.411 -0.584707 -1.87285 0
M  V30 4541 O 429.536 0.274919 -2.14647 0
M  V30 4542 C 430.131 -3.01264 -1.55001 0
M  V30 4543 C 428.69 -3.14394 -2.06963 0
M  V30 4544 C 427.837 -2.61959 -0.909536 0
M  V30 4545 H 430.788 -1.58602 -0.0558235 0
M  V30 4546 H 430.809 -2.93899 -2.41669 0
M  V30 4547 H 430.321 -3.7964 -0.805931 0
M  V30 4548 H 428.422 -2.4078 -2.84352 0
M  V30 4549 H 428.535 -4.20867 -2.28928 0
M  V30 4550 H 426.899 -2.18957 -1.30116 0
M  V30 4551 H 427.682 -3.42833 -0.179062 0
M  V30 4552 N 430.127 0.543554 -1.4793 0
M  V30 4553 C 431.538 1.12561 -1.48953 0
M  V30 4554 C 431.889 1.94578 -0.251754 0
M  V30 4555 O 431.014 2.0665 0.642255 0
M  V30 4556 C 431.609 2.04801 -2.69892 0
M  V30 4557 C 430.168 2.58251 -2.73831 0
M  V30 4558 C 429.315 1.34918 -2.42265 0
M  V30 4559 H 432.266 0.32947 -1.55242 0
M  V30 4560 H 432.287 2.88886 -2.47639 0
M  V30 4561 H 431.799 1.4508 -3.59963 0
M  V30 4562 H 429.9 3.21732 -1.87934 0
M  V30 4563 H 430.013 2.98312 -3.74895 0
M  V30 4564 H 428.377 1.66046 -1.93134 0
M  V30 4565 H 429.16 0.769693 -3.3456 0
M  V30 4566 N 431.605 1.3629 0.791371 0
M  V30 4567 C 432.555 1.26988 1.89362 0
M  V30 4568 C 433.539 0.161795 1.60084 0
M  V30 4569 O 434.731 0.394426 1.72549 0
M  V30 4570 C 431.86 1.05944 3.26544 0
M  V30 4571 C 430.946 2.21211 3.61838 0
M  V30 4572 N 431.337 3.46518 3.68455 0
M  V30 4573 C 429.635 2.12933 3.91887 0
M  V30 4574 C 430.336 4.2241 3.99931 0
M  V30 4575 N 429.312 3.51329 4.14812 0
M  V30 4576 H 433.114 2.21908 1.92702 0
M  V30 4577 H 430.628 1.28982 0.986787 0
M  V30 4578 H 432.625 0.973666 4.05371 0
M  V30 4579 H 431.285 0.119223 3.24481 0
M  V30 4580 H 432.296 3.80677 3.51148 0
M  V30 4581 H 428.973 1.26855 3.97761 0
M  V30 4582 H 430.363 5.30767 4.1199 0
M  V30 4583 N 433.083 -1.0153 1.20538 0
M  V30 4584 C 434.308 -1.79283 1.04271 0
M  V30 4585 C 434.733 -1.8372 -0.403544 0
M  V30 4586 O 434.091 -1.27321 -1.2907 0
M  V30 4587 C 434.139 -3.21535 1.63241 0
M  V30 4588 O 433.243 -4.03099 0.870908 0
M  V30 4589 H 432.584 -0.55293 0.367647 0
M  V30 4590 H 435.114 -1.27696 1.59859 0
M  V30 4591 H 435.124 -3.72243 1.6703 0
M  V30 4592 H 433.799 -3.1762 2.68497 0
M  V30 4593 H 432.376 -3.61693 0.907323 0
M  V30 4594 N 434.561 -1.01147 -1.20859 0
M  V30 4595 C 435.786 -0.716698 -1.94623 0
M  V30 4596 C 436.211 0.715415 -1.73964 0
M  V30 4597 O 435.569 1.49157 -1.03062 0
M  V30 4598 C 435.617 -1.0513 -3.44935 0
M  V30 4599 O 434.721 -0.160131 -4.12089 0
M  V30 4600 H 434.062 -0.266404 -0.608214 0
M  V30 4601 H 436.592 -1.35346 -1.53436 0
M  V30 4602 H 436.602 -1.00086 -3.95533 0
M  V30 4603 H 435.277 -2.09475 -3.59295 0
M  V30 4604 H 433.854 -0.267657 -3.71938 0
M  V30 4605 N 436.039 1.36541 -0.78704 0
M  V30 4606 C 437.267 2.03561 -0.370199 0
M  V30 4607 C 437.682 1.59347 1.01263 0
M  V30 4608 O 437.039 0.781781 1.64907 0
M  V30 4609 C 437.09 3.59033 -0.421614 0
M  V30 4610 O 436.811 4.01634 -1.7499 0
M  V30 4611 C 438.312 4.433 0.00489763 0
M  V30 4612 H 435.532 0.653346 -0.152904 0
M  V30 4613 H 438.076 1.74566 -1.06522 0
M  V30 4614 H 436.231 3.86746 0.224971 0
M  V30 4615 H 436.645 4.96217 -1.69909 0
M  V30 4616 H 438.119 5.51939 -0.0822184 0
M  V30 4617 H 438.596 4.26285 1.05723 0
M  V30 4618 H 439.202 4.20843 -0.614085 0
M  V30 4619 N 437.518 0.538854 1.48102 0
M  V30 4620 C 438.45 -0.256278 2.27763 0
M  V30 4621 C 439.463 -0.89633 1.35904 0
M  V30 4622 O 440.652 -0.773275 1.60881 0
M  V30 4623 C 437.752 -1.37896 3.09577 0
M  V30 4624 C 436.925 -0.839159 4.29275 0
M  V30 4625 C 435.984 -1.84405 4.9283 0
M  V30 4626 O 435.01 -1.39746 5.51779 0
M  V30 4627 N 436.212 -3.17666 4.85869 0
M  V30 4628 H 438.977 0.426968 2.96643 0
M  V30 4629 H 436.538 0.373747 1.57527 0
M  V30 4630 H 438.53 -2.04955 3.48963 0
M  V30 4631 H 437.1 -1.96572 2.4306 0
M  V30 4632 H 436.32 0.00769287 3.94199 0
M  V30 4633 H 437.608 -0.457548 5.06739 0
M  V30 4634 H 437.006 -3.56609 4.39143 0
M  V30 4635 H 435.563 -3.80334 5.29329 0
M  V30 4636 N 438.996 -1.55193 0.274407 0
M  V30 4637 C 439.906 -2.26164 -0.623473 0
M  V30 4638 C 440.922 -1.28729 -1.17068 0
M  V30 4639 O 442.098 -1.61663 -1.20112 0
M  V30 4640 C 439.163 -2.96833 -1.7914 0
M  V30 4641 C 438.224 -4.09745 -1.28093 0
M  V30 4642 C 437.457 -4.77034 -2.3932 0
M  V30 4643 O 437.68 -4.4353 -3.5866 0
M  V30 4644 O 436.614 -5.64996 -2.07516 0
M  V30 4645 H 440.44 -3.03661 -0.0485661 0
M  V30 4646 H 438.025 -1.49341 0.0418382 0
M  V30 4647 H 439.907 -3.41248 -2.4724 0
M  V30 4648 H 438.582 -2.22253 -2.35341 0
M  V30 4649 H 437.489 -3.69787 -0.566416 0
M  V30 4650 H 438.822 -4.86224 -0.764683 0
M  V30 4651 N 440.474 -0.00167713 -1.576 0
M  V30 4652 C 441.751 0.719951 -1.81868 0
M  V30 4653 C 442.131 1.91895 -0.879747 0
M  V30 4654 O 441.479 2.28389 0.0711423 0
M  V30 4655 C 441.689 1.12409 -3.30402 0
M  V30 4656 C 443.037 1.52724 -3.96182 0
M  V30 4657 O 444.061 1.21784 -3.34734 0
M  V30 4658 O 442.92 2.10265 -5.04431 0
M  V30 4659 H 440.014 0.350707 -0.748955 0
M  V30 4660 H 442.56 -0.0272597 -1.69678 0
M  V30 4661 H 441.332 0.269532 -3.90371 0
M  V30 4662 H 440.955 1.93035 -3.47596 0
M  V30 4663 N 441.952 1.55251 0.271103 0
M  V30 4664 C 443.2 1.75599 1.00047 0
M  V30 4665 C 443.521 0.561188 1.8675 0
M  V30 4666 O 442.791 -0.423846 1.9126 0
M  V30 4667 H 441.371 0.647562 0.372387 0
M  V30 4668 H 444.033 1.92656 0.294876 0
M  V30 4669 H 443.129 2.65766 1.6363 0
M  V30 4670 N 443.43 -0.535701 1.48216 0
M  V30 4671 C 444.655 -1.32149 1.59848 0
M  V30 4672 C 445.08 -1.86338 0.256842 0
M  V30 4673 O 444.438 -1.64107 -0.770632 0
M  V30 4674 C 444.486 -2.45224 2.64381 0
M  V30 4675 O 443.59 -3.48093 2.21144 0
M  V30 4676 H 442.931 -0.391634 0.536208 0
M  V30 4677 H 445.461 -0.645202 1.94161 0
M  V30 4678 H 445.471 -2.91491 2.85476 0
M  V30 4679 H 444.146 -2.05143 3.61786 0
M  V30 4680 H 442.723 -3.07984 2.10239 0
M  V30 4681 N 444.908 -1.36708 -0.784132 0
M  V30 4682 C 445.841 -1.25827 -1.90375 0
M  V30 4683 C 446.819 -0.141331 -1.61985 0
M  V30 4684 O 448.003 -0.313389 -1.85877 0
M  V30 4685 C 445.13 -0.942621 -3.25319 0
M  V30 4686 C 444.176 -2.07474 -3.72635 0
M  V30 4687 S 445.009 -3.69317 -3.8777 0
M  V30 4688 C 446.165 -3.39876 -5.25581 0
M  V30 4689 H 446.398 -2.20593 -1.99314 0
M  V30 4690 H 443.931 -1.22186 -0.943926 0
M  V30 4691 H 445.889 -0.767321 -4.03265 0
M  V30 4692 H 444.55 -0.0126566 -3.14097 0
M  V30 4693 H 443.743 -1.80858 -4.70432 0
M  V30 4694 H 443.345 -2.20953 -3.01754 0
M  V30 4695 H 445.637 -2.94097 -6.10339 0
M  V30 4696 H 446.58 -4.36956 -5.57203 0
M  V30 4697 H 446.988 -2.75098 -4.92931 0
M  V30 4698 N 446.386 1.0089 -1.21074 0
M  V30 4699 C 447.334 2.11707 -0.963476 0
M  V30 4700 C 448.328 1.69172 0.0879032 0
M  V30 4701 O 449.534 1.79889 -0.0631415 0
M  V30 4702 H 445.909 0.692026 -0.294287 0
M  V30 4703 H 447.88 2.29743 -1.90422 0
M  V30 4704 C 446.629 3.43473 -0.540509 0
M  V30 4705 H 445.952 3.76634 -1.34114 0
M  V30 4706 H 447.392 4.22044 -0.406777 0
M  V30 4707 C 445.851 3.2849 0.748079 0
M  V30 4708 O 446.381 3.58883 1.8046 0
M  V30 4709 N 444.587 2.81715 0.713081 0
M  V30 4710 H 444.134 2.5718 -0.146973 0
M  V30 4711 H 444.092 2.72071 1.57558 0
M  V30 4712 N 447.864 1.01787 1.20321 0
M  V30 4713 C 449.104 0.716493 1.91431 0
M  V30 4714 C 449.468 -0.740352 1.77152 0
M  V30 4715 O 450.669 -1.1543 2.42754 0
M  V30 4716 C 448.94 1.14169 3.38674 0
M  V30 4717 S 450.499 0.962482 4.28114 0
M  V30 4718 H 447.317 0.261175 0.661293 0
M  V30 4719 H 449.919 1.30539 1.45533 0
M  V30 4720 H 448.623 2.19784 3.46588 0
M  V30 4721 H 448.154 0.545621 3.89598 0
M  V30 4722 H 450.169 -0.133253 4.96021 0
M  V30 4723 N 449.342 -1.36122 0.79427 0
M  V30 4724 C 450.758 -1.5232 0.476525 0
M  V30 4725 C 450.958 -1.74685 -1.00436 0
M  V30 4726 O 450.014 -1.78115 -1.78973 0
M  V30 4727 C 451.327 -2.70607 1.31119 0
M  V30 4728 C 452.875 -2.8448 1.30537 0
M  V30 4729 C 453.35 -4.05778 2.12387 0
M  V30 4730 N 454.841 -4.12933 2.09859 0
M  V30 4731 C 455.576 -5.05876 2.69957 0
M  V30 4732 N 455.072 -6.04232 3.38934 0
M  V30 4733 N 456.865 -4.98528 2.59665 0
M  V30 4734 H 449.016 -1.1986 1.75349 0
M  V30 4735 H 451.279 -0.585418 0.745647 0
M  V30 4736 H 450.985 -2.60619 2.36158 0
M  V30 4737 H 450.859 -3.64888 0.955843 0
M  V30 4738 H 453.246 -2.93927 0.262876 0
M  V30 4739 H 453.327 -1.91093 1.70051 0
M  V30 4740 H 452.971 -3.97092 3.1667 0
M  V30 4741 H 452.901 -4.98323 1.70242 0
M  V30 4742 H 455.392 -3.42515 1.59662 0
M  V30 4743 H 455.705 -6.71724 3.82109 0
M  V30 4744 H 454.05 -6.04443 3.43036 0
M  V30 4745 H 457.241 -4.20641 2.05375 0
M  V30 4746 H 457.414 -5.70773 3.06793 0
M  V30 4747 N 450.82 -0.546701 -1.47814 0
M  V30 4748 C 452.06 -0.0209604 -2.04389 0
M  V30 4749 C 452.424 1.29993 -1.413 0
M  V30 4750 O 453.625 1.91273 -1.8886 0
M  V30 4751 C 451.896 0.0812844 -3.57308 0
M  V30 4752 S 453.455 0.55467 -4.3528 0
M  V30 4753 H 450.273 -0.0200865 -0.710716 0
M  V30 4754 H 452.875 -0.731055 -1.81317 0
M  V30 4755 H 451.579 -0.884616 -4.00753 0
M  V30 4756 H 451.11 0.815253 -3.8486 0
M  V30 4757 H 453.125 1.81627 -4.61764 0
M  V30 4758 N 452.299 1.55045 -0.282633 0
M  V30 4759 C 453.209 2.26491 0.61147 0
M  V30 4760 C 454.225 1.29348 1.16384 0
M  V30 4761 O 455.401 1.62298 1.19253 0
M  V30 4762 C 452.466 2.97779 1.77563 0
M  V30 4763 C 451.527 4.10418 1.25919 0
M  V30 4764 C 450.76 4.78297 2.36786 0
M  V30 4765 O 450.983 4.45426 3.56303 0
M  V30 4766 O 449.917 5.66089 2.04517 0
M  V30 4767 H 453.743 3.03683 0.0324615 0
M  V30 4768 H 451.328 1.49317 -0.0497576 0
M  V30 4769 H 453.21 3.42554 2.45427 0
M  V30 4770 H 451.885 2.23498 2.34159 0
M  V30 4771 H 450.792 3.70082 0.546797 0
M  V30 4772 H 452.125 4.86622 0.738887 0
M  V30 4773 N 453.777 0.010035 1.57597 0
M  V30 4774 C 454.725 -0.996272 2.10184 0
M  V30 4775 C 455.719 -1.34942 1.02406 0
M  V30 4776 O 456.925 -1.33389 1.20861 0
M  V30 4777 H 453.3 -0.338982 0.671264 0
M  V30 4778 H 455.271 -0.527272 2.93705 0
M  V30 4779 C 454.02 -2.27599 2.62857 0
M  V30 4780 H 453.343 -2.01295 3.45428 0
M  V30 4781 H 454.783 -2.96265 3.0332 0
M  V30 4782 C 453.242 -2.99269 1.54725 0
M  V30 4783 O 453.772 -3.90644 0.93597 0
M  V30 4784 N 451.978 -2.61269 1.27228 0
M  V30 4785 H 451.525 -1.87043 1.77123 0
M  V30 4786 H 451.483 -3.09534 0.550999 0
M  V30 4787 N 455.255 -1.55392 -0.262866 0
M  V30 4788 C 456.203 -1.8977 -1.345 0
M  V30 4789 C 457.197 -0.775063 -1.50629 0
M  V30 4790 O 458.403 -0.959519 -1.52293 0
M  V30 4791 H 454.778 -0.602467 -0.450041 0
M  V30 4792 H 456.749 -2.80147 -1.02762 0
M  V30 4793 C 455.498 -2.19501 -2.69657 0
M  V30 4794 H 454.821 -3.05378 -2.5804 0
M  V30 4795 H 456.261 -2.47469 -3.44289 0
M  V30 4796 C 454.72 -1.00597 -3.21531 0
M  V30 4797 O 455.25 -0.245768 -4.00947 0
M  V30 4798 N 453.456 -0.800911 -2.79345 0
M  V30 4799 H 453.003 -1.42079 -2.14875 0
M  V30 4800 H 452.961 -0.00697996 -3.14399 0
M  V30 4801 N 456.733 0.527833 -1.48498 0
M  V30 4802 C 457.963 1.30633 -1.60058 0
M  V30 4803 C 458.371 1.87394 -0.260786 0
M  V30 4804 O 457.714 1.67227 0.760317 0
M  V30 4805 C 457.776 2.49361 -2.58958 0
M  V30 4806 C 457.44 2.13671 -4.03972 0
M  V30 4807 C 458.437 1.69217 -4.91591 0
M  V30 4808 C 456.122 2.24129 -4.49524 0
M  V30 4809 C 458.116 1.35689 -6.2279 0
M  V30 4810 C 455.803 1.90212 -5.80743 0
M  V30 4811 C 456.801 1.46063 -6.67199 0
M  V30 4812 O 456.489 1.12593 -7.95976 0
M  V30 4813 H 456.221 0.403444 -0.54241 0
M  V30 4814 H 458.775 0.643233 -1.95068 0
M  V30 4815 H 457.005 3.18659 -2.19073 0
M  V30 4816 H 458.694 3.11421 -2.6033 0
M  V30 4817 H 459.46 1.60607 -4.57636 0
M  V30 4818 H 455.339 2.57447 -3.82416 0
M  V30 4819 H 458.883 1.01157 -6.90227 0
M  V30 4820 H 454.78 1.98464 -6.14233 0
M  V30 4821 H 455.548 1.25972 -8.08748 0
M  V30 4822 N 458.211 1.37122 0.776871 0
M  V30 4823 C 459.458 1.32047 1.53524 0
M  V30 4824 C 459.786 -0.0965631 1.9426 0
M  V30 4825 O 459.041 -1.06866 1.63945 0
M  V30 4826 C 459.34 2.20068 2.81611 0
M  V30 4827 C 459.006 3.68423 2.59953 0
M  V30 4828 C 457.668 4.08854 2.53755 0
M  V30 4829 C 460.02 4.62431 2.40431 0
M  V30 4830 C 457.348 5.41417 2.26018 0
M  V30 4831 C 459.7 5.95225 2.14219 0
M  V30 4832 C 458.364 6.34767 2.06462 0
M  V30 4833 H 457.634 0.483196 0.561785 0
M  V30 4834 H 460.281 1.69284 0.895268 0
M  V30 4835 H 458.586 1.75809 3.50141 0
M  V30 4836 H 460.283 2.13458 3.39465 0
M  V30 4837 H 456.873 3.36354 2.65638 0
M  V30 4838 H 461.057 4.32057 2.44213 0
M  V30 4839 H 456.313 5.71022 2.18504 0
M  V30 4840 H 460.487 6.67626 1.98112 0
M  V30 4841 H 458.114 7.37413 1.84733 0
M  V30 4842 N 459.689 -1.00246 1.21608 0
M  V30 4843 C 461.105 -1.26435 0.973975 0
M  V30 4844 C 461.305 -1.98642 -0.338143 0
M  V30 4845 O 460.361 -2.29026 -1.06317 0
M  V30 4846 C 461.674 -2.08551 2.16626 0
M  V30 4847 C 463.222 -2.21769 2.20879 0
M  V30 4848 C 463.697 -3.07267 3.39633 0
M  V30 4849 N 465.188 -3.14855 3.39736 0
M  V30 4850 C 465.923 -3.81274 4.28273 0
M  V30 4851 N 465.419 -4.497 5.27012 0
M  V30 4852 N 467.212 -3.7794 4.16074 0
M  V30 4853 H 459.363 -0.518089 2.05984 0
M  V30 4854 H 461.626 -0.291368 0.902113 0
M  V30 4855 H 461.332 -1.62847 3.11727 0
M  V30 4856 H 461.206 -3.09303 2.15897 0
M  V30 4857 H 463.593 -2.66691 1.26332 0
M  V30 4858 H 463.674 -1.20478 2.25652 0
M  V30 4859 H 463.318 -2.63047 4.34475 0
M  V30 4860 H 463.248 -4.08678 3.321 0
M  V30 4861 H 465.739 -2.66147 2.6828 0
M  V30 4862 H 466.052 -4.98092 5.90867 0
M  V30 4863 H 464.397 -4.48479 5.30935 0
M  V30 4864 H 467.588 -3.23638 3.38195 0
M  V30 4865 H 467.761 -4.29424 4.85282 0
M  V30 4866 N 461.167 -1.02423 -1.1978 0
M  V30 4867 C 462.13 -0.605703 -2.21052 0
M  V30 4868 C 463.13 0.328209 -1.57415 0
M  V30 4869 O 464.32 0.115853 -1.73814 0
M  V30 4870 C 461.452 0.114366 -3.40708 0
M  V30 4871 H 462.645 -1.5017 -2.59594 0
M  V30 4872 H 460.198 -0.814888 -1.33376 0
M  V30 4873 H 460.933 1.02492 -3.07678 0
M  V30 4874 H 460.718 -0.556641 -3.88129 0
M  V30 4875 H 462.208 0.394272 -4.15735 0
M  V30 4876 N 462.645 1.35699 -0.801477 0
M  V30 4877 C 463.922 1.9324 -0.302937 0
M  V30 4878 C 464.302 1.73209 1.20672 0
M  V30 4879 O 463.65 1.09809 2.00385 0
M  V30 4880 C 463.86 3.41728 -0.708747 0
M  V30 4881 C 465.208 4.18868 -0.695328 0
M  V30 4882 O 466.232 3.5022 -0.649971 0
M  V30 4883 O 465.091 5.41342 -0.749081 0
M  V30 4884 H 462.185 0.82331 -0.0780367 0
M  V30 4885 H 464.731 1.44806 -0.884832 0
M  V30 4886 H 463.503 3.50015 -1.74944 0
M  V30 4887 H 463.126 3.97471 -0.101384 0
M  V30 4888 N 464.123 0.554532 1.47522 0
M  V30 4889 C 465.07 -0.19466 2.29978 0
M  V30 4890 C 466.04 -0.910882 1.38896 0
M  V30 4891 O 467.225 -0.907102 1.67858 0
M  V30 4892 C 464.365 -1.22035 3.22802 0
M  V30 4893 C 463.478 -0.510474 4.28973 0
M  V30 4894 C 462.613 -1.52123 5.08952 0
M  V30 4895 C 461.652 -0.796173 6.069 0
M  V30 4896 N 460.789 -1.75363 6.79847 0
M  V30 4897 H 465.629 0.51461 2.93523 0
M  V30 4898 H 463.166 0.265607 1.44682 0
M  V30 4899 H 465.124 -1.8276 3.7504 0
M  V30 4900 H 463.754 -1.89769 2.61127 0
M  V30 4901 H 462.806 0.211234 3.79813 0
M  V30 4902 H 464.118 0.0576503 4.98767 0
M  V30 4903 H 463.272 -2.20207 5.65326 0
M  V30 4904 H 462.011 -2.12327 4.39054 0
M  V30 4905 H 461.016 -0.101388 5.49707 0
M  V30 4906 H 462.241 -0.199911 6.78806 0
M  V30 4907 H 460.187 -2.3443 6.12682 0
M  V30 4908 H 460.104 -1.23759 7.45801 0
M  V30 4909 H 461.372 -2.4257 7.40797 0
M  V30 4910 N 465.601 -1.54893 0.290851 0
M  V30 4911 C 466.878 -1.91991 -0.373989 0
M  V30 4912 C 467.258 -1.21694 -1.72493 0
M  V30 4913 O 466.606 -0.34917 -2.25816 0
M  V30 4914 C 466.816 -3.45419 -0.498703 0
M  V30 4915 C 468.164 -4.1748 -0.774298 0
M  V30 4916 O 469.188 -3.51398 -0.582908 0
M  V30 4917 O 468.047 -5.3445 -1.14129 0
M  V30 4918 H 465.141 -0.800593 -0.207315 0
M  V30 4919 H 467.687 -1.66297 0.338164 0
M  V30 4920 H 466.459 -3.88688 0.451392 0
M  V30 4921 H 466.082 -3.77117 -1.25972 0
M  V30 4922 N 467.08 -0.0183926 -1.57589 0
M  V30 4923 C 468.491 0.521927 -1.79256 0
M  V30 4924 C 468.842 1.72885 -0.927636 0
M  V30 4925 O 467.967 2.15978 -0.135091 0
M  V30 4926 C 468.562 0.953632 -3.25102 0
M  V30 4927 C 467.121 1.43913 -3.47801 0
M  V30 4928 C 466.268 0.398837 -2.74417 0
M  V30 4929 H 469.219 -0.244485 -1.56805 0
M  V30 4930 H 469.24 1.81863 -3.34224 0
M  V30 4931 H 468.752 0.0750123 -3.88028 0
M  V30 4932 H 466.853 2.33804 -2.90115 0
M  V30 4933 H 466.966 1.45391 -4.56507 0
M  V30 4934 H 465.33 0.864572 -2.39577 0
M  V30 4935 H 466.113 -0.471132 -3.40052 0
M  V30 4936 N 468.558 1.5553 0.254621 0
M  V30 4937 C 469.969 1.67518 0.824286 0
M  V30 4938 C 470.32 0.614429 1.86331 0
M  V30 4939 O 469.445 -0.240736 2.15057 0
M  V30 4940 C 470.04 3.03692 1.50189 0
M  V30 4941 C 468.599 3.17646 2.01935 0
M  V30 4942 C 467.746 2.63373 0.867746 0
M  V30 4943 H 470.697 1.58671 0.0305843 0
M  V30 4944 H 470.718 2.97706 2.36962 0
M  V30 4945 H 470.23 3.80874 0.745431 0
M  V30 4946 H 468.331 2.45273 2.80485 0
M  V30 4947 H 468.444 4.24455 2.22204 0
M  V30 4948 H 466.808 2.20999 1.26616 0
M  V30 4949 H 467.591 3.43074 0.124498 0
M  V30 4950 N 470.036 -0.519951 1.48776 0
M  V30 4951 C 471.261 -1.30447 1.6124 0
M  V30 4952 C 471.686 -1.86055 0.276591 0
M  V30 4953 O 471.044 -1.64915 -0.753183 0
M  V30 4954 C 471.092 -2.42406 2.66967 0
M  V30 4955 O 470.196 -3.45728 2.24824 0
M  V30 4956 H 469.537 -0.385924 0.540332 0
M  V30 4957 H 472.067 -0.624572 1.94834 0
M  V30 4958 H 472.077 -2.88447 2.88552 0
M  V30 4959 H 470.752 -2.01294 3.63941 0
M  V30 4960 H 469.329 -3.05737 2.13494 0
M  V30 4961 N 471.514 -1.37532 -0.769588 0
M  V30 4962 C 472.447 -1.27839 -1.8903 0
M  V30 4963 C 473.425 -0.158504 -1.61826 0
M  V30 4964 O 474.609 -0.333086 -1.85534 0
M  V30 4965 C 471.736 -0.977072 -3.24301 0
M  V30 4966 C 470.782 -2.11414 -3.70414 0
M  V30 4967 S 471.615 -3.73409 -3.83831 0
M  V30 4968 C 472.771 -3.45432 -5.21946 0
M  V30 4969 H 473.004 -2.22694 -1.96963 0
M  V30 4970 H 470.537 -1.2318 -0.930914 0
M  V30 4971 H 472.495 -0.810049 -4.02428 0
M  V30 4972 H 471.156 -0.0459701 -3.14066 0
M  V30 4973 H 470.349 -1.85837 -4.68488 0
M  V30 4974 H 469.951 -2.24141 -2.99394 0
M  V30 4975 H 472.243 -3.00554 -6.07185 0
M  V30 4976 H 473.186 -4.42841 -5.52537 0
M  V30 4977 H 473.594 -2.80311 -4.89986 0
M  V30 4978 N 472.992 0.995999 -1.22138 0
M  V30 4979 C 473.955 2.06711 -0.990109 0
M  V30 4980 C 474.955 1.60744 0.0422978 0
M  V30 4981 O 476.145 1.73095 -0.195895 0
M  V30 4982 C 473.277 3.37288 -0.49491 0
M  V30 4983 H 474.47 2.28661 -1.94047 0
M  V30 4984 H 472.023 1.16711 -1.03963 0
M  V30 4985 H 472.758 3.21022 0.459948 0
M  V30 4986 H 472.543 3.71986 -1.23971 0
M  V30 4987 H 474.033 4.16103 -0.353253 0
M  V30 4988 N 474.47 1.03057 1.19235 0
M  V30 4989 C 475.71 0.736757 1.9066 0
M  V30 4990 C 476.074 -0.721521 1.77927 0
M  V30 4991 O 477.275 -1.12849 2.43964 0
M  V30 4992 C 475.546 1.17755 3.37444 0
M  V30 4993 S 477.105 1.00783 4.27069 0
M  V30 4994 H 473.923 0.268174 0.658486 0
M  V30 4995 H 476.525 1.32076 1.4414 0
M  V30 4996 H 475.229 2.23448 3.44237 0
M  V30 4997 H 474.76 0.586912 3.88997 0
M  V30 4998 H 476.775 -0.0806356 4.96134 0
M  V30 4999 N 475.948 -1.35272 0.808662 0
M  V30 5000 C 477.176 -2.02946 0.402537 0
M  V30 5001 C 477.591 -1.60937 -0.987147 0
M  V30 5002 O 476.948 -0.807917 -1.63643 0
M  V30 5003 C 476.999 -3.58317 0.47868 0
M  V30 5004 O 476.72 -3.98799 1.81358 0
M  V30 5005 C 478.221 -4.43251 0.0656281 0
M  V30 5006 H 475.441 -0.650831 0.163279 0
M  V30 5007 H 477.985 -1.72849 1.09286 0
M  V30 5008 H 476.14 -3.87055 -0.163415 0
M  V30 5009 H 476.554 -4.93451 1.77781 0
M  V30 5010 H 478.028 -5.51738 0.170017 0
M  V30 5011 H 478.505 -4.27913 -0.989278 0
M  V30 5012 H 479.111 -4.19813 0.68096 0
M  V30 5013 N 477.426 -0.562348 -1.47226 0
M  V30 5014 C 478.842 -0.222492 -1.58042 0
M  V30 5015 C 479.042 1.27505 -1.56028 0
M  V30 5016 O 478.098 2.05555 -1.46641 0
M  V30 5017 C 479.411 -0.853694 -2.88327 0
M  V30 5018 C 480.959 -0.825397 -3.01921 0
M  V30 5019 C 481.434 -1.43576 -4.34914 0
M  V30 5020 N 482.925 -1.39918 -4.41562 0
M  V30 5021 C 483.66 -1.84103 -5.43041 0
M  V30 5022 N 483.156 -2.36167 -6.51304 0
M  V30 5023 N 484.949 -1.75142 -5.34118 0
M  V30 5024 H 477.1 -1.53525 -1.46778 0
M  V30 5025 H 479.363 -0.640527 -0.698877 0
M  V30 5026 H 479.069 -1.90635 -2.95552 0
M  V30 5027 H 478.943 -0.34977 -3.75575 0
M  V30 5028 H 481.33 0.218583 -2.94289 0
M  V30 5029 H 481.411 -1.36713 -2.16202 0
M  V30 5030 H 481.055 -2.47884 -4.43301 0
M  V30 5031 H 480.985 -0.869427 -5.19373 0
M  V30 5032 H 483.476 -1.0184 -3.63919 0
M  V30 5033 H 483.789 -2.67793 -7.24919 0
M  V30 5034 H 482.134 -2.40181 -6.52179 0
M  V30 5035 H 485.325 -1.34241 -4.48439 0
M  V30 5036 H 485.498 -2.09895 -6.13065 0
M  V30 5037 N 478.904 1.54736 -0.299062 0
M  V30 5038 C 480.315 1.8569 0.193971 0
M  V30 5039 C 480.666 1.22101 1.53577 0
M  V30 5040 O 479.791 0.51799 2.10109 0
M  V30 5041 C 480.386 3.36895 0.358733 0
M  V30 5042 C 478.945 3.67887 0.795986 0
M  V30 5043 C 478.092 2.77131 -0.096807 0
M  V30 5044 H 481.043 1.49934 -0.520134 0
M  V30 5045 H 481.064 3.61294 1.19361 0
M  V30 5046 H 480.576 3.83148 -0.617998 0
M  V30 5047 H 478.677 3.27151 1.78334 0
M  V30 5048 H 478.79 4.75114 0.616718 0
M  V30 5049 H 477.154 2.51153 0.423581 0
M  V30 5050 H 477.937 3.26204 -1.06986 0
M  V30 5051 N 480.382 0.0267497 1.57577 0
M  V30 5052 C 481.793 -0.512413 1.79531 0
M  V30 5053 C 482.144 -1.72391 0.936791 0
M  V30 5054 O 481.269 -2.15903 0.146543 0
M  V30 5055 C 481.864 -0.936378 3.25603 0
M  V30 5056 C 480.423 -1.42067 3.4856 0
M  V30 5057 C 479.57 -0.384278 2.74624 0
M  V30 5058 H 482.521 0.252797 1.56674 0
M  V30 5059 H 482.542 -1.80088 3.35184 0
M  V30 5060 H 482.054 -0.0544332 3.88062 0
M  V30 5061 H 480.155 -2.32262 2.9135 0
M  V30 5062 H 480.268 -1.42968 4.57271 0
M  V30 5063 H 478.632 -0.851855 2.40032 0
M  V30 5064 H 479.415 0.489159 3.39797 0
M  V30 5065 N 481.861 -1.55662 -0.24637 0
M  V30 5066 C 483.086 -1.81914 -0.996093 0
M  V30 5067 C 483.511 -0.603875 -1.78143 0
M  V30 5068 O 482.869 0.447091 -1.75701 0
M  V30 5069 C 482.917 -3.05908 -1.90925 0
M  V30 5070 O 482.021 -2.82861 -3.00105 0
M  V30 5071 H 481.362 -0.600481 -0.283406 0
M  V30 5072 H 483.892 -2.02848 -0.267199 0
M  V30 5073 H 483.902 -3.35356 -2.3238 0
M  V30 5074 H 482.577 -3.93999 -1.33183 0
M  V30 5075 H 481.154 -2.64583 -2.62775 0
M  V30 5076 N 483.339 0.512053 -1.4905 0
M  V30 5077 C 484.564 1.2959 -1.6193 0
M  V30 5078 C 484.989 1.85906 -0.286454 0
M  V30 5079 O 484.347 1.65312 0.744426 0
M  V30 5080 C 484.395 2.40987 -2.68249 0
M  V30 5081 O 483.499 3.44531 -2.26654 0
M  V30 5082 H 482.84 0.383053 -0.542371 0
M  V30 5083 H 485.37 0.614231 -1.95162 0
M  V30 5084 H 485.38 2.86913 -2.90078 0
M  V30 5085 H 484.055 1.99361 -3.65004 0
M  V30 5086 H 482.632 3.046 -2.15112 0
M  V30 5087 N 484.817 1.37938 0.762283 0
M  V30 5088 C 486.228 1.30094 1.33912 0
M  V30 5089 C 486.579 -0.0472026 1.96143 0
M  V30 5090 O 485.704 -0.94917 1.94473 0
M  V30 5091 C 486.299 2.35592 2.43478 0
M  V30 5092 C 484.858 2.31353 2.96905 0
M  V30 5093 C 484.005 2.18919 1.70205 0
M  V30 5094 H 486.956 1.48423 0.561816 0
M  V30 5095 H 486.977 2.00806 3.23199 0
M  V30 5096 H 486.489 3.33701 1.98155 0
M  V30 5097 H 484.59 1.36799 3.46579 0
M  V30 5098 H 484.703 3.25147 3.51875 0
M  V30 5099 H 483.067 1.65624 1.93496 0
M  V30 5100 H 483.85 3.18956 1.26973 0
M  V30 5101 N 486.295 -0.989507 1.22664 0
M  V30 5102 C 487.711 -1.25395 0.987331 0
M  V30 5103 C 487.911 -1.9899 -0.317056 0
M  V30 5104 O 486.967 -2.30141 -1.03882 0
M  V30 5105 C 488.28 -2.06242 2.18826 0
M  V30 5106 C 489.828 -2.19413 2.23219 0
M  V30 5107 C 490.303 -3.03648 3.42873 0
M  V30 5108 N 491.794 -3.11234 3.43056 0
M  V30 5109 C 492.529 -3.7671 4.32293 0
M  V30 5110 N 492.025 -4.44085 5.31752 0
M  V30 5111 N 493.818 -3.73505 4.2006 0
M  V30 5112 H 485.969 -0.496212 2.06522 0
M  V30 5113 H 488.232 -0.281784 0.905153 0
M  V30 5114 H 487.938 -1.59531 3.13437 0
M  V30 5115 H 487.812 -3.06996 2.19165 0
M  V30 5116 H 490.199 -2.65336 1.29154 0
M  V30 5117 H 490.28 -1.18078 2.26917 0
M  V30 5118 H 489.924 -2.58424 4.37241 0
M  V30 5119 H 489.854 -4.05132 3.36416 0
M  V30 5120 H 492.345 -2.63287 2.71088 0
M  V30 5121 H 492.658 -4.91797 5.96117 0
M  V30 5122 H 491.003 -4.42822 5.35662 0
M  V30 5123 H 494.194 -3.20033 3.41609 0
M  V30 5124 H 494.367 -4.24253 4.8981 0
M  V30 5125 N 487.773 -1.03688 -1.18687 0
M  V30 5126 C 488.721 -0.618292 -2.24232 0
M  V30 5127 C 489.715 0.353045 -1.6568 0
M  V30 5128 O 490.921 0.220749 -1.78641 0
M  V30 5129 H 487.296 -0.181711 -0.729716 0
M  V30 5130 H 489.267 -1.51893 -2.56848 0
M  V30 5131 C 488.016 0.00677342 -3.47699 0
M  V30 5132 H 487.339 -0.731692 -3.93047 0
M  V30 5133 H 488.779 0.262492 -4.23187 0
M  V30 5134 C 487.238 1.25572 -3.12623 0
M  V30 5135 O 487.768 2.34691 -3.26011 0
M  V30 5136 N 485.974 1.14755 -2.66982 0
M  V30 5137 H 485.521 0.259601 -2.56289 0
M  V30 5138 H 485.479 1.98412 -2.43885 0
M  V30 5139 N 489.251 1.34841 -0.815825 0
M  V30 5140 C 490.497 1.98793 -0.401129 0
M  V30 5141 C 490.83 1.64548 1.03139 0
M  V30 5142 O 490.105 0.913487 1.71714 0
M  V30 5143 C 490.388 3.55143 -0.595409 0
M  V30 5144 C 490.241 3.99155 -2.07352 0
M  V30 5145 C 491.56 4.40092 -0.0268823 0
M  V30 5146 H 488.679 0.722146 -0.14722 0
M  V30 5147 H 491.321 1.59847 -1.02707 0
M  V30 5148 H 489.471 3.8845 -0.0625779 0
M  V30 5149 H 491.143 3.76216 -2.66945 0
M  V30 5150 H 489.386 3.49726 -2.56659 0
M  V30 5151 H 490.057 5.07971 -2.1603 0
M  V30 5152 H 492.533 4.13298 -0.482042 0
M  V30 5153 H 491.409 5.48562 -0.19267 0
M  V30 5154 H 491.67 4.29016 1.06759 0
M  V30 5155 N 490.729 0.570148 1.46925 0
M  V30 5156 C 491.978 0.0487352 2.01641 0
M  V30 5157 C 492.291 -1.31433 1.44861 0
M  V30 5158 O 493.497 -1.92638 1.91318 0
M  V30 5159 C 491.953 0.0365817 3.59881 0
M  V30 5160 C 491.561 1.39719 4.25655 0
M  V30 5161 C 493.305 -0.431545 4.22301 0
M  V30 5162 C 491.212 1.34345 5.75939 0
M  V30 5163 H 490.142 0.0144492 0.753862 0
M  V30 5164 H 492.793 0.719928 1.68788 0
M  V30 5165 H 491.175 -0.700522 3.89755 0
M  V30 5166 H 492.349 2.15303 4.07408 0
M  V30 5167 H 490.664 1.80431 3.75278 0
M  V30 5168 H 493.261 -0.490354 5.32447 0
M  V30 5169 H 493.604 -1.44638 3.90366 0
M  V30 5170 H 494.137 0.251102 3.97007 0
M  V30 5171 H 490.876 2.33469 6.12513 0
M  V30 5172 H 490.396 0.629615 5.96486 0
M  V30 5173 H 492.075 1.051 6.38407 0
M  V30 5174 N 492.207 -1.54576 0.307264 0
M  V30 5175 C 493.432 -2.05139 -0.305379 0
M  V30 5176 C 493.857 -1.18278 -1.46259 0
M  V30 5177 O 493.215 -0.188243 -1.8032 0
M  V30 5178 C 493.263 -3.53066 -0.733283 0
M  V30 5179 O 492.367 -3.69206 -1.83741 0
M  V30 5180 H 491.708 -0.661444 -0.0582105 0
M  V30 5181 H 494.238 -1.99569 0.450931 0
M  V30 5182 H 494.248 -3.95034 -1.02039 0
M  V30 5183 H 492.923 -4.15746 0.113198 0
M  V30 5184 H 491.5 -3.39143 -1.55037 0
M  V30 5185 N 493.685 -0.035106 -1.57561 0
M  V30 5186 C 494.633 0.962707 -2.11742 0
M  V30 5187 C 495.627 1.33296 -1.0454 0
M  V30 5188 O 496.833 1.31449 -1.22968 0
M  V30 5189 H 493.208 0.32826 -0.676572 0
M  V30 5190 H 495.179 0.48048 -2.94506 0
M  V30 5191 C 493.928 2.23388 -2.66445 0
M  V30 5192 H 493.251 1.95774 -3.48587 0
M  V30 5193 H 494.691 2.91402 -3.07995 0
M  V30 5194 C 493.15 2.96769 -1.59467 0
M  V30 5195 O 493.68 3.89105 -0.998 0
M  V30 5196 N 491.886 2.59212 -1.31369 0
M  V30 5197 H 491.433 1.84202 -1.80076 0
M  V30 5198 H 491.391 3.08618 -0.600173 0
M  V30 5199 N 495.163 1.55791 0.238111 0
M  V30 5200 C 496.412 1.77234 0.962868 0
M  V30 5201 C 496.725 0.600661 1.86149 0
M  V30 5202 O 497.931 0.698315 2.62366 0
M  V30 5203 C 496.387 3.13808 1.76218 0
M  V30 5204 C 495.995 4.3865 0.910518 0
M  V30 5205 C 497.739 3.44585 2.47914 0
M  V30 5206 C 495.646 5.66252 1.70623 0
M  V30 5207 H 494.576 0.660731 0.36325 0
M  V30 5208 H 497.227 1.8221 0.217242 0
M  V30 5209 H 495.609 3.02963 2.55009 0
M  V30 5210 H 496.783 4.60507 0.164316 0
M  V30 5211 H 495.098 4.15271 0.30647 0
M  V30 5212 H 497.695 4.3714 3.07917 0
M  V30 5213 H 498.038 2.66314 3.19973 0
M  V30 5214 H 498.571 3.56685 1.76127 0
M  V30 5215 H 495.31 6.47369 1.02923 0
M  V30 5216 H 494.83 5.48483 2.42748 0
M  V30 5217 H 496.509 6.05829 2.27114 0
M  V30 5218 N 496.642 -0.504142 1.49319 0
M  V30 5219 C 497.59 -1.62689 1.66238 0
M  V30 5220 C 498.584 -1.6095 0.528349 0
M  V30 5221 O 499.79 -1.65496 0.707887 0
M  V30 5222 H 496.165 -0.539247 0.524134 0
M  V30 5223 H 498.136 -1.45571 2.60484 0
M  V30 5224 C 496.885 -3.00841 1.74328 0
M  V30 5225 H 496.208 -3.02884 2.60963 0
M  V30 5226 H 497.648 -3.78945 1.90202 0
M  V30 5227 C 496.107 -3.33355 0.487416 0
M  V30 5228 O 496.637 -3.99819 -0.388294 0
M  V30 5229 N 494.843 -2.88469 0.351306 0
M  V30 5230 H 494.39 -2.34557 1.06492 0
M  V30 5231 H 494.348 -3.10591 -0.487899 0
M  V30 5232 N 498.12 -1.38341 -0.754957 0
M  V30 5233 C 499.03 -1.3769 -1.89944 0
M  V30 5234 C 500.046 -0.274194 -1.71826 0
M  V30 5235 O 501.222 -0.512391 -1.94773 0
M  V30 5236 C 498.287 -1.19938 -3.25293 0
M  V30 5237 C 497.348 -2.40001 -3.55946 0
M  V30 5238 C 496.581 -2.23087 -4.84838 0
M  V30 5239 O 496.804 -1.22386 -5.57116 0
M  V30 5240 O 495.738 -3.11646 -5.14937 0
M  V30 5241 H 499.564 -2.3412 -1.93446 0
M  V30 5242 H 497.149 -1.19246 -0.900044 0
M  V30 5243 H 499.031 -1.12093 -4.06218 0
M  V30 5244 H 497.706 -0.265919 -3.22606 0
M  V30 5245 H 496.613 -2.53421 -2.75188 0
M  V30 5246 H 497.946 -3.31973 -3.63394 0
M  V30 5247 N 499.598 0.982988 -1.23187 0
M  V30 5248 C 500.826 1.75921 -1.08901 0
M  V30 5249 C 501.241 1.85341 0.359719 0
M  V30 5250 O 500.598 1.33072 1.24892 0
M  V30 5251 C 500.649 3.18742 -1.70545 0
M  V30 5252 O 500.37 3.09814 -3.09753 0
M  V30 5253 C 501.871 4.1277 -1.61667 0
M  V30 5254 H 499.091 0.552166 -0.381252 0
M  V30 5255 H 501.635 1.23516 -1.62985 0
M  V30 5256 H 499.79 3.68182 -1.20501 0
M  V30 5257 H 500.204 3.99703 -3.39614 0
M  V30 5258 H 501.678 5.10697 -2.09506 0
M  V30 5259 H 502.155 4.3542 -0.575009 0
M  V30 5260 H 502.761 3.69232 -2.11064 0
M  V30 5261 N 501.076 1.04316 1.18135 0
M  V30 5262 C 502.301 0.768047 1.92655 0
M  V30 5263 C 502.726 -0.66904 1.758 0
M  V30 5264 O 502.084 -1.46372 1.06981 0
M  V30 5265 C 502.132 1.14239 3.42026 0
M  V30 5266 O 501.236 0.269333 4.1152 0
M  V30 5267 H 500.577 0.282436 0.600937 0
M  V30 5268 H 503.107 1.39367 1.49793 0
M  V30 5269 H 503.117 1.10538 3.92741 0
M  V30 5270 H 501.792 2.18928 3.53615 0
M  V30 5271 H 500.369 0.366175 3.71098 0
M  V30 5272 N 502.554 -1.34406 0.822964 0
M  V30 5273 C 503.8 -1.98578 0.411666 0
M  V30 5274 C 504.133 -1.65093 -1.02264 0
M  V30 5275 O 503.408 -0.92258 -1.71227 0
M  V30 5276 C 503.691 -3.54823 0.614235 0
M  V30 5277 C 503.544 -3.9805 2.09466 0
M  V30 5278 C 504.863 -4.40071 0.050221 0
M  V30 5279 H 501.982 -0.721355 0.151047 0
M  V30 5280 H 504.624 -1.59301 1.03554 0
M  V30 5281 H 502.774 -3.88411 0.0831774 0
M  V30 5282 H 504.446 -3.74795 2.68936 0
M  V30 5283 H 502.689 -3.4836 2.5851 0
M  V30 5284 H 503.36 -5.06819 2.18721 0
M  V30 5285 H 505.836 -4.13037 0.503953 0
M  V30 5286 H 504.712 -5.48452 0.221759 0
M  V30 5287 H 504.973 -4.29576 -1.04482 0
M  V30 5288 N 504.032 -0.577932 -1.46621 0
M  V30 5289 C 505.281 -0.0594281 -2.01612 0
M  V30 5290 C 505.594 1.30663 -1.45556 0
M  V30 5291 O 506.8 1.91621 -1.92337 0
M  V30 5292 C 505.256 -0.0556666 -3.59857 0
M  V30 5293 C 504.864 -1.41975 -4.24908 0
M  V30 5294 C 506.608 0.409143 -4.22524 0
M  V30 5295 C 504.515 -1.37397 -5.75218 0
M  V30 5296 H 503.445 -0.0184469 -0.753774 0
M  V30 5297 H 506.096 -0.728869 -1.68404 0
M  V30 5298 H 504.478 0.679843 -3.90121 0
M  V30 5299 H 505.652 -2.17461 -4.0626 0
M  V30 5300 H 503.967 -1.82419 -3.74316 0
M  V30 5301 H 506.564 0.46211 -5.32699 0
M  V30 5302 H 506.907 1.42565 -3.91128 0
M  V30 5303 H 507.44 -0.272152 -3.96868 0
M  V30 5304 H 504.179 -2.36714 -6.11267 0
M  V30 5305 H 503.699 -0.661239 -5.96144 0
M  V30 5306 H 505.378 -1.08484 -6.3784 0
M  V30 5307 N 505.51 1.54411 -0.315457 0
M  V30 5308 C 506.44 2.27002 0.547039 0
M  V30 5309 C 507.421 1.27492 1.12605 0
M  V30 5310 O 508.606 1.5629 1.15269 0
M  V30 5311 C 505.736 3.02171 1.71201 0
M  V30 5312 C 504.69 4.0895 1.26268 0
M  V30 5313 C 504.016 4.71915 2.51396 0
M  V30 5314 C 505.316 5.20891 0.383419 0
M  V30 5315 H 507.01 2.99343 -0.0584517 0
M  V30 5316 H 504.556 1.4397 -0.0295527 0
M  V30 5317 H 506.509 3.51681 2.32161 0
M  V30 5318 H 505.233 2.27433 2.34397 0
M  V30 5319 H 503.892 3.60312 0.676062 0
M  V30 5320 H 503.54 3.93801 3.12937 0
M  V30 5321 H 503.24 5.44039 2.22026 0
M  V30 5322 H 504.764 5.24195 3.13133 0
M  V30 5323 H 506.178 5.66206 0.899082 0
M  V30 5324 H 504.575 5.99821 0.182857 0
M  V30 5325 H 505.645 4.81324 -0.587821 0
M  V30 5326 N 506.988 0.0434614 1.5754 0
M  V30 5327 C 508.265 -0.671479 1.83713 0
M  V30 5328 C 508.645 -1.89495 0.930315 0
M  V30 5329 O 507.993 -2.28498 -0.0105639 0
M  V30 5330 C 508.203 -1.0361 3.33266 0
M  V30 5331 C 509.551 -1.42167 4.00092 0
M  V30 5332 O 510.575 -1.12866 3.37846 0
M  V30 5333 O 509.434 -1.96817 5.09829 0
M  V30 5334 H 506.528 -0.330726 0.75799 0
M  V30 5335 H 509.074 0.0722373 1.69546 0
M  V30 5336 H 507.846 -0.165938 3.90948 0
M  V30 5337 H 507.469 -1.83751 3.52592 0
M  V30 5338 N 508.466 -1.55915 -0.229846 0
M  V30 5339 C 509.712 -1.79718 -0.952517 0
M  V30 5340 C 510.067 -0.61514 -1.82301 0
M  V30 5341 O 509.36 0.391098 -1.87566 0
M  V30 5342 C 509.554 -3.06845 -1.8325 0
M  V30 5343 C 509.383 -4.37302 -1.04868 0
M  V30 5344 C 508.153 -4.99749 -0.746932 0
M  V30 5345 C 510.351 -5.12599 -0.417989 0
M  V30 5346 N 508.333 -6.13871 0.0591596 0
M  V30 5347 C 509.704 -6.19488 0.251879 0
M  V30 5348 C 511.759 -4.96804 -0.33018 0
M  V30 5349 C 510.462 -7.12299 1.00115 0
M  V30 5350 C 512.488 -5.90007 0.4056 0
M  V30 5351 C 511.85 -6.96317 1.06404 0
M  V30 5352 H 507.949 -0.709382 -0.329091 0
M  V30 5353 H 510.533 -1.93406 -0.224114 0
M  V30 5354 H 508.704 -2.94456 -2.53279 0
M  V30 5355 H 510.436 -3.18874 -2.49202 0
M  V30 5356 H 507.191 -4.61518 -1.06292 0
M  V30 5357 H 507.615 -6.75497 0.450798 0
M  V30 5358 H 512.257 -4.14675 -0.824898 0
M  V30 5359 H 509.975 -7.93916 1.50741 0
M  V30 5360 H 513.561 -5.79862 0.474436 0
M  V30 5361 H 512.441 -7.67194 1.62429 0
M  V30 5362 N 509.944 0.496216 -1.49584 0
M  V30 5363 C 511.169 1.27865 -1.63295 0
M  V30 5364 C 511.594 1.85592 -0.306156 0
M  V30 5365 O 510.952 1.66092 0.726851 0
M  V30 5366 C 511 2.38128 -2.7079 0
M  V30 5367 O 510.104 3.42108 -2.30296 0
M  V30 5368 H 509.445 0.377279 -0.546403 0
M  V30 5369 H 511.975 0.593497 -1.95803 0
M  V30 5370 H 511.985 2.8382 -2.93104 0
M  V30 5371 H 510.66 1.95479 -3.67098 0
M  V30 5372 H 509.237 3.02301 -2.18331 0
M  V30 5373 N 511.423 1.38739 0.74761 0
M  V30 5374 C 512.669 1.3648 1.50814 0
M  V30 5375 C 513.024 -0.0431982 1.92351 0
M  V30 5376 O 512.317 -1.0071 1.62997 0
M  V30 5377 C 512.511 2.25992 2.7688 0
M  V30 5378 C 512.34 3.75354 2.47668 0
M  V30 5379 C 511.11 4.44348 2.40589 0
M  V30 5380 C 513.308 4.67642 2.14046 0
M  V30 5381 N 511.29 5.79114 2.03715 0
M  V30 5382 C 512.661 5.90965 1.87512 0
M  V30 5383 C 514.716 4.55787 2.00407 0
M  V30 5384 C 513.419 7.03759 1.48714 0
M  V30 5385 C 515.445 5.68491 1.63011 0
M  V30 5386 C 514.807 6.90879 1.37353 0
M  V30 5387 H 510.906 0.554695 0.551214 0
M  V30 5388 H 513.49 1.7418 0.870033 0
M  V30 5389 H 511.661 1.9047 3.3849 0
M  V30 5390 H 513.393 2.14815 3.42982 0
M  V30 5391 H 510.148 3.97634 2.57262 0
M  V30 5392 H 510.572 6.504 1.87906 0
M  V30 5393 H 515.214 3.61712 2.18916 0
M  V30 5394 H 512.932 7.97746 1.28945 0
M  V30 5395 H 516.518 5.613 1.53081 0
M  V30 5396 H 515.398 7.76609 1.08848 0
M  V30 5397 N 512.901 -0.976442 1.23707 0
M  V30 5398 C 514.312 -1.53284 1.06587 0
M  V30 5399 C 514.663 -1.92765 -0.365526 0
M  V30 5400 O 513.788 -1.7645 -1.25277 0
M  V30 5401 C 514.383 -2.78548 1.92864 0
M  V30 5402 C 512.942 -3.30574 1.79994 0
M  V30 5403 C 512.089 -2.03538 1.88328 0
M  V30 5404 H 515.04 -0.795692 1.37311 0
M  V30 5405 H 515.061 -3.5155 1.45577 0
M  V30 5406 H 514.573 -2.49782 2.97037 0
M  V30 5407 H 512.674 -3.64211 0.786202 0
M  V30 5408 H 512.787 -4.00065 2.636 0
M  V30 5409 H 511.151 -2.17853 1.31954 0
M  V30 5410 H 511.934 -1.77149 2.94063 0
M  V30 5411 N 514.379 -1.04941 -1.1758 0
M  V30 5412 C 515.309 -0.669172 -2.23706 0
M  V30 5413 C 516.29 0.331835 -1.66832 0
M  V30 5414 O 517.475 0.209988 -1.93061 0
M  V30 5415 C 514.605 -0.0404889 -3.47276 0
M  V30 5416 C 513.559 -0.965983 -4.16957 0
M  V30 5417 C 512.885 -0.201312 -5.34321 0
M  V30 5418 C 514.185 -2.28902 -4.69469 0
M  V30 5419 H 515.879 -1.55639 -2.55767 0
M  V30 5420 H 513.425 -0.749793 -1.22939 0
M  V30 5421 H 515.378 0.237298 -4.20731 0
M  V30 5422 H 514.102 0.881658 -3.14475 0
M  V30 5423 H 512.761 -1.22829 -3.45411 0
M  V30 5424 H 512.409 0.723519 -4.97769 0
M  V30 5425 H 512.109 -0.817968 -5.81879 0
M  V30 5426 H 513.633 0.0692499 -6.10561 0
M  V30 5427 H 515.047 -2.07132 -5.34574 0
M  V30 5428 H 513.444 -2.85942 -5.27596 0
M  V30 5429 H 514.514 -2.92937 -3.86414 0
M  V30 5430 N 515.857 1.33968 -0.830081 0
M  V30 5431 C 517.134 1.92554 -0.343858 0
M  V30 5432 C 517.514 1.7573 1.16971 0
M  V30 5433 O 516.862 1.14035 1.98011 0
M  V30 5434 C 517.072 3.40147 -0.781073 0
M  V30 5435 C 518.42 4.17299 -0.78402 0
M  V30 5436 O 519.444 3.48762 -0.724112 0
M  V30 5437 O 518.303 5.39631 -0.863739 0
M  V30 5438 H 515.397 0.821469 -0.0954827 0
M  V30 5439 H 517.943 1.42897 -0.915348 0
M  V30 5440 H 516.715 3.46225 -1.82329 0
M  V30 5441 H 516.338 3.97166 -0.18567 0
M  V30 5442 N 517.335 0.585699 1.46312 0
M  V30 5443 C 518.563 0.0781299 2.06752 0
M  V30 5444 C 518.978 -1.22812 1.43396 0
M  V30 5445 O 518.335 -1.74318 0.540314 0
M  V30 5446 C 518.386 -0.0911927 3.61385 0
M  V30 5447 O 518.107 1.16336 4.22371 0
M  V30 5448 C 519.608 -0.632765 4.38761 0
M  V30 5449 H 516.828 0.0588188 0.668417 0
M  V30 5450 H 519.372 0.807218 1.87894 0
M  V30 5451 H 517.527 -0.770514 3.7966 0
M  V30 5452 H 517.941 0.979082 5.15281 0
M  V30 5453 H 519.415 -0.70041 5.47538 0
M  V30 5454 H 519.892 -1.65039 4.07012 0
M  V30 5455 H 520.498 0.0117856 4.25298 0
M  V30 5456 N 518.813 -1.54241 0.323641 0
M  V30 5457 C 520.061 -2.00174 -0.278359 0
M  V30 5458 C 520.382 -1.2134 -1.52648 0
M  V30 5459 O 519.652 -0.315244 -1.93347 0
M  V30 5460 H 518.232 -0.739463 -0.105845 0
M  V30 5461 H 520.894 -1.89864 0.440204 0
M  V30 5462 H 519.99 -3.07486 -0.5347 0
M  V30 5463 N 520.291 -0.0518155 -1.57515 0
M  V30 5464 C 521.539 0.620595 -1.92336 0
M  V30 5465 C 521.86 1.71345 -0.930907 0
M  V30 5466 O 521.13 1.95885 0.0241341 0
M  V30 5467 H 519.71 0.232226 -0.709986 0
M  V30 5468 H 522.372 -0.104969 -1.94617 0
M  V30 5469 H 521.468 1.05879 -2.93592 0
M  V30 5470 N 521.769 1.56035 0.221574 0
M  V30 5471 C 523.185 1.49026 0.571271 0
M  V30 5472 C 523.385 0.746912 1.87146 0
M  V30 5473 O 522.441 0.286566 2.50869 0
M  V30 5474 C 523.754 2.93579 0.650522 0
M  V30 5475 C 525.302 3.04099 0.741151 0
M  V30 5476 C 525.777 4.5001 0.851747 0
M  V30 5477 N 527.268 4.54053 0.915968 0
M  V30 5478 C 528.003 5.64232 1.02125 0
M  V30 5479 N 527.499 6.84164 1.09049 0
M  V30 5480 N 529.292 5.52084 1.05639 0
M  V30 5481 H 521.443 2.02791 -0.63162 0
M  V30 5482 H 523.706 0.921736 -0.221602 0
M  V30 5483 H 523.412 3.50912 -0.235253 0
M  V30 5484 H 523.286 3.45476 1.51413 0
M  V30 5485 H 525.673 2.4683 1.61737 0
M  V30 5486 H 525.754 2.55371 -0.148128 0
M  V30 5487 H 525.398 5.07896 -0.0200117 0
M  V30 5488 H 525.328 4.96444 1.75644 0
M  V30 5489 H 527.819 3.67683 0.872782 0
M  V30 5490 H 528.132 7.63883 1.1706 0
M  V30 5491 H 526.477 6.86875 1.05962 0
M  V30 5492 H 529.668 4.57317 0.998953 0
M  V30 5493 H 529.841 6.37983 1.13498 0
M  V30 5494 N 523.247 -0.488276 1.49845 0
M  V30 5495 C 524.194 -1.58836 1.67451 0
M  V30 5496 C 525.164 -1.57886 0.515857 0
M  V30 5497 O 526.349 -1.75679 0.744403 0
M  V30 5498 C 523.489 -2.96915 1.75885 0
M  V30 5499 C 522.602 -3.07784 3.03138 0
M  V30 5500 C 521.737 -4.36673 3.02473 0
M  V30 5501 C 520.776 -4.41222 4.24252 0
M  V30 5502 N 519.913 -5.61557 4.21424 0
M  V30 5503 H 524.753 -1.43131 2.61376 0
M  V30 5504 H 522.29 -0.696186 1.29583 0
M  V30 5505 H 524.248 -3.76965 1.78755 0
M  V30 5506 H 522.878 -3.11295 0.85414 0
M  V30 5507 H 521.93 -2.20717 3.09819 0
M  V30 5508 H 523.242 -3.07005 3.93128 0
M  V30 5509 H 522.396 -5.25055 3.03977 0
M  V30 5510 H 521.135 -4.40037 2.10283 0
M  V30 5511 H 520.14 -3.5124 4.22978 0
M  V30 5512 H 521.365 -4.39564 5.17649 0
M  V30 5513 H 519.311 -5.65738 3.32078 0
M  V30 5514 H 519.228 -5.62447 5.05163 0
M  V30 5515 H 520.496 -6.52111 4.2705 0
M  V30 5516 N 524.725 -1.39134 -0.740242 0
M  V30 5517 C 526.002 -1.26584 -1.49117 0
M  V30 5518 C 526.382 0.126902 -2.10718 0
M  V30 5519 O 525.73 1.13765 -1.98166 0
M  V30 5520 C 525.94 -2.38619 -2.54681 0
M  V30 5521 C 527.288 -2.77685 -3.21211 0
M  V30 5522 O 528.312 -2.38029 -2.64991 0
M  V30 5523 O 527.171 -3.46115 -4.22926 0
M  V30 5524 H 524.265 -0.495769 -0.661923 0
M  V30 5525 H 526.811 -1.50995 -0.774514 0
M  V30 5526 H 525.583 -3.3175 -2.07504 0
M  V30 5527 H 525.206 -2.15845 -3.33911 0
M  V30 5528 N 526.204 0.969867 -1.24223 0
M  V30 5529 C 527.45 1.7151 -1.08223 0
M  V30 5530 C 527.783 1.90478 0.37838 0
M  V30 5531 O 527.058 1.4647 1.27971 0
M  V30 5532 C 527.341 3.10714 -1.82013 0
M  V30 5533 C 527.194 2.9925 -3.35811 0
M  V30 5534 C 528.513 4.10332 -1.59108 0
M  V30 5535 H 525.632 0.622499 -0.394543 0
M  V30 5536 H 528.274 1.1284 -1.52863 0
M  V30 5537 H 526.424 3.608 -1.44068 0
M  V30 5538 H 528.096 2.56608 -3.83341 0
M  V30 5539 H 526.339 2.35512 -3.64303 0
M  V30 5540 H 527.01 3.97857 -3.82641 0
M  V30 5541 H 529.486 3.69097 -1.92111 0
M  V30 5542 H 528.362 5.05804 -2.13198 0
M  V30 5543 H 528.623 4.38926 -0.528832 0
M  V30 5544 N 527.682 1.05563 1.17022 0
M  V30 5545 C 528.91 0.78845 1.91288 0
M  V30 5546 C 529.325 -0.656318 1.77025 0
M  V30 5547 O 528.682 -1.44869 1.10992 0
M  V30 5548 C 528.733 1.16444 3.42232 0
M  V30 5549 O 528.454 2.5525 3.5606 0
M  V30 5550 C 529.955 0.923937 4.33565 0
M  V30 5551 H 527.175 0.286389 0.606813 0
M  V30 5552 H 529.719 1.4073 1.48375 0
M  V30 5553 H 527.874 0.590266 3.82877 0
M  V30 5554 H 528.288 2.70097 4.49609 0
M  V30 5555 H 529.762 1.23672 5.37968 0
M  V30 5556 H 530.239 -0.140688 4.38975 0
M  V30 5557 H 530.845 1.48214 3.98639 0
M  V30 5558 N 529.16 -1.33526 0.837174 0
M  V30 5559 C 530.407 -1.97837 0.432064 0
M  V30 5560 C 530.735 -1.66324 -1.00829 0
M  V30 5561 O 529.99 -0.93448 -1.71948 0
M  V30 5562 C 530.289 -3.52367 0.597675 0
M  V30 5563 C 529.955 -4.03826 2.00587 0
M  V30 5564 C 528.617 -4.1759 2.39106 0
M  V30 5565 C 530.969 -4.31333 2.92576 0
M  V30 5566 C 528.297 -4.56195 3.68921 0
M  V30 5567 C 530.649 -4.7139 4.2187 0
M  V30 5568 C 529.313 -4.8336 4.60347 0
M  V30 5569 H 528.583 -0.723937 0.158104 0
M  V30 5570 H 531.23 -1.5923 1.06387 0
M  V30 5571 H 529.535 -3.91624 -0.117452 0
M  V30 5572 H 531.232 -4.00126 0.26454 0
M  V30 5573 H 527.822 -3.93586 1.69671 0
M  V30 5574 H 532.006 -4.20224 2.64056 0
M  V30 5575 H 527.262 -4.63655 3.9854 0
M  V30 5576 H 531.436 -4.91631 4.93226 0
M  V30 5577 H 529.063 -5.1303 5.60985 0
M  V30 5578 N 530.638 -0.59345 -1.46 0
M  V30 5579 C 531.586 0.146268 -2.3214 0
M  V30 5580 C 532.58 0.873743 -1.45128 0
M  V30 5581 O 533.786 0.790912 -1.61693 0
M  V30 5582 H 530.161 0.0660349 -0.749095 0
M  V30 5583 H 532.132 -0.598895 -2.92328 0
M  V30 5584 C 530.881 1.1396 -3.28494 0
M  V30 5585 H 530.204 0.589252 -3.95434 0
M  V30 5586 H 531.644 1.62738 -3.91526 0
M  V30 5587 C 530.103 2.20604 -2.54628 0
M  V30 5588 O 530.633 3.28128 -2.31722 0
M  V30 5589 N 528.839 1.95502 -2.15005 0
M  V30 5590 H 528.386 1.0807 -2.33834 0
M  V30 5591 H 528.344 2.67064 -1.65904 0
M  V30 5592 N 532.116 1.54067 -0.331816 0
M  V30 5593 C 533.365 1.99895 0.269209 0
M  V30 5594 C 533.678 1.22371 1.52593 0
M  V30 5595 O 534.884 1.58618 2.20347 0
M  V30 5596 C 533.34 3.55972 0.530244 0
M  V30 5597 C 532.948 4.4234 -0.709901 0
M  V30 5598 C 534.692 4.10247 1.09077 0
M  V30 5599 C 532.599 5.89905 -0.420312 0
M  V30 5600 H 531.529 0.746741 0.104371 0
M  V30 5601 H 534.18 1.78014 -0.445324 0
M  V30 5602 H 532.562 3.73873 1.30518 0
M  V30 5603 H 533.736 4.36215 -1.48504 0
M  V30 5604 H 532.051 3.98997 -1.19123 0
M  V30 5605 H 534.648 5.18095 1.32219 0
M  V30 5606 H 534.991 3.62739 2.0427 0
M  V30 5607 H 535.524 3.96011 0.376824 0
M  V30 5608 H 532.263 6.41623 -1.34164 0
M  V30 5609 H 531.783 5.98962 0.316962 0
M  V30 5610 H 533.462 6.46991 -0.0331956 0
M  V30 5611 N 533.594 0.0601682 1.57485 0
M  V30 5612 C 534.843 -0.611101 1.9222 0
M  V30 5613 C 535.156 -1.71469 0.941159 0
M  V30 5614 O 536.362 -2.44473 1.18089 0
M  V30 5615 C 534.818 -1.13832 3.41424 0
M  V30 5616 C 534.426 -0.0663596 4.47951 0
M  V30 5617 C 536.17 -1.78432 3.85178 0
M  V30 5618 C 534.077 -0.606965 5.88277 0
M  V30 5619 H 533.007 -0.232033 0.71741 0
M  V30 5620 H 535.658 0.130518 1.83035 0
M  V30 5621 H 534.04 -1.93254 3.45643 0
M  V30 5622 H 535.214 0.707682 4.55333 0
M  V30 5623 H 533.529 0.482715 4.13593 0
M  V30 5624 H 536.126 -2.1989 4.87394 0
M  V30 5625 H 536.469 -2.63966 3.21913 0
M  V30 5626 H 537.002 -1.05651 3.83514 0
M  V30 5627 H 533.741 0.21095 6.5516 0
M  V30 5628 H 533.261 -1.34879 5.84438 0
M  V30 5629 H 534.94 -1.08704 6.37803 0
M  V30 5630 N 535.072 -1.5615 -0.213296 0
M  V30 5631 C 536.312 -1.81325 -0.943435 0
M  V30 5632 C 536.676 -0.634934 -1.81198 0
M  V30 5633 O 537.877 -0.766166 -2.5765 0
M  V30 5634 C 536.148 -3.11437 -1.75334 0
M  V30 5635 S 537.707 -3.57955 -2.53799 0
M  V30 5636 H 534.525 -0.636538 -0.316766 0
M  V30 5637 H 537.127 -1.94387 -0.208313 0
M  V30 5638 H 535.831 -3.95228 -1.10556 0
M  V30 5639 H 535.362 -3.01204 -2.53061 0
M  V30 5640 H 537.377 -3.21947 -3.77577 0
M  V30 5641 N 536.55 0.480323 -1.50102 0
M  V30 5642 C 537.497 1.57946 -1.6829 0
M  V30 5643 C 538.467 1.57611 -0.524223 0
M  V30 5644 O 539.652 1.75282 -0.753709 0
M  V30 5645 C 536.792 2.95978 -1.77457 0
M  V30 5646 C 535.905 3.06173 -3.04766 0
M  V30 5647 C 535.04 4.35063 -3.04784 0
M  V30 5648 C 534.079 4.38966 -4.26586 0
M  V30 5649 N 533.216 5.59314 -4.24396 0
M  V30 5650 H 538.056 1.41743 -2.62131 0
M  V30 5651 H 535.593 0.689304 -1.2995 0
M  V30 5652 H 537.551 3.76011 -1.80752 0
M  V30 5653 H 536.181 3.10837 -0.870637 0
M  V30 5654 H 535.233 2.19071 -3.10986 0
M  V30 5655 H 536.545 3.04916 -3.9475 0
M  V30 5656 H 535.699 5.23436 -3.06757 0
M  V30 5657 H 534.438 4.38915 -2.12614 0
M  V30 5658 H 533.443 3.48992 -4.24835 0
M  V30 5659 H 534.668 4.36813 -5.19972 0
M  V30 5660 H 532.614 5.63969 -3.35074 0
M  V30 5661 H 532.531 5.5976 -5.08138 0
M  V30 5662 H 533.799 6.49837 -4.30502 0
M  V30 5663 N 538.028 1.39524 0.732853 0
M  V30 5664 C 538.975 1.38416 1.84688 0
M  V30 5665 C 539.945 0.243539 1.64305 0
M  V30 5666 O 541.13 0.438979 1.85681 0
M  V30 5667 C 538.27 1.23555 3.22224 0
M  V30 5668 C 537.383 2.47179 3.54298 0
M  V30 5669 C 536.518 2.2489 4.81246 0
M  V30 5670 C 535.557 3.44178 5.0617 0
M  V30 5671 N 534.694 3.21192 6.24323 0
M  V30 5672 H 539.534 2.33645 1.84971 0
M  V30 5673 H 537.071 1.16059 0.903804 0
M  V30 5674 H 539.029 1.12949 4.0162 0
M  V30 5675 H 537.659 0.31954 3.21215 0
M  V30 5676 H 536.711 2.68379 2.69587 0
M  V30 5677 H 538.023 3.36022 3.68633 0
M  V30 5678 H 537.177 2.11538 5.68627 0
M  V30 5679 H 535.916 1.33443 4.69089 0
M  V30 5680 H 534.921 3.58025 4.17251 0
M  V30 5681 H 536.146 4.36528 5.20212 0
M  V30 5682 H 534.092 2.32413 6.1345 0
M  V30 5683 H 534.009 4.03594 6.39256 0
M  V30 5684 H 535.277 3.1154 7.14537 0
M  V30 5685 N 539.506 -0.963266 1.24736 0
M  V30 5686 C 540.746 -1.72172 1.10165 0
M  V30 5687 C 541.11 -1.88731 -0.352784 0
M  V30 5688 O 542.311 -2.61549 -0.620107 0
M  V30 5689 C 540.582 -3.0724 1.82589 0
M  V30 5690 S 542.141 -3.98449 1.83803 0
M  V30 5691 H 538.959 -0.591901 0.393922 0
M  V30 5692 H 541.561 -1.14955 1.58132 0
M  V30 5693 H 540.265 -2.92851 2.87518 0
M  V30 5694 H 539.796 -3.69521 1.34973 0
M  V30 5695 H 541.811 -4.87805 0.908883 0
M  V30 5696 N 540.985 -1.06182 -1.16461 0
M  V30 5697 C 542.233 -0.776326 -1.86595 0
M  V30 5698 C 542.554 0.69921 -1.82033 0
M  V30 5699 O 541.824 1.50579 -1.2531 0
M  V30 5700 H 540.404 -0.284184 -0.690832 0
M  V30 5701 H 543.066 -1.34308 -1.41235 0
M  V30 5702 H 542.162 -1.10022 -2.92064 0
M  V30 5703 N 542.463 1.3308 -0.844243 0
M  V30 5704 C 543.709 1.98304 -0.452453 0
M  V30 5705 C 544.064 1.65645 0.978746 0
M  V30 5706 O 543.357 0.928849 1.6758 0
M  V30 5707 C 543.551 3.52045 -0.616354 0
M  V30 5708 C 543.38 3.99643 -2.06193 0
M  V30 5709 C 542.15 4.27224 -2.69829 0
M  V30 5710 C 544.348 4.15471 -3.03131 0
M  V30 5711 N 542.33 4.60998 -4.05406 0
M  V30 5712 C 543.701 4.52665 -4.23668 0
M  V30 5713 C 545.756 3.97776 -2.99465 0
M  V30 5714 C 544.459 4.74011 -5.41023 0
M  V30 5715 C 546.485 4.20301 -4.16055 0
M  V30 5716 C 545.847 4.57801 -5.35348 0
M  V30 5717 H 541.946 0.752122 -0.214096 0
M  V30 5718 H 544.53 1.61096 -1.09344 0
M  V30 5719 H 542.701 3.884 -0.00513205 0
M  V30 5720 H 544.433 4.04228 -0.19548 0
M  V30 5721 H 541.188 4.18911 -2.20931 0
M  V30 5722 H 541.612 4.82087 -4.75312 0
M  V30 5723 H 546.254 3.67893 -2.08362 0
M  V30 5724 H 543.972 5.02753 -6.32665 0
M  V30 5725 H 547.558 4.08122 -4.14641 0
M  V30 5726 H 546.438 4.74884 -6.24063 0
M  V30 5727 N 543.941 0.601185 1.45683 0
M  V30 5728 C 544.889 -0.133955 2.32214 0
M  V30 5729 C 545.883 -0.866034 1.45589 0
M  V30 5730 O 547.089 -0.782326 1.6211 0
M  V30 5731 H 543.464 -0.0620613 0.749435 0
M  V30 5732 H 545.435 0.614389 2.92007 0
M  V30 5733 C 544.184 -1.12216 3.29094 0
M  V30 5734 H 543.507 -0.568273 3.95741 0
M  V30 5735 H 544.947 -1.60659 3.92383 0
M  V30 5736 C 543.406 -2.19251 2.55794 0
M  V30 5737 O 543.936 -3.26894 2.33459 0
M  V30 5738 N 542.142 -1.9436 2.16039 0
M  V30 5739 H 541.689 -1.06829 2.34404 0
M  V30 5740 H 541.647 -2.66181 1.67318 0
M  V30 5741 N 545.419 -1.53889 0.339982 0
M  V30 5742 C 546.668 -2.00035 -0.258604 0
M  V30 5743 C 546.981 -1.23179 -1.51942 0
M  V30 5744 O 548.187 -1.59784 -2.19503 0
M  V30 5745 C 546.643 -3.56249 -0.511359 0
M  V30 5746 C 546.251 -4.41957 0.733349 0
M  V30 5747 C 547.995 -4.1082 -1.069 0
M  V30 5748 C 545.902 -5.89673 0.451591 0
M  V30 5749 H 544.832 -0.747284 -0.10041 0
M  V30 5750 H 547.483 -1.77776 0.454758 0
M  V30 5751 H 545.865 -3.7456 -1.28533 0
M  V30 5752 H 547.039 -4.35421 1.50815 0
M  V30 5753 H 545.354 -3.9836 1.21237 0
M  V30 5754 H 547.951 -5.18789 -1.2947 0
M  V30 5755 H 548.294 -3.63817 -2.02343 0
M  V30 5756 H 548.827 -3.96205 -0.355817 0
M  V30 5757 H 545.566 -6.40903 1.37565 0
M  V30 5758 H 545.086 -5.99122 -0.285193 0
M  V30 5759 H 546.765 -6.46965 0.0675067 0
M  V30 5760 N 546.897 -0.0685191 -1.57451 0
M  V30 5761 C 547.844 0.899861 -2.12535 0
M  V30 5762 C 548.814 1.29749 -1.03703 0
M  V30 5763 O 549.999 1.38392 -1.31348 0
M  V30 5764 C 547.139 2.16328 -2.6888 0
M  V30 5765 C 546.252 1.81857 -3.91857 0
M  V30 5766 C 545.387 3.02786 -4.36457 0
M  V30 5767 C 544.426 2.64317 -5.5209 0
M  V30 5768 N 543.563 3.77994 -5.91663 0
M  V30 5769 H 548.403 0.423243 -2.94979 0
M  V30 5770 H 545.94 0.197268 -1.45771 0
M  V30 5771 H 547.898 2.90281 -2.99655 0
M  V30 5772 H 546.528 2.61536 -1.89206 0
M  V30 5773 H 545.58 0.979808 -3.67565 0
M  V30 5774 H 546.892 1.49553 -4.75852 0
M  V30 5775 H 546.046 3.85021 -4.68875 0
M  V30 5776 H 544.785 3.38281 -3.51308 0
M  V30 5777 H 543.79 1.80503 -5.19325 0
M  V30 5778 H 545.015 2.29995 -6.38967 0
M  V30 5779 H 542.961 4.13258 -5.09464 0
M  V30 5780 H 542.878 3.49447 -6.7039 0
M  V30 5781 H 544.146 4.60818 -6.28703 0
M  V30 5782 N 548.375 1.56261 0.205012 0
M  V30 5783 C 549.307 1.90266 1.27795 0
M  V30 5784 C 550.32 0.792397 1.42214 0
M  V30 5785 O 551.509 1.07077 1.42817 0
M  V30 5786 C 548.609 2.11074 2.65143 0
M  V30 5787 C 547.782 3.42176 2.7246 0
M  V30 5788 C 546.841 3.52216 3.90936 0
M  V30 5789 O 545.867 4.25119 3.78501 0
M  V30 5790 N 547.069 2.84573 5.05963 0
M  V30 5791 H 549.834 2.82896 0.989434 0
M  V30 5792 H 547.395 1.57008 0.394981 0
M  V30 5793 H 549.387 2.15089 3.4281 0
M  V30 5794 H 547.957 1.2499 2.86524 0
M  V30 5795 H 547.177 3.50116 1.81142 0
M  V30 5796 H 548.465 4.28509 2.74331 0
M  V30 5797 H 547.863 2.25152 5.18963 0
M  V30 5798 H 546.42 2.94228 5.81613 0
M  V30 5799 N 549.853 -0.472356 1.50355 0
M  V30 5800 C 551.093 -1.23439 1.62918 0
M  V30 5801 C 551.457 -1.89284 0.321801 0
M  V30 5802 O 552.658 -2.66854 0.322852 0
M  V30 5803 C 550.929 -2.25119 2.7759 0
M  V30 5804 S 552.488 -3.10278 3.10279 0
M  V30 5805 H 549.306 -0.41911 0.574341 0
M  V30 5806 H 551.908 -0.531621 1.88133 0
M  V30 5807 H 550.612 -1.75324 3.71066 0
M  V30 5808 H 550.143 -3.00026 2.54457 0
M  V30 5809 H 552.158 -4.26257 2.54007 0
M  V30 5810 N 551.331 -1.39911 -0.725443 0
M  V30 5811 C 552.241 -1.41688 -1.8698 0
M  V30 5812 C 553.257 -0.310579 -1.71206 0
M  V30 5813 O 554.433 -0.55359 -1.93642 0
M  V30 5814 C 551.498 -1.26811 -3.22676 0
M  V30 5815 C 550.559 -2.47497 -3.50776 0
M  V30 5816 C 549.792 -2.3332 -4.79997 0
M  V30 5817 O 550.015 -1.34175 -5.54394 0
M  V30 5818 O 548.949 -3.22498 -5.08211 0
M  V30 5819 H 552.775 -2.38171 -1.88436 0
M  V30 5820 H 550.36 -1.21128 -0.874548 0
M  V30 5821 H 552.242 -1.20684 -4.03749 0
M  V30 5822 H 550.917 -0.334289 -3.21969 0
M  V30 5823 H 549.824 -2.59201 -2.69751 0
M  V30 5824 H 551.157 -3.39606 -3.5627 0
M  V30 5825 N 552.809 0.956637 -1.25245 0
M  V30 5826 C 554.22 1.51569 -1.09012 0
M  V30 5827 C 554.571 1.93322 0.334813 0
M  V30 5828 O 553.696 1.78421 1.22454 0
M  V30 5829 C 554.291 2.75444 -1.97271 0
M  V30 5830 C 552.85 3.27669 -1.8523 0
M  V30 5831 C 551.997 2.00517 -1.91542 0
M  V30 5832 H 554.948 0.773746 -1.3856 0
M  V30 5833 H 554.969 3.4919 -1.51151 0
M  V30 5834 H 554.481 2.45024 -3.00973 0
M  V30 5835 H 552.582 3.62914 -0.844045 0
M  V30 5836 H 552.695 3.9582 -2.69932 0
M  V30 5837 H 551.059 2.15727 -1.35404 0
M  V30 5838 H 551.842 1.72448 -2.96844 0
M  V30 5839 N 554.287 1.06798 1.15896 0
M  V30 5840 C 555.527 0.797041 1.8822 0
M  V30 5841 C 555.891 -0.664549 1.80133 0
M  V30 5842 O 557.092 -1.0503 2.47431 0
M  V30 5843 C 555.363 1.28431 3.33527 0
M  V30 5844 S 556.922 1.14319 4.23647 0
M  V30 5845 H 553.74 0.288988 0.649621 0
M  V30 5846 H 556.342 1.36594 1.39865 0
M  V30 5847 H 555.046 2.34286 3.36954 0
M  V30 5848 H 554.577 0.710371 3.86933 0
M  V30 5849 H 556.592 0.0772467 4.9614 0
M  V30 5850 N 555.766 -1.3263 0.851289 0
M  V30 5851 C 556.991 -2.02097 0.466006 0
M  V30 5852 C 557.416 -1.63574 -0.928709 0
M  V30 5853 O 556.774 -0.834665 -1.60944 0
M  V30 5854 C 556.822 -3.55425 0.608737 0
M  V30 5855 O 555.926 -4.10827 -0.359878 0
M  V30 5856 H 555.267 -0.636911 0.187724 0
M  V30 5857 H 557.797 -1.69253 1.14955 0
M  V30 5858 H 557.807 -4.04986 0.495006 0
M  V30 5859 H 556.482 -3.82806 1.62581 0
M  V30 5860 H 555.059 -3.72349 -0.202666 0
M  V30 5861 N 557.244 -0.608902 -1.45362 0
M  V30 5862 C 558.655 -0.189511 -1.85736 0
M  V30 5863 C 559.006 1.2539 -1.50903 0
M  V30 5864 O 558.131 1.95094 -0.936347 0
M  V30 5865 C 558.726 -0.33716 -3.37118 0
M  V30 5866 C 557.285 0.0275487 -3.7639 0
M  V30 5867 C 556.432 -0.660983 -2.69307 0
M  V30 5868 H 559.383 -0.815499 -1.36144 0
M  V30 5869 H 559.404 0.430257 -3.7806 0
M  V30 5870 H 558.916 -1.38779 -3.62439 0
M  V30 5871 H 557.017 1.0773 -3.56686 0
M  V30 5872 H 557.13 -0.367018 -4.77692 0
M  V30 5873 H 555.494 -0.0984958 -2.54509 0
M  V30 5874 H 556.277 -1.71377 -2.97464 0
M  V30 5875 N 558.722 1.53707 -0.348139 0
M  V30 5876 C 559.67 2.26671 0.521808 0
M  V30 5877 C 560.664 1.28988 1.09811 0
M  V30 5878 O 561.87 1.4668 1.04332 0
M  V30 5879 H 558.245 0.728387 0.186968 0
M  V30 5880 H 560.216 2.98176 -0.115563 0
M  V30 5881 C 558.965 3.05591 1.6586 0
M  V30 5882 H 558.288 3.80589 1.22443 0
M  V30 5883 H 559.728 3.59851 2.24239 0
M  V30 5884 C 558.187 2.15366 2.59073 0
M  V30 5885 O 558.717 1.7528 3.61441 0
M  V30 5886 N 556.923 1.80352 2.27863 0
M  V30 5887 H 556.47 2.13149 1.44656 0
M  V30 5888 H 556.428 1.20268 2.90488 0
M  V30 5889 N 560.2 0.0768682 1.57412 0
M  V30 5890 C 561.446 -0.591961 1.93968 0
M  V30 5891 C 561.779 -1.68954 0.9575 0
M  V30 5892 O 561.054 -1.94496 -0.0124675 0
M  V30 5893 C 561.337 -1.16418 3.40762 0
M  V30 5894 C 561.19 -0.0728933 4.49741 0
M  V30 5895 C 562.509 -2.06814 3.88479 0
M  V30 5896 H 559.628 -0.213716 0.705333 0
M  V30 5897 H 562.27 0.14387 1.89455 0
M  V30 5898 H 560.42 -1.79128 3.4474 0
M  V30 5899 H 562.092 0.560446 4.57883 0
M  V30 5900 H 560.335 0.595859 4.29688 0
M  V30 5901 H 561.006 -0.513755 5.49604 0
M  V30 5902 H 563.482 -1.54033 3.8654 0
M  V30 5903 H 562.358 -2.43785 4.91793 0
M  V30 5904 H 562.619 -2.97844 3.26713 0
M  V30 5905 N 561.678 -1.56367 -0.196722 0
M  V30 5906 C 563.094 -1.49916 -0.54749 0
M  V30 5907 C 563.294 -0.77659 -1.85934 0
M  V30 5908 O 562.35 -0.32644 -2.50381 0
M  V30 5909 C 563.663 -2.94577 -0.603734 0
M  V30 5910 C 565.211 -3.05239 -0.692677 0
M  V30 5911 C 565.686 -4.51308 -0.780046 0
M  V30 5912 N 567.177 -4.55453 -0.843616 0
M  V30 5913 C 567.912 -5.65786 -0.931358 0
M  V30 5914 N 567.408 -6.85812 -0.981503 0
M  V30 5915 N 569.201 -5.53695 -0.968421 0
M  V30 5916 H 561.352 -2.01761 0.663803 0
M  V30 5917 H 563.615 -0.918094 0.236238 0
M  V30 5918 H 563.321 -3.50494 0.29105 0
M  V30 5919 H 563.195 -3.47841 -1.45898 0
M  V30 5920 H 565.582 -2.49372 -1.57789 0
M  V30 5921 H 565.663 -2.55103 0.188736 0
M  V30 5922 H 565.307 -5.078 0.100811 0
M  V30 5923 H 565.237 -4.99176 -1.67724 0
M  V30 5924 H 567.728 -3.69025 -0.814176 0
M  V30 5925 H 568.041 -7.65648 -1.04892 0
M  V30 5926 H 566.386 -6.88474 -0.950208 0
M  V30 5927 H 569.577 -4.58848 -0.926072 0
M  V30 5928 H 569.75 -6.39708 -1.03334 0
M  V30 5929 N 563.156 0.464375 -1.50603 0
M  V30 5930 C 564.403 1.21596 -1.61928 0
M  V30 5931 C 564.731 1.91804 -0.322737 0
M  V30 5932 O 563.986 1.83065 0.691776 0
M  V30 5933 C 564.285 2.278 -2.75394 0
M  V30 5934 C 563.951 1.74797 -4.1564 0
M  V30 5935 C 562.613 1.60063 -4.53799 0
M  V30 5936 C 564.965 1.35548 -5.03266 0
M  V30 5937 C 562.293 1.04514 -5.77316 0
M  V30 5938 C 564.645 0.814381 -6.27336 0
M  V30 5939 C 563.309 0.653726 -6.64291 0
M  V30 5940 H 562.579 0.444951 -0.592536 0
M  V30 5941 H 565.226 0.510964 -1.84557 0
M  V30 5942 H 563.531 3.04233 -2.46879 0
M  V30 5943 H 565.228 2.85723 -2.81359 0
M  V30 5944 H 561.818 1.87234 -3.8554 0
M  V30 5945 H 566.002 1.45763 -4.74412 0
M  V30 5946 H 561.258 0.908186 -6.04617 0
M  V30 5947 H 565.432 0.501626 -6.94591 0
M  V30 5948 H 563.059 0.22114 -7.59878 0
M  V30 5949 N 564.634 1.40294 0.718013 0
M  V30 5950 C 565.564 1.43118 1.84498 0
M  V30 5951 C 566.545 0.292403 1.67568 0
M  V30 5952 O 567.73 0.500675 1.87635 0
M  V30 5953 C 564.86 1.29065 3.22427 0
M  V30 5954 C 563.814 2.40521 3.54025 0
M  V30 5955 C 563.14 2.11546 4.91073 0
M  V30 5956 C 564.44 3.82859 3.55269 0
M  V30 5957 H 566.134 2.37432 1.82391 0
M  V30 5958 H 563.68 1.14283 0.87609 0
M  V30 5959 H 565.633 1.29658 4.00957 0
M  V30 5960 H 564.357 0.312271 3.25104 0
M  V30 5961 H 563.016 2.39173 2.77834 0
M  V30 5962 H 562.664 1.12104 4.90348 0
M  V30 5963 H 562.364 2.86216 5.1318 0
M  V30 5964 H 563.888 2.13817 5.71939 0
M  V30 5965 H 565.302 3.86044 4.23843 0
M  V30 5966 H 563.699 4.57029 3.88902 0
M  V30 5967 H 564.769 4.12617 2.54706 0
M  V30 5968 N 566.112 -0.949982 1.2575 0
M  V30 5969 C 567.523 -1.50989 1.09815 0
M  V30 5970 C 567.874 -1.93497 -0.324556 0
M  V30 5971 O 566.999 -1.79068 -1.21506 0
M  V30 5972 C 567.594 -2.74394 1.98729 0
M  V30 5973 C 566.153 -3.26682 1.86965 0
M  V30 5974 C 565.3 -1.99498 1.92603 0
M  V30 5975 H 568.251 -0.766387 1.38968 0
M  V30 5976 H 568.272 -3.48383 1.53001 0
M  V30 5977 H 567.784 -2.43425 3.02268 0
M  V30 5978 H 565.885 -3.62461 0.863279 0
M  V30 5979 H 565.998 -3.94383 2.72027 0
M  V30 5980 H 564.362 -2.15005 1.36546 0
M  V30 5981 H 565.145 -1.70871 2.97755 0
M  V30 5982 N 567.59 -1.07411 -1.15328 0
M  V30 5983 C 569.006 -0.799759 -1.38116 0
M  V30 5984 C 569.206 0.59572 -1.92493 0
M  V30 5985 O 568.262 1.35433 -2.13106 0
M  V30 5986 C 569.575 -1.87407 -2.35158 0
M  V30 5987 C 571.123 -1.89889 -2.48819 0
M  V30 5988 C 571.598 -2.96406 -3.49153 0
M  V30 5989 N 573.089 -2.95512 -3.56689 0
M  V30 5990 C 573.824 -3.74575 -4.34144 0
M  V30 5991 N 573.32 -4.63488 -5.14928 0
M  V30 5992 N 575.113 -3.62919 -4.29239 0
M  V30 5993 H 567.264 -1.97411 -0.78374 0
M  V30 5994 H 569.527 -0.856113 -0.407154 0
M  V30 5995 H 569.233 -2.8768 -2.0232 0
M  V30 5996 H 569.107 -1.73471 -3.34944 0
M  V30 5997 H 571.494 -0.902677 -2.80955 0
M  V30 5998 H 571.575 -2.07904 -1.49029 0
M  V30 5999 H 571.219 -3.96227 -3.17752 0
M  V30 6000 H 571.149 -2.75638 -4.48699 0
M  V30 6001 H 573.64 -2.31061 -2.99031 0
M  V30 6002 H 573.953 -5.20445 -5.71276 0
M  V30 6003 H 572.298 -4.67537 -5.14232 0
M  V30 6004 H 575.489 -2.92833 -3.65194 0
M  V30 6005 H 575.662 -4.24777 -4.89355 0
M  V30 6006 N 569.068 1.32177 -0.85831 0
M  V30 6007 C 570 2.27688 -0.262835 0
M  V30 6008 C 571.013 1.52588 0.567513 0
M  V30 6009 O 572.202 1.74156 0.391407 0
M  V30 6010 C 569.302 3.32668 0.646937 0
M  V30 6011 C 568.475 4.37148 -0.148372 0
M  V30 6012 C 567.534 5.21686 0.687728 0
M  V30 6013 O 566.56 5.69074 0.119934 0
M  V30 6014 N 567.762 5.44892 2.00182 0
M  V30 6015 H 570.527 2.79426 -1.08356 0
M  V30 6016 H 568.088 1.45076 -0.718647 0
M  V30 6017 H 570.08 3.86134 1.2117 0
M  V30 6018 H 568.65 2.81061 1.36834 0
M  V30 6019 H 567.87 3.83915 -0.894572 0
M  V30 6020 H 569.158 5.04038 -0.694514 0
M  V30 6021 H 568.556 5.08128 2.4864 0
M  V30 6022 H 567.113 6.0134 2.51463 0
M  V30 6023 N 570.547 0.616602 1.45037 0
M  V30 6024 C 571.794 0.115331 2.02171 0
M  V30 6025 C 572.122 -1.25748 1.48383 0
M  V30 6026 O 571.377 -1.84511 0.652229 0
M  V30 6027 C 571.676 0.0356829 3.57382 0
M  V30 6028 C 571.342 1.34535 4.30362 0
M  V30 6029 C 570.004 1.70408 4.50016 0
M  V30 6030 C 572.356 2.21049 4.72003 0
M  V30 6031 C 569.684 2.92529 5.0857 0
M  V30 6032 C 572.036 3.42427 5.31908 0
M  V30 6033 C 570.7 3.78541 5.49784 0
M  V30 6034 H 569.97 0.0422024 0.739797 0
M  V30 6035 H 572.617 0.80002 1.73988 0
M  V30 6036 H 570.922 -0.732314 3.84895 0
M  V30 6037 H 572.619 -0.368463 3.99304 0
M  V30 6038 H 569.209 1.05615 4.15383 0
M  V30 6039 H 573.393 1.94632 4.56544 0
M  V30 6040 H 568.649 3.20605 5.20598 0
M  V30 6041 H 572.823 4.09709 5.63127 0
M  V30 6042 H 570.45 4.73255 5.94923 0
M  V30 6043 N 572.025 -1.5352 0.356285 0
M  V30 6044 C 573.273 -2.00719 -0.235837 0
M  V30 6045 C 573.594 -1.24551 -1.5004 0
M  V30 6046 O 572.864 -0.356185 -1.92635 0
M  V30 6047 H 571.444 -0.741542 -0.0901366 0
M  V30 6048 H 574.106 -1.88887 0.480378 0
M  V30 6049 H 573.202 -3.08551 -0.469357 0
M  V30 6050 N 573.503 -0.0852151 -1.57369 0
M  V30 6051 C 574.433 0.874556 -2.16503 0
M  V30 6052 C 575.414 1.30111 -1.09568 0
M  V30 6053 O 576.599 1.36977 -1.37662 0
M  V30 6054 C 573.729 2.13731 -2.73745 0
M  V30 6055 C 572.683 1.84971 -3.85966 0
M  V30 6056 C 572.009 3.17991 -4.29867 0
M  V30 6057 C 573.309 1.14442 -5.09608 0
M  V30 6058 H 575.003 0.381899 -2.96954 0
M  V30 6059 H 572.549 0.18225 -1.42842 0
M  V30 6060 H 574.502 2.81302 -3.13763 0
M  V30 6061 H 573.226 2.65263 -1.90534 0
M  V30 6062 H 571.885 1.19801 -3.46473 0
M  V30 6063 H 571.533 3.6739 -3.4356 0
M  V30 6064 H 571.233 2.99534 -5.05523 0
M  V30 6065 H 572.757 3.86737 -4.72511 0
M  V30 6066 H 574.171 1.72105 -5.46857 0
M  V30 6067 H 572.568 1.06197 -5.90629 0
M  V30 6068 H 573.638 0.12559 -4.84737 0
M  V30 6069 N 574.981 1.5647 0.188427 0
M  V30 6070 C 576.209 1.85131 0.923803 0
M  V30 6071 C 576.624 0.668537 1.76567 0
M  V30 6072 O 575.981 -0.362662 1.7886 0
M  V30 6073 C 576.032 3.12661 1.81453 0
M  V30 6074 O 575.753 4.26378 1.00665 0
M  V30 6075 C 577.254 3.54548 2.66103 0
M  V30 6076 H 574.474 0.614624 0.269218 0
M  V30 6077 H 577.018 2.03581 0.193671 0
M  V30 6078 H 575.173 2.96088 2.49821 0
M  V30 6079 H 575.587 4.99041 1.61425 0
M  V30 6080 H 577.061 4.4673 3.24247 0
M  V30 6081 H 577.538 2.77853 3.40139 0
M  V30 6082 H 578.144 3.73674 2.03096 0
M  V30 6083 N 576.459 -0.456382 1.50847 0
M  V30 6084 C 577.407 -1.57318 1.71329 0
M  V30 6085 C 578.401 -1.59187 0.579287 0
M  V30 6086 O 579.607 -1.6316 0.76018 0
M  V30 6087 H 575.982 -0.5223 0.541024 0
M  V30 6088 H 577.953 -1.3721 2.64983 0
M  V30 6089 C 576.702 -2.95142 1.83811 0
M  V30 6090 H 576.025 -2.94428 2.70467 0
M  V30 6091 H 577.465 -3.72702 2.02161 0
M  V30 6092 C 575.924 -3.31636 0.593224 0
M  V30 6093 O 576.454 -4.00852 -0.260898 0
M  V30 6094 N 574.66 -2.87205 0.442902 0
M  V30 6095 H 574.207 -2.31051 1.13901 0
M  V30 6096 H 574.165 -3.11986 -0.38884 0
M  V30 6097 N 577.937 -1.40673 -0.710563 0
M  V30 6098 C 579.165 -1.42547 -1.4996 0
M  V30 6099 C 579.58 -0.0265485 -1.88781 0
M  V30 6100 O 578.937 0.950694 -1.55782 0
M  V30 6101 C 578.988 -2.32071 -2.77173 0
M  V30 6102 O 578.709 -3.66518 -2.39992 0
M  V30 6103 C 580.21 -2.42591 -3.71032 0
M  V30 6104 H 577.43 -0.486025 -0.462623 0
M  V30 6105 H 579.974 -1.84783 -0.876102 0
M  V30 6106 H 578.129 -1.93184 -3.35795 0
M  V30 6107 H 578.543 -4.14115 -3.21884 0
M  V30 6108 H 580.017 -3.09429 -4.57119 0
M  V30 6109 H 580.494 -1.4525 -4.14486 0
M  V30 6110 H 581.1 -2.82051 -3.18319 0
M  V30 6111 N 579.415 0.9433 -1.26252 0
M  V30 6112 C 580.643 1.72367 -1.14443 0
M  V30 6113 C 581.058 1.86392 0.300572 0
M  V30 6114 O 580.415 1.36978 1.20596 0
M  V30 6115 C 580.466 3.13155 -1.806 0
M  V30 6116 O 580.187 2.99803 -3.19452 0
M  V30 6117 C 581.688 4.07417 -1.74717 0
M  V30 6118 H 578.908 0.539758 -0.398626 0
M  V30 6119 H 581.452 1.18268 -1.66832 0
M  V30 6120 H 579.607 3.64162 -1.32154 0
M  V30 6121 H 580.021 3.88697 -3.52158 0
M  V30 6122 H 581.495 5.03773 -2.25647 0
M  V30 6123 H 581.972 4.3337 -0.713244 0
M  V30 6124 H 582.578 3.6233 -2.22704 0
M  V30 6125 N 580.893 1.08022 1.14757 0
M  V30 6126 C 582.139 0.808705 1.85978 0
M  V30 6127 C 582.472 -0.663764 1.82504 0
M  V30 6128 O 581.747 -1.48765 1.25296 0
M  V30 6129 C 582.03 1.32623 3.34788 0
M  V30 6130 C 581.883 2.86375 3.46856 0
M  V30 6131 C 583.202 0.948291 4.29762 0
M  V30 6132 H 580.321 0.295244 0.675278 0
M  V30 6133 H 582.963 1.33917 1.34783 0
M  V30 6134 H 581.113 0.875002 3.78518 0
M  V30 6135 H 582.785 3.39839 3.11941 0
M  V30 6136 H 581.028 3.24232 2.88194 0
M  V30 6137 H 581.699 3.17658 4.51439 0
M  V30 6138 H 584.175 1.33722 3.94028 0
M  V30 6139 H 583.051 1.33765 5.32352 0
M  V30 6140 H 583.312 -0.145094 4.41862 0
M  V30 6141 N 582.371 -1.3172 0.865308 0
M  V30 6142 C 583.599 -2.01057 0.488251 0
M  V30 6143 C 584.014 -1.64979 -0.918 0
M  V30 6144 O 583.371 -0.876597 -1.60069 0
M  V30 6145 C 583.422 -3.55964 0.630224 0
M  V30 6146 O 583.143 -3.90749 1.98109 0
M  V30 6147 C 584.644 -4.42574 0.253567 0
M  V30 6148 H 581.864 -0.64332 0.190736 0
M  V30 6149 H 584.408 -1.68058 1.16519 0
M  V30 6150 H 582.563 -3.874 0.000895422 0
M  V30 6151 H 582.977 -4.85467 1.9855 0
M  V30 6152 H 584.451 -5.50521 0.403875 0
M  V30 6153 H 584.928 -4.31724 -0.806895 0
M  V30 6154 H 585.534 -4.16547 0.858404 0
M  V30 6155 N 583.85 -0.624285 -1.44708 0
M  V30 6156 C 585.096 -0.126237 -2.02407 0
M  V30 6157 C 585.428 1.24618 -1.48943 0
M  V30 6158 O 584.704 1.82569 -0.670742 0
M  V30 6159 C 584.986 -0.105449 -3.59946 0
M  V30 6160 C 584.84 -1.50972 -4.23707 0
M  V30 6161 C 586.159 0.573629 -4.36346 0
M  V30 6162 H 583.278 -0.0473472 -0.735478 0
M  V30 6163 H 585.92 -0.799452 -1.72362 0
M  V30 6164 H 584.07 0.46783 -3.85673 0
M  V30 6165 H 585.742 -2.13136 -4.0911 0
M  V30 6166 H 583.985 -2.0656 -3.81465 0
M  V30 6167 H 584.656 -1.44727 -5.32689 0
M  V30 6168 H 587.132 0.0861787 -4.16011 0
M  V30 6169 H 586.008 0.557338 -5.46063 0
M  V30 6170 H 586.269 1.64276 -4.10446 0
M  V30 6171 N 585.328 1.53329 -0.364422 0
M  V30 6172 C 586.556 2.05657 0.226424 0
M  V30 6173 C 586.971 1.23801 1.42544 0
M  V30 6174 O 586.328 0.27839 1.80364 0
M  V30 6175 C 586.379 3.56125 0.621056 0
M  V30 6176 O 586.1 4.34879 -0.530304 0
M  V30 6177 C 587.601 4.24706 1.27041 0
M  V30 6178 H 584.821 0.669806 0.0400056 0
M  V30 6179 H 587.365 1.97714 -0.522456 0
M  V30 6180 H 585.52 3.64223 1.31985 0
M  V30 6181 H 585.934 5.24073 -0.211546 0
M  V30 6182 H 587.408 5.3131 1.49711 0
M  V30 6183 H 587.885 3.78354 2.23036 0
M  V30 6184 H 588.491 4.20858 0.613079 0
M  V30 6185 N 586.806 0.0935595 1.57322 0
M  V30 6186 C 588.083 -0.612692 1.85756 0
M  V30 6187 C 588.463 -1.86439 0.99013 0
M  V30 6188 O 587.811 -2.28416 0.0621362 0
M  V30 6189 C 588.021 -0.929547 3.36393 0
M  V30 6190 C 589.369 -1.29366 4.04413 0
M  V30 6191 O 590.393 -1.02061 3.41265 0
M  V30 6192 O 589.252 -1.80498 5.15832 0
M  V30 6193 H 586.346 -0.306444 0.768128 0
M  V30 6194 H 588.892 0.126141 1.69231 0
M  V30 6195 H 587.664 -0.0414766 3.91278 0
M  V30 6196 H 587.287 -1.72441 3.5826 0
M  V30 6197 N 588.284 -1.56567 -0.180126 0
M  V30 6198 C 589.214 -1.98753 -1.22553 0
M  V30 6199 C 590.195 -0.86175 -1.46656 0
M  V30 6200 O 591.38 -1.12719 -1.58139 0
M  V30 6201 C 588.51 -2.33988 -2.56645 0
M  V30 6202 C 587.464 -3.49445 -2.47128 0
M  V30 6203 C 586.79 -3.70397 -3.8563 0
M  V30 6204 C 588.09 -4.83171 -1.98352 0
M  V30 6205 H 589.784 -2.86332 -0.874896 0
M  V30 6206 H 587.33 -1.37757 -0.419414 0
M  V30 6207 H 589.283 -2.62097 -3.29974 0
M  V30 6208 H 588.007 -1.43309 -2.93479 0
M  V30 6209 H 586.666 -3.2145 -1.76254 0
M  V30 6210 H 586.314 -2.77023 -4.19842 0
M  V30 6211 H 586.014 -4.48077 -3.80132 0
M  V30 6212 H 587.538 -4.00897 -4.60558 0
M  V30 6213 H 588.952 -5.10213 -2.61449 0
M  V30 6214 H 587.349 -5.64425 -2.03823 0
M  V30 6215 H 588.419 -4.75753 -0.937402 0
M  V30 6216 N 589.762 0.448376 -1.51087 0
M  V30 6217 C 590.692 1.55102 -1.74544 0
M  V30 6218 C 591.673 1.59357 -0.594932 0
M  V30 6219 O 592.858 1.75261 -0.836491 0
M  V30 6220 C 589.988 2.93268 -1.86041 0
M  V30 6221 C 588.942 3.03877 -3.01402 0
M  V30 6222 C 588.268 4.43914 -2.98068 0
M  V30 6223 C 589.568 2.7898 -4.41551 0
M  V30 6224 H 591.262 1.35724 -2.66869 0
M  V30 6225 H 588.808 0.651498 -1.28419 0
M  V30 6226 H 590.761 3.70356 -2.01034 0
M  V30 6227 H 589.485 3.13853 -0.903548 0
M  V30 6228 H 588.144 2.29227 -2.86096 0
M  V30 6229 H 587.792 4.6145 -2.00182 0
M  V30 6230 H 587.492 4.51944 -3.75527 0
M  V30 6231 H 589.016 5.22991 -3.1514 0
M  V30 6232 H 590.43 3.45805 -4.57265 0
M  V30 6233 H 588.827 2.98431 -5.20633 0
M  V30 6234 H 589.897 1.74663 -4.5235 0
M  V30 6235 N 591.24 1.41047 0.703093 0
M  V30 6236 C 592.203 1.42036 1.79884 0
M  V30 6237 C 593.203 0.312153 1.57741 0
M  V30 6238 O 594.393 0.571672 1.64553 0
M  V30 6239 C 591.525 1.22437 3.18154 0
M  V30 6240 H 592.718 2.39572 1.80403 0
M  V30 6241 H 590.271 1.27079 0.909977 0
M  V30 6242 H 591.006 0.257112 3.23279 0
M  V30 6243 H 590.791 2.02723 3.35627 0
M  V30 6244 H 592.281 1.25946 3.98155 0
M  V30 6245 N 592.718 -0.936591 1.26751 0
M  V30 6246 C 593.668 -2.0219 1.05371 0
M  V30 6247 C 594.652 -1.60893 -0.0154112 0
M  V30 6248 O 595.844 -1.75843 0.202085 0
M  V30 6249 C 592.973 -3.36222 0.693541 0
M  V30 6250 C 592.059 -3.8399 1.80035 0
M  V30 6251 N 592.45 -4.0436 3.03852 0
M  V30 6252 C 590.748 -4.12945 1.685 0
M  V30 6253 C 591.449 -4.44 3.75818 0
M  V30 6254 N 590.425 -4.50966 3.03531 0
M  V30 6255 H 594.227 -2.15958 1.99347 0
M  V30 6256 H 591.741 -1.12277 1.17335 0
M  V30 6257 H 593.738 -4.13625 0.521513 0
M  V30 6258 H 592.398 -3.23821 -0.238693 0
M  V30 6259 H 593.409 -3.9092 3.39709 0
M  V30 6260 H 590.086 -4.09308 0.822986 0
M  V30 6261 H 591.476 -4.67914 4.82189 0
M  V30 6262 N 594.196 -1.08629 -1.14182 0
M  V30 6263 C 595.424 -0.838889 -1.8913 0
M  V30 6264 C 595.839 0.609153 -1.78703 0
M  V30 6265 O 595.196 1.41876 -1.14794 0
M  V30 6266 C 595.247 -1.25477 -3.39025 0
M  V30 6267 O 594.968 -2.64601 -3.49167 0
M  V30 6268 C 596.469 -1.03856 -4.30963 0
M  V30 6269 H 593.689 -0.302377 -0.599007 0
M  V30 6270 H 596.233 -1.44615 -1.44592 0
M  V30 6271 H 594.388 -0.691571 -3.81177 0
M  V30 6272 H 594.802 -2.81922 -4.42289 0
M  V30 6273 H 596.276 -1.37892 -5.345 0
M  V30 6274 H 596.753 0.0242522 -4.39193 0
M  V30 6275 H 597.359 -1.58731 -3.94569 0
M  V30 6276 N 595.674 1.31259 -0.872281 0
M  V30 6277 C 596.622 2.30404 -0.318897 0
M  V30 6278 C 597.616 1.5962 0.567267 0
M  V30 6279 O 598.822 1.74204 0.453111 0
M  V30 6280 H 595.197 0.747243 -0.0844474 0
M  V30 6281 H 597.168 2.74549 -1.16899 0
M  V30 6282 C 595.917 3.44608 0.462683 0
M  V30 6283 H 595.24 3.99248 -0.209936 0
M  V30 6284 H 596.68 4.1609 0.815187 0
M  V30 6285 C 595.139 2.93456 1.65485 0
M  V30 6286 O 595.669 2.92418 2.75417 0
M  V30 6287 N 593.875 2.49628 1.48776 0
M  V30 6288 H 593.422 2.50671 0.593452 0
M  V30 6289 H 593.38 2.15759 2.28682 0
M  V30 6290 N 597.152 0.631951 1.44375 0
M  V30 6291 C 598.382 0.143658 2.061 0
M  V30 6292 C 598.79 -1.18733 1.47306 0
M  V30 6293 O 598.133 -1.73943 0.590724 0
M  V30 6294 C 598.195 -0.0446102 3.59472 0
M  V30 6295 C 597.859 1.20835 4.40736 0
M  V30 6296 C 598.856 2.13224 4.74164 0
M  V30 6297 C 596.541 1.44399 4.81097 0
M  V30 6298 C 598.535 3.27487 5.46838 0
M  V30 6299 C 596.222 2.58959 5.53519 0
M  V30 6300 C 597.22 3.50329 5.86309 0
M  V30 6301 O 596.908 4.62891 6.57257 0
M  V30 6302 H 596.64 0.0772939 0.671567 0
M  V30 6303 H 599.194 0.866677 1.8622 0
M  V30 6304 H 597.424 -0.822783 3.77845 0
M  V30 6305 H 599.113 -0.487561 4.02961 0
M  V30 6306 H 599.879 1.96253 4.4352 0
M  V30 6307 H 595.758 0.741696 4.54994 0
M  V30 6308 H 599.302 3.98826 5.72349 0
M  V30 6309 H 595.199 2.75873 5.83579 0
M  V30 6310 H 595.967 4.61883 6.75726 0
M  V30 6311 N 598.631 -1.53133 0.372548 0
M  V30 6312 C 599.859 -2.05774 -0.215515 0
M  V30 6313 C 600.274 -1.24555 -1.41886 0
M  V30 6314 O 599.631 -0.287951 -1.80214 0
M  V30 6315 C 599.682 -3.5645 -0.602161 0
M  V30 6316 O 599.403 -4.34591 0.553359 0
M  V30 6317 C 600.904 -4.25374 -1.24787 0
M  V30 6318 H 598.124 -0.670009 -0.0364529 0
M  V30 6319 H 600.668 -1.97434 0.532934 0
M  V30 6320 H 598.823 -3.64918 -1.30052 0
M  V30 6321 H 599.237 -5.23954 0.239336 0
M  V30 6322 H 600.711 -5.32097 -1.46891 0
M  V30 6323 H 601.188 -3.79531 -2.21026 0
M  V30 6324 H 601.794 -4.21177 -0.590752 0
M  V30 6325 N 600.109 -0.101901 -1.5727 0
M  V30 6326 C 601.356 0.560197 -1.94597 0
M  V30 6327 C 601.684 1.67767 -0.984101 0
M  V30 6328 O 600.939 1.95699 -0.00489193 0
M  V30 6329 C 601.238 1.14898 -3.38427 0
M  V30 6330 C 600.904 0.154613 -4.50635 0
M  V30 6331 C 599.566 -0.118861 -4.81053 0
M  V30 6332 C 601.918 -0.523979 -5.18559 0
M  V30 6333 C 599.246 -1.0775 -5.76721 0
M  V30 6334 C 601.598 -1.47114 -6.15256 0
M  V30 6335 C 600.262 -1.75278 -6.44076 0
M  V30 6336 H 599.532 0.204991 -0.712081 0
M  V30 6337 H 602.179 -0.17918 -1.9066 0
M  V30 6338 H 600.484 1.96476 -3.38976 0
M  V30 6339 H 602.181 1.66909 -3.64613 0
M  V30 6340 H 598.771 0.377948 -4.2693 0
M  V30 6341 H 602.955 -0.325851 -4.95229 0
M  V30 6342 H 598.211 -1.30263 -5.97362 0
M  V30 6343 H 602.385 -2.00274 -6.66981 0
M  V30 6344 H 600.012 -2.49717 -7.18015 0
M  V30 6345 N 601.587 1.56661 0.17182 0
M  V30 6346 C 602.497 1.99604 1.2327 0
M  V30 6347 C 603.513 0.907333 1.4847 0
M  V30 6348 O 604.689 1.21492 1.60629 0
M  V30 6349 C 601.754 2.34685 2.55194 0
M  V30 6350 C 600.815 3.57381 2.3786 0
M  V30 6351 C 600.048 3.90779 3.63494 0
M  V30 6352 O 600.271 3.25152 4.6865 0
M  V30 6353 O 599.205 4.84129 3.57634 0
M  V30 6354 H 603.031 2.90114 0.898192 0
M  V30 6355 H 600.616 1.44522 0.378647 0
M  V30 6356 H 602.498 2.5822 3.33017 0
M  V30 6357 H 601.173 1.47336 2.88225 0
M  V30 6358 H 600.08 3.39064 1.5807 0
M  V30 6359 H 601.413 4.45268 2.09754 0
M  V30 6360 N 603.065 -0.440357 1.51323 0
M  V30 6361 C 604.314 -1.18697 1.63076 0
M  V30 6362 C 604.627 -1.92418 0.35136 0
M  V30 6363 O 605.833 -2.69258 0.348221 0
M  V30 6364 C 604.289 -2.15849 2.87988 0
M  V30 6365 C 603.897 -1.47789 4.22921 0
M  V30 6366 C 605.641 -2.90962 3.09098 0
M  V30 6367 C 603.548 -2.43407 5.38987 0
M  V30 6368 H 602.478 -0.44676 0.607389 0
M  V30 6369 H 605.129 -0.454313 1.77787 0
M  V30 6370 H 603.511 -2.92537 2.66905 0
M  V30 6371 H 604.685 -0.7668 4.54375 0
M  V30 6372 H 603 -0.848404 4.07665 0
M  V30 6373 H 605.597 -3.62584 3.92985 0
M  V30 6374 H 605.94 -3.52133 2.22053 0
M  V30 6375 H 606.473 -2.21381 3.30507 0
M  V30 6376 H 603.212 -1.86929 6.28282 0
M  V30 6377 H 602.732 -3.12579 5.11913 0
M  V30 6378 H 604.411 -3.046 5.70813 0
M  V30 6379 N 604.543 -1.41418 -0.695603 0
M  V30 6380 C 605.82 -1.31264 -1.45014 0
M  V30 6381 C 606.2 0.0597994 -2.11015 0
M  V30 6382 O 605.548 1.07403 -2.01685 0
M  V30 6383 C 605.758 -2.466 -2.4696 0
M  V30 6384 C 607.106 -2.87763 -3.12214 0
M  V30 6385 O 608.13 -2.46339 -2.57285 0
M  V30 6386 O 606.989 -3.59395 -4.11701 0
M  V30 6387 H 604.083 -0.516576 -0.645816 0
M  V30 6388 H 606.629 -1.53382 -0.726084 0
M  V30 6389 H 605.401 -3.38183 -1.96845 0
M  V30 6390 H 605.024 -2.26358 -3.26876 0
M  V30 6391 N 606.021 0.929856 -1.27246 0
M  V30 6392 C 606.984 2.01172 -1.09829 0
M  V30 6393 C 607.984 1.60743 -0.0429687 0
M  V30 6394 O 609.174 1.71813 -0.287373 0
M  V30 6395 C 606.306 3.34191 -0.673003 0
M  V30 6396 H 607.499 2.18054 -2.05895 0
M  V30 6397 H 605.052 1.11036 -1.10003 0
M  V30 6398 H 605.787 3.23009 0.289134 0
M  V30 6399 H 605.572 3.64892 -1.43515 0
M  V30 6400 H 607.062 4.13646 -0.573323 0
M  V30 6401 N 607.499 1.09233 1.13605 0
M  V30 6402 C 608.745 0.828385 1.8511 0
M  V30 6403 C 609.078 -0.64437 1.83198 0
M  V30 6404 O 608.353 -1.47428 1.26867 0
M  V30 6405 C 608.636 1.36167 3.33363 0
M  V30 6406 C 608.489 2.90038 3.438 0
M  V30 6407 C 609.808 0.993819 4.28732 0
M  V30 6408 H 606.927 0.30239 0.672108 0
M  V30 6409 H 609.569 1.35339 1.33355 0
M  V30 6410 H 607.719 0.9151 3.77569 0
M  V30 6411 H 609.391 3.43128 3.08319 0
M  V30 6412 H 607.634 3.27271 2.84739 0
M  V30 6413 H 608.305 3.22428 4.48045 0
M  V30 6414 H 610.781 1.37893 3.92587 0
M  V30 6415 H 609.657 1.39403 5.30903 0
M  V30 6416 H 609.918 -0.0982206 4.41991 0
M  V30 6417 N 608.977 -1.30795 0.87923 0
M  V30 6418 C 609.925 -2.30231 0.331112 0
M  V30 6419 C 610.919 -1.59918 -0.558794 0
M  V30 6420 O 612.125 -1.74441 -0.443866 0
M  V30 6421 H 608.5 -0.746785 0.088409 0
M  V30 6422 H 610.471 -2.73925 1.18353 0
M  V30 6423 C 609.22 -3.44848 -0.444401 0
M  V30 6424 H 608.543 -3.99131 0.231106 0
M  V30 6425 H 609.983 -4.16516 -0.793109 0
M  V30 6426 C 608.442 -2.94329 -1.63926 0
M  V30 6427 O 608.972 -2.93875 -2.73862 0
M  V30 6428 N 607.178 -2.50413 -1.4745 0
M  V30 6429 H 606.725 -2.50982 -0.58015 0
M  V30 6430 H 606.683 -2.16969 -2.27534 0
M  V30 6431 N 610.455 -0.639598 -1.44038 0
M  V30 6432 C 611.703 -0.147188 -2.01563 0
M  V30 6433 C 612.024 1.2384 -1.50628 0
M  V30 6434 O 611.294 1.82452 -0.713316 0
M  V30 6435 H 609.874 -0.0514231 -0.745228 0
M  V30 6436 H 612.536 -0.828205 -1.76428 0
M  V30 6437 H 611.632 -0.121358 -3.11864 0
M  V30 6438 N 611.933 1.52934 -0.380664 0
M  V30 6439 C 613.179 2.01765 0.20458 0
M  V30 6440 C 613.512 1.26696 1.47179 0
M  V30 6441 O 612.787 0.364936 1.91046 0
M  V30 6442 C 613.07 3.56869 0.481269 0
M  V30 6443 C 612.923 4.42617 -0.800629 0
M  V30 6444 C 614.242 4.2121 1.27554 0
M  V30 6445 H 611.361 0.733388 0.0728803 0
M  V30 6446 H 614.003 1.83068 -0.50853 0
M  V30 6447 H 612.153 3.72932 1.08875 0
M  V30 6448 H 613.825 4.38323 -1.43773 0
M  V30 6449 H 612.068 4.09977 -1.4178 0
M  V30 6450 H 612.739 5.49134 -0.561791 0
M  V30 6451 H 615.215 4.09072 0.761514 0
M  V30 6452 H 614.091 5.29732 1.43788 0
M  V30 6453 H 614.352 3.78269 2.28833 0
M  V30 6454 N 613.412 0.11024 1.57214 0
M  V30 6455 C 614.637 -0.561179 1.99664 0
M  V30 6456 C 615.062 -1.59985 0.989266 0
M  V30 6457 O 614.42 -1.81255 -0.0402399 0
M  V30 6458 C 614.468 -1.17189 3.41027 0
M  V30 6459 O 613.572 -2.28755 3.4314 0
M  V30 6460 H 612.913 -0.14101 0.648855 0
M  V30 6461 H 615.443 0.196128 2.03658 0
M  V30 6462 H 615.453 -1.50954 3.79047 0
M  V30 6463 H 614.128 -0.411041 4.13864 0
M  V30 6464 H 612.705 -1.96495 3.16929 0
M  V30 6465 N 614.89 -1.56749 -0.16351 0
M  V30 6466 C 615.8 -2.00255 -1.2221 0
M  V30 6467 C 616.816 -0.915194 -1.47987 0
M  V30 6468 O 617.992 -1.22342 -1.59982 0
M  V30 6469 C 615.057 -2.36035 -2.53946 0
M  V30 6470 C 614.118 -3.58637 -2.35962 0
M  V30 6471 C 613.351 -3.92701 -3.61416 0
M  V30 6472 O 613.574 -3.27632 -4.66919 0
M  V30 6473 O 612.508 -4.86019 -3.55062 0
M  V30 6474 H 616.334 -2.90586 -0.882794 0
M  V30 6475 H 613.919 -1.44721 -0.370978 0
M  V30 6476 H 615.801 -2.59982 -3.31643 0
M  V30 6477 H 614.476 -1.48863 -2.8744 0
M  V30 6478 H 613.383 -3.39898 -1.5627 0
M  V30 6479 H 614.716 -4.46374 -2.0739 0
M  V30 6480 N 616.368 0.432326 -1.51554 0
M  V30 6481 C 617.298 1.53242 -1.76179 0
M  V30 6482 C 618.279 1.58717 -0.611801 0
M  V30 6483 O 619.464 1.74364 -0.855033 0
M  V30 6484 C 616.594 2.91278 -1.89141 0
M  V30 6485 C 615.548 3.00663 -3.04608 0
M  V30 6486 C 614.874 4.40728 -3.02759 0
M  V30 6487 C 616.174 2.74281 -4.44485 0
M  V30 6488 H 617.868 1.32886 -2.68294 0
M  V30 6489 H 615.414 0.637841 -1.29103 0
M  V30 6490 H 617.367 3.68203 -2.04951 0
M  V30 6491 H 616.091 3.12877 -0.936785 0
M  V30 6492 H 614.75 2.26179 -2.88511 0
M  V30 6493 H 614.398 4.59301 -2.05065 0
M  V30 6494 H 614.098 4.47936 -3.80299 0
M  V30 6495 H 615.622 5.19619 -3.20669 0
M  V30 6496 H 617.036 3.40936 -4.60907 0
M  V30 6497 H 615.433 2.92893 -5.23769 0
M  V30 6498 H 616.503 1.69856 -4.54177 0
M  V30 6499 N 617.846 1.41785 0.688094 0
M  V30 6500 C 619.071 1.45117 1.48175 0
M  V30 6501 C 619.496 0.060129 1.88004 0
M  V30 6502 O 618.854 -0.938385 1.55126 0
M  V30 6503 C 618.902 2.37224 2.71583 0
M  V30 6504 O 618.006 1.83443 3.69354 0
M  V30 6505 H 617.347 0.492208 0.445676 0
M  V30 6506 H 619.877 1.86329 0.845145 0
M  V30 6507 H 619.887 2.53353 3.19806 0
M  V30 6508 H 618.562 3.38293 2.41931 0
M  V30 6509 H 617.139 1.76802 3.28322 0
M  V30 6510 N 619.324 -0.923095 1.27737 0
M  V30 6511 C 620.549 -1.71054 1.17283 0
M  V30 6512 C 620.974 -1.86208 -0.266153 0
M  V30 6513 O 620.332 -1.36545 -1.1927 0
M  V30 6514 C 620.38 -3.0854 1.86642 0
M  V30 6515 O 619.484 -3.95528 1.16752 0
M  V30 6516 H 618.825 -0.524136 0.407649 0
M  V30 6517 H 621.355 -1.15487 1.6889 0
M  V30 6518 H 621.365 -3.58828 1.94182 0
M  V30 6519 H 620.04 -2.96828 2.91317 0
M  V30 6520 H 618.617 -3.53967 1.17312 0
M  V30 6521 N 620.802 -1.09834 -1.13024 0
M  V30 6522 C 622.213 -0.855651 -1.65938 0
M  V30 6523 C 622.564 0.615159 -1.86307 0
M  V30 6524 O 621.689 1.47335 -1.58497 0
M  V30 6525 C 622.284 -1.5467 -3.01434 0
M  V30 6526 C 620.843 -1.35088 -3.51323 0
M  V30 6527 C 619.99 -1.6001 -2.26478 0
M  V30 6528 H 622.941 -1.25691 -0.968889 0
M  V30 6529 H 622.962 -0.982179 -3.67605 0
M  V30 6530 H 622.474 -2.61715 -2.86578 0
M  V30 6531 H 620.575 -0.30179 -3.71376 0
M  V30 6532 H 620.688 -2.0886 -4.31178 0
M  V30 6533 H 619.052 -1.02246 -2.33276 0
M  V30 6534 H 619.835 -2.68293 -2.14182 0
M  V30 6535 N 622.28 1.30327 -0.886154 0
M  V30 6536 C 623.691 1.78243 -0.555554 0
M  V30 6537 C 624.042 1.72849 0.928314 0
M  V30 6538 O 623.167 1.30607 1.72542 0
M  V30 6539 C 623.762 3.23654 -1.00168 0
M  V30 6540 C 622.321 3.69401 -0.722471 0
M  V30 6541 C 621.468 2.50753 -1.18399 0
M  V30 6542 H 624.419 1.1718 -1.07026 0
M  V30 6543 H 624.44 3.79056 -0.331152 0
M  V30 6544 H 623.952 3.27548 -2.08169 0
M  V30 6545 H 622.053 3.70995 0.345496 0
M  V30 6546 H 622.166 4.60818 -1.31085 0
M  V30 6547 H 620.53 2.47452 -0.603303 0
M  V30 6548 H 621.313 2.57383 -2.27176 0
M  V30 6549 N 623.758 0.647228 1.43697 0
M  V30 6550 C 625.174 0.314256 1.56476 0
M  V30 6551 C 625.374 -1.18191 1.63196 0
M  V30 6552 O 624.43 -1.96655 1.58376 0
M  V30 6553 C 625.743 1.02034 2.82859 0
M  V30 6554 C 627.291 1.00002 2.96595 0
M  V30 6555 C 627.766 1.68689 4.25803 0
M  V30 6556 N 629.257 1.65424 4.32654 0
M  V30 6557 C 629.992 2.1545 5.31384 0
M  V30 6558 N 629.488 2.73738 6.36427 0
M  V30 6559 N 631.281 2.05985 5.22998 0
M  V30 6560 H 623.432 1.61821 1.37578 0
M  V30 6561 H 625.695 0.680184 0.660344 0
M  V30 6562 H 625.401 2.07542 2.83935 0
M  V30 6563 H 625.275 0.568146 3.72897 0
M  V30 6564 H 627.662 -0.0466319 2.95063 0
M  V30 6565 H 627.743 1.49086 2.07863 0
M  V30 6566 H 627.387 2.73308 4.28095 0
M  V30 6567 H 627.317 1.17076 5.13421 0
M  V30 6568 H 629.808 1.22884 3.57363 0
M  V30 6569 H 630.121 3.09602 7.08072 0
M  V30 6570 H 628.466 2.77796 6.37067 0
M  V30 6571 H 631.657 1.60157 4.39849 0
M  V30 6572 H 631.83 2.45281 5.99784 0
M  V30 6573 N 625.236 -1.5273 0.388769 0
M  V30 6574 C 626.168 -2.24081 -0.481704 0
M  V30 6575 C 627.181 -1.26307 -1.02715 0
M  V30 6576 O 628.37 -1.52386 -0.929565 0
M  V30 6577 C 625.47 -2.94315 -1.68024 0
M  V30 6578 C 624.643 -4.18791 -1.26226 0
M  V30 6579 C 623.702 -4.72028 -2.32542 0
M  V30 6580 O 622.728 -5.35129 -1.93972 0
M  V30 6581 N 623.93 -4.51838 -3.64448 0
M  V30 6582 H 626.695 -2.9942 0.129591 0
M  V30 6583 H 624.256 -1.60465 0.2151 0
M  V30 6584 H 626.248 -3.26831 -2.38671 0
M  V30 6585 H 624.818 -2.22287 -2.19789 0
M  V30 6586 H 624.038 -3.92318 -0.384703 0
M  V30 6587 H 625.326 -4.99668 -0.959647 0
M  V30 6588 H 624.724 -4.01468 -3.98547 0
M  V30 6589 H 623.281 -4.88845 -4.31131 0
M  V30 6590 N 626.714 -0.118576 -1.57153 0
M  V30 6591 C 627.961 0.539526 -1.9518 0
M  V30 6592 C 628.289 1.66714 -1.00184 0
M  V30 6593 O 627.544 1.95683 -0.0256482 0
M  V30 6594 C 627.843 1.11303 -3.39627 0
M  V30 6595 C 627.509 0.106809 -4.50773 0
M  V30 6596 C 626.171 -0.169876 -4.809 0
M  V30 6597 C 628.523 -0.57895 -5.17975 0
M  V30 6598 C 625.851 -1.13861 -5.75545 0
M  V30 6599 C 628.203 -1.53631 -6.13661 0
M  V30 6600 C 626.867 -1.82099 -6.42181 0
M  V30 6601 H 626.137 0.197427 -0.714215 0
M  V30 6602 H 628.784 -0.199391 -1.90459 0
M  V30 6603 H 627.089 1.92869 -3.4104 0
M  V30 6604 H 628.786 1.63032 -3.66363 0
M  V30 6605 H 625.376 0.332645 -4.27307 0
M  V30 6606 H 629.56 -0.378359 -4.94856 0
M  V30 6607 H 624.816 -1.36592 -5.95947 0
M  V30 6608 H 628.99 -2.07337 -6.64819 0
M  V30 6609 H 626.617 -2.57319 -7.15326 0
M  V30 6610 N 628.193 1.56834 0.155195 0
M  V30 6611 C 629.156 1.96748 1.17571 0
M  V30 6612 C 630.156 0.853006 1.3631 0
M  V30 6613 O 631.346 1.11978 1.33441 0
M  V30 6614 C 628.478 2.27631 2.53765 0
M  V30 6615 H 629.671 2.88085 0.833498 0
M  V30 6616 H 627.224 1.51141 0.398242 0
M  V30 6617 H 627.959 1.39059 2.92973 0
M  V30 6618 H 627.744 3.0888 2.41527 0
M  V30 6619 H 629.234 2.59377 3.27282 0
M  V30 6620 N 629.671 -0.424282 1.51781 0
M  V30 6621 C 630.634 -1.49848 1.73431 0
M  V30 6622 C 631.634 -1.49016 0.604225 0
M  V30 6623 O 632.824 -1.50808 0.871935 0
M  V30 6624 C 629.956 -2.89332 1.80277 0
M  V30 6625 H 631.149 -1.3195 2.69312 0
M  V30 6626 H 628.702 -0.653809 1.41968 0
M  V30 6627 H 629.437 -3.12618 0.862568 0
M  V30 6628 H 629.222 -2.9134 2.62419 0
M  V30 6629 H 630.712 -3.67233 1.98821 0
M  V30 6630 N 631.149 -1.42148 -0.680565 0
M  V30 6631 C 632.395 -1.42521 -1.44277 0
M  V30 6632 C 632.728 -0.0393718 -1.9416 0
M  V30 6633 O 632.003 0.935425 -1.70529 0
M  V30 6634 C 632.286 -2.44475 -2.64394 0
M  V30 6635 C 632.139 -3.92226 -2.20179 0
M  V30 6636 C 633.458 -2.43491 -3.66606 0
M  V30 6637 H 630.577 -0.518985 -0.523282 0
M  V30 6638 H 633.219 -1.73524 -0.773914 0
M  V30 6639 H 631.369 -2.18168 -3.21458 0
M  V30 6640 H 633.041 -4.29493 -1.68327 0
M  V30 6641 H 631.284 -4.0637 -1.5181 0
M  V30 6642 H 631.955 -4.59133 -3.06433 0
M  V30 6643 H 634.431 -2.66872 -3.19247 0
M  V30 6644 H 633.307 -3.16816 -4.4824 0
M  V30 6645 H 633.568 -1.45881 -4.17338 0
M  V30 6646 N 632.627 0.916307 -1.28225 0
M  V30 6647 C 633.852 1.7043 -1.18188 0
M  V30 6648 C 634.277 1.86346 0.256274 0
M  V30 6649 O 633.635 1.37175 1.18544 0
M  V30 6650 C 633.683 3.07546 -1.88275 0
M  V30 6651 O 632.787 3.94904 -1.18848 0
M  V30 6652 H 632.128 0.521967 -0.410423 0
M  V30 6653 H 634.658 1.14589 -1.69501 0
M  V30 6654 H 634.668 3.57793 -1.96082 0
M  V30 6655 H 633.343 2.95279 -2.92887 0
M  V30 6656 H 631.92 3.53339 -1.19187 0
M  V30 6657 N 634.105 1.10431 1.1244 0
M  V30 6658 C 635.354 0.841539 1.83306 0
M  V30 6659 C 635.667 -0.634961 1.85007 0
M  V30 6660 O 636.873 -1.01363 2.51869 0
M  V30 6661 C 635.329 1.45565 3.29149 0
M  V30 6662 C 634.937 2.96544 3.35806 0
M  V30 6663 C 636.681 1.27227 4.04986 0
M  V30 6664 C 634.588 3.5099 4.75983 0
M  V30 6665 H 633.518 0.311156 0.686803 0
M  V30 6666 H 636.169 1.32829 1.26604 0
M  V30 6667 H 634.551 0.896574 3.85717 0
M  V30 6668 H 635.725 3.58766 2.89177 0
M  V30 6669 H 634.04 3.14036 2.73442 0
M  V30 6670 H 636.637 1.65348 5.08492 0
M  V30 6671 H 636.98 0.213834 4.1575 0
M  V30 6672 H 637.513 1.79941 3.54776 0
M  V30 6673 H 634.252 4.56499 4.70413 0
M  V30 6674 H 633.772 2.93535 5.23065 0
M  V30 6675 H 635.451 3.48808 5.44924 0
M  V30 6676 N 635.583 -1.29855 0.893053 0
M  V30 6677 C 636.811 -1.99976 0.530788 0
M  V30 6678 C 637.226 -1.66889 -0.882799 0
M  V30 6679 O 636.583 -0.910352 -1.58173 0
M  V30 6680 C 636.634 -3.54547 0.705587 0
M  V30 6681 O 636.355 -3.86458 2.06353 0
M  V30 6682 C 637.856 -4.41937 0.347387 0
M  V30 6683 H 635.076 -0.639129 0.204339 0
M  V30 6684 H 637.62 -1.65549 1.20057 0
M  V30 6685 H 635.775 -3.87311 0.0830685 0
M  V30 6686 H 636.189 -4.81146 2.08803 0
M  V30 6687 H 637.663 -5.4954 0.520557 0
M  V30 6688 H 638.14 -4.33339 -0.715139 0
M  V30 6689 H 638.746 -4.14633 0.946567 0
M  V30 6690 N 637.061 -0.65484 -1.43351 0
M  V30 6691 C 638.289 -0.176685 -2.06144 0
M  V30 6692 C 638.704 1.15831 -1.49093 0
M  V30 6693 O 638.061 1.71542 -0.622868 0
M  V30 6694 C 638.112 -0.0813326 -3.61408 0
M  V30 6695 O 637.833 -1.36355 -4.1634 0
M  V30 6696 C 639.334 0.422706 -4.4128 0
M  V30 6697 H 636.554 -0.0906429 -0.66485 0
M  V30 6698 H 639.098 -0.895945 -1.83829 0
M  V30 6699 H 637.253 0.588496 -3.82904 0
M  V30 6700 H 637.667 -1.22381 -5.10023 0
M  V30 6701 H 639.141 0.438375 -5.50257 0
M  V30 6702 H 639.618 1.45432 -4.14423 0
M  V30 6703 H 640.224 -0.214687 -4.24758 0
M  V30 6704 N 638.539 1.52521 -0.396863 0
M  V30 6705 C 639.487 2.28217 0.44943 0
M  V30 6706 C 640.481 1.32416 1.05652 0
M  V30 6707 O 641.687 1.49925 0.996124 0
M  V30 6708 H 638.062 0.733966 0.1637 0
M  V30 6709 H 640.033 2.97658 -0.210367 0
M  V30 6710 C 638.782 3.10713 1.56054 0
M  V30 6711 H 638.105 3.84291 1.10273 0
M  V30 6712 H 639.545 3.66803 2.12677 0
M  V30 6713 C 638.004 2.23499 2.52091 0
M  V30 6714 O 638.534 1.8669 3.55682 0
M  V30 6715 N 636.74 1.8751 2.2201 0
M  V30 6716 H 636.287 2.17643 1.37802 0
M  V30 6717 H 636.245 1.29448 2.86514 0
M  V30 6718 N 640.017 0.126909 1.57088 0
M  V30 6719 C 640.949 -0.850973 2.12817 0
M  V30 6720 C 641.962 -1.22457 1.07276 0
M  V30 6721 O 643.151 -1.17215 1.34622 0
M  V30 6722 C 640.251 -2.15039 2.61938 0
M  V30 6723 C 639.424 -1.94726 3.91664 0
M  V30 6724 C 638.483 -3.0847 4.26301 0
M  V30 6725 O 637.509 -2.81038 4.94981 0
M  V30 6726 N 638.711 -4.35116 3.84259 0
M  V30 6727 H 641.476 -0.3748 2.97347 0
M  V30 6728 H 639.037 -0.0572793 1.61799 0
M  V30 6729 H 641.029 -2.90141 2.82135 0
M  V30 6730 H 639.599 -2.5398 1.82244 0
M  V30 6731 H 638.819 -1.03772 3.80296 0
M  V30 6732 H 640.107 -1.78469 4.76473 0
M  V30 6733 H 639.505 -4.60276 3.2888 0
M  V30 6734 H 638.062 -5.07064 4.09548 0
M  V30 6735 N 641.495 -1.56914 -0.146875 0
M  V30 6736 C 642.458 -1.97368 -1.16526 0
M  V30 6737 C 643.458 -0.860223 -1.35856 0
M  V30 6738 O 644.648 -1.12684 -1.32846 0
M  V30 6739 C 641.78 -2.28974 -2.52555 0
M  V30 6740 H 642.973 -2.88523 -0.818209 0
M  V30 6741 H 640.526 -1.5135 -0.390221 0
M  V30 6742 H 641.261 -1.40611 -2.92231 0
M  V30 6743 H 641.046 -3.10157 -2.39886 0
M  V30 6744 H 642.536 -2.61109 -3.25902 0
M  V30 6745 N 642.974 0.416227 -1.52004 0
M  V30 6746 C 643.937 1.48926 -1.74223 0
M  V30 6747 C 644.937 1.48693 -0.612119 0
M  V30 6748 O 646.127 1.50343 -0.879921 0
M  V30 6749 C 643.259 2.88372 -1.81809 0
M  V30 6750 H 644.452 1.3052 -2.70008 0
M  V30 6751 H 642.005 0.646271 -1.42313 0
M  V30 6752 H 642.74 3.12157 -0.879135 0
M  V30 6753 H 642.525 2.89944 -2.6396 0
M  V30 6754 H 644.015 3.66173 -2.00766 0
M  V30 6755 N 644.452 1.42507 0.673017 0
M  V30 6756 C 645.863 1.38347 1.25367 0
M  V30 6757 C 646.214 0.0776327 1.96046 0
M  V30 6758 O 645.339 -0.823571 2.00116 0
M  V30 6759 C 645.934 2.506 2.28002 0
M  V30 6760 C 644.493 2.49767 2.81591 0
M  V30 6761 C 643.64 2.293 1.55938 0
M  V30 6762 H 646.591 1.51695 0.466288 0
M  V30 6763 H 646.612 2.20953 3.09774 0
M  V30 6764 H 646.124 3.45627 1.76532 0
M  V30 6765 H 644.225 1.58563 3.37177 0
M  V30 6766 H 644.338 3.46867 3.30485 0
M  V30 6767 H 642.702 1.77594 1.82572 0
M  V30 6768 H 643.485 3.26385 1.06431 0
M  V30 6769 N 645.93 -0.909495 1.28709 0
M  V30 6770 C 647.155 -1.69801 1.1909 0
M  V30 6771 C 647.58 -1.86479 -0.246388 0
M  V30 6772 O 646.938 -1.37802 -1.17815 0
M  V30 6773 C 646.986 -3.06543 1.89904 0
M  V30 6774 O 646.09 -3.94268 1.2094 0
M  V30 6775 H 645.431 -0.519783 0.413185 0
M  V30 6776 H 647.961 -1.13689 1.70106 0
M  V30 6777 H 647.971 -3.56748 1.97977 0
M  V30 6778 H 646.646 -2.93722 2.94449 0
M  V30 6779 H 645.223 -3.52702 1.2106 0
M  V30 6780 N 647.408 -1.11026 -1.11852 0
M  V30 6781 C 648.819 -0.873203 -1.65021 0
M  V30 6782 C 649.17 0.595364 -1.86949 0
M  V30 6783 O 648.295 1.45645 -1.60051 0
M  V30 6784 C 648.89 -1.57859 -2.99777 0
M  V30 6785 C 647.449 -1.38807 -3.49871 0
M  V30 6786 C 646.596 -1.62403 -2.24768 0
M  V30 6787 H 649.547 -1.26712 -0.955503 0
M  V30 6788 H 649.568 -1.02111 -3.66543 0
M  V30 6789 H 649.08 -2.6474 -2.83786 0
M  V30 6790 H 647.181 -0.341163 -3.71035 0
M  V30 6791 H 647.294 -2.13421 -4.28938 0
M  V30 6792 H 645.658 -1.04714 -2.32179 0
M  V30 6793 H 646.441 -2.70549 -2.11324 0
M  V30 6794 N 648.886 1.2938 -0.899927 0
M  V30 6795 C 650.132 1.9584 -0.526742 0
M  V30 6796 C 650.465 1.70774 0.924651 0
M  V30 6797 O 649.74 1.02084 1.65557 0
M  V30 6798 C 650.023 3.50638 -0.820062 0
M  V30 6799 C 649.876 3.85161 -2.32317 0
M  V30 6800 C 651.195 4.3903 -0.30671 0
M  V30 6801 H 648.314 0.711322 -0.192848 0
M  V30 6802 H 650.956 1.52992 -1.12665 0
M  V30 6803 H 649.106 3.87265 -0.309491 0
M  V30 6804 H 650.778 3.58477 -2.9033 0
M  V30 6805 H 649.021 3.32696 -2.78381 0
M  V30 6806 H 649.692 4.93204 -2.47898 0
M  V30 6807 H 652.168 4.09396 -0.743908 0
M  V30 6808 H 651.044 5.46226 -0.541144 0
M  V30 6809 H 651.305 4.34937 0.792588 0
M  V30 6810 N 650.364 0.662433 1.43002 0
M  V30 6811 C 651.294 -0.00979809 2.33498 0
M  V30 6812 C 652.275 -0.802329 1.49989 0
M  V30 6813 O 653.46 -0.761964 1.78627 0
M  V30 6814 C 650.59 -0.970446 3.33466 0
M  V30 6815 C 649.544 -0.287383 4.27034 0
M  V30 6816 C 648.87 -1.36012 5.17112 0
M  V30 6817 C 650.17 0.82595 5.15728 0
M  V30 6818 H 651.864 0.745959 2.89958 0
M  V30 6819 H 649.41 0.360172 1.39423 0
M  V30 6820 H 651.363 -1.44971 3.95679 0
M  V30 6821 H 650.087 -1.75748 2.75282 0
M  V30 6822 H 648.746 0.17152 3.66199 0
M  V30 6823 H 648.394 -2.13882 4.55262 0
M  V30 6824 H 648.094 -0.908276 5.80538 0
M  V30 6825 H 649.618 -1.84056 5.82199 0
M  V30 6826 H 651.032 0.42845 5.71697 0
M  V30 6827 H 649.429 1.20282 5.87922 0
M  V30 6828 H 650.499 1.68003 4.54866 0
M  V30 6829 N 651.842 -1.52309 0.404946 0
M  V30 6830 C 653.07 -2.06185 -0.171818 0
M  V30 6831 C 653.485 -1.27536 -1.39212 0
M  V30 6832 O 652.842 -0.326112 -1.79563 0
M  V30 6833 C 652.893 -3.57647 -0.526417 0
M  V30 6834 O 652.614 -4.3332 0.645417 0
M  V30 6835 C 654.115 -4.27925 -1.15736 0
M  V30 6836 H 651.335 -0.670632 -0.0222328 0
M  V30 6837 H 653.879 -1.96259 0.574692 0
M  V30 6838 H 652.034 -3.67595 -1.22282 0
M  V30 6839 H 652.448 -5.23328 0.35042 0
M  V30 6840 H 653.922 -5.35093 -1.35572 0
M  V30 6841 H 654.399 -3.84134 -2.12926 0
M  V30 6842 H 655.005 -4.22335 -0.501281 0
M  V30 6843 N 653.32 -0.135238 -1.57019 0
M  V30 6844 C 654.569 0.518694 -1.94917 0
M  V30 6845 C 654.882 1.66783 -1.0219 0
M  V30 6846 O 656.088 2.38561 -1.29619 0
M  V30 6847 C 654.544 0.974123 -3.46466 0
M  V30 6848 C 654.152 -0.147439 -4.47757 0
M  V30 6849 C 655.896 1.59851 -3.93253 0
M  V30 6850 C 653.803 0.325599 -5.90503 0
M  V30 6851 H 652.733 0.19754 -0.727663 0
M  V30 6852 H 655.384 -0.217698 -1.82204 0
M  V30 6853 H 653.766 1.76542 -3.5447 0
M  V30 6854 H 654.94 -0.924122 -4.51438 0
M  V30 6855 H 653.255 -0.679496 -4.10818 0
M  V30 6856 H 655.852 1.96385 -4.9733 0
M  V30 6857 H 656.195 2.48306 -3.3414 0
M  V30 6858 H 656.728 0.872323 -3.88118 0
M  V30 6859 H 653.467 -0.523295 -6.53408 0
M  V30 6860 H 652.987 1.06841 -5.90208 0
M  V30 6861 H 654.666 0.781498 -6.42263 0
M  V30 6862 N 654.798 1.5699 0.138552 0
M  V30 6863 C 655.745 1.98899 1.17081 0
M  V30 6864 C 656.715 0.857922 1.42228 0
M  V30 6865 O 657.9 1.12065 1.54422 0
M  V30 6866 C 655.04 2.38189 2.4972 0
M  V30 6867 C 654.153 3.64624 2.31674 0
M  V30 6868 C 653.288 3.9298 3.57407 0
M  V30 6869 C 652.327 5.1266 3.34435 0
M  V30 6870 N 651.464 5.36983 4.5232 0
M  V30 6871 H 656.304 2.86881 0.80642 0
M  V30 6872 H 653.841 1.41925 0.386727 0
M  V30 6873 H 655.799 2.59 3.2707 0
M  V30 6874 H 654.429 1.53275 2.84089 0
M  V30 6875 H 653.481 3.51542 1.45337 0
M  V30 6876 H 654.793 4.52131 2.10664 0
M  V30 6877 H 653.947 4.14335 4.43183 0
M  V30 6878 H 652.686 3.03912 3.8143 0
M  V30 6879 H 651.691 4.9117 2.47048 0
M  V30 6880 H 652.916 6.03288 3.11802 0
M  V30 6881 H 650.862 4.50871 4.76499 0
M  V30 6882 H 650.779 6.18775 4.34343 0
M  V30 6883 H 652.047 5.62842 5.39285 0
M  V30 6884 N 656.276 -0.40816 1.52223 0
M  V30 6885 C 657.223 -1.49737 1.75635 0
M  V30 6886 C 658.193 -1.5493 0.598824 0
M  V30 6887 O 659.378 -1.71487 0.83648 0
M  V30 6888 C 656.518 -2.87174 1.91376 0
M  V30 6889 C 655.631 -2.91283 3.19027 0
M  V30 6890 C 654.766 -4.20026 3.25195 0
M  V30 6891 C 653.805 -4.18113 4.47044 0
M  V30 6892 N 652.942 -5.38429 4.50598 0
M  V30 6893 H 657.782 -1.29075 2.68596 0
M  V30 6894 H 655.319 -0.626518 1.33091 0
M  V30 6895 H 657.277 -3.66959 1.98486 0
M  V30 6896 H 655.907 -3.06329 1.01795 0
M  V30 6897 H 654.959 -2.03984 3.21084 0
M  V30 6898 H 656.271 -2.85734 4.08849 0
M  V30 6899 H 655.425 -5.08204 3.31382 0
M  V30 6900 H 654.164 -4.28271 2.33313 0
M  V30 6901 H 653.169 -3.28325 4.41002 0
M  V30 6902 H 654.394 -4.11507 5.40221 0
M  V30 6903 H 652.34 -5.4734 3.616 0
M  V30 6904 H 652.257 -5.34879 5.34266 0
M  V30 6905 H 653.525 -6.28557 4.61016 0
M  V30 6906 N 657.755 -1.42862 -0.66545 0
M  V30 6907 C 659.032 -1.3431 -1.42197 0
M  V30 6908 C 659.412 0.0150265 -2.11095 0
M  V30 6909 O 658.76 1.03101 -2.03918 0
M  V30 6910 C 658.97 -2.51783 -2.41674 0
M  V30 6911 C 660.318 -2.94321 -3.0604 0
M  V30 6912 O 661.342 -2.51741 -2.52001 0
M  V30 6913 O 660.201 -3.68047 -4.03985 0
M  V30 6914 H 657.295 -0.530159 -0.634713 0
M  V30 6915 H 659.841 -1.54888 -0.693386 0
M  V30 6916 H 658.613 -3.42282 -1.89627 0
M  V30 6917 H 658.236 -2.33241 -3.22001 0
M  V30 6918 N 659.233 0.902656 -1.29189 0
M  V30 6919 C 660.649 1.18296 -1.07137 0
M  V30 6920 C 660.849 2.00701 0.179223 0
M  V30 6921 O 659.905 2.3675 0.877812 0
M  V30 6922 C 661.218 1.90677 -2.32514 0
M  V30 6923 C 662.766 2.03515 -2.37804 0
M  V30 6924 C 663.241 2.79307 -3.62976 0
M  V30 6925 N 664.732 2.86862 -3.63681 0
M  V30 6926 C 665.467 3.46035 -4.57217 0
M  V30 6927 N 664.963 4.06399 -5.61081 0
M  V30 6928 N 666.756 3.43681 -4.44792 0
M  V30 6929 H 658.907 0.352765 -2.0945 0
M  V30 6930 H 661.17 0.21876 -0.922414 0
M  V30 6931 H 660.876 1.3756 -3.23682 0
M  V30 6932 H 660.75 2.91169 -2.39793 0
M  V30 6933 H 663.137 2.55809 -1.47125 0
M  V30 6934 H 663.218 1.02166 -2.34512 0
M  V30 6935 H 662.862 2.2769 -4.54004 0
M  V30 6936 H 662.792 3.80995 -3.63525 0
M  V30 6937 H 665.283 2.43987 -2.88581 0
M  V30 6938 H 665.596 4.49564 -6.2858 0
M  V30 6939 H 663.941 4.0487 -5.64894 0
M  V30 6940 H 667.132 2.9574 -3.62843 0
M  V30 6941 H 667.305 3.89503 -5.17872 0
M  V30 6942 N 660.711 1.11618 1.11262 0
M  V30 6943 C 661.939 0.888739 1.8684 0
M  V30 6944 C 662.354 -0.561558 1.80255 0
M  V30 6945 O 661.711 -1.38782 1.18515 0
M  V30 6946 C 661.762 1.34422 3.35579 0
M  V30 6947 O 661.483 2.73766 3.42029 0
M  V30 6948 C 662.984 1.15246 4.28058 0
M  V30 6949 H 660.204 0.318152 0.590779 0
M  V30 6950 H 662.748 1.48398 1.40707 0
M  V30 6951 H 660.903 0.79239 3.7921 0
M  V30 6952 H 661.317 2.9355 4.34659 0
M  V30 6953 H 662.791 1.52015 5.30656 0
M  V30 6954 H 663.268 0.0922007 4.39103 0
M  V30 6955 H 663.874 1.69136 3.90222 0
M  V30 6956 N 662.189 -1.289 0.906776 0
M  V30 6957 C 663.414 -1.99939 0.551303 0
M  V30 6958 C 663.839 -1.67366 -0.858496 0
M  V30 6959 O 663.197 -0.902176 -1.57259 0
M  V30 6960 C 663.245 -3.52523 0.758937 0
M  V30 6961 O 662.349 -4.11983 -0.185308 0
M  V30 6962 H 661.69 -0.628376 0.214568 0
M  V30 6963 H 664.22 -1.64225 1.2203 0
M  V30 6964 H 664.23 -4.02522 0.666329 0
M  V30 6965 H 662.905 -3.75566 1.78671 0
M  V30 6966 H 661.482 -3.72873 -0.0445577 0
M  V30 6967 N 663.667 -0.670007 -1.42649 0
M  V30 6968 C 665.083 -0.33911 -1.55956 0
M  V30 6969 C 665.283 1.1558 -1.65056 0
M  V30 6970 O 664.339 1.94111 -1.61485 0
M  V30 6971 C 665.652 -1.06522 -2.812 0
M  V30 6972 C 667.2 -1.04708 -2.94966 0
M  V30 6973 C 667.675 -1.75442 -4.23065 0
M  V30 6974 N 669.166 -1.72286 -4.29967 0
M  V30 6975 C 669.901 -2.23877 -5.27889 0
M  V30 6976 N 669.397 -2.83829 -6.31991 0
M  V30 6977 N 671.19 -2.14279 -5.19654 0
M  V30 6978 H 663.341 -1.6399 -1.34986 0
M  V30 6979 H 665.604 -0.690603 -0.649439 0
M  V30 6980 H 665.31 -2.12033 -2.80597 0
M  V30 6981 H 665.184 -0.627398 -3.71946 0
M  V30 6982 H 667.571 -0.000315966 -2.951 0
M  V30 6983 H 667.652 -1.52374 -2.05465 0
M  V30 6984 H 667.296 -2.80084 -4.23693 0
M  V30 6985 H 667.226 -1.25229 -5.11493 0
M  V30 6986 H 669.717 -1.28554 -3.55362 0
M  V30 6987 H 670.03 -3.20827 -7.03057 0
M  V30 6988 H 668.375 -2.87896 -6.32567 0
M  V30 6989 H 671.566 -1.67135 -4.37245 0
M  V30 6990 H 671.739 -2.54792 -5.95806 0
M  V30 6991 N 665.145 1.52092 -0.413018 0
M  V30 6992 C 666.093 2.28681 0.425199 0
M  V30 6993 C 667.087 1.3353 1.04241 0
M  V30 6994 O 668.293 1.50973 0.980166 0
M  V30 6995 H 664.668 0.735661 0.155906 0
M  V30 6996 H 666.639 2.97418 -0.241926 0
M  V30 6997 C 665.388 3.1235 1.5275 0
M  V30 6998 H 664.711 3.85439 1.06191 0
M  V30 6999 H 666.151 3.69038 2.08774 0
M  V30 7000 C 664.61 2.26161 2.49706 0
M  V30 7001 O 665.14 1.90452 3.53682 0
M  V30 7002 N 663.346 1.89854 2.20008 0
M  V30 7003 H 662.893 2.19092 1.35486 0
M  V30 7004 H 662.851 1.3248 2.85125 0
M  V30 7005 N 666.623 0.143563 1.56945 0
M  V30 7006 C 667.848 -0.518701 2.00809 0
M  V30 7007 C 668.273 -1.5785 1.02298 0
M  V30 7008 O 667.631 -1.813 -0.0017839 0
M  V30 7009 C 667.679 -1.09929 3.43436 0
M  V30 7010 O 666.783 -2.21425 3.47915 0
M  V30 7011 H 666.124 -0.127215 0.6517 0
M  V30 7012 H 668.654 0.239283 2.03196 0
M  V30 7013 H 668.664 -1.4288 3.82164 0
M  V30 7014 H 667.339 -0.323162 4.14643 0
M  V30 7015 H 665.916 -1.89728 3.21026 0
M  V30 7016 N 668.101 -1.57061 -0.130224 0
M  V30 7017 C 669.35 -1.83446 -0.838488 0
M  V30 7018 C 669.663 -0.727468 -1.81569 0
M  V30 7019 O 670.869 -0.877394 -2.56932 0
M  V30 7020 C 669.325 -3.25201 -1.54182 0
M  V30 7021 C 668.933 -4.4388 -0.606178 0
M  V30 7022 C 670.677 -3.60844 -2.23588 0
M  V30 7023 C 668.584 -5.76661 -1.31209 0
M  V30 7024 H 667.514 -0.684185 -0.316871 0
M  V30 7025 H 670.165 -1.83273 -0.0912059 0
M  V30 7026 H 668.547 -3.1981 -2.33533 0
M  V30 7027 H 669.721 -4.60545 0.153308 0
M  V30 7028 H 668.036 -4.16395 -0.0196705 0
M  V30 7029 H 670.633 -4.57313 -2.77072 0
M  V30 7030 H 670.976 -2.87724 -3.00867 0
M  V30 7031 H 671.509 -3.67971 -1.51137 0
M  V30 7032 H 668.248 -6.52922 -0.580823 0
M  V30 7033 H 667.768 -5.63902 -2.04387 0
M  V30 7034 H 669.447 -6.20035 -1.8484 0
M  V30 7035 N 669.579 0.400081 -1.52437 0
M  V30 7036 C 670.804 1.17221 -1.71096 0
M  V30 7037 C 671.229 1.83269 -0.423565 0
M  V30 7038 O 670.587 1.70378 0.619751 0
M  V30 7039 C 670.635 2.20425 -2.85386 0
M  V30 7040 O 669.739 3.26769 -2.51586 0
M  V30 7041 H 669.08 0.341766 -0.569291 0
M  V30 7042 H 671.61 0.467772 -1.99181 0
M  V30 7043 H 671.62 2.64605 -3.10561 0
M  V30 7044 H 670.295 1.71737 -3.78786 0
M  V30 7045 H 668.872 2.87804 -2.37114 0
M  V30 7046 N 671.057 1.43213 0.657864 0
M  V30 7047 C 671.987 1.50815 1.78262 0
M  V30 7048 C 672.968 0.363211 1.66177 0
M  V30 7049 O 674.153 0.579806 1.85343 0
M  V30 7050 C 671.283 1.42625 3.16663 0
M  V30 7051 C 670.237 2.5532 3.43505 0
M  V30 7052 C 669.563 2.32184 4.81658 0
M  V30 7053 C 670.863 3.97583 3.38711 0
M  V30 7054 H 672.557 2.44954 1.72157 0
M  V30 7055 H 670.103 1.17896 0.82683 0
M  V30 7056 H 672.056 1.46548 3.95097 0
M  V30 7057 H 670.78 0.449877 3.23487 0
M  V30 7058 H 669.439 2.50742 2.6744 0
M  V30 7059 H 669.087 1.32801 4.85153 0
M  V30 7060 H 668.787 3.07724 5.00579 0
M  V30 7061 H 670.311 2.37883 5.62356 0
M  V30 7062 H 671.725 4.03673 4.07089 0
M  V30 7063 H 670.122 4.73112 3.69168 0
M  V30 7064 H 671.192 4.23049 2.36976 0
M  V30 7065 N 672.536 -0.895792 1.29666 0
M  V30 7066 C 673.761 -1.68528 1.20885 0
M  V30 7067 C 674.186 -1.8673 -0.226595 0
M  V30 7068 O 673.544 -1.39044 -1.16347 0
M  V30 7069 C 673.592 -3.04512 1.93144 0
M  V30 7070 O 672.696 -3.92963 1.25115 0
M  V30 7071 H 672.037 -0.515371 0.418675 0
M  V30 7072 H 674.567 -1.11878 1.71302 0
M  V30 7073 H 674.577 -3.54628 2.0175 0
M  V30 7074 H 673.252 -2.90582 2.97548 0
M  V30 7075 H 671.829 -3.51399 1.24794 0
M  V30 7076 N 674.014 -1.12206 -1.10668 0
M  V30 7077 C 675.26 -0.887096 -1.83036 0
M  V30 7078 C 675.615 0.580887 -1.83422 0
M  V30 7079 O 674.908 1.42379 -1.28213 0
M  V30 7080 C 675.102 -1.39276 -3.29146 0
M  V30 7081 C 674.931 -2.90837 -3.42992 0
M  V30 7082 C 673.701 -3.59047 -3.55546 0
M  V30 7083 C 675.899 -3.8885 -3.36601 0
M  V30 7084 N 673.881 -4.98747 -3.57945 0
M  V30 7085 C 675.252 -5.14666 -3.45716 0
M  V30 7086 C 677.307 -3.81296 -3.20184 0
M  V30 7087 C 676.01 -6.33814 -3.40106 0
M  V30 7088 C 678.036 -4.99965 -3.15895 0
M  V30 7089 C 677.398 -6.24637 -3.25589 0
M  V30 7090 H 673.497 -0.377857 -0.684652 0
M  V30 7091 H 676.081 -1.42791 -1.32358 0
M  V30 7092 H 674.252 -0.879026 -3.78322 0
M  V30 7093 H 675.984 -1.10011 -3.89461 0
M  V30 7094 H 672.739 -3.09533 -3.5845 0
M  V30 7095 H 673.163 -5.71606 -3.62762 0
M  V30 7096 H 677.805 -2.85806 -3.11569 0
M  V30 7097 H 675.523 -7.29574 -3.47487 0
M  V30 7098 H 679.109 -4.95847 -3.04347 0
M  V30 7099 H 677.989 -7.14921 -3.22269 0
M  V30 7100 N 675.492 1.28418 -0.913599 0
M  V30 7101 C 676.424 2.26368 -0.359169 0
M  V30 7102 C 677.437 1.54858 0.502285 0
M  V30 7103 O 678.626 1.75659 0.31719 0
M  V30 7104 C 675.726 3.35112 0.50526 0
M  V30 7105 C 674.899 4.36126 -0.333648 0
M  V30 7106 C 673.958 5.24134 0.465845 0
M  V30 7107 O 672.984 5.6907 -0.121538 0
M  V30 7108 N 674.186 5.52892 1.76891 0
M  V30 7109 H 676.951 2.74579 -1.2011 0
M  V30 7110 H 674.512 1.41898 -0.779532 0
M  V30 7111 H 676.504 3.90926 1.04684 0
M  V30 7112 H 675.074 2.86611 1.2479 0
M  V30 7113 H 674.294 3.79776 -1.0566 0
M  V30 7114 H 675.582 5.00638 -0.907669 0
M  V30 7115 H 674.98 5.18217 2.26865 0
M  V30 7116 H 673.537 6.11464 2.25732 0
M  V30 7117 N 676.97 0.677563 1.42291 0
M  V30 7118 C 677.88 0.000962654 2.346 0
M  V30 7119 C 678.896 -0.785833 1.55244 0
M  V30 7120 O 680.072 -0.727523 1.87801 0
M  V30 7121 C 677.137 -0.936746 3.33805 0
M  V30 7122 C 676.198 -0.144173 4.29058 0
M  V30 7123 C 675.431 -1.03722 5.23524 0
M  V30 7124 O 675.654 -2.27675 5.22992 0
M  V30 7125 O 674.588 -0.496542 5.99848 0
M  V30 7126 H 678.414 0.761397 2.94001 0
M  V30 7127 H 675.999 0.43781 1.42841 0
M  V30 7128 H 677.881 -1.47497 3.94744 0
M  V30 7129 H 676.556 -1.67698 2.76874 0
M  V30 7130 H 675.463 0.438224 3.71524 0
M  V30 7131 H 676.796 0.55701 4.89038 0
M  V30 7132 N 678.448 -1.51871 0.421078 0
M  V30 7133 C 679.859 -1.86644 -0.0457991 0
M  V30 7134 C 680.21 -1.33919 -1.43388 0
M  V30 7135 O 679.335 -0.683316 -2.05328 0
M  V30 7136 C 679.93 -3.38681 -0.0898844 0
M  V30 7137 C 678.489 -3.73049 -0.501127 0
M  V30 7138 C 677.636 -2.75485 0.316723 0
M  V30 7139 H 680.587 -1.45327 0.637635 0
M  V30 7140 H 680.608 -3.69636 -0.902734 0
M  V30 7141 H 680.12 -3.77025 0.920513 0
M  V30 7142 H 678.221 -3.40288 -1.51773 0
M  V30 7143 H 678.334 -4.78512 -0.237217 0
M  V30 7144 H 676.698 -2.53725 -0.222663 0
M  V30 7145 H 677.481 -3.16671 1.32569 0
M  V30 7146 N 679.926 -0.151884 -1.56866 0
M  V30 7147 C 680.836 0.798876 -2.20579 0
M  V30 7148 C 681.852 1.268 -1.19154 0
M  V30 7149 O 683.028 1.32418 -1.51748 0
M  V30 7150 C 680.093 2.01861 -2.81874 0
M  V30 7151 C 679.154 1.59825 -3.9844 0
M  V30 7152 C 678.387 2.75984 -4.56802 0
M  V30 7153 O 678.61 3.92331 -4.14044 0
M  V30 7154 O 677.544 2.51175 -5.46987 0
M  V30 7155 H 681.37 0.2865 -3.02346 0
M  V30 7156 H 678.955 0.0753806 -1.4921 0
M  V30 7157 H 680.837 2.73235 -3.20813 0
M  V30 7158 H 679.512 2.52042 -2.03117 0
M  V30 7159 H 678.419 0.854601 -3.64208 0
M  V30 7160 H 679.752 1.14355 -4.78731 0
M  V30 7161 N 681.404 1.57128 0.121893 0
M  V30 7162 C 682.354 1.96556 1.15541 0
M  V30 7163 C 683.338 0.840147 1.37224 0
M  V30 7164 O 684.53 1.10382 1.38365 0
M  V30 7165 C 681.659 2.37097 2.48274 0
M  V30 7166 C 680.745 3.56265 2.30078 0
M  V30 7167 N 681.136 4.72041 1.81688 0
M  V30 7168 C 679.434 3.61841 2.60744 0
M  V30 7169 C 680.135 5.54075 1.77132 0
M  V30 7170 N 679.111 4.96483 2.21371 0
M  V30 7171 H 682.913 2.83531 0.77378 0
M  V30 7172 H 680.427 1.59019 0.329672 0
M  V30 7173 H 682.424 2.6356 3.2302 0
M  V30 7174 H 681.084 1.51486 2.87197 0
M  V30 7175 H 682.095 4.95313 1.51278 0
M  V30 7176 H 678.772 2.8683 3.03373 0
M  V30 7177 H 680.162 6.56939 1.40998 0
M  V30 7178 N 682.882 -0.391992 1.52647 0
M  V30 7179 C 684.293 -0.970064 1.5952 0
M  V30 7180 C 684.644 -1.91059 0.446207 0
M  V30 7181 O 683.769 -2.12062 -0.431125 0
M  V30 7182 C 684.364 -1.76614 2.89125 0
M  V30 7183 C 682.923 -2.29396 2.9842 0
M  V30 7184 C 682.07 -1.09864 2.54608 0
M  V30 7185 H 685.021 -0.171638 1.57769 0
M  V30 7186 H 685.042 -2.62511 2.75442 0
M  V30 7187 H 684.554 -1.08135 3.72731 0
M  V30 7188 H 682.655 -3.01196 2.19344 0
M  V30 7189 H 682.768 -2.59088 4.03002 0
M  V30 7190 H 681.132 -1.45777 2.08857 0
M  V30 7191 H 681.915 -0.429249 3.40606 0
M  V30 7192 N 684.36 -1.4356 -0.65026 0
M  V30 7193 C 685.308 -1.49219 -1.78427 0
M  V30 7194 C 686.302 -0.365528 -1.65409 0
M  V30 7195 O 687.508 -0.539649 -1.7172 0
M  V30 7196 H 683.883 -0.467858 -0.588738 0
M  V30 7197 H 685.854 -2.44701 -1.70774 0
M  V30 7198 C 684.603 -1.43519 -3.16698 0
M  V30 7199 H 683.926 -2.2952 -3.27354 0
M  V30 7200 H 685.366 -1.5154 -3.95995 0
M  V30 7201 C 683.825 -0.153197 -3.36552 0
M  V30 7202 O 684.355 0.784317 -3.93969 0
M  V30 7203 N 682.561 -0.0624402 -2.90533 0
M  V30 7204 H 682.108 -0.826172 -2.43992 0
M  V30 7205 H 682.066 0.794616 -3.04193 0
M  V30 7206 N 685.838 0.888903 -1.30139 0
M  V30 7207 C 687.086 1.63713 -1.18501 0
M  V30 7208 C 687.407 1.9324 0.261399 0
M  V30 7209 O 686.677 1.56608 1.17689 0
M  V30 7210 H 685.257 0.606861 -0.435579 0
M  V30 7211 H 687.919 1.06525 -1.63213 0
M  V30 7212 H 687.015 2.58894 -1.743 0
M  V30 7213 N 687.317 1.12792 1.10072 0
M  V30 7214 C 688.566 0.880232 1.81479 0
M  V30 7215 C 688.879 -0.595575 1.86312 0
M  V30 7216 O 690.085 -0.959979 2.53962 0
M  V30 7217 C 688.541 1.52514 3.25987 0
M  V30 7218 C 688.149 3.036 3.29441 0
M  V30 7219 C 689.893 1.35788 4.02196 0
M  V30 7220 C 687.8 3.61007 4.68431 0
M  V30 7221 H 686.73 0.325654 0.680048 0
M  V30 7222 H 689.381 1.35485 1.23758 0
M  V30 7223 H 687.763 0.978188 3.83728 0
M  V30 7224 H 688.937 3.64819 2.81502 0
M  V30 7225 H 687.252 3.19765 2.66719 0
M  V30 7226 H 689.849 1.76096 5.0487 0
M  V30 7227 H 690.192 0.301972 4.15203 0
M  V30 7228 H 690.725 1.87426 3.50879 0
M  V30 7229 H 687.464 4.66375 4.60625 0
M  V30 7230 H 686.984 3.04564 5.16721 0
M  V30 7231 H 688.663 3.60289 5.37402 0
M  V30 7232 N 688.795 -1.27931 0.920396 0
M  V30 7233 C 690.044 -1.93975 0.552867 0
M  V30 7234 C 690.357 -1.73193 -0.909035 0
M  V30 7235 O 691.563 -2.33515 -1.38502 0
M  V30 7236 C 690.019 -3.47463 0.937947 0
M  V30 7237 C 689.627 -3.77013 2.42003 0
M  V30 7238 C 691.371 -4.19628 0.64132 0
M  V30 7239 C 689.278 -5.23841 2.74489 0
M  V30 7240 H 688.208 -0.726146 0.203046 0
M  V30 7241 H 690.859 -1.45339 1.12022 0
M  V30 7242 H 689.241 -3.94867 0.299317 0
M  V30 7243 H 690.415 -3.40393 3.10595 0
M  V30 7244 H 688.73 -3.18035 2.6878 0
M  V30 7245 H 691.327 -5.27729 0.860622 0
M  V30 7246 H 691.67 -4.14164 -0.421168 0
M  V30 7247 H 692.203 -3.78022 1.23872 0
M  V30 7248 H 688.942 -5.34388 3.79618 0
M  V30 7249 H 688.462 -5.61634 2.1054 0
M  V30 7250 H 690.141 -5.91647 2.61845 0
M  V30 7251 N 690.273 -0.685099 -1.4193 0
M  V30 7252 C 691.203 -0.0273506 -2.33484 0
M  V30 7253 C 692.184 0.778366 -1.51246 0
M  V30 7254 O 693.369 0.733449 -1.79817 0
M  V30 7255 C 690.499 0.917272 -3.34968 0
M  V30 7256 C 689.453 0.21941 -4.27437 0
M  V30 7257 C 688.779 1.27768 -5.1921 0
M  V30 7258 C 690.079 -0.907894 -5.14349 0
M  V30 7259 H 691.773 -0.791994 -2.88735 0
M  V30 7260 H 689.319 -0.382308 -1.38832 0
M  V30 7261 H 691.272 1.38657 -3.97935 0
M  V30 7262 H 689.996 1.71346 -2.78043 0
M  V30 7263 H 688.655 -0.229757 -3.65879 0
M  V30 7264 H 688.303 2.06612 -4.58607 0
M  V30 7265 H 688.003 0.815803 -5.81909 0
M  V30 7266 H 689.527 1.7477 -5.85054 0
M  V30 7267 H 690.941 -0.519348 -5.70943 0
M  V30 7268 H 689.338 -1.2962 -5.85934 0
M  V30 7269 H 690.408 -1.75218 -4.52136 0
M  V30 7270 N 691.751 1.51645 -0.429126 0
M  V30 7271 C 693.028 1.94579 0.199614 0
M  V30 7272 C 693.408 1.3673 1.60836 0
M  V30 7273 O 692.756 0.551062 2.21756 0
M  V30 7274 C 692.966 3.48506 0.185685 0
M  V30 7275 C 694.314 4.22756 0.395282 0
M  V30 7276 O 695.338 3.55219 0.264165 0
M  V30 7277 O 694.197 5.42555 0.655475 0
M  V30 7278 H 691.291 0.816007 0.134393 0
M  V30 7279 H 693.837 1.62577 -0.486513 0
M  V30 7280 H 692.609 3.83045 -0.799508 0
M  V30 7281 H 692.232 3.86927 0.91507 0
M  V30 7282 N 693.229 0.160201 1.56784 0
M  V30 7283 C 694.459 -0.493449 2.00621 0
M  V30 7284 C 694.867 -1.5809 1.03943 0
M  V30 7285 O 694.21 -1.83675 0.0305343 0
M  V30 7286 C 694.272 -1.14169 3.4089 0
M  V30 7287 C 693.936 -0.197243 4.56574 0
M  V30 7288 C 694.933 0.580174 5.16653 0
M  V30 7289 C 692.618 -0.0963038 5.02208 0
M  V30 7290 C 694.612 1.44584 6.20785 0
M  V30 7291 C 692.299 0.772959 6.06192 0
M  V30 7292 C 693.297 1.54263 6.65351 0
M  V30 7293 O 692.985 2.39738 7.67321 0
M  V30 7294 H 692.717 -0.131764 0.663034 0
M  V30 7295 H 695.271 0.255728 2.03802 0
M  V30 7296 H 693.501 -1.93877 3.34587 0
M  V30 7297 H 695.19 -1.69641 3.6875 0
M  V30 7298 H 695.956 0.5123 4.82287 0
M  V30 7299 H 691.835 -0.685143 4.5588 0
M  V30 7300 H 695.379 2.04706 6.66889 0
M  V30 7301 H 691.276 0.842077 6.39984 0
M  V30 7302 H 692.044 2.33131 7.84597 0
M  V30 7303 N 694.707 -1.5719 -0.113559 0
M  V30 7304 C 695.617 -2.04041 -1.15777 0
M  V30 7305 C 696.633 -0.961812 -1.45001 0
M  V30 7306 O 697.809 -1.2737 -1.56009 0
M  V30 7307 C 694.874 -2.43994 -2.46308 0
M  V30 7308 C 693.935 -3.65962 -2.24433 0
M  V30 7309 C 693.168 -4.04 -3.4874 0
M  V30 7310 O 693.391 -3.42321 -4.56259 0
M  V30 7311 O 692.325 -4.97069 -3.3942 0
M  V30 7312 H 696.151 -2.93248 -0.789899 0
M  V30 7313 H 693.736 -1.45828 -0.324748 0
M  V30 7314 H 695.618 -2.70401 -3.23204 0
M  V30 7315 H 694.293 -1.57932 -2.82558 0
M  V30 7316 H 693.2 -3.44697 -1.45377 0
M  V30 7317 H 694.533 -4.52746 -1.93084 0
M  V30 7318 N 696.185 0.383891 -1.52853 0
M  V30 7319 C 697.431 1.13009 -1.68395 0
M  V30 7320 C 697.764 1.89488 -0.425195 0
M  V30 7321 O 697.039 1.8574 0.577136 0
M  V30 7322 C 697.322 2.10419 -2.92226 0
M  V30 7323 C 697.175 1.3767 -4.28214 0
M  V30 7324 C 698.494 3.10781 -3.11614 0
M  V30 7325 H 695.613 0.409463 -0.612788 0
M  V30 7326 H 698.255 0.412895 -1.85459 0
M  V30 7327 H 696.405 2.71579 -2.77808 0
M  V30 7328 H 698.077 0.794352 -4.54409 0
M  V30 7329 H 696.32 0.678533 -4.2846 0
M  V30 7330 H 696.991 2.08874 -5.10956 0
M  V30 7331 H 699.467 2.59715 -3.25096 0
M  V30 7332 H 698.343 3.76179 -3.99725 0
M  V30 7333 H 698.604 3.79933 -2.2606 0
M  V30 7334 N 697.663 1.43903 0.642637 0
M  V30 7335 C 698.61 1.49881 1.75512 0
M  V30 7336 C 699.58 0.347538 1.62423 0
M  V30 7337 O 700.765 0.556177 1.82514 0
M  V30 7338 C 697.905 1.43797 3.13714 0
M  V30 7339 C 697.018 2.6921 3.37861 0
M  V30 7340 C 696.153 2.5504 4.6597 0
M  V30 7341 C 695.192 3.75671 4.83257 0
M  V30 7342 N 694.329 3.60247 6.02633 0
M  V30 7343 H 699.169 2.44935 1.69737 0
M  V30 7344 H 696.706 1.21572 0.828165 0
M  V30 7345 H 698.664 1.38262 3.93624 0
M  V30 7346 H 697.294 0.523173 3.18532 0
M  V30 7347 H 696.346 2.8498 2.51973 0
M  V30 7348 H 697.658 3.58786 3.46517 0
M  V30 7349 H 696.812 2.47273 5.54023 0
M  V30 7350 H 695.551 1.63006 4.59653 0
M  V30 7351 H 694.556 3.83836 3.93637 0
M  V30 7352 H 695.781 4.68728 4.91397 0
M  V30 7353 H 693.727 2.70955 5.97427 0
M  V30 7354 H 693.644 4.43431 6.12295 0
M  V30 7355 H 694.912 3.56351 6.93278 0
M  V30 7356 N 699.141 -0.881989 1.30609 0
M  V30 7357 C 700.371 -1.66469 1.22359 0
M  V30 7358 C 700.779 -1.87969 -0.215507 0
M  V30 7359 O 700.122 -1.42938 -1.15388 0
M  V30 7360 C 700.184 -3.06135 1.88472 0
M  V30 7361 C 699.848 -3.07795 3.37804 0
M  V30 7362 C 700.845 -2.86633 4.33749 0
M  V30 7363 C 698.53 -3.29297 3.793 0
M  V30 7364 C 700.524 -2.86934 5.69164 0
M  V30 7365 C 698.211 -3.29228 5.14832 0
M  V30 7366 C 699.209 -3.08071 6.09574 0
M  V30 7367 O 698.897 -3.07824 7.4263 0
M  V30 7368 H 698.629 -0.526129 0.424458 0
M  V30 7369 H 701.183 -1.11004 1.72821 0
M  V30 7370 H 699.413 -3.63276 1.32543 0
M  V30 7371 H 701.102 -3.66571 1.74301 0
M  V30 7372 H 701.868 -2.69814 4.0302 0
M  V30 7373 H 697.747 -3.44799 3.05998 0
M  V30 7374 H 701.291 -2.70339 6.43088 0
M  V30 7375 H 697.188 -3.45583 5.452 0
M  V30 7376 H 697.956 -3.2397 7.51656 0
M  V30 7377 N 700.619 -1.13374 -1.09472 0
M  V30 7378 C 701.849 -0.917019 -1.85133 0
M  V30 7379 C 702.257 0.537568 -1.81402 0
M  V30 7380 O 701.6 1.38385 -1.20811 0
M  V30 7381 C 701.662 -1.32646 -3.34134 0
M  V30 7382 C 701.326 -2.79437 -3.61613 0
M  V30 7383 C 702.323 -3.77596 -3.57375 0
M  V30 7384 C 700.008 -3.16586 -3.89973 0
M  V30 7385 C 702.002 -5.10916 -3.81108 0
M  V30 7386 C 699.689 -4.50085 -4.13361 0
M  V30 7387 C 700.687 -5.47059 -4.0892 0
M  V30 7388 O 700.375 -6.78149 -4.31705 0
M  V30 7389 H 700.107 -0.326997 -0.591649 0
M  V30 7390 H 702.661 -1.51002 -1.39239 0
M  V30 7391 H 700.891 -0.676719 -3.80733 0
M  V30 7392 H 702.58 -1.08229 -3.91205 0
M  V30 7393 H 703.346 -3.50242 -3.35493 0
M  V30 7394 H 699.225 -2.41707 -3.92554 0
M  V30 7395 H 702.769 -5.86597 -3.77558 0
M  V30 7396 H 698.666 -4.77163 -4.34724 0
M  V30 7397 H 699.434 -6.84244 -4.49168 0
M  V30 7398 N 702.098 1.27442 -0.927168 0
M  V30 7399 C 703.008 2.30599 -0.431448 0
M  V30 7400 C 704.024 1.67028 0.48761 0
M  V30 7401 O 705.2 1.97962 0.370546 0
M  V30 7402 C 702.265 3.45327 0.308292 0
M  V30 7403 C 701.326 4.24418 -0.645615 0
M  V30 7404 C 700.559 5.33667 0.0589164 0
M  V30 7405 O 700.782 5.5589 1.27838 0
M  V30 7406 O 699.716 5.98774 -0.612638 0
M  V30 7407 H 703.542 2.75036 -1.28797 0
M  V30 7408 H 701.127 1.32382 -0.692495 0
M  V30 7409 H 703.009 4.15107 0.725555 0
M  V30 7410 H 701.684 3.02945 1.14043 0
M  V30 7411 H 700.591 3.57174 -1.11255 0
M  V30 7412 H 701.924 4.70512 -1.44496 0
M  V30 7413 N 703.576 0.692616 1.41565 0
M  V30 7414 C 704.523 0.0254264 2.30786 0
M  V30 7415 C 705.493 -0.774347 1.46946 0
M  V30 7416 O 706.678 -0.742981 1.7574 0
M  V30 7417 C 703.818 -0.907123 3.32964 0
M  V30 7418 C 702.931 -0.0992784 4.31886 0
M  V30 7419 C 702.066 -1.0292 5.21134 0
M  V30 7420 C 701.105 -0.214088 6.11725 0
M  V30 7421 N 700.242 -1.09766 6.93467 0
M  V30 7422 H 705.082 0.792036 2.87282 0
M  V30 7423 H 702.619 0.4023 1.41492 0
M  V30 7424 H 704.577 -1.46181 3.90752 0
M  V30 7425 H 703.207 -1.64016 2.78026 0
M  V30 7426 H 702.259 0.572287 3.76071 0
M  V30 7427 H 703.571 0.532782 4.95946 0
M  V30 7428 H 702.725 -1.65321 5.83741 0
M  V30 7429 H 701.464 -1.69512 4.57293 0
M  V30 7430 H 700.469 0.42302 5.4817 0
M  V30 7431 H 701.694 0.447995 6.77621 0
M  V30 7432 H 699.64 -1.74965 6.32237 0
M  V30 7433 H 699.557 -0.521099 7.54202 0
M  V30 7434 H 700.825 -1.70858 7.60544 0
M  V30 7435 N 705.054 -1.51416 0.437162 0
M  V30 7436 C 705.986 -2.255 -0.410171 0
M  V30 7437 C 706.999 -1.29511 -0.986444 0
M  V30 7438 O 708.188 -1.55266 -0.880614 0
M  V30 7439 C 705.288 -2.99511 -1.58575 0
M  V30 7440 C 704.461 -4.22595 -1.12839 0
M  V30 7441 C 703.52 -4.79187 -2.17407 0
M  V30 7442 O 702.546 -5.4103 -1.76849 0
M  V30 7443 N 703.748 -4.63204 -3.49889 0
M  V30 7444 H 706.513 -2.98856 0.224783 0
M  V30 7445 H 704.074 -1.59699 0.266041 0
M  V30 7446 H 706.066 -3.34258 -2.28152 0
M  V30 7447 H 704.636 -2.29167 -2.12606 0
M  V30 7448 H 703.856 -3.93344 -0.259695 0
M  V30 7449 H 705.144 -5.02468 -0.800196 0
M  V30 7450 H 704.542 -4.13945 -3.85573 0
M  V30 7451 H 703.099 -5.02313 -4.15361 0
M  V30 7452 N 706.532 -0.168513 -1.56696 0
M  V30 7453 C 707.442 0.775435 -2.21414 0
M  V30 7454 C 708.458 1.25529 -1.20492 0
M  V30 7455 O 709.634 1.30801 -1.53144 0
M  V30 7456 C 706.699 1.9886 -2.83999 0
M  V30 7457 C 705.76 1.5559 -4.00113 0
M  V30 7458 C 704.993 2.71124 -4.59704 0
M  V30 7459 O 705.216 3.87917 -4.18182 0
M  V30 7460 O 704.15 2.4536 -5.4962 0
M  V30 7461 H 707.976 0.254416 -3.02632 0
M  V30 7462 H 705.561 0.0595507 -1.49281 0
M  V30 7463 H 707.443 2.69816 -3.23693 0
M  V30 7464 H 706.118 2.49874 -2.05779 0
M  V30 7465 H 705.025 0.815924 -3.65094 0
M  V30 7466 H 706.358 1.09271 -4.79917 0
M  V30 7467 N 708.01 1.57248 0.105221 0
M  V30 7468 C 708.942 1.98008 1.15436 0
M  V30 7469 C 709.955 0.881236 1.36887 0
M  V30 7470 O 711.144 1.15943 1.35718 0
M  V30 7471 C 708.244 2.27509 2.51183 0
M  V30 7472 C 707.417 3.58811 2.50147 0
M  V30 7473 C 706.476 3.76365 3.67745 0
M  V30 7474 O 705.502 4.48329 3.50699 0
M  V30 7475 N 706.704 3.16174 4.86841 0
M  V30 7476 H 709.469 2.88616 0.807519 0
M  V30 7477 H 707.03 1.59202 0.29433 0
M  V30 7478 H 709.022 2.36455 3.28438 0
M  V30 7479 H 707.592 1.42959 2.77995 0
M  V30 7480 H 706.812 3.60927 1.5851 0
M  V30 7481 H 708.1 4.45088 2.46524 0
M  V30 7482 H 707.498 2.57701 5.03594 0
M  V30 7483 H 706.055 3.30621 5.61723 0
M  V30 7484 N 709.488 -0.375779 1.53054 0
M  V30 7485 C 710.398 -1.48381 1.81715 0
M  V30 7486 C 711.414 -1.59087 0.704795 0
M  V30 7487 O 712.59 -1.75174 0.993785 0
M  V30 7488 C 709.655 -2.83767 1.99192 0
M  V30 7489 C 708.716 -2.82673 3.23102 0
M  V30 7490 C 707.949 -4.11601 3.39736 0
M  V30 7491 O 708.172 -5.07243 2.60885 0
M  V30 7492 O 707.106 -4.18034 4.33049 0
M  V30 7493 H 710.932 -1.27089 2.7583 0
M  V30 7494 H 708.517 -0.564902 1.38308 0
M  V30 7495 H 710.399 -3.64004 2.12318 0
M  V30 7496 H 709.074 -3.05057 1.08267 0
M  V30 7497 H 707.981 -2.0117 3.15407 0
M  V30 7498 H 709.314 -2.66335 4.13916 0
M  V30 7499 N 710.966 -1.44241 -0.634997 0
M  V30 7500 C 712.194 -1.50296 -1.42193 0
M  V30 7501 C 712.609 -0.12658 -1.88375 0
M  V30 7502 O 711.966 0.86678 -1.60603 0
M  V30 7503 C 712.017 -2.46437 -2.64482 0
M  V30 7504 O 711.738 -3.78724 -2.20226 0
M  V30 7505 C 713.239 -2.61918 -3.57651 0
M  V30 7506 H 710.459 -0.509865 -0.43621 0
M  V30 7507 H 713.003 -1.89167 -0.776921 0
M  V30 7508 H 711.158 -2.10712 -3.25083 0
M  V30 7509 H 711.572 -4.30595 -2.9948 0
M  V30 7510 H 713.046 -3.33225 -4.40074 0
M  V30 7511 H 713.523 -1.67017 -4.06204 0
M  V30 7512 H 714.129 -2.98528 -3.02921 0
M  V30 7513 N 712.444 0.87505 -1.31075 0
M  V30 7514 C 713.669 1.66583 -1.23551 0
M  V30 7515 C 714.094 1.87067 0.19686 0
M  V30 7516 O 713.452 1.40877 1.1412 0
M  V30 7517 C 713.5 3.01401 -1.97965 0
M  V30 7518 O 712.604 3.90923 -1.31351 0
M  V30 7519 H 711.945 0.508645 -0.426821 0
M  V30 7520 H 714.475 1.09139 -1.7306 0
M  V30 7521 H 714.485 3.51374 -2.07366 0
M  V30 7522 H 713.16 2.85812 -3.02133 0
M  V30 7523 H 711.737 3.49369 -1.30368 0
M  V30 7524 N 713.922 1.13953 1.08869 0
M  V30 7525 C 715.152 0.926825 1.84644 0
M  V30 7526 C 715.56 -0.527941 1.81685 0
M  V30 7527 O 714.903 -1.37742 1.21543 0
M  V30 7528 C 714.965 1.34416 3.33426 0
M  V30 7529 C 714.629 2.81351 3.60126 0
M  V30 7530 C 715.626 3.79486 3.55368 0
M  V30 7531 C 713.311 3.1865 3.88288 0
M  V30 7532 C 715.305 5.1293 3.78393 0
M  V30 7533 C 712.992 4.5227 4.10968 0
M  V30 7534 C 713.99 5.4922 4.06013 0
M  V30 7535 O 713.678 6.80429 4.28102 0
M  V30 7536 H 713.41 0.33013 0.589907 0
M  V30 7537 H 715.964 1.51738 1.38436 0
M  V30 7538 H 714.194 0.696901 3.80368 0
M  V30 7539 H 715.883 1.10302 3.90626 0
M  V30 7540 H 716.649 3.52017 3.3363 0
M  V30 7541 H 712.528 2.43785 3.91267 0
M  V30 7542 H 716.072 5.88591 3.74442 0
M  V30 7543 H 711.969 4.79462 4.32188 0
M  V30 7544 H 712.737 6.86617 4.45533 0
M  V30 7545 N 715.4 -1.26948 0.933913 0
M  V30 7546 C 716.628 -1.98186 0.59414 0
M  V30 7547 C 717.043 -1.69614 -0.829257 0
M  V30 7548 O 716.4 -0.960213 -1.55197 0
M  V30 7549 C 716.451 -3.52123 0.818026 0
M  V30 7550 O 716.172 -3.79698 2.18543 0
M  V30 7551 C 717.673 -4.40608 0.48781 0
M  V30 7552 H 714.893 -0.632305 0.224569 0
M  V30 7553 H 717.437 -1.61646 1.25263 0
M  V30 7554 H 715.592 -3.86851 0.206246 0
M  V30 7555 H 716.006 -4.7426 2.24005 0
M  V30 7556 H 717.48 -5.47606 0.695126 0
M  V30 7557 H 717.957 -4.35394 -0.576913 0
M  V30 7558 H 718.563 -4.11411 1.078 0
M  V30 7559 N 716.879 -0.700114 -1.41195 0
M  V30 7560 C 718.128 -0.230082 -2.00383 0
M  V30 7561 C 718.441 1.17857 -1.56106 0
M  V30 7562 O 719.647 1.74631 -2.07885 0
M  V30 7563 C 718.103 -0.360447 -3.5809 0
M  V30 7564 C 717.711 -1.77475 -4.11347 0
M  V30 7565 C 719.455 0.0495799 -4.24471 0
M  V30 7566 C 717.362 -1.85653 -5.61504 0
M  V30 7567 H 716.292 -0.0822633 -0.749499 0
M  V30 7568 H 718.943 -0.868969 -1.6162 0
M  V30 7569 H 717.325 0.346768 -3.94479 0
M  V30 7570 H 718.499 -2.51109 -3.86369 0
M  V30 7571 H 716.814 -2.13486 -3.57509 0
M  V30 7572 H 719.411 0.00898219 -5.34699 0
M  V30 7573 H 719.754 1.08904 -4.01803 0
M  V30 7574 H 720.287 -0.607521 -3.93134 0
M  V30 7575 H 717.026 -2.87667 -5.89006 0
M  V30 7576 H 716.546 -1.1641 -5.88395 0
M  V30 7577 H 718.225 -1.62151 -6.26351 0
M  V30 7578 N 718.357 1.51182 -0.445186 0
M  V30 7579 C 719.287 2.30821 0.352686 0
M  V30 7580 C 720.268 1.36576 1.01395 0
M  V30 7581 O 721.453 1.65497 1.01609 0
M  V30 7582 C 718.583 3.15593 1.44976 0
M  V30 7583 C 717.537 4.1818 0.911553 0
M  V30 7584 C 716.863 4.91523 2.10497 0
M  V30 7585 C 718.163 5.22266 -0.059418 0
M  V30 7586 H 719.857 2.97771 -0.311936 0
M  V30 7587 H 717.403 1.43201 -0.151461 0
M  V30 7588 H 719.356 3.70091 2.01521 0
M  V30 7589 H 718.08 2.4648 2.14278 0
M  V30 7590 H 716.739 3.64746 0.368264 0
M  V30 7591 H 716.387 4.18906 2.78437 0
M  V30 7592 H 716.087 5.60898 1.7512 0
M  V30 7593 H 717.611 5.48847 2.6758 0
M  V30 7594 H 719.025 5.71789 0.415985 0
M  V30 7595 H 717.422 5.99213 -0.326152 0
M  V30 7596 H 718.492 4.7461 -0.993631 0
M  V30 7597 N 719.835 0.176821 1.56605 0
M  V30 7598 C 721.251 -0.179278 1.5859 0
M  V30 7599 C 721.451 -1.62433 1.19238 0
M  V30 7600 O 720.507 -2.35665 0.906552 0
M  V30 7601 C 721.82 0.106524 3.00511 0
M  V30 7602 C 723.368 0.0451731 3.12967 0
M  V30 7603 C 723.843 0.304038 4.5699 0
M  V30 7604 N 725.334 0.252008 4.62514 0
M  V30 7605 C 726.069 0.426404 5.71812 0
M  V30 7606 N 725.565 0.660155 6.89648 0
M  V30 7607 N 727.358 0.361926 5.60934 0
M  V30 7608 H 719.509 1.12001 1.8047 0
M  V30 7609 H 721.772 0.445679 0.836704 0
M  V30 7610 H 721.478 1.10778 3.33798 0
M  V30 7611 H 721.352 -0.599337 3.72408 0
M  V30 7612 H 723.739 -0.946662 2.79504 0
M  V30 7613 H 723.82 0.78383 2.43495 0
M  V30 7614 H 723.464 1.29311 4.91163 0
M  V30 7615 H 723.394 -0.455294 5.24628 0
M  V30 7616 H 725.885 0.0772102 3.77821 0
M  V30 7617 H 726.198 0.782529 7.68828 0
M  V30 7618 H 724.543 0.696835 6.91498 0
M  V30 7619 H 727.734 0.17986 4.67754 0
M  V30 7620 H 727.907 0.501263 6.46058 0
M  V30 7621 N 721.313 -1.57302 -0.09688 0
M  V30 7622 C 722.276 -2.00976 -1.10188 0
M  V30 7623 C 723.276 -0.903009 -1.3305 0
M  V30 7624 O 724.466 -1.16853 -1.29194 0
M  V30 7625 C 721.598 -2.36893 -2.45142 0
M  V30 7626 H 722.791 -2.9098 -0.726003 0
M  V30 7627 H 720.344 -1.52515 -0.341872 0
M  V30 7628 H 721.079 -1.49837 -2.8761 0
M  V30 7629 H 720.864 -3.17632 -2.29897 0
M  V30 7630 H 722.354 -2.71345 -3.1743 0
M  V30 7631 N 722.791 0.367657 -1.53252 0
M  V30 7632 C 724.207 0.709191 -1.42978 0
M  V30 7633 C 724.407 1.93352 -0.567193 0
M  V30 7634 O 723.463 2.52453 -0.0488349 0
M  V30 7635 C 724.776 0.924338 -2.86141 0
M  V30 7636 C 726.324 1.02448 -2.95759 0
M  V30 7637 C 726.799 1.27211 -4.39979 0
M  V30 7638 N 728.29 1.33986 -4.43398 0
M  V30 7639 C 729.025 1.54852 -5.52095 0
M  V30 7640 N 728.521 1.73049 -6.7084 0
M  V30 7641 N 730.314 1.57205 -5.39669 0
M  V30 7642 H 722.465 -0.437669 -2.07842 0
M  V30 7643 H 724.728 -0.133737 -0.938519 0
M  V30 7644 H 724.434 0.0965455 -3.51567 0
M  V30 7645 H 724.308 1.83302 -3.29667 0
M  V30 7646 H 726.695 1.84282 -2.30487 0
M  V30 7647 H 726.776 0.0932301 -2.5563 0
M  V30 7648 H 726.42 0.458792 -5.05824 0
M  V30 7649 H 726.35 2.21654 -4.77679 0
M  V30 7650 H 728.841 1.21545 -3.5782 0
M  V30 7651 H 729.154 1.88538 -7.49449 0
M  V30 7652 H 727.499 1.70231 -6.7383 0
M  V30 7653 H 730.69 1.42555 -4.45865 0
M  V30 7654 H 730.863 1.73126 -6.24445 0
M  V30 7655 N 724.269 1.44576 0.627338 0
M  V30 7656 C 725.517 1.47267 1.38408 0
M  V30 7657 C 725.838 0.107971 1.94701 0
M  V30 7658 O 725.108 -0.860206 1.76004 0
M  V30 7659 H 723.688 0.542276 0.513756 0
M  V30 7660 H 726.35 1.80383 0.738099 0
M  V30 7661 H 725.446 2.20025 2.21349 0
M  V30 7662 N 725.747 -0.868086 1.31537 0
M  V30 7663 C 726.975 -1.65402 1.24298 0
M  V30 7664 C 727.39 -1.87827 -0.191389 0
M  V30 7665 O 726.747 -1.43776 -1.12404 0
M  V30 7666 C 726.798 -3.02093 1.9855 0
M  V30 7667 O 726.519 -2.80668 3.36388 0
M  V30 7668 C 728.02 -3.96538 1.98173 0
M  V30 7669 H 725.24 -0.515598 0.429417 0
M  V30 7670 H 727.784 -1.0834 1.73444 0
M  V30 7671 H 725.939 -3.55838 1.53161 0
M  V30 7672 H 726.353 -3.67504 3.74221 0
M  V30 7673 H 727.827 -4.8976 2.54635 0
M  V30 7674 H 728.304 -4.28474 0.964697 0
M  V30 7675 H 728.91 -3.48729 2.4345 0
M  V30 7676 N 727.225 -1.14528 -1.08264 0
M  V30 7677 C 728.173 -0.829201 -2.17318 0
M  V30 7678 C 729.167 0.193521 -1.68291 0
M  V30 7679 O 730.373 0.0494744 -1.79932 0
M  V30 7680 H 726.748 -0.250435 -0.709074 0
M  V30 7681 H 728.719 -1.75683 -2.41201 0
M  V30 7682 C 727.468 -0.324663 -3.46181 0
M  V30 7683 H 726.791 -1.10299 -3.84284 0
M  V30 7684 H 728.231 -0.142059 -4.23762 0
M  V30 7685 C 726.69 0.952033 -3.23169 0
M  V30 7686 O 727.22 2.02549 -3.46896 0
M  V30 7687 N 725.426 0.887854 -2.76705 0
M  V30 7688 H 724.973 0.0141402 -2.57596 0
M  V30 7689 H 724.931 1.74263 -2.61686 0
M  V30 7690 N 728.703 1.26451 -0.940633 0
M  V30 7691 C 729.949 1.94065 -0.58878 0
M  V30 7692 C 730.282 1.7363 0.869853 0
M  V30 7693 O 729.557 1.073 1.62225 0
M  V30 7694 C 729.84 3.47852 -0.931199 0
M  V30 7695 C 729.693 3.77575 -2.44453 0
M  V30 7696 C 731.012 4.37832 -0.446229 0
M  V30 7697 H 728.131 0.704827 -0.21538 0
M  V30 7698 H 730.773 1.4933 -1.17475 0
M  V30 7699 H 728.923 3.86085 -0.432539 0
M  V30 7700 H 730.595 3.49059 -3.01588 0
M  V30 7701 H 728.838 3.23671 -2.88825 0
M  V30 7702 H 729.509 4.85068 -2.63464 0
M  V30 7703 H 731.985 4.06822 -0.873778 0
M  V30 7704 H 730.861 5.44228 -0.714648 0
M  V30 7705 H 731.122 4.37239 0.653815 0
M  V30 7706 N 730.181 0.707592 1.40822 0
M  V30 7707 C 731.409 0.253073 2.05346 0
M  V30 7708 C 731.824 -1.10218 1.53289 0
M  V30 7709 O 731.181 -1.69112 0.686105 0
M  V30 7710 C 731.232 0.215411 3.60858 0
M  V30 7711 O 730.953 1.51714 4.10992 0
M  V30 7712 C 732.454 -0.258636 4.42545 0
M  V30 7713 H 729.674 0.115256 0.661027 0
M  V30 7714 H 732.218 0.963555 1.80377 0
M  V30 7715 H 730.373 -0.445978 3.84824 0
M  V30 7716 H 730.787 1.41226 5.05129 0
M  V30 7717 H 732.261 -0.233849 5.51504 0
M  V30 7718 H 732.738 -1.2995 4.19535 0
M  V30 7719 H 733.344 0.372186 4.23668 0
M  V30 7720 N 731.66 -1.50943 0.453197 0
M  V30 7721 C 732.909 -2.01402 -0.10951 0
M  V30 7722 C 733.222 -1.3411 -1.42386 0
M  V30 7723 O 734.428 -1.75626 -2.07045 0
M  V30 7724 C 732.884 -3.5906 -0.245693 0
M  V30 7725 C 732.492 -4.353 1.05916 0
M  V30 7726 C 734.236 -4.17617 -0.761318 0
M  V30 7727 C 732.143 -5.84699 0.887752 0
M  V30 7728 H 731.073 -0.752674 -0.0447013 0
M  V30 7729 H 733.724 -1.73913 0.585375 0
M  V30 7730 H 732.106 -3.83062 -1.00395 0
M  V30 7731 H 733.28 -4.23034 1.82698 0
M  V30 7732 H 731.595 -3.88269 1.50452 0
M  V30 7733 H 734.192 -5.26963 -0.906306 0
M  V30 7734 H 734.535 -3.77824 -1.74799 0
M  V30 7735 H 735.068 -3.97753 -0.0609416 0
M  V30 7736 H 731.807 -6.28933 1.84726 0
M  V30 7737 H 731.327 -5.99587 0.160006 0
M  V30 7738 H 733.006 -6.44682 0.547223 0
M  V30 7739 N 733.138 -0.185124 -1.56509 0
M  V30 7740 C 734.363 0.465278 -2.02114 0
M  V30 7741 C 734.788 1.55083 -1.06447 0
M  V30 7742 O 734.146 1.81241 -0.0462852 0
M  V30 7743 C 734.194 1.00784 -3.46229 0
M  V30 7744 O 733.298 2.12123 -3.53663 0
M  V30 7745 H 732.639 0.109891 -0.654843 0
M  V30 7746 H 735.169 -0.293072 -2.0249 0
M  V30 7747 H 735.179 1.32697 -3.85818 0
M  V30 7748 H 733.854 0.213113 -4.15354 0
M  V30 7749 H 732.431 1.8115 -3.25943 0
M  V30 7750 N 734.616 1.57351 0.0885366 0
M  V30 7751 C 735.841 1.91011 0.80805 0
M  V30 7752 C 736.266 0.780009 1.71165 0
M  V30 7753 O 735.624 -0.268083 1.79307 0
M  V30 7754 C 735.672 3.23562 1.59185 0
M  V30 7755 O 734.776 3.11615 2.7013 0
M  V30 7756 H 734.117 0.625943 0.221565 0
M  V30 7757 H 736.647 2.04507 0.0617954 0
M  V30 7758 H 736.657 3.5703 1.97468 0
M  V30 7759 H 735.332 4.05398 0.928741 0
M  V30 7760 H 733.909 2.89673 2.34827 0
M  V30 7761 N 736.094 -0.359525 1.53444 0
M  V30 7762 C 737.024 -1.44662 1.8329 0
M  V30 7763 C 738.005 -1.55617 0.68683 0
M  V30 7764 O 739.19 -1.70086 0.93725 0
M  V30 7765 C 736.32 -2.81923 2.02822 0
M  V30 7766 C 735.274 -2.85787 3.18606 0
M  V30 7767 C 734.6 -4.25781 3.23442 0
M  V30 7768 C 735.9 -2.52762 4.57065 0
M  V30 7769 H 737.594 -1.19934 2.74329 0
M  V30 7770 H 735.14 -0.575517 1.31999 0
M  V30 7771 H 737.093 -3.58005 2.22285 0
M  V30 7772 H 735.817 -3.08051 1.085 0
M  V30 7773 H 734.476 -2.12157 2.98973 0
M  V30 7774 H 734.124 -4.48994 2.26745 0
M  V30 7775 H 733.824 -4.29281 4.01238 0
M  V30 7776 H 735.348 -5.03727 3.45096 0
M  V30 7777 H 736.762 -3.18557 4.76649 0
M  V30 7778 H 735.159 -2.67569 5.37147 0
M  V30 7779 H 736.229 -1.47993 4.61764 0
M  V30 7780 N 737.572 -1.44907 -0.619662 0
M  V30 7781 C 738.519 -1.52654 -1.73105 0
M  V30 7782 C 739.489 -0.373334 -1.6185 0
M  V30 7783 O 740.674 -0.585143 -1.81606 0
M  V30 7784 C 737.814 -1.48769 -3.11387 0
M  V30 7785 C 736.927 -2.74551 -3.33535 0
M  V30 7786 C 736.062 -2.62421 -4.61854 0
M  V30 7787 C 735.101 -3.83312 -4.77219 0
M  V30 7788 N 734.238 -3.69789 -5.96826 0
M  V30 7789 H 739.078 -2.47605 -1.65819 0
M  V30 7790 H 736.615 -1.22875 -0.808719 0
M  V30 7791 H 738.573 -1.44507 -3.91374 0
M  V30 7792 H 737.203 -0.573783 -3.1766 0
M  V30 7793 H 736.255 -2.88953 -2.47408 0
M  V30 7794 H 737.567 -3.64253 -3.40765 0
M  V30 7795 H 736.721 -2.56056 -5.50019 0
M  V30 7796 H 735.46 -1.70298 -4.57001 0
M  V30 7797 H 734.465 -3.90049 -3.87481 0
M  V30 7798 H 735.69 -4.76486 -4.83878 0
M  V30 7799 H 733.636 -2.80426 -5.93041 0
M  V30 7800 H 733.553 -4.53116 -6.05163 0
M  V30 7801 H 734.821 -3.67335 -6.87521 0
M  V30 7802 N 739.05 0.861098 -1.31996 0
M  V30 7803 C 740.461 1.43065 -1.19955 0
M  V30 7804 C 740.812 1.95273 0.190489 0
M  V30 7805 O 739.937 1.87012 1.08882 0
M  V30 7806 C 740.532 2.60052 -2.1716 0
M  V30 7807 C 739.091 3.13026 -2.09026 0
M  V30 7808 C 738.238 1.85756 -2.05888 0
M  V30 7809 H 741.189 0.668834 -1.43918 0
M  V30 7810 H 741.21 3.37016 -1.76637 0
M  V30 7811 H 740.722 2.22024 -3.18319 0
M  V30 7812 H 738.823 3.55653 -1.11092 0
M  V30 7813 H 738.936 3.74707 -2.98549 0
M  V30 7814 H 737.3 2.05088 -1.51033 0
M  V30 7815 H 738.083 1.49954 -3.08818 0
M  V30 7816 N 740.528 1.15101 1.07655 0
M  V30 7817 C 741.805 0.834578 1.76902 0
M  V30 7818 C 742.185 -0.670431 2.00171 0
M  V30 7819 O 741.533 -1.61378 1.6177 0
M  V30 7820 C 741.743 1.64191 3.07965 0
M  V30 7821 C 743.091 1.84615 3.82364 0
M  V30 7822 O 744.115 1.60941 3.17768 0
M  V30 7823 O 742.974 2.24244 4.98374 0
M  V30 7824 H 740.068 0.306608 0.768063 0
M  V30 7825 H 742.614 1.25663 1.14048 0
M  V30 7826 H 741.386 2.66386 2.86626 0
M  V30 7827 H 741.009 1.216 3.78549 0
M  V30 7828 N 742.006 -1.2595 0.947325 0
M  V30 7829 C 743.234 -1.97544 0.615127 0
M  V30 7830 C 743.649 -1.70484 -0.811221 0
M  V30 7831 O 743.006 -0.97662 -1.5417 0
M  V30 7832 C 743.057 -3.51236 0.855328 0
M  V30 7833 O 742.778 -3.77359 2.22558 0
M  V30 7834 C 744.279 -4.40066 0.534515 0
M  V30 7835 H 741.499 -0.629888 0.231263 0
M  V30 7836 H 744.043 -1.60308 1.26971 0
M  V30 7837 H 742.198 -3.8661 0.247266 0
M  V30 7838 H 742.612 -4.71857 2.29022 0
M  V30 7839 H 744.086 -5.46838 0.753168 0
M  V30 7840 H 744.563 -4.35982 -0.530701 0
M  V30 7841 H 745.169 -4.10245 1.12158 0
M  V30 7842 N 743.484 -0.715051 -1.40445 0
M  V30 7843 C 744.733 -0.251322 -2.00128 0
M  V30 7844 C 745.046 1.16194 -1.57347 0
M  V30 7845 O 746.252 1.72416 -2.09726 0
M  V30 7846 C 744.708 -0.398407 -3.57688 0
M  V30 7847 C 744.316 -1.81828 -4.09442 0
M  V30 7848 C 746.06 0.00455625 -4.245 0
M  V30 7849 C 743.967 -1.91598 -5.59503 0
M  V30 7850 H 742.897 -0.0902081 -0.748584 0
M  V30 7851 H 745.548 -0.886062 -1.6069 0
M  V30 7852 H 743.93 0.304908 -3.94824 0
M  V30 7853 H 745.104 -2.55193 -3.83684 0
M  V30 7854 H 743.419 -2.17266 -3.55225 0
M  V30 7855 H 746.016 -0.0477303 -5.34679 0
M  V30 7856 H 746.359 1.04636 -4.02935 0
M  V30 7857 H 746.892 -0.649184 -3.92467 0
M  V30 7858 H 743.631 -2.93898 -5.85922 0
M  V30 7859 H 743.151 -1.22644 -5.87127 0
M  V30 7860 H 744.83 -1.68785 -6.24596 0
M  V30 7861 N 744.962 1.50701 -0.461195 0
M  V30 7862 C 746.192 2.06381 0.0950376 0
M  V30 7863 C 746.6 1.32627 1.34933 0
M  V30 7864 O 745.943 0.386137 1.79596 0
M  V30 7865 C 746.005 3.56558 0.458965 0
M  V30 7866 C 745.669 4.51732 -0.691891 0
M  V30 7867 C 746.666 4.95594 -1.57105 0
M  V30 7868 C 744.351 4.94542 -0.879407 0
M  V30 7869 C 746.345 5.80963 -2.62223 0
M  V30 7870 C 744.032 5.79695 -1.93382 0
M  V30 7871 C 745.03 6.22806 -2.80359 0
M  V30 7872 O 744.718 7.06265 -3.83986 0
M  V30 7873 H 744.45 0.676 0.000687488 0
M  V30 7874 H 747.004 1.94974 -0.646087 0
M  V30 7875 H 745.234 3.65832 1.25314 0
M  V30 7876 H 746.923 3.94647 0.949124 0
M  V30 7877 H 747.689 4.63197 -1.43783 0
M  V30 7878 H 743.568 4.60513 -0.211907 0
M  V30 7879 H 747.112 6.14533 -3.30143 0
M  V30 7880 H 743.009 6.11506 -2.06715 0
M  V30 7881 H 743.777 7.24494 -3.80855 0
M  V30 7882 N 746.441 0.193421 1.56409 0
M  V30 7883 C 747.687 -0.446449 1.97825 0
M  V30 7884 C 748.02 -1.61386 1.08019 0
M  V30 7885 O 747.295 -1.94053 0.131839 0
M  V30 7886 C 747.578 -0.908199 3.48459 0
M  V30 7887 C 747.431 0.260914 4.49043 0
M  V30 7888 C 748.75 -1.77428 4.0275 0
M  V30 7889 H 745.869 -0.160807 0.719243 0
M  V30 7890 H 748.511 0.284006 1.87865 0
M  V30 7891 H 746.661 -1.53062 3.57077 0
M  V30 7892 H 748.333 0.898548 4.52464 0
M  V30 7893 H 746.576 0.912949 4.24085 0
M  V30 7894 H 747.247 -0.104657 5.51901 0
M  V30 7895 H 749.723 -1.24936 3.96901 0
M  V30 7896 H 748.599 -2.06633 5.08521 0
M  V30 7897 H 748.86 -2.72788 3.47907 0
M  V30 7898 N 747.919 -1.57396 -0.0801906 0
M  V30 7899 C 749.166 -1.86836 -0.780927 0
M  V30 7900 C 749.494 -0.784012 -1.77999 0
M  V30 7901 O 748.749 0.220881 -1.94449 0
M  V30 7902 C 749.048 -3.22915 -1.53169 0
M  V30 7903 C 748.714 -4.45843 -0.67339 0
M  V30 7904 C 747.376 -4.79213 -0.436829 0
M  V30 7905 C 749.728 -5.21142 -0.0776786 0
M  V30 7906 C 747.056 -5.853 0.405062 0
M  V30 7907 C 749.408 -6.28119 0.751619 0
M  V30 7908 C 748.072 -6.59995 0.998131 0
M  V30 7909 H 747.342 -0.683682 -0.285761 0
M  V30 7910 H 749.989 -1.91454 -0.0419435 0
M  V30 7911 H 748.294 -3.14049 -2.34265 0
M  V30 7912 H 749.991 -3.42926 -2.07853 0
M  V30 7913 H 746.581 -4.19721 -0.867891 0
M  V30 7914 H 750.765 -4.95682 -0.247572 0
M  V30 7915 H 746.021 -6.084 0.60488 0
M  V30 7916 H 750.195 -6.8563 1.22 0
M  V30 7917 H 747.822 -7.42027 1.65227 0
M  V30 7918 N 749.397 0.351382 -1.53633 0
M  V30 7919 C 750.329 1.45159 -1.77374 0
M  V30 7920 C 751.342 1.4905 -0.654826 0
M  V30 7921 O 752.531 1.52274 -0.931396 0
M  V30 7922 C 749.631 2.83858 -1.85143 0
M  V30 7923 C 748.804 3.03498 -3.14972 0
M  V30 7924 C 747.863 4.22393 -3.138 0
M  V30 7925 O 746.889 4.16885 -3.87551 0
M  V30 7926 N 748.091 5.30533 -2.35617 0
M  V30 7927 H 750.856 1.25167 -2.72311 0
M  V30 7928 H 748.417 0.54121 -1.52586 0
M  V30 7929 H 750.409 3.61557 -1.8182 0
M  V30 7930 H 748.979 2.9703 -0.974275 0
M  V30 7931 H 748.199 2.13336 -3.31484 0
M  V30 7932 H 749.487 3.13498 -4.00745 0
M  V30 7933 H 748.885 5.37875 -1.75235 0
M  V30 7934 H 747.442 6.06756 -2.38098 0
M  V30 7935 N 750.875 1.45233 0.611969 0
M  V30 7936 C 752.124 1.48296 1.36716 0
M  V30 7937 C 752.437 0.12706 1.95187 0
M  V30 7938 O 753.643 0.0353066 2.71477 0
M  V30 7939 C 752.099 2.61168 2.47627 0
M  V30 7940 C 751.707 4.03051 1.95587 0
M  V30 7941 C 753.451 2.73472 3.24674 0
M  V30 7942 C 751.358 5.07312 3.03954 0
M  V30 7943 H 750.288 0.5518 0.513841 0
M  V30 7944 H 752.939 1.7136 0.656359 0
M  V30 7945 H 751.321 2.31379 3.21372 0
M  V30 7946 H 752.495 4.42497 1.2858 0
M  V30 7947 H 750.81 3.95158 1.31298 0
M  V30 7948 H 753.407 3.48537 4.05494 0
M  V30 7949 H 753.75 1.79953 3.75397 0
M  V30 7950 H 754.283 3.02765 2.58028 0
M  V30 7951 H 751.022 6.02525 2.58154 0
M  V30 7952 H 750.542 4.7244 3.69541 0
M  V30 7953 H 752.221 5.31867 3.6841 0
M  V30 7954 N 752.353 -0.854086 1.3245 0
M  V30 7955 C 753.769 -1.14238 1.11453 0
M  V30 7956 C 753.969 -2.01228 -0.10461 0
M  V30 7957 O 753.025 -2.39845 -0.789339 0
M  V30 7958 C 754.338 -1.81916 2.39431 0
M  V30 7959 C 755.886 -1.94549 2.45193 0
M  V30 7960 C 756.361 -2.65642 3.73093 0
M  V30 7961 N 757.852 -2.73167 3.74078 0
M  V30 7962 C 758.587 -3.28828 4.69744 0
M  V30 7963 N 758.083 -3.85295 5.75778 0
M  V30 7964 N 759.876 -3.26936 4.57241 0
M  V30 7965 H 752.027 -0.274786 2.10615 0
M  V30 7966 H 754.29 -0.184375 0.929898 0
M  V30 7967 H 753.996 -1.25452 3.28565 0
M  V30 7968 H 753.87 -2.82068 2.50434 0
M  V30 7969 H 756.257 -2.50172 1.56518 0
M  V30 7970 H 756.338 -0.933914 2.38142 0
M  V30 7971 H 755.982 -2.10683 4.62142 0
M  V30 7972 H 755.912 -3.6724 3.77415 0
M  V30 7973 H 758.403 -2.33108 2.97438 0
M  V30 7974 H 758.716 -4.25925 6.44832 0
M  V30 7975 H 757.061 -3.83625 5.79531 0
M  V30 7976 H 760.252 -2.8207 3.7357 0
M  V30 7977 H 760.425 -3.70014 5.31971 0
M  V30 7978 N 753.831 -1.1567 -1.07043 0
M  V30 7979 C 754.794 -0.858906 -2.12498 0
M  V30 7980 C 755.794 0.142735 -1.60165 0
M  V30 7981 O 756.984 -0.0872678 -1.73981 0
M  V30 7982 C 754.116 -0.283021 -3.39723 0
M  V30 7983 H 755.309 -1.79368 -2.40348 0
M  V30 7984 H 752.862 -0.964608 -1.22984 0
M  V30 7985 H 753.597 0.659796 -3.17517 0
M  V30 7986 H 753.382 -1.00467 -3.7901 0
M  V30 7987 H 754.872 -0.0923543 -4.17498 0
M  V30 7988 N 755.309 1.25446 -0.953992 0
M  V30 7989 C 756.725 1.4539 -0.658316 0
M  V30 7990 C 756.925 1.85607 0.784356 0
M  V30 7991 O 755.981 1.98568 1.55972 0
M  V30 7992 C 757.294 2.52643 -1.6307 0
M  V30 7993 C 758.842 2.66484 -1.64181 0
M  V30 7994 C 759.317 3.76921 -2.60182 0
M  V30 7995 N 760.808 3.84331 -2.58542 0
M  V30 7996 C 761.543 4.69271 -3.29503 0
M  V30 7997 N 761.039 5.58503 -4.09934 0
M  V30 7998 N 762.832 4.6323 -3.18393 0
M  V30 7999 H 754.983 0.976337 -1.8863 0
M  V30 8000 H 757.246 0.490343 -0.811337 0
M  V30 8001 H 756.952 2.29949 -2.66114 0
M  V30 8002 H 756.826 3.50547 -1.39271 0
M  V30 8003 H 759.213 2.88545 -0.618552 0
M  V30 8004 H 759.294 1.68982 -1.92038 0
M  V30 8005 H 758.938 3.55612 -3.62633 0
M  V30 8006 H 758.868 4.73906 -2.29609 0
M  V30 8007 H 761.359 3.20544 -2.0015 0
M  V30 8008 H 761.672 6.20241 -4.61 0
M  V30 8009 H 760.017 5.58214 -4.14032 0
M  V30 8010 H 763.208 3.92527 -2.5503 0
M  V30 8011 H 763.381 5.29204 -3.73961 0
M  V30 8012 N 756.787 0.722489 1.40064 0
M  V30 8013 C 758.015 0.274838 2.05066 0
M  V30 8014 C 758.43 -1.08586 1.54449 0
M  V30 8015 O 757.787 -1.68375 0.704003 0
M  V30 8016 C 757.838 0.253673 3.60609 0
M  V30 8017 O 757.559 1.56064 4.0936 0
M  V30 8018 C 759.06 -0.211684 4.42794 0
M  V30 8019 H 756.28 0.12226 0.659768 0
M  V30 8020 H 758.824 0.982632 1.79345 0
M  V30 8021 H 756.979 -0.405137 3.85276 0
M  V30 8022 H 757.393 1.46576 5.03603 0
M  V30 8023 H 758.867 -0.175341 5.51721 0
M  V30 8024 H 759.344 -1.25493 4.2089 0
M  V30 8025 H 759.95 0.4171 4.2325 0
M  V30 8026 N 758.265 -1.50454 0.469181 0
M  V30 8027 C 759.228 -2.2703 -0.314643 0
M  V30 8028 C 760.228 -1.31734 -0.922111 0
M  V30 8029 O 761.418 -1.55176 -0.791588 0
M  V30 8030 C 758.55 -3.08616 -1.44806 0
M  V30 8031 H 759.743 -2.97769 0.356892 0
M  V30 8032 H 757.296 -1.54698 0.223191 0
M  V30 8033 H 758.031 -2.42369 -2.1547 0
M  V30 8034 H 757.816 -3.78647 -1.01829 0
M  V30 8035 H 759.306 -3.66536 -2.00103 0
M  V30 8036 N 759.743 -0.201713 -1.56304 0
M  V30 8037 C 760.706 0.702811 -2.18159 0
M  V30 8038 C 761.706 1.13619 -1.13787 0
M  V30 8039 O 762.896 1.0482 -1.39134 0
M  V30 8040 C 760.028 1.96032 -2.78898 0
M  V30 8041 H 761.221 0.163836 -2.99452 0
M  V30 8042 H 758.774 0.04791 -1.56227 0
M  V30 8043 H 759.509 2.54165 -2.01421 0
M  V30 8044 H 759.294 1.65824 -3.55309 0
M  V30 8045 H 760.784 2.60519 -3.26373 0
M  V30 8046 N 761.222 1.57436 0.0718424 0
M  V30 8047 C 762.47 1.86878 0.769484 0
M  V30 8048 C 762.791 0.7937 1.78116 0
M  V30 8049 O 762.061 -0.177642 1.95093 0
M  V30 8050 H 760.641 0.689593 0.287177 0
M  V30 8051 H 763.303 1.94841 0.0479427 0
M  V30 8052 H 762.399 2.84387 1.28572 0
M  V30 8053 N 762.7 -0.34323 1.53817 0
M  V30 8054 C 763.93 -1.10188 1.74763 0
M  V30 8055 C 764.338 -1.82829 0.486856 0
M  V30 8056 O 763.681 -1.75236 -0.551198 0
M  V30 8057 C 763.743 -2.16 2.87375 0
M  V30 8058 C 763.407 -1.62931 4.26969 0
M  V30 8059 C 764.404 -1.08147 5.08528 0
M  V30 8060 C 762.089 -1.67769 4.73454 0
M  V30 8061 C 764.083 -0.589039 6.34672 0
M  V30 8062 C 761.77 -1.18138 5.99572 0
M  V30 8063 C 762.768 -0.637979 6.80014 0
M  V30 8064 O 762.456 -0.149073 8.03762 0
M  V30 8065 H 762.188 -0.33445 0.587469 0
M  V30 8066 H 764.742 -0.401109 2.01445 0
M  V30 8067 H 762.972 -2.89637 2.56218 0
M  V30 8068 H 764.661 -2.77432 2.96287 0
M  V30 8069 H 765.427 -1.03732 4.73777 0
M  V30 8070 H 761.306 -2.09004 4.10899 0
M  V30 8071 H 764.85 -0.164233 6.97407 0
M  V30 8072 H 760.747 -1.22254 6.33817 0
M  V30 8073 H 761.515 -0.266332 8.18067 0
M  V30 8074 N 764.178 -1.45556 -0.604258 0
M  V30 8075 C 765.426 -1.4945 -1.36048 0
M  V30 8076 C 765.747 -0.138933 -1.94504 0
M  V30 8077 O 765.017 0.832097 -1.7735 0
M  V30 8078 H 763.597 -0.550381 -0.505064 0
M  V30 8079 H 766.259 -1.81535 -0.709308 0
M  V30 8080 H 765.355 -2.23519 -2.17821 0
M  V30 8081 N 765.656 0.84705 -1.32902 0
M  V30 8082 C 766.884 1.63403 -1.26913 0
M  V30 8083 C 767.299 1.88108 0.161483 0
M  V30 8084 O 766.656 1.45546 1.10103 0
M  V30 8085 C 766.707 2.98896 -2.03331 0
M  V30 8086 O 766.428 2.75281 -3.40811 0
M  V30 8087 C 767.929 3.93335 -2.04457 0
M  V30 8088 H 765.149 0.508701 -0.437566 0
M  V30 8089 H 767.693 1.05567 -1.75145 0
M  V30 8090 H 765.848 3.53356 -1.58802 0
M  V30 8091 H 766.262 3.61504 -3.8002 0
M  V30 8092 H 767.736 4.85647 -2.62394 0
M  V30 8093 H 768.213 4.26885 -1.03274 0
M  V30 8094 H 768.819 3.44812 -2.48967 0
M  V30 8095 N 767.134 1.16236 1.06428 0
M  V30 8096 C 768.082 0.863669 2.15971 0
M  V30 8097 C 769.076 -0.166723 1.68578 0
M  V30 8098 O 770.282 -0.0208425 1.79988 0
M  V30 8099 H 766.657 0.261684 0.705 0
M  V30 8100 H 768.628 1.79498 2.38376 0
M  V30 8101 C 767.377 0.379697 3.45621 0
M  V30 8102 H 766.7 1.16399 3.82481 0
M  V30 8103 H 768.14 0.209458 4.23482 0
M  V30 8104 C 766.599 -0.900499 3.24642 0
M  V30 8105 O 767.129 -1.97004 3.50074 0
M  V30 8106 N 765.335 -0.843721 2.78082 0
M  V30 8107 H 764.882 0.0268429 2.57586 0
M  V30 8108 H 764.84 -1.70078 2.64425 0
M  V30 8109 N 768.612 -1.24939 0.960631 0
M  V30 8110 C 769.837 -1.9742 0.635608 0
M  V30 8111 C 770.262 -1.70857 -0.786737 0
M  V30 8112 O 769.62 -0.968063 -1.53291 0
M  V30 8113 C 769.668 -3.48987 0.907771 0
M  V30 8114 O 768.772 -4.12399 -0.0104053 0
M  V30 8115 H 768.113 -0.61871 0.241027 0
M  V30 8116 H 770.643 -1.58901 1.28886 0
M  V30 8117 H 770.653 -3.99334 0.836453 0
M  V30 8118 H 769.328 -3.6765 1.94439 0
M  V30 8119 H 767.905 -3.72727 0.113631 0
M  V30 8120 N 770.09 -0.729906 -1.39679 0
M  V30 8121 C 771.506 -0.404951 -1.54377 0
M  V30 8122 C 771.706 1.08476 -1.6981 0
M  V30 8123 O 770.762 1.87087 -1.69572 0
M  V30 8124 C 772.075 -1.18352 -2.76429 0
M  V30 8125 C 773.623 -1.17124 -2.9026 0
M  V30 8126 C 774.098 -1.93227 -4.15244 0
M  V30 8127 N 775.589 -1.90368 -4.22273 0
M  V30 8128 C 776.324 -2.46065 -5.17918 0
M  V30 8129 N 775.82 -3.10378 -6.19385 0
M  V30 8130 N 777.613 -2.36127 -5.10099 0
M  V30 8131 H 769.764 -1.69567 -1.27909 0
M  V30 8132 H 772.027 -0.717527 -0.619564 0
M  V30 8133 H 771.733 -2.23743 -2.71352 0
M  V30 8134 H 771.607 -0.784589 -3.6895 0
M  V30 8135 H 773.994 -0.125478 -2.94833 0
M  V30 8136 H 774.075 -1.60951 -1.98817 0
M  V30 8137 H 773.719 -2.97802 -4.11432 0
M  V30 8138 H 773.649 -1.4681 -5.05722 0
M  V30 8139 H 776.14 -1.4351 -3.4959 0
M  V30 8140 H 776.453 -3.50358 -6.88817 0
M  V30 8141 H 774.798 -3.14467 -6.19787 0
M  V30 8142 H 777.989 -1.85529 -4.29763 0
M  V30 8143 H 778.162 -2.79833 -5.84463 0
M  V30 8144 N 771.568 1.50203 -0.477153 0
M  V30 8145 C 772.515 2.28656 0.31386 0
M  V30 8146 C 773.485 1.33977 0.981802 0
M  V30 8147 O 774.67 1.62919 0.993072 0
M  V30 8148 C 771.81 3.16027 1.38639 0
M  V30 8149 C 770.923 4.25743 0.732615 0
M  V30 8150 C 770.058 5.00363 1.78355 0
M  V30 8151 C 769.097 6.01945 1.11035 0
M  V30 8152 N 768.234 6.6982 2.10441 0
M  V30 8153 H 773.074 2.958 -0.361445 0
M  V30 8154 H 770.611 1.45867 -0.190093 0
M  V30 8155 H 772.569 3.6504 2.01994 0
M  V30 8156 H 771.199 2.50917 2.03077 0
M  V30 8157 H 770.251 3.80398 -0.0136546 0
M  V30 8158 H 771.563 4.98393 0.201513 0
M  V30 8159 H 770.717 5.53124 2.49276 0
M  V30 8160 H 769.456 4.27432 2.34847 0
M  V30 8161 H 768.461 5.48438 0.386797 0
M  V30 8162 H 769.686 6.76851 0.552248 0
M  V30 8163 H 767.632 5.99677 2.65939 0
M  V30 8164 H 767.549 7.38366 1.62332 0
M  V30 8165 H 768.817 7.27196 2.80724 0
M  V30 8166 N 773.046 0.209999 1.56195 0
M  V30 8167 C 774.293 -0.424813 1.97994 0
M  V30 8168 C 774.621 -1.60589 1.09733 0
M  V30 8169 O 773.876 -1.95201 0.139693 0
M  V30 8170 C 774.175 -0.91312 3.45539 0
M  V30 8171 C 773.841 0.156187 4.50629 0
M  V30 8172 C 772.503 0.449966 4.79092 0
M  V30 8173 C 774.855 0.879959 5.13718 0
M  V30 8174 C 772.183 1.47223 5.67928 0
M  V30 8175 C 774.535 1.89148 6.0366 0
M  V30 8176 C 773.199 2.1923 6.30472 0
M  V30 8177 H 772.469 -0.15545 0.724511 0
M  V30 8178 H 775.116 0.310095 1.88973 0
M  V30 8179 H 773.421 -1.72658 3.51705 0
M  V30 8180 H 775.118 -1.41395 3.75245 0
M  V30 8181 H 771.708 -0.0829466 4.2852 0
M  V30 8182 H 775.892 0.66623 4.91808 0
M  V30 8183 H 771.148 1.71105 5.86969 0
M  V30 8184 H 775.322 2.45745 6.516 0
M  V30 8185 H 772.949 2.98587 6.99107 0
M  V30 8186 N 774.524 -1.57472 -0.0634922 0
M  V30 8187 C 775.434 -2.07621 -1.09227 0
M  V30 8188 C 776.45 -1.00746 -1.41867 0
M  V30 8189 O 777.626 -1.32269 -1.51878 0
M  V30 8190 C 774.691 -2.51707 -2.38421 0
M  V30 8191 C 773.752 -3.72917 -2.12676 0
M  V30 8192 C 772.985 -4.14891 -3.3571 0
M  V30 8193 O 773.208 -3.56663 -4.45137 0
M  V30 8194 O 772.142 -5.07616 -3.23434 0
M  V30 8195 H 775.968 -2.95612 -0.696205 0
M  V30 8196 H 773.553 -1.46787 -0.27819 0
M  V30 8197 H 775.435 -2.80547 -3.14438 0
M  V30 8198 H 774.11 -1.66842 -2.77391 0
M  V30 8199 H 773.017 -3.49148 -1.34337 0
M  V30 8200 H 774.35 -4.5866 -1.78583 0
M  V30 8201 N 776.003 0.335068 -1.53997 0
M  V30 8202 C 777.25 1.07435 -1.71651 0
M  V30 8203 C 777.578 1.88378 -0.48413 0
M  V30 8204 O 776.833 1.8827 0.534139 0
M  V30 8205 C 777.132 2.0364 -2.9371 0
M  V30 8206 C 776.798 1.38942 -4.28959 0
M  V30 8207 C 775.46 1.21027 -4.65732 0
M  V30 8208 C 777.812 0.924083 -5.12943 0
M  V30 8209 C 775.14 0.552097 -5.84097 0
M  V30 8210 C 777.492 0.27978 -6.31981 0
M  V30 8211 C 776.156 0.0883843 -6.67441 0
M  V30 8212 H 775.426 0.393133 -0.628114 0
M  V30 8213 H 778.073 0.352712 -1.88224 0
M  V30 8214 H 776.378 2.82215 -2.71775 0
M  V30 8215 H 778.075 2.6085 -3.04562 0
M  V30 8216 H 774.665 1.53885 -4.00022 0
M  V30 8217 H 778.849 1.05032 -4.85059 0
M  V30 8218 H 774.105 0.392502 -6.10139 0
M  V30 8219 H 778.279 -0.0888479 -6.96343 0
M  V30 8220 H 775.906 -0.423657 -7.59019 0
M  V30 8221 N 777.481 1.45874 0.596531 0
M  V30 8222 C 778.391 1.57947 1.73464 0
M  V30 8223 C 779.407 0.463461 1.67714 0
M  V30 8224 O 780.583 0.725685 1.87872 0
M  V30 8225 C 777.648 1.55348 3.09948 0
M  V30 8226 C 776.709 2.78074 3.27068 0
M  V30 8227 C 775.942 2.75589 4.57041 0
M  V30 8228 O 776.165 1.83545 5.40063 0
M  V30 8229 O 775.099 3.66945 4.77111 0
M  V30 8230 H 778.925 2.54169 1.66228 0
M  V30 8231 H 776.51 1.2851 0.76194 0
M  V30 8232 H 778.392 1.56545 3.91244 0
M  V30 8233 H 777.067 0.622811 3.17652 0
M  V30 8234 H 775.974 2.82435 2.45319 0
M  V30 8235 H 777.307 3.70303 3.24248 0
M  V30 8236 N 778.959 -0.83999 1.33349 0
M  V30 8237 C 780.187 -1.62728 1.27778 0
M  V30 8238 C 780.602 -1.88191 -0.151505 0
M  V30 8239 O 779.959 -1.46128 -1.09329 0
M  V30 8240 C 780.01 -2.97813 2.04913 0
M  V30 8241 O 779.731 -2.73469 3.42266 0
M  V30 8242 C 781.232 -3.92245 2.0654 0
M  V30 8243 H 778.452 -0.506374 0.440257 0
M  V30 8244 H 780.996 -1.04637 1.75703 0
M  V30 8245 H 779.151 -3.52509 1.60674 0
M  V30 8246 H 779.565 -3.59483 3.81932 0
M  V30 8247 H 781.039 -4.84249 2.64966 0
M  V30 8248 H 781.516 -4.26332 1.05537 0
M  V30 8249 H 782.122 -3.43487 2.50793 0
M  V30 8250 N 780.437 -1.16799 -1.0581 0
M  V30 8251 C 781.662 -0.977402 -1.82925 0
M  V30 8252 C 782.087 0.469514 -1.82146 0
M  V30 8253 O 781.445 1.33576 -1.22585 0
M  V30 8254 C 781.493 -1.51543 -3.27211 0
M  V30 8255 O 780.597 -0.725021 -4.05977 0
M  V30 8256 H 779.938 -0.347474 -0.565825 0
M  V30 8257 H 782.468 -1.55151 -1.33376 0
M  V30 8258 H 782.478 -1.53502 -3.78023 0
M  V30 8259 H 781.153 -2.56872 -3.27093 0
M  V30 8260 H 779.73 -0.77634 -3.64729 0
M  V30 8261 N 781.915 1.24427 -0.967243 0
M  V30 8262 C 783.326 1.74349 -0.667785 0
M  V30 8263 C 783.677 1.78403 0.816509 0
M  V30 8264 O 782.802 1.41315 1.63887 0
M  V30 8265 C 783.397 3.16628 -1.20548 0
M  V30 8266 C 781.956 3.64059 -0.955934 0
M  V30 8267 C 781.103 2.42715 -1.34106 0
M  V30 8268 H 784.054 1.10136 -1.14262 0
M  V30 8269 H 784.075 3.76183 -0.571547 0
M  V30 8270 H 783.587 3.13646 -2.28578 0
M  V30 8271 H 781.688 3.72441 0.108858 0
M  V30 8272 H 781.801 4.51549 -1.60126 0
M  V30 8273 H 780.165 2.43114 -0.759452 0
M  V30 8274 H 780.948 2.42414 -2.43085 0
M  V30 8275 N 783.393 0.737304 1.3929 0
M  V30 8276 C 784.67 0.212464 1.94443 0
M  V30 8277 C 785.05 -1.28621 1.67391 0
M  V30 8278 O 784.398 -2.0529 1.00342 0
M  V30 8279 C 784.608 0.548565 3.44662 0
M  V30 8280 C 785.956 0.499177 4.21656 0
M  V30 8281 O 786.98 0.485892 3.5287 0
M  V30 8282 O 785.839 0.495739 5.44247 0
M  V30 8283 H 782.933 0.0395457 0.826054 0
M  V30 8284 H 785.479 0.816319 1.48776 0
M  V30 8285 H 784.251 1.58426 3.57795 0
M  V30 8286 H 783.874 -0.0841399 3.97511 0
M  V30 8287 N 784.871 -1.49948 0.485112 0
M  V30 8288 C 786.096 -2.073 -0.0645059 0
M  V30 8289 C 786.521 -1.345 -1.31497 0
M  V30 8290 O 785.879 -0.39687 -1.76903 0
M  V30 8291 C 785.927 -3.59201 -0.317304 0
M  V30 8292 O 785.031 -3.88085 -1.39514 0
M  V30 8293 H 784.372 -0.663723 0.0191822 0
M  V30 8294 H 786.902 -1.92963 0.680179 0
M  V30 8295 H 786.912 -4.04227 -0.553604 0
M  V30 8296 H 785.587 -4.11602 0.596387 0
M  V30 8297 H 784.164 -3.54885 -1.14504 0
M  V30 8298 N 786.349 -0.21828 -1.56081 0
M  V30 8299 C 787.596 0.414307 -1.98216 0
M  V30 8300 C 787.924 1.60005 -1.10584 0
M  V30 8301 O 787.179 1.95124 -0.150043 0
M  V30 8302 C 787.478 0.894782 -3.46018 0
M  V30 8303 C 787.144 -0.180083 -4.5054 0
M  V30 8304 C 785.806 -0.475367 -4.78846 0
M  V30 8305 C 788.158 -0.907191 -5.13244 0
M  V30 8306 C 785.486 -1.50233 -5.67139 0
M  V30 8307 C 787.838 -1.92347 -6.02649 0
M  V30 8308 C 786.502 -2.22571 -6.293 0
M  V30 8309 H 785.772 0.151606 -0.725325 0
M  V30 8310 H 788.419 -0.320113 -1.88806 0
M  V30 8311 H 786.724 1.7079 -3.52616 0
M  V30 8312 H 788.421 1.39403 -3.75989 0
M  V30 8313 H 785.011 0.06022 -4.28558 0
M  V30 8314 H 789.195 -0.692303 -4.91448 0
M  V30 8315 H 784.451 -1.74215 -5.86054 0
M  V30 8316 H 788.625 -2.49197 -6.50288 0
M  V30 8317 H 786.252 -3.0229 -6.97513 0
M  V30 8318 N 787.827 1.57504 0.0551401 0
M  V30 8319 C 789.052 1.92682 0.767352 0
M  V30 8320 C 789.477 0.81614 1.69472 0
M  V30 8321 O 788.835 -0.229989 1.79835 0
M  V30 8322 C 788.883 3.26866 1.52286 0
M  V30 8323 O 787.987 3.17274 2.63459 0
M  V30 8324 H 787.328 0.630502 0.208238 0
M  V30 8325 H 789.858 2.04592 0.0184026 0
M  V30 8326 H 789.868 3.61138 1.8985 0
M  V30 8327 H 788.543 4.07276 0.842541 0
M  V30 8328 H 787.12 2.94589 2.2863 0
M  V30 8329 N 789.305 -0.326896 1.54172 0
M  V30 8330 C 790.554 -1.06274 1.71431 0
M  V30 8331 C 790.867 -1.89282 0.493123 0
M  V30 8332 O 792.073 -2.65933 0.54699 0
M  V30 8333 C 790.529 -1.93892 3.03206 0
M  V30 8334 C 790.137 -1.16011 4.32719 0
M  V30 8335 C 791.881 -2.67232 3.29829 0
M  V30 8336 C 789.788 -2.02755 5.55558 0
M  V30 8337 H 788.718 -0.400475 0.638855 0
M  V30 8338 H 791.369 -0.321184 1.80667 0
M  V30 8339 H 789.751 -2.71933 2.87869 0
M  V30 8340 H 790.925 -0.427643 4.58811 0
M  V30 8341 H 789.24 -0.54367 4.12836 0
M  V30 8342 H 791.837 -3.32434 4.18798 0
M  V30 8343 H 792.18 -3.34692 2.47562 0
M  V30 8344 H 792.713 -1.96255 3.46018 0
M  V30 8345 H 789.452 -1.3981 6.40417 0
M  V30 8346 H 788.972 -2.73745 5.33689 0
M  V30 8347 H 790.651 -2.61419 5.91835 0
M  V30 8348 N 790.784 -1.46188 -0.588786 0
M  V30 8349 C 792.009 -1.5498 -1.37826 0
M  V30 8350 C 792.434 -0.189498 -1.87143 0
M  V30 8351 O 791.792 0.829293 -1.61222 0
M  V30 8352 C 791.84 -2.55369 -2.54596 0
M  V30 8353 O 790.944 -2.08452 -3.55839 0
M  V30 8354 H 790.285 -0.521741 -0.41071 0
M  V30 8355 H 792.815 -1.91708 -0.714779 0
M  V30 8356 H 792.825 -2.74782 -3.01594 0
M  V30 8357 H 791.5 -3.54155 -2.18052 0
M  V30 8358 H 790.077 -1.98999 -3.15363 0
M  V30 8359 N 792.262 0.832906 -1.33792 0
M  V30 8360 C 793.51 1.58539 -1.25338 0
M  V30 8361 C 793.831 1.94175 0.179204 0
M  V30 8362 O 793.101 1.61458 1.10941 0
M  V30 8363 H 791.681 0.58784 -0.460926 0
M  V30 8364 H 794.343 0.995064 -1.67584 0
M  V30 8365 H 793.439 2.51268 -1.85123 0
M  V30 8366 N 793.74 1.17359 1.05189 0
M  V30 8367 C 794.65 0.904984 2.16442 0
M  V30 8368 C 795.666 -0.12686 1.73537 0
M  V30 8369 O 796.842 0.0524127 2.01332 0
M  V30 8370 C 793.907 0.422019 3.44122 0
M  V30 8371 C 792.968 1.52045 4.01473 0
M  V30 8372 C 792.201 1.06044 5.23059 0
M  V30 8373 O 792.424 -0.0854023 5.70336 0
M  V30 8374 O 791.358 1.85349 5.72651 0
M  V30 8375 H 795.184 1.8356 2.41949 0
M  V30 8376 H 792.769 0.95447 1.14936 0
M  V30 8377 H 794.651 0.160208 4.21095 0
M  V30 8378 H 793.326 -0.480444 3.20115 0
M  V30 8379 H 792.233 1.83615 3.25939 0
M  V30 8380 H 793.566 2.39863 4.29798 0
M  V30 8381 N 795.218 -1.23913 0.973828 0
M  V30 8382 C 796.443 -1.96735 0.656511 0
M  V30 8383 C 796.868 -1.71682 -0.768571 0
M  V30 8384 O 796.226 -0.984267 -1.52256 0
M  V30 8385 C 796.274 -3.48004 0.944735 0
M  V30 8386 O 795.378 -4.12387 0.0333357 0
M  V30 8387 H 794.719 -0.616119 0.247575 0
M  V30 8388 H 797.249 -1.57525 1.30564 0
M  V30 8389 H 797.259 -3.98424 0.87876 0
M  V30 8390 H 795.934 -3.65567 1.98328 0
M  V30 8391 H 794.511 -3.72585 0.153157 0
M  V30 8392 N 796.696 -0.74468 -1.38897 0
M  V30 8393 C 797.921 -0.306119 -2.05128 0
M  V30 8394 C 798.346 1.0541 -1.55789 0
M  V30 8395 O 797.704 1.66993 -0.705909 0
M  V30 8396 C 797.752 -0.328195 -3.59103 0
M  V30 8397 O 796.856 0.680876 -4.06741 0
M  V30 8398 H 796.197 -0.137209 -0.649669 0
M  V30 8399 H 798.727 -1.01331 -1.77745 0
M  V30 8400 H 798.737 -0.175956 -4.0762 0
M  V30 8401 H 797.412 -1.32067 -3.94374 0
M  V30 8402 H 795.989 0.49398 -3.69614 0
M  V30 8403 N 798.174 1.49689 -0.493057 0
M  V30 8404 C 799.106 2.26867 0.326195 0
M  V30 8405 C 800.119 1.33083 0.937697 0
M  V30 8406 O 801.308 1.58427 0.822382 0
M  V30 8407 C 798.408 3.0519 1.4735 0
M  V30 8408 C 797.581 4.26491 0.970767 0
M  V30 8409 C 796.64 4.86926 1.99473 0
M  V30 8410 O 795.666 5.47221 1.56647 0
M  V30 8411 N 796.868 4.75871 3.32456 0
M  V30 8412 H 799.633 2.97816 -0.335547 0
M  V30 8413 H 797.194 1.58602 -0.325129 0
M  V30 8414 H 799.186 3.42496 2.15589 0
M  V30 8415 H 797.756 2.369 2.03954 0
M  V30 8416 H 796.976 3.94036 0.113529 0
M  V30 8417 H 798.264 5.05092 0.613156 0
M  V30 8418 H 797.662 4.2797 3.69944 0
M  V30 8419 H 796.219 5.17383 3.96431 0
M  V30 8420 N 799.652 0.226554 1.55963 0
M  V30 8421 C 800.898 -0.404387 1.98727 0
M  V30 8422 C 801.231 -1.59059 1.11418 0
M  V30 8423 O 800.506 -1.93729 0.172971 0
M  V30 8424 C 800.789 -0.834081 3.50307 0
M  V30 8425 C 800.642 0.356104 4.48388 0
M  V30 8426 C 801.961 -1.68845 4.06423 0
M  V30 8427 H 799.08 -0.145515 0.722492 0
M  V30 8428 H 801.722 0.323791 1.87221 0
M  V30 8429 H 799.872 -1.45454 3.60244 0
M  V30 8430 H 801.544 0.99432 4.50456 0
M  V30 8431 H 799.787 1.0027 4.22053 0
M  V30 8432 H 800.458 0.0124333 5.51999 0
M  V30 8433 H 802.934 -1.16489 3.99461 0
M  V30 8434 H 801.81 -1.958 5.1279 0
M  V30 8435 H 802.071 -2.65347 3.53615 0
M  V30 8436 N 801.13 -1.57531 -0.0467866 0
M  V30 8437 C 802.376 -1.8873 -0.742218 0
M  V30 8438 C 802.709 -0.822084 -1.75941 0
M  V30 8439 O 801.984 0.164922 -1.938 0
M  V30 8440 C 802.267 -3.30586 -1.42776 0
M  V30 8441 C 802.12 -4.47785 -0.425285 0
M  V30 8442 C 803.439 -3.71068 -2.36636 0
M  V30 8443 H 800.558 -0.686406 -0.268359 0
M  V30 8444 H 803.2 -1.89999 -0.00511341 0
M  V30 8445 H 801.35 -3.29634 -2.05605 0
M  V30 8446 H 803.022 -4.60867 0.199721 0
M  V30 8447 H 801.265 -4.33037 0.25713 0
M  V30 8448 H 801.936 -5.43884 -0.943086 0
M  V30 8449 H 804.412 -3.73273 -1.83866 0
M  V30 8450 H 803.288 -4.71165 -2.81593 0
M  V30 8451 H 803.549 -3.02355 -3.22542 0
M  V30 8452 N 802.608 0.318715 -1.54344 0
M  V30 8453 C 803.541 1.41644 -1.7892 0
M  V30 8454 C 804.519 1.495 -0.639421 0
M  V30 8455 O 805.703 1.66835 -0.877404 0
M  V30 8456 C 802.83 2.79701 -1.9101 0
M  V30 8457 C 801.876 2.89354 -3.13331 0
M  V30 8458 S 802.709 2.53264 -4.71824 0
M  V30 8459 C 803.865 3.93384 -4.86826 0
M  V30 8460 H 804.098 1.20585 -2.71747 0
M  V30 8461 H 801.631 0.515828 -1.45529 0
M  V30 8462 H 803.589 3.59227 -1.98661 0
M  V30 8463 H 802.25 2.9804 -0.991516 0
M  V30 8464 H 801.443 3.90574 -3.1854 0
M  V30 8465 H 801.045 2.17805 -3.04035 0
M  V30 8466 H 803.337 4.88191 -4.69761 0
M  V30 8467 H 804.28 3.93156 -5.88926 0
M  V30 8468 H 804.688 3.82564 -4.15097 0
M  V30 8469 N 804.086 1.46499 0.581025 0
M  V30 8470 C 805.335 1.51162 1.3354 0
M  V30 8471 C 805.648 0.168433 1.94873 0
M  V30 8472 O 806.854 0.092883 2.71341 0
M  V30 8473 C 805.31 2.66362 2.42032 0
M  V30 8474 C 804.918 4.07109 1.86994 0
M  V30 8475 C 806.662 2.80297 3.188 0
M  V30 8476 C 804.569 5.13645 2.93125 0
M  V30 8477 H 803.499 0.562576 0.502021 0
M  V30 8478 H 806.15 1.72713 0.619863 0
M  V30 8479 H 804.532 2.38143 3.16392 0
M  V30 8480 H 805.706 4.45125 1.19166 0
M  V30 8481 H 804.021 3.97854 1.22887 0
M  V30 8482 H 806.618 3.5706 3.9801 0
M  V30 8483 H 806.961 1.87875 3.71495 0
M  V30 8484 H 807.494 3.0817 2.51547 0
M  V30 8485 H 804.233 6.07866 2.45315 0
M  V30 8486 H 803.753 4.80172 3.59437 0
M  V30 8487 H 805.432 5.39562 3.57046 0
M  V30 8488 N 805.565 -0.825799 1.34232 0
M  V30 8489 C 806.528 -1.91808 1.25468 0
M  V30 8490 C 807.528 -1.59893 0.170567 0
M  V30 8491 O 808.718 -1.68986 0.422996 0
M  V30 8492 C 805.85 -3.27786 0.93644 0
M  V30 8493 H 807.043 -2.01003 2.22571 0
M  V30 8494 H 804.596 -1.01944 1.18479 0
M  V30 8495 H 805.331 -3.24285 -0.0315408 0
M  V30 8496 H 805.116 -3.52333 1.72057 0
M  V30 8497 H 806.606 -4.07782 0.900214 0
M  V30 8498 N 807.043 -1.17915 -1.04565 0
M  V30 8499 C 808.292 -0.965816 -1.77073 0
M  V30 8500 C 808.605 0.506005 -1.88942 0
M  V30 8501 O 809.811 0.837717 -2.58253 0
M  V30 8502 C 808.267 -1.67894 -3.18339 0
M  V30 8503 C 807.875 -3.18972 -3.1458 0
M  V30 8504 C 809.619 -1.54823 -3.9526 0
M  V30 8505 C 807.526 -3.82946 -4.50674 0
M  V30 8506 H 806.456 -0.357729 -0.663736 0
M  V30 8507 H 809.107 -1.41235 -1.17153 0
M  V30 8508 H 807.489 -1.16016 -3.78624 0
M  V30 8509 H 808.663 -3.77835 -2.63776 0
M  V30 8510 H 806.978 -3.32127 -2.51159 0
M  V30 8511 H 809.575 -1.99984 -4.95894 0
M  V30 8512 H 809.918 -0.499727 -4.1329 0
M  V30 8513 H 810.451 -2.03953 -3.41538 0
M  V30 8514 H 807.19 -4.8782 -4.37849 0
M  V30 8515 H 806.71 -3.2887 -5.01602 0
M  V30 8516 H 808.389 -3.85518 -5.196 0
M  V30 8517 N 808.521 1.23394 -0.980386 0
M  V30 8518 C 809.746 1.96384 -0.666935 0
M  V30 8519 C 810.171 1.72087 0.759456 0
M  V30 8520 O 809.529 0.992328 1.51732 0
M  V30 8521 C 809.577 3.47499 -0.963177 0
M  V30 8522 O 808.681 4.12363 -0.0552051 0
M  V30 8523 H 808.022 0.614797 -0.250839 0
M  V30 8524 H 810.552 1.56831 -1.31398 0
M  V30 8525 H 810.562 3.97953 -0.899877 0
M  V30 8526 H 809.237 3.6451 -2.00264 0
M  V30 8527 H 807.814 3.72499 -0.172914 0
M  V30 8528 N 809.999 0.752036 1.385 0
M  V30 8529 C 810.962 0.131587 2.28822 0
M  V30 8530 C 811.962 -0.649149 1.47115 0
M  V30 8531 O 813.152 -0.475645 1.67581 0
M  V30 8532 C 810.284 -0.822101 3.30839 0
M  V30 8533 H 811.477 0.927551 2.85196 0
M  V30 8534 H 809.03 0.518945 1.47434 0
M  V30 8535 H 809.765 -1.6438 2.79553 0
M  V30 8536 H 809.55 -0.264689 3.91206 0
M  V30 8537 H 811.04 -1.25226 3.98382 0
M  V30 8538 N 811.477 -1.49425 0.500989 0
M  V30 8539 C 812.44 -2.27646 -0.266416 0
M  V30 8540 C 813.44 -1.3366 -0.893961 0
M  V30 8541 O 814.63 -1.5682 -0.758495 0
M  V30 8542 C 811.762 -3.11618 -1.38227 0
M  V30 8543 H 812.955 -2.96945 0.419973 0
M  V30 8544 H 810.508 -1.5419 0.255954 0
M  V30 8545 H 811.243 -2.46885 -2.10281 0
M  V30 8546 H 811.028 -3.80721 -0.937746 0
M  V30 8547 H 812.518 -3.70698 -1.92283 0
M  V30 8548 N 812.955 -0.234822 -1.55841 0
M  V30 8549 C 814.201 0.393843 -1.98939 0
M  V30 8550 C 814.534 1.58466 -1.1226 0
M  V30 8551 O 813.809 1.93635 -0.183242 0
M  V30 8552 C 814.092 0.815492 -3.50745 0
M  V30 8553 C 813.945 -0.379878 -4.48193 0
M  V30 8554 C 815.264 1.66687 -4.07312 0
M  V30 8555 H 812.383 0.141681 -0.723253 0
M  V30 8556 H 815.025 -0.333716 -1.87046 0
M  V30 8557 H 813.175 1.43541 -3.6101 0
M  V30 8558 H 814.847 -1.0182 -4.49923 0
M  V30 8559 H 813.09 -1.02507 -4.21515 0
M  V30 8560 H 813.761 -0.0417069 -5.51984 0
M  V30 8561 H 816.237 1.14369 -4.00074 0
M  V30 8562 H 815.113 1.93078 -5.13821 0
M  V30 8563 H 815.374 2.63468 -3.55017 0
M  V30 8564 N 814.433 1.57553 0.0384317 0
M  V30 8565 C 815.396 2.04927 1.02653 0
M  V30 8566 C 816.396 0.951768 1.29607 0
M  V30 8567 O 817.586 1.21568 1.24768 0
M  V30 8568 C 814.718 2.45828 2.36181 0
M  V30 8569 H 815.911 2.93474 0.617508 0
M  V30 8570 H 813.464 1.53679 0.285031 0
M  V30 8571 H 814.199 1.60408 2.8185 0
M  V30 8572 H 813.984 3.25945 2.1795 0
M  V30 8573 H 815.474 2.82939 3.0714 0
M  V30 8574 N 815.911 -0.310526 1.54511 0
M  V30 8575 C 817.16 -1.0445 1.72549 0
M  V30 8576 C 817.473 -1.88748 0.513172 0
M  V30 8577 O 818.679 -2.65338 0.575165 0
M  V30 8578 C 817.135 -1.90665 3.05246 0
M  V30 8579 C 816.743 -1.11415 4.33925 0
M  V30 8580 C 818.487 -2.63719 3.32645 0
M  V30 8581 C 816.394 -1.96852 5.57677 0
M  V30 8582 H 815.324 -0.393676 0.643067 0
M  V30 8583 H 817.975 -0.302003 1.80998 0
M  V30 8584 H 816.357 -2.68864 2.90737 0
M  V30 8585 H 817.531 -0.378956 4.59239 0
M  V30 8586 H 815.846 -0.499853 4.13389 0
M  V30 8587 H 818.443 -3.27974 4.223 0
M  V30 8588 H 818.786 -3.32047 2.51098 0
M  V30 8589 H 819.319 -1.92574 3.48081 0
M  V30 8590 H 816.058 -1.33009 6.41864 0
M  V30 8591 H 815.578 -2.68069 5.36562 0
M  V30 8592 H 817.257 -2.55127 5.94575 0
M  V30 8593 N 817.389 -1.46805 -0.573248 0
M  V30 8594 C 818.638 -1.51868 -1.32736 0
M  V30 8595 C 818.951 -0.178765 -1.94781 0
M  V30 8596 O 820.157 -0.107272 -2.71288 0
M  V30 8597 C 818.613 -2.67641 -2.40616 0
M  V30 8598 C 818.221 -4.08094 -1.84832 0
M  V30 8599 C 819.965 -2.81984 -3.17309 0
M  V30 8600 C 817.872 -5.15193 -2.90397 0
M  V30 8601 H 816.802 -0.56523 -0.49903 0
M  V30 8602 H 819.453 -1.7304 -0.610695 0
M  V30 8603 H 817.835 -2.39818 -3.15124 0
M  V30 8604 H 819.009 -4.45751 -1.16803 0
M  V30 8605 H 817.324 -3.985 -1.20775 0
M  V30 8606 H 819.921 -3.59166 -3.96111 0
M  V30 8607 H 820.264 -1.89842 -3.70494 0
M  V30 8608 H 820.797 -3.095 -2.4991 0
M  V30 8609 H 817.536 -6.09158 -2.42088 0
M  V30 8610 H 817.056 -4.82071 -3.56886 0
M  V30 8611 H 818.735 -5.41448 -3.54179 0
M  V30 8612 N 818.867 0.818669 -1.34668 0
M  V30 8613 C 819.797 1.94468 -1.29245 0
M  V30 8614 C 820.778 1.69257 -0.169101 0
M  V30 8615 O 821.963 1.90794 -0.362143 0
M  V30 8616 C 819.093 3.31001 -1.05145 0
M  V30 8617 C 818.047 3.70663 -2.13992 0
M  V30 8618 C 817.373 5.05226 -1.75074 0
M  V30 8619 C 818.673 3.82312 -3.55858 0
M  V30 8620 H 820.367 1.99263 -2.2346 0
M  V30 8621 H 817.913 0.957304 -1.07572 0
M  V30 8622 H 819.866 4.09364 -0.999949 0
M  V30 8623 H 818.59 3.26517 -0.0737312 0
M  V30 8624 H 817.249 2.94578 -2.18219 0
M  V30 8625 H 816.897 4.97233 -0.759518 0
M  V30 8626 H 816.597 5.32734 -2.47928 0
M  V30 8627 H 818.121 5.86042 -1.71427 0
M  V30 8628 H 819.535 4.50935 -3.5402 0
M  V30 8629 H 817.932 4.21278 -4.2737 0
M  V30 8630 H 819.002 2.84193 -3.9289 0
M  V30 8631 N 820.346 1.18468 1.03938 0
M  V30 8632 C 821.276 0.936389 2.13902 0
M  V30 8633 C 822.257 -0.126381 1.6963 0
M  V30 8634 O 823.442 0.0264757 1.94182 0
M  V30 8635 C 820.572 0.462729 3.44204 0
M  V30 8636 C 819.526 1.46613 4.02105 0
M  V30 8637 C 818.852 0.84994 5.27902 0
M  V30 8638 C 820.152 2.84323 4.3813 0
M  V30 8639 H 821.846 1.85602 2.3493 0
M  V30 8640 H 819.392 0.893806 1.12903 0
M  V30 8641 H 821.345 0.276382 4.20493 0
M  V30 8642 H 820.069 -0.492477 3.22866 0
M  V30 8643 H 818.728 1.63944 3.27899 0
M  V30 8644 H 818.376 -0.112493 5.02874 0
M  V30 8645 H 818.076 1.51988 5.67603 0
M  V30 8646 H 819.6 0.674152 6.06867 0
M  V30 8647 H 821.014 2.70636 5.054 0
M  V30 8648 H 819.411 3.48012 4.88884 0
M  V30 8649 H 820.481 3.37776 3.47901 0
M  V30 8650 N 821.824 -1.22873 0.986916 0
M  V30 8651 C 823.052 -1.95487 0.677663 0
M  V30 8652 C 823.467 -1.72978 -0.756572 0
M  V30 8653 O 822.824 -1.02517 -1.50985 0
M  V30 8654 C 822.875 -3.48337 0.966638 0
M  V30 8655 O 822.596 -3.70087 2.34451 0
M  V30 8656 C 824.097 -4.38142 0.674248 0
M  V30 8657 H 821.317 -0.622211 0.251185 0
M  V30 8658 H 823.861 -1.56187 1.32007 0
M  V30 8659 H 822.016 -3.85628 0.370137 0
M  V30 8660 H 822.43 -4.64332 2.43918 0
M  V30 8661 H 823.904 -5.44165 0.926759 0
M  V30 8662 H 824.381 -4.3745 -0.391728 0
M  V30 8663 H 824.987 -4.06469 1.25152 0
M  V30 8664 N 823.302 -0.75937 -1.38099 0
M  V30 8665 C 824.548 -0.318584 -2.00282 0
M  V30 8666 C 824.881 1.09854 -1.60143 0
M  V30 8667 O 824.156 1.75344 -0.841702 0
M  V30 8668 C 824.439 -0.448047 -3.57302 0
M  V30 8669 C 824.292 -1.9067 -4.07388 0
M  V30 8670 C 825.611 0.155119 -4.39827 0
M  V30 8671 H 822.73 -0.117233 -0.727616 0
M  V30 8672 H 825.372 -0.960097 -1.63958 0
M  V30 8673 H 823.522 0.0981003 -3.88376 0
M  V30 8674 H 825.194 -2.5116 -3.86932 0
M  V30 8675 H 823.437 -2.41979 -3.6004 0
M  V30 8676 H 824.108 -1.94841 -5.1647 0
M  V30 8677 H 826.584 -0.31073 -4.14938 0
M  V30 8678 H 825.46 0.0343264 -5.48889 0
M  V30 8679 H 825.721 1.24407 -4.24235 0
M  V30 8680 N 824.78 1.49157 -0.508906 0
M  V30 8681 C 826.026 2.02773 0.0328469 0
M  V30 8682 C 826.359 1.38714 1.35912 0
M  V30 8683 O 825.634 0.525536 1.87266 0
M  V30 8684 C 825.917 3.59664 0.177088 0
M  V30 8685 C 825.77 4.34239 -1.17287 0
M  V30 8686 C 827.089 4.30505 0.913977 0
M  V30 8687 H 824.208 0.736926 0.0104631 0
M  V30 8688 H 826.85 1.781 -0.661851 0
M  V30 8689 H 825 3.80818 0.768774 0
M  V30 8690 H 826.672 4.24561 -1.80404 0
M  V30 8691 H 824.915 3.96486 -1.76016 0
M  V30 8692 H 825.586 5.42397 -1.02516 0
M  V30 8693 H 828.062 4.14054 0.412084 0
M  V30 8694 H 826.938 5.40012 0.983759 0
M  V30 8695 H 827.199 3.96302 1.95951 0
M  V30 8696 N 826.258 0.243083 1.55714 0
M  V30 8697 C 827.507 -0.383188 1.98027 0
M  V30 8698 C 827.82 -1.59347 1.13436 0
M  V30 8699 O 829.026 -2.29065 1.45745 0
M  V30 8700 C 827.482 -0.733135 3.52354 0
M  V30 8701 C 827.09 0.455539 4.45678 0
M  V30 8702 C 828.834 -1.32381 4.03331 0
M  V30 8703 C 826.741 0.0819591 5.91343 0
M  V30 8704 H 825.671 -0.146944 0.739543 0
M  V30 8705 H 828.322 0.342697 1.80272 0
M  V30 8706 H 826.704 -1.51704 3.65789 0
M  V30 8707 H 827.878 1.23291 4.44 0
M  V30 8708 H 826.193 0.960886 4.05162 0
M  V30 8709 H 828.79 -1.61658 5.09677 0
M  V30 8710 H 829.133 -2.24698 3.50452 0
M  V30 8711 H 829.666 -0.602885 3.93205 0
M  V30 8712 H 826.405 0.972171 6.48251 0
M  V30 8713 H 825.925 -0.659291 5.96166 0
M  V30 8714 H 827.604 -0.3372 6.46121 0
M  V30 8715 N 827.736 -1.57571 -0.0300757 0
M  V30 8716 C 828.966 -1.93204 -0.731828 0
M  V30 8717 C 829.374 -0.841156 -1.69473 0
M  V30 8718 O 828.717 0.191231 -1.82702 0
M  V30 8719 C 828.779 -3.2463 -1.54453 0
M  V30 8720 C 828.443 -4.50862 -0.746507 0
M  V30 8721 C 829.44 -5.19879 -0.0472309 0
M  V30 8722 C 827.125 -4.9738 -0.701347 0
M  V30 8723 C 829.119 -6.33692 0.686518 0
M  V30 8724 C 826.806 -6.11089 0.036148 0
M  V30 8725 C 827.804 -6.791 0.728841 0
M  V30 8726 O 827.492 -7.90635 1.45436 0
M  V30 8727 H 827.224 -0.6423 -0.210775 0
M  V30 8728 H 829.778 -2.05398 0.00804194 0
M  V30 8729 H 828.008 -3.0876 -2.32818 0
M  V30 8730 H 829.697 -3.45597 -2.1288 0
M  V30 8731 H 830.463 -4.84945 -0.0731582 0
M  V30 8732 H 826.342 -4.44288 -1.23001 0
M  V30 8733 H 829.886 -6.86711 1.22773 0
M  V30 8734 H 825.783 -6.45468 0.064002 0
M  V30 8735 H 826.551 -8.06988 1.36794 0
M  V30 8736 N 829.214 0.302327 -1.54673 0
M  V30 8737 C 830.46 1.03924 -1.74149 0
M  V30 8738 C 830.793 1.86968 -0.525041 0
M  V30 8739 O 830.068 1.88538 0.477868 0
M  V30 8740 C 830.351 1.94633 -3.02969 0
M  V30 8741 C 830.204 1.14778 -4.34909 0
M  V30 8742 C 831.523 2.93826 -3.27649 0
M  V30 8743 H 828.642 0.376405 -0.633631 0
M  V30 8744 H 831.284 0.314007 -1.87387 0
M  V30 8745 H 829.434 2.56471 -2.91813 0
M  V30 8746 H 831.106 0.552363 -4.57981 0
M  V30 8747 H 829.349 0.450462 -4.31455 0
M  V30 8748 H 830.02 1.81495 -5.21309 0
M  V30 8749 H 832.496 2.42117 -3.38406 0
M  V30 8750 H 831.372 3.54462 -4.19104 0
M  V30 8751 H 831.633 3.67416 -2.45882 0
M  V30 8752 N 830.692 1.47107 0.565454 0
M  V30 8753 C 831.622 1.61846 1.68309 0
M  V30 8754 C 832.603 0.468159 1.63531 0
M  V30 8755 O 833.788 0.696504 1.8128 0
M  V30 8756 C 830.918 1.62474 3.06952 0
M  V30 8757 C 829.872 2.76649 3.26572 0
M  V30 8758 C 829.198 2.62345 4.65917 0
M  V30 8759 C 830.498 4.18319 3.12741 0
M  V30 8760 H 832.192 2.55407 1.5623 0
M  V30 8761 H 829.738 1.22916 0.750179 0
M  V30 8762 H 831.691 1.71378 3.84977 0
M  V30 8763 H 830.415 0.654692 3.19971 0
M  V30 8764 H 829.074 2.67242 2.50952 0
M  V30 8765 H 828.722 1.63386 4.75725 0
M  V30 8766 H 828.422 3.38936 4.79996 0
M  V30 8767 H 829.946 2.73165 5.46089 0
M  V30 8768 H 831.36 4.28745 3.80593 0
M  V30 8769 H 829.757 4.95632 3.38333 0
M  V30 8770 H 830.827 4.37263 2.09592 0
M  V30 8771 N 832.17 -0.811516 1.35101 0
M  V30 8772 C 833.419 -1.56343 1.27435 0
M  V30 8773 C 833.732 -1.95019 -0.150696 0
M  V30 8774 O 834.938 -2.6924 -0.349586 0
M  V30 8775 C 833.394 -2.82124 2.23459 0
M  V30 8776 C 833.002 -2.50706 3.71283 0
M  V30 8777 C 834.746 -3.60137 2.24726 0
M  V30 8778 C 832.653 -3.72748 4.59143 0
M  V30 8779 H 831.583 -0.58682 0.473453 0
M  V30 8780 H 834.234 -0.892465 1.60335 0
M  V30 8781 H 832.616 -3.50905 1.83525 0
M  V30 8782 H 833.79 -1.89962 4.19823 0
M  V30 8783 H 832.105 -1.85947 3.72576 0
M  V30 8784 H 834.702 -4.50775 2.87587 0
M  V30 8785 H 835.045 -3.97101 1.24965 0
M  V30 8786 H 835.578 -2.98311 2.63164 0
M  V30 8787 H 832.317 -3.40896 5.59884 0
M  V30 8788 H 831.837 -4.32735 4.15332 0
M  V30 8789 H 833.516 -4.40033 4.74321 0
M  V30 8790 N 833.648 -1.19017 -1.03309 0
M  V30 8791 C 834.896 -0.988258 -1.76289 0
M  V30 8792 C 835.217 0.482557 -1.88935 0
M  V30 8793 O 834.487 1.34969 -1.41987 0
M  V30 8794 H 833.067 -0.36267 -0.653054 0
M  V30 8795 H 835.729 -1.49836 -1.2464 0
M  V30 8796 H 834.825 -1.43273 -2.77271 0
M  V30 8797 N 835.127 1.22348 -0.993418 0
M  V30 8798 C 836.543 1.43222 -0.704238 0
M  V30 8799 C 836.743 1.88009 0.724909 0
M  V30 8800 O 835.799 2.03429 1.49575 0
M  V30 8801 C 837.112 2.47328 -1.71025 0
M  V30 8802 C 838.66 2.61126 -1.72576 0
M  V30 8803 C 839.135 3.68453 -2.72041 0
M  V30 8804 N 840.626 3.75911 -2.70639 0
M  V30 8805 C 841.361 4.58551 -3.44266 0
M  V30 8806 N 840.857 5.45179 -4.27495 0
M  V30 8807 N 842.65 4.52866 -3.32969 0
M  V30 8808 H 834.801 0.915832 -1.91641 0
M  V30 8809 H 837.064 0.464283 -0.826526 0
M  V30 8810 H 836.77 2.21366 -2.73295 0
M  V30 8811 H 836.644 3.45939 -1.50353 0
M  V30 8812 H 839.031 2.86431 -0.710037 0
M  V30 8813 H 839.112 1.62787 -1.97317 0
M  V30 8814 H 838.756 3.43895 -3.73763 0
M  V30 8815 H 838.686 4.66362 -2.4457 0
M  V30 8816 H 841.177 3.14014 -2.10247 0
M  V30 8817 H 841.49 6.0526 -4.80499 0
M  V30 8818 H 839.835 5.44759 -4.31582 0
M  V30 8819 H 843.026 3.84215 -2.67389 0
M  V30 8820 H 843.199 5.17039 -3.90608 0
M  V30 8821 N 836.605 0.766683 1.37694 0
M  V30 8822 C 837.852 0.328714 1.99814 0
M  V30 8823 C 838.18 -1.09333 1.60862 0
M  V30 8824 O 837.435 -1.7657 0.8439 0
M  V30 8825 C 837.734 0.413831 3.54996 0
M  V30 8826 C 837.4 1.7934 4.137 0
M  V30 8827 C 836.062 2.17092 4.29447 0
M  V30 8828 C 838.414 2.69776 4.45949 0
M  V30 8829 C 835.742 3.44726 4.74743 0
M  V30 8830 C 838.094 3.96814 4.92667 0
M  V30 8831 C 836.758 4.34618 5.0662 0
M  V30 8832 H 836.028 0.120285 0.731172 0
M  V30 8833 H 838.675 0.97972 1.64541 0
M  V30 8834 H 836.98 -0.320723 3.90485 0
M  V30 8835 H 838.677 0.0563369 4.0096 0
M  V30 8836 H 835.267 1.48997 4.01868 0
M  V30 8837 H 839.451 2.41871 4.33373 0
M  V30 8838 H 834.707 3.73917 4.83731 0
M  V30 8839 H 838.881 4.67022 5.16588 0
M  V30 8840 H 836.508 5.33578 5.41478 0
M  V30 8841 N 838.083 -1.48885 0.516809 0
M  V30 8842 C 839.323 -2.0439 -0.0202232 0
M  V30 8843 C 839.687 -1.38652 -1.32814 0
M  V30 8844 O 840.888 -1.84968 -1.95039 0
M  V30 8845 C 839.159 -3.57071 -0.153257 0
M  V30 8846 S 840.718 -4.34074 -0.642256 0
M  V30 8847 H 837.536 -0.710977 0.00576322 0
M  V30 8848 H 840.138 -1.82753 0.694376 0
M  V30 8849 H 838.842 -4.02454 0.803695 0
M  V30 8850 H 838.373 -3.83139 -0.892627 0
M  V30 8851 H 840.388 -4.58011 -1.90893 0
M  V30 8852 N 839.561 -0.251338 -1.55583 0
M  V30 8853 C 840.809 0.371434 -1.98657 0
M  V30 8854 C 841.13 1.58143 -1.14087 0
M  V30 8855 O 840.4 1.94607 -0.224708 0
M  V30 8856 H 838.98 0.140225 -0.733721 0
M  V30 8857 H 841.642 -0.351157 -1.9171 0
M  V30 8858 H 840.738 0.677554 -3.04657 0
M  V30 8859 N 841.039 1.57585 0.0217189 0
M  V30 8860 C 842.269 1.9359 0.721572 0
M  V30 8861 C 842.677 0.850132 1.69025 0
M  V30 8862 O 842.02 -0.181539 1.82801 0
M  V30 8863 C 842.082 3.25445 1.52729 0
M  V30 8864 C 841.746 4.51251 0.722586 0
M  V30 8865 C 842.743 5.19896 0.0196598 0
M  V30 8866 C 840.428 4.97745 0.674959 0
M  V30 8867 C 842.422 6.33319 -0.720114 0
M  V30 8868 C 840.109 6.11062 -0.068555 0
M  V30 8869 C 841.107 6.78704 -0.764845 0
M  V30 8870 O 840.795 7.89852 -1.49627 0
M  V30 8871 H 840.527 0.643409 0.207366 0
M  V30 8872 H 843.081 2.05391 -0.0189346 0
M  V30 8873 H 841.311 3.0999 2.31178 0
M  V30 8874 H 843 3.46721 2.11044 0
M  V30 8875 H 843.766 4.84977 0.0474394 0
M  V30 8876 H 839.645 4.44934 1.20643 0
M  V30 8877 H 843.189 6.86051 -1.26413 0
M  V30 8878 H 839.086 6.45425 -0.0982318 0
M  V30 8879 H 839.854 8.06251 -1.41071 0
M  V30 8880 N 842.517 -0.29412 1.54831 0
M  V30 8881 C 843.464 -1.36296 1.86258 0
M  V30 8882 C 844.434 -1.50061 0.712097 0
M  V30 8883 O 845.619 -1.64809 0.961381 0
M  V30 8884 C 842.759 -2.72187 2.12151 0
M  V30 8885 C 841.872 -2.66816 3.39755 0
M  V30 8886 C 841.007 -3.94747 3.55455 0
M  V30 8887 C 840.046 -3.838 4.76827 0
M  V30 8888 N 839.183 -5.03521 4.89296 0
M  V30 8889 H 844.023 -1.08796 2.7743 0
M  V30 8890 H 841.56 -0.526069 1.37371 0
M  V30 8891 H 843.518 -3.51225 2.25159 0
M  V30 8892 H 842.148 -2.97934 1.24237 0
M  V30 8893 H 841.2 -1.79605 3.3533 0
M  V30 8894 H 842.512 -2.5462 4.28917 0
M  V30 8895 H 841.666 -4.82223 3.68166 0
M  V30 8896 H 840.405 -4.09785 2.64438 0
M  V30 8897 H 839.41 -2.94708 4.64141 0
M  V30 8898 H 840.635 -3.70301 5.69258 0
M  V30 8899 H 838.581 -5.1901 4.01204 0
M  V30 8900 H 838.498 -4.93775 5.72471 0
M  V30 8901 H 839.766 -5.92629 5.06371 0
M  V30 8902 N 843.995 -1.47404 -0.557645 0
M  V30 8903 C 845.22 -1.57868 -1.34508 0
M  V30 8904 C 845.645 -0.229151 -1.86699 0
M  V30 8905 O 845.003 0.794908 -1.62944 0
M  V30 8906 C 845.051 -2.60712 -2.49122 0
M  V30 8907 O 844.155 -2.15952 -3.51338 0
M  V30 8908 H 843.496 -0.530335 -0.399551 0
M  V30 8909 H 846.026 -1.93181 -0.673954 0
M  V30 8910 H 846.036 -2.81118 -2.95697 0
M  V30 8911 H 844.711 -3.58701 -2.10491 0
M  V30 8912 H 843.288 -2.05644 -3.11071 0
M  V30 8913 N 845.473 0.80434 -1.35529 0
M  V30 8914 C 846.42 1.91629 -1.28635 0
M  V30 8915 C 847.39 1.65348 -0.157862 0
M  V30 8916 O 848.575 1.87711 -0.341934 0
M  V30 8917 C 845.715 3.28207 -1.0665 0
M  V30 8918 C 844.828 3.66659 -2.28441 0
M  V30 8919 C 843.963 4.92279 -1.99588 0
M  V30 8920 C 843.002 5.23365 -3.1742 0
M  V30 8921 N 842.139 6.40165 -2.88328 0
M  V30 8922 H 846.979 1.96858 -2.23721 0
M  V30 8923 H 844.516 0.962871 -1.11208 0
M  V30 8924 H 846.474 4.06945 -0.919343 0
M  V30 8925 H 845.104 3.22441 -0.152253 0
M  V30 8926 H 844.156 2.83164 -2.54013 0
M  V30 8927 H 845.468 3.8559 -3.1642 0
M  V30 8928 H 844.622 5.78847 -1.81715 0
M  V30 8929 H 843.361 4.75387 -1.08896 0
M  V30 8930 H 842.366 4.35285 -3.35867 0
M  V30 8931 H 843.591 5.42185 -4.08916 0
M  V30 8932 H 841.537 6.24694 -2.00233 0
M  V30 8933 H 841.454 6.59357 -3.69843 0
M  V30 8934 H 842.722 7.29755 -2.74002 0
M  V30 8935 N 846.951 1.19563 1.02676 0
M  V30 8936 C 847.901 0.903055 2.09354 0
M  V30 8937 C 848.885 -0.133009 1.60349 0
M  V30 8938 O 850.077 0.0729744 1.7685 0
M  V30 8939 C 847.206 0.445852 3.40392 0
M  V30 8940 C 846.292 1.51477 3.96126 0
M  V30 8941 N 846.683 2.73474 4.25495 0
M  V30 8942 C 844.981 1.37856 4.2416 0
M  V30 8943 C 845.682 3.42348 4.7029 0
M  V30 8944 N 844.658 2.69746 4.71952 0
M  V30 8945 H 848.46 1.83023 2.29956 0
M  V30 8946 H 845.974 1.08812 1.20556 0
M  V30 8947 H 847.971 0.21769 4.16331 0
M  V30 8948 H 846.631 -0.47482 3.2121 0
M  V30 8949 H 847.642 3.10217 4.14711 0
M  V30 8950 H 844.319 0.521512 4.1423 0
M  V30 8951 H 845.709 4.46686 5.01917 0
M  V30 8952 N 848.429 -1.21819 0.999893 0
M  V30 8953 C 849.677 -1.90375 0.678351 0
M  V30 8954 C 849.998 -1.78155 -0.792824 0
M  V30 8955 O 849.268 -1.17319 -1.56885 0
M  V30 8956 H 847.848 -0.704661 0.247915 0
M  V30 8957 H 850.51 -1.48021 1.2679 0
M  V30 8958 H 849.606 -2.97385 0.947023 0
M  V30 8959 N 849.908 -0.773975 -1.37286 0
M  V30 8960 C 850.871 -0.167974 -2.28584 0
M  V30 8961 C 851.871 0.625662 -1.48129 0
M  V30 8962 O 853.061 0.448924 -1.68316 0
M  V30 8963 C 850.193 0.769364 -3.32105 0
M  V30 8964 H 851.386 -0.972806 -2.83684 0
M  V30 8965 H 848.939 -0.542335 -1.46589 0
M  V30 8966 H 849.674 1.59912 -2.82132 0
M  V30 8967 H 849.459 0.202419 -3.91577 0
M  V30 8968 H 850.949 1.18872 -4.00324 0
M  V30 8969 N 851.386 1.48609 -0.524698 0
M  V30 8970 C 852.663 1.95454 0.075465 0
M  V30 8971 C 853.043 1.46682 1.51814 0
M  V30 8972 O 852.391 0.690975 2.17802 0
M  V30 8973 C 852.601 3.48981 -0.0363273 0
M  V30 8974 C 853.949 4.24414 0.125624 0
M  V30 8975 O 854.973 3.5618 0.0377239 0
M  V30 8976 O 853.832 5.45625 0.309104 0
M  V30 8977 H 850.926 0.822902 0.0822256 0
M  V30 8978 H 853.472 1.59153 -0.588921 0
M  V30 8979 H 852.244 3.77185 -1.04149 0
M  V30 8980 H 851.867 3.91963 0.667146 0
M  V30 8981 N 852.864 0.259585 1.55447 0
M  V30 8982 C 853.774 -0.645026 2.25558 0
M  V30 8983 C 854.79 -1.18291 1.27606 0
M  V30 8984 O 855.966 -1.21649 1.6051 0
M  V30 8985 C 853.031 -1.81964 2.9511 0
M  V30 8986 C 852.092 -1.31997 4.08504 0
M  V30 8987 C 851.325 -2.43861 4.74729 0
M  V30 8988 O 851.548 -3.62876 4.40088 0
M  V30 8989 O 850.482 -2.12898 5.6299 0
M  V30 8990 H 854.308 -0.0775399 3.03601 0
M  V30 8991 H 851.893 0.0275859 1.49375 0
M  V30 8992 H 853.775 -2.50485 3.38873 0
M  V30 8993 H 852.45 -2.37451 2.19997 0
M  V30 8994 H 851.357 -0.601676 3.6923 0
M  V30 8995 H 852.69 -0.811045 4.85472 0
M  V30 8996 N 854.342 -1.57594 -0.0133615 0
M  V30 8997 C 855.289 -2.07574 -1.00905 0
M  V30 8998 C 856.259 -0.968231 -1.34961 0
M  V30 8999 O 857.444 -1.23981 -1.45028 0
M  V30 9000 C 854.584 -2.5728 -2.30002 0
M  V30 9001 C 853.697 -3.81881 -2.01967 0
M  V30 9002 C 852.832 -4.20139 -3.25049 0
M  V30 9003 C 851.871 -5.37614 -2.92639 0
M  V30 9004 N 851.008 -5.71229 -4.08218 0
M  V30 9005 H 855.848 -2.92382 -0.575899 0
M  V30 9006 H 853.385 -1.4455 -0.272722 0
M  V30 9007 H 855.343 -2.84171 -3.05454 0
M  V30 9008 H 853.973 -1.75365 -2.71011 0
M  V30 9009 H 853.025 -3.61979 -1.16942 0
M  V30 9010 H 854.337 -4.67441 -1.74069 0
M  V30 9011 H 853.491 -4.48242 -4.08857 0
M  V30 9012 H 852.23 -3.33262 -3.56073 0
M  V30 9013 H 851.235 -5.09248 -2.07235 0
M  V30 9014 H 852.46 -6.26157 -2.62876 0
M  V30 9015 H 850.406 -4.8731 -4.39164 0
M  V30 9016 H 850.323 -6.51333 -3.83799 0
M  V30 9017 H 851.591 -6.03917 -4.92854 0
M  V30 9018 N 855.82 0.285905 -1.54985 0
M  V30 9019 C 857.236 0.632405 -1.46536 0
M  V30 9020 C 857.436 1.90074 -0.668888 0
M  V30 9021 O 856.492 2.51839 -0.182586 0
M  V30 9022 C 857.805 0.771361 -2.90638 0
M  V30 9023 C 859.353 0.866262 -3.00774 0
M  V30 9024 C 859.828 1.0371 -4.46103 0
M  V30 9025 N 861.319 1.10294 -4.49877 0
M  V30 9026 C 862.054 1.25369 -5.59527 0
M  V30 9027 N 861.55 1.37246 -6.7907 0
M  V30 9028 N 863.343 1.28377 -5.47244 0
M  V30 9029 H 855.494 -0.547226 -2.0523 0
M  V30 9030 H 857.757 -0.183298 -0.930111 0
M  V30 9031 H 857.463 -0.0899485 -3.51585 0
M  V30 9032 H 857.337 1.65569 -3.3892 0
M  V30 9033 H 859.724 1.71805 -2.39931 0
M  V30 9034 H 859.805 -0.0424049 -2.55765 0
M  V30 9035 H 859.449 0.190021 -5.07544 0
M  V30 9036 H 859.379 1.96022 -4.88757 0
M  V30 9037 H 861.87 1.02407 -3.6376 0
M  V30 9038 H 862.183 1.48546 -7.58389 0
M  V30 9039 H 860.528 1.34274 -6.81906 0
M  V30 9040 H 863.719 1.1872 -4.52795 0
M  V30 9041 H 863.892 1.39782 -6.32744 0
M  V30 9042 N 857.298 1.47698 0.54982 0
M  V30 9043 C 858.228 1.63622 1.66583 0
M  V30 9044 C 859.209 0.485477 1.63025 0
M  V30 9045 O 860.394 0.715692 1.80531 0
M  V30 9046 C 857.524 1.65721 3.05211 0
M  V30 9047 C 856.478 2.80097 3.2362 0
M  V30 9048 C 855.804 2.67272 4.63109 0
M  V30 9049 C 857.104 4.21612 3.08286 0
M  V30 9050 H 858.798 2.57049 1.53512 0
M  V30 9051 H 856.344 1.23705 0.737099 0
M  V30 9052 H 858.297 1.75451 3.83138 0
M  V30 9053 H 857.021 0.688593 3.19258 0
M  V30 9054 H 855.68 2.69889 2.48104 0
M  V30 9055 H 855.328 1.68422 4.73965 0
M  V30 9056 H 855.028 3.44008 4.76374 0
M  V30 9057 H 856.552 2.78942 5.43161 0
M  V30 9058 H 857.966 4.32758 3.76024 0
M  V30 9059 H 856.363 4.99193 3.33057 0
M  V30 9060 H 857.433 4.39462 2.04942 0
M  V30 9061 N 858.776 -0.797141 1.35954 0
M  V30 9062 C 859.726 -1.89899 1.26184 0
M  V30 9063 C 860.71 -1.60152 0.155007 0
M  V30 9064 O 861.902 -1.72715 0.387108 0
M  V30 9065 C 859.031 -3.2699 1.04559 0
M  V30 9066 C 858.117 -3.62772 2.19675 0
M  V30 9067 N 858.508 -3.6992 3.44953 0
M  V30 9068 C 856.806 -3.92786 2.1127 0
M  V30 9069 C 857.507 -4.01718 4.20711 0
M  V30 9070 N 856.483 -4.16298 3.49567 0
M  V30 9071 H 860.285 -1.9364 2.2109 0
M  V30 9072 H 857.799 -0.992246 1.28562 0
M  V30 9073 H 859.796 -4.0578 0.956474 0
M  V30 9074 H 858.456 -3.24529 0.105467 0
M  V30 9075 H 859.467 -3.52759 3.79185 0
M  V30 9076 H 856.144 -3.98295 1.25168 0
M  V30 9077 H 857.534 -4.14237 5.29016 0
M  V30 9078 N 860.254 -1.20106 -1.0204 0
M  V30 9079 C 861.501 -1.00889 -1.75578 0
M  V30 9080 C 861.829 0.459415 -1.88996 0
M  V30 9081 O 861.084 1.35735 -1.40977 0
M  V30 9082 C 861.383 -1.63308 -3.17908 0
M  V30 9083 C 861.049 -3.13091 -3.24476 0
M  V30 9084 C 859.711 -3.53968 -3.25976 0
M  V30 9085 C 862.063 -4.09093 -3.22944 0
M  V30 9086 C 859.391 -4.89381 -3.2361 0
M  V30 9087 C 861.743 -5.44447 -3.22119 0
M  V30 9088 C 860.407 -5.84742 -3.2192 0
M  V30 9089 H 859.677 -0.36918 -0.642485 0
M  V30 9090 H 862.324 -1.49475 -1.19706 0
M  V30 9091 H 860.629 -1.06974 -3.76914 0
M  V30 9092 H 862.326 -1.45958 -3.73493 0
M  V30 9093 H 858.916 -2.80526 -3.24042 0
M  V30 9094 H 863.1 -3.78549 -3.20958 0
M  V30 9095 H 858.356 -5.1987 -3.21785 0
M  V30 9096 H 862.53 -6.18584 -3.19885 0
M  V30 9097 H 860.157 -6.89642 -3.19841 0
M  V30 9098 N 861.732 1.21287 -1.00634 0
M  V30 9099 C 862.98 1.90013 -0.688438 0
M  V30 9100 C 863.301 1.78573 0.783365 0
M  V30 9101 O 862.571 1.1815 1.56261 0
M  V30 9102 H 861.151 0.703336 -0.251648 0
M  V30 9103 H 863.813 1.47346 -1.27574 0
M  V30 9104 H 862.909 2.96879 -0.962781 0
M  V30 9105 N 863.21 0.781244 1.36873 0
M  V30 9106 C 864.158 0.161889 2.32036 0
M  V30 9107 C 865.152 -0.674225 1.55405 0
M  V30 9108 O 866.358 -0.570223 1.70729 0
M  V30 9109 H 862.733 0.0335702 0.75125 0
M  V30 9110 H 864.704 0.980078 2.81846 0
M  V30 9111 C 863.453 -0.695352 3.40676 0
M  V30 9112 H 862.776 -0.0613425 3.99753 0
M  V30 9113 H 864.216 -1.09553 4.09602 0
M  V30 9114 C 862.675 -1.85008 2.81556 0
M  V30 9115 O 863.205 -2.94616 2.73065 0
M  V30 9116 N 861.411 -1.65364 2.38962 0
M  V30 9117 H 860.958 -0.762106 2.46068 0
M  V30 9118 H 860.916 -2.42789 1.99752 0
M  V30 9119 N 864.689 -1.48329 0.532571 0
M  V30 9120 C 865.937 -2.021 -0.000581206 0
M  V30 9121 C 866.258 -1.4117 -1.34522 0
M  V30 9122 O 865.528 -0.578005 -1.87179 0
M  V30 9123 H 864.108 -0.746993 -0.00320281 0
M  V30 9124 H 866.77 -1.82011 0.696991 0
M  V30 9125 H 865.866 -3.11917 -0.106991 0
M  V30 9126 N 866.167 -0.267825 -1.55308 0
M  V30 9127 C 867.117 0.637168 -2.18916 0
M  V30 9128 C 868.101 1.12381 -1.15149 0
M  V30 9129 O 869.293 1.0701 -1.40989 0
M  V30 9130 C 866.422 1.82423 -2.90821 0
M  V30 9131 C 865.508 1.35512 -4.01867 0
M  V30 9132 N 865.899 0.601644 -5.02209 0
M  V30 9133 C 864.197 1.63868 -4.14805 0
M  V30 9134 C 864.898 0.35596 -5.8061 0
M  V30 9135 N 863.874 0.926271 -5.3565 0
M  V30 9136 H 867.676 0.0535787 -2.93851 0
M  V30 9137 H 865.19 -0.0710577 -1.62244 0
M  V30 9138 H 867.187 2.48379 -3.34834 0
M  V30 9139 H 865.847 2.41185 -2.17394 0
M  V30 9140 H 866.858 0.249693 -5.17298 0
M  V30 9141 H 863.535 2.23618 -3.52564 0
M  V30 9142 H 864.925 -0.246994 -6.71446 0
M  V30 9143 N 867.645 1.57599 0.00500368 0
M  V30 9144 C 868.575 2.11143 0.99705 0
M  V30 9145 C 869.556 1.0194 1.3617 0
M  V30 9146 O 870.741 1.29596 1.44632 0
M  V30 9147 C 867.871 2.61062 2.2905 0
M  V30 9148 C 866.825 3.74745 2.0676 0
M  V30 9149 C 866.151 4.10961 3.42075 0
M  V30 9150 C 867.451 5.02222 1.43424 0
M  V30 9151 H 869.145 2.94281 0.551251 0
M  V30 9152 H 866.691 1.41565 0.263715 0
M  V30 9153 H 868.644 2.97146 2.98801 0
M  V30 9154 H 867.368 1.75038 2.75734 0
M  V30 9155 H 866.027 3.39047 1.39436 0
M  V30 9156 H 865.675 3.21968 3.86453 0
M  V30 9157 H 865.375 4.87549 3.27979 0
M  V30 9158 H 866.899 4.49599 4.1315 0
M  V30 9159 H 868.313 5.36109 2.03125 0
M  V30 9160 H 866.71 5.83581 1.39831 0
M  V30 9161 H 867.78 4.83224 0.40285 0
M  V30 9162 N 869.123 -0.277682 1.55134 0
M  V30 9163 C 870.07 -1.34313 1.87693 0
M  V30 9164 C 871.04 -1.49298 0.727973 0
M  V30 9165 O 872.225 -1.6378 0.978807 0
M  V30 9166 C 869.365 -2.69922 2.15026 0
M  V30 9167 C 868.478 -2.63197 3.42565 0
M  V30 9168 C 867.613 -3.90955 3.59622 0
M  V30 9169 C 866.652 -3.78722 4.8087 0
M  V30 9170 N 865.789 -4.98303 4.94609 0
M  V30 9171 H 870.629 -1.05847 2.78569 0
M  V30 9172 H 868.166 -0.511469 1.37922 0
M  V30 9173 H 870.124 -3.48817 2.28872 0
M  V30 9174 H 868.754 -2.966 1.2739 0
M  V30 9175 H 867.806 -1.76038 3.37216 0
M  V30 9176 H 869.118 -2.50056 4.31594 0
M  V30 9177 H 868.272 -4.78291 3.7326 0
M  V30 9178 H 867.011 -4.06957 2.6877 0
M  V30 9179 H 866.016 -2.89769 4.67241 0
M  V30 9180 H 867.241 -3.64242 5.73153 0
M  V30 9181 H 865.187 -5.14725 4.06687 0
M  V30 9182 H 865.104 -4.87675 5.77676 0
M  V30 9183 H 866.372 -5.87225 5.12628 0
M  V30 9184 N 870.601 -1.47988 -0.541979 0
M  V30 9185 C 871.531 -1.64503 -1.65713 0
M  V30 9186 C 872.512 -0.494116 -1.62765 0
M  V30 9187 O 873.697 -0.725256 -1.80149 0
M  V30 9188 C 870.827 -1.67337 -3.04328 0
M  V30 9189 C 869.781 -2.81809 -3.2213 0
M  V30 9190 C 869.107 -2.69724 -4.61685 0
M  V30 9191 C 870.407 -4.23241 -3.06046 0
M  V30 9192 H 872.101 -2.5786 -1.52147 0
M  V30 9193 H 869.647 -1.24094 -0.730529 0
M  V30 9194 H 871.6 -1.77481 -3.82202 0
M  V30 9195 H 870.324 -0.705514 -3.18889 0
M  V30 9196 H 868.983 -2.71201 -2.46669 0
M  V30 9197 H 868.631 -1.70934 -4.73065 0
M  V30 9198 H 868.331 -3.4653 -4.74543 0
M  V30 9199 H 869.855 -2.81818 -5.41674 0
M  V30 9200 H 871.269 -4.34746 -3.73723 0
M  V30 9201 H 869.666 -5.00952 -3.30405 0
M  V30 9202 H 870.736 -4.40543 -2.02609 0
M  V30 9203 N 872.079 0.78992 -1.36375 0
M  V30 9204 C 873.49 1.36506 -1.2737 0
M  V30 9205 C 873.841 1.96008 0.086711 0
M  V30 9206 O 872.966 1.92521 0.988159 0
M  V30 9207 C 873.561 2.48175 -2.30639 0
M  V30 9208 C 872.12 3.01506 -2.25325 0
M  V30 9209 C 871.267 1.74581 -2.15445 0
M  V30 9210 H 874.218 0.591606 -1.47261 0
M  V30 9211 H 874.239 3.27179 -1.94253 0
M  V30 9212 H 873.751 2.04838 -3.2964 0
M  V30 9213 H 871.852 3.49265 -1.29788 0
M  V30 9214 H 871.965 3.58355 -3.17992 0
M  V30 9215 H 870.329 1.96794 -1.61692 0
M  V30 9216 H 871.112 1.33373 -3.16333 0
M  V30 9217 N 873.557 1.20646 1.01402 0
M  V30 9218 C 874.805 1.01618 1.74695 0
M  V30 9219 C 875.126 -0.452438 1.89679 0
M  V30 9220 O 874.396 -1.32693 1.44116 0
M  V30 9221 H 872.976 0.373013 0.647202 0
M  V30 9222 H 875.638 1.518 1.22241 0
M  V30 9223 H 874.734 1.47666 2.74957 0
M  V30 9224 N 875.035 -1.20752 1.01276 0
M  V30 9225 C 875.965 -2.25658 0.600064 0
M  V30 9226 C 876.946 -1.65733 -0.38298 0
M  V30 9227 O 878.131 -1.92324 -0.269256 0
M  V30 9228 C 875.261 -3.47237 -0.0663197 0
M  V30 9229 C 874.215 -4.1973 0.83731 0
M  V30 9230 C 873.541 -5.34687 0.0369102 0
M  V30 9231 C 874.841 -4.76286 2.14357 0
M  V30 9232 H 876.535 -2.60432 1.477 0
M  V30 9233 H 874.081 -1.25187 0.711634 0
M  V30 9234 H 876.034 -4.19803 -0.366563 0
M  V30 9235 H 874.758 -3.11615 -0.977944 0
M  V30 9236 H 873.417 -3.49024 1.1215 0
M  V30 9237 H 873.065 -4.95309 -0.876244 0
M  V30 9238 H 872.765 -5.84119 0.63865 0
M  V30 9239 H 874.289 -6.10059 -0.256968 0
M  V30 9240 H 875.703 -5.40691 1.90595 0
M  V30 9241 H 874.1 -5.36139 2.69583 0
M  V30 9242 H 875.17 -3.9524 2.80916 0
M  V30 9243 N 876.513 -0.788492 -1.36457 0
M  V30 9244 C 877.929 -0.470063 -1.52521 0
M  V30 9245 C 878.129 1.01176 -1.74258 0
M  V30 9246 O 877.185 1.79726 -1.77355 0
M  V30 9247 C 878.498 -1.2997 -2.71161 0
M  V30 9248 C 880.046 -1.2933 -2.85031 0
M  V30 9249 C 880.521 -2.10665 -4.06674 0
M  V30 9250 N 882.012 -2.08107 -4.13819 0
M  V30 9251 C 882.747 -2.6781 -5.07016 0
M  V30 9252 N 882.243 -3.36369 -6.05663 0
M  V30 9253 N 884.036 -2.57549 -4.99625 0
M  V30 9254 H 876.187 -1.7484 -1.20602 0
M  V30 9255 H 878.45 -0.743159 -0.588574 0
M  V30 9256 H 878.156 -2.35051 -2.61618 0
M  V30 9257 H 878.03 -0.940367 -3.6529 0
M  V30 9258 H 880.417 -0.250414 -2.94036 0
M  V30 9259 H 880.498 -1.69239 -1.91812 0
M  V30 9260 H 880.142 -3.14984 -3.98431 0
M  V30 9261 H 880.072 -1.68128 -4.9904 0
M  V30 9262 H 882.563 -1.58208 -3.43189 0
M  V30 9263 H 882.876 -3.79258 -6.73338 0
M  V30 9264 H 881.221 -3.40471 -6.05891 0
M  V30 9265 H 884.412 -2.0359 -4.21508 0
M  V30 9266 H 884.585 -3.0437 -5.72069 0
M  V30 9267 N 877.991 1.48044 -0.54043 0
M  V30 9268 C 879.219 2.06895 -0.0145153 0
M  V30 9269 C 879.634 1.39552 1.27164 0
M  V30 9270 O 878.991 0.486454 1.75897 0
M  V30 9271 C 879.042 3.60934 0.202278 0
M  V30 9272 O 878.763 4.25749 -1.03293 0
M  V30 9273 C 880.264 4.36607 0.767387 0
M  V30 9274 H 877.484 0.66991 -0.0382368 0
M  V30 9275 H 880.028 1.90288 -0.749057 0
M  V30 9276 H 878.183 3.77111 0.886897 0
M  V30 9277 H 878.597 5.18048 -0.820167 0
M  V30 9278 H 880.071 5.45126 0.86845 0
M  V30 9279 H 880.548 4.01745 1.77477 0
M  V30 9280 H 881.154 4.25133 0.119002 0
M  V30 9281 N 879.47 0.276058 1.55163 0
M  V30 9282 C 880.7 -0.343274 2.03728 0
M  V30 9283 C 881.108 -1.49945 1.15383 0
M  V30 9284 O 880.451 -1.82942 0.166696 0
M  V30 9285 C 880.513 -0.885683 3.48419 0
M  V30 9286 C 880.177 0.141976 4.56779 0
M  V30 9287 C 881.174 0.961816 5.10926 0
M  V30 9288 C 878.859 0.276487 5.01538 0
M  V30 9289 C 880.853 1.90234 6.0835 0
M  V30 9290 C 878.54 1.22049 5.98788 0
M  V30 9291 C 879.538 2.03192 6.52075 0
M  V30 9292 O 879.226 2.95996 7.47423 0
M  V30 9293 H 878.958 -0.0822192 0.670981 0
M  V30 9294 H 881.512 0.406199 2.01343 0
M  V30 9295 H 879.742 -1.68524 3.48047 0
M  V30 9296 H 881.431 -1.4182 3.80318 0
M  V30 9297 H 882.197 0.868637 4.77158 0
M  V30 9298 H 878.076 -0.345095 4.59707 0
M  V30 9299 H 881.62 2.5361 6.49867 0
M  V30 9300 H 877.517 1.31448 6.31974 0
M  V30 9301 H 878.285 2.90688 7.65142 0
M  V30 9302 N 880.948 -1.576 0.00335426 0
M  V30 9303 C 882.194 -1.90996 -0.681799 0
M  V30 9304 C 882.527 -0.877643 -1.73237 0
M  V30 9305 O 881.802 0.103183 -1.94226 0
M  V30 9306 C 882.085 -3.34961 -1.32187 0
M  V30 9307 C 881.938 -4.48911 -0.28261 0
M  V30 9308 C 883.257 -3.78408 -2.24711 0
M  V30 9309 H 880.376 -0.694596 -0.246386 0
M  V30 9310 H 883.018 -1.89919 0.055336 0
M  V30 9311 H 881.168 -3.36008 -1.95014 0
M  V30 9312 H 882.84 -4.59999 0.346241 0
M  V30 9313 H 881.083 -4.32 0.394768 0
M  V30 9314 H 881.754 -5.46609 -0.769576 0
M  V30 9315 H 884.23 -3.78934 -1.71897 0
M  V30 9316 H 883.106 -4.79885 -2.66461 0
M  V30 9317 H 883.367 -3.12464 -3.1276 0
M  V30 9318 N 882.426 0.269451 -1.5528 0
M  V30 9319 C 883.703 1.02207 -1.66773 0
M  V30 9320 C 884.083 2.04168 -0.536536 0
M  V30 9321 O 883.431 2.23761 0.462956 0
M  V30 9322 C 883.641 1.67569 -3.0614 0
M  V30 9323 C 884.989 2.18599 -3.64005 0
M  V30 9324 O 886.013 1.7755 -3.08795 0
M  V30 9325 O 884.872 2.93903 -4.60742 0
M  V30 9326 H 881.966 0.474314 -0.677462 0
M  V30 9327 H 884.512 0.265026 -1.67618 0
M  V30 9328 H 883.284 0.937029 -3.79915 0
M  V30 9329 H 882.907 2.49951 -3.09209 0
M  V30 9330 N 883.904 1.48273 0.534124 0
M  V30 9331 C 885.315 1.49667 1.1161 0
M  V30 9332 C 885.666 0.264139 1.94414 0
M  V30 9333 O 884.791 -0.629084 2.07054 0
M  V30 9334 C 885.386 2.71191 2.03079 0
M  V30 9335 C 883.945 2.7547 2.56502 0
M  V30 9336 C 883.092 2.43119 1.33373 0
M  V30 9337 H 886.043 1.55449 0.319578 0
M  V30 9338 H 886.064 2.49473 2.87304 0
M  V30 9339 H 885.576 3.60879 1.42785 0
M  V30 9340 H 883.677 1.89979 3.20529 0
M  V30 9341 H 883.79 3.76787 2.95919 0
M  V30 9342 H 882.154 1.94187 1.64813 0
M  V30 9343 H 882.937 3.35044 0.748375 0
M  V30 9344 N 885.382 -0.782676 1.36792 0
M  V30 9345 C 886.332 -1.8855 1.28191 0
M  V30 9346 C 887.316 -1.59978 0.171984 0
M  V30 9347 O 888.508 -1.72295 0.405405 0
M  V30 9348 C 885.637 -3.25862 1.08021 0
M  V30 9349 C 884.723 -3.60422 2.2351 0
M  V30 9350 N 885.114 -3.66241 3.48857 0
M  V30 9351 C 883.412 -3.90523 2.15424 0
M  V30 9352 C 884.113 -3.97233 4.24948 0
M  V30 9353 N 883.089 -4.12567 3.53963 0
M  V30 9354 H 886.891 -1.91285 2.23131 0
M  V30 9355 H 884.405 -0.978554 1.29607 0
M  V30 9356 H 886.402 -4.04742 0.999458 0
M  V30 9357 H 885.062 -3.24399 0.139882 0
M  V30 9358 H 886.073 -3.48717 3.82906 0
M  V30 9359 H 882.75 -3.96945 1.29386 0
M  V30 9360 H 884.14 -4.08602 5.33379 0
M  V30 9361 N 886.86 -1.21182 -1.00761 0
M  V30 9362 C 888.088 -1.05335 -1.78079 0
M  V30 9363 C 888.503 0.396988 -1.84579 0
M  V30 9364 O 887.86 1.27548 -1.30529 0
M  V30 9365 C 887.911 -1.64089 -3.22113 0
M  V30 9366 O 887.632 -3.03448 -3.15992 0
M  V30 9367 C 889.133 -1.53318 -4.15943 0
M  V30 9368 H 886.353 -0.37005 -0.559736 0
M  V30 9369 H 888.897 -1.60463 -1.26775 0
M  V30 9370 H 887.052 -1.13059 -3.70535 0
M  V30 9371 H 887.466 -3.31492 -4.06465 0
M  V30 9372 H 888.94 -1.99174 -5.14814 0
M  V30 9373 H 889.417 -0.487166 -4.3649 0
M  V30 9374 H 890.023 -2.03582 -3.73409 0
M  V30 9375 N 888.338 1.20213 -1.01915 0
M  V30 9376 C 889.568 1.93341 -0.728197 0
M  V30 9377 C 889.976 1.75151 0.715454 0
M  V30 9378 O 889.319 1.06437 1.49722 0
M  V30 9379 C 889.381 3.45677 -0.9873 0
M  V30 9380 C 889.045 3.8763 -2.42057 0
M  V30 9381 C 890.042 3.93184 -3.40151 0
M  V30 9382 C 887.727 4.19547 -2.76199 0
M  V30 9383 C 889.721 4.30069 -4.70446 0
M  V30 9384 C 887.408 4.56106 -4.06707 0
M  V30 9385 C 888.406 4.6134 -5.03641 0
M  V30 9386 O 888.094 4.97059 -6.31813 0
M  V30 9387 H 887.826 0.621258 -0.266485 0
M  V30 9388 H 890.38 1.53577 -1.36393 0
M  V30 9389 H 888.61 3.85578 -0.294405 0
M  V30 9390 H 890.299 4.00035 -0.687536 0
M  V30 9391 H 891.065 3.68687 -3.15111 0
M  V30 9392 H 886.944 4.14663 -2.01434 0
M  V30 9393 H 890.488 4.34069 -5.46105 0
M  V30 9394 H 886.385 4.80059 -4.31525 0
M  V30 9395 H 887.153 5.15043 -6.36139 0
M  V30 9396 N 889.816 0.795718 1.36037 0
M  V30 9397 C 890.726 0.199784 2.33748 0
M  V30 9398 C 891.742 -0.651436 1.61345 0
M  V30 9399 O 892.918 -0.565743 1.93291 0
M  V30 9400 C 889.983 -0.650475 3.40543 0
M  V30 9401 C 889.044 0.219974 4.28736 0
M  V30 9402 C 888.277 -0.589798 5.30431 0
M  V30 9403 O 888.5 -1.82532 5.40406 0
M  V30 9404 O 887.434 0.0136187 6.01898 0
M  V30 9405 H 891.26 1.00782 2.8649 0
M  V30 9406 H 888.845 0.557293 1.38617 0
M  V30 9407 H 890.727 -1.13512 4.05824 0
M  V30 9408 H 889.402 -1.4363 2.9009 0
M  V30 9409 H 888.309 0.751516 3.66474 0
M  V30 9410 H 889.642 0.969468 4.82558 0
M  V30 9411 N 891.294 -1.47756 0.548274 0
M  V30 9412 C 892.571 -1.9555 -0.0443603 0
M  V30 9413 C 892.951 -1.49079 -1.49462 0
M  V30 9414 O 892.299 -0.725538 -2.16675 0
M  V30 9415 C 892.509 -3.48879 0.0918425 0
M  V30 9416 C 893.857 -4.2456 -0.0580879 0
M  V30 9417 O 894.881 -3.56195 0.018946 0
M  V30 9418 O 893.74 -5.46048 -0.222261 0
M  V30 9419 H 890.834 -0.824106 -0.0691235 0
M  V30 9420 H 893.38 -1.58196 0.614166 0
M  V30 9421 H 892.152 -3.7548 1.10137 0
M  V30 9422 H 891.775 -3.92975 -0.604704 0
M  V30 9423 N 892.772 -0.284283 -1.55015 0
M  V30 9424 C 894.183 0.211681 -1.85496 0
M  V30 9425 C 894.534 1.54735 -1.2063 0
M  V30 9426 O 893.659 2.10594 -0.497918 0
M  V30 9427 C 894.254 0.390864 -3.36538 0
M  V30 9428 C 892.813 0.831055 -3.67111 0
M  V30 9429 C 891.96 -0.0703581 -2.77211 0
M  V30 9430 H 894.911 -0.505803 -1.50424 0
M  V30 9431 H 894.932 1.22803 -3.60138 0
M  V30 9432 H 894.444 -0.581409 -3.8372 0
M  V30 9433 H 892.545 1.81447 -3.25434 0
M  V30 9434 H 892.658 0.662026 -4.74504 0
M  V30 9435 H 891.022 0.447528 -2.50737 0
M  V30 9436 H 891.805 -1.03868 -3.2721 0
M  V30 9437 N 894.251 1.57596 -0.0117121 0
M  V30 9438 C 895.479 1.9536 0.681334 0
M  V30 9439 C 895.894 0.887255 1.66653 0
M  V30 9440 O 895.251 -0.132692 1.82017 0
M  V30 9441 C 895.302 3.33165 1.40298 0
M  V30 9442 O 895.023 4.35707 0.45728 0
M  V30 9443 C 896.524 3.85458 2.18946 0
M  V30 9444 H 893.744 0.643826 0.189023 0
M  V30 9445 H 896.288 2.04392 -0.066311 0
M  V30 9446 H 894.443 3.25404 2.10216 0
M  V30 9447 H 894.857 5.15495 0.96773 0
M  V30 9448 H 896.331 4.84275 2.64918 0
M  V30 9449 H 896.808 3.18781 3.02118 0
M  V30 9450 H 897.414 3.96431 1.5402 0
M  V30 9451 N 895.729 -0.261212 1.5542 0
M  V30 9452 C 896.661 -1.34571 1.85535 0
M  V30 9453 C 897.674 -1.44979 0.740612 0
M  V30 9454 O 898.863 -1.46584 1.01859 0
M  V30 9455 C 895.963 -2.7258 2.01378 0
M  V30 9456 C 895.136 -2.84618 3.32131 0
M  V30 9457 C 894.195 -4.03379 3.37893 0
M  V30 9458 O 893.221 -3.93581 4.11197 0
M  V30 9459 N 894.423 -5.15893 2.66148 0
M  V30 9460 H 897.188 -1.09078 2.79145 0
M  V30 9461 H 894.749 -0.451327 1.55482 0
M  V30 9462 H 896.741 -3.50342 2.0259 0
M  V30 9463 H 895.311 -2.90844 1.14579 0
M  V30 9464 H 894.531 -1.93647 3.43358 0
M  V30 9465 H 895.819 -2.896 4.18341 0
M  V30 9466 H 895.217 -5.26743 2.06297 0
M  V30 9467 H 893.774 -5.91842 2.73069 0
M  V30 9468 N 897.207 -1.48554 -0.526253 0
M  V30 9469 C 898.17 -1.62868 -1.61266 0
M  V30 9470 C 899.17 -0.501762 -1.52771 0
M  V30 9471 O 900.36 -0.76764 -1.56374 0
M  V30 9472 C 897.492 -1.60238 -3.00893 0
M  V30 9473 H 898.685 -2.59742 -1.49913 0
M  V30 9474 H 896.238 -1.37207 -0.748595 0
M  V30 9475 H 896.973 -0.648545 -3.17749 0
M  V30 9476 H 896.758 -2.42054 -3.08468 0
M  V30 9477 H 898.248 -1.73455 -3.79872 0
M  V30 9478 N 898.685 0.775411 -1.37205 0
M  V30 9479 C 899.931 1.53611 -1.32407 0
M  V30 9480 C 900.264 1.9398 0.0924103 0
M  V30 9481 O 899.539 1.63791 1.04893 0
M  V30 9482 C 899.822 2.80367 -2.25979 0
M  V30 9483 C 899.675 2.46275 -3.76389 0
M  V30 9484 C 900.994 3.82277 -2.18064 0
M  V30 9485 H 898.113 0.557278 -0.482297 0
M  V30 9486 H 900.755 0.889826 -1.67875 0
M  V30 9487 H 898.905 3.35515 -1.95862 0
M  V30 9488 H 900.577 1.9707 -4.17087 0
M  V30 9489 H 898.82 1.79023 -3.95137 0
M  V30 9490 H 899.491 3.36868 -4.37291 0
M  V30 9491 H 901.967 3.36613 -2.44604 0
M  V30 9492 H 900.843 4.68696 -2.85684 0
M  V30 9493 H 901.104 4.26272 -1.17239 0
M  V30 9494 N 900.163 1.21714 1.00117 0
M  V30 9495 C 901.113 0.947259 2.07391 0
M  V30 9496 C 902.097 -0.0989662 1.60595 0
M  V30 9497 O 903.289 0.11047 1.76655 0
M  V30 9498 C 900.418 0.517954 3.3937 0
M  V30 9499 C 899.504 1.59846 3.92823 0
M  V30 9500 N 899.895 2.82438 4.19598 0
M  V30 9501 C 898.193 1.46822 4.2114 0
M  V30 9502 C 898.894 3.52247 4.62922 0
M  V30 9503 N 897.87 2.79696 4.66124 0
M  V30 9504 H 901.672 1.8786 2.26022 0
M  V30 9505 H 899.186 1.11344 1.18221 0
M  V30 9506 H 901.183 0.305951 4.15776 0
M  V30 9507 H 899.843 -0.40658 3.22144 0
M  V30 9508 H 900.854 3.18944 4.08038 0
M  V30 9509 H 897.531 0.609259 4.13031 0
M  V30 9510 H 898.921 4.57232 4.9233 0
M  V30 9511 N 901.641 -1.19671 1.02551 0
M  V30 9512 C 902.551 -2.26441 0.613329 0
M  V30 9513 C 903.567 -1.70375 -0.353339 0
M  V30 9514 O 904.743 -2.0028 -0.212064 0
M  V30 9515 C 901.808 -3.46684 -0.0329028 0
M  V30 9516 C 900.869 -4.17945 0.980837 0
M  V30 9517 C 900.102 -5.32448 0.36535 0
M  V30 9518 O 900.325 -5.64291 -0.832596 0
M  V30 9519 O 899.259 -5.92012 1.08652 0
M  V30 9520 H 903.085 -2.63932 1.50246 0
M  V30 9521 H 900.67 -1.2646 0.795502 0
M  V30 9522 H 902.552 -4.1956 -0.393395 0
M  V30 9523 H 901.227 -3.1105 -0.896089 0
M  V30 9524 H 900.134 -3.47204 1.39286 0
M  V30 9525 H 901.467 -4.57542 1.81428 0
M  V30 9526 N 903.119 -0.802921 -1.35613 0
M  V30 9527 C 904.366 -0.381576 -1.98872 0
M  V30 9528 C 904.694 1.0503 -1.63704 0
M  V30 9529 O 903.949 1.7427 -0.890418 0
M  V30 9530 C 904.248 -0.507806 -3.53774 0
M  V30 9531 C 903.914 -1.90245 -4.088 0
M  V30 9532 C 902.576 -2.28401 -4.2354 0
M  V30 9533 C 904.928 -2.81504 -4.3864 0
M  V30 9534 C 902.256 -3.57192 -4.65436 0
M  V30 9535 C 904.608 -4.09737 -4.81973 0
M  V30 9536 C 903.272 -4.47897 -4.94919 0
M  V30 9537 H 902.542 -0.139629 -0.727726 0
M  V30 9538 H 905.189 -1.023 -1.61886 0
M  V30 9539 H 903.494 0.21708 -3.91198 0
M  V30 9540 H 905.191 -0.162625 -4.0067 0
M  V30 9541 H 901.781 -1.596 -3.97776 0
M  V30 9542 H 905.965 -2.53276 -4.26808 0
M  V30 9543 H 901.221 -3.86611 -4.73648 0
M  V30 9544 H 905.395 -4.80555 -5.04024 0
M  V30 9545 H 903.022 -5.47747 -5.27141 0
M  V30 9546 N 904.597 1.47463 -0.556102 0
M  V30 9547 C 905.56 2.28478 0.181743 0
M  V30 9548 C 906.56 1.36886 0.843738 0
M  V30 9549 O 907.75 1.59527 0.69977 0
M  V30 9550 C 904.882 3.16534 1.26566 0
M  V30 9551 H 906.075 2.95182 -0.529892 0
M  V30 9552 H 903.628 1.53134 -0.313005 0
M  V30 9553 H 904.363 2.5452 2.00973 0
M  V30 9554 H 904.148 3.83939 0.795798 0
M  V30 9555 H 905.638 3.77579 1.78393 0
M  V30 9556 N 906.075 0.2925 1.54862 0
M  V30 9557 C 907.022 -0.587365 2.23201 0
M  V30 9558 C 907.992 -1.13623 1.21157 0
M  V30 9559 O 909.177 -1.18233 1.49752 0
M  V30 9560 C 906.317 -1.75745 2.96998 0
M  V30 9561 C 905.43 -1.24078 4.13798 0
M  V30 9562 C 904.565 -2.37405 4.75197 0
M  V30 9563 C 903.604 -1.82829 5.84157 0
M  V30 9564 N 902.741 -2.89696 6.39547 0
M  V30 9565 H 907.581 0.00202207 2.98 0
M  V30 9566 H 905.118 0.012766 1.47094 0
M  V30 9567 H 907.076 -2.44549 3.38011 0
M  V30 9568 H 905.706 -2.3186 2.24591 0
M  V30 9569 H 904.758 -0.445268 3.77785 0
M  V30 9570 H 906.07 -0.801186 4.92324 0
M  V30 9571 H 905.224 -3.14172 5.19019 0
M  V30 9572 H 903.963 -2.84688 3.95985 0
M  V30 9573 H 902.968 -1.04548 5.39768 0
M  V30 9574 H 904.193 -1.36461 6.65248 0
M  V30 9575 H 902.139 -3.36328 5.63222 0
M  V30 9576 H 902.056 -2.50206 7.13395 0
M  V30 9577 H 903.324 -3.66386 6.88027 0
M  V30 9578 N 907.553 -1.57587 0.0200696 0
M  V30 9579 C 908.463 -2.13119 -0.980676 0
M  V30 9580 C 909.479 -1.08124 -1.36328 0
M  V30 9581 O 910.655 -1.40134 -1.44653 0
M  V30 9582 C 907.72 -2.63991 -2.24743 0
M  V30 9583 C 906.781 -3.83667 -1.9261 0
M  V30 9584 C 906.014 -4.32103 -3.13246 0
M  V30 9585 O 906.237 -3.79758 -4.25606 0
M  V30 9586 O 905.171 -5.24047 -2.96072 0
M  V30 9587 H 908.997 -2.98887 -0.538528 0
M  V30 9588 H 906.582 -1.48055 -0.19999 0
M  V30 9589 H 908.464 -2.9682 -2.99125 0
M  V30 9590 H 907.139 -1.81311 -2.68157 0
M  V30 9591 H 906.046 -3.55778 -1.15641 0
M  V30 9592 H 907.379 -4.67482 -1.54019 0
M  V30 9593 N 909.032 0.252966 -1.55557 0
M  V30 9594 C 909.962 1.31691 -1.9282 0
M  V30 9595 C 910.943 1.50516 -0.7924 0
M  V30 9596 O 912.128 1.63225 -1.05219 0
M  V30 9597 C 909.258 2.67281 -2.21762 0
M  V30 9598 C 908.212 2.6316 -3.37536 0
M  V30 9599 C 907.538 4.02488 -3.52005 0
M  V30 9600 C 908.838 2.20675 -4.73392 0
M  V30 9601 H 910.532 1.00751 -2.81939 0
M  V30 9602 H 908.078 0.483219 -1.3565 0
M  V30 9603 H 910.031 3.41842 -2.46419 0
M  V30 9604 H 908.755 2.99845 -1.29463 0
M  V30 9605 H 907.414 1.91057 -3.12878 0
M  V30 9606 H 907.062 4.32307 -2.57137 0
M  V30 9607 H 906.762 4.00621 -4.29857 0
M  V30 9608 H 908.286 4.78758 -3.78977 0
M  V30 9609 H 909.7 2.84965 -4.97461 0
M  V30 9610 H 908.097 2.29931 -5.54303 0
M  V30 9611 H 909.167 1.15831 -4.70862 0
M  V30 9612 N 910.51 1.48831 0.518367 0
M  V30 9613 C 911.787 1.47933 1.27966 0
M  V30 9614 C 912.167 0.197393 2.10175 0
M  V30 9615 O 911.515 -0.820656 2.13255 0
M  V30 9616 C 911.725 2.74816 2.15121 0
M  V30 9617 C 913.073 3.23613 2.74881 0
M  V30 9618 O 914.097 2.75814 2.254 0
M  V30 9619 O 912.956 4.06818 3.64913 0
M  V30 9620 H 910.05 0.591316 0.578164 0
M  V30 9621 H 912.596 1.61077 0.534065 0
M  V30 9622 H 911.368 3.59621 1.54234 0
M  V30 9623 H 910.991 2.64449 2.96905 0
M  V30 9624 N 911.988 -0.768124 1.37614 0
M  V30 9625 C 912.951 -1.86314 1.3349 0
M  V30 9626 C 913.951 -1.59025 0.23823 0
M  V30 9627 O 915.141 -1.6704 0.494288 0
M  V30 9628 C 912.273 -3.23519 1.07462 0
M  V30 9629 H 913.466 -1.91382 2.30896 0
M  V30 9630 H 911.019 -0.968267 1.22696 0
M  V30 9631 H 911.754 -3.24127 0.106028 0
M  V30 9632 H 911.539 -3.44719 1.86846 0
M  V30 9633 H 913.029 -4.03597 1.07236 0
M  V30 9634 N 913.466 -1.22244 -0.994698 0
M  V30 9635 C 914.694 -1.07218 -1.76952 0
M  V30 9636 C 915.109 0.377388 -1.8499 0
M  V30 9637 O 914.466 1.26157 -1.31874 0
M  V30 9638 C 914.517 -1.67496 -3.20355 0
M  V30 9639 O 914.238 -3.06782 -3.12756 0
M  V30 9640 C 915.739 -1.57721 -4.14294 0
M  V30 9641 H 912.959 -0.375966 -0.555779 0
M  V30 9642 H 915.503 -1.61799 -1.25065 0
M  V30 9643 H 913.658 -1.16982 -3.69315 0
M  V30 9644 H 914.072 -3.35784 -4.02926 0
M  V30 9645 H 915.546 -2.04623 -5.12673 0
M  V30 9646 H 916.023 -0.533434 -4.35949 0
M  V30 9647 H 916.629 -2.07531 -3.71229 0
M  V30 9648 N 914.944 1.19125 -1.03184 0
M  V30 9649 C 915.892 2.24492 -0.608781 0
M  V30 9650 C 916.886 1.65529 0.360065 0
M  V30 9651 O 918.092 1.78546 0.22832 0
M  V30 9652 H 914.467 0.73048 -0.178616 0
M  V30 9653 H 916.438 2.5749 -1.50803 0
M  V30 9654 C 915.187 3.47693 0.0215126 0
M  V30 9655 H 914.51 3.93354 -0.715024 0
M  V30 9656 H 915.95 4.23072 0.280429 0
M  V30 9657 C 914.409 3.12088 1.26896 0
M  V30 9658 O 914.939 3.25013 2.36071 0
M  V30 9659 N 913.145 2.66494 1.15886 0
M  V30 9660 H 912.692 2.56176 0.270463 0
M  V30 9661 H 912.65 2.43042 1.99444 0
M  V30 9662 N 916.422 0.810101 1.35185 0
M  V30 9663 C 917.671 0.388589 1.97921 0
M  V30 9664 C 917.984 -1.05079 1.64978 0
M  V30 9665 O 919.19 -1.57559 2.21105 0
M  V30 9666 C 917.646 0.643864 3.54094 0
M  V30 9667 C 917.254 2.09602 3.95943 0
M  V30 9668 C 918.998 0.287883 4.23523 0
M  V30 9669 C 916.905 2.29686 5.44976 0
M  V30 9670 H 915.835 0.141562 0.740592 0
M  V30 9671 H 918.486 0.994653 1.54204 0
M  V30 9672 H 916.868 -0.0321978 3.95987 0
M  V30 9673 H 918.042 2.81018 3.65192 0
M  V30 9674 H 916.357 2.4122 3.39414 0
M  V30 9675 H 918.954 0.415946 5.3308 0
M  V30 9676 H 919.297 -0.766305 4.09186 0
M  V30 9677 H 919.83 0.918004 3.87063 0
M  V30 9678 H 916.569 3.33563 5.64284 0
M  V30 9679 H 916.089 1.62798 5.77284 0
M  V30 9680 H 917.768 2.11411 6.11485 0
M  V30 9681 N 917.9 -1.47166 0.563914 0
M  V30 9682 C 919.125 -2.0735 0.0454698 0
M  V30 9683 C 919.55 -1.41281 -1.24182 0
M  V30 9684 O 918.908 -0.490084 -1.7455 0
M  V30 9685 C 918.956 -3.60378 -0.126453 0
M  V30 9686 O 918.06 -3.94934 -1.18746 0
M  V30 9687 H 917.401 -0.661773 0.0543377 0
M  V30 9688 H 919.931 -1.89086 0.781508 0
M  V30 9689 H 919.941 -4.06593 -0.338554 0
M  V30 9690 H 918.616 -4.07862 0.81373 0
M  V30 9691 H 917.193 -3.60455 -0.955318 0
M  V30 9692 N 919.378 -0.300708 -1.54705 0
M  V30 9693 C 920.627 0.309428 -1.99312 0
M  V30 9694 C 920.94 1.55027 -1.19272 0
M  V30 9695 O 922.146 2.23498 -1.54146 0
M  V30 9696 C 920.602 0.601856 -3.54832 0
M  V30 9697 C 920.21 -0.620636 -4.4368 0
M  V30 9698 C 921.954 1.1732 -4.07966 0
M  V30 9699 C 919.861 -0.301376 -5.90632 0
M  V30 9700 H 918.791 0.119395 -0.744487 0
M  V30 9701 H 921.442 -0.409368 -1.78875 0
M  V30 9702 H 919.824 1.38024 -3.71168 0
M  V30 9703 H 920.998 -1.39685 -4.39118 0
M  V30 9704 H 919.313 -1.1106 -4.01316 0
M  V30 9705 H 921.91 1.42631 -5.15326 0
M  V30 9706 H 922.253 2.11537 -3.5855 0
M  V30 9707 H 922.786 0.456534 -3.95172 0
M  V30 9708 H 919.525 -1.21209 -6.44196 0
M  V30 9709 H 919.045 0.437574 -5.98202 0
M  V30 9710 H 920.724 0.097164 -6.46927 0
M  V30 9711 N 920.856 1.57574 -0.0284266 0
M  V30 9712 C 922.133 1.83064 0.688979 0
M  V30 9713 C 922.513 0.91219 1.90374 0
M  V30 9714 O 921.861 -0.0323672 2.28477 0
M  V30 9715 C 922.071 3.32262 1.06785 0
M  V30 9716 C 923.419 3.98717 1.45978 0
M  V30 9717 O 924.443 3.36753 1.16085 0
M  V30 9718 O 923.302 5.07927 2.01673 0
M  V30 9719 H 920.396 0.7548 0.337944 0
M  V30 9720 H 922.942 1.69607 -0.0560555 0
M  V30 9721 H 921.714 3.90772 0.203235 0
M  V30 9722 H 921.337 3.50823 1.87107 0
M  V30 9723 N 922.334 -0.244713 1.55689 0
M  V30 9724 C 923.281 -1.30301 1.905 0
M  V30 9725 C 924.251 -1.4772 0.759478 0
M  V30 9726 O 925.436 -1.61667 1.01333 0
M  V30 9727 C 922.576 -2.653 2.20703 0
M  V30 9728 C 921.689 -2.55872 3.48071 0
M  V30 9729 C 920.824 -3.83238 3.67834 0
M  V30 9730 C 919.863 -3.68436 4.88796 0
M  V30 9731 N 919 -4.877 5.05068 0
M  V30 9732 H 923.84 -0.999143 2.80751 0
M  V30 9733 H 921.377 -0.482099 1.38976 0
M  V30 9734 H 923.335 -3.43884 2.36219 0
M  V30 9735 H 921.965 -2.93831 1.33653 0
M  V30 9736 H 921.017 -1.68846 3.40874 0
M  V30 9737 H 922.329 -2.40845 4.36801 0
M  V30 9738 H 921.483 -4.70266 3.83321 0
M  V30 9739 H 920.222 -4.01165 2.77341 0
M  V30 9740 H 919.227 -2.79793 4.73282 0
M  V30 9741 H 920.452 -3.52003 5.8075 0
M  V30 9742 H 918.398 -5.05983 4.17513 0
M  V30 9743 H 918.315 -4.75312 5.8789 0
M  V30 9744 H 919.583 -5.76219 5.24969 0
M  V30 9745 N 923.813 -1.49104 -0.510467 0
M  V30 9746 C 925.059 -1.58346 -1.26705 0
M  V30 9747 C 925.392 -0.265121 -1.92382 0
M  V30 9748 O 924.667 0.730558 -1.80258 0
M  V30 9749 C 924.95 -2.7359 -2.34137 0
M  V30 9750 C 924.803 -4.1519 -1.73024 0
M  V30 9751 C 926.122 -2.84511 -3.3577 0
M  V30 9752 H 923.241 -0.57637 -0.459311 0
M  V30 9753 H 925.883 -1.81353 -0.566658 0
M  V30 9754 H 924.033 -2.54105 -2.93876 0
M  V30 9755 H 925.705 -4.46167 -1.17186 0
M  V30 9756 H 923.948 -4.21279 -1.03473 0
M  V30 9757 H 924.619 -4.91683 -2.50903 0
M  V30 9758 H 927.095 -3.0222 -2.86011 0
M  V30 9759 H 925.971 -3.6684 -4.08313 0
M  V30 9760 H 926.232 -1.93471 -3.97519 0
M  V30 9761 N 925.291 0.760815 -1.38019 0
M  V30 9762 C 926.537 1.52198 -1.34028 0
M  V30 9763 C 926.87 1.94067 0.0718309 0
M  V30 9764 O 926.145 1.64895 1.0315 0
M  V30 9765 C 926.428 2.77954 -2.2894 0
M  V30 9766 C 926.281 2.42269 -3.7898 0
M  V30 9767 C 927.6 3.79943 -2.22107 0
M  V30 9768 H 924.719 0.552131 -0.488181 0
M  V30 9769 H 927.361 0.871971 -1.6881 0
M  V30 9770 H 925.511 3.33419 -1.9941 0
M  V30 9771 H 927.183 1.92635 -4.19153 0
M  V30 9772 H 925.426 1.74822 -3.97014 0
M  V30 9773 H 926.097 3.32211 -4.4084 0
M  V30 9774 H 928.573 3.34 -2.4816 0
M  V30 9775 H 927.449 4.6564 -2.90639 0
M  V30 9776 H 927.71 4.25004 -1.21753 0
M  V30 9777 N 926.769 1.22769 0.988202 0
M  V30 9778 C 928.017 1.05301 1.725 0
M  V30 9779 C 928.338 -0.412103 1.90596 0
M  V30 9780 O 927.608 -1.29606 1.46898 0
M  V30 9781 H 926.188 0.386658 0.639144 0
M  V30 9782 H 928.85 1.54359 1.18993 0
M  V30 9783 H 927.946 1.53465 2.71763 0
M  V30 9784 N 928.247 -1.18576 1.03814 0
M  V30 9785 C 929.21 -2.2033 0.63146 0
M  V30 9786 C 930.21 -1.57787 -0.309816 0
M  V30 9787 O 931.4 -1.73938 -0.0955598 0
M  V30 9788 C 928.532 -3.40818 -0.0745963 0
M  V30 9789 H 929.725 -2.57824 1.53189 0
M  V30 9790 H 927.278 -1.32416 0.830398 0
M  V30 9791 H 928.013 -3.08853 -0.988947 0
M  V30 9792 H 927.798 -3.87453 0.6019 0
M  V30 9793 H 929.288 -4.16166 -0.345727 0
M  V30 9794 N 929.725 -0.817259 -1.34754 0
M  V30 9795 C 930.973 -0.401852 -1.98065 0
M  V30 9796 C 931.294 1.03718 -1.65129 0
M  V30 9797 O 930.564 1.71921 -0.939141 0
M  V30 9798 H 929.144 -0.145603 -0.732672 0
M  V30 9799 H 931.806 -1.04545 -1.64488 0
M  V30 9800 H 930.902 -0.516241 -3.07801 0
M  V30 9801 N 931.203 1.46865 -0.571711 0
M  V30 9802 C 932.113 2.33979 0.170571 0
M  V30 9803 C 933.129 1.49083 0.897239 0
M  V30 9804 O 934.305 1.81979 0.862888 0
M  V30 9805 C 931.37 3.26063 1.17831 0
M  V30 9806 C 930.431 4.26855 0.457499 0
M  V30 9807 C 929.664 5.14539 1.41722 0
M  V30 9808 O 929.887 5.04945 2.65305 0
M  V30 9809 O 928.821 5.94612 0.9338 0
M  V30 9810 H 932.647 2.98781 -0.544396 0
M  V30 9811 H 930.232 1.4566 -0.332198 0
M  V30 9812 H 932.114 3.82903 1.75965 0
M  V30 9813 H 930.789 2.63871 1.87493 0
M  V30 9814 H 929.696 3.73734 -0.165406 0
M  V30 9815 H 931.029 4.91802 -0.197953 0
M  V30 9816 N 932.681 0.308908 1.54543 0
M  V30 9817 C 933.928 -0.298036 2.00295 0
M  V30 9818 C 934.256 -1.53285 1.19724 0
M  V30 9819 O 933.511 -1.93917 0.263551 0
M  V30 9820 C 933.81 -0.691522 3.50646 0
M  V30 9821 C 933.476 0.442454 4.48724 0
M  V30 9822 C 932.138 0.753739 4.7526 0
M  V30 9823 C 934.49 1.20488 5.07082 0
M  V30 9824 C 931.818 1.83044 5.57415 0
M  V30 9825 C 934.17 2.27156 5.90409 0
M  V30 9826 C 932.834 2.58882 6.15253 0
M  V30 9827 H 932.104 -0.109059 0.73293 0
M  V30 9828 H 934.751 0.429647 1.86618 0
M  V30 9829 H 933.056 -1.49941 3.61974 0
M  V30 9830 H 934.753 -1.17244 3.83477 0
M  V30 9831 H 931.343 0.189744 4.2818 0
M  V30 9832 H 935.527 0.977653 4.86575 0
M  V30 9833 H 930.783 2.08088 5.749 0
M  V30 9834 H 934.957 2.86687 6.34652 0
M  V30 9835 H 932.584 3.42443 6.78702 0
M  V30 9836 N 934.159 -1.57557 0.0367827 0
M  V30 9837 C 935.407 -1.91735 -0.63892 0
M  V30 9838 C 935.728 -0.914515 -1.72226 0
M  V30 9839 O 934.998 0.0428248 -1.95853 0
M  V30 9840 H 933.578 -0.707738 -0.23899 0
M  V30 9841 H 936.24 -1.94708 0.0863931 0
M  V30 9842 H 935.336 -2.92568 -1.08676 0
M  V30 9843 N 935.637 0.236453 -1.55816 0
M  V30 9844 C 936.547 1.31418 -1.94336 0
M  V30 9845 C 937.563 1.52095 -0.845164 0
M  V30 9846 O 938.739 1.65515 -1.14746 0
M  V30 9847 C 935.804 2.6468 -2.23932 0
M  V30 9848 C 934.865 2.52435 -3.47239 0
M  V30 9849 C 934.098 3.79342 -3.75414 0
M  V30 9850 O 934.321 4.81694 -3.05495 0
M  V30 9851 O 933.255 3.77347 -4.68927 0
M  V30 9852 H 937.081 1.01739 -2.86152 0
M  V30 9853 H 934.666 0.438084 -1.42833 0
M  V30 9854 H 936.548 3.4341 -2.44228 0
M  V30 9855 H 935.223 2.94071 -1.35292 0
M  V30 9856 H 934.13 1.71955 -3.32238 0
M  V30 9857 H 935.463 2.27987 -4.36214 0
M  V30 9858 N 937.115 1.49373 0.502552 0
M  V30 9859 C 938.361 1.59016 1.25864 0
M  V30 9860 C 938.694 0.27532 1.92238 0
M  V30 9861 O 937.969 -0.720988 1.80643 0
M  V30 9862 C 938.252 2.74828 2.32683 0
M  V30 9863 C 938.105 4.16102 1.7082 0
M  V30 9864 C 939.424 2.86288 3.34256 0
M  V30 9865 H 936.543 0.578798 0.456248 0
M  V30 9866 H 939.185 1.81651 0.557032 0
M  V30 9867 H 937.335 2.5566 2.92524 0
M  V30 9868 H 939.007 4.46782 1.14818 0
M  V30 9869 H 937.25 4.21822 1.01238 0
M  V30 9870 H 937.921 4.93006 2.48292 0
M  V30 9871 H 940.397 3.03733 2.84404 0
M  V30 9872 H 939.273 3.69001 4.06362 0
M  V30 9873 H 939.534 1.95576 3.96488 0
M  V30 9874 N 938.594 -0.753485 1.38421 0
M  V30 9875 C 939.834 -1.52544 1.3605 0
M  V30 9876 C 940.198 -1.91937 -0.0493257 0
M  V30 9877 O 941.399 -2.6807 -0.197908 0
M  V30 9878 C 939.67 -2.74432 2.28958 0
M  V30 9879 S 941.229 -3.64297 2.44607 0
M  V30 9880 H 938.047 -0.522017 0.48272 0
M  V30 9881 H 940.649 -0.884503 1.74347 0
M  V30 9882 H 939.353 -2.43602 3.30282 0
M  V30 9883 H 938.884 -3.43471 1.91811 0
M  V30 9884 H 940.899 -4.67245 1.67022 0
M  V30 9885 N 940.072 -1.23292 -0.981677 0
M  V30 9886 C 941.297 -1.09176 -1.76339 0
M  V30 9887 C 941.722 0.352726 -1.84763 0
M  V30 9888 O 941.08 1.25509 -1.30832 0
M  V30 9889 C 941.128 -1.72046 -3.16911 0
M  V30 9890 O 940.232 -0.98174 -4.00544 0
M  V30 9891 H 939.573 -0.382755 -0.542581 0
M  V30 9892 H 942.103 -1.63319 -1.23239 0
M  V30 9893 H 942.113 -1.77232 -3.67495 0
M  V30 9894 H 940.788 -2.77154 -3.10095 0
M  V30 9895 H 939.365 -1.00672 -3.59054 0
M  V30 9896 N 941.55 1.18024 -1.04442 0
M  V30 9897 C 942.798 1.87727 -0.74854 0
M  V30 9898 C 943.119 1.80975 0.726156 0
M  V30 9899 O 942.389 1.23061 1.52423 0
M  V30 9900 H 940.969 0.694974 -0.273897 0
M  V30 9901 H 943.631 1.43213 -1.32197 0
M  V30 9902 H 942.727 2.93665 -1.05674 0
M  V30 9903 N 943.028 0.824394 1.34319 0
M  V30 9904 C 944.444 0.510336 1.51221 0
M  V30 9905 C 944.644 -0.965201 1.76879 0
M  V30 9906 O 943.7 -1.74961 1.82057 0
M  V30 9907 C 945.013 1.37114 2.6762 0
M  V30 9908 C 946.561 1.36842 2.81502 0
M  V30 9909 C 947.036 2.21374 4.00946 0
M  V30 9910 N 948.527 2.19005 4.08156 0
M  V30 9911 C 949.262 2.81159 4.99737 0
M  V30 9912 N 948.758 3.52309 5.96532 0
M  V30 9913 N 950.551 2.70706 4.9262 0
M  V30 9914 H 942.702 1.77976 1.15924 0
M  V30 9915 H 944.965 0.758503 0.568663 0
M  V30 9916 H 944.671 2.41905 2.55294 0
M  V30 9917 H 944.545 1.03689 3.62669 0
M  V30 9918 H 946.932 0.328284 2.93268 0
M  V30 9919 H 947.013 1.74265 1.87257 0
M  V30 9920 H 946.657 3.25437 3.8994 0
M  V30 9921 H 946.587 1.813 4.94407 0
M  V30 9922 H 949.078 1.67252 3.38874 0
M  V30 9923 H 949.391 3.96977 6.63045 0
M  V30 9924 H 947.736 3.56415 5.96652 0
M  V30 9925 H 950.927 2.14694 4.15962 0
M  V30 9926 H 951.1 3.19431 5.63798 0
M  V30 9927 N 944.506 -1.46559 0.579492 0
M  V30 9928 C 945.436 -2.33059 -0.143437 0
M  V30 9929 C 946.417 -1.4515 -0.886868 0
M  V30 9930 O 947.602 -1.73973 -0.862961 0
M  V30 9931 C 944.732 -3.27364 -1.15973 0
M  V30 9932 C 943.686 -4.24689 -0.531348 0
M  V30 9933 C 943.012 -5.08479 -1.65388 0
M  V30 9934 C 944.312 -5.1961 0.529391 0
M  V30 9935 H 946.006 -2.93753 0.578762 0
M  V30 9936 H 943.552 -1.41256 0.279775 0
M  V30 9937 H 945.505 -3.86732 -1.67382 0
M  V30 9938 H 944.229 -2.64771 -1.91217 0
M  V30 9939 H 942.888 -3.6658 -0.0383749 0
M  V30 9940 H 942.536 -4.42273 -2.3959 0
M  V30 9941 H 942.236 -5.74387 -1.23909 0
M  V30 9942 H 943.76 -5.70709 -2.17079 0
M  V30 9943 H 945.174 -5.73212 0.100506 0
M  V30 9944 H 943.571 -5.93843 0.86432 0
M  V30 9945 H 944.641 -4.63737 1.4169 0
M  V30 9946 N 945.984 -0.3171 -1.54377 0
M  V30 9947 C 946.931 0.551782 -2.24107 0
M  V30 9948 C 947.901 1.11681 -1.22949 0
M  V30 9949 O 949.086 1.15836 -1.51614 0
M  V30 9950 C 946.226 1.70997 -2.99756 0
M  V30 9951 C 945.339 1.17479 -4.15719 0
M  V30 9952 C 944.474 2.29815 -4.78914 0
M  V30 9953 C 943.513 1.73513 -5.86992 0
M  V30 9954 N 942.65 2.79485 -6.44075 0
M  V30 9955 H 947.49 -0.049431 -2.97959 0
M  V30 9956 H 945.027 -0.0361658 -1.47056 0
M  V30 9957 H 946.985 2.39141 -3.41859 0
M  V30 9958 H 945.615 2.28257 -2.28251 0
M  V30 9959 H 944.667 0.385109 -3.78446 0
M  V30 9960 H 945.979 0.72276 -4.93536 0
M  V30 9961 H 945.133 3.05875 -5.23952 0
M  V30 9962 H 943.872 2.78352 -4.00464 0
M  V30 9963 H 942.877 0.959475 -5.41363 0
M  V30 9964 H 944.102 1.2586 -6.67335 0
M  V30 9965 H 942.048 3.27325 -5.68502 0
M  V30 9966 H 941.965 2.38825 -7.17286 0
M  V30 9967 H 943.233 3.55394 -6.93769 0
M  V30 9968 N 947.462 1.57535 -0.0451378 0
M  V30 9969 C 948.392 2.14208 0.929372 0
M  V30 9970 C 949.373 1.06221 1.32858 0
M  V30 9971 O 950.558 1.34132 1.40436 0
M  V30 9972 C 947.688 2.68217 2.20629 0
M  V30 9973 C 946.642 3.81134 1.94734 0
M  V30 9974 C 945.968 4.21636 3.28828 0
M  V30 9975 C 947.268 5.06531 1.27374 0
M  V30 9976 H 948.962 2.95886 0.457348 0
M  V30 9977 H 946.508 1.42332 0.218544 0
M  V30 9978 H 948.461 3.06502 2.89196 0
M  V30 9979 H 947.185 1.83722 2.70026 0
M  V30 9980 H 945.844 3.43312 1.28579 0
M  V30 9981 H 945.492 3.34099 3.76014 0
M  V30 9982 H 945.192 4.97736 3.12302 0
M  V30 9983 H 946.716 4.62516 3.98637 0
M  V30 9984 H 948.13 5.423 1.85967 0
M  V30 9985 H 946.527 5.87735 1.21194 0
M  V30 9986 H 947.597 4.84261 0.248913 0
M  V30 9987 N 948.94 -0.228186 1.55939 0
M  V30 9988 C 950.351 -0.795734 1.68893 0
M  V30 9989 C 950.702 -1.85261 0.645967 0
M  V30 9990 O 949.827 -2.15434 -0.2042 0
M  V30 9991 C 950.422 -1.45013 3.06197 0
M  V30 9992 C 948.981 -1.96514 3.21028 0
M  V30 9993 C 948.128 -0.822918 2.64808 0
M  V30 9994 H 951.079 -0.0036485 1.587 0
M  V30 9995 H 951.1 -2.31875 3.01685 0
M  V30 9996 H 950.612 -0.680678 3.82084 0
M  V30 9997 H 948.713 -2.76282 2.49998 0
M  V30 9998 H 948.826 -2.14967 4.28166 0
M  V30 9999 H 947.19 -1.22846 2.23116 0
M  V30 10000 H 947.973 -0.0662493 3.43236 0
M  V30 10001 N 950.418 -1.49637 -0.494624 0
M  V30 10002 C 951.643 -1.63431 -1.27691 0
M  V30 10003 C 952.068 -0.30813 -1.85559 0
M  V30 10004 O 951.426 0.725083 -1.66169 0
M  V30 10005 C 951.474 -2.71043 -2.3784 0
M  V30 10006 O 950.578 -2.3066 -3.41862 0
M  V30 10007 H 949.919 -0.546804 -0.376698 0
M  V30 10008 H 952.449 -1.95866 -0.591413 0
M  V30 10009 H 952.459 -2.93406 -2.83508 0
M  V30 10010 H 951.134 -3.67306 -1.95088 0
M  V30 10011 H 949.711 -2.18652 -3.02069 0
M  V30 10012 N 951.896 0.746133 -1.38819 0
M  V30 10013 C 952.843 1.86001 -1.36647 0
M  V30 10014 C 953.813 1.6453 -0.227849 0
M  V30 10015 O 954.998 1.86092 -0.421241 0
M  V30 10016 C 952.138 3.23388 -1.20474 0
M  V30 10017 C 951.251 3.5664 -2.43786 0
M  V30 10018 C 950.386 4.8337 -2.20287 0
M  V30 10019 C 949.425 5.09431 -3.39332 0
M  V30 10020 N 948.562 6.2736 -3.1522 0
M  V30 10021 H 953.402 1.87192 -2.31869 0
M  V30 10022 H 950.939 0.914838 -1.15192 0
M  V30 10023 H 952.897 4.02679 -1.09112 0
M  V30 10024 H 951.527 3.21505 -0.288874 0
M  V30 10025 H 950.579 2.72135 -2.65794 0
M  V30 10026 H 951.891 3.71823 -3.3249 0
M  V30 10027 H 951.045 5.70619 -2.06103 0
M  V30 10028 H 949.784 4.70341 -1.28961 0
M  V30 10029 H 948.789 4.20648 -3.54027 0
M  V30 10030 H 950.014 5.24354 -4.31544 0
M  V30 10031 H 947.96 6.15639 -2.26549 0
M  V30 10032 H 947.877 6.43078 -3.97476 0
M  V30 10033 H 949.145 7.17477 -3.04707 0
M  V30 10034 N 953.375 1.23811 0.975125 0
M  V30 10035 C 954.322 1.02394 2.06843 0
M  V30 10036 C 955.292 -0.060337 1.6599 0
M  V30 10037 O 956.477 0.0928187 1.90574 0
M  V30 10038 C 953.617 0.626882 3.39359 0
M  V30 10039 C 952.73 1.78385 3.9345 0
M  V30 10040 C 951.865 1.33307 5.14201 0
M  V30 10041 C 950.904 2.46045 5.60471 0
M  V30 10042 N 950.041 2.01888 6.72448 0
M  V30 10043 H 954.881 1.95973 2.24496 0
M  V30 10044 H 952.418 0.976206 1.10039 0
M  V30 10045 H 954.376 0.377742 4.15486 0
M  V30 10046 H 953.006 -0.271907 3.21653 0
M  V30 10047 H 952.058 2.14685 3.14029 0
M  V30 10048 H 953.37 2.63122 4.23755 0
M  V30 10049 H 952.524 1.04237 5.97678 0
M  V30 10050 H 951.263 0.456143 4.85562 0
M  V30 10051 H 950.268 2.75884 4.75571 0
M  V30 10052 H 951.493 3.34283 5.91127 0
M  V30 10053 H 949.439 1.16583 6.45558 0
M  V30 10054 H 949.356 2.80182 7.02164 0
M  V30 10055 H 950.624 1.75937 7.59386 0
M  V30 10056 N 954.853 -1.17469 1.05066 0
M  V30 10057 C 955.763 -2.25089 0.661222 0
M  V30 10058 C 956.779 -1.71086 -0.31712 0
M  V30 10059 O 957.955 -2.00685 -0.169534 0
M  V30 10060 C 955.02 -3.46676 0.0406415 0
M  V30 10061 C 954.081 -4.15771 1.06927 0
M  V30 10062 C 953.314 -5.31553 0.478208 0
M  V30 10063 O 953.537 -5.6593 -0.712714 0
M  V30 10064 O 952.471 -5.89574 1.21185 0
M  V30 10065 H 956.297 -2.60685 1.5581 0
M  V30 10066 H 953.882 -1.24744 0.822147 0
M  V30 10067 H 955.764 -4.203 -0.304312 0
M  V30 10068 H 954.439 -3.1288 -0.829909 0
M  V30 10069 H 953.346 -3.44171 1.46619 0
M  V30 10070 H 954.679 -4.53591 1.91092 0
M  V30 10071 N 956.331 -0.831506 -1.3388 0
M  V30 10072 C 957.58 -0.420028 -1.97278 0
M  V30 10073 C 957.893 1.02441 -1.66629 0
M  V30 10074 O 959.099 1.54021 -2.23584 0
M  V30 10075 C 957.555 -0.700116 -3.53025 0
M  V30 10076 C 957.163 -2.15874 -3.92559 0
M  V30 10077 C 958.907 -0.355226 -4.23011 0
M  V30 10078 C 956.814 -2.38327 -5.41252 0
M  V30 10079 H 955.744 -0.153326 -0.738246 0
M  V30 10080 H 958.395 -1.01906 -1.52602 0
M  V30 10081 H 956.777 -0.0308044 -3.95988 0
M  V30 10082 H 957.951 -2.86792 -3.60675 0
M  V30 10083 H 956.266 -2.4659 -3.35533 0
M  V30 10084 H 958.863 -0.500701 -5.32351 0
M  V30 10085 H 959.206 0.70111 -4.10354 0
M  V30 10086 H 959.739 -0.979466 -3.85553 0
M  V30 10087 H 956.478 -3.42498 -5.58906 0
M  V30 10088 H 955.998 -1.71962 -5.74621 0
M  V30 10089 H 957.677 -2.21113 -6.08045 0
M  V30 10090 N 957.809 1.4625 -0.587256 0
M  V30 10091 C 959.034 2.07252 -0.0784517 0
M  V30 10092 C 959.459 1.43239 1.21919 0
M  V30 10093 O 958.817 0.517791 1.73749 0
M  V30 10094 C 958.865 3.60534 0.0691037 0
M  V30 10095 O 957.969 3.96773 1.12448 0
M  V30 10096 H 957.31 0.660825 -0.064859 0
M  V30 10097 H 959.84 1.87819 -0.811491 0
M  V30 10098 H 959.85 4.0708 0.273826 0
M  V30 10099 H 958.525 4.06516 -0.878514 0
M  V30 10100 H 957.102 3.6193 0.897852 0
M  V30 10101 N 959.287 0.325282 1.54207 0
M  V30 10102 C 960.533 -0.277185 2.00897 0
M  V30 10103 C 960.866 -1.51651 1.21308 0
M  V30 10104 O 960.141 -1.92237 0.295825 0
M  V30 10105 C 960.424 -0.60961 3.54902 0
M  V30 10106 C 960.277 0.640542 4.45216 0
M  V30 10107 C 961.596 -1.42656 4.16338 0
M  V30 10108 H 958.715 -0.0992722 0.730284 0
M  V30 10109 H 961.357 0.442201 1.84783 0
M  V30 10110 H 959.507 -1.22249 3.68765 0
M  V30 10111 H 961.179 1.27878 4.43221 0
M  V30 10112 H 959.422 1.26908 4.14821 0
M  V30 10113 H 960.093 0.363459 5.50802 0
M  V30 10114 H 962.569 -0.908494 4.06061 0
M  V30 10115 H 961.445 -1.62792 5.24204 0
M  V30 10116 H 961.706 -2.42321 3.69774 0
M  V30 10117 N 960.765 -1.57509 0.0534917 0
M  V30 10118 C 961.728 -2.10563 -0.905307 0
M  V30 10119 C 962.728 -1.02571 -1.23838 0
M  V30 10120 O 963.918 -1.28635 -1.17468 0
M  V30 10121 C 961.05 -2.5918 -2.21447 0
M  V30 10122 H 962.243 -2.96575 -0.445354 0
M  V30 10123 H 959.796 -1.55079 -0.194947 0
M  V30 10124 H 960.531 -1.76568 -2.72019 0
M  V30 10125 H 960.316 -3.38098 -1.98575 0
M  V30 10126 H 961.806 -3.00365 -2.90122 0
M  V30 10127 N 962.243 0.219913 -1.56058 0
M  V30 10128 C 963.492 0.942119 -1.78345 0
M  V30 10129 C 963.805 1.85435 -0.622344 0
M  V30 10130 O 965.011 2.61533 -0.728886 0
M  V30 10131 C 963.467 1.72544 -3.15843 0
M  V30 10132 C 963.075 0.859263 -4.39682 0
M  V30 10133 C 964.819 2.43876 -3.47455 0
M  V30 10134 C 962.726 1.64003 -5.68205 0
M  V30 10135 H 961.656 0.355514 -0.664925 0
M  V30 10136 H 964.307 0.195963 -1.82451 0
M  V30 10137 H 962.689 2.51456 -3.05918 0
M  V30 10138 H 963.863 0.110562 -4.60667 0
M  V30 10139 H 962.178 0.257985 -4.156 0
M  V30 10140 H 964.775 3.02794 -4.40704 0
M  V30 10141 H 965.118 3.16843 -2.7003 0
M  V30 10142 H 965.651 1.71952 -3.58716 0
M  V30 10143 H 962.39 0.953606 -6.48526 0
M  V30 10144 H 961.91 2.3633 -5.51279 0
M  V30 10145 H 963.589 2.20028 -6.08438 0
M  V30 10146 N 963.721 1.49897 0.486681 0
M  V30 10147 C 964.668 1.67619 1.58658 0
M  V30 10148 C 965.638 0.517537 1.57831 0
M  V30 10149 O 966.823 0.746272 1.756 0
M  V30 10150 C 963.963 1.762 2.96728 0
M  V30 10151 C 963.076 3.03465 3.07462 0
M  V30 10152 C 962.211 3.02937 4.36351 0
M  V30 10153 C 961.25 4.24721 4.4077 0
M  V30 10154 N 960.387 4.22021 5.61108 0
M  V30 10155 H 965.227 2.61528 1.42853 0
M  V30 10156 H 962.764 1.29657 0.694807 0
M  V30 10157 H 964.722 1.79156 3.76774 0
M  V30 10158 H 963.352 0.857452 3.11203 0
M  V30 10159 H 962.404 3.10054 2.20387 0
M  V30 10160 H 963.716 3.93454 3.06586 0
M  V30 10161 H 962.87 3.04536 5.24731 0
M  V30 10162 H 961.609 2.10751 4.39813 0
M  V30 10163 H 960.614 4.23352 3.5079 0
M  V30 10164 H 961.839 5.18116 4.39013 0
M  V30 10165 H 959.785 3.3268 5.65385 0
M  V30 10166 H 959.702 5.05761 5.61909 0
M  V30 10167 H 960.97 4.27743 6.51656 0
M  V30 10168 N 965.199 -0.738761 1.39212 0
M  V30 10169 C 966.427 -1.52801 1.39497 0
M  V30 10170 C 966.842 -1.88797 -0.0114917 0
M  V30 10171 O 966.199 -1.53835 -0.981887 0
M  V30 10172 C 966.25 -2.81793 2.2644 0
M  V30 10173 O 965.971 -2.47328 3.61608 0
M  V30 10174 C 967.472 -3.75844 2.35067 0
M  V30 10175 H 964.692 -0.472322 0.476606 0
M  V30 10176 H 967.236 -0.913153 1.8298 0
M  V30 10177 H 965.391 -3.3962 1.8638 0
M  V30 10178 H 965.805 -3.30162 4.07545 0
M  V30 10179 H 967.279 -4.6326 3.00157 0
M  V30 10180 H 967.756 -4.17329 1.3687 0
M  V30 10181 H 968.362 -3.23937 2.75581 0
M  V30 10182 N 966.677 -1.24326 -0.968545 0
M  V30 10183 C 967.607 -1.05951 -2.08079 0
M  V30 10184 C 968.588 0.0272666 -1.70078 0
M  V30 10185 O 969.773 -0.139644 -1.93697 0
M  V30 10186 C 966.903 -0.662623 -3.4092 0
M  V30 10187 C 965.857 -1.69807 -3.92873 0
M  V30 10188 C 965.183 -1.15628 -5.22048 0
M  V30 10189 C 966.483 -3.09383 -4.20808 0
M  V30 10190 H 968.177 -1.98984 -2.23709 0
M  V30 10191 H 965.723 -0.958112 -1.075 0
M  V30 10192 H 967.676 -0.521071 -4.18166 0
M  V30 10193 H 966.4 0.303399 -3.25188 0
M  V30 10194 H 965.059 -1.82783 -3.17783 0
M  V30 10195 H 964.707 -0.180888 -5.02675 0
M  V30 10196 H 964.407 -1.84822 -5.57776 0
M  V30 10197 H 965.931 -1.02683 -6.01904 0
M  V30 10198 H 967.345 -2.99642 -4.88761 0
M  V30 10199 H 965.742 -3.75923 -4.67763 0
M  V30 10200 H 966.812 -3.57486 -3.27616 0
M  V30 10201 N 968.156 1.1691 -1.05688 0
M  V30 10202 C 969.103 2.21095 -0.662246 0
M  V30 10203 C 970.073 1.62623 0.338083 0
M  V30 10204 O 971.258 1.89428 0.228362 0
M  V30 10205 C 968.398 3.45066 -0.0484018 0
M  V30 10206 C 967.511 4.17809 -1.09817 0
M  V30 10207 C 966.646 5.29281 -0.451114 0
M  V30 10208 C 965.685 5.93817 -1.48484 0
M  V30 10209 N 964.822 6.96793 -0.861588 0
M  V30 10210 H 969.662 2.54204 -1.55513 0
M  V30 10211 H 967.199 1.24863 -0.777665 0
M  V30 10212 H 969.157 4.15932 0.324978 0
M  V30 10213 H 967.787 3.12526 0.807918 0
M  V30 10214 H 966.839 3.45608 -1.58932 0
M  V30 10215 H 968.151 4.61907 -1.88265 0
M  V30 10216 H 967.305 6.06695 -0.0244251 0
M  V30 10217 H 966.044 4.8633 0.365306 0
M  V30 10218 H 965.049 5.1513 -1.92149 0
M  V30 10219 H 966.274 6.38848 -2.30325 0
M  V30 10220 H 964.22 6.55967 -0.0657688 0
M  V30 10221 H 964.137 7.39229 -1.58354 0
M  V30 10222 H 965.405 7.78142 -0.45984 0
M  V30 10223 N 969.634 0.838594 1.33437 0
M  V30 10224 C 970.88 0.434813 1.98084 0
M  V30 10225 C 971.213 -1.00331 1.66275 0
M  V30 10226 O 970.488 -1.70139 0.942501 0
M  V30 10227 C 970.771 0.655602 3.54082 0
M  V30 10228 C 970.624 2.14097 3.95578 0
M  V30 10229 C 971.943 0.101576 4.39983 0
M  V30 10230 H 969.062 0.159456 0.719544 0
M  V30 10231 H 971.704 1.05406 1.58081 0
M  V30 10232 H 969.854 0.128501 3.88287 0
M  V30 10233 H 971.526 2.73292 3.71631 0
M  V30 10234 H 969.769 2.62558 3.4532 0
M  V30 10235 H 970.44 2.24621 5.04231 0
M  V30 10236 H 972.916 0.552122 4.12421 0
M  V30 10237 H 971.792 0.28575 5.48156 0
M  V30 10238 H 972.053 -0.994616 4.30767 0
M  V30 10239 N 971.112 -1.45937 0.595003 0
M  V30 10240 C 972.36 -2.01921 0.0851368 0
M  V30 10241 C 972.681 -1.46748 -1.28413 0
M  V30 10242 O 971.951 -0.656873 -1.84559 0
M  V30 10243 H 970.531 -0.746457 0.0284826 0
M  V30 10244 H 973.193 -1.78891 0.773561 0
M  V30 10245 H 972.289 -3.1209 0.0254002 0
M  V30 10246 N 972.59 -0.333456 -1.54032 0
M  V30 10247 C 973.82 0.267425 -2.04862 0
M  V30 10248 C 974.228 1.45559 -1.20869 0
M  V30 10249 O 973.571 1.82197 -0.234478 0
M  V30 10250 C 973.633 0.755759 -3.51466 0
M  V30 10251 C 973.297 -0.311409 -4.55938 0
M  V30 10252 C 974.294 -1.15078 -5.07004 0
M  V30 10253 C 971.979 -0.462439 -5.00167 0
M  V30 10254 C 973.973 -2.12682 -6.0087 0
M  V30 10255 C 971.66 -1.44188 -5.93846 0
M  V30 10256 C 972.658 -2.27253 -6.44085 0
M  V30 10257 O 972.346 -3.23532 -7.35923 0
M  V30 10258 H 972.078 0.0572596 -0.673571 0
M  V30 10259 H 974.632 -0.480646 -1.99697 0
M  V30 10260 H 972.862 1.55491 -3.54062 0
M  V30 10261 H 974.551 1.27607 -3.8532 0
M  V30 10262 H 975.317 -1.04513 -4.73605 0
M  V30 10263 H 971.196 0.17424 -4.60671 0
M  V30 10264 H 974.74 -2.77555 -6.40007 0
M  V30 10265 H 970.637 -1.54813 -6.2666 0
M  V30 10266 H 971.405 -3.18886 -7.53826 0
M  V30 10267 N 974.068 1.57479 -0.061844 0
M  V30 10268 C 975.296 1.97429 0.618837 0
M  V30 10269 C 975.711 0.939826 1.63746 0
M  V30 10270 O 975.068 -0.0747173 1.82347 0
M  V30 10271 C 975.119 3.3746 1.29628 0
M  V30 10272 O 974.84 4.36941 0.318431 0
M  V30 10273 C 976.341 3.92228 2.06572 0
M  V30 10274 H 973.561 0.649513 0.168444 0
M  V30 10275 H 976.105 2.04078 -0.131303 0
M  V30 10276 H 974.26 3.31928 1.99757 0
M  V30 10277 H 974.674 5.18313 0.803239 0
M  V30 10278 H 976.148 4.92458 2.49377 0
M  V30 10279 H 976.625 3.28231 2.91824 0
M  V30 10280 H 977.231 4.01131 1.4133 0
M  V30 10281 N 975.546 -0.211634 1.56173 0
M  V30 10282 C 976.456 -1.2831 1.96402 0
M  V30 10283 C 977.472 -1.50731 0.869254 0
M  V30 10284 O 978.648 -1.63669 1.17365 0
M  V30 10285 C 975.713 -2.61084 2.28114 0
M  V30 10286 C 974.774 -2.46879 3.51211 0
M  V30 10287 C 974.007 -3.73321 3.81401 0
M  V30 10288 O 974.23 -4.76773 3.13119 0
M  V30 10289 O 973.164 -3.69839 4.74871 0
M  V30 10290 H 976.99 -0.971733 2.87734 0
M  V30 10291 H 974.575 -0.415305 1.43512 0
M  V30 10292 H 976.457 -3.39481 2.49661 0
M  V30 10293 H 975.132 -2.91881 1.39954 0
M  V30 10294 H 974.039 -1.66648 3.34932 0
M  V30 10295 H 975.372 -2.21018 4.39786 0
M  V30 10296 N 977.024 -1.50153 -0.478725 0
M  V30 10297 C 977.971 -1.68458 -1.57767 0
M  V30 10298 C 978.941 -0.5259 -1.57555 0
M  V30 10299 O 980.126 -0.755574 -1.75202 0
M  V30 10300 C 977.266 -1.77772 -2.95789 0
M  V30 10301 C 976.379 -3.05092 -3.05848 0
M  V30 10302 C 975.514 -3.05247 -4.34739 0
M  V30 10303 C 974.553 -4.27053 -4.38512 0
M  V30 10304 N 973.69 -4.24991 -5.58862 0
M  V30 10305 H 978.53 -2.62282 -1.41464 0
M  V30 10306 H 976.067 -1.30023 -0.687921 0
M  V30 10307 H 978.025 -1.81152 -3.75819 0
M  V30 10308 H 976.655 -0.873944 -3.10744 0
M  V30 10309 H 975.707 -3.11219 -2.1874 0
M  V30 10310 H 977.019 -3.95075 -3.04495 0
M  V30 10311 H 976.173 -3.07314 -5.23109 0
M  V30 10312 H 974.912 -2.13081 -4.38689 0
M  V30 10313 H 973.917 -4.25206 -3.4854 0
M  V30 10314 H 975.142 -5.20437 -4.36259 0
M  V30 10315 H 973.088 -3.35674 -5.63612 0
M  V30 10316 H 973.005 -5.08734 -5.59219 0
M  V30 10317 H 974.273 -4.31193 -6.49379 0
M  V30 10318 N 978.502 0.731368 -1.39602 0
M  V30 10319 C 979.434 1.85575 -1.34516 0
M  V30 10320 C 980.447 1.60818 -0.253287 0
M  V30 10321 O 981.636 1.70984 -0.512505 0
M  V30 10322 C 978.736 3.21673 -1.06676 0
M  V30 10323 C 977.909 3.73757 -2.27211 0
M  V30 10324 C 976.968 4.88426 -1.95773 0
M  V30 10325 O 975.994 5.01898 -2.68491 0
M  V30 10326 N 977.196 5.73065 -0.926083 0
M  V30 10327 H 979.961 1.90442 -2.31413 0
M  V30 10328 H 977.522 0.912258 -1.33752 0
M  V30 10329 H 979.514 3.95959 -0.836577 0
M  V30 10330 H 978.084 3.12052 -0.185003 0
M  V30 10331 H 977.304 2.90781 -2.66158 0
M  V30 10332 H 978.592 4.05289 -3.07601 0
M  V30 10333 H 977.99 5.64774 -0.323497 0
M  V30 10334 H 976.547 6.47403 -0.755795 0
M  V30 10335 N 979.98 1.24838 0.961938 0
M  V30 10336 C 981.396 1.01502 1.23165 0
M  V30 10337 C 981.596 -0.272651 1.99647 0
M  V30 10338 O 980.652 -0.987297 2.32398 0
M  V30 10339 C 981.965 2.23366 2.01316 0
M  V30 10340 C 983.513 2.28051 2.14387 0
M  V30 10341 C 983.988 3.49552 2.95935 0
M  V30 10342 N 985.479 3.49904 3.03515 0
M  V30 10343 C 986.214 4.40577 3.66987 0
M  V30 10344 N 985.71 5.41512 4.3213 0
M  V30 10345 N 987.503 4.28275 3.64056 0
M  V30 10346 H 979.654 2.07576 0.450086 0
M  V30 10347 H 981.917 0.911205 0.261551 0
M  V30 10348 H 981.623 3.16913 1.5251 0
M  V30 10349 H 981.497 2.25949 3.02038 0
M  V30 10350 H 983.884 1.35032 2.62393 0
M  V30 10351 H 983.965 2.29491 1.12994 0
M  V30 10352 H 983.609 4.42889 2.4862 0
M  V30 10353 H 983.539 3.45357 3.97538 0
M  V30 10354 H 986.03 2.76885 2.57183 0
M  V30 10355 H 986.343 6.06924 4.78396 0
M  V30 10356 H 984.688 5.45393 4.3078 0
M  V30 10357 H 987.879 3.48653 3.12344 0
M  V30 10358 H 988.052 4.99138 4.13237 0
M  V30 10359 N 981.458 -1.16348 1.06306 0
M  V30 10360 C 982.874 -1.38873 0.786543 0
M  V30 10361 C 983.074 -1.91915 -0.614061 0
M  V30 10362 O 982.13 -2.11804 -1.3746 0
M  V30 10363 C 983.443 -2.36936 1.85154 0
M  V30 10364 C 984.991 -2.5062 1.87506 0
M  V30 10365 C 985.466 -3.51965 2.9306 0
M  V30 10366 N 986.957 -3.59492 2.92095 0
M  V30 10367 C 987.692 -4.37699 3.70415 0
M  V30 10368 N 987.188 -5.19327 4.58553 0
M  V30 10369 N 988.981 -4.32683 3.58806 0
M  V30 10370 H 981.132 -0.802542 1.96655 0
M  V30 10371 H 983.395 -0.415304 0.852189 0
M  V30 10372 H 983.101 -2.05056 2.85736 0
M  V30 10373 H 982.975 -3.36585 1.70267 0
M  V30 10374 H 985.362 -2.81804 0.875827 0
M  V30 10375 H 985.443 -1.51006 2.06472 0
M  V30 10376 H 985.087 -3.21518 3.93177 0
M  V30 10377 H 985.017 -4.51309 2.71344 0
M  V30 10378 H 987.508 -3.01222 2.28197 0
M  V30 10379 H 987.821 -5.76216 5.1497 0
M  V30 10380 H 986.166 -5.1867 4.62608 0
M  V30 10381 H 989.357 -3.67971 2.89335 0
M  V30 10382 H 989.53 -4.93386 4.20088 0
M  V30 10383 N 982.937 -0.845659 -1.3299 0
M  V30 10384 C 984.214 -0.366306 -1.92139 0
M  V30 10385 C 984.594 1.14912 -1.77083 0
M  V30 10386 O 983.942 1.96667 -1.16338 0
M  V30 10387 C 984.152 -0.820716 -3.39213 0
M  V30 10388 C 985.5 -0.832667 -4.16355 0
M  V30 10389 O 986.524 -0.764764 -3.47893 0
M  V30 10390 O 985.383 -0.926658 -5.38586 0
M  V30 10391 H 982.477 -0.105063 -0.820299 0
M  V30 10392 H 985.023 -0.931962 -1.41819 0
M  V30 10393 H 983.795 -1.86357 -3.44074 0
M  V30 10394 H 983.418 -0.232009 -3.96923 0
M  V30 10395 N 984.415 1.45619 -0.602734 0
M  V30 10396 C 985.662 2.02272 -0.0960337 0
M  V30 10397 C 985.99 1.47177 1.27159 0
M  V30 10398 O 985.245 0.634593 1.85125 0
M  V30 10399 C 985.544 3.574 -0.00157909 0
M  V30 10400 C 985.21 4.31626 -1.30422 0
M  V30 10401 C 983.872 4.51622 -1.66106 0
M  V30 10402 C 986.224 4.74091 -2.16535 0
M  V30 10403 C 983.552 5.11338 -2.87663 0
M  V30 10404 C 985.904 5.35151 -3.37336 0
M  V30 10405 C 984.568 5.53371 -3.73278 0
M  V30 10406 H 983.838 0.740166 -0.0351412 0
M  V30 10407 H 986.485 1.74744 -0.783382 0
M  V30 10408 H 984.79 3.84179 0.769008 0
M  V30 10409 H 986.487 3.98934 0.406549 0
M  V30 10410 H 983.077 4.16372 -1.01647 0
M  V30 10411 H 987.261 4.5838 -1.90266 0
M  V30 10412 H 982.517 5.23634 -3.15622 0
M  V30 10413 H 986.691 5.67011 -4.04316 0
M  V30 10414 H 984.318 5.99412 -4.67556 0
M  V30 10415 N 985.893 0.34162 1.53853 0
M  V30 10416 C 986.823 -0.508431 2.27897 0
M  V30 10417 C 987.804 -1.10425 1.29384 0
M  V30 10418 O 988.989 -1.126 1.58224 0
M  V30 10419 C 986.119 -1.66048 3.05034 0
M  V30 10420 C 985.073 -1.19309 4.11035 0
M  V30 10421 C 984.399 -2.4335 4.76114 0
M  V30 10422 C 985.699 -0.294952 5.21467 0
M  V30 10423 H 987.393 0.109251 2.99201 0
M  V30 10424 H 984.939 0.0539847 1.43899 0
M  V30 10425 H 986.892 -2.26158 3.5557 0
M  V30 10426 H 985.616 -2.30503 2.31379 0
M  V30 10427 H 984.275 -0.614809 3.61408 0
M  V30 10428 H 983.923 -3.06208 3.99056 0
M  V30 10429 H 983.623 -2.1276 5.47729 0
M  V30 10430 H 985.147 -3.0419 5.29434 0
M  V30 10431 H 986.561 -0.80285 5.67651 0
M  V30 10432 H 984.958 -0.0810221 6.00045 0
M  V30 10433 H 986.028 0.669433 4.80257 0
M  V30 10434 N 987.371 -1.57444 0.0701946 0
M  V30 10435 C 988.619 -1.93047 -0.598106 0
M  V30 10436 C 988.94 -0.950841 -1.70247 0
M  V30 10437 O 988.21 0.00127177 -1.959 0
M  V30 10438 H 986.79 -0.712648 -0.223924 0
M  V30 10439 H 989.452 -1.94481 0.127674 0
M  V30 10440 H 988.548 -2.94807 -1.02445 0
M  V30 10441 N 988.849 0.203349 -1.56283 0
M  V30 10442 C 989.759 1.27266 -1.9708 0
M  V30 10443 C 990.775 1.50268 -0.877236 0
M  V30 10444 O 991.951 1.63044 -1.18231 0
M  V30 10445 C 989.016 2.59871 -2.29495 0
M  V30 10446 C 988.077 2.45012 -3.52516 0
M  V30 10447 C 987.31 3.71293 -3.83376 0
M  V30 10448 O 987.533 4.75106 -3.15643 0
M  V30 10449 O 986.467 3.67316 -4.76826 0
M  V30 10450 H 990.293 0.956461 -2.88246 0
M  V30 10451 H 987.878 0.407688 -1.4373 0
M  V30 10452 H 989.76 3.38152 -2.51458 0
M  V30 10453 H 988.435 2.91135 -1.415 0
M  V30 10454 H 987.342 1.6487 -3.35811 0
M  V30 10455 H 988.675 2.18683 -4.40952 0
M  V30 10456 N 990.327 1.50405 0.470755 0
M  V30 10457 C 991.29 1.68741 1.5511 0
M  V30 10458 C 992.29 0.558116 1.50804 0
M  V30 10459 O 993.48 0.825149 1.53418 0
M  V30 10460 C 990.612 1.71295 2.94739 0
M  V30 10461 H 991.805 2.65127 1.40169 0
M  V30 10462 H 989.358 1.39891 0.697156 0
M  V30 10463 H 990.093 0.766029 3.15123 0
M  V30 10464 H 989.878 2.53336 2.99271 0
M  V30 10465 H 991.368 1.87434 3.73173 0
M  V30 10466 N 991.805 -0.723954 1.39988 0
M  V30 10467 C 993.03 -1.5182 1.41299 0
M  V30 10468 C 993.455 -1.88096 0.0122636 0
M  V30 10469 O 992.813 -1.52687 -0.977559 0
M  V30 10470 C 992.861 -2.77532 2.30235 0
M  V30 10471 O 991.965 -3.73903 1.73984 0
M  V30 10472 H 991.306 -0.458058 0.480707 0
M  V30 10473 H 993.836 -0.892291 1.84118 0
M  V30 10474 H 993.846 -3.2615 2.45132 0
M  V30 10475 H 992.521 -2.50462 3.32026 0
M  V30 10476 H 991.098 -3.32715 1.68389 0
M  V30 10477 N 993.283 -1.25346 -0.955304 0
M  V30 10478 C 994.532 -1.0945 -1.69421 0
M  V30 10479 C 994.845 0.364459 -1.92175 0
M  V30 10480 O 996.051 0.643843 -2.63755 0
M  V30 10481 C 994.507 -1.91045 -3.05008 0
M  V30 10482 C 994.115 -3.41428 -2.90053 0
M  V30 10483 C 995.859 -1.83716 -3.82686 0
M  V30 10484 C 993.766 -4.1532 -4.21026 0
M  V30 10485 H 992.696 -0.405978 -0.635372 0
M  V30 10486 H 995.347 -1.49536 -1.06354 0
M  V30 10487 H 993.729 -1.43781 -3.68975 0
M  V30 10488 H 994.903 -3.9636 -2.35022 0
M  V30 10489 H 993.218 -3.49842 -2.25831 0
M  V30 10490 H 995.815 -2.36217 -4.79693 0
M  V30 10491 H 996.158 -0.804919 -4.08444 0
M  V30 10492 H 996.691 -2.28726 -3.25468 0
M  V30 10493 H 993.43 -5.18955 -4.00457 0
M  V30 10494 H 992.95 -3.65172 -4.75825 0
M  V30 10495 H 994.629 -4.22999 -4.89572 0
M  V30 10496 N 994.761 1.15782 -1.06922 0
M  V30 10497 C 995.694 2.19336 -0.629837 0
M  V30 10498 C 996.672 1.58774 0.350663 0
M  V30 10499 O 997.856 1.86724 0.258124 0
M  V30 10500 C 994.983 3.38615 0.0757526 0
M  V30 10501 C 994.029 4.17688 -0.862503 0
M  V30 10502 S 994.862 4.80634 -2.36117 0
M  V30 10503 C 996.018 6.03286 -1.66725 0
M  V30 10504 H 996.251 2.56267 -1.50714 0
M  V30 10505 H 993.784 1.26674 -0.882776 0
M  V30 10506 H 995.742 4.07724 0.476611 0
M  V30 10507 H 994.403 3.00037 0.929332 0
M  V30 10508 H 993.596 5.03012 -0.315461 0
M  V30 10509 H 993.198 3.54106 -1.20354 0
M  V30 10510 H 995.49 6.70426 -0.976472 0
M  V30 10511 H 996.433 6.62551 -2.49864 0
M  V30 10512 H 996.841 5.52722 -1.14711 0
M  V30 10513 N 996.239 0.8527 1.3254 0
M  V30 10514 C 997.487 0.454224 1.96929 0
M  V30 10515 C 997.808 -0.993034 1.67821 0
M  V30 10516 O 997.078 -1.69371 0.984393 0
M  V30 10517 H 995.658 0.164977 0.728554 0
M  V30 10518 H 998.32 1.0887 1.61658 0
M  V30 10519 H 997.416 0.597667 3.06324 0
M  V30 10520 N 997.718 -1.45297 0.610449 0
M  V30 10521 C 998.65 -2.28742 -0.144884 0
M  V30 10522 C 999.663 -1.40114 -0.828977 0
M  V30 10523 O 1000.85 -1.64461 -0.693887 0
M  V30 10524 C 997.952 -3.15934 -1.22632 0
M  V30 10525 C 997.125 -4.32857 -0.628785 0
M  V30 10526 C 996.184 -5.01237 -1.60148 0
M  V30 10527 O 995.21 -5.57938 -1.12667 0
M  V30 10528 N 996.412 -5.00785 -2.9359 0
M  V30 10529 H 999.177 -2.94207 0.571145 0
M  V30 10530 H 996.738 -1.55517 0.450134 0
M  V30 10531 H 998.73 -3.58545 -1.87691 0
M  V30 10532 H 997.3 -2.52358 -1.84483 0
M  V30 10533 H 996.52 -3.93693 0.199951 0
M  V30 10534 H 997.808 -5.08367 -0.209845 0
M  V30 10535 H 997.206 -4.56014 -3.34765 0
M  V30 10536 H 995.763 -5.4725 -3.54064 0
M  V30 10537 N 999.196 -0.349774 -1.5367 0
M  V30 10538 C 1000.44 0.244827 -2.01015 0
M  V30 10539 C 1000.77 1.50057 -1.23746 0
M  V30 10540 O 1000.03 1.9315 -0.314872 0
M  V30 10541 C 1000.32 0.598311 -3.52356 0
M  V30 10542 C 999.991 -0.56127 -4.47393 0
M  V30 10543 C 998.653 -0.879481 -4.73095 0
M  V30 10544 C 1001 -1.3389 -5.03709 0
M  V30 10545 C 998.333 -1.97758 -5.52366 0
M  V30 10546 C 1000.68 -2.4273 -5.84179 0
M  V30 10547 C 999.349 -2.75103 -6.08173 0
M  V30 10548 H 998.619 0.0895884 -0.735564 0
M  V30 10549 H 1001.27 -0.478975 -1.85413 0
M  V30 10550 H 999.571 1.40291 -3.65822 0
M  V30 10551 H 1001.27 1.07036 -3.86451 0
M  V30 10552 H 997.858 -0.303201 -4.27526 0
M  V30 10553 H 1002.04 -1.10632 -4.83812 0
M  V30 10554 H 997.298 -2.23257 -5.6918 0
M  V30 10555 H 1001.47 -3.03412 -6.26828 0
M  V30 10556 H 999.099 -3.60317 -6.69385 0
M  V30 10557 N 1000.67 1.57404 -0.0785433 0
M  V30 10558 C 1001.95 1.85163 0.630389 0
M  V30 10559 C 1002.33 0.972295 1.87376 0
M  V30 10560 O 1001.68 0.0403375 2.28464 0
M  V30 10561 C 1001.89 3.35491 0.961604 0
M  V30 10562 C 1003.24 4.0316 1.33219 0
M  V30 10563 O 1004.26 3.40276 1.05313 0
M  V30 10564 O 1003.12 5.14086 1.85412 0
M  V30 10565 H 1000.21 0.765169 0.31376 0
M  V30 10566 H 1002.76 1.69343 -0.109986 0
M  V30 10567 H 1001.53 3.91221 0.0788113 0
M  V30 10568 H 1001.15 3.56598 1.75852 0
M  V30 10569 N 1002.15 -0.195058 1.56388 0
M  V30 10570 C 1003.1 -1.24584 1.90952 0
M  V30 10571 C 1004.09 -1.40993 0.77522 0
M  V30 10572 O 1005.28 -1.43363 1.03808 0
M  V30 10573 C 1002.41 -2.59064 2.25258 0
M  V30 10574 C 1001.49 -2.46447 3.45145 0
M  V30 10575 N 1001.88 -2.0351 4.63052 0
M  V30 10576 C 1000.18 -2.77339 3.49283 0
M  V30 10577 C 1000.88 -2.02785 5.45209 0
M  V30 10578 N 999.859 -2.4429 4.85616 0
M  V30 10579 H 1003.66 -0.9052 2.79613 0
M  V30 10580 H 1001.17 -0.403493 1.57308 0
M  V30 10581 H 1003.17 -3.34963 2.48205 0
M  V30 10582 H 1001.83 -2.93951 1.37924 0
M  V30 10583 H 1002.84 -1.74219 4.87717 0
M  V30 10584 H 999.52 -3.16423 2.72365 0
M  V30 10585 H 1000.91 -1.71489 6.49647 0
M  V30 10586 N 1003.63 -1.50653 -0.462772 0
M  V30 10587 C 1005.04 -1.54821 -1.04342 0
M  V30 10588 C 1005.39 -0.356595 -1.92932 0
M  V30 10589 O 1004.52 0.529579 -2.0982 0
M  V30 10590 C 1005.11 -2.80571 -1.89909 0
M  V30 10591 C 1003.67 -2.87394 -2.43067 0
M  V30 10592 C 1002.82 -2.49206 -1.21621 0
M  V30 10593 H 1005.77 -1.56797 -0.245048 0
M  V30 10594 H 1005.79 -2.62897 -2.75074 0
M  V30 10595 H 1005.3 -3.67281 -1.25405 0
M  V30 10596 H 1003.4 -2.05055 -3.111 0
M  V30 10597 H 1003.52 -3.90477 -2.77605 0
M  V30 10598 H 1001.88 -2.01829 -1.55361 0
M  V30 10599 H 1002.66 -3.38233 -0.587669 0
M  V30 10600 N 1005.11 0.71652 -1.4037 0
M  V30 10601 C 1006.06 1.85194 -1.40734 0
M  V30 10602 C 1007.05 1.66934 -0.287969 0
M  V30 10603 O 1008.26 1.74051 -0.458957 0
M  V30 10604 H 1004.63 0.609922 -0.439885 0
M  V30 10605 H 1006.6 1.82003 -2.36468 0
M  V30 10606 C 1005.35 3.23048 -1.28589 0
M  V30 10607 H 1004.67 3.37704 -2.13999 0
M  V30 10608 H 1006.11 4.02633 -1.32902 0
M  V30 10609 C 1004.57 3.369 0.00396512 0
M  V30 10610 O 1005.1 3.89881 0.967243 0
M  V30 10611 N 1003.31 2.90508 0.0731565 0
M  V30 10612 H 1002.86 2.4758 -0.711454 0
M  V30 10613 H 1002.81 3.00155 0.935652 0
M  V30 10614 N 1006.59 1.25851 0.948643 0
M  V30 10615 C 1007.84 1.10347 1.68838 0
M  V30 10616 C 1008.15 -0.354262 1.92365 0
M  V30 10617 O 1009.35 -0.629847 2.64093 0
M  V30 10618 C 1007.81 1.92659 3.03991 0
M  V30 10619 C 1007.42 3.42962 2.88238 0
M  V30 10620 C 1009.16 1.85743 3.81707 0
M  V30 10621 C 1007.07 4.17547 4.18818 0
M  V30 10622 H 1006 0.409342 0.63321 0
M  V30 10623 H 1008.65 1.50098 1.05559 0
M  V30 10624 H 1007.03 1.45736 3.68208 0
M  V30 10625 H 1008.21 3.97601 2.32917 0
M  V30 10626 H 1006.52 3.51035 2.23972 0
M  V30 10627 H 1009.12 2.38758 4.78434 0
M  V30 10628 H 1009.46 0.826568 4.08012 0
M  V30 10629 H 1009.99 2.30449 3.2425 0
M  V30 10630 H 1006.73 5.21072 3.97699 0
M  V30 10631 H 1006.25 3.6769 4.73882 0
M  V30 10632 H 1007.93 4.25589 4.87322 0
M  V30 10633 N 1008.06 -1.15214 1.07534 0
M  V30 10634 C 1009.31 -1.85388 0.794617 0
M  V30 10635 C 1009.63 -1.83331 -0.681838 0
M  V30 10636 O 1010.83 -2.49207 -1.0774 0
M  V30 10637 C 1009.29 -3.32747 1.37141 0
M  V30 10638 C 1008.9 -3.43244 2.87902 0
M  V30 10639 C 1010.64 -4.08093 1.16879 0
M  V30 10640 C 1008.55 -4.84762 3.38763 0
M  V30 10641 H 1007.48 -0.694499 0.293577 0
M  V30 10642 H 1010.13 -1.29944 1.29564 0
M  V30 10643 H 1008.51 -3.87874 0.798121 0
M  V30 10644 H 1009.68 -2.98214 3.51291 0
M  V30 10645 H 1008 -2.81345 3.06975 0
M  V30 10646 H 1010.6 -5.12535 1.52353 0
M  V30 10647 H 1010.94 -4.1616 0.107958 0
M  V30 10648 H 1011.47 -3.59241 1.70854 0
M  V30 10649 H 1008.21 -4.81879 4.4438 0
M  V30 10650 H 1007.73 -5.30366 2.80128 0
M  V30 10651 H 1009.41 -5.53624 3.34827 0
M  V30 10652 N 1009.54 -0.859717 -1.32086 0
M  V30 10653 C 1010.96 -0.55025 -1.49815 0
M  V30 10654 C 1011.16 0.917966 -1.79376 0
M  V30 10655 O 1010.21 1.70073 -1.86632 0
M  V30 10656 C 1011.53 -1.44161 -2.6389 0
M  V30 10657 C 1013.08 -1.44257 -2.77775 0
M  V30 10658 C 1013.55 -2.31926 -3.94936 0
M  V30 10659 N 1015.04 -2.2975 -4.02206 0
M  V30 10660 C 1015.78 -2.9431 -4.92107 0
M  V30 10661 N 1015.27 -3.68001 -5.86981 0
M  V30 10662 N 1017.07 -2.83671 -4.8527 0
M  V30 10663 H 1009.22 -1.80987 -1.11164 0
M  V30 10664 H 1011.48 -0.773313 -0.548353 0
M  V30 10665 H 1011.19 -2.48588 -2.4879 0
M  V30 10666 H 1011.06 -1.13268 -3.59792 0
M  V30 10667 H 1013.45 -0.405923 -2.92295 0
M  V30 10668 H 1013.53 -1.79169 -1.82571 0
M  V30 10669 H 1013.17 -3.35661 -3.81174 0
M  V30 10670 H 1013.1 -1.94344 -4.89426 0
M  V30 10671 H 1015.59 -1.76177 -3.3432 0
M  V30 10672 H 1015.91 -4.14417 -6.52287 0
M  V30 10673 H 1014.25 -3.72109 -5.86992 0
M  V30 10674 H 1017.44 -2.25647 -4.10123 0
M  V30 10675 H 1017.61 -3.34267 -5.5513 0
M  V30 10676 N 1011.02 1.44971 -0.618145 0
M  V30 10677 C 1011.95 2.33357 0.0815955 0
M  V30 10678 C 1012.93 1.47451 0.848072 0
M  V30 10679 O 1014.12 1.762 0.816532 0
M  V30 10680 C 1011.25 3.30324 1.07253 0
M  V30 10681 C 1010.2 4.25948 0.418563 0
M  V30 10682 C 1009.53 5.12685 1.51849 0
M  V30 10683 C 1010.83 5.18024 -0.66697 0
M  V30 10684 H 1012.52 2.92115 -0.656442 0
M  V30 10685 H 1010.07 1.40465 -0.317129 0
M  V30 10686 H 1012.02 3.91033 1.57069 0
M  V30 10687 H 1010.74 2.69748 1.8413 0
M  V30 10688 H 1009.4 3.66553 -0.0588308 0
M  V30 10689 H 1009.05 4.4847 2.2778 0
M  V30 10690 H 1008.75 5.7747 1.08637 0
M  V30 10691 H 1010.27 5.76264 2.01871 0
M  V30 10692 H 1011.69 5.72744 -0.252448 0
M  V30 10693 H 1010.09 5.91343 -1.02146 0
M  V30 10694 H 1011.16 4.59817 -1.53936 0
M  V30 10695 N 1012.5 0.357919 1.53482 0
M  V30 10696 C 1013.41 -0.500273 2.29204 0
M  V30 10697 C 1014.42 -1.09936 1.3487 0
M  V30 10698 O 1015.6 -1.11195 1.67921 0
M  V30 10699 C 1012.67 -1.62828 3.06085 0
M  V30 10700 C 1011.73 -1.05751 4.16071 0
M  V30 10701 C 1010.96 -2.13176 4.89277 0
M  V30 10702 O 1011.18 -3.34153 4.62274 0
M  V30 10703 O 1010.12 -1.76663 5.7539 0
M  V30 10704 H 1013.94 0.115696 3.0348 0
M  V30 10705 H 1011.53 0.122527 1.48897 0
M  V30 10706 H 1013.41 -2.28427 3.54117 0
M  V30 10707 H 1012.08 -2.22979 2.34653 0
M  V30 10708 H 1010.99 -0.365642 3.72309 0
M  V30 10709 H 1012.32 -0.500661 4.89647 0
M  V30 10710 N 1013.98 -1.5736 0.0868897 0
M  V30 10711 C 1015.22 -1.9367 -0.577598 0
M  V30 10712 C 1015.55 -0.968844 -1.69229 0
M  V30 10713 O 1014.82 -0.0195061 -1.9589 0
M  V30 10714 H 1013.4 -0.714983 -0.216353 0
M  V30 10715 H 1016.06 -1.94335 0.148294 0
M  V30 10716 H 1015.15 -2.95877 -0.993128 0
M  V30 10717 N 1015.45 0.186762 -1.56489 0
M  V30 10718 C 1016.7 0.907194 -1.81378 0
M  V30 10719 C 1017.03 1.82558 -0.662283 0
M  V30 10720 O 1016.31 1.91564 0.336699 0
M  V30 10721 C 1016.59 1.71624 -3.16571 0
M  V30 10722 C 1016.44 0.822009 -4.42225 0
M  V30 10723 C 1017.76 2.68713 -3.48542 0
M  V30 10724 H 1014.88 0.328366 -0.659806 0
M  V30 10725 H 1017.52 0.174142 -1.892 0
M  V30 10726 H 1015.67 2.34119 -3.10033 0
M  V30 10727 H 1017.35 0.211122 -4.60817 0
M  V30 10728 H 1015.59 0.129178 -4.33608 0
M  V30 10729 H 1016.26 1.42326 -5.33336 0
M  V30 10730 H 1018.74 2.16348 -3.55433 0
M  V30 10731 H 1017.61 3.22397 -4.44242 0
M  V30 10732 H 1017.87 3.48165 -2.72459 0
M  V30 10733 N 1016.93 1.50896 0.454776 0
M  V30 10734 C 1018.18 1.6294 1.20741 0
M  V30 10735 C 1018.51 0.336339 1.91265 0
M  V30 10736 O 1017.79 -0.663153 1.82846 0
M  V30 10737 C 1018.07 2.82092 2.23822 0
M  V30 10738 C 1017.92 4.21326 1.57495 0
M  V30 10739 C 1019.24 2.96777 3.24979 0
M  V30 10740 H 1016.36 0.59302 0.437603 0
M  V30 10741 H 1019 1.83331 0.498959 0
M  V30 10742 H 1017.15 2.64837 2.84243 0
M  V30 10743 H 1018.82 4.50209 1.00546 0
M  V30 10744 H 1017.07 4.24829 0.877664 0
M  V30 10745 H 1017.74 5.00656 2.32482 0
M  V30 10746 H 1020.21 3.12627 2.74597 0
M  V30 10747 H 1019.09 3.81742 3.94416 0
M  V30 10748 H 1019.35 2.08091 3.90065 0
M  V30 10749 N 1018.41 -0.709066 1.40748 0
M  V30 10750 C 1019.64 -1.49808 1.42707 0
M  V30 10751 C 1020.05 -1.88778 0.0285574 0
M  V30 10752 O 1019.41 -1.55883 -0.949035 0
M  V30 10753 C 1019.46 -2.76926 2.32366 0
M  V30 10754 O 1019.18 -2.39602 3.66773 0
M  V30 10755 C 1020.68 -3.70773 2.42986 0
M  V30 10756 H 1017.9 -0.462106 0.486517 0
M  V30 10757 H 1020.45 -0.874135 1.84876 0
M  V30 10758 H 1018.6 -3.3559 1.93541 0
M  V30 10759 H 1019.02 -3.21443 4.14457 0
M  V30 10760 H 1020.49 -4.56789 3.09916 0
M  V30 10761 H 1020.97 -4.14332 1.45691 0
M  V30 10762 H 1021.57 -3.18019 2.8239 0
M  V30 10763 N 1019.89 -1.26353 -0.941956 0
M  V30 10764 C 1020.84 -1.07842 -2.04056 0
M  V30 10765 C 1021.81 0.0163064 -1.66092 0
M  V30 10766 O 1022.99 -0.143313 -1.90261 0
M  V30 10767 C 1020.13 -0.716636 -3.37577 0
M  V30 10768 C 1019.24 -1.88754 -3.88582 0
M  V30 10769 C 1018.38 -1.46893 -5.10486 0
M  V30 10770 C 1017.42 -2.60819 -5.53751 0
M  V30 10771 N 1016.56 -2.19646 -6.66858 0
M  V30 10772 H 1021.4 -2.01856 -2.19221 0
M  V30 10773 H 1018.93 -1.00504 -1.07412 0
M  V30 10774 H 1020.89 -0.487768 -4.14339 0
M  V30 10775 H 1019.52 0.18653 -3.22261 0
M  V30 10776 H 1018.57 -2.22936 -3.08227 0
M  V30 10777 H 1019.88 -2.74264 -4.1663 0
M  V30 10778 H 1019.04 -1.20047 -5.94705 0
M  V30 10779 H 1017.78 -0.584721 -4.84182 0
M  V30 10780 H 1016.78 -2.88396 -4.6809 0
M  V30 10781 H 1018.01 -3.49838 -5.82057 0
M  V30 10782 H 1015.95 -1.33657 -6.4224 0
M  V30 10783 H 1015.87 -2.987 -6.94489 0
M  V30 10784 H 1017.14 -1.96009 -7.54454 0
M  V30 10785 N 1021.37 1.14642 -1.08144 0
M  V30 10786 C 1022.59 1.90025 -0.830972 0
M  V30 10787 C 1023.02 1.77904 0.610879 0
M  V30 10788 O 1022.38 1.11735 1.42776 0
M  V30 10789 C 1022.42 3.38085 -1.25422 0
M  V30 10790 O 1021.53 4.10412 -0.404486 0
M  V30 10791 H 1020.87 0.591327 -0.302041 0
M  V30 10792 H 1023.4 1.4513 -1.44216 0
M  V30 10793 H 1023.41 3.88894 -1.23391 0
M  V30 10794 H 1022.08 3.46226 -2.30435 0
M  V30 10795 H 1020.66 3.69693 -0.487987 0
M  V30 10796 N 1022.85 0.866709 1.31628 0
M  V30 10797 C 1023.79 0.318169 2.28596 0
M  V30 10798 C 1024.76 -0.581558 1.55586 0
M  V30 10799 O 1025.95 -0.513895 1.83749 0
M  V30 10800 C 1023.09 -0.477137 3.41786 0
M  V30 10801 C 1022.2 0.449739 4.29653 0
M  V30 10802 C 1021.34 -0.359373 5.29983 0
M  V30 10803 C 1020.37 0.564138 6.09495 0
M  V30 10804 N 1019.51 -0.208526 7.0179 0
M  V30 10805 H 1024.35 1.15029 2.74904 0
M  V30 10806 H 1021.89 0.578649 1.35241 0
M  V30 10807 H 1023.85 -0.953985 4.06146 0
M  V30 10808 H 1022.48 -1.27398 2.96597 0
M  V30 10809 H 1021.53 1.04502 3.65764 0
M  V30 10810 H 1022.84 1.158 4.85172 0
M  V30 10811 H 1021.99 -0.89887 6.00004 0
M  V30 10812 H 1020.73 -1.10094 4.75111 0
M  V30 10813 H 1019.74 1.11542 5.38366 0
M  V30 10814 H 1020.96 1.30451 6.66453 0
M  V30 10815 H 1018.91 -0.932969 6.49332 0
M  V30 10816 H 1018.83 0.440463 7.54716 0
M  V30 10817 H 1020.09 -0.72936 7.7608 0
M  V30 10818 N 1024.32 -1.44642 0.625825 0
M  V30 10819 C 1025.73 -1.85502 0.211175 0
M  V30 10820 C 1026.09 -1.52356 -1.2362 0
M  V30 10821 O 1025.21 -0.959051 -1.93988 0
M  V30 10822 C 1025.81 -3.36702 0.37648 0
M  V30 10823 C 1024.36 -3.76396 0.0163795 0
M  V30 10824 C 1023.51 -2.68517 0.692368 0
M  V30 10825 H 1026.46 -1.35183 0.831333 0
M  V30 10826 H 1026.48 -3.78536 -0.386106 0
M  V30 10827 H 1026 -3.60795 1.42999 0
M  V30 10828 H 1024.1 -3.57919 -1.0356 0
M  V30 10829 H 1024.21 -4.77231 0.422742 0
M  V30 10830 H 1022.57 -2.54377 0.128191 0
M  V30 10831 H 1023.36 -2.95444 1.74837 0
M  V30 10832 N 1025.8 -0.366053 -1.5329 0
M  V30 10833 C 1027.05 0.223824 -2.01561 0
M  V30 10834 C 1027.38 1.48382 -1.25286 0
M  V30 10835 O 1026.66 1.91385 -0.34669 0
M  V30 10836 C 1026.94 0.5153 -3.56394 0
M  V30 10837 C 1026.79 -0.758357 -4.43361 0
M  V30 10838 C 1028.11 1.31568 -4.19974 0
M  V30 10839 H 1025.23 0.0798751 -0.732659 0
M  V30 10840 H 1027.87 -0.491038 -1.83545 0
M  V30 10841 H 1026.02 1.12429 -3.71876 0
M  V30 10842 H 1027.69 -1.39584 -4.39675 0
M  V30 10843 H 1025.94 -1.37862 -4.11311 0
M  V30 10844 H 1026.61 -0.509366 -5.49645 0
M  V30 10845 H 1029.08 0.800514 -4.08327 0
M  V30 10846 H 1027.96 1.48837 -5.28336 0
M  V30 10847 H 1028.22 2.32432 -3.76069 0
M  V30 10848 N 1027.28 1.57312 -0.0952337 0
M  V30 10849 C 1028.21 2.09691 0.900274 0
M  V30 10850 C 1029.19 1.0075 1.27625 0
M  V30 10851 O 1030.37 1.28249 1.38147 0
M  V30 10852 C 1027.5 2.574 2.20142 0
M  V30 10853 C 1026.55 3.78 1.9753 0
M  V30 10854 S 1027.38 5.21577 1.21318 0
M  V30 10855 C 1028.54 5.72636 2.52663 0
M  V30 10856 H 1028.77 2.93803 0.45467 0
M  V30 10857 H 1026.3 1.53948 0.118056 0
M  V30 10858 H 1028.26 2.85546 2.94914 0
M  V30 10859 H 1026.92 1.73514 2.61824 0
M  V30 10860 H 1026.11 4.09451 2.93881 0
M  V30 10861 H 1025.72 3.50349 1.30888 0
M  V30 10862 H 1028.01 5.80911 3.48638 0
M  V30 10863 H 1028.95 6.71136 2.25791 0
M  V30 10864 H 1029.36 5.00569 2.60943 0
M  V30 10865 N 1028.76 -0.17846 1.56586 0
M  V30 10866 C 1030.01 -0.894502 1.8078 0
M  V30 10867 C 1030.32 -1.8372 0.67129 0
M  V30 10868 O 1031.53 -2.59509 0.797971 0
M  V30 10869 C 1029.98 -1.64109 3.20306 0
M  V30 10870 C 1029.59 -0.742387 4.41806 0
M  V30 10871 C 1031.33 -2.34578 3.53798 0
M  V30 10872 C 1029.24 -1.4888 5.72354 0
M  V30 10873 H 1028.17 -0.33776 0.674117 0
M  V30 10874 H 1030.82 -0.14752 1.82906 0
M  V30 10875 H 1029.2 -2.43257 3.12477 0
M  V30 10876 H 1030.38 0.011615 4.60799 0
M  V30 10877 H 1028.69 -0.147705 4.16138 0
M  V30 10878 H 1031.29 -2.91004 4.48577 0
M  V30 10879 H 1031.63 -3.09572 2.78336 0
M  V30 10880 H 1032.17 -1.62381 3.63149 0
M  V30 10881 H 1028.9 -0.781325 6.50827 0
M  V30 10882 H 1028.42 -2.21631 5.57351 0
M  V30 10883 H 1030.1 -2.03819 6.14058 0
M  V30 10884 N 1030.24 -1.51135 -0.446768 0
M  V30 10885 C 1031.48 -1.63578 -1.19875 0
M  V30 10886 C 1031.81 -0.346478 -1.91084 0
M  V30 10887 O 1031.09 0.653447 -1.83195 0
M  V30 10888 C 1031.37 -2.83275 -2.22323 0
M  V30 10889 C 1031.23 -4.22155 -1.55259 0
M  V30 10890 C 1032.54 -2.98496 -3.23401 0
M  V30 10891 H 1029.66 -0.595333 -0.434452 0
M  V30 10892 H 1032.31 -1.83593 -0.48923 0
M  V30 10893 H 1030.46 -2.6634 -2.82834 0
M  V30 10894 H 1032.13 -4.50736 -0.981571 0
M  V30 10895 H 1030.37 -4.25288 -0.855122 0
M  V30 10896 H 1031.04 -5.01882 -2.29823 0
M  V30 10897 H 1033.52 -3.14079 -2.72935 0
M  V30 10898 H 1032.39 -3.83828 -3.92386 0
M  V30 10899 H 1032.65 -2.10157 -3.88956 0
M  V30 10900 N 1031.71 0.701592 -1.41122 0
M  V30 10901 C 1032.94 1.49049 -1.43499 0
M  V30 10902 C 1033.36 1.88761 -0.0385684 0
M  V30 10903 O 1032.71 1.56384 0.940755 0
M  V30 10904 C 1032.76 2.7569 -2.33832 0
M  V30 10905 O 1032.49 2.37653 -3.68039 0
M  V30 10906 C 1033.99 3.69479 -2.44949 0
M  V30 10907 H 1031.21 0.459519 -0.488961 0
M  V30 10908 H 1033.75 0.864318 -1.85337 0
M  V30 10909 H 1031.91 3.34559 -1.95318 0
M  V30 10910 H 1032.32 3.19241 -4.16156 0
M  V30 10911 H 1033.79 4.55139 -3.12334 0
M  V30 10912 H 1034.27 4.13553 -1.47887 0
M  V30 10913 H 1034.88 3.16517 -2.84072 0
M  V30 10914 N 1033.19 1.2685 0.935242 0
M  V30 10915 C 1034.1 1.10716 2.06831 0
M  V30 10916 C 1035.12 0.0391222 1.73956 0
M  V30 10917 O 1036.29 0.244071 1.99916 0
M  V30 10918 C 1033.36 0.748093 3.38533 0
M  V30 10919 C 1032.42 1.89619 3.85153 0
M  V30 10920 C 1031.65 1.55416 5.1057 0
M  V30 10921 O 1031.88 0.458596 5.68553 0
M  V30 10922 O 1030.81 2.39087 5.52378 0
M  V30 10923 H 1034.64 2.05785 2.23352 0
M  V30 10924 H 1032.22 1.05967 1.05315 0
M  V30 10925 H 1034.1 0.560841 4.17651 0
M  V30 10926 H 1032.78 -0.173142 3.23237 0
M  V30 10927 H 1031.68 2.13845 3.06954 0
M  V30 10928 H 1033.02 2.79737 4.04979 0
M  V30 10929 N 1034.67 -1.14067 1.0875 0
M  V30 10930 C 1035.9 -1.88767 0.839682 0
M  V30 10931 C 1036.31 -1.79024 -0.612119 0
M  V30 10932 O 1035.65 -1.14986 -1.43262 0
M  V30 10933 C 1035.71 -3.39333 1.18716 0
M  V30 10934 C 1035.38 -3.72858 2.64245 0
M  V30 10935 C 1036.37 -3.72683 3.62496 0
M  V30 10936 C 1034.06 -4.0273 3.0019 0
M  V30 10937 C 1036.05 -4.01909 4.9472 0
M  V30 10938 C 1033.74 -4.31618 4.32607 0
M  V30 10939 C 1034.74 -4.31192 5.29682 0
M  V30 10940 O 1034.43 -4.59377 6.59718 0
M  V30 10941 H 1034.16 -0.604665 0.302253 0
M  V30 10942 H 1036.71 -1.45364 1.45115 0
M  V30 10943 H 1034.94 -3.83205 0.518707 0
M  V30 10944 H 1036.63 -3.95346 0.919599 0
M  V30 10945 H 1037.4 -3.49688 3.3607 0
M  V30 10946 H 1033.28 -4.02213 2.25268 0
M  V30 10947 H 1036.82 -4.01491 5.70483 0
M  V30 10948 H 1032.72 -4.54083 4.58779 0
M  V30 10949 H 1033.49 -4.77078 6.65086 0
M  V30 10950 N 1036.15 -0.873678 -1.31166 0
M  V30 10951 C 1037.08 -0.276805 -2.26515 0
M  V30 10952 C 1038.06 0.596166 -1.51277 0
M  V30 10953 O 1039.24 0.548769 -1.80335 0
M  V30 10954 C 1036.37 0.607711 -3.33203 0
M  V30 10955 C 1035.42 -0.194411 -4.26057 0
M  V30 10956 S 1036.25 -1.57534 -5.11804 0
M  V30 10957 C 1037.41 -0.697047 -6.22006 0
M  V30 10958 H 1037.64 -1.08505 -2.76792 0
M  V30 10959 H 1035.17 -0.672419 -1.38989 0
M  V30 10960 H 1037.13 1.11234 -3.95142 0
M  V30 10961 H 1035.79 1.38994 -2.81673 0
M  V30 10962 H 1034.98 0.480094 -5.01708 0
M  V30 10963 H 1034.59 -0.631262 -3.68634 0
M  V30 10964 H 1036.88 0.0907919 -6.77439 0
M  V30 10965 H 1037.82 -1.42481 -6.93617 0
M  V30 10966 H 1038.23 -0.262954 -5.63887 0
M  V30 10967 N 1037.63 1.44308 -0.633487 0
M  V30 10968 C 1038.54 2.34492 0.0711787 0
M  V30 10969 C 1039.55 1.52754 0.8332 0
M  V30 10970 O 1040.73 1.85475 0.784929 0
M  V30 10971 C 1037.79 3.30767 1.03895 0
M  V30 10972 C 1036.85 4.28412 0.276043 0
M  V30 10973 C 1036.09 5.20087 1.19772 0
M  V30 10974 O 1036.31 5.15743 2.4365 0
M  V30 10975 O 1035.24 5.98038 0.680764 0
M  V30 10976 H 1039.07 2.96203 -0.67063 0
M  V30 10977 H 1036.66 1.4412 -0.393678 0
M  V30 10978 H 1038.54 3.90021 1.59566 0
M  V30 10979 H 1037.21 2.71586 1.76133 0
M  V30 10980 H 1036.12 3.72696 -0.32377 0
M  V30 10981 H 1037.45 4.9052 -0.406364 0
M  V30 10982 N 1039.1 0.374177 1.53094 0
M  V30 10983 C 1040.05 -0.48326 2.27524 0
M  V30 10984 C 1041.05 -1.07606 1.30833 0
M  V30 10985 O 1042.25 -1.01827 1.48429 0
M  V30 10986 H 1038.63 -0.174578 0.731455 0
M  V30 10987 H 1040.6 0.166156 2.97937 0
M  V30 10988 C 1039.35 -1.6065 3.08362 0
M  V30 10989 H 1038.67 -1.15966 3.82612 0
M  V30 10990 H 1040.11 -2.18099 3.63606 0
M  V30 10991 C 1038.57 -2.55381 2.19732 0
M  V30 10992 O 1039.1 -3.58414 1.8139 0
M  V30 10993 N 1037.31 -2.24769 1.84194 0
M  V30 10994 H 1036.85 -1.41018 2.15573 0
M  V30 10995 H 1036.81 -2.88404 1.25181 0
M  V30 10996 N 1040.58 -1.57259 0.103575 0
M  V30 10997 C 1041.83 -1.94272 -0.557024 0
M  V30 10998 C 1042.15 -0.986739 -1.68192 0
M  V30 10999 O 1041.42 -0.0402818 -1.95859 0
M  V30 11000 H 1040 -0.717237 -0.208757 0
M  V30 11001 H 1042.66 -1.94167 0.168898 0
M  V30 11002 H 1041.76 -2.96914 -0.961691 0
M  V30 11003 N 1042.06 0.170153 -1.56679 0
M  V30 11004 C 1043.29 0.90618 -1.86556 0
M  V30 11005 C 1043.71 1.74986 -0.690044 0
M  V30 11006 O 1043.07 1.77672 0.360862 0
M  V30 11007 C 1043.12 1.75777 -3.14857 0
M  V30 11008 O 1042.22 2.85952 -2.97162 0
M  V30 11009 H 1041.56 0.253781 -0.613589 0
M  V30 11010 H 1044.09 0.167943 -2.0391 0
M  V30 11011 H 1044.1 2.15747 -3.46291 0
M  V30 11012 H 1042.78 1.13807 -4.00026 0
M  V30 11013 H 1041.35 2.49557 -2.77084 0
M  V30 11014 N 1043.54 1.5137 0.438746 0
M  V30 11015 C 1044.47 1.75528 1.53987 0
M  V30 11016 C 1045.45 0.605067 1.58975 0
M  V30 11017 O 1046.63 0.847634 1.74725 0
M  V30 11018 C 1043.76 1.87904 2.92078 0
M  V30 11019 C 1042.72 3.0333 3.01951 0
M  V30 11020 C 1042.04 3.00888 4.42007 0
M  V30 11021 C 1043.34 4.43319 2.76163 0
M  V30 11022 H 1045.04 2.67728 1.34022 0
M  V30 11023 H 1042.58 1.28831 0.643308 0
M  V30 11024 H 1044.54 2.03388 3.69068 0
M  V30 11025 H 1043.26 0.923514 3.13271 0
M  V30 11026 H 1041.92 2.87549 2.274 0
M  V30 11027 H 1041.57 2.03116 4.60166 0
M  V30 11028 H 1041.27 3.78397 4.49544 0
M  V30 11029 H 1042.79 3.18464 5.20973 0
M  V30 11030 H 1044.21 4.59458 3.42887 0
M  V30 11031 H 1042.6 5.22523 2.9511 0
M  V30 11032 H 1043.67 4.53453 1.71779 0
M  V30 11033 N 1045.02 -0.694098 1.41492 0
M  V30 11034 C 1046.29 -1.44875 1.31418 0
M  V30 11035 C 1046.67 -2.11022 -0.0575538 0
M  V30 11036 O 1046.02 -2.01799 -1.07188 0
M  V30 11037 C 1046.23 -2.46698 2.46863 0
M  V30 11038 C 1047.58 -3.11907 2.88095 0
M  V30 11039 O 1048.6 -2.57022 2.46613 0
M  V30 11040 O 1047.46 -4.11318 3.59833 0
M  V30 11041 H 1044.56 -0.645266 0.517263 0
M  V30 11042 H 1047.1 -0.724452 1.53459 0
M  V30 11043 H 1045.87 -1.96485 3.38392 0
M  V30 11044 H 1045.5 -3.26634 2.26706 0
M  V30 11045 N 1046.49 -1.27344 -0.928501 0
M  V30 11046 C 1047.72 -1.16557 -1.7155 0
M  V30 11047 C 1048.14 0.274044 -1.86093 0
M  V30 11048 O 1047.5 1.19847 -1.36038 0
M  V30 11049 C 1047.55 -1.85332 -3.09329 0
M  V30 11050 O 1046.65 -1.15074 -3.9602 0
M  V30 11051 H 1046 -0.405423 -0.525859 0
M  V30 11052 H 1048.53 -1.68399 -1.16202 0
M  V30 11053 H 1048.54 -1.92659 -3.59648 0
M  V30 11054 H 1047.21 -2.90056 -2.98061 0
M  V30 11055 H 1045.79 -1.1581 -3.54461 0
M  V30 11056 N 1047.97 1.13488 -1.09353 0
M  V30 11057 C 1049.22 1.84748 -0.829126 0
M  V30 11058 C 1049.55 1.83485 0.645247 0
M  V30 11059 O 1048.8 1.26767 1.49093 0
M  V30 11060 C 1049.1 3.32584 -1.30854 0
M  V30 11061 C 1048.77 3.54028 -2.7924 0
M  V30 11062 C 1047.43 3.59588 -3.19765 0
M  V30 11063 C 1049.78 3.62058 -3.74918 0
M  V30 11064 C 1047.11 3.70712 -4.54741 0
M  V30 11065 C 1049.46 3.7471 -5.09682 0
M  V30 11066 C 1048.13 3.78523 -5.49797 0
M  V30 11067 H 1047.4 0.67604 -0.303399 0
M  V30 11068 H 1050.04 1.33989 -1.36818 0
M  V30 11069 H 1048.35 3.85689 -0.689275 0
M  V30 11070 H 1050.04 3.86166 -1.08059 0
M  V30 11071 H 1046.63 3.50354 -2.4688 0
M  V30 11072 H 1050.82 3.57043 -3.44723 0
M  V30 11073 H 1046.07 3.71931 -4.8526 0
M  V30 11074 H 1050.25 3.79866 -5.83674 0
M  V30 11075 H 1047.88 3.86895 -6.54382 0
M  V30 11076 N 1049.45 0.880621 1.30701 0
M  V30 11077 C 1050.38 0.360251 2.30704 0
M  V30 11078 C 1051.36 -0.554572 1.60806 0
M  V30 11079 O 1052.55 -0.469345 1.88443 0
M  V30 11080 C 1049.68 -0.429888 3.44629 0
M  V30 11081 C 1048.63 0.392786 4.26194 0
M  V30 11082 C 1047.96 -0.52369 5.32129 0
M  V30 11083 C 1049.26 1.63258 4.96129 0
M  V30 11084 H 1050.95 1.19591 2.74478 0
M  V30 11085 H 1048.5 0.576508 1.31956 0
M  V30 11086 H 1050.45 -0.804532 4.13649 0
M  V30 11087 H 1049.17 -1.29916 2.99649 0
M  V30 11088 H 1047.83 0.749514 3.58856 0
M  V30 11089 H 1047.48 -1.39054 4.83397 0
M  V30 11090 H 1047.18 0.0229272 5.87596 0
M  V30 11091 H 1048.71 -0.894946 6.04006 0
M  V30 11092 H 1050.12 1.32877 5.57689 0
M  V30 11093 H 1048.52 2.11906 5.61441 0
M  V30 11094 H 1049.59 2.37944 4.22505 0
M  V30 11095 N 1050.93 -1.4397 0.641131 0
M  V30 11096 C 1052.35 -1.56607 0.30762 0
M  V30 11097 C 1052.55 -1.62694 -1.18882 0
M  V30 11098 O 1051.6 -1.57541 -1.97325 0
M  V30 11099 C 1052.91 -2.83289 1.00834 0
M  V30 11100 C 1054.46 -2.97016 0.98744 0
M  V30 11101 C 1054.94 -4.26514 1.66882 0
M  V30 11102 N 1056.43 -4.33351 1.63589 0
M  V30 11103 C 1057.16 -5.32292 2.13196 0
M  V30 11104 N 1056.66 -6.37582 2.71038 0
M  V30 11105 N 1058.45 -5.23866 2.03766 0
M  V30 11106 H 1050.6 -1.38262 1.61237 0
M  V30 11107 H 1052.87 -0.663221 0.677378 0
M  V30 11108 H 1052.57 -2.84812 2.06337 0
M  V30 11109 H 1052.45 -3.73134 0.552333 0
M  V30 11110 H 1054.83 -2.95041 -0.0591395 0
M  V30 11111 H 1054.91 -2.08493 1.48203 0
M  V30 11112 H 1054.56 -4.2925 2.71491 0
M  V30 11113 H 1054.49 -5.13912 1.14898 0
M  V30 11114 H 1056.98 -3.5788 1.21368 0
M  V30 11115 H 1057.29 -7.09378 3.06597 0
M  V30 11116 H 1055.64 -6.38239 2.75093 0
M  V30 11117 H 1058.83 -4.40524 1.58291 0
M  V30 11118 H 1059 -6.00819 2.42737 0
M  V30 11119 N 1052.41 -0.382291 -1.52893 0
M  V30 11120 C 1053.35 0.456234 -2.26246 0
M  V30 11121 C 1054.32 1.06366 -1.27575 0
M  V30 11122 O 1055.51 1.09301 -1.5639 0
M  V30 11123 C 1052.65 1.5813 -3.06739 0
M  V30 11124 C 1051.76 0.997416 -4.20328 0
M  V30 11125 C 1050.9 2.09296 -4.8823 0
M  V30 11126 C 1049.94 1.4846 -5.93823 0
M  V30 11127 N 1049.07 2.51916 -6.55349 0
M  V30 11128 H 1053.91 -0.175761 -2.97481 0
M  V30 11129 H 1051.45 -0.0985046 -1.4677 0
M  V30 11130 H 1053.41 2.24426 -3.51694 0
M  V30 11131 H 1052.04 2.18371 -2.37727 0
M  V30 11132 H 1051.09 0.224251 -3.79738 0
M  V30 11133 H 1052.4 0.512784 -4.96157 0
M  V30 11134 H 1051.56 2.83377 -5.36453 0
M  V30 11135 H 1050.3 2.61116 -4.1191 0
M  V30 11136 H 1049.3 0.729001 -5.44946 0
M  V30 11137 H 1050.53 0.97443 -6.72073 0
M  V30 11138 H 1048.47 3.02919 -5.81873 0
M  V30 11139 H 1048.39 2.08188 -7.26769 0
M  V30 11140 H 1049.66 3.25649 -7.08218 0
M  V30 11141 N 1053.89 1.57202 -0.111913 0
M  V30 11142 C 1054.84 2.11487 0.851897 0
M  V30 11143 C 1055.82 1.03392 1.23284 0
M  V30 11144 O 1057.01 1.29638 1.20511 0
M  V30 11145 C 1054.14 2.71219 2.10464 0
M  V30 11146 C 1053.23 3.86384 1.74838 0
M  V30 11147 N 1053.62 4.93727 1.09852 0
M  V30 11148 C 1051.92 3.96435 2.04341 0
M  V30 11149 C 1052.62 5.74184 0.93209 0
M  V30 11150 N 1051.59 5.23771 1.45482 0
M  V30 11151 H 1055.39 2.91859 0.345791 0
M  V30 11152 H 1052.91 1.62146 0.0907816 0
M  V30 11153 H 1054.91 3.08449 2.80472 0
M  V30 11154 H 1053.57 1.92308 2.61625 0
M  V30 11155 H 1054.58 5.12244 0.763334 0
M  V30 11156 H 1051.25 3.28556 2.57599 0
M  V30 11157 H 1052.64 6.7057 0.422542 0
M  V30 11158 N 1055.36 -0.161842 1.56767 0
M  V30 11159 C 1056.64 -0.904754 1.73417 0
M  V30 11160 C 1057.02 -1.99987 0.675908 0
M  V30 11161 O 1056.37 -2.26419 -0.307712 0
M  V30 11162 C 1056.58 -1.46082 3.16956 0
M  V30 11163 C 1057.93 -1.93004 3.78199 0
M  V30 11164 O 1058.95 -1.55856 3.20293 0
M  V30 11165 O 1057.81 -2.61465 4.79894 0
M  V30 11166 H 1054.9 -0.426518 0.708528 0
M  V30 11167 H 1057.45 -0.148928 1.69045 0
M  V30 11168 H 1056.22 -0.673087 3.85468 0
M  V30 11169 H 1055.84 -2.28056 3.25693 0
M  V30 11170 N 1056.84 -1.516 -0.430713 0
M  V30 11171 C 1057.8 -1.72794 -1.50582 0
M  V30 11172 C 1058.8 -0.597903 -1.49271 0
M  V30 11173 O 1059.99 -0.865535 -1.51176 0
M  V30 11174 C 1057.13 -1.79049 -2.90093 0
M  V30 11175 H 1058.32 -2.68751 -1.33091 0
M  V30 11176 H 1055.87 -1.4169 -0.659822 0
M  V30 11177 H 1056.61 -0.849309 -3.12981 0
M  V30 11178 H 1056.39 -2.61181 -2.92449 0
M  V30 11179 H 1057.88 -1.97262 -3.68072 0
M  V30 11180 N 1058.32 0.686584 -1.41858 0
M  V30 11181 C 1059.25 1.81202 -1.40352 0
M  V30 11182 C 1060.26 1.5993 -0.304322 0
M  V30 11183 O 1061.45 1.69267 -0.566643 0
M  V30 11184 C 1058.55 3.18116 -1.16856 0
M  V30 11185 C 1057.73 3.66339 -2.38987 0
M  V30 11186 C 1056.79 4.8195 -2.11212 0
M  V30 11187 O 1055.81 4.93102 -2.84323 0
M  V30 11188 N 1057.01 5.69829 -1.10793 0
M  V30 11189 H 1059.78 1.82983 -2.37355 0
M  V30 11190 H 1057.34 0.869244 -1.36586 0
M  V30 11191 H 1059.33 3.93097 -0.962125 0
M  V30 11192 H 1057.9 3.11306 -0.284186 0
M  V30 11193 H 1057.12 2.82166 -2.75274 0
M  V30 11194 H 1058.41 3.95297 -3.2034 0
M  V30 11195 H 1057.81 5.63459 -0.503012 0
M  V30 11196 H 1056.36 6.44671 -0.961379 0
M  V30 11197 N 1059.8 1.27835 0.921735 0
M  V30 11198 C 1061.04 1.14523 1.67005 0
M  V30 11199 C 1061.37 -0.307776 1.92049 0
M  V30 11200 O 1060.63 -1.24103 1.51317 0
M  V30 11201 C 1060.93 1.88054 3.03925 0
M  V30 11202 C 1060.59 3.37886 2.9857 0
M  V30 11203 C 1059.25 3.78752 2.96817 0
M  V30 11204 C 1061.61 4.33462 2.89414 0
M  V30 11205 C 1058.93 5.13549 2.83698 0
M  V30 11206 C 1061.29 5.68322 2.77836 0
M  V30 11207 C 1059.95 6.08475 2.74436 0
M  V30 11208 H 1059.22 0.419068 0.611116 0
M  V30 11209 H 1061.87 1.58515 1.07449 0
M  V30 11210 H 1060.17 1.36587 3.67221 0
M  V30 11211 H 1061.87 1.75176 3.60714 0
M  V30 11212 H 1058.46 3.05389 3.00725 0
M  V30 11213 H 1062.64 4.02857 2.89862 0
M  V30 11214 H 1057.9 5.43796 2.79456 0
M  V30 11215 H 1062.07 6.42048 2.69717 0
M  V30 11216 H 1059.7 7.12877 2.64027 0
M  V30 11217 N 1061.28 -1.12907 1.09954 0
M  V30 11218 C 1062.5 -1.88138 0.860905 0
M  V30 11219 C 1062.92 -1.79402 -0.588256 0
M  V30 11220 O 1062.28 -1.16442 -1.40526 0
M  V30 11221 C 1062.33 -3.37537 1.29425 0
M  V30 11222 O 1062.05 -3.46056 2.68658 0
M  V30 11223 C 1063.55 -4.29721 1.08879 0
M  V30 11224 H 1060.77 -0.595437 0.309347 0
M  V30 11225 H 1063.31 -1.42894 1.46292 0
M  V30 11226 H 1061.47 -3.80344 0.736009 0
M  V30 11227 H 1061.88 -4.38969 2.87065 0
M  V30 11228 H 1063.36 -5.32854 1.4412 0
M  V30 11229 H 1063.83 -4.39192 0.0270053 0
M  V30 11230 H 1064.44 -3.9269 1.63325 0
M  V30 11231 N 1062.75 -0.88754 -1.30232 0
M  V30 11232 C 1064 -0.508031 -1.96334 0
M  V30 11233 C 1064.33 0.940905 -1.69884 0
M  V30 11234 O 1063.61 1.66523 -1.005 0
M  V30 11235 C 1063.89 -0.786566 -3.51405 0
M  V30 11236 C 1063.74 -2.28632 -3.8736 0
M  V30 11237 C 1065.06 -0.264803 -4.39303 0
M  V30 11238 H 1062.18 -0.186051 -0.71313 0
M  V30 11239 H 1064.82 -1.112 -1.5406 0
M  V30 11240 H 1062.97 -0.272523 -3.87543 0
M  V30 11241 H 1064.65 -2.86896 -3.61231 0
M  V30 11242 H 1062.89 -2.75194 -3.35337 0
M  V30 11243 H 1063.56 -2.43181 -4.95547 0
M  V30 11244 H 1066.04 -0.704809 -4.10087 0
M  V30 11245 H 1064.91 -0.488998 -5.46717 0
M  V30 11246 H 1065.17 0.834055 -4.34161 0
M  V30 11247 N 1064.23 1.43628 -0.648757 0
M  V30 11248 C 1065.48 2.01083 -0.157692 0
M  V30 11249 C 1065.79 1.51756 1.23408 0
M  V30 11250 O 1067 2.01455 1.82012 0
M  V30 11251 C 1065.46 3.59157 -0.231118 0
M  V30 11252 C 1065.06 4.17478 -1.6253 0
M  V30 11253 C 1066.81 4.24016 0.202573 0
M  V30 11254 C 1064.72 5.67832 -1.6529 0
M  V30 11255 H 1063.65 0.751977 -0.0551897 0
M  V30 11256 H 1066.3 1.64648 -0.810139 0
M  V30 11257 H 1064.68 3.92972 0.488755 0
M  V30 11258 H 1065.85 3.9517 -2.37017 0
M  V30 11259 H 1064.17 3.64973 -2.00459 0
M  V30 11260 H 1066.76 5.34319 0.20174 0
M  V30 11261 H 1067.11 3.97616 1.23319 0
M  V30 11262 H 1067.64 3.95068 -0.465398 0
M  V30 11263 H 1064.38 5.98994 -2.66246 0
M  V30 11264 H 1063.9 5.92209 -0.951217 0
M  V30 11265 H 1065.58 6.3179 -1.39465 0
M  V30 11266 N 1065.71 0.390394 1.52688 0
M  V30 11267 C 1066.64 -0.479319 2.24132 0
M  V30 11268 C 1067.66 -1.0258 1.26416 0
M  V30 11269 O 1068.84 -0.927943 1.52484 0
M  V30 11270 C 1065.94 -1.67711 2.94493 0
M  V30 11271 C 1065.12 -1.2578 4.18925 0
M  V30 11272 C 1064.18 -2.3204 4.72275 0
M  V30 11273 O 1063.2 -1.93402 5.35336 0
M  V30 11274 N 1064.4 -3.63967 4.52226 0
M  V30 11275 H 1067.17 0.132777 2.99406 0
M  V30 11276 H 1064.73 0.216807 1.60442 0
M  V30 11277 H 1066.72 -2.38323 3.27084 0
M  V30 11278 H 1065.29 -2.19552 2.22521 0
M  V30 11279 H 1064.51 -0.380528 3.92359 0
M  V30 11280 H 1065.8 -0.954329 4.9977 0
M  V30 11281 H 1065.2 -3.98119 4.01892 0
M  V30 11282 H 1063.76 -4.30611 4.89303 0
M  V30 11283 N 1067.19 -1.57141 0.120249 0
M  V30 11284 C 1068.12 -2.18398 -0.826112 0
M  V30 11285 C 1069.1 -1.12439 -1.27638 0
M  V30 11286 O 1070.28 -1.40679 -1.33877 0
M  V30 11287 C 1067.41 -2.78438 -2.0758 0
M  V30 11288 C 1066.37 -3.89991 -1.76327 0
M  V30 11289 C 1065.69 -4.36844 -3.08336 0
M  V30 11290 C 1066.99 -5.12031 -1.03062 0
M  V30 11291 H 1068.69 -2.97731 -0.315656 0
M  V30 11292 H 1066.23 -1.43213 -0.150387 0
M  V30 11293 H 1068.19 -3.19951 -2.74243 0
M  V30 11294 H 1066.91 -1.96396 -2.60953 0
M  V30 11295 H 1065.57 -3.49055 -1.12053 0
M  V30 11296 H 1065.22 -3.51659 -3.59646 0
M  V30 11297 H 1064.92 -5.1207 -2.88199 0
M  V30 11298 H 1066.44 -4.81009 -3.76116 0
M  V30 11299 H 1067.86 -5.50555 -1.59881 0
M  V30 11300 H 1066.25 -5.92848 -0.930146 0
M  V30 11301 H 1067.32 -4.84897 -0.017582 0
M  V30 11302 N 1068.67 0.153526 -1.5685 0
M  V30 11303 C 1069.91 0.868517 -1.83261 0
M  V30 11304 C 1070.25 1.81112 -0.700857 0
M  V30 11305 O 1069.52 1.92235 0.295989 0
M  V30 11306 C 1069.8 1.6487 -3.2014 0
M  V30 11307 C 1069.66 0.728021 -4.43869 0
M  V30 11308 C 1070.98 2.61259 -3.54163 0
M  V30 11309 H 1068.09 0.314297 -0.666623 0
M  V30 11310 H 1070.74 0.133971 -1.89527 0
M  V30 11311 H 1068.89 2.2749 -3.1493 0
M  V30 11312 H 1070.56 0.113328 -4.61161 0
M  V30 11313 H 1068.8 0.0371744 -4.33784 0
M  V30 11314 H 1069.47 1.30981 -5.36235 0
M  V30 11315 H 1071.95 2.0876 -3.59942 0
M  V30 11316 H 1070.82 3.12902 -4.50981 0
M  V30 11317 H 1071.09 3.42307 -2.79782 0
M  V30 11318 N 1070.14 1.51827 0.422667 0
M  V30 11319 C 1071.39 1.64893 1.16853 0
M  V30 11320 C 1071.71 0.37456 1.91369 0
M  V30 11321 O 1070.98 -0.610128 1.86157 0
M  V30 11322 H 1069.56 0.607744 0.434345 0
M  V30 11323 H 1072.23 1.88816 0.483159 0
M  V30 11324 H 1071.32 2.48361 1.89006 0
M  V30 11325 N 1071.62 -0.679052 1.4222 0
M  V30 11326 C 1072.56 -1.80369 1.39794 0
M  V30 11327 C 1073.53 -1.60462 0.262806 0
M  V30 11328 O 1074.72 -1.82992 0.452352 0
M  V30 11329 C 1071.84 -3.17305 1.18471 0
M  V30 11330 C 1070.89 -3.55969 2.34922 0
M  V30 11331 S 1071.72 -3.58884 3.97445 0
M  V30 11332 C 1072.88 -4.98519 3.78457 0
M  V30 11333 H 1073.11 -1.82152 2.34964 0
M  V30 11334 H 1070.65 -0.84932 1.28942 0
M  V30 11335 H 1072.6 -3.96348 1.06856 0
M  V30 11336 H 1071.26 -3.13112 0.248944 0
M  V30 11337 H 1070.46 -4.55491 2.1574 0
M  V30 11338 H 1070.06 -2.84275 2.4303 0
M  V30 11339 H 1072.35 -5.86481 3.39184 0
M  V30 11340 H 1073.29 -5.22748 4.77641 0
M  V30 11341 H 1073.7 -4.70836 3.11406 0
M  V30 11342 N 1073.1 -1.28322 -0.914942 0
M  V30 11343 C 1074.03 -1.14681 -2.03398 0
M  V30 11344 C 1075.01 -0.0448939 -1.70041 0
M  V30 11345 O 1076.2 -0.221672 -1.92931 0
M  V30 11346 C 1073.33 -0.806623 -3.37803 0
M  V30 11347 C 1072.28 -1.86318 -3.85318 0
M  V30 11348 C 1071.61 -1.37665 -5.16674 0
M  V30 11349 C 1072.91 -3.26953 -4.07307 0
M  V30 11350 H 1074.6 -2.08293 -2.15068 0
M  V30 11351 H 1072.15 -1.00284 -1.03339 0
M  V30 11352 H 1074.1 -0.69796 -4.1558 0
M  V30 11353 H 1072.82 0.165203 -3.26182 0
M  V30 11354 H 1071.48 -1.96096 -3.09745 0
M  V30 11355 H 1071.13 -0.393927 -5.01455 0
M  V30 11356 H 1070.83 -2.08313 -5.49435 0
M  V30 11357 H 1072.35 -1.28119 -5.97007 0
M  V30 11358 H 1073.77 -3.20102 -4.75613 0
M  V30 11359 H 1072.17 -3.95424 -4.51398 0
M  V30 11360 H 1073.24 -3.71059 -3.12159 0
M  V30 11361 N 1074.58 1.12322 -1.10551 0
M  V30 11362 C 1075.99 1.35858 -0.837543 0
M  V30 11363 C 1076.19 1.94062 0.54241 0
M  V30 11364 O 1075.25 2.1676 1.29505 0
M  V30 11365 C 1076.56 2.299 -1.9382 0
M  V30 11366 C 1078.11 2.43488 -1.96679 0
M  V30 11367 C 1078.59 3.40846 -3.05922 0
M  V30 11368 N 1080.08 3.48404 -3.05236 0
M  V30 11369 C 1080.81 4.2365 -3.86405 0
M  V30 11370 N 1080.31 5.01951 -4.77512 0
M  V30 11371 N 1082.1 4.19068 -3.74618 0
M  V30 11372 H 1074.25 0.729002 -1.99498 0
M  V30 11373 H 1076.52 0.38339 -0.867016 0
M  V30 11374 H 1076.22 1.94309 -2.9315 0
M  V30 11375 H 1076.1 3.30033 -1.82641 0
M  V30 11376 H 1078.48 2.78359 -0.979813 0
M  V30 11377 H 1078.56 1.43239 -2.11934 0
M  V30 11378 H 1078.21 3.06704 -4.04839 0
M  V30 11379 H 1078.14 4.40927 -2.87907 0
M  V30 11380 H 1080.63 2.92545 -2.39219 0
M  V30 11381 H 1080.94 5.56707 -5.36002 0
M  V30 11382 H 1079.29 5.01143 -4.8154 0
M  V30 11383 H 1082.48 3.5698 -3.02792 0
M  V30 11384 H 1082.65 4.77455 -4.38111 0
M  V30 11385 N 1076.06 0.894434 1.2976 0
M  V30 11386 C 1077.3 0.516646 1.95385 0
M  V30 11387 C 1077.63 -0.939141 1.70895 0
M  V30 11388 O 1076.9 -1.66153 1.03778 0
M  V30 11389 H 1075.48 0.188072 0.722937 0
M  V30 11390 H 1078.14 1.13958 1.58113 0
M  V30 11391 H 1077.23 0.694819 3.04267 0
M  V30 11392 N 1077.53 -1.43282 0.656365 0
M  V30 11393 C 1078.78 -2.00996 0.168354 0
M  V30 11394 C 1079.1 -1.52408 -1.22601 0
M  V30 11395 O 1080.3 -2.02417 -1.80941 0
M  V30 11396 C 1078.76 -3.5903 0.250161 0
M  V30 11397 C 1078.37 -4.1661 1.64742 0
M  V30 11398 C 1080.11 -4.24118 -0.180084 0
M  V30 11399 C 1078.02 -5.66948 1.68299 0
M  V30 11400 H 1076.95 -0.751674 0.0591769 0
M  V30 11401 H 1079.6 -1.64216 0.818859 0
M  V30 11402 H 1077.98 -3.93226 -0.467908 0
M  V30 11403 H 1079.15 -3.93908 2.3911 0
M  V30 11404 H 1077.47 -3.63905 2.02391 0
M  V30 11405 H 1080.07 -5.34419 -0.173401 0
M  V30 11406 H 1080.41 -3.98264 -1.21208 0
M  V30 11407 H 1080.94 -3.94816 0.486343 0
M  V30 11408 H 1077.68 -5.97573 2.69419 0
M  V30 11409 H 1077.2 -5.91697 0.98261 0
M  V30 11410 H 1078.88 -6.31041 1.42813 0
M  V30 11411 N 1079.01 -0.398486 -1.52479 0
M  V30 11412 C 1079.98 0.420206 -2.25315 0
M  V30 11413 C 1080.98 0.982559 -1.27289 0
M  V30 11414 O 1082.17 0.863113 -1.51314 0
M  V30 11415 C 1079.3 1.59045 -3.01525 0
M  V30 11416 H 1080.49 -0.217599 -2.9911 0
M  V30 11417 H 1078.04 -0.150784 -1.55571 0
M  V30 11418 H 1078.78 2.26542 -2.32054 0
M  V30 11419 H 1078.56 1.19382 -3.73484 0
M  V30 11420 H 1080.05 2.16984 -3.56802 0
M  V30 11421 N 1080.49 1.57075 -0.12858 0
M  V30 11422 C 1081.72 2.00305 0.537839 0
M  V30 11423 C 1082.14 1.00787 1.58819 0
M  V30 11424 O 1081.5 -0.0190839 1.8129 0
M  V30 11425 C 1081.55 3.42371 1.13201 0
M  V30 11426 O 1080.65 3.45786 2.24735 0
M  V30 11427 H 1079.99 0.650456 0.133428 0
M  V30 11428 H 1082.52 2.03415 -0.219882 0
M  V30 11429 H 1082.53 3.80783 1.4652 0
M  V30 11430 H 1081.21 4.14315 0.362713 0
M  V30 11431 H 1079.78 3.19201 1.92783 0
M  V30 11432 N 1081.97 -0.145205 1.5693 0
M  V30 11433 C 1083.22 -0.855822 1.83085 0
M  V30 11434 C 1083.54 -1.81625 0.709747 0
M  V30 11435 O 1082.81 -1.94052 -0.268456 0
M  V30 11436 H 1081.39 -0.319032 0.675446 0
M  V30 11437 H 1084.05 -0.138781 1.94405 0
M  V30 11438 H 1083.15 -1.41698 2.78079 0
M  V30 11439 N 1083.45 -1.52049 -0.414609 0
M  V30 11440 C 1084.38 -1.69712 -1.52555 0
M  V30 11441 C 1085.36 -0.544681 -1.53206 0
M  V30 11442 O 1086.54 -0.771358 -1.71995 0
M  V30 11443 C 1083.67 -1.73145 -2.91099 0
M  V30 11444 C 1082.72 -2.94624 -3.08382 0
M  V30 11445 S 1083.55 -4.55062 -2.82274 0
M  V30 11446 C 1084.7 -4.61274 -4.23057 0
M  V30 11447 H 1084.94 -2.63675 -1.37342 0
M  V30 11448 H 1082.47 -1.42018 -0.605824 0
M  V30 11449 H 1084.43 -1.75808 -3.70947 0
M  V30 11450 H 1083.09 -0.803198 -3.03657 0
M  V30 11451 H 1082.28 -2.93492 -4.0973 0
M  V30 11452 H 1081.88 -2.8982 -2.36391 0
M  V30 11453 H 1084.18 -4.38313 -5.16612 0
M  V30 11454 H 1085.12 -5.63188 -4.29214 0
M  V30 11455 H 1085.53 -3.90361 -4.07773 0
M  V30 11456 N 1084.93 0.6715 -1.42579 0
M  V30 11457 C 1085.87 1.78496 -1.46314 0
M  V30 11458 C 1086.84 1.63091 -0.314743 0
M  V30 11459 O 1088.03 1.83597 -0.519292 0
M  V30 11460 C 1085.17 3.16548 -1.37447 0
M  V30 11461 C 1084.28 3.43216 -2.62348 0
M  V30 11462 C 1083.42 4.71014 -2.456 0
M  V30 11463 C 1082.45 4.90728 -3.65859 0
M  V30 11464 N 1081.59 6.09769 -3.48032 0
M  V30 11465 H 1086.43 1.74638 -2.41466 0
M  V30 11466 H 1083.97 0.852491 -1.19879 0
M  V30 11467 H 1085.93 3.96329 -1.30303 0
M  V30 11468 H 1084.56 3.19522 -0.458891 0
M  V30 11469 H 1083.61 2.57664 -2.79846 0
M  V30 11470 H 1084.92 3.53675 -3.51732 0
M  V30 11471 H 1084.07 5.58892 -2.3606 0
M  V30 11472 H 1082.81 4.62843 -1.53712 0
M  V30 11473 H 1081.82 4.01291 -3.75827 0
M  V30 11474 H 1083.04 5.00741 -4.58732 0
M  V30 11475 H 1080.99 6.02765 -2.58864 0
M  V30 11476 H 1080.91 6.21104 -4.31005 0
M  V30 11477 H 1082.17 7.00317 -3.42311 0
M  V30 11478 N 1086.4 1.28806 0.908124 0
M  V30 11479 C 1087.63 1.1898 1.689 0
M  V30 11480 C 1088.04 -0.253334 1.87496 0
M  V30 11481 O 1087.38 -1.18245 1.40584 0
M  V30 11482 C 1087.45 1.82266 3.0987 0
M  V30 11483 C 1087.11 3.31534 3.14538 0
M  V30 11484 C 1088.11 4.27886 2.95313 0
M  V30 11485 C 1085.79 3.72589 3.36872 0
M  V30 11486 C 1087.79 5.63267 2.98343 0
M  V30 11487 C 1085.47 5.08095 3.39534 0
M  V30 11488 C 1086.47 6.03244 3.2029 0
M  V30 11489 O 1086.16 7.36277 3.22724 0
M  V30 11490 H 1085.89 0.413772 0.534574 0
M  V30 11491 H 1088.45 1.7055 1.14464 0
M  V30 11492 H 1086.68 1.25197 3.65872 0
M  V30 11493 H 1088.36 1.6688 3.70008 0
M  V30 11494 H 1089.13 3.97502 2.77879 0
M  V30 11495 H 1085.01 2.98989 3.50894 0
M  V30 11496 H 1088.55 6.37511 2.83241 0
M  V30 11497 H 1084.45 5.38126 3.56497 0
M  V30 11498 H 1085.22 7.44976 3.39048 0
M  V30 11499 N 1087.88 -1.11734 1.11145 0
M  V30 11500 C 1088.81 -2.1976 0.789152 0
M  V30 11501 C 1089.79 -1.68382 -0.241143 0
M  V30 11502 O 1090.98 -1.93914 -0.105292 0
M  V30 11503 C 1088.11 -3.46549 0.228204 0
M  V30 11504 C 1087.06 -4.11123 1.19002 0
M  V30 11505 C 1086.39 -5.32451 0.489928 0
M  V30 11506 C 1087.69 -4.56406 2.53951 0
M  V30 11507 H 1089.38 -2.46978 1.69241 0
M  V30 11508 H 1086.93 -1.18705 0.81517 0
M  V30 11509 H 1088.88 -4.21399 -0.00945908 0
M  V30 11510 H 1087.6 -3.18782 -0.71033 0
M  V30 11511 H 1086.26 -3.38264 1.41326 0
M  V30 11512 H 1085.91 -5.00953 -0.453315 0
M  V30 11513 H 1085.61 -5.76605 1.1314 0
M  V30 11514 H 1087.14 -6.10042 0.260984 0
M  V30 11515 H 1088.55 -5.22592 2.35733 0
M  V30 11516 H 1086.95 -5.11363 3.14051 0
M  V30 11517 H 1088.02 -3.7001 3.13402 0
M  V30 11518 N 1089.36 -0.901303 -1.29284 0
M  V30 11519 C 1090.58 -0.542823 -2.0017 0
M  V30 11520 C 1091.01 0.865583 -1.67001 0
M  V30 11521 O 1090.37 1.5764 -0.895502 0
M  V30 11522 C 1090.42 -0.743987 -3.52842 0
M  V30 11523 O 1089.52 0.202771 -4.11901 0
M  V30 11524 H 1088.86 -0.211903 -0.62928 0
M  V30 11525 H 1091.39 -1.21333 -1.64741 0
M  V30 11526 H 1091.4 -0.64926 -4.02801 0
M  V30 11527 H 1090.08 -1.77077 -3.7632 0
M  V30 11528 H 1088.65 0.0603637 -3.72851 0
M  V30 11529 N 1090.84 1.42931 -0.663954 0
M  V30 11530 C 1092.11 1.95284 -0.111174 0
M  V30 11531 C 1092.49 1.60484 1.37142 0
M  V30 11532 O 1091.84 0.895425 2.10225 0
M  V30 11533 C 1092.05 3.47046 -0.368789 0
M  V30 11534 C 1093.4 4.23679 -0.279473 0
M  V30 11535 O 1094.42 3.54918 -0.301937 0
M  V30 11536 O 1093.28 5.46087 -0.21236 0
M  V30 11537 H 1090.38 0.826993 0.00341718 0
M  V30 11538 H 1092.92 1.52816 -0.737935 0
M  V30 11539 H 1091.7 3.65541 -1.39626 0
M  V30 11540 H 1091.32 3.96537 0.290514 0
M  V30 11541 N 1092.32 0.406567 1.52266 0
M  V30 11542 C 1093.25 -0.464709 2.23418 0
M  V30 11543 C 1094.23 -1.05008 1.24146 0
M  V30 11544 O 1095.41 -1.09843 1.53188 0
M  V30 11545 C 1092.54 -1.64481 2.96081 0
M  V30 11546 C 1091.58 -1.18307 4.09763 0
M  V30 11547 S 1092.42 -0.150326 5.35289 0
M  V30 11548 C 1093.57 -1.3358 6.11479 0
M  V30 11549 H 1093.81 0.139455 2.96973 0
M  V30 11550 H 1091.34 0.19085 1.53216 0
M  V30 11551 H 1093.3 -2.3215 3.38551 0
M  V30 11552 H 1091.96 -2.22031 2.22174 0
M  V30 11553 H 1091.15 -2.06466 4.59769 0
M  V30 11554 H 1090.75 -0.58505 3.69396 0
M  V30 11555 H 1093.04 -2.25986 6.38699 0
M  V30 11556 H 1093.99 -0.876328 7.02656 0
M  V30 11557 H 1094.4 -1.56044 5.42504 0
M  V30 11558 N 1093.79 -1.57004 0.136909 0
M  V30 11559 C 1095.04 -1.9541 -0.51569 0
M  V30 11560 C 1095.36 -1.02219 -1.66061 0
M  V30 11561 O 1094.63 -0.0818172 -1.95729 0
M  V30 11562 H 1093.21 -0.721504 -0.193497 0
M  V30 11563 H 1095.88 -1.93765 0.210046 0
M  V30 11564 H 1094.97 -2.98887 -0.898494 0
M  V30 11565 N 1095.27 0.136881 -1.57004 0
M  V30 11566 C 1096.5 0.861186 -1.87796 0
M  V30 11567 C 1096.91 1.74788 -0.724272 0
M  V30 11568 O 1096.25 1.80984 0.31471 0
M  V30 11569 C 1096.32 1.76115 -3.13407 0
M  V30 11570 C 1095.98 1.05059 -4.4476 0
M  V30 11571 C 1096.98 0.399736 -5.18361 0
M  V30 11572 C 1094.66 1.03709 -4.91477 0
M  V30 11573 C 1096.66 -0.255127 -6.36889 0
M  V30 11574 C 1094.34 0.378414 -6.09927 0
M  V30 11575 C 1095.34 -0.266555 -6.8248 0
M  V30 11576 O 1095.03 -0.914757 -7.98679 0
M  V30 11577 H 1094.76 0.253855 -0.626525 0
M  V30 11578 H 1097.31 0.131291 -2.0498 0
M  V30 11579 H 1095.54 2.53224 -2.92257 0
M  V30 11580 H 1097.23 2.3583 -3.30362 0
M  V30 11581 H 1098 0.401909 -4.83332 0
M  V30 11582 H 1093.88 1.52852 -4.34922 0
M  V30 11583 H 1097.42 -0.759135 -6.93457 0
M  V30 11584 H 1093.32 0.373942 -6.44416 0
M  V30 11585 H 1094.09 -0.817437 -8.14408 0
M  V30 11586 N 1096.75 1.52266 0.40654 0
M  V30 11587 C 1098 1.66699 1.15496 0
M  V30 11588 C 1098.33 0.397019 1.90098 0
M  V30 11589 O 1097.6 -0.604646 1.84863 0
M  V30 11590 C 1097.89 2.8907 2.14734 0
M  V30 11591 C 1097.74 4.26123 1.44012 0
M  V30 11592 C 1099.06 3.06966 3.15373 0
M  V30 11593 H 1096.18 0.606642 0.418515 0
M  V30 11594 H 1098.82 1.84826 0.440381 0
M  V30 11595 H 1096.97 2.73745 2.75673 0
M  V30 11596 H 1098.64 4.5318 0.861722 0
M  V30 11597 H 1096.89 4.27406 0.742064 0
M  V30 11598 H 1097.56 5.07799 2.16436 0
M  V30 11599 H 1100.03 3.21205 2.64512 0
M  V30 11600 H 1098.91 3.94097 3.82072 0
M  V30 11601 H 1099.17 2.20395 3.83247 0
M  V30 11602 N 1098.23 -0.663929 1.42933 0
M  V30 11603 C 1099.18 -1.77007 1.4371 0
M  V30 11604 C 1100.16 -1.57945 0.306948 0
M  V30 11605 O 1101.35 -1.68239 0.549967 0
M  V30 11606 C 1098.48 -3.15535 1.3525 0
M  V30 11607 C 1097.57 -3.40183 2.53252 0
M  V30 11608 N 1097.96 -3.35357 3.78641 0
M  V30 11609 C 1096.26 -3.70861 2.47746 0
M  V30 11610 C 1096.96 -3.5979 4.57085 0
M  V30 11611 N 1095.94 -3.81084 3.87655 0
M  V30 11612 H 1099.74 -1.71686 2.3854 0
M  V30 11613 H 1097.25 -0.865191 1.37434 0
M  V30 11614 H 1099.25 -3.94816 1.33888 0
M  V30 11615 H 1097.91 -3.22046 0.414308 0
M  V30 11616 H 1098.92 -3.15011 4.11082 0
M  V30 11617 H 1095.6 -3.84552 1.62561 0
M  V30 11618 H 1096.99 -3.61928 5.6609 0
M  V30 11619 N 1099.71 -1.29285 -0.901281 0
M  V30 11620 C 1101.12 -1.07263 -1.18182 0
M  V30 11621 C 1101.32 0.177087 -2.0072 0
M  V30 11622 O 1100.38 0.875292 -2.36844 0
M  V30 11623 C 1101.69 -2.32717 -1.9043 0
M  V30 11624 C 1103.24 -2.3802 -2.03262 0
M  V30 11625 C 1103.71 -3.63273 -2.7892 0
M  V30 11626 N 1105.21 -3.63986 -2.86475 0
M  V30 11627 C 1105.94 -4.57585 -3.45549 0
M  V30 11628 N 1105.44 -5.61513 -4.05801 0
M  V30 11629 N 1107.23 -4.45157 -3.43208 0
M  V30 11630 H 1099.38 -2.09487 -0.350536 0
M  V30 11631 H 1101.64 -0.922647 -0.217778 0
M  V30 11632 H 1101.35 -3.23828 -1.37216 0
M  V30 11633 H 1101.22 -2.40102 -2.90913 0
M  V30 11634 H 1103.61 -1.47398 -2.55652 0
M  V30 11635 H 1103.69 -2.3462 -1.01916 0
M  V30 11636 H 1103.34 -4.54246 -2.27206 0
M  V30 11637 H 1103.27 -3.6393 -3.80608 0
M  V30 11638 H 1105.76 -2.8884 -2.43679 0
M  V30 11639 H 1106.07 -6.29058 -4.48894 0
M  V30 11640 H 1104.41 -5.65325 -4.04268 0
M  V30 11641 H 1107.61 -3.63158 -2.95354 0
M  V30 11642 H 1107.78 -5.18286 -3.88952 0
M  V30 11643 N 1101.18 1.11143 -1.11736 0
M  V30 11644 C 1102.46 1.79384 -0.779785 0
M  V30 11645 C 1102.84 1.98015 0.731668 0
M  V30 11646 O 1102.19 1.56731 1.66276 0
M  V30 11647 C 1102.4 3.12868 -1.54643 0
M  V30 11648 C 1103.75 3.8786 -1.7277 0
M  V30 11649 O 1104.77 3.22566 -1.51094 0
M  V30 11650 O 1103.63 5.05034 -2.08813 0
M  V30 11651 H 1100.72 0.777128 -0.282845 0
M  V30 11652 H 1103.27 1.17858 -1.22096 0
M  V30 11653 H 1102.04 2.94682 -2.57446 0
M  V30 11654 H 1101.67 3.82109 -1.09901 0
M  V30 11655 N 1102.66 0.908147 1.28804 0
M  V30 11656 C 1103.59 0.409106 2.29888 0
M  V30 11657 C 1104.57 -0.520338 1.61946 0
M  V30 11658 O 1105.76 -0.429268 1.89396 0
M  V30 11659 C 1102.89 -0.35669 3.45463 0
M  V30 11660 C 1101.84 0.4831 4.25265 0
M  V30 11661 C 1101.17 -0.4107 5.3312 0
M  V30 11662 C 1102.47 1.73744 4.92555 0
M  V30 11663 H 1104.16 1.25386 2.7188 0
M  V30 11664 H 1101.71 0.604368 1.30703 0
M  V30 11665 H 1103.66 -0.71661 4.15262 0
M  V30 11666 H 1102.39 -1.2353 3.02337 0
M  V30 11667 H 1101.04 0.825464 3.57186 0
M  V30 11668 H 1100.69 -1.28769 4.86238 0
M  V30 11669 H 1100.39 0.14756 5.87415 0
M  V30 11670 H 1101.92 -0.766626 6.05768 0
M  V30 11671 H 1103.33 1.44676 5.54745 0
M  V30 11672 H 1101.73 2.23767 5.5682 0
M  V30 11673 H 1102.8 2.46853 4.17363 0
M  V30 11674 N 1104.14 -1.42577 0.671525 0
M  V30 11675 C 1105.1 -2.292 0.000392482 0
M  V30 11676 C 1106.1 -1.43158 -0.732294 0
M  V30 11677 O 1107.29 -1.64583 -0.570789 0
M  V30 11678 C 1104.43 -3.25591 -1.01013 0
M  V30 11679 H 1105.62 -2.90037 0.762783 0
M  V30 11680 H 1103.17 -1.50162 0.433703 0
M  V30 11681 H 1103.91 -2.69685 -1.80112 0
M  V30 11682 H 1103.69 -3.89049 -0.488183 0
M  V30 11683 H 1105.18 -3.90561 -1.47824 0
M  V30 11684 N 1105.62 -0.414636 -1.52048 0
M  V30 11685 C 1106.58 0.396285 -2.25748 0
M  V30 11686 C 1107.58 0.969003 -1.28324 0
M  V30 11687 O 1108.77 0.847016 -1.52221 0
M  V30 11688 C 1105.9 1.55838 -3.03195 0
M  V30 11689 H 1107.1 -0.249311 -2.98862 0
M  V30 11690 H 1104.65 -0.167276 -1.55402 0
M  V30 11691 H 1105.38 2.24068 -2.34444 0
M  V30 11692 H 1105.17 1.15414 -3.74729 0
M  V30 11693 H 1106.66 2.13187 -3.59084 0
M  V30 11694 N 1107.1 1.56929 -0.145233 0
M  V30 11695 C 1108.51 1.58196 0.211194 0
M  V30 11696 C 1108.71 1.15941 1.64803 0
M  V30 11697 O 1107.77 0.858888 2.37443 0
M  V30 11698 C 1109.08 3.00665 -0.0459569 0
M  V30 11699 C 1110.63 3.12995 0.0178913 0
M  V30 11700 C 1111.1 4.5751 -0.211905 0
M  V30 11701 N 1112.6 4.62928 -0.158772 0
M  V30 11702 C 1113.33 5.72555 -0.311111 0
M  V30 11703 N 1112.83 6.90838 -0.521074 0
M  V30 11704 N 1114.62 5.61549 -0.248838 0
M  V30 11705 H 1106.77 1.8269 -1.08342 0
M  V30 11706 H 1109.03 0.845514 -0.428731 0
M  V30 11707 H 1108.74 3.35962 -1.0403 0
M  V30 11708 H 1108.61 3.71125 0.674246 0
M  V30 11709 H 1111 2.7754 1.00278 0
M  V30 11710 H 1111.08 2.45025 -0.734612 0
M  V30 11711 H 1110.73 4.93669 -1.19389 0
M  V30 11712 H 1110.66 5.23604 0.560901 0
M  V30 11713 H 1113.15 3.779 -0.00107283 0
M  V30 11714 H 1113.46 7.70248 -0.62747 0
M  V30 11715 H 1111.8 6.92761 -0.557374 0
M  V30 11716 H 1115 4.68022 -0.0855821 0
M  V30 11717 H 1115.17 6.46937 -0.370997 0
M  V30 11718 N 1108.58 -0.128553 1.57075 0
M  V30 11719 C 1109.52 -1.17719 2.00611 0
M  V30 11720 C 1110.52 -1.43423 0.90146 0
M  V30 11721 O 1111.72 -1.43498 1.08666 0
M  V30 11722 H 1108.1 -0.396683 0.638864 0
M  V30 11723 H 1110.07 -0.783437 2.87932 0
M  V30 11724 C 1108.82 -2.49826 2.41831 0
M  V30 11725 H 1108.14 -2.30883 3.26394 0
M  V30 11726 H 1109.58 -3.21784 2.761 0
M  V30 11727 C 1108.04 -3.11712 1.27816 0
M  V30 11728 O 1108.57 -3.9736 0.588917 0
M  V30 11729 N 1106.78 -2.71442 1.03767 0
M  V30 11730 H 1106.32 -2.01891 1.59994 0
M  V30 11731 H 1106.28 -3.1318 0.276743 0
M  V30 11732 N 1110.05 -1.5248 -0.398459 0
M  V30 11733 C 1111.3 -1.66287 -1.14155 0
M  V30 11734 C 1111.62 -0.40429 -1.91376 0
M  V30 11735 O 1112.82 -0.422341 -2.68195 0
M  V30 11736 C 1111.28 -2.93831 -2.07825 0
M  V30 11737 C 1110.89 -4.26836 -1.3607 0
M  V30 11738 C 1112.63 -3.17004 -2.82327 0
M  V30 11739 C 1110.54 -5.45495 -2.28451 0
M  V30 11740 H 1109.47 -0.619478 -0.42984 0
M  V30 11741 H 1112.12 -1.78972 -0.405112 0
M  V30 11742 H 1110.5 -2.7487 -2.85065 0
M  V30 11743 H 1111.67 -4.56317 -0.641205 0
M  V30 11744 H 1109.99 -4.0985 -0.735659 0
M  V30 11745 H 1112.59 -4.02834 -3.51609 0
M  V30 11746 H 1112.93 -2.3168 -3.45876 0
M  V30 11747 H 1113.46 -3.36487 -2.12183 0
M  V30 11748 H 1110.2 -6.33198 -1.69532 0
M  V30 11749 H 1109.72 -5.20338 -2.98343 0
M  V30 11750 H 1111.4 -5.78996 -2.88743 0
M  V30 11751 N 1111.53 0.65634 -1.43283 0
M  V30 11752 C 1112.46 1.78101 -1.51004 0
M  V30 11753 C 1113.44 1.66138 -0.36498 0
M  V30 11754 O 1114.63 1.85281 -0.581778 0
M  V30 11755 C 1111.76 3.16511 -1.42961 0
M  V30 11756 C 1110.71 3.43233 -2.55685 0
M  V30 11757 C 1110.04 4.81411 -2.32696 0
M  V30 11758 C 1111.34 3.38288 -3.97943 0
M  V30 11759 H 1113.03 1.71896 -2.45137 0
M  V30 11760 H 1110.58 0.825575 -1.17984 0
M  V30 11761 H 1112.53 3.94941 -1.46968 0
M  V30 11762 H 1111.25 3.23439 -0.45332 0
M  V30 11763 H 1109.91 2.67173 -2.51026 0
M  V30 11764 H 1109.56 4.85011 -1.33317 0
M  V30 11765 H 1109.26 5.00251 -3.08257 0
M  V30 11766 H 1110.79 5.62102 -2.38481 0
M  V30 11767 H 1112.2 4.06659 -4.04106 0
M  V30 11768 H 1110.6 3.68664 -4.73505 0
M  V30 11769 H 1111.67 2.36525 -4.23301 0
M  V30 11770 N 1113.01 1.29761 0.894412 0
M  V30 11771 C 1114.26 1.17409 1.64006 0
M  V30 11772 C 1114.57 -0.272355 1.93695 0
M  V30 11773 O 1115.78 -0.517269 2.66527 0
M  V30 11774 C 1114.23 2.05379 2.95546 0
M  V30 11775 C 1113.84 3.54878 2.73433 0
M  V30 11776 C 1115.59 2.01765 3.73485 0
M  V30 11777 C 1113.49 4.34935 4.00731 0
M  V30 11778 H 1112.42 0.43583 0.615279 0
M  V30 11779 H 1115.07 1.5444 0.990983 0
M  V30 11780 H 1113.46 1.61222 3.61695 0
M  V30 11781 H 1114.63 4.07122 2.15844 0
M  V30 11782 H 1112.94 3.60218 2.08882 0
M  V30 11783 H 1115.54 2.58835 4.67877 0
M  V30 11784 H 1115.88 0.998876 4.04139 0
M  V30 11785 H 1116.42 2.43994 3.14184 0
M  V30 11786 H 1113.16 5.3747 3.75241 0
M  V30 11787 H 1112.68 3.87458 4.5786 0
M  V30 11788 H 1114.36 4.45875 4.68833 0
M  V30 11789 N 1114.49 -1.10549 1.12324 0
M  V30 11790 C 1115.44 -2.18944 0.785248 0
M  V30 11791 C 1116.43 -1.67867 -0.227389 0
M  V30 11792 O 1117.64 -1.79796 -0.0857162 0
M  V30 11793 H 1114.01 -0.713976 0.236098 0
M  V30 11794 H 1115.98 -2.44692 1.70788 0
M  V30 11795 C 1114.73 -3.46765 0.25485 0
M  V30 11796 H 1114.05 -3.86428 1.02534 0
M  V30 11797 H 1115.49 -4.23962 0.0566526 0
M  V30 11798 C 1113.95 -3.21185 -1.01695 0
M  V30 11799 O 1114.48 -3.42745 -2.09497 0
M  V30 11800 N 1112.69 -2.7486 -0.943423 0
M  V30 11801 H 1112.24 -2.57515 -0.0660366 0
M  V30 11802 H 1112.19 -2.58122 -1.795 0
M  V30 11803 N 1115.97 -0.914965 -1.28321 0
M  V30 11804 C 1117.19 -0.564023 -1.99583 0
M  V30 11805 C 1117.62 0.847821 -1.6791 0
M  V30 11806 O 1116.97 1.56682 -0.912171 0
M  V30 11807 C 1117.02 -0.781368 -3.52033 0
M  V30 11808 O 1116.13 0.159072 -4.12093 0
M  V30 11809 H 1115.47 -0.218565 -0.626997 0
M  V30 11810 H 1118 -1.23074 -1.63444 0
M  V30 11811 H 1118.01 -0.691946 -4.0209 0
M  V30 11812 H 1116.68 -1.81059 -3.7442 0
M  V30 11813 H 1115.26 0.0208145 -3.72894 0
M  V30 11814 N 1117.44 1.42219 -0.679077 0
M  V30 11815 C 1118.39 2.32599 0.00820028 0
M  V30 11816 C 1119.39 1.50059 0.786046 0
M  V30 11817 O 1120.59 1.66103 0.693528 0
M  V30 11818 H 1116.97 0.751694 0.0214483 0
M  V30 11819 H 1118.94 2.88257 -0.77138 0
M  V30 11820 C 1117.69 3.3468 0.942581 0
M  V30 11821 H 1117.01 3.98234 0.353463 0
M  V30 11822 H 1118.45 4.00496 1.39208 0
M  V30 11823 C 1116.91 2.67275 2.05099 0
M  V30 11824 O 1117.44 2.50793 3.13793 0
M  V30 11825 N 1115.64 2.26232 1.82394 0
M  V30 11826 H 1115.19 2.39838 0.939983 0
M  V30 11827 H 1115.15 1.81465 2.56744 0
M  V30 11828 N 1118.92 0.422693 1.51826 0
M  V30 11829 C 1119.85 -0.386913 2.30272 0
M  V30 11830 C 1120.83 -1.03411 1.35056 0
M  V30 11831 O 1122.02 -1.04055 1.6397 0
M  V30 11832 C 1119.15 -1.49645 3.13407 0
M  V30 11833 C 1118.1 -0.973532 4.16781 0
M  V30 11834 C 1117.43 -2.1777 4.88344 0
M  V30 11835 C 1118.73 -0.0181194 5.22297 0
M  V30 11836 H 1120.42 0.267697 2.98201 0
M  V30 11837 H 1117.97 0.130186 1.4341 0
M  V30 11838 H 1119.92 -2.06993 3.67059 0
M  V30 11839 H 1118.64 -2.17914 2.43272 0
M  V30 11840 H 1117.3 -0.42237 3.64159 0
M  V30 11841 H 1116.95 -2.84625 4.14726 0
M  V30 11842 H 1116.65 -1.83427 5.58237 0
M  V30 11843 H 1118.18 -2.75699 5.44814 0
M  V30 11844 H 1119.59 -0.500822 5.71108 0
M  V30 11845 H 1117.99 0.237163 5.99631 0
M  V30 11846 H 1119.06 0.923065 4.76033 0
M  V30 11847 N 1120.4 -1.5685 0.153553 0
M  V30 11848 C 1121.65 -1.96625 -0.49665 0
M  V30 11849 C 1121.98 -1.03877 -1.64083 0
M  V30 11850 O 1121.25 -0.0824112 -1.94325 0
M  V30 11851 C 1121.54 -3.46035 -0.996585 0
M  V30 11852 C 1121.39 -4.49561 0.146551 0
M  V30 11853 C 1122.71 -3.98104 -1.8762 0
M  V30 11854 H 1119.83 -0.714917 -0.179059 0
M  V30 11855 H 1122.47 -1.88527 0.236104 0
M  V30 11856 H 1120.62 -3.53066 -1.621 0
M  V30 11857 H 1122.29 -4.54604 0.783108 0
M  V30 11858 H 1120.53 -4.26271 0.804727 0
M  V30 11859 H 1121.21 -5.51456 -0.245078 0
M  V30 11860 H 1123.68 -3.93593 -1.34997 0
M  V30 11861 H 1122.56 -5.03098 -2.19508 0
M  V30 11862 H 1122.82 -3.40852 -2.81554 0
M  V30 11863 N 1121.88 0.120221 -1.57141 0
M  V30 11864 C 1123.12 0.834128 -1.86606 0
M  V30 11865 C 1123.48 1.77109 -0.741383 0
M  V30 11866 O 1124.68 2.52647 -0.917769 0
M  V30 11867 C 1122.95 1.56536 -3.21296 0
M  V30 11868 S 1124.51 2.32101 -3.7239 0
M  V30 11869 H 1121.33 0.278419 -0.65422 0
M  V30 11870 H 1123.93 0.0925474 -1.95281 0
M  V30 11871 H 1122.64 0.868987 -4.01094 0
M  V30 11872 H 1122.17 2.34734 -3.15696 0
M  V30 11873 H 1124.18 3.57799 -3.43794 0
M  V30 11874 N 1123.36 1.52689 0.390367 0
M  V30 11875 C 1124.3 1.7737 1.47677 0
M  V30 11876 C 1125.27 0.616864 1.54221 0
M  V30 11877 O 1126.46 0.856437 1.70499 0
M  V30 11878 C 1123.6 1.94715 2.84921 0
M  V30 11879 C 1122.71 3.22405 2.8754 0
M  V30 11880 C 1121.85 3.30074 4.16202 0
M  V30 11881 C 1120.89 4.51893 4.12867 0
M  V30 11882 N 1120.02 4.56851 5.33134 0
M  V30 11883 H 1124.86 2.70084 1.25932 0
M  V30 11884 H 1122.4 1.33813 0.610943 0
M  V30 11885 H 1124.36 2.02755 3.64618 0
M  V30 11886 H 1122.99 1.05363 3.0512 0
M  V30 11887 H 1122.04 3.23442 2.00223 0
M  V30 11888 H 1123.35 4.12156 2.80943 0
M  V30 11889 H 1122.51 3.3729 5.04302 0
M  V30 11890 H 1121.24 2.38295 4.25519 0
M  V30 11891 H 1120.25 4.44803 3.23156 0
M  V30 11892 H 1121.47 5.44987 4.05174 0
M  V30 11893 H 1119.42 3.67963 5.43083 0
M  V30 11894 H 1119.34 5.40472 5.28607 0
M  V30 11895 H 1120.61 4.6832 6.23134 0
M  V30 11896 N 1124.83 -0.648732 1.43629 0
M  V30 11897 C 1126.08 -1.41066 1.45699 0
M  V30 11898 C 1126.41 -1.94024 0.082612 0
M  V30 11899 O 1125.69 -1.7257 -0.897207 0
M  V30 11900 C 1125.97 -2.58882 2.50304 0
M  V30 11901 C 1125.82 -2.11387 3.97033 0
M  V30 11902 C 1127.14 -3.61092 2.51597 0
M  V30 11903 H 1124.26 -0.511591 0.530512 0
M  V30 11904 H 1126.9 -0.735069 1.75205 0
M  V30 11905 H 1125.05 -3.16518 2.25274 0
M  V30 11906 H 1126.73 -1.58718 4.33136 0
M  V30 11907 H 1124.97 -1.4272 4.0965 0
M  V30 11908 H 1125.64 -2.96129 4.65845 0
M  V30 11909 H 1128.12 -3.13223 2.73917 0
M  V30 11910 H 1126.99 -4.41071 3.26722 0
M  V30 11911 H 1127.25 -4.13985 1.55141 0
M  V30 11912 N 1126.31 -1.30234 -0.887518 0
M  V30 11913 C 1127.54 -1.21955 -1.67755 0
M  V30 11914 C 1127.96 0.214701 -1.86871 0
M  V30 11915 O 1127.32 1.15459 -1.39782 0
M  V30 11916 C 1127.37 -1.95079 -3.03276 0
M  V30 11917 O 1126.47 -1.27615 -3.92158 0
M  V30 11918 H 1125.81 -0.421948 -0.512695 0
M  V30 11919 H 1128.34 -1.72011 -1.10785 0
M  V30 11920 H 1128.35 -2.04004 -3.53336 0
M  V30 11921 H 1127.03 -2.99392 -2.88682 0
M  V30 11922 H 1125.61 -1.27029 -3.50597 0
M  V30 11923 N 1127.79 1.09952 -1.12909 0
M  V30 11924 C 1129.07 1.78547 -0.798767 0
M  V30 11925 C 1129.45 1.9878 0.710624 0
M  V30 11926 O 1128.8 1.58485 1.64604 0
M  V30 11927 C 1129.01 3.1121 -1.57953 0
M  V30 11928 C 1130.35 3.86006 -1.76874 0
M  V30 11929 O 1131.38 3.20946 -1.54506 0
M  V30 11930 O 1130.24 5.02791 -2.14158 0
M  V30 11931 H 1127.33 0.774084 -0.291072 0
M  V30 11932 H 1129.88 1.16557 -1.2334 0
M  V30 11933 H 1128.65 2.91935 -2.60557 0
M  V30 11934 H 1128.27 3.80922 -1.13948 0
M  V30 11935 N 1129.27 0.921757 1.27833 0
M  V30 11936 C 1130.52 0.559078 1.94629 0
M  V30 11937 C 1130.84 -0.898641 1.72495 0
M  V30 11938 O 1130.1 -1.65546 1.0437 0
M  V30 11939 C 1130.4 0.824259 3.47765 0
M  V30 11940 C 1130.06 2.26278 3.90011 0
M  V30 11941 C 1128.73 2.65607 4.01256 0
M  V30 11942 C 1131.08 3.19853 4.11513 0
M  V30 11943 C 1128.41 3.97646 4.31387 0
M  V30 11944 C 1130.76 4.51467 4.43126 0
M  V30 11945 C 1129.42 4.90637 4.52583 0
M  V30 11946 H 1128.69 0.204581 0.712199 0
M  V30 11947 H 1131.34 1.1646 1.52018 0
M  V30 11948 H 1129.64 0.136011 3.91564 0
M  V30 11949 H 1131.34 0.522701 3.97579 0
M  V30 11950 H 1127.93 1.94765 3.81791 0
M  V30 11951 H 1132.11 2.90674 4.02271 0
M  V30 11952 H 1127.37 4.27685 4.36916 0
M  V30 11953 H 1131.54 5.23982 4.58711 0
M  V30 11954 H 1129.17 5.92982 4.75685 0
M  V30 11955 N 1130.75 -1.41857 0.686609 0
M  V30 11956 C 1131.99 -2.0097 0.213378 0
M  V30 11957 C 1132.32 -1.54618 -1.1882 0
M  V30 11958 O 1131.59 -0.772916 -1.80008 0
M  V30 11959 H 1130.17 -0.743134 0.0758968 0
M  V30 11960 H 1132.83 -1.73609 0.885763 0
M  V30 11961 H 1131.92 -3.11296 0.223826 0
M  V30 11962 N 1132.22 -0.430739 -1.51599 0
M  V30 11963 C 1133.15 0.374695 -2.30474 0
M  V30 11964 C 1134.14 1.02694 -1.35602 0
M  V30 11965 O 1135.32 1.03184 -1.6452 0
M  V30 11966 C 1132.45 1.47981 -3.14196 0
M  V30 11967 C 1131.4 0.951415 -4.17291 0
M  V30 11968 C 1130.73 2.15177 -4.89492 0
M  V30 11969 C 1132.03 -0.00957951 -5.22299 0
M  V30 11970 H 1133.72 -0.283508 -2.98055 0
M  V30 11971 H 1131.27 -0.13779 -1.43339 0
M  V30 11972 H 1133.22 2.05043 -3.68151 0
M  V30 11973 H 1131.95 2.16621 -2.44424 0
M  V30 11974 H 1130.61 0.403052 -3.64378 0
M  V30 11975 H 1130.25 2.82421 -4.1623 0
M  V30 11976 H 1129.95 1.80464 -5.59202 0
M  V30 11977 H 1131.48 2.72806 -5.46269 0
M  V30 11978 H 1132.89 0.470527 -5.71366 0
M  V30 11979 H 1131.29 -0.268959 -5.99497 0
M  V30 11980 H 1132.36 -0.948297 -4.75537 0
M  V30 11981 N 1133.7 1.56767 -0.161869 0
M  V30 11982 C 1134.93 2.01401 0.49523 0
M  V30 11983 C 1135.35 1.04133 1.56646 0
M  V30 11984 O 1134.71 0.0193747 1.8129 0
M  V30 11985 C 1134.76 3.44695 1.05913 0
M  V30 11986 O 1133.86 3.50475 2.1735 0
M  V30 11987 H 1133.2 0.65314 0.1196 0
M  V30 11988 H 1135.73 2.02903 -0.26298 0
M  V30 11989 H 1135.74 3.83805 1.3841 0
M  V30 11990 H 1134.42 4.14991 0.274749 0
M  V30 11991 H 1133 3.23218 1.85969 0
M  V30 11992 N 1135.18 -0.111886 1.57202 0
M  V30 11993 C 1136.6 -0.465629 1.52657 0
M  V30 11994 C 1136.8 -1.81463 0.875989 0
M  V30 11995 O 1135.85 -2.4825 0.461345 0
M  V30 11996 C 1137.17 -0.443571 2.9741 0
M  V30 11997 C 1138.71 -0.52662 3.08538 0
M  V30 11998 C 1139.19 -0.53488 4.54866 0
M  V30 11999 N 1140.68 -0.596117 4.59348 0
M  V30 12000 C 1141.41 -0.624073 5.69994 0
M  V30 12001 N 1140.91 -0.609245 6.90116 0
M  V30 12002 N 1142.7 -0.667619 5.58121 0
M  V30 12003 H 1134.85 0.771925 1.97876 0
M  V30 12004 H 1137.12 0.285534 0.903977 0
M  V30 12005 H 1136.82 0.480138 3.48407 0
M  V30 12006 H 1136.7 -1.26876 3.55221 0
M  V30 12007 H 1139.08 -1.44075 2.57539 0
M  V30 12008 H 1139.17 0.326396 2.53709 0
M  V30 12009 H 1138.81 0.375233 5.06512 0
M  V30 12010 H 1138.74 -1.40488 5.07514 0
M  V30 12011 H 1141.23 -0.613452 3.72888 0
M  V30 12012 H 1141.54 -0.633396 7.702 0
M  V30 12013 H 1139.89 -0.576557 6.92604 0
M  V30 12014 H 1143.08 -0.676616 4.63184 0
M  V30 12015 H 1143.25 -0.685938 6.44359 0
M  V30 12016 N 1136.66 -1.52894 -0.382264 0
M  V30 12017 C 1137.9 -1.68515 -1.12829 0
M  V30 12018 C 1138.24 -0.427211 -1.89443 0
M  V30 12019 O 1137.51 0.57516 -1.85801 0
M  V30 12020 C 1137.8 -2.92449 -2.10108 0
M  V30 12021 C 1137.65 -4.2836 -1.37214 0
M  V30 12022 C 1138.97 -3.11944 -3.1045 0
M  V30 12023 H 1136.09 -0.613223 -0.408811 0
M  V30 12024 H 1138.73 -1.85503 -0.410921 0
M  V30 12025 H 1136.88 -2.78097 -2.71283 0
M  V30 12026 H 1138.55 -4.54493 -0.789516 0
M  V30 12027 H 1136.79 -4.28532 -0.673973 0
M  V30 12028 H 1137.46 -5.11178 -2.0833 0
M  V30 12029 H 1139.94 -3.25372 -2.59369 0
M  V30 12030 H 1138.82 -4.00125 -3.75754 0
M  V30 12031 H 1139.08 -2.26465 -3.79692 0
M  V30 12032 N 1138.14 0.641106 -1.43971 0
M  V30 12033 C 1139.07 1.76489 -1.52885 0
M  V30 12034 C 1140.05 1.65742 -0.38258 0
M  V30 12035 O 1141.23 1.84653 -0.601397 0
M  V30 12036 C 1138.36 3.14977 -1.4631 0
M  V30 12037 C 1137.32 3.40502 -2.59311 0
M  V30 12038 C 1136.64 4.78916 -2.37789 0
M  V30 12039 C 1137.94 3.34048 -4.01509 0
M  V30 12040 H 1139.64 1.69286 -2.46946 0
M  V30 12041 H 1137.18 0.813015 -1.18853 0
M  V30 12042 H 1139.14 3.9336 -1.51149 0
M  V30 12043 H 1137.86 3.2294 -0.487599 0
M  V30 12044 H 1136.52 2.64495 -2.53846 0
M  V30 12045 H 1136.17 4.8357 -1.38454 0
M  V30 12046 H 1135.87 4.96954 -3.13545 0
M  V30 12047 H 1137.39 5.59541 -2.4443 0
M  V30 12048 H 1138.81 4.0235 -4.08396 0
M  V30 12049 H 1137.2 3.63622 -4.77388 0
M  V30 12050 H 1138.27 2.32022 -4.25786 0
M  V30 12051 N 1139.62 1.30703 0.880598 0
M  V30 12052 C 1140.53 1.19389 2.01949 0
M  V30 12053 C 1141.54 0.112868 1.73634 0
M  V30 12054 O 1142.72 0.328643 1.98701 0
M  V30 12055 C 1139.78 0.891004 3.35055 0
M  V30 12056 C 1138.84 2.05784 3.76764 0
M  V30 12057 C 1138.08 1.76931 5.03519 0
M  V30 12058 O 1138.3 0.699326 5.66097 0
M  V30 12059 O 1137.23 2.623 5.4174 0
M  V30 12060 H 1141.06 2.15073 2.14423 0
M  V30 12061 H 1138.64 1.10339 1.00726 0
M  V30 12062 H 1140.53 0.737476 4.14897 0
M  V30 12063 H 1139.2 -0.0358909 3.2368 0
M  V30 12064 H 1138.11 2.26672 2.97608 0
M  V30 12065 H 1139.44 2.96661 3.9275 0
M  V30 12066 N 1141.09 -1.09351 1.1349 0
M  V30 12067 C 1142.37 -1.78121 0.808225 0
M  V30 12068 C 1142.75 -1.99154 -0.700072 0
M  V30 12069 O 1142.1 -1.59356 -1.63762 0
M  V30 12070 C 1142.31 -3.10368 1.59601 0
M  V30 12071 C 1143.66 -3.85063 1.78919 0
M  V30 12072 O 1144.68 -3.20122 1.56206 0
M  V30 12073 O 1143.54 -5.01648 2.16821 0
M  V30 12074 H 1140.63 -0.77253 0.295173 0
M  V30 12075 H 1143.18 -1.15901 1.23956 0
M  V30 12076 H 1141.95 -2.90549 2.62101 0
M  V30 12077 H 1141.57 -3.80312 1.15967 0
M  V30 12078 N 1142.57 -0.928524 -1.27343 0
M  V30 12079 C 1143.85 -0.487758 -1.89421 0
M  V30 12080 C 1144.23 1.03418 -1.84032 0
M  V30 12081 O 1143.58 1.8887 -1.2861 0
M  V30 12082 C 1143.79 -1.03478 -3.33307 0
M  V30 12083 C 1145.13 -1.09577 -4.10217 0
M  V30 12084 O 1146.16 -0.984463 -3.42326 0
M  V30 12085 O 1145.02 -1.2673 -5.31603 0
M  V30 12086 H 1142.11 -0.157018 -0.811957 0
M  V30 12087 H 1144.66 -1.02027 -1.35605 0
M  V30 12088 H 1143.43 -2.07861 -3.31526 0
M  V30 12089 H 1143.05 -0.483967 -3.94644 0
M  V30 12090 N 1144.05 1.41491 -0.694123 0
M  V30 12091 C 1145.46 1.84283 -0.299439 0
M  V30 12092 C 1145.81 1.58081 1.16211 0
M  V30 12093 O 1144.94 1.05051 1.89191 0
M  V30 12094 C 1145.53 3.34522 -0.536696 0
M  V30 12095 C 1144.09 3.7589 -0.195944 0
M  V30 12096 C 1143.24 2.64908 -0.819692 0
M  V30 12097 H 1146.19 1.31063 -0.894884 0
M  V30 12098 H 1146.21 3.79947 0.205062 0
M  V30 12099 H 1145.72 3.53561 -1.6005 0
M  V30 12100 H 1143.82 3.62452 0.863655 0
M  V30 12101 H 1143.94 4.74671 -0.649954 0
M  V30 12102 H 1142.3 2.53476 -0.249412 0
M  V30 12103 H 1143.08 2.86765 -1.88734 0
M  V30 12104 N 1145.53 0.438773 1.51369 0
M  V30 12105 C 1146.44 -0.378074 2.31534 0
M  V30 12106 C 1147.45 -1.02632 1.40508 0
M  V30 12107 O 1148.63 -1.02138 1.73579 0
M  V30 12108 C 1145.69 -1.46374 3.14286 0
M  V30 12109 C 1144.76 -0.835473 4.21092 0
M  V30 12110 C 1143.99 -1.86941 4.99889 0
M  V30 12111 O 1144.21 -3.0918 4.79337 0
M  V30 12112 O 1143.15 -1.45914 5.83946 0
M  V30 12113 H 1146.97 0.276401 3.0244 0
M  V30 12114 H 1144.56 0.201281 1.48038 0
M  V30 12115 H 1146.44 -2.09335 3.65728 0
M  V30 12116 H 1145.11 -2.10227 2.46143 0
M  V30 12117 H 1144.02 -0.167775 3.73724 0
M  V30 12118 H 1145.35 -0.240406 4.91613 0
M  V30 12119 N 1147.01 -1.56678 0.170181 0
M  V30 12120 C 1147.97 -2.16698 -0.746622 0
M  V30 12121 C 1148.97 -1.11475 -1.15888 0
M  V30 12122 O 1150.16 -1.36994 -1.07602 0
M  V30 12123 C 1147.29 -2.74892 -2.01612 0
M  V30 12124 H 1148.48 -2.99061 -0.224135 0
M  V30 12125 H 1146.04 -1.56098 -0.0793761 0
M  V30 12126 H 1146.77 -1.96259 -2.58172 0
M  V30 12127 H 1146.56 -3.51896 -1.72949 0
M  V30 12128 H 1148.05 -3.21058 -2.67042 0
M  V30 12129 N 1148.48 0.103547 -1.57259 0
M  V30 12130 C 1149.45 1.11039 -2.00507 0
M  V30 12131 C 1150.45 1.33432 -0.897361 0
M  V30 12132 O 1151.64 1.29688 -1.16304 0
M  V30 12133 C 1148.77 2.46144 -2.35851 0
M  V30 12134 H 1149.96 0.738332 -2.90669 0
M  V30 12135 H 1147.51 0.348334 -1.52369 0
M  V30 12136 H 1148.25 2.88242 -1.48617 0
M  V30 12137 H 1148.03 2.31241 -3.16654 0
M  V30 12138 H 1149.52 3.18577 -2.69997 0
M  V30 12139 N 1149.96 1.53094 0.37415 0
M  V30 12140 C 1151.19 1.72508 1.13687 0
M  V30 12141 C 1151.6 0.449922 1.83773 0
M  V30 12142 O 1150.94 -0.586391 1.74089 0
M  V30 12143 C 1151 2.82965 2.21746 0
M  V30 12144 C 1150.67 4.23599 1.71501 0
M  V30 12145 C 1151.67 5.06245 1.1837 0
M  V30 12146 C 1149.35 4.69978 1.77273 0
M  V30 12147 C 1151.34 6.33357 0.71679 0
M  V30 12148 C 1149.03 5.9707 1.30194 0
M  V30 12149 C 1150.03 6.7859 0.774856 0
M  V30 12150 O 1149.72 8.03298 0.310981 0
M  V30 12151 H 1149.45 0.580611 0.346218 0
M  V30 12152 H 1152 2.00596 0.441614 0
M  V30 12153 H 1150.23 2.5033 2.9474 0
M  V30 12154 H 1151.92 2.90638 2.83345 0
M  V30 12155 H 1152.69 4.71591 1.13256 0
M  V30 12156 H 1148.57 4.06605 2.17241 0
M  V30 12157 H 1152.11 6.96934 0.30471 0
M  V30 12158 H 1148.01 6.31225 1.34999 0
M  V30 12159 H 1148.78 8.17364 0.431098 0
M  V30 12160 N 1151.44 -0.633461 1.44309 0
M  V30 12161 C 1152.67 -1.42033 1.50447 0
M  V30 12162 C 1153.08 -1.88362 0.128585 0
M  V30 12163 O 1152.44 -1.60695 -0.865071 0
M  V30 12164 C 1152.49 -2.6422 2.46719 0
M  V30 12165 O 1152.21 -2.19823 3.78958 0
M  V30 12166 C 1153.71 -3.57372 2.62298 0
M  V30 12167 H 1150.93 -0.435667 0.510329 0
M  V30 12168 H 1153.48 -0.774907 1.8925 0
M  V30 12169 H 1151.63 -3.24859 2.11058 0
M  V30 12170 H 1152.05 -2.99022 4.30913 0
M  V30 12171 H 1153.52 -4.39719 3.33693 0
M  V30 12172 H 1154 -4.06026 1.67449 0
M  V30 12173 H 1154.6 -3.02603 2.9885 0
M  V30 12174 N 1152.92 -1.31168 -0.873655 0
M  V30 12175 C 1154.15 -1.23595 -1.65927 0
M  V30 12176 C 1154.56 0.199349 -1.87745 0
M  V30 12177 O 1153.92 1.13013 -1.43298 0
M  V30 12178 C 1153.97 -1.97268 -3.02932 0
M  V30 12179 O 1153.69 -3.35196 -2.82091 0
M  V30 12180 C 1155.19 -1.9649 -3.97374 0
M  V30 12181 H 1152.41 -0.427228 -0.517414 0
M  V30 12182 H 1154.96 -1.72983 -1.09074 0
M  V30 12183 H 1153.11 -1.51651 -3.56484 0
M  V30 12184 H 1153.52 -3.7266 -3.69087 0
M  V30 12185 H 1155 -2.52557 -4.90835 0
M  V30 12186 H 1155.48 -0.946525 -4.28879 0
M  V30 12187 H 1156.08 -2.4197 -3.49758 0
M  V30 12188 N 1154.4 1.08748 -1.14068 0
M  V30 12189 C 1155.81 1.33125 -0.880341 0
M  V30 12190 C 1156.01 1.9569 0.480396 0
M  V30 12191 O 1155.07 2.2077 1.22543 0
M  V30 12192 C 1156.38 2.23618 -2.01036 0
M  V30 12193 C 1157.93 2.37108 -2.04326 0
M  V30 12194 C 1158.4 3.30941 -3.1661 0
M  V30 12195 N 1159.9 3.38517 -3.16166 0
M  V30 12196 C 1160.63 4.11142 -3.99687 0
M  V30 12197 N 1160.13 4.86505 -4.93239 0
M  V30 12198 N 1161.92 4.06938 -3.87761 0
M  V30 12199 H 1154.07 0.665164 -2.01716 0
M  V30 12200 H 1156.33 0.355612 -0.878774 0
M  V30 12201 H 1156.04 1.84885 -2.99183 0
M  V30 12202 H 1155.91 3.24056 -1.93049 0
M  V30 12203 H 1158.3 2.75101 -1.06787 0
M  V30 12204 H 1158.38 1.36424 -2.16384 0
M  V30 12205 H 1158.03 2.93669 -4.14392 0
M  V30 12206 H 1157.96 4.31545 -3.01789 0
M  V30 12207 H 1160.45 2.84786 -2.48405 0
M  V30 12208 H 1160.76 5.39372 -5.53441 0
M  V30 12209 H 1159.1 4.8557 -4.9724 0
M  V30 12210 H 1162.3 3.47166 -3.13996 0
M  V30 12211 H 1162.47 4.63275 -4.53079 0
M  V30 12212 N 1155.87 0.935264 1.26849 0
M  V30 12213 C 1157.12 0.578545 1.93642 0
M  V30 12214 C 1157.44 -0.884296 1.73796 0
M  V30 12215 O 1156.71 -1.62768 1.09011 0
M  V30 12216 H 1155.29 0.210976 0.716588 0
M  V30 12217 H 1157.96 1.1893 1.54407 0
M  V30 12218 H 1157.05 0.791268 3.01903 0
M  V30 12219 N 1157.35 -1.41121 0.701616 0
M  V30 12220 C 1158.6 -2.00733 0.234682 0
M  V30 12221 C 1158.92 -1.55869 -1.17174 0
M  V30 12222 O 1158.19 -0.791965 -1.79178 0
M  V30 12223 H 1156.77 -0.742288 0.0837745 0
M  V30 12224 H 1159.43 -1.7266 0.904127 0
M  V30 12225 H 1158.53 -3.11041 0.256831 0
M  V30 12226 N 1158.83 -0.446794 -1.51134 0
M  V30 12227 C 1159.78 0.359865 -2.27977 0
M  V30 12228 C 1160.75 1.0086 -1.31972 0
M  V30 12229 O 1161.93 1.02569 -1.60886 0
M  V30 12230 C 1159.07 1.44978 -3.1317 0
M  V30 12231 C 1158.19 0.818243 -4.2418 0
M  V30 12232 C 1157.32 1.884 -4.96668 0
M  V30 12233 C 1156.36 1.2314 -5.99586 0
M  V30 12234 N 1155.5 2.23894 -6.65444 0
M  V30 12235 H 1160.34 -0.301775 -2.96468 0
M  V30 12236 H 1157.87 -0.160666 -1.4622 0
M  V30 12237 H 1159.83 2.09308 -3.60896 0
M  V30 12238 H 1158.46 2.08092 -2.46775 0
M  V30 12239 H 1157.51 0.0629889 -3.80348 0
M  V30 12240 H 1158.83 0.301885 -4.97886 0
M  V30 12241 H 1157.98 2.6037 -5.4799 0
M  V30 12242 H 1156.72 2.43411 -4.22614 0
M  V30 12243 H 1155.72 0.497215 -5.47547 0
M  V30 12244 H 1156.95 0.688505 -6.75601 0
M  V30 12245 H 1154.89 2.77967 -5.94197 0
M  V30 12246 H 1154.81 1.77176 -7.34945 0
M  V30 12247 H 1156.08 2.95318 -7.21393 0
M  V30 12248 N 1160.31 1.56586 -0.178487 0
M  V30 12249 C 1161.56 1.96273 0.464745 0
M  V30 12250 C 1161.87 1.0675 1.63902 0
M  V30 12251 O 1163.08 1.36148 2.34896 0
M  V30 12252 C 1161.53 3.49021 0.878207 0
M  V30 12253 C 1161.14 4.4718 -0.270861 0
M  V30 12254 C 1162.88 3.97512 1.48946 0
M  V30 12255 C 1160.79 5.91176 0.162632 0
M  V30 12256 H 1159.72 0.732834 0.177398 0
M  V30 12257 H 1162.37 1.81534 -0.267861 0
M  V30 12258 H 1160.75 3.59203 1.667 0
M  V30 12259 H 1161.93 4.48718 -1.04826 0
M  V30 12260 H 1160.24 4.08788 -0.792529 0
M  V30 12261 H 1162.84 5.02556 1.82595 0
M  V30 12262 H 1163.18 3.40861 2.38997 0
M  V30 12263 H 1163.72 3.90376 0.76496 0
M  V30 12264 H 1160.46 6.51716 -0.703286 0
M  V30 12265 H 1159.98 5.9293 0.905243 0
M  V30 12266 H 1161.65 6.44174 0.604084 0
M  V30 12267 N 1161.79 -0.095206 1.57312 0
M  V30 12268 C 1163.2 -0.649733 1.7503 0
M  V30 12269 C 1163.55 -1.7912 0.800652 0
M  V30 12270 O 1162.67 -2.1639 -0.0208831 0
M  V30 12271 C 1163.27 -1.18541 3.17386 0
M  V30 12272 C 1161.83 -1.686 3.36528 0
M  V30 12273 C 1160.97 -0.595531 2.7083 0
M  V30 12274 H 1163.93 0.130863 1.5816 0
M  V30 12275 H 1163.95 -2.05473 3.20252 0
M  V30 12276 H 1163.46 -0.35441 3.86478 0
M  V30 12277 H 1161.56 -2.541 2.72514 0
M  V30 12278 H 1161.67 -1.77907 4.44844 0
M  V30 12279 H 1160.04 -1.03495 2.32725 0
M  V30 12280 H 1160.82 0.224883 3.42563 0
M  V30 12281 N 1163.26 -1.53291 -0.366026 0
M  V30 12282 C 1164.51 -1.68671 -1.10602 0
M  V30 12283 C 1164.83 -0.444793 -1.90476 0
M  V30 12284 O 1166.03 -0.479135 -2.67239 0
M  V30 12285 C 1164.49 -2.98174 -2.01545 0
M  V30 12286 C 1164.1 -4.29626 -1.26986 0
M  V30 12287 C 1165.84 -3.22921 -2.7554 0
M  V30 12288 C 1163.75 -5.50218 -2.16828 0
M  V30 12289 H 1162.68 -0.628456 -0.416604 0
M  V30 12290 H 1165.33 -1.79791 -0.367058 0
M  V30 12291 H 1163.71 -2.80855 -2.79171 0
M  V30 12292 H 1164.88 -4.57574 -0.544269 0
M  V30 12293 H 1163.2 -4.11318 -0.648558 0
M  V30 12294 H 1165.8 -4.10202 -3.42985 0
M  V30 12295 H 1166.14 -2.38964 -3.40884 0
M  V30 12296 H 1166.67 -3.40912 -2.04997 0
M  V30 12297 H 1163.41 -6.36651 -1.56063 0
M  V30 12298 H 1162.93 -5.26549 -2.87238 0
M  V30 12299 H 1164.61 -5.84991 -2.76396 0
M  V30 12300 N 1164.74 0.6258 -1.44643 0
M  V30 12301 C 1166.16 0.944569 -1.28647 0
M  V30 12302 C 1166.36 2.00227 -0.226134 0
M  V30 12303 O 1165.41 2.4953 0.386161 0
M  V30 12304 C 1166.73 1.40278 -2.65975 0
M  V30 12305 C 1168.28 1.51797 -2.73727 0
M  V30 12306 C 1168.75 2.01 -4.11537 0
M  V30 12307 N 1170.24 2.08262 -4.13741 0
M  V30 12308 C 1170.98 2.47515 -5.17227 0
M  V30 12309 N 1170.47 2.85867 -6.31072 0
M  V30 12310 N 1172.27 2.47695 -5.04583 0
M  V30 12311 H 1164.42 -0.0736157 -2.12272 0
M  V30 12312 H 1166.68 0.0296998 -0.947535 0
M  V30 12313 H 1166.39 0.699871 -3.44666 0
M  V30 12314 H 1166.26 2.37279 -2.93221 0
M  V30 12315 H 1168.65 2.21183 -1.95351 0
M  V30 12316 H 1168.73 0.531574 -2.50216 0
M  V30 12317 H 1168.37 1.32207 -4.90391 0
M  V30 12318 H 1168.3 3.0052 -4.32429 0
M  V30 12319 H 1170.79 1.81286 -3.31578 0
M  V30 12320 H 1171.11 3.14647 -7.05845 0
M  V30 12321 H 1169.45 2.83605 -6.34502 0
M  V30 12322 H 1172.64 2.17127 -4.14697 0
M  V30 12323 H 1172.81 2.77962 -5.85356 0
M  V30 12324 N 1166.22 1.31629 0.866686 0
M  V30 12325 C 1167.47 1.22693 1.62228 0
M  V30 12326 C 1167.82 -0.212134 1.91227 0
M  V30 12327 O 1167.11 -1.1465 1.53512 0
M  V30 12328 C 1167.31 2.00775 2.95676 0
M  V30 12329 C 1167.14 3.52128 2.79708 0
M  V30 12330 C 1165.91 4.21476 2.78722 0
M  V30 12331 C 1168.11 4.47013 2.5433 0
M  V30 12332 N 1166.09 5.58963 2.53838 0
M  V30 12333 C 1167.46 5.72192 2.3874 0
M  V30 12334 C 1169.51 4.36404 2.39701 0
M  V30 12335 C 1168.22 6.8796 2.10008 0
M  V30 12336 C 1170.24 5.51959 2.12358 0
M  V30 12337 C 1169.6 6.76129 1.97559 0
M  V30 12338 H 1165.7 0.504088 0.597845 0
M  V30 12339 H 1168.29 1.65856 1.01979 0
M  V30 12340 H 1166.46 1.59975 3.53924 0
M  V30 12341 H 1168.19 1.83831 3.60539 0
M  V30 12342 H 1164.95 3.73478 2.91224 0
M  V30 12343 H 1165.37 6.31362 2.44358 0
M  V30 12344 H 1170.01 3.41066 2.49868 0
M  V30 12345 H 1167.73 7.83321 1.98578 0
M  V30 12346 H 1171.32 5.45669 2.01834 0
M  V30 12347 H 1170.2 7.64033 1.76701 0
M  V30 12348 N 1167.7 -1.08142 1.14644 0
M  V30 12349 C 1168.93 -1.84318 0.939926 0
M  V30 12350 C 1169.34 -1.81735 -0.511636 0
M  V30 12351 O 1168.7 -1.22297 -1.35461 0
M  V30 12352 C 1168.75 -3.31744 1.43625 0
M  V30 12353 O 1168.47 -3.3435 2.83094 0
M  V30 12354 C 1169.97 -4.24717 1.27007 0
M  V30 12355 H 1167.19 -0.581781 0.334323 0
M  V30 12356 H 1169.74 -1.36561 1.52221 0
M  V30 12357 H 1167.89 -3.7688 0.896664 0
M  V30 12358 H 1168.31 -4.26399 3.05425 0
M  V30 12359 H 1169.78 -5.26262 1.66591 0
M  V30 12360 H 1170.26 -4.38682 0.213257 0
M  V30 12361 H 1170.86 -3.85409 1.79833 0
M  V30 12362 N 1169.18 -0.941978 -1.26351 0
M  V30 12363 C 1170.4 -0.606231 -1.98342 0
M  V30 12364 C 1170.83 0.812014 -1.6967 0
M  V30 12365 O 1170.19 1.54712 -0.9452 0
M  V30 12366 C 1170.23 -0.855864 -3.50296 0
M  V30 12367 O 1169.34 0.0716251 -4.12338 0
M  V30 12368 H 1168.68 -0.231815 -0.62222 0
M  V30 12369 H 1171.21 -1.26513 -1.60797 0
M  V30 12370 H 1171.22 -0.777079 -4.00531 0
M  V30 12371 H 1169.89 -1.8896 -3.70496 0
M  V30 12372 H 1168.47 -0.0582866 -3.72854 0
M  V30 12373 N 1170.66 1.40747 -0.709091 0
M  V30 12374 C 1172.07 1.83955 -0.318968 0
M  V30 12375 C 1172.42 1.59304 1.14527 0
M  V30 12376 O 1171.54 1.07052 1.88066 0
M  V30 12377 C 1172.14 3.33934 -0.572147 0
M  V30 12378 C 1170.7 3.75661 -0.235802 0
M  V30 12379 C 1169.84 2.64024 -0.847743 0
M  V30 12380 H 1172.79 1.30107 -0.908734 0
M  V30 12381 H 1172.82 3.80143 0.164752 0
M  V30 12382 H 1172.33 3.51844 -1.63791 0
M  V30 12383 H 1170.43 3.63348 0.825164 0
M  V30 12384 H 1170.54 4.73955 -0.700263 0
M  V30 12385 H 1168.91 2.53197 -0.276283 0
M  V30 12386 H 1169.69 2.84748 -1.91765 0
M  V30 12387 N 1172.13 0.454803 1.50895 0
M  V30 12388 C 1173.04 -0.353495 2.31921 0
M  V30 12389 C 1174.06 -1.01136 1.41589 0
M  V30 12390 O 1175.24 -1.00291 1.74653 0
M  V30 12391 C 1172.3 -1.43032 3.15821 0
M  V30 12392 C 1171.36 -0.790763 4.21954 0
M  V30 12393 C 1170.59 -1.81628 5.01843 0
M  V30 12394 O 1170.82 -3.04078 4.8259 0
M  V30 12395 O 1169.75 -1.39713 5.8546 0
M  V30 12396 H 1173.58 0.308463 3.02129 0
M  V30 12397 H 1171.16 0.216971 1.47816 0
M  V30 12398 H 1173.04 -2.05444 3.67927 0
M  V30 12399 H 1171.72 -2.07605 2.48358 0
M  V30 12400 H 1170.63 -0.128127 3.73881 0
M  V30 12401 H 1171.96 -0.188251 4.9184 0
M  V30 12402 N 1173.61 -1.56489 0.186789 0
M  V30 12403 C 1174.57 -2.17478 -0.723596 0
M  V30 12404 C 1175.57 -1.12698 -1.14699 0
M  V30 12405 O 1176.76 -1.38128 -1.06143 0
M  V30 12406 C 1173.9 -2.77015 -1.98685 0
M  V30 12407 H 1175.09 -2.99282 -0.192403 0
M  V30 12408 H 1172.64 -1.56174 -0.0628153 0
M  V30 12409 H 1173.38 -1.98987 -2.56076 0
M  V30 12410 H 1173.16 -3.53711 -1.69207 0
M  V30 12411 H 1174.65 -3.23872 -2.63622 0
M  V30 12412 N 1175.09 0.086862 -1.5736 0
M  V30 12413 C 1176.34 0.787581 -1.85688 0
M  V30 12414 C 1176.65 1.79494 -0.777263 0
M  V30 12415 O 1177.86 2.54415 -0.947914 0
M  V30 12416 C 1176.31 1.45155 -3.2933 0
M  V30 12417 C 1175.92 0.483539 -4.45383 0
M  V30 12418 C 1177.67 2.13552 -3.66873 0
M  V30 12419 C 1175.57 1.15257 -5.8006 0
M  V30 12420 H 1174.5 0.297882 -0.692663 0
M  V30 12421 H 1177.15 0.0406299 -1.83455 0
M  V30 12422 H 1175.54 2.24625 -3.26128 0
M  V30 12423 H 1176.71 -0.280254 -4.59947 0
M  V30 12424 H 1175.02 -0.0951664 -4.16291 0
M  V30 12425 H 1177.62 2.64355 -4.6478 0
M  V30 12426 H 1177.96 2.92818 -2.95911 0
M  V30 12427 H 1178.5 1.40932 -3.71999 0
M  V30 12428 H 1175.24 0.400546 -6.54275 0
M  V30 12429 H 1174.76 1.88759 -5.69324 0
M  V30 12430 H 1176.44 1.67671 -6.24896 0
M  V30 12431 N 1176.57 1.53483 0.357892 0
M  V30 12432 C 1177.53 1.79782 1.42166 0
M  V30 12433 C 1178.53 0.668441 1.46248 0
M  V30 12434 O 1179.72 0.936677 1.46874 0
M  V30 12435 C 1176.85 1.92686 2.8122 0
M  V30 12436 H 1178.05 2.74794 1.20117 0
M  V30 12437 H 1175.6 1.44677 0.591468 0
M  V30 12438 H 1176.33 0.997669 3.08573 0
M  V30 12439 H 1176.12 2.74837 2.79655 0
M  V30 12440 H 1177.61 2.14599 3.58242 0
M  V30 12441 N 1178.05 -0.61812 1.44973 0
M  V30 12442 C 1179.28 -1.40225 1.51725 0
M  V30 12443 C 1179.68 -1.88643 0.145098 0
M  V30 12444 O 1179.03 -1.62237 -0.861677 0
M  V30 12445 C 1179.09 -2.64808 2.4314 0
M  V30 12446 C 1178.75 -2.381 3.90073 0
M  V30 12447 C 1179.75 -1.99116 4.80259 0
M  V30 12448 C 1177.43 -2.51338 4.34896 0
M  V30 12449 C 1179.43 -1.73716 6.13271 0
M  V30 12450 C 1177.12 -2.25552 5.67952 0
M  V30 12451 C 1178.11 -1.86801 6.56958 0
M  V30 12452 O 1177.8 -1.6131 7.8755 0
M  V30 12453 H 1177.53 -0.436024 0.516584 0
M  V30 12454 H 1180.09 -0.761929 1.90745 0
M  V30 12455 H 1178.32 -3.31524 1.9907 0
M  V30 12456 H 1180.01 -3.26835 2.40694 0
M  V30 12457 H 1180.77 -1.88435 4.46897 0
M  V30 12458 H 1176.65 -2.80468 3.65867 0
M  V30 12459 H 1180.2 -1.43395 6.82703 0
M  V30 12460 H 1176.09 -2.35847 6.00872 0
M  V30 12461 H 1176.86 -1.75449 7.99475 0
M  V30 12462 N 1179.52 -1.32087 -0.859693 0
M  V30 12463 C 1180.94 -1.10968 -1.14709 0
M  V30 12464 C 1181.14 0.113139 -2.01182 0
M  V30 12465 O 1180.2 0.799499 -2.39508 0
M  V30 12466 C 1181.51 -2.38657 -1.8293 0
M  V30 12467 C 1183.06 -2.44366 -1.95587 0
M  V30 12468 C 1183.53 -3.71963 -2.67222 0
M  V30 12469 N 1185.02 -3.72916 -2.7475 0
M  V30 12470 C 1185.76 -4.68346 -3.30816 0
M  V30 12471 N 1185.25 -5.74139 -3.87732 0
M  V30 12472 N 1187.05 -4.55851 -3.28872 0
M  V30 12473 H 1179.2 -2.10497 -0.283711 0
M  V30 12474 H 1181.46 -0.929108 -0.188315 0
M  V30 12475 H 1181.17 -3.2803 -1.26844 0
M  V30 12476 H 1181.04 -2.49236 -2.83128 0
M  V30 12477 H 1183.43 -1.55456 -2.50833 0
M  V30 12478 H 1183.51 -2.37744 -0.944001 0
M  V30 12479 H 1183.15 -4.61245 -2.1264 0
M  V30 12480 H 1183.08 -3.75855 -3.68837 0
M  V30 12481 H 1185.57 -2.96447 -2.34367 0
M  V30 12482 H 1185.89 -6.43021 -4.28654 0
M  V30 12483 H 1184.23 -5.779 -3.86078 0
M  V30 12484 H 1187.42 -3.72371 -2.83651 0
M  V30 12485 H 1187.6 -5.30398 -3.72266 0
M  V30 12486 N 1181 1.07532 -1.15215 0
M  V30 12487 C 1181.95 2.14687 -0.847243 0
M  V30 12488 C 1182.92 1.64903 0.199043 0
M  V30 12489 O 1184.1 1.90682 0.0669986 0
M  V30 12490 C 1181.24 3.43414 -0.340673 0
M  V30 12491 C 1180.36 4.06999 -1.44831 0
M  V30 12492 C 1179.49 5.23554 -0.898059 0
M  V30 12493 C 1178.53 5.79097 -1.98276 0
M  V30 12494 N 1177.67 6.86985 -1.44902 0
M  V30 12495 H 1182.51 2.4011 -1.76498 0
M  V30 12496 H 1180.04 1.17823 -0.880689 0
M  V30 12497 H 1182 4.1719 -0.0286956 0
M  V30 12498 H 1180.63 3.18249 0.540144 0
M  V30 12499 H 1179.68 3.30895 -1.87651 0
M  V30 12500 H 1181 4.44289 -2.26735 0
M  V30 12501 H 1180.15 6.04305 -0.538514 0
M  V30 12502 H 1178.89 4.87676 -0.0481752 0
M  V30 12503 H 1177.89 4.96992 -2.35115 0
M  V30 12504 H 1179.12 6.1703 -2.83639 0
M  V30 12505 H 1177.07 6.5305 -0.621468 0
M  V30 12506 H 1176.98 7.23149 -2.20434 0
M  V30 12507 H 1178.25 7.71446 -1.11767 0
M  V30 12508 N 1182.48 0.948665 1.2585 0
M  V30 12509 C 1183.73 0.600236 1.934 0
M  V30 12510 C 1184.06 -0.86185 1.74363 0
M  V30 12511 O 1183.31 -1.63294 1.07858 0
M  V30 12512 C 1183.61 0.89784 3.45939 0
M  V30 12513 C 1183.28 2.345 3.85124 0
M  V30 12514 C 1181.94 2.74058 3.95532 0
M  V30 12515 C 1184.29 3.2851 4.04636 0
M  V30 12516 C 1181.62 4.06707 4.22855 0
M  V30 12517 C 1183.97 4.60764 4.3345 0
M  V30 12518 C 1182.63 5.00127 4.42074 0
M  V30 12519 H 1181.9 0.219642 0.707699 0
M  V30 12520 H 1184.55 1.19658 1.49513 0
M  V30 12521 H 1182.86 0.219037 3.91187 0
M  V30 12522 H 1184.55 0.606916 3.96381 0
M  V30 12523 H 1181.14 2.02819 3.77574 0
M  V30 12524 H 1185.33 2.99141 3.96015 0
M  V30 12525 H 1180.58 4.36856 4.27746 0
M  V30 12526 H 1184.76 5.33594 4.47493 0
M  V30 12527 H 1182.38 6.02939 4.63 0
M  V30 12528 N 1183.96 -1.40369 0.716545 0
M  V30 12529 C 1185.19 -2.05181 0.266143 0
M  V30 12530 C 1185.6 -1.53988 -1.09239 0
M  V30 12531 O 1184.96 -0.696859 -1.68672 0
M  V30 12532 C 1185.01 -3.60713 0.238384 0
M  V30 12533 O 1184.73 -4.10018 1.54328 0
M  V30 12534 C 1186.23 -4.42701 -0.230453 0
M  V30 12535 H 1183.45 -0.66028 0.119463 0
M  V30 12536 H 1186 -1.7976 0.97502 0
M  V30 12537 H 1184.15 -3.85101 -0.421466 0
M  V30 12538 H 1184.56 -5.0422 1.4444 0
M  V30 12539 H 1186.04 -5.51642 -0.198728 0
M  V30 12540 H 1186.52 -4.20354 -1.27276 0
M  V30 12541 H 1187.12 -4.23423 0.399155 0
M  V30 12542 N 1185.44 -0.462799 -1.50652 0
M  V30 12543 C 1186.66 0.0952726 -2.07181 0
M  V30 12544 C 1187.09 1.33479 -1.32533 0
M  V30 12545 O 1186.44 1.77473 -0.370564 0
M  V30 12546 C 1186.49 0.370592 -3.58691 0
M  V30 12547 O 1185.6 1.4526 -3.85971 0
M  V30 12548 H 1184.94 -0.00932702 -0.663934 0
M  V30 12549 H 1187.47 -0.651458 -1.93951 0
M  V30 12550 H 1187.48 0.613551 -4.0336 0
M  V30 12551 H 1186.15 -0.535219 -4.12442 0
M  V30 12552 H 1184.73 1.1976 -3.53146 0
M  V30 12553 N 1186.91 1.56388 -0.195085 0
M  V30 12554 C 1187.88 2.17859 0.712053 0
M  V30 12555 C 1188.88 1.13304 1.141 0
M  V30 12556 O 1190.07 1.38689 1.05409 0
M  V30 12557 C 1187.2 2.78065 1.97213 0
M  V30 12558 H 1188.39 2.9938 0.176529 0
M  V30 12559 H 1185.95 1.56205 0.0545322 0
M  V30 12560 H 1186.68 2.00342 2.55017 0
M  V30 12561 H 1186.47 3.54603 1.67329 0
M  V30 12562 H 1187.96 3.25266 2.619 0
M  V30 12563 N 1188.39 -0.0785156 1.57404 0
M  V30 12564 C 1189.62 -0.795871 1.91522 0
M  V30 12565 C 1190.04 -1.70665 0.790892 0
M  V30 12566 O 1189.4 -1.79474 -0.25666 0
M  V30 12567 C 1189.45 -1.57121 3.24569 0
M  V30 12568 O 1188.55 -2.6814 3.13328 0
M  V30 12569 H 1187.89 -0.217575 0.627341 0
M  V30 12570 H 1190.42 -0.0487724 2.04542 0
M  V30 12571 H 1190.43 -1.9519 3.5828 0
M  V30 12572 H 1189.11 -0.902909 4.05981 0
M  V30 12573 H 1187.69 -2.32978 2.91163 0
M  V30 12574 N 1189.87 -1.5367 -0.349747 0
M  V30 12575 C 1191.15 -1.61238 -1.10732 0
M  V30 12576 C 1191.53 -0.429756 -2.06679 0
M  V30 12577 O 1190.88 0.578564 -2.21054 0
M  V30 12578 C 1191.09 -2.97022 -1.83245 0
M  V30 12579 C 1192.43 -3.52158 -2.37212 0
M  V30 12580 O 1193.46 -2.99156 -1.9335 0
M  V30 12581 O 1192.32 -4.44853 -3.1744 0
M  V30 12582 H 1189.41 -0.65191 -0.508864 0
M  V30 12583 H 1191.96 -1.66015 -0.351738 0
M  V30 12584 H 1190.73 -3.74535 -1.13311 0
M  V30 12585 H 1190.35 -2.95808 -2.65675 0
M  V30 12586 N 1191.35 0.610423 -1.45298 0
M  V30 12587 C 1192.59 1.37154 -1.49388 0
M  V30 12588 C 1192.93 1.93737 -0.134025 0
M  V30 12589 O 1192.2 1.74888 0.851138 0
M  V30 12590 C 1192.49 2.52155 -2.5708 0
M  V30 12591 C 1192.34 2.00786 -4.02498 0
M  V30 12592 C 1193.66 3.54294 -2.61082 0
M  V30 12593 H 1190.78 0.497346 -0.54389 0
M  V30 12594 H 1193.42 0.688358 -1.77092 0
M  V30 12595 H 1191.57 3.10434 -2.33587 0
M  V30 12596 H 1193.24 1.47178 -4.37191 0
M  V30 12597 H 1191.48 1.31809 -4.1329 0
M  V30 12598 H 1192.15 2.83674 -4.73533 0
M  V30 12599 H 1194.63 3.05851 -2.82125 0
M  V30 12600 H 1193.51 4.32254 -3.38301 0
M  V30 12601 H 1193.77 4.09726 -1.66063 0
M  V30 12602 N 1192.83 1.32541 0.852676 0
M  V30 12603 C 1194.07 1.24406 1.60918 0
M  V30 12604 C 1194.43 -0.19184 1.91441 0
M  V30 12605 O 1193.72 -1.13016 1.54719 0
M  V30 12606 C 1193.91 2.039 2.9353 0
M  V30 12607 C 1193.74 3.55074 2.75957 0
M  V30 12608 C 1192.51 4.24409 2.74236 0
M  V30 12609 C 1194.71 4.49686 2.49574 0
M  V30 12610 N 1192.69 5.61624 2.47895 0
M  V30 12611 C 1194.06 5.74692 2.32658 0
M  V30 12612 C 1196.12 4.38921 2.35058 0
M  V30 12613 C 1194.82 6.90149 2.027 0
M  V30 12614 C 1196.85 5.5418 2.06491 0
M  V30 12615 C 1196.21 6.78186 1.90377 0
M  V30 12616 H 1192.31 0.510401 0.592465 0
M  V30 12617 H 1194.89 1.66929 1.00214 0
M  V30 12618 H 1193.06 1.6372 3.52208 0
M  V30 12619 H 1194.8 1.87644 3.58569 0
M  V30 12620 H 1191.55 3.76546 2.87246 0
M  V30 12621 H 1191.98 6.33918 2.37648 0
M  V30 12622 H 1196.62 3.43697 2.46236 0
M  V30 12623 H 1194.34 7.85383 1.90259 0
M  V30 12624 H 1197.92 5.47779 1.96035 0
M  V30 12625 H 1196.8 7.65864 1.68587 0
M  V30 12626 N 1194.3 -1.0692 1.15784 0
M  V30 12627 C 1195.53 -1.83849 0.959903 0
M  V30 12628 C 1195.95 -1.8169 -0.486873 0
M  V30 12629 O 1195.31 -1.21305 -1.34739 0
M  V30 12630 C 1195.36 -3.28642 1.48414 0
M  V30 12631 O 1194.46 -4.0665 0.686249 0
M  V30 12632 H 1193.81 -0.569115 0.342059 0
M  V30 12633 H 1196.34 -1.34851 1.53871 0
M  V30 12634 H 1196.35 -3.7947 1.49888 0
M  V30 12635 H 1195.02 -3.29529 2.53739 0
M  V30 12636 H 1193.6 -3.65453 0.741501 0
M  V30 12637 N 1195.78 -0.955326 -1.25345 0
M  V30 12638 C 1197.01 -0.626783 -1.96863 0
M  V30 12639 C 1197.42 0.80547 -1.71198 0
M  V30 12640 O 1196.76 1.55049 -0.985163 0
M  V30 12641 C 1196.83 -0.806404 -3.50339 0
M  V30 12642 C 1196.49 -2.21595 -3.99681 0
M  V30 12643 C 1197.49 -3.19268 -4.10322 0
M  V30 12644 C 1195.17 -2.54032 -4.33328 0
M  V30 12645 C 1197.17 -4.47471 -4.53926 0
M  V30 12646 C 1194.85 -3.82465 -4.76617 0
M  V30 12647 C 1195.85 -4.78997 -4.86879 0
M  V30 12648 O 1195.54 -6.0514 -5.29208 0
M  V30 12649 H 1195.27 -0.233854 -0.634262 0
M  V30 12650 H 1197.82 -1.28232 -1.60455 0
M  V30 12651 H 1196.05 -0.0937184 -3.86586 0
M  V30 12652 H 1197.74 -0.47881 -4.03066 0
M  V30 12653 H 1198.51 -2.95534 -3.84558 0
M  V30 12654 H 1194.39 -1.79623 -4.24566 0
M  V30 12655 H 1197.93 -5.22819 -4.6185 0
M  V30 12656 H 1193.83 -4.06005 -5.01827 0
M  V30 12657 H 1194.6 -6.08527 -5.47392 0
M  V30 12658 N 1197.26 1.39987 -0.723979 0
M  V30 12659 C 1198.51 2.00334 -0.266587 0
M  V30 12660 C 1198.83 1.57714 1.14679 0
M  V30 12661 O 1198.1 0.82037 1.77895 0
M  V30 12662 H 1196.68 0.740861 -0.095573 0
M  V30 12663 H 1199.34 1.712 -0.931481 0
M  V30 12664 H 1198.44 3.10594 -0.306282 0
M  V30 12665 N 1198.74 0.470782 1.50404 0
M  V30 12666 C 1199.99 -0.0859981 2.01517 0
M  V30 12667 C 1200.3 -1.40811 1.35763 0
M  V30 12668 O 1201.51 -2.04982 1.7803 0
M  V30 12669 C 1199.96 -0.203773 3.59323 0
M  V30 12670 C 1199.57 1.10989 4.34034 0
M  V30 12671 C 1201.32 -0.712528 4.18477 0
M  V30 12672 C 1199.22 0.955928 5.83623 0
M  V30 12673 H 1198.15 -0.0359142 0.753144 0
M  V30 12674 H 1200.8 0.605631 1.73218 0
M  V30 12675 H 1199.19 -0.959177 3.84208 0
M  V30 12676 H 1200.36 1.87623 4.20873 0
M  V30 12677 H 1198.67 1.54973 3.86487 0
M  V30 12678 H 1201.27 -0.844745 5.27985 0
M  V30 12679 H 1201.61 -1.70377 3.79838 0
M  V30 12680 H 1202.15 -0.0145179 3.97797 0
M  V30 12681 H 1198.89 1.92054 6.26734 0
M  V30 12682 H 1198.41 0.22997 5.99359 0
M  V30 12683 H 1200.09 0.622423 6.43999 0
M  V30 12684 N 1200.22 -1.56282 0.203376 0
M  V30 12685 C 1201.46 -1.98105 -0.433844 0
M  V30 12686 C 1201.8 -1.09044 -1.60695 0
M  V30 12687 O 1201.07 -0.144193 -1.93965 0
M  V30 12688 C 1201.35 -3.4903 -0.885992 0
M  V30 12689 C 1201.21 -4.48867 0.289501 0
M  V30 12690 C 1202.53 -4.03871 -1.7486 0
M  V30 12691 H 1199.65 -0.720252 -0.156224 0
M  V30 12692 H 1202.29 -1.87681 0.295963 0
M  V30 12693 H 1200.44 -3.58045 -1.50785 0
M  V30 12694 H 1202.11 -4.51883 0.92734 0
M  V30 12695 H 1200.35 -4.23495 0.939934 0
M  V30 12696 H 1201.02 -5.51956 -0.0695128 0
M  V30 12697 H 1203.5 -3.97688 -1.22407 0
M  V30 12698 H 1202.38 -5.09827 -2.03391 0
M  V30 12699 H 1202.64 -3.49637 -2.70567 0
M  V30 12700 N 1201.7 0.070167 -1.57444 0
M  V30 12701 C 1202.63 1.08351 -2.06839 0
M  V30 12702 C 1203.61 1.40269 -0.962224 0
M  V30 12703 O 1204.79 1.49867 -1.23505 0
M  V30 12704 C 1201.92 2.39649 -2.51368 0
M  V30 12705 C 1200.88 2.22079 -3.65875 0
M  V30 12706 C 1200.2 3.58776 -3.96464 0
M  V30 12707 C 1201.5 1.64069 -4.95862 0
M  V30 12708 H 1203.2 0.672465 -2.9175 0
M  V30 12709 H 1200.74 0.322027 -1.40353 0
M  V30 12710 H 1202.69 3.10833 -2.84537 0
M  V30 12711 H 1201.42 2.82736 -1.63487 0
M  V30 12712 H 1200.08 1.53337 -3.32992 0
M  V30 12713 H 1199.73 3.99436 -3.05712 0
M  V30 12714 H 1199.43 3.47859 -4.7357 0
M  V30 12715 H 1200.95 4.31387 -4.32131 0
M  V30 12716 H 1202.36 2.2512 -5.27251 0
M  V30 12717 H 1200.76 1.63843 -5.773 0
M  V30 12718 H 1201.83 0.60232 -4.81145 0
M  V30 12719 N 1203.17 1.53854 0.341593 0
M  V30 12720 C 1204.42 1.72388 1.07954 0
M  V30 12721 C 1204.77 0.482184 1.8626 0
M  V30 12722 O 1204.07 -0.525232 1.8426 0
M  V30 12723 C 1204.26 2.92844 2.04884 0
M  V30 12724 C 1204.09 4.28609 1.36105 0
M  V30 12725 C 1202.86 4.93068 1.10508 0
M  V30 12726 C 1205.06 5.08254 0.786255 0
M  V30 12727 N 1203.04 6.12702 0.383319 0
M  V30 12728 C 1204.41 6.19693 0.195147 0
M  V30 12729 C 1206.47 4.93134 0.687293 0
M  V30 12730 C 1205.17 7.17661 -0.485298 0
M  V30 12731 C 1207.2 5.91396 0.0205841 0
M  V30 12732 C 1206.56 7.02174 -0.559545 0
M  V30 12733 H 1202.66 0.683826 0.37935 0
M  V30 12734 H 1205.24 1.91288 0.36289 0
M  V30 12735 H 1203.41 2.7544 2.73838 0
M  V30 12736 H 1205.14 3.00088 2.71531 0
M  V30 12737 H 1201.9 4.52659 1.39271 0
M  V30 12738 H 1202.32 6.7699 0.0371033 0
M  V30 12739 H 1206.96 4.07653 1.12155 0
M  V30 12740 H 1204.68 8.02714 -0.931438 0
M  V30 12741 H 1208.27 5.81774 -0.0553832 0
M  V30 12742 H 1207.15 7.76904 -1.06726 0
M  V30 12743 N 1204.65 -0.602709 1.4562 0
M  V30 12744 C 1205.56 -1.74132 1.5721 0
M  V30 12745 C 1206.58 -1.67909 0.456347 0
M  V30 12746 O 1207.75 -1.88178 0.717714 0
M  V30 12747 C 1204.82 -3.10604 1.54032 0
M  V30 12748 C 1203.88 -3.28244 2.76685 0
M  V30 12749 C 1203.11 -4.58205 2.73649 0
M  V30 12750 O 1203.34 -5.40836 1.81254 0
M  V30 12751 O 1202.27 -4.78663 3.64919 0
M  V30 12752 H 1206.1 -1.67304 2.53462 0
M  V30 12753 H 1203.68 -0.767381 1.28186 0
M  V30 12754 H 1205.56 -3.91904 1.54885 0
M  V30 12755 H 1204.24 -3.17913 0.60934 0
M  V30 12756 H 1203.14 -2.46514 2.81393 0
M  V30 12757 H 1204.48 -3.25814 3.68925 0
M  V30 12758 N 1206.13 -1.32992 -0.845635 0
M  V30 12759 C 1207.38 -1.24249 -1.60281 0
M  V30 12760 C 1207.71 0.193049 -1.93238 0
M  V30 12761 O 1206.98 1.1326 -1.58122 0
M  V30 12762 C 1207.27 -2.1111 -2.91727 0
M  V30 12763 C 1207.12 -3.63088 -2.65494 0
M  V30 12764 C 1208.44 -1.97913 -3.93089 0
M  V30 12765 H 1205.56 -0.452698 -0.581578 0
M  V30 12766 H 1208.2 -1.63026 -0.975828 0
M  V30 12767 H 1206.35 -1.78169 -3.45236 0
M  V30 12768 H 1208.02 -4.06287 -2.18469 0
M  V30 12769 H 1206.26 -3.85304 -1.99306 0
M  V30 12770 H 1206.94 -4.19202 -3.59129 0
M  V30 12771 H 1209.41 -2.26788 -3.48864 0
M  V30 12772 H 1208.29 -2.60952 -4.82903 0
M  V30 12773 H 1208.55 -0.949378 -4.31786 0
M  V30 12774 N 1207.61 1.06304 -1.1635 0
M  V30 12775 C 1208.54 2.13209 -0.81346 0
M  V30 12776 C 1209.52 1.61174 0.21484 0
M  V30 12777 O 1210.7 1.8824 0.0989458 0
M  V30 12778 C 1207.83 3.38039 -0.211498 0
M  V30 12779 C 1206.88 4.08875 -1.21339 0
M  V30 12780 S 1207.71 4.58894 -2.76001 0
M  V30 12781 C 1208.86 5.86985 -2.17254 0
M  V30 12782 H 1209.1 2.42572 -1.7189 0
M  V30 12783 H 1206.63 1.18737 -0.986957 0
M  V30 12784 H 1208.59 4.10296 0.129349 0
M  V30 12785 H 1207.25 3.06834 0.671705 0
M  V30 12786 H 1206.44 4.98528 -0.740631 0
M  V30 12787 H 1206.04 3.42632 -1.49932 0
M  V30 12788 H 1208.34 6.59738 -1.54115 0
M  V30 12789 H 1209.28 6.38991 -3.05117 0
M  V30 12790 H 1209.69 5.41012 -1.61141 0
M  V30 12791 N 1209.09 0.96196 1.24836 0
M  V30 12792 C 1210.31 0.637709 1.97353 0
M  V30 12793 C 1210.74 -0.784919 1.7094 0
M  V30 12794 O 1210.09 -1.53188 0.969694 0
M  V30 12795 C 1210.14 0.911485 3.4889 0
M  V30 12796 O 1209.25 -0.00601668 4.124 0
M  V30 12797 H 1208.59 0.241685 0.618453 0
M  V30 12798 H 1211.12 1.29055 1.58764 0
M  V30 12799 H 1211.13 0.840702 3.99245 0
M  V30 12800 H 1209.8 1.9483 3.67442 0
M  V30 12801 H 1208.38 0.117597 3.72715 0
M  V30 12802 N 1210.56 -1.39601 0.731392 0
M  V30 12803 C 1211.79 -2.0459 0.287472 0
M  V30 12804 C 1212.2 -1.5525 -1.08139 0
M  V30 12805 O 1211.54 -0.710949 -1.69385 0
M  V30 12806 C 1211.61 -3.58904 0.206948 0
M  V30 12807 C 1211.27 -4.31204 1.51368 0
M  V30 12808 C 1212.27 -4.58088 2.45869 0
M  V30 12809 C 1209.95 -4.69818 1.77698 0
M  V30 12810 C 1211.95 -5.22591 3.64935 0
M  V30 12811 C 1209.63 -5.34049 2.97043 0
M  V30 12812 C 1210.63 -5.60368 3.90483 0
M  V30 12813 O 1210.32 -6.23268 5.07732 0
M  V30 12814 H 1210.05 -0.664515 0.12408 0
M  V30 12815 H 1212.61 -1.79701 0.994814 0
M  V30 12816 H 1210.84 -3.82675 -0.556466 0
M  V30 12817 H 1212.52 -4.05385 -0.204498 0
M  V30 12818 H 1213.29 -4.28706 2.26796 0
M  V30 12819 H 1209.17 -4.48692 1.05815 0
M  V30 12820 H 1212.71 -5.43049 4.37885 0
M  V30 12821 H 1208.61 -5.62852 3.16018 0
M  V30 12822 H 1209.38 -6.41763 5.08019 0
M  V30 12823 N 1212.04 -0.478751 -1.50152 0
M  V30 12824 C 1213.29 0.0734397 -2.01967 0
M  V30 12825 C 1213.61 1.39523 -1.36229 0
M  V30 12826 O 1212.88 1.89141 -0.510149 0
M  V30 12827 H 1211.46 0.0301305 -0.746392 0
M  V30 12828 H 1214.12 -0.630921 -1.84406 0
M  V30 12829 H 1213.22 0.21937 -3.11328 0
M  V30 12830 N 1213.52 1.56172 -0.211661 0
M  V30 12831 C 1214.43 2.23468 0.714081 0
M  V30 12832 C 1215.45 1.23908 1.22159 0
M  V30 12833 O 1216.62 1.56693 1.26528 0
M  V30 12834 C 1213.69 2.89375 1.90953 0
M  V30 12835 C 1212.75 4.04251 1.44497 0
M  V30 12836 C 1211.98 4.67006 2.58343 0
M  V30 12837 O 1212.2 4.28721 3.76237 0
M  V30 12838 O 1211.14 5.56177 2.3011 0
M  V30 12839 H 1214.96 3.03219 0.170862 0
M  V30 12840 H 1212.55 1.49389 0.0183607 0
M  V30 12841 H 1214.43 3.3101 2.60787 0
M  V30 12842 H 1213.11 2.12591 2.44104 0
M  V30 12843 H 1212.01 3.67205 0.714932 0
M  V30 12844 H 1213.35 4.82748 0.959947 0
M  V30 12845 N 1215 -0.0618163 1.57479 0
M  V30 12846 C 1216.41 -0.416827 1.54061 0
M  V30 12847 C 1216.61 -1.78584 0.933277 0
M  V30 12848 O 1215.67 -2.46656 0.54009 0
M  V30 12849 C 1216.98 -0.348728 2.98671 0
M  V30 12850 C 1218.53 -0.428194 3.10057 0
M  V30 12851 C 1219.01 -0.389898 4.56337 0
M  V30 12852 N 1220.5 -0.449677 4.61012 0
M  V30 12853 C 1221.23 -0.442418 5.71691 0
M  V30 12854 N 1220.73 -0.389381 6.91705 0
M  V30 12855 N 1222.52 -0.489719 5.59963 0
M  V30 12856 H 1214.67 0.834487 1.9532 0
M  V30 12857 H 1216.94 0.314149 0.894435 0
M  V30 12858 H 1216.64 0.590738 3.46703 0
M  V30 12859 H 1216.52 -1.15511 3.59078 0
M  V30 12860 H 1218.9 -1.35808 2.61992 0
M  V30 12861 H 1218.98 0.406946 2.52542 0
M  V30 12862 H 1218.63 0.536186 5.05062 0
M  V30 12863 H 1218.56 -1.24271 5.11727 0
M  V30 12864 H 1221.05 -0.49451 3.74651 0
M  V30 12865 H 1221.36 -0.388042 7.71825 0
M  V30 12866 H 1219.71 -0.355918 6.94088 0
M  V30 12867 H 1222.9 -0.528915 4.65102 0
M  V30 12868 H 1223.07 -0.480592 6.46215 0
M  V30 12869 N 1216.48 -1.54033 -0.333429 0
M  V30 12870 C 1217.89 -1.63107 -0.908455 0
M  V30 12871 C 1218.24 -0.518823 -1.89216 0
M  V30 12872 O 1217.36 0.34985 -2.13553 0
M  V30 12873 C 1217.96 -2.95657 -1.65447 0
M  V30 12874 C 1216.52 -3.0696 -2.17836 0
M  V30 12875 C 1215.66 -2.58617 -1.00063 0
M  V30 12876 H 1218.62 -1.58309 -0.11128 0
M  V30 12877 H 1218.64 -2.85263 -2.51804 0
M  V30 12878 H 1218.15 -3.76588 -0.938263 0
M  V30 12879 H 1216.25 -2.30683 -2.92602 0
M  V30 12880 H 1216.36 -4.12599 -2.43513 0
M  V30 12881 H 1214.73 -2.1427 -1.37697 0
M  V30 12882 H 1215.51 -3.41996 -0.298901 0
M  V30 12883 N 1217.95 0.594978 -1.45938 0
M  V30 12884 C 1219.18 1.37794 -1.53936 0
M  V30 12885 C 1219.59 1.88388 -0.175091 0
M  V30 12886 O 1218.94 1.63587 0.835757 0
M  V30 12887 C 1219 2.60906 -2.47322 0
M  V30 12888 C 1218.66 2.31865 -3.93812 0
M  V30 12889 C 1219.66 1.91451 -4.83366 0
M  V30 12890 C 1217.34 2.44387 -4.3884 0
M  V30 12891 C 1219.34 1.63938 -6.15957 0
M  V30 12892 C 1217.02 2.16487 -5.71469 0
M  V30 12893 C 1218.02 1.76326 -6.59847 0
M  V30 12894 O 1217.71 1.4876 -7.90016 0
M  V30 12895 H 1217.44 0.42775 -0.523456 0
M  V30 12896 H 1220 0.731487 -1.91933 0
M  V30 12897 H 1218.23 3.28315 -2.04319 0
M  V30 12898 H 1219.92 3.22964 -2.45863 0
M  V30 12899 H 1220.68 1.81301 -4.49839 0
M  V30 12900 H 1216.56 2.74612 -3.70283 0
M  V30 12901 H 1220.1 1.32516 -6.84898 0
M  V30 12902 H 1216 2.26257 -6.04548 0
M  V30 12903 H 1216.77 1.62708 -8.02165 0
M  V30 12904 N 1219.43 1.33438 0.838571 0
M  V30 12905 C 1220.68 1.26106 1.59589 0
M  V30 12906 C 1221.03 -0.171524 1.91634 0
M  V30 12907 O 1220.33 -1.11368 1.55909 0
M  V30 12908 C 1220.52 2.07002 2.9135 0
M  V30 12909 C 1220.35 3.57981 2.72175 0
M  V30 12910 C 1219.12 4.27293 2.69719 0
M  V30 12911 C 1221.32 4.52308 2.4479 0
M  V30 12912 N 1219.3 5.64221 2.41925 0
M  V30 12913 C 1220.67 5.77127 2.26549 0
M  V30 12914 C 1222.73 4.4139 2.3039 0
M  V30 12915 C 1221.43 6.9226 1.95368 0
M  V30 12916 C 1223.45 5.56339 2.00602 0
M  V30 12917 C 1222.82 6.80167 1.83173 0
M  V30 12918 H 1218.92 0.516656 0.587018 0
M  V30 12919 H 1221.5 1.67982 0.984382 0
M  V30 12920 H 1219.67 1.67446 3.50452 0
M  V30 12921 H 1221.4 1.91437 3.56558 0
M  V30 12922 H 1218.16 3.79571 2.83236 0
M  V30 12923 H 1218.58 6.36403 2.30911 0
M  V30 12924 H 1223.22 3.46289 2.42577 0
M  V30 12925 H 1220.94 7.87357 1.81918 0
M  V30 12926 H 1224.53 5.49827 1.90214 0
M  V30 12927 H 1223.41 7.67609 1.60455 0
M  V30 12928 N 1220.91 -1.05686 1.16912 0
M  V30 12929 C 1221.82 -2.16824 0.8958 0
M  V30 12930 C 1222.84 -1.73482 -0.134215 0
M  V30 12931 O 1224.01 -2.01352 0.0438776 0
M  V30 12932 C 1221.08 -3.44298 0.407427 0
M  V30 12933 C 1220.14 -4.02114 1.50342 0
M  V30 12934 C 1219.37 -5.23503 1.03826 0
M  V30 12935 O 1219.59 -5.70295 -0.109579 0
M  V30 12936 O 1218.53 -5.73432 1.8292 0
M  V30 12937 H 1222.35 -2.42725 1.82533 0
M  V30 12938 H 1219.94 -1.15339 0.949589 0
M  V30 12939 H 1221.82 -4.21159 0.142356 0
M  V30 12940 H 1220.5 -3.19908 -0.494009 0
M  V30 12941 H 1219.4 -3.26715 1.82231 0
M  V30 12942 H 1220.74 -4.30811 2.38039 0
M  V30 12943 N 1222.39 -0.968567 -1.24324 0
M  V30 12944 C 1223.32 -0.444065 -2.23838 0
M  V30 12945 C 1224.3 0.482311 -1.55282 0
M  V30 12946 O 1225.48 0.413489 -1.83909 0
M  V30 12947 C 1222.61 0.358874 -3.36793 0
M  V30 12948 C 1221.66 -0.509913 -4.23441 0
M  V30 12949 S 1222.49 -1.95064 -4.98708 0
M  V30 12950 C 1223.65 -1.15652 -6.15122 0
M  V30 12951 H 1223.88 -1.28738 -2.67981 0
M  V30 12952 H 1221.41 -0.773665 -1.33618 0
M  V30 12953 H 1223.37 0.816164 -4.02305 0
M  V30 12954 H 1222.03 1.17717 -2.91207 0
M  V30 12955 H 1221.22 0.106617 -5.03887 0
M  V30 12956 H 1220.83 -0.902967 -3.62936 0
M  V30 12957 H 1223.12 -0.411966 -6.76246 0
M  V30 12958 H 1224.06 -1.93539 -6.81137 0
M  V30 12959 H 1224.47 -0.680507 -5.60383 0
M  V30 12960 N 1223.87 1.39211 -0.738786 0
M  V30 12961 C 1225.09 2.05256 -0.297421 0
M  V30 12962 C 1225.52 1.55341 1.06069 0
M  V30 12963 O 1224.87 0.698823 1.67291 0
M  V30 12964 C 1224.92 3.59239 -0.312969 0
M  V30 12965 O 1224.03 4.06448 0.698112 0
M  V30 12966 H 1223.37 0.650245 -0.134454 0
M  V30 12967 H 1225.9 1.78173 -1.00577 0
M  V30 12968 H 1225.91 4.07691 -0.158675 0
M  V30 12969 H 1224.58 3.94931 -1.30394 0
M  V30 12970 H 1223.16 3.69401 0.509643 0
M  V30 12971 N 1225.34 0.486708 1.49896 0
M  V30 12972 C 1226.29 -0.313156 2.30482 0
M  V30 12973 C 1227.29 -0.976043 1.38455 0
M  V30 12974 O 1228.49 -0.905364 1.55574 0
M  V30 12975 H 1224.87 -0.119839 0.74239 0
M  V30 12976 H 1226.84 0.386701 2.95884 0
M  V30 12977 C 1225.59 -1.37334 3.19429 0
M  V30 12978 H 1224.91 -0.87265 3.9016 0
M  V30 12979 H 1226.35 -1.90526 3.78782 0
M  V30 12980 C 1224.81 -2.38378 2.38071 0
M  V30 12981 O 1225.34 -3.43972 2.07476 0
M  V30 12982 N 1223.55 -2.10486 2.00359 0
M  V30 12983 H 1223.09 -1.24638 2.2544 0
M  V30 12984 H 1223.05 -2.78324 1.46229 0
M  V30 12985 N 1226.82 -1.56058 0.219941 0
M  V30 12986 C 1227.76 -2.17494 -0.723133 0
M  V30 12987 C 1228.77 -1.14356 -1.15873 0
M  V30 12988 O 1229.96 -1.41343 -1.09016 0
M  V30 12989 C 1227.06 -2.74242 -1.99109 0
M  V30 12990 C 1226.23 -4.02533 -1.71132 0
M  V30 12991 C 1225.29 -4.43862 -2.82618 0
M  V30 12992 O 1224.32 -5.10792 -2.51157 0
M  V30 12993 N 1225.52 -4.09412 -4.11537 0
M  V30 12994 H 1228.28 -2.99048 -0.197619 0
M  V30 12995 H 1225.84 -1.61853 0.0388738 0
M  V30 12996 H 1227.84 -2.98862 -2.7288 0
M  V30 12997 H 1226.41 -1.97 -2.42713 0
M  V30 12998 H 1225.63 -3.85786 -0.810128 0
M  V30 12999 H 1226.91 -4.86227 -1.49868 0
M  V30 13000 H 1226.31 -3.55624 -4.39941 0
M  V30 13001 H 1224.87 -4.38928 -4.81857 0
M  V30 13002 N 1228.3 0.053464 -1.57509 0
M  V30 13003 C 1229.58 0.783141 -1.79238 0
M  V30 13004 C 1229.96 1.94855 -0.812069 0
M  V30 13005 O 1229.31 2.28 0.151006 0
M  V30 13006 C 1229.52 1.239 -3.26266 0
M  V30 13007 C 1230.86 1.66492 -3.90596 0
M  V30 13008 O 1231.89 1.33421 -3.30269 0
M  V30 13009 O 1230.75 2.27785 -4.96766 0
M  V30 13010 H 1227.84 0.376696 -0.736226 0
M  V30 13011 H 1230.39 0.0321229 -1.6967 0
M  V30 13012 H 1229.16 0.405948 -3.89189 0
M  V30 13013 H 1228.78 2.05078 -3.4063 0
M  V30 13014 N 1229.78 1.54207 0.325255 0
M  V30 13015 C 1231.03 1.72587 1.06497 0
M  V30 13016 C 1231.36 0.497228 1.87727 0
M  V30 13017 O 1230.63 -0.505804 1.87808 0
M  V30 13018 C 1230.92 3.00046 1.99109 0
M  V30 13019 C 1230.77 4.33158 1.21221 0
M  V30 13020 C 1232.09 3.23251 2.98658 0
M  V30 13021 H 1229.21 0.627974 0.38577 0
M  V30 13022 H 1231.85 1.869 0.34179 0
M  V30 13023 H 1230 2.87973 2.60775 0
M  V30 13024 H 1231.67 4.57111 0.620289 0
M  V30 13025 H 1229.91 4.30739 0.514462 0
M  V30 13026 H 1230.59 5.18558 1.89214 0
M  V30 13027 H 1233.06 3.34774 2.47114 0
M  V30 13028 H 1231.94 4.13796 3.60645 0
M  V30 13029 H 1232.2 2.40401 3.71026 0
M  V30 13030 N 1231.26 -0.58723 1.46251 0
M  V30 13031 C 1232.51 -1.34179 1.50595 0
M  V30 13032 C 1232.82 -1.94943 0.160171 0
M  V30 13033 O 1234.03 -2.71378 0.0813797 0
M  V30 13034 C 1232.48 -2.43159 2.65333 0
M  V30 13035 C 1232.09 -1.88718 4.06312 0
M  V30 13036 C 1233.83 -3.19986 2.78943 0
M  V30 13037 C 1231.74 -2.953 5.12398 0
M  V30 13038 H 1230.67 -0.504401 0.560442 0
M  V30 13039 H 1233.32 -0.627179 1.72449 0
M  V30 13040 H 1231.7 -3.17398 2.368 0
M  V30 13041 H 1232.88 -1.21051 4.44616 0
M  V30 13042 H 1231.19 -1.24572 3.97329 0
M  V30 13043 H 1233.79 -3.9952 3.5537 0
M  V30 13044 H 1234.13 -3.72288 1.86298 0
M  V30 13045 H 1234.67 -2.52852 3.07101 0
M  V30 13046 H 1231.4 -2.4789 6.0682 0
M  V30 13047 H 1230.92 -3.61469 4.78644 0
M  V30 13048 H 1232.6 -3.5933 5.38044 0
M  V30 13049 N 1232.74 -1.33881 -0.831482 0
M  V30 13050 C 1233.68 -1.24748 -1.94182 0
M  V30 13051 C 1234.65 -0.124516 -1.65633 0
M  V30 13052 O 1235.84 -0.304045 -1.88362 0
M  V30 13053 C 1232.98 -1.00016 -3.30289 0
M  V30 13054 C 1232.09 -2.21007 -3.71187 0
M  V30 13055 C 1231.23 -1.89629 -4.962 0
M  V30 13056 C 1230.26 -3.06811 -5.29654 0
M  V30 13057 N 1229.4 -2.75372 -6.45844 0
M  V30 13058 H 1234.24 -2.19709 -2.01325 0
M  V30 13059 H 1231.78 -1.09245 -0.985081 0
M  V30 13060 H 1233.74 -0.837167 -4.08714 0
M  V30 13061 H 1232.37 -0.0872582 -3.22682 0
M  V30 13062 H 1231.42 -2.48256 -2.88224 0
M  V30 13063 H 1232.73 -3.08587 -3.91887 0
M  V30 13064 H 1231.88 -1.70016 -5.82391 0
M  V30 13065 H 1230.62 -0.992964 -4.77485 0
M  V30 13066 H 1229.63 -3.27029 -4.41964 0
M  V30 13067 H 1230.85 -3.97909 -5.50314 0
M  V30 13068 H 1228.8 -1.87607 -6.28601 0
M  V30 13069 H 1228.72 -3.56483 -6.66675 0
M  V30 13070 H 1229.98 -2.59244 -7.35128 0
M  V30 13071 N 1234.21 1.05064 -1.1747 0
M  V30 13072 C 1235.18 2.1101 -0.89485 0
M  V30 13073 C 1236.18 1.60384 0.11553 0
M  V30 13074 O 1237.37 1.73808 -0.116785 0
M  V30 13075 C 1234.5 3.39194 -0.340642 0
M  V30 13076 H 1235.69 2.37269 -1.83421 0
M  V30 13077 H 1233.24 1.21329 -0.985343 0
M  V30 13078 H 1233.98 3.18591 0.605808 0
M  V30 13079 H 1233.76 3.77251 -1.06885 0
M  V30 13080 H 1235.25 4.17281 -0.163204 0
M  V30 13081 N 1235.69 0.975146 1.23809 0
M  V30 13082 C 1236.94 0.642074 1.92367 0
M  V30 13083 C 1237.27 -0.82164 1.75962 0
M  V30 13084 O 1236.55 -1.59205 1.11732 0
M  V30 13085 C 1236.83 1.02677 3.45151 0
M  V30 13086 C 1236.68 2.54773 3.7069 0
M  V30 13087 C 1238 0.5668 4.36435 0
M  V30 13088 H 1235.12 0.234735 0.698619 0
M  V30 13089 H 1237.76 1.21549 1.46034 0
M  V30 13090 H 1235.91 0.538846 3.84745 0
M  V30 13091 H 1237.58 3.11099 3.4061 0
M  V30 13092 H 1235.83 2.97641 3.15583 0
M  V30 13093 H 1236.5 2.7674 4.77618 0
M  V30 13094 H 1238.97 0.985635 4.04258 0
M  V30 13095 H 1237.85 0.864458 5.4205 0
M  V30 13096 H 1238.11 -0.532989 4.38875 0
M  V30 13097 N 1237.17 -1.38817 0.746158 0
M  V30 13098 C 1238.45 -1.94303 0.224841 0
M  V30 13099 C 1238.83 -1.68207 -1.27552 0
M  V30 13100 O 1238.17 -1.01647 -2.04646 0
M  V30 13101 C 1238.38 -3.44306 0.5705 0
M  V30 13102 C 1239.73 -4.21329 0.526015 0
M  V30 13103 O 1240.76 -3.52554 0.508351 0
M  V30 13104 O 1239.62 -5.4392 0.530383 0
M  V30 13105 H 1236.71 -0.825785 0.0448047 0
M  V30 13106 H 1239.26 -1.48253 0.825775 0
M  V30 13107 H 1238.03 -3.56779 1.60701 0
M  V30 13108 H 1237.65 -3.97556 -0.0588271 0
M  V30 13109 N 1238.65 -0.49465 -1.49636 0
M  V30 13110 C 1239.56 0.291881 -2.32777 0
M  V30 13111 C 1240.57 0.973468 -1.44221 0
M  V30 13112 O 1241.75 0.956252 -1.77251 0
M  V30 13113 C 1238.81 1.34609 -3.19502 0
M  V30 13114 C 1237.88 0.678611 -4.23903 0
M  V30 13115 C 1237.11 1.68259 -5.06483 0
M  V30 13116 O 1237.33 2.91176 -4.90482 0
M  V30 13117 O 1236.27 1.24141 -5.88959 0
M  V30 13118 H 1240.09 -0.388459 -3.01205 0
M  V30 13119 H 1237.68 -0.256086 -1.47189 0
M  V30 13120 H 1239.56 1.95617 -3.73245 0
M  V30 13121 H 1238.23 2.00947 -2.53775 0
M  V30 13122 H 1237.14 0.0289541 -3.74089 0
M  V30 13123 H 1238.47 0.0577817 -4.92166 0
M  V30 13124 N 1240.13 1.55939 -0.228214 0
M  V30 13125 C 1241.37 1.98084 0.400884 0
M  V30 13126 C 1241.69 1.11727 1.59819 0
M  V30 13127 O 1240.96 0.195794 1.94919 0
M  V30 13128 H 1239.54 0.731558 0.151102 0
M  V30 13129 H 1242.21 1.92211 -0.322659 0
M  V30 13130 H 1241.3 3.03617 0.722706 0
M  V30 13131 N 1241.6 -0.0451101 1.57535 0
M  V30 13132 C 1242.83 -0.750231 1.92497 0
M  V30 13133 C 1243.24 -1.70268 0.824946 0
M  V30 13134 O 1242.59 -1.82511 -0.208656 0
M  V30 13135 C 1242.65 -1.57543 3.23141 0
M  V30 13136 C 1242.31 -0.789495 4.50129 0
M  V30 13137 C 1243.31 -0.0968367 5.1981 0
M  V30 13138 C 1240.99 -0.748776 4.96688 0
M  V30 13139 C 1242.99 0.626018 6.34318 0
M  V30 13140 C 1240.67 -0.0221652 6.11096 0
M  V30 13141 C 1241.67 0.664006 6.79765 0
M  V30 13142 O 1241.36 1.37885 7.91987 0
M  V30 13143 H 1241.09 -0.216895 0.64026 0
M  V30 13144 H 1243.65 -0.011558 2.05397 0
M  V30 13145 H 1241.88 -2.35754 3.06524 0
M  V30 13146 H 1243.57 -2.16168 3.4355 0
M  V30 13147 H 1244.33 -0.119429 4.84853 0
M  V30 13148 H 1240.21 -1.27235 4.43094 0
M  V30 13149 H 1243.75 1.16215 6.87852 0
M  V30 13150 H 1239.65 0.00240707 6.455 0
M  V30 13151 H 1240.42 1.29087 8.08257 0
M  V30 13152 N 1243.08 -1.54377 -0.317073 0
M  V30 13153 C 1244.5 -1.45232 -0.6618 0
M  V30 13154 C 1244.7 -0.630457 -1.91383 0
M  V30 13155 O 1243.75 -0.13181 -2.52156 0
M  V30 13156 C 1245.07 -2.89025 -0.829761 0
M  V30 13157 C 1246.62 -2.98967 -0.926685 0
M  V30 13158 C 1247.09 -4.43923 -1.12677 0
M  V30 13159 N 1248.58 -4.47564 -1.19335 0
M  V30 13160 C 1249.32 -5.56887 -1.36617 0
M  V30 13161 N 1248.81 -6.76167 -1.50899 0
M  V30 13162 N 1250.61 -5.44546 -1.39377 0
M  V30 13163 H 1242.76 -2.0629 0.505766 0
M  V30 13164 H 1245.02 -0.933615 0.164522 0
M  V30 13165 H 1244.73 -3.51695 0.0190945 0
M  V30 13166 H 1244.6 -3.35515 -1.72364 0
M  V30 13167 H 1246.99 -2.36421 -1.76604 0
M  V30 13168 H 1247.07 -2.55798 -0.00913402 0
M  V30 13169 H 1246.71 -5.07059 -0.29224 0
M  V30 13170 H 1246.64 -4.84708 -2.05829 0
M  V30 13171 H 1249.13 -3.61623 -1.09715 0
M  V30 13172 H 1249.45 -7.55242 -1.63796 0
M  V30 13173 H 1247.79 -6.79062 -1.47985 0
M  V30 13174 H 1250.98 -4.50311 -1.27819 0
M  V30 13175 H 1251.15 -6.29799 -1.52502 0
M  V30 13176 N 1244.56 0.579466 -1.4656 0
M  V30 13177 C 1245.49 1.69846 -1.60233 0
M  V30 13178 C 1246.47 1.6397 -0.452533 0
M  V30 13179 O 1247.66 1.81936 -0.679174 0
M  V30 13180 C 1244.79 3.08488 -1.59538 0
M  V30 13181 C 1243.74 3.29197 -2.7352 0
M  V30 13182 C 1243.07 4.684 -2.57887 0
M  V30 13183 C 1244.37 3.16718 -4.15315 0
M  V30 13184 H 1246.06 1.5866 -2.53904 0
M  V30 13185 H 1243.61 0.761873 -1.22194 0
M  V30 13186 H 1245.56 3.86595 -1.67696 0
M  V30 13187 H 1244.28 3.20581 -0.62413 0
M  V30 13188 H 1242.94 2.53491 -2.64836 0
M  V30 13189 H 1242.59 4.77262 -1.58839 0
M  V30 13190 H 1242.29 4.83208 -3.34341 0
M  V30 13191 H 1243.81 5.48671 -2.67942 0
M  V30 13192 H 1245.23 3.84666 -4.25094 0
M  V30 13193 H 1243.63 3.43047 -4.92381 0
M  V30 13194 H 1244.7 2.13755 -4.35244 0
M  V30 13195 N 1246.04 1.3432 0.824371 0
M  V30 13196 C 1247.45 1.23855 1.39703 0
M  V30 13197 C 1247.8 -0.136566 1.95724 0
M  V30 13198 O 1246.93 -1.03683 1.89944 0
M  V30 13199 C 1247.52 2.24249 2.53965 0
M  V30 13200 C 1246.08 2.17578 3.07143 0
M  V30 13201 C 1245.23 2.10933 1.80008 0
M  V30 13202 H 1248.18 1.45707 0.628891 0
M  V30 13203 H 1248.2 1.85864 3.32016 0
M  V30 13204 H 1247.71 3.24321 2.13161 0
M  V30 13205 H 1245.81 1.20858 3.52455 0
M  V30 13206 H 1245.92 3.08769 3.66331 0
M  V30 13207 H 1244.29 1.56631 2.00845 0
M  V30 13208 H 1245.07 3.12836 1.4138 0
M  V30 13209 N 1247.52 -1.0444 1.18026 0
M  V30 13210 C 1248.93 -1.5903 0.978076 0
M  V30 13211 C 1249.28 -1.90407 -0.473241 0
M  V30 13212 O 1248.4 -1.69133 -1.34992 0
M  V30 13213 C 1249 -2.88942 1.76912 0
M  V30 13214 C 1247.56 -3.40164 1.61139 0
M  V30 13215 C 1246.7 -2.13797 1.76596 0
M  V30 13216 H 1249.66 -0.871574 1.32625 0
M  V30 13217 H 1249.68 -3.59173 1.25598 0
M  V30 13218 H 1249.19 -2.66074 2.82535 0
M  V30 13219 H 1247.29 -3.68053 0.580353 0
M  V30 13220 H 1247.4 -4.14241 2.40709 0
M  V30 13221 H 1245.77 -2.24922 1.19507 0
M  V30 13222 H 1246.55 -1.93389 2.83647 0
M  V30 13223 N 1248.99 -0.981699 -1.2329 0
M  V30 13224 C 1250.41 -0.688087 -1.73558 0
M  V30 13225 C 1250.76 0.795633 -1.79344 0
M  V30 13226 O 1249.88 1.62227 -1.43218 0
M  V30 13227 C 1250.48 -1.24235 -3.152 0
M  V30 13228 C 1249.04 -0.998356 -3.62918 0
M  V30 13229 C 1248.18 -1.3693 -2.41134 0
M  V30 13230 H 1251.13 -1.15539 -1.08795 0
M  V30 13231 H 1251.15 -0.61541 -3.7549 0
M  V30 13232 H 1250.67 -2.32223 -3.10957 0
M  V30 13233 H 1248.77 0.0653847 -3.72543 0
M  V30 13234 H 1248.88 -1.65385 -4.49649 0
M  V30 13235 H 1247.24 -0.787773 -2.42211 0
M  V30 13236 H 1248.03 -2.45898 -2.39561 0
M  V30 13237 N 1250.47 1.3842 -0.753509 0
M  V30 13238 C 1251.41 2.28079 -0.0741683 0
M  V30 13239 C 1252.38 1.45372 0.728398 0
M  V30 13240 O 1253.57 1.74737 0.707043 0
M  V30 13241 C 1250.69 3.26475 0.901764 0
M  V30 13242 C 1249.74 4.26097 0.185438 0
M  V30 13243 S 1250.57 5.23791 -1.11372 0
M  V30 13244 C 1251.73 6.25741 -0.140861 0
M  V30 13245 H 1251.96 2.85349 -0.834475 0
M  V30 13246 H 1249.5 1.4442 -0.546089 0
M  V30 13247 H 1251.45 3.83678 1.4595 0
M  V30 13248 H 1250.11 2.68189 1.63504 0
M  V30 13249 H 1249.31 4.95447 0.924578 0
M  V30 13250 H 1248.91 3.72789 -0.300772 0
M  V30 13251 H 1251.2 6.73945 0.693174 0
M  V30 13252 H 1252.14 7.03543 -0.80202 0
M  V30 13253 H 1252.55 5.6399 0.2398 0
M  V30 13254 N 1251.95 0.502579 1.49372 0
M  V30 13255 C 1253.23 -0.104472 1.95321 0
M  V30 13256 C 1253.61 -1.53975 1.44412 0
M  V30 13257 O 1252.96 -2.18804 0.658566 0
M  V30 13258 C 1253.17 -0.0154833 3.48997 0
M  V30 13259 C 1254.51 -0.188615 4.24181 0
M  V30 13260 O 1255.54 -0.090595 3.56085 0
M  V30 13261 O 1254.4 -0.390068 5.45106 0
M  V30 13262 H 1251.49 -0.0944325 0.821591 0
M  V30 13263 H 1254.04 0.565229 1.6001 0
M  V30 13264 H 1252.81 0.985383 3.7869 0
M  V30 13265 H 1252.43 -0.72526 3.90929 0
M  V30 13266 N 1253.43 -1.55816 0.23648 0
M  V30 13267 C 1254.67 -2.0059 -0.39281 0
M  V30 13268 C 1255.03 -1.12092 -1.55883 0
M  V30 13269 O 1256.23 -1.46277 -2.25514 0
M  V30 13270 C 1254.5 -3.48281 -0.80219 0
M  V30 13271 S 1256.06 -4.15069 -1.42348 0
M  V30 13272 H 1252.88 -0.700093 -0.124057 0
M  V30 13273 H 1255.48 -1.92355 0.349272 0
M  V30 13274 H 1254.19 -4.10362 0.0558941 0
M  V30 13275 H 1253.72 -3.60421 -1.57671 0
M  V30 13276 H 1255.73 -4.15493 -2.71257 0
M  V30 13277 N 1254.91 0.036755 -1.57557 0
M  V30 13278 C 1256.32 0.584324 -1.7732 0
M  V30 13279 C 1256.67 1.76025 -0.86658 0
M  V30 13280 O 1255.79 2.16318 -0.059443 0
M  V30 13281 C 1256.39 1.06679 -3.21566 0
M  V30 13282 C 1254.95 1.55994 -3.42553 0
M  V30 13283 C 1254.09 0.494604 -2.72853 0
M  V30 13284 H 1257.05 -0.189473 -1.57565 0
M  V30 13285 H 1257.07 1.93446 -3.27657 0
M  V30 13286 H 1256.58 0.210727 -3.87527 0
M  V30 13287 H 1254.68 2.43811 -2.81757 0
M  V30 13288 H 1254.79 1.61274 -4.5114 0
M  V30 13289 H 1253.16 0.947865 -2.36406 0
M  V30 13290 H 1253.94 -0.351868 -3.41492 0
M  V30 13291 N 1256.39 1.54543 0.308881 0
M  V30 13292 C 1257.35 1.84214 1.36374 0
M  V30 13293 C 1258.35 0.71463 1.44047 0
M  V30 13294 O 1259.54 0.98293 1.4382 0
M  V30 13295 C 1256.67 2.01535 2.74948 0
M  V30 13296 H 1257.86 2.78477 1.11314 0
M  V30 13297 H 1255.42 1.46485 0.545141 0
M  V30 13298 H 1256.15 1.09533 3.05242 0
M  V30 13299 H 1255.94 2.83595 2.7077 0
M  V30 13300 H 1257.43 2.25888 3.51233 0
M  V30 13301 N 1257.86 -0.571685 1.46866 0
M  V30 13302 C 1258.83 -1.66198 1.57832 0
M  V30 13303 C 1259.83 -1.54242 0.454547 0
M  V30 13304 O 1261.02 -1.58661 0.719191 0
M  V30 13305 C 1258.15 -3.05678 1.5091 0
M  V30 13306 H 1259.34 -1.57829 2.5501 0
M  V30 13307 H 1256.89 -0.790433 1.3484 0
M  V30 13308 H 1257.63 -3.19593 0.550529 0
M  V30 13309 H 1257.41 -3.15765 2.32454 0
M  V30 13310 H 1258.9 -3.85027 1.61692 0
M  V30 13311 N 1259.34 -1.34755 -0.817236 0
M  V30 13312 C 1260.27 -1.29452 -1.94331 0
M  V30 13313 C 1261.25 -0.170902 -1.69239 0
M  V30 13314 O 1262.44 -0.364173 -1.90755 0
M  V30 13315 C 1259.57 -1.05497 -3.30889 0
M  V30 13316 C 1258.52 -2.14386 -3.70436 0
M  V30 13317 C 1257.85 -1.75612 -5.05039 0
M  V30 13318 C 1259.15 -3.56265 -3.81933 0
M  V30 13319 H 1260.84 -2.23672 -1.99025 0
M  V30 13320 H 1258.39 -1.07674 -0.956159 0
M  V30 13321 H 1260.34 -1.0043 -4.09257 0
M  V30 13322 H 1259.06 -0.0772059 -3.26509 0
M  V30 13323 H 1257.72 -2.18532 -2.94345 0
M  V30 13324 H 1257.37 -0.764809 -4.97152 0
M  V30 13325 H 1257.07 -2.48495 -5.3247 0
M  V30 13326 H 1258.6 -1.72051 -5.85859 0
M  V30 13327 H 1260.01 -3.545 -4.50558 0
M  V30 13328 H 1258.41 -4.27818 -4.20822 0
M  V30 13329 H 1259.48 -3.93192 -2.83775 0
M  V30 13330 N 1260.82 1.03812 -1.18578 0
M  V30 13331 C 1262.05 1.8044 -1.00623 0
M  V30 13332 C 1262.46 1.83808 0.448451 0
M  V30 13333 O 1261.8 1.27417 1.32328 0
M  V30 13334 C 1261.86 3.27266 -1.48785 0
M  V30 13335 C 1261.53 3.47553 -2.96742 0
M  V30 13336 C 1262.52 3.38533 -3.94578 0
M  V30 13337 C 1260.21 3.74067 -3.3523 0
M  V30 13338 C 1262.2 3.55735 -5.28896 0
M  V30 13339 C 1259.89 3.90916 -4.6971 0
M  V30 13340 C 1260.89 3.81751 -5.66352 0
M  V30 13341 O 1260.58 3.98115 -6.98398 0
M  V30 13342 H 1260.31 0.574996 -0.355465 0
M  V30 13343 H 1262.86 1.31708 -1.57614 0
M  V30 13344 H 1261.09 3.76979 -0.861613 0
M  V30 13345 H 1262.78 3.85461 -1.27181 0
M  V30 13346 H 1263.55 3.18011 -3.66189 0
M  V30 13347 H 1259.43 3.80298 -2.60566 0
M  V30 13348 H 1262.97 3.48498 -6.04314 0
M  V30 13349 H 1258.87 4.10934 -4.97799 0
M  V30 13350 H 1259.63 4.1526 -7.05338 0
M  V30 13351 N 1262.3 0.988223 1.22768 0
M  V30 13352 C 1263.23 0.492919 2.23837 0
M  V30 13353 C 1264.24 -0.409467 1.57567 0
M  V30 13354 O 1265.43 -0.21235 1.77232 0
M  V30 13355 C 1262.53 -0.305428 3.37521 0
M  V30 13356 C 1261.7 0.591966 4.33376 0
M  V30 13357 C 1260.76 -0.15387 5.25975 0
M  V30 13358 O 1259.79 0.459153 5.67345 0
M  V30 13359 N 1260.99 -1.43756 5.62418 0
M  V30 13360 H 1263.76 1.36199 2.66965 0
M  V30 13361 H 1261.32 0.862395 1.3702 0
M  V30 13362 H 1263.31 -0.812921 3.96451 0
M  V30 13363 H 1261.88 -1.07556 2.93514 0
M  V30 13364 H 1261.1 1.28019 3.72833 0
M  V30 13365 H 1262.39 1.20327 4.94367 0
M  V30 13366 H 1261.79 -1.95701 5.30771 0
M  V30 13367 H 1260.34 -1.89034 6.23786 0
M  V30 13368 N 1263.78 -1.38018 0.760839 0
M  V30 13369 C 1264.71 -2.32995 0.153557 0
M  V30 13370 C 1265.69 -1.55234 -0.695448 0
M  V30 13371 O 1266.87 -1.8352 -0.635148 0
M  V30 13372 C 1264 -3.39437 -0.734811 0
M  V30 13373 C 1262.96 -4.27998 0.0120287 0
M  V30 13374 C 1262.28 -5.25359 -0.995067 0
M  V30 13375 C 1263.58 -5.08687 1.18468 0
M  V30 13376 H 1265.28 -2.8403 0.946956 0
M  V30 13377 H 1262.82 -1.36562 0.456816 0
M  V30 13378 H 1264.77 -4.0485 -1.16938 0
M  V30 13379 H 1263.5 -2.86901 -1.56061 0
M  V30 13380 H 1262.16 -3.64102 0.427254 0
M  V30 13381 H 1261.81 -4.69108 -1.81512 0
M  V30 13382 H 1261.51 -5.85469 -0.499969 0
M  V30 13383 H 1263.03 -5.93648 -1.4288 0
M  V30 13384 H 1264.44 -5.67299 0.8273 0
M  V30 13385 H 1262.84 -5.78068 1.61112 0
M  V30 13386 H 1263.91 -4.42 1.99409 0
M  V30 13387 N 1265.25 -0.510493 -1.49103 0
M  V30 13388 C 1266.19 0.309697 -2.26089 0
M  V30 13389 C 1267.16 0.962061 -1.31084 0
M  V30 13390 O 1268.35 0.990296 -1.60391 0
M  V30 13391 C 1265.48 1.43693 -3.06708 0
M  V30 13392 C 1264.52 0.897978 -4.1694 0
M  V30 13393 S 1265.35 -0.218781 -5.35053 0
M  V30 13394 C 1266.51 0.911396 -6.19229 0
M  V30 13395 H 1266.74 -0.343702 -2.95307 0
M  V30 13396 H 1264.28 -0.295944 -1.51537 0
M  V30 13397 H 1266.23 2.08277 -3.53739 0
M  V30 13398 H 1264.9 2.06198 -2.36941 0
M  V30 13399 H 1264.09 1.74303 -4.729 0
M  V30 13400 H 1263.69 0.329192 -3.72548 0
M  V30 13401 H 1265.98 1.8145 -6.5275 0
M  V30 13402 H 1266.93 0.390201 -7.07024 0
M  V30 13403 H 1267.33 1.18301 -5.51965 0
M  V30 13404 N 1266.73 1.55688 -0.24474 0
M  V30 13405 C 1267.66 2.24272 0.64995 0
M  V30 13406 C 1268.64 1.22226 1.183 0
M  V30 13407 O 1269.83 1.50873 1.22274 0
M  V30 13408 C 1266.96 2.94053 1.84798 0
M  V30 13409 C 1265.91 4.02769 1.44779 0
M  V30 13410 C 1265.24 4.59965 2.72647 0
M  V30 13411 C 1266.54 5.18601 0.62047 0
M  V30 13412 H 1268.23 2.99298 0.0780654 0
M  V30 13413 H 1265.78 1.43955 0.0361069 0
M  V30 13414 H 1267.73 3.40732 2.47951 0
M  V30 13415 H 1266.45 2.16511 2.44521 0
M  V30 13416 H 1265.11 3.56856 0.839609 0
M  V30 13417 H 1264.76 3.79126 3.30564 0
M  V30 13418 H 1264.46 5.33352 2.46596 0
M  V30 13419 H 1265.99 5.09376 3.36703 0
M  V30 13420 H 1267.4 5.61519 1.15625 0
M  V30 13421 H 1265.8 5.98364 0.456097 0
M  V30 13422 H 1266.87 4.83503 -0.367798 0
M  V30 13423 N 1268.21 -0.0283989 1.57574 0
M  V30 13424 C 1269.49 -0.754527 1.80461 0
M  V30 13425 C 1269.87 -1.93539 0.842966 0
M  V30 13426 O 1269.21 -2.28212 -0.114714 0
M  V30 13427 C 1269.42 -1.18694 3.28196 0
M  V30 13428 C 1270.77 -1.60257 3.93196 0
M  V30 13429 O 1271.8 -1.2815 3.32349 0
M  V30 13430 O 1270.66 -2.19853 5.00327 0
M  V30 13431 H 1267.75 -0.364936 0.742126 0
M  V30 13432 H 1270.3 -0.00512589 1.69699 0
M  V30 13433 H 1269.07 -0.34398 3.89785 0
M  V30 13434 H 1268.69 -1.99633 3.43849 0
M  V30 13435 N 1269.69 -1.54705 -0.300681 0
M  V30 13436 C 1270.93 -1.75738 -1.04381 0
M  V30 13437 C 1271.29 -0.532138 -1.84478 0
M  V30 13438 O 1272.49 -0.620213 -2.61547 0
M  V30 13439 C 1270.76 -3.01095 -1.92553 0
M  V30 13440 S 1272.32 -3.43132 -2.73507 0
M  V30 13441 H 1269.14 -0.617737 -0.352025 0
M  V30 13442 H 1271.74 -1.9291 -0.317187 0
M  V30 13443 H 1270.45 -3.88393 -1.32585 0
M  V30 13444 H 1269.98 -2.86512 -2.69582 0
M  V30 13445 H 1271.99 -3.00227 -3.95067 0
M  V30 13446 N 1271.17 0.563888 -1.47167 0
M  V30 13447 C 1272.41 1.32105 -1.5466 0
M  V30 13448 C 1272.77 1.91322 -0.203349 0
M  V30 13449 O 1272.06 1.74546 0.790201 0
M  V30 13450 C 1272.25 2.45678 -2.59571 0
M  V30 13451 C 1272.08 1.97589 -4.03966 0
M  V30 13452 C 1270.85 1.81738 -4.71486 0
M  V30 13453 C 1273.05 1.52432 -4.91191 0
M  V30 13454 N 1271.03 1.27918 -6.00425 0
M  V30 13455 C 1272.4 1.10332 -6.10104 0
M  V30 13456 C 1274.46 1.40422 -4.77688 0
M  V30 13457 C 1273.16 0.574166 -7.17005 0
M  V30 13458 C 1275.19 0.889086 -5.84679 0
M  V30 13459 C 1274.55 0.477976 -7.02776 0
M  V30 13460 H 1270.65 0.475685 -0.620683 0
M  V30 13461 H 1273.23 0.639944 -1.83883 0
M  V30 13462 H 1271.4 3.11328 -2.32227 0
M  V30 13463 H 1273.14 3.12667 -2.56947 0
M  V30 13464 H 1269.89 2.04253 -4.27291 0
M  V30 13465 H 1270.32 1.03116 -6.69101 0
M  V30 13466 H 1274.96 1.7082 -3.86756 0
M  V30 13467 H 1272.68 0.257804 -8.07689 0
M  V30 13468 H 1276.26 0.799807 -5.76276 0
M  V30 13469 H 1275.14 0.0855381 -7.84153 0
M  V30 13470 N 1272.64 1.35187 0.810078 0
M  V30 13471 C 1273.58 1.23673 1.92971 0
M  V30 13472 C 1274.59 0.160819 1.62004 0
M  V30 13473 O 1275.78 0.413793 1.73638 0
M  V30 13474 C 1272.88 0.880887 3.27252 0
M  V30 13475 C 1272.05 2.05444 3.86149 0
M  V30 13476 C 1271.11 1.67494 4.98831 0
M  V30 13477 O 1270.14 2.39322 5.16443 0
M  V30 13478 N 1271.34 0.596539 5.77427 0
M  V30 13479 H 1274.1 2.20133 2.03376 0
M  V30 13480 H 1271.66 1.2831 0.987322 0
M  V30 13481 H 1273.66 0.608556 4.00098 0
M  V30 13482 H 1272.23 0.00607926 3.12599 0
M  V30 13483 H 1271.45 2.49077 3.05539 0
M  V30 13484 H 1272.73 2.83898 4.22231 0
M  V30 13485 H 1272.13 -0.000312591 5.657 0
M  V30 13486 H 1270.69 0.383979 6.50668 0
M  V30 13487 N 1274.12 -1.03182 1.19127 0
M  V30 13488 C 1275.07 -2.11394 0.926339 0
M  V30 13489 C 1276.04 -1.65528 -0.137703 0
M  V30 13490 O 1277.22 -1.908 0.00381804 0
M  V30 13491 C 1274.36 -3.41913 0.467894 0
M  V30 13492 C 1273.48 -4.01343 1.59837 0
M  V30 13493 C 1272.61 -5.1986 1.09175 0
M  V30 13494 C 1271.65 -5.71339 2.19632 0
M  V30 13495 N 1270.79 -6.81133 1.703 0
M  V30 13496 H 1275.63 -2.33393 1.85288 0
M  V30 13497 H 1273.17 -1.14473 0.923811 0
M  V30 13498 H 1275.12 -4.16796 0.183513 0
M  V30 13499 H 1273.75 -3.20034 -0.421656 0
M  V30 13500 H 1272.81 -3.23702 1.99803 0
M  V30 13501 H 1274.12 -4.35568 2.43068 0
M  V30 13502 H 1273.27 -6.0189 0.762427 0
M  V30 13503 H 1272.01 -4.87161 0.22914 0
M  V30 13504 H 1271.02 -4.87923 2.53399 0
M  V30 13505 H 1272.24 -6.06078 3.06344 0
M  V30 13506 H 1270.19 -6.50293 0.863415 0
M  V30 13507 H 1270.1 -7.1447 2.47122 0
M  V30 13508 H 1271.37 -7.66766 1.40321 0
M  V30 13509 N 1275.6 -0.99472 -1.22242 0
M  V30 13510 C 1276.88 -0.587481 -1.86569 0
M  V30 13511 C 1277.26 0.935174 -1.89256 0
M  V30 13512 O 1276.61 1.81787 -1.3844 0
M  V30 13513 C 1276.82 -1.21001 -3.27353 0
M  V30 13514 C 1278.16 -1.31167 -4.03832 0
M  V30 13515 O 1279.19 -1.16454 -3.36626 0
M  V30 13516 O 1278.05 -1.54731 -5.24138 0
M  V30 13517 H 1275.14 -0.199838 -0.802492 0
M  V30 13518 H 1277.69 -1.09071 -1.30006 0
M  V30 13519 H 1276.46 -2.25143 -3.20041 0
M  V30 13520 H 1276.08 -0.692479 -3.91523 0
M  V30 13521 N 1277.08 1.37613 -0.768148 0
M  V30 13522 C 1278.49 1.53202 -0.44737 0
M  V30 13523 C 1278.69 1.72736 1.03752 0
M  V30 13524 O 1277.75 1.74667 1.8234 0
M  V30 13525 C 1279.06 2.7306 -1.25931 0
M  V30 13526 C 1280.61 2.8692 -1.25084 0
M  V30 13527 C 1281.09 4.09757 -2.04605 0
M  V30 13528 N 1282.58 4.16862 -2.0194 0
M  V30 13529 C 1283.31 5.10936 -2.60254 0
M  V30 13530 N 1282.81 6.1059 -3.27341 0
M  V30 13531 N 1284.6 5.03393 -2.50104 0
M  V30 13532 H 1276.75 1.23184 -1.7303 0
M  V30 13533 H 1279.02 0.599541 -0.73434 0
M  V30 13534 H 1278.72 2.65078 -2.31141 0
M  V30 13535 H 1278.6 3.66646 -0.886036 0
M  V30 13536 H 1280.98 2.94375 -0.206736 0
M  V30 13537 H 1281.06 1.94303 -1.66373 0
M  V30 13538 H 1280.71 4.03063 -3.09035 0
M  V30 13539 H 1280.64 5.01481 -1.60701 0
M  V30 13540 H 1283.13 3.455 -1.53096 0
M  V30 13541 H 1283.44 6.78893 -3.6922 0
M  V30 13542 H 1281.79 6.10879 -3.31439 0
M  V30 13543 H 1284.98 4.24483 -1.9731 0
M  V30 13544 H 1285.15 5.76524 -2.95844 0
M  V30 13545 N 1278.56 0.518393 1.4883 0
M  V30 13546 C 1279.5 -0.264197 2.31095 0
M  V30 13547 C 1280.5 -0.946455 1.40494 0
M  V30 13548 O 1281.7 -0.872161 1.57459 0
M  V30 13549 H 1278.08 -0.104065 0.744765 0
M  V30 13550 H 1280.05 0.449375 2.94997 0
M  V30 13551 C 1278.8 -1.30527 3.2227 0
M  V30 13552 H 1278.12 -0.789695 3.91923 0
M  V30 13553 H 1279.56 -1.82449 3.82738 0
M  V30 13554 C 1278.02 -2.33274 2.43073 0
M  V30 13555 O 1278.55 -3.39493 2.14726 0
M  V30 13556 N 1276.76 -2.06189 2.04779 0
M  V30 13557 H 1276.3 -1.19829 2.28033 0
M  V30 13558 H 1276.26 -2.7516 1.521 0
M  V30 13559 N 1280.03 -1.55556 0.252993 0
M  V30 13560 C 1280.98 -2.23035 -0.660161 0
M  V30 13561 C 1281.98 -1.21994 -1.17532 0
M  V30 13562 O 1283.18 -1.39989 -1.13151 0
M  V30 13563 H 1279.56 -0.715516 -0.23139 0
M  V30 13564 H 1281.53 -2.98323 -0.0679506 0
M  V30 13565 C 1280.28 -2.94817 -1.84332 0
M  V30 13566 H 1279.6 -3.72342 -1.45607 0
M  V30 13567 H 1281.04 -3.45386 -2.45936 0
M  V30 13568 C 1279.5 -1.99033 -2.71822 0
M  V30 13569 O 1280.03 -1.5273 -3.71533 0
M  V30 13570 N 1278.24 -1.66004 -2.38518 0
M  V30 13571 H 1277.78 -2.03853 -1.57485 0
M  V30 13572 H 1277.74 -1.02183 -2.97331 0
M  V30 13573 N 1281.51 0.0200419 -1.57587 0
M  V30 13574 C 1282.93 0.375834 -1.55112 0
M  V30 13575 C 1283.13 1.76047 -0.980297 0
M  V30 13576 O 1282.18 2.45138 -0.605297 0
M  V30 13577 C 1283.5 0.269418 -2.99491 0
M  V30 13578 C 1285.05 0.345838 -3.11084 0
M  V30 13579 C 1285.52 0.268771 -4.57211 0
M  V30 13580 N 1287.01 0.32729 -4.62042 0
M  V30 13581 C 1287.75 0.290688 -5.72663 0
M  V30 13582 N 1287.24 0.205851 -6.92494 0
M  V30 13583 N 1289.04 0.341082 -5.61064 0
M  V30 13584 H 1281.19 -0.885979 -1.93039 0
M  V30 13585 H 1283.45 -0.337753 -0.885792 0
M  V30 13586 H 1283.16 -0.682452 -3.45015 0
M  V30 13587 H 1283.03 1.0595 -3.62014 0
M  V30 13588 H 1285.42 1.28814 -2.65501 0
M  V30 13589 H 1285.5 -0.47376 -2.51375 0
M  V30 13590 H 1285.14 -0.669906 -5.03463 0
M  V30 13591 H 1285.07 1.10659 -5.14842 0
M  V30 13592 H 1287.56 0.395004 -3.7583 0
M  V30 13593 H 1287.88 0.18327 -7.72583 0
M  V30 13594 H 1286.22 0.171768 -6.94788 0
M  V30 13595 H 1289.41 0.405415 -4.66341 0
M  V30 13596 H 1289.58 0.309091 -6.47262 0
M  V30 13597 N 1282.99 1.54862 0.292472 0
M  V30 13598 C 1284.4 1.65459 0.864891 0
M  V30 13599 C 1284.75 0.568808 1.87774 0
M  V30 13600 O 1283.88 -0.293107 2.14406 0
M  V30 13601 C 1284.47 2.99939 1.5755 0
M  V30 13602 C 1283.03 3.12628 2.09621 0
M  V30 13603 C 1282.18 2.61179 0.931713 0
M  V30 13604 H 1285.13 1.58549 0.0692679 0
M  V30 13605 H 1285.15 2.91839 2.44152 0
M  V30 13606 H 1284.66 3.78943 0.838088 0
M  V30 13607 H 1282.76 2.3836 2.86383 0
M  V30 13608 H 1282.88 4.18911 2.32488 0
M  V30 13609 H 1281.24 2.17846 1.31967 0
M  V30 13610 H 1282.02 3.42669 0.208121 0
M  V30 13611 N 1284.47 -0.556076 1.47464 0
M  V30 13612 C 1285.42 -1.66304 1.60036 0
M  V30 13613 C 1286.39 -1.60074 0.443348 0
M  V30 13614 O 1287.57 -1.7889 0.663545 0
M  V30 13615 C 1284.71 -3.04624 1.62167 0
M  V30 13616 C 1283.82 -3.21283 2.88793 0
M  V30 13617 C 1282.96 -4.50008 2.82252 0
M  V30 13618 C 1282 -4.60103 4.03698 0
M  V30 13619 N 1281.13 -5.80184 3.95387 0
M  V30 13620 H 1285.97 -1.54897 2.5458 0
M  V30 13621 H 1283.51 -0.754533 1.26274 0
M  V30 13622 H 1285.47 -3.84721 1.61386 0
M  V30 13623 H 1284.1 -3.14865 0.711348 0
M  V30 13624 H 1283.15 -2.34611 2.99436 0
M  V30 13625 H 1284.46 -3.24607 3.78724 0
M  V30 13626 H 1283.62 -5.38366 2.79726 0
M  V30 13627 H 1282.36 -4.49165 1.90005 0
M  V30 13628 H 1281.36 -3.70157 4.06527 0
M  V30 13629 H 1282.59 -4.62704 4.97073 0
M  V30 13630 H 1280.53 -5.80288 3.05944 0
M  V30 13631 H 1280.45 -5.8489 4.78998 0
M  V30 13632 H 1281.72 -6.709 3.96879 0
M  V30 13633 N 1285.95 -1.35615 -0.802897 0
M  V30 13634 C 1287.19 -1.29094 -1.56016 0
M  V30 13635 C 1287.52 0.133617 -1.9404 0
M  V30 13636 O 1286.78 1.09975 -1.61876 0
M  V30 13637 C 1287.08 -2.14653 -2.8576 0
M  V30 13638 C 1286.74 -3.63395 -2.66936 0
M  V30 13639 C 1285.4 -4.03937 -2.61511 0
M  V30 13640 C 1287.76 -4.57758 -2.49212 0
M  V30 13641 C 1285.08 -5.37006 -2.36309 0
M  V30 13642 C 1287.44 -5.91029 -2.25539 0
M  V30 13643 C 1286.1 -6.30712 -2.18538 0
M  V30 13644 H 1285.37 -0.472387 -0.570904 0
M  V30 13645 H 1288.02 -1.67545 -0.92741 0
M  V30 13646 H 1286.32 -1.69095 -3.53432 0
M  V30 13647 H 1288.02 -2.06941 -3.43477 0
M  V30 13648 H 1284.61 -3.31224 -2.72009 0
M  V30 13649 H 1288.79 -4.27318 -2.52414 0
M  V30 13650 H 1284.05 -5.66748 -2.29361 0
M  V30 13651 H 1288.22 -6.63724 -2.10816 0
M  V30 13652 H 1285.85 -7.33753 -1.98772 0
M  V30 13653 N 1287.43 1.02549 -1.19673 0
M  V30 13654 C 1288.34 2.14373 -0.952972 0
M  V30 13655 C 1289.35 1.73776 0.0881727 0
M  V30 13656 O 1290.53 2.01165 -0.0972471 0
M  V30 13657 C 1287.59 3.43096 -0.498569 0
M  V30 13658 C 1286.65 3.97987 -1.60951 0
M  V30 13659 C 1285.89 5.20567 -1.17669 0
M  V30 13660 O 1286.11 5.70385 -0.0416636 0
M  V30 13661 O 1285.04 5.6838 -1.98059 0
M  V30 13662 H 1288.87 2.378 -1.88904 0
M  V30 13663 H 1286.45 1.12781 -0.979836 0
M  V30 13664 H 1288.34 4.20634 -0.253968 0
M  V30 13665 H 1287.01 3.21105 0.409018 0
M  V30 13666 H 1285.92 3.21768 -1.90829 0
M  V30 13667 H 1287.25 4.24349 -2.49377 0
M  V30 13668 N 1288.9 1.00119 1.21713 0
M  V30 13669 C 1289.84 0.516633 2.23301 0
M  V30 13670 C 1290.85 -0.392732 1.57992 0
M  V30 13671 O 1292.04 -0.19354 1.77448 0
M  V30 13672 C 1289.14 -0.269612 3.37826 0
M  V30 13673 C 1288.31 0.637898 4.32723 0
M  V30 13674 C 1287.37 -0.0980745 5.26109 0
M  V30 13675 O 1286.4 0.519302 5.66826 0
M  V30 13676 N 1287.6 -1.37783 5.63911 0
M  V30 13677 H 1290.36 1.39022 2.65505 0
M  V30 13678 H 1287.92 0.87688 1.36097 0
M  V30 13679 H 1289.92 -0.770826 3.97291 0
M  V30 13680 H 1288.49 -1.04436 2.94638 0
M  V30 13681 H 1287.71 1.31966 3.71455 0
M  V30 13682 H 1288.99 1.25564 4.93063 0
M  V30 13683 H 1288.39 -1.90061 5.32817 0
M  V30 13684 H 1286.95 -1.82407 6.25756 0
M  V30 13685 N 1290.38 -1.37203 0.775435 0
M  V30 13686 C 1291.63 -1.98846 0.338093 0
M  V30 13687 C 1291.94 -1.6225 -1.09244 0
M  V30 13688 O 1293.15 -2.17024 -1.63135 0
M  V30 13689 C 1291.61 -3.55618 0.553541 0
M  V30 13690 C 1291.21 -4.01149 1.99457 0
M  V30 13691 C 1292.96 -4.24118 0.180006 0
M  V30 13692 C 1290.86 -5.50644 2.15742 0
M  V30 13693 H 1289.79 -0.743955 0.122669 0
M  V30 13694 H 1292.45 -1.56685 0.955087 0
M  V30 13695 H 1290.83 -3.95777 -0.132964 0
M  V30 13696 H 1292 -3.72226 2.71633 0
M  V30 13697 H 1290.32 -3.45443 2.32504 0
M  V30 13698 H 1292.91 -5.33966 0.280145 0
M  V30 13699 H 1293.26 -4.07104 -0.870192 0
M  V30 13700 H 1293.79 -3.89274 0.819201 0
M  V30 13701 H 1290.53 -5.7259 3.19094 0
M  V30 13702 H 1290.05 -5.8124 1.48054 0
M  V30 13703 H 1291.73 -6.16668 1.95781 0
M  V30 13704 N 1291.86 -0.526279 -1.48553 0
M  V30 13705 C 1293.11 0.00918008 -2.02798 0
M  V30 13706 C 1293.44 1.34284 -1.4029 0
M  V30 13707 O 1292.71 1.86639 -0.547355 0
M  V30 13708 C 1293 0.135102 -3.59846 0
M  V30 13709 C 1292.85 -1.22347 -4.32841 0
M  V30 13710 C 1294.17 0.863673 -4.31542 0
M  V30 13711 H 1291.29 0.00186216 -0.736998 0
M  V30 13712 H 1293.93 -0.682591 -1.77315 0
M  V30 13713 H 1292.08 0.724279 -3.81689 0
M  V30 13714 H 1293.75 -1.85347 -4.22427 0
M  V30 13715 H 1291.99 -1.80631 -3.94405 0
M  V30 13716 H 1292.67 -1.08839 -5.41164 0
M  V30 13717 H 1295.14 0.363734 -4.14507 0
M  V30 13718 H 1294.02 0.92067 -5.41124 0
M  V30 13719 H 1294.28 1.91313 -3.98562 0
M  V30 13720 N 1293.34 1.5542 -0.261239 0
M  V30 13721 C 1294.56 2.04142 0.366144 0
M  V30 13722 C 1294.99 1.13884 1.49706 0
M  V30 13723 O 1294.35 0.134629 1.80799 0
M  V30 13724 C 1294.39 3.50733 0.837774 0
M  V30 13725 O 1293.5 3.63588 1.94621 0
M  V30 13726 H 1292.84 0.659424 0.077821 0
M  V30 13727 H 1295.37 2.0082 -0.391487 0
M  V30 13728 H 1295.38 3.91831 1.13721 0
M  V30 13729 H 1294.05 4.15899 0.0102742 0
M  V30 13730 H 1292.63 3.34391 1.65037 0
M  V30 13731 N 1294.82 -0.0116844 1.57596 0
M  V30 13732 C 1296.06 -0.698089 1.89234 0
M  V30 13733 C 1296.38 -1.75581 0.862016 0
M  V30 13734 O 1297.58 -2.49602 1.06822 0
M  V30 13735 C 1296.04 -1.29277 3.3588 0
M  V30 13736 C 1295.65 -0.27049 4.47183 0
M  V30 13737 C 1297.39 -1.95805 3.76644 0
M  V30 13738 C 1295.3 -0.874502 5.84899 0
M  V30 13739 H 1294.23 -0.264495 0.706087 0
M  V30 13740 H 1296.88 0.0469451 1.8344 0
M  V30 13741 H 1295.26 -2.08809 3.36474 0
M  V30 13742 H 1296.44 0.499381 4.58086 0
M  V30 13743 H 1294.75 0.293676 4.15363 0
M  V30 13744 H 1297.35 -2.41879 4.76863 0
M  V30 13745 H 1297.69 -2.78366 3.09545 0
M  V30 13746 H 1298.22 -1.23023 3.78299 0
M  V30 13747 H 1294.96 -0.0879263 6.55441 0
M  V30 13748 H 1294.48 -1.61381 5.77682 0
M  V30 13749 H 1296.16 -1.37665 6.32185 0
M  V30 13750 N 1296.29 -1.55015 -0.284256 0
M  V30 13751 C 1297.22 -1.90128 -1.3555 0
M  V30 13752 C 1298.2 -0.761914 -1.52082 0
M  V30 13753 O 1299.39 -1.01909 -1.65312 0
M  V30 13754 C 1296.52 -2.16332 -2.71695 0
M  V30 13755 C 1295.47 -3.32166 -2.69907 0
M  V30 13756 C 1294.8 -3.43824 -4.09498 0
M  V30 13757 C 1296.1 -4.6885 -2.30168 0
M  V30 13758 H 1297.79 -2.79852 -1.06411 0
M  V30 13759 H 1295.34 -1.34649 -0.510451 0
M  V30 13760 H 1297.29 -2.39482 -3.46737 0
M  V30 13761 H 1296.02 -1.23395 -3.02392 0
M  V30 13762 H 1294.68 -3.08965 -1.97322 0
M  V30 13763 H 1294.32 -2.48375 -4.374 0
M  V30 13764 H 1294.02 -4.21698 -4.092 0
M  V30 13765 H 1295.55 -3.69254 -4.86296 0
M  V30 13766 H 1296.96 -4.91619 -2.9493 0
M  V30 13767 H 1295.36 -5.49558 -2.41052 0
M  V30 13768 H 1296.43 -4.68433 -1.25294 0
M  V30 13769 N 1297.77 0.548248 -1.47757 0
M  V30 13770 C 1299.05 1.3092 -1.45325 0
M  V30 13771 C 1299.43 2.1053 -0.155008 0
M  V30 13772 O 1298.78 2.11558 0.863455 0
M  V30 13773 C 1298.99 2.20614 -2.70426 0
M  V30 13774 C 1300.33 2.81345 -3.18009 0
M  V30 13775 O 1301.36 2.30911 -2.71216 0
M  V30 13776 O 1300.22 3.73036 -3.99383 0
M  V30 13777 H 1297.31 0.58996 -0.579548 0
M  V30 13778 H 1299.86 0.56641 -1.59968 0
M  V30 13779 H 1298.63 1.61449 -3.56441 0
M  V30 13780 H 1298.25 3.02173 -2.58413 0
M  V30 13781 N 1299.25 1.36039 0.795694 0
M  V30 13782 C 1300.2 1.29853 1.90806 0
M  V30 13783 C 1301.17 0.168387 1.65244 0
M  V30 13784 O 1302.35 0.353879 1.8749 0
M  V30 13785 C 1299.49 1.08737 3.27521 0
M  V30 13786 C 1298.6 2.30771 3.65197 0
M  V30 13787 C 1297.74 2.02718 4.90998 0
M  V30 13788 C 1296.78 3.20746 5.21333 0
M  V30 13789 N 1295.92 2.92399 6.38316 0
M  V30 13790 H 1300.76 2.2497 1.95429 0
M  V30 13791 H 1298.29 1.11819 0.955771 0
M  V30 13792 H 1300.25 0.945236 4.06351 0
M  V30 13793 H 1298.88 0.172781 3.22337 0
M  V30 13794 H 1297.93 2.5581 2.81541 0
M  V30 13795 H 1299.24 3.18869 3.83568 0
M  V30 13796 H 1298.4 1.85398 5.77679 0
M  V30 13797 H 1297.14 1.11921 4.74684 0
M  V30 13798 H 1296.14 3.38632 4.33138 0
M  V30 13799 H 1297.37 4.1236 5.3957 0
M  V30 13800 H 1295.31 2.04207 6.23406 0
M  V30 13801 H 1295.23 3.74034 6.56989 0
M  V30 13802 H 1296.5 2.78643 7.27996 0
M  V30 13803 N 1300.73 -1.01913 1.20215 0
M  V30 13804 C 1301.66 -2.12282 0.97256 0
M  V30 13805 C 1302.64 -1.6982 -0.0975709 0
M  V30 13806 O 1303.82 -1.94109 0.0594307 0
M  V30 13807 C 1300.95 -3.43369 0.521085 0
M  V30 13808 C 1299.91 -3.99559 1.53417 0
M  V30 13809 C 1299.23 -5.26383 0.93942 0
M  V30 13810 C 1300.53 -4.33241 2.91718 0
M  V30 13811 H 1302.23 -2.31746 1.89563 0
M  V30 13812 H 1299.77 -1.1137 0.912841 0
M  V30 13813 H 1301.73 -4.19963 0.347713 0
M  V30 13814 H 1300.45 -3.23655 -0.437605 0
M  V30 13815 H 1299.11 -3.25069 1.69486 0
M  V30 13816 H 1298.76 -5.02993 -0.0271236 0
M  V30 13817 H 1298.46 -5.64942 1.616 0
M  V30 13818 H 1299.98 -6.05635 0.777059 0
M  V30 13819 H 1301.4 -5.00734 2.79175 0
M  V30 13820 H 1299.79 -4.82907 3.56259 0
M  V30 13821 H 1300.86 -3.42118 3.43633 0
M  V30 13822 N 1302.21 -1.00763 -1.2118 0
M  V30 13823 C 1303.46 -0.687197 -1.89633 0
M  V30 13824 C 1303.77 0.78566 -1.79128 0
M  V30 13825 O 1304.97 1.21828 -2.42632 0
M  V30 13826 C 1303.43 -1.1787 -3.40051 0
M  V30 13827 C 1303.04 -2.67782 -3.59161 0
M  V30 13828 C 1304.78 -0.933277 -4.14114 0
M  V30 13829 C 1302.69 -3.10459 -5.03358 0
M  V30 13830 H 1301.62 -0.253342 -0.710165 0
M  V30 13831 H 1304.27 -1.21914 -1.37147 0
M  V30 13832 H 1302.65 -0.574791 -3.91806 0
M  V30 13833 H 1303.83 -3.33645 -3.17833 0
M  V30 13834 H 1302.14 -2.90368 -2.98455 0
M  V30 13835 H 1304.74 -1.22766 -5.20416 0
M  V30 13836 H 1305.08 0.130431 -4.16096 0
M  V30 13837 H 1305.61 -1.50011 -3.68431 0
M  V30 13838 H 1302.35 -4.16068 -5.06525 0
M  V30 13839 H 1301.87 -2.4931 -5.45531 0
M  V30 13840 H 1303.55 -3.02589 -5.71882 0
M  V30 13841 N 1303.68 1.3679 -0.7827 0
M  V30 13842 C 1305.1 1.52719 -0.463594 0
M  V30 13843 C 1305.3 1.73827 1.01914 0
M  V30 13844 O 1304.36 1.76591 1.80477 0
M  V30 13845 C 1305.67 2.71709 -1.2882 0
M  V30 13846 C 1307.22 2.85577 -1.2812 0
M  V30 13847 C 1307.69 4.07564 -2.0894 0
M  V30 13848 N 1309.18 4.14697 -2.0635 0
M  V30 13849 C 1309.92 5.08147 -2.65659 0
M  V30 13850 N 1309.41 6.07083 -3.33799 0
M  V30 13851 N 1311.21 5.00712 -2.55429 0
M  V30 13852 H 1303.36 1.21342 -1.74327 0
M  V30 13853 H 1305.62 0.591719 -0.740657 0
M  V30 13854 H 1305.33 2.62612 -2.3394 0
M  V30 13855 H 1305.2 3.65686 -0.924873 0
M  V30 13856 H 1307.59 2.94139 -0.237947 0
M  V30 13857 H 1307.67 1.92528 -1.68424 0
M  V30 13858 H 1307.31 3.99763 -3.13293 0
M  V30 13859 H 1307.24 4.99748 -1.66011 0
M  V30 13860 H 1309.73 3.43856 -1.56752 0
M  V30 13861 H 1310.05 6.74939 -3.764 0
M  V30 13862 H 1308.39 6.07329 -3.379 0
M  V30 13863 H 1311.58 4.22367 -2.01802 0
M  V30 13864 H 1311.76 5.73354 -3.01943 0
M  V30 13865 N 1305.16 0.53415 1.48272 0
M  V30 13866 C 1306.11 -0.239672 2.31362 0
M  V30 13867 C 1307.1 -0.931501 1.4149 0
M  V30 13868 O 1308.31 -0.855411 1.58375 0
M  V30 13869 H 1304.69 -0.09616 0.745827 0
M  V30 13870 H 1306.66 0.480638 2.94504 0
M  V30 13871 C 1305.41 -1.27102 3.23636 0
M  V30 13872 H 1304.73 -0.748082 3.92739 0
M  V30 13873 H 1306.17 -1.78379 3.84652 0
M  V30 13874 C 1304.63 -2.30683 2.45534 0
M  V30 13875 O 1305.16 -3.37197 2.18314 0
M  V30 13876 N 1303.36 -2.04006 2.06954 0
M  V30 13877 H 1302.91 -1.17403 2.29291 0
M  V30 13878 H 1302.87 -2.73531 1.5501 0
M  V30 13879 N 1306.64 -1.55279 0.269478 0
M  V30 13880 C 1308.05 -1.85286 -0.229372 0
M  V30 13881 C 1308.4 -1.19148 -1.55879 0
M  V30 13882 O 1307.53 -0.4778 -2.11059 0
M  V30 13883 C 1308.12 -3.3615 -0.42296 0
M  V30 13884 C 1306.68 -3.66301 -0.866047 0
M  V30 13885 C 1305.83 -2.77265 0.0439028 0
M  V30 13886 H 1308.78 -1.509 0.491427 0
M  V30 13887 H 1308.8 -3.5895 -1.26234 0
M  V30 13888 H 1308.31 -3.84258 0.544768 0
M  V30 13889 H 1306.41 -3.23688 -1.84545 0
M  V30 13890 H 1306.53 -4.73851 -0.707274 0
M  V30 13891 H 1304.89 -2.50299 -0.471433 0
M  V30 13892 H 1305.67 -3.28186 1.00741 0
M  V30 13893 N 1308.12 0.00332656 -1.576 0
M  V30 13894 C 1309.37 0.687508 -1.90047 0
M  V30 13895 C 1309.69 1.74497 -0.870388 0
M  V30 13896 O 1308.96 1.95681 0.0926544 0
M  V30 13897 H 1307.54 0.256924 -0.701426 0
M  V30 13898 H 1310.2 -0.0368129 -1.94865 0
M  V30 13899 H 1309.3 1.16086 -2.89707 0
M  V30 13900 N 1309.6 1.55164 0.276031 0
M  V30 13901 C 1310.82 1.7998 1.03063 0
M  V30 13902 C 1311.25 0.569769 1.79263 0
M  V30 13903 O 1310.6 -0.48054 1.74816 0
M  V30 13904 C 1310.65 3.02209 1.96728 0
M  V30 13905 O 1309.76 2.77083 3.05449 0
M  V30 13906 H 1309.1 0.594963 0.294814 0
M  V30 13907 H 1311.63 2.02301 0.305861 0
M  V30 13908 H 1311.64 3.3086 2.38738 0
M  V30 13909 H 1310.31 3.91386 1.40677 0
M  V30 13910 H 1308.89 2.5952 2.67776 0
M  V30 13911 N 1311.07 -0.540404 1.48045 0
M  V30 13912 C 1312 -1.65538 1.6468 0
M  V30 13913 C 1312.99 -1.62713 0.495847 0
M  V30 13914 O 1314.17 -1.80072 0.727172 0
M  V30 13915 C 1311.3 -3.0415 1.67661 0
M  V30 13916 C 1310.25 -3.2183 2.82152 0
M  V30 13917 C 1309.58 -4.61397 2.70216 0
M  V30 13918 C 1310.88 -3.05596 4.23567 0
M  V30 13919 H 1312.57 -1.51873 2.58021 0
M  V30 13920 H 1310.12 -0.729208 1.24171 0
M  V30 13921 H 1312.07 -3.82013 1.77887 0
M  V30 13922 H 1310.8 -3.18814 0.708907 0
M  V30 13923 H 1309.46 -2.4638 2.71463 0
M  V30 13924 H 1309.1 -4.72883 1.71437 0
M  V30 13925 H 1308.8 -4.74174 3.47035 0
M  V30 13926 H 1310.33 -5.41374 2.82395 0
M  V30 13927 H 1311.74 -3.73261 4.35143 0
M  V30 13928 H 1310.14 -3.29871 5.01303 0
M  V30 13929 H 1311.21 -2.0214 4.40758 0
M  V30 13930 N 1312.55 -1.36459 -0.788468 0
M  V30 13931 C 1313.5 -1.30863 -1.90115 0
M  V30 13932 C 1314.47 -0.177148 -1.65153 0
M  V30 13933 O 1315.65 -0.363817 -1.87299 0
M  V30 13934 C 1312.79 -1.10473 -3.2694 0
M  V30 13935 C 1311.91 -2.32704 -3.63968 0
M  V30 13936 C 1311.04 -2.05319 -4.89916 0
M  V30 13937 C 1310.08 -3.23506 -5.19625 0
M  V30 13938 N 1309.22 -2.9578 -6.36756 0
M  V30 13939 H 1314.06 -2.26003 -1.94233 0
M  V30 13940 H 1311.6 -1.12324 -0.949827 0
M  V30 13941 H 1313.55 -0.966773 -4.05844 0
M  V30 13942 H 1312.18 -0.189873 -3.22241 0
M  V30 13943 H 1311.24 -2.573 -2.8018 0
M  V30 13944 H 1312.55 -3.20899 -3.81871 0
M  V30 13945 H 1311.7 -1.88459 -5.76687 0
M  V30 13946 H 1310.44 -1.14437 -4.74084 0
M  V30 13947 H 1309.45 -3.40924 -4.31336 0
M  V30 13948 H 1310.67 -4.15216 -5.37376 0
M  V30 13949 H 1308.62 -2.0751 -6.22315 0
M  V30 13950 H 1308.53 -3.77513 -6.54996 0
M  V30 13951 H 1309.8 -2.825 -7.26508 0
M  V30 13952 N 1314.03 1.01274 -1.20754 0
M  V30 13953 C 1315.28 1.74342 -1.01428 0
M  V30 13954 C 1315.59 1.90265 0.453708 0
M  V30 13955 O 1316.8 2.60465 0.76618 0
M  V30 13956 C 1315.25 3.13588 -1.76609 0
M  V30 13957 C 1314.86 3.05664 -3.27526 0
M  V30 13958 C 1316.61 3.9084 -1.65664 0
M  V30 13959 C 1314.51 4.39942 -3.95228 0
M  V30 13960 H 1313.44 0.653619 -0.375897 0
M  V30 13961 H 1316.09 1.13214 -1.44412 0
M  V30 13962 H 1314.48 3.75281 -1.26413 0
M  V30 13963 H 1315.65 2.53256 -3.84965 0
M  V30 13964 H 1313.97 2.41904 -3.38927 0
M  V30 13965 H 1316.56 4.9019 -2.13583 0
M  V30 13966 H 1316.91 4.11754 -0.61351 0
M  V30 13967 H 1317.44 3.35783 -2.13294 0
M  V30 13968 H 1314.18 4.24229 -4.9971 0
M  V30 13969 H 1313.7 4.92342 -3.42578 0
M  V30 13970 H 1315.38 5.08771 -3.99701 0
M  V30 13971 N 1315.51 1.01404 1.20644 0
M  V30 13972 C 1316.76 0.697244 1.89265 0
M  V30 13973 C 1317.07 -0.776149 1.79542 0
M  V30 13974 O 1318.28 -1.2054 2.43274 0
M  V30 13975 C 1316.73 1.19672 3.39421 0
M  V30 13976 C 1316.34 2.69683 3.57736 0
M  V30 13977 C 1318.09 0.955225 4.13613 0
M  V30 13978 C 1315.99 3.13124 5.01704 0
M  V30 13979 H 1314.92 0.257105 0.708811 0
M  V30 13980 H 1317.57 1.22639 1.36499 0
M  V30 13981 H 1315.96 0.595562 3.91496 0
M  V30 13982 H 1317.13 3.35326 3.16059 0
M  V30 13983 H 1315.44 2.91946 2.96911 0
M  V30 13984 H 1318.04 1.25524 5.19757 0
M  V30 13985 H 1318.38 -0.108362 4.16159 0
M  V30 13986 H 1318.92 1.51962 3.67631 0
M  V30 13987 H 1315.66 4.18748 5.04311 0
M  V30 13988 H 1315.18 2.522 5.44201 0
M  V30 13989 H 1316.86 3.05617 5.70269 0
M  V30 13990 N 1316.99 -1.36373 0.789944 0
M  V30 13991 C 1318.22 -2.03482 0.37453 0
M  V30 13992 C 1318.63 -1.59562 -1.00923 0
M  V30 13993 O 1317.99 -0.785289 -1.64741 0
M  V30 13994 C 1318.04 -3.58942 0.429255 0
M  V30 13995 O 1317.76 -4.01261 1.75845 0
M  V30 13996 C 1319.26 -4.433 0.00453729 0
M  V30 13997 H 1316.48 -0.653019 0.154295 0
M  V30 13998 H 1319.02 -1.74339 1.06894 0
M  V30 13999 H 1317.18 -3.86793 -0.21674 0
M  V30 14000 H 1317.59 -4.95854 1.70964 0
M  V30 14001 H 1319.07 -5.5192 0.0939653 0
M  V30 14002 H 1319.54 -4.26509 -1.04816 0
M  V30 14003 H 1320.15 -4.20712 0.623041 0
M  V30 14004 N 1318.47 -0.542005 -1.47987 0
M  V30 14005 C 1319.69 -0.0146835 -2.07395 0
M  V30 14006 C 1320.12 1.26266 -1.39422 0
M  V30 14007 O 1319.47 1.75259 -0.464118 0
M  V30 14008 C 1319.52 0.179937 -3.60151 0
M  V30 14009 O 1318.63 1.24596 -3.93128 0
M  V30 14010 H 1317.97 -0.0445076 -0.662507 0
M  V30 14011 H 1320.5 -0.753352 -1.90226 0
M  V30 14012 H 1320.51 0.398876 -4.06046 0
M  V30 14013 H 1319.18 -0.753093 -4.09025 0
M  V30 14014 H 1317.76 1.00872 -3.58997 0
M  V30 14015 N 1319.94 1.55134 -0.277709 0
M  V30 14016 C 1320.91 2.21327 0.595569 0
M  V30 14017 C 1321.91 1.19193 1.07933 0
M  V30 14018 O 1323.1 1.44081 0.979093 0
M  V30 14019 C 1320.23 2.88127 1.82196 0
M  V30 14020 H 1321.42 2.99895 0.0175855 0
M  V30 14021 H 1318.97 1.56274 -0.0283453 0
M  V30 14022 H 1319.71 2.13578 2.44039 0
M  V30 14023 H 1319.49 3.62974 1.48297 0
M  V30 14024 H 1320.98 3.38691 2.44291 0
M  V30 14025 N 1321.42 0.00503138 1.57599 0
M  V30 14026 C 1322.38 -0.969628 2.0768 0
M  V30 14027 C 1323.38 -1.26933 0.987148 0
M  V30 14028 O 1324.57 -1.21368 1.24962 0
M  V30 14029 C 1321.71 -2.29312 2.52247 0
M  V30 14030 H 1322.9 -0.536342 2.95065 0
M  V30 14031 H 1320.45 -0.242543 1.54407 0
M  V30 14032 H 1321.19 -2.7732 1.6812 0
M  V30 14033 H 1320.97 -2.08878 3.31832 0
M  V30 14034 H 1322.46 -2.99221 2.91302 0
M  V30 14035 N 1322.9 -1.55308 -0.267798 0
M  V30 14036 C 1323.86 -1.87765 -1.31442 0
M  V30 14037 C 1324.86 -0.752571 -1.42102 0
M  V30 14038 O 1326.05 -1.02072 -1.41163 0
M  V30 14039 C 1323.18 -2.08754 -2.69508 0
M  V30 14040 H 1324.38 -2.8133 -1.03891 0
M  V30 14041 H 1321.93 -1.47879 -0.506111 0
M  V30 14042 H 1322.67 -1.17588 -3.02231 0
M  V30 14043 H 1322.45 -2.90674 -2.63156 0
M  V30 14044 H 1323.94 -2.3512 -3.4512 0
M  V30 14045 N 1324.38 0.532545 -1.4833 0
M  V30 14046 C 1325.79 0.860843 -1.34394 0
M  V30 14047 C 1325.99 1.98384 -0.353013 0
M  V30 14048 O 1325.05 2.5148 0.226688 0
M  V30 14049 C 1326.36 1.23079 -2.74358 0
M  V30 14050 C 1327.91 1.34082 -2.82827 0
M  V30 14051 C 1328.39 1.74421 -4.23487 0
M  V30 14052 N 1329.88 1.81528 -4.26148 0
M  V30 14053 C 1330.61 2.1412 -5.31921 0
M  V30 14054 N 1330.11 2.45154 -6.47975 0
M  V30 14055 N 1331.9 2.15104 -5.19314 0
M  V30 14056 H 1324.05 -0.208464 -2.11375 0
M  V30 14057 H 1326.31 -0.03062 -0.947505 0
M  V30 14058 H 1326.02 0.47926 -3.48419 0
M  V30 14059 H 1325.89 2.18151 -3.07718 0
M  V30 14060 H 1328.28 2.08311 -2.09022 0
M  V30 14061 H 1328.36 0.37137 -2.5309 0
M  V30 14062 H 1328.01 1.00752 -4.97807 0
M  V30 14063 H 1327.94 2.72411 -4.50666 0
M  V30 14064 H 1330.43 1.59832 -3.42436 0
M  V30 14065 H 1330.74 2.69121 -7.24426 0
M  V30 14066 H 1329.09 2.42679 -6.51254 0
M  V30 14067 H 1332.28 1.90315 -4.27666 0
M  V30 14068 H 1332.45 2.40173 -6.01848 0
M  V30 14069 N 1325.86 1.36875 0.78122 0
M  V30 14070 C 1327.27 1.28236 1.35692 0
M  V30 14071 C 1327.62 -0.0742286 1.9606 0
M  V30 14072 O 1326.74 -0.97588 1.93146 0
M  V30 14073 C 1327.34 2.32215 2.46702 0
M  V30 14074 C 1325.9 2.2724 3.00065 0
M  V30 14075 C 1325.04 2.16553 1.73206 0
M  V30 14076 H 1327.99 1.47634 0.582217 0
M  V30 14077 H 1328.02 1.96333 3.25935 0
M  V30 14078 H 1327.53 3.30938 2.02735 0
M  V30 14079 H 1325.63 1.3201 3.48431 0
M  V30 14080 H 1325.74 3.20267 3.56323 0
M  V30 14081 H 1324.11 1.62941 1.95761 0
M  V30 14082 H 1324.89 3.17176 1.31356 0
M  V30 14083 N 1327.33 -1.00632 1.21289 0
M  V30 14084 C 1328.56 -1.78503 1.05601 0
M  V30 14085 C 1328.98 -1.84015 -0.389879 0
M  V30 14086 O 1328.34 -1.28277 -1.2812 0
M  V30 14087 C 1328.39 -3.20313 1.65626 0
M  V30 14088 O 1327.49 -4.02441 0.900841 0
M  V30 14089 H 1326.83 -0.550183 0.371746 0
M  V30 14090 H 1329.36 -1.26505 1.60803 0
M  V30 14091 H 1329.37 -3.70992 1.69792 0
M  V30 14092 H 1328.05 -3.15616 2.7085 0
M  V30 14093 H 1326.63 -3.61009 0.934178 0
M  V30 14094 N 1328.81 -1.02043 -1.20104 0
M  V30 14095 C 1329.76 -0.587332 -2.25063 0
M  V30 14096 C 1330.75 0.375844 -1.65178 0
M  V30 14097 O 1331.96 0.245347 -1.7832 0
M  V30 14098 H 1328.33 -0.171637 -0.732151 0
M  V30 14099 H 1330.31 -1.48339 -2.58917 0
M  V30 14100 C 1329.05 0.0546893 -3.47657 0
M  V30 14101 H 1328.38 -0.677457 -3.94018 0
M  V30 14102 H 1329.82 0.320786 -4.22785 0
M  V30 14103 C 1328.28 1.29869 -3.10863 0
M  V30 14104 O 1328.81 2.39161 -3.22746 0
M  V30 14105 N 1327.01 1.18423 -2.65376 0
M  V30 14106 H 1326.56 0.294895 -2.55906 0
M  V30 14107 H 1326.52 2.01755 -2.41128 0
M  V30 14108 N 1330.29 1.35952 -0.797165 0
M  V30 14109 C 1331.22 2.32506 -0.215277 0
M  V30 14110 C 1332.2 1.57023 0.654046 0
M  V30 14111 O 1333.39 1.85139 0.586268 0
M  V30 14112 C 1330.52 3.41266 0.644557 0
M  V30 14113 C 1329.47 4.27816 -0.125501 0
M  V30 14114 C 1328.8 5.27813 0.855428 0
M  V30 14115 C 1330.1 5.05367 -1.31913 0
M  V30 14116 H 1331.79 2.8142 -1.02193 0
M  V30 14117 H 1329.34 1.35303 -0.492862 0
M  V30 14118 H 1331.29 4.07808 1.06163 0
M  V30 14119 H 1330.01 2.90938 1.484 0
M  V30 14120 H 1328.67 3.62841 -0.523639 0
M  V30 14121 H 1328.32 4.73755 1.69011 0
M  V30 14122 H 1328.02 5.86589 0.344566 0
M  V30 14123 H 1329.54 5.97227 1.2709 0
M  V30 14124 H 1330.96 5.64907 -0.977418 0
M  V30 14125 H 1329.36 5.73593 -1.76382 0
M  V30 14126 H 1330.43 4.36558 -2.11057 0
M  V30 14127 N 1331.77 0.549846 1.47697 0
M  V30 14128 C 1332.7 -0.190364 2.32723 0
M  V30 14129 C 1333.68 -0.915933 1.43334 0
M  V30 14130 O 1334.86 -0.897838 1.72199 0
M  V30 14131 C 1331.99 -1.22545 3.24961 0
M  V30 14132 C 1330.95 -0.616805 4.23532 0
M  V30 14133 C 1330.27 -1.75599 5.05044 0
M  V30 14134 C 1331.57 0.424595 5.20571 0
M  V30 14135 H 1333.27 0.519461 2.94859 0
M  V30 14136 H 1330.81 0.251259 1.41791 0
M  V30 14137 H 1332.77 -1.75139 3.83281 0
M  V30 14138 H 1331.49 -1.96512 2.60865 0
M  V30 14139 H 1330.15 -0.112224 3.66428 0
M  V30 14140 H 1329.8 -2.48453 4.37356 0
M  V30 14141 H 1329.5 -1.35456 5.71774 0
M  V30 14142 H 1331.02 -2.28533 5.6622 0
M  V30 14143 H 1332.44 -0.0150025 5.73298 0
M  V30 14144 H 1330.83 0.7445 5.95464 0
M  V30 14145 H 1331.9 1.32318 4.66497 0
M  V30 14146 N 1333.25 -1.54984 0.285932 0
M  V30 14147 C 1334.18 -2.25916 -0.590259 0
M  V30 14148 C 1335.16 -1.25319 -1.15018 0
M  V30 14149 O 1336.34 -1.54062 -1.18231 0
M  V30 14150 C 1333.47 -2.98849 -1.76936 0
M  V30 14151 C 1332.43 -4.06466 -1.3405 0
M  V30 14152 C 1331.75 -4.67032 -2.60356 0
M  V30 14153 C 1333.05 -5.20064 -0.482754 0
M  V30 14154 H 1334.75 -2.994 0.00131571 0
M  V30 14155 H 1332.29 -1.44 0.00207281 0
M  V30 14156 H 1334.25 -3.47186 -2.3883 0
M  V30 14157 H 1332.97 -2.22918 -2.38694 0
M  V30 14158 H 1331.63 -3.58957 -0.7447 0
M  V30 14159 H 1331.28 -3.87757 -3.20396 0
M  V30 14160 H 1330.98 -5.39703 -2.32368 0
M  V30 14161 H 1332.5 -5.18124 -3.23079 0
M  V30 14162 H 1333.91 -5.64387 -1.00697 0
M  V30 14163 H 1332.31 -5.99363 -0.297291 0
M  V30 14164 H 1333.38 -4.82358 0.495861 0
M  V30 14165 N 1334.72 -0.0133892 -1.57594 0
M  V30 14166 C 1336 0.706416 -1.82398 0
M  V30 14167 C 1336.38 1.91236 -0.893983 0
M  V30 14168 O 1335.73 2.28436 0.0541675 0
M  V30 14169 C 1335.94 1.09951 -3.31228 0
M  V30 14170 C 1337.29 1.49776 -3.97306 0
M  V30 14171 O 1338.31 1.19293 -3.3563 0
M  V30 14172 O 1337.17 2.06511 -5.0598 0
M  V30 14173 H 1334.26 0.345131 -0.751541 0
M  V30 14174 H 1336.81 -0.0398687 -1.69653 0
M  V30 14175 H 1335.58 0.240514 -3.9056 0
M  V30 14176 H 1335.21 1.90447 -3.49021 0
M  V30 14177 N 1336.2 1.55448 0.259558 0
M  V30 14178 C 1337.13 1.85678 1.34373 0
M  V30 14179 C 1338.15 0.742155 1.449 0
M  V30 14180 O 1339.34 1.02015 1.46476 0
M  V30 14181 C 1336.44 2.01668 2.72366 0
M  V30 14182 C 1335.61 3.32434 2.84265 0
M  V30 14183 C 1334.67 3.38322 4.03019 0
M  V30 14184 O 1333.69 4.11616 3.93143 0
M  V30 14185 N 1334.9 2.66697 5.1561 0
M  V30 14186 H 1337.66 2.79261 1.08781 0
M  V30 14187 H 1335.22 1.5553 0.449672 0
M  V30 14188 H 1337.21 2.02963 3.50126 0
M  V30 14189 H 1335.78 1.14889 2.90722 0
M  V30 14190 H 1335 3.43564 1.93281 0
M  V30 14191 H 1336.29 4.18649 2.89155 0
M  V30 14192 H 1335.69 2.06857 5.26523 0
M  V30 14193 H 1334.25 2.73699 5.91551 0
M  V30 14194 N 1337.68 -0.524672 1.4861 0
M  V30 14195 C 1338.91 -1.30958 1.60825 0
M  V30 14196 C 1339.33 -1.86142 0.270682 0
M  V30 14197 O 1338.69 -1.64675 -0.758415 0
M  V30 14198 C 1338.74 -2.43252 2.66197 0
M  V30 14199 O 1337.84 -3.4644 2.23725 0
M  V30 14200 H 1337.18 -0.387638 0.539104 0
M  V30 14201 H 1339.71 -0.630755 1.94635 0
M  V30 14202 H 1339.72 -2.89362 2.87635 0
M  V30 14203 H 1338.4 -2.02449 3.63301 0
M  V30 14204 H 1336.97 -3.06413 2.12522 0
M  V30 14205 N 1339.16 -1.37287 -0.77395 0
M  V30 14206 C 1340.11 -1.32955 -1.90855 0
M  V30 14207 C 1341.1 -0.218695 -1.67982 0
M  V30 14208 O 1342.31 -0.386594 -1.75799 0
M  V30 14209 H 1338.68 -0.414289 -0.62759 0
M  V30 14210 H 1340.65 -2.2874 -1.91626 0
M  V30 14211 C 1339.4 -1.15121 -3.28089 0
M  V30 14212 H 1338.72 -1.99852 -3.46264 0
M  V30 14213 H 1340.16 -1.1614 -4.07784 0
M  V30 14214 C 1338.62 0.14327 -3.36595 0
M  V30 14215 O 1339.15 1.12763 -3.85548 0
M  V30 14216 N 1337.36 0.193219 -2.89957 0
M  V30 14217 H 1336.91 -0.608471 -2.50311 0
M  V30 14218 H 1336.86 1.05897 -2.96029 0
M  V30 14219 N 1340.64 0.999871 -1.21821 0
M  V30 14220 C 1341.88 1.74098 -1.04009 0
M  V30 14221 C 1342.22 1.89499 0.424716 0
M  V30 14222 O 1341.49 1.43306 1.31505 0
M  V30 14223 C 1341.77 3.1506 -1.74382 0
M  V30 14224 C 1341.63 3.0735 -3.28414 0
M  V30 14225 C 1342.95 4.1409 -1.49055 0
M  V30 14226 H 1340.06 0.631935 -0.379245 0
M  V30 14227 H 1342.71 1.16534 -1.50066 0
M  V30 14228 H 1340.86 3.64206 -1.35227 0
M  V30 14229 H 1342.53 2.65879 -3.76969 0
M  V30 14230 H 1340.77 2.44325 -3.58452 0
M  V30 14231 H 1341.44 4.07069 -3.72825 0
M  V30 14232 H 1343.92 3.73672 -1.83054 0
M  V30 14233 H 1342.79 5.10853 -2.008 0
M  V30 14234 H 1343.06 4.40085 -0.421641 0
M  V30 14235 N 1342.11 1.02678 1.19562 0
M  V30 14236 C 1343.39 0.63674 1.84946 0
M  V30 14237 C 1343.77 -0.884667 1.91669 0
M  V30 14238 O 1343.12 -1.78053 1.43211 0
M  V30 14239 C 1343.33 1.29637 3.2403 0
M  V30 14240 C 1344.68 1.41828 4.00212 0
M  V30 14241 O 1345.7 1.25338 3.3342 0
M  V30 14242 O 1344.56 1.68573 5.19851 0
M  V30 14243 H 1341.65 0.221044 0.796912 0
M  V30 14244 H 1344.2 1.1248 1.27068 0
M  V30 14245 H 1342.97 2.33549 3.1396 0
M  V30 14246 H 1342.6 0.796041 3.8955 0
M  V30 14247 N 1343.59 -1.35528 0.804364 0
M  V30 14248 C 1344.84 -1.98084 0.380196 0
M  V30 14249 C 1345.15 -1.64531 -1.05778 0
M  V30 14250 O 1346.36 -2.20435 -1.58495 0
M  V30 14251 C 1344.82 -3.54364 0.628848 0
M  V30 14252 C 1344.42 -3.96828 2.07921 0
M  V30 14253 C 1346.17 -4.23641 0.269927 0
M  V30 14254 C 1344.08 -5.45944 2.27374 0
M  V30 14255 H 1343.01 -0.741185 0.138422 0
M  V30 14256 H 1345.66 -1.54624 0.988107 0
M  V30 14257 H 1344.04 -3.9597 -0.0489837 0
M  V30 14258 H 1345.21 -3.6638 2.79467 0
M  V30 14259 H 1343.53 -3.40433 2.39779 0
M  V30 14260 H 1346.12 -5.33251 0.393344 0
M  V30 14261 H 1346.47 -4.08858 -0.783644 0
M  V30 14262 H 1347 -3.87448 0.901588 0
M  V30 14263 H 1343.74 -5.65693 3.31168 0
M  V30 14264 H 1343.26 -5.77969 1.6035 0
M  V30 14265 H 1344.94 -6.12376 2.08817 0
M  V30 14266 N 1345.07 -0.557671 -1.47404 0
M  V30 14267 C 1346.3 -0.0386599 -2.06864 0
M  V30 14268 C 1346.71 1.25527 -1.41027 0
M  V30 14269 O 1346.07 1.75318 -0.506949 0
M  V30 14270 C 1346.12 0.160141 -3.61145 0
M  V30 14271 O 1345.84 -1.08255 -4.24515 0
M  V30 14272 C 1347.34 0.716381 -4.37473 0
M  V30 14273 H 1344.56 -0.0460523 -0.669418 0
M  V30 14274 H 1347.11 -0.771214 -1.894 0
M  V30 14275 H 1345.26 0.842826 -3.78121 0
M  V30 14276 H 1345.68 -0.88057 -5.17055 0
M  V30 14277 H 1347.15 0.804773 -5.46102 0
M  V30 14278 H 1347.63 1.72776 -4.03788 0
M  V30 14279 H 1348.23 0.0693787 -4.25243 0
M  V30 14280 N 1346.55 1.54831 -0.294147 0
M  V30 14281 C 1347.78 2.04411 0.319938 0
M  V30 14282 C 1348.19 1.17174 1.4804 0
M  V30 14283 O 1347.55 0.195881 1.81446 0
M  V30 14284 C 1347.6 3.52924 0.782751 0
M  V30 14285 O 1347.32 4.36844 -0.331512 0
M  V30 14286 C 1348.82 4.18474 1.4627 0
M  V30 14287 H 1346.04 0.667286 0.0704973 0
M  V30 14288 H 1348.59 1.9989 -0.431785 0
M  V30 14289 H 1346.74 3.57828 1.48451 0
M  V30 14290 H 1347.16 5.24493 0.0275743 0
M  V30 14291 H 1348.63 5.23933 1.73776 0
M  V30 14292 H 1349.11 3.67793 2.40052 0
M  V30 14293 H 1349.71 4.17626 0.804291 0
M  V30 14294 N 1348.03 0.0217466 1.57585 0
M  V30 14295 C 1349.27 -0.658487 1.91495 0
M  V30 14296 C 1349.6 -1.72557 0.897462 0
M  V30 14297 O 1348.86 -1.95471 -0.0946909 0
M  V30 14298 C 1349.16 -1.3197 3.32143 0
M  V30 14299 C 1348.82 -0.383706 4.49264 0
M  V30 14300 C 1347.48 -0.126065 4.81035 0
M  V30 14301 C 1349.84 0.259445 5.20554 0
M  V30 14302 C 1347.16 0.782659 5.81456 0
M  V30 14303 C 1349.52 1.15618 6.21945 0
M  V30 14304 C 1348.18 1.42278 6.5216 0
M  V30 14305 H 1347.45 -0.240958 0.700729 0
M  V30 14306 H 1350.1 0.0819351 1.91325 0
M  V30 14307 H 1348.4 -2.13469 3.28539 0
M  V30 14308 H 1350.1 -1.85245 3.55648 0
M  V30 14309 H 1346.69 -0.59469 4.24454 0
M  V30 14310 H 1350.87 0.073445 4.96246 0
M  V30 14311 H 1346.13 0.996995 6.03216 0
M  V30 14312 H 1350.3 1.66077 6.76307 0
M  V30 14313 H 1347.93 2.1286 7.29791 0
M  V30 14314 N 1349.51 -1.55583 -0.251311 0
M  V30 14315 C 1350.92 -1.47908 -0.599606 0
M  V30 14316 C 1351.12 -0.711061 -1.88537 0
M  V30 14317 O 1350.18 -0.238639 -2.5137 0
M  V30 14318 C 1351.49 -2.92284 -0.706429 0
M  V30 14319 C 1353.04 -3.02629 -0.799049 0
M  V30 14320 C 1353.51 -4.48303 -0.93747 0
M  V30 14321 N 1355 -4.52222 -1.00245 0
M  V30 14322 C 1355.74 -5.62181 -1.12874 0
M  V30 14323 N 1355.24 -6.81958 -1.22085 0
M  V30 14324 N 1357.03 -5.49968 -1.16155 0
M  V30 14325 H 1349.18 -2.0396 0.592806 0
M  V30 14326 H 1351.44 -0.925797 0.203971 0
M  V30 14327 H 1351.15 -3.51297 0.168243 0
M  V30 14328 H 1351.02 -3.42524 -1.57979 0
M  V30 14329 H 1353.41 -2.43699 -1.66418 0
M  V30 14330 H 1353.49 -2.55607 0.099367 0
M  V30 14331 H 1353.13 -5.07842 -0.0769166 0
M  V30 14332 H 1353.06 -4.93002 -1.85086 0
M  V30 14333 H 1355.56 -3.65951 -0.94279 0
M  V30 14334 H 1355.87 -7.6151 -1.31616 0
M  V30 14335 H 1354.21 -6.84728 -1.1905 0
M  V30 14336 H 1357.4 -4.55327 -1.08604 0
M  V30 14337 H 1357.58 -6.35701 -1.25653 0
M  V30 14338 N 1350.98 0.516783 -1.48886 0
M  V30 14339 C 1352.21 1.29628 -1.61258 0
M  V30 14340 C 1352.63 1.86744 -0.27786 0
M  V30 14341 O 1351.98 1.67061 0.734639 0
M  V30 14342 C 1352.03 2.43779 -2.66935 0
M  V30 14343 O 1351.76 1.89014 -3.95228 0
M  V30 14344 C 1353.26 3.35398 -2.89867 0
M  V30 14345 H 1350.48 0.393736 -0.543335 0
M  V30 14346 H 1353.02 0.622069 -1.94809 0
M  V30 14347 H 1351.18 3.0706 -2.36206 0
M  V30 14348 H 1351.59 2.63833 -4.53312 0
M  V30 14349 H 1353.06 4.11812 -3.6758 0
M  V30 14350 H 1353.54 3.91436 -1.99185 0
M  V30 14351 H 1354.15 2.77898 -3.21952 0
M  V30 14352 N 1352.46 1.37696 0.766659 0
M  V30 14353 C 1353.69 1.3639 1.55581 0
M  V30 14354 C 1354.1 -0.0495272 1.88735 0
M  V30 14355 O 1353.46 -1.01268 1.51826 0
M  V30 14356 C 1353.51 2.20717 2.86298 0
M  V30 14357 O 1353.23 3.56552 2.54563 0
M  V30 14358 C 1354.73 2.27446 3.80504 0
M  V30 14359 H 1351.95 0.466993 0.481828 0
M  V30 14360 H 1354.5 1.81103 0.949834 0
M  V30 14361 H 1352.65 1.79499 3.43306 0
M  V30 14362 H 1353.07 4.00811 3.38306 0
M  V30 14363 H 1354.54 2.90762 4.69214 0
M  V30 14364 H 1355.02 1.28434 4.20002 0
M  V30 14365 H 1355.62 2.68998 3.29424 0
M  V30 14366 N 1353.94 -0.993397 1.22349 0
M  V30 14367 C 1355.19 -1.72945 1.04568 0
M  V30 14368 C 1355.51 -1.90419 -0.420178 0
M  V30 14369 O 1354.78 -1.46348 -1.30227 0
M  V30 14370 H 1353.36 -0.640777 0.383945 0
M  V30 14371 H 1356.02 -1.19647 1.53853 0
M  V30 14372 H 1355.12 -2.72411 1.52311 0
M  V30 14373 N 1355.42 -1.03311 -1.19015 0
M  V30 14374 C 1356.69 -0.646539 -1.84606 0
M  V30 14375 C 1357.07 0.87449 -1.92135 0
M  V30 14376 O 1356.42 1.77291 -1.44154 0
M  V30 14377 C 1356.63 -1.31354 -3.23338 0
M  V30 14378 C 1357.98 -1.43949 -3.99455 0
M  V30 14379 O 1359 -1.27104 -3.32751 0
M  V30 14380 O 1357.86 -1.71328 -5.1895 0
M  V30 14381 H 1354.96 -0.225267 -0.795728 0
M  V30 14382 H 1357.5 -1.13152 -1.2647 0
M  V30 14383 H 1356.28 -2.3521 -3.12717 0
M  V30 14384 H 1355.9 -0.816688 -3.89122 0
M  V30 14385 N 1356.9 1.35099 -0.81154 0
M  V30 14386 C 1358.14 1.99348 -0.403961 0
M  V30 14387 C 1358.5 1.63209 1.01885 0
M  V30 14388 O 1357.79 0.887707 1.69795 0
M  V30 14389 C 1357.98 3.53444 -0.530322 0
M  V30 14390 C 1357.81 4.04552 -1.96387 0
M  V30 14391 C 1356.58 4.33677 -2.5933 0
M  V30 14392 C 1358.78 4.2274 -2.92909 0
M  V30 14393 N 1356.76 4.70747 -3.94043 0
M  V30 14394 C 1358.13 4.62862 -4.12503 0
M  V30 14395 C 1360.19 4.0496 -2.89675 0
M  V30 14396 C 1358.89 4.87064 -5.29303 0
M  V30 14397 C 1360.92 4.30321 -4.05682 0
M  V30 14398 C 1360.28 4.7072 -5.24025 0
M  V30 14399 H 1356.38 0.757119 -0.195692 0
M  V30 14400 H 1358.96 1.63715 -1.05383 0
M  V30 14401 H 1357.13 3.88297 0.089583 0
M  V30 14402 H 1358.87 4.04584 -0.0968489 0
M  V30 14403 H 1355.62 4.24174 -2.1065 0
M  V30 14404 H 1356.04 4.93534 -4.63414 0
M  V30 14405 H 1360.69 3.72864 -1.99329 0
M  V30 14406 H 1358.4 5.18031 -6.20217 0
M  V30 14407 H 1361.99 4.18112 -4.04566 0
M  V30 14408 H 1360.87 4.89961 -6.12298 0
M  V30 14409 N 1358.37 0.56548 1.47106 0
M  V30 14410 C 1359.3 -0.16567 2.32912 0
M  V30 14411 C 1360.28 -0.900678 1.44298 0
M  V30 14412 O 1361.47 -0.879523 1.73142 0
M  V30 14413 C 1358.6 -1.19092 3.26243 0
M  V30 14414 C 1357.55 -0.571849 4.24163 0
M  V30 14415 C 1356.88 -1.70233 5.06878 0
M  V30 14416 C 1358.18 0.479785 5.20092 0
M  V30 14417 H 1359.87 0.550705 2.94292 0
M  V30 14418 H 1357.42 0.266284 1.41517 0
M  V30 14419 H 1359.37 -1.71064 3.85117 0
M  V30 14420 H 1358.1 -1.93734 2.62934 0
M  V30 14421 H 1356.76 -0.073353 3.66527 0
M  V30 14422 H 1356.4 -2.438 4.39967 0
M  V30 14423 H 1356.1 -1.29384 5.73178 0
M  V30 14424 H 1357.63 -2.22515 5.68612 0
M  V30 14425 H 1359.04 0.0458042 5.73282 0
M  V30 14426 H 1357.44 0.807615 5.94641 0
M  V30 14427 H 1358.51 1.37259 4.65068 0
M  V30 14428 N 1359.85 -1.54672 0.302354 0
M  V30 14429 C 1360.8 -2.25022 -0.58887 0
M  V30 14430 C 1361.79 -1.25671 -1.13592 0
M  V30 14431 O 1363 -1.43518 -1.0864 0
M  V30 14432 H 1359.38 -0.722515 -0.208509 0
M  V30 14433 H 1361.35 -2.98388 0.0269928 0
M  V30 14434 C 1360.1 -3.00532 -1.74859 0
M  V30 14435 H 1359.42 -3.76786 -1.33688 0
M  V30 14436 H 1360.86 -3.53036 -2.34823 0
M  V30 14437 C 1359.32 -2.0758 -2.65353 0
M  V30 14438 O 1359.85 -1.64473 -3.66485 0
M  V30 14439 N 1358.05 -1.73508 -2.33116 0
M  V30 14440 H 1357.6 -2.0876 -1.5092 0
M  V30 14441 H 1357.56 -1.11591 -2.9393 0
M  V30 14442 N 1361.33 -0.0301034 -1.57571 0
M  V30 14443 C 1362.58 0.647042 -1.91462 0
M  V30 14444 C 1362.9 1.72612 -0.907206 0
M  V30 14445 O 1362.17 1.95833 0.0511268 0
M  V30 14446 H 1360.75 0.241988 -0.706718 0
M  V30 14447 H 1363.41 -0.0781385 -1.94743 0
M  V30 14448 H 1362.51 1.09915 -2.92105 0
M  V30 14449 N 1362.81 1.55714 0.243056 0
M  V30 14450 C 1364.05 1.77989 0.971993 0
M  V30 14451 C 1364.39 0.596038 1.84827 0
M  V30 14452 O 1363.66 -0.40554 1.90225 0
M  V30 14453 C 1363.95 3.10178 1.82925 0
M  V30 14454 C 1363.8 4.38974 0.9809 0
M  V30 14455 C 1365.12 3.38628 2.81103 0
M  V30 14456 H 1362.24 0.64754 0.35194 0
M  V30 14457 H 1364.88 1.88449 0.242237 0
M  V30 14458 H 1363.03 3.01392 2.45143 0
M  V30 14459 H 1364.7 4.59756 0.377113 0
M  V30 14460 H 1362.94 4.3286 0.285414 0
M  V30 14461 H 1363.61 5.27858 1.61461 0
M  V30 14462 H 1366.09 3.47403 2.29021 0
M  V30 14463 H 1364.97 4.32331 3.38203 0
M  V30 14464 H 1365.23 2.5973 3.57761 0
M  V30 14465 N 1364.29 -0.50888 1.49158 0
M  V30 14466 C 1365.53 -1.26274 1.59456 0
M  V30 14467 C 1365.89 -1.90436 0.274217 0
M  V30 14468 O 1365.18 -1.77359 -0.724875 0
M  V30 14469 C 1365.37 -2.35875 2.6851 0
M  V30 14470 C 1365.2 -1.8246 4.11021 0
M  V30 14471 C 1363.97 -1.64114 4.77907 0
M  V30 14472 C 1366.17 -1.34097 4.9651 0
M  V30 14473 N 1364.15 -1.05546 6.04759 0
M  V30 14474 C 1365.52 -0.876125 6.13779 0
M  V30 14475 C 1367.58 -1.22596 4.82571 0
M  V30 14476 C 1366.28 -0.307659 7.18642 0
M  V30 14477 C 1368.31 -0.671474 5.87576 0
M  V30 14478 C 1367.67 -0.216816 7.04066 0
M  V30 14479 H 1363.77 -0.452321 0.63791 0
M  V30 14480 H 1366.35 -0.571257 1.86131 0
M  V30 14481 H 1364.52 -3.02494 2.43622 0
M  V30 14482 H 1366.26 -3.02915 2.68374 0
M  V30 14483 H 1363.01 -1.88254 4.34577 0
M  V30 14484 H 1363.44 -0.782114 6.72467 0
M  V30 14485 H 1368.08 -1.56348 3.9283 0
M  V30 14486 H 1365.8 0.0421419 8.08089 0
M  V30 14487 H 1369.38 -0.585375 5.78848 0
M  V30 14488 H 1368.26 0.205554 7.83931 0
M  V30 14489 N 1365.76 -1.381 -0.759346 0
M  V30 14490 C 1366.99 -1.37213 -1.54855 0
M  V30 14491 C 1367.41 0.0395175 -1.88759 0
M  V30 14492 O 1366.76 1.00462 -1.5236 0
M  V30 14493 C 1366.82 -2.22232 -2.85123 0
M  V30 14494 O 1366.54 -3.57897 -2.52668 0
M  V30 14495 C 1368.04 -2.29461 -3.79292 0
M  V30 14496 H 1365.26 -0.469542 -0.479345 0
M  V30 14497 H 1367.8 -1.81604 -0.940216 0
M  V30 14498 H 1365.96 -1.81317 -3.42349 0
M  V30 14499 H 1366.37 -4.02599 -3.36176 0
M  V30 14500 H 1367.84 -2.93246 -4.67665 0
M  V30 14501 H 1368.32 -1.3066 -4.19315 0
M  V30 14502 H 1368.93 -2.70741 -3.27993 0
M  V30 14503 N 1367.24 0.986894 -1.22875 0
M  V30 14504 C 1368.21 2.0597 -1.00544 0
M  V30 14505 C 1369.21 1.60771 0.0303509 0
M  V30 14506 O 1370.4 1.72945 -0.208753 0
M  V30 14507 C 1367.53 3.36911 -0.519962 0
M  V30 14508 H 1368.72 2.27213 -1.9574 0
M  V30 14509 H 1366.27 1.15935 -1.04827 0
M  V30 14510 H 1367.01 3.21355 0.436078 0
M  V30 14511 H 1366.79 3.71054 -1.26732 0
M  V30 14512 H 1368.28 4.15829 -0.384166 0
M  V30 14513 N 1368.72 1.0394 1.18466 0
M  V30 14514 C 1369.67 0.59975 2.1997 0
M  V30 14515 C 1370.65 -0.357127 1.56887 0
M  V30 14516 O 1371.85 -0.176388 1.76119 0
M  V30 14517 C 1368.98 -0.0371434 3.4328 0
M  V30 14518 C 1368.06 0.942805 4.13488 0
M  V30 14519 N 1368.45 2.10936 4.59717 0
M  V30 14520 C 1366.75 0.768529 4.39329 0
M  V30 14521 C 1367.45 2.72829 5.1375 0
M  V30 14522 N 1366.43 2.00713 5.05188 0
M  V30 14523 H 1370.23 1.48875 2.53403 0
M  V30 14524 H 1367.74 0.907817 1.34657 0
M  V30 14525 H 1369.74 -0.369803 4.15257 0
M  V30 14526 H 1368.4 -0.921701 3.11343 0
M  V30 14527 H 1369.41 2.48831 4.54207 0
M  V30 14528 H 1366.09 -0.0660446 4.17448 0
M  V30 14529 H 1367.48 3.71684 5.59733 0
M  V30 14530 N 1370.2 -1.34667 0.818693 0
M  V30 14531 C 1371.44 -2.00234 0.41056 0
M  V30 14532 C 1371.8 -1.63507 -1.00644 0
M  V30 14533 O 1373 -2.21886 -1.51723 0
M  V30 14534 C 1371.27 -3.52294 0.601968 0
M  V30 14535 S 1372.83 -4.37867 0.286055 0
M  V30 14536 H 1369.65 -0.693826 0.155325 0
M  V30 14537 H 1372.25 -1.64037 1.06359 0
M  V30 14538 H 1370.96 -3.76511 1.63302 0
M  V30 14539 H 1370.49 -3.93345 -0.0659441 0
M  V30 14540 H 1372.5 -4.87936 -0.901832 0
M  V30 14541 N 1371.68 -0.573274 -1.46804 0
M  V30 14542 C 1372.62 0.165358 -2.30207 0
M  V30 14543 C 1373.59 0.89312 -1.40045 0
M  V30 14544 O 1374.78 0.885653 -1.68999 0
M  V30 14545 C 1371.92 1.17915 -3.2433 0
M  V30 14546 C 1371.03 0.455805 -4.29589 0
M  V30 14547 C 1370.17 1.45629 -5.10848 0
M  V30 14548 C 1369.21 0.718822 -6.07865 0
M  V30 14549 N 1368.34 1.66691 -6.82025 0
M  V30 14550 H 1373.18 -0.551947 -2.92844 0
M  V30 14551 H 1370.72 -0.28401 -1.44332 0
M  V30 14552 H 1372.68 1.77969 -3.77337 0
M  V30 14553 H 1371.31 1.86429 -2.63523 0
M  V30 14554 H 1370.36 -0.259584 -3.79513 0
M  V30 14555 H 1371.67 -0.121161 -4.98653 0
M  V30 14556 H 1370.83 2.1299 -5.68084 0
M  V30 14557 H 1369.56 2.06718 -4.41723 0
M  V30 14558 H 1368.57 0.0313773 -5.49791 0
M  V30 14559 H 1369.79 0.113452 -6.79005 0
M  V30 14560 H 1367.74 2.26608 -6.15617 0
M  V30 14561 H 1367.66 1.14251 -7.47317 0
M  V30 14562 H 1368.93 2.33117 -7.43826 0
M  V30 14563 N 1373.15 1.5451 -0.310553 0
M  V30 14564 C 1374.06 2.27557 0.570518 0
M  V30 14565 C 1375.08 1.31426 1.14032 0
M  V30 14566 O 1376.26 1.64423 1.16306 0
M  V30 14567 C 1373.32 3.00933 1.72163 0
M  V30 14568 C 1372.38 4.12623 1.18495 0
M  V30 14569 C 1371.62 4.8249 2.28121 0
M  V30 14570 O 1371.84 4.5178 3.48211 0
M  V30 14571 O 1370.77 5.69686 1.94273 0
M  V30 14572 H 1374.6 3.03692 -0.0223195 0
M  V30 14573 H 1372.18 1.49203 -0.0766821 0
M  V30 14574 H 1374.07 3.46925 2.39208 0
M  V30 14575 H 1372.74 2.27685 2.3009 0
M  V30 14576 H 1371.65 3.71008 0.479956 0
M  V30 14577 H 1372.98 4.87876 0.650994 0
M  V30 14578 N 1374.63 0.0384594 1.57553 0
M  V30 14579 C 1375.88 -0.637533 1.91359 0
M  V30 14580 C 1376.2 -1.7275 0.91744 0
M  V30 14581 O 1377.4 -2.46078 1.14709 0
M  V30 14582 C 1375.86 -1.18526 3.39823 0
M  V30 14583 C 1375.47 -0.128086 4.47817 0
M  V30 14584 C 1377.21 -1.83723 3.82683 0
M  V30 14585 C 1375.12 -0.687978 5.87385 0
M  V30 14586 H 1374.05 -0.241898 0.714144 0
M  V30 14587 H 1376.7 0.105281 1.83198 0
M  V30 14588 H 1375.08 -1.97999 3.42947 0
M  V30 14589 H 1376.25 0.644865 4.56265 0
M  V30 14590 H 1374.57 0.425672 4.14219 0
M  V30 14591 H 1377.17 -2.26585 4.84317 0
M  V30 14592 H 1377.51 -2.68377 3.18244 0
M  V30 14593 H 1378.04 -1.10926 3.82021 0
M  V30 14594 H 1374.78 0.120642 6.55389 0
M  V30 14595 H 1374.3 -1.4292 5.82524 0
M  V30 14596 H 1375.98 -1.17483 6.36244 0
M  V30 14597 N 1376.11 -1.55841 -0.234795 0
M  V30 14598 C 1377.36 -1.78238 -0.961116 0
M  V30 14599 C 1377.69 -0.604919 -1.84854 0
M  V30 14600 O 1376.94 0.411289 -1.91329 0
M  V30 14601 C 1377.24 -3.06262 -1.84223 0
M  V30 14602 C 1376.91 -4.37045 -1.10916 0
M  V30 14603 C 1375.57 -4.72582 -0.906606 0
M  V30 14604 C 1377.92 -5.17844 -0.59049 0
M  V30 14605 C 1375.25 -5.86444 -0.173275 0
M  V30 14606 C 1377.6 -6.32468 0.129433 0
M  V30 14607 C 1376.26 -6.66616 0.343357 0
M  V30 14608 H 1375.53 -0.652219 -0.351697 0
M  V30 14609 H 1378.18 -1.9011 -0.230272 0
M  V30 14610 H 1376.49 -2.89454 -2.64052 0
M  V30 14611 H 1378.18 -3.20791 -2.40612 0
M  V30 14612 H 1374.77 -4.09134 -1.27699 0
M  V30 14613 H 1378.96 -4.90835 -0.734487 0
M  V30 14614 H 1374.21 -6.114 0.00282409 0
M  V30 14615 H 1378.39 -6.94312 0.538905 0
M  V30 14616 H 1376.01 -7.54691 0.913538 0
M  V30 14617 N 1377.59 0.500963 -1.49426 0
M  V30 14618 C 1378.82 1.27911 -1.62624 0
M  V30 14619 C 1379.23 1.86439 -0.297651 0
M  V30 14620 O 1378.59 1.67831 0.716879 0
M  V30 14621 C 1378.64 2.40934 -2.69505 0
M  V30 14622 O 1378.36 1.84811 -3.97211 0
M  V30 14623 C 1379.86 3.32305 -2.93408 0
M  V30 14624 H 1377.08 0.387951 -0.547481 0
M  V30 14625 H 1379.63 0.601372 -1.95458 0
M  V30 14626 H 1377.78 3.04537 -2.39449 0
M  V30 14627 H 1378.2 2.59011 -4.56085 0
M  V30 14628 H 1379.67 4.0789 -3.71927 0
M  V30 14629 H 1380.15 3.89301 -2.03325 0
M  V30 14630 H 1380.75 2.74467 -3.24881 0
M  V30 14631 N 1379.07 1.38501 0.752011 0
M  V30 14632 C 1380.32 1.34529 1.50819 0
M  V30 14633 C 1380.64 -0.0636155 1.94896 0
M  V30 14634 O 1379.91 -1.01161 1.6776 0
M  V30 14635 H 1378.49 0.49501 0.559441 0
M  V30 14636 H 1381.15 1.73196 0.893822 0
M  V30 14637 H 1380.24 1.99713 2.39835 0
M  V30 14638 N 1380.55 -0.980364 1.23396 0
M  V30 14639 C 1381.79 -1.72421 1.06765 0
M  V30 14640 C 1382.12 -1.90151 -0.394515 0
M  V30 14641 O 1381.4 -1.4538 -1.29209 0
M  V30 14642 C 1381.68 -3.12246 1.79372 0
M  V30 14643 C 1381.54 -3.02087 3.33262 0
M  V30 14644 C 1382.85 -4.11667 1.55624 0
M  V30 14645 H 1379.97 -0.625822 0.389251 0
M  V30 14646 H 1382.62 -1.14132 1.51901 0
M  V30 14647 H 1380.77 -3.62008 1.41004 0
M  V30 14648 H 1382.44 -2.59848 3.81152 0
M  V30 14649 H 1380.68 -2.38592 3.62293 0
M  V30 14650 H 1381.35 -4.01087 3.79254 0
M  V30 14651 H 1383.83 -3.70712 1.88975 0
M  V30 14652 H 1382.7 -5.07593 2.08902 0
M  V30 14653 H 1382.96 -4.39358 0.491601 0
M  V30 14654 N 1382.02 -1.04567 -1.17913 0
M  V30 14655 C 1382.93 -0.651674 -2.25367 0
M  V30 14656 C 1383.95 0.32437 -1.7095 0
M  V30 14657 O 1385.13 0.178039 -2.00612 0
M  V30 14658 C 1382.19 -0.0259452 -3.4669 0
M  V30 14659 C 1381.25 -1.05163 -4.1622 0
M  V30 14660 C 1380.48 -0.45567 -5.31751 0
M  V30 14661 O 1380.71 0.736698 -5.65623 0
M  V30 14662 O 1379.64 -1.18684 -5.90083 0
M  V30 14663 H 1383.47 -1.54704 -2.61344 0
M  V30 14664 H 1381.05 -0.816852 -1.25092 0
M  V30 14665 H 1382.93 0.322126 -4.20167 0
M  V30 14666 H 1381.61 0.843165 -3.12526 0
M  V30 14667 H 1380.52 -1.45159 -3.44789 0
M  V30 14668 H 1381.85 -1.89168 -4.54397 0
M  V30 14669 N 1383.5 1.34231 -0.825823 0
M  V30 14670 C 1384.73 2.02124 -0.427727 0
M  V30 14671 C 1385.14 1.62331 0.971869 0
M  V30 14672 O 1384.48 0.825946 1.64085 0
M  V30 14673 C 1384.54 3.56626 -0.453698 0
M  V30 14674 C 1384.21 4.19752 -1.80713 0
M  V30 14675 C 1385.21 4.40062 -2.76842 0
M  V30 14676 C 1382.89 4.5646 -2.09641 0
M  V30 14677 C 1384.88 4.9621 -4.00069 0
M  V30 14678 C 1382.57 5.12318 -3.33127 0
M  V30 14679 C 1383.57 5.32137 -4.28158 0
M  V30 14680 O 1383.26 5.86811 -5.49462 0
M  V30 14681 H 1382.99 0.654389 -0.169563 0
M  V30 14682 H 1385.54 1.72421 -1.11624 0
M  V30 14683 H 1383.77 3.856 0.291527 0
M  V30 14684 H 1385.46 4.0583 -0.075249 0
M  V30 14685 H 1386.23 4.12064 -2.5579 0
M  V30 14686 H 1382.11 4.40337 -1.36473 0
M  V30 14687 H 1385.65 5.11594 -4.74254 0
M  V30 14688 H 1381.55 5.39746 -3.54041 0
M  V30 14689 H 1382.32 6.05242 -5.51022 0
M  V30 14690 N 1384.98 0.581051 1.46498 0
M  V30 14691 C 1386.2 0.0696654 2.07283 0
M  V30 14692 C 1386.63 -1.22525 1.42721 0
M  V30 14693 O 1385.99 -1.73967 0.510421 0
M  V30 14694 C 1386.04 -0.0843864 3.60501 0
M  V30 14695 O 1385.14 -1.14129 3.96293 0
M  V30 14696 H 1384.48 0.0620572 0.661094 0
M  V30 14697 H 1387.01 0.803522 1.88161 0
M  V30 14698 H 1387.02 -0.29108 4.0696 0
M  V30 14699 H 1385.7 0.861274 4.06884 0
M  V30 14700 H 1384.27 -0.913186 3.61546 0
M  V30 14701 N 1386.46 -1.54343 0.318742 0
M  V30 14702 C 1387.68 -2.05361 -0.290126 0
M  V30 14703 C 1388.11 -1.19362 -1.45376 0
M  V30 14704 O 1387.47 -0.201639 -1.80175 0
M  V30 14705 C 1387.51 -3.53601 -0.707025 0
M  V30 14706 O 1386.62 -3.70561 -1.80992 0
M  V30 14707 H 1385.96 -0.661858 -0.0532933 0
M  V30 14708 H 1388.49 -1.99228 0.46575 0
M  V30 14709 H 1388.5 -3.95782 -0.991005 0
M  V30 14710 H 1387.17 -4.1565 0.144091 0
M  V30 14711 H 1385.75 -3.40286 -1.52513 0
M  V30 14712 N 1387.94 -0.0468143 -1.5753 0
M  V30 14713 C 1389.18 0.631887 -1.94388 0
M  V30 14714 C 1389.54 1.68265 -0.924715 0
M  V30 14715 O 1390.74 2.41511 -1.18008 0
M  V30 14716 C 1389.01 1.21642 -3.36063 0
M  V30 14717 S 1390.57 1.91373 -3.94869 0
M  V30 14718 H 1387.39 0.207594 -0.680019 0
M  V30 14719 H 1389.99 -0.11471 -1.95163 0
M  V30 14720 H 1388.69 0.439479 -4.0804 0
M  V30 14721 H 1388.23 1.99993 -3.38772 0
M  V30 14722 H 1390.24 3.19392 -3.79741 0
M  V30 14723 N 1389.41 1.55964 0.226527 0
M  V30 14724 C 1390.69 1.69528 0.975689 0
M  V30 14725 C 1391.07 0.592635 2.02611 0
M  V30 14726 O 1390.42 -0.401073 2.24953 0
M  V30 14727 C 1390.63 3.10644 1.59063 0
M  V30 14728 C 1391.98 3.69895 2.08478 0
M  V30 14729 O 1393 3.13574 1.68966 0
M  V30 14730 O 1391.86 4.68672 2.81085 0
M  V30 14731 H 1388.95 0.690285 0.455451 0
M  V30 14732 H 1391.5 1.68285 0.218702 0
M  V30 14733 H 1390.27 3.82355 0.831903 0
M  V30 14734 H 1389.9 3.15984 2.41329 0
M  V30 14735 N 1390.89 -0.493031 1.4969 0
M  V30 14736 C 1392.12 -1.27046 1.633 0
M  V30 14737 C 1392.54 -1.86278 0.307534 0
M  V30 14738 O 1391.89 -1.68208 -0.707968 0
M  V30 14739 C 1391.94 -2.39501 2.70779 0
M  V30 14740 O 1391.66 -1.82702 3.98185 0
M  V30 14741 C 1393.17 -3.30744 2.95166 0
M  V30 14742 H 1390.39 -0.385042 0.54953 0
M  V30 14743 H 1392.93 -0.590998 1.95774 0
M  V30 14744 H 1391.08 -3.03263 2.41061 0
M  V30 14745 H 1391.5 -2.56588 4.57452 0
M  V30 14746 H 1392.97 -4.05912 3.74085 0
M  V30 14747 H 1393.45 -3.88217 2.05387 0
M  V30 14748 H 1394.06 -2.72741 3.26332 0
M  V30 14749 N 1392.37 -1.38898 -0.744656 0
M  V30 14750 C 1393.62 -1.34909 -1.49941 0
M  V30 14751 C 1393.93 0.0553979 -1.95522 0
M  V30 14752 O 1395.14 0.21785 -2.70625 0
M  V30 14753 C 1393.59 -2.36954 -2.70889 0
M  V30 14754 C 1393.2 -3.83069 -2.32298 0
M  V30 14755 C 1394.95 -2.42024 -3.48747 0
M  V30 14756 C 1392.85 -4.76777 -3.4991 0
M  V30 14757 H 1391.78 -0.501512 -0.563029 0
M  V30 14758 H 1394.43 -1.64497 -0.813201 0
M  V30 14759 H 1392.82 -2.00421 -3.41537 0
M  V30 14760 H 1393.99 -4.28588 -1.69259 0
M  V30 14761 H 1392.31 -3.81202 -1.67554 0
M  V30 14762 H 1394.9 -3.0923 -4.36212 0
M  V30 14763 H 1395.25 -1.44184 -3.90534 0
M  V30 14764 H 1395.78 -2.774 -2.85121 0
M  V30 14765 H 1392.52 -5.75844 -3.13183 0
M  V30 14766 H 1392.04 -4.35944 -4.11962 0
M  V30 14767 H 1393.72 -4.95219 -4.16374 0
M  V30 14768 N 1393.85 0.973806 -1.23914 0
M  V30 14769 C 1394.81 2.04892 -1.02723 0
M  V30 14770 C 1395.81 1.60795 0.0132972 0
M  V30 14771 O 1397 1.72714 -0.227084 0
M  V30 14772 C 1394.13 3.36341 -0.555667 0
M  V30 14773 H 1395.33 2.25124 -1.98139 0
M  V30 14774 H 1392.88 1.14817 -1.06051 0
M  V30 14775 H 1393.61 3.21799 0.40197 0
M  V30 14776 H 1393.4 3.69689 -1.30661 0
M  V30 14777 H 1394.89 4.15398 -0.428248 0
M  V30 14778 N 1395.33 1.05191 1.17357 0
M  V30 14779 C 1396.27 0.652868 2.21374 0
M  V30 14780 C 1397.24 -0.344974 1.62478 0
M  V30 14781 O 1398.43 -0.23639 1.8933 0
M  V30 14782 C 1395.57 0.0337737 3.45083 0
M  V30 14783 C 1394.68 1.08045 4.18271 0
M  V30 14784 C 1393.82 0.428673 5.29468 0
M  V30 14785 C 1392.86 1.45966 5.94441 0
M  V30 14786 N 1391.99 0.832042 6.97152 0
M  V30 14787 H 1396.83 1.54434 2.54861 0
M  V30 14788 H 1394.37 0.772365 1.25192 0
M  V30 14789 H 1396.33 -0.342607 4.15791 0
M  V30 14790 H 1394.96 -0.821159 3.12181 0
M  V30 14791 H 1394.01 1.57466 3.46278 0
M  V30 14792 H 1395.32 1.86305 4.62701 0
M  V30 14793 H 1394.48 -0.00129344 6.067 0
M  V30 14794 H 1393.21 -0.385919 4.86171 0
M  V30 14795 H 1392.22 1.89964 5.1594 0
M  V30 14796 H 1393.44 2.27615 6.39819 0
M  V30 14797 H 1391.39 0.0379612 6.55989 0
M  V30 14798 H 1391.31 1.55219 7.39894 0
M  V30 14799 H 1392.58 0.42685 7.7833 0
M  V30 14800 N 1396.8 -1.33791 0.83293 0
M  V30 14801 C 1398.05 -1.97233 0.422127 0
M  V30 14802 C 1398.37 -1.66738 -1.02264 0
M  V30 14803 O 1399.57 -2.23747 -1.53783 0
M  V30 14804 C 1398.03 -3.5295 0.703872 0
M  V30 14805 C 1397.64 -3.92329 2.16292 0
M  V30 14806 C 1399.38 -4.22973 0.359727 0
M  V30 14807 C 1397.29 -5.40999 2.38903 0
M  V30 14808 H 1396.22 -0.738082 0.154112 0
M  V30 14809 H 1398.87 -1.52494 1.02068 0
M  V30 14810 H 1397.25 -3.95985 0.0350184 0
M  V30 14811 H 1398.42 -3.6037 2.87176 0
M  V30 14812 H 1396.74 -3.35271 2.46947 0
M  V30 14813 H 1399.34 -5.32297 0.506366 0
M  V30 14814 H 1399.68 -4.10428 -0.696743 0
M  V30 14815 H 1400.21 -3.85449 0.983568 0
M  V30 14816 H 1396.95 -5.58541 3.43093 0
M  V30 14817 H 1396.47 -5.74438 1.72573 0
M  V30 14818 H 1398.15 -6.07809 2.2176 0
M  V30 14819 N 1398.28 -0.588812 -1.46187 0
M  V30 14820 C 1399.51 -0.0806571 -2.07243 0
M  V30 14821 C 1399.93 1.21766 -1.43369 0
M  V30 14822 O 1399.29 1.73694 -0.51964 0
M  V30 14823 C 1399.34 0.065267 -3.60541 0
M  V30 14824 O 1398.44 1.12026 -3.96893 0
M  V30 14825 H 1397.78 -0.0655622 -0.660755 0
M  V30 14826 H 1400.31 -0.813489 -1.87733 0
M  V30 14827 H 1400.32 0.269494 -4.07109 0
M  V30 14828 H 1399 -0.88284 -4.06422 0
M  V30 14829 H 1397.58 0.894 -3.62025 0
M  V30 14830 N 1399.76 1.54172 -0.326923 0
M  V30 14831 C 1400.99 2.05044 0.276508 0
M  V30 14832 C 1401.4 1.20288 1.45521 0
M  V30 14833 O 1400.76 0.234324 1.80989 0
M  V30 14834 C 1400.81 3.54505 0.707714 0
M  V30 14835 O 1400.53 4.36042 -0.424098 0
M  V30 14836 C 1402.03 4.21482 1.3736 0
M  V30 14837 H 1399.25 0.668632 0.0563273 0
M  V30 14838 H 1401.8 1.98929 -0.474087 0
M  V30 14839 H 1399.95 3.60896 1.40828 0
M  V30 14840 H 1400.37 5.24433 -0.0836846 0
M  V30 14841 H 1401.84 5.27501 1.62623 0
M  V30 14842 H 1402.32 3.72802 2.32196 0
M  V30 14843 H 1402.92 4.19238 0.715526 0
M  V30 14844 N 1401.24 0.0551678 1.57503 0
M  V30 14845 C 1402.52 -0.657808 1.84207 0
M  V30 14846 C 1402.9 -1.88798 0.944372 0
M  V30 14847 O 1402.24 -2.28499 0.00641728 0
M  V30 14848 C 1402.45 -1.0113 3.34026 0
M  V30 14849 C 1403.8 -1.39189 4.01138 0
M  V30 14850 O 1404.83 -1.10353 3.38675 0
M  V30 14851 O 1403.68 -1.93023 5.11277 0
M  V30 14852 H 1400.78 -0.325084 0.760427 0
M  V30 14853 H 1403.32 0.0848352 1.69488 0
M  V30 14854 H 1402.1 -0.13688 3.91061 0
M  V30 14855 H 1401.72 -1.81126 3.53948 0
M  V30 14856 N 1402.72 -1.56081 -0.218252 0
M  V30 14857 C 1403.99 -1.70043 -0.966684 0
M  V30 14858 C 1404.37 -0.603372 -2.02293 0
M  V30 14859 O 1403.72 0.389138 -2.25162 0
M  V30 14860 C 1403.93 -3.11484 -1.57413 0
M  V30 14861 C 1405.28 -3.70995 -2.06513 0
M  V30 14862 O 1406.3 -3.14466 -1.67301 0
M  V30 14863 O 1405.16 -4.70156 -2.78596 0
M  V30 14864 H 1402.26 -0.692691 -0.451784 0
M  V30 14865 H 1404.8 -1.68398 -0.209774 0
M  V30 14866 H 1403.57 -3.8279 -0.811614 0
M  V30 14867 H 1403.2 -3.1726 -2.3965 0
M  V30 14868 N 1404.2 0.485086 -1.49949 0
M  V30 14869 C 1405.13 1.60306 -1.62411 0
M  V30 14870 C 1406.11 1.5558 -0.47262 0
M  V30 14871 O 1407.29 1.75406 -0.690285 0
M  V30 14872 C 1404.42 2.98859 -1.59377 0
M  V30 14873 C 1403.46 3.2179 -2.79917 0
M  V30 14874 S 1404.3 3.03194 -4.41399 0
M  V30 14875 C 1405.45 4.44114 -4.41037 0
M  V30 14876 H 1405.69 1.49493 -2.56981 0
M  V30 14877 H 1403.22 0.671413 -1.39037 0
M  V30 14878 H 1405.18 3.78744 -1.58313 0
M  V30 14879 H 1403.84 3.07073 -0.660673 0
M  V30 14880 H 1403.03 4.22975 -2.74059 0
M  V30 14881 H 1402.63 2.49653 -2.78477 0
M  V30 14882 H 1404.92 5.36496 -4.13737 0
M  V30 14883 H 1405.87 4.55019 -5.42553 0
M  V30 14884 H 1406.28 4.25538 -3.70914 0
M  V30 14885 N 1405.67 1.39291 0.737279 0
M  V30 14886 C 1406.62 1.37829 1.85127 0
M  V30 14887 C 1407.59 0.238321 1.64381 0
M  V30 14888 O 1408.78 0.433081 1.8582 0
M  V30 14889 C 1405.92 1.22531 3.22615 0
M  V30 14890 C 1405.03 2.46052 3.55081 0
M  V30 14891 C 1404.16 2.2336 4.81958 0
M  V30 14892 C 1403.2 3.42569 5.0726 0
M  V30 14893 N 1402.34 3.19209 6.2534 0
M  V30 14894 H 1407.18 2.33056 1.85712 0
M  V30 14895 H 1404.72 1.15772 0.907484 0
M  V30 14896 H 1406.67 1.11673 4.01976 0
M  V30 14897 H 1405.3 0.30934 3.21314 0
M  V30 14898 H 1404.36 2.67521 2.70438 0
M  V30 14899 H 1405.67 3.3485 3.69698 0
M  V30 14900 H 1404.82 2.09732 5.69295 0
M  V30 14901 H 1403.56 1.31953 4.6951 0
M  V30 14902 H 1402.57 3.56698 4.18386 0
M  V30 14903 H 1403.79 4.34874 5.21595 0
M  V30 14904 H 1401.74 2.30464 6.14184 0
M  V30 14905 H 1401.65 4.01562 6.40534 0
M  V30 14906 H 1402.92 3.09269 7.15523 0
M  V30 14907 N 1407.15 -0.967221 1.24429 0
M  V30 14908 C 1408.1 -2.06187 1.03709 0
M  V30 14909 C 1409.07 -1.66025 -0.0497665 0
M  V30 14910 O 1410.25 -1.90511 0.104951 0
M  V30 14911 C 1407.39 -3.38952 0.648477 0
M  V30 14912 C 1406.51 -3.92306 1.80886 0
M  V30 14913 C 1405.64 -5.13342 1.36579 0
M  V30 14914 C 1404.68 -5.58893 2.49609 0
M  V30 14915 N 1403.82 -6.71148 2.06165 0
M  V30 14916 H 1408.66 -2.23244 1.97399 0
M  V30 14917 H 1406.19 -1.09415 0.983192 0
M  V30 14918 H 1408.15 -4.15237 0.40419 0
M  V30 14919 H 1406.78 -3.21819 -0.25142 0
M  V30 14920 H 1405.83 -3.12656 2.1668 0
M  V30 14921 H 1407.15 -4.22071 2.65815 0
M  V30 14922 H 1406.3 -5.97003 1.0804 0
M  V30 14923 H 1405.04 -4.85262 0.487051 0
M  V30 14924 H 1404.04 -4.73805 2.78906 0
M  V30 14925 H 1405.27 -5.88987 3.3804 0
M  V30 14926 H 1403.22 -6.44802 1.20691 0
M  V30 14927 H 1403.13 -7.00366 2.84647 0
M  V30 14928 H 1404.4 -7.5825 1.80769 0
M  V30 14929 N 1408.63 -1.05812 -1.16797 0
M  V30 14930 C 1409.88 -0.773066 -1.87487 0
M  V30 14931 C 1410.21 0.698471 -1.81204 0
M  V30 14932 O 1409.48 1.51129 -1.22434 0
M  V30 14933 C 1409.77 -1.2621 -3.37258 0
M  V30 14934 C 1409.62 -2.79704 -3.52258 0
M  V30 14935 C 1410.94 -0.866104 -4.31494 0
M  V30 14936 H 1408.06 -0.282304 -0.680789 0
M  V30 14937 H 1410.7 -1.3132 -1.37314 0
M  V30 14938 H 1408.85 -0.802608 -3.80119 0
M  V30 14939 H 1410.52 -3.33824 -3.1837 0
M  V30 14940 H 1408.76 -3.18673 -2.94329 0
M  V30 14941 H 1409.44 -3.08985 -4.57419 0
M  V30 14942 H 1411.91 -1.26178 -3.96508 0
M  V30 14943 H 1410.79 -1.23581 -5.34807 0
M  V30 14944 H 1411.05 0.229391 -4.41504 0
M  V30 14945 N 1410.11 1.33347 -0.840014 0
M  V30 14946 C 1411.36 1.97354 -0.435412 0
M  V30 14947 C 1411.68 1.66866 1.009 0
M  V30 14948 O 1410.95 0.968186 1.70303 0
M  V30 14949 H 1409.53 0.730096 -0.158017 0
M  V30 14950 H 1412.19 1.6269 -1.07322 0
M  V30 14951 H 1411.28 3.0688 -0.56841 0
M  V30 14952 N 1411.59 0.596556 1.45873 0
M  V30 14953 C 1412.83 0.0875879 2.02611 0
M  V30 14954 C 1413.16 -1.27438 1.46538 0
M  V30 14955 O 1412.44 -1.83815 0.635779 0
M  V30 14956 C 1412.72 0.0367394 3.60081 0
M  V30 14957 C 1412.58 1.42859 4.26511 0
M  V30 14958 C 1413.89 -0.656795 4.35171 0
M  V30 14959 H 1411.01 0.0333031 0.736247 0
M  V30 14960 H 1413.66 0.766413 1.73857 0
M  V30 14961 H 1411.81 -0.541345 3.8471 0
M  V30 14962 H 1413.48 2.0529 4.13102 0
M  V30 14963 H 1411.72 1.99243 3.85337 0
M  V30 14964 H 1412.39 1.34535 5.35354 0
M  V30 14965 H 1414.87 -0.165553 4.15771 0
M  V30 14966 H 1413.74 -0.661445 5.449 0
M  V30 14967 H 1414 -1.72079 4.07236 0
M  V30 14968 N 1413.06 -1.53996 0.335095 0
M  V30 14969 C 1414.29 -2.05188 -0.26563 0
M  V30 14970 C 1414.71 -1.21058 -1.44881 0
M  V30 14971 O 1414.06 -0.243919 -1.80863 0
M  V30 14972 C 1414.11 -3.54875 -0.688904 0
M  V30 14973 O 1413.84 -4.35811 0.447217 0
M  V30 14974 C 1415.34 -4.22204 -1.35123 0
M  V30 14975 H 1412.56 -0.668921 -0.0527806 0
M  V30 14976 H 1415.1 -1.98675 0.48463 0
M  V30 14977 H 1413.26 -3.61638 -1.38912 0
M  V30 14978 H 1413.67 -5.24381 0.111495 0
M  V30 14979 H 1415.14 -5.28356 -1.59823 0
M  V30 14980 H 1415.62 -3.74029 -2.30216 0
M  V30 14981 H 1416.23 -4.19611 -0.693283 0
M  V30 14982 N 1414.54 -0.0635198 -1.57472 0
M  V30 14983 C 1415.79 0.608384 -1.93459 0
M  V30 14984 C 1416.12 1.6976 -0.943141 0
M  V30 14985 O 1415.4 1.94478 0.0289567 0
M  V30 14986 C 1415.68 1.19302 -3.39763 0
M  V30 14987 C 1415.53 0.11102 -4.49663 0
M  V30 14988 C 1416.85 2.101 -3.86712 0
M  V30 14989 H 1413.97 0.219688 -0.703496 0
M  V30 14990 H 1416.61 -0.127803 -1.8957 0
M  V30 14991 H 1414.76 1.82044 -3.43209 0
M  V30 14992 H 1416.43 -0.521606 -4.58342 0
M  V30 14993 H 1414.68 -0.559408 -4.30178 0
M  V30 14994 H 1415.35 0.560332 -5.49149 0
M  V30 14995 H 1417.82 1.57305 -3.8522 0
M  V30 14996 H 1416.7 2.47945 -4.89708 0
M  V30 14997 H 1416.96 3.00603 -3.24177 0
M  V30 14998 N 1416.02 1.56195 0.209972 0
M  V30 14999 C 1417.27 1.80011 0.93402 0
M  V30 15000 C 1417.6 0.635109 1.83521 0
M  V30 15001 O 1416.87 -0.365099 1.91043 0
M  V30 15002 C 1417.16 3.13989 1.76304 0
M  V30 15003 C 1417.01 4.40956 0.887567 0
M  V30 15004 C 1418.33 3.44514 2.73857 0
M  V30 15005 H 1415.45 0.654859 0.338125 0
M  V30 15006 H 1418.09 1.88921 0.20221 0
M  V30 15007 H 1416.24 3.06524 2.38695 0
M  V30 15008 H 1417.91 4.60452 0.279507 0
M  V30 15009 H 1416.15 4.33368 0.193533 0
M  V30 15010 H 1416.83 5.31164 1.50228 0
M  V30 15011 H 1419.3 3.52182 2.216 0
M  V30 15012 H 1418.18 4.39407 3.28957 0
M  V30 15013 H 1418.44 2.6726 3.52171 0
M  V30 15014 N 1417.5 -0.477127 1.50204 0
M  V30 15015 C 1418.75 -1.22722 1.60573 0
M  V30 15016 C 1419.07 -1.92595 0.305326 0
M  V30 15017 O 1418.34 -1.83836 -0.676842 0
M  V30 15018 H 1416.92 -0.455973 0.591691 0
M  V30 15019 H 1419.58 -0.550915 1.86952 0
M  V30 15020 H 1418.67 -1.97837 2.41385 0
M  V30 15021 N 1418.98 -1.3968 -0.729882 0
M  V30 15022 C 1420.39 -1.33184 -1.30839 0
M  V30 15023 C 1420.74 0.00141129 -1.962 0
M  V30 15024 O 1419.86 0.903523 -1.96635 0
M  V30 15025 C 1420.46 -2.41211 -2.37913 0
M  V30 15026 C 1419.02 -2.3822 -2.91424 0
M  V30 15027 C 1418.16 -2.22832 -1.65049 0
M  V30 15028 H 1421.12 -1.49694 -0.527023 0
M  V30 15029 H 1421.14 -2.08294 -3.18424 0
M  V30 15030 H 1420.65 -3.38234 -1.90313 0
M  V30 15031 H 1418.75 -1.4485 -3.43292 0
M  V30 15032 H 1418.86 -3.33271 -3.44191 0
M  V30 15033 H 1417.23 -1.70095 -1.89578 0
M  V30 15034 H 1418.01 -3.21832 -1.19494 0
M  V30 15035 N 1420.45 0.960609 -1.2494 0
M  V30 15036 C 1421.39 2.05948 -1.00588 0
M  V30 15037 C 1422.4 1.62777 0.0271261 0
M  V30 15038 O 1423.59 1.77252 -0.210739 0
M  V30 15039 C 1420.69 3.35228 -0.497521 0
M  V30 15040 C 1419.86 4.0727 -1.59531 0
M  V30 15041 C 1418.92 5.14822 -1.08836 0
M  V30 15042 O 1417.95 5.40602 -1.78153 0
M  V30 15043 N 1419.15 5.80453 0.0735067 0
M  V30 15044 H 1421.91 2.27411 -1.95204 0
M  V30 15045 H 1419.47 1.12874 -1.16065 0
M  V30 15046 H 1421.47 4.04447 -0.142979 0
M  V30 15047 H 1420.04 3.10583 0.354546 0
M  V30 15048 H 1419.26 3.32231 -2.12171 0
M  V30 15049 H 1420.54 4.52161 -2.33299 0
M  V30 15050 H 1419.94 5.6192 0.652848 0
M  V30 15051 H 1418.5 6.50754 0.369132 0
M  V30 15052 N 1421.93 1.0643 1.16234 0
M  V30 15053 C 1422.88 0.676311 2.20669 0
M  V30 15054 C 1423.85 -0.327721 1.62835 0
M  V30 15055 O 1425.03 -0.216296 1.8957 0
M  V30 15056 C 1422.17 0.0703726 3.45028 0
M  V30 15057 C 1421.29 1.12475 4.17101 0
M  V30 15058 C 1420.42 0.484806 5.28983 0
M  V30 15059 C 1419.46 1.52262 5.9286 0
M  V30 15060 N 1418.6 0.905938 6.96231 0
M  V30 15061 H 1423.44 1.57129 2.53209 0
M  V30 15062 H 1420.98 0.7856 1.24365 0
M  V30 15063 H 1422.93 -0.298488 4.16131 0
M  V30 15064 H 1421.56 -0.788002 3.13034 0
M  V30 15065 H 1420.62 1.6113 3.44589 0
M  V30 15066 H 1421.93 1.91202 4.60698 0
M  V30 15067 H 1421.08 0.0630553 6.06667 0
M  V30 15068 H 1419.82 -0.334332 4.86553 0
M  V30 15069 H 1418.83 1.95425 5.13896 0
M  V30 15070 H 1420.05 2.34388 6.37369 0
M  V30 15071 H 1418 0.107536 6.55912 0
M  V30 15072 H 1417.91 1.63058 7.38206 0
M  V30 15073 H 1419.18 0.509378 7.77834 0
M  V30 15074 N 1423.41 -1.329 0.847073 0
M  V30 15075 C 1424.36 -2.29044 0.284199 0
M  V30 15076 C 1425.33 -1.54706 -0.604591 0
M  V30 15077 O 1426.51 -1.82966 -0.541116 0
M  V30 15078 C 1423.65 -3.4104 -0.527822 0
M  V30 15079 C 1422.77 -4.30273 0.385907 0
M  V30 15080 C 1421.9 -5.29391 -0.438009 0
M  V30 15081 C 1420.94 -6.10265 0.473596 0
M  V30 15082 N 1420.08 -7.01403 -0.312684 0
M  V30 15083 H 1424.92 -2.76582 1.10935 0
M  V30 15084 H 1422.45 -1.36085 0.558508 0
M  V30 15085 H 1424.41 -4.04686 -1.01417 0
M  V30 15086 H 1423.04 -2.94673 -1.31787 0
M  V30 15087 H 1422.09 -3.67275 0.99061 0
M  V30 15088 H 1423.41 -4.86837 1.08585 0
M  V30 15089 H 1422.56 -5.98604 -0.987842 0
M  V30 15090 H 1421.3 -4.73424 -1.17135 0
M  V30 15091 H 1420.3 -5.39963 1.03537 0
M  V30 15092 H 1421.53 -6.68316 1.20543 0
M  V30 15093 H 1419.47 -6.47875 -1.02926 0
M  V30 15094 H 1419.39 -7.55286 0.328376 0
M  V30 15095 H 1420.66 -7.74912 -0.844489 0
M  V30 15096 N 1424.89 -0.604284 -1.45555 0
M  V30 15097 C 1426.14 -0.0957836 -2.01472 0
M  V30 15098 C 1426.45 1.28016 -1.47889 0
M  V30 15099 O 1427.66 1.88121 -1.95762 0
M  V30 15100 C 1426.11 -0.120566 -3.59698 0
M  V30 15101 C 1425.72 -1.49616 -4.22278 0
M  V30 15102 C 1427.46 0.332865 -4.23193 0
M  V30 15103 C 1425.37 -1.4775 -5.72646 0
M  V30 15104 H 1424.3 -0.0320399 -0.753319 0
M  V30 15105 H 1426.95 -0.759125 -1.67061 0
M  V30 15106 H 1425.33 0.609365 -3.91283 0
M  V30 15107 H 1426.51 -2.24753 -4.02272 0
M  V30 15108 H 1424.82 -1.89141 -3.70965 0
M  V30 15109 H 1427.42 0.365951 -5.33446 0
M  V30 15110 H 1427.76 1.35487 -3.93635 0
M  V30 15111 H 1428.3 -0.343692 -3.96313 0
M  V30 15112 H 1425.04 -2.47701 -6.06898 0
M  V30 15113 H 1424.56 -0.768659 -5.94854 0
M  V30 15114 H 1426.23 -1.19971 -6.3578 0
M  V30 15115 N 1426.37 1.53816 -0.343257 0
M  V30 15116 C 1427.62 2.0009 0.254346 0
M  V30 15117 C 1427.93 1.23502 1.51679 0
M  V30 15118 O 1429.13 1.60251 2.19162 0
M  V30 15119 C 1427.59 3.56357 0.503775 0
M  V30 15120 C 1427.2 4.418 -0.742754 0
M  V30 15121 C 1428.94 4.11046 1.06025 0
M  V30 15122 C 1426.85 5.89576 -0.46414 0
M  V30 15123 H 1425.78 0.747496 0.0988189 0
M  V30 15124 H 1428.43 1.77679 -0.45854 0
M  V30 15125 H 1426.81 3.74833 1.27736 0
M  V30 15126 H 1427.99 4.35099 -1.51742 0
M  V30 15127 H 1426.3 3.98101 -1.22085 0
M  V30 15128 H 1428.9 5.19063 1.28365 0
M  V30 15129 H 1429.24 3.64247 2.01568 0
M  V30 15130 H 1429.77 3.9628 0.347384 0
M  V30 15131 H 1426.51 6.40608 -1.38928 0
M  V30 15132 H 1426.03 5.99181 0.272441 0
M  V30 15133 H 1427.71 6.46949 -0.0812761 0
M  V30 15134 N 1427.84 0.0718701 1.57436 0
M  V30 15135 C 1429.07 -0.609701 1.98236 0
M  V30 15136 C 1429.49 -1.6235 0.949959 0
M  V30 15137 O 1428.85 -1.81103 -0.0844281 0
M  V30 15138 C 1428.9 -1.2547 3.38068 0
M  V30 15139 O 1428 -2.37055 3.37459 0
M  V30 15140 H 1427.35 -0.15679 0.645223 0
M  V30 15141 H 1429.88 0.146407 2.04076 0
M  V30 15142 H 1429.89 -1.60152 3.75254 0
M  V30 15143 H 1428.56 -0.511842 4.12738 0
M  V30 15144 H 1427.14 -2.04165 3.12043 0
M  V30 15145 N 1429.32 -1.56304 -0.201686 0
M  V30 15146 C 1430.55 -1.84692 -0.943583 0
M  V30 15147 C 1430.97 -0.654649 -1.7634 0
M  V30 15148 O 1430.33 0.396586 -1.76909 0
M  V30 15149 C 1430.38 -3.11251 -1.82085 0
M  V30 15150 O 1429.48 -2.9134 -2.91881 0
M  V30 15151 H 1428.82 -0.608351 -0.266092 0
M  V30 15152 H 1431.35 -2.0353 -0.208992 0
M  V30 15153 H 1431.36 -3.41874 -2.2268 0
M  V30 15154 H 1430.04 -3.97652 -1.21844 0
M  V30 15155 H 1428.62 -2.72 -2.55089 0
M  V30 15156 N 1430.8 0.469154 -1.50455 0
M  V30 15157 C 1432.05 1.21788 -1.60781 0
M  V30 15158 C 1432.36 1.93054 -0.314576 0
M  V30 15159 O 1433.57 2.69873 -0.296773 0
M  V30 15160 C 1432.02 2.21305 -2.83817 0
M  V30 15161 C 1431.63 1.55833 -4.20024 0
M  V30 15162 C 1433.38 2.96808 -3.03489 0
M  V30 15163 C 1431.28 2.53648 -5.34244 0
M  V30 15164 H 1430.21 0.45827 -0.598752 0
M  V30 15165 H 1432.86 0.488159 -1.76888 0
M  V30 15166 H 1431.25 2.97577 -2.61273 0
M  V30 15167 H 1432.42 0.853371 -4.52829 0
M  V30 15168 H 1430.74 0.926046 -4.05972 0
M  V30 15169 H 1433.33 3.70017 -3.85994 0
M  V30 15170 H 1433.68 3.56307 -2.15293 0
M  V30 15171 H 1434.21 2.27648 -3.26223 0
M  V30 15172 H 1430.95 1.98885 -6.246 0
M  V30 15173 H 1430.47 3.22291 -5.05854 0
M  V30 15174 H 1432.15 3.15438 -5.64897 0
M  V30 15175 N 1432.28 1.40065 0.722464 0
M  V30 15176 C 1433.23 1.39784 1.83655 0
M  V30 15177 C 1434.2 0.255743 1.64119 0
M  V30 15178 O 1435.38 0.452766 1.8535 0
M  V30 15179 C 1432.52 1.25946 3.21297 0
M  V30 15180 C 1431.63 2.49805 3.52451 0
M  V30 15181 C 1430.77 2.2846 4.79562 0
M  V30 15182 C 1429.81 3.4793 5.03598 0
M  V30 15183 N 1428.94 3.25823 6.21919 0
M  V30 15184 H 1433.78 2.35013 1.83229 0
M  V30 15185 H 1431.32 1.16728 0.895154 0
M  V30 15186 H 1433.28 1.15931 4.00769 0
M  V30 15187 H 1431.91 0.343402 3.20968 0
M  V30 15188 H 1430.96 2.70375 2.67585 0
M  V30 15189 H 1432.27 3.38753 3.66126 0
M  V30 15190 H 1431.43 2.15758 5.67039 0
M  V30 15191 H 1430.17 1.36926 4.68084 0
M  V30 15192 H 1429.17 3.61116 4.14579 0
M  V30 15193 H 1430.4 4.40382 5.16953 0
M  V30 15194 H 1428.34 2.36965 6.11705 0
M  V30 15195 H 1428.26 4.08333 6.36239 0
M  V30 15196 H 1429.53 3.16841 7.12202 0
M  V30 15197 N 1433.76 -0.95397 1.25448 0
M  V30 15198 C 1434.72 -2.03231 1.0597 0
M  V30 15199 C 1435.72 -1.60795 0.0122855 0
M  V30 15200 O 1436.91 -1.7233 0.254533 0
M  V30 15201 C 1434.04 -3.35414 0.609105 0
M  V30 15202 H 1435.24 -2.21943 2.01696 0
M  V30 15203 H 1432.79 -1.13115 1.07864 0
M  V30 15204 H 1433.52 -3.22398 -0.350723 0
M  V30 15205 H 1433.31 -3.67564 1.36526 0
M  V30 15206 H 1434.8 -4.14664 0.49428 0
M  V30 15207 N 1435.24 -1.07045 -1.15668 0
M  V30 15208 C 1436.17 -0.709413 -2.22463 0
M  V30 15209 C 1437.15 0.30169 -1.67403 0
M  V30 15210 O 1438.33 0.175131 -1.93409 0
M  V30 15211 C 1435.46 -0.103121 -3.47147 0
M  V30 15212 C 1434.42 -1.04103 -4.15146 0
M  V30 15213 C 1433.74 -0.297656 -5.33871 0
M  V30 15214 C 1435.04 -2.37332 -4.65264 0
M  V30 15215 H 1436.74 -1.60227 -2.52918 0
M  V30 15216 H 1434.28 -0.771846 -1.21567 0
M  V30 15217 H 1436.23 0.161371 -4.21091 0
M  V30 15218 H 1434.96 0.824792 -3.16014 0
M  V30 15219 H 1433.62 -1.2904 -3.43139 0
M  V30 15220 H 1433.27 0.633618 -4.98993 0
M  V30 15221 H 1432.97 -0.922789 -5.80309 0
M  V30 15222 H 1434.49 -0.0408892 -6.10586 0
M  V30 15223 H 1435.9 -2.1674 -5.30751 0
M  V30 15224 H 1434.3 -2.95412 -5.22352 0
M  V30 15225 H 1435.37 -2.99859 -3.81068 0
M  V30 15226 N 1436.71 1.32449 -0.85411 0
M  V30 15227 C 1437.62 2.32658 -0.301221 0
M  V30 15228 C 1438.64 1.64025 0.580673 0
M  V30 15229 O 1439.82 1.95568 0.481172 0
M  V30 15230 C 1436.88 3.43049 0.501803 0
M  V30 15231 C 1435.94 4.27374 -0.406166 0
M  V30 15232 C 1435.17 5.32494 0.358627 0
M  V30 15233 O 1435.4 5.4783 1.58865 0
M  V30 15234 O 1434.33 6.0127 -0.275291 0
M  V30 15235 H 1438.16 2.81838 -1.13143 0
M  V30 15236 H 1435.74 1.36063 -0.617032 0
M  V30 15237 H 1437.62 4.10375 0.957608 0
M  V30 15238 H 1436.3 2.9606 1.30882 0
M  V30 15239 H 1435.21 3.6286 -0.910136 0
M  V30 15240 H 1436.54 4.77887 -1.17835 0
M  V30 15241 N 1438.19 0.611994 1.45232 0
M  V30 15242 C 1439.42 0.115409 2.06578 0
M  V30 15243 C 1439.83 -1.20206 1.45588 0
M  V30 15244 O 1439.19 -1.73315 0.571668 0
M  V30 15245 C 1439.24 -0.0259943 3.61491 0
M  V30 15246 O 1438.96 1.23936 4.20204 0
M  V30 15247 C 1440.46 -0.553522 4.39831 0
M  V30 15248 H 1437.68 0.0708656 0.667247 0
M  V30 15249 H 1440.23 0.840977 1.86408 0
M  V30 15250 H 1438.38 -0.701909 3.80988 0
M  V30 15251 H 1438.8 1.07187 5.13431 0
M  V30 15252 H 1440.27 -0.601536 5.48713 0
M  V30 15253 H 1440.75 -1.57671 4.09923 0
M  V30 15254 H 1441.35 0.0884954 4.25208 0
M  V30 15255 N 1439.67 -1.53632 0.351409 0
M  V30 15256 C 1440.6 -2.2284 -0.536204 0
M  V30 15257 C 1441.61 -1.23765 -1.05764 0
M  V30 15258 O 1442.8 -1.50073 -0.966449 0
M  V30 15259 C 1439.9 -2.9013 -1.75151 0
M  V30 15260 C 1439.08 -4.15588 -1.36401 0
M  V30 15261 C 1438.14 -4.66217 -2.43984 0
M  V30 15262 O 1437.16 -5.3024 -2.06964 0
M  V30 15263 N 1438.36 -4.42817 -3.75358 0
M  V30 15264 H 1441.13 -2.99647 0.0565368 0
M  V30 15265 H 1438.69 -1.60942 0.175905 0
M  V30 15266 H 1440.68 -3.20913 -2.4657 0
M  V30 15267 H 1439.25 -2.16862 -2.25144 0
M  V30 15268 H 1438.47 -3.91264 -0.480258 0
M  V30 15269 H 1439.76 -4.97179 -1.08121 0
M  V30 15270 H 1439.16 -3.9163 -4.08218 0
M  V30 15271 H 1437.71 -4.78186 -4.42924 0
M  V30 15272 N 1441.15 -0.0802183 -1.57396 0
M  V30 15273 C 1442.37 0.599179 -1.98556 0
M  V30 15274 C 1442.8 1.61844 -0.958555 0
M  V30 15275 O 1442.16 1.81146 0.0748226 0
M  V30 15276 C 1442.2 1.23675 -3.38728 0
M  V30 15277 O 1441.31 2.35262 -3.38712 0
M  V30 15278 H 1440.65 0.153366 -0.646045 0
M  V30 15279 H 1443.18 -0.157227 -2.03995 0
M  V30 15280 H 1443.19 1.5816 -3.76098 0
M  V30 15281 H 1441.86 0.489946 -4.13004 0
M  V30 15282 H 1440.44 2.02507 -3.13122 0
M  V30 15283 N 1442.63 1.56409 0.193394 0
M  V30 15284 C 1443.57 1.94681 1.23968 0
M  V30 15285 C 1444.54 0.807634 1.45143 0
M  V30 15286 O 1445.73 1.06593 1.58248 0
M  V30 15287 C 1442.87 2.29306 2.57901 0
M  V30 15288 C 1441.98 3.56296 2.4429 0
M  V30 15289 C 1441.12 3.80235 3.70938 0
M  V30 15290 C 1440.15 5.00645 3.52167 0
M  V30 15291 N 1439.29 5.20829 4.70831 0
M  V30 15292 H 1444.13 2.83884 0.906298 0
M  V30 15293 H 1441.67 1.40486 0.436146 0
M  V30 15294 H 1443.63 2.47398 3.35932 0
M  V30 15295 H 1442.26 1.43241 2.89278 0
M  V30 15296 H 1441.31 3.46241 1.57547 0
M  V30 15297 H 1442.62 4.44483 2.26354 0
M  V30 15298 H 1441.77 3.98575 4.57408 0
M  V30 15299 H 1440.51 2.90381 3.91829 0
M  V30 15300 H 1439.52 4.82225 2.64081 0
M  V30 15301 H 1440.74 5.92009 3.32719 0
M  V30 15302 H 1438.69 4.33923 4.91983 0
M  V30 15303 H 1438.61 6.03199 4.55726 0
M  V30 15304 H 1439.87 5.4363 5.58648 0
M  V30 15305 N 1444.1 -0.461169 1.50702 0
M  V30 15306 C 1445.05 -1.57861 1.70829 0
M  V30 15307 C 1446.05 -1.59371 0.57423 0
M  V30 15308 O 1447.25 -1.63401 0.754996 0
M  V30 15309 H 1443.63 -0.524015 0.539363 0
M  V30 15310 H 1445.6 -1.3805 2.64546 0
M  V30 15311 C 1444.35 -2.95724 1.82873 0
M  V30 15312 H 1443.67 -2.95285 2.6953 0
M  V30 15313 H 1445.11 -3.73342 2.00977 0
M  V30 15314 C 1443.57 -3.31823 0.582691 0
M  V30 15315 O 1444.1 -4.00767 -0.273623 0
M  V30 15316 N 1442.3 -2.87344 0.433781 0
M  V30 15317 H 1441.85 -2.31411 1.13166 0
M  V30 15318 H 1441.81 -3.11861 -0.398743 0
M  V30 15319 N 1445.58 -1.40446 -0.715026 0
M  V30 15320 C 1446.83 -1.3848 -1.47199 0
M  V30 15321 C 1447.15 0.0119198 -1.94996 0
M  V30 15322 O 1446.42 0.966772 -1.70383 0
M  V30 15323 H 1445 -0.509669 -0.54612 0
M  V30 15324 H 1447.66 -1.75505 -0.847588 0
M  V30 15325 H 1446.76 -2.06002 -2.34456 0
M  V30 15326 N 1447.06 0.947303 -1.25952 0
M  V30 15327 C 1448.47 1.50755 -1.10136 0
M  V30 15328 C 1448.82 1.93566 0.320437 0
M  V30 15329 O 1447.95 1.79326 1.21125 0
M  V30 15330 C 1448.54 2.7397 -1.99313 0
M  V30 15331 C 1447.1 3.26283 -1.8766 0
M  V30 15332 C 1446.25 1.99088 -1.93027 0
M  V30 15333 H 1449.2 0.763427 -1.39131 0
M  V30 15334 H 1449.22 3.48057 -1.53742 0
M  V30 15335 H 1448.73 2.42781 -3.02785 0
M  V30 15336 H 1446.83 3.62277 -0.870992 0
M  V30 15337 H 1446.95 3.93803 -2.72866 0
M  V30 15338 H 1445.31 2.14714 -1.37003 0
M  V30 15339 H 1446.09 1.70237 -2.98118 0
M  V30 15340 N 1448.54 1.07657 1.15099 0
M  V30 15341 C 1449.78 0.802796 1.86234 0
M  V30 15342 C 1450.12 -0.669555 1.82293 0
M  V30 15343 O 1449.39 -1.49162 1.24823 0
M  V30 15344 C 1449.68 1.3156 3.35208 0
M  V30 15345 C 1449.53 2.85272 3.47764 0
M  V30 15346 C 1450.85 0.934641 4.30061 0
M  V30 15347 H 1447.97 0.293099 0.676212 0
M  V30 15348 H 1450.61 1.33488 1.35207 0
M  V30 15349 H 1448.76 0.86298 3.78794 0
M  V30 15350 H 1450.43 3.38847 3.13018 0
M  V30 15351 H 1448.67 3.23316 2.89222 0
M  V30 15352 H 1449.34 3.16223 4.52446 0
M  V30 15353 H 1451.82 1.3247 3.9445 0
M  V30 15354 H 1450.7 1.32074 5.32774 0
M  V30 15355 H 1450.96 -0.159122 4.41814 0
M  V30 15356 N 1450.02 -1.31994 0.861122 0
M  V30 15357 C 1451.43 -1.79271 0.521437 0
M  V30 15358 C 1451.78 -1.71046 -0.96113 0
M  V30 15359 O 1450.9 -1.2729 -1.75003 0
M  V30 15360 C 1451.5 -3.25507 0.939731 0
M  V30 15361 C 1450.06 -3.70713 0.651845 0
M  V30 15362 C 1449.2 -2.52967 1.13592 0
M  V30 15363 H 1452.16 -1.19201 1.0477 0
M  V30 15364 H 1452.18 -3.79619 0.258754 0
M  V30 15365 H 1451.69 -3.3146 2.0188 0
M  V30 15366 H 1449.79 -3.70268 -0.416232 0
M  V30 15367 H 1449.9 -4.63236 1.22267 0
M  V30 15368 H 1448.27 -2.48558 0.555971 0
M  V30 15369 H 1449.05 -2.61671 2.22223 0
M  V30 15370 N 1451.49 -0.619688 -1.44906 0
M  V30 15371 C 1452.74 -0.11981 -2.02446 0
M  V30 15372 C 1453.07 1.2509 -1.48546 0
M  V30 15373 O 1452.35 1.82781 -0.664942 0
M  V30 15374 C 1452.63 -0.0940205 -3.59977 0
M  V30 15375 C 1452.48 -1.49626 -4.24184 0
M  V30 15376 C 1453.8 0.58748 -4.36161 0
M  V30 15377 H 1450.92 -0.0450119 -0.735624 0
M  V30 15378 H 1453.56 -0.793975 -1.72615 0
M  V30 15379 H 1451.71 0.480073 -3.85522 0
M  V30 15380 H 1453.39 -2.11836 -4.09784 0
M  V30 15381 H 1451.63 -2.05348 -3.82119 0
M  V30 15382 H 1452.3 -1.43035 -5.33146 0
M  V30 15383 H 1454.78 0.0993863 -4.15981 0
M  V30 15384 H 1453.65 0.574672 -5.45883 0
M  V30 15385 H 1453.91 1.65579 -4.09922 0
M  V30 15386 O 1453.01 1.53508 -0.501749 0
M  V30 15387 H 1453.7 1.93694 0.0156724 0
M  V30 END ATOM
M  V30 BEGIN BOND
M  V30 END BOND
M  V30 END CTAB
M  END
$$$$
