drugbank_target|P18825 Alpha-2C adrenergic receptor (DB00246; DB00248; DB00363; DB00368; DB00408; DB00484; DB00502; DB00575; DB00589; DB00696; DB00714; DB00734; DB00797; DB00800; DB00925; DB00935; DB01136; DB01200; DB01224; DB01238; DB01267; DB01363; DB01392; DB01403; DB01577; DB04846; DB04855; DB04946; DB05461; DB05492; DB06148; DB06153; DB06216; DB06229; DB06262; DB06694; DB08815; DB08838; DB09128; DB11124; DB14185)
 OpenBabel12092119293D

  0  0  0     0  0            999 V3000
M  V30 BEGIN CTAB
M  V30 COUNTS 7010 7096 0 0 0
M  V30 BEGIN ATOM
M  V30 1 H -0.908 1.98254 -0.117106 0
M  V30 2 N 0 1.576 0 0
M  V30 3 C 0.933 2.03868 1.02534 0
M  V30 4 C 1.911 0.928543 1.3348 0
M  V30 5 O 3.095 1.19667 1.45644 0
M  V30 6 C 0.222 2.43627 2.35294 0
M  V30 7 C -0.732 3.65373 2.2001 0
M  V30 8 S 0.101 5.13292 1.52614 0
M  V30 9 C 1.257 5.56322 2.86805 0
M  V30 10 H 1.49 2.90518 0.631377 0
M  V30 11 H -0.977 1.52953 0.210867 0
M  V30 12 H 0.981 2.67203 3.11629 0
M  V30 13 H -0.358 1.57376 2.7183 0
M  V30 14 H -1.165 3.90944 3.18086 0
M  V30 15 H -1.563 3.418 1.51819 0
M  V30 16 H 0.729 5.58782 3.83104 0
M  V30 17 H 1.672 6.56266 2.65933 0
M  V30 18 H 2.08 4.83886 2.90714 0
M  V30 19 N 1.4781 -0.272755 1.55222 0
M  V30 20 C 2.4411 -1.32041 1.87344 0
M  V30 21 C 3.4411 -1.42342 0.74803 0
M  V30 22 O 4.6311 -1.41488 1.0162 0
M  V30 23 C 1.7631 -2.70173 2.07893 0
M  V30 24 H 2.9561 -1.04789 2.80997 0
M  V30 25 H 0.5091 -0.51083 1.47717 0
M  V30 26 H 1.2441 -3.02605 1.16622 0
M  V30 27 H 1.0291 -2.64082 2.89833 0
M  V30 28 H 2.5191 -3.45869 2.34017 0
M  V30 29 N 2.9562 -1.48159 -0.537278 0
M  V30 30 C 4.1812 -1.59707 -1.32319 0
M  V30 31 C 4.6062 -0.254859 -1.86365 0
M  V30 32 O 3.9642 0.772378 -1.64024 0
M  V30 33 C 4.0122 -2.6412 -2.45505 0
M  V30 34 O 3.1162 -2.20774 -3.48328 0
M  V30 35 H 2.4572 -0.535791 -0.392204 0
M  V30 36 H 4.9872 -1.94092 -0.647268 0
M  V30 37 H 4.9972 -2.85166 -2.91795 0
M  V30 38 H 3.6722 -3.61567 -2.05528 0
M  V30 39 H 2.2492 -2.09911 -3.08207 0
M  V30 40 N 4.4343 0.785586 -1.36625 0
M  V30 41 C 5.8453 1.36101 -1.27803 0
M  V30 42 C 6.1963 1.96035 0.0804875 0
M  V30 43 O 5.3213 1.92834 0.982042 0
M  V30 44 C 5.9163 2.47442 -2.31426 0
M  V30 45 C 4.4753 3.00789 -2.26281 0
M  V30 46 C 3.6223 1.73896 -2.15999 0
M  V30 47 H 6.5733 0.586928 -1.47448 0
M  V30 48 H 6.5943 3.2656 -1.95291 0
M  V30 49 H 6.1063 2.03791 -3.30289 0
M  V30 50 H 4.2073 3.48851 -1.30896 0
M  V30 51 H 4.3203 3.57343 -3.19128 0
M  V30 52 H 2.6843 1.9628 -1.62316 0
M  V30 53 H 3.4673 1.32368 -3.16755 0
M  V30 54 N 5.9124 1.20967 1.01018 0
M  V30 55 C 6.8754 0.965918 2.07853 0
M  V30 56 C 7.8754 -0.0610545 1.60684 0
M  V30 57 O 9.0654 0.175681 1.73312 0
M  V30 58 C 6.1974 0.455513 3.37843 0
M  V30 59 H 7.3904 1.91365 2.3091 0
M  V30 60 H 4.9434 1.02594 1.17916 0
M  V30 61 H 5.6784 -0.497381 3.20463 0
M  V30 62 H 5.4634 1.19622 3.73407 0
M  V30 63 H 6.9534 0.304667 4.16487 0
M  V30 64 N 7.3905 -1.2043 1.01659 0
M  V30 65 C 8.3205 -2.25466 0.607226 0
M  V30 66 C 9.3015 -1.65853 -0.377716 0
M  V30 67 O 10.4865 -1.92409 -0.263149 0
M  V30 68 C 7.6165 -3.47256 -0.0552949 0
M  V30 69 C 6.5705 -4.19462 0.850632 0
M  V30 70 C 5.8965 -5.34673 0.0538859 0
M  V30 71 C 7.1965 -4.75603 2.15868 0
M  V30 72 H 8.8905 -2.59962 1.48526 0
M  V30 73 H 6.4365 -1.2496 0.715605 0
M  V30 74 H 8.3895 -4.19917 -0.353233 0
M  V30 75 H 7.1135 -3.11924 -0.968045 0
M  V30 76 H 5.7725 -3.48667 1.13257 0
M  V30 77 H 5.4205 -4.95585 -0.860514 0
M  V30 78 H 5.1205 -5.83913 0.657192 0
M  V30 79 H 6.6445 -6.10138 -0.237598 0
M  V30 80 H 8.0585 -5.40083 1.92311 0
M  V30 81 H 6.4555 -5.3528 2.71284 0
M  V30 82 H 7.5255 -3.94346 2.82169 0
M  V30 83 N 8.8686 -0.792821 -1.36206 0
M  V30 84 C 9.8316 -0.199459 -2.2833 0
M  V30 85 C 10.8316 0.605189 -1.48977 0
M  V30 86 O 12.0216 0.425685 -1.68919 0
M  V30 87 C 9.1536 0.723523 -3.33134 0
M  V30 88 H 10.3466 -1.01181 -2.82316 0
M  V30 89 H 7.8996 -0.562485 -1.45828 0
M  V30 90 H 8.6346 1.56008 -2.84309 0
M  V30 91 H 8.4196 0.148436 -3.91819 0
M  V30 92 H 9.9096 1.13344 -4.01924 0
M  V30 93 N 10.3467 1.47872 -0.545128 0
M  V30 94 C 11.3097 2.28337 0.198717 0
M  V30 95 C 12.3097 1.36255 0.853888 0
M  V30 96 O 13.4997 1.59003 0.711606 0
M  V30 97 C 10.6317 3.15585 1.28915 0
M  V30 98 H 11.8247 2.95567 -0.507941 0
M  V30 99 H 9.3777 1.53362 -0.301616 0
M  V30 100 H 10.1127 2.53019 2.02859 0
M  V30 101 H 9.8977 3.83337 0.824309 0
M  V30 102 H 11.3877 3.76243 1.81194 0
M  V30 103 N 11.8248 0.280983 1.55075 0
M  V30 104 C 12.7878 -0.590896 2.21452 0
M  V30 105 C 13.7878 -1.07682 1.19421 0
M  V30 106 O 14.9778 -0.97605 1.44288 0
M  V30 107 C 12.1098 -1.81587 2.88511 0
M  V30 108 H 13.3028 -0.0112554 2.99898 0
M  V30 109 H 10.8558 0.0316438 1.56268 0
M  V30 110 H 11.5908 -2.43587 2.14093 0
M  V30 111 H 11.3758 -1.4753 3.63287 0
M  V30 112 H 12.8658 -2.43575 3.39206 0
M  V30 113 N 13.3029 -1.57598 0.00835791 0
M  V30 114 C 14.2329 -2.1198 -0.979113 0
M  V30 115 C 15.2139 -1.03091 -1.35301 0
M  V30 116 O 16.3989 -1.30818 -1.43528 0
M  V30 117 C 13.5289 -2.62995 -2.26828 0
M  V30 118 C 12.4829 -3.76485 -2.03576 0
M  V30 119 C 11.8089 -4.13846 -3.38579 0
M  V30 120 C 13.1089 -5.0342 -1.39161 0
M  V30 121 H 14.8029 -2.94738 -0.526281 0
M  V30 122 H 12.3489 -1.41783 -0.251704 0
M  V30 123 H 14.3019 -2.99669 -2.96271 0
M  V30 124 H 13.0259 -1.7737 -2.7424 0
M  V30 125 H 11.6849 -3.40217 -1.36557 0
M  V30 126 H 11.3329 -3.25232 -3.83709 0
M  V30 127 H 11.0329 -4.90312 -3.23834 0
M  V30 128 H 12.5569 -4.53086 -4.09323 0
M  V30 129 H 13.9709 -5.37812 -1.98573 0
M  V30 130 H 12.3679 -5.84746 -1.34878 0
M  V30 131 H 13.4379 -4.83548 -0.361868 0
M  V30 132 N 14.781 0.264519 -1.55364 0
M  V30 133 C 15.744 1.31046 -1.88042 0
M  V30 134 C 16.744 1.41943 -0.755569 0
M  V30 135 O 17.934 1.40947 -1.02369 0
M  V30 136 C 15.066 2.69067 -2.09323 0
M  V30 137 H 16.259 1.03297 -2.81549 0
M  V30 138 H 13.812 0.502989 -1.47986 0
M  V30 139 H 14.547 3.01982 -1.18226 0
M  V30 140 H 14.332 2.62542 -2.91229 0
M  V30 141 H 15.822 3.44623 -2.35848 0
M  V30 142 N 16.2591 1.48442 0.529413 0
M  V30 143 C 17.5051 1.5672 1.28711 0
M  V30 144 C 17.8381 0.2406 1.92704 0
M  V30 145 O 17.1131 -0.753454 1.79313 0
M  V30 146 C 17.3961 2.70587 2.37603 0
M  V30 147 C 17.2491 4.12953 1.78297 0
M  V30 148 C 18.5681 2.80212 3.39366 0
M  V30 149 H 15.6871 0.570474 0.466613 0
M  V30 150 H 18.3291 1.80617 0.589706 0
M  V30 151 H 16.4791 2.50342 2.97088 0
M  V30 152 H 18.1511 4.44639 1.22858 0
M  V30 153 H 16.3941 4.19927 1.0883 0
M  V30 154 H 17.0651 4.88448 2.57144 0
M  V30 155 H 19.5411 2.98553 2.89836 0
M  V30 156 H 18.4171 3.61611 4.12951 0
M  V30 157 H 18.6781 1.88393 3.99951 0
M  V30 158 N 17.7372 -0.778329 1.37039 0
M  V30 159 C 18.7002 -1.87301 1.32102 0
M  V30 160 C 19.7002 -1.59198 0.226405 0
M  V30 161 O 20.8902 -1.67403 0.481861 0
M  V30 162 C 18.0222 -3.24309 1.05055 0
M  V30 163 H 19.2152 -1.93093 2.29467 0
M  V30 164 H 16.7682 -0.977358 1.21973 0
M  V30 165 H 17.5032 -3.24196 0.0819373 0
M  V30 166 H 17.2882 -3.46098 1.84279 0
M  V30 167 H 18.7782 -4.04382 1.04234 0
M  V30 168 N 19.2153 -1.21501 -1.00376 0
M  V30 169 C 20.1783 -0.976927 -2.07337 0
M  V30 170 C 21.1783 0.0525322 -1.60714 0
M  V30 171 O 22.3683 -0.184869 -1.73216 0
M  V30 172 C 19.5003 -0.473423 -3.37597 0
M  V30 173 H 20.6933 -1.92587 -2.29892 0
M  V30 174 H 18.2463 -1.03217 -1.17371 0
M  V30 175 H 18.9813 0.480379 -3.20722 0
M  V30 176 H 18.7663 -1.216 -3.72768 0
M  V30 177 H 20.2563 -0.32675 -4.1632 0
M  V30 178 N 20.6934 1.19889 -1.02296 0
M  V30 179 C 21.6564 2.21116 -0.603351 0
M  V30 180 C 22.6564 1.5738 0.329884 0
M  V30 181 O 23.8464 1.73802 0.117702 0
M  V30 182 C 20.9784 3.40696 0.117992 0
M  V30 183 H 22.1714 2.59754 -1.49893 0
M  V30 184 H 19.7244 1.33463 -0.813468 0
M  V30 185 H 20.4594 3.07569 1.0282 0
M  V30 186 H 20.2444 3.88188 -0.552511 0
M  V30 187 H 21.7344 4.15692 0.398696 0
M  V30 188 N 22.1715 0.800033 1.35784 0
M  V30 189 C 23.1345 0.211565 2.28221 0
M  V30 190 C 24.1345 -0.59728 1.49296 0
M  V30 191 O 25.3245 -0.416721 1.69142 0
M  V30 192 C 22.4565 -0.705846 3.33513 0
M  V30 193 H 23.6495 1.02677 2.81776 0
M  V30 194 H 21.2025 0.570211 1.45528 0
M  V30 195 H 21.9375 -1.54498 2.85133 0
M  V30 196 H 21.7225 -0.127655 3.91892 0
M  V30 197 H 23.2125 -1.11211 4.02519 0
M  V30 198 N 23.6496 -1.47581 0.552962 0
M  V30 199 C 24.8976 -2.02082 0.0272703 0
M  V30 200 C 25.2186 -1.4301 -1.32563 0
M  V30 201 O 24.4886 -0.603745 -1.86365 0
M  V30 202 H 23.0686 -0.746966 0.00709182 0
M  V30 203 H 25.7306 -1.81033 0.722008 0
M  V30 204 H 24.8266 -3.12034 -0.0639951 0
M  V30 205 N 25.1277 -0.289203 -1.54924 0
M  V30 206 C 26.5387 0.205791 -1.85562 0
M  V30 207 C 26.8897 1.54351 -1.2112 0
M  V30 208 O 26.0147 2.10435 -0.504601 0
M  V30 209 C 26.6097 0.380177 -3.3666 0
M  V30 210 C 25.1687 0.819395 -3.67373 0
M  V30 211 C 24.3157 -0.079159 -2.77187 0
M  V30 212 H 27.2667 -0.510577 -1.50262 0
M  V30 213 H 27.2877 1.21659 -3.60526 0
M  V30 214 H 26.7997 -0.593589 -3.83534 0
M  V30 215 H 24.9007 1.80413 -3.26009 0
M  V30 216 H 25.0137 0.646957 -4.74712 0
M  V30 217 H 23.3777 0.439565 -2.50878 0
M  V30 218 H 24.1607 -1.04906 -3.26878 0
M  V30 219 N 26.6058 1.57591 -0.0167156 0
M  V30 220 C 27.5538 2.10604 0.987353 0
M  V30 221 C 28.5478 1.02977 1.34507 0
M  V30 222 O 29.7538 1.21425 1.32875 0
M  V30 223 H 26.1288 0.672695 0.336134 0
M  V30 224 H 28.0998 2.93925 0.514817 0
M  V30 225 C 26.8488 2.6382 2.26483 0
M  V30 226 H 26.1718 3.46278 1.99829 0
M  V30 227 H 27.6118 3.04573 2.94977 0
M  V30 228 C 26.0708 1.55992 2.9861 0
M  V30 229 O 26.6008 0.952521 3.90243 0
M  V30 230 N 24.8068 1.28335 2.60727 0
M  V30 231 H 24.3538 1.77914 1.86291 0
M  V30 232 H 24.3118 0.564115 3.09298 0
M  V30 233 N 28.0839 -0.256276 1.55502 0
M  V30 234 C 29.0469 -1.30047 1.88734 0
M  V30 235 C 30.0469 -1.4154 0.763086 0
M  V30 236 O 31.2369 -1.40403 1.03115 0
M  V30 237 C 28.3689 -2.67953 2.10747 0
M  V30 238 H 29.5619 -1.01802 2.82093 0
M  V30 239 H 27.1149 -0.495134 1.4825 0
M  V30 240 H 27.8499 -3.01351 1.19825 0
M  V30 241 H 27.6349 -2.60993 2.92617 0
M  V30 242 H 29.1249 -3.43368 2.37673 0
M  V30 243 N 29.562 -1.4872 -0.521534 0
M  V30 244 C 30.787 -1.61101 -1.30618 0
M  V30 245 C 31.212 -0.274611 -1.86085 0
M  V30 246 O 30.57 0.754937 -1.64834 0
M  V30 247 C 30.618 -2.66709 -2.4269 0
M  V30 248 O 29.722 -2.24456 -3.45967 0
M  V30 249 H 29.063 -0.539921 -0.386499 0
M  V30 250 H 31.593 -1.94767 -0.626645 0
M  V30 251 H 31.603 -2.88245 -2.88754 0
M  V30 252 H 30.278 -3.63727 -2.01682 0
M  V30 253 H 28.855 -2.13168 -3.05964 0
M  V30 254 N 31.0401 0.771051 -1.3745 0
M  V30 255 C 32.2881 1.52661 -1.32435 0
M  V30 256 C 32.6091 1.9479 0.0905024 0
M  V30 257 O 31.8791 1.66348 1.03466 0
M  V30 258 H 30.4591 0.566218 -0.487244 0
M  V30 259 H 33.1211 0.917636 -1.71946 0
M  V30 260 H 32.2171 2.42568 -1.96385 0
M  V30 261 N 32.5182 1.22032 0.997298 0
M  V30 262 C 33.4812 0.987909 2.06816 0
M  V30 263 C 34.4812 -0.0440084 1.6074 0
M  V30 264 O 35.6712 0.194053 1.73116 0
M  V30 265 C 32.8032 0.49132 3.37341 0
M  V30 266 H 33.9962 1.93803 2.28868 0
M  V30 267 H 31.5492 1.03838 1.16822 0
M  V30 268 H 32.2842 -0.463364 3.20973 0
M  V30 269 H 32.0692 1.23575 3.72118 0
M  V30 270 H 33.5592 0.348824 4.16141 0
M  V30 271 N 33.9963 -1.19345 1.0293 0
M  V30 272 C 35.2443 -1.88665 0.724574 0
M  V30 273 C 35.5653 -1.80036 -0.749144 0
M  V30 274 O 34.8353 -1.2111 -1.53978 0
M  V30 275 H 33.4153 -0.698406 0.265025 0
M  V30 276 H 36.0773 -1.44885 1.30362 0
M  V30 277 H 35.1733 -2.94987 1.01926 0
M  V30 278 N 35.4744 -0.807222 -1.35358 0
M  V30 279 C 36.3844 -0.219594 -2.3357 0
M  V30 280 C 37.4004 0.637734 -1.61892 0
M  V30 281 O 38.5764 0.549336 -1.93763 0
M  V30 282 C 35.6414 0.62158 -3.41083 0
M  V30 283 C 34.7024 -0.256315 -4.28534 0
M  V30 284 C 33.9354 0.544807 -5.30912 0
M  V30 285 O 34.1584 1.77944 -5.41934 0
M  V30 286 O 33.0924 -0.0646478 -6.01865 0
M  V30 287 H 36.9184 -1.03208 -2.85625 0
M  V30 288 H 34.5034 -0.569025 -1.38139 0
M  V30 289 H 36.3854 1.10067 -4.06772 0
M  V30 290 H 35.0604 1.41165 -2.91297 0
M  V30 291 H 33.9674 -0.782559 -3.65823 0
M  V30 292 H 35.3004 -1.01034 -4.81719 0
M  V30 293 N 36.9525 1.47285 -0.560781 0
M  V30 294 C 38.3685 1.58065 -0.22081 0
M  V30 295 C 38.5685 1.55892 1.27671 0
M  V30 296 O 37.6245 1.46422 2.0571 0
M  V30 297 C 38.9375 2.88418 -0.850625 0
M  V30 298 C 40.4855 3.02009 -0.822184 0
M  V30 299 C 40.9605 4.35066 -1.43113 0
M  V30 300 N 42.4515 4.41711 -1.39448 0
M  V30 301 C 43.1865 5.43237 -1.83525 0
M  V30 302 N 42.6825 6.51555 -2.35474 0
M  V30 303 N 44.4755 5.34304 -1.74574 0
M  V30 304 H 36.6265 1.46941 -1.53369 0
M  V30 305 H 38.8895 0.699558 -0.639783 0
M  V30 306 H 38.5955 2.95755 -1.9032 0
M  V30 307 H 38.4695 3.75612 -0.345773 0
M  V30 308 H 40.8565 2.94266 0.221714 0
M  V30 309 H 40.9375 2.16347 -1.36483 0
M  V30 310 H 40.5815 4.43565 -2.47412 0
M  V30 311 H 40.5115 5.19465 -0.863899 0
M  V30 312 H 43.0025 3.64027 -1.01452 0
M  V30 313 H 43.3155 7.25203 -2.67021 0
M  V30 314 H 41.6605 6.52435 -2.39487 0
M  V30 315 H 44.8515 4.48581 -1.33763 0
M  V30 316 H 45.0245 6.13288 -2.09242 0
M  V30 317 N 38.4306 0.297415 1.54768 0
M  V30 318 C 39.6786 -0.312295 1.99673 0
M  V30 319 C 39.9996 -1.54686 1.18732 0
M  V30 320 O 39.2696 -1.93854 0.282382 0
M  V30 321 H 37.8496 -0.118381 0.73756 0
M  V30 322 H 40.5116 0.407915 1.90583 0
M  V30 323 H 39.6076 -0.586813 3.06534 0
M  V30 324 N 39.9087 -1.5758 0.0250728 0
M  V30 325 C 41.1337 -1.96337 -0.668317 0
M  V30 326 C 41.5587 -0.901314 -1.651 0
M  V30 327 O 40.9167 0.138187 -1.80773 0
M  V30 328 C 40.9647 -3.34191 -1.35457 0
M  V30 329 O 40.0687 -3.30269 -2.46974 0
M  V30 330 H 39.4097 -0.640281 -0.175887 0
M  V30 331 H 41.9397 -2.0442 0.0857224 0
M  V30 332 H 41.9497 -3.70331 -1.71228 0
M  V30 333 H 40.6247 -4.11036 -0.634218 0
M  V30 334 H 39.2017 -3.05841 -2.13344 0
M  V30 335 N 41.3868 0.248026 -1.55636 0
M  V30 336 C 42.6348 0.974295 -1.77065 0
M  V30 337 C 42.9558 1.85897 -0.588849 0
M  V30 338 O 42.2258 1.91868 0.395407 0
M  V30 339 H 40.8058 0.362733 -0.653019 0
M  V30 340 H 43.4678 0.266244 -1.93073 0
M  V30 341 H 42.5638 1.59667 -2.68166 0
M  V30 342 N 42.8649 1.48995 0.513639 0
M  V30 343 C 44.1129 1.57531 1.26604 0
M  V30 344 C 44.4339 0.258236 1.93283 0
M  V30 345 O 43.7039 -0.721502 1.8213 0
M  V30 346 H 42.2839 0.580387 0.470276 0
M  V30 347 H 44.9459 1.85552 0.596373 0
M  V30 348 H 44.0419 2.36486 2.03669 0
M  V30 349 N 44.343 -0.763751 1.37857 0
M  V30 350 C 45.589 -1.52483 1.33704 0
M  V30 351 C 45.922 -1.94051 -0.0759612 0
M  V30 352 O 45.197 -1.64675 -1.03501 0
M  V30 353 C 45.48 -2.78441 2.28348 0
M  V30 354 C 45.333 -2.43075 3.78463 0
M  V30 355 C 46.652 -3.80415 2.21298 0
M  V30 356 H 43.771 -0.553169 0.487005 0
M  V30 357 H 46.413 -0.875562 1.68624 0
M  V30 358 H 44.563 -3.33842 1.987 0
M  V30 359 H 46.235 -1.93527 4.18742 0
M  V30 360 H 44.478 -1.75666 3.96641 0
M  V30 361 H 45.149 -3.33149 4.40132 0
M  V30 362 H 47.625 -3.34527 2.47449 0
M  V30 363 H 46.501 -4.66257 2.89647 0
M  V30 364 H 46.762 -4.25262 1.20849 0
M  V30 365 N 45.8211 -1.22559 -0.990812 0
M  V30 366 C 46.7841 -0.998863 -2.0629 0
M  V30 367 C 47.7841 0.0354834 -1.60761 0
M  V30 368 O 48.9741 -0.203231 -1.7301 0
M  V30 369 C 46.1061 -0.509203 -3.37076 0
M  V30 370 H 47.2991 -1.95014 -2.27837 0
M  V30 371 H 44.8521 -1.04456 -1.16269 0
M  V30 372 H 45.5871 0.446335 -3.21214 0
M  V30 373 H 45.3721 -1.25547 -3.71457 0
M  V30 374 H 46.8621 -0.370888 -4.1595 0
M  V30 375 N 47.2992 1.18797 -1.03562 0
M  V30 376 C 48.2472 2.24297 -0.615905 0
M  V30 377 C 49.2412 1.65643 0.354808 0
M  V30 378 O 50.4472 1.78618 0.22265 0
M  V30 379 H 46.8222 0.729909 -0.180934 0
M  V30 380 H 48.7932 2.5701 -1.5162 0
M  V30 381 C 47.5422 3.47698 0.0104735 0
M  V30 382 H 46.8652 3.93125 -0.727509 0
M  V30 383 H 48.3052 4.23159 0.266995 0
M  V30 384 C 46.7642 3.12489 1.25905 0
M  V30 385 O 47.2942 3.25761 2.35038 0
M  V30 386 N 45.5002 2.6686 1.15039 0
M  V30 387 H 45.0472 2.56261 0.262328 0
M  V30 388 H 45.0052 2.43674 1.98672 0
M  V30 389 N 48.7773 0.814389 1.34928 0
M  V30 390 C 49.7403 0.235759 2.27984 0
M  V30 391 C 50.7403 -0.581412 1.49921 0
M  V30 392 O 51.9303 -0.398758 1.69575 0
M  V30 393 C 49.0623 -0.670433 3.34242 0
M  V30 394 H 50.2553 1.05659 2.80671 0
M  V30 395 H 47.8083 0.585614 1.44915 0
M  V30 396 H 48.5433 -1.51466 2.86755 0
M  V30 397 H 48.3283 -0.0860822 3.92005 0
M  V30 398 H 49.8183 -1.06935 4.03676 0
M  V30 399 N 50.2554 -1.46986 0.568584 0
M  V30 400 C 51.4804 -2.07335 0.0520528 0
M  V30 401 C 51.9054 -1.41675 -1.23733 0
M  V30 402 O 51.2634 -0.495623 -1.74394 0
M  V30 403 C 51.3114 -3.60417 -0.11501 0
M  V30 404 O 50.4154 -3.95309 -1.17492 0
M  V30 405 H 49.7564 -0.661597 0.0564385 0
M  V30 406 H 52.2864 -1.88837 0.787507 0
M  V30 407 H 52.2964 -4.06698 -0.325644 0
M  V30 408 H 50.9714 -4.07601 0.826675 0
M  V30 409 H 49.5484 -3.60757 -0.943869 0
M  V30 410 N 51.7335 -0.305618 -1.54608 0
M  V30 411 C 52.9815 0.301701 -1.99835 0
M  V30 412 C 53.3025 1.54054 -1.19551 0
M  V30 413 O 52.5725 1.93702 -0.292658 0
M  V30 414 H 51.1525 0.114468 -0.738178 0
M  V30 415 H 53.8145 -0.418016 -1.90364 0
M  V30 416 H 52.9105 0.570548 -3.06841 0
M  V30 417 N 53.2116 1.57565 -0.0334293 0
M  V30 418 C 54.1746 2.09393 0.932048 0
M  V30 419 C 55.1746 1.00986 1.25134 0
M  V30 420 O 56.3646 1.27129 1.19096 0
M  V30 421 C 53.4966 2.56338 2.2473 0
M  V30 422 H 54.6896 2.95984 0.483085 0
M  V30 423 H 52.2426 1.54819 0.21468 0
M  V30 424 H 52.9776 1.7309 2.74245 0
M  V30 425 H 52.7626 3.35542 2.02865 0
M  V30 426 H 54.2526 2.96646 2.93923 0
M  V30 427 N 54.6897 -0.239769 1.55765 0
M  V30 428 C 55.9147 -0.988373 1.82335 0
M  V30 429 C 56.3397 -1.77886 0.611421 0
M  V30 430 O 55.6977 -1.75889 -0.439639 0
M  V30 431 C 55.7457 -1.89627 3.06715 0
M  V30 432 O 54.8497 -2.98904 2.84131 0
M  V30 433 H 54.1907 -0.280858 0.601677 0
M  V30 434 H 56.7207 -0.258597 2.02959 0
M  V30 435 H 56.7307 -2.30957 3.36338 0
M  V30 436 H 55.4057 -1.31511 3.9456 0
M  V30 437 H 53.9827 -2.61651 2.65694 0
M  V30 438 N 56.1678 -1.49265 -0.50573 0
M  V30 439 C 57.4138 -1.59723 -1.25937 0
M  V30 440 C 57.7688 -0.278236 -1.90378 0
M  V30 441 O 57.0618 0.72113 -1.77511 0
M  V30 442 C 57.2558 -2.69008 -2.35308 0
M  V30 443 C 57.0848 -4.11405 -1.81592 0
M  V30 444 C 55.8548 -4.78252 -1.63105 0
M  V30 445 C 58.0528 -4.96792 -1.33048 0
M  V30 446 N 56.0348 -6.0498 -1.04269 0
M  V30 447 C 57.4058 -6.13962 -0.863168 0
M  V30 448 C 59.4608 -4.82828 -1.21577 0
M  V30 449 C 58.1638 -7.18705 -0.292489 0
M  V30 450 C 60.1898 -5.87716 -0.65907 0
M  V30 451 C 59.5518 -7.0411 -0.201954 0
M  V30 452 H 55.6508 -0.638864 -0.450973 0
M  V30 453 H 58.2348 -1.86251 -0.567326 0
M  V30 454 H 56.4058 -2.4426 -3.01979 0
M  V30 455 H 58.1378 -2.69013 -3.02348 0
M  V30 456 H 54.8928 -4.34974 -1.87336 0
M  V30 457 H 55.3168 -6.72631 -0.767919 0
M  V30 458 H 59.9588 -3.93159 -1.55518 0
M  V30 459 H 57.6768 -8.08078 0.0591987 0
M  V30 460 H 61.2628 -5.7897 -0.573156 0
M  V30 461 H 60.1428 -7.83885 0.222101 0
M  V30 462 N 57.6459 0.756429 -1.3826 0
M  V30 463 C 58.8939 1.51248 -1.34047 0
M  V30 464 C 59.2149 1.94875 0.0698372 0
M  V30 465 O 58.4849 1.67436 1.01696 0
M  V30 466 H 57.0649 0.561018 -0.493222 0
M  V30 467 H 59.7269 0.899347 -1.7291 0
M  V30 468 H 58.8229 2.40472 -1.98947 0
M  V30 469 N 59.124 1.23083 0.984299 0
M  V30 470 C 60.535 1.05609 1.5396 0
M  V30 471 C 60.886 -0.377793 1.92528 0
M  V30 472 O 60.011 -1.26398 1.75649 0
M  V30 473 C 60.606 1.91087 2.7977 0
M  V30 474 C 59.165 1.77885 3.31713 0
M  V30 475 C 58.312 1.87028 2.04733 0
M  V30 476 H 61.263 1.36802 0.804419 0
M  V30 477 H 61.284 1.43336 3.5247 0
M  V30 478 H 60.796 2.9544 2.51668 0
M  V30 479 H 58.897 0.762995 3.64704 0
M  V30 480 H 59.01 2.61047 4.01735 0
M  V30 481 H 57.374 1.30565 2.18689 0
M  V30 482 H 58.157 2.92929 1.79017 0
M  V30 483 N 60.6021 -1.18246 1.0419 0
M  V30 484 C 62.0131 -1.69914 0.773698 0
M  V30 485 C 62.3641 -1.83085 -0.705297 0
M  V30 486 O 61.4891 -1.51123 -1.5489 0
M  V30 487 C 62.0841 -3.08619 1.39784 0
M  V30 488 C 60.6431 -3.57494 1.17792 0
M  V30 489 C 59.7901 -2.34013 1.48773 0
M  V30 490 H 62.7411 -1.02904 1.20816 0
M  V30 491 H 62.7621 -3.71958 0.801714 0
M  V30 492 H 62.2741 -2.99001 2.47426 0
M  V30 493 H 60.3751 -3.72406 0.120295 0
M  V30 494 H 60.4881 -4.40852 1.87581 0
M  V30 495 H 58.8521 -2.37986 0.907463 0
M  V30 496 H 59.6351 -2.27013 2.57527 0
M  V30 497 N 62.0802 -0.821533 -1.34494 0
M  V30 498 C 63.4962 -0.507117 -1.51329 0
M  V30 499 C 63.6962 0.968964 -1.76673 0
M  V30 500 O 62.7522 1.75348 -1.81685 0
M  V30 501 C 64.0652 -1.36544 -2.67911 0
M  V30 502 C 65.6132 -1.36242 -2.81793 0
M  V30 503 C 66.0882 -2.2052 -4.01416 0
M  V30 504 N 67.5792 -2.18136 -4.08621 0
M  V30 505 C 68.3142 -2.80095 -5.00334 0
M  V30 506 N 67.8102 -3.51039 -5.9728 0
M  V30 507 N 69.6032 -2.69656 -4.93196 0
M  V30 508 H 61.7542 -1.77729 -1.16302 0
M  V30 509 H 64.0172 -0.757291 -0.570276 0
M  V30 510 H 63.7232 -2.41361 -2.55808 0
M  V30 511 H 63.5972 -1.02917 -3.62888 0
M  V30 512 H 65.9842 -0.322041 -2.93338 0
M  V30 513 H 66.0652 -1.73866 -1.87628 0
M  V30 514 H 65.7092 -3.24607 -3.90631 0
M  V30 515 H 65.6392 -1.80247 -4.94791 0
M  V30 516 H 68.1302 -1.6653 -3.39229 0
M  V30 517 H 68.4432 -3.95565 -6.63889 0
M  V30 518 H 66.7882 -3.55145 -5.97409 0
M  V30 519 H 69.9792 -2.13808 -4.16418 0
M  V30 520 H 70.1522 -3.1823 -5.64476 0
M  V30 521 N 63.5583 1.46682 -0.576371 0
M  V30 522 C 64.8063 2.02013 -0.0594163 0
M  V30 523 C 65.1273 1.45101 1.30271 0
M  V30 524 O 64.3973 0.633317 1.8538 0
M  V30 525 H 62.9773 0.746759 -0.0189745 0
M  V30 526 H 65.6393 1.79862 -0.750717 0
M  V30 527 H 64.7353 3.12097 0.014345 0
M  V30 528 N 65.0364 0.313813 1.54444 0
M  V30 529 C 65.9684 -0.590425 2.21465 0
M  V30 530 C 66.9814 -1.08753 1.21147 0
M  V30 531 O 68.1704 -1.00278 1.4767 0
M  V30 532 C 65.2704 -1.82179 2.85769 0
M  V30 533 C 64.4434 -1.46502 4.12136 0
M  V30 534 C 63.5024 -2.55288 4.60124 0
M  V30 535 O 62.5284 -2.19842 5.25032 0
M  V30 536 N 63.7304 -3.86053 4.33525 0
M  V30 537 H 66.4954 -0.0166033 2.99695 0
M  V30 538 H 64.0564 0.136578 1.61323 0
M  V30 539 H 66.0484 -2.54328 3.14801 0
M  V30 540 H 64.6184 -2.30369 2.11303 0
M  V30 541 H 63.8384 -0.575595 3.89975 0
M  V30 542 H 65.1264 -1.20221 4.94393 0
M  V30 543 H 64.5244 -4.17654 3.81552 0
M  V30 544 H 63.0814 -4.54461 4.67235 0
M  V30 545 N 66.5145 -1.57545 0.0417849 0
M  V30 546 C 67.7445 -1.96339 -0.642995 0
M  V30 547 C 68.1525 -0.917536 -1.65463 0
M  V30 548 O 67.4955 0.107747 -1.83384 0
M  V30 549 C 67.5575 -3.31333 -1.39494 0
M  V30 550 C 67.2215 -4.53796 -0.540204 0
M  V30 551 C 68.2185 -5.19553 0.189806 0
M  V30 552 C 65.9035 -5.0006 -0.473886 0
M  V30 553 C 67.8975 -6.29904 0.974674 0
M  V30 554 C 65.5845 -6.10289 0.314677 0
M  V30 555 C 66.5825 -6.75072 1.03765 0
M  V30 556 O 66.2705 -7.83183 1.81327 0
M  V30 557 H 66.0025 -0.651241 -0.181277 0
M  V30 558 H 68.5565 -2.05148 0.101665 0
M  V30 559 H 66.7865 -3.19052 -2.18502 0
M  V30 560 H 68.4755 -3.54942 -1.96904 0
M  V30 561 H 69.2415 -4.84774 0.147981 0
M  V30 562 H 65.1205 -4.49433 -1.0262 0
M  V30 563 H 68.6645 -6.80401 1.5395 0
M  V30 564 H 64.5615 -6.44506 0.358174 0
M  V30 565 H 65.3295 -7.99913 1.73438 0
M  V30 566 N 67.9926 0.231505 -1.5589 0
M  V30 567 C 69.2176 0.978689 -1.82856 0
M  V30 568 C 69.6426 1.77559 -0.620846 0
M  V30 569 O 69.0006 1.76119 0.430305 0
M  V30 570 C 69.0486 1.87997 -3.07716 0
M  V30 571 O 68.1526 2.97393 -2.85712 0
M  V30 572 H 67.4936 0.277663 -0.603158 0
M  V30 573 H 70.0236 0.24783 -2.03093 0
M  V30 574 H 70.0336 2.2917 -3.37558 0
M  V30 575 H 68.7086 1.29417 -3.95252 0
M  V30 576 H 67.2856 2.60238 -2.67078 0
M  V30 577 N 69.4707 1.49531 0.497807 0
M  V30 578 C 70.4337 1.65916 1.58128 0
M  V30 579 C 71.4337 0.530825 1.51786 0
M  V30 580 O 72.6237 0.797342 1.54881 0
M  V30 581 C 69.7557 1.65951 2.9778 0
M  V30 582 H 70.9487 2.62556 1.44929 0
M  V30 583 H 68.5017 1.38611 0.722275 0
M  V30 584 H 69.2367 0.709065 3.16453 0
M  V30 585 H 69.0217 2.47897 3.03792 0
M  V30 586 H 70.5117 1.80673 3.76493 0
M  V30 587 N 70.9488 -0.749086 1.3866 0
M  V30 588 C 72.1968 -1.50535 1.34847 0
M  V30 589 C 72.5178 -1.94909 -0.0595016 0
M  V30 590 O 71.7878 -1.67973 -1.00806 0
M  V30 591 H 70.3678 -0.558395 0.49619 0
M  V30 592 H 73.0298 -0.890165 1.73384 0
M  V30 593 H 72.1258 -2.39413 2.00219 0
M  V30 594 N 72.4269 -1.23603 -0.977757 0
M  V30 595 C 73.3899 -1.02069 -2.05218 0
M  V30 596 C 74.3899 0.0184305 -1.60789 0
M  V30 597 O 75.5799 -0.221569 -1.72785 0
M  V30 598 C 72.7119 -0.544926 -3.36517 0
M  V30 599 H 73.9049 -1.9742 -2.25755 0
M  V30 600 H 71.4579 -1.05684 -1.15155 0
M  V30 601 H 72.1929 0.412241 -3.21669 0
M  V30 602 H 71.9779 -1.2948 -3.70105 0
M  V30 603 H 73.4679 -0.414985 -4.15533 0
M  V30 604 N 73.905 1.17692 -1.04816 0
M  V30 605 C 75.151 1.88137 -0.75711 0
M  V30 606 C 75.484 1.80604 0.713841 0
M  V30 607 O 74.759 1.21146 1.52164 0
M  V30 608 C 75.042 3.38318 -1.2334 0
M  V30 609 C 74.895 3.54622 -2.76701 0
M  V30 610 C 76.214 4.32214 -0.829415 0
M  V30 611 H 73.333 0.683163 -0.27651 0
M  V30 612 H 75.975 1.38424 -1.30149 0
M  V30 613 H 74.125 3.80787 -0.770286 0
M  V30 614 H 75.797 3.21194 -3.31107 0
M  V30 615 H 74.04 2.97026 -3.16161 0
M  V30 616 H 74.711 4.60028 -3.05088 0
M  V30 617 H 77.187 3.97565 -1.22805 0
M  V30 618 H 76.063 5.35838 -1.19033 0
M  V30 619 H 76.324 4.41294 0.266891 0
M  V30 620 N 75.3831 0.828654 1.34056 0
M  V30 621 C 76.3461 0.259927 2.27721 0
M  V30 622 C 77.3461 -0.565478 1.50529 0
M  V30 623 O 78.5361 -0.38075 1.69988 0
M  V30 624 C 75.6681 -0.634944 3.34935 0
M  V30 625 H 76.8611 1.0863 2.79534 0
M  V30 626 H 74.4141 0.600951 1.44285 0
M  V30 627 H 75.1491 -1.48416 2.88346 0
M  V30 628 H 74.9341 -0.0444999 3.92075 0
M  V30 629 H 76.4241 -1.02648 4.04788 0
M  V30 630 N 76.8612 -1.46375 0.584142 0
M  V30 631 C 78.1092 -2.01978 0.0701287 0
M  V30 632 C 78.4302 -1.4579 -1.295 0
M  V30 633 O 77.7002 -0.64314 -1.85042 0
M  V30 634 H 76.2802 -0.746648 0.0229345 0
M  V30 635 H 78.9422 -1.79461 0.760245 0
M  V30 636 H 78.0382 -3.121 0.0022064 0
M  V30 637 N 78.3393 -0.321999 -1.54275 0
M  V30 638 C 79.2693 0.537411 -2.27231 0
M  V30 639 C 80.2503 1.12064 -1.27968 0
M  V30 640 O 81.4353 1.14606 -1.56777 0
M  V30 641 C 78.5653 1.69919 -3.02894 0
M  V30 642 C 77.5193 1.24534 -4.09482 0
M  V30 643 C 76.8453 2.49394 -4.72977 0
M  V30 644 C 78.1453 0.361335 -5.21049 0
M  V30 645 H 79.8393 -0.0711406 -2.99315 0
M  V30 646 H 77.3853 -0.0356555 -1.43956 0
M  V30 647 H 79.3383 2.30668 -3.52662 0
M  V30 648 H 78.0623 2.33431 -2.28424 0
M  V30 649 H 76.7213 0.660782 -3.60596 0
M  V30 650 H 76.3693 3.11265 -3.95124 0
M  V30 651 H 76.0693 2.19718 -5.44975 0
M  V30 652 H 77.5933 3.10908 -5.25517 0
M  V30 653 H 79.0073 0.875072 -5.66582 0
M  V30 654 H 77.4043 0.157428 -5.99893 0
M  V30 655 H 78.4743 -0.60822 -4.8107 0
M  V30 656 N 79.8174 1.5752 -0.0501392 0
M  V30 657 C 80.7804 2.1037 0.909786 0
M  V30 658 C 81.7804 1.02308 1.24056 0
M  V30 659 O 82.9704 1.28385 1.17741 0
M  V30 660 C 80.1024 2.58708 2.21998 0
M  V30 661 H 81.2954 2.96479 0.451665 0
M  V30 662 H 78.8484 1.55038 0.198248 0
M  V30 663 H 79.5834 1.75989 2.72394 0
M  V30 664 H 79.3684 3.37675 1.99295 0
M  V30 665 H 80.8584 2.99747 2.9076 0
M  V30 666 N 81.2955 -0.223234 1.56011 0
M  V30 667 C 82.2585 -1.26014 1.9145 0
M  V30 668 C 83.2585 -1.3989 0.792937 0
M  V30 669 O 84.4485 -1.38184 1.0607 0
M  V30 670 C 81.5805 -2.63422 2.16383 0
M  V30 671 H 82.7735 -0.95796 2.84189 0
M  V30 672 H 80.3265 -0.463576 1.49267 0
M  V30 673 H 81.0615 -2.98741 1.2619 0
M  V30 674 H 80.8465 -2.54728 2.98088 0
M  V30 675 H 82.3365 -3.38249 2.44903 0
M  V30 676 N 82.7736 -1.49793 -0.48987 0
M  V30 677 C 84.0196 -1.60078 -1.24511 0
M  V30 678 C 84.3526 -0.291608 -1.91998 0
M  V30 679 O 83.6276 0.705647 -1.81248 0
M  V30 680 C 83.9106 -2.76791 -2.30345 0
M  V30 681 C 83.7636 -4.17535 -1.67286 0
M  V30 682 C 85.0826 -2.89111 -3.31817 0
M  V30 683 H 82.2016 -0.582645 -0.451324 0
M  V30 684 H 84.8436 -1.82117 -0.541612 0
M  V30 685 H 82.9936 -2.5813 -2.90346 0
M  V30 686 H 84.6656 -4.4774 -1.11026 0
M  V30 687 H 82.9086 -4.22665 -0.976577 0
M  V30 688 H 83.5796 -4.95094 -2.44103 0
M  V30 689 H 86.0556 -3.06133 -2.81819 0
M  V30 690 H 84.9316 -3.72433 -4.03219 0
M  V30 691 H 85.1926 -1.9893 -3.94815 0
M  V30 692 N 84.2517 0.741722 -1.39055 0
M  V30 693 C 85.4977 1.50336 -1.36113 0
M  V30 694 C 85.8307 1.94148 0.0450796 0
M  V30 695 O 85.1057 1.66301 1.00868 0
M  V30 696 C 85.3887 2.74773 -2.32749 0
M  V30 697 C 85.2417 2.37023 -3.82283 0
M  V30 698 C 86.5607 3.76846 -2.27322 0
M  V30 699 H 83.6797 0.545351 -0.495743 0
M  V30 700 H 86.3217 0.848624 -1.69995 0
M  V30 701 H 84.4717 3.30639 -2.03986 0
M  V30 702 H 86.1437 1.8684 -4.21768 0
M  V30 703 H 84.3867 1.69334 -3.99385 0
M  V30 704 H 85.0577 3.26104 -4.45376 0
M  V30 705 H 87.5337 3.30548 -2.5274 0
M  V30 706 H 86.4097 4.6159 -2.97028 0
M  V30 707 H 86.6707 4.23286 -1.27599 0
M  V30 708 N 85.7298 1.2412 0.971189 0
M  V30 709 C 86.9778 1.07668 1.71032 0
M  V30 710 C 87.2988 -0.385797 1.91146 0
M  V30 711 O 86.5688 -1.27569 1.4867 0
M  V30 712 H 85.1488 0.395429 0.633755 0
M  V30 713 H 87.8108 1.55984 1.16855 0
M  V30 714 H 86.9068 1.57195 2.69622 0
M  V30 715 N 87.2079 -1.17134 1.05439 0
M  V30 716 C 88.4549 -1.87456 0.765942 0
M  V30 717 C 88.7829 -1.81189 -0.707153 0
M  V30 718 O 88.0379 -1.21633 -1.5331 0
M  V30 719 C 88.3369 -3.36833 1.19491 0
M  V30 720 C 88.0029 -3.63301 2.67063 0
M  V30 721 C 86.6649 -3.70234 3.07376 0
M  V30 722 C 89.0169 -3.74575 3.62413 0
M  V30 723 C 86.3449 -3.85933 4.41896 0
M  V30 724 C 88.6969 -3.91793 4.9667 0
M  V30 725 C 87.3609 -3.96966 5.36633 0
M  V30 726 H 86.6309 -0.685948 0.280278 0
M  V30 727 H 89.2779 -1.38556 1.32192 0
M  V30 728 H 87.5829 -3.87807 0.557969 0
M  V30 729 H 89.2799 -3.89611 0.948893 0
M  V30 730 H 85.8699 -3.58532 2.34846 0
M  V30 731 H 90.0539 -3.68537 3.32406 0
M  V30 732 H 85.3099 -3.88187 4.72357 0
M  V30 733 H 89.4839 -3.99458 5.70444 0
M  V30 734 H 87.1109 -4.08883 6.40874 0
M  V30 735 N 88.686 -0.835752 -1.33615 0
M  V30 736 C 89.616 -0.281739 -2.31794 0
M  V30 737 C 90.597 0.608833 -1.58831 0
M  V30 738 O 91.782 0.533035 -1.86741 0
M  V30 739 C 88.912 0.546612 -3.42971 0
M  V30 740 C 87.866 -0.247904 -4.27281 0
M  V30 741 C 87.192 0.704001 -5.30045 0
M  V30 742 C 88.492 -1.46324 -5.01385 0
M  V30 743 H 90.186 -1.10206 -2.78379 0
M  V30 744 H 87.732 -0.531388 -1.33837 0
M  V30 745 H 89.685 0.944467 -4.1068 0
M  V30 746 H 88.409 1.40011 -2.95067 0
M  V30 747 H 87.068 -0.627281 -3.61194 0
M  V30 748 H 86.716 1.55381 -4.78399 0
M  V30 749 H 86.416 0.176524 -5.87335 0
M  V30 750 H 87.94 1.09944 -6.0062 0
M  V30 751 H 89.354 -1.13871 -5.61877 0
M  V30 752 H 87.751 -1.92728 -5.6831 0
M  V30 753 H 88.821 -2.23467 -4.30338 0
M  V30 754 N 90.1641 1.46063 -0.591896 0
M  V30 755 C 91.4131 2.01547 -0.0786637 0
M  V30 756 C 91.7261 1.46796 1.29268 0
M  V30 757 O 92.9321 1.94157 1.89777 0
M  V30 758 C 91.3881 3.59787 -0.0900024 0
M  V30 759 C 90.9961 4.23534 -1.46023 0
M  V30 760 C 92.7401 4.22895 0.368806 0
M  V30 761 C 90.6471 5.73881 -1.4288 0
M  V30 762 H 89.5771 0.753564 -0.0256388 0
M  V30 763 H 92.2281 1.677 -0.744905 0
M  V30 764 H 90.6101 3.90752 0.642586 0
M  V30 765 H 91.7841 4.04167 -2.21328 0
M  V30 766 H 90.0991 3.72558 -1.85982 0
M  V30 767 H 92.6961 5.33116 0.411258 0
M  V30 768 H 93.0391 3.9247 1.38827 0
M  V30 769 H 93.5721 3.9659 -0.31001 0
M  V30 770 H 90.3111 6.0898 -2.42536 0
M  V30 771 H 89.8311 5.95486 -0.718095 0
M  V30 772 H 91.5101 6.36776 -1.14565 0
M  V30 773 N 91.6422 0.330177 1.54103 0
M  V30 774 C 92.8882 -0.270806 2.00984 0
M  V30 775 C 93.2212 -1.51265 1.21789 0
M  V30 776 O 92.4962 -1.92142 0.301927 0
M  V30 777 C 92.7792 -0.598339 3.55094 0
M  V30 778 C 92.6322 0.654674 4.4501 0
M  V30 779 C 93.9512 -1.41334 4.16789 0
M  V30 780 H 91.0702 -0.0969531 0.730595 0
M  V30 781 H 93.7122 0.448066 1.84641 0
M  V30 782 H 91.8622 -1.21078 3.69151 0
M  V30 783 H 93.5342 1.29285 4.42813 0
M  V30 784 H 91.7772 1.28224 4.14416 0
M  V30 785 H 92.4482 0.380944 5.50684 0
M  V30 786 H 94.9242 -0.895597 4.06347 0
M  V30 787 H 93.8002 -1.61127 5.24718 0
M  V30 788 H 94.0612 -2.41146 3.70541 0
M  V30 789 N 93.1203 -1.57491 0.0584922 0
M  V30 790 C 94.3673 -1.92978 -0.613648 0
M  V30 791 C 94.6953 -0.937461 -1.70417 0
M  V30 792 O 93.9503 0.049078 -1.95638 0
M  V30 793 C 94.2493 -3.3513 -1.24188 0
M  V30 794 C 93.9153 -4.50037 -0.278826 0
M  V30 795 C 92.5773 -4.81198 -0.0138447 0
M  V30 796 C 94.9293 -5.19807 0.380777 0
M  V30 797 C 92.2573 -5.79473 0.918052 0
M  V30 798 C 94.6093 -6.19079 1.30091 0
M  V30 799 C 93.2733 -6.48665 1.57449 0
M  V30 800 H 92.5433 -0.706157 -0.22455 0
M  V30 801 H 95.1903 -1.91082 0.126533 0
M  V30 802 H 93.4953 -3.33429 -2.05749 0
M  V30 803 H 95.1923 -3.59871 -1.769 0
M  V30 804 H 91.7823 -4.25726 -0.495539 0
M  V30 805 H 95.9663 -4.95939 0.189158 0
M  V30 806 H 91.2223 -6.00727 1.1374 0
M  V30 807 H 95.3963 -6.7225 1.81804 0
M  V30 808 H 93.0233 -7.24628 2.29822 0
M  V30 809 N 94.5984 0.214957 -1.56127 0
M  V30 810 C 95.8264 0.955092 -1.83536 0
M  V30 811 C 96.2414 1.77677 -0.638472 0
M  V30 812 O 95.5984 1.78219 0.392968 0
M  V30 813 C 95.6494 1.86734 -3.09536 0
M  V30 814 O 95.3704 1.07887 -4.24608 0
M  V30 815 C 96.8714 2.72082 -3.4998 0
M  V30 816 H 94.0914 0.279611 -0.609966 0
M  V30 817 H 96.6354 0.228197 -2.03223 0
M  V30 818 H 94.7904 2.5481 -2.91806 0
M  V30 819 H 95.2044 1.69872 -4.9623 0
M  V30 820 H 96.6784 3.31782 -4.41163 0
M  V30 821 H 97.1554 3.44806 -2.7204 0
M  V30 822 H 97.7614 2.09409 -3.70173 0
M  V30 823 N 96.0765 1.50051 0.48192 0
M  V30 824 C 97.3225 1.60736 1.2366 0
M  V30 825 C 97.6555 0.301786 1.91841 0
M  V30 826 O 96.9305 -0.696025 1.8162 0
M  V30 827 C 97.2135 2.78009 2.28874 0
M  V30 828 C 97.0665 4.18416 1.65069 0
M  V30 829 C 98.3855 2.90867 3.30279 0
M  V30 830 H 95.5045 0.585031 0.448228 0
M  V30 831 H 98.1465 1.82402 0.531946 0
M  V30 832 H 96.2965 2.59667 2.88973 0
M  V30 833 H 97.9685 4.48322 1.0865 0
M  V30 834 H 96.2115 4.23177 0.954148 0
M  V30 835 H 96.8825 4.96381 2.41474 0
M  V30 836 H 99.3585 3.07623 2.80191 0
M  V30 837 H 98.2345 3.74566 4.01238 0
M  V30 838 H 98.4955 2.01021 3.93755 0
M  V30 839 N 97.5546 -0.734337 1.39446 0
M  V30 840 C 98.8006 -1.49613 1.36908 0
M  V30 841 C 99.1336 -1.94169 -0.0347829 0
M  V30 842 O 98.4086 -1.66833 -0.999847 0
M  V30 843 C 98.6916 -2.73534 2.34203 0
M  V30 844 C 98.5446 -2.34993 3.83534 0
M  V30 845 C 99.8636 -3.75635 2.29317 0
M  V30 846 H 96.9826 -0.542714 0.498629 0
M  V30 847 H 99.6246 -0.839597 1.70443 0
M  V30 848 H 97.7746 -3.29553 2.05736 0
M  V30 849 H 99.4466 -1.84601 4.22753 0
M  V30 850 H 97.6896 -1.67213 4.00278 0
M  V30 851 H 98.3606 -3.23738 4.47099 0
M  V30 852 H 100.837 -3.29203 2.54489 0
M  V30 853 H 99.7126 -4.60008 2.99472 0
M  V30 854 H 99.9736 -4.22603 1.29842 0
M  V30 855 N 99.0327 -1.24633 -0.964593 0
M  V30 856 C 100.281 -1.08573 -1.70459 0
M  V30 857 C 100.602 0.375655 -1.91347 0
M  V30 858 O 99.8717 1.26779 -1.49345 0
M  V30 859 H 98.4517 -0.398784 -0.631649 0
M  V30 860 H 101.114 -1.56601 -1.16026 0
M  V30 861 H 100.21 -1.58623 -2.68785 0
M  V30 862 N 100.511 1.16574 -1.06058 0
M  V30 863 C 101.459 2.22941 -0.663343 0
M  V30 864 C 102.453 1.66358 0.319593 0
M  V30 865 O 103.659 1.7905 0.184713 0
M  V30 866 H 100.034 0.725907 -0.196376 0
M  V30 867 H 102.005 2.53736 -1.57037 0
M  V30 868 C 100.754 3.47642 -0.0632808 0
M  V30 869 H 100.077 3.91493 -0.810733 0
M  V30 870 H 101.517 4.2363 0.177177 0
M  V30 871 C 99.9758 3.1509 1.19248 0
M  V30 872 O 100.506 3.30673 2.28075 0
M  V30 873 N 98.7118 2.6924 1.09353 0
M  V30 874 H 98.2588 2.5676 0.207912 0
M  V30 875 H 98.2168 2.47833 1.93458 0
M  V30 876 N 101.989 0.842826 1.3317 0
M  V30 877 C 103.235 0.441099 1.97945 0
M  V30 878 C 103.568 -0.998024 1.66593 0
M  V30 879 O 102.843 -1.69839 0.947898 0
M  V30 880 C 103.126 0.666841 3.53872 0
M  V30 881 C 102.979 2.15352 3.94897 0
M  V30 882 C 104.298 0.115544 4.39948 0
M  V30 883 H 101.417 0.161739 0.719034 0
M  V30 884 H 104.059 1.05907 1.57746 0
M  V30 885 H 102.209 0.140828 3.88245 0
M  V30 886 H 103.881 2.7447 3.70761 0
M  V30 887 H 102.124 2.63653 3.44484 0
M  V30 888 H 102.795 2.26221 5.03516 0
M  V30 889 H 105.271 0.565213 4.12243 0
M  V30 890 H 104.147 0.303152 5.48062 0
M  V30 891 H 104.408 -0.980935 4.3108 0
M  V30 892 N 103.467 -1.45747 0.599634 0
M  V30 893 C 104.397 -2.33235 -0.111306 0
M  V30 894 C 105.378 -1.46359 -0.866781 0
M  V30 895 O 106.563 -1.75146 -0.838904 0
M  V30 896 C 103.693 -3.28932 -1.11451 0
M  V30 897 C 102.647 -4.25381 -0.472772 0
M  V30 898 C 101.973 -5.1071 -1.58365 0
M  V30 899 C 103.273 -5.18831 0.600948 0
M  V30 900 H 104.967 -2.92927 0.61919 0
M  V30 901 H 102.513 -1.40857 0.299215 0
M  V30 902 H 104.466 -3.89002 -1.62036 0
M  V30 903 H 103.19 -2.67381 -1.8755 0
M  V30 904 H 101.849 -3.66598 0.0121472 0
M  V30 905 H 101.497 -4.45533 -2.33473 0
M  V30 906 H 101.197 -5.7604 -1.15982 0
M  V30 907 H 102.721 -5.73647 -2.09194 0
M  V30 908 H 104.135 -5.73019 0.179491 0
M  V30 909 H 102.532 -5.92595 0.946076 0
M  V30 910 H 103.602 -4.6174 1.48068 0
M  V30 911 N 104.945 -0.338344 -1.53925 0
M  V30 912 C 106.191 0.260143 -2.01125 0
M  V30 913 C 106.524 1.50617 -1.22589 0
M  V30 914 O 105.799 1.91979 -0.312113 0
M  V30 915 C 106.082 0.579499 -3.55407 0
M  V30 916 C 105.935 -0.678264 -4.44657 0
M  V30 917 C 107.254 1.39122 -4.17532 0
M  V30 918 H 104.373 0.0930772 -0.731099 0
M  V30 919 H 107.015 -0.457852 -1.84401 0
M  V30 920 H 105.165 1.19118 -3.69788 0
M  V30 921 H 106.837 -1.31631 -4.42121 0
M  V30 922 H 105.08 -1.3042 -4.13731 0
M  V30 923 H 105.751 -0.410143 -5.50474 0
M  V30 924 H 108.227 0.874035 -4.06817 0
M  V30 925 H 107.103 1.58342 -5.25565 0
M  V30 926 H 107.364 2.39178 -3.71815 0
M  V30 927 N 106.423 1.57458 -0.0668435 0
M  V30 928 C 107.669 1.93587 0.6043 0
M  V30 929 C 108.002 0.946722 1.69561 0
M  V30 930 O 107.277 -0.0248516 1.94484 0
M  V30 931 C 107.56 3.40014 1.18585 0
M  V30 932 C 107.413 4.49685 0.101529 0
M  V30 933 C 108.732 3.87154 2.09284 0
M  V30 934 H 105.851 0.703958 0.218202 0
M  V30 935 H 108.493 1.89542 -0.131804 0
M  V30 936 H 106.643 3.43592 1.81319 0
M  V30 937 H 108.315 4.5823 -0.531279 0
M  V30 938 H 106.558 4.30059 -0.568487 0
M  V30 939 H 107.229 5.49266 0.54874 0
M  V30 940 H 109.705 3.85551 1.56491 0
M  V30 941 H 108.581 4.90231 2.46911 0
M  V30 942 H 108.842 3.2481 2.99918 0
M  V30 943 N 107.901 -0.206675 1.56239 0
M  V30 944 C 109.15 -0.926964 1.79138 0
M  V30 945 C 109.463 -1.84901 0.638043 0
M  V30 946 O 110.669 -2.60906 0.751033 0
M  V30 947 C 109.125 -1.6986 3.17294 0
M  V30 948 C 108.733 -0.821956 4.40395 0
M  V30 949 C 110.477 -2.40922 3.4951 0
M  V30 950 C 108.384 -1.59179 5.69575 0
M  V30 951 H 107.314 -0.349864 0.667915 0
M  V30 952 H 109.965 -0.180487 1.8261 0
M  V30 953 H 108.347 -2.48853 3.08039 0
M  V30 954 H 109.521 -0.0715019 4.60745 0
M  V30 955 H 107.836 -0.222741 4.15804 0
M  V30 956 H 110.433 -2.99047 4.43255 0
M  V30 957 H 110.776 -3.14542 2.72707 0
M  V30 958 H 111.309 -1.68905 3.60161 0
M  V30 959 H 108.048 -0.898589 6.49312 0
M  V30 960 H 107.568 -2.31648 5.53262 0
M  V30 961 H 109.247 -2.14862 6.10281 0
M  V30 962 N 109.379 -1.50304 -0.473955 0
M  V30 963 C 110.342 -1.6841 -1.55469 0
M  V30 964 C 111.342 -0.554905 -1.50922 0
M  V30 965 O 112.532 -0.821882 -1.53593 0
M  V30 966 C 109.664 -1.70667 -2.95102 0
M  V30 967 H 110.857 -2.64828 -1.40733 0
M  V30 968 H 108.41 -1.39742 -0.700132 0
M  V30 969 H 109.145 -0.75932 -3.15285 0
M  V30 970 H 108.93 -2.52698 -2.9981 0
M  V30 971 H 110.42 -1.8664 -3.73571 0
M  V30 972 N 110.857 0.726932 -1.39834 0
M  V30 973 C 112.103 1.48884 -1.377 0
M  V30 974 C 112.436 1.94185 0.0244852 0
M  V30 975 O 111.711 1.67361 0.990986 0
M  V30 976 C 111.994 2.72288 -2.3565 0
M  V30 977 C 111.847 2.32956 -3.84775 0
M  V30 978 C 113.166 3.74414 -2.31306 0
M  V30 979 H 110.285 0.540062 -0.5015 0
M  V30 980 H 112.927 0.830547 -1.70886 0
M  V30 981 H 111.077 3.28457 -2.07481 0
M  V30 982 H 112.749 1.82356 -4.23726 0
M  V30 983 H 110.992 1.65088 -4.01159 0
M  V30 984 H 111.663 3.21362 -4.4881 0
M  V30 985 H 114.139 3.27849 -2.56231 0
M  V30 986 H 113.015 4.58414 -3.01907 0
M  V30 987 H 113.276 4.21909 -1.32081 0
M  V30 988 N 112.336 1.25143 0.95797 0
M  V30 989 C 113.266 1.07711 2.07173 0
M  V30 990 C 114.247 -0.0128462 1.70095 0
M  V30 991 O 115.432 0.156061 1.93572 0
M  V30 992 C 112.562 0.691503 3.40346 0
M  V30 993 C 111.516 1.73132 3.9142 0
M  V30 994 C 110.842 1.20049 5.21049 0
M  V30 995 C 112.142 3.1294 4.1817 0
M  V30 996 H 113.836 2.00873 2.22014 0
M  V30 997 H 111.382 0.967191 1.06684 0
M  V30 998 H 113.335 0.556505 4.17709 0
M  V30 999 H 112.059 -0.275819 3.25433 0
M  V30 1000 H 110.718 1.8547 3.16222 0
M  V30 1001 H 110.366 0.223499 5.02503 0
M  V30 1002 H 110.066 1.89545 5.56189 0
M  V30 1003 H 111.59 1.07782 6.01012 0
M  V30 1004 H 113.004 3.03775 4.86203 0
M  V30 1005 H 111.401 3.79875 4.64559 0
M  V30 1006 H 112.471 3.6025 3.24573 0
M  V30 1007 N 113.814 -1.1601 1.06675 0
M  V30 1008 C 115.042 -1.90527 0.806667 0
M  V30 1009 C 115.457 -1.77643 -0.639396 0
M  V30 1010 O 114.814 -1.12369 -1.43803 0
M  V30 1011 C 114.865 -3.41106 1.19705 0
M  V30 1012 O 114.586 -3.53608 2.58636 0
M  V30 1013 C 116.087 -4.32663 0.965266 0
M  V30 1014 H 113.307 -0.604053 0.292166 0
M  V30 1015 H 115.851 -1.47026 1.4214 0
M  V30 1016 H 114.006 -3.82296 0.626774 0
M  V30 1017 H 114.42 -4.47011 2.74375 0
M  V30 1018 H 115.894 -5.36763 1.288 0
M  V30 1019 H 116.371 -4.39089 -0.0987936 0
M  V30 1020 H 116.977 -3.97206 1.52011 0
M  V30 1021 N 115.292 -0.849877 -1.32721 0
M  V30 1022 C 116.517 -0.463856 -2.02146 0
M  V30 1023 C 116.942 0.930449 -1.63476 0
M  V30 1024 O 116.3 1.61033 -0.832952 0
M  V30 1025 C 116.348 -0.604955 -3.55489 0
M  V30 1026 O 115.452 0.36425 -4.10788 0
M  V30 1027 H 114.793 -0.187046 -0.637111 0
M  V30 1028 H 117.323 -1.14775 -1.69375 0
M  V30 1029 H 117.333 -0.490696 -4.05038 0
M  V30 1030 H 116.008 -1.62174 -3.82978 0
M  V30 1031 H 114.585 0.206628 -3.72327 0
M  V30 1032 N 116.77 1.45427 -0.607355 0
M  V30 1033 C 118.186 1.57283 -0.270985 0
M  V30 1034 C 118.386 1.59875 1.22647 0
M  V30 1035 O 117.442 1.52893 2.00948 0
M  V30 1036 C 118.755 2.85566 -0.941952 0
M  V30 1037 C 120.303 2.9924 -0.917849 0
M  V30 1038 C 120.778 4.30293 -1.56882 0
M  V30 1039 N 122.269 4.37051 -1.5343 0
M  V30 1040 C 123.004 5.37123 -2.00715 0
M  V30 1041 N 122.5 6.43734 -2.56084 0
M  V30 1042 N 124.293 5.28479 -1.91484 0
M  V30 1043 H 116.444 1.41988 -1.57966 0
M  V30 1044 H 118.707 0.67885 -0.661715 0
M  V30 1045 H 118.413 2.8955 -1.99633 0
M  V30 1046 H 118.287 3.74322 -0.465096 0
M  V30 1047 H 120.674 2.94822 0.127984 0
M  V30 1048 H 120.755 2.11895 -1.43297 0
M  V30 1049 H 120.399 4.35469 -2.61398 0
M  V30 1050 H 120.329 5.16454 -1.02873 0
M  V30 1051 H 122.82 3.60615 -1.12982 0
M  V30 1052 H 123.133 7.16341 -2.89958 0
M  V30 1053 H 121.478 6.44485 -2.60122 0
M  V30 1054 H 124.669 4.44098 -1.47967 0
M  V30 1055 H 124.842 6.0632 -2.28648 0
M  V30 1056 N 118.248 0.346503 1.53744 0
M  V30 1057 C 119.211 -0.496439 2.23759 0
M  V30 1058 C 120.211 -1.0252 1.2388 0
M  V30 1059 O 121.401 -0.913974 1.48297 0
M  V30 1060 C 118.533 -1.69187 2.95954 0
M  V30 1061 H 119.726 0.115952 2.99676 0
M  V30 1062 H 117.279 0.0978939 1.55993 0
M  V30 1063 H 118.014 -2.34288 2.24231 0
M  V30 1064 H 117.799 -1.31989 3.69217 0
M  V30 1065 H 119.289 -2.28969 3.49232 0
M  V30 1066 N 119.726 -1.57421 0.075193 0
M  V30 1067 C 120.656 -2.15942 -0.888324 0
M  V30 1068 C 121.637 -1.08737 -1.30806 0
M  V30 1069 O 122.822 -1.36787 -1.37851 0
M  V30 1070 C 119.952 -2.72379 -2.1547 0
M  V30 1071 C 118.906 -3.8478 -1.87425 0
M  V30 1072 C 118.232 -4.27834 -3.20721 0
M  V30 1073 C 119.532 -5.08869 -1.17684 0
M  V30 1074 H 121.226 -2.96705 -0.400799 0
M  V30 1075 H 118.772 -1.42723 -0.191342 0
M  V30 1076 H 120.725 -3.11965 -2.83295 0
M  V30 1077 H 119.449 -1.88841 -2.6647 0
M  V30 1078 H 118.108 -3.45703 -1.22004 0
M  V30 1079 H 117.756 -3.41214 -3.6957 0
M  V30 1080 H 117.456 -5.03605 -3.02746 0
M  V30 1081 H 118.98 -4.70039 -3.89738 0
M  V30 1082 H 120.394 -5.4575 -1.75584 0
M  V30 1083 H 118.791 -5.8994 -1.09956 0
M  V30 1084 H 119.861 -4.84648 -0.156453 0
M  V30 1085 N 121.204 0.198386 -1.56346 0
M  V30 1086 C 122.62 0.549085 -1.49857 0
M  V30 1087 C 122.82 1.86016 -0.774611 0
M  V30 1088 O 121.876 2.50416 -0.323776 0
M  V30 1089 C 123.189 0.606868 -2.94512 0
M  V30 1090 C 124.737 0.695925 -3.05165 0
M  V30 1091 C 125.212 0.784848 -4.51225 0
M  V30 1092 N 126.703 0.848463 -4.55363 0
M  V30 1093 C 127.438 0.937378 -5.65686 0
M  V30 1094 N 126.934 0.9888 -6.85707 0
M  V30 1095 N 128.727 0.974312 -5.53592 0
M  V30 1096 H 120.878 -0.661655 -2.01831 0
M  V30 1097 H 123.141 -0.235261 -0.918344 0
M  V30 1098 H 122.847 -0.28732 -3.50524 0
M  V30 1099 H 122.721 1.46268 -3.47686 0
M  V30 1100 H 125.108 1.58055 -2.49204 0
M  V30 1101 H 125.189 -0.186022 -2.55123 0
M  V30 1102 H 124.833 -0.0954072 -5.0781 0
M  V30 1103 H 124.763 1.68255 -4.98997 0
M  V30 1104 H 127.254 0.818103 -3.68938 0
M  V30 1105 H 127.567 1.05707 -7.65536 0
M  V30 1106 H 125.912 0.957534 -6.88372 0
M  V30 1107 H 129.103 0.930954 -4.58749 0
M  V30 1108 H 129.276 1.04015 -6.39597 0
M  V30 1109 N 122.682 1.50554 0.465978 0
M  V30 1110 C 123.645 1.69233 1.54574 0
M  V30 1111 C 124.645 0.562901 1.50626 0
M  V30 1112 O 125.835 0.830016 1.53155 0
M  V30 1113 C 122.967 1.7223 2.94193 0
M  V30 1114 H 124.16 2.65571 1.39327 0
M  V30 1115 H 121.713 1.40111 0.692711 0
M  V30 1116 H 122.448 0.77603 3.14878 0
M  V30 1117 H 122.233 2.54285 2.98466 0
M  V30 1118 H 123.723 1.88618 3.72576 0
M  V30 1119 N 124.16 -0.719506 1.40217 0
M  V30 1120 C 125.571 -1.29848 1.34151 0
M  V30 1121 C 125.922 -1.96196 0.0131349 0
M  V30 1122 O 125.047 -1.973 -0.88892 0
M  V30 1123 C 125.642 -2.36118 2.42968 0
M  V30 1124 C 124.201 -2.8965 2.40374 0
M  V30 1125 C 123.348 -1.63393 2.24049 0
M  V30 1126 H 126.299 -0.51591 1.5008 0
M  V30 1127 H 126.32 -3.16871 2.10649 0
M  V30 1128 H 125.832 -1.878 3.39636 0
M  V30 1129 H 123.933 -3.42208 1.47392 0
M  V30 1130 H 124.046 -3.4171 3.35814 0
M  V30 1131 H 122.41 -1.88312 1.71495 0
M  V30 1132 H 123.193 -1.17104 3.2271 0
M  V30 1133 N 125.638 -1.25649 -0.95132 0
M  V30 1134 C 126.57 -1.02112 -2.05197 0
M  V30 1135 C 127.583 0.0150571 -1.62793 0
M  V30 1136 O 128.772 -0.223874 -1.77091 0
M  V30 1137 C 125.872 -0.522361 -3.3485 0
M  V30 1138 C 125.045 -1.62546 -4.06076 0
M  V30 1139 C 124.104 -1.12649 -5.14001 0
M  V30 1140 O 123.13 -1.82156 -5.39266 0
M  V30 1141 N 124.332 0.03047 -5.80492 0
M  V30 1142 H 127.097 -1.96885 -2.25957 0
M  V30 1143 H 124.658 -1.16899 -1.1201 0
M  V30 1144 H 126.65 -0.172961 -4.0433 0
M  V30 1145 H 125.22 0.33151 -3.10837 0
M  V30 1146 H 124.44 -2.14628 -3.30649 0
M  V30 1147 H 125.728 -2.36644 -4.50419 0
M  V30 1148 H 125.126 0.611169 -5.62389 0
M  V30 1149 H 123.683 0.320875 -6.5101 0
M  V30 1150 N 127.117 1.15442 -1.07289 0
M  V30 1151 C 128.065 2.22225 -0.686952 0
M  V30 1152 C 129.059 1.66688 0.30193 0
M  V30 1153 O 130.265 1.79236 0.165712 0
M  V30 1154 H 126.64 0.723783 -0.204064 0
M  V30 1155 H 128.611 2.52056 -1.5972 0
M  V30 1156 C 127.36 3.47556 -0.100149 0
M  V30 1157 H 126.683 3.90612 -0.852211 0
M  V30 1158 H 128.123 4.23794 0.132235 0
M  V30 1159 C 126.582 3.16337 1.159 0
M  V30 1160 O 127.112 3.33074 2.24555 0
M  V30 1161 N 125.318 2.70385 1.06491 0
M  V30 1162 H 124.865 2.56966 0.180668 0
M  V30 1163 H 124.823 2.49871 1.90819 0
M  V30 1164 N 128.595 0.856903 1.32268 0
M  V30 1165 C 129.525 0.31858 2.31316 0
M  V30 1166 C 130.506 -0.583487 1.59779 0
M  V30 1167 O 131.691 -0.503259 1.87566 0
M  V30 1168 C 128.821 -0.491979 3.43798 0
M  V30 1169 C 127.775 0.315849 4.26833 0
M  V30 1170 C 127.101 -0.619586 5.31098 0
M  V30 1171 C 128.401 1.54282 4.98993 0
M  V30 1172 H 130.095 1.14621 2.76591 0
M  V30 1173 H 127.641 0.552613 1.32974 0
M  V30 1174 H 129.594 -0.879012 4.1213 0
M  V30 1175 H 128.318 -1.35299 2.97257 0
M  V30 1176 H 126.977 0.684664 3.6015 0
M  V30 1177 H 126.625 -1.47751 4.8081 0
M  V30 1178 H 126.325 -0.0830621 5.87541 0
M  V30 1179 H 127.849 -1.00375 6.02293 0
M  V30 1180 H 129.263 1.22796 5.59995 0
M  V30 1181 H 127.66 2.01745 5.65172 0
M  V30 1182 H 128.73 2.30285 4.26728 0
M  V30 1183 N 130.073 -1.45103 0.615059 0
M  V30 1184 C 131.32 -2.02183 0.113179 0
M  V30 1185 C 131.648 -1.48249 -1.25906 0
M  V30 1186 O 130.903 -0.650265 -1.84581 0
M  V30 1187 C 131.202 -3.57386 0.0318797 0
M  V30 1188 C 130.868 -4.30505 1.34077 0
M  V30 1189 C 129.53 -4.50197 1.69929 0
M  V30 1190 C 131.882 -4.72238 2.20546 0
M  V30 1191 C 129.21 -5.08881 2.91988 0
M  V30 1192 C 131.562 -5.32272 3.41861 0
M  V30 1193 C 130.226 -5.50187 3.77956 0
M  V30 1194 H 129.496 -0.739842 0.0414151 0
M  V30 1195 H 132.143 -1.74073 0.798168 0
M  V30 1196 H 130.448 -3.84817 -0.736409 0
M  V30 1197 H 132.145 -3.99264 -0.372712 0
M  V30 1198 H 128.735 -4.15496 1.05173 0
M  V30 1199 H 132.919 -4.56751 1.94146 0
M  V30 1200 H 128.175 -5.20939 3.2005 0
M  V30 1201 H 132.349 -5.63563 4.09109 0
M  V30 1202 H 129.976 -5.95427 4.72622 0
M  V30 1203 N 131.551 -0.354651 -1.53558 0
M  V30 1204 C 132.481 0.489091 -2.2832 0
M  V30 1205 C 133.462 1.09324 -1.30316 0
M  V30 1206 O 134.647 1.11255 -1.59173 0
M  V30 1207 C 131.777 1.63456 -3.0643 0
M  V30 1208 C 130.731 1.1582 -4.12031 0
M  V30 1209 C 130.057 2.39305 -4.7816 0
M  V30 1210 C 131.357 0.250731 -5.21698 0
M  V30 1211 H 133.051 -0.134614 -2.99097 0
M  V30 1212 H 130.597 -0.0661826 -1.43848 0
M  V30 1213 H 132.55 2.23136 -3.57475 0
M  V30 1214 H 131.274 2.28533 -2.33325 0
M  V30 1215 H 129.933 0.584146 -3.61916 0
M  V30 1216 H 129.581 3.02814 -4.01637 0
M  V30 1217 H 129.281 2.08109 -5.49513 0
M  V30 1218 H 130.805 2.99691 -5.31994 0
M  V30 1219 H 132.219 0.754695 -5.68311 0
M  V30 1220 H 130.616 0.0301468 -6.00092 0
M  V30 1221 H 131.686 -0.710125 -4.79672 0
M  V30 1222 N 133.029 1.57378 -0.0835403 0
M  V30 1223 C 134.275 1.94217 0.583733 0
M  V30 1224 C 134.608 0.964653 1.68547 0
M  V30 1225 O 133.883 -0.00422258 1.945 0
M  V30 1226 C 134.166 3.41253 1.14972 0
M  V30 1227 C 134.019 4.49768 0.0538277 0
M  V30 1228 C 135.338 3.89352 2.05166 0
M  V30 1229 H 132.457 0.706233 0.210724 0
M  V30 1230 H 135.099 1.89392 -0.1519 0
M  V30 1231 H 133.249 3.45496 1.77665 0
M  V30 1232 H 134.921 4.57641 -0.579851 0
M  V30 1233 H 133.164 4.29432 -0.614068 0
M  V30 1234 H 133.835 5.49817 0.490452 0
M  V30 1235 H 136.311 3.87189 1.52393 0
M  V30 1236 H 135.187 4.92822 2.41698 0
M  V30 1237 H 135.448 3.27973 2.96456 0
M  V30 1238 N 134.507 -0.190092 1.56449 0
M  V30 1239 C 135.732 -0.929864 1.85387 0
M  V30 1240 C 136.157 -1.7585 0.667704 0
M  V30 1241 O 135.515 -1.77198 -0.383459 0
M  V30 1242 C 135.563 -1.79773 3.12593 0
M  V30 1243 O 134.667 -2.89713 2.93496 0
M  V30 1244 H 134.008 -0.261574 0.610307 0
M  V30 1245 H 136.538 -0.193896 2.03679 0
M  V30 1246 H 136.548 -2.20139 3.43515 0
M  V30 1247 H 135.223 -1.18892 3.98544 0
M  V30 1248 H 133.8 -2.53065 2.73884 0
M  V30 1249 N 135.985 -1.50799 -0.457987 0
M  V30 1250 C 136.915 -1.73553 -1.5621 0
M  V30 1251 C 137.896 -0.584774 -1.59732 0
M  V30 1252 O 139.081 -0.825314 -1.7579 0
M  V30 1253 C 136.211 -1.84169 -2.94447 0
M  V30 1254 C 135.165 -2.99461 -3.0579 0
M  V30 1255 C 134.491 -2.95235 -4.45803 0
M  V30 1256 C 135.791 -4.39766 -2.81786 0
M  V30 1257 H 137.485 -2.66 -1.37421 0
M  V30 1258 H 135.031 -1.28002 -0.659662 0
M  V30 1259 H 136.984 -1.98672 -3.71628 0
M  V30 1260 H 135.708 -0.883545 -3.14422 0
M  V30 1261 H 134.367 -2.8463 -2.31044 0
M  V30 1262 H 134.015 -1.97239 -4.62715 0
M  V30 1263 H 133.715 -3.72642 -4.54326 0
M  V30 1264 H 135.239 -3.11803 -5.24987 0
M  V30 1265 H 136.653 -4.55054 -3.4871 0
M  V30 1266 H 135.05 -5.18722 -3.0174 0
M  V30 1267 H 136.12 -4.51229 -1.7754 0
M  V30 1268 N 137.463 0.71206 -1.40597 0
M  V30 1269 C 138.426 1.80785 -1.40888 0
M  V30 1270 C 139.426 1.57937 -0.302103 0
M  V30 1271 O 140.616 1.64913 -0.561182 0
M  V30 1272 C 137.748 3.18927 -1.20409 0
M  V30 1273 H 138.941 1.81924 -2.38419 0
M  V30 1274 H 136.494 0.91805 -1.26497 0
M  V30 1275 H 137.229 3.23436 -0.236522 0
M  V30 1276 H 137.014 3.36911 -2.00582 0
M  V30 1277 H 138.504 3.98949 -1.23408 0
M  V30 1278 N 138.941 1.26152 0.944643 0
M  V30 1279 C 140.166 1.14363 1.7302 0
M  V30 1280 C 140.591 -0.29772 1.85729 0
M  V30 1281 O 139.949 -1.2157 1.34501 0
M  V30 1282 C 139.997 1.81378 3.11664 0
M  V30 1283 O 139.101 1.10022 3.97453 0
M  V30 1284 H 138.442 0.398694 0.53098 0
M  V30 1285 H 140.972 1.66906 1.18337 0
M  V30 1286 H 140.982 1.88064 3.62072 0
M  V30 1287 H 139.657 2.86237 3.0173 0
M  V30 1288 H 138.234 1.11287 3.55907 0
M  V30 1289 N 140.419 -1.14872 1.07899 0
M  V30 1290 C 141.382 -2.17986 0.708161 0
M  V30 1291 C 142.382 -1.58775 -0.25442 0
M  V30 1292 O 143.572 -1.74166 -0.034645 0
M  V30 1293 C 140.704 -3.40871 0.0446929 0
M  V30 1294 H 141.897 -2.52306 1.62116 0
M  V30 1295 H 139.45 -1.2943 0.876218 0
M  V30 1296 H 140.185 -3.12124 -0.880281 0
M  V30 1297 H 139.97 -3.8511 0.737091 0
M  V30 1298 H 141.46 -4.17121 -0.19991 0
M  V30 1299 N 141.898 -0.863906 -1.31812 0
M  V30 1300 C 143.175 -0.39275 -1.91616 0
M  V30 1301 C 143.555 1.12461 -1.7865 0
M  V30 1302 O 142.903 1.95045 -1.19037 0
M  V30 1303 C 143.113 -0.867385 -3.38049 0
M  V30 1304 C 144.461 -0.889966 -4.15168 0
M  V30 1305 O 145.485 -0.812635 -3.46806 0
M  V30 1306 O 144.344 -1.00079 -5.37258 0
M  V30 1307 H 141.438 -0.116358 -0.818773 0
M  V30 1308 H 143.984 -0.951418 -1.40521 0
M  V30 1309 H 142.756 -1.91081 -3.41473 0
M  V30 1310 H 142.379 -0.286687 -3.96565 0
M  V30 1311 N 143.376 1.44774 -0.622745 0
M  V30 1312 C 144.625 2.01334 -0.121397 0
M  V30 1313 C 144.938 1.49505 1.26125 0
M  V30 1314 O 146.144 1.98139 1.85616 0
M  V30 1315 C 144.6 3.59516 -0.166298 0
M  V30 1316 C 144.208 4.20342 -1.54974 0
M  V30 1317 C 145.952 4.23582 0.279021 0
M  V30 1318 C 143.859 5.70721 -1.55021 0
M  V30 1319 H 142.789 0.752851 -0.0416172 0
M  V30 1320 H 145.44 1.66083 -0.780309 0
M  V30 1321 H 143.822 3.92027 0.559557 0
M  V30 1322 H 144.996 3.99381 -2.29851 0
M  V30 1323 H 143.311 3.68529 -1.93843 0
M  V30 1324 H 145.908 5.33868 0.298083 0
M  V30 1325 H 146.251 3.95327 1.30471 0
M  V30 1326 H 146.784 3.95843 -0.394063 0
M  V30 1327 H 143.523 6.03698 -2.55399 0
M  V30 1328 H 143.043 5.93829 -0.844245 0
M  V30 1329 H 144.722 6.34203 -1.28047 0
M  V30 1330 N 144.854 0.36279 1.53368 0
M  V30 1331 C 145.784 -0.476976 2.28576 0
M  V30 1332 C 146.765 -1.08631 1.30894 0
M  V30 1333 O 147.95 -1.10409 1.59761 0
M  V30 1334 C 145.08 -1.61828 3.07293 0
M  V30 1335 C 144.034 -1.13633 4.1264 0
M  V30 1336 C 143.36 -2.36766 4.79423 0
M  V30 1337 C 144.66 -0.223061 5.21823 0
M  V30 1338 H 146.354 0.150474 2.99022 0
M  V30 1339 H 143.9 0.0738103 1.43811 0
M  V30 1340 H 145.853 -2.21237 3.58653 0
M  V30 1341 H 144.577 -2.27292 2.34533 0
M  V30 1342 H 143.236 -0.564945 3.62221 0
M  V30 1343 H 142.884 -3.0068 4.03238 0
M  V30 1344 H 142.584 -2.05192 5.50609 0
M  V30 1345 H 144.108 -2.96865 5.33576 0
M  V30 1346 H 145.522 -0.724545 5.68703 0
M  V30 1347 H 143.919 0.001678 6.001 0
M  V30 1348 H 144.989 0.735553 4.79289 0
M  V30 1349 N 146.332 -1.57332 0.0918853 0
M  V30 1350 C 147.578 -1.94524 -0.573425 0
M  V30 1351 C 147.911 -0.973578 -1.68033 0
M  V30 1352 O 147.186 -0.00609226 -1.94499 0
M  V30 1353 C 147.469 -3.41858 -1.13161 0
M  V30 1354 C 147.322 -4.4979 -0.0299747 0
M  V30 1355 C 148.641 -3.90435 -2.03098 0
M  V30 1356 H 145.76 -0.70734 -0.206975 0
M  V30 1357 H 148.402 -1.89309 0.161942 0
M  V30 1358 H 146.552 -3.46433 -1.7583 0
M  V30 1359 H 148.224 -4.57327 0.604112 0
M  V30 1360 H 146.467 -4.291 0.636833 0
M  V30 1361 H 147.138 -5.50069 -0.461287 0
M  V30 1362 H 149.614 -3.87992 -1.50338 0
M  V30 1363 H 148.49 -4.94097 -2.39081 0
M  V30 1364 H 148.751 -3.29541 -2.94712 0
M  V30 1365 N 147.81 0.181792 -1.56548 0
M  V30 1366 C 148.773 1.20894 -1.94724 0
M  V30 1367 C 149.773 1.37738 -0.829747 0
M  V30 1368 O 150.963 1.35323 -1.09697 0
M  V30 1369 C 148.095 2.57593 -2.23291 0
M  V30 1370 H 149.288 0.882275 -2.86629 0
M  V30 1371 H 146.841 0.423838 -1.50444 0
M  V30 1372 H 147.576 2.95291 -1.34067 0
M  V30 1373 H 147.361 2.46735 -3.04736 0
M  V30 1374 H 148.851 3.31637 -2.53785 0
M  V30 1375 N 149.288 1.51039 0.449983 0
M  V30 1376 C 150.516 1.66869 1.2232 0
M  V30 1377 C 150.931 0.360727 1.85322 0
M  V30 1378 O 150.288 -0.659531 1.70166 0
M  V30 1379 C 150.339 2.77524 2.31652 0
M  V30 1380 O 150.06 4.03252 1.7123 0
M  V30 1381 C 151.561 3.04512 3.2216 0
M  V30 1382 H 148.781 0.560326 0.369155 0
M  V30 1383 H 151.325 1.97385 0.534719 0
M  V30 1384 H 149.48 2.49642 2.96239 0
M  V30 1385 H 149.894 4.64609 2.43389 0
M  V30 1386 H 151.368 3.85551 3.95038 0
M  V30 1387 H 151.845 2.16415 3.8218 0
M  V30 1388 H 152.451 3.34005 2.63288 0
M  V30 1389 N 150.766 -0.704594 1.40972 0
M  V30 1390 C 151.696 -1.83124 1.44872 0
M  V30 1391 C 152.677 -1.67281 0.30838 0
M  V30 1392 O 153.862 -1.87149 0.518556 0
M  V30 1393 C 150.992 -3.21181 1.32136 0
M  V30 1394 C 149.946 -3.51714 2.43888 0
M  V30 1395 C 149.272 -4.89032 2.16222 0
M  V30 1396 C 150.572 -3.516 3.86232 0
M  V30 1397 H 152.266 -1.80117 2.39161 0
M  V30 1398 H 149.812 -0.865145 1.15114 0
M  V30 1399 H 151.765 -3.99702 1.33479 0
M  V30 1400 H 150.489 -3.24791 0.343279 0
M  V30 1401 H 149.148 -2.75539 2.41813 0
M  V30 1402 H 148.796 -4.89256 1.16778 0
M  V30 1403 H 148.496 -5.10426 2.911 0
M  V30 1404 H 150.02 -5.69873 2.19265 0
M  V30 1405 H 151.434 -4.2014 3.9007 0
M  V30 1406 H 149.831 -3.84523 4.60719 0
M  V30 1407 H 150.901 -2.50757 4.15029 0
M  V30 1408 N 152.244 -1.26651 -0.937939 0
M  V30 1409 C 153.49 -1.12553 -1.687 0
M  V30 1410 C 153.823 0.329782 -1.91379 0
M  V30 1411 O 153.098 1.24202 -1.4968 0
M  V30 1412 C 153.381 -1.89862 -3.05981 0
M  V30 1413 C 153.234 -3.43318 -2.90607 0
M  V30 1414 C 154.553 -1.69499 -4.0615 0
M  V30 1415 H 151.672 -0.410257 -0.612257 0
M  V30 1416 H 154.314 -1.55685 -1.08913 0
M  V30 1417 H 152.464 -1.53204 -3.57017 0
M  V30 1418 H 154.136 -3.89747 -2.46769 0
M  V30 1419 H 152.379 -3.70179 -2.26164 0
M  V30 1420 H 153.05 -3.92642 -3.8799 0
M  V30 1421 H 155.526 -2.01442 -3.64088 0
M  V30 1422 H 154.402 -2.26002 -5.00214 0
M  V30 1423 H 154.663 -0.640365 -4.37438 0
M  V30 1424 N 153.722 1.14298 -1.08507 0
M  V30 1425 C 154.655 2.18447 -0.660004 0
M  V30 1426 C 155.633 1.59242 0.328749 0
M  V30 1427 O 156.817 1.87062 0.232367 0
M  V30 1428 C 153.944 3.38688 0.0290807 0
M  V30 1429 C 152.99 4.1646 -0.919982 0
M  V30 1430 S 153.823 4.77334 -2.42718 0
M  V30 1431 C 154.979 6.00931 -1.75024 0
M  V30 1432 H 155.212 2.54166 -1.54231 0
M  V30 1433 H 152.745 1.25446 -0.900149 0
M  V30 1434 H 154.703 4.08342 0.420378 0
M  V30 1435 H 153.364 3.01289 0.887895 0
M  V30 1436 H 152.557 5.02529 -0.384751 0
M  V30 1437 H 152.159 3.52414 -1.25223 0
M  V30 1438 H 154.451 6.69017 -1.06877 0
M  V30 1439 H 155.394 6.59044 -2.58971 0
M  V30 1440 H 155.802 5.51089 -1.22317 0
M  V30 1441 N 155.201 0.870884 1.31352 0
M  V30 1442 C 156.612 0.534714 1.78879 0
M  V30 1443 C 156.963 -0.948423 1.71754 0
M  V30 1444 O 156.088 -1.74055 1.28584 0
M  V30 1445 C 156.683 0.963839 3.24801 0
M  V30 1446 C 155.242 0.679311 3.70219 0
M  V30 1447 C 154.389 1.15465 2.52117 0
M  V30 1448 H 157.34 1.05651 1.18421 0
M  V30 1449 H 157.361 0.286892 3.79417 0
M  V30 1450 H 156.873 2.04332 3.29955 0
M  V30 1451 H 154.974 -0.388769 3.70566 0
M  V30 1452 H 155.087 1.25698 4.62317 0
M  V30 1453 H 153.451 0.574383 2.48139 0
M  V30 1454 H 154.234 2.24157 2.60016 0
M  V30 1455 N 156.679 -1.44442 0.630414 0
M  V30 1456 C 157.926 -2.02052 0.134617 0
M  V30 1457 C 158.254 -1.49576 -1.24327 0
M  V30 1458 O 157.509 -0.669806 -1.83881 0
M  V30 1459 C 157.808 -3.57332 0.0697835 0
M  V30 1460 C 157.474 -4.29058 1.38635 0
M  V30 1461 C 156.136 -4.4837 1.74694 0
M  V30 1462 C 158.488 -4.69872 2.25543 0
M  V30 1463 C 155.816 -5.05756 2.97369 0
M  V30 1464 C 158.168 -5.28616 3.47487 0
M  V30 1465 C 156.832 -5.46147 3.8377 0
M  V30 1466 H 156.102 -0.739361 0.0492598 0
M  V30 1467 H 158.749 -1.73217 0.816586 0
M  V30 1468 H 157.054 -3.85577 -0.695553 0
M  V30 1469 H 158.751 -3.99637 -0.330344 0
M  V30 1470 H 155.341 -4.14357 1.09574 0
M  V30 1471 H 159.525 -4.54666 1.98979 0
M  V30 1472 H 154.781 -5.17515 3.25558 0
M  V30 1473 H 158.955 -5.59192 4.15063 0
M  V30 1474 H 156.582 -5.9038 4.7891 0
M  V30 1475 N 158.157 -0.370918 -1.53173 0
M  V30 1476 C 159.382 0.220293 -2.06227 0
M  V30 1477 C 159.807 1.41243 -1.24225 0
M  V30 1478 O 159.165 1.79387 -0.262645 0
M  V30 1479 C 159.213 0.586663 -3.55796 0
M  V30 1480 O 158.317 1.68317 -3.76488 0
M  V30 1481 H 157.658 0.0308099 -0.663285 0
M  V30 1482 H 160.188 -0.533068 -1.97534 0
M  V30 1483 H 160.198 0.85617 -3.98916 0
M  V30 1484 H 158.873 -0.285013 -4.14922 0
M  V30 1485 H 157.45 1.40881 -3.45264 0
M  V30 1486 N 159.635 1.57281 -0.100228 0
M  V30 1487 C 160.565 2.17328 0.853857 0
M  V30 1488 C 161.546 1.10804 1.2906 0
M  V30 1489 O 162.731 1.38963 1.35657 0
M  V30 1490 C 159.861 2.75772 2.11109 0
M  V30 1491 C 158.815 3.87713 1.81279 0
M  V30 1492 C 158.141 4.32882 3.13874 0
M  V30 1493 C 159.441 5.10677 1.09574 0
M  V30 1494 H 161.135 2.97305 0.353545 0
M  V30 1495 H 158.681 1.43009 0.168612 0
M  V30 1496 H 160.634 3.16433 2.78296 0
M  V30 1497 H 159.358 1.93057 2.63432 0
M  V30 1498 H 158.017 3.476 1.16489 0
M  V30 1499 H 157.665 3.47051 3.64095 0
M  V30 1500 H 157.365 5.08358 2.94696 0
M  V30 1501 H 158.889 4.7618 3.82211 0
M  V30 1502 H 160.303 5.48474 1.66879 0
M  V30 1503 H 158.7 5.91615 1.00557 0
M  V30 1504 H 159.77 4.84835 0.0793299 0
M  V30 1505 N 161.113 -0.173488 1.56642 0
M  V30 1506 C 162.076 -1.19859 1.95362 0
M  V30 1507 C 163.076 -1.37296 0.83704 0
M  V30 1508 O 164.266 -1.34739 1.10413 0
M  V30 1509 C 161.398 -2.56405 2.24654 0
M  V30 1510 H 162.591 -0.867062 2.87092 0
M  V30 1511 H 160.144 -0.415853 1.50666 0
M  V30 1512 H 160.879 -2.94576 1.35631 0
M  V30 1513 H 160.664 -2.45115 3.06041 0
M  V30 1514 H 162.154 -3.30287 2.5554 0
M  V30 1515 N 162.591 -1.51276 -0.441967 0
M  V30 1516 C 163.539 -1.72823 -1.55676 0
M  V30 1517 C 164.533 -0.59445 -1.58627 0
M  V30 1518 O 165.739 -0.775715 -1.62427 0
M  V30 1519 H 162.114 -0.545983 -0.517113 0
M  V30 1520 H 164.085 -2.6628 -1.34675 0
M  V30 1521 C 162.834 -1.86619 -2.93375 0
M  V30 1522 H 162.157 -2.73264 -2.91834 0
M  V30 1523 H 163.597 -2.05709 -3.70756 0
M  V30 1524 C 162.056 -0.624842 -3.31055 0
M  V30 1525 O 162.586 0.222636 -4.01083 0
M  V30 1526 N 160.792 -0.470288 -2.86769 0
M  V30 1527 H 160.339 -1.161 -2.29953 0
M  V30 1528 H 160.297 0.359051 -3.12343 0
M  V30 1529 N 164.069 0.697108 -1.41344 0
M  V30 1530 C 164.979 1.84088 -1.45427 0
M  V30 1531 C 165.995 1.70545 -0.34501 0
M  V30 1532 O 167.171 1.92488 -0.592492 0
M  V30 1533 C 164.236 3.20056 -1.33286 0
M  V30 1534 C 163.297 3.45718 -2.54514 0
M  V30 1535 C 162.53 4.75199 -2.42944 0
M  V30 1536 O 162.753 5.51579 -1.45318 0
M  V30 1537 O 161.687 5.0161 -3.32672 0
M  V30 1538 H 165.513 1.836 -2.41919 0
M  V30 1539 H 163.098 0.849966 -1.22866 0
M  V30 1540 H 164.98 4.01236 -1.28794 0
M  V30 1541 H 163.655 3.2123 -0.39909 0
M  V30 1542 H 162.562 2.64474 -2.64583 0
M  V30 1543 H 163.895 3.49356 -3.46715 0
M  V30 1544 N 165.547 1.27147 0.931209 0
M  V30 1545 C 166.477 1.12081 2.04842 0
M  V30 1546 C 167.458 0.0232364 1.70084 0
M  V30 1547 O 168.643 0.197085 1.93197 0
M  V30 1548 C 165.773 0.76354 3.38803 0
M  V30 1549 C 164.727 1.81396 3.87659 0
M  V30 1550 C 164.053 1.31075 5.18385 0
M  V30 1551 C 165.353 3.21739 4.11438 0
M  V30 1552 H 167.047 2.05537 2.17703 0
M  V30 1553 H 164.593 0.989603 1.04608 0
M  V30 1554 H 166.546 0.644982 4.16435 0
M  V30 1555 H 165.27 -0.206727 3.25945 0
M  V30 1556 H 163.929 1.92136 3.12217 0
M  V30 1557 H 163.577 0.330037 5.01916 0
M  V30 1558 H 163.277 2.013 5.52044 0
M  V30 1559 H 164.801 1.20506 5.98591 0
M  V30 1560 H 166.215 3.14019 4.79651 0
M  V30 1561 H 164.612 3.89644 4.56397 0
M  V30 1562 H 165.682 3.67054 3.16859 0
M  V30 1563 N 167.025 -1.13721 1.09112 0
M  V30 1564 C 167.958 -2.18094 0.67158 0
M  V30 1565 C 168.936 -1.59414 -0.320299 0
M  V30 1566 O 170.12 -1.87183 -0.222444 0
M  V30 1567 C 167.247 -3.38698 -0.0111189 0
M  V30 1568 C 166.293 -4.15966 0.942055 0
M  V30 1569 S 167.126 -4.7604 2.45246 0
M  V30 1570 C 168.282 -5.99994 1.78208 0
M  V30 1571 H 168.515 -2.53344 1.55577 0
M  V30 1572 H 166.048 -1.24967 0.906789 0
M  V30 1573 H 168.006 -4.08559 -0.398716 0
M  V30 1574 H 166.667 -3.01756 -0.871905 0
M  V30 1575 H 165.86 -5.02318 0.411396 0
M  V30 1576 H 165.462 -3.51745 1.2709 0
M  V30 1577 H 167.754 -6.68441 1.10424 0
M  V30 1578 H 168.697 -6.57662 2.62463 0
M  V30 1579 H 169.105 -5.50432 1.25238 0
M  V30 1580 N 168.503 -0.877838 -1.30888 0
M  V30 1581 C 169.466 -0.344265 -2.266 0
M  V30 1582 C 170.466 0.50922 -1.52524 0
M  V30 1583 O 171.656 0.317398 -1.71284 0
M  V30 1584 C 168.788 0.510198 -3.37061 0
M  V30 1585 H 169.981 -1.1893 -2.7531 0
M  V30 1586 H 167.534 -0.654088 -1.41956 0
M  V30 1587 H 168.269 1.37612 -2.93655 0
M  V30 1588 H 168.054 -0.101047 -3.9197 0
M  V30 1589 H 169.544 0.875537 -4.08319 0
M  V30 1590 N 169.982 1.44106 -0.638065 0
M  V30 1591 C 171.212 2.06037 -0.152394 0
M  V30 1592 C 171.62 1.47808 1.18108 0
M  V30 1593 O 170.963 0.598092 1.73691 0
M  V30 1594 C 171.025 3.59488 0.0293714 0
M  V30 1595 C 170.689 4.4022 -1.22702 0
M  V30 1596 C 171.686 4.73256 -2.15232 0
M  V30 1597 C 169.371 4.8048 -1.46437 0
M  V30 1598 C 171.365 5.45444 -3.29802 0
M  V30 1599 C 169.052 5.52417 -2.61303 0
M  V30 1600 C 170.05 5.84819 -3.52811 0
M  V30 1601 O 169.738 6.55289 -4.65673 0
M  V30 1602 H 169.47 0.671233 -0.0801401 0
M  V30 1603 H 172.024 1.85851 -0.874563 0
M  V30 1604 H 170.254 3.78191 0.806758 0
M  V30 1605 H 171.943 4.03164 0.470475 0
M  V30 1606 H 172.709 4.42684 -1.98131 0
M  V30 1607 H 168.588 4.54676 -0.760977 0
M  V30 1608 H 172.132 5.70653 -4.01249 0
M  V30 1609 H 168.029 5.82404 -2.78344 0
M  V30 1610 H 168.797 6.73762 -4.64744 0
M  V30 1611 N 171.46 0.379036 1.52974 0
M  V30 1612 C 172.706 -0.199244 2.02422 0
M  V30 1613 C 173.061 -1.4532 1.26095 0
M  V30 1614 O 172.354 -1.88377 0.34996 0
M  V30 1615 C 172.548 -0.53096 3.53434 0
M  V30 1616 C 172.377 0.689298 4.44386 0
M  V30 1617 C 171.147 1.20546 4.9071 0
M  V30 1618 C 173.345 1.55856 4.90116 0
M  V30 1619 N 171.327 2.38434 5.65705 0
M  V30 1620 C 172.698 2.58396 5.63588 0
M  V30 1621 C 174.753 1.57986 4.7217 0
M  V30 1622 C 173.456 3.62939 6.21022 0
M  V30 1623 C 175.482 2.6143 5.30479 0
M  V30 1624 C 174.844 3.62693 6.03849 0
M  V30 1625 H 170.943 -0.0352671 0.781204 0
M  V30 1626 H 173.527 0.526614 1.87443 0
M  V30 1627 H 171.698 -1.22588 3.68547 0
M  V30 1628 H 173.43 -1.0955 3.89591 0
M  V30 1629 H 170.185 0.768022 4.67331 0
M  V30 1630 H 170.609 2.98055 6.07859 0
M  V30 1631 H 175.251 0.810475 4.14959 0
M  V30 1632 H 172.969 4.40751 6.77321 0
M  V30 1633 H 176.555 2.63949 5.18481 0
M  V30 1634 H 175.435 4.41424 6.48163 0
M  V30 1635 N 172.938 -1.57226 0.108567 0
M  V30 1636 C 174.168 -1.9889 -0.559142 0
M  V30 1637 C 174.576 -0.986889 -1.61422 0
M  V30 1638 O 173.919 0.0298705 -1.83676 0
M  V30 1639 C 173.981 -3.36952 -1.25315 0
M  V30 1640 C 173.645 -4.55679 -0.347248 0
M  V30 1641 C 174.642 -5.18281 0.409996 0
M  V30 1642 C 172.327 -5.0162 -0.261367 0
M  V30 1643 C 174.321 -6.25203 1.24096 0
M  V30 1644 C 172.008 -6.08405 0.573238 0
M  V30 1645 C 173.006 -6.70063 1.32304 0
M  V30 1646 O 172.694 -7.74788 2.14381 0
M  V30 1647 H 172.426 -0.658343 -0.153492 0
M  V30 1648 H 174.98 -2.04532 0.188584 0
M  V30 1649 H 173.21 -3.28032 -2.04773 0
M  V30 1650 H 174.899 -3.62974 -1.81673 0
M  V30 1651 H 175.665 -4.8371 0.353457 0
M  V30 1652 H 171.544 -4.53381 -0.834656 0
M  V30 1653 H 175.088 -6.73259 1.82669 0
M  V30 1654 H 170.985 -6.42406 0.631208 0
M  V30 1655 H 171.753 -7.91837 2.07209 0
M  V30 1656 N 174.416 0.165178 -1.56732 0
M  V30 1657 C 175.663 0.880807 -1.8234 0
M  V30 1658 C 175.991 1.81977 -0.686621 0
M  V30 1659 O 175.246 1.92971 0.325697 0
M  V30 1660 C 175.545 1.70405 -3.1416 0
M  V30 1661 C 175.211 0.913475 -4.4155 0
M  V30 1662 C 173.873 0.695303 -4.7615 0
M  V30 1663 C 176.225 0.359349 -5.1996 0
M  V30 1664 C 173.553 -0.0879947 -5.86634 0
M  V30 1665 C 175.905 -0.410893 -6.31264 0
M  V30 1666 C 174.569 -0.639808 -6.64427 0
M  V30 1667 H 173.839 0.32231 -0.667231 0
M  V30 1668 H 176.486 0.145402 -1.90947 0
M  V30 1669 H 174.791 2.50903 -3.00923 0
M  V30 1670 H 176.488 2.26091 -3.31186 0
M  V30 1671 H 173.078 1.09357 -4.14414 0
M  V30 1672 H 177.262 0.515228 -4.93618 0
M  V30 1673 H 172.518 -0.27503 -6.10781 0
M  V30 1674 H 176.692 -0.847494 -6.91224 0
M  V30 1675 H 174.319 -1.24864 -7.49875 0
M  V30 1676 N 175.894 1.51508 0.433938 0
M  V30 1677 C 177.142 1.6402 1.18075 0
M  V30 1678 C 177.463 0.360328 1.91642 0
M  V30 1679 O 176.733 -0.623945 1.85698 0
M  V30 1680 H 175.313 0.6045 0.43885 0
M  V30 1681 H 177.975 1.88452 0.497178 0
M  V30 1682 H 177.071 2.46949 1.90847 0
M  V30 1683 N 177.372 -0.689602 1.41712 0
M  V30 1684 C 178.304 -1.815 1.39966 0
M  V30 1685 C 179.317 -1.59995 0.300917 0
M  V30 1686 O 180.506 -1.69387 0.563039 0
M  V30 1687 C 177.606 -3.18364 1.16179 0
M  V30 1688 C 176.779 -3.66847 2.38206 0
M  V30 1689 C 175.838 -4.82398 2.10186 0
M  V30 1690 O 174.864 -4.93706 2.83272 0
M  V30 1691 N 176.066 -5.70064 1.0958 0
M  V30 1692 H 178.831 -1.83488 2.36965 0
M  V30 1693 H 176.392 -0.872149 1.36401 0
M  V30 1694 H 178.384 -3.93301 0.953756 0
M  V30 1695 H 176.954 -3.11365 0.27756 0
M  V30 1696 H 176.174 -2.82751 2.74673 0
M  V30 1697 H 177.462 -3.95978 3.19498 0
M  V30 1698 H 176.86 -5.63565 0.491019 0
M  V30 1699 H 175.417 -6.44874 0.947656 0
M  V30 1700 N 178.85 -1.27639 -0.924453 0
M  V30 1701 C 180.096 -1.14336 -1.67497 0
M  V30 1702 C 180.429 0.309465 -1.91718 0
M  V30 1703 O 179.704 1.22608 -1.50989 0
M  V30 1704 C 179.987 -1.93096 -3.0395 0
M  V30 1705 C 179.84 -3.46381 -2.8695 0
M  V30 1706 C 181.159 -1.73798 -4.0433 0
M  V30 1707 H 178.278 -0.416728 -0.607871 0
M  V30 1708 H 180.92 -1.56832 -1.07256 0
M  V30 1709 H 179.07 -1.56982 -3.55372 0
M  V30 1710 H 180.742 -3.92343 -2.42621 0
M  V30 1711 H 178.985 -3.72557 -2.22225 0
M  V30 1712 H 179.656 -3.96735 -3.83804 0
M  V30 1713 H 182.132 -2.05293 -3.61931 0
M  V30 1714 H 181.008 -2.31294 -4.97789 0
M  V30 1715 H 181.269 -0.686725 -4.36734 0
M  V30 1716 N 180.328 1.1314 -1.09713 0
M  V30 1717 C 181.574 1.84967 -0.846104 0
M  V30 1718 C 181.929 1.82082 0.621601 0
M  V30 1719 O 181.222 1.2501 1.452 0
M  V30 1720 C 181.416 3.32167 -1.3191 0
M  V30 1721 C 181.245 3.49386 -2.83125 0
M  V30 1722 C 180.015 3.63456 -3.51038 0
M  V30 1723 C 182.213 3.45179 -3.81256 0
M  V30 1724 N 180.195 3.68966 -4.9065 0
M  V30 1725 C 181.566 3.57094 -5.06837 0
M  V30 1726 C 183.621 3.28598 -3.74069 0
M  V30 1727 C 182.324 3.5414 -6.26081 0
M  V30 1728 C 184.35 3.26953 -4.92804 0
M  V30 1729 C 183.712 3.39422 -6.17229 0
M  V30 1730 H 179.811 0.692899 -0.362512 0
M  V30 1731 H 182.395 1.35506 -1.39808 0
M  V30 1732 H 180.566 3.80186 -0.794535 0
M  V30 1733 H 182.298 3.91815 -1.01308 0
M  V30 1734 H 179.053 3.65256 -3.01471 0
M  V30 1735 H 179.477 3.75404 -5.63383 0
M  V30 1736 H 184.119 3.17858 -2.78794 0
M  V30 1737 H 181.837 3.63653 -7.21653 0
M  V30 1738 H 185.423 3.15316 -4.88945 0
M  V30 1739 H 184.303 3.38114 -7.07565 0
M  V30 1740 N 181.806 0.884767 1.30421 0
M  V30 1741 C 183.046 0.509806 1.9794 0
M  V30 1742 C 183.41 -0.923736 1.68319 0
M  V30 1743 O 184.611 -1.40481 2.29169 0
M  V30 1744 C 182.882 0.776732 3.48858 0
M  V30 1745 S 184.441 0.503843 4.35898 0
M  V30 1746 H 181.259 0.189699 0.685227 0
M  V30 1747 H 183.861 1.14399 1.58535 0
M  V30 1748 H 182.565 1.81857 3.67908 0
M  V30 1749 H 182.096 0.1301 3.93185 0
M  V30 1750 H 184.111 -0.657625 4.91823 0
M  V30 1751 N 183.284 -1.43765 0.645699 0
M  V30 1752 C 184.532 -2.01499 0.155731 0
M  V30 1753 C 184.853 -1.51151 -1.232 0
M  V30 1754 O 184.123 -0.721044 -1.82148 0
M  V30 1755 H 182.703 -0.745003 0.0545817 0
M  V30 1756 H 185.365 -1.76075 0.835677 0
M  V30 1757 H 184.461 -3.1181 0.134577 0
M  V30 1758 N 184.763 -0.387143 -1.52771 0
M  V30 1759 C 186.009 0.196025 -2.0185 0
M  V30 1760 C 186.342 1.46641 -1.27319 0
M  V30 1761 O 185.617 1.90889 -0.373032 0
M  V30 1762 C 185.9 0.466136 -3.5707 0
M  V30 1763 C 185.753 -0.819385 -4.42274 0
M  V30 1764 C 187.072 1.25768 -4.21747 0
M  V30 1765 H 184.191 0.0697708 -0.73369 0
M  V30 1766 H 186.833 -0.516286 -1.82851 0
M  V30 1767 H 184.983 1.07293 -3.7339 0
M  V30 1768 H 186.655 -1.4563 -4.37709 0
M  V30 1769 H 184.898 -1.43517 -4.09372 0
M  V30 1770 H 185.569 -0.585065 -5.48891 0
M  V30 1771 H 188.045 0.744167 -4.09391 0
M  V30 1772 H 186.921 1.41541 -5.30337 0
M  V30 1773 H 187.182 2.27228 -3.79236 0
M  V30 1774 N 186.241 1.57166 -0.116904 0
M  V30 1775 C 187.471 1.99184 0.548586 0
M  V30 1776 C 187.879 0.995436 1.60897 0
M  V30 1777 O 187.222 -0.0201293 1.83689 0
M  V30 1778 C 187.284 3.37611 1.23526 0
M  V30 1779 C 186.948 4.55857 0.323077 0
M  V30 1780 C 187.945 5.18056 -0.437476 0
M  V30 1781 C 185.63 5.01751 0.234761 0
M  V30 1782 C 187.624 6.24536 -1.2741 0
M  V30 1783 C 185.311 6.08093 -0.605496 0
M  V30 1784 C 186.309 6.69352 -1.35856 0
M  V30 1785 O 185.997 7.7364 -2.18487 0
M  V30 1786 H 185.729 0.659148 0.149999 0
M  V30 1787 H 188.283 2.0443 -0.199428 0
M  V30 1788 H 186.513 3.29113 2.0303 0
M  V30 1789 H 188.202 3.63932 1.79745 0
M  V30 1790 H 188.968 4.83516 -0.379105 0
M  V30 1791 H 184.847 4.53817 0.810601 0
M  V30 1792 H 188.391 6.72281 -1.86237 0
M  V30 1793 H 184.288 6.42063 -0.665268 0
M  V30 1794 H 185.056 7.90727 -2.11406 0
M  V30 1795 N 187.719 -0.156864 1.56817 0
M  V30 1796 C 188.649 -1.19589 2.00551 0
M  V30 1797 C 189.63 -1.4536 0.883426 0
M  V30 1798 O 190.815 -1.56449 1.15054 0
M  V30 1799 C 187.945 -2.53143 2.37773 0
M  V30 1800 C 186.899 -2.41913 3.53075 0
M  V30 1801 C 186.225 -3.80088 3.76081 0
M  V30 1802 C 187.525 -1.91157 4.86062 0
M  V30 1803 H 189.219 -0.832293 2.87599 0
M  V30 1804 H 186.765 -0.398918 1.38364 0
M  V30 1805 H 188.718 -3.26047 2.66967 0
M  V30 1806 H 187.442 -2.91319 1.4765 0
M  V30 1807 H 186.101 -1.71462 3.24031 0
M  V30 1808 H 185.749 -4.15683 2.83225 0
M  V30 1809 H 185.449 -3.73439 4.53671 0
M  V30 1810 H 186.973 -4.54556 4.0769 0
M  V30 1811 H 188.387 -2.53846 5.14038 0
M  V30 1812 H 186.784 -1.95422 5.67389 0
M  V30 1813 H 187.854 -0.866673 4.77092 0
M  V30 1814 N 189.197 -1.51736 -0.425897 0
M  V30 1815 C 190.16 -1.73271 -1.50032 0
M  V30 1816 C 191.16 -0.602639 -1.4908 0
M  V30 1817 O 192.35 -0.87033 -1.509 0
M  V30 1818 C 189.482 -1.79969 -2.89523 0
M  V30 1819 H 190.675 -2.69172 -1.32237 0
M  V30 1820 H 188.228 -1.41899 -0.65532 0
M  V30 1821 H 188.963 -0.859241 -3.1271 0
M  V30 1822 H 188.748 -2.62109 -2.91619 0
M  V30 1823 H 190.238 -1.9843 -3.67444 0
M  V30 1824 N 190.675 0.682077 -1.42076 0
M  V30 1825 C 191.605 1.80796 -1.47767 0
M  V30 1826 C 192.586 1.6677 -0.334954 0
M  V30 1827 O 193.771 1.863 -0.548264 0
M  V30 1828 C 190.901 3.19038 -1.37229 0
M  V30 1829 C 189.855 3.47789 -2.49453 0
M  V30 1830 C 189.181 4.8553 -2.23975 0
M  V30 1831 C 190.481 3.45411 -3.91776 0
M  V30 1832 H 192.175 1.7629 -2.41997 0
M  V30 1833 H 189.721 0.846721 -1.16476 0
M  V30 1834 H 191.674 3.97528 -1.39821 0
M  V30 1835 H 190.398 3.24204 -0.394907 0
M  V30 1836 H 189.057 2.71657 -2.46166 0
M  V30 1837 H 188.705 4.87337 -1.24547 0
M  V30 1838 H 188.405 5.0573 -2.99184 0
M  V30 1839 H 189.929 5.66312 -2.28304 0
M  V30 1840 H 191.343 4.13882 -3.96705 0
M  V30 1841 H 189.74 3.77145 -4.66778 0
M  V30 1842 H 190.81 2.44122 -4.18966 0
M  V30 1843 N 192.153 1.28127 0.917671 0
M  V30 1844 C 193.43 1.05761 1.64542 0
M  V30 1845 C 193.81 -0.404344 2.07191 0
M  V30 1846 O 193.158 -1.38963 1.81388 0
M  V30 1847 C 193.368 2.02857 2.83989 0
M  V30 1848 C 194.716 2.32786 3.551 0
M  V30 1849 O 195.74 2.0091 2.94132 0
M  V30 1850 O 194.599 2.87169 4.64969 0
M  V30 1851 H 191.693 0.403916 0.721652 0
M  V30 1852 H 194.239 1.39431 0.967322 0
M  V30 1853 H 193.011 3.01407 2.49538 0
M  V30 1854 H 192.634 1.69809 3.59514 0
M  V30 1855 N 193.631 -1.12557 1.10312 0
M  V30 1856 C 194.877 -1.84311 0.846011 0
M  V30 1857 C 195.21 -1.83805 -0.626859 0
M  V30 1858 O 194.485 -1.28268 -1.46211 0
M  V30 1859 C 194.768 -3.32048 1.39341 0
M  V30 1860 C 194.621 -3.41016 2.93305 0
M  V30 1861 C 195.94 -4.27764 1.03468 0
M  V30 1862 H 193.059 -0.669192 0.30879 0
M  V30 1863 H 195.701 -1.32057 1.36605 0
M  V30 1864 H 193.851 -3.76678 0.951087 0
M  V30 1865 H 195.523 -3.05031 3.46055 0
M  V30 1866 H 193.766 -2.81603 3.29973 0
M  V30 1867 H 194.437 -4.44948 3.26689 0
M  V30 1868 H 196.913 -3.91253 1.41633 0
M  V30 1869 H 195.789 -5.29549 1.44463 0
M  V30 1870 H 196.05 -4.42064 -0.0560404 0
M  V30 1871 N 195.109 -0.891671 -1.2995 0
M  V30 1872 C 196.039 -0.379797 -2.30391 0
M  V30 1873 C 197.02 0.540919 -1.6127 0
M  V30 1874 O 198.205 0.453352 -1.88834 0
M  V30 1875 C 195.335 0.400654 -3.44981 0
M  V30 1876 C 194.289 -0.428905 -4.25846 0
M  V30 1877 C 193.615 0.478557 -5.32554 0
M  V30 1878 C 194.915 -1.67458 -4.94727 0
M  V30 1879 H 196.609 -1.21914 -2.73454 0
M  V30 1880 H 194.155 -0.587675 -1.31462 0
M  V30 1881 H 196.108 0.769434 -4.14316 0
M  V30 1882 H 194.832 1.27371 -3.0074 0
M  V30 1883 H 193.491 -0.779911 -3.58208 0
M  V30 1884 H 193.139 1.34951 -4.84559 0
M  V30 1885 H 192.839 -0.0727433 -5.87555 0
M  V30 1886 H 194.363 0.843705 -6.04743 0
M  V30 1887 H 195.777 -1.376 -5.56542 0
M  V30 1888 H 194.174 -2.16659 -5.59624 0
M  V30 1889 H 195.244 -2.41518 -4.20473 0
M  V30 1890 N 196.587 1.43421 -0.653314 0
M  V30 1891 C 197.834 2.01812 -0.166745 0
M  V30 1892 C 198.162 1.51535 1.21931 0
M  V30 1893 O 197.417 0.698975 1.82792 0
M  V30 1894 C 197.716 3.57176 -0.126623 0
M  V30 1895 C 197.382 4.26798 -1.45444 0
M  V30 1896 C 196.044 4.45534 -1.81805 0
M  V30 1897 C 198.396 4.66225 -2.32989 0
M  V30 1898 C 195.724 5.00961 -3.05377 0
M  V30 1899 C 198.076 5.23021 -3.55853 0
M  V30 1900 C 196.74 5.39973 -3.9241 0
M  V30 1901 H 196.01 0.738484 -0.0610162 0
M  V30 1902 H 198.657 1.71896 -0.84404 0
M  V30 1903 H 196.962 3.86634 0.634123 0
M  V30 1904 H 198.659 4.00112 0.266723 0
M  V30 1905 H 195.249 4.12561 -1.16153 0
M  V30 1906 H 199.433 4.51443 -2.06187 0
M  V30 1907 H 194.689 5.12271 -3.3375 0
M  V30 1908 H 198.863 5.52518 -4.23907 0
M  V30 1909 H 196.49 5.82687 -4.88242 0
M  V30 1910 N 198.065 0.39524 1.52563 0
M  V30 1911 C 199.305 -0.184744 2.03563 0
M  V30 1912 C 199.669 -1.43548 1.27507 0
M  V30 1913 O 200.87 -2.093 1.68662 0
M  V30 1914 C 199.141 -0.440294 3.54678 0
M  V30 1915 S 200.7 -0.989712 4.27493 0
M  V30 1916 H 197.518 -0.0515075 0.709132 0
M  V30 1917 H 200.12 0.544957 1.87751 0
M  V30 1918 H 198.824 0.477005 4.07618 0
M  V30 1919 H 198.355 -1.19825 3.74707 0
M  V30 1920 H 200.37 -2.27155 4.41152 0
M  V30 1921 N 199.544 -1.57102 0.125237 0
M  V30 1922 C 200.772 -1.99761 -0.538797 0
M  V30 1923 C 201.187 -1.00503 -1.59827 0
M  V30 1924 O 200.544 0.00119474 -1.825 0
M  V30 1925 C 200.595 -3.42408 -1.15927 0
M  V30 1926 O 200.316 -4.37869 -0.142143 0
M  V30 1927 C 201.817 -4.00232 -1.90602 0
M  V30 1928 H 199.037 -0.655772 -0.14214 0
M  V30 1929 H 201.581 -2.03383 0.213413 0
M  V30 1930 H 199.736 -3.39706 -1.86223 0
M  V30 1931 H 200.15 -5.21128 -0.593775 0
M  V30 1932 H 201.624 -5.02105 -2.29335 0
M  V30 1933 H 202.101 -3.39721 -2.78363 0
M  V30 1934 H 202.707 -4.06499 -1.25055 0
M  V30 1935 N 201.022 0.148545 -1.56898 0
M  V30 1936 C 202.247 0.880385 -1.87787 0
M  V30 1937 C 202.672 1.74018 -0.714093 0
M  V30 1938 O 202.03 1.78153 0.336343 0
M  V30 1939 C 202.078 1.71422 -3.17249 0
M  V30 1940 O 201.182 2.8183 -3.01074 0
M  V30 1941 H 200.523 0.245301 -0.617028 0
M  V30 1942 H 203.053 0.139826 -2.04122 0
M  V30 1943 H 203.063 2.10954 -3.49231 0
M  V30 1944 H 201.738 1.08284 -4.01556 0
M  V30 1945 H 200.315 2.45715 -2.80497 0
M  V30 1946 N 202.5 1.5196 0.417844 0
M  V30 1947 C 203.725 1.69717 1.1921 0
M  V30 1948 C 204.15 0.402148 1.83751 0
M  V30 1949 O 203.508 -0.639593 1.69643 0
M  V30 1950 C 203.556 2.82794 2.2374 0
M  V30 1951 O 202.66 2.47756 3.29683 0
M  V30 1952 H 202.001 0.565263 0.348387 0
M  V30 1953 H 204.531 1.98621 0.490985 0
M  V30 1954 H 204.541 3.07452 2.68212 0
M  V30 1955 H 203.216 3.76756 1.76146 0
M  V30 1956 H 201.793 2.33739 2.90552 0
M  V30 1957 N 203.978 -0.674533 1.42435 0
M  V30 1958 C 205.227 -1.43034 1.42212 0
M  V30 1959 C 205.54 -1.95555 0.0420788 0
M  V30 1960 O 206.746 -2.71374 -0.0827558 0
M  V30 1961 C 205.202 -2.58748 2.50155 0
M  V30 1962 C 204.81 -2.12925 3.94166 0
M  V30 1963 C 206.554 -3.36257 2.59098 0
M  V30 1964 C 204.461 -3.25723 4.93618 0
M  V30 1965 H 203.391 -0.537345 0.528939 0
M  V30 1966 H 206.042 -0.73024 1.68344 0
M  V30 1967 H 204.424 -3.31128 2.17188 0
M  V30 1968 H 205.598 -1.47697 4.36488 0
M  V30 1969 H 203.913 -1.48354 3.89076 0
M  V30 1970 H 206.51 -4.20264 3.30578 0
M  V30 1971 H 206.853 -3.82866 1.63461 0
M  V30 1972 H 207.386 -2.70947 2.9126 0
M  V30 1973 H 204.125 -2.84105 5.90732 0
M  V30 1974 H 203.645 -3.89732 4.55926 0
M  V30 1975 H 205.324 -3.91186 5.15347 0
M  V30 1976 N 205.456 -1.28612 -0.910864 0
M  V30 1977 C 206.702 -1.16106 -1.66274 0
M  V30 1978 C 207.035 0.289113 -1.92036 0
M  V30 1979 O 206.31 1.21 -1.52281 0
M  V30 1980 C 206.593 -1.96309 -3.01885 0
M  V30 1981 C 206.446 -3.49405 -2.8326 0
M  V30 1982 C 207.765 -1.78076 -4.02463 0
M  V30 1983 H 204.884 -0.423152 -0.603417 0
M  V30 1984 H 207.526 -1.57961 -1.05586 0
M  V30 1985 H 205.676 -1.60742 -3.53687 0
M  V30 1986 H 207.348 -3.94894 -2.38446 0
M  V30 1987 H 205.591 -3.74893 -2.18261 0
M  V30 1988 H 206.262 -4.00784 -3.79574 0
M  V30 1989 H 208.738 -2.0912 -3.59733 0
M  V30 1990 H 207.614 -2.36561 -4.95308 0
M  V30 1991 H 207.875 -0.733008 -4.35981 0
M  V30 1992 N 206.934 1.1197 -1.10907 0
M  V30 1993 C 207.884 2.15946 -0.731538 0
M  V30 1994 C 208.868 1.58758 0.261699 0
M  V30 1995 O 210.06 1.76863 0.0696722 0
M  V30 1996 C 207.189 3.42877 -0.170299 0
M  V30 1997 C 206.275 4.07037 -1.19087 0
M  V30 1998 N 206.666 4.46135 -2.38322 0
M  V30 1999 C 204.964 4.33884 -1.03252 0
M  V30 2000 C 205.665 4.96331 -3.03366 0
M  V30 2001 N 204.641 4.9214 -2.30865 0
M  V30 2002 H 208.443 2.43947 -1.63912 0
M  V30 2003 H 205.957 1.28927 -0.987505 0
M  V30 2004 H 207.954 4.16732 0.118271 0
M  V30 2005 H 206.614 3.16343 0.731935 0
M  V30 2006 H 207.625 4.38345 -2.75815 0
M  V30 2007 H 204.302 4.17084 -0.186256 0
M  V30 2008 H 205.692 5.36257 -4.04818 0
M  V30 2009 N 208.412 0.89855 1.29475 0
M  V30 2010 C 209.342 0.39201 2.30186 0
M  V30 2011 C 210.323 -0.532359 1.61555 0
M  V30 2012 O 211.508 -0.443331 1.89072 0
M  V30 2013 C 208.638 -0.382353 3.45189 0
M  V30 2014 C 207.592 0.451483 4.25612 0
M  V30 2015 C 206.918 -0.450307 5.328 0
M  V30 2016 C 208.218 1.70079 4.93832 0
M  V30 2017 H 209.912 1.23362 2.72804 0
M  V30 2018 H 207.458 0.594638 1.31149 0
M  V30 2019 H 209.411 -0.747451 4.14718 0
M  V30 2020 H 208.135 -1.25774 3.01411 0
M  V30 2021 H 206.794 0.798897 3.57789 0
M  V30 2022 H 206.442 -1.32379 4.85268 0
M  V30 2023 H 206.142 0.103902 5.87508 0
M  V30 2024 H 207.666 -0.811623 6.05182 0
M  V30 2025 H 209.08 1.40549 5.55805 0
M  V30 2026 H 207.477 2.19623 5.58467 0
M  V30 2027 H 208.547 2.43744 4.19186 0
M  V30 2028 N 209.89 -1.43072 0.660911 0
M  V30 2029 C 211.13 -2.03596 0.181146 0
M  V30 2030 C 211.494 -1.51057 -1.18515 0
M  V30 2031 O 212.695 -2.03275 -1.75877 0
M  V30 2032 C 210.966 -3.56845 0.19911 0
M  V30 2033 S 212.525 -4.38289 -0.211684 0
M  V30 2034 H 209.343 -0.706954 0.0757479 0
M  V30 2035 H 211.945 -1.75027 0.870965 0
M  V30 2036 H 210.649 -3.92583 1.1961 0
M  V30 2037 H 210.18 -3.90067 -0.510996 0
M  V30 2038 H 212.195 -4.74583 -1.44863 0
M  V30 2039 N 211.368 -0.403325 -1.52352 0
M  V30 2040 C 212.331 0.413051 -2.25447 0
M  V30 2041 C 213.331 0.978513 -1.276 0
M  V30 2042 O 214.521 0.858305 -1.51587 0
M  V30 2043 C 211.653 1.58087 -3.02029 0
M  V30 2044 H 212.846 -0.227094 -2.99039 0
M  V30 2045 H 210.399 -0.155722 -1.55522 0
M  V30 2046 H 211.134 2.25804 -2.32772 0
M  V30 2047 H 210.919 1.18195 -3.73861 0
M  V30 2048 H 212.409 2.1585 -3.57489 0
M  V30 2049 N 212.846 1.57033 -0.133567 0
M  V30 2050 C 214.095 1.94861 0.520768 0
M  V30 2051 C 214.408 1.02012 1.66892 0
M  V30 2052 O 215.614 1.29365 2.38699 0
M  V30 2053 C 214.07 3.46362 0.977809 0
M  V30 2054 C 213.678 4.47773 -0.142674 0
M  V30 2055 C 215.422 3.93083 1.60269 0
M  V30 2056 C 213.329 5.90468 0.331883 0
M  V30 2057 H 212.259 0.727453 0.198315 0
M  V30 2058 H 214.91 1.82227 -0.215759 0
M  V30 2059 H 213.292 3.54282 1.7692 0
M  V30 2060 H 214.466 4.51536 -0.919317 0
M  V30 2061 H 212.781 4.10891 -0.675124 0
M  V30 2062 H 215.378 4.97121 1.96914 0
M  V30 2063 H 215.721 3.33876 2.48662 0
M  V30 2064 H 216.254 3.88025 0.876453 0
M  V30 2065 H 212.993 6.53463 -0.516341 0
M  V30 2066 H 212.513 5.90094 1.07469 0
M  V30 2067 H 214.192 6.42179 0.788332 0
M  V30 2068 N 214.325 -0.140222 1.56975 0
M  V30 2069 C 215.55 -0.870414 1.88251 0
M  V30 2070 C 215.975 -1.73637 0.723312 0
M  V30 2071 O 215.333 -1.78329 -0.32689 0
M  V30 2072 C 215.381 -1.69737 3.18154 0
M  V30 2073 O 214.485 -2.80229 3.02565 0
M  V30 2074 H 213.826 -0.242025 0.61832 0
M  V30 2075 H 216.356 -0.128999 2.04193 0
M  V30 2076 H 216.366 -2.09099 3.50345 0
M  V30 2077 H 215.041 -1.06152 4.02125 0
M  V30 2078 H 213.618 -2.44224 2.81796 0
M  V30 2079 N 215.803 -1.52179 -0.40978 0
M  V30 2080 C 216.733 -1.78435 -1.5061 0
M  V30 2081 C 217.714 -0.635295 -1.57791 0
M  V30 2082 O 218.899 -0.880823 -1.73076 0
M  V30 2083 C 216.029 -1.93444 -2.88439 0
M  V30 2084 C 214.983 -3.09038 -2.96108 0
M  V30 2085 C 214.309 -3.09268 -4.36185 0
M  V30 2086 C 215.609 -4.48508 -2.67652 0
M  V30 2087 H 217.303 -2.70237 -1.28889 0
M  V30 2088 H 214.849 -1.30036 -0.618605 0
M  V30 2089 H 216.802 -2.10394 -3.65119 0
M  V30 2090 H 215.526 -0.983129 -3.11452 0
M  V30 2091 H 214.185 -2.91837 -2.21872 0
M  V30 2092 H 213.833 -2.11861 -4.56206 0
M  V30 2093 H 213.533 -3.86907 -4.42241 0
M  V30 2094 H 215.057 -3.28348 -5.14801 0
M  V30 2095 H 216.471 -4.65918 -3.34056 0
M  V30 2096 H 214.868 -5.28059 -2.85085 0
M  V30 2097 H 215.938 -4.56649 -1.63095 0
M  V30 2098 N 217.281 0.66697 -1.42791 0
M  V30 2099 C 218.558 1.4234 -1.34159 0
M  V30 2100 C 218.938 2.11093 0.0172729 0
M  V30 2101 O 218.286 2.03808 1.03318 0
M  V30 2102 C 218.496 2.41942 -2.51526 0
M  V30 2103 C 219.844 3.06353 -2.93995 0
M  V30 2104 O 220.868 2.52269 -2.51473 0
M  V30 2105 O 219.727 4.04376 -3.67617 0
M  V30 2106 H 216.821 0.635277 -0.529483 0
M  V30 2107 H 219.367 0.695034 -1.54814 0
M  V30 2108 H 218.139 1.89991 -3.42081 0
M  V30 2109 H 217.762 3.22249 -2.32898 0
M  V30 2110 N 218.759 1.29093 0.90403 0
M  V30 2111 C 220.175 1.07011 1.1841 0
M  V30 2112 C 220.375 -0.181358 2.00682 0
M  V30 2113 O 219.431 -0.880331 2.36657 0
M  V30 2114 C 220.744 2.32311 1.90924 0
M  V30 2115 C 222.292 2.37587 2.03768 0
M  V30 2116 C 222.767 3.62679 2.79693 0
M  V30 2117 N 224.258 3.63376 2.87249 0
M  V30 2118 C 224.993 4.56848 3.46522 0
M  V30 2119 N 224.489 5.60648 4.06996 0
M  V30 2120 N 226.282 4.44426 3.44154 0
M  V30 2121 H 218.433 2.09412 0.354993 0
M  V30 2122 H 220.696 0.922181 0.219742 0
M  V30 2123 H 220.402 3.23536 1.37905 0
M  V30 2124 H 220.276 2.39483 2.91424 0
M  V30 2125 H 222.663 1.46853 2.55965 0
M  V30 2126 H 222.744 2.34403 1.02415 0
M  V30 2127 H 222.388 4.53762 2.28173 0
M  V30 2128 H 222.318 3.63119 3.81381 0
M  V30 2129 H 224.809 2.88321 2.44293 0
M  V30 2130 H 225.122 6.28101 4.50232 0
M  V30 2131 H 223.467 5.64463 4.05471 0
M  V30 2132 H 226.658 3.62529 2.96126 0
M  V30 2133 H 226.831 5.17457 3.90054 0
M  V30 2134 N 220.237 -1.11381 1.11499 0
M  V30 2135 C 221.467 -1.86663 0.885464 0
M  V30 2136 C 221.875 -1.80464 -0.568281 0
M  V30 2137 O 221.218 -1.18445 -1.40415 0
M  V30 2138 C 221.28 -3.36337 1.26956 0
M  V30 2139 C 220.944 -3.66304 2.73259 0
M  V30 2140 C 221.941 -3.63733 3.71476 0
M  V30 2141 C 219.626 -3.9529 3.09921 0
M  V30 2142 C 221.62 -3.89725 5.04374 0
M  V30 2143 C 219.307 -4.20941 4.43004 0
M  V30 2144 C 220.305 -4.18147 5.40039 0
M  V30 2145 O 219.993 -4.43153 6.70724 0
M  V30 2146 H 219.725 -0.597114 0.316908 0
M  V30 2147 H 222.279 -1.41782 1.48617 0
M  V30 2148 H 220.509 -3.81826 0.611999 0
M  V30 2149 H 222.198 -3.92986 1.01573 0
M  V30 2150 H 222.964 -3.41389 3.44498 0
M  V30 2151 H 218.843 -3.966 2.35009 0
M  V30 2152 H 222.387 -3.8746 5.80104 0
M  V30 2153 H 218.284 -4.42761 4.69716 0
M  V30 2154 H 219.052 -4.60717 6.76522 0
M  V30 2155 N 221.715 -0.905404 -1.28997 0
M  V30 2156 C 222.961 -0.544465 -1.95977 0
M  V30 2157 C 223.316 0.90041 -1.70031 0
M  V30 2158 O 222.609 1.63064 -1.00601 0
M  V30 2159 C 222.803 -0.779906 -3.48787 0
M  V30 2160 C 222.632 -2.24612 -3.89589 0
M  V30 2161 C 221.402 -2.89464 -4.14172 0
M  V30 2162 C 223.6 -3.22182 -4.00878 0
M  V30 2163 N 221.582 -4.26469 -4.41585 0
M  V30 2164 C 222.953 -4.44323 -4.32409 0
M  V30 2165 C 225.008 -3.17694 -3.83373 0
M  V30 2166 C 223.711 -5.62546 -4.48258 0
M  V30 2167 C 225.737 -4.35208 -4.00435 0
M  V30 2168 C 225.099 -5.56121 -4.3233 0
M  V30 2169 H 221.198 -0.248948 -0.741316 0
M  V30 2170 H 223.782 -1.1674 -1.5582 0
M  V30 2171 H 221.953 -0.186308 -3.87953 0
M  V30 2172 H 223.685 -0.383833 -4.02876 0
M  V30 2173 H 220.44 -2.40232 -4.08149 0
M  V30 2174 H 220.864 -4.97283 -4.5939 0
M  V30 2175 H 225.506 -2.25297 -3.57773 0
M  V30 2176 H 223.224 -6.55429 -4.72692 0
M  V30 2177 H 226.81 -4.33228 -3.88336 0
M  V30 2178 H 225.69 -6.45537 -4.45255 0
M  V30 2179 N 223.193 1.4272 -0.668489 0
M  V30 2180 C 224.418 2.06484 -0.194758 0
M  V30 2181 C 224.843 1.49862 1.13679 0
M  V30 2182 O 224.201 0.614582 1.70565 0
M  V30 2183 C 224.249 3.60353 -0.133546 0
M  V30 2184 O 223.353 4.02464 0.899806 0
M  V30 2185 H 222.694 0.656137 -0.10188 0
M  V30 2186 H 225.224 1.82964 -0.915722 0
M  V30 2187 H 225.234 4.07976 0.0447041 0
M  V30 2188 H 223.909 4.00938 -1.1055 0
M  V30 2189 H 222.486 3.66402 0.693109 0
M  V30 2190 N 224.671 0.411399 1.52136 0
M  V30 2191 C 225.917 -0.163888 2.02137 0
M  V30 2192 C 226.25 -1.44597 1.29636 0
M  V30 2193 O 225.525 -1.90272 0.403353 0
M  V30 2194 C 225.808 -0.40927 3.57767 0
M  V30 2195 C 225.661 0.889643 4.40914 0
M  V30 2196 C 226.98 -1.19042 4.23694 0
M  V30 2197 H 224.099 -0.0580896 0.734707 0
M  V30 2198 H 226.741 0.54531 1.82007 0
M  V30 2199 H 224.891 -1.0134 3.7505 0
M  V30 2200 H 226.563 1.52575 4.35337 0
M  V30 2201 H 224.806 1.50011 4.07037 0
M  V30 2202 H 225.477 0.672314 5.4789 0
M  V30 2203 H 227.953 -0.678942 4.10524 0
M  V30 2204 H 226.829 -1.33086 5.32522 0
M  V30 2205 H 227.09 -2.21166 3.82803 0
M  V30 2206 N 226.149 -1.5696 0.141893 0
M  V30 2207 C 227.377 -2.00322 -0.517579 0
M  V30 2208 C 227.792 -1.02193 -1.58752 0
M  V30 2209 O 227.149 -0.0181619 -1.82491 0
M  V30 2210 C 227.2 -3.43618 -1.12289 0
M  V30 2211 O 226.921 -4.37995 -0.0956929 0
M  V30 2212 C 228.422 -4.02231 -1.86347 0
M  V30 2213 H 225.642 -0.657243 -0.135177 0
M  V30 2214 H 228.186 -2.03146 0.234973 0
M  V30 2215 H 226.341 -3.41662 -1.82609 0
M  V30 2216 H 226.755 -5.21729 -0.538469 0
M  V30 2217 H 228.229 -5.04509 -2.23997 0
M  V30 2218 H 228.706 -3.42655 -2.74744 0
M  V30 2219 H 229.312 -4.07802 -1.20737 0
M  V30 2220 N 227.627 0.131896 -1.57047 0
M  V30 2221 C 228.559 1.1878 -1.9602 0
M  V30 2222 C 229.572 1.38363 -0.857875 0
M  V30 2223 O 230.761 1.37666 -1.13623 0
M  V30 2224 C 227.861 2.55008 -2.23213 0
M  V30 2225 C 227.034 2.56201 -3.54513 0
M  V30 2226 C 226.093 3.7408 -3.70069 0
M  V30 2227 O 225.119 3.58258 -4.42312 0
M  V30 2228 N 226.321 4.92137 -3.07866 0
M  V30 2229 H 229.086 0.85639 -2.87204 0
M  V30 2230 H 226.647 0.321309 -1.5868 0
M  V30 2231 H 228.639 3.32404 -2.30846 0
M  V30 2232 H 227.209 2.80382 -1.3822 0
M  V30 2233 H 226.429 1.64613 -3.58185 0
M  V30 2234 H 227.717 2.54043 -4.4084 0
M  V30 2235 H 227.115 5.07895 -2.49116 0
M  V30 2236 H 225.672 5.67254 -3.21039 0
M  V30 2237 N 229.106 1.52395 0.401703 0
M  V30 2238 C 230.069 1.75636 1.47257 0
M  V30 2239 C 231.069 0.62628 1.48103 0
M  V30 2240 O 232.259 0.894227 1.49497 0
M  V30 2241 C 229.391 1.84553 2.86624 0
M  V30 2242 H 230.584 2.71241 1.27938 0
M  V30 2243 H 228.137 1.42923 0.632662 0
M  V30 2244 H 228.872 0.908882 3.11303 0
M  V30 2245 H 228.657 2.66715 2.87412 0
M  V30 2246 H 230.147 2.04251 3.64241 0
M  V30 2247 N 230.584 -0.659388 1.43143 0
M  V30 2248 C 231.83 -1.42145 1.44647 0
M  V30 2249 C 232.163 -1.9408 0.0681907 0
M  V30 2250 O 231.438 -1.71899 -0.910007 0
M  V30 2251 C 231.721 -2.60735 2.48373 0
M  V30 2252 C 231.574 -2.14332 3.95451 0
M  V30 2253 C 232.893 -3.62951 2.48906 0
M  V30 2254 H 230.012 -0.51552 0.526696 0
M  V30 2255 H 232.654 -0.748069 1.74654 0
M  V30 2256 H 230.804 -3.18184 2.22916 0
M  V30 2257 H 232.476 -1.61932 4.31944 0
M  V30 2258 H 230.719 -1.4576 4.08578 0
M  V30 2259 H 231.39 -2.99583 4.63631 0
M  V30 2260 H 233.866 -3.1525 2.71582 0
M  V30 2261 H 232.742 -4.43487 3.23435 0
M  V30 2262 H 233.003 -4.15126 1.52061 0
M  V30 2263 N 232.062 -1.29571 -0.897171 0
M  V30 2264 C 232.972 -1.16808 -2.03453 0
M  V30 2265 C 233.988 -0.0907471 -1.73763 0
M  V30 2266 O 235.164 -0.303312 -1.99103 0
M  V30 2267 C 232.229 -0.848264 -3.36163 0
M  V30 2268 C 231.29 -2.0097 -3.79354 0
M  V30 2269 C 230.523 -1.70505 -5.05731 0
M  V30 2270 O 230.746 -0.62718 -5.66941 0
M  V30 2271 O 229.68 -2.5538 -5.45036 0
M  V30 2272 H 233.506 -2.12325 -2.17144 0
M  V30 2273 H 231.091 -1.09047 -1.02123 0
M  V30 2274 H 232.973 -0.684581 -4.15802 0
M  V30 2275 H 231.648 0.0771071 -3.23608 0
M  V30 2276 H 230.555 -2.22863 -3.00471 0
M  V30 2277 H 231.888 -2.91636 -3.96496 0
M  V30 2278 N 233.54 1.10788 -1.12088 0
M  V30 2279 C 234.77 1.86191 -0.895351 0
M  V30 2280 C 235.178 1.80763 0.558702 0
M  V30 2281 O 234.521 1.19188 1.39785 0
M  V30 2282 C 234.583 3.35659 -1.28737 0
M  V30 2283 C 234.247 3.64849 -2.75198 0
M  V30 2284 C 235.244 3.61757 -3.734 0
M  V30 2285 C 232.929 3.93641 -3.12013 0
M  V30 2286 C 234.923 3.87045 -5.06434 0
M  V30 2287 C 232.61 4.18585 -4.4523 0
M  V30 2288 C 233.608 4.15277 -5.42249 0
M  V30 2289 O 233.296 4.3959 -6.73065 0
M  V30 2290 H 233.028 0.595425 -0.32007 0
M  V30 2291 H 235.582 1.40992 -1.49367 0
M  V30 2292 H 233.812 3.81497 -0.63224 0
M  V30 2293 H 235.501 3.92441 -1.03656 0
M  V30 2294 H 236.267 3.39557 -3.46303 0
M  V30 2295 H 232.146 3.95348 -2.37109 0
M  V30 2296 H 235.69 3.84378 -5.82151 0
M  V30 2297 H 231.587 4.40264 -4.72057 0
M  V30 2298 H 232.355 4.57123 -6.78956 0
M  V30 2299 N 235.018 0.912232 1.28515 0
M  V30 2300 C 235.966 0.389597 2.29314 0
M  V30 2301 C 236.96 -0.517915 1.61289 0
M  V30 2302 O 238.166 -0.399328 1.75515 0
M  V30 2303 H 234.541 0.107386 0.744293 0
M  V30 2304 H 236.512 1.25286 2.70825 0
M  V30 2305 C 235.261 -0.356496 3.45868 0
M  V30 2306 H 234.584 0.332608 3.98414 0
M  V30 2307 H 236.024 -0.686851 4.184 0
M  V30 2308 C 234.483 -1.56383 2.98406 0
M  V30 2309 O 235.013 -2.66294 3.00749 0
M  V30 2310 N 233.219 -1.41029 2.54085 0
M  V30 2311 H 232.766 -0.516089 2.52377 0
M  V30 2312 H 232.724 -2.21939 2.22689 0
M  V30 2313 N 236.496 -1.42363 0.676048 0
M  V30 2314 C 237.426 -2.33497 0.0124832 0
M  V30 2315 C 238.407 -1.50748 -0.787981 0
M  V30 2316 O 239.592 -1.79346 -0.744884 0
M  V30 2317 C 236.722 -3.34377 -0.938582 0
M  V30 2318 C 235.676 -4.27289 -0.246622 0
M  V30 2319 C 235.002 -5.18386 -1.31071 0
M  V30 2320 C 236.302 -5.14916 0.875125 0
M  V30 2321 H 237.996 -2.89233 0.773593 0
M  V30 2322 H 235.542 -1.39073 0.37346 0
M  V30 2323 H 237.495 -3.97044 -1.41188 0
M  V30 2324 H 236.219 -2.76947 -1.73113 0
M  V30 2325 H 234.878 -3.66018 0.206456 0
M  V30 2326 H 234.526 -4.57282 -2.09528 0
M  V30 2327 H 234.226 -5.81378 -0.852839 0
M  V30 2328 H 235.75 -5.83929 -1.78492 0
M  V30 2329 H 237.164 -5.71262 0.482983 0
M  V30 2330 H 235.561 -5.86747 1.25887 0
M  V30 2331 H 236.631 -4.53242 1.72335 0
M  V30 2332 N 237.974 -0.419461 -1.51915 0
M  V30 2333 C 238.921 0.400927 -2.27291 0
M  V30 2334 C 239.891 1.03224 -1.30131 0
M  V30 2335 O 241.076 1.05455 -1.59009 0
M  V30 2336 C 238.216 1.50603 -3.10504 0
M  V30 2337 C 237.329 0.89462 -4.22635 0
M  V30 2338 C 236.464 1.97328 -4.93189 0
M  V30 2339 C 235.503 1.33935 -5.97267 0
M  V30 2340 N 234.64 2.3586 -6.61298 0
M  V30 2341 H 239.48 -0.248251 -2.96964 0
M  V30 2342 H 237.017 -0.134266 -1.46486 0
M  V30 2343 H 238.975 2.15783 -3.57062 0
M  V30 2344 H 237.605 2.12509 -2.42981 0
M  V30 2345 H 236.657 0.131583 -3.80172 0
M  V30 2346 H 237.969 0.391641 -4.9726 0
M  V30 2347 H 237.123 2.70211 -5.43204 0
M  V30 2348 H 235.862 2.50994 -4.18155 0
M  V30 2349 H 234.867 0.595896 -5.46561 0
M  V30 2350 H 236.092 0.810252 -6.74249 0
M  V30 2351 H 234.038 2.88639 -5.89087 0
M  V30 2352 H 233.955 1.90403 -7.3163 0
M  V30 2353 H 235.223 3.08282 -7.15949 0
M  V30 2354 N 239.452 1.56882 -0.150215 0
M  V30 2355 C 240.868 1.58263 0.20617 0
M  V30 2356 C 241.068 1.16464 1.64434 0
M  V30 2357 O 240.124 0.866422 2.3717 0
M  V30 2358 C 241.437 3.00649 -0.0555025 0
M  V30 2359 C 242.985 3.12999 0.00795388 0
M  V30 2360 C 243.46 4.5744 -0.226429 0
M  V30 2361 N 244.951 4.62875 -0.173469 0
M  V30 2362 C 245.686 5.72454 -0.329288 0
M  V30 2363 N 245.182 6.90669 -0.543005 0
M  V30 2364 N 246.975 5.61467 -0.266666 0
M  V30 2365 H 239.126 1.82345 -1.08922 0
M  V30 2366 H 241.389 0.844149 -0.431413 0
M  V30 2367 H 241.095 3.3563 -1.05096 0
M  V30 2368 H 240.969 3.71337 0.66246 0
M  V30 2369 H 243.356 2.77857 0.993966 0
M  V30 2370 H 243.437 2.4479 -0.742388 0
M  V30 2371 H 243.081 4.93287 -1.20956 0
M  V30 2372 H 243.011 5.2378 0.544274 0
M  V30 2373 H 245.502 3.77898 -0.0130709 0
M  V30 2374 H 245.815 7.70045 -0.651922 0
M  V30 2375 H 244.16 6.92581 -0.579366 0
M  V30 2376 H 247.351 4.67992 -0.100441 0
M  V30 2377 H 247.524 6.46816 -0.391535 0
M  V30 2378 N 240.93 -0.123565 1.57115 0
M  V30 2379 C 242.158 -0.846461 1.88793 0
M  V30 2380 C 242.573 -1.73652 0.740976 0
M  V30 2381 O 241.93 -1.80207 -0.288393 0
M  V30 2382 C 241.981 -1.6837 3.19897 0
M  V30 2383 O 241.702 -0.829477 4.30176 0
M  V30 2384 C 243.203 -2.51214 3.65248 0
M  V30 2385 H 240.423 -0.243573 0.625231 0
M  V30 2386 H 242.967 -0.109324 2.04208 0
M  V30 2387 H 241.122 -2.37364 3.06165 0
M  V30 2388 H 241.536 -1.40651 5.0529 0
M  V30 2389 H 243.01 -3.05497 4.59756 0
M  V30 2390 H 243.487 -3.28359 2.9168 0
M  V30 2391 H 244.093 -1.8747 3.81752 0
M  V30 2392 N 242.408 -1.52605 -0.393616 0
M  V30 2393 C 243.819 -1.59417 -0.971761 0
M  V30 2394 C 244.17 -0.444173 -1.91106 0
M  V30 2395 O 243.295 0.433382 -2.12016 0
M  V30 2396 C 243.89 -2.88936 -1.76921 0
M  V30 2397 C 242.449 -2.98175 -2.29714 0
M  V30 2398 C 241.596 -2.54491 -1.10135 0
M  V30 2399 H 244.547 -1.57751 -0.173317 0
M  V30 2400 H 244.568 -2.75163 -2.62804 0
M  V30 2401 H 244.08 -3.72616 -1.08532 0
M  V30 2402 H 242.181 -2.19024 -3.01429 0
M  V30 2403 H 242.294 -4.02726 -2.59517 0
M  V30 2404 H 240.658 -2.08702 -1.45999 0
M  V30 2405 H 241.441 -3.4056 -0.432874 0
M  V30 2406 N 243.887 0.651787 -1.4349 0
M  V30 2407 C 245.303 0.96762 -1.26922 0
M  V30 2408 C 245.503 2.00602 -0.189982 0
M  V30 2409 O 244.559 2.48793 0.431107 0
M  V30 2410 C 245.872 1.45052 -2.63401 0
M  V30 2411 C 247.42 1.5671 -2.70945 0
M  V30 2412 C 247.895 2.0839 -4.07845 0
M  V30 2413 N 249.386 2.1569 -4.09917 0
M  V30 2414 C 250.121 2.56804 -5.12679 0
M  V30 2415 N 249.617 2.97203 -6.25813 0
M  V30 2416 N 251.41 2.56756 -5.00033 0
M  V30 2417 H 243.561 -0.0353158 -2.12371 0
M  V30 2418 H 245.824 0.0467858 -0.946845 0
M  V30 2419 H 245.53 0.761926 -3.43348 0
M  V30 2420 H 245.404 2.42529 -2.88894 0
M  V30 2421 H 247.791 2.2467 -1.9133 0
M  V30 2422 H 247.872 0.57662 -2.49216 0
M  V30 2423 H 247.516 1.41031 -4.87927 0
M  V30 2424 H 247.446 3.08271 -4.26938 0
M  V30 2425 H 249.937 1.87237 -3.28254 0
M  V30 2426 H 250.25 3.27328 -7.00055 0
M  V30 2427 H 248.595 2.95004 -6.29283 0
M  V30 2428 H 251.786 2.24572 -4.10713 0
M  V30 2429 H 251.959 2.88475 -5.80247 0
M  V30 2430 N 245.365 1.30045 0.890287 0
M  V30 2431 C 246.781 1.08261 1.17268 0
M  V30 2432 C 246.981 -0.160063 2.00863 0
M  V30 2433 O 246.037 -0.855181 2.37577 0
M  V30 2434 C 247.35 2.34323 1.8845 0
M  V30 2435 C 248.898 2.39735 2.01237 0
M  V30 2436 C 249.373 3.65625 2.7583 0
M  V30 2437 N 250.864 3.66402 2.83379 0
M  V30 2438 C 251.599 4.60498 3.41657 0
M  V30 2439 N 251.095 5.64933 4.01026 0
M  V30 2440 N 252.888 4.48051 3.39421 0
M  V30 2441 H 245.039 2.09777 0.332762 0
M  V30 2442 H 247.302 0.92446 0.209948 0
M  V30 2443 H 247.008 3.2498 1.34465 0
M  V30 2444 H 246.882 2.4256 2.88867 0
M  V30 2445 H 249.269 1.4956 2.54393 0
M  V30 2446 H 249.35 2.35476 0.999232 0
M  V30 2447 H 248.994 4.56156 2.23347 0
M  V30 2448 H 248.924 3.67144 3.77509 0
M  V30 2449 H 251.415 2.90896 2.41222 0
M  V30 2450 H 251.728 6.32841 4.43545 0
M  V30 2451 H 250.073 5.68732 3.99461 0
M  V30 2452 H 253.264 3.65649 2.92264 0
M  V30 2453 H 253.437 5.21565 3.84544 0
M  V30 2454 N 246.843 -1.10192 1.12674 0
M  V30 2455 C 248.089 -1.82475 0.884915 0
M  V30 2456 C 248.422 -1.85093 -0.58773 0
M  V30 2457 O 247.697 -1.3134 -1.43457 0
M  V30 2458 C 247.98 -3.29018 1.46353 0
M  V30 2459 C 247.833 -3.34718 3.00473 0
M  V30 2460 C 249.152 -4.25473 1.12519 0
M  V30 2461 H 246.271 -0.662492 0.322915 0
M  V30 2462 H 248.913 -1.2913 1.39375 0
M  V30 2463 H 247.063 -3.74576 1.03077 0
M  V30 2464 H 248.735 -2.97622 3.52447 0
M  V30 2465 H 246.978 -2.74541 3.35872 0
M  V30 2466 H 247.649 -4.37918 3.36053 0
M  V30 2467 H 250.125 -3.88161 1.499 0
M  V30 2468 H 249.001 -5.26365 1.55663 0
M  V30 2469 H 249.262 -4.42084 0.0377407 0
M  V30 2470 N 248.321 -0.919034 -1.28029 0
M  V30 2471 C 249.268 -0.410005 -2.27129 0
M  V30 2472 C 250.238 0.518405 -1.57803 0
M  V30 2473 O 251.423 0.439451 -1.8567 0
M  V30 2474 C 248.563 0.339054 -3.4343 0
M  V30 2475 C 247.676 -0.622468 -4.27492 0
M  V30 2476 C 246.811 0.145567 -5.31001 0
M  V30 2477 C 245.85 -0.809226 -6.06727 0
M  V30 2478 N 244.987 -0.0743728 -7.02061 0
M  V30 2479 H 249.827 -1.26011 -2.70047 0
M  V30 2480 H 247.364 -0.632663 -1.328 0
M  V30 2481 H 249.322 0.789586 -4.0966 0
M  V30 2482 H 247.952 1.15346 -3.01488 0
M  V30 2483 H 247.004 -1.19153 -3.61257 0
M  V30 2484 H 248.316 -1.35252 -4.80113 0
M  V30 2485 H 247.47 0.656417 -6.03139 0
M  V30 2486 H 246.209 0.908643 -4.79161 0
M  V30 2487 H 245.214 -1.3314 -5.33436 0
M  V30 2488 H 246.439 -1.57194 -6.60656 0
M  V30 2489 H 244.385 0.670616 -6.52563 0
M  V30 2490 H 244.302 -0.744157 -7.52329 0
M  V30 2491 H 245.57 0.416109 -7.78389 0
M  V30 2492 N 249.799 1.42003 -0.683588 0
M  V30 2493 C 250.762 2.29191 -0.0198243 0
M  V30 2494 C 251.762 1.43773 0.72013 0
M  V30 2495 O 252.952 1.65061 0.556815 0
M  V30 2496 C 250.084 3.26435 0.982487 0
M  V30 2497 H 251.277 2.8938 -0.787345 0
M  V30 2498 H 248.83 1.49789 -0.446418 0
M  V30 2499 H 249.565 2.71203 1.77819 0
M  V30 2500 H 249.35 3.89449 0.455182 0
M  V30 2501 H 250.84 3.918 1.44508 0
M  V30 2502 N 251.277 0.427512 1.51691 0
M  V30 2503 C 252.505 -0.141191 2.06418 0
M  V30 2504 C 252.92 -1.37303 1.29589 0
M  V30 2505 O 252.277 -1.79059 0.352732 0
M  V30 2506 C 252.328 -0.473266 3.58389 0
M  V30 2507 O 252.049 0.709673 4.32314 0
M  V30 2508 C 253.55 -1.09371 4.29596 0
M  V30 2509 H 250.77 -0.0122747 0.670888 0
M  V30 2510 H 253.314 0.603764 1.95384 0
M  V30 2511 H 251.469 -1.16812 3.69369 0
M  V30 2512 H 251.883 0.42807 5.2275 0
M  V30 2513 H 253.357 -1.27613 5.37046 0
M  V30 2514 H 253.834 -2.072 3.87253 0
M  V30 2515 H 254.44 -0.43853 4.23033 0
M  V30 2516 N 252.755 -1.56801 0.158532 0
M  V30 2517 C 254.004 -1.95665 -0.489702 0
M  V30 2518 C 254.317 -1.04654 -1.65248 0
M  V30 2519 O 255.523 -1.33146 -2.3661 0
M  V30 2520 C 253.979 -3.47874 -0.922582 0
M  V30 2521 C 253.587 -4.47489 0.213893 0
M  V30 2522 C 255.331 -3.95583 -1.53996 0
M  V30 2523 C 253.238 -5.90921 -0.237903 0
M  V30 2524 H 252.168 -0.730516 -0.186716 0
M  V30 2525 H 254.819 -1.81861 0.244722 0
M  V30 2526 H 253.201 -3.57051 -1.71261 0
M  V30 2527 H 254.375 -4.50017 0.991036 0
M  V30 2528 H 252.69 -4.09764 0.740407 0
M  V30 2529 H 255.287 -5.0019 -1.8898 0
M  V30 2530 H 255.63 -3.37789 -2.43319 0
M  V30 2531 H 256.163 -3.8937 -0.814611 0
M  V30 2532 H 252.902 -6.52559 0.620236 0
M  V30 2533 H 252.422 -5.91729 -0.980676 0
M  V30 2534 H 254.101 -6.43352 -0.686067 0
M  V30 2535 N 254.233 0.115231 -1.57178 0
M  V30 2536 C 255.479 0.82357 -1.85325 0
M  V30 2537 C 255.812 1.79349 -0.744814 0
M  V30 2538 O 255.087 1.92899 0.249024 0
M  V30 2539 C 255.37 1.57014 -3.24066 0
M  V30 2540 C 255.223 0.619565 -4.45513 0
M  V30 2541 C 256.542 2.52545 -3.60429 0
M  V30 2542 H 253.661 0.297948 -0.674089 0
M  V30 2543 H 256.303 0.0877138 -1.89797 0
M  V30 2544 H 254.453 2.19742 -3.20383 0
M  V30 2545 H 256.125 0.000837639 -4.613 0
M  V30 2546 H 254.368 -0.0686174 -4.33746 0
M  V30 2547 H 255.039 1.17866 -5.3927 0
M  V30 2548 H 257.515 1.9992 -3.64926 0
M  V30 2549 H 256.391 3.01811 -4.58477 0
M  V30 2550 H 256.652 3.35383 -2.88047 0
M  V30 2551 N 255.711 1.52812 0.385517 0
M  V30 2552 C 256.674 1.77188 1.45386 0
M  V30 2553 C 257.674 0.641953 1.4743 0
M  V30 2554 O 258.864 0.910033 1.4854 0
M  V30 2555 C 255.996 1.87582 2.8465 0
M  V30 2556 H 257.189 2.72583 1.25054 0
M  V30 2557 H 254.742 1.43586 0.617467 0
M  V30 2558 H 255.477 0.941849 3.10322 0
M  V30 2559 H 255.262 2.69748 2.84567 0
M  V30 2560 H 256.752 2.08102 3.62054 0
M  V30 2561 N 257.189 -0.644168 1.43834 0
M  V30 2562 C 258.435 -1.40603 1.46146 0
M  V30 2563 C 258.768 -1.93997 0.0887717 0
M  V30 2564 O 258.043 -1.72854 -0.891724 0
M  V30 2565 C 258.326 -2.58086 2.51124 0
M  V30 2566 C 258.179 -2.10126 3.97702 0
M  V30 2567 C 259.498 -3.60291 2.52742 0
M  V30 2568 H 256.617 -0.509905 0.532134 0
M  V30 2569 H 259.259 -0.729502 1.75437 0
M  V30 2570 H 257.409 -3.15801 2.26278 0
M  V30 2571 H 259.081 -1.57342 4.33637 0
M  V30 2572 H 257.324 -1.41419 4.10101 0
M  V30 2573 H 257.995 -2.94649 4.66783 0
M  V30 2574 H 260.471 -3.12352 2.7491 0
M  V30 2575 H 259.347 -4.40032 3.28121 0
M  V30 2576 H 259.608 -4.1349 1.56455 0
M  V30 2577 N 258.668 -1.30515 -0.883378 0
M  V30 2578 C 259.914 -1.20617 -1.63778 0
M  V30 2579 C 260.269 0.236469 -1.90941 0
M  V30 2580 O 259.562 1.16596 -1.52039 0
M  V30 2581 C 259.756 -1.96994 -2.98209 0
M  V30 2582 C 259.585 -3.48537 -2.84169 0
M  V30 2583 C 258.355 -4.17893 -2.84067 0
M  V30 2584 C 260.553 -4.43738 -2.60001 0
M  V30 2585 N 258.535 -5.55685 -2.60936 0
M  V30 2586 C 259.906 -5.69105 -2.46007 0
M  V30 2587 C 261.961 -4.33316 -2.45239 0
M  V30 2588 C 260.664 -6.8523 -2.18752 0
M  V30 2589 C 262.69 -5.4921 -2.19369 0
M  V30 2590 C 262.052 -6.73558 -2.06153 0
M  V30 2591 H 258.151 -0.496434 -0.604216 0
M  V30 2592 H 260.735 -1.64544 -1.04083 0
M  V30 2593 H 258.906 -1.55455 -3.55933 0
M  V30 2594 H 260.638 -1.79225 -3.62851 0
M  V30 2595 H 257.393 -3.69739 -2.95956 0
M  V30 2596 H 257.817 -6.28199 -2.52378 0
M  V30 2597 H 262.459 -3.37856 -2.54191 0
M  V30 2598 H 260.177 -7.80729 -2.08537 0
M  V30 2599 H 263.763 -5.43054 -2.08766 0
M  V30 2600 H 262.643 -7.61721 -1.86416 0
M  V30 2601 N 260.146 1.09593 -1.13257 0
M  V30 2602 C 261.076 2.18214 -0.830946 0
M  V30 2603 C 262.057 1.68812 0.208966 0
M  V30 2604 O 263.242 1.9408 0.0682666 0
M  V30 2605 C 260.372 3.46051 -0.294296 0
M  V30 2606 C 259.326 4.08778 -1.26826 0
M  V30 2607 C 258.652 5.31419 -0.591449 0
M  V30 2608 C 259.952 4.51476 -2.62615 0
M  V30 2609 H 261.646 2.43703 -1.73923 0
M  V30 2610 H 259.192 1.17128 -0.837675 0
M  V30 2611 H 261.145 4.2134 -0.0709606 0
M  V30 2612 H 259.869 3.20079 0.649366 0
M  V30 2613 H 258.528 3.35505 -1.47756 0
M  V30 2614 H 258.176 5.01727 0.357633 0
M  V30 2615 H 257.876 5.74341 -1.24123 0
M  V30 2616 H 259.4 6.09433 -0.377355 0
M  V30 2617 H 260.814 5.17999 -2.45663 0
M  V30 2618 H 259.211 5.05277 -3.23752 0
M  V30 2619 H 260.281 3.63962 -3.20406 0
M  V30 2620 N 261.624 0.925811 1.2754 0
M  V30 2621 C 262.873 0.561084 1.93739 0
M  V30 2622 C 263.186 -0.901685 1.73577 0
M  V30 2623 O 264.392 -1.37511 2.34101 0
M  V30 2624 C 262.848 0.952668 3.47062 0
M  V30 2625 C 262.456 2.43599 3.75983 0
M  V30 2626 C 264.2 0.659103 4.19352 0
M  V30 2627 C 262.107 2.76707 5.22673 0
M  V30 2628 H 261.037 0.206122 0.725279 0
M  V30 2629 H 263.688 1.12637 1.44863 0
M  V30 2630 H 262.07 0.316053 3.94737 0
M  V30 2631 H 263.244 3.12035 3.39073 0
M  V30 2632 H 261.559 2.70125 3.16893 0
M  V30 2633 H 264.156 0.882985 5.27359 0
M  V30 2634 H 264.499 -0.403607 4.14339 0
M  V30 2635 H 265.032 1.25473 3.77494 0
M  V30 2636 H 261.771 3.8188 5.32774 0
M  V30 2637 H 261.291 2.12919 5.60737 0
M  V30 2638 H 262.97 2.6435 5.90532 0
M  V30 2639 N 263.102 -1.41638 0.69111 0
M  V30 2640 C 264.327 -2.06148 0.227583 0
M  V30 2641 C 264.752 -1.51652 -1.11281 0
M  V30 2642 O 264.11 -0.64164 -1.69566 0
M  V30 2643 C 264.158 -3.60095 0.190858 0
M  V30 2644 O 263.262 -4.03845 -0.835664 0
M  V30 2645 H 262.603 -0.654434 0.112306 0
M  V30 2646 H 265.133 -1.81484 0.944714 0
M  V30 2647 H 265.143 -4.07995 0.020207 0
M  V30 2648 H 263.818 -3.99129 1.16915 0
M  V30 2649 H 262.395 -3.67458 -0.63473 0
M  V30 2650 N 264.58 -0.43555 -1.51462 0
M  V30 2651 C 265.543 0.365137 -2.26273 0
M  V30 2652 C 266.543 0.951227 -1.29647 0
M  V30 2653 O 267.733 0.825958 -1.53374 0
M  V30 2654 C 264.865 1.51645 -3.05314 0
M  V30 2655 H 266.058 -0.290474 -2.9849 0
M  V30 2656 H 263.611 -0.188676 -1.55157 0
M  V30 2657 H 264.346 2.20816 -2.3751 0
M  V30 2658 H 264.131 1.10238 -3.76284 0
M  V30 2659 H 265.621 2.08218 -3.61987 0
M  V30 2660 N 266.058 1.56714 -0.166846 0
M  V30 2661 C 267.304 1.97039 0.479962 0
M  V30 2662 C 267.637 1.05264 1.63197 0
M  V30 2663 O 266.912 0.0988833 1.94248 0
M  V30 2664 C 267.195 3.46867 0.967212 0
M  V30 2665 C 267.048 4.49421 -0.18466 0
M  V30 2666 C 268.367 3.9968 1.84238 0
M  V30 2667 H 265.486 0.71641 0.172992 0
M  V30 2668 H 268.128 1.8832 -0.252079 0
M  V30 2669 H 266.278 3.54428 1.59101 0
M  V30 2670 H 267.95 4.53924 -0.821621 0
M  V30 2671 H 266.193 4.25573 -0.840837 0
M  V30 2672 H 266.864 5.51644 0.198317 0
M  V30 2673 H 269.34 3.94723 1.31655 0
M  V30 2674 H 268.216 5.04941 2.15234 0
M  V30 2675 H 268.477 3.43226 2.78654 0
M  V30 2676 N 267.536 -0.106894 1.57237 0
M  V30 2677 C 268.785 -0.811163 1.8467 0
M  V30 2678 C 269.098 -1.80469 0.754342 0
M  V30 2679 O 270.304 -2.55601 0.915439 0
M  V30 2680 C 268.76 -1.49337 3.27454 0
M  V30 2681 C 268.368 -0.540217 4.44731 0
M  V30 2682 C 270.112 -2.18206 3.64124 0
M  V30 2683 C 268.019 -1.22634 5.78545 0
M  V30 2684 H 266.949 -0.306679 0.688813 0
M  V30 2685 H 269.6 -0.0639887 1.83388 0
M  V30 2686 H 267.982 -2.2876 3.23241 0
M  V30 2687 H 269.156 0.221659 4.60267 0
M  V30 2688 H 267.471 0.042146 4.16379 0
M  V30 2689 H 270.068 -2.70253 4.61376 0
M  V30 2690 H 270.411 -2.96562 2.92158 0
M  V30 2691 H 270.944 -1.45658 3.70174 0
M  V30 2692 H 267.683 -0.483832 6.53712 0
M  V30 2693 H 267.203 -1.95993 5.66874 0
M  V30 2694 H 268.882 -1.75615 6.2271 0
M  V30 2695 N 269.014 -1.53014 -0.377408 0
M  V30 2696 C 270.239 -1.72818 -1.14668 0
M  V30 2697 C 270.664 -0.450725 -1.8262 0
M  V30 2698 O 270.022 0.59439 -1.7128 0
M  V30 2699 C 270.07 -2.88627 -2.16164 0
M  V30 2700 O 269.174 -2.56409 -3.22998 0
M  V30 2701 H 268.515 -0.574301 -0.333278 0
M  V30 2702 H 271.045 -1.99853 -0.438152 0
M  V30 2703 H 271.055 -3.14455 -2.59966 0
M  V30 2704 H 269.73 -3.81294 -1.66095 0
M  V30 2705 H 268.307 -2.4136 -2.84253 0
M  V30 2706 N 270.492 0.636531 -1.44174 0
M  V30 2707 C 271.739 1.39619 -1.46672 0
M  V30 2708 C 272.067 1.94257 -0.0972691 0
M  V30 2709 O 271.322 1.73768 0.900175 0
M  V30 2710 C 271.621 2.58309 -2.47005 0
M  V30 2711 C 271.287 2.21992 -3.92467 0
M  V30 2712 C 269.949 2.118 -4.32081 0
M  V30 2713 C 272.301 1.9321 -4.84065 0
M  V30 2714 C 269.629 1.71007 -5.61225 0
M  V30 2715 C 271.981 1.53911 -6.13591 0
M  V30 2716 C 270.645 1.42257 -6.52165 0
M  V30 2717 H 269.915 0.510902 -0.536712 0
M  V30 2718 H 272.562 0.722328 -1.77355 0
M  V30 2719 H 270.867 3.30903 -2.09786 0
M  V30 2720 H 272.564 3.16533 -2.46186 0
M  V30 2721 H 269.154 2.30841 -3.61124 0
M  V30 2722 H 273.338 1.99997 -4.54219 0
M  V30 2723 H 268.594 1.60583 -5.89935 0
M  V30 2724 H 272.768 1.30677 -6.8403 0
M  V30 2725 H 270.395 1.10419 -7.52138 0
M  V30 2726 N 271.97 1.30982 0.876444 0
M  V30 2727 C 273.381 1.18277 1.44456 0
M  V30 2728 C 273.732 -0.213265 1.95037 0
M  V30 2729 O 272.857 -1.11057 1.85729 0
M  V30 2730 C 273.452 2.1411 2.62569 0
M  V30 2731 C 272.011 2.05358 3.15444 0
M  V30 2732 C 271.158 2.03706 1.88146 0
M  V30 2733 H 274.109 1.43127 0.685584 0
M  V30 2734 H 274.13 1.72692 3.39054 0
M  V30 2735 H 273.642 3.15706 2.25724 0
M  V30 2736 H 271.743 1.06934 3.56926 0
M  V30 2737 H 271.856 2.94156 3.78166 0
M  V30 2738 H 270.22 1.48629 2.06837 0
M  V30 2739 H 271.003 3.07047 1.53547 0
M  V30 2740 N 273.449 -1.08991 1.13837 0
M  V30 2741 C 274.86 -1.62746 0.914917 0
M  V30 2742 C 275.211 -1.88403 -0.547594 0
M  V30 2743 O 274.336 -1.63706 -1.41525 0
M  V30 2744 C 274.931 -2.95662 1.65437 0
M  V30 2745 C 273.49 -3.46225 1.47666 0
M  V30 2746 C 272.637 -2.20562 1.6807 0
M  V30 2747 H 275.588 -0.922946 1.29102 0
M  V30 2748 H 275.609 -3.63825 1.11407 0
M  V30 2749 H 275.121 -2.76956 2.71877 0
M  V30 2750 H 273.222 -3.70046 0.435478 0
M  V30 2751 H 273.335 -4.23368 2.24268 0
M  V30 2752 H 271.699 -2.29439 1.10589 0
M  V30 2753 H 272.482 -2.0437 2.7584 0
M  V30 2754 N 274.927 -0.932562 -1.27047 0
M  V30 2755 C 275.857 -0.452902 -2.29066 0
M  V30 2756 C 276.838 0.489338 -1.62909 0
M  V30 2757 O 278.023 0.393046 -1.90181 0
M  V30 2758 C 275.153 0.290698 -3.46081 0
M  V30 2759 C 274.107 -0.564168 -4.24265 0
M  V30 2760 C 273.433 0.308886 -5.33807 0
M  V30 2761 C 274.733 -1.83112 -4.89149 0
M  V30 2762 H 276.427 -1.30552 -2.69437 0
M  V30 2763 H 273.973 -0.629201 -1.29526 0
M  V30 2764 H 275.926 0.637233 -4.16554 0
M  V30 2765 H 274.65 1.17738 -3.0464 0
M  V30 2766 H 273.309 -0.893477 -3.55545 0
M  V30 2767 H 272.957 1.19467 -4.88607 0
M  V30 2768 H 272.657 -0.259633 -5.87026 0
M  V30 2769 H 274.181 0.650884 -6.07121 0
M  V30 2770 H 275.595 -1.55236 -5.51883 0
M  V30 2771 H 273.992 -2.34353 -5.52448 0
M  V30 2772 H 275.062 -2.54772 -4.12576 0
M  V30 2773 N 276.405 1.4127 -0.698611 0
M  V30 2774 C 277.651 2.01478 -0.231207 0
M  V30 2775 C 277.984 1.55215 1.16713 0
M  V30 2776 O 277.259 0.764672 1.78838 0
M  V30 2777 C 277.542 3.58912 -0.292281 0
M  V30 2778 C 277.395 4.15293 -1.72778 0
M  V30 2779 C 278.714 4.38736 0.346194 0
M  V30 2780 H 275.833 0.732025 -0.0854878 0
M  V30 2781 H 278.475 1.67977 -0.887906 0
M  V30 2782 H 276.625 3.87582 0.26686 0
M  V30 2783 H 278.297 3.97486 -2.341 0
M  V30 2784 H 276.54 3.7022 -2.26096 0
M  V30 2785 H 277.211 5.24452 -1.72202 0
M  V30 2786 H 279.687 4.15897 -0.130035 0
M  V30 2787 H 278.563 5.48221 0.272932 0
M  V30 2788 H 278.824 4.18425 1.42734 0
M  V30 2789 N 277.883 0.443576 1.51229 0
M  V30 2790 C 279.108 -0.121648 2.07043 0
M  V30 2791 C 279.533 -1.35156 1.30823 0
M  V30 2792 O 278.891 -1.7793 0.347934 0
M  V30 2793 C 278.939 -0.41624 3.5819 0
M  V30 2794 O 278.043 -1.50163 3.8409 0
M  V30 2795 H 277.384 0.000871367 0.663999 0
M  V30 2796 H 279.914 0.626706 1.94765 0
M  V30 2797 H 279.924 -0.664867 4.02546 0
M  V30 2798 H 278.599 0.482653 4.1309 0
M  V30 2799 H 277.176 -1.24248 3.51592 0
M  V30 2800 N 279.361 -1.56624 0.175154 0
M  V30 2801 C 280.291 -2.21155 -0.749195 0
M  V30 2802 C 281.272 -1.16836 -1.23626 0
M  V30 2803 O 282.457 -1.45277 -1.28873 0
M  V30 2804 C 279.587 -2.8553 -1.97711 0
M  V30 2805 C 278.541 -3.95921 -1.62575 0
M  V30 2806 C 277.867 -4.47365 -2.92864 0
M  V30 2807 C 279.167 -5.15323 -0.850838 0
M  V30 2808 H 280.861 -2.98653 -0.211295 0
M  V30 2809 H 278.407 -1.43651 -0.100188 0
M  V30 2810 H 280.36 -3.2935 -2.62881 0
M  V30 2811 H 279.084 -2.05406 -2.53921 0
M  V30 2812 H 277.743 -3.52762 -0.997719 0
M  V30 2813 H 277.391 -3.64027 -3.47122 0
M  V30 2814 H 277.091 -5.21839 -2.70106 0
M  V30 2815 H 278.615 -4.93873 -3.59056 0
M  V30 2816 H 280.029 -5.55812 -1.40521 0
M  V30 2817 H 278.426 -5.95739 -0.722154 0
M  V30 2818 H 279.496 -4.84661 0.152082 0
M  V30 2819 N 280.839 0.0985539 -1.57292 0
M  V30 2820 C 282.069 0.815135 -1.8984 0
M  V30 2821 C 282.477 1.7297 -0.766679 0
M  V30 2822 O 281.82 1.81698 0.270483 0
M  V30 2823 C 281.882 1.6842 -3.17608 0
M  V30 2824 C 281.546 0.94182 -4.4719 0
M  V30 2825 C 282.543 0.273212 -5.19182 0
M  V30 2826 C 280.228 0.916927 -4.9386 0
M  V30 2827 C 282.222 -0.410361 -6.36078 0
M  V30 2828 C 279.909 0.229567 -6.10669 0
M  V30 2829 C 280.907 -0.432902 -6.81627 0
M  V30 2830 O 280.595 -1.10925 -7.9621 0
M  V30 2831 H 280.327 0.238501 -0.632529 0
M  V30 2832 H 282.881 0.0812659 -2.05239 0
M  V30 2833 H 281.111 2.46022 -2.98345 0
M  V30 2834 H 282.8 2.27704 -3.36015 0
M  V30 2835 H 283.566 0.283927 -4.84168 0
M  V30 2836 H 279.445 1.42201 -4.3852 0
M  V30 2837 H 282.989 -0.928013 -6.914 0
M  V30 2838 H 278.886 0.216686 -6.45136 0
M  V30 2839 H 279.654 -1.01579 -8.12172 0
M  V30 2840 N 282.317 1.53212 0.369288 0
M  V30 2841 C 283.733 1.42902 0.710712 0
M  V30 2842 C 283.933 0.565135 1.93413 0
M  V30 2843 O 282.989 0.0461484 2.52458 0
M  V30 2844 C 284.302 2.86042 0.927382 0
M  V30 2845 C 285.85 2.9565 1.02762 0
M  V30 2846 C 286.325 4.39843 1.27679 0
M  V30 2847 N 287.816 4.43256 1.34457 0
M  V30 2848 C 288.551 5.51929 1.55439 0
M  V30 2849 N 288.047 6.70655 1.73762 0
M  V30 2850 N 289.84 5.39502 1.57779 0
M  V30 2851 H 281.991 2.07888 -0.435457 0
M  V30 2852 H 284.254 0.938661 -0.132739 0
M  V30 2853 H 283.96 3.51557 0.100287 0
M  V30 2854 H 283.834 3.29472 1.83653 0
M  V30 2855 H 286.221 2.30291 1.84527 0
M  V30 2856 H 286.302 2.5562 0.0959504 0
M  V30 2857 H 285.946 5.05774 0.464175 0
M  V30 2858 H 285.876 4.77443 2.22162 0
M  V30 2859 H 288.367 3.5769 1.21926 0
M  V30 2860 H 288.68 7.49248 1.89335 0
M  V30 2861 H 287.025 6.73648 1.70948 0
M  V30 2862 H 290.216 4.45713 1.43029 0
M  V30 2863 H 290.389 6.2426 1.7379 0
M  V30 2864 N 283.795 -0.628877 1.44509 0
M  V30 2865 C 284.727 -1.754 1.47538 0
M  V30 2866 C 285.74 -1.58575 0.368506 0
M  V30 2867 O 286.929 -1.66847 0.634376 0
M  V30 2868 C 284.029 -3.1315 1.29577 0
M  V30 2869 C 283.202 -3.56413 2.53551 0
M  V30 2870 C 282.261 -4.7305 2.30457 0
M  V30 2871 O 281.287 -4.81247 3.03957 0
M  V30 2872 N 282.489 -5.64903 1.3366 0
M  V30 2873 H 285.254 -1.73272 2.44534 0
M  V30 2874 H 282.815 -0.813512 1.39977 0
M  V30 2875 H 284.807 -3.88902 1.11971 0
M  V30 2876 H 283.377 -3.09908 0.409371 0
M  V30 2877 H 282.597 -2.70847 2.86419 0
M  V30 2878 H 283.885 -3.82071 3.36005 0
M  V30 2879 H 283.283 -5.60975 0.729604 0
M  V30 2880 H 281.84 -6.40275 1.22032 0
M  V30 2881 N 285.273 -1.31445 -0.869486 0
M  V30 2882 C 286.684 -1.19042 -1.43826 0
M  V30 2883 C 287.035 0.202919 -1.95148 0
M  V30 2884 O 286.16 1.10071 -1.86315 0
M  V30 2885 C 286.755 -2.15499 -2.6143 0
M  V30 2886 C 285.314 -2.07028 -3.14351 0
M  V30 2887 C 284.461 -2.04701 -1.87063 0
M  V30 2888 H 287.412 -1.43489 -0.677984 0
M  V30 2889 H 287.433 -1.74488 -3.38134 0
M  V30 2890 H 286.945 -3.16899 -2.24046 0
M  V30 2891 H 285.046 -1.08825 -3.56354 0
M  V30 2892 H 285.159 -2.96157 -3.766 0
M  V30 2893 H 283.523 -1.49724 -2.06046 0
M  V30 2894 H 284.306 -3.07857 -1.51917 0
M  V30 2895 N 286.751 1.08385 -1.14413 0
M  V30 2896 C 288.028 1.77429 -0.823297 0
M  V30 2897 C 288.408 1.9974 0.683163 0
M  V30 2898 O 287.756 1.60739 1.62405 0
M  V30 2899 C 287.966 3.09004 -1.62227 0
M  V30 2900 C 289.314 3.83532 -1.82177 0
M  V30 2901 O 290.338 3.18786 -1.58915 0
M  V30 2902 O 289.197 4.99792 -2.21067 0
M  V30 2903 H 286.291 0.769999 -0.301712 0
M  V30 2904 H 288.837 1.14846 -1.24934 0
M  V30 2905 H 287.609 2.88316 -2.64555 0
M  V30 2906 H 287.232 3.79316 -1.19187 0
M  V30 2907 N 288.23 0.939286 1.26551 0
M  V30 2908 C 289.478 0.58469 1.93457 0
M  V30 2909 C 289.799 -0.878774 1.74076 0
M  V30 2910 O 289.069 -1.62421 1.09528 0
M  V30 2911 H 287.649 0.21325 0.715914 0
M  V30 2912 H 290.311 1.1942 1.54029 0
M  V30 2913 H 289.407 0.800849 3.0165 0
M  V30 2914 N 289.708 -1.40897 0.706093 0
M  V30 2915 C 290.671 -2.29131 0.0562841 0
M  V30 2916 C 291.671 -1.44901 -0.697166 0
M  V30 2917 O 292.861 -1.65926 -0.530484 0
M  V30 2918 C 289.993 -3.27957 -0.93043 0
M  V30 2919 H 291.186 -2.88091 0.833284 0
M  V30 2920 H 288.739 -1.4906 0.470192 0
M  V30 2921 H 289.474 -2.73997 -1.73482 0
M  V30 2922 H 289.259 -3.90124 -0.393166 0
M  V30 2923 H 290.749 -3.94049 -1.38256 0
M  V30 2924 N 291.186 -0.45159 -1.50991 0
M  V30 2925 C 292.149 0.341117 -2.26647 0
M  V30 2926 C 293.149 0.937422 -1.30649 0
M  V30 2927 O 294.339 0.809644 -1.54241 0
M  V30 2928 C 291.471 1.48398 -3.06905 0
M  V30 2929 H 292.664 -0.322117 -2.98165 0
M  V30 2930 H 290.217 -0.205122 -1.54948 0
M  V30 2931 H 290.952 2.18284 -2.39838 0
M  V30 2932 H 290.737 1.06241 -3.77432 0
M  V30 2933 H 292.227 2.04367 -3.64176 0
M  V30 2934 N 292.664 1.56529 -0.183458 0
M  V30 2935 C 293.894 2.01331 0.463612 0
M  V30 2936 C 294.302 1.06278 1.5653 0
M  V30 2937 O 293.645 0.0577976 1.83609 0
M  V30 2938 C 293.707 3.42547 1.09096 0
M  V30 2939 C 293.371 4.56817 0.129442 0
M  V30 2940 C 294.368 5.15734 -0.656807 0
M  V30 2941 C 292.053 5.02295 0.02174 0
M  V30 2942 C 294.047 6.1857 -1.53784 0
M  V30 2943 C 291.734 6.04978 -0.862864 0
M  V30 2944 C 292.732 6.62988 -1.64123 0
M  V30 2945 O 292.42 7.63677 -2.51103 0
M  V30 2946 H 292.152 0.664917 0.121907 0
M  V30 2947 H 294.706 2.034 -0.285954 0
M  V30 2948 H 292.936 3.37428 1.88889 0
M  V30 2949 H 294.625 3.71228 1.64148 0
M  V30 2950 H 295.391 4.81473 -0.583839 0
M  V30 2951 H 291.27 4.56847 0.617392 0
M  V30 2952 H 294.814 6.63777 -2.14583 0
M  V30 2953 H 290.711 6.38663 -0.93699 0
M  V30 2954 H 291.479 7.81049 -2.44753 0
M  V30 2955 N 294.142 -0.090211 1.57342 0
M  V30 2956 C 295.553 -0.644173 1.75235 0
M  V30 2957 C 295.904 -1.78865 0.806335 0
M  V30 2958 O 295.029 -2.16395 -0.0140128 0
M  V30 2959 C 295.624 -1.17532 3.1776 0
M  V30 2960 C 294.183 -1.67531 3.37061 0
M  V30 2961 C 293.33 -0.58693 2.71017 0
M  V30 2962 H 296.281 0.135884 1.58117 0
M  V30 2963 H 296.302 -2.04455 3.20902 0
M  V30 2964 H 295.814 -0.342138 3.86589 0
M  V30 2965 H 293.915 -2.53234 2.73319 0
M  V30 2966 H 294.028 -1.76493 4.45406 0
M  V30 2967 H 292.392 -1.02756 2.33052 0
M  V30 2968 H 293.175 0.235758 3.4249 0
M  V30 2969 N 295.62 -1.53406 -0.361157 0
M  V30 2970 C 296.552 -1.76446 -1.46286 0
M  V30 2971 C 297.565 -0.645322 -1.49464 0
M  V30 2972 O 298.754 -0.921681 -1.52864 0
M  V30 2973 C 295.854 -1.83332 -2.85031 0
M  V30 2974 C 295.027 -3.13033 -3.05498 0
M  V30 2975 C 294.086 -3.11104 -4.24383 0
M  V30 2976 O 293.112 -3.84888 -4.19344 0
M  V30 2977 N 294.314 -2.32234 -5.32022 0
M  V30 2978 H 297.079 -2.71508 -1.26899 0
M  V30 2979 H 294.64 -1.52238 -0.550915 0
M  V30 2980 H 296.632 -1.79514 -3.62708 0
M  V30 2981 H 295.202 -0.955342 -2.97644 0
M  V30 2982 H 294.422 -3.30119 -2.15442 0
M  V30 2983 H 295.71 -3.9874 -3.16044 0
M  V30 2984 H 295.108 -1.71807 -5.38979 0
M  V30 2985 H 293.665 -2.3423 -6.08259 0
M  V30 2986 N 297.098 0.621204 -1.44841 0
M  V30 2987 C 298.338 1.39201 -1.49674 0
M  V30 2988 C 298.702 1.91561 -0.129764 0
M  V30 2989 O 299.903 2.68748 -0.0527814 0
M  V30 2990 C 298.174 2.519 -2.53537 0
M  V30 2991 S 299.733 3.39916 -2.77494 0
M  V30 2992 H 296.551 0.474758 -0.529269 0
M  V30 2993 H 299.153 0.718171 -1.81831 0
M  V30 2994 H 297.857 2.11761 -3.51547 0
M  V30 2995 H 297.388 3.241 -2.22986 0
M  V30 2996 H 299.403 4.49646 -2.0984 0
M  V30 2997 N 298.576 1.31904 0.862503 0
M  V30 2998 C 299.824 1.21776 1.61292 0
M  V30 2999 C 300.145 -0.222413 1.93727 0
M  V30 3000 O 299.415 -1.1451 1.58947 0
M  V30 3001 H 297.995 0.447717 0.597962 0
M  V30 3002 H 300.657 1.65326 1.03215 0
M  V30 3003 H 299.753 1.7948 2.5533 0
M  V30 3004 N 300.054 -1.07777 1.14986 0
M  V30 3005 C 300.984 -2.16865 0.865557 0
M  V30 3006 C 301.965 -1.69123 -0.182083 0
M  V30 3007 O 303.15 -1.94164 -0.0373815 0
M  V30 3008 C 300.28 -3.45539 0.349313 0
M  V30 3009 C 299.234 -4.06708 1.33313 0
M  V30 3010 C 298.56 -5.30411 0.675918 0
M  V30 3011 C 299.86 -4.47241 2.69764 0
M  V30 3012 H 301.554 -2.40905 1.77778 0
M  V30 3013 H 299.1 -1.15781 0.856203 0
M  V30 3014 H 301.053 -4.21174 0.137983 0
M  V30 3015 H 299.777 -3.21072 -0.598362 0
M  V30 3016 H 298.436 -3.33112 1.53075 0
M  V30 3017 H 298.084 -5.02232 -0.277767 0
M  V30 3018 H 297.784 -5.72293 1.33244 0
M  V30 3019 H 299.308 -6.08755 0.474262 0
M  V30 3020 H 300.722 -5.14025 2.53873 0
M  V30 3021 H 299.119 -5.00062 3.3175 0
M  V30 3022 H 300.189 -3.58818 3.26156 0
M  V30 3023 N 301.532 -0.945985 -1.26051 0
M  V30 3024 C 302.48 -0.450259 -2.282 0
M  V30 3025 C 303.474 0.47497 -1.62605 0
M  V30 3026 O 304.68 0.352653 -1.76512 0
M  V30 3027 H 301.055 -0.127081 -0.741184 0
M  V30 3028 H 303.026 -1.32422 -2.67408 0
M  V30 3029 C 301.775 0.26467 -3.46691 0
M  V30 3030 H 301.098 -0.438123 -3.97392 0
M  V30 3031 H 302.538 0.575678 -4.20074 0
M  V30 3032 C 300.997 1.48416 -3.02447 0
M  V30 3033 O 301.527 2.58227 -3.07704 0
M  V30 3034 N 299.733 1.34243 -2.57735 0
M  V30 3035 H 299.28 0.448994 -2.53657 0
M  V30 3036 H 299.238 2.15957 -2.28495 0
M  V30 3037 N 303.011 1.40521 -0.713556 0
M  V30 3038 C 304.288 1.94775 -0.17943 0
M  V30 3039 C 304.668 1.65184 1.31444 0
M  V30 3040 O 304.016 0.968429 2.06963 0
M  V30 3041 C 304.226 3.45543 -0.489986 0
M  V30 3042 C 305.574 4.22442 -0.427536 0
M  V30 3043 O 306.598 3.53644 -0.425929 0
M  V30 3044 O 305.457 5.4501 -0.403292 0
M  V30 3045 H 302.551 0.826606 -0.0255192 0
M  V30 3046 H 305.097 1.5014 -0.790949 0
M  V30 3047 H 303.869 3.60432 -1.5233 0
M  V30 3048 H 303.492 3.97311 0.151598 0
M  V30 3049 N 304.489 0.459591 1.5075 0
M  V30 3050 C 305.399 -0.34613 2.32033 0
M  V30 3051 C 306.415 -1.00686 1.41909 0
M  V30 3052 O 307.591 -0.997361 1.7497 0
M  V30 3053 C 304.656 -1.42029 3.16273 0
M  V30 3054 C 303.717 -0.777362 4.22203 0
M  V30 3055 C 302.95 -1.80034 5.02418 0
M  V30 3056 O 303.173 -3.02544 4.83553 0
M  V30 3057 O 302.107 -1.37853 5.85901 0
M  V30 3058 H 305.933 0.318054 3.0203 0
M  V30 3059 H 303.518 0.221663 1.47746 0
M  V30 3060 H 305.4 -2.04275 3.68578 0
M  V30 3061 H 304.075 -2.06815 2.49016 0
M  V30 3062 H 302.982 -0.116256 3.73919 0
M  V30 3063 H 304.315 -0.172634 4.91897 0
M  V30 3064 N 305.967 -1.56429 0.191757 0
M  V30 3065 C 307.195 -2.01867 -0.453586 0
M  V30 3066 C 307.61 -1.07191 -1.5542 0
M  V30 3067 O 306.967 -0.0762108 -1.82341 0
M  V30 3068 C 307.018 -3.47017 -1.013 0
M  V30 3069 O 306.739 -4.38078 0.0437005 0
M  V30 3070 C 308.24 -4.07956 -1.73456 0
M  V30 3071 H 305.46 -0.661211 -0.114199 0
M  V30 3072 H 308.004 -2.02295 0.299483 0
M  V30 3073 H 306.159 -3.47298 -1.71647 0
M  V30 3074 H 306.573 -5.23178 -0.372212 0
M  V30 3075 H 308.047 -5.1138 -2.07833 0
M  V30 3076 H 308.524 -3.51222 -2.63704 0
M  V30 3077 H 309.13 -4.11437 -1.07702 0
M  V30 3078 N 307.445 0.0818655 -1.57387 0
M  V30 3079 C 308.691 0.778884 -1.87896 0
M  V30 3080 C 309.046 1.75692 -0.784229 0
M  V30 3081 O 308.339 1.90417 0.212567 0
M  V30 3082 C 308.533 1.53513 -3.22752 0
M  V30 3083 C 308.362 0.631838 -4.45239 0
M  V30 3084 C 307.132 0.272571 -5.04564 0
M  V30 3085 C 309.33 -0.0670191 -5.14256 0
M  V30 3086 N 307.312 -0.637498 -6.10581 0
M  V30 3087 C 308.683 -0.834653 -6.14356 0
M  V30 3088 C 310.738 -0.139551 -4.97704 0
M  V30 3089 C 309.441 -1.66806 -6.99691 0
M  V30 3090 C 311.467 -0.959903 -5.83558 0
M  V30 3091 C 310.829 -1.71561 -6.83188 0
M  V30 3092 H 306.928 0.260764 -0.737242 0
M  V30 3093 H 309.512 0.0408227 -1.94657 0
M  V30 3094 H 307.683 2.24398 -3.17018 0
M  V30 3095 H 309.415 2.18038 -3.40942 0
M  V30 3096 H 306.17 0.62319 -4.69482 0
M  V30 3097 H 306.594 -1.08548 -6.68241 0
M  V30 3098 H 311.236 0.430376 -4.20604 0
M  V30 3099 H 308.954 -2.249 -7.76174 0
M  V30 3100 H 312.54 -1.01887 -5.72809 0
M  V30 3101 H 311.42 -2.34017 -7.48469 0
M  V30 3102 N 308.923 1.53595 0.353017 0
M  V30 3103 C 310.153 1.74058 1.11299 0
M  V30 3104 C 310.561 0.475205 1.83135 0
M  V30 3105 O 309.904 -0.562344 1.74881 0
M  V30 3106 C 309.966 2.85994 2.17825 0
M  V30 3107 C 309.63 4.25923 1.65647 0
M  V30 3108 C 310.627 5.07829 1.11383 0
M  V30 3109 C 308.312 4.72377 1.7078 0
M  V30 3110 C 310.306 6.34285 0.629439 0
M  V30 3111 C 307.993 5.98808 1.21953 0
M  V30 3112 C 308.991 6.79594 0.681265 0
M  V30 3113 O 308.679 8.03651 0.200248 0
M  V30 3114 H 308.411 0.585327 0.338183 0
M  V30 3115 H 310.965 2.01186 0.413927 0
M  V30 3116 H 309.195 2.54368 2.91262 0
M  V30 3117 H 310.884 2.94515 2.79313 0
M  V30 3118 H 311.65 4.73107 1.06746 0
M  V30 3119 H 307.529 4.0956 2.11617 0
M  V30 3120 H 311.073 6.97288 0.208636 0
M  V30 3121 H 306.97 6.33026 1.26287 0
M  V30 3122 H 307.738 8.1788 0.318416 0
M  V30 3123 N 310.401 -0.613514 1.45168 0
M  V30 3124 C 311.65 -1.36874 1.4815 0
M  V30 3125 C 311.963 -1.952 0.124982 0
M  V30 3126 O 313.169 -2.71481 0.0324176 0
M  V30 3127 C 311.625 -2.47905 2.60904 0
M  V30 3128 C 311.233 -1.96016 4.02842 0
M  V30 3129 C 312.977 -3.24965 2.73126 0
M  V30 3130 C 310.884 -3.04494 5.06988 0
M  V30 3131 H 309.814 -0.514428 0.551253 0
M  V30 3132 H 312.465 -0.658182 1.7129 0
M  V30 3133 H 310.847 -3.21618 2.31037 0
M  V30 3134 H 312.021 -1.29051 4.4236 0
M  V30 3135 H 310.336 -1.31719 3.95018 0
M  V30 3136 H 312.933 -4.05865 3.48106 0
M  V30 3137 H 313.276 -3.75588 1.79553 0
M  V30 3138 H 313.809 -2.5835 3.0249 0
M  V30 3139 H 310.548 -2.58795 6.0225 0
M  V30 3140 H 310.068 -3.70044 4.72046 0
M  V30 3141 H 311.747 -3.68976 5.31475 0
M  V30 3142 N 311.879 -1.3236 -0.855495 0
M  V30 3143 C 312.809 -1.23833 -1.97958 0
M  V30 3144 C 313.79 -0.122361 -1.69659 0
M  V30 3145 O 314.975 -0.30939 -1.9172 0
M  V30 3146 C 312.105 -0.959772 -3.33775 0
M  V30 3147 C 311.059 -2.03689 -3.76424 0
M  V30 3148 C 310.385 -1.61075 -5.09862 0
M  V30 3149 C 311.685 -3.4518 -3.9198 0
M  V30 3150 H 313.379 -2.1788 -2.0535 0
M  V30 3151 H 310.925 -1.04891 -0.986605 0
M  V30 3152 H 312.878 -0.886678 -4.11966 0
M  V30 3153 H 311.602 0.0163404 -3.26596 0
M  V30 3154 H 310.261 -2.10012 -3.00484 0
M  V30 3155 H 309.909 -0.622107 -4.99138 0
M  V30 3156 H 309.609 -2.33143 -5.39368 0
M  V30 3157 H 311.133 -1.55201 -5.90546 0
M  V30 3158 H 312.547 -3.4145 -4.60526 0
M  V30 3159 H 310.944 -4.1559 -4.32903 0
M  V30 3160 H 312.014 -3.84903 -2.94919 0
M  V30 3161 N 313.357 1.07166 -1.15556 0
M  V30 3162 C 314.582 1.84053 -0.955988 0
M  V30 3163 C 315.007 1.81586 0.490739 0
M  V30 3164 O 314.365 1.21018 1.34997 0
M  V30 3165 C 314.413 3.28957 -1.47714 0
M  V30 3166 O 313.517 4.06795 -0.677593 0
M  V30 3167 H 312.858 0.569842 -0.340847 0
M  V30 3168 H 315.388 1.35178 -1.53584 0
M  V30 3169 H 315.398 3.79788 -1.4908 0
M  V30 3170 H 314.073 3.30068 -2.53037 0
M  V30 3171 H 312.65 3.6561 -0.733721 0
M  V30 3172 N 314.835 0.952656 1.25548 0
M  V30 3173 C 316.06 0.623025 1.97821 0
M  V30 3174 C 316.485 -0.7976 1.70352 0
M  V30 3175 O 315.843 -1.53905 0.958283 0
M  V30 3176 C 315.891 0.885532 3.49558 0
M  V30 3177 O 314.995 -0.0366641 4.12384 0
M  V30 3178 H 314.336 0.237082 0.620232 0
M  V30 3179 H 316.866 1.27871 1.59719 0
M  V30 3180 H 316.876 0.811009 3.99858 0
M  V30 3181 H 315.551 1.92094 3.6888 0
M  V30 3182 H 314.128 0.0898954 3.72792 0
M  V30 3183 N 316.313 -1.40141 0.720998 0
M  V30 3184 C 317.553 -2.02644 0.267335 0
M  V30 3185 C 317.917 -1.55948 -1.12001 0
M  V30 3186 O 319.118 -2.10552 -1.67097 0
M  V30 3187 C 317.389 -3.55679 0.350281 0
M  V30 3188 S 318.948 -4.38793 -0.0256004 0
M  V30 3189 H 315.766 -0.703105 0.105664 0
M  V30 3190 H 318.368 -1.71175 0.944416 0
M  V30 3191 H 317.072 -3.87157 1.36153 0
M  V30 3192 H 316.603 -3.91883 -0.345096 0
M  V30 3193 H 318.618 -4.803 -1.24604 0
M  V30 3194 N 317.792 -0.46758 -1.50504 0
M  V30 3195 C 319.041 0.0902868 -2.01498 0
M  V30 3196 C 319.354 1.411 -1.35463 0
M  V30 3197 O 320.56 2.0536 -1.77594 0
M  V30 3198 C 319.016 0.21142 -3.59278 0
M  V30 3199 C 318.624 -1.10065 -4.34269 0
M  V30 3200 C 320.368 0.721433 -4.18325 0
M  V30 3201 C 318.275 -0.943505 -5.83825 0
M  V30 3202 H 317.205 0.037517 -0.753066 0
M  V30 3203 H 319.856 -0.601943 -1.73346 0
M  V30 3204 H 318.238 0.967352 -3.84003 0
M  V30 3205 H 319.412 -1.86726 -4.21272 0
M  V30 3206 H 317.727 -1.5415 -3.86816 0
M  V30 3207 H 320.324 0.85598 -5.27804 0
M  V30 3208 H 320.667 1.71186 -3.79475 0
M  V30 3209 H 321.2 0.0229843 -3.97793 0
M  V30 3210 H 317.939 -1.90719 -6.27141 0
M  V30 3211 H 317.459 -0.217213 -5.99407 0
M  V30 3212 H 319.138 -0.608715 -6.4413 0
M  V30 3213 N 319.27 1.56325 -0.20005 0
M  V30 3214 C 320.518 1.97329 0.436547 0
M  V30 3215 C 320.839 1.08826 1.61808 0
M  V30 3216 O 320.109 0.160604 1.95241 0
M  V30 3217 H 318.689 0.728714 0.164272 0
M  V30 3218 H 321.351 1.92761 -0.287937 0
M  V30 3219 H 320.447 3.02264 0.777353 0
M  V30 3220 N 320.748 -0.0735177 1.57428 0
M  V30 3221 C 321.973 -0.789787 1.91774 0
M  V30 3222 C 322.398 -1.70413 0.796306 0
M  V30 3223 O 321.756 -1.79555 -0.250961 0
M  V30 3224 C 321.804 -1.5609 3.25067 0
M  V30 3225 O 320.908 -2.67144 3.14178 0
M  V30 3226 H 320.249 -0.215582 0.628029 0
M  V30 3227 H 322.779 -0.0422781 2.04556 0
M  V30 3228 H 322.789 -1.94052 3.58898 0
M  V30 3229 H 321.464 -0.890015 4.06265 0
M  V30 3230 H 320.041 -2.32052 2.91901 0
M  V30 3231 N 322.226 -1.5378 -0.344866 0
M  V30 3232 C 323.473 -1.70963 -1.08526 0
M  V30 3233 C 323.801 -0.472126 -1.88683 0
M  V30 3234 O 323.056 0.546116 -1.87926 0
M  V30 3235 C 323.355 -2.92407 -2.05506 0
M  V30 3236 C 323.021 -4.28066 -1.41671 0
M  V30 3237 C 321.683 -4.64951 -1.2399 0
M  V30 3238 C 324.035 -5.12344 -0.956726 0
M  V30 3239 C 321.363 -5.83733 -0.589277 0
M  V30 3240 C 323.715 -6.3179 -0.320015 0
M  V30 3241 C 322.379 -6.67372 -0.130881 0
M  V30 3242 H 321.649 -0.625598 -0.397124 0
M  V30 3243 H 324.296 -1.87995 -0.36469 0
M  V30 3244 H 322.601 -2.69973 -2.8394 0
M  V30 3245 H 324.298 -3.02895 -2.62784 0
M  V30 3246 H 320.888 -3.99034 -1.56429 0
M  V30 3247 H 325.072 -4.8438 -1.08118 0
M  V30 3248 H 320.328 -6.09877 -0.431344 0
M  V30 3249 H 324.502 -6.96386 0.0445072 0
M  V30 3250 H 322.129 -7.59273 0.375318 0
M  V30 3251 N 323.704 0.605807 -1.45491 0
M  V30 3252 C 324.951 1.36476 -1.49601 0
M  V30 3253 C 325.279 1.94007 -0.138452 0
M  V30 3254 O 324.534 1.75638 0.863114 0
M  V30 3255 C 324.833 2.53012 -2.52428 0
M  V30 3256 C 324.499 2.13617 -3.97087 0
M  V30 3257 C 323.161 2.02587 -4.36477 0
M  V30 3258 C 325.513 1.82899 -4.88055 0
M  V30 3259 C 322.841 1.59064 -5.64726 0
M  V30 3260 C 325.193 1.40861 -6.16718 0
M  V30 3261 C 323.857 1.28391 -6.55036 0
M  V30 3262 H 323.127 0.499402 -0.547429 0
M  V30 3263 H 325.774 0.684546 -1.78847 0
M  V30 3264 H 324.079 3.26379 -2.16758 0
M  V30 3265 H 325.776 3.1124 -2.52845 0
M  V30 3266 H 322.366 2.23129 -3.65939 0
M  V30 3267 H 326.55 1.90317 -4.58359 0
M  V30 3268 H 321.806 1.48034 -5.93208 0
M  V30 3269 H 325.98 1.16138 -6.86648 0
M  V30 3270 H 323.607 0.944403 -7.54311 0
M  V30 3271 N 325.182 1.32811 0.848464 0
M  V30 3272 C 326.145 1.22194 1.9391 0
M  V30 3273 C 327.145 0.143404 1.60159 0
M  V30 3274 O 328.335 0.394253 1.6968 0
M  V30 3275 C 325.467 0.88067 3.29328 0
M  V30 3276 H 326.66 2.19127 2.04752 0
M  V30 3277 H 324.213 1.16731 1.0394 0
M  V30 3278 H 324.948 -0.0865776 3.24184 0
M  V30 3279 H 324.733 1.66052 3.55203 0
M  V30 3280 H 326.223 0.830871 4.09251 0
M  V30 3281 N 326.66 -1.06551 1.16123 0
M  V30 3282 C 328.071 -1.60768 0.949232 0
M  V30 3283 C 328.422 -1.89523 -0.507508 0
M  V30 3284 O 327.547 -1.66671 -1.38021 0
M  V30 3285 C 328.142 -2.92086 1.71671 0
M  V30 3286 C 326.701 -3.43015 1.54977 0
M  V30 3287 C 325.848 -2.16947 1.72711 0
M  V30 3288 H 328.799 -0.895354 1.31031 0
M  V30 3289 H 328.82 -3.6138 1.19099 0
M  V30 3290 H 328.332 -2.71127 2.7769 0
M  V30 3291 H 326.433 -3.69039 0.513873 0
M  V30 3292 H 326.546 -4.18516 2.33198 0
M  V30 3293 H 324.91 -2.27041 1.15431 0
M  V30 3294 H 325.693 -1.98473 2.80113 0
M  V30 3295 N 328.138 -0.959301 -1.25041 0
M  V30 3296 C 329.378 -0.624343 -1.94631 0
M  V30 3297 C 329.742 0.82403 -1.73418 0
M  V30 3298 O 330.943 1.26881 -2.3697 0
M  V30 3299 C 329.214 -0.978805 -3.43736 0
M  V30 3300 S 330.773 -0.757127 -4.32219 0
M  V30 3301 H 327.591 -0.229327 -0.673001 0
M  V30 3302 H 330.193 -1.23447 -1.51595 0
M  V30 3303 H 328.897 -2.02997 -3.56679 0
M  V30 3304 H 328.428 -0.359117 -3.91757 0
M  V30 3305 H 330.443 0.369759 -4.9482 0
M  V30 3306 N 329.616 1.39756 -0.72842 0
M  V30 3307 C 330.546 2.33289 -0.0991354 0
M  V30 3308 C 331.527 1.53568 0.731489 0
M  V30 3309 O 332.712 1.81987 0.677807 0
M  V30 3310 C 329.842 3.3763 0.813834 0
M  V30 3311 C 328.796 4.2791 0.0878663 0
M  V30 3312 C 328.122 5.22894 1.11741 0
M  V30 3313 C 329.422 5.11314 -1.06563 0
M  V30 3314 H 331.116 2.86163 -0.880408 0
M  V30 3315 H 328.662 1.37591 -0.424819 0
M  V30 3316 H 330.615 4.0201 1.26355 0
M  V30 3317 H 329.339 2.83181 1.62715 0
M  V30 3318 H 327.998 3.65 -0.342159 0
M  V30 3319 H 327.646 4.64744 1.92412 0
M  V30 3320 H 327.346 5.84143 0.636477 0
M  V30 3321 H 328.87 5.90151 1.56697 0
M  V30 3322 H 330.284 5.69076 -0.694671 0
M  V30 3323 H 328.681 5.81671 -1.47577 0
M  V30 3324 H 329.751 4.46534 -1.89038 0
M  V30 3325 N 331.094 0.475555 1.50254 0
M  V30 3326 C 332.343 -0.0795996 2.01543 0
M  V30 3327 C 332.656 -1.4038 1.36209 0
M  V30 3328 O 333.862 -2.04415 1.7868 0
M  V30 3329 C 332.318 -0.192363 3.59386 0
M  V30 3330 C 331.926 1.12367 4.33679 0
M  V30 3331 C 333.67 -0.699238 4.18701 0
M  V30 3332 C 331.577 0.974453 5.83317 0
M  V30 3333 H 330.507 -0.0335228 0.753254 0
M  V30 3334 H 333.158 0.611128 1.73025 0
M  V30 3335 H 331.54 -0.946974 3.84511 0
M  V30 3336 H 332.714 1.88958 4.20276 0
M  V30 3337 H 331.029 1.562 3.85993 0
M  V30 3338 H 333.626 -0.827978 5.28251 0
M  V30 3339 H 333.969 -1.69171 3.80377 0
M  V30 3340 H 334.502 -0.00188807 3.978 0
M  V30 3341 H 331.241 1.94042 6.26121 0
M  V30 3342 H 330.761 0.248998 5.99283 0
M  V30 3343 H 332.44 0.642867 6.43798 0
M  V30 3344 N 332.573 -1.56217 0.208337 0
M  V30 3345 C 333.506 -2.15633 -0.746842 0
M  V30 3346 C 334.484 -1.09685 -1.20034 0
M  V30 3347 O 335.668 -1.3787 -1.28547 0
M  V30 3348 C 332.795 -2.72594 -2.01023 0
M  V30 3349 C 331.841 -3.91251 -1.69779 0
M  V30 3350 S 332.674 -5.28962 -0.834209 0
M  V30 3351 C 333.83 -5.89353 -2.10745 0
M  V30 3352 H 334.063 -2.96315 -0.241789 0
M  V30 3353 H 331.596 -1.54398 -0.00682183 0
M  V30 3354 H 333.554 -3.06053 -2.73572 0
M  V30 3355 H 332.215 -1.91929 -2.48641 0
M  V30 3356 H 331.408 -4.29562 -2.63614 0
M  V30 3357 H 331.01 -3.58869 -1.05303 0
M  V30 3358 H 333.302 -6.04522 -3.05875 0
M  V30 3359 H 334.245 -6.85661 -1.76845 0
M  V30 3360 H 334.653 -5.1807 -2.24196 0
M  V30 3361 N 334.051 0.0651679 -1.57465 0
M  V30 3362 C 335.299 0.761555 -1.87202 0
M  V30 3363 C 335.62 1.77778 -0.801243 0
M  V30 3364 O 334.89 1.95166 0.16937 0
M  V30 3365 H 333.47 0.284251 -0.690804 0
M  V30 3366 H 336.132 0.0396827 -1.9486 0
M  V30 3367 H 335.228 1.27365 -2.84929 0
M  V30 3368 N 335.529 1.53961 0.336706 0
M  V30 3369 C 336.459 1.85417 1.41925 0
M  V30 3370 C 337.44 0.709856 1.5458 0
M  V30 3371 O 338.625 0.962396 1.68676 0
M  V30 3372 C 335.755 2.06985 2.78881 0
M  V30 3373 C 334.709 3.22813 2.81026 0
M  V30 3374 C 334.035 3.29727 4.20932 0
M  V30 3375 C 335.335 4.60767 2.45949 0
M  V30 3376 H 337.029 2.76079 1.15848 0
M  V30 3377 H 334.575 1.32839 0.555859 0
M  V30 3378 H 336.528 2.27575 3.54665 0
M  V30 3379 H 335.252 1.13061 3.06406 0
M  V30 3380 H 333.911 3.0209 2.07695 0
M  V30 3381 H 333.559 2.33385 4.45579 0
M  V30 3382 H 333.259 4.07566 4.23277 0
M  V30 3383 H 334.783 3.52536 4.98549 0
M  V30 3384 H 336.197 4.81325 3.11446 0
M  V30 3385 H 334.594 5.4106 2.59566 0
M  V30 3386 H 335.664 4.6391 1.41122 0
M  V30 3387 N 337.007 -0.598083 1.45811 0
M  V30 3388 C 338.253 -1.35882 1.50545 0
M  V30 3389 C 338.586 -1.93616 0.150445 0
M  V30 3390 O 337.861 -1.75604 -0.83628 0
M  V30 3391 C 338.144 -2.49966 2.59208 0
M  V30 3392 C 337.997 -1.97367 4.04186 0
M  V30 3393 C 339.316 -3.52068 2.64076 0
M  V30 3394 H 336.435 -0.492717 0.548087 0
M  V30 3395 H 339.077 -0.673319 1.77669 0
M  V30 3396 H 337.227 -3.08443 2.3621 0
M  V30 3397 H 338.899 -1.43466 4.38423 0
M  V30 3398 H 337.142 -1.283 4.14393 0
M  V30 3399 H 337.813 -2.79649 4.75921 0
M  V30 3400 H 340.289 -3.03448 2.84708 0
M  V30 3401 H 339.165 -4.2937 3.41954 0
M  V30 3402 H 339.426 -4.08304 1.69531 0
M  V30 3403 N 338.485 -1.33259 -0.841409 0
M  V30 3404 C 339.715 -1.2742 -1.62628 0
M  V30 3405 C 340.123 0.157604 -1.88542 0
M  V30 3406 O 339.466 1.10938 -1.46419 0
M  V30 3407 C 339.528 -1.97797 -3.00194 0
M  V30 3408 C 339.192 -3.47109 -2.97261 0
M  V30 3409 C 340.189 -4.42358 -2.73159 0
M  V30 3410 C 337.874 -3.89247 -3.17478 0
M  V30 3411 C 339.868 -5.77718 -2.69296 0
M  V30 3412 C 337.555 -5.24713 -3.13241 0
M  V30 3413 C 338.553 -6.1876 -2.89181 0
M  V30 3414 O 338.241 -7.51745 -2.84843 0
M  V30 3415 H 337.973 -0.440436 -0.512827 0
M  V30 3416 H 340.527 -1.76153 -1.05638 0
M  V30 3417 H 338.757 -1.43652 -3.59028 0
M  V30 3418 H 340.446 -1.8549 -3.61038 0
M  V30 3419 H 341.212 -4.11127 -2.57294 0
M  V30 3420 H 337.091 -3.16456 -3.35226 0
M  V30 3421 H 340.635 -6.51097 -2.50436 0
M  V30 3422 H 336.532 -5.55569 -3.28654 0
M  V30 3423 H 337.3 -7.61262 -3.00702 0
M  V30 3424 N 339.963 1.05934 -1.16686 0
M  V30 3425 C 340.926 2.11669 -0.879144 0
M  V30 3426 C 341.926 1.60294 0.127445 0
M  V30 3427 O 343.116 1.7389 -0.103865 0
M  V30 3428 C 340.248 3.39438 -0.315425 0
M  V30 3429 H 341.441 2.38626 -1.81653 0
M  V30 3430 H 338.994 1.22058 -0.976299 0
M  V30 3431 H 339.729 3.18132 0.629468 0
M  V30 3432 H 339.514 3.78034 -1.04079 0
M  V30 3433 H 341.004 4.17391 -0.132189 0
M  V30 3434 N 341.441 0.965919 1.2453 0
M  V30 3435 C 342.857 0.67216 1.44756 0
M  V30 3436 C 343.057 -0.766609 1.86347 0
M  V30 3437 O 342.113 -1.5407 2.00047 0
M  V30 3438 C 343.426 1.65473 2.51076 0
M  V30 3439 C 344.974 1.66716 2.64905 0
M  V30 3440 C 345.449 2.63766 3.74421 0
M  V30 3441 N 346.94 2.62198 3.81846 0
M  V30 3442 C 347.675 3.33966 4.66106 0
M  V30 3443 N 347.171 4.15245 5.54566 0
M  V30 3444 N 348.964 3.22799 4.60171 0
M  V30 3445 H 341.115 1.89553 0.958293 0
M  V30 3446 H 343.378 0.815979 0.482579 0
M  V30 3447 H 343.084 2.68296 2.27399 0
M  V30 3448 H 342.958 1.4261 3.49202 0
M  V30 3449 H 345.345 0.646057 2.87941 0
M  V30 3450 H 345.426 1.93642 1.67142 0
M  V30 3451 H 345.07 3.6601 3.52135 0
M  V30 3452 H 345 2.34121 4.71694 0
M  V30 3453 H 347.491 2.032 3.18619 0
M  V30 3454 H 347.804 4.66898 6.15814 0
M  V30 3455 H 346.149 4.1934 5.54237 0
M  V30 3456 H 349.34 2.58764 3.90075 0
M  V30 3457 H 349.513 3.78994 5.25612 0
M  V30 3458 N 342.919 -1.39368 0.735821 0
M  V30 3459 C 344.168 -1.99733 0.281004 0
M  V30 3460 C 344.481 -1.59055 -1.13846 0
M  V30 3461 O 345.687 -2.12262 -1.69284 0
M  V30 3462 C 344.143 -3.57057 0.451462 0
M  V30 3463 C 343.751 -4.06697 1.87886 0
M  V30 3464 C 345.495 -4.2446 0.0584616 0
M  V30 3465 C 343.402 -5.56598 1.99883 0
M  V30 3466 H 342.332 -0.747163 0.101311 0
M  V30 3467 H 344.983 -1.59357 0.909819 0
M  V30 3468 H 343.365 -3.95234 -0.246263 0
M  V30 3469 H 344.539 -3.79853 2.60861 0
M  V30 3470 H 342.854 -3.5196 2.22515 0
M  V30 3471 H 345.451 -5.34549 0.127099 0
M  V30 3472 H 345.794 -4.04444 -0.986433 0
M  V30 3473 H 346.327 -3.9146 0.707374 0
M  V30 3474 H 343.066 -5.81494 3.02564 0
M  V30 3475 H 342.586 -5.85242 1.31346 0
M  V30 3476 H 344.265 -6.22022 1.78039 0
M  V30 3477 N 344.397 -0.483516 -1.5 0
M  V30 3478 C 345.627 0.0643896 -2.065 0
M  V30 3479 C 346.035 1.32949 -1.34615 0
M  V30 3480 O 345.378 1.79003 -0.412756 0
M  V30 3481 C 345.44 0.405983 -3.572 0
M  V30 3482 C 345.104 -0.758875 -4.50655 0
M  V30 3483 C 346.101 -1.64445 -4.93208 0
M  V30 3484 C 343.786 -0.952725 -4.93182 0
M  V30 3485 C 345.78 -2.70818 -5.77006 0
M  V30 3486 C 343.467 -2.01966 -5.76761 0
M  V30 3487 C 344.465 -2.89574 -6.18576 0
M  V30 3488 O 344.153 -3.94429 -7.00486 0
M  V30 3489 H 343.885 -0.00934786 -0.675935 0
M  V30 3490 H 346.439 -0.674959 -1.93993 0
M  V30 3491 H 344.669 1.19869 -3.67652 0
M  V30 3492 H 346.358 0.890433 -3.96013 0
M  V30 3493 H 347.124 -1.50643 -4.61012 0
M  V30 3494 H 343.003 -0.280247 -4.60147 0
M  V30 3495 H 346.547 -3.3923 -6.09565 0
M  V30 3496 H 342.444 -2.1577 -6.0837 0
M  V30 3497 H 343.212 -3.91568 -7.1876 0
M  V30 3498 N 345.875 1.56104 -0.216619 0
M  V30 3499 C 347.291 1.58995 0.13886 0
M  V30 3500 C 347.491 1.23333 1.59346 0
M  V30 3501 O 346.547 0.966234 2.33281 0
M  V30 3502 C 347.86 3.00143 -0.182968 0
M  V30 3503 C 349.408 3.12751 -0.124807 0
M  V30 3504 C 349.883 4.56068 -0.420241 0
M  V30 3505 N 351.374 4.61723 -0.369634 0
M  V30 3506 C 352.109 5.70542 -0.571789 0
M  V30 3507 N 351.605 6.87744 -0.835453 0
M  V30 3508 N 353.398 5.59831 -0.504563 0
M  V30 3509 H 345.549 1.77562 -1.16557 0
M  V30 3510 H 347.812 0.825091 -0.466828 0
M  V30 3511 H 347.518 3.30871 -1.19237 0
M  V30 3512 H 347.392 3.73813 0.504367 0
M  V30 3513 H 349.779 2.81822 0.875223 0
M  V30 3514 H 349.86 2.41421 -0.845544 0
M  V30 3515 H 349.504 4.87713 -1.41769 0
M  V30 3516 H 349.434 5.25617 0.321631 0
M  V30 3517 H 351.925 3.77502 -0.173338 0
M  V30 3518 H 352.238 7.66587 -0.977938 0
M  V30 3519 H 350.583 6.895 -0.872592 0
M  V30 3520 H 353.774 4.67145 -0.298842 0
M  V30 3521 H 353.947 6.44573 -0.665519 0
M  V30 3522 N 347.353 -0.0568162 1.57498 0
M  V30 3523 C 348.599 -0.75422 1.88253 0
M  V30 3524 C 348.932 -1.76461 0.810865 0
M  V30 3525 O 348.207 -1.93691 -0.177259 0
M  V30 3526 C 348.49 -1.44878 3.2967 0
M  V30 3527 C 348.343 -0.453789 4.47505 0
M  V30 3528 C 349.662 -2.38994 3.69554 0
M  V30 3529 H 346.781 -0.272724 0.684683 0
M  V30 3530 H 349.423 -0.0172113 1.89992 0
M  V30 3531 H 347.573 -2.077 3.28318 0
M  V30 3532 H 349.245 0.170371 4.60985 0
M  V30 3533 H 347.488 0.229552 4.33192 0
M  V30 3534 H 348.159 -0.977699 5.43273 0
M  V30 3535 H 350.635 -1.86239 3.72095 0
M  V30 3536 H 349.511 -2.84587 4.69363 0
M  V30 3537 H 349.772 -3.24461 3.00296 0
M  V30 3538 N 348.832 -1.54138 -0.328536 0
M  V30 3539 C 349.795 -1.82462 -1.38709 0
M  V30 3540 C 350.795 -0.696229 -1.44946 0
M  V30 3541 O 351.985 -0.964535 -1.4506 0
M  V30 3542 C 349.117 -1.98018 -2.77492 0
M  V30 3543 H 350.31 -2.77037 -1.14851 0
M  V30 3544 H 347.863 -1.45779 -0.563751 0
M  V30 3545 H 348.598 -1.05637 -3.06613 0
M  V30 3546 H 348.383 -2.80124 -2.74359 0
M  V30 3547 H 349.873 -2.21396 -3.54081 0
M  V30 3548 N 350.31 0.590341 -1.46126 0
M  V30 3549 C 351.257 1.69994 -1.56111 0
M  V30 3550 C 352.227 1.61065 -0.405867 0
M  V30 3551 O 353.412 1.8039 -0.621613 0
M  V30 3552 C 350.552 3.08326 -1.55013 0
M  V30 3553 C 349.665 3.27936 -2.81215 0
M  V30 3554 C 348.8 4.56473 -2.71673 0
M  V30 3555 C 347.839 4.694 -3.92849 0
M  V30 3556 N 346.976 5.89254 -3.81738 0
M  V30 3557 H 351.816 1.60797 -2.50895 0
M  V30 3558 H 349.353 0.783799 -1.24479 0
M  V30 3559 H 351.311 3.88383 -1.52362 0
M  V30 3560 H 349.941 3.16439 -0.637667 0
M  V30 3561 H 348.993 2.41536 -2.93879 0
M  V30 3562 H 350.305 3.33357 -3.71045 0
M  V30 3563 H 349.459 5.44748 -2.67085 0
M  V30 3564 H 348.198 4.53477 -1.7947 0
M  V30 3565 H 347.203 3.79544 -3.97777 0
M  V30 3566 H 348.428 4.7418 -4.86138 0
M  V30 3567 H 346.374 5.87271 -2.92317 0
M  V30 3568 H 346.291 5.95911 -4.65217 0
M  V30 3569 H 347.559 6.79981 -3.81112 0
M  V30 3570 N 351.788 1.33704 0.83433 0
M  V30 3571 C 352.718 1.26967 1.95963 0
M  V30 3572 C 353.699 0.149337 1.69443 0
M  V30 3573 O 354.884 0.339852 1.91203 0
M  V30 3574 C 352.014 1.01275 3.32206 0
M  V30 3575 C 350.968 2.09652 3.73136 0
M  V30 3576 C 350.294 1.69166 5.07235 0
M  V30 3577 C 351.594 3.51372 3.86439 0
M  V30 3578 H 353.288 2.2112 2.01857 0
M  V30 3579 H 350.834 1.06447 0.969793 0
M  V30 3580 H 352.787 0.952106 4.10503 0
M  V30 3581 H 351.511 0.0356203 3.26581 0
M  V30 3582 H 350.17 2.14766 2.97104 0
M  V30 3583 H 349.818 0.701437 4.98085 0
M  V30 3584 H 349.518 2.41694 5.35591 0
M  V30 3585 H 351.042 1.64576 5.88003 0
M  V30 3586 H 352.456 3.48734 4.55036 0
M  V30 3587 H 350.853 4.22425 4.26236 0
M  V30 3588 H 351.923 3.89546 2.88759 0
M  V30 3589 N 353.266 -1.05314 1.17247 0
M  V30 3590 C 354.682 -1.30452 0.919473 0
M  V30 3591 C 354.882 -1.9703 -0.42209 0
M  V30 3592 O 353.938 -2.24311 -1.15935 0
M  V30 3593 C 355.251 -2.17551 2.07586 0
M  V30 3594 C 356.799 -2.30937 2.11275 0
M  V30 3595 C 357.274 -3.21396 3.26296 0
M  V30 3596 N 358.765 -3.28981 3.26076 0
M  V30 3597 C 359.5 -3.99095 4.11716 0
M  V30 3598 N 358.996 -4.71648 5.07465 0
M  V30 3599 N 360.789 -3.95247 3.9967 0
M  V30 3600 H 352.94 -0.604988 2.03602 0
M  V30 3601 H 355.203 -0.329368 0.888944 0
M  V30 3602 H 354.909 -1.75921 3.0454 0
M  V30 3603 H 354.783 -3.18182 2.02584 0
M  V30 3604 H 357.17 -2.71809 1.14907 0
M  V30 3605 H 357.251 -1.2994 2.20339 0
M  V30 3606 H 356.895 -2.81238 4.22927 0
M  V30 3607 H 356.825 -4.22395 3.14467 0
M  V30 3608 H 359.316 -2.77286 2.5675 0
M  V30 3609 H 359.629 -5.22705 5.6921 0
M  V30 3610 H 357.974 -4.70594 5.11435 0
M  V30 3611 H 361.165 -3.37691 3.24164 0
M  V30 3612 H 361.338 -4.4962 4.66632 0
M  V30 3613 N 354.744 -0.972509 -1.24016 0
M  V30 3614 C 355.972 -0.654803 -1.96265 0
M  V30 3615 C 356.387 0.776708 -1.72083 0
M  V30 3616 O 355.744 1.52171 -1.00748 0
M  V30 3617 C 355.795 -0.92592 -3.49441 0
M  V30 3618 O 355.516 -2.30116 -3.72798 0
M  V30 3619 C 357.017 -0.623068 -4.38899 0
M  V30 3620 H 354.237 -0.243907 -0.6251 0
M  V30 3621 H 356.781 -1.30175 -1.57717 0
M  V30 3622 H 354.936 -0.325108 -3.86033 0
M  V30 3623 H 355.35 -2.38483 -4.67147 0
M  V30 3624 H 356.824 -0.863189 -5.45209 0
M  V30 3625 H 357.301 0.442754 -4.36963 0
M  V30 3626 H 357.907 -1.204 -4.07902 0
M  V30 3627 N 356.222 1.38976 -0.743202 0
M  V30 3628 C 357.638 1.53984 -0.419664 0
M  V30 3629 C 357.838 1.70837 1.0685 0
M  V30 3630 O 356.894 1.7135 1.8546 0
M  V30 3631 C 358.207 2.75287 -1.20985 0
M  V30 3632 C 359.755 2.89129 -1.19889 0
M  V30 3633 C 360.23 4.13381 -1.97181 0
M  V30 3634 N 361.721 4.20437 -1.94389 0
M  V30 3635 C 362.456 5.15547 -2.50996 0
M  V30 3636 N 361.952 6.16395 -3.16274 0
M  V30 3637 N 363.745 5.07822 -2.40984 0
M  V30 3638 H 355.896 1.26285 -1.7078 0
M  V30 3639 H 358.159 0.612689 -0.723406 0
M  V30 3640 H 357.865 2.69204 -2.26323 0
M  V30 3641 H 357.739 3.68184 -0.819759 0
M  V30 3642 H 360.126 2.947 -0.153606 0
M  V30 3643 H 360.207 1.97272 -1.62841 0
M  V30 3644 H 359.851 4.08572 -3.01714 0
M  V30 3645 H 359.781 5.04298 -1.51629 0
M  V30 3646 H 362.272 3.48205 -1.46839 0
M  V30 3647 H 362.585 6.85443 -3.56915 0
M  V30 3648 H 360.93 6.16758 -3.20367 0
M  V30 3649 H 364.121 4.27973 -1.89622 0
M  V30 3650 H 364.294 5.81767 -2.85397 0
M  V30 3651 N 357.7 0.491464 1.49741 0
M  V30 3652 C 358.928 -0.0535151 2.06831 0
M  V30 3653 C 359.343 -1.31683 1.35296 0
M  V30 3654 O 358.7 -1.77402 0.42836 0
M  V30 3655 C 358.751 -0.320835 3.60073 0
M  V30 3656 O 358.472 0.892394 4.28915 0
M  V30 3657 C 359.973 -0.910519 4.33848 0
M  V30 3658 H 357.193 0.0161909 0.670805 0
M  V30 3659 H 359.737 0.68609 1.92647 0
M  V30 3660 H 357.892 -1.0104 3.73991 0
M  V30 3661 H 358.306 0.649401 5.20464 0
M  V30 3662 H 359.78 -1.04721 5.41976 0
M  V30 3663 H 360.257 -1.90589 3.95692 0
M  V30 3664 H 360.863 -0.258712 4.24512 0
M  V30 3665 N 359.178 -1.55987 0.224894 0
M  V30 3666 C 360.108 -2.23426 -0.678457 0
M  V30 3667 C 361.089 -1.20709 -1.19847 0
M  V30 3668 O 362.274 -1.49304 -1.24186 0
M  V30 3669 C 359.404 -2.91676 -1.88527 0
M  V30 3670 C 358.358 -4.00893 -1.49896 0
M  V30 3671 C 357.684 -4.56455 -2.78483 0
M  V30 3672 C 358.984 -5.17769 -0.686461 0
M  V30 3673 H 360.678 -2.99175 -0.116173 0
M  V30 3674 H 358.224 -1.43897 -0.054436 0
M  V30 3675 H 360.177 -3.37547 -2.5227 0
M  V30 3676 H 358.901 -2.1338 -2.47258 0
M  V30 3677 H 357.56 -3.55758 -0.884985 0
M  V30 3678 H 357.208 -3.74886 -3.35365 0
M  V30 3679 H 356.908 -5.30169 -2.53368 0
M  V30 3680 H 358.432 -5.05047 -3.43162 0
M  V30 3681 H 359.846 -5.60001 -1.22767 0
M  V30 3682 H 358.243 -5.97735 -0.532259 0
M  V30 3683 H 359.313 -4.83932 0.306196 0
M  V30 3684 N 360.656 0.0484629 -1.57525 0
M  V30 3685 C 361.881 0.759177 -1.93006 0
M  V30 3686 C 362.306 1.69125 -0.823317 0
M  V30 3687 O 361.664 1.79931 0.222364 0
M  V30 3688 C 361.712 1.50899 -3.27509 0
M  V30 3689 O 360.816 2.62112 -3.18388 0
M  V30 3690 H 360.157 0.205564 -0.631379 0
M  V30 3691 H 362.687 0.00972959 -2.04598 0
M  V30 3692 H 362.697 1.88317 -3.6194 0
M  V30 3693 H 361.372 0.825269 -4.0763 0
M  V30 3694 H 359.949 2.27379 -2.95556 0
M  V30 3695 N 362.134 1.5431 0.320358 0
M  V30 3696 C 363.044 1.86946 1.41734 0
M  V30 3697 C 364.06 0.761689 1.56443 0
M  V30 3698 O 365.236 1.05629 1.71477 0
M  V30 3699 C 362.301 2.09293 2.76401 0
M  V30 3700 C 361.362 3.33082 2.70841 0
M  V30 3701 C 360.595 3.54353 3.99086 0
M  V30 3702 O 360.818 2.79002 4.97508 0
M  V30 3703 O 359.752 4.47838 4.0215 0
M  V30 3704 H 363.578 2.80232 1.17062 0
M  V30 3705 H 361.163 1.40255 0.514673 0
M  V30 3706 H 363.045 2.25303 3.56113 0
M  V30 3707 H 361.72 1.19194 3.00956 0
M  V30 3708 H 360.627 3.22454 1.89668 0
M  V30 3709 H 361.96 4.23249 2.5124 0
M  V30 3710 N 363.613 -0.582584 1.46437 0
M  V30 3711 C 364.56 -1.69164 1.5701 0
M  V30 3712 C 365.53 -1.60847 0.414403 0
M  V30 3713 O 366.715 -1.80058 0.631171 0
M  V30 3714 C 363.855 -3.075 1.56646 0
M  V30 3715 C 362.968 -3.2644 2.82951 0
M  V30 3716 C 362.103 -4.55026 2.7409 0
M  V30 3717 C 361.142 -4.6731 3.95333 0
M  V30 3718 N 360.279 -5.87221 3.84858 0
M  V30 3719 H 365.119 -1.59464 2.51744 0
M  V30 3720 H 362.656 -0.777186 1.24893 0
M  V30 3721 H 364.614 -3.8757 1.5442 0
M  V30 3722 H 363.244 -3.16096 0.654439 0
M  V30 3723 H 362.296 -2.39974 2.95155 0
M  V30 3724 H 363.608 -3.31385 3.72808 0
M  V30 3725 H 362.762 -5.43324 2.6997 0
M  V30 3726 H 361.501 -4.52519 1.81873 0
M  V30 3727 H 360.506 -3.77429 3.99784 0
M  V30 3728 H 361.731 -4.71595 4.88646 0
M  V30 3729 H 359.677 -5.85712 2.95427 0
M  V30 3730 H 359.594 -5.93435 4.6837 0
M  V30 3731 H 360.862 -6.7795 3.84713 0
M  V30 3732 N 365.091 -1.34144 -0.827227 0
M  V30 3733 C 366.507 -1.13732 -1.11969 0
M  V30 3734 C 366.707 0.0640463 -2.01398 0
M  V30 3735 O 365.763 0.740856 -2.41387 0
M  V30 3736 C 367.076 -2.43047 -1.77055 0
M  V30 3737 C 368.624 -2.49063 -1.89569 0
M  V30 3738 C 369.099 -3.78369 -2.58072 0
M  V30 3739 N 370.59 -3.79505 -2.65575 0
M  V30 3740 C 371.325 -4.76274 -3.19297 0
M  V30 3741 N 370.821 -5.83424 -3.73616 0
M  V30 3742 N 372.614 -4.63735 -3.17658 0
M  V30 3743 H 364.765 -2.11126 -0.232296 0
M  V30 3744 H 367.028 -0.933424 -0.165602 0
M  V30 3745 H 366.734 -3.31025 -1.18807 0
M  V30 3746 H 366.608 -2.56066 -2.76966 0
M  V30 3747 H 368.995 -1.61527 -2.46968 0
M  V30 3748 H 369.076 -2.39975 -0.885745 0
M  V30 3749 H 368.72 -4.66293 -2.01329 0
M  V30 3750 H 368.65 -3.84737 -3.59562 0
M  V30 3751 H 371.141 -3.02074 -2.27068 0
M  V30 3752 H 371.454 -6.53282 -4.12846 0
M  V30 3753 H 369.799 -5.87143 -3.71871 0
M  V30 3754 H 372.99 -3.79177 -2.74486 0
M  V30 3755 H 373.163 -5.39318 -3.59221 0
M  V30 3756 N 366.569 1.04691 -1.17803 0
M  V30 3757 C 367.532 2.10724 -0.901545 0
M  V30 3758 C 368.532 1.6042 0.110437 0
M  V30 3759 O 369.722 1.7377 -0.122303 0
M  V30 3760 C 366.854 3.39084 -0.351409 0
M  V30 3761 H 368.047 2.36686 -1.84174 0
M  V30 3762 H 365.6 1.21015 -0.98919 0
M  V30 3763 H 366.335 3.18782 0.59569 0
M  V30 3764 H 366.12 3.76909 -1.08083 0
M  V30 3765 H 367.61 4.17227 -0.176451 0
M  V30 3766 N 368.047 0.979072 1.23499 0
M  V30 3767 C 369.458 0.684391 1.73704 0
M  V30 3768 C 369.809 -0.799448 1.79174 0
M  V30 3769 O 368.934 -1.62531 1.42873 0
M  V30 3770 C 369.529 1.23564 3.15464 0
M  V30 3771 C 368.088 0.99063 3.6313 0
M  V30 3772 C 367.235 1.36416 2.41425 0
M  V30 3773 H 370.186 1.15307 1.09041 0
M  V30 3774 H 370.207 0.607417 3.7562 0
M  V30 3775 H 369.719 2.31561 3.1145 0
M  V30 3776 H 367.82 -0.0733136 3.72528 0
M  V30 3777 H 367.933 1.64427 4.5 0
M  V30 3778 H 366.297 0.782616 2.42378 0
M  V30 3779 H 367.08 2.45387 2.40083 0
M  V30 3780 N 369.525 -1.3858 0.750561 0
M  V30 3781 C 370.771 -2.00481 0.305825 0
M  V30 3782 C 371.104 -1.5944 -1.10872 0
M  V30 3783 O 370.379 -0.83052 -1.75877 0
M  V30 3784 C 370.662 -3.5758 0.425287 0
M  V30 3785 C 370.515 -4.08594 1.88072 0
M  V30 3786 C 371.834 -4.39719 -0.183122 0
M  V30 3787 H 368.953 -0.728348 0.112598 0
M  V30 3788 H 371.595 -1.64566 0.949638 0
M  V30 3789 H 369.745 -3.88306 -0.122828 0
M  V30 3790 H 371.417 -3.88523 2.48691 0
M  V30 3791 H 369.66 -3.61574 2.39681 0
M  V30 3792 H 370.331 -5.177 1.91548 0
M  V30 3793 H 372.807 -4.15128 0.284303 0
M  V30 3794 H 371.683 -5.48856 -0.0692757 0
M  V30 3795 H 371.944 -4.23434 -1.27106 0
M  V30 3796 N 371.003 -0.499398 -1.49478 0
M  V30 3797 C 372.251 0.0455996 -2.02049 0
M  V30 3798 C 372.572 1.37633 -1.38138 0
M  V30 3799 O 371.842 1.8842 -0.536166 0
M  V30 3800 H 370.422 0.0198416 -0.746736 0
M  V30 3801 H 373.084 -0.656274 -1.83519 0
M  V30 3802 H 372.18 0.176445 -3.11601 0
M  V30 3803 N 372.481 1.55866 -0.233164 0
M  V30 3804 C 373.892 1.847 0.272554 0
M  V30 3805 C 374.243 1.15477 1.58617 0
M  V30 3806 O 373.368 0.42841 2.12117 0
M  V30 3807 C 373.963 3.35071 0.501299 0
M  V30 3808 C 372.522 3.6418 0.951304 0
M  V30 3809 C 371.669 2.77292 0.0208209 0
M  V30 3810 H 374.62 1.52005 -0.456074 0
M  V30 3811 H 374.641 3.55906 1.34577 0
M  V30 3812 H 374.153 3.85424 -0.454936 0
M  V30 3813 H 372.254 3.19293 1.92049 0
M  V30 3814 H 372.367 4.72071 0.817675 0
M  V30 3815 H 370.731 2.49131 0.529723 0
M  V30 3816 H 371.514 3.30448 -0.93054 0
M  V30 3817 N 373.959 -0.0401083 1.57549 0
M  V30 3818 C 375.236 -0.767917 1.79896 0
M  V30 3819 C 375.616 -1.9416 0.82856 0
M  V30 3820 O 374.964 -2.2812 -0.131671 0
M  V30 3821 C 375.174 -1.2113 3.27305 0
M  V30 3822 C 376.522 -1.63175 3.91994 0
M  V30 3823 O 377.546 -1.30616 3.31388 0
M  V30 3824 O 376.405 -2.23565 4.98679 0
M  V30 3825 H 373.499 -0.370441 0.739393 0
M  V30 3826 H 376.045 -0.017737 1.69691 0
M  V30 3827 H 374.817 -0.372937 3.89519 0
M  V30 3828 H 374.44 -2.02183 3.42356 0
M  V30 3829 N 375.437 -1.54477 -0.31217 0
M  V30 3830 C 376.685 -1.72884 -1.04668 0
M  V30 3831 C 377.006 -0.511477 -1.88173 0
M  V30 3832 O 376.276 0.474407 -1.90069 0
M  V30 3833 H 374.856 -0.637461 -0.389425 0
M  V30 3834 H 377.518 -1.91807 -0.345852 0
M  V30 3835 H 376.614 -2.61334 -1.70619 0
M  V30 3836 N 376.915 0.57481 -1.46744 0
M  V30 3837 C 377.878 1.66533 -1.57478 0
M  V30 3838 C 378.878 1.54338 -0.451263 0
M  V30 3839 O 380.068 1.58814 -0.715813 0
M  V30 3840 C 377.2 3.05999 -1.50259 0
M  V30 3841 H 378.393 1.58372 -2.54673 0
M  V30 3842 H 375.946 0.793301 -1.34672 0
M  V30 3843 H 376.681 3.19709 -0.543725 0
M  V30 3844 H 376.466 3.16259 -2.31781 0
M  V30 3845 H 377.956 3.8537 -1.60872 0
M  V30 3846 N 378.394 1.34581 0.820102 0
M  V30 3847 C 379.619 1.30333 1.61332 0
M  V30 3848 C 380.044 -0.119339 1.87721 0
M  V30 3849 O 379.402 -1.08197 1.45475 0
M  V30 3850 C 379.45 2.10258 2.92957 0
M  V30 3851 O 378.554 1.47404 3.85157 0
M  V30 3852 H 377.895 0.447488 0.490561 0
M  V30 3853 H 380.425 1.77425 1.01889 0
M  V30 3854 H 380.435 2.21718 3.42498 0
M  V30 3855 H 379.11 3.13693 2.73074 0
M  V30 3856 H 377.687 1.44703 3.43679 0
M  V30 3857 N 379.872 -1.04064 1.18357 0
M  V30 3858 C 381.283 -1.58719 0.98312 0
M  V30 3859 C 381.634 -1.90556 -0.467193 0
M  V30 3860 O 380.759 -1.69561 -1.34454 0
M  V30 3861 C 381.354 -2.88379 1.77828 0
M  V30 3862 C 379.913 -3.3965 1.62218 0
M  V30 3863 C 379.06 -2.13235 1.77274 0
M  V30 3864 H 382.011 -0.867359 1.32901 0
M  V30 3865 H 382.032 -3.58773 1.26737 0
M  V30 3866 H 381.544 -2.65176 2.83379 0
M  V30 3867 H 379.645 -3.67866 0.592036 0
M  V30 3868 H 379.758 -4.13475 2.42023 0
M  V30 3869 H 378.122 -2.24542 1.20221 0
M  V30 3870 H 378.905 -1.92487 2.8426 0
M  V30 3871 N 381.35 -0.985608 -1.22978 0
M  V30 3872 C 382.578 -0.675582 -1.95559 0
M  V30 3873 C 382.993 0.758413 -1.72897 0
M  V30 3874 O 382.35 1.51094 -1.02357 0
M  V30 3875 C 382.401 -0.96293 -3.48439 0
M  V30 3876 O 382.122 -2.34057 -3.70336 0
M  V30 3877 C 383.623 -0.669585 -4.38214 0
M  V30 3878 H 380.843 -0.250523 -0.622478 0
M  V30 3879 H 383.387 -1.3184 -1.56328 0
M  V30 3880 H 381.542 -0.366033 -3.85667 0
M  V30 3881 H 381.956 -2.43424 -4.64591 0
M  V30 3882 H 383.43 -0.920967 -5.44263 0
M  V30 3883 H 383.907 0.396383 -4.37408 0
M  V30 3884 H 384.513 -1.2472 -4.06602 0
M  V30 3885 N 382.828 1.3818 -0.7579 0
M  V30 3886 C 384.056 2.04301 -0.326937 0
M  V30 3887 C 384.471 1.57163 1.0462 0
M  V30 3888 O 383.828 0.746626 1.66529 0
M  V30 3889 C 383.879 3.59846 -0.345363 0
M  V30 3890 O 383.6 4.05256 -1.66432 0
M  V30 3891 C 385.101 4.4319 0.098927 0
M  V30 3892 H 382.321 0.656443 -0.139012 0
M  V30 3893 H 384.865 1.76786 -1.02796 0
M  V30 3894 H 383.02 3.86182 0.306955 0
M  V30 3895 H 383.434 4.99709 -1.59345 0
M  V30 3896 H 384.908 5.51989 0.0348745 0
M  V30 3897 H 385.385 4.23947 1.14741 0
M  V30 3898 H 385.991 4.22051 -0.52468 0
M  V30 3899 N 384.306 0.507319 1.49211 0
M  V30 3900 C 385.216 -0.272136 2.33016 0
M  V30 3901 C 386.232 -0.961206 1.45041 0
M  V30 3902 O 387.408 -0.941191 1.78055 0
M  V30 3903 C 384.473 -1.31895 3.20631 0
M  V30 3904 C 383.534 -0.642648 4.24463 0
M  V30 3905 C 382.767 -1.63959 5.07891 0
M  V30 3906 O 382.99 -2.87007 4.92933 0
M  V30 3907 O 381.924 -1.19143 5.8999 0
M  V30 3908 H 385.75 0.413982 3.00865 0
M  V30 3909 H 383.335 0.268556 1.46966 0
M  V30 3910 H 385.217 -1.92446 3.7489 0
M  V30 3911 H 383.892 -1.98788 2.5547 0
M  V30 3912 H 382.799 0.00276252 3.741 0
M  V30 3913 H 384.132 -0.0160534 4.92197 0
M  V30 3914 N 385.784 -1.5574 0.241426 0
M  V30 3915 C 386.732 -2.22538 -0.676718 0
M  V30 3916 C 387.726 -1.21117 -1.18436 0
M  V30 3917 O 388.932 -1.39144 -1.14188 0
M  V30 3918 H 385.307 -0.713776 -0.236701 0
M  V30 3919 H 387.278 -2.98264 -0.0901187 0
M  V30 3920 C 386.027 -2.93439 -1.86518 0
M  V30 3921 H 385.35 -3.7125 -1.4837 0
M  V30 3922 H 386.79 -3.43549 -2.48495 0
M  V30 3923 C 385.249 -1.97008 -2.73294 0
M  V30 3924 O 385.779 -1.49965 -3.72657 0
M  V30 3925 N 383.985 -1.64227 -2.39745 0
M  V30 3926 H 383.532 -2.02677 -1.58996 0
M  V30 3927 H 383.49 -0.999708 -2.98083 0
M  V30 3928 N 387.262 0.0317525 -1.57568 0
M  V30 3929 C 388.51 0.721676 -1.88776 0
M  V30 3930 C 388.831 1.76039 -0.838772 0
M  V30 3931 O 388.101 1.95482 0.127935 0
M  V30 3932 H 386.681 0.269534 -0.696678 0
M  V30 3933 H 389.343 -0.00165879 -1.949 0
M  V30 3934 H 388.439 1.21293 -2.87566 0
M  V30 3935 N 388.74 1.54641 0.303973 0
M  V30 3936 C 389.67 1.88386 1.3796 0
M  V30 3937 C 390.651 0.742485 1.5304 0
M  V30 3938 O 391.836 0.997959 1.66597 0
M  V30 3939 C 388.966 2.12854 2.74427 0
M  V30 3940 C 387.92 3.28702 2.74115 0
M  V30 3941 C 387.246 3.38582 4.13844 0
M  V30 3942 C 388.546 4.65881 2.3612 0
M  V30 3943 H 390.24 2.78474 1.09966 0
M  V30 3944 H 387.786 1.33988 0.527556 0
M  V30 3945 H 389.739 2.35047 3.49758 0
M  V30 3946 H 388.463 1.19535 3.03939 0
M  V30 3947 H 387.122 3.06428 2.0124 0
M  V30 3948 H 386.77 2.42784 4.40528 0
M  V30 3949 H 386.47 4.16453 4.14537 0
M  V30 3950 H 387.994 3.63031 4.90959 0
M  V30 3951 H 389.408 4.87823 3.01167 0
M  V30 3952 H 387.805 5.46444 2.48031 0
M  V30 3953 H 388.875 4.66799 1.3125 0
M  V30 3954 N 390.218 -0.567019 1.47046 0
M  V30 3955 C 391.466 -1.322 1.52864 0
M  V30 3956 C 391.787 -1.94088 0.188388 0
M  V30 3957 O 391.057 -1.7941 -0.786693 0
M  V30 3958 H 389.637 -0.490894 0.563056 0
M  V30 3959 H 392.299 -0.662879 1.83281 0
M  V30 3960 H 391.395 -2.12062 2.2899 0
M  V30 3961 N 391.696 -1.35014 -0.812953 0
M  V30 3962 C 392.659 -1.27292 -1.90602 0
M  V30 3963 C 393.659 -0.185817 -1.59723 0
M  V30 3964 O 394.849 -0.439102 -1.68575 0
M  V30 3965 C 391.981 -0.967676 -3.26877 0
M  V30 3966 H 393.174 -2.24479 -1.9887 0
M  V30 3967 H 390.727 -1.19446 -1.00808 0
M  V30 3968 H 391.462 0.0005954 -3.243 0
M  V30 3969 H 391.247 -1.75412 -3.50675 0
M  V30 3970 H 392.737 -0.939085 -4.06904 0
M  V30 3971 N 393.175 1.03435 -1.18907 0
M  V30 3972 C 394.138 2.09756 -0.923844 0
M  V30 3973 C 395.138 1.60528 0.093416 0
M  V30 3974 O 396.328 1.73631 -0.140727 0
M  V30 3975 C 393.46 3.38692 -0.387354 0
M  V30 3976 H 394.653 2.34719 -1.86674 0
M  V30 3977 H 392.206 1.19959 -1.00197 0
M  V30 3978 H 392.941 3.19396 0.561845 0
M  V30 3979 H 392.726 3.75742 -1.12074 0
M  V30 3980 H 394.216 4.17016 -0.220694 0
M  V30 3981 N 394.653 0.992116 1.22453 0
M  V30 3982 C 395.616 0.546883 2.2258 0
M  V30 3983 C 396.616 -0.369829 1.56489 0
M  V30 3984 O 397.806 -0.161896 1.73446 0
M  V30 3985 C 394.938 -0.204659 3.40285 0
M  V30 3986 H 396.131 1.43234 2.63484 0
M  V30 3987 H 393.684 0.779239 1.3549 0
M  V30 3988 H 394.419 -1.10614 3.04853 0
M  V30 3989 H 394.204 0.45354 3.89468 0
M  V30 3990 H 395.694 -0.504358 4.14543 0
M  V30 3991 N 396.131 -1.37776 0.765217 0
M  V30 3992 C 397.379 -1.99454 0.325943 0
M  V30 3993 C 397.7 -1.61049 -1.09947 0
M  V30 3994 O 396.97 -0.872821 -1.75381 0
M  V30 3995 H 395.55 -0.737697 0.117525 0
M  V30 3996 H 398.212 -1.68359 0.981895 0
M  V30 3997 H 397.308 -3.09547 0.398353 0
M  V30 3998 N 397.609 -0.515225 -1.4894 0
M  V30 3999 C 398.572 0.244681 -2.2789 0
M  V30 4000 C 399.572 0.881166 -1.34507 0
M  V30 4001 O 400.762 0.743497 -1.57537 0
M  V30 4002 C 397.894 1.35247 -3.12923 0
M  V30 4003 H 399.087 -0.448289 -2.96531 0
M  V30 4004 H 396.64 -0.270656 -1.53939 0
M  V30 4005 H 397.375 2.07916 -2.48881 0
M  V30 4006 H 397.16 0.901374 -3.81599 0
M  V30 4007 H 398.65 1.88737 -3.72516 0
M  V30 4008 N 399.087 1.5561 -0.249682 0
M  V30 4009 C 400.335 1.98618 0.373548 0
M  V30 4010 C 400.656 1.13919 1.58264 0
M  V30 4011 O 399.926 0.222637 1.94631 0
M  V30 4012 H 398.506 0.733571 0.141006 0
M  V30 4013 H 401.168 1.91748 -0.349117 0
M  V30 4014 H 400.264 3.04584 0.680796 0
M  V30 4015 N 400.565 -0.0233959 1.57583 0
M  V30 4016 C 401.475 -1.03907 2.10334 0
M  V30 4017 C 402.491 -1.39257 1.04323 0
M  V30 4018 O 403.667 -1.48462 1.36091 0
M  V30 4019 C 400.732 -2.31938 2.57693 0
M  V30 4020 C 399.793 -2.03117 3.78209 0
M  V30 4021 C 399.026 -3.25043 4.233 0
M  V30 4022 O 399.249 -4.35916 3.67876 0
M  V30 4023 O 398.183 -3.10411 5.15683 0
M  V30 4024 H 402.009 -0.620748 2.97288 0
M  V30 4025 H 399.594 -0.240743 1.47448 0
M  V30 4026 H 401.476 -3.07196 2.88458 0
M  V30 4027 H 400.151 -2.73055 1.73847 0
M  V30 4028 H 399.058 -1.25408 3.52454 0
M  V30 4029 H 400.391 -1.66852 4.63056 0
M  V30 4030 N 402.043 -1.548 -0.295768 0
M  V30 4031 C 402.991 -1.86874 -1.38495 0
M  V30 4032 C 403.985 -0.742938 -1.52239 0
M  V30 4033 O 405.191 -0.926999 -1.54294 0
M  V30 4034 H 401.566 -0.592786 -0.462719 0
M  V30 4035 H 403.537 -2.77904 -1.08682 0
M  V30 4036 C 402.286 -2.13732 -2.74252 0
M  V30 4037 H 401.609 -2.99835 -2.64459 0
M  V30 4038 H 403.049 -2.4011 -3.49461 0
M  V30 4039 C 401.508 -0.937539 -3.23592 0
M  V30 4040 O 402.038 -0.160665 -4.01379 0
M  V30 4041 N 400.244 -0.741478 -2.80981 0
M  V30 4042 H 399.791 -1.37489 -2.1784 0
M  V30 4043 H 399.749 0.0597103 -3.14343 0
M  V30 4044 N 403.521 0.559213 -1.47345 0
M  V30 4045 C 404.769 1.31388 -1.53563 0
M  V30 4046 C 405.09 1.93985 -0.198678 0
M  V30 4047 O 404.36 1.79825 0.777167 0
M  V30 4048 H 402.94 0.487901 -0.565652 0
M  V30 4049 H 405.602 0.65315 -1.8363 0
M  V30 4050 H 404.698 2.10844 -2.30111 0
M  V30 4051 N 404.999 1.35443 0.805782 0
M  V30 4052 C 405.949 1.24972 1.90699 0
M  V30 4053 C 406.933 0.144806 1.60247 0
M  V30 4054 O 408.125 0.376102 1.72958 0
M  V30 4055 C 405.254 1.02475 3.27649 0
M  V30 4056 C 404.34 2.17361 3.64164 0
M  V30 4057 N 404.731 3.42591 3.72109 0
M  V30 4058 C 403.029 2.08765 3.94123 0
M  V30 4059 C 403.73 4.18144 4.04389 0
M  V30 4060 N 402.706 3.4691 4.18515 0
M  V30 4061 H 406.508 2.19852 1.95044 0
M  V30 4062 H 404.022 1.27928 1.00041 0
M  V30 4063 H 406.019 0.930617 4.06381 0
M  V30 4064 H 404.679 0.0848009 3.24589 0
M  V30 4065 H 405.69 3.76932 3.55166 0
M  V30 4066 H 402.367 1.22629 3.99084 0
M  V30 4067 H 403.757 5.26367 4.17597 0
M  V30 4068 N 406.477 -1.02803 1.19454 0
M  V30 4069 C 407.717 -1.77769 1.00883 0
M  V30 4070 C 408.081 -1.86596 -0.45233 0
M  V30 4071 O 409.282 -2.57895 -0.757877 0
M  V30 4072 C 407.553 -3.16486 1.66046 0
M  V30 4073 S 409.112 -4.07632 1.62424 0
M  V30 4074 H 405.93 -0.611949 0.361993 0
M  V30 4075 H 408.532 -1.23175 1.51816 0
M  V30 4076 H 407.236 -3.0768 2.7159 0
M  V30 4077 H 406.767 -3.76156 1.15196 0
M  V30 4078 H 408.782 -4.91937 0.64903 0
M  V30 4079 N 407.956 -0.998596 -1.21925 0
M  V30 4080 C 408.919 -0.558679 -2.22287 0
M  V30 4081 C 409.919 0.361525 -1.56683 0
M  V30 4082 O 411.109 0.152695 -1.73529 0
M  V30 4083 C 408.241 0.18661 -3.40389 0
M  V30 4084 H 409.434 -1.4463 -2.62721 0
M  V30 4085 H 406.987 -0.786413 -1.35075 0
M  V30 4086 H 407.722 1.08996 -3.05435 0
M  V30 4087 H 407.507 -0.474188 -3.89222 0
M  V30 4088 H 408.997 0.482367 -4.14805 0
M  V30 4089 N 409.434 1.37368 -0.772513 0
M  V30 4090 C 410.845 1.8231 -0.402493 0
M  V30 4091 C 411.196 1.6436 1.07146 0
M  V30 4092 O 410.321 1.15514 1.82991 0
M  V30 4093 C 410.916 3.30979 -0.723776 0
M  V30 4094 C 409.475 3.74195 -0.406802 0
M  V30 4095 C 408.622 2.59885 -0.967218 0
M  V30 4096 H 411.573 1.25829 -0.967099 0
M  V30 4097 H 411.594 3.80499 -0.00870832 0
M  V30 4098 H 411.106 3.44011 -1.7966 0
M  V30 4099 H 409.207 3.66732 0.658673 0
M  V30 4100 H 409.32 4.7027 -0.915588 0
M  V30 4101 H 407.684 2.51674 -0.391416 0
M  V30 4102 H 408.467 2.7571 -2.04546 0
M  V30 4103 N 410.912 0.523116 1.48665 0
M  V30 4104 C 412.323 0.0808997 1.86525 0
M  V30 4105 C 412.674 -1.33975 1.43336 0
M  V30 4106 O 411.799 -2.00221 0.821009 0
M  V30 4107 C 412.394 0.140037 3.3851 0
M  V30 4108 C 410.953 -0.246948 3.75589 0
M  V30 4109 C 410.1 0.502845 2.72703 0
M  V30 4110 H 413.051 0.734736 1.40667 0
M  V30 4111 H 413.072 -0.649945 3.74908 0
M  V30 4112 H 412.584 1.17412 3.69914 0
M  V30 4113 H 410.685 -1.28343 3.49798 0
M  V30 4114 H 410.798 0.0878859 4.79019 0
M  V30 4115 H 409.162 -0.0500581 2.54651 0
M  V30 4116 H 409.945 1.53743 3.0695 0
M  V30 4117 N 412.39 -1.55475 0.257931 0
M  V30 4118 C 413.801 -1.8511 -0.243135 0
M  V30 4119 C 414.152 -1.17986 -1.5676 0
M  V30 4120 O 413.277 -0.462102 -2.11409 0
M  V30 4121 C 413.872 -3.35826 -0.447929 0
M  V30 4122 C 412.431 -3.65647 -0.893245 0
M  V30 4123 C 411.578 -2.7729 0.0232965 0
M  V30 4124 H 414.529 -1.51261 0.480199 0
M  V30 4125 H 414.55 -3.58002 -1.28898 0
M  V30 4126 H 414.062 -3.84652 0.516196 0
M  V30 4127 H 412.163 -3.22308 -1.86945 0
M  V30 4128 H 412.276 -4.73312 -0.742469 0
M  V30 4129 H 410.64 -2.49942 -0.490021 0
M  V30 4130 H 411.423 -3.28926 0.982994 0
M  V30 4131 N 413.868 0.0150385 -1.57593 0
M  V30 4132 C 414.831 0.995996 -2.06428 0
M  V30 4133 C 415.831 1.2818 -0.970903 0
M  V30 4134 O 417.021 1.22949 -1.23406 0
M  V30 4135 C 414.153 2.32506 -2.49307 0
M  V30 4136 H 415.346 0.573873 -2.94358 0
M  V30 4137 H 412.899 0.262186 -1.54085 0
M  V30 4138 H 413.634 2.79438 -1.64575 0
M  V30 4139 H 413.419 2.13087 -3.29145 0
M  V30 4140 H 414.909 3.02906 -2.87468 0
M  V30 4141 N 415.346 1.54954 0.287554 0
M  V30 4142 C 416.623 1.65569 1.04146 0
M  V30 4143 C 417.003 0.512672 2.0478 0
M  V30 4144 O 416.351 -0.489038 2.23205 0
M  V30 4145 C 416.561 3.04163 1.71131 0
M  V30 4146 C 417.909 3.61429 2.22832 0
M  V30 4147 O 418.933 3.06702 1.81141 0
M  V30 4148 O 417.792 4.57281 2.9926 0
M  V30 4149 H 414.886 0.671881 0.482188 0
M  V30 4150 H 417.432 1.67297 0.28457 0
M  V30 4151 H 416.204 3.78796 0.981303 0
M  V30 4152 H 415.827 3.06271 2.53543 0
M  V30 4153 N 416.824 -0.551391 1.4764 0
M  V30 4154 C 418.07 -1.31024 1.54792 0
M  V30 4155 C 418.403 -1.9304 0.211967 0
M  V30 4156 O 417.678 -1.78175 -0.77999 0
M  V30 4157 C 417.961 -2.41593 2.67029 0
M  V30 4158 C 417.814 -1.84408 4.10261 0
M  V30 4159 C 419.133 -3.43488 2.75143 0
M  V30 4160 H 416.252 -0.475031 0.563485 0
M  V30 4161 H 418.894 -0.616454 1.79722 0
M  V30 4162 H 417.044 -3.00772 2.45904 0
M  V30 4163 H 418.716 -1.29445 4.42766 0
M  V30 4164 H 416.959 -1.15051 4.18265 0
M  V30 4165 H 417.63 -2.64367 4.84576 0
M  V30 4166 H 420.106 -2.94236 2.94218 0
M  V30 4167 H 418.982 -4.18274 3.55441 0
M  V30 4168 H 419.243 -4.02703 1.82435 0
M  V30 4169 N 418.302 -1.35869 -0.798587 0
M  V30 4170 C 419.212 -1.31578 -1.94228 0
M  V30 4171 C 420.228 -0.21939 -1.72611 0
M  V30 4172 O 421.404 -0.450167 -1.96305 0
M  V30 4173 C 418.469 -1.09528 -3.28944 0
M  V30 4174 C 417.53 -2.28556 -3.63402 0
M  V30 4175 C 416.763 -2.07549 -4.9169 0
M  V30 4176 O 416.986 -1.046 -5.60727 0
M  V30 4177 O 415.92 -2.95106 -5.24591 0
M  V30 4178 H 419.746 -2.27847 -2.00796 0
M  V30 4179 H 417.331 -1.16322 -0.937526 0
M  V30 4180 H 419.213 -0.991127 -4.09579 0
M  V30 4181 H 417.888 -0.16315 -3.23289 0
M  V30 4182 H 416.795 -2.44538 -2.83112 0
M  V30 4183 H 418.128 -3.20244 -3.73771 0
M  V30 4184 N 419.78 1.02168 -1.19998 0
M  V30 4185 C 421.191 1.57135 -1.00825 0
M  V30 4186 C 421.542 1.91276 0.436818 0
M  V30 4187 O 420.667 1.71679 1.3174 0
M  V30 4188 C 421.262 2.85514 -1.82393 0
M  V30 4189 C 419.821 3.37027 -1.67601 0
M  V30 4190 C 418.968 2.10388 -1.80644 0
M  V30 4191 H 421.919 0.846106 -1.34264 0
M  V30 4192 H 421.94 3.56711 -1.32429 0
M  V30 4193 H 421.452 2.60634 -2.87561 0
M  V30 4194 H 419.553 3.66878 -0.650485 0
M  V30 4195 H 419.666 4.09572 -2.4857 0
M  V30 4196 H 418.03 2.22601 -1.23778 0
M  V30 4197 H 418.813 1.8794 -2.87286 0
M  V30 4198 N 421.258 1.00505 1.21394 0
M  V30 4199 C 422.535 0.603277 1.86064 0
M  V30 4200 C 422.915 -0.919095 1.90042 0
M  V30 4201 O 422.263 -1.80607 1.39977 0
M  V30 4202 C 422.473 1.23772 3.26315 0
M  V30 4203 C 423.821 1.34586 4.02705 0
M  V30 4204 O 424.845 1.19304 3.35626 0
M  V30 4205 O 423.704 1.59169 5.22807 0
M  V30 4206 H 420.798 0.206634 0.800769 0
M  V30 4207 H 423.344 1.1017 1.29076 0
M  V30 4208 H 422.116 2.27848 3.18121 0
M  V30 4209 H 421.739 0.725648 3.90922 0
M  V30 4210 N 422.737 -1.36956 0.779787 0
M  V30 4211 C 423.647 -2.33965 0.172491 0
M  V30 4212 C 424.663 -1.60574 -0.670222 0
M  V30 4213 O 425.839 -1.92617 -0.588263 0
M  V30 4214 C 422.904 -3.39761 -0.690173 0
M  V30 4215 C 421.965 -4.28964 0.169924 0
M  V30 4216 C 421.198 -5.29707 -0.651662 0
M  V30 4217 O 421.421 -5.38238 -1.88827 0
M  V30 4218 O 420.355 -6.01873 -0.0566264 0
M  V30 4219 H 424.181 -2.87647 0.974321 0
M  V30 4220 H 421.766 -1.39258 0.541078 0
M  V30 4221 H 423.648 -4.04471 -1.1824 0
M  V30 4222 H 422.323 -2.88394 -1.47006 0
M  V30 4223 H 421.23 -3.67326 0.708696 0
M  V30 4224 H 422.563 -4.83656 0.913085 0
M  V30 4225 N 424.215 -0.530993 -1.48385 0
M  V30 4226 C 425.44 0.000729535 -2.074 0
M  V30 4227 C 425.865 1.27298 -1.3848 0
M  V30 4228 O 425.223 1.75599 -0.451081 0
M  V30 4229 C 425.271 0.206697 -3.60007 0
M  V30 4230 O 424.375 1.27514 -3.92191 0
M  V30 4231 H 423.716 -0.039583 -0.662819 0
M  V30 4232 H 426.246 -0.739194 -1.9078 0
M  V30 4233 H 426.256 0.42904 -4.05738 0
M  V30 4234 H 424.931 -0.722675 -4.09573 0
M  V30 4235 H 423.508 1.03537 -3.58238 0
M  V30 4236 N 425.693 1.55336 -0.266172 0
M  V30 4237 C 426.918 2.04258 0.359661 0
M  V30 4238 C 427.343 1.14359 1.49344 0
M  V30 4239 O 426.701 0.140369 1.80756 0
M  V30 4240 C 426.749 3.50997 0.826635 0
M  V30 4241 O 425.853 3.64204 1.93466 0
M  V30 4242 H 425.194 0.659668 0.075727 0
M  V30 4243 H 427.724 2.00694 -0.39786 0
M  V30 4244 H 427.734 3.9219 1.12477 0
M  V30 4245 H 426.409 4.159 -0.00293032 0
M  V30 4246 H 424.986 3.34913 1.63974 0
M  V30 4247 N 427.171 -0.0066808 1.57599 0
M  V30 4248 C 428.134 -0.985035 2.06953 0
M  V30 4249 C 429.134 -1.27663 0.977687 0
M  V30 4250 O 430.324 -1.22293 1.24057 0
M  V30 4251 C 427.456 -2.3118 2.50536 0
M  V30 4252 H 428.649 -0.558255 2.94658 0
M  V30 4253 H 426.202 -0.254011 1.54222 0
M  V30 4254 H 426.937 -2.78561 1.66054 0
M  V30 4255 H 426.722 -2.11338 3.3027 0
M  V30 4256 H 428.212 -3.01377 2.8907 0
M  V30 4257 N 428.649 -1.55105 -0.279332 0
M  V30 4258 C 429.612 -1.86783 -1.32834 0
M  V30 4259 C 430.612 -0.74199 -1.42657 0
M  V30 4260 O 431.802 -1.0102 -1.41918 0
M  V30 4261 C 428.934 -2.06746 -2.71052 0
M  V30 4262 H 430.127 -2.8055 -1.05979 0
M  V30 4263 H 427.68 -1.47499 -0.517087 0
M  V30 4264 H 428.415 -1.15339 -3.03097 0
M  V30 4265 H 428.2 -2.88711 -2.65309 0
M  V30 4266 H 429.69 -2.32549 -3.46858 0
M  V30 4267 N 430.127 0.543554 -1.4793 0
M  V30 4268 C 431.09 1.63156 -1.60975 0
M  V30 4269 C 432.09 1.53346 -0.483899 0
M  V30 4270 O 433.28 1.5726 -0.749339 0
M  V30 4271 C 430.412 3.02743 -1.56716 0
M  V30 4272 H 431.605 1.52934 -2.57975 0
M  V30 4273 H 429.158 0.764557 -1.36324 0
M  V30 4274 H 429.893 3.18484 -0.611418 0
M  V30 4275 H 429.678 3.11272 -2.38438 0
M  V30 4276 H 431.168 3.81871 -1.6901 0
M  V30 4277 N 431.605 1.3629 0.791371 0
M  V30 4278 C 432.515 1.32606 1.93527 0
M  V30 4279 C 433.531 0.228541 1.72493 0
M  V30 4280 O 434.707 0.460571 1.96063 0
M  V30 4281 C 431.772 1.11271 3.28359 0
M  V30 4282 C 430.833 2.3048 3.62185 0
M  V30 4283 C 430.066 2.10154 4.90583 0
M  V30 4284 O 430.289 1.07572 5.60165 0
M  V30 4285 O 429.223 2.97884 5.23019 0
M  V30 4286 H 433.049 2.28909 1.99585 0
M  V30 4287 H 430.634 1.16818 0.931344 0
M  V30 4288 H 432.516 1.01283 4.09047 0
M  V30 4289 H 431.191 0.180292 3.23198 0
M  V30 4290 H 430.098 2.46036 2.81811 0
M  V30 4291 H 431.431 3.22221 3.72068 0
M  V30 4292 N 433.083 -1.0153 1.20538 0
M  V30 4293 C 434.499 -1.27461 0.96051 0
M  V30 4294 C 434.699 -1.98273 -0.359193 0
M  V30 4295 O 433.755 -2.27886 -1.0874 0
M  V30 4296 C 435.068 -2.10837 2.14402 0
M  V30 4297 C 436.616 -2.24099 2.18515 0
M  V30 4298 C 437.091 -3.10852 3.36355 0
M  V30 4299 N 438.582 -3.18441 3.36377 0
M  V30 4300 C 439.317 -3.85795 4.24205 0
M  V30 4301 N 438.813 -4.55264 5.22213 0
M  V30 4302 N 440.606 -3.82331 4.12043 0
M  V30 4303 H 432.757 -0.539907 2.05423 0
M  V30 4304 H 435.02 -0.30092 0.898972 0
M  V30 4305 H 434.726 -1.66144 3.09983 0
M  V30 4306 H 434.6 -3.11576 2.12604 0
M  V30 4307 H 436.987 -2.68016 1.23497 0
M  V30 4308 H 437.068 -1.22865 2.24361 0
M  V30 4309 H 436.712 -2.6764 4.31661 0
M  V30 4310 H 436.642 -4.12177 3.27746 0
M  V30 4311 H 439.133 -2.68978 2.65442 0
M  V30 4312 H 439.446 -5.04331 5.85551 0
M  V30 4313 H 437.791 -4.54085 5.26148 0
M  V30 4314 H 440.982 -3.27207 3.34743 0
M  V30 4315 H 441.155 -4.34547 4.807 0
M  V30 4316 N 434.561 -1.01147 -1.20859 0
M  V30 4317 C 435.977 -0.725422 -1.42161 0
M  V30 4318 C 436.177 0.696919 -1.89064 0
M  V30 4319 O 435.233 1.46539 -2.05627 0
M  V30 4320 C 436.546 -1.74678 -2.44761 0
M  V30 4321 C 438.094 -1.76433 -2.58535 0
M  V30 4322 C 438.569 -2.77481 -3.64374 0
M  V30 4323 N 440.06 -2.76189 -3.71852 0
M  V30 4324 C 440.795 -3.51035 -4.53389 0
M  V30 4325 N 440.291 -4.35541 -5.38773 0
M  V30 4326 N 442.084 -3.39655 -4.47873 0
M  V30 4327 H 434.235 -1.92979 -0.887282 0
M  V30 4328 H 436.498 -0.833327 -0.451962 0
M  V30 4329 H 436.204 -2.76551 -2.17285 0
M  V30 4330 H 436.078 -1.55472 -3.43669 0
M  V30 4331 H 438.465 -0.75248 -2.85345 0
M  V30 4332 H 438.546 -1.99712 -1.5984 0
M  V30 4333 H 438.19 -3.78827 -3.38308 0
M  V30 4334 H 438.12 -2.51466 -4.6268 0
M  V30 4335 H 440.611 -2.14885 -3.10858 0
M  V30 4336 H 440.924 -4.89432 -5.98061 0
M  V30 4337 H 439.269 -4.39621 -5.38292 0
M  V30 4338 H 442.46 -2.73063 -3.80203 0
M  V30 4339 H 442.633 -3.9824 -5.11184 0
M  V30 4340 N 436.039 1.36541 -0.78704 0
M  V30 4341 C 437.455 1.52571 -0.46844 0
M  V30 4342 C 437.655 1.7415 1.01361 0
M  V30 4343 O 436.711 1.77163 1.79915 0
M  V30 4344 C 438.024 2.71299 -1.29682 0
M  V30 4345 C 439.572 2.85169 -1.29027 0
M  V30 4346 C 440.047 4.06898 -2.10233 0
M  V30 4347 N 441.538 4.1404 -2.07666 0
M  V30 4348 C 442.273 5.07301 -2.67271 0
M  V30 4349 N 441.769 6.06021 -3.35724 0
M  V30 4350 N 443.562 4.99898 -2.57018 0
M  V30 4351 H 435.713 1.20788 -1.74711 0
M  V30 4352 H 437.976 0.589364 -0.742532 0
M  V30 4353 H 437.682 2.61868 -2.34773 0
M  V30 4354 H 437.556 3.6539 -0.936479 0
M  V30 4355 H 439.943 2.94062 -0.247284 0
M  V30 4356 H 440.024 1.91992 -1.69035 0
M  V30 4357 H 439.668 3.98766 -3.1456 0
M  V30 4358 H 439.598 4.99218 -1.67597 0
M  V30 4359 H 442.089 3.43357 -1.57843 0
M  V30 4360 H 442.402 6.73741 -3.78541 0
M  V30 4361 H 440.747 6.06253 -3.39826 0
M  V30 4362 H 443.938 4.21724 -2.03142 0
M  V30 4363 H 444.111 5.72392 -3.03761 0
M  V30 4364 N 437.518 0.538854 1.48102 0
M  V30 4365 C 438.934 0.19732 1.58376 0
M  V30 4366 C 439.134 -1.29971 1.5398 0
M  V30 4367 O 438.19 -2.07861 1.43352 0
M  V30 4368 C 439.503 0.807716 2.89649 0
M  V30 4369 C 441.051 0.77726 3.03196 0
M  V30 4370 C 441.526 1.36639 4.37143 0
M  V30 4371 N 443.017 1.32875 4.43732 0
M  V30 4372 C 443.752 1.7544 5.45901 0
M  V30 4373 N 443.248 2.25776 6.54979 0
M  V30 4374 N 445.041 1.66623 5.36836 0
M  V30 4375 H 437.192 1.5117 1.49202 0
M  V30 4376 H 439.455 0.629327 0.708979 0
M  V30 4377 H 439.161 1.85909 2.98548 0
M  V30 4378 H 439.035 0.289975 3.76084 0
M  V30 4379 H 441.422 -0.265374 2.93904 0
M  V30 4380 H 441.503 1.33256 2.18349 0
M  V30 4381 H 441.147 2.408 4.47189 0
M  V30 4382 H 441.077 0.786689 5.20691 0
M  V30 4383 H 443.568 0.96037 3.65493 0
M  V30 4384 H 443.881 2.56226 7.29087 0
M  V30 4385 H 442.226 2.29775 6.55918 0
M  V30 4386 H 445.417 1.27089 4.50517 0
M  V30 4387 H 445.59 2.00115 6.16326 0
M  V30 4388 N 438.996 -1.55193 0.274407 0
M  V30 4389 C 440.412 -1.59401 -0.0797543 0
M  V30 4390 C 440.612 -1.29162 -1.54659 0
M  V30 4391 O 439.668 -1.05215 -2.29534 0
M  V30 4392 C 440.981 -2.99257 0.294238 0
M  V30 4393 C 442.529 -3.12072 0.240796 0
M  V30 4394 C 443.004 -4.54194 0.589218 0
M  V30 4395 N 444.495 -4.60033 0.540744 0
M  V30 4396 C 445.23 -5.68027 0.783147 0
M  V30 4397 N 444.726 -6.8417 1.09013 0
M  V30 4398 N 446.519 -5.57572 0.711993 0
M  V30 4399 H 438.67 -1.73113 1.23067 0
M  V30 4400 H 440.933 -0.807197 0.497129 0
M  V30 4401 H 440.639 -3.26217 1.31435 0
M  V30 4402 H 440.513 -3.75427 -0.365281 0
M  V30 4403 H 442.9 -2.84877 -0.770024 0
M  V30 4404 H 442.981 -2.38117 0.934563 0
M  V30 4405 H 442.625 -4.82115 1.59772 0
M  V30 4406 H 442.555 -5.26448 -0.126331 0
M  V30 4407 H 445.046 -3.76599 0.313327 0
M  V30 4408 H 445.359 -7.6243 1.26178 0
M  V30 4409 H 443.704 -6.85787 1.12789 0
M  V30 4410 H 446.895 -4.65714 0.472014 0
M  V30 4411 H 447.068 -6.41659 0.90429 0
M  V30 4412 N 440.474 -0.00167713 -1.576 0
M  V30 4413 C 441.722 0.681471 -1.90264 0
M  V30 4414 C 442.043 1.7422 -0.875924 0
M  V30 4415 O 441.313 1.95709 0.0864412 0
M  V30 4416 H 439.893 0.254696 -0.702239 0
M  V30 4417 H 442.555 -0.0429996 -1.94853 0
M  V30 4418 H 441.651 1.15166 -2.90075 0
M  V30 4419 N 441.952 1.55251 0.271103 0
M  V30 4420 C 442.915 1.87484 1.31842 0
M  V30 4421 C 443.915 0.749545 1.42262 0
M  V30 4422 O 445.105 1.01771 1.4138 0
M  V30 4423 C 442.237 2.0818 2.69951 0
M  V30 4424 H 443.43 2.81108 1.0449 0
M  V30 4425 H 440.983 1.47771 0.509258 0
M  V30 4426 H 441.718 1.16944 3.02481 0
M  V30 4427 H 441.503 2.90114 2.63774 0
M  V30 4428 H 442.993 2.34385 3.4562 0
M  V30 4429 N 443.43 -0.535701 1.48216 0
M  V30 4430 C 444.36 -1.65014 1.65204 0
M  V30 4431 C 445.341 -1.62554 0.501011 0
M  V30 4432 O 446.526 -1.7984 0.732886 0
M  V30 4433 C 443.656 -3.03616 1.68626 0
M  V30 4434 C 442.61 -3.20932 2.83172 0
M  V30 4435 C 441.936 -4.60537 2.71679 0
M  V30 4436 C 443.236 -3.04249 4.24535 0
M  V30 4437 H 444.93 -1.51053 2.58502 0
M  V30 4438 H 442.476 -0.725262 1.24402 0
M  V30 4439 H 444.429 -3.81446 1.79099 0
M  V30 4440 H 443.153 -3.18587 0.719026 0
M  V30 4441 H 441.812 -2.45517 2.72244 0
M  V30 4442 H 441.46 -4.72336 1.72937 0
M  V30 4443 H 441.16 -4.73069 3.48538 0
M  V30 4444 H 442.684 -5.40475 2.84112 0
M  V30 4445 H 444.098 -3.71877 4.36326 0
M  V30 4446 H 442.495 -3.28278 5.02348 0
M  V30 4447 H 443.565 -2.00739 4.41397 0
M  V30 4448 N 444.908 -1.36708 -0.784132 0
M  V30 4449 C 446.324 -1.17237 -1.08294 0
M  V30 4450 C 446.524 -5.93947e-05 -2.015 0
M  V30 4451 O 445.58 0.663686 -2.43622 0
M  V30 4452 C 446.893 -2.48557 -1.69233 0
M  V30 4453 C 448.441 -2.54968 -1.8155 0
M  V30 4454 C 448.916 -3.86388 -2.45904 0
M  V30 4455 N 450.407 -3.87762 -2.53367 0
M  V30 4456 C 451.142 -4.86191 -3.03983 0
M  V30 4457 N 450.638 -5.95015 -3.54866 0
M  V30 4458 N 452.431 -4.73606 -3.02743 0
M  V30 4459 H 444.582 -2.11758 -0.16501 0
M  V30 4460 H 446.845 -0.93822 -0.135822 0
M  V30 4461 H 446.551 -3.34638 -1.08215 0
M  V30 4462 H 446.425 -2.64748 -2.68679 0
M  V30 4463 H 448.812 -1.69302 -2.41704 0
M  V30 4464 H 448.893 -2.42672 -0.80895 0
M  V30 4465 H 448.537 -4.72462 -1.86392 0
M  V30 4466 H 448.467 -3.95982 -3.4714 0
M  V30 4467 H 450.958 -3.09145 -2.17343 0
M  V30 4468 H 451.271 -6.66086 -3.91854 0
M  V30 4469 H 449.616 -5.98676 -3.53003 0
M  V30 4470 H 452.807 -3.87717 -2.62284 0
M  V30 4471 H 452.98 -5.50473 -3.41881 0
M  V30 4472 N 446.386 1.0089 -1.21074 0
M  V30 4473 C 447.802 1.2695 -0.967257 0
M  V30 4474 C 448.002 1.9846 0.348673 0
M  V30 4475 O 447.058 2.28459 1.0753 0
M  V30 4476 C 448.371 2.09697 -2.15517 0
M  V30 4477 C 449.919 2.22937 -2.197 0
M  V30 4478 C 450.394 3.09064 -3.37999 0
M  V30 4479 N 451.885 3.16653 -3.38061 0
M  V30 4480 C 452.62 3.8354 -4.26245 0
M  V30 4481 N 452.116 4.52488 -5.2462 0
M  V30 4482 N 453.909 3.80141 -4.14064 0
M  V30 4483 H 446.06 0.529005 -2.05707 0
M  V30 4484 H 448.323 0.296148 -0.900556 0
M  V30 4485 H 448.029 1.64497 -3.10859 0
M  V30 4486 H 447.903 3.10444 -2.14253 0
M  V30 4487 H 450.29 2.67357 -1.24916 0
M  V30 4488 H 450.371 1.21673 -2.2501 0
M  V30 4489 H 450.015 2.65347 -4.33074 0
M  V30 4490 H 449.945 4.10433 -3.29928 0
M  V30 4491 H 452.436 2.67566 -2.66865 0
M  V30 4492 H 452.749 5.01219 -5.88217 0
M  V30 4493 H 451.094 4.51288 -5.28549 0
M  V30 4494 H 454.285 3.25427 -3.36474 0
M  V30 4495 H 454.458 4.31992 -4.82998 0
M  V30 4496 N 447.864 1.01787 1.20321 0
M  V30 4497 C 449.112 0.706538 1.89347 0
M  V30 4498 C 449.433 -0.766289 1.79313 0
M  V30 4499 O 448.703 -1.55126 1.19635 0
M  V30 4500 H 447.283 0.258348 0.700903 0
M  V30 4501 H 449.945 1.28974 1.46122 0
M  V30 4502 H 449.041 0.991066 2.95946 0
M  V30 4503 N 449.342 -1.36122 0.79427 0
M  V30 4504 C 450.59 -1.98718 0.368177 0
M  V30 4505 C 450.911 -1.63345 -1.06506 0
M  V30 4506 O 450.181 -0.909825 -1.73491 0
M  V30 4507 H 448.761 -0.735038 0.133146 0
M  V30 4508 H 451.423 -1.66239 1.01739 0
M  V30 4509 H 450.519 -3.08633 0.463923 0
M  V30 4510 N 450.82 -0.546701 -1.47814 0
M  V30 4511 C 452.236 -0.205717 -1.58269 0
M  V30 4512 C 452.436 1.29153 -1.54667 0
M  V30 4513 O 451.492 2.07098 -1.44453 0
M  V30 4514 C 452.805 -0.823065 -2.89216 0
M  V30 4515 C 454.353 -0.793328 -3.02779 0
M  V30 4516 C 454.828 -1.38955 -4.36412 0
M  V30 4517 N 456.319 -1.35227 -4.43021 0
M  V30 4518 C 457.054 -1.78333 -5.44963 0
M  V30 4519 N 456.55 -2.29246 -6.53772 0
M  V30 4520 N 458.343 -1.69467 -5.35945 0
M  V30 4521 H 450.494 -1.5196 -1.48398 0
M  V30 4522 H 452.757 -0.633078 -0.705632 0
M  V30 4523 H 452.463 -1.8749 -2.97558 0
M  V30 4524 H 452.337 -0.309915 -3.75925 0
M  V30 4525 H 454.724 0.249784 -2.94041 0
M  V30 4526 H 454.805 -1.34412 -2.17639 0
M  V30 4527 H 454.449 -2.43168 -4.45906 0
M  V30 4528 H 454.379 -0.814291 -5.20266 0
M  V30 4529 H 456.87 -0.979739 -3.64979 0
M  V30 4530 H 457.183 -2.60089 -7.27718 0
M  V30 4531 H 455.528 -2.3325 -6.5469 0
M  V30 4532 H 458.719 -1.29477 -4.49837 0
M  V30 4533 H 458.892 -2.03381 -6.15256 0
M  V30 4534 N 452.299 1.55045 -0.282633 0
M  V30 4535 C 453.715 1.59441 0.0712997 0
M  V30 4536 C 453.915 1.2998 1.53972 0
M  V30 4537 O 452.971 1.06431 2.28973 0
M  V30 4538 C 454.284 2.99097 -0.310104 0
M  V30 4539 C 455.832 3.1194 -0.257343 0
M  V30 4540 C 456.307 4.53875 -0.613297 0
M  V30 4541 N 457.798 4.5974 -0.565134 0
M  V30 4542 C 458.533 5.67603 -0.81326 0
M  V30 4543 N 458.029 6.83582 -1.1264 0
M  V30 4544 N 459.822 5.57187 -0.741553 0
M  V30 4545 H 451.973 1.72458 -1.23984 0
M  V30 4546 H 454.236 0.804549 -0.501403 0
M  V30 4547 H 453.942 3.25516 -1.33163 0
M  V30 4548 H 453.816 3.75616 0.345366 0
M  V30 4549 H 456.203 2.85281 0.754905 0
M  V30 4550 H 456.284 2.37618 -0.947178 0
M  V30 4551 H 455.928 4.81261 -1.62327 0
M  V30 4552 H 455.858 5.26508 0.09841 0
M  V30 4553 H 458.349 3.76427 -0.333294 0
M  V30 4554 H 458.662 7.6175 -1.30219 0
M  V30 4555 H 457.007 6.85179 -1.16425 0
M  V30 4556 H 460.198 4.65457 -0.496705 0
M  V30 4557 H 460.371 6.41171 -0.938306 0
M  V30 4558 N 453.777 0.010035 1.57597 0
M  V30 4559 C 455.193 -0.346164 1.55801 0
M  V30 4560 C 455.393 -1.74144 1.01371 0
M  V30 4561 O 454.449 -2.43938 0.651968 0
M  V30 4562 C 455.762 -0.212216 2.9995 0
M  V30 4563 C 457.31 -0.286409 3.11687 0
M  V30 4564 C 457.785 -0.18147 4.5764 0
M  V30 4565 N 459.276 -0.239056 4.62583 0
M  V30 4566 C 460.011 -0.181351 5.73113 0
M  V30 4567 N 459.507 -0.073661 6.92761 0
M  V30 4568 N 461.3 -0.233949 5.61613 0
M  V30 4569 H 453.451 0.922657 1.91313 0
M  V30 4570 H 455.714 0.354595 0.879185 0
M  V30 4571 H 455.42 0.748169 3.4365 0
M  V30 4572 H 455.294 -0.990224 3.6397 0
M  V30 4573 H 457.681 -1.23724 2.67911 0
M  V30 4574 H 457.762 0.521645 2.50425 0
M  V30 4575 H 457.406 0.765863 5.02093 0
M  V30 4576 H 457.336 -1.00814 5.1686 0
M  V30 4577 H 459.827 -0.32321 3.76515 0
M  V30 4578 H 460.14 -0.0358003 7.72792 0
M  V30 4579 H 458.485 -0.0391461 6.94989 0
M  V30 4580 H 461.676 -0.316347 4.6703 0
M  V30 4581 H 461.849 -0.185514 6.47734 0
M  V30 4582 N 455.255 -1.55392 -0.262866 0
M  V30 4583 C 456.218 -1.88181 -1.30846 0
M  V30 4584 C 457.218 -0.757079 -1.41862 0
M  V30 4585 O 458.408 -1.02519 -1.40838 0
M  V30 4586 C 455.54 -2.09609 -2.68844 0
M  V30 4587 H 456.733 -2.81659 -1.02997 0
M  V30 4588 H 454.286 -1.48039 -0.501414 0
M  V30 4589 H 455.021 -1.18547 -3.01856 0
M  V30 4590 H 454.806 -2.91508 -2.62231 0
M  V30 4591 H 456.296 -2.36215 -3.44372 0
M  V30 4592 N 456.733 0.527833 -1.48498 0
M  V30 4593 C 457.981 1.28101 -1.56316 0
M  V30 4594 C 458.302 1.9352 -0.239781 0
M  V30 4595 O 457.572 1.81433 0.738849 0
M  V30 4596 H 456.152 0.475793 -0.575873 0
M  V30 4597 H 458.814 0.614052 -1.84974 0
M  V30 4598 H 457.91 2.05916 -2.34532 0
M  V30 4599 N 458.211 1.37122 0.776871 0
M  V30 4600 C 459.174 1.32301 1.8716 0
M  V30 4601 C 460.174 0.228099 1.59174 0
M  V30 4602 O 461.364 0.483642 1.67352 0
M  V30 4603 C 458.496 1.054 3.24197 0
M  V30 4604 H 459.689 2.29673 1.92848 0
M  V30 4605 H 457.242 1.22077 0.97606 0
M  V30 4606 H 457.977 0.0853872 3.24188 0
M  V30 4607 H 457.762 1.84648 3.45901 0
M  V30 4608 H 459.252 1.04664 4.04271 0
M  V30 4609 N 459.689 -1.00246 1.21608 0
M  V30 4610 C 460.599 -2.12515 0.993709 0
M  V30 4611 C 461.615 -1.73913 -0.0549939 0
M  V30 4612 O 462.791 -2.00943 0.135619 0
M  V30 4613 C 459.856 -3.42083 0.563953 0
M  V30 4614 C 458.917 -3.94843 1.68516 0
M  V30 4615 C 458.15 -5.18226 1.27582 0
M  V30 4616 O 458.373 -5.70201 0.150506 0
M  V30 4617 O 457.307 -5.64497 2.0887 0
M  V30 4618 H 461.133 -2.34152 1.93407 0
M  V30 4619 H 458.718 -1.10891 1.00118 0
M  V30 4620 H 460.6 -4.20073 0.334194 0
M  V30 4621 H 459.275 -3.21828 -0.347665 0
M  V30 4622 H 458.182 -3.18068 1.96935 0
M  V30 4623 H 459.515 -4.19512 2.5743 0
M  V30 4624 N 461.167 -1.02423 -1.1978 0
M  V30 4625 C 462.415 -0.716569 -1.8897 0
M  V30 4626 C 462.736 0.756769 -1.79716 0
M  V30 4627 O 462.006 1.5449 -1.20456 0
M  V30 4628 H 460.586 -0.262062 -0.699523 0
M  V30 4629 H 463.248 -1.29747 -1.45436 0
M  V30 4630 H 462.344 -1.00675 -2.95417 0
M  V30 4631 N 462.645 1.35699 -0.801477 0
M  V30 4632 C 463.893 1.9852 -0.37871 0
M  V30 4633 C 464.214 1.63907 1.05638 0
M  V30 4634 O 463.484 0.919013 1.73006 0
M  V30 4635 H 462.064 0.734322 -0.137042 0
M  V30 4636 H 464.726 1.65697 -1.02619 0
M  V30 4637 H 463.822 3.08382 -0.480284 0
M  V30 4638 N 464.123 0.554532 1.47522 0
M  V30 4639 C 465.086 -0.184174 2.28459 0
M  V30 4640 C 466.086 -0.845195 1.36796 0
M  V30 4641 O 467.276 -0.701467 1.59452 0
M  V30 4642 C 464.408 -1.26903 3.16399 0
M  V30 4643 H 465.601 0.526751 2.95238 0
M  V30 4644 H 463.154 0.311375 1.53167 0
M  V30 4645 H 463.889 -2.01244 2.54306 0
M  V30 4646 H 463.674 -0.799883 3.83854 0
M  V30 4647 H 465.164 -1.78794 3.77389 0
M  V30 4648 N 465.601 -1.54893 0.290851 0
M  V30 4649 C 466.849 -1.99538 -0.320756 0
M  V30 4650 C 467.17 -1.18075 -1.55188 0
M  V30 4651 O 466.44 -0.274162 -1.93972 0
M  V30 4652 H 465.02 -0.737052 -0.121507 0
M  V30 4653 H 467.682 -1.90755 0.399832 0
M  V30 4654 H 466.778 -3.06282 -0.599802 0
M  V30 4655 N 467.08 -0.0183926 -1.57589 0
M  V30 4656 C 468.328 0.661253 -1.90976 0
M  V30 4657 C 468.649 1.73281 -0.894353 0
M  V30 4658 O 467.919 1.9579 0.0656788 0
M  V30 4659 H 466.499 0.247233 -0.704901 0
M  V30 4660 H 469.161 -0.0636639 -1.94796 0
M  V30 4661 H 468.257 1.12083 -2.9128 0
M  V30 4662 N 468.558 1.5553 0.254621 0
M  V30 4663 C 469.521 1.88872 1.29846 0
M  V30 4664 C 470.521 0.764591 1.41459 0
M  V30 4665 O 471.711 1.03265 1.40293 0
M  V30 4666 C 468.843 2.11032 2.67728 0
M  V30 4667 H 470.036 2.82201 1.01502 0
M  V30 4668 H 467.589 1.48303 0.493556 0
M  V30 4669 H 468.324 1.20146 3.01223 0
M  V30 4670 H 468.109 2.92895 2.60682 0
M  V30 4671 H 469.599 2.38038 3.43115 0
M  V30 4672 N 470.036 -0.519951 1.48776 0
M  V30 4673 C 471.313 -1.28123 1.47797 0
M  V30 4674 C 471.693 -2.10196 0.195157 0
M  V30 4675 O 471.041 -2.13167 -0.822925 0
M  V30 4676 C 471.251 -2.15413 2.74587 0
M  V30 4677 C 472.599 -2.75225 3.23321 0
M  V30 4678 O 473.623 -2.25694 2.75574 0
M  V30 4679 O 472.482 -3.65346 4.06429 0
M  V30 4680 H 469.576 -0.578793 0.590701 0
M  V30 4681 H 472.122 -0.535779 1.6102 0
M  V30 4682 H 470.894 -1.54617 3.59457 0
M  V30 4683 H 470.517 -2.97186 2.64132 0
M  V30 4684 N 471.514 -1.37532 -0.769588 0
M  V30 4685 C 472.762 -1.32597 -1.5252 0
M  V30 4686 C 473.083 0.0884294 -1.94799 0
M  V30 4687 O 472.353 1.03289 -1.66458 0
M  V30 4688 H 470.933 -0.487846 -0.565699 0
M  V30 4689 H 473.595 -1.72044 -0.915806 0
M  V30 4690 H 472.691 -1.96643 -2.42359 0
M  V30 4691 N 472.992 0.995999 -1.22138 0
M  V30 4692 C 473.924 2.08745 -0.946485 0
M  V30 4693 C 474.937 1.62633 0.0737356 0
M  V30 4694 O 476.126 1.77782 -0.159886 0
M  V30 4695 C 473.226 3.36516 -0.401305 0
M  V30 4696 C 472.399 4.11672 -1.47801 0
M  V30 4697 C 471.458 5.17728 -0.940461 0
M  V30 4698 O 470.484 5.45482 -1.62596 0
M  V30 4699 N 471.686 5.80005 0.239723 0
M  V30 4700 H 474.451 2.32908 -1.88611 0
M  V30 4701 H 472.012 1.16152 -1.12785 0
M  V30 4702 H 474.004 4.04691 -0.0270837 0
M  V30 4703 H 472.574 3.0944 0.443354 0
M  V30 4704 H 471.794 3.38171 -2.02568 0
M  V30 4705 H 473.082 4.58657 -2.20253 0
M  V30 4706 H 472.48 5.5982 0.813518 0
M  V30 4707 H 471.037 6.4943 0.555361 0
M  V30 4708 N 474.47 1.03057 1.19235 0
M  V30 4709 C 475.718 0.726581 1.88587 0
M  V30 4710 C 476.039 -0.747227 1.80115 0
M  V30 4711 O 475.309 -1.53849 1.21274 0
M  V30 4712 H 473.889 0.265768 0.698124 0
M  V30 4713 H 476.551 1.30516 1.44746 0
M  V30 4714 H 475.647 1.0224 2.94879 0
M  V30 4715 N 475.948 -1.35272 0.808662 0
M  V30 4716 C 476.911 -2.28082 0.226093 0
M  V30 4717 C 477.911 -1.49673 -0.587762 0
M  V30 4718 O 479.101 -1.69404 -0.405943 0
M  V30 4719 C 476.233 -3.33955 -0.684596 0
M  V30 4720 H 477.426 -2.81116 1.04469 0
M  V30 4721 H 474.979 -1.45162 0.579466 0
M  V30 4722 H 475.714 -2.86111 -1.5268 0
M  V30 4723 H 475.499 -3.91965 -0.102699 0
M  V30 4724 H 476.989 -4.03219 -1.08646 0
M  V30 4725 N 477.426 -0.562348 -1.47226 0
M  V30 4726 C 478.674 -0.0401371 -2.0206 0
M  V30 4727 C 478.995 1.3165 -1.43852 0
M  V30 4728 O 478.265 1.85976 -0.615599 0
M  V30 4729 H 476.845 -0.0118479 -0.746906 0
M  V30 4730 H 479.507 -0.73352 -1.8057 0
M  V30 4731 H 478.603 0.0441254 -3.12069 0
M  V30 4732 N 478.904 1.54736 -0.299062 0
M  V30 4733 C 480.315 1.8569 0.193971 0
M  V30 4734 C 480.666 1.22101 1.53577 0
M  V30 4735 O 479.791 0.51799 2.10109 0
M  V30 4736 C 480.386 3.36895 0.358733 0
M  V30 4737 C 478.945 3.67887 0.795986 0
M  V30 4738 C 478.092 2.77131 -0.096807 0
M  V30 4739 H 481.043 1.49934 -0.520134 0
M  V30 4740 H 481.064 3.61294 1.19361 0
M  V30 4741 H 480.576 3.83148 -0.617998 0
M  V30 4742 H 478.677 3.27151 1.78334 0
M  V30 4743 H 478.79 4.75114 0.616718 0
M  V30 4744 H 477.154 2.51153 0.423581 0
M  V30 4745 H 477.937 3.26204 -1.06986 0
M  V30 4746 N 480.382 0.0267497 1.57577 0
M  V30 4747 C 481.63 -0.651116 1.91324 0
M  V30 4748 C 481.951 -1.72804 0.90353 0
M  V30 4749 O 481.221 -1.95822 -0.0552946 0
M  V30 4750 H 479.801 -0.243491 0.706202 0
M  V30 4751 H 482.463 0.0739935 1.94759 0
M  V30 4752 H 481.559 -1.10536 2.9187 0
M  V30 4753 N 481.861 -1.55662 -0.24637 0
M  V30 4754 C 482.824 -1.89558 -1.28842 0
M  V30 4755 C 483.824 -0.772082 -1.41052 0
M  V30 4756 O 485.014 -1.04007 -1.39743 0
M  V30 4757 C 482.146 -2.12449 -2.66605 0
M  V30 4758 H 483.339 -2.82735 -1.00004 0
M  V30 4759 H 480.892 -1.48562 -0.485684 0
M  V30 4760 H 481.627 -1.21742 -3.00582 0
M  V30 4761 H 481.412 -2.94273 -2.59125 0
M  V30 4762 H 482.902 -2.39854 -3.41847 0
M  V30 4763 N 483.339 0.512053 -1.4905 0
M  V30 4764 C 484.302 1.59704 -1.64399 0
M  V30 4765 C 485.302 1.52285 -0.516317 0
M  V30 4766 O 486.492 1.55635 -0.782527 0
M  V30 4767 C 483.624 2.9935 -1.63102 0
M  V30 4768 H 484.817 1.47428 -2.61161 0
M  V30 4769 H 482.37 0.735469 -1.37915 0
M  V30 4770 H 483.105 3.17116 -0.678836 0
M  V30 4771 H 482.89 3.06144 -2.44986 0
M  V30 4772 H 484.38 3.782 -1.77072 0
M  V30 4773 N 484.817 1.37938 0.762283 0
M  V30 4774 C 485.727 1.36681 1.90671 0
M  V30 4775 C 486.743 0.265078 1.71969 0
M  V30 4776 O 487.919 0.502055 1.95042 0
M  V30 4777 C 484.984 1.18211 3.25925 0
M  V30 4778 C 484.045 2.3811 3.57214 0
M  V30 4779 C 483.278 2.20512 4.86014 0
M  V30 4780 O 483.501 1.19429 5.57757 0
M  V30 4781 O 482.435 3.08911 5.16583 0
M  V30 4782 H 486.261 2.33091 1.94685 0
M  V30 4783 H 483.846 1.18767 0.906356 0
M  V30 4784 H 485.728 1.09937 4.06807 0
M  V30 4785 H 484.403 0.248807 3.22742 0
M  V30 4786 H 483.31 2.51958 2.76529 0
M  V30 4787 H 484.643 3.30041 3.65149 0
M  V30 4788 N 486.295 -0.989507 1.22664 0
M  V30 4789 C 487.52 -1.77031 1.08051 0
M  V30 4790 C 487.945 -1.84535 -0.364483 0
M  V30 4791 O 487.303 -1.3003 -1.2634 0
M  V30 4792 C 487.351 -3.18 1.70024 0
M  V30 4793 O 486.455 -4.01161 0.956216 0
M  V30 4794 H 485.796 -0.545008 0.379292 0
M  V30 4795 H 488.326 -1.24277 1.62531 0
M  V30 4796 H 488.336 -3.68616 1.74888 0
M  V30 4797 H 487.011 -3.11853 2.75174 0
M  V30 4798 H 485.588 -3.59687 0.98384 0
M  V30 4799 N 487.773 -1.03688 -1.18687 0
M  V30 4800 C 489.021 -0.736572 -1.88199 0
M  V30 4801 C 489.342 0.737665 -1.80509 0
M  V30 4802 O 488.612 1.53204 -1.22088 0
M  V30 4803 H 487.192 -0.269466 -0.696704 0
M  V30 4804 H 489.854 -1.31282 -1.44052 0
M  V30 4805 H 488.95 -1.03802 -2.94332 0
M  V30 4806 N 489.251 1.34841 -0.815825 0
M  V30 4807 C 490.214 2.27959 -0.238185 0
M  V30 4808 C 491.214 1.49983 0.579816 0
M  V30 4809 O 492.404 1.69617 0.396953 0
M  V30 4810 C 489.536 3.34314 0.666876 0
M  V30 4811 H 490.729 2.80558 -1.05958 0
M  V30 4812 H 488.282 1.44852 -0.587156 0
M  V30 4813 H 489.017 2.86916 1.5116 0
M  V30 4814 H 488.802 3.92014 0.0819106 0
M  V30 4815 H 490.292 4.0379 1.06506 0
M  V30 4816 N 490.729 0.570148 1.46925 0
M  V30 4817 C 491.659 -0.158274 2.32963 0
M  V30 4818 C 492.64 -0.896093 1.44583 0
M  V30 4819 O 493.825 -0.874022 1.7342 0
M  V30 4820 C 490.955 -1.18055 3.26619 0
M  V30 4821 C 489.909 -0.558379 4.24342 0
M  V30 4822 C 489.235 -1.68623 5.07415 0
M  V30 4823 C 490.535 0.496295 5.19937 0
M  V30 4824 H 492.229 0.560046 2.94115 0
M  V30 4825 H 489.775 0.270775 1.41431 0
M  V30 4826 H 491.728 -1.69841 3.85658 0
M  V30 4827 H 490.452 -1.92899 2.63548 0
M  V30 4828 H 489.111 -0.0617157 3.66548 0
M  V30 4829 H 488.759 -2.42402 4.40738 0
M  V30 4830 H 488.459 -1.27564 5.73586 0
M  V30 4831 H 489.983 -2.20709 5.69315 0
M  V30 4832 H 491.397 0.0640052 5.73264 0
M  V30 4833 H 489.794 0.82649 5.94381 0
M  V30 4834 H 490.864 1.38735 4.6463 0
M  V30 4835 N 492.207 -1.54576 0.307264 0
M  V30 4836 C 493.435 -2.04675 -0.302597 0
M  V30 4837 C 493.85 -1.18425 -1.47041 0
M  V30 4838 O 493.207 -0.211257 -1.81273 0
M  V30 4839 C 493.258 -3.53575 -0.752801 0
M  V30 4840 O 492.979 -4.36547 0.368536 0
M  V30 4841 C 494.48 -4.19699 -1.42717 0
M  V30 4842 H 491.7 -0.66786 -0.0648374 0
M  V30 4843 H 494.244 -1.99516 0.448716 0
M  V30 4844 H 492.399 -3.59074 -1.45412 0
M  V30 4845 H 492.813 -5.24497 0.0168937 0
M  V30 4846 H 494.287 -5.25388 -1.69327 0
M  V30 4847 H 494.764 -3.69815 -2.36925 0
M  V30 4848 H 495.37 -4.18293 -0.768856 0
M  V30 4849 N 493.685 -0.035106 -1.57561 0
M  V30 4850 C 494.648 0.929819 -2.09492 0
M  V30 4851 C 495.648 1.25026 -1.01119 0
M  V30 4852 O 496.838 1.18961 -1.27255 0
M  V30 4853 C 493.97 2.24457 -2.56577 0
M  V30 4854 H 495.163 0.479935 -2.96035 0
M  V30 4855 H 492.716 0.213033 -1.54841 0
M  V30 4856 H 493.451 2.74061 -1.73382 0
M  V30 4857 H 493.236 2.02508 -3.35757 0
M  V30 4858 H 494.726 2.93607 -2.96959 0
M  V30 4859 N 495.163 1.55791 0.238111 0
M  V30 4860 C 496.388 1.8244 0.986432 0
M  V30 4861 C 496.813 0.613314 1.7782 0
M  V30 4862 O 496.171 -0.437767 1.75935 0
M  V30 4863 C 496.219 3.06917 1.893 0
M  V30 4864 O 495.323 2.84449 2.98601 0
M  V30 4865 H 494.664 0.601975 0.280218 0
M  V30 4866 H 497.194 2.02987 0.256437 0
M  V30 4867 H 497.204 3.36583 2.30598 0
M  V30 4868 H 495.879 3.947 1.31091 0
M  V30 4869 H 494.456 2.65972 2.61368 0
M  V30 4870 N 496.642 -0.504142 1.49319 0
M  V30 4871 C 498.058 -0.835039 1.36012 0
M  V30 4872 C 498.258 -1.97674 0.390808 0
M  V30 4873 O 497.314 -2.51867 -0.178655 0
M  V30 4874 C 498.627 -1.17821 2.76656 0
M  V30 4875 C 500.175 -1.2866 2.85334 0
M  V30 4876 C 500.65 -1.66307 4.26739 0
M  V30 4877 N 502.141 -1.73362 4.29534 0
M  V30 4878 C 502.876 -2.0393 5.35911 0
M  V30 4879 N 502.372 -2.32744 6.52535 0
M  V30 4880 N 504.165 -2.05155 5.23324 0
M  V30 4881 H 496.316 0.248764 2.10938 0
M  V30 4882 H 498.579 0.0486962 0.946748 0
M  V30 4883 H 498.285 -0.412682 3.4927 0
M  V30 4884 H 498.159 -2.12239 3.11825 0
M  V30 4885 H 500.546 -2.04285 2.1296 0
M  V30 4886 H 500.627 -0.323004 2.53752 0
M  V30 4887 H 500.271 -0.91234 4.99639 0
M  V30 4888 H 500.201 -2.63761 4.55782 0
M  V30 4889 H 502.692 -1.53268 3.45424 0
M  V30 4890 H 503.005 -2.55248 7.2943 0
M  V30 4891 H 501.35 -2.30207 6.55767 0
M  V30 4892 H 504.541 -1.82119 4.3122 0
M  V30 4893 H 504.714 -2.28644 6.06322 0
M  V30 4894 N 498.12 -1.38341 -0.754957 0
M  V30 4895 C 499.345 -1.37882 -1.5493 0
M  V30 4896 C 499.77 0.0296385 -1.88077 0
M  V30 4897 O 499.128 1.01133 -1.50472 0
M  V30 4898 C 499.176 -2.23996 -2.82592 0
M  V30 4899 O 498.28 -1.65612 -3.77686 0
M  V30 4900 H 497.621 -0.470384 -0.468652 0
M  V30 4901 H 500.151 -1.82084 -0.933082 0
M  V30 4902 H 500.161 -2.37806 -3.3153 0
M  V30 4903 H 498.836 -3.26365 -2.57796 0
M  V30 4904 H 497.413 -1.60936 -3.36384 0
M  V30 4905 N 499.598 0.982988 -1.23187 0
M  V30 4906 C 501.009 1.53847 -1.05773 0
M  V30 4907 C 501.36 1.92568 0.375744 0
M  V30 4908 O 500.485 1.75783 1.26211 0
M  V30 4909 C 501.08 2.79567 -1.91384 0
M  V30 4910 C 499.639 3.31524 -1.78238 0
M  V30 4911 C 498.786 2.04534 -1.87246 0
M  V30 4912 H 501.737 0.802962 -1.36888 0
M  V30 4913 H 501.758 3.52317 -1.43711 0
M  V30 4914 H 501.27 2.51353 -2.95708 0
M  V30 4915 H 499.371 3.64623 -0.766875 0
M  V30 4916 H 499.484 4.01457 -2.61475 0
M  V30 4917 H 497.848 2.1855 -1.30797 0
M  V30 4918 H 498.631 1.78706 -2.9312 0
M  V30 4919 N 501.076 1.04316 1.18135 0
M  V30 4920 C 502.324 0.746542 1.87806 0
M  V30 4921 C 502.645 -0.728082 1.80898 0
M  V30 4922 O 501.915 -1.52554 1.22899 0
M  V30 4923 H 500.495 0.273157 0.695265 0
M  V30 4924 H 503.157 1.32044 1.43354 0
M  V30 4925 H 502.253 1.05362 2.93778 0
M  V30 4926 N 502.554 -1.34406 0.822964 0
M  V30 4927 C 503.965 -1.8069 0.469879 0
M  V30 4928 C 504.316 -1.68223 -1.00972 0
M  V30 4929 O 503.441 -1.22226 -1.78577 0
M  V30 4930 C 504.036 -3.28064 0.846118 0
M  V30 4931 C 502.595 -3.72428 0.545402 0
M  V30 4932 C 501.742 -2.56116 1.06301 0
M  V30 4933 H 504.693 -1.22153 1.01313 0
M  V30 4934 H 504.714 -3.80205 0.149922 0
M  V30 4935 H 504.226 -3.37107 1.92304 0
M  V30 4936 H 502.327 -3.68924 -0.522109 0
M  V30 4937 H 502.44 -4.66548 1.0895 0
M  V30 4938 H 500.804 -2.50048 0.484554 0
M  V30 4939 H 501.587 -2.67928 2.14638 0
M  V30 4940 N 504.032 -0.577932 -1.46621 0
M  V30 4941 C 505.28 -0.061566 -2.02006 0
M  V30 4942 C 505.601 1.30117 -1.4524 0
M  V30 4943 O 504.871 1.85313 -0.63529 0
M  V30 4944 H 503.451 -0.0197692 -0.746738 0
M  V30 4945 H 506.113 -0.752631 -1.79782 0
M  V30 4946 H 505.209 0.0110238 -3.12098 0
M  V30 4947 N 505.51 1.54411 -0.315457 0
M  V30 4948 C 506.758 2.00023 0.288971 0
M  V30 4949 C 507.079 1.20529 1.5329 0
M  V30 4950 O 506.349 0.304986 1.93511 0
M  V30 4951 H 504.929 0.738891 0.109766 0
M  V30 4952 H 507.591 1.90094 -0.430129 0
M  V30 4953 H 506.687 3.07198 0.550999 0
M  V30 4954 N 506.988 0.0434614 1.5754 0
M  V30 4955 C 508.404 -0.313039 1.565 0
M  V30 4956 C 508.604 -1.71954 1.05043 0
M  V30 4957 O 507.66 -2.425 0.703564 0
M  V30 4958 C 508.973 -0.148544 3.00333 0
M  V30 4959 C 510.521 -0.220231 3.12224 0
M  V30 4960 C 510.996 -0.0843565 4.57922 0
M  V30 4961 N 512.487 -0.140881 4.62986 0
M  V30 4962 C 513.222 -0.0597443 5.73369 0
M  V30 4963 N 512.718 0.0733004 6.92761 0
M  V30 4964 N 514.511 -0.11477 5.61983 0
M  V30 4965 H 506.662 0.96303 1.89313 0
M  V30 4966 H 508.925 0.373164 0.871466 0
M  V30 4967 H 508.631 0.820894 3.41986 0
M  V30 4968 H 508.505 -0.912798 3.65989 0
M  V30 4969 H 510.892 -1.18014 2.70475 0
M  V30 4970 H 510.973 0.574646 2.49262 0
M  V30 4971 H 510.617 0.872192 5.00355 0
M  V30 4972 H 510.547 -0.898281 5.18882 0
M  V30 4973 H 513.038 -0.243273 3.77116 0
M  V30 4974 H 513.351 0.128128 7.72694 0
M  V30 4975 H 511.696 0.10828 6.94916 0
M  V30 4976 H 514.887 -0.217212 4.67596 0
M  V30 4977 H 515.06 -0.0480779 6.47982 0
M  V30 4978 N 508.466 -1.55915 -0.229846 0
M  V30 4979 C 509.396 -1.94754 -1.28815 0
M  V30 4980 C 510.377 -0.814657 -1.49323 0
M  V30 4981 O 511.562 -1.07631 -1.61645 0
M  V30 4982 C 508.692 -2.25705 -2.63959 0
M  V30 4983 C 507.646 -3.41406 -2.5812 0
M  V30 4984 C 506.972 -3.57941 -3.97218 0
M  V30 4985 C 508.272 -4.76616 -2.13623 0
M  V30 4986 H 509.966 -2.83404 -0.965547 0
M  V30 4987 H 507.512 -1.36353 -0.463028 0
M  V30 4988 H 509.465 -2.51467 -3.38146 0
M  V30 4989 H 508.189 -1.339 -2.9789 0
M  V30 4990 H 506.848 -3.1568 -1.86391 0
M  V30 4991 H 506.496 -2.63526 -4.28443 0
M  V30 4992 H 506.196 -4.35757 -3.94195 0
M  V30 4993 H 507.72 -3.86042 -4.73079 0
M  V30 4994 H 509.134 -5.01637 -2.77549 0
M  V30 4995 H 507.531 -5.57655 -2.21677 0
M  V30 4996 H 508.601 -4.7253 -1.08829 0
M  V30 4997 N 509.944 0.496216 -1.49584 0
M  V30 4998 C 511.169 1.27865 -1.63295 0
M  V30 4999 C 511.594 1.85592 -0.306156 0
M  V30 5000 O 510.952 1.66092 0.726851 0
M  V30 5001 C 511 2.38128 -2.7079 0
M  V30 5002 O 510.104 3.42108 -2.30296 0
M  V30 5003 H 509.445 0.377279 -0.546403 0
M  V30 5004 H 511.975 0.593497 -1.95803 0
M  V30 5005 H 511.985 2.8382 -2.93104 0
M  V30 5006 H 510.66 1.95479 -3.67098 0
M  V30 5007 H 509.237 3.02301 -2.18331 0
M  V30 5008 N 511.423 1.38739 0.74761 0
M  V30 5009 C 512.839 1.20067 1.05148 0
M  V30 5010 C 513.039 0.0534835 2.01429 0
M  V30 5011 O 512.095 -0.59886 2.45296 0
M  V30 5012 C 513.408 2.52957 1.62584 0
M  V30 5013 C 514.956 2.59692 1.74726 0
M  V30 5014 C 515.431 3.92772 2.35573 0
M  V30 5015 N 516.922 3.94343 2.42997 0
M  V30 5016 C 517.657 4.9408 2.90985 0
M  V30 5017 N 517.153 6.04214 3.38965 0
M  V30 5018 N 518.946 4.81466 2.9008 0
M  V30 5019 H 511.097 2.12121 0.108808 0
M  V30 5020 H 513.36 0.941491 0.110899 0
M  V30 5021 H 513.066 3.37389 0.993051 0
M  V30 5022 H 512.94 2.71779 2.61565 0
M  V30 5023 H 515.327 1.75651 2.3713 0
M  V30 5024 H 515.408 2.44731 0.744326 0
M  V30 5025 H 515.052 4.77238 1.738 0
M  V30 5026 H 514.982 4.05046 3.36519 0
M  V30 5027 H 517.473 3.14799 2.0907 0
M  V30 5028 H 517.786 6.76241 3.74056 0
M  V30 5029 H 516.131 6.07825 3.37007 0
M  V30 5030 H 519.322 3.94535 2.51912 0
M  V30 5031 H 519.495 5.59344 3.27166 0
M  V30 5032 N 512.901 -0.976442 1.23707 0
M  V30 5033 C 513.864 -2.0511 1.02287 0
M  V30 5034 C 514.864 -1.60791 -0.0167195 0
M  V30 5035 O 516.054 -1.72761 0.223408 0
M  V30 5036 C 513.186 -3.36458 0.548507 0
M  V30 5037 H 514.379 -2.25545 1.9766 0
M  V30 5038 H 511.932 -1.15042 1.05806 0
M  V30 5039 H 512.667 -3.21713 -0.408818 0
M  V30 5040 H 512.452 -3.69967 1.29874 0
M  V30 5041 H 513.942 -4.15489 0.419406 0
M  V30 5042 N 514.379 -1.04941 -1.1758 0
M  V30 5043 C 515.604 -0.778253 -1.92245 0
M  V30 5044 C 516.029 0.659707 -1.76152 0
M  V30 5045 O 515.387 1.45803 -1.07755 0
M  V30 5046 C 515.435 -1.16051 -3.41416 0
M  V30 5047 O 514.539 -0.291153 -4.11371 0
M  V30 5048 H 513.88 -0.285619 -0.599431 0
M  V30 5049 H 516.41 -1.40159 -1.49052 0
M  V30 5050 H 516.42 -1.12619 -3.92149 0
M  V30 5051 H 515.095 -2.208 -3.52449 0
M  V30 5052 H 513.672 -0.385851 -3.70898 0
M  V30 5053 N 515.857 1.33968 -0.830081 0
M  V30 5054 C 517.082 2.02813 -0.433796 0
M  V30 5055 C 517.507 1.62076 0.954614 0
M  V30 5056 O 516.865 0.808955 1.62252 0
M  V30 5057 C 516.913 3.56348 -0.552115 0
M  V30 5058 O 516.017 4.10202 0.425191 0
M  V30 5059 H 515.358 0.639817 -0.177567 0
M  V30 5060 H 517.888 1.7106 -1.12248 0
M  V30 5061 H 517.898 4.05722 -0.430513 0
M  V30 5062 H 516.573 3.85344 -1.56471 0
M  V30 5063 H 515.15 3.71979 0.261878 0
M  V30 5064 N 517.335 0.585699 1.46312 0
M  V30 5065 C 518.751 0.247607 1.57668 0
M  V30 5066 C 518.951 -1.25007 1.58037 0
M  V30 5067 O 518.007 -2.03196 1.49893 0
M  V30 5068 C 519.32 0.899456 2.86933 0
M  V30 5069 C 520.868 0.873326 3.00569 0
M  V30 5070 C 521.343 1.50477 4.32574 0
M  V30 5071 N 522.834 1.46925 4.3928 0
M  V30 5072 C 523.569 1.92719 5.40044 0
M  V30 5073 N 523.065 2.46499 6.47464 0
M  V30 5074 N 524.858 1.83617 5.31264 0
M  V30 5075 H 517.009 1.55841 1.44317 0
M  V30 5076 H 519.272 0.651564 0.688599 0
M  V30 5077 H 518.978 1.95313 2.92482 0
M  V30 5078 H 518.852 0.409476 3.74971 0
M  V30 5079 H 521.239 -0.171736 2.946 0
M  V30 5080 H 521.32 1.40136 2.13999 0
M  V30 5081 H 520.964 2.54905 4.39302 0
M  V30 5082 H 520.894 0.951944 5.17924 0
M  V30 5083 H 523.385 1.07616 3.62253 0
M  V30 5084 H 523.698 2.79291 7.20567 0
M  V30 5085 H 522.043 2.50526 6.48276 0
M  V30 5086 H 525.234 1.41358 4.46246 0
M  V30 5087 H 525.407 2.19622 6.09648 0
M  V30 5088 N 518.813 -1.54241 0.323641 0
M  V30 5089 C 520.038 -2.05452 -0.283605 0
M  V30 5090 C 520.463 -1.19823 -1.44997 0
M  V30 5091 O 519.821 -0.207358 -1.8011 0
M  V30 5092 C 519.869 -3.53823 -0.695795 0
M  V30 5093 O 518.973 -3.71134 -1.79815 0
M  V30 5094 H 518.314 -0.662024 -0.0511917 0
M  V30 5095 H 520.844 -1.99079 0.472073 0
M  V30 5096 H 520.854 -3.96094 -0.978434 0
M  V30 5097 H 519.529 -4.15602 0.157287 0
M  V30 5098 H 518.106 -3.40768 -1.51431 0
M  V30 5099 N 520.291 -0.0518155 -1.57515 0
M  V30 5100 C 521.537 0.622745 -1.93002 0
M  V30 5101 C 521.87 1.70456 -0.930499 0
M  V30 5102 O 521.145 1.94452 0.0434086 0
M  V30 5103 C 521.428 1.21824 -3.38867 0
M  V30 5104 C 521.281 0.144434 -4.49568 0
M  V30 5105 C 522.6 2.12968 -3.8514 0
M  V30 5106 H 519.719 0.22491 -0.701844 0
M  V30 5107 H 522.361 -0.113711 -1.89659 0
M  V30 5108 H 520.511 1.8459 -3.41846 0
M  V30 5109 H 522.183 -0.48753 -4.58717 0
M  V30 5110 H 520.426 -0.527424 -4.30582 0
M  V30 5111 H 521.097 0.601127 -5.48717 0
M  V30 5112 H 523.573 1.60163 -3.8404 0
M  V30 5113 H 522.449 2.51578 -4.87852 0
M  V30 5114 H 522.71 3.03004 -3.21934 0
M  V30 5115 N 521.769 1.56035 0.221574 0
M  V30 5116 C 522.679 1.95581 1.29558 0
M  V30 5117 C 523.695 0.859639 1.51282 0
M  V30 5118 O 524.871 1.16321 1.64413 0
M  V30 5119 C 521.936 2.26447 2.62531 0
M  V30 5120 C 520.997 3.49632 2.4911 0
M  V30 5121 C 520.23 3.79017 3.75742 0
M  V30 5122 O 520.453 3.10077 4.78757 0
M  V30 5123 O 519.387 4.72507 3.72855 0
M  V30 5124 H 523.213 2.8711 0.990035 0
M  V30 5125 H 520.798 1.43244 0.424434 0
M  V30 5126 H 522.68 2.47494 3.41064 0
M  V30 5127 H 521.355 1.38092 2.92766 0
M  V30 5128 H 520.262 3.33864 1.68777 0
M  V30 5129 H 521.595 4.3837 2.23814 0
M  V30 5130 N 523.247 -0.488276 1.49845 0
M  V30 5131 C 524.494 -1.24157 1.59973 0
M  V30 5132 C 524.822 -1.92293 0.292182 0
M  V30 5133 O 524.077 -1.81942 -0.720813 0
M  V30 5134 C 524.376 -2.32152 2.71735 0
M  V30 5135 C 524.042 -1.81387 4.12807 0
M  V30 5136 C 522.704 -1.67262 4.51195 0
M  V30 5137 C 525.056 -1.43537 5.01045 0
M  V30 5138 C 522.384 -1.13685 5.7558 0
M  V30 5139 C 524.736 -0.914081 6.25961 0
M  V30 5140 C 523.4 -0.759327 6.63167 0
M  V30 5141 H 522.67 -0.454322 0.585383 0
M  V30 5142 H 525.317 -0.540261 1.83721 0
M  V30 5143 H 523.622 -3.08122 2.42008 0
M  V30 5144 H 525.319 -2.90164 2.76778 0
M  V30 5145 H 521.909 -1.93344 3.82513 0
M  V30 5146 H 526.093 -1.53292 4.72033 0
M  V30 5147 H 521.349 -1.00426 6.03096 0
M  V30 5148 H 525.523 -0.612066 6.93705 0
M  V30 5149 H 523.15 -0.342002 7.5943 0
M  V30 5150 N 524.725 -1.39134 -0.740242 0
M  V30 5151 C 525.972 -1.36071 -1.49969 0
M  V30 5152 C 526.3 0.0450245 -1.94448 0
M  V30 5153 O 525.555 1.02482 -1.66721 0
M  V30 5154 C 525.854 -2.27457 -2.75678 0
M  V30 5155 C 525.52 -3.75185 -2.50094 0
M  V30 5156 C 524.182 -4.15439 -2.42825 0
M  V30 5157 C 526.534 -4.68643 -2.28086 0
M  V30 5158 C 523.862 -5.4722 -2.11584 0
M  V30 5159 C 526.214 -6.00695 -1.98363 0
M  V30 5160 C 524.878 -6.40018 -1.8956 0
M  V30 5161 H 524.148 -0.497921 -0.548777 0
M  V30 5162 H 526.795 -1.71599 -0.85007 0
M  V30 5163 H 525.1 -1.8503 -3.45356 0
M  V30 5164 H 526.797 -2.22384 -3.33686 0
M  V30 5165 H 523.387 -3.43279 -2.56627 0
M  V30 5166 H 527.571 -4.3838 -2.32672 0
M  V30 5167 H 522.827 -5.76615 -2.03287 0
M  V30 5168 H 527.001 -6.72644 -1.80341 0
M  V30 5169 H 524.628 -7.42051 -1.65117 0
M  V30 5170 N 526.204 0.969867 -1.24223 0
M  V30 5171 C 527.134 2.08191 -1.05729 0
M  V30 5172 C 528.115 1.70075 0.0290765 0
M  V30 5173 O 529.3 1.93712 -0.137583 0
M  V30 5174 C 526.43 3.40991 -0.658995 0
M  V30 5175 C 525.384 3.93054 -1.69389 0
M  V30 5176 C 524.71 5.22171 -1.15072 0
M  V30 5177 C 526.01 4.21137 -3.08935 0
M  V30 5178 H 527.704 2.23921 -1.98746 0
M  V30 5179 H 525.25 1.07602 -0.956967 0
M  V30 5180 H 527.203 4.18221 -0.51662 0
M  V30 5181 H 525.927 3.25155 0.30686 0
M  V30 5182 H 524.586 3.17977 -1.82444 0
M  V30 5183 H 524.234 5.02694 -0.175539 0
M  V30 5184 H 523.934 5.57973 -1.84229 0
M  V30 5185 H 525.458 6.02013 -1.02042 0
M  V30 5186 H 526.872 4.8908 -2.99121 0
M  V30 5187 H 525.269 4.68163 -3.75425 0
M  V30 5188 H 526.339 3.27996 -3.57137 0
M  V30 5189 N 527.682 1.05563 1.17022 0
M  V30 5190 C 528.907 0.788437 1.91829 0
M  V30 5191 C 529.332 -0.650356 1.76499 0
M  V30 5192 O 528.69 -1.45229 1.08527 0
M  V30 5193 C 528.738 1.1786 3.40795 0
M  V30 5194 O 527.842 0.312965 4.11211 0
M  V30 5195 H 527.183 0.288794 0.597908 0
M  V30 5196 H 529.713 1.40948 1.48307 0
M  V30 5197 H 529.723 1.14697 3.91546 0
M  V30 5198 H 528.398 2.22666 3.51273 0
M  V30 5199 H 526.975 0.405515 3.70689 0
M  V30 5200 N 529.16 -1.33526 0.837174 0
M  V30 5201 C 530.576 -1.50727 0.524743 0
M  V30 5202 C 530.776 -1.77792 -0.948279 0
M  V30 5203 O 529.832 -1.83719 -1.73216 0
M  V30 5204 C 531.145 -2.66299 1.39661 0
M  V30 5205 C 532.693 -2.80183 1.39521 0
M  V30 5206 C 533.168 -3.98815 2.25189 0
M  V30 5207 N 534.659 -4.06047 2.2289 0
M  V30 5208 C 535.394 -4.97032 2.85915 0
M  V30 5209 N 534.89 -5.93143 3.57985 0
M  V30 5210 N 536.683 -4.90015 2.75394 0
M  V30 5211 H 528.834 -1.1422 1.79074 0
M  V30 5212 H 531.097 -0.561399 0.763894 0
M  V30 5213 H 530.803 -2.52974 2.4433 0
M  V30 5214 H 530.677 -3.61663 1.07145 0
M  V30 5215 H 533.064 -2.92942 0.356253 0
M  V30 5216 H 533.145 -1.85586 1.76044 0
M  V30 5217 H 532.789 -3.86817 3.29143 0
M  V30 5218 H 532.719 -4.92654 1.86009 0
M  V30 5219 H 535.21 -3.37262 1.70478 0
M  V30 5220 H 535.523 -6.59227 4.03286 0
M  V30 5221 H 533.868 -5.93223 3.62093 0
M  V30 5222 H 537.059 -4.13894 2.18654 0
M  V30 5223 H 537.232 -5.60724 3.24796 0
M  V30 5224 N 530.638 -0.59345 -1.46 0
M  V30 5225 C 532.054 -0.255965 -1.57534 0
M  V30 5226 C 532.254 1.24167 -1.58697 0
M  V30 5227 O 531.31 2.02398 -1.50968 0
M  V30 5228 C 532.623 -0.91466 -2.86451 0
M  V30 5229 C 534.171 -0.889253 -3.00102 0
M  V30 5230 C 534.646 -1.52769 -4.3177 0
M  V30 5231 N 536.137 -1.49253 -4.38495 0
M  V30 5232 C 536.872 -1.9558 -5.39014 0
M  V30 5233 N 536.368 -2.49929 -6.46148 0
M  V30 5234 N 538.161 -1.86432 -5.30282 0
M  V30 5235 H 530.312 -1.56604 -1.43489 0
M  V30 5236 H 532.575 -0.655207 -0.685133 0
M  V30 5237 H 532.281 -1.96861 -2.91442 0
M  V30 5238 H 532.155 -0.429356 -3.74748 0
M  V30 5239 H 534.542 0.156111 -2.94687 0
M  V30 5240 H 534.623 -1.41268 -2.13253 0
M  V30 5241 H 534.267 -2.57231 -4.37944 0
M  V30 5242 H 534.197 -0.979398 -5.17412 0
M  V30 5243 H 536.688 -1.09536 -3.61677 0
M  V30 5244 H 537.001 -2.83109 -7.19075 0
M  V30 5245 H 535.346 -2.53961 -6.46938 0
M  V30 5246 H 538.537 -1.43722 -4.4549 0
M  V30 5247 H 538.71 -2.22852 -6.08474 0
M  V30 5248 N 532.116 1.54067 -0.331816 0
M  V30 5249 C 533.532 1.59587 0.0205388 0
M  V30 5250 C 533.732 1.34813 1.49759 0
M  V30 5251 O 532.788 1.13661 2.25471 0
M  V30 5252 C 534.101 2.97959 -0.405103 0
M  V30 5253 C 535.649 3.10964 -0.356454 0
M  V30 5254 C 536.124 4.51694 -0.757384 0
M  V30 5255 N 537.615 4.57709 -0.71111 0
M  V30 5256 C 538.35 5.64729 -0.993427 0
M  V30 5257 N 537.846 6.79652 -1.3433 0
M  V30 5258 N 539.639 5.54546 -0.918442 0
M  V30 5259 H 531.79 1.68426 -1.29407 0
M  V30 5260 H 534.053 0.78819 -0.526745 0
M  V30 5261 H 533.759 3.21115 -1.43451 0
M  V30 5262 H 533.633 3.76524 0.225692 0
M  V30 5263 H 536.02 2.87538 0.663763 0
M  V30 5264 H 536.101 2.34484 -1.02229 0
M  V30 5265 H 535.745 4.75853 -1.77555 0
M  V30 5266 H 535.675 5.26555 -0.0691444 0
M  V30 5267 H 538.166 3.75176 -0.452883 0
M  V30 5268 H 538.479 7.57221 -1.54388 0
M  V30 5269 H 536.824 6.81128 -1.38164 0
M  V30 5270 H 540.015 4.63641 -0.644536 0
M  V30 5271 H 540.188 6.37861 -1.14181 0
M  V30 5272 N 533.594 0.0601682 1.57485 0
M  V30 5273 C 535.01 -0.296422 1.56823 0
M  V30 5274 C 535.21 -1.70831 1.0686 0
M  V30 5275 O 534.266 -2.4174 0.729245 0
M  V30 5276 C 535.579 -0.116681 3.00474 0
M  V30 5277 C 537.127 -0.187103 3.1244 0
M  V30 5278 C 537.602 -0.035783 4.57986 0
M  V30 5279 N 539.093 -0.0917676 4.63109 0
M  V30 5280 C 539.828 0.00107251 5.734 0
M  V30 5281 N 539.324 0.146773 6.92645 0
M  V30 5282 N 541.117 -0.0551577 5.62073 0
M  V30 5283 H 533.268 0.983055 1.88281 0
M  V30 5284 H 535.531 0.382386 0.867459 0
M  V30 5285 H 535.237 0.85712 3.41096 0
M  V30 5286 H 535.111 -0.873929 3.66936 0
M  V30 5287 H 537.498 -1.15138 2.71712 0
M  V30 5288 H 537.579 0.601052 2.48638 0
M  V30 5289 H 537.223 0.925212 4.99402 0
M  V30 5290 H 537.153 -0.843196 5.19806 0
M  V30 5291 H 539.644 -0.203261 3.77353 0
M  V30 5292 H 539.957 0.210076 7.72514 0
M  V30 5293 H 538.302 0.181979 6.94762 0
M  V30 5294 H 541.493 -0.167605 4.678 0
M  V30 5295 H 541.666 0.020652 6.47997 0
M  V30 5296 N 535.072 -1.5615 -0.213296 0
M  V30 5297 C 536.035 -1.92249 -1.24792 0
M  V30 5298 C 537.035 -0.801828 -1.39382 0
M  V30 5299 O 538.225 -1.06948 -1.37506 0
M  V30 5300 C 535.357 -2.18056 -2.62039 0
M  V30 5301 H 536.55 -2.84793 -0.939845 0
M  V30 5302 H 534.103 -1.49559 -0.454062 0
M  V30 5303 H 534.838 -1.2809 -2.97932 0
M  V30 5304 H 534.623 -2.99703 -2.52825 0
M  V30 5305 H 536.113 -2.47051 -3.36683 0
M  V30 5306 N 536.55 0.480323 -1.50102 0
M  V30 5307 C 537.966 0.813295 -1.37323 0
M  V30 5308 C 538.166 1.97027 -0.422206 0
M  V30 5309 O 537.222 2.5212 0.138563 0
M  V30 5310 C 538.535 1.13404 -2.78496 0
M  V30 5311 C 540.083 1.24104 -2.87345 0
M  V30 5312 C 540.558 1.59497 -4.29331 0
M  V30 5313 N 542.049 1.66507 -4.32238 0
M  V30 5314 C 542.784 1.95378 -5.39087 0
M  V30 5315 N 542.28 2.22333 -6.56155 0
M  V30 5316 N 544.073 1.96803 -5.26522 0
M  V30 5317 H 536.224 -0.282291 -2.10516 0
M  V30 5318 H 538.487 -0.063752 -0.945854 0
M  V30 5319 H 538.193 0.357064 -3.49883 0
M  V30 5320 H 538.067 2.07251 -3.15162 0
M  V30 5321 H 540.454 2.00871 -2.16183 0
M  V30 5322 H 540.535 0.282593 -2.54234 0
M  V30 5323 H 540.179 0.832736 -5.01027 0
M  V30 5324 H 540.109 2.56477 -4.59921 0
M  V30 5325 H 542.6 1.47753 -3.47818 0
M  V30 5326 H 542.913 2.43611 -7.33399 0
M  V30 5327 H 541.258 2.19745 -6.59346 0
M  V30 5328 H 544.449 1.75235 -4.34062 0
M  V30 5329 H 544.622 2.18969 -6.09883 0
M  V30 5330 N 538.028 1.39524 0.732853 0
M  V30 5331 C 539.253 1.40329 1.52717 0
M  V30 5332 C 539.678 0.000286574 1.881 0
M  V30 5333 O 539.036 -0.987262 1.52062 0
M  V30 5334 C 539.084 2.28464 2.78992 0
M  V30 5335 O 538.188 1.716 3.75003 0
M  V30 5336 H 537.529 0.47778 0.461109 0
M  V30 5337 H 540.059 1.83546 0.903996 0
M  V30 5338 H 540.069 2.43051 3.27705 0
M  V30 5339 H 538.744 3.30425 2.52572 0
M  V30 5340 H 537.321 1.66267 3.33781 0
M  V30 5341 N 539.506 -0.963266 1.24736 0
M  V30 5342 C 540.731 -1.74699 1.11781 0
M  V30 5343 C 541.156 -1.85267 -0.325258 0
M  V30 5344 O 540.514 -1.32681 -1.23553 0
M  V30 5345 C 540.562 -3.14322 1.76731 0
M  V30 5346 O 539.666 -3.99043 1.04109 0
M  V30 5347 H 539.007 -0.53684 0.390767 0
M  V30 5348 H 541.537 -1.20801 1.65131 0
M  V30 5349 H 541.547 -3.64824 1.82668 0
M  V30 5350 H 540.222 -3.05946 2.81726 0
M  V30 5351 H 538.799 -3.5752 1.05991 0
M  V30 5352 N 540.985 -1.06182 -1.16461 0
M  V30 5353 C 542.231 -0.779015 -1.87241 0
M  V30 5354 C 542.564 0.692715 -1.81425 0
M  V30 5355 O 541.839 1.5074 -1.22913 0
M  V30 5356 C 542.122 -1.2728 -3.36856 0
M  V30 5357 C 541.975 -2.80821 -3.51368 0
M  V30 5358 C 543.294 -0.879799 -4.31216 0
M  V30 5359 H 540.413 -0.284464 -0.679889 0
M  V30 5360 H 543.055 -1.31755 -1.36896 0
M  V30 5361 H 541.205 -0.814673 -3.79862 0
M  V30 5362 H 542.877 -3.34833 -3.17308 0
M  V30 5363 H 541.12 -3.19606 -2.93316 0
M  V30 5364 H 541.791 -3.10435 -4.56436 0
M  V30 5365 H 544.267 -1.27436 -3.96105 0
M  V30 5366 H 543.143 -1.25278 -5.34412 0
M  V30 5367 H 543.404 0.215372 -4.41575 0
M  V30 5368 N 542.463 1.3308 -0.844243 0
M  V30 5369 C 543.703 1.99414 -0.448697 0
M  V30 5370 C 544.067 1.65398 0.975058 0
M  V30 5371 O 545.268 2.24741 1.47461 0
M  V30 5372 C 543.539 3.51081 -0.669089 0
M  V30 5373 S 545.098 4.37241 -0.369564 0
M  V30 5374 H 541.916 0.690736 -0.168538 0
M  V30 5375 H 544.518 1.61977 -1.0947 0
M  V30 5376 H 543.222 3.73326 -1.70457 0
M  V30 5377 H 542.753 3.93399 -0.00913211 0
M  V30 5378 H 544.768 4.89568 0.808552 0
M  V30 5379 N 543.941 0.601185 1.45683 0
M  V30 5380 C 545.357 0.264315 1.57396 0
M  V30 5381 C 545.557 -1.23324 1.59353 0
M  V30 5382 O 544.613 -2.01594 1.52039 0
M  V30 5383 C 545.926 0.929839 2.85962 0
M  V30 5384 C 547.474 0.905156 2.99626 0
M  V30 5385 C 547.949 1.55057 4.30954 0
M  V30 5386 N 549.44 1.51576 4.37697 0
M  V30 5387 C 550.175 1.98436 5.37969 0
M  V30 5388 N 549.671 2.53352 6.44813 0
M  V30 5389 N 551.464 1.89242 5.29286 0
M  V30 5390 H 543.615 1.57363 1.42656 0
M  V30 5391 H 545.878 0.658831 0.681649 0
M  V30 5392 H 545.584 1.98404 2.90394 0
M  V30 5393 H 545.458 0.449224 3.74515 0
M  V30 5394 H 547.845 -0.14048 2.94765 0
M  V30 5395 H 547.926 1.42397 2.12501 0
M  V30 5396 H 547.57 2.5955 4.36573 0
M  V30 5397 H 547.5 1.00682 5.16886 0
M  V30 5398 H 549.991 1.11452 3.61091 0
M  V30 5399 H 550.304 2.86918 7.17564 0
M  V30 5400 H 548.649 2.57388 6.45582 0
M  V30 5401 H 551.84 1.46083 4.44722 0
M  V30 5402 H 552.013 2.26075 6.07284 0
M  V30 5403 N 545.419 -1.53889 0.339982 0
M  V30 5404 C 546.835 -1.59595 -0.0120752 0
M  V30 5405 C 547.035 -1.35605 -1.49042 0
M  V30 5406 O 546.091 -1.14856 -2.24865 0
M  V30 5407 C 547.404 -2.9774 0.420898 0
M  V30 5408 C 548.952 -3.1077 0.37294 0
M  V30 5409 C 549.427 -4.51286 0.781327 0
M  V30 5410 N 550.918 -4.57325 0.735374 0
M  V30 5411 C 551.653 -5.64194 1.02336 0
M  V30 5412 N 551.149 -6.7893 1.37933 0
M  V30 5413 N 552.942 -5.54051 0.947838 0
M  V30 5414 H 545.093 -1.67738 1.30299 0
M  V30 5415 H 547.356 -0.785385 0.530918 0
M  V30 5416 H 547.062 -3.20349 1.45152 0
M  V30 5417 H 546.936 -3.76639 -0.205721 0
M  V30 5418 H 549.323 -2.87886 -0.648505 0
M  V30 5419 H 549.404 -2.33939 1.03472 0
M  V30 5420 H 549.048 -4.74905 1.80077 0
M  V30 5421 H 548.978 -5.26511 0.0970679 0
M  V30 5422 H 551.469 -3.74931 0.472773 0
M  V30 5423 H 551.782 -7.56392 1.58402 0
M  V30 5424 H 550.127 -6.80386 1.41774 0
M  V30 5425 H 553.318 -4.63293 0.669115 0
M  V30 5426 H 553.491 -6.37246 1.17563 0
M  V30 5427 N 546.897 -0.0685191 -1.57451 0
M  V30 5428 C 547.844 0.899861 -2.12535 0
M  V30 5429 C 548.814 1.29749 -1.03703 0
M  V30 5430 O 549.999 1.38392 -1.31348 0
M  V30 5431 C 547.139 2.16328 -2.6888 0
M  V30 5432 C 546.252 1.81857 -3.91857 0
M  V30 5433 C 545.387 3.02786 -4.36457 0
M  V30 5434 C 544.426 2.64317 -5.5209 0
M  V30 5435 N 543.563 3.77994 -5.91663 0
M  V30 5436 H 548.403 0.423243 -2.94979 0
M  V30 5437 H 545.94 0.197268 -1.45771 0
M  V30 5438 H 547.898 2.90281 -2.99655 0
M  V30 5439 H 546.528 2.61536 -1.89206 0
M  V30 5440 H 545.58 0.979808 -3.67565 0
M  V30 5441 H 546.892 1.49553 -4.75852 0
M  V30 5442 H 546.046 3.85021 -4.68875 0
M  V30 5443 H 544.785 3.38281 -3.51308 0
M  V30 5444 H 543.79 1.80503 -5.19325 0
M  V30 5445 H 545.015 2.29995 -6.38967 0
M  V30 5446 H 542.961 4.13258 -5.09464 0
M  V30 5447 H 542.878 3.49447 -6.7039 0
M  V30 5448 H 544.146 4.60818 -6.28703 0
M  V30 5449 N 548.375 1.56261 0.205012 0
M  V30 5450 C 549.621 1.80306 0.9283 0
M  V30 5451 C 549.954 0.640932 1.83319 0
M  V30 5452 O 549.229 -0.359032 1.91158 0
M  V30 5453 C 549.512 3.14547 1.75306 0
M  V30 5454 C 549.365 4.41236 0.873562 0
M  V30 5455 C 550.684 3.45382 2.72762 0
M  V30 5456 H 547.803 0.655929 0.336044 0
M  V30 5457 H 550.445 1.88984 0.196211 0
M  V30 5458 H 548.595 3.0728 2.37721 0
M  V30 5459 H 550.267 4.60539 0.264887 0
M  V30 5460 H 548.51 4.33427 0.179773 0
M  V30 5461 H 549.181 5.31639 1.48541 0
M  V30 5462 H 551.657 3.52884 2.20481 0
M  V30 5463 H 550.533 4.40449 3.2756 0
M  V30 5464 H 550.794 2.68377 3.51321 0
M  V30 5465 N 549.853 -0.472356 1.50355 0
M  V30 5466 C 550.816 -1.5529 1.68576 0
M  V30 5467 C 551.816 -1.50863 0.556511 0
M  V30 5468 O 553.006 -1.53505 0.823516 0
M  V30 5469 C 550.138 -2.94921 1.70981 0
M  V30 5470 H 551.331 -1.40451 2.64978 0
M  V30 5471 H 548.884 -0.698645 1.39816 0
M  V30 5472 H 549.619 -3.15204 0.762675 0
M  V30 5473 H 549.404 -2.99541 2.53017 0
M  V30 5474 H 550.894 -3.73372 1.87037 0
M  V30 5475 N 551.331 -1.39911 -0.725443 0
M  V30 5476 C 552.263 -1.35301 -1.85003 0
M  V30 5477 C 553.276 -0.260102 -1.60709 0
M  V30 5478 O 554.465 -0.519749 -1.70766 0
M  V30 5479 C 551.565 -1.08039 -3.21218 0
M  V30 5480 C 550.738 -2.28793 -3.7279 0
M  V30 5481 C 549.797 -1.97841 -4.87591 0
M  V30 5482 O 548.823 -2.70616 -5.00755 0
M  V30 5483 N 550.025 -0.950367 -5.72668 0
M  V30 5484 H 552.79 -2.32218 -1.89459 0
M  V30 5485 H 550.351 -1.34137 -0.90658 0
M  V30 5486 H 552.343 -0.853354 -3.95601 0
M  V30 5487 H 550.913 -0.198229 -3.11971 0
M  V30 5488 H 550.133 -2.67388 -2.8965 0
M  V30 5489 H 551.421 -3.09317 -4.03981 0
M  V30 5490 H 550.819 -0.347436 -5.64632 0
M  V30 5491 H 549.376 -0.783232 -6.47077 0
M  V30 5492 N 552.809 0.956637 -1.25245 0
M  V30 5493 C 553.772 2.03457 -1.05537 0
M  V30 5494 C 554.772 1.60798 -0.00886317 0
M  V30 5495 O 555.962 1.72384 -0.250865 0
M  V30 5496 C 553.094 3.35543 -0.601965 0
M  V30 5497 H 554.287 2.22372 -2.01223 0
M  V30 5498 H 551.84 1.13344 -1.07623 0
M  V30 5499 H 552.575 3.22323 0.357584 0
M  V30 5500 H 552.36 3.67854 -1.35743 0
M  V30 5501 H 553.85 4.14769 -0.485454 0
M  V30 5502 N 554.287 1.06798 1.15896 0
M  V30 5503 C 555.703 0.792423 1.38538 0
M  V30 5504 C 555.903 -0.60592 1.92174 0
M  V30 5505 O 554.959 -1.36561 2.12385 0
M  V30 5506 C 556.272 1.86157 2.36149 0
M  V30 5507 C 557.82 1.88567 2.49823 0
M  V30 5508 C 558.295 2.9455 3.5072 0
M  V30 5509 N 559.786 2.93616 3.58251 0
M  V30 5510 C 560.521 3.72267 4.36125 0
M  V30 5511 N 560.017 4.60751 5.17379 0
M  V30 5512 N 561.81 3.60637 4.31158 0
M  V30 5513 H 553.961 1.96993 0.794198 0
M  V30 5514 H 556.224 0.853942 0.411688 0
M  V30 5515 H 555.93 2.86603 2.03843 0
M  V30 5516 H 555.804 1.71692 3.3586 0
M  V30 5517 H 558.191 0.887765 2.8143 0
M  V30 5518 H 558.272 2.0711 1.5013 0
M  V30 5519 H 557.916 3.94537 3.19849 0
M  V30 5520 H 557.846 2.73255 4.50155 0
M  V30 5521 H 560.337 2.29472 3.00252 0
M  V30 5522 H 560.65 5.17408 5.74028 0
M  V30 5523 H 558.995 4.64803 5.16704 0
M  V30 5524 H 562.186 2.90892 3.66742 0
M  V30 5525 H 562.359 4.22176 4.91601 0
M  V30 5526 N 555.766 -1.3263 0.851289 0
M  V30 5527 C 556.676 -2.32722 0.296268 0
M  V30 5528 C 557.692 -1.63901 -0.584162 0
M  V30 5529 O 558.868 -1.95465 -0.485334 0
M  V30 5530 C 555.933 -3.42942 -0.509103 0
M  V30 5531 C 554.994 -4.2746 0.397069 0
M  V30 5532 C 554.227 -5.32416 -0.36996 0
M  V30 5533 O 554.45 -5.47491 -1.6003 0
M  V30 5534 O 553.384 -6.01327 0.262493 0
M  V30 5535 H 557.21 -2.82078 1.12543 0
M  V30 5536 H 554.795 -1.36194 0.614135 0
M  V30 5537 H 556.677 -4.1017 -0.96634 0
M  V30 5538 H 555.352 -2.95781 -1.31512 0
M  V30 5539 H 554.259 -3.63053 0.902411 0
M  V30 5540 H 555.592 -4.78136 1.16818 0
M  V30 5541 N 557.244 -0.608902 -1.45362 0
M  V30 5542 C 558.191 0.109172 -2.30542 0
M  V30 5543 C 559.161 0.858704 -1.42181 0
M  V30 5544 O 560.346 0.844178 -1.71109 0
M  V30 5545 C 557.486 1.09971 -3.27109 0
M  V30 5546 C 556.599 0.350911 -4.30572 0
M  V30 5547 C 555.734 1.33129 -5.14247 0
M  V30 5548 C 554.773 0.570377 -6.09437 0
M  V30 5549 N 553.91 1.5001 -6.85887 0
M  V30 5550 H 558.75 -0.623195 -2.91411 0
M  V30 5551 H 556.287 -0.319122 -1.43597 0
M  V30 5552 H 558.245 1.68714 -3.81564 0
M  V30 5553 H 556.875 1.79947 -2.67991 0
M  V30 5554 H 555.927 -0.352054 -3.78767 0
M  V30 5555 H 557.239 -0.242725 -4.98209 0
M  V30 5556 H 556.393 1.99074 -5.73109 0
M  V30 5557 H 555.132 1.95885 -4.46632 0
M  V30 5558 H 554.137 -0.102702 -5.49704 0
M  V30 5559 H 555.362 -0.0521607 -6.7908 0
M  V30 5560 H 553.308 2.11529 -6.2096 0
M  V30 5561 H 553.225 0.959934 -7.49881 0
M  V30 5562 H 554.493 2.14909 -7.49289 0
M  V30 5563 N 558.722 1.53707 -0.348139 0
M  V30 5564 C 560.138 1.596 0.00361134 0
M  V30 5565 C 560.338 1.36394 1.4832 0
M  V30 5566 O 559.394 1.16046 2.24253 0
M  V30 5567 C 560.707 2.97512 -0.436682 0
M  V30 5568 C 562.255 3.10568 -0.389416 0
M  V30 5569 C 562.73 4.50866 -0.805249 0
M  V30 5570 N 564.221 4.56929 -0.759616 0
M  V30 5571 C 564.956 5.63643 -1.05327 0
M  V30 5572 N 564.452 6.78189 -1.41531 0
M  V30 5573 N 566.245 5.5354 -0.977207 0
M  V30 5574 H 558.396 1.67044 -1.31187 0
M  V30 5575 H 560.659 0.782559 -0.535075 0
M  V30 5576 H 560.365 3.19575 -1.46849 0
M  V30 5577 H 560.239 3.76742 0.185744 0
M  V30 5578 H 562.626 2.88226 0.633228 0
M  V30 5579 H 562.707 2.33387 -1.04711 0
M  V30 5580 H 562.351 4.73943 -1.82593 0
M  V30 5581 H 562.281 5.26452 -0.124989 0
M  V30 5582 H 564.772 3.74675 -0.49265 0
M  V30 5583 H 565.085 7.55541 -1.62411 0
M  V30 5584 H 563.43 6.79624 -1.45381 0
M  V30 5585 H 566.621 4.62932 -0.693675 0
M  V30 5586 H 566.794 6.36614 -1.2094 0
M  V30 5587 N 560.2 0.0768682 1.57412 0
M  V30 5588 C 561.447 -0.591085 1.93681 0
M  V30 5589 C 561.775 -1.69311 0.957286 0
M  V30 5590 O 561.03 -1.95682 -0.0262428 0
M  V30 5591 C 561.329 -1.20268 3.36557 0
M  V30 5592 C 560.995 -0.226286 4.50332 0
M  V30 5593 C 559.657 0.0423142 4.81181 0
M  V30 5594 C 562.009 0.441415 5.19327 0
M  V30 5595 C 559.337 0.985616 5.78362 0
M  V30 5596 C 561.689 1.37307 6.17519 0
M  V30 5597 C 560.353 1.65009 6.46783 0
M  V30 5598 H 559.623 -0.216293 0.70873 0
M  V30 5599 H 562.27 0.148824 1.90921 0
M  V30 5600 H 560.575 -2.01844 3.35807 0
M  V30 5601 H 562.272 -1.72688 3.61911 0
M  V30 5602 H 558.862 -0.445821 4.26275 0
M  V30 5603 H 563.046 0.247023 4.95685 0
M  V30 5604 H 558.302 1.20743 5.99359 0
M  V30 5605 H 562.476 1.89637 6.70083 0
M  V30 5606 H 560.103 2.38263 7.21897 0
M  V30 5607 N 561.678 -1.56367 -0.196722 0
M  V30 5608 C 562.906 -1.84639 -0.933608 0
M  V30 5609 C 563.321 -0.659164 -1.76919 0
M  V30 5610 O 562.678 0.372142 -1.78665 0
M  V30 5611 C 562.729 -3.11694 -1.83109 0
M  V30 5612 O 562.45 -4.25838 -1.02924 0
M  V30 5613 C 563.951 -3.53132 -2.67979 0
M  V30 5614 H 561.171 -0.613188 -0.272473 0
M  V30 5615 H 563.715 -2.03475 -0.204465 0
M  V30 5616 H 561.87 -2.94759 -2.51387 0
M  V30 5617 H 562.284 -4.98178 -1.64069 0
M  V30 5618 H 563.758 -4.45005 -3.26611 0
M  V30 5619 H 564.235 -2.76045 -3.41608 0
M  V30 5620 H 564.841 -3.72592 -2.05074 0
M  V30 5621 N 563.156 0.464375 -1.50603 0
M  V30 5622 C 564.403 1.21596 -1.61928 0
M  V30 5623 C 564.731 1.91804 -0.322737 0
M  V30 5624 O 563.986 1.83065 0.691776 0
M  V30 5625 C 564.285 2.278 -2.75394 0
M  V30 5626 C 563.951 1.74797 -4.1564 0
M  V30 5627 C 562.613 1.60063 -4.53799 0
M  V30 5628 C 564.965 1.35548 -5.03266 0
M  V30 5629 C 562.293 1.04514 -5.77316 0
M  V30 5630 C 564.645 0.814381 -6.27336 0
M  V30 5631 C 563.309 0.653726 -6.64291 0
M  V30 5632 H 562.579 0.444951 -0.592536 0
M  V30 5633 H 565.226 0.510964 -1.84557 0
M  V30 5634 H 563.531 3.04233 -2.46879 0
M  V30 5635 H 565.228 2.85723 -2.81359 0
M  V30 5636 H 561.818 1.87234 -3.8554 0
M  V30 5637 H 566.002 1.45763 -4.74412 0
M  V30 5638 H 561.258 0.908186 -6.04617 0
M  V30 5639 H 565.432 0.501626 -6.94591 0
M  V30 5640 H 563.059 0.22114 -7.59878 0
M  V30 5641 N 564.634 1.40294 0.718013 0
M  V30 5642 C 565.88 1.38645 1.48005 0
M  V30 5643 C 566.213 -0.0121202 1.94196 0
M  V30 5644 O 565.488 -0.980309 1.67989 0
M  V30 5645 C 565.771 2.37379 2.70782 0
M  V30 5646 C 565.624 3.8625 2.30501 0
M  V30 5647 C 566.943 2.33685 3.72933 0
M  V30 5648 H 564.062 0.504928 0.536858 0
M  V30 5649 H 566.704 1.71411 0.819649 0
M  V30 5650 H 564.854 2.09568 3.27129 0
M  V30 5651 H 566.526 4.24879 1.79655 0
M  V30 5652 H 564.769 4.02202 1.6253 0
M  V30 5653 H 565.44 4.50847 3.18498 0
M  V30 5654 H 567.916 2.58314 3.2621 0
M  V30 5655 H 566.792 3.0482 4.56482 0
M  V30 5656 H 567.053 1.34765 4.21059 0
M  V30 5657 N 566.112 -0.949982 1.2575 0
M  V30 5658 C 567.042 -2.06483 1.09028 0
M  V30 5659 C 568.023 -1.701 -0.00201532 0
M  V30 5660 O 569.208 -1.93469 0.168383 0
M  V30 5661 C 566.338 -3.39899 0.71316 0
M  V30 5662 C 565.292 -3.90309 1.75621 0
M  V30 5663 C 564.618 -5.20274 1.23365 0
M  V30 5664 C 565.918 -4.16169 3.15596 0
M  V30 5665 H 567.612 -2.20731 2.02283 0
M  V30 5666 H 565.158 -1.06066 0.973964 0
M  V30 5667 H 567.111 -4.17346 0.58309 0
M  V30 5668 H 565.835 -3.25602 -0.255091 0
M  V30 5669 H 564.494 -3.15035 1.8748 0
M  V30 5670 H 564.142 -5.02351 0.255491 0
M  V30 5671 H 563.842 -5.54971 1.93082 0
M  V30 5672 H 565.366 -6.00314 1.11607 0
M  V30 5673 H 566.78 -4.84259 3.06864 0
M  V30 5674 H 565.177 -4.62131 3.82825 0
M  V30 5675 H 566.247 -3.22273 3.6231 0
M  V30 5676 N 567.59 -1.07411 -1.15328 0
M  V30 5677 C 568.553 -0.698914 -2.18284 0
M  V30 5678 C 569.553 0.261149 -1.58665 0
M  V30 5679 O 570.743 0.0420277 -1.74149 0
M  V30 5680 C 567.875 -0.0302427 -3.40887 0
M  V30 5681 H 569.068 -1.61045 -2.52991 0
M  V30 5682 H 566.621 -0.870724 -1.298 0
M  V30 5683 H 567.356 0.893505 -3.11748 0
M  V30 5684 H 567.141 -0.720759 -3.85419 0
M  V30 5685 H 568.631 0.21759 -4.17033 0
M  V30 5686 N 569.068 1.32177 -0.85831 0
M  V30 5687 C 570.314 1.97417 -0.46417 0
M  V30 5688 C 570.647 1.67746 0.978514 0
M  V30 5689 O 569.922 0.967654 1.68721 0
M  V30 5690 C 570.205 3.53069 -0.708094 0
M  V30 5691 C 570.058 3.92357 -2.19946 0
M  V30 5692 C 571.377 4.39783 -0.166881 0
M  V30 5693 H 568.496 0.717097 -0.17012 0
M  V30 5694 H 571.138 1.56499 -1.07741 0
M  V30 5695 H 569.288 3.88054 -0.186128 0
M  V30 5696 H 570.96 3.67533 -2.78779 0
M  V30 5697 H 569.203 3.41384 -2.67656 0
M  V30 5698 H 569.874 5.00841 -2.32082 0
M  V30 5699 H 572.35 4.11556 -0.613285 0
M  V30 5700 H 571.226 5.47671 -0.367093 0
M  V30 5701 H 571.487 4.32196 0.930559 0
M  V30 5702 N 570.547 0.616602 1.45037 0
M  V30 5703 C 571.793 0.115501 2.02471 0
M  V30 5704 C 572.126 -1.25406 1.4828 0
M  V30 5705 O 571.401 -1.82922 0.661051 0
M  V30 5706 C 571.684 0.0863588 3.59996 0
M  V30 5707 C 571.537 1.48723 4.24501 0
M  V30 5708 C 572.856 -0.596762 4.36035 0
M  V30 5709 H 569.975 0.0434461 0.735718 0
M  V30 5710 H 572.617 0.7903 1.72784 0
M  V30 5711 H 570.767 -0.488277 3.85419 0
M  V30 5712 H 572.439 2.10964 4.10234 0
M  V30 5713 H 570.682 2.04534 3.82555 0
M  V30 5714 H 571.353 1.419 5.3345 0
M  V30 5715 H 573.829 -0.10824 4.15959 0
M  V30 5716 H 572.705 -0.586289 5.4576 0
M  V30 5717 H 572.966 -1.66451 4.09569 0
M  V30 5718 N 572.025 -1.5352 0.356285 0
M  V30 5719 C 572.958 -2.2177 -0.537913 0
M  V30 5720 C 573.936 -1.20626 -1.09033 0
M  V30 5721 O 575.12 -1.49494 -1.1482 0
M  V30 5722 C 572.247 -2.90513 -1.74126 0
M  V30 5723 C 571.293 -4.05652 -1.31715 0
M  V30 5724 S 572.126 -5.34505 -0.326236 0
M  V30 5725 C 573.282 -6.06757 -1.53612 0
M  V30 5726 H 573.515 -2.97271 0.0417411 0
M  V30 5727 H 571.048 -1.53761 0.140372 0
M  V30 5728 H 573.006 -3.30735 -2.43155 0
M  V30 5729 H 571.667 -2.14754 -2.29215 0
M  V30 5730 H 570.86 -4.52733 -2.21471 0
M  V30 5731 H 570.462 -3.67272 -0.706183 0
M  V30 5732 H 572.754 -6.30924 -2.46863 0
M  V30 5733 H 573.697 -6.99395 -1.10687 0
M  V30 5734 H 574.105 -5.3708 -1.73796 0
M  V30 5735 N 573.503 -0.0852151 -1.57369 0
M  V30 5736 C 574.751 0.579658 -1.93609 0
M  V30 5737 C 575.072 1.69332 -0.967043 0
M  V30 5738 O 574.342 1.95892 -0.0174215 0
M  V30 5739 H 572.922 0.217113 -0.714752 0
M  V30 5740 H 575.584 -0.146226 -1.94351 0
M  V30 5741 H 574.68 0.996276 -2.95771 0
M  V30 5742 N 574.981 1.5647 0.188427 0
M  V30 5743 C 576.227 1.81281 0.909124 0
M  V30 5744 C 576.56 0.66034 1.82628 0
M  V30 5745 O 575.835 -0.338737 1.91528 0
M  V30 5746 C 576.118 3.16388 1.7196 0
M  V30 5747 C 575.971 4.42137 0.826714 0
M  V30 5748 C 577.29 3.48256 2.69083 0
M  V30 5749 H 574.409 0.659457 0.329068 0
M  V30 5750 H 577.051 1.89182 0.176156 0
M  V30 5751 H 575.201 3.09784 2.34448 0
M  V30 5752 H 576.873 4.60794 0.216025 0
M  V30 5753 H 575.116 4.33594 0.133792 0
M  V30 5754 H 575.787 5.33184 1.42893 0
M  V30 5755 H 578.263 3.55203 2.16726 0
M  V30 5756 H 577.139 4.43899 3.2287 0
M  V30 5757 H 577.4 2.72088 3.48455 0
M  V30 5758 N 576.459 -0.456382 1.50847 0
M  V30 5759 C 577.706 -1.20736 1.62571 0
M  V30 5760 C 578.034 -1.9163 0.332904 0
M  V30 5761 O 577.289 -1.8343 -0.682058 0
M  V30 5762 C 577.588 -2.26336 2.76599 0
M  V30 5763 C 577.254 -1.7259 4.16562 0
M  V30 5764 C 575.916 -1.57654 4.54641 0
M  V30 5765 C 578.268 -1.32877 5.03977 0
M  V30 5766 C 575.596 -1.0145 5.77862 0
M  V30 5767 C 577.948 -0.7811 6.27759 0
M  V30 5768 C 576.612 -0.618488 6.64628 0
M  V30 5769 H 575.882 -0.441803 0.594888 0
M  V30 5770 H 578.529 -0.501169 1.84826 0
M  V30 5771 H 576.834 -3.0292 2.48489 0
M  V30 5772 H 578.531 -2.84227 2.82871 0
M  V30 5773 H 575.121 -1.85187 3.86528 0
M  V30 5774 H 579.305 -1.43245 4.75179 0
M  V30 5775 H 574.561 -0.876109 6.0509 0
M  V30 5776 H 578.735 -0.464783 6.94847 0
M  V30 5777 H 576.362 -0.180838 7.59985 0
M  V30 5778 N 577.937 -1.40673 -0.710563 0
M  V30 5779 C 579.183 -1.39428 -1.47267 0
M  V30 5780 C 579.516 0.00182129 -1.942 0
M  V30 5781 O 578.791 0.971387 -1.68506 0
M  V30 5782 C 579.074 -2.38812 -2.6952 0
M  V30 5783 C 578.927 -3.87467 -2.28449 0
M  V30 5784 C 580.246 -2.3566 -3.71689 0
M  V30 5785 H 577.365 -0.507768 -0.534173 0
M  V30 5786 H 580.007 -1.71843 -0.810547 0
M  V30 5787 H 578.157 -2.113 -3.26013 0
M  V30 5788 H 579.829 -4.25825 -1.77399 0
M  V30 5789 H 578.072 -4.03058 -1.60395 0
M  V30 5790 H 578.743 -4.5253 -3.16103 0
M  V30 5791 H 581.219 -2.6004 -3.24836 0
M  V30 5792 H 580.095 -3.07237 -4.54859 0
M  V30 5793 H 580.356 -1.36996 -4.20339 0
M  V30 5794 N 579.415 0.9433 -1.26252 0
M  V30 5795 C 580.345 2.05902 -1.10122 0
M  V30 5796 C 581.326 1.70099 -0.00700552 0
M  V30 5797 O 582.511 1.93377 -0.178641 0
M  V30 5798 C 579.641 3.39516 -0.731175 0
M  V30 5799 C 578.595 3.89372 -1.77688 0
M  V30 5800 C 577.921 5.19613 -1.26122 0
M  V30 5801 C 579.221 4.14489 -3.17799 0
M  V30 5802 H 580.915 2.19655 -2.03451 0
M  V30 5803 H 578.461 1.05548 -0.979576 0
M  V30 5804 H 580.414 4.17031 -0.605215 0
M  V30 5805 H 579.138 3.25733 0.23782 0
M  V30 5806 H 577.797 3.14036 -1.89148 0
M  V30 5807 H 577.445 5.02208 -0.282128 0
M  V30 5808 H 577.145 5.53939 -1.96023 0
M  V30 5809 H 578.669 5.99713 -1.14789 0
M  V30 5810 H 580.083 4.82625 -3.09428 0
M  V30 5811 H 578.48 4.60094 -3.85271 0
M  V30 5812 H 579.55 3.20347 -3.64014 0
M  V30 5813 N 580.893 1.08022 1.14757 0
M  V30 5814 C 582.133 0.816959 1.87364 0
M  V30 5815 C 582.497 -0.645407 1.80827 0
M  V30 5816 O 583.698 -1.024 2.48531 0
M  V30 5817 C 581.969 1.31961 3.32146 0
M  V30 5818 S 583.528 1.18806 4.2241 0
M  V30 5819 H 580.346 0.295862 0.646519 0
M  V30 5820 H 582.948 1.3807 1.38408 0
M  V30 5821 H 581.652 2.37847 3.3445 0
M  V30 5822 H 581.183 0.751371 3.86158 0
M  V30 5823 H 583.198 0.129865 4.9603 0
M  V30 5824 N 582.371 -1.3172 0.865308 0
M  V30 5825 C 583.617 -1.97559 0.483944 0
M  V30 5826 C 583.972 -1.67181 -0.95227 0
M  V30 5827 O 583.265 -0.955392 -1.66081 0
M  V30 5828 C 583.459 -3.5102 0.672283 0
M  V30 5829 C 583.288 -3.96312 2.12525 0
M  V30 5830 C 582.058 -4.22877 2.76591 0
M  V30 5831 C 584.256 -4.10596 3.09702 0
M  V30 5832 N 582.238 -4.5449 4.12689 0
M  V30 5833 C 583.609 -4.45867 4.30816 0
M  V30 5834 C 585.664 -3.92961 3.05755 0
M  V30 5835 C 584.367 -4.65344 5.48495 0
M  V30 5836 C 586.393 -4.13628 4.22688 0
M  V30 5837 C 585.755 -4.49227 5.42563 0
M  V30 5838 H 581.854 -0.74862 0.226035 0
M  V30 5839 H 584.438 -1.59336 1.11893 0
M  V30 5840 H 582.609 -3.88342 0.0669224 0
M  V30 5841 H 584.341 -4.03865 0.259765 0
M  V30 5842 H 581.096 -4.15343 2.27567 0
M  V30 5843 H 581.52 -4.74464 4.82921 0
M  V30 5844 H 586.162 -3.64531 2.14188 0
M  V30 5845 H 583.88 -4.92624 6.40584 0
M  V30 5846 H 587.466 -4.01474 4.21082 0
M  V30 5847 H 586.346 -4.64895 6.31539 0
M  V30 5848 N 583.85 -0.624285 -1.44708 0
M  V30 5849 C 585.096 -0.126051 -2.02107 0
M  V30 5850 C 585.425 1.2496 -1.49048 0
M  V30 5851 O 584.68 1.84163 -0.662005 0
M  V30 5852 C 584.979 -0.0546353 -3.57358 0
M  V30 5853 C 584.644 -1.36815 -4.29642 0
M  V30 5854 C 583.307 -1.72792 -4.49106 0
M  V30 5855 C 585.659 -2.23549 -4.70824 0
M  V30 5856 C 582.986 -2.95222 -5.07012 0
M  V30 5857 C 585.339 -3.45243 -5.30085 0
M  V30 5858 C 584.003 -3.81452 -5.47769 0
M  V30 5859 H 583.273 -0.0461252 -0.739563 0
M  V30 5860 H 585.92 -0.809236 -1.73562 0
M  V30 5861 H 584.225 0.711891 -3.85278 0
M  V30 5862 H 585.922 0.347282 -3.99493 0
M  V30 5863 H 582.512 -1.07817 -4.14817 0
M  V30 5864 H 586.696 -1.9705 -4.55505 0
M  V30 5865 H 581.952 -3.23361 -5.18891 0
M  V30 5866 H 586.125 -4.12689 -5.60946 0
M  V30 5867 H 583.753 -4.76403 -5.92405 0
M  V30 5868 N 585.328 1.53329 -0.364422 0
M  V30 5869 C 586.739 1.86345 0.115039 0
M  V30 5870 C 587.09 1.28505 1.4826 0
M  V30 5871 O 586.215 0.606639 2.07723 0
M  V30 5872 C 586.81 3.38114 0.215522 0
M  V30 5873 C 585.369 3.70932 0.639237 0
M  V30 5874 C 584.516 2.76471 -0.214261 0
M  V30 5875 H 587.467 1.47593 -0.583258 0
M  V30 5876 H 587.488 3.66031 1.0393 0
M  V30 5877 H 587 3.80182 -0.779948 0
M  V30 5878 H 585.101 3.3442 1.64298 0
M  V30 5879 H 585.214 4.77302 0.41465 0
M  V30 5880 H 583.578 2.52724 0.316678 0
M  V30 5881 H 584.361 3.21373 -1.20725 0
M  V30 5882 N 586.806 0.0935595 1.57322 0
M  V30 5883 C 588.053 -0.570509 1.94297 0
M  V30 5884 C 588.381 -1.68286 0.97519 0
M  V30 5885 O 587.636 -1.95699 -0.00548655 0
M  V30 5886 C 587.935 -1.16692 3.37813 0
M  V30 5887 C 587.601 -0.178509 4.50547 0
M  V30 5888 C 586.263 0.0933475 4.81109 0
M  V30 5889 C 588.615 0.496472 5.1883 0
M  V30 5890 C 585.943 1.0469 5.77284 0
M  V30 5891 C 588.295 1.43849 6.16028 0
M  V30 5892 C 586.959 1.71859 6.44997 0
M  V30 5893 H 586.229 -0.208764 0.710984 0
M  V30 5894 H 588.876 0.169066 1.90752 0
M  V30 5895 H 587.181 -1.98271 3.37929 0
M  V30 5896 H 588.878 -1.6884 3.63722 0
M  V30 5897 H 585.468 -0.400584 4.26724 0
M  V30 5898 H 589.652 0.299584 4.95395 0
M  V30 5899 H 584.908 1.27094 5.98044 0
M  V30 5900 H 589.082 1.96734 6.68034 0
M  V30 5901 H 586.709 2.45906 7.19329 0
M  V30 5902 N 588.284 -1.56567 -0.180126 0
M  V30 5903 C 589.531 -1.81492 -0.898167 0
M  V30 5904 C 589.859 -0.669225 -1.82624 0
M  V30 5905 O 589.114 0.344096 -1.92651 0
M  V30 5906 C 589.413 -3.1252 -1.73395 0
M  V30 5907 C 589.079 -4.40658 -0.955567 0
M  V30 5908 C 587.741 -4.75465 -0.740707 0
M  V30 5909 C 590.093 -5.19593 -0.408948 0
M  V30 5910 C 587.421 -5.86691 0.0320128 0
M  V30 5911 C 589.773 -6.31627 0.350638 0
M  V30 5912 C 588.437 -6.65007 0.576378 0
M  V30 5913 H 587.707 -0.664125 -0.328662 0
M  V30 5914 H 590.354 -1.908 -0.163616 0
M  V30 5915 H 588.659 -2.98515 -2.53763 0
M  V30 5916 H 590.356 -3.29013 -2.29241 0
M  V30 5917 H 586.946 -4.13352 -1.13306 0
M  V30 5918 H 591.13 -4.93104 -0.562307 0
M  V30 5919 H 586.386 -6.11016 0.216735 0
M  V30 5920 H 590.56 -6.92001 0.781497 0
M  V30 5921 H 588.187 -7.51033 1.17703 0
M  V30 5922 N 589.762 0.448376 -1.51087 0
M  V30 5923 C 591.009 1.19872 -1.63209 0
M  V30 5924 C 591.337 1.91451 -0.343062 0
M  V30 5925 O 590.592 1.83789 0.672321 0
M  V30 5926 C 590.891 2.24866 -2.77795 0
M  V30 5927 C 590.557 1.70378 -4.17471 0
M  V30 5928 C 589.219 1.55241 -4.55471 0
M  V30 5929 C 591.571 1.30203 -5.04675 0
M  V30 5930 C 588.899 0.983844 -5.78392 0
M  V30 5931 C 591.251 0.747798 -6.28165 0
M  V30 5932 C 589.915 0.583233 -6.64947 0
M  V30 5933 H 589.185 0.438642 -0.597222 0
M  V30 5934 H 591.832 0.49136 -1.85089 0
M  V30 5935 H 590.137 3.01598 -2.50092 0
M  V30 5936 H 591.834 2.82723 -2.84374 0
M  V30 5937 H 588.424 1.83134 -3.87505 0
M  V30 5938 H 592.608 1.40723 -4.75932 0
M  V30 5939 H 587.864 0.844007 -6.05546 0
M  V30 5940 H 592.038 0.427927 -6.95084 0
M  V30 5941 H 589.665 0.140532 -7.6007 0
M  V30 5942 N 591.24 1.41047 0.703093 0
M  V30 5943 C 592.465 1.43537 1.49706 0
M  V30 5944 C 592.89 0.0401853 1.88057 0
M  V30 5945 O 592.248 -0.954785 1.54122 0
M  V30 5946 C 592.296 2.3433 2.74084 0
M  V30 5947 O 591.4 1.79515 3.71279 0
M  V30 5948 H 590.741 0.487454 0.450871 0
M  V30 5949 H 593.271 1.85422 0.86486 0
M  V30 5950 H 593.281 2.49947 3.22476 0
M  V30 5951 H 591.956 3.35708 2.45506 0
M  V30 5952 H 590.533 1.7331 3.30179 0
M  V30 5953 N 592.718 -0.936591 1.26751 0
M  V30 5954 C 593.948 -1.71509 1.15188 0
M  V30 5955 C 594.356 -1.86885 -0.295037 0
M  V30 5956 O 593.699 -1.37915 -1.21347 0
M  V30 5957 C 593.761 -3.13853 1.75318 0
M  V30 5958 C 593.425 -3.21845 3.24445 0
M  V30 5959 C 594.422 -3.04771 4.21201 0
M  V30 5960 C 592.107 -3.45088 3.64992 0
M  V30 5961 C 594.101 -3.10816 5.56482 0
M  V30 5962 C 591.788 -3.50767 5.00405 0
M  V30 5963 C 592.786 -3.33648 5.9596 0
M  V30 5964 O 592.474 -3.39045 7.28906 0
M  V30 5965 H 592.206 -0.543658 0.401761 0
M  V30 5966 H 594.76 -1.18234 1.67958 0
M  V30 5967 H 592.99 -3.6857 1.17016 0
M  V30 5968 H 594.679 -3.73634 1.58596 0
M  V30 5969 H 595.445 -2.86665 3.91214 0
M  V30 5970 H 591.324 -3.57467 2.91098 0
M  V30 5971 H 594.868 -2.97372 6.31043 0
M  V30 5972 H 590.765 -3.68396 5.30052 0
M  V30 5973 H 591.533 -3.55558 7.37238 0
M  V30 5974 N 594.196 -1.08629 -1.14182 0
M  V30 5975 C 595.421 -0.83902 -1.89671 0
M  V30 5976 C 595.846 0.603332 -1.78161 0
M  V30 5977 O 595.204 1.42301 -1.12339 0
M  V30 5978 C 595.252 -1.26854 -3.37551 0
M  V30 5979 O 594.356 -0.42188 -4.10236 0
M  V30 5980 H 593.697 -0.304545 -0.590041 0
M  V30 5981 H 596.227 -1.4483 -1.44518 0
M  V30 5982 H 596.237 -1.25038 -3.88368 0
M  V30 5983 H 594.912 -2.31901 -3.45246 0
M  V30 5984 H 593.489 -0.503654 -3.69483 0
M  V30 5985 N 595.674 1.31259 -0.872281 0
M  V30 5986 C 596.604 2.30929 -0.345554 0
M  V30 5987 C 597.585 1.60449 0.5648 0
M  V30 5988 O 598.77 1.8814 0.481335 0
M  V30 5989 C 595.9 3.44348 0.451823 0
M  V30 5990 C 594.854 4.26435 -0.365641 0
M  V30 5991 C 594.18 5.31785 0.557562 0
M  V30 5992 C 595.48 4.97159 -1.60095 0
M  V30 5993 H 597.174 2.75234 -1.17841 0
M  V30 5994 H 594.72 1.3232 -0.568094 0
M  V30 5995 H 596.673 4.13128 0.830854 0
M  V30 5996 H 595.397 2.98816 1.31821 0
M  V30 5997 H 594.056 3.59326 -0.726649 0
M  V30 5998 H 593.704 4.82502 1.4213 0
M  V30 5999 H 593.404 5.87598 0.0144878 0
M  V30 6000 H 594.928 6.03424 0.933387 0
M  V30 6001 H 596.342 5.58523 -1.29323 0
M  V30 6002 H 594.739 5.62779 -2.08327 0
M  V30 6003 H 595.809 4.24012 -2.35249 0
M  V30 6004 N 597.152 0.631951 1.44375 0
M  V30 6005 C 598.382 0.143658 2.061 0
M  V30 6006 C 598.79 -1.18733 1.47306 0
M  V30 6007 O 598.133 -1.73943 0.590724 0
M  V30 6008 C 598.195 -0.0446102 3.59472 0
M  V30 6009 C 597.859 1.20835 4.40736 0
M  V30 6010 C 598.856 2.13224 4.74164 0
M  V30 6011 C 596.541 1.44399 4.81097 0
M  V30 6012 C 598.535 3.27487 5.46838 0
M  V30 6013 C 596.222 2.58959 5.53519 0
M  V30 6014 C 597.22 3.50329 5.86309 0
M  V30 6015 O 596.908 4.62891 6.57257 0
M  V30 6016 H 596.64 0.0772939 0.671567 0
M  V30 6017 H 599.194 0.866677 1.8622 0
M  V30 6018 H 597.424 -0.822783 3.77845 0
M  V30 6019 H 599.113 -0.487561 4.02961 0
M  V30 6020 H 599.879 1.96253 4.4352 0
M  V30 6021 H 595.758 0.741696 4.54994 0
M  V30 6022 H 599.302 3.98826 5.72349 0
M  V30 6023 H 595.199 2.75873 5.83579 0
M  V30 6024 H 595.967 4.61883 6.75726 0
M  V30 6025 N 598.631 -1.53133 0.372548 0
M  V30 6026 C 599.879 -2.00958 -0.214534 0
M  V30 6027 C 600.2 -1.26135 -1.48711 0
M  V30 6028 O 599.47 -0.376597 -1.92246 0
M  V30 6029 H 598.05 -0.742456 -0.0822664 0
M  V30 6030 H 600.712 -1.88367 0.500385 0
M  V30 6031 H 599.808 -3.09031 -0.436605 0
M  V30 6032 N 600.109 -0.101901 -1.5727 0
M  V30 6033 C 601.358 0.559922 -1.93772 0
M  V30 6034 C 601.671 1.68913 -0.98629 0
M  V30 6035 O 602.877 2.41256 -1.24529 0
M  V30 6036 C 601.333 1.04739 -3.44322 0
M  V30 6037 C 600.941 -0.05243 -4.47969 0
M  V30 6038 C 602.685 1.68157 -3.89774 0
M  V30 6039 C 600.592 0.450781 -5.8968 0
M  V30 6040 H 599.522 0.212931 -0.723309 0
M  V30 6041 H 602.173 -0.179001 -1.82625 0
M  V30 6042 H 600.555 1.84021 -3.50645 0
M  V30 6043 H 601.729 -0.828157 -4.53297 0
M  V30 6044 H 600.044 -0.592202 -4.12167 0
M  V30 6045 H 602.641 2.0689 -4.93052 0
M  V30 6046 H 602.984 2.55338 -3.28798 0
M  V30 6047 H 603.517 0.954453 -3.8618 0
M  V30 6048 H 600.256 -0.38458 -6.54371 0
M  V30 6049 H 599.776 1.19336 -5.87809 0
M  V30 6050 H 601.455 0.917555 -6.40461 0
M  V30 6051 N 601.587 1.56661 0.17182 0
M  V30 6052 C 602.827 1.83762 0.895029 0
M  V30 6053 C 603.191 0.682752 1.79451 0
M  V30 6054 O 604.392 0.834208 2.55528 0
M  V30 6055 C 602.663 3.15976 1.67015 0
M  V30 6056 S 604.222 3.64558 2.44219 0
M  V30 6057 H 601.04 0.644713 0.299778 0
M  V30 6058 H 603.642 1.94871 0.156701 0
M  V30 6059 H 602.346 3.98021 1.00039 0
M  V30 6060 H 601.877 3.07807 2.44986 0
M  V30 6061 H 603.892 3.31845 3.68909 0
M  V30 6062 N 603.065 -0.440357 1.51323 0
M  V30 6063 C 604.481 -0.7766 1.39431 0
M  V30 6064 C 604.681 -1.95838 0.474296 0
M  V30 6065 O 603.737 -2.52398 -0.0716692 0
M  V30 6066 C 605.05 -1.05981 2.81405 0
M  V30 6067 C 606.598 -1.16442 2.90534 0
M  V30 6068 C 607.073 -1.48058 4.33408 0
M  V30 6069 N 608.564 -1.54988 4.36501 0
M  V30 6070 C 609.299 -1.81017 5.44078 0
M  V30 6071 N 608.795 -2.04858 6.61819 0
M  V30 6072 N 610.588 -1.82774 5.31554 0
M  V30 6073 H 602.739 0.338006 2.09693 0
M  V30 6074 H 605.002 0.0888072 0.943831 0
M  V30 6075 H 604.708 -0.264173 3.50706 0
M  V30 6076 H 604.582 -1.98822 3.20546 0
M  V30 6077 H 606.969 -1.95068 2.21432 0
M  V30 6078 H 607.05 -0.215088 2.54894 0
M  V30 6079 H 606.694 -0.699605 5.03059 0
M  V30 6080 H 606.624 -2.44192 4.66559 0
M  V30 6081 H 609.115 -1.38479 3.51613 0
M  V30 6082 H 609.428 -2.2408 7.396 0
M  V30 6083 H 607.773 -2.02187 6.6494 0
M  V30 6084 H 610.964 -1.63665 4.38556 0
M  V30 6085 H 611.137 -2.02722 6.15474 0
M  V30 6086 N 604.543 -1.41418 -0.695603 0
M  V30 6087 C 605.453 -1.45622 -1.83933 0
M  V30 6088 C 606.469 -0.346825 -1.70508 0
M  V30 6089 O 607.645 -0.59454 -1.92424 0
M  V30 6090 C 604.71 -1.33627 -3.19914 0
M  V30 6091 C 603.771 -2.54882 -3.45447 0
M  V30 6092 C 603.004 -2.43449 -4.7494 0
M  V30 6093 O 603.227 -1.45905 -5.51424 0
M  V30 6094 O 602.161 -3.33206 -5.01256 0
M  V30 6095 H 605.987 -2.42114 -1.83342 0
M  V30 6096 H 603.572 -1.22956 -0.848658 0
M  V30 6097 H 605.454 -1.29221 -4.01098 0
M  V30 6098 H 604.129 -0.402508 -3.21188 0
M  V30 6099 H 603.036 -2.64865 -2.64192 0
M  V30 6100 H 604.369 -3.47087 -3.48987 0
M  V30 6101 N 606.021 0.929856 -1.27246 0
M  V30 6102 C 606.984 2.01172 -1.09829 0
M  V30 6103 C 607.984 1.60743 -0.0429687 0
M  V30 6104 O 609.174 1.71813 -0.287373 0
M  V30 6105 C 606.306 3.34191 -0.673003 0
M  V30 6106 H 607.499 2.18054 -2.05895 0
M  V30 6107 H 605.052 1.11036 -1.10003 0
M  V30 6108 H 605.787 3.23009 0.289134 0
M  V30 6109 H 605.572 3.64892 -1.43515 0
M  V30 6110 H 607.062 4.13646 -0.573323 0
M  V30 6111 N 607.499 1.09233 1.13605 0
M  V30 6112 C 608.739 0.836786 1.86487 0
M  V30 6113 C 609.103 -0.626191 1.81502 0
M  V30 6114 O 610.304 -0.99758 2.49603 0
M  V30 6115 C 608.575 1.35476 3.30728 0
M  V30 6116 S 610.134 1.2328 4.21126 0
M  V30 6117 H 606.952 0.302702 0.643345 0
M  V30 6118 H 609.554 1.3953 1.36936 0
M  V30 6119 H 608.258 2.41381 3.31909 0
M  V30 6120 H 607.789 0.792286 3.85339 0
M  V30 6121 H 609.804 0.182468 4.95864 0
M  V30 6122 N 608.977 -1.30795 0.87923 0
M  V30 6123 C 609.909 -2.27241 0.299025 0
M  V30 6124 C 610.922 -1.53472 -0.543166 0
M  V30 6125 O 612.111 -1.74756 -0.363651 0
M  V30 6126 C 609.211 -3.33655 -0.593931 0
M  V30 6127 C 608.384 -4.36857 0.2179 0
M  V30 6128 C 607.443 -5.22715 -0.604646 0
M  V30 6129 O 606.469 -5.69192 -0.0293838 0
M  V30 6130 N 607.671 -5.48008 -1.91488 0
M  V30 6131 H 610.436 -2.77667 1.12788 0
M  V30 6132 H 607.997 -1.43914 0.741637 0
M  V30 6133 H 609.989 -3.88013 -1.15012 0
M  V30 6134 H 608.559 -2.83202 -1.32346 0
M  V30 6135 H 607.779 -3.82444 0.955536 0
M  V30 6136 H 609.067 -5.02869 0.774614 0
M  V30 6137 H 608.465 -5.1202 -2.40525 0
M  V30 6138 H 607.022 -6.05264 -2.41864 0
M  V30 6139 N 610.455 -0.639598 -1.44038 0
M  V30 6140 C 611.701 -0.147698 -2.02261 0
M  V30 6141 C 612.034 1.23031 -1.50256 0
M  V30 6142 O 611.309 1.81847 -0.690068 0
M  V30 6143 C 611.592 -0.14362 -3.59813 0
M  V30 6144 C 611.445 -1.55458 -4.22082 0
M  V30 6145 C 612.764 0.527317 -4.36929 0
M  V30 6146 H 609.883 -0.0551453 -0.734934 0
M  V30 6147 H 612.525 -0.817688 -1.71505 0
M  V30 6148 H 610.675 0.426898 -3.86147 0
M  V30 6149 H 612.347 -2.17464 -4.06826 0
M  V30 6150 H 610.59 -2.10594 -3.79253 0
M  V30 6151 H 611.261 -1.50369 -5.31124 0
M  V30 6152 H 613.737 0.0420504 -4.16079 0
M  V30 6153 H 612.613 0.499389 -5.46624 0
M  V30 6154 H 612.874 1.59914 -4.12165 0
M  V30 6155 N 611.933 1.52934 -0.380664 0
M  V30 6156 C 613.344 1.86457 0.0952684 0
M  V30 6157 C 613.695 1.3007 1.46889 0
M  V30 6158 O 612.82 0.628636 2.07068 0
M  V30 6159 C 613.415 3.38323 0.179648 0
M  V30 6160 C 611.974 3.71589 0.599858 0
M  V30 6161 C 611.121 2.76228 -0.243572 0
M  V30 6162 H 614.072 1.46966 -0.59888 0
M  V30 6163 H 614.093 3.67113 1.00042 0
M  V30 6164 H 613.605 3.79333 -0.820228 0
M  V30 6165 H 611.706 3.36144 1.60742 0
M  V30 6166 H 611.819 4.77715 0.364003 0
M  V30 6167 H 610.183 2.53045 0.289855 0
M  V30 6168 H 610.966 3.20074 -1.24127 0
M  V30 6169 N 613.412 0.11024 1.57214 0
M  V30 6170 C 614.66 -0.548783 1.94506 0
M  V30 6171 C 614.981 -1.67772 0.99386 0
M  V30 6172 O 614.251 -1.9584 0.0485841 0
M  V30 6173 H 612.831 -0.205715 0.718116 0
M  V30 6174 H 615.493 0.177127 1.94093 0
M  V30 6175 H 614.589 -0.949096 2.97319 0
M  V30 6176 N 614.89 -1.56749 -0.16351 0
M  V30 6177 C 616.301 -1.72039 -0.725216 0
M  V30 6178 C 616.652 -0.72202 -1.82432 0
M  V30 6179 O 615.777 0.114942 -2.16095 0
M  V30 6180 C 616.372 -3.11932 -1.32227 0
M  V30 6181 C 614.931 -3.28879 -1.83072 0
M  V30 6182 C 614.078 -2.67984 -0.712716 0
M  V30 6183 H 617.029 -1.58579 0.0619772 0
M  V30 6184 H 617.05 -3.11015 -2.19202 0
M  V30 6185 H 616.562 -3.84572 -0.522103 0
M  V30 6186 H 614.663 -2.61209 -2.65708 0
M  V30 6187 H 614.776 -4.36688 -1.97079 0
M  V30 6188 H 613.14 -2.28005 -1.13515 0
M  V30 6189 H 613.923 -3.43216 0.0757361 0
M  V30 6190 N 616.368 0.432326 -1.51554 0
M  V30 6191 C 617.298 1.53242 -1.76179 0
M  V30 6192 C 618.279 1.58717 -0.611801 0
M  V30 6193 O 619.464 1.74364 -0.855033 0
M  V30 6194 C 616.594 2.91278 -1.89141 0
M  V30 6195 C 615.548 3.00663 -3.04608 0
M  V30 6196 C 614.874 4.40728 -3.02759 0
M  V30 6197 C 616.174 2.74281 -4.44485 0
M  V30 6198 H 617.868 1.32886 -2.68294 0
M  V30 6199 H 615.414 0.637841 -1.29103 0
M  V30 6200 H 617.367 3.68203 -2.04951 0
M  V30 6201 H 616.091 3.12877 -0.936785 0
M  V30 6202 H 614.75 2.26179 -2.88511 0
M  V30 6203 H 614.398 4.59301 -2.05065 0
M  V30 6204 H 614.098 4.47936 -3.80299 0
M  V30 6205 H 615.622 5.19619 -3.20669 0
M  V30 6206 H 617.036 3.40936 -4.60907 0
M  V30 6207 H 615.433 2.92893 -5.23769 0
M  V30 6208 H 616.503 1.69856 -4.54177 0
M  V30 6209 N 617.846 1.41785 0.688094 0
M  V30 6210 C 619.093 1.41544 1.44816 0
M  V30 6211 C 619.421 0.0271746 1.94481 0
M  V30 6212 O 618.676 -0.962235 1.7041 0
M  V30 6213 C 618.975 2.37532 2.67046 0
M  V30 6214 C 618.641 3.84209 2.35996 0
M  V30 6215 C 617.303 4.24165 2.27239 0
M  V30 6216 C 619.655 4.76785 2.10536 0
M  V30 6217 C 616.983 5.54695 1.91128 0
M  V30 6218 C 619.335 6.07644 1.75931 0
M  V30 6219 C 617.999 6.46613 1.65675 0
M  V30 6220 H 617.269 0.517945 0.529919 0
M  V30 6221 H 619.916 1.74635 0.785797 0
M  V30 6222 H 618.221 1.9772 3.38251 0
M  V30 6223 H 619.918 2.34615 3.25203 0
M  V30 6224 H 616.508 3.52567 2.4371 0
M  V30 6225 H 620.692 4.46714 2.16242 0
M  V30 6226 H 615.948 5.83762 1.81746 0
M  V30 6227 H 620.122 6.78874 1.55252 0
M  V30 6228 H 617.749 7.47668 1.37463 0
M  V30 6229 N 619.324 -0.923095 1.27737 0
M  V30 6230 C 620.271 -2.02432 1.1086 0
M  V30 6231 C 621.241 -1.66098 0.00835195 0
M  V30 6232 O 622.426 -1.90027 0.171542 0
M  V30 6233 C 619.566 -3.36476 0.766671 0
M  V30 6234 C 618.679 -3.85737 1.94501 0
M  V30 6235 C 617.814 -5.08249 1.54455 0
M  V30 6236 C 616.853 -5.49818 2.6901 0
M  V30 6237 N 615.99 -6.63524 2.29521 0
M  V30 6238 H 620.83 -2.16201 2.05089 0
M  V30 6239 H 618.367 -1.05909 1.02087 0
M  V30 6240 H 620.325 -4.13569 0.549223 0
M  V30 6241 H 618.955 -3.22502 -0.13867 0
M  V30 6242 H 618.007 -3.04883 2.27487 0
M  V30 6243 H 619.319 -4.12513 2.80419 0
M  V30 6244 H 618.473 -5.92857 1.28862 0
M  V30 6245 H 617.212 -4.83261 0.656534 0
M  V30 6246 H 616.217 -4.63757 2.95313 0
M  V30 6247 H 617.442 -5.76799 3.5844 0
M  V30 6248 H 615.388 -6.40185 1.43177 0
M  V30 6249 H 615.305 -6.89978 3.08977 0
M  V30 6250 H 616.573 -7.51461 2.07187 0
M  V30 6251 N 620.802 -1.09834 -1.13024 0
M  V30 6252 C 622.049 -0.83695 -1.84395 0
M  V30 6253 C 622.377 0.637463 -1.83757 0
M  V30 6254 O 621.632 1.48554 -1.27398 0
M  V30 6255 C 621.931 -1.32263 -3.32026 0
M  V30 6256 C 621.597 -2.80739 -3.52841 0
M  V30 6257 C 620.259 -3.21286 -3.5823 0
M  V30 6258 C 622.611 -3.76449 -3.60466 0
M  V30 6259 C 619.939 -4.56308 -3.68781 0
M  V30 6260 C 622.291 -5.11266 -3.72546 0
M  V30 6261 C 620.955 -5.51397 -3.76189 0
M  V30 6262 H 620.225 -0.306262 -0.674748 0
M  V30 6263 H 622.872 -1.37385 -1.33408 0
M  V30 6264 H 621.177 -0.705618 -3.85394 0
M  V30 6265 H 622.874 -1.09695 -3.85705 0
M  V30 6266 H 619.464 -2.48363 -3.49305 0
M  V30 6267 H 623.648 -3.46234 -3.55578 0
M  V30 6268 H 618.904 -4.86832 -3.69871 0
M  V30 6269 H 623.078 -5.85279 -3.77388 0
M  V30 6270 H 620.705 -6.56017 -3.84117 0
M  V30 6271 N 622.28 1.30327 -0.886154 0
M  V30 6272 C 623.527 1.96097 -0.505192 0
M  V30 6273 C 623.855 1.69952 0.945868 0
M  V30 6274 O 623.11 0.997653 1.68361 0
M  V30 6275 C 623.409 3.49906 -0.728042 0
M  V30 6276 C 623.075 3.96103 -2.15437 0
M  V30 6277 C 621.737 4.08428 -2.5444 0
M  V30 6278 C 624.089 4.20177 -3.08384 0
M  V30 6279 C 621.417 4.42189 -3.85598 0
M  V30 6280 C 623.769 4.55407 -4.39075 0
M  V30 6281 C 622.433 4.65941 -4.7797 0
M  V30 6282 H 621.703 0.71757 -0.184863 0
M  V30 6283 H 624.35 1.55171 -1.12223 0
M  V30 6284 H 622.655 3.9179 -0.027978 0
M  V30 6285 H 624.352 3.98869 -0.412862 0
M  V30 6286 H 620.942 3.87017 -1.84162 0
M  V30 6287 H 625.126 4.10134 -2.7947 0
M  V30 6288 H 620.382 4.48544 -4.15473 0
M  V30 6289 H 624.556 4.72986 -5.11133 0
M  V30 6290 H 622.183 4.91856 -5.79639 0
M  V30 6291 N 623.758 0.647228 1.43697 0
M  V30 6292 C 625.005 0.158188 2.01881 0
M  V30 6293 C 625.333 -1.22573 1.51017 0
M  V30 6294 O 624.588 -1.83086 0.69122 0
M  V30 6295 C 624.887 0.111481 3.57226 0
M  V30 6296 C 624.553 1.43633 4.27411 0
M  V30 6297 C 623.215 1.79915 4.463 0
M  V30 6298 C 625.567 2.31011 4.67208 0
M  V30 6299 C 622.895 3.03251 5.02251 0
M  V30 6300 C 625.247 3.53633 5.24525 0
M  V30 6301 C 623.911 3.90118 5.41631 0
M  V30 6302 H 623.181 0.0578851 0.738736 0
M  V30 6303 H 625.828 0.836746 1.72252 0
M  V30 6304 H 624.133 -0.650507 3.86362 0
M  V30 6305 H 625.83 -0.283682 3.99995 0
M  V30 6306 H 622.42 1.14403 4.1305 0
M  V30 6307 H 626.604 2.04272 4.52313 0
M  V30 6308 H 621.86 3.31575 5.13681 0
M  V30 6309 H 626.034 4.21561 5.5431 0
M  V30 6310 H 623.661 4.85768 5.84751 0
M  V30 6311 N 625.236 -1.5273 0.388769 0
M  V30 6312 C 626.482 -2.02545 -0.186351 0
M  V30 6313 C 626.837 -1.27017 -1.44514 0
M  V30 6314 O 626.13 -0.361948 -1.8815 0
M  V30 6315 C 626.324 -3.53765 -0.508445 0
M  V30 6316 C 626.153 -4.43938 0.71758 0
M  V30 6317 C 624.923 -4.89933 1.23668 0
M  V30 6318 C 627.121 -4.89113 1.58974 0
M  V30 6319 N 625.103 -5.64176 2.42031 0
M  V30 6320 C 626.474 -5.61931 2.61979 0
M  V30 6321 C 628.529 -4.71155 1.60989 0
M  V30 6322 C 627.232 -6.18698 3.66886 0
M  V30 6323 C 629.258 -5.28804 2.64803 0
M  V30 6324 C 628.62 -6.01527 3.6653 0
M  V30 6325 H 624.719 -0.781413 -0.0302921 0
M  V30 6326 H 627.303 -1.87104 0.538539 0
M  V30 6327 H 625.474 -3.6932 -1.20239 0
M  V30 6328 H 627.206 -3.9028 -1.07067 0
M  V30 6329 H 623.961 -4.66833 0.797763 0
M  V30 6330 H 624.385 -6.05949 3.01919 0
M  V30 6331 H 629.027 -4.14435 0.836881 0
M  V30 6332 H 626.745 -6.74501 4.45055 0
M  V30 6333 H 630.331 -5.1679 2.67245 0
M  V30 6334 H 629.211 -6.45339 4.45542 0
M  V30 6335 N 626.714 -0.118576 -1.57153 0
M  V30 6336 C 627.963 0.539339 -1.94355 0
M  V30 6337 C 628.276 1.67858 -1.00415 0
M  V30 6338 O 629.482 2.39922 -1.27081 0
M  V30 6339 C 627.938 1.01082 -3.45414 0
M  V30 6340 C 627.546 -0.0999402 -4.47889 0
M  V30 6341 C 629.29 1.64013 -3.91535 0
M  V30 6342 C 627.197 0.388212 -5.90124 0
M  V30 6343 H 626.127 0.205247 -0.725527 0
M  V30 6344 H 628.778 -0.19836 -1.82425 0
M  V30 6345 H 627.16 1.80292 -3.52577 0
M  V30 6346 H 628.334 -0.876189 -4.52393 0
M  V30 6347 H 626.649 -0.635885 -4.11516 0
M  V30 6348 H 629.246 2.01649 -4.95219 0
M  V30 6349 H 629.589 2.51836 -3.31488 0
M  V30 6350 H 630.122 0.913439 -3.87171 0
M  V30 6351 H 626.861 -0.453963 -6.53926 0
M  V30 6352 H 626.381 1.13095 -5.89041 0
M  V30 6353 H 628.06 0.849574 -6.41398 0
M  V30 6354 N 628.193 1.56834 0.155195 0
M  V30 6355 C 629.441 1.82536 0.867462 0
M  V30 6356 C 629.762 0.698168 1.82073 0
M  V30 6357 O 629.032 -0.280807 1.93877 0
M  V30 6358 H 627.612 0.673401 0.323327 0
M  V30 6359 H 630.274 1.94313 0.151156 0
M  V30 6360 H 629.37 2.77171 1.43466 0
M  V30 6361 N 629.671 -0.424282 1.51781 0
M  V30 6362 C 630.901 -1.19297 1.68677 0
M  V30 6363 C 631.309 -1.85152 0.389258 0
M  V30 6364 O 630.652 -1.72067 -0.643311 0
M  V30 6365 C 630.714 -2.30929 2.75521 0
M  V30 6366 C 630.378 -1.85335 4.17732 0
M  V30 6367 C 631.375 -1.34951 5.0208 0
M  V30 6368 C 629.06 -1.92629 4.63896 0
M  V30 6369 C 631.054 -0.924636 6.30658 0
M  V30 6370 C 628.741 -1.49754 5.92467 0
M  V30 6371 C 629.739 -0.997543 6.75676 0
M  V30 6372 O 629.427 -0.57492 8.01842 0
M  V30 6373 H 629.159 -0.36512 0.568914 0
M  V30 6374 H 631.713 -0.507327 1.99036 0
M  V30 6375 H 629.943 -3.02811 2.40505 0
M  V30 6376 H 631.632 -2.92748 2.81165 0
M  V30 6377 H 632.398 -1.287 4.67612 0
M  V30 6378 H 628.277 -2.30491 3.99243 0
M  V30 6379 H 631.821 -0.533682 6.95556 0
M  V30 6380 H 627.718 -1.55679 6.26446 0
M  V30 6381 H 628.486 -0.699597 8.15505 0
M  V30 6382 N 631.149 -1.42148 -0.680565 0
M  V30 6383 C 632.389 -1.4379 -1.45271 0
M  V30 6384 C 632.753 -0.0504426 -1.91934 0
M  V30 6385 O 633.954 0.0583916 -2.68737 0
M  V30 6386 C 632.225 -2.42904 -2.62168 0
M  V30 6387 S 633.784 -2.63201 -3.51099 0
M  V30 6388 H 630.602 -0.509185 -0.496237 0
M  V30 6389 H 633.204 -1.78706 -0.792744 0
M  V30 6390 H 631.908 -3.4249 -2.26116 0
M  V30 6391 H 631.439 -2.09394 -3.33043 0
M  V30 6392 H 633.454 -1.91068 -4.57938 0
M  V30 6393 N 632.627 0.916307 -1.28225 0
M  V30 6394 C 633.575 2.03977 -1.11786 0
M  V30 6395 C 634.569 1.69358 -0.0378265 0
M  V30 6396 O 635.775 1.78925 -0.196405 0
M  V30 6397 H 632.15 0.66829 -0.344809 0
M  V30 6398 H 634.121 2.14985 -2.06939 0
M  V30 6399 C 632.87 3.38518 -0.7938 0
M  V30 6400 H 632.193 3.65649 -1.61682 0
M  V30 6401 H 633.633 4.17864 -0.718719 0
M  V30 6402 C 632.092 3.33134 0.502353 0
M  V30 6403 O 632.622 3.71281 1.53341 0
M  V30 6404 N 630.828 2.86229 0.502147 0
M  V30 6405 H 630.375 2.55382 -0.337338 0
M  V30 6406 H 630.333 2.83009 1.36942 0
M  V30 6407 N 634.105 1.10431 1.1244 0
M  V30 6408 C 635.33 0.869089 1.88313 0
M  V30 6409 C 635.755 -0.574912 1.79099 0
M  V30 6410 O 635.113 -1.40496 1.14589 0
M  V30 6411 C 635.161 1.32208 3.3549 0
M  V30 6412 O 634.265 0.487092 4.09513 0
M  V30 6413 H 633.606 0.313894 0.585121 0
M  V30 6414 H 636.136 1.47111 1.42195 0
M  V30 6415 H 636.146 1.31201 3.86329 0
M  V30 6416 H 634.821 2.37364 3.41513 0
M  V30 6417 H 633.398 0.562372 3.68635 0
M  V30 6418 N 635.583 -1.29855 0.893053 0
M  V30 6419 C 636.808 -2.00512 0.530066 0
M  V30 6420 C 637.233 -1.66446 -0.876199 0
M  V30 6421 O 636.591 -0.885446 -1.58207 0
M  V30 6422 C 636.639 -3.53308 0.721505 0
M  V30 6423 O 635.743 -4.11764 -0.228994 0
M  V30 6424 H 635.084 -0.630617 0.207891 0
M  V30 6425 H 637.614 -1.6551 1.20282 0
M  V30 6426 H 637.624 -4.03206 0.623599 0
M  V30 6427 H 636.299 -3.77439 1.74678 0
M  V30 6428 H 634.876 -3.72805 -0.0841034 0
M  V30 6429 N 637.061 -0.65484 -1.43351 0
M  V30 6430 C 637.991 0.0221809 -2.33489 0
M  V30 6431 C 638.972 0.810272 -1.49561 0
M  V30 6432 O 640.157 0.771426 -1.78221 0
M  V30 6433 C 637.287 0.988117 -3.32947 0
M  V30 6434 C 636.241 0.310026 -4.26876 0
M  V30 6435 C 635.567 1.38752 -5.16384 0
M  V30 6436 C 636.867 -0.798589 -5.16159 0
M  V30 6437 H 638.561 -0.730571 -2.9035 0
M  V30 6438 H 636.107 -0.352773 -1.39612 0
M  V30 6439 H 638.06 1.47067 -3.94904 0
M  V30 6440 H 636.784 1.77205 -2.74346 0
M  V30 6441 H 635.443 -0.152097 -3.66284 0
M  V30 6442 H 635.091 2.16293 -4.54121 0
M  V30 6443 H 634.791 0.939051 -5.80048 0
M  V30 6444 H 636.315 1.87141 -5.81215 0
M  V30 6445 H 637.729 -0.398126 -5.71916 0
M  V30 6446 H 636.126 -1.17163 -5.88552 0
M  V30 6447 H 637.196 -1.65588 -4.55751 0
M  V30 6448 N 638.539 1.52521 -0.396863 0
M  V30 6449 C 639.487 2.28217 0.44943 0
M  V30 6450 C 640.481 1.32416 1.05652 0
M  V30 6451 O 641.687 1.49925 0.996124 0
M  V30 6452 H 638.062 0.733966 0.1637 0
M  V30 6453 H 640.033 2.97658 -0.210367 0
M  V30 6454 C 638.782 3.10713 1.56054 0
M  V30 6455 H 638.105 3.84291 1.10273 0
M  V30 6456 H 639.545 3.66803 2.12677 0
M  V30 6457 C 638.004 2.23499 2.52091 0
M  V30 6458 O 638.534 1.8669 3.55682 0
M  V30 6459 N 636.74 1.8751 2.2201 0
M  V30 6460 H 636.287 2.17643 1.37802 0
M  V30 6461 H 636.245 1.29448 2.86514 0
M  V30 6462 N 640.017 0.126909 1.57088 0
M  V30 6463 C 641.428 -0.397201 1.82426 0
M  V30 6464 C 641.779 -1.66084 1.04453 0
M  V30 6465 O 640.904 -2.14534 0.283552 0
M  V30 6466 C 641.499 -0.727411 3.30899 0
M  V30 6467 C 640.058 -1.19612 3.56889 0
M  V30 6468 C 639.205 -0.20885 2.76512 0
M  V30 6469 H 642.156 0.351924 1.54749 0
M  V30 6470 H 642.177 -1.58407 3.45959 0
M  V30 6471 H 641.689 0.19247 3.87622 0
M  V30 6472 H 639.79 -2.13263 3.05532 0
M  V30 6473 H 639.903 -1.13598 4.65438 0
M  V30 6474 H 638.267 -0.697479 2.44964 0
M  V30 6475 H 639.05 0.704267 3.35998 0
M  V30 6476 N 641.495 -1.56914 -0.146875 0
M  V30 6477 C 642.741 -1.83628 -0.860741 0
M  V30 6478 C 643.074 -0.708528 -1.80813 0
M  V30 6479 O 642.349 0.287838 -1.92358 0
M  V30 6480 C 642.632 -3.20836 -1.63511 0
M  V30 6481 C 642.485 -4.44174 -0.709199 0
M  V30 6482 C 643.804 -3.55268 -2.59756 0
M  V30 6483 H 640.923 -0.667949 -0.311468 0
M  V30 6484 H 643.565 -1.89582 -0.125936 0
M  V30 6485 H 641.715 -3.15891 -2.26153 0
M  V30 6486 H 643.387 -4.61205 -0.0937781 0
M  V30 6487 H 641.63 -4.33796 -0.0187856 0
M  V30 6488 H 642.301 -5.36785 -1.28707 0
M  V30 6489 H 644.777 -3.60824 -2.07232 0
M  V30 6490 H 643.653 -4.52303 -3.10987 0
M  V30 6491 H 643.914 -2.81231 -3.41118 0
M  V30 6492 N 642.974 0.416227 -1.52004 0
M  V30 6493 C 644.223 1.16088 -1.64944 0
M  V30 6494 C 644.536 1.91835 -0.381928 0
M  V30 6495 O 645.742 2.6867 -0.391013 0
M  V30 6496 C 644.198 2.1124 -2.91386 0
M  V30 6497 C 643.806 1.41042 -4.25219 0
M  V30 6498 C 645.55 2.86008 -3.13688 0
M  V30 6499 C 643.457 2.34801 -5.42791 0
M  V30 6500 H 642.387 0.437041 -0.61442 0
M  V30 6501 H 645.038 0.425971 -1.78487 0
M  V30 6502 H 643.42 2.88254 -2.71525 0
M  V30 6503 H 644.594 0.694416 -4.55538 0
M  V30 6504 H 642.909 0.78344 -4.08964 0
M  V30 6505 H 645.506 3.56286 -3.98703 0
M  V30 6506 H 645.849 3.48556 -2.27628 0
M  V30 6507 H 646.382 2.16095 -3.33988 0
M  V30 6508 H 643.121 1.7691 -6.31176 0
M  V30 6509 H 642.641 3.04395 -5.16821 0
M  V30 6510 H 644.32 2.9548 -5.75587 0
M  V30 6511 N 644.452 1.42507 0.673017 0
M  V30 6512 C 645.682 1.46261 1.45916 0
M  V30 6513 C 646.09 0.0729724 1.89059 0
M  V30 6514 O 645.433 -0.922987 1.58829 0
M  V30 6515 C 645.495 2.32853 2.73898 0
M  V30 6516 C 645.159 3.80699 2.52819 0
M  V30 6517 C 646.156 4.72307 2.17306 0
M  V30 6518 C 643.841 4.24983 2.67758 0
M  V30 6519 C 645.835 6.06192 1.97003 0
M  V30 6520 C 643.522 5.58927 2.4707 0
M  V30 6521 C 644.52 6.49348 2.11746 0
M  V30 6522 O 644.208 7.80817 1.91259 0
M  V30 6523 H 643.94 0.499561 0.455428 0
M  V30 6524 H 646.494 1.87697 0.834196 0
M  V30 6525 H 644.724 1.86268 3.38882 0
M  V30 6526 H 646.413 2.28041 3.35786 0
M  V30 6527 H 647.179 4.39378 2.05359 0
M  V30 6528 H 643.058 3.54893 2.94231 0
M  V30 6529 H 646.602 6.76731 1.69355 0
M  V30 6530 H 642.499 5.91429 2.58615 0
M  V30 6531 H 643.267 7.92194 2.05843 0
M  V30 6532 N 645.93 -0.909495 1.28709 0
M  V30 6533 C 647.158 -1.69272 1.18973 0
M  V30 6534 C 647.573 -1.87123 -0.251048 0
M  V30 6535 O 646.93 -1.40127 -1.16922 0
M  V30 6536 C 646.981 -3.08257 1.88839 0
M  V30 6537 O 646.702 -2.91228 3.27289 0
M  V30 6538 C 648.203 -4.02642 1.85457 0
M  V30 6539 H 645.423 -0.528999 0.412797 0
M  V30 6540 H 647.967 -1.13803 1.69909 0
M  V30 6541 H 646.122 -3.6053 1.41762 0
M  V30 6542 H 646.536 -3.79223 3.6234 0
M  V30 6543 H 648.01 -4.97613 2.38925 0
M  V30 6544 H 648.487 -4.31327 0.827893 0
M  V30 6545 H 649.093 -3.56298 2.32233 0
M  V30 6546 N 647.408 -1.11026 -1.11852 0
M  V30 6547 C 648.654 -0.857729 -1.83768 0
M  V30 6548 C 648.987 0.615143 -1.842 0
M  V30 6549 O 648.262 1.45391 -1.29196 0
M  V30 6550 C 648.545 -1.41453 -3.31154 0
M  V30 6551 C 648.398 -2.95471 -3.39142 0
M  V30 6552 C 649.717 -1.0619 -4.27097 0
M  V30 6553 H 646.836 -0.313044 -0.667212 0
M  V30 6554 H 649.478 -1.37443 -1.31185 0
M  V30 6555 H 647.628 -0.975052 -3.76065 0
M  V30 6556 H 649.3 -3.4799 -3.02821 0
M  V30 6557 H 647.543 -3.31759 -2.79497 0
M  V30 6558 H 648.214 -3.29515 -4.42859 0
M  V30 6559 H 650.69 -1.44122 -3.90344 0
M  V30 6560 H 649.566 -1.47832 -5.28618 0
M  V30 6561 H 649.827 0.0278912 -4.42091 0
M  V30 6562 N 648.886 1.2938 -0.899927 0
M  V30 6563 C 650.133 1.9555 -0.525963 0
M  V30 6564 C 650.461 1.70945 0.927789 0
M  V30 6565 O 649.716 1.01545 1.67293 0
M  V30 6566 C 650.015 3.49114 -0.765113 0
M  V30 6567 C 649.681 3.93796 -2.19626 0
M  V30 6568 C 648.343 4.05707 -2.58758 0
M  V30 6569 C 650.695 4.16883 -3.12823 0
M  V30 6570 C 648.023 4.38074 -3.90267 0
M  V30 6571 C 650.375 4.50725 -4.4388 0
M  V30 6572 C 649.039 4.60845 -4.82885 0
M  V30 6573 H 648.309 0.715569 -0.192463 0
M  V30 6574 H 650.956 1.53972 -1.13863 0
M  V30 6575 H 649.261 3.91738 -0.069531 0
M  V30 6576 H 650.958 3.98409 -0.455144 0
M  V30 6577 H 647.548 3.85042 -1.88256 0
M  V30 6578 H 651.732 4.07147 -2.83804 0
M  V30 6579 H 646.988 4.44112 -4.20207 0
M  V30 6580 H 651.162 4.67538 -5.16121 0
M  V30 6581 H 648.789 4.85681 -5.84823 0
M  V30 6582 N 650.364 0.662433 1.43002 0
M  V30 6583 C 651.312 -0.035345 2.32573 0
M  V30 6584 C 652.306 -0.803505 1.49131 0
M  V30 6585 O 653.512 -0.712865 1.65282 0
M  V30 6586 H 649.887 -0.0302194 0.751393 0
M  V30 6587 H 651.858 0.737686 2.89138 0
M  V30 6588 C 650.607 -0.981575 3.33557 0
M  V30 6589 H 649.93 -0.399914 3.97795 0
M  V30 6590 H 651.37 -1.43873 3.98844 0
M  V30 6591 C 649.829 -2.08204 2.64863 0
M  V30 6592 O 650.359 -3.16698 2.47113 0
M  V30 6593 N 648.565 -1.85022 2.24088 0
M  V30 6594 H 648.112 -0.967909 2.38724 0
M  V30 6595 H 648.07 -2.58845 1.78457 0
M  V30 6596 N 651.842 -1.52309 0.404946 0
M  V30 6597 C 652.774 -2.24579 -0.45791 0
M  V30 6598 C 653.787 -1.2739 -1.01369 0
M  V30 6599 O 654.976 -1.53363 -0.91335 0
M  V30 6600 C 652.076 -2.9608 -1.64893 0
M  V30 6601 C 651.249 -4.20106 -1.21777 0
M  V30 6602 C 650.308 -4.74468 -2.27523 0
M  V30 6603 O 649.334 -5.37157 -1.88285 0
M  V30 6604 N 650.536 -4.55678 -3.59635 0
M  V30 6605 H 653.301 -2.99265 0.161341 0
M  V30 6606 H 650.862 -1.60228 0.232107 0
M  V30 6607 H 652.854 -3.29344 -2.35191 0
M  V30 6608 H 651.424 -2.24606 -2.17419 0
M  V30 6609 H 650.644 -3.92704 -0.343071 0
M  V30 6610 H 651.932 -5.00658 -0.906596 0
M  V30 6611 H 651.33 -4.05673 -3.94266 0
M  V30 6612 H 649.887 -4.9339 -4.25922 0
M  V30 6613 N 653.32 -0.135238 -1.57019 0
M  V30 6614 C 654.597 0.563227 -1.87316 0
M  V30 6615 C 654.977 1.83749 -1.03921 0
M  V30 6616 O 654.325 2.2817 -0.122675 0
M  V30 6617 C 654.535 0.840031 -3.3874 0
M  V30 6618 C 655.883 1.18598 -4.077 0
M  V30 6619 O 656.907 0.92977 -3.43851 0
M  V30 6620 O 655.766 1.66758 -5.20436 0
M  V30 6621 H 652.86 0.285971 -0.775983 0
M  V30 6622 H 655.406 -0.170965 -1.68837 0
M  V30 6623 H 654.178 -0.0622785 -3.9125 0
M  V30 6624 H 653.801 1.62882 -3.62706 0
M  V30 6625 N 654.798 1.5699 0.138552 0
M  V30 6626 C 656.045 1.83809 0.849732 0
M  V30 6627 C 656.373 0.717409 1.80786 0
M  V30 6628 O 655.628 -0.292897 1.93496 0
M  V30 6629 C 655.927 3.17007 1.65049 0
M  V30 6630 C 655.593 4.43037 0.838398 0
M  V30 6631 C 654.255 4.77262 0.614385 0
M  V30 6632 C 656.607 5.20495 0.271044 0
M  V30 6633 C 653.935 5.864 -0.187552 0
M  V30 6634 C 656.287 6.30476 -0.517979 0
M  V30 6635 C 654.951 6.63245 -0.75249 0
M  V30 6636 H 654.221 0.672605 0.310939 0
M  V30 6637 H 656.868 1.91166 0.112971 0
M  V30 6638 H 655.173 3.05138 2.4576 0
M  V30 6639 H 656.87 3.34975 2.20437 0
M  V30 6640 H 653.46 4.16211 1.02307 0
M  V30 6641 H 657.644 4.94422 0.431371 0
M  V30 6642 H 652.9 6.10226 -0.378659 0
M  V30 6643 H 657.074 6.89686 -0.964694 0
M  V30 6644 H 654.701 7.47648 -1.37573 0
M  V30 6645 N 656.276 -0.40816 1.52223 0
M  V30 6646 C 657.692 -0.74685 1.41047 0
M  V30 6647 C 657.892 -1.94788 0.51573 0
M  V30 6648 O 656.948 -2.52494 -0.0181156 0
M  V30 6649 C 658.261 -0.999878 2.83589 0
M  V30 6650 C 659.809 -1.10253 2.92939 0
M  V30 6651 C 660.284 -1.38832 4.36451 0
M  V30 6652 N 661.775 -1.45694 4.3969 0
M  V30 6653 C 662.51 -1.69435 5.47795 0
M  V30 6654 N 662.006 -1.90774 6.66016 0
M  V30 6655 N 663.799 -1.71458 5.35312 0
M  V30 6656 H 655.95 0.382409 2.08929 0
M  V30 6657 H 658.213 0.108807 0.941735 0
M  V30 6658 H 657.919 -0.189723 3.51188 0
M  V30 6659 H 657.793 -1.91978 3.24691 0
M  V30 6660 H 660.18 -1.90328 2.2552 0
M  V30 6661 H 660.261 -0.160973 2.55293 0
M  V30 6662 H 659.905 -0.592741 5.04429 0
M  V30 6663 H 659.835 -2.34241 4.71634 0
M  V30 6664 H 662.326 -1.3099 3.54472 0
M  V30 6665 H 662.639 -2.08342 7.44186 0
M  V30 6666 H 660.984 -1.88037 6.69079 0
M  V30 6667 H 664.175 -1.54326 4.41929 0
M  V30 6668 H 664.348 -1.89621 6.19635 0
M  V30 6669 N 657.755 -1.42862 -0.66545 0
M  V30 6670 C 659.171 -1.25993 -0.979687 0
M  V30 6671 C 659.371 -0.170831 -2.00775 0
M  V30 6672 O 658.427 0.454827 -2.4837 0
M  V30 6673 C 659.74 -2.62005 -1.47559 0
M  V30 6674 C 661.288 -2.69437 -1.59288 0
M  V30 6675 C 661.763 -4.05838 -2.12272 0
M  V30 6676 N 663.254 -4.0784 -2.19592 0
M  V30 6677 C 663.989 -5.10205 -2.61684 0
M  V30 6678 N 663.485 -6.22949 -3.03161 0
M  V30 6679 N 665.278 -4.9756 -2.61516 0
M  V30 6680 H 657.429 -2.12395 0.0150493 0
M  V30 6681 H 659.692 -0.946355 -0.0558187 0
M  V30 6682 H 659.398 -3.42605 -0.794654 0
M  V30 6683 H 659.272 -2.86566 -2.45275 0
M  V30 6684 H 661.659 -1.89178 -2.26486 0
M  V30 6685 H 661.74 -2.48655 -0.600374 0
M  V30 6686 H 661.384 -4.86559 -1.4568 0
M  V30 6687 H 661.314 -4.23977 -3.12331 0
M  V30 6688 H 663.805 -3.26452 -1.90361 0
M  V30 6689 H 664.118 -6.96899 -3.33993 0
M  V30 6690 H 662.463 -6.2644 -3.00995 0
M  V30 6691 H 665.654 -4.08551 -2.28481 0
M  V30 6692 H 665.827 -5.77468 -2.93999 0
M  V30 6693 N 659.233 0.902656 -1.29189 0
M  V30 6694 C 660.458 1.69167 -1.19989 0
M  V30 6695 C 660.883 1.86607 0.236495 0
M  V30 6696 O 660.241 1.38425 1.17082 0
M  V30 6697 C 660.289 3.05532 -1.91527 0
M  V30 6698 O 659.393 3.93621 -1.2303 0
M  V30 6699 H 658.734 0.517584 -0.415936 0
M  V30 6700 H 661.264 1.12785 -1.70706 0
M  V30 6701 H 661.274 3.55693 -1.99866 0
M  V30 6702 H 659.949 2.92156 -2.96003 0
M  V30 6703 H 658.526 3.52055 -1.22928 0
M  V30 6704 N 660.711 1.11618 1.11262 0
M  V30 6705 C 661.958 0.86618 1.8304 0
M  V30 6706 C 662.286 -0.608149 1.84748 0
M  V30 6707 O 661.541 -1.46508 1.29745 0
M  V30 6708 C 661.84 1.37529 3.2988 0
M  V30 6709 C 661.506 2.86317 3.4833 0
M  V30 6710 C 660.168 3.26945 3.53073 0
M  V30 6711 C 662.52 3.82136 3.54431 0
M  V30 6712 C 659.848 4.62117 3.61475 0
M  V30 6713 C 662.2 5.17128 3.64365 0
M  V30 6714 C 660.864 5.57312 3.67369 0
M  V30 6715 H 660.134 0.316958 0.66979 0
M  V30 6716 H 662.781 1.3949 1.31205 0
M  V30 6717 H 661.086 0.766842 3.84222 0
M  V30 6718 H 662.783 1.15817 3.83911 0
M  V30 6719 H 659.373 2.53889 3.45309 0
M  V30 6720 H 663.557 3.51847 3.50025 0
M  V30 6721 H 658.813 4.92655 3.62079 0
M  V30 6722 H 662.987 5.91208 3.68029 0
M  V30 6723 H 660.614 6.62045 3.73632 0
M  V30 6724 N 662.189 -1.289 0.906776 0
M  V30 6725 C 663.136 -2.2751 0.388313 0
M  V30 6726 C 664.106 -1.57301 -0.533439 0
M  V30 6727 O 665.291 -1.85243 -0.457148 0
M  V30 6728 C 662.431 -3.43091 -0.37181 0
M  V30 6729 C 661.544 -4.28066 0.581647 0
M  V30 6730 C 660.679 -5.30837 -0.19623 0
M  V30 6731 C 659.718 -6.07472 0.751294 0
M  V30 6732 N 658.855 -7.021 0.00737727 0
M  V30 6733 H 663.695 -2.71237 1.23428 0
M  V30 6734 H 661.232 -1.33397 0.619962 0
M  V30 6735 H 663.19 -4.08888 -0.828641 0
M  V30 6736 H 661.82 -3.00374 -1.18218 0
M  V30 6737 H 660.872 -3.62378 1.157 0
M  V30 6738 H 662.184 -4.81382 1.30665 0
M  V30 6739 H 661.338 -6.02485 -0.71394 0
M  V30 6740 H 660.077 -4.78272 -0.954324 0
M  V30 6741 H 659.082 -5.34682 1.28044 0
M  V30 6742 H 660.307 -6.62126 1.50883 0
M  V30 6743 H 658.253 -6.51894 -0.732854 0
M  V30 6744 H 658.17 -7.53004 0.672334 0
M  V30 6745 H 659.438 -7.77956 -0.490365 0
M  V30 6746 N 663.667 -0.670007 -1.42649 0
M  V30 6747 C 664.617 0.0339546 -2.27975 0
M  V30 6748 C 665.601 0.778295 -1.40824 0
M  V30 6749 O 666.793 0.657997 -1.64315 0
M  V30 6750 C 663.922 0.987899 -3.28779 0
M  V30 6751 C 663.008 0.241153 -4.23414 0
M  V30 6752 N 663.399 -0.751392 -5.00188 0
M  V30 6753 C 661.697 0.480269 -4.43407 0
M  V30 6754 C 662.398 -1.19615 -5.69269 0
M  V30 6755 N 661.374 -0.527045 -5.41039 0
M  V30 6756 H 665.176 -0.727425 -2.84756 0
M  V30 6757 H 662.69 -0.498673 -1.54554 0
M  V30 6758 H 664.687 1.50716 -3.88703 0
M  V30 6759 H 663.347 1.74916 -2.73559 0
M  V30 6760 H 664.358 -1.13075 -5.05405 0
M  V30 6761 H 661.035 1.2214 -3.99234 0
M  V30 6762 H 662.425 -2.01836 -6.40868 0
M  V30 6763 N 665.145 1.52092 -0.413018 0
M  V30 6764 C 666.394 2.01041 0.16287 0
M  V30 6765 C 666.707 1.30288 1.45892 0
M  V30 6766 O 667.913 1.70075 2.11629 0
M  V30 6767 C 666.369 3.58283 0.340806 0
M  V30 6768 C 665.977 4.37955 -0.943377 0
M  V30 6769 C 667.721 4.15452 0.871774 0
M  V30 6770 C 665.628 5.86847 -0.732417 0
M  V30 6771 H 664.558 0.751224 0.0646414 0
M  V30 6772 H 667.209 1.75404 -0.539059 0
M  V30 6773 H 665.591 3.80266 1.10516 0
M  V30 6774 H 666.765 4.2773 -1.71418 0
M  V30 6775 H 665.08 3.92122 -1.40105 0
M  V30 6776 H 667.677 5.24375 1.0457 0
M  V30 6777 H 668.02 3.73057 1.84755 0
M  V30 6778 H 668.553 3.97452 0.166377 0
M  V30 6779 H 665.292 6.33609 -1.67986 0
M  V30 6780 H 664.812 5.998 -0.000980058 0
M  V30 6781 H 666.491 6.45906 -0.376105 0
M  V30 6782 N 666.623 0.143563 1.56945 0
M  V30 6783 C 667.553 -0.7936 2.196 0
M  V30 6784 C 668.534 -1.25955 1.14321 0
M  V30 6785 O 669.719 -1.31773 1.42651 0
M  V30 6786 C 666.849 -2.03424 2.81489 0
M  V30 6787 C 665.803 -1.70519 3.92565 0
M  V30 6788 C 665.129 -3.01817 4.41373 0
M  V30 6789 C 666.429 -0.95449 5.13504 0
M  V30 6790 H 668.123 -0.271423 2.98167 0
M  V30 6791 H 665.669 -0.12911 1.4342 0
M  V30 6792 H 667.622 -2.69463 3.23987 0
M  V30 6793 H 666.346 -2.58008 2.00248 0
M  V30 6794 H 665.005 -1.06859 3.5068 0
M  V30 6795 H 664.653 -3.54386 3.56959 0
M  V30 6796 H 664.353 -2.80565 5.16292 0
M  V30 6797 H 665.877 -3.68934 4.86539 0
M  V30 6798 H 667.291 -1.5169 5.52868 0
M  V30 6799 H 665.688 -0.842035 5.94163 0
M  V30 6800 H 666.758 0.0544033 4.84869 0
M  V30 6801 N 668.101 -1.57061 -0.130224 0
M  V30 6802 C 669.348 -1.84257 -0.839972 0
M  V30 6803 C 669.676 -0.726986 -1.80403 0
M  V30 6804 O 668.931 0.282632 -1.93648 0
M  V30 6805 C 669.23 -3.17878 -1.63365 0
M  V30 6806 C 668.896 -4.43475 -0.814891 0
M  V30 6807 C 667.558 -4.77581 -0.589066 0
M  V30 6808 C 669.91 -5.20631 -0.243437 0
M  V30 6809 C 667.238 -5.86292 0.218648 0
M  V30 6810 C 669.59 -6.30192 0.551408 0
M  V30 6811 C 668.254 -6.62837 0.787653 0
M  V30 6812 H 667.524 -0.674245 -0.307367 0
M  V30 6813 H 670.171 -1.91224 -0.102832 0
M  V30 6814 H 668.476 -3.06437 -2.44138 0
M  V30 6815 H 670.173 -3.3614 -2.18658 0
M  V30 6816 H 666.763 -4.16747 -1.00098 0
M  V30 6817 H 670.947 -4.94644 -0.405145 0
M  V30 6818 H 666.203 -6.10017 0.411016 0
M  V30 6819 H 670.377 -6.89165 1.00126 0
M  V30 6820 H 668.004 -7.46908 1.41537 0
M  V30 6821 N 669.579 0.400081 -1.52437 0
M  V30 6822 C 670.995 0.739359 -1.41441 0
M  V30 6823 C 671.195 1.94512 -0.526053 0
M  V30 6824 O 670.251 2.525 0.00472502 0
M  V30 6825 C 671.564 0.984824 -2.84116 0
M  V30 6826 C 673.112 1.08698 -2.93519 0
M  V30 6827 C 673.587 1.36515 -4.37181 0
M  V30 6828 N 675.078 1.43361 -4.40457 0
M  V30 6829 C 675.813 1.66528 -5.48686 0
M  V30 6830 N 675.309 1.87239 -6.67018 0
M  V30 6831 N 677.102 1.68617 -5.36213 0
M  V30 6832 H 669.253 -0.393484 -2.08723 0
M  V30 6833 H 671.516 -0.1138 -0.941145 0
M  V30 6834 H 671.222 0.171096 -3.51284 0
M  V30 6835 H 671.096 1.90253 -3.25705 0
M  V30 6836 H 673.483 1.89129 -2.26526 0
M  V30 6837 H 673.564 0.147432 -2.55375 0
M  V30 6838 H 673.208 0.565982 -5.04737 0
M  V30 6839 H 673.138 2.31737 -4.7287 0
M  V30 6840 H 675.629 1.29108 -3.55161 0
M  V30 6841 H 675.942 2.04392 -7.45281 0
M  V30 6842 H 674.287 1.84486 -6.70067 0
M  V30 6843 H 677.478 1.5198 -4.42741 0
M  V30 6844 H 677.651 1.86332 -6.20632 0
M  V30 6845 N 671.057 1.43213 0.657864 0
M  V30 6846 C 672.473 1.26511 0.972992 0
M  V30 6847 C 672.673 0.181477 2.00681 0
M  V30 6848 O 671.729 -0.441649 2.48608 0
M  V30 6849 C 673.042 2.62784 1.46168 0
M  V30 6850 C 674.59 2.70278 1.57857 0
M  V30 6851 C 675.065 4.06958 2.10117 0
M  V30 6852 N 676.556 4.08999 2.17426 0
M  V30 6853 C 677.291 5.11585 2.58975 0
M  V30 6854 N 676.787 6.24548 2.99853 0
M  V30 6855 N 678.58 4.9894 2.58873 0
M  V30 6856 H 670.731 2.12384 -0.0263129 0
M  V30 6857 H 672.994 0.946638 0.0507992 0
M  V30 6858 H 672.7 3.43022 0.776474 0
M  V30 6859 H 672.574 2.87863 2.43751 0
M  V30 6860 H 674.961 1.90376 2.25479 0
M  V30 6861 H 675.042 2.4897 0.587179 0
M  V30 6862 H 674.686 4.87325 1.43098 0
M  V30 6863 H 674.616 4.25628 3.10078 0
M  V30 6864 H 677.107 3.27457 1.88627 0
M  V30 6865 H 677.42 6.98661 3.30292 0
M  V30 6866 H 675.765 6.28027 2.97669 0
M  V30 6867 H 678.956 4.09757 2.26311 0
M  V30 6868 H 679.129 5.79019 2.90932 0
M  V30 6869 N 672.536 -0.895792 1.29666 0
M  V30 6870 C 673.952 -1.17726 1.07763 0
M  V30 6871 C 674.152 -2.00794 -0.168576 0
M  V30 6872 O 673.208 -2.37213 -0.865244 0
M  V30 6873 C 674.521 -1.89441 2.33522 0
M  V30 6874 C 676.069 -2.02251 2.3888 0
M  V30 6875 C 676.544 -2.77378 3.64452 0
M  V30 6876 N 678.035 -2.8493 3.65198 0
M  V30 6877 C 678.77 -3.43606 4.59045 0
M  V30 6878 N 678.266 -4.03417 5.63228 0
M  V30 6879 N 680.059 -3.41317 4.46608 0
M  V30 6880 H 672.21 -0.341652 2.09634 0
M  V30 6881 H 674.473 -0.213865 0.923561 0
M  V30 6882 H 674.179 -1.35842 3.24407 0
M  V30 6883 H 674.053 -2.89893 2.41334 0
M  V30 6884 H 676.44 -2.55025 1.4848 0
M  V30 6885 H 676.521 -1.0092 2.3505 0
M  V30 6886 H 676.165 -2.25279 4.55205 0
M  V30 6887 H 676.095 -3.79062 3.65541 0
M  V30 6888 H 678.586 -2.42453 2.89871 0
M  V30 6889 H 678.899 -4.46224 6.30955 0
M  V30 6890 H 677.244 -4.01868 5.67033 0
M  V30 6891 H 680.435 -2.93812 3.64407 0
M  V30 6892 H 680.608 -3.86751 5.1993 0
M  V30 6893 N 674.014 -1.12206 -1.10668 0
M  V30 6894 C 675.43 -0.857619 -1.346 0
M  V30 6895 C 675.63 0.513542 -1.94846 0
M  V30 6896 O 674.686 1.26273 -2.18658 0
M  V30 6897 C 675.999 -1.97212 -2.26998 0
M  V30 6898 C 677.547 -2.00272 -2.40542 0
M  V30 6899 C 678.022 -3.10948 -3.36267 0
M  V30 6900 N 679.513 -3.10375 -3.43834 0
M  V30 6901 C 680.248 -3.92651 -4.17867 0
M  V30 6902 N 679.744 -4.84911 -4.94807 0
M  V30 6903 N 681.537 -3.80798 -4.1346 0
M  V30 6904 H 673.688 -2.00558 -0.699306 0
M  V30 6905 H 675.951 -0.872612 -0.370477 0
M  V30 6906 H 675.657 -2.96002 -1.89936 0
M  V30 6907 H 675.531 -1.87521 -3.27286 0
M  V30 6908 H 677.918 -1.02103 -2.76874 0
M  V30 6909 H 677.999 -2.14037 -1.40077 0
M  V30 6910 H 677.643 -4.09348 -3.00661 0
M  V30 6911 H 677.573 -2.94421 -4.36605 0
M  V30 6912 H 680.064 -2.43536 -2.88961 0
M  V30 6913 H 680.377 -5.44207 -5.48688 0
M  V30 6914 H 678.722 -4.88926 -4.93939 0
M  V30 6915 H 681.913 -3.08058 -3.52445 0
M  V30 6916 H 682.086 -4.4515 -4.70898 0
M  V30 6917 N 675.492 1.28418 -0.913599 0
M  V30 6918 C 676.908 1.47411 -0.611728 0
M  V30 6919 C 677.108 1.83018 0.843008 0
M  V30 6920 O 676.164 1.93505 1.6221 0
M  V30 6921 C 677.477 2.57703 -1.5495 0
M  V30 6922 C 679.025 2.71572 -1.5562 0
M  V30 6923 C 679.5 3.85008 -2.48058 0
M  V30 6924 N 680.991 3.92361 -2.46184 0
M  V30 6925 C 681.726 4.79516 -3.14407 0
M  V30 6926 N 681.222 5.71262 -3.91958 0
M  V30 6927 N 683.015 4.73125 -3.03495 0
M  V30 6928 H 675.166 1.03585 -1.85429 0
M  V30 6929 H 677.429 0.515907 -0.795326 0
M  V30 6930 H 677.135 2.38298 -2.58663 0
M  V30 6931 H 677.009 3.54801 -1.28048 0
M  V30 6932 H 679.396 2.90366 -0.526441 0
M  V30 6933 H 679.477 1.75006 -1.86565 0
M  V30 6934 H 679.121 3.66969 -3.51136 0
M  V30 6935 H 679.051 4.80971 -2.14416 0
M  V30 6936 H 681.542 3.26749 -1.89851 0
M  V30 6937 H 681.855 6.34593 -4.41034 0
M  V30 6938 H 680.2 5.71103 -3.96063 0
M  V30 6939 H 683.391 4.00442 -2.42413 0
M  V30 6940 H 683.564 5.40834 -3.56935 0
M  V30 6941 N 676.97 0.677563 1.42291 0
M  V30 6942 C 678.218 0.200578 2.01102 0
M  V30 6943 C 678.539 -1.19803 1.53858 0
M  V30 6944 O 677.809 -1.80496 0.761439 0
M  V30 6945 H 676.389 0.0711634 0.743603 0
M  V30 6946 H 679.051 0.874691 1.7417 0
M  V30 6947 H 678.147 0.204 3.11433 0
M  V30 6948 N 678.448 -1.51871 0.421078 0
M  V30 6949 C 679.695 -2.01938 -0.15079 0
M  V30 6950 C 680.023 -1.30611 -1.44121 0
M  V30 6951 O 679.278 -0.404631 -1.91471 0
M  V30 6952 C 679.577 -3.54764 -0.433292 0
M  V30 6953 C 679.243 -4.44288 0.76936 0
M  V30 6954 C 677.905 -4.68477 1.09921 0
M  V30 6955 C 680.257 -4.96915 1.57242 0
M  V30 6956 C 677.585 -5.4254 2.2331 0
M  V30 6957 C 679.937 -5.7222 2.69716 0
M  V30 6958 C 678.601 -5.94678 3.03174 0
M  V30 6959 H 677.871 -0.738943 -0.0551781 0
M  V30 6960 H 680.518 -1.82977 0.564945 0
M  V30 6961 H 678.823 -3.71968 -1.23074 0
M  V30 6962 H 680.52 -3.91023 -0.888922 0
M  V30 6963 H 677.11 -4.25646 0.502305 0
M  V30 6964 H 681.294 -4.78125 1.3308 0
M  V30 6965 H 676.55 -5.58146 2.49565 0
M  V30 6966 H 680.724 -6.11992 3.32323 0
M  V30 6967 H 678.351 -6.51848 3.9115 0
M  V30 6968 N 679.926 -0.151884 -1.56866 0
M  V30 6969 C 681.342 0.204486 -1.58285 0
M  V30 6970 C 681.542 1.6431 -1.16639 0
M  V30 6971 O 680.598 2.37077 -0.868946 0
M  V30 6972 C 681.911 -0.0587019 -3.00643 0
M  V30 6973 C 683.459 0.00462303 -3.13 0
M  V30 6974 C 683.934 -0.231297 -4.57416 0
M  V30 6975 N 685.425 -0.178394 -4.62856 0
M  V30 6976 C 686.16 -0.335379 -5.72418 0
M  V30 6977 N 685.656 -0.550355 -6.90611 0
M  V30 6978 N 687.449 -0.272641 -5.61438 0
M  V30 6979 H 679.6 -1.09116 -1.82229 0
M  V30 6980 H 681.863 -0.432311 -0.843689 0
M  V30 6981 H 681.569 -1.05453 -3.35518 0
M  V30 6982 H 681.443 0.658508 -3.71407 0
M  V30 6983 H 683.83 0.991009 -2.77962 0
M  V30 6984 H 683.911 -0.744992 -2.44711 0
M  V30 6985 H 683.555 -1.2148 -4.93158 0
M  V30 6986 H 683.485 0.5387 -5.23837 0
M  V30 6987 H 685.976 -0.0170923 -3.77896 0
M  V30 6988 H 686.289 -0.660116 -7.69976 0
M  V30 6989 H 684.634 -0.586736 -6.92519 0
M  V30 6990 H 687.825 -0.105421 -4.67981 0
M  V30 6991 H 687.998 -0.398418 -6.46774 0
M  V30 6992 N 681.404 1.57128 0.121893 0
M  V30 6993 C 682.336 1.96773 1.17529 0
M  V30 6994 C 683.349 0.866668 1.37814 0
M  V30 6995 O 684.538 1.14497 1.3694 0
M  V30 6996 C 681.638 2.24832 2.53582 0
M  V30 6997 C 680.811 3.56138 2.53939 0
M  V30 6998 C 679.87 3.72443 3.71716 0
M  V30 6999 O 678.896 4.44584 3.55434 0
M  V30 7000 N 680.098 3.10993 4.90167 0
M  V30 7001 H 682.863 2.87743 0.838086 0
M  V30 7002 H 680.424 1.58881 0.311199 0
M  V30 7003 H 682.416 2.32958 3.30927 0
M  V30 7004 H 680.986 1.40002 2.79496 0
M  V30 7005 H 680.206 3.59226 1.62329 0
M  V30 7006 H 681.494 4.42448 2.51231 0
M  V30 7007 H 680.892 2.52345 5.06299 0
M  V30 7008 H 679.449 3.24644 5.65198 0
M  V30 7009 O 682.921 -0.266262 1.5929 0
M  V30 7010 H 683.612 -0.91096 1.70942 0
M  V30 END ATOM
M  V30 BEGIN BOND
M  V30 END BOND
M  V30 END CTAB
M  END
$$$$
