drugbank_target|P05067 Amyloid beta A4 protein (DB00746; DB01370; DB01593; DB02235; DB02709; DB03754; DB04892; DB05088; DB05150; DB05846; DB05938; DB06782; DB09130; DB09148; DB09149; DB09151; DB14487; DB14517; DB14518; DB14533; DB14548)
 OpenBabel12092120313D

  0  0  0     0  0            999 V3000
M  V30 BEGIN CTAB
M  V30 COUNTS 11937 12055 0 0 0
M  V30 BEGIN ATOM
M  V30 1 H -0.908 1.98254 -0.117106 0
M  V30 2 N 0 1.576 0 0
M  V30 3 C 0.933 2.03868 1.02534 0
M  V30 4 C 1.911 0.928543 1.3348 0
M  V30 5 O 3.095 1.19667 1.45644 0
M  V30 6 C 0.222 2.43627 2.35294 0
M  V30 7 C -0.732 3.65373 2.2001 0
M  V30 8 S 0.101 5.13292 1.52614 0
M  V30 9 C 1.257 5.56322 2.86805 0
M  V30 10 H 1.49 2.90518 0.631377 0
M  V30 11 H -0.977 1.52953 0.210867 0
M  V30 12 H 0.981 2.67203 3.11629 0
M  V30 13 H -0.358 1.57376 2.7183 0
M  V30 14 H -1.165 3.90944 3.18086 0
M  V30 15 H -1.563 3.418 1.51819 0
M  V30 16 H 0.729 5.58782 3.83104 0
M  V30 17 H 1.672 6.56266 2.65933 0
M  V30 18 H 2.08 4.83886 2.90714 0
M  V30 19 N 1.4781 -0.272755 1.55222 0
M  V30 20 C 2.4081 -1.34136 1.91127 0
M  V30 21 C 3.3891 -1.51513 0.773168 0
M  V30 22 O 4.5741 -1.64552 1.03132 0
M  V30 23 C 1.7041 -2.70083 2.1834 0
M  V30 24 C 0.6581 -2.67437 3.34158 0
M  V30 25 C -0.0159 -4.06938 3.46851 0
M  V30 26 C 1.2841 -2.26686 4.70543 0
M  V30 27 H 2.9781 -1.04333 2.80633 0
M  V30 28 H 0.5241 -0.500454 1.35024 0
M  V30 29 H 2.4771 -3.44952 2.42046 0
M  V30 30 H 1.2011 -3.01469 1.25634 0
M  V30 31 H -0.1399 -1.95026 3.1042 0
M  V30 32 H -0.4919 -4.35547 2.51611 0
M  V30 33 H -0.7919 -4.06062 4.2472 0
M  V30 34 H 0.7321 -4.83545 3.72849 0
M  V30 35 H 2.1461 -2.91277 4.93792 0
M  V30 36 H 0.5431 -2.36971 5.5133 0
M  V30 37 H 1.6131 -1.21818 4.69349 0
M  V30 38 N 2.9562 -1.48159 -0.537278 0
M  V30 39 C 4.3672 -1.49429 -1.11928 0
M  V30 40 C 4.7182 -0.26 -1.9447 0
M  V30 41 O 3.8432 0.633489 -2.0692 0
M  V30 42 C 4.4382 -2.70758 -2.03656 0
M  V30 43 C 2.9972 -2.74923 -2.57088 0
M  V30 44 C 2.1442 -2.42835 -1.3389 0
M  V30 45 H 5.0952 -1.55381 -0.322886 0
M  V30 46 H 5.1162 -2.48861 -2.87834 0
M  V30 47 H 4.6282 -3.60575 -1.43553 0
M  V30 48 H 2.7292 -1.89296 -3.20933 0
M  V30 49 H 2.8422 -3.76157 -2.9672 0
M  V30 50 H 1.2062 -1.93836 -1.65226 0
M  V30 51 H 1.9892 -3.34884 -0.755504 0
M  V30 52 N 4.4343 0.785586 -1.36625 0
M  V30 53 C 5.6823 1.54057 -1.30808 0
M  V30 54 C 6.0033 1.94683 0.111157 0
M  V30 55 O 5.2733 1.65241 1.05224 0
M  V30 56 H 3.8533 0.571354 -0.481211 0
M  V30 57 H 6.5153 0.935821 -1.70963 0
M  V30 58 H 5.6113 2.44637 -1.93801 0
M  V30 59 N 5.9124 1.20967 1.01018 0
M  V30 60 C 6.8424 0.988272 2.11555 0
M  V30 61 C 7.8234 -0.0849778 1.69888 0
M  V30 62 O 9.0084 0.0738202 1.9406 0
M  V30 63 C 6.1384 0.546528 3.42973 0
M  V30 64 C 5.0924 1.56375 3.9841 0
M  V30 65 C 4.4184 0.97842 5.25672 0
M  V30 66 C 5.7184 2.94922 4.31066 0
M  V30 67 H 7.4124 1.91276 2.30334 0
M  V30 68 H 4.9584 0.921073 1.1069 0
M  V30 69 H 6.9114 0.378839 4.19694 0
M  V30 70 H 5.6354 -0.413598 3.23971 0
M  V30 71 H 4.2944 1.71891 3.23804 0
M  V30 72 H 3.9424 0.0101688 5.02999 0
M  V30 73 H 3.6424 1.65784 5.63728 0
M  V30 74 H 5.1664 0.821939 6.05043 0
M  V30 75 H 6.5804 2.8288 4.9865 0
M  V30 76 H 4.9774 3.5983 4.80253 0
M  V30 77 H 6.0474 3.4616 3.39561 0
M  V30 78 N 7.3905 -1.2043 1.01659 0
M  V30 79 C 8.3535 -2.21433 0.591616 0
M  V30 80 C 9.3535 -1.57203 -0.338226 0
M  V30 81 O 10.5435 -1.73737 -0.126918 0
M  V30 82 C 7.6755 -3.40628 -0.136058 0
M  V30 83 H 8.8685 -2.60545 1.48514 0
M  V30 84 H 6.4215 -1.33893 0.806379 0
M  V30 85 H 7.1565 -3.07019 -1.04449 0
M  V30 86 H 6.9415 -3.88475 0.531917 0
M  V30 87 H 8.4315 -4.15475 -0.420735 0
M  V30 88 N 8.8686 -0.792821 -1.36206 0
M  V30 89 C 9.7986 -0.207853 -2.32573 0
M  V30 90 C 10.7796 0.659055 -1.56813 0
M  V30 91 O 11.9646 0.592176 -1.84951 0
M  V30 92 C 9.0946 0.655449 -3.41059 0
M  V30 93 C 8.0486 -0.111842 -4.27854 0
M  V30 94 C 7.3746 0.872274 -5.27537 0
M  V30 95 C 8.6746 -1.30299 -5.05786 0
M  V30 96 H 10.3686 -1.01294 -2.81744 0
M  V30 97 H 7.9146 -0.48854 -1.3546 0
M  V30 98 H 9.8676 1.07464 -4.07467 0
M  V30 99 H 8.5916 1.49328 -2.90463 0
M  V30 100 H 7.2506 -0.512053 -3.63006 0
M  V30 101 H 6.8986 1.70523 -4.73214 0
M  V30 102 H 6.5986 0.363291 -5.86476 0
M  V30 103 H 8.1226 1.28996 -5.96818 0
M  V30 104 H 9.5366 -0.959379 -5.65216 0
M  V30 105 H 7.9336 -1.7455 -5.74154 0
M  V30 106 H 9.0036 -2.09663 -4.37229 0
M  V30 107 N 10.3467 1.47872 -0.545128 0
M  V30 108 C 11.2767 2.32661 0.197793 0
M  V30 109 C 12.2577 1.43041 0.920504 0
M  V30 110 O 13.4427 1.71912 0.90333 0
M  V30 111 C 10.5727 3.24569 1.23582 0
M  V30 112 C 9.5267 4.23333 0.630323 0
M  V30 113 C 8.8527 5.0448 1.77211 0
M  V30 114 C 10.1527 5.20704 -0.407974 0
M  V30 115 H 11.8467 2.95024 -0.510045 0
M  V30 116 H 9.3927 1.4187 -0.246731 0
M  V30 117 H 11.3457 3.8272 1.76362 0
M  V30 118 H 10.0697 2.60236 1.97344 0
M  V30 119 H 8.7287 3.6639 0.123922 0
M  V30 120 H 8.3767 4.36561 2.49847 0
M  V30 121 H 8.0767 5.71339 1.37281 0
M  V30 122 H 9.6007 5.65487 2.3034 0
M  V30 123 H 11.0147 5.7329 0.033305 0
M  V30 124 H 9.4117 5.95699 -0.725486 0
M  V30 125 H 10.4817 4.66917 -1.30828 0
M  V30 126 N 11.8248 0.280983 1.55075 0
M  V30 127 C 12.7548 -0.597469 2.25727 0
M  V30 128 C 13.7358 -1.15417 1.24952 0
M  V30 129 O 14.9208 -1.18722 1.53684 0
M  V30 130 C 12.0508 -1.7789 2.98283 0
M  V30 131 C 11.0048 -1.35347 4.06036 0
M  V30 132 C 10.3308 -2.61846 4.66198 0
M  V30 133 C 11.6308 -0.499354 5.19907 0
M  V30 134 H 13.3248 -0.00824265 2.99399 0
M  V30 135 H 10.8708 -0.0025244 1.44 0
M  V30 136 H 12.8238 -2.39937 3.46422 0
M  V30 137 H 11.5478 -2.39405 2.22155 0
M  V30 138 H 10.2068 -0.756156 3.58717 0
M  V30 139 H 9.8548 -3.21632 3.86732 0
M  V30 140 H 9.5548 -2.3409 5.38958 0
M  V30 141 H 11.0788 -3.24732 5.1709 0
M  V30 142 H 12.4928 -1.02498 5.64063 0
M  V30 143 H 10.8898 -0.316424 5.99265 0
M  V30 144 H 11.9598 0.480459 4.82514 0
M  V30 145 N 13.3029 -1.57598 0.00835791 0
M  V30 146 C 14.2329 -2.1198 -0.979113 0
M  V30 147 C 15.2139 -1.03091 -1.35301 0
M  V30 148 O 16.3989 -1.30818 -1.43528 0
M  V30 149 C 13.5289 -2.62995 -2.26828 0
M  V30 150 C 12.4829 -3.76485 -2.03576 0
M  V30 151 C 11.8089 -4.13846 -3.38579 0
M  V30 152 C 13.1089 -5.0342 -1.39161 0
M  V30 153 H 14.8029 -2.94738 -0.526281 0
M  V30 154 H 12.3489 -1.41783 -0.251704 0
M  V30 155 H 14.3019 -2.99669 -2.96271 0
M  V30 156 H 13.0259 -1.7737 -2.7424 0
M  V30 157 H 11.6849 -3.40217 -1.36557 0
M  V30 158 H 11.3329 -3.25232 -3.83709 0
M  V30 159 H 11.0329 -4.90312 -3.23834 0
M  V30 160 H 12.5569 -4.53086 -4.09323 0
M  V30 161 H 13.9709 -5.37812 -1.98573 0
M  V30 162 H 12.3679 -5.84746 -1.34878 0
M  V30 163 H 13.4379 -4.83548 -0.361868 0
M  V30 164 N 14.781 0.264519 -1.55364 0
M  V30 165 C 15.744 1.31046 -1.88042 0
M  V30 166 C 16.744 1.41943 -0.755569 0
M  V30 167 O 17.934 1.40947 -1.02369 0
M  V30 168 C 15.066 2.69067 -2.09323 0
M  V30 169 H 16.259 1.03297 -2.81549 0
M  V30 170 H 13.812 0.502989 -1.47986 0
M  V30 171 H 14.547 3.01982 -1.18226 0
M  V30 172 H 14.332 2.62542 -2.91229 0
M  V30 173 H 15.822 3.44623 -2.35848 0
M  V30 174 N 16.2591 1.48442 0.529413 0
M  V30 175 C 17.2221 1.62524 1.61612 0
M  V30 176 C 18.2221 0.498509 1.52877 0
M  V30 177 O 19.4121 0.76431 1.56537 0
M  V30 178 C 16.5441 1.59597 3.01233 0
M  V30 179 H 17.7371 2.59423 1.50465 0
M  V30 180 H 15.2901 1.37047 0.751514 0
M  V30 181 H 16.0251 0.641781 3.17886 0
M  V30 182 H 15.8101 2.41397 3.08982 0
M  V30 183 H 17.3001 1.72646 3.80241 0
M  V30 184 N 17.7372 -0.778329 1.37039 0
M  V30 185 C 18.9832 -1.53817 1.33086 0
M  V30 186 C 19.3382 -1.92208 -0.0860346 0
M  V30 187 O 18.6312 -1.60713 -1.04316 0
M  V30 188 C 18.8252 -2.81845 2.19768 0
M  V30 189 C 18.6542 -2.55967 3.69744 0
M  V30 190 C 17.4242 -2.50428 4.38878 0
M  V30 191 C 19.6222 -2.2441 4.62758 0
M  V30 192 N 17.6042 -2.16564 5.74433 0
M  V30 193 C 18.9752 -2.0063 5.86641 0
M  V30 194 C 21.0302 -2.1051 4.5121 0
M  V30 195 C 19.7332 -1.64354 7.00272 0
M  V30 196 C 21.7592 -1.75634 5.64718 0
M  V30 197 C 21.1212 -1.52709 6.87648 0
M  V30 198 H 17.2202 -0.563434 0.542279 0
M  V30 199 H 19.8042 -0.908617 1.72198 0
M  V30 200 H 17.9752 -3.42649 1.82883 0
M  V30 201 H 19.7072 -3.47682 2.07122 0
M  V30 202 H 16.4622 -2.66056 3.91805 0
M  V30 203 H 16.8862 -2.02348 6.46053 0
M  V30 204 H 21.5282 -2.26919 3.56746 0
M  V30 205 H 19.2462 -1.46683 7.94676 0
M  V30 206 H 22.8322 -1.65546 5.57751 0
M  V30 207 H 21.7122 -1.2612 7.73992 0
M  V30 208 N 19.2153 -1.21501 -1.00376 0
M  V30 209 C 20.4433 -1.059 -1.77744 0
M  V30 210 C 20.8583 0.391125 -1.84704 0
M  V30 211 O 20.2153 1.27133 -1.30933 0
M  V30 212 C 20.2663 -1.65111 -3.21591 0
M  V30 213 O 19.9873 -3.0445 -3.15027 0
M  V30 214 C 21.4883 -1.54637 -4.15454 0
M  V30 215 H 18.7083 -0.371825 -0.558558 0
M  V30 216 H 21.2523 -1.60865 -1.26264 0
M  V30 217 H 19.4073 -1.14235 -3.70175 0
M  V30 218 H 19.8213 -3.3278 -4.0541 0
M  V30 219 H 21.2953 -2.00808 -5.14179 0
M  V30 220 H 21.7723 -0.501022 -4.36333 0
M  V30 221 H 22.3783 -2.04767 -3.72761 0
M  V30 222 N 20.6934 1.19889 -1.02296 0
M  V30 223 C 21.6564 2.21116 -0.603351 0
M  V30 224 C 22.6564 1.5738 0.329884 0
M  V30 225 O 23.8464 1.73802 0.117702 0
M  V30 226 C 20.9784 3.40696 0.117992 0
M  V30 227 H 22.1714 2.59754 -1.49893 0
M  V30 228 H 19.7244 1.33463 -0.813468 0
M  V30 229 H 20.4594 3.07569 1.0282 0
M  V30 230 H 20.2444 3.88188 -0.552511 0
M  V30 231 H 21.7344 4.15692 0.398696 0
M  V30 232 N 22.1715 0.800033 1.35784 0
M  V30 233 C 23.5875 0.482977 1.52117 0
M  V30 234 C 23.7875 -0.996948 1.75109 0
M  V30 235 O 22.8435 -1.78216 1.78872 0
M  V30 236 C 24.1565 1.32264 2.70049 0
M  V30 237 C 25.7045 1.31742 2.83924 0
M  V30 238 C 26.1795 2.14106 4.04874 0
M  V30 239 N 27.6705 2.11607 4.12039 0
M  V30 240 C 28.4055 2.72099 5.04727 0
M  V30 241 N 27.9015 3.41492 6.02789 0
M  V30 242 N 29.6945 2.61776 4.97423 0
M  V30 243 H 21.8455 1.75856 1.19115 0
M  V30 244 H 24.1085 0.748122 0.582252 0
M  V30 245 H 23.8145 2.37261 2.59616 0
M  V30 246 H 23.6885 0.971303 3.6448 0
M  V30 247 H 26.0755 0.275333 2.93813 0
M  V30 248 H 26.1565 1.70859 1.9037 0
M  V30 249 H 25.8005 3.18351 3.95746 0
M  V30 250 H 25.7305 1.72353 4.97596 0
M  V30 251 H 28.2215 1.61112 3.41835 0
M  V30 252 H 28.5345 3.84953 6.70098 0
M  V30 253 H 26.8795 3.45596 6.02983 0
M  V30 254 H 30.0705 2.07157 4.19766 0
M  V30 255 H 30.2435 3.0921 5.69468 0
M  V30 256 N 23.6496 -1.47581 0.552962 0
M  V30 257 C 24.6126 -2.28439 -0.186605 0
M  V30 258 C 25.6126 -1.36706 -0.84665 0
M  V30 259 O 26.8026 -1.59378 -0.703164 0
M  V30 260 C 23.9346 -3.16264 -1.2724 0
M  V30 261 H 25.1276 -2.95294 0.523609 0
M  V30 262 H 22.6806 -1.532 0.309745 0
M  V30 263 H 23.4156 -2.54091 -2.01514 0
M  V30 264 H 23.2006 -3.83769 -0.803968 0
M  V30 265 H 24.6906 -3.77198 -1.79196 0
M  V30 266 N 25.1277 -0.289203 -1.54924 0
M  V30 267 C 26.0577 0.58549 -2.2604 0
M  V30 268 C 27.0387 1.14753 -1.25562 0
M  V30 269 O 28.2237 1.17906 -1.54311 0
M  V30 270 C 25.3537 1.76305 -2.99222 0
M  V30 271 C 24.3077 1.33191 -4.06748 0
M  V30 272 C 23.6337 2.5937 -4.6758 0
M  V30 273 C 24.9337 0.471775 -5.20165 0
M  V30 274 H 26.6277 -0.00763532 -2.99399 0
M  V30 275 H 24.1737 -0.00511229 -1.43999 0
M  V30 276 H 26.1267 2.38097 -3.47689 0
M  V30 277 H 24.8507 2.38223 -2.23422 0
M  V30 278 H 23.5097 0.737121 -3.59113 0
M  V30 279 H 23.1577 3.19576 -3.88433 0
M  V30 280 H 22.8577 2.31228 -5.40192 0
M  V30 281 H 24.3817 3.21985 -5.18804 0
M  V30 282 H 25.7957 0.995056 -5.64599 0
M  V30 283 H 24.1927 0.284639 -5.99425 0
M  V30 284 H 25.2627 -0.506041 -4.82252 0
M  V30 285 N 26.6058 1.57591 -0.0167156 0
M  V30 286 C 27.5158 2.1291 0.98521 0
M  V30 287 C 28.5318 1.07834 1.36557 0
M  V30 288 O 29.7078 1.39826 1.44951 0
M  V30 289 C 26.7728 2.63512 2.25305 0
M  V30 290 C 25.8338 3.83256 1.93426 0
M  V30 291 C 25.0668 4.31435 3.14165 0
M  V30 292 O 25.2898 3.78851 4.26413 0
M  V30 293 O 24.2238 5.23416 2.97186 0
M  V30 294 H 28.0498 2.98772 0.544888 0
M  V30 295 H 25.6348 1.48012 0.203141 0
M  V30 296 H 27.5168 2.96183 2.99756 0
M  V30 297 H 26.1918 1.8074 2.68542 0
M  V30 298 H 25.0988 3.55531 1.16398 0
M  V30 299 H 26.4318 4.67153 1.55013 0
M  V30 300 N 28.0839 -0.256276 1.55502 0
M  V30 301 C 29.3299 -0.987079 1.77157 0
M  V30 302 C 29.6629 -1.85327 0.580315 0
M  V30 303 O 28.9379 -1.89874 -0.421686 0
M  V30 304 C 29.2209 -1.85553 3.08613 0
M  V30 305 C 29.0739 -1.01816 4.38125 0
M  V30 306 C 30.3929 -2.8397 3.36228 0
M  V30 307 H 27.5119 -0.357428 0.644526 0
M  V30 308 H 30.1539 -0.258239 1.88237 0
M  V30 309 H 28.3039 -2.47695 2.99298 0
M  V30 310 H 29.9759 -0.416159 4.59419 0
M  V30 311 H 28.2189 -0.322178 4.32602 0
M  V30 312 H 28.8899 -1.65939 5.26468 0
M  V30 313 H 31.3659 -2.31964 3.45445 0
M  V30 314 H 30.2419 -3.41864 4.29442 0
M  V30 315 H 30.5029 -3.59955 2.56681 0
M  V30 316 N 29.562 -1.4872 -0.521534 0
M  V30 317 C 30.973 -1.50607 -1.10337 0
M  V30 318 C 31.324 -0.280612 -1.94183 0
M  V30 319 O 30.449 0.611507 -2.0758 0
M  V30 320 C 31.044 -2.72903 -2.00772 0
M  V30 321 C 29.603 -2.77634 -2.54158 0
M  V30 322 C 28.75 -2.44241 -1.31307 0
M  V30 323 H 31.701 -1.55714 -0.306388 0
M  V30 324 H 31.722 -2.519 -2.85178 0
M  V30 325 H 31.234 -3.62077 -1.39721 0
M  V30 326 H 29.335 -1.92689 -3.18907 0
M  V30 327 H 29.448 -3.79283 -2.92714 0
M  V30 328 H 27.812 -1.95577 -1.63161 0
M  V30 329 H 28.595 -3.35666 -0.719943 0
M  V30 330 N 31.0401 0.771051 -1.3745 0
M  V30 331 C 32.2681 1.56015 -1.35893 0
M  V30 332 C 32.6831 1.88718 0.0555523 0
M  V30 333 O 32.0401 1.51502 1.01752 0
M  V30 334 C 32.0911 2.87001 -2.19801 0
M  V30 335 O 31.8121 2.557 -3.55738 0
M  V30 336 C 33.3131 3.81228 -2.26231 0
M  V30 337 H 30.5331 0.483317 -0.465453 0
M  V30 338 H 33.0771 0.955611 -1.80799 0
M  V30 339 H 31.2321 3.43877 -1.78402 0
M  V30 340 H 31.6461 3.39584 -3.99729 0
M  V30 341 H 33.1201 4.70139 -2.89263 0
M  V30 342 H 33.5971 4.20409 -1.27093 0
M  V30 343 H 34.2031 3.30281 -2.67945 0
M  V30 344 N 32.5182 1.22032 0.997298 0
M  V30 345 C 33.7952 0.950823 1.70935 0
M  V30 346 C 34.1752 -0.535292 2.042 0
M  V30 347 O 33.5232 -1.50217 1.72183 0
M  V30 348 C 33.7332 1.84386 2.96315 0
M  V30 349 C 35.0812 2.09732 3.69185 0
M  V30 350 O 36.1052 1.81798 3.06314 0
M  V30 351 O 34.9642 2.57018 4.82291 0
M  V30 352 H 32.0582 0.357204 0.745878 0
M  V30 353 H 34.6042 1.32997 1.05404 0
M  V30 354 H 33.3762 2.84928 2.68201 0
M  V30 355 H 32.9992 1.46602 3.69586 0
M  V30 356 N 33.9963 -1.19345 1.0293 0
M  V30 357 C 35.2443 -1.88665 0.724574 0
M  V30 358 C 35.5653 -1.80036 -0.749144 0
M  V30 359 O 34.8353 -1.2111 -1.53978 0
M  V30 360 H 33.4153 -0.698406 0.265025 0
M  V30 361 H 36.0773 -1.44885 1.30362 0
M  V30 362 H 35.1733 -2.94987 1.01926 0
M  V30 363 N 35.4744 -0.807222 -1.35358 0
M  V30 364 C 36.4224 -0.20614 -2.31685 0
M  V30 365 C 37.4164 0.644445 -1.56663 0
M  V30 366 O 38.6224 0.537538 -1.71786 0
M  V30 367 H 34.9974 -0.0479006 -0.750473 0
M  V30 368 H 36.9684 -1.03369 -2.79924 0
M  V30 369 C 35.7174 0.630212 -3.41941 0
M  V30 370 H 35.0404 -0.0149558 -3.99797 0
M  V30 371 H 36.4804 1.01716 -4.11619 0
M  V30 372 C 34.9394 1.79601 -2.85035 0
M  V30 373 O 35.4694 2.89351 -2.78637 0
M  V30 374 N 33.6754 1.60774 -2.42074 0
M  V30 375 H 33.2224 0.715009 -2.47478 0
M  V30 376 H 33.1804 2.38933 -2.04349 0
M  V30 377 N 36.9525 1.47285 -0.560781 0
M  V30 378 C 37.9155 2.28535 0.174488 0
M  V30 379 C 38.9155 1.37153 0.839388 0
M  V30 380 O 40.1055 1.59748 0.694702 0
M  V30 381 C 37.2375 3.16934 1.25561 0
M  V30 382 H 38.4305 2.95012 -0.539262 0
M  V30 383 H 35.9835 1.53034 -0.317865 0
M  V30 384 H 36.7185 2.55157 2.00164 0
M  V30 385 H 36.5035 3.8419 0.783604 0
M  V30 386 H 37.9935 3.78143 1.77193 0
M  V30 387 N 38.4306 0.297415 1.54768 0
M  V30 388 C 39.6786 -0.312295 1.99673 0
M  V30 389 C 39.9996 -1.54686 1.18732 0
M  V30 390 O 39.2696 -1.93854 0.282382 0
M  V30 391 H 37.8496 -0.118381 0.73756 0
M  V30 392 H 40.5116 0.407915 1.90583 0
M  V30 393 H 39.6076 -0.586813 3.06534 0
M  V30 394 N 39.9087 -1.5758 0.0250728 0
M  V30 395 C 40.8387 -2.13007 -0.956575 0
M  V30 396 C 41.8197 -1.0452 -1.342 0
M  V30 397 O 43.0047 -1.32332 -1.42133 0
M  V30 398 C 40.1347 -2.65386 -2.24026 0
M  V30 399 C 39.0887 -3.78623 -1.99571 0
M  V30 400 C 38.4147 -4.17414 -3.3417 0
M  V30 401 C 39.7147 -5.04867 -1.33814 0
M  V30 402 H 41.4087 -2.9528 -0.494991 0
M  V30 403 H 38.9547 -1.42042 -0.236651 0
M  V30 404 H 40.9077 -3.02794 -2.93076 0
M  V30 405 H 39.6317 -1.80268 -2.72343 0
M  V30 406 H 38.2907 -3.41646 -1.32941 0
M  V30 407 H 37.9387 -3.29284 -3.80238 0
M  V30 408 H 37.6387 -4.93719 -3.18615 0
M  V30 409 H 39.1627 -4.57402 -4.04495 0
M  V30 410 H 40.5767 -5.39888 -1.92857 0
M  V30 411 H 38.9737 -5.86144 -1.28669 0
M  V30 412 H 40.0437 -4.83904 -0.310561 0
M  V30 413 N 41.3868 0.248026 -1.55636 0
M  V30 414 C 42.3168 1.31079 -1.93237 0
M  V30 415 C 43.2978 1.50264 -0.797174 0
M  V30 416 O 44.4828 1.62891 -1.05737 0
M  V30 417 C 41.6128 2.66575 -2.22609 0
M  V30 418 C 40.5668 2.62087 -3.3837 0
M  V30 419 C 39.8928 4.01369 -3.53281 0
M  V30 420 C 41.1928 2.19171 -4.7409 0
M  V30 421 H 42.8868 0.998556 -2.82257 0
M  V30 422 H 40.4328 0.47891 -1.35803 0
M  V30 423 H 42.3858 3.41057 -2.47503 0
M  V30 424 H 41.1098 2.99432 -1.30414 0
M  V30 425 H 39.7688 1.90063 -3.13483 0
M  V30 426 H 39.4168 4.31489 -2.58508 0
M  V30 427 H 39.1168 3.99254 -4.31127 0
M  V30 428 H 40.6408 4.77552 -3.80495 0
M  V30 429 H 42.0548 2.83384 -4.98363 0
M  V30 430 H 40.4518 2.2817 -5.5503 0
M  V30 431 H 41.5218 1.14336 -4.71227 0
M  V30 432 N 42.8649 1.48995 0.513639 0
M  V30 433 C 43.8279 1.64229 1.59879 0
M  V30 434 C 44.8279 0.514696 1.5234 0
M  V30 435 O 46.0179 0.78087 1.55718 0
M  V30 436 C 43.1499 1.62783 2.99524 0
M  V30 437 H 44.3429 2.61004 1.47705 0
M  V30 438 H 41.8959 1.37837 0.736936 0
M  V30 439 H 42.6309 0.675461 3.17188 0
M  V30 440 H 42.4159 2.4466 3.06404 0
M  V30 441 H 43.9059 1.76669 3.78388 0
M  V30 442 N 44.343 -0.763751 1.37857 0
M  V30 443 C 45.253 -1.90817 1.36478 0
M  V30 444 C 46.269 -1.71997 0.263248 0
M  V30 445 O 47.445 -1.95095 0.499979 0
M  V30 446 C 44.51 -3.2605 1.17864 0
M  V30 447 C 43.571 -3.57467 2.3773 0
M  V30 448 C 42.804 -4.86249 2.19995 0
M  V30 449 O 43.027 -5.57884 1.18836 0
M  V30 450 O 41.961 -5.16911 3.08361 0
M  V30 451 H 45.787 -1.94933 2.32884 0
M  V30 452 H 43.372 -0.907619 1.1867 0
M  V30 453 H 45.254 -4.06924 1.09504 0
M  V30 454 H 43.929 -3.22769 0.245372 0
M  V30 455 H 42.836 -2.76796 2.51664 0
M  V30 456 H 44.169 -3.655 3.29652 0
M  V30 457 N 45.8211 -1.22559 -0.990812 0
M  V30 458 C 47.2321 -1.04791 -1.54518 0
M  V30 459 C 47.5831 0.387998 -1.92325 0
M  V30 460 O 46.7081 1.27328 -1.74976 0
M  V30 461 C 47.3031 -1.896 -2.80779 0
M  V30 462 C 45.8621 -1.76124 -3.32652 0
M  V30 463 C 45.0091 -1.8594 -2.05722 0
M  V30 464 H 47.9601 -1.36374 -0.811662 0
M  V30 465 H 47.9811 -1.41464 -3.53225 0
M  V30 466 H 47.4931 -2.94101 -2.53231 0
M  V30 467 H 45.5941 -0.743643 -3.65104 0
M  V30 468 H 45.7071 -2.58913 -4.03114 0
M  V30 469 H 44.0711 -1.29403 -2.19379 0
M  V30 470 H 44.8541 -2.91976 -1.80568 0
M  V30 471 N 47.2992 1.18797 -1.03562 0
M  V30 472 C 48.2312 2.21731 -0.580337 0
M  V30 473 C 49.2442 1.59051 0.347349 0
M  V30 474 O 50.4332 1.77929 0.142669 0
M  V30 475 C 47.5332 3.38459 0.172805 0
M  V30 476 C 46.7062 4.3072 -0.761496 0
M  V30 477 C 45.7652 5.26174 -0.0525547 0
M  V30 478 O 44.7912 5.65108 -0.681333 0
M  V30 479 N 45.9932 5.67624 1.21586 0
M  V30 480 H 48.7582 2.61417 -1.46565 0
M  V30 481 H 46.3192 1.33531 -0.915476 0
M  V30 482 H 48.3112 3.99335 0.656793 0
M  V30 483 H 46.8812 2.97507 0.959602 0
M  V30 484 H 46.1012 3.67525 -1.42544 0
M  V30 485 H 47.3892 4.89267 -1.39626 0
M  V30 486 H 46.7872 5.38038 1.74732 0
M  V30 487 H 45.3442 6.30721 1.64421 0
M  V30 488 N 48.7773 0.814389 1.34928 0
M  V30 489 C 50.0263 0.394871 1.97797 0
M  V30 490 C 50.3393 -1.04555 1.65311 0
M  V30 491 O 51.5453 -1.56856 2.21604 0
M  V30 492 C 50.0013 0.655103 3.53888 0
M  V30 493 C 49.6093 2.10858 3.95276 0
M  V30 494 C 51.3533 0.301329 4.23429 0
M  V30 495 C 49.2603 2.31415 5.44244 0
M  V30 496 H 48.1903 0.143913 0.740139 0
M  V30 497 H 50.8413 0.999544 1.53888 0
M  V30 498 H 49.2233 -0.0196253 3.95995 0
M  V30 499 H 50.3973 2.82176 3.64298 0
M  V30 500 H 48.7123 2.42297 3.38646 0
M  V30 501 H 51.3093 0.432869 5.32945 0
M  V30 502 H 51.6523 -0.75331 4.09428 0
M  V30 503 H 52.1853 0.930288 3.86769 0
M  V30 504 H 48.9243 3.35353 5.63222 0
M  V30 505 H 48.4443 1.6463 5.76764 0
M  V30 506 H 50.1233 2.13352 6.10811 0
M  V30 507 N 50.2554 -1.46986 0.568584 0
M  V30 508 C 51.2184 -2.28624 -0.162366 0
M  V30 509 C 52.2184 -1.37596 -0.832103 0
M  V30 510 O 53.4084 -1.60115 -0.68622 0
M  V30 511 C 50.5404 -3.17596 -1.23878 0
M  V30 512 H 51.7334 -2.94722 0.554899 0
M  V30 513 H 49.2864 -1.52863 0.325976 0
M  V30 514 H 50.0214 -2.56214 -1.98808 0
M  V30 515 H 49.8064 -3.846 -0.763219 0
M  V30 516 H 51.2964 -3.79078 -1.75185 0
M  V30 517 N 51.7335 -0.305618 -1.54608 0
M  V30 518 C 52.6665 0.610536 -2.19881 0
M  V30 519 C 53.6445 1.1294 -1.16976 0
M  V30 520 O 54.8285 1.19673 -1.45638 0
M  V30 521 C 51.9555 1.83583 -2.84631 0
M  V30 522 C 51.0015 1.4498 -4.01102 0
M  V30 523 S 51.8345 0.501793 -5.33144 0
M  V30 524 C 52.9905 1.73478 -6.01379 0
M  V30 525 H 53.2235 0.0560177 -2.97247 0
M  V30 526 H 50.7565 -0.0897434 -1.54139 0
M  V30 527 H 52.7145 2.53898 -3.22562 0
M  V30 528 H 51.3755 2.36152 -2.07102 0
M  V30 529 H 50.5685 2.36236 -4.45206 0
M  V30 530 H 50.1705 0.826553 -3.64752 0
M  V30 531 H 52.4625 2.67473 -6.22467 0
M  V30 532 H 53.4055 1.33622 -6.95378 0
M  V30 533 H 53.8135 1.9136 -5.31076 0
M  V30 534 N 53.2116 1.57565 -0.0334293 0
M  V30 535 C 54.4586 1.91978 0.644272 0
M  V30 536 C 54.7866 0.910231 1.71887 0
M  V30 537 O 54.0416 -0.0801961 1.95536 0
M  V30 538 C 54.3406 3.33112 1.29504 0
M  V30 539 C 54.0066 4.49537 0.350388 0
M  V30 540 C 52.6686 4.81115 0.0903974 0
M  V30 541 C 55.0206 5.20347 -0.298032 0
M  V30 542 C 52.3486 5.8086 -0.825746 0
M  V30 543 C 54.7006 6.2107 -1.20226 0
M  V30 544 C 53.3646 6.51088 -1.4711 0
M  V30 545 H 52.6346 0.702496 0.235756 0
M  V30 546 H 55.2816 1.91259 -0.0961176 0
M  V30 547 H 53.5866 3.30113 2.11028 0
M  V30 548 H 55.2836 3.57011 1.82603 0
M  V30 549 H 51.8736 4.24883 0.563205 0
M  V30 550 H 56.0576 4.96178 -0.110234 0
M  V30 551 H 51.3136 6.02461 -1.04169 0
M  V30 552 H 55.4876 6.75057 -1.71086 0
M  V30 553 H 53.1146 7.28193 -2.18264 0
M  V30 554 N 54.6897 -0.239769 1.55765 0
M  V30 555 C 55.9297 -0.974076 1.79697 0
M  V30 556 C 56.2937 -1.82249 0.604088 0
M  V30 557 O 57.4947 -2.58913 0.722324 0
M  V30 558 C 55.7657 -1.80595 3.08416 0
M  V30 559 S 57.3247 -2.59838 3.53596 0
M  V30 560 H 54.1427 -0.327524 0.63107 0
M  V30 561 H 56.7447 -0.241277 1.94005 0
M  V30 562 H 55.4487 -1.17249 3.93295 0
M  V30 563 H 54.9797 -2.58137 2.96865 0
M  V30 564 H 56.9947 -3.82987 3.15492 0
M  V30 565 N 56.1678 -1.49265 -0.50573 0
M  V30 566 C 57.4158 -1.582 -1.25766 0
M  V30 567 C 57.7368 -0.268482 -1.93143 0
M  V30 568 O 57.0068 0.711833 -1.8251 0
M  V30 569 H 55.5868 -0.582873 -0.467191 0
M  V30 570 H 58.2488 -1.85865 -0.586525 0
M  V30 571 H 57.3448 -2.37563 -2.02412 0
M  V30 572 N 57.6459 0.756429 -1.3826 0
M  V30 573 C 59.0619 1.0591 -1.19395 0
M  V30 574 C 59.2619 2.01459 -0.0406567 0
M  V30 575 O 58.3179 2.44909 0.614467 0
M  V30 576 C 59.6309 1.64191 -2.51916 0
M  V30 577 C 61.1789 1.76376 -2.58574 0
M  V30 578 C 61.6539 2.38069 -3.91264 0
M  V30 579 N 63.1449 2.45503 -3.92788 0
M  V30 580 C 63.8799 2.94126 -4.92217 0
M  V30 581 N 63.3759 3.42805 -6.02043 0
M  V30 582 N 65.1689 2.9314 -4.7961 0
M  V30 583 H 57.3199 0.122313 -2.12048 0
M  V30 584 H 59.5829 0.116892 -0.940766 0
M  V30 585 H 59.2889 1.01451 -3.3675 0
M  V30 586 H 59.1629 2.6329 -2.70108 0
M  V30 587 H 61.5499 2.38244 -1.74137 0
M  V30 588 H 61.6309 0.759894 -2.44252 0
M  V30 589 H 61.2749 1.76835 -4.76121 0
M  V30 590 H 61.2049 3.39091 -4.02895 0
M  V30 591 H 63.6959 2.1107 -3.13461 0
M  V30 592 H 64.0089 3.78354 -6.73846 0
M  V30 593 H 62.3539 3.4087 -6.05667 0
M  V30 594 H 65.5449 2.54419 -3.92923 0
M  V30 595 H 65.7179 3.30721 -5.5725 0
M  V30 596 N 59.124 1.23083 0.984299 0
M  V30 597 C 60.054 1.03292 2.09411 0
M  V30 598 C 61.035 -0.048923 1.7003 0
M  V30 599 O 62.22 0.114967 1.93859 0
M  V30 600 C 59.35 0.619155 3.41736 0
M  V30 601 C 58.304 1.64791 3.95004 0
M  V30 602 C 57.63 1.0897 5.23478 0
M  V30 603 C 58.93 3.03999 4.24714 0
M  V30 604 H 60.624 1.96119 2.26225 0
M  V30 605 H 58.17 0.944344 1.08711 0
M  V30 606 H 60.123 0.467777 4.18796 0
M  V30 607 H 58.847 -0.344786 3.24775 0
M  V30 608 H 57.506 1.78721 3.20085 0
M  V30 609 H 57.154 0.11686 5.02864 0
M  V30 610 H 56.854 1.77704 5.60085 0
M  V30 611 H 58.378 0.950093 6.03163 0
M  V30 612 H 59.792 2.93393 4.92538 0
M  V30 613 H 58.189 3.69936 4.72512 0
M  V30 614 H 59.259 3.53285 3.32142 0
M  V30 615 N 60.6021 -1.18246 1.0419 0
M  V30 616 C 61.5501 -2.23968 0.627792 0
M  V30 617 C 62.5441 -1.65828 -0.346019 0
M  V30 618 O 63.7501 -1.78733 -0.213175 0
M  V30 619 H 60.1251 -0.728939 0.184802 0
M  V30 620 H 62.0961 -2.56202 1.52981 0
M  V30 621 C 60.8451 -3.47699 0.00796591 0
M  V30 622 H 60.1681 -3.92734 0.748347 0
M  V30 623 H 61.6081 -4.23294 -0.24455 0
M  V30 624 C 60.0671 -3.13153 -1.24246 0
M  V30 625 O 60.5971 -3.27003 -2.33307 0
M  V30 626 N 58.8031 -2.67467 -1.13622 0
M  V30 627 H 58.3501 -2.56396 -0.248734 0
M  V30 628 H 58.3081 -2.44724 -1.97377 0
M  V30 629 N 62.0802 -0.821533 -1.34494 0
M  V30 630 C 63.0132 -0.187704 -2.27427 0
M  V30 631 C 63.9912 0.65507 -1.48821 0
M  V30 632 O 65.1752 0.619111 -1.78043 0
M  V30 633 C 62.3022 0.737996 -3.30562 0
M  V30 634 C 61.3482 -0.0270713 -4.26491 0
M  V30 635 S 62.1812 -1.37329 -5.17592 0
M  V30 636 C 63.3372 -0.452427 -6.24263 0
M  V30 637 H 63.5702 -0.975598 -2.80837 0
M  V30 638 H 61.1032 -0.61736 -1.4152 0
M  V30 639 H 63.0612 1.26654 -3.90473 0
M  V30 640 H 61.7222 1.4994 -2.76001 0
M  V30 641 H 60.9152 0.6766 -4.99438 0
M  V30 642 H 60.5172 -0.48612 -3.70827 0
M  V30 643 H 62.8092 0.356557 -6.76561 0
M  V30 644 H 63.7522 -1.15153 -6.98674 0
M  V30 645 H 64.1602 -0.0414755 -5.64485 0
M  V30 646 N 63.5583 1.46682 -0.576371 0
M  V30 647 C 64.5083 2.27278 0.181288 0
M  V30 648 C 65.4923 1.35497 0.867721 0
M  V30 649 O 66.6843 1.59717 0.762863 0
M  V30 650 C 63.8133 3.21703 1.19841 0
M  V30 651 C 62.8993 4.20969 0.51442 0
M  V30 652 N 63.2903 5.03999 -0.426407 0
M  V30 653 C 61.5883 4.39373 0.765963 0
M  V30 654 C 62.2893 5.75812 -0.825565 0
M  V30 655 N 61.2653 5.43315 -0.176116 0
M  V30 656 H 65.0673 2.88863 -0.541785 0
M  V30 657 H 62.5813 1.57455 -0.397697 0
M  V30 658 H 64.5783 3.78145 1.75533 0
M  V30 659 H 63.2383 2.61677 1.92238 0
M  V30 660 H 64.2493 5.11659 -0.8016 0
M  V30 661 H 60.9263 3.90502 1.47698 0
M  V30 662 H 62.3163 6.52577 -1.59976 0
M  V30 663 N 65.0364 0.313813 1.54444 0
M  V30 664 C 65.9694 -0.598866 2.20202 0
M  V30 665 C 66.9474 -1.12318 1.17573 0
M  V30 666 O 68.1314 -1.18899 1.46271 0
M  V30 667 C 65.2584 -1.82071 2.85601 0
M  V30 668 C 64.3044 -1.42851 4.01865 0
M  V30 669 S 65.1374 -0.473512 5.33402 0
M  V30 670 C 66.2934 -1.70286 6.0229 0
M  V30 671 H 66.5264 -0.0402532 2.97273 0
M  V30 672 H 64.0594 0.0979165 1.54089 0
M  V30 673 H 66.0174 -2.52184 3.23904 0
M  V30 674 H 64.6784 -2.3505 2.08351 0
M  V30 675 H 63.8714 -2.33871 4.46453 0
M  V30 676 H 63.4734 -0.807198 3.65185 0
M  V30 677 H 65.7654 -2.64168 6.23876 0
M  V30 678 H 66.7084 -1.29932 6.96077 0
M  V30 679 H 67.1164 -1.88541 5.32083 0
M  V30 680 N 66.5145 -1.57545 0.0417849 0
M  V30 681 C 67.4625 -2.12148 -0.953723 0
M  V30 682 C 68.4565 -1.05104 -1.32852 0
M  V30 683 O 69.6625 -1.23524 -1.30927 0
M  V30 684 H 66.0375 -0.677957 -0.325389 0
M  V30 685 H 68.0085 -2.94707 -0.467991 0
M  V30 686 C 66.7575 -2.6739 -2.22257 0
M  V30 687 H 66.0805 -3.49413 -1.94295 0
M  V30 688 H 67.5205 -3.09227 -2.90094 0
M  V30 689 C 65.9795 -1.60723 -2.96091 0
M  V30 690 O 66.5095 -1.01449 -3.88679 0
M  V30 691 N 64.7155 -1.32466 -2.58652 0
M  V30 692 H 64.2625 -1.80856 -1.83437 0
M  V30 693 H 64.2205 -0.61325 -3.08361 0
M  V30 694 N 67.9926 0.231505 -1.5589 0
M  V30 695 C 69.2386 0.95877 -1.78705 0
M  V30 696 C 69.5716 1.8438 -0.609725 0
M  V30 697 O 68.8466 1.90521 0.391426 0
M  V30 698 C 69.1296 1.8062 -3.11526 0
M  V30 699 C 68.9826 0.948328 -4.39689 0
M  V30 700 C 70.3016 2.78585 -3.40703 0
M  V30 701 H 67.4206 0.347129 -0.650131 0
M  V30 702 H 70.0626 0.228259 -1.88624 0
M  V30 703 H 68.2126 2.42902 -3.03201 0
M  V30 704 H 69.8846 0.343016 -4.60023 0
M  V30 705 H 68.1276 0.253314 -4.3306 0
M  V30 706 H 68.7986 1.57543 -5.29041 0
M  V30 707 H 71.2746 2.26439 -3.49091 0
M  V30 708 H 70.1506 3.34988 -4.34826 0
M  V30 709 H 70.4116 3.55825 -2.62375 0
M  V30 710 N 69.4707 1.49531 0.497807 0
M  V30 711 C 70.4027 1.62559 1.61578 0
M  V30 712 C 71.4157 0.508134 1.54667 0
M  V30 713 O 72.6047 0.780309 1.60541 0
M  V30 714 C 69.7047 1.56925 3.00379 0
M  V30 715 C 68.8777 2.84257 3.3244 0
M  V30 716 C 67.9367 2.71632 4.50669 0
M  V30 717 O 66.9627 3.4557 4.52294 0
M  V30 718 N 68.1647 1.83391 5.5077 0
M  V30 719 H 70.9297 2.58981 1.50828 0
M  V30 720 H 68.4907 1.4666 0.685743 0
M  V30 721 H 70.4827 1.46129 3.77397 0
M  V30 722 H 69.0527 0.683483 3.05037 0
M  V30 723 H 68.2727 3.09381 2.44289 0
M  V30 724 H 69.5607 3.68666 3.5066 0
M  V30 725 H 68.9587 1.22583 5.52259 0
M  V30 726 H 67.5157 1.78515 6.26878 0
M  V30 727 N 70.9488 -0.749086 1.3866 0
M  V30 728 C 71.8968 -1.88428 1.36373 0
M  V30 729 C 72.8908 -1.67561 0.248929 0
M  V30 730 O 74.0968 -1.75074 0.41821 0
M  V30 731 H 70.4718 -0.620023 0.42553 0
M  V30 732 H 72.4428 -1.87473 2.32156 0
M  V30 733 C 71.1918 -3.25961 1.21014 0
M  V30 734 H 70.5148 -3.42607 2.06059 0
M  V30 735 H 71.9548 -4.05625 1.23469 0
M  V30 736 C 70.4138 -3.36799 -0.0825941 0
M  V30 737 O 70.9438 -3.87517 -1.05797 0
M  V30 738 N 69.1498 -2.90258 -0.140939 0
M  V30 739 H 68.6968 -2.49174 0.653477 0
M  V30 740 H 68.6548 -2.97889 -1.00545 0
M  V30 741 N 72.4269 -1.23603 -0.977757 0
M  V30 742 C 73.6749 -1.06759 -1.71601 0
M  V30 743 C 73.9959 0.395929 -1.90938 0
M  V30 744 O 73.2659 1.28356 -1.47992 0
M  V30 745 H 71.8459 -0.392062 -0.635843 0
M  V30 746 H 74.5079 -1.55362 -1.1768 0
M  V30 747 H 73.6039 -1.55763 -2.70452 0
M  V30 748 N 73.905 1.17692 -1.04816 0
M  V30 749 C 74.852 2.21581 -0.645797 0
M  V30 750 C 75.822 1.62367 0.350159 0
M  V30 751 O 77.007 1.89254 0.242433 0
M  V30 752 C 74.147 3.45092 -0.0227568 0
M  V30 753 C 73.26 4.18613 -1.06709 0
M  V30 754 C 72.395 5.29602 -0.411767 0
M  V30 755 C 71.434 5.94904 -1.44067 0
M  V30 756 N 70.571 6.97414 -0.809781 0
M  V30 757 H 75.411 2.55353 -1.5362 0
M  V30 758 H 72.948 1.25438 -0.768364 0
M  V30 759 H 74.906 4.15679 0.35588 0
M  V30 760 H 73.536 3.11917 0.831122 0
M  V30 761 H 72.588 3.46779 -1.5636 0
M  V30 762 H 73.9 4.63293 -1.84827 0
M  V30 763 H 73.054 6.06696 0.0206623 0
M  V30 764 H 71.793 4.86045 0.401438 0
M  V30 765 H 70.798 5.16544 -1.88316 0
M  V30 766 H 72.023 6.40542 -2.25571 0
M  V30 767 H 69.969 6.55998 -0.0170186 0
M  V30 768 H 69.886 7.40386 -1.52856 0
M  V30 769 H 71.154 7.78463 -0.401999 0
M  V30 770 N 75.3831 0.828654 1.34056 0
M  V30 771 C 76.6291 0.429279 1.98818 0
M  V30 772 C 76.9841 -0.998011 1.64492 0
M  V30 773 O 76.2771 -1.68652 0.909228 0
M  V30 774 C 76.4711 0.575226 3.52741 0
M  V30 775 C 76.3001 2.01515 4.02022 0
M  V30 776 C 75.0701 2.64825 4.30344 0
M  V30 777 C 77.2681 2.98261 4.18981 0
M  V30 778 N 75.2501 3.99998 4.65698 0
M  V30 779 C 76.6211 4.18356 4.57578 0
M  V30 780 C 78.6761 2.94802 4.01243 0
M  V30 781 C 77.3791 5.35454 4.80293 0
M  V30 782 C 79.4051 4.11121 4.25128 0
M  V30 783 C 78.7671 5.29969 4.64018 0
M  V30 784 H 74.8661 0.205304 0.754569 0
M  V30 785 H 77.4501 1.07457 1.62361 0
M  V30 786 H 75.6211 -0.0401962 3.88379 0
M  V30 787 H 77.3531 0.148292 4.04428 0
M  V30 788 H 74.1081 2.16027 4.21461 0
M  V30 789 H 74.5321 4.69653 4.87601 0
M  V30 790 H 79.1741 2.04054 3.70299 0
M  V30 791 H 76.8921 6.26755 5.10102 0
M  V30 792 H 80.4781 4.0985 4.12934 0
M  V30 793 H 79.3581 6.18479 4.82134 0
M  V30 794 N 76.8612 -1.46375 0.584142 0
M  V30 795 C 78.1382 -1.956 0.0033388 0
M  V30 796 C 78.5182 -1.52679 -1.45782 0
M  V30 797 O 77.8662 -0.77816 -2.14842 0
M  V30 798 C 78.0762 -3.48551 0.176891 0
M  V30 799 C 79.4242 -4.24576 0.0454609 0
M  V30 800 O 80.4482 -3.56043 0.105801 0
M  V30 801 O 79.3072 -5.46427 -0.0890376 0
M  V30 802 H 76.4012 -0.825547 -0.0490066 0
M  V30 803 H 78.9472 -1.56652 0.65256 0
M  V30 804 H 77.7192 -3.72683 1.1926 0
M  V30 805 H 77.3422 -3.94332 -0.508695 0
M  V30 806 N 78.3393 -0.321999 -1.54275 0
M  V30 807 C 79.5643 0.285791 -2.05422 0
M  V30 808 C 79.9893 1.45124 -1.19669 0
M  V30 809 O 79.3473 1.80132 -0.205441 0
M  V30 810 C 79.3953 0.69956 -3.53749 0
M  V30 811 O 78.4993 1.8021 -3.70942 0
M  V30 812 H 77.8403 0.0518962 -0.661969 0
M  V30 813 H 80.3703 -0.469954 -1.9913 0
M  V30 814 H 80.3803 0.982649 -3.9599 0
M  V30 815 H 79.0553 -0.152864 -4.15619 0
M  V30 816 H 77.6323 1.51794 -3.40607 0
M  V30 817 N 79.8174 1.5752 -0.0501392 0
M  V30 818 C 81.0944 1.83996 0.663685 0
M  V30 819 C 81.4744 0.938339 1.89099 0
M  V30 820 O 80.8224 -0.00087759 2.285 0
M  V30 821 C 81.0324 3.33702 1.02196 0
M  V30 822 C 82.3804 4.00691 1.40469 0
M  V30 823 O 83.4044 3.38321 1.11433 0
M  V30 824 O 82.2634 5.10658 1.94654 0
M  V30 825 H 79.3574 0.759385 0.32751 0
M  V30 826 H 81.9034 1.69514 -0.0794238 0
M  V30 827 H 80.6754 3.91015 0.149364 0
M  V30 828 H 80.2984 3.53368 1.82255 0
M  V30 829 N 81.2955 -0.223234 1.56011 0
M  V30 830 C 82.7065 -0.790368 1.69145 0
M  V30 831 C 83.0575 -1.85055 0.651845 0
M  V30 832 O 82.1825 -2.15498 -0.197359 0
M  V30 833 C 82.7775 -1.4404 3.06656 0
M  V30 834 C 81.3365 -1.95494 3.2165 0
M  V30 835 C 80.4835 -0.814506 2.65068 0
M  V30 836 H 83.4345 0.00139011 1.587 0
M  V30 837 H 83.4555 -2.30916 3.0242 0
M  V30 838 H 82.9675 -0.668543 3.82298 0
M  V30 839 H 81.0685 -2.75487 2.50874 0
M  V30 840 H 81.1815 -2.13607 4.28846 0
M  V30 841 H 79.5455 -1.22137 2.23505 0
M  V30 842 H 80.3285 -0.0553515 3.43255 0
M  V30 843 N 82.7736 -1.49793 -0.48987 0
M  V30 844 C 83.9986 -1.63836 -1.27172 0
M  V30 845 C 84.4236 -0.31402 -1.8546 0
M  V30 846 O 83.7816 0.719803 -1.66399 0
M  V30 847 C 83.8296 -2.71797 -2.36978 0
M  V30 848 O 82.9336 -2.31744 -3.41128 0
M  V30 849 H 82.2746 -0.547997 -0.37496 0
M  V30 850 H 84.8046 -1.96053 -0.585191 0
M  V30 851 H 84.8146 -2.94305 -2.82575 0
M  V30 852 H 83.4896 -3.67923 -1.93921 0
M  V30 853 H 82.0666 -2.1961 -3.01373 0
M  V30 854 N 84.2517 0.741722 -1.39055 0
M  V30 855 C 85.4997 1.49818 -1.35643 0
M  V30 856 C 85.8207 1.94938 0.0491642 0
M  V30 857 O 85.0907 1.68505 0.999141 0
M  V30 858 H 83.6707 0.555755 -0.499144 0
M  V30 859 H 86.3327 0.880957 -1.73854 0
M  V30 860 H 85.4287 2.38348 -2.01486 0
M  V30 861 N 85.7298 1.2412 0.971189 0
M  V30 862 C 86.9578 1.10575 1.74874 0
M  V30 863 C 87.3728 -0.342017 1.85676 0
M  V30 864 O 86.7298 -1.23617 1.34258 0
M  V30 865 C 86.7808 1.73579 3.171 0
M  V30 866 O 86.5018 3.12695 3.06844 0
M  V30 867 C 88.0028 1.65598 4.11208 0
M  V30 868 H 85.2228 0.386504 0.548503 0
M  V30 869 H 87.7668 1.64156 1.21955 0
M  V30 870 H 85.9218 1.24009 3.67016 0
M  V30 871 H 86.3358 3.43412 3.96445 0
M  V30 872 H 87.8098 2.1437 5.08674 0
M  V30 873 H 88.2868 0.616532 4.34851 0
M  V30 874 H 88.8928 2.14578 3.67201 0
M  V30 875 N 87.2079 -1.17134 1.05439 0
M  V30 876 C 88.1549 -2.21235 0.657539 0
M  V30 877 C 89.1249 -1.62551 -0.341543 0
M  V30 878 O 90.3099 -1.89379 -0.232393 0
M  V30 879 C 87.4499 -3.45076 0.0410575 0
M  V30 880 C 86.5629 -4.18042 1.08927 0
M  V30 881 C 85.6979 -5.29376 0.439848 0
M  V30 882 C 84.7369 -5.94132 1.4722 0
M  V30 883 N 83.8739 -6.96975 0.846756 0
M  V30 884 H 88.7139 -2.54534 1.54972 0
M  V30 885 H 86.2509 -1.25028 0.775006 0
M  V30 886 H 88.2089 -4.15862 -0.33383 0
M  V30 887 H 86.8389 -3.12353 -0.814568 0
M  V30 888 H 85.8909 -3.45945 1.58196 0
M  V30 889 H 87.2029 -4.62306 1.87282 0
M  V30 890 H 86.3569 -6.06699 0.0115125 0
M  V30 891 H 85.0959 -4.86251 -0.375656 0
M  V30 892 H 84.1009 -5.15538 1.91052 0
M  V30 893 H 85.3259 -6.39337 2.28965 0
M  V30 894 H 83.2719 -6.5598 0.0518075 0
M  V30 895 H 83.1889 -7.39565 1.5678 0
M  V30 896 H 84.4569 -7.78239 0.443277 0
M  V30 897 N 88.686 -0.835752 -1.33615 0
M  V30 898 C 89.914 -0.443344 -2.02094 0
M  V30 899 C 90.329 0.954522 -1.62894 0
M  V30 900 O 89.686 1.61982 -0.840723 0
M  V30 901 C 89.737 -0.550775 -3.5728 0
M  V30 902 O 89.458 -1.89356 -3.95065 0
M  V30 903 C 90.959 -0.154919 -4.43029 0
M  V30 904 H 88.179 -0.176359 -0.647409 0
M  V30 905 H 90.723 -1.12746 -1.70612 0
M  V30 906 H 88.878 0.0853997 -3.87306 0
M  V30 907 H 89.292 -1.87687 -4.89769 0
M  V30 908 H 90.766 -0.281144 -5.51284 0
M  V30 909 H 91.243 0.902863 -4.2982 0
M  V30 910 H 91.849 -0.765404 -4.18356 0
M  V30 911 N 90.1641 1.46063 -0.591896 0
M  V30 912 C 91.4041 2.04228 -0.0838014 0
M  V30 913 C 91.7681 1.45231 1.25587 0
M  V30 914 O 92.9691 1.94653 1.85375 0
M  V30 915 C 91.2401 3.57389 -0.0286282 0
M  V30 916 S 92.7991 4.3678 0.420557 0
M  V30 917 H 89.6171 0.709762 -0.0419319 0
M  V30 918 H 92.2191 1.78983 -0.786465 0
M  V30 919 H 90.9231 3.97843 -1.00743 0
M  V30 920 H 90.4541 3.87185 0.69652 0
M  V30 921 H 92.4691 4.67131 1.67341 0
M  V30 922 N 91.6422 0.330177 1.54103 0
M  V30 923 C 92.8912 -0.271336 1.99867 0
M  V30 924 C 93.2042 -1.52723 1.22209 0
M  V30 925 O 94.4102 -2.20515 1.58383 0
M  V30 926 C 92.8662 -0.534032 3.55916 0
M  V30 927 C 92.4742 0.705193 4.42415 0
M  V30 928 C 94.2182 -1.09514 4.1013 0
M  V30 929 C 92.1252 0.414035 5.89949 0
M  V30 930 H 91.0552 -0.105166 0.74663 0
M  V30 931 H 93.7062 0.443429 1.78062 0
M  V30 932 H 92.0882 -1.30915 3.73734 0
M  V30 933 H 93.2622 1.4804 4.36372 0
M  V30 934 H 91.5772 1.18698 3.99124 0
M  V30 935 H 94.1742 -1.3277 5.17954 0
M  V30 936 H 94.5172 -2.04656 3.62521 0
M  V30 937 H 95.0502 -0.381038 3.95971 0
M  V30 938 H 91.7892 1.33481 6.41766 0
M  V30 939 H 91.3092 -0.323336 5.98928 0
M  V30 940 H 92.9882 0.0263105 6.46995 0
M  V30 941 N 93.1203 -1.57491 0.0584922 0
M  V30 942 C 94.3973 -1.84346 -0.653918 0
M  V30 943 C 94.7773 -0.948355 -1.88599 0
M  V30 944 O 94.1253 -0.0112403 -2.28497 0
M  V30 945 C 94.3353 -3.34239 -1.00425 0
M  V30 946 C 95.6833 -4.01431 -1.38342 0
M  V30 947 O 96.7073 -3.38907 -1.09637 0
M  V30 948 O 95.5663 -5.11683 -1.91943 0
M  V30 949 H 92.6603 -0.761112 -0.323478 0
M  V30 950 H 95.2063 -1.6947 0.0884125 0
M  V30 951 H 93.9783 -3.91089 -0.128625 0
M  V30 952 H 93.6013 -3.54329 -1.80378 0
M  V30 953 N 94.5984 0.214957 -1.56127 0
M  V30 954 C 95.8264 0.955092 -1.83536 0
M  V30 955 C 96.2414 1.77677 -0.638472 0
M  V30 956 O 95.5984 1.78219 0.392968 0
M  V30 957 C 95.6494 1.86734 -3.09536 0
M  V30 958 O 95.3704 1.07887 -4.24608 0
M  V30 959 C 96.8714 2.72082 -3.4998 0
M  V30 960 H 94.0914 0.279611 -0.609966 0
M  V30 961 H 96.6354 0.228197 -2.03223 0
M  V30 962 H 94.7904 2.5481 -2.91806 0
M  V30 963 H 95.2044 1.69872 -4.9623 0
M  V30 964 H 96.6784 3.31782 -4.41163 0
M  V30 965 H 97.1554 3.44806 -2.7204 0
M  V30 966 H 97.7614 2.09409 -3.70173 0
M  V30 967 N 96.0765 1.50051 0.48192 0
M  V30 968 C 97.0235 1.68122 1.58125 0
M  V30 969 C 97.9935 0.522545 1.57666 0
M  V30 970 O 99.1785 0.751844 1.75362 0
M  V30 971 C 96.3185 1.77142 2.96167 0
M  V30 972 C 95.4315 3.0444 3.06497 0
M  V30 973 C 94.5665 3.04321 4.35387 0
M  V30 974 C 93.6055 4.26118 4.3942 0
M  V30 975 N 92.7425 4.238 5.59766 0
M  V30 976 H 97.5825 2.6198 1.42022 0
M  V30 977 H 95.1195 1.29877 0.690687 0
M  V30 978 H 97.0775 1.80352 3.76203 0
M  V30 979 H 95.7075 0.867329 3.1093 0
M  V30 980 H 94.7595 3.10752 2.19402 0
M  V30 981 H 96.0715 3.94426 3.05336 0
M  V30 982 H 95.2255 3.062 5.23762 0
M  V30 983 H 93.9645 2.12147 4.39141 0
M  V30 984 H 92.9695 4.24463 3.49444 0
M  V30 985 H 94.1945 5.19507 4.37366 0
M  V30 986 H 92.1405 3.34474 5.64326 0
M  V30 987 H 92.0575 5.07542 5.60301 0
M  V30 988 H 93.3255 4.2981 6.50295 0
M  V30 989 N 97.5546 -0.734337 1.39446 0
M  V30 990 C 98.4646 -1.87879 1.40495 0
M  V30 991 C 99.4806 -1.714 0.299672 0
M  V30 992 O 100.657 -1.93991 0.541249 0
M  V30 993 C 97.7216 -3.23477 1.24754 0
M  V30 994 C 96.7826 -3.52344 2.45259 0
M  V30 995 C 96.0156 -4.81473 2.30259 0
M  V30 996 O 96.2386 -5.55237 1.30643 0
M  V30 997 O 95.1726 -5.10254 3.19256 0
M  V30 998 H 98.9986 -1.89949 2.36966 0
M  V30 999 H 96.5836 -0.882243 1.20569 0
M  V30 1000 H 98.4656 -4.04509 1.18111 0
M  V30 1001 H 97.1406 -3.22176 0.313781 0
M  V30 1002 H 96.0476 -2.71396 2.57478 0
M  V30 1003 H 97.3806 -3.58426 3.37331 0
M  V30 1004 N 99.0327 -1.24633 -0.964593 0
M  V30 1005 C 100.281 -1.08573 -1.70459 0
M  V30 1006 C 100.602 0.375655 -1.91347 0
M  V30 1007 O 99.8717 1.26779 -1.49345 0
M  V30 1008 H 98.4517 -0.398784 -0.631649 0
M  V30 1009 H 101.114 -1.56601 -1.16026 0
M  V30 1010 H 100.21 -1.58623 -2.68785 0
M  V30 1011 N 100.511 1.16574 -1.06058 0
M  V30 1012 C 101.76 1.86385 -0.770944 0
M  V30 1013 C 102.073 1.82448 0.705129 0
M  V30 1014 O 103.279 2.47815 1.10905 0
M  V30 1015 C 101.735 3.34466 -1.32893 0
M  V30 1016 C 101.343 3.46883 -2.83507 0
M  V30 1017 C 103.087 4.09548 -1.11672 0
M  V30 1018 C 100.994 4.89036 -3.32562 0
M  V30 1019 H 99.9238 0.698181 -0.284709 0
M  V30 1020 H 102.575 1.31583 -1.27899 0
M  V30 1021 H 100.957 3.88859 -0.748662 0
M  V30 1022 H 102.131 3.02663 -3.47465 0
M  V30 1023 H 100.446 2.85232 -3.03368 0
M  V30 1024 H 103.043 5.14434 -1.45814 0
M  V30 1025 H 103.386 4.16264 -0.0549535 0
M  V30 1026 H 103.919 3.61387 -1.66265 0
M  V30 1027 H 100.658 4.87499 -4.38207 0
M  V30 1028 H 100.178 5.3389 -2.73351 0
M  V30 1029 H 101.857 5.57843 -3.2775 0
M  V30 1030 N 101.989 0.842826 1.3317 0
M  V30 1031 C 102.919 0.294028 2.31641 0
M  V30 1032 C 103.9 -0.600401 1.59151 0
M  V30 1033 O 105.085 -0.523124 1.87022 0
M  V30 1034 C 102.215 -0.528416 3.43257 0
M  V30 1035 C 101.169 0.27056 4.27144 0
M  V30 1036 C 100.495 -0.675881 5.30411 0
M  V30 1037 C 101.795 1.48981 5.00602 0
M  V30 1038 H 103.489 1.11681 2.77791 0
M  V30 1039 H 101.035 0.538478 1.33553 0
M  V30 1040 H 102.988 -0.922674 4.11175 0
M  V30 1041 H 101.712 -1.38445 2.95805 0
M  V30 1042 H 100.371 0.646427 3.60856 0
M  V30 1043 H 100.019 -1.52842 4.79216 0
M  V30 1044 H 99.7189 -0.145374 5.8742 0
M  V30 1045 H 101.243 -1.06757 6.01195 0
M  V30 1046 H 102.657 1.16849 5.61266 0
M  V30 1047 H 101.054 1.95739 5.6728 0
M  V30 1048 H 102.124 2.25746 4.29147 0
M  V30 1049 N 103.467 -1.45747 0.599634 0
M  V30 1050 C 104.399 -2.28628 -0.161879 0
M  V30 1051 C 105.412 -1.39494 -0.839367 0
M  V30 1052 O 106.601 -1.63941 -0.706089 0
M  V30 1053 C 103.701 -3.15014 -1.24976 0
M  V30 1054 C 102.874 -4.32378 -0.660935 0
M  V30 1055 C 101.933 -5.00033 -1.63869 0
M  V30 1056 O 100.959 -5.57085 -1.1681 0
M  V30 1057 N 102.161 -4.98589 -2.97303 0
M  V30 1058 H 104.926 -2.94624 0.549265 0
M  V30 1059 H 102.487 -1.55847 0.438565 0
M  V30 1060 H 104.479 -3.5714 -1.9035 0
M  V30 1061 H 103.049 -2.5098 -1.86354 0
M  V30 1062 H 102.269 -3.9383 0.170688 0
M  V30 1063 H 103.557 -5.08197 -0.247619 0
M  V30 1064 H 102.955 -4.53514 -3.38145 0
M  V30 1065 H 101.512 -5.44603 -3.58121 0
M  V30 1066 N 104.945 -0.338344 -1.53925 0
M  V30 1067 C 106.175 0.260919 -2.04946 0
M  V30 1068 C 106.583 1.45174 -1.2133 0
M  V30 1069 O 105.926 1.82122 -0.240262 0
M  V30 1070 C 105.988 0.744596 -3.51704 0
M  V30 1071 C 105.652 -0.325883 -4.55837 0
M  V30 1072 C 106.649 -1.16687 -5.06636 0
M  V30 1073 C 104.334 -0.478317 -5.00017 0
M  V30 1074 C 106.328 -2.14588 -6.00192 0
M  V30 1075 C 104.015 -1.46073 -5.93385 0
M  V30 1076 C 105.013 -2.29297 -6.4336 0
M  V30 1077 O 104.701 -3.25867 -7.34892 0
M  V30 1078 H 104.433 0.0551207 -0.673749 0
M  V30 1079 H 106.987 -0.486984 -1.99544 0
M  V30 1080 H 105.217 1.54366 -3.54553 0
M  V30 1081 H 106.906 1.26383 -3.85723 0
M  V30 1082 H 107.672 -1.06016 -4.73271 0
M  V30 1083 H 103.551 0.159613 -4.60724 0
M  V30 1084 H 107.095 -2.79585 -6.39123 0
M  V30 1085 H 102.992 -1.56802 -6.26166 0
M  V30 1086 H 103.76 -3.21278 -7.5281 0
M  V30 1087 N 106.423 1.57458 -0.0668435 0
M  V30 1088 C 107.663 1.95175 0.607116 0
M  V30 1089 C 108.027 0.946039 1.67075 0
M  V30 1090 O 109.228 1.2107 2.39991 0
M  V30 1091 C 107.499 3.37582 1.17358 0
M  V30 1092 S 109.058 3.97271 1.86336 0
M  V30 1093 H 105.876 0.682604 0.19893 0
M  V30 1094 H 108.478 1.95002 -0.139519 0
M  V30 1095 H 107.182 4.08566 0.387553 0
M  V30 1096 H 106.713 3.41288 1.95669 0
M  V30 1097 H 108.728 3.83772 3.14537 0
M  V30 1098 N 107.901 -0.206675 1.56239 0
M  V30 1099 C 108.833 -1.27997 1.9013 0
M  V30 1100 C 109.846 -1.42299 0.790883 0
M  V30 1101 O 111.035 -1.42931 1.06925 0
M  V30 1102 C 108.135 -2.65368 2.10792 0
M  V30 1103 C 107.308 -2.72824 3.41886 0
M  V30 1104 C 106.367 -3.9131 3.51799 0
M  V30 1105 O 105.393 -3.78953 4.24716 0
M  V30 1106 N 106.595 -5.06265 2.84035 0
M  V30 1107 H 109.36 -0.992444 2.82791 0
M  V30 1108 H 106.921 -0.396652 1.56966 0
M  V30 1109 H 108.913 -3.43039 2.14724 0
M  V30 1110 H 107.483 -2.86657 1.24685 0
M  V30 1111 H 106.703 -1.81515 3.49923 0
M  V30 1112 H 107.991 -2.74786 4.28217 0
M  V30 1113 H 107.389 -5.19203 2.246 0
M  V30 1114 H 105.946 -5.81925 2.93609 0
M  V30 1115 N 109.379 -1.50304 -0.473955 0
M  V30 1116 C 110.289 -1.7174 -1.5982 0
M  V30 1117 C 111.305 -0.600457 -1.63311 0
M  V30 1118 O 112.481 -0.878441 -1.81233 0
M  V30 1119 C 109.546 -1.80427 -2.96052 0
M  V30 1120 C 108.607 -3.04148 -3.02972 0
M  V30 1121 C 107.84 -3.12411 -4.32706 0
M  V30 1122 O 108.063 -2.27542 -5.23049 0
M  V30 1123 O 106.997 -4.05113 -4.45159 0
M  V30 1124 H 110.823 -2.67035 -1.44657 0
M  V30 1125 H 108.408 -1.34366 -0.653148 0
M  V30 1126 H 110.29 -1.88338 -3.7697 0
M  V30 1127 H 108.965 -0.883156 -3.11419 0
M  V30 1128 H 107.872 -3.0174 -2.21142 0
M  V30 1129 H 109.205 -3.95829 -2.92541 0
M  V30 1130 N 110.857 0.726932 -1.39834 0
M  V30 1131 C 112.103 1.48884 -1.377 0
M  V30 1132 C 112.436 1.94185 0.0244852 0
M  V30 1133 O 111.711 1.67361 0.990986 0
M  V30 1134 C 111.994 2.72288 -2.3565 0
M  V30 1135 C 111.847 2.32956 -3.84775 0
M  V30 1136 C 113.166 3.74414 -2.31306 0
M  V30 1137 H 110.285 0.540062 -0.5015 0
M  V30 1138 H 112.927 0.830547 -1.70886 0
M  V30 1139 H 111.077 3.28457 -2.07481 0
M  V30 1140 H 112.749 1.82356 -4.23726 0
M  V30 1141 H 110.992 1.65088 -4.01159 0
M  V30 1142 H 111.663 3.21362 -4.4881 0
M  V30 1143 H 114.139 3.27849 -2.56231 0
M  V30 1144 H 113.015 4.58414 -3.01907 0
M  V30 1145 H 113.276 4.21909 -1.32081 0
M  V30 1146 N 112.336 1.25143 0.95797 0
M  V30 1147 C 113.566 1.12261 1.73439 0
M  V30 1148 C 113.974 -0.326715 1.86358 0
M  V30 1149 O 113.317 -1.2367 1.35836 0
M  V30 1150 C 113.379 1.69966 3.16784 0
M  V30 1151 C 113.043 3.18936 3.27305 0
M  V30 1152 C 114.04 4.15968 3.11877 0
M  V30 1153 C 111.725 3.59083 3.51234 0
M  V30 1154 C 113.719 5.51126 3.20217 0
M  V30 1155 C 111.406 4.9438 3.5921 0
M  V30 1156 C 112.404 5.90211 3.43716 0
M  V30 1157 O 112.092 7.23046 3.51368 0
M  V30 1158 H 111.824 0.392476 0.550399 0
M  V30 1159 H 114.378 1.65927 1.21068 0
M  V30 1160 H 112.608 1.10744 3.70503 0
M  V30 1161 H 114.297 1.52232 3.76272 0
M  V30 1162 H 115.063 3.86292 2.93264 0
M  V30 1163 H 110.942 2.84989 3.62356 0
M  V30 1164 H 114.486 6.25905 3.0804 0
M  V30 1165 H 110.383 5.23723 3.77339 0
M  V30 1166 H 111.151 7.31097 3.6802 0
M  V30 1167 N 113.814 -1.1601 1.06675 0
M  V30 1168 C 115.225 -1.68235 0.809565 0
M  V30 1169 C 115.576 -1.8454 -0.666303 0
M  V30 1170 O 114.701 -1.54374 -1.5165 0
M  V30 1171 C 115.296 -3.05585 1.46299 0
M  V30 1172 C 113.855 -3.54915 1.25349 0
M  V30 1173 C 113.002 -2.30804 1.53703 0
M  V30 1174 H 115.953 -1.00318 1.22971 0
M  V30 1175 H 115.974 -3.70174 0.880431 0
M  V30 1176 H 115.486 -2.93686 2.53713 0
M  V30 1177 H 113.587 -3.72067 0.199261 0
M  V30 1178 H 113.7 -4.36774 1.9689 0
M  V30 1179 H 112.064 -2.36007 0.957739 0
M  V30 1180 H 112.847 -2.21499 2.62284 0
M  V30 1181 N 115.292 -0.849877 -1.32721 0
M  V30 1182 C 116.202 -0.293791 -2.32753 0
M  V30 1183 C 117.218 0.585906 -1.63839 0
M  V30 1184 O 118.394 0.487413 -1.95413 0
M  V30 1185 C 115.459 0.512752 -3.42887 0
M  V30 1186 C 114.52 -0.39252 -4.27502 0
M  V30 1187 C 113.753 0.375625 -5.32377 0
M  V30 1188 O 113.976 1.60613 -5.4732 0
M  V30 1189 O 112.91 -0.256094 -6.01355 0
M  V30 1190 H 116.736 -1.12242 -2.82197 0
M  V30 1191 H 114.321 -0.612685 -1.36259 0
M  V30 1192 H 116.203 0.970704 -4.10067 0
M  V30 1193 H 114.878 1.31826 -2.95641 0
M  V30 1194 H 113.785 -0.898547 -3.63149 0
M  V30 1195 H 115.118 -1.16309 -4.7826 0
M  V30 1196 N 116.77 1.45427 -0.607355 0
M  V30 1197 C 117.7 2.3329 0.0989352 0
M  V30 1198 C 118.681 1.46816 0.859007 0
M  V30 1199 O 119.866 1.75588 0.829604 0
M  V30 1200 C 116.996 3.29518 1.09705 0
M  V30 1201 C 115.95 4.25626 0.450206 0
M  V30 1202 C 115.276 5.11542 1.55655 0
M  V30 1203 C 116.576 5.18505 -0.628455 0
M  V30 1204 H 118.27 2.92595 -0.634716 0
M  V30 1205 H 115.816 1.40696 -0.306681 0
M  V30 1206 H 117.769 3.89855 1.59971 0
M  V30 1207 H 116.493 2.68372 1.86129 0
M  V30 1208 H 115.152 3.66586 -0.0315886 0
M  V30 1209 H 114.8 4.46765 2.31107 0
M  V30 1210 H 114.5 5.76647 1.12925 0
M  V30 1211 H 116.024 5.74748 2.06148 0
M  V30 1212 H 117.438 5.72916 -0.209877 0
M  V30 1213 H 115.835 5.92085 -0.977489 0
M  V30 1214 H 116.905 4.60948 -1.50514 0
M  V30 1215 N 118.248 0.346503 1.53744 0
M  V30 1216 C 119.18 -0.543316 2.22667 0
M  V30 1217 C 120.193 -1.06159 1.23427 0
M  V30 1218 O 121.382 -0.971235 1.49764 0
M  V30 1219 C 118.482 -1.76076 2.89569 0
M  V30 1220 C 117.655 -1.37727 4.15151 0
M  V30 1221 C 116.714 -2.45471 4.65436 0
M  V30 1222 O 115.74 -2.08655 5.29577 0
M  V30 1223 N 116.942 -3.7677 4.41616 0
M  V30 1224 H 119.707 0.0469703 2.99663 0
M  V30 1225 H 117.268 0.170766 1.60997 0
M  V30 1226 H 119.26 -2.47593 3.20125 0
M  V30 1227 H 117.83 -2.25835 2.16142 0
M  V30 1228 H 117.05 -0.492746 3.91108 0
M  V30 1229 H 118.338 -1.09708 4.96832 0
M  V30 1230 H 117.736 -4.09467 3.90325 0
M  V30 1231 H 116.293 -4.44448 4.7677 0
M  V30 1232 N 119.726 -1.57421 0.075193 0
M  V30 1233 C 120.975 -1.92794 -0.592731 0
M  V30 1234 C 121.288 -0.957478 -1.70563 0
M  V30 1235 O 122.494 -1.20417 -2.43335 0
M  V30 1236 C 120.95 -3.42495 -1.10569 0
M  V30 1237 C 120.558 -4.47994 -0.0236121 0
M  V30 1238 C 122.302 -3.86864 -1.74748 0
M  V30 1239 C 120.209 -5.88829 -0.550803 0
M  V30 1240 H 119.139 -0.719591 -0.225177 0
M  V30 1241 H 121.79 -1.82902 0.147978 0
M  V30 1242 H 120.172 -3.47471 -1.89947 0
M  V30 1243 H 121.346 -4.54637 0.751099 0
M  V30 1244 H 119.661 -4.13113 0.522159 0
M  V30 1245 H 122.258 -4.8947 -2.15229 0
M  V30 1246 H 122.601 -3.24417 -2.60882 0
M  V30 1247 H 123.134 -3.84504 -1.01986 0
M  V30 1248 H 119.873 -6.54929 0.273457 0
M  V30 1249 H 119.393 -5.85698 -1.29296 0
M  V30 1250 H 121.072 -6.38811 -1.02613 0
M  V30 1251 N 121.204 0.198386 -1.56346 0
M  V30 1252 C 122.432 0.935572 -1.84539 0
M  V30 1253 C 122.847 1.76989 -0.657281 0
M  V30 1254 O 122.204 1.78626 0.374043 0
M  V30 1255 C 122.255 1.8344 -3.11499 0
M  V30 1256 O 121.976 1.03377 -4.25728 0
M  V30 1257 C 123.477 2.68355 -3.52846 0
M  V30 1258 H 120.697 0.273126 -0.612897 0
M  V30 1259 H 123.241 0.20663 -2.03453 0
M  V30 1260 H 121.396 2.51701 -2.94492 0
M  V30 1261 H 121.81 1.64599 -4.98003 0
M  V30 1262 H 123.284 3.27085 -4.44657 0
M  V30 1263 H 123.761 3.41901 -2.75681 0
M  V30 1264 H 124.367 2.05471 -3.72373 0
M  V30 1265 N 122.682 1.50554 0.465978 0
M  V30 1266 C 123.63 1.70324 1.58406 0
M  V30 1267 C 124.624 0.569139 1.59553 0
M  V30 1268 O 125.83 0.749776 1.63641 0
M  V30 1269 H 122.205 0.537688 0.525734 0
M  V30 1270 H 124.176 2.64104 1.38894 0
M  V30 1271 C 122.925 1.81928 2.96307 0
M  V30 1272 H 122.248 2.68586 2.96144 0
M  V30 1273 H 123.688 1.99784 3.73982 0
M  V30 1274 C 122.147 0.572095 3.32007 0
M  V30 1275 O 122.677 -0.286416 4.00678 0
M  V30 1276 N 120.883 0.424606 2.87481 0
M  V30 1277 H 120.43 1.12427 2.31771 0
M  V30 1278 H 120.388 -0.408697 3.11732 0
M  V30 1279 N 124.16 -0.719506 1.40217 0
M  V30 1280 C 125.406 -1.48152 1.38488 0
M  V30 1281 C 125.739 -1.94195 -0.0141867 0
M  V30 1282 O 125.014 -1.67884 -0.982096 0
M  V30 1283 C 125.297 -2.71035 2.37091 0
M  V30 1284 C 125.15 -2.30912 3.86005 0
M  V30 1285 C 126.469 -3.73182 2.33288 0
M  V30 1286 H 123.588 -0.537395 0.504357 0
M  V30 1287 H 126.23 -0.821472 1.71324 0
M  V30 1288 H 124.38 -3.27352 2.0922 0
M  V30 1289 H 126.052 -1.80107 4.24687 0
M  V30 1290 H 124.295 -1.62958 4.02029 0
M  V30 1291 H 124.966 -3.18978 4.50508 0
M  V30 1292 H 127.442 -3.26485 2.57966 0
M  V30 1293 H 126.318 -4.56806 3.04334 0
M  V30 1294 H 126.579 -4.21202 1.34317 0
M  V30 1295 N 125.638 -1.25649 -0.95132 0
M  V30 1296 C 126.884 -1.10757 -1.69884 0
M  V30 1297 C 127.217 0.350061 -1.91019 0
M  V30 1298 O 126.492 1.25783 -1.48354 0
M  V30 1299 C 126.775 -1.86606 -3.07978 0
M  V30 1300 C 126.628 -3.40217 -2.94232 0
M  V30 1301 C 127.947 -1.65182 -4.07925 0
M  V30 1302 H 125.066 -0.40374 -0.616574 0
M  V30 1303 H 127.708 -1.54521 -1.10558 0
M  V30 1304 H 125.858 -1.49409 -3.58621 0
M  V30 1305 H 127.53 -3.87108 -2.50889 0
M  V30 1306 H 125.773 -3.67759 -2.30078 0
M  V30 1307 H 126.444 -3.88505 -3.92133 0
M  V30 1308 H 128.92 -1.9757 -3.66204 0
M  V30 1309 H 127.796 -2.20683 -5.02583 0
M  V30 1310 H 128.057 -0.593933 -4.38092 0
M  V30 1311 N 127.117 1.15442 -1.07289 0
M  V30 1312 C 128.027 2.23786 -0.704057 0
M  V30 1313 C 129.043 1.7166 0.284413 0
M  V30 1314 O 130.219 2.00972 0.131205 0
M  V30 1315 C 127.284 3.46535 -0.106792 0
M  V30 1316 C 126.345 4.13654 -1.14842 0
M  V30 1317 C 125.578 5.30544 -0.57956 0
M  V30 1318 O 125.801 5.67187 0.604585 0
M  V30 1319 O 124.735 5.87154 -1.32414 0
M  V30 1320 H 128.561 2.57664 -1.60757 0
M  V30 1321 H 126.146 1.23152 -0.845803 0
M  V30 1322 H 128.028 4.20804 0.224048 0
M  V30 1323 H 126.703 3.14407 0.770049 0
M  V30 1324 H 125.61 3.4131 -1.5316 0
M  V30 1325 H 126.943 4.49861 -1.99714 0
M  V30 1326 N 128.595 0.856903 1.32268 0
M  V30 1327 C 129.558 0.308171 2.27119 0
M  V30 1328 C 130.558 -0.533421 1.51695 0
M  V30 1329 O 131.748 -0.344607 1.70757 0
M  V30 1330 C 128.88 -0.563757 3.36206 0
M  V30 1331 H 130.073 1.14535 2.77167 0
M  V30 1332 H 127.626 0.631421 1.42978 0
M  V30 1333 H 128.361 -1.42266 2.91429 0
M  V30 1334 H 128.146 0.0386749 3.92081 0
M  V30 1335 H 129.636 -0.940386 4.06874 0
M  V30 1336 N 130.073 -1.45103 0.615059 0
M  V30 1337 C 131.021 -2.32331 -0.111791 0
M  V30 1338 C 132.015 -1.46409 -0.852102 0
M  V30 1339 O 133.221 -1.62849 -0.766821 0
M  V30 1340 H 129.596 -0.749993 -0.0549072 0
M  V30 1341 H 131.567 -2.91407 0.642225 0
M  V30 1342 C 130.316 -3.3015 -1.09071 0
M  V30 1343 H 129.639 -3.96265 -0.530485 0
M  V30 1344 H 131.079 -3.93898 -1.56908 0
M  V30 1345 C 129.538 -2.57875 -2.168 0
M  V30 1346 O 130.068 -2.36567 -3.24652 0
M  V30 1347 N 128.274 -2.17884 -1.92289 0
M  V30 1348 H 127.821 -2.35413 -1.04587 0
M  V30 1349 H 127.779 -1.6985 -2.64572 0
M  V30 1350 N 131.551 -0.354651 -1.53558 0
M  V30 1351 C 132.483 0.5315 -2.22952 0
M  V30 1352 C 133.496 1.05503 -1.23988 0
M  V30 1353 O 134.685 0.963279 -1.50277 0
M  V30 1354 C 131.785 1.74538 -2.90499 0
M  V30 1355 C 130.958 1.35524 -4.15875 0
M  V30 1356 C 130.017 2.42999 -4.66731 0
M  V30 1357 O 129.043 2.05844 -5.30676 0
M  V30 1358 N 130.245 3.74423 -4.43608 0
M  V30 1359 H 133.01 -0.0628615 -2.99634 0
M  V30 1360 H 130.571 -0.179302 -1.60904 0
M  V30 1361 H 132.563 2.45892 -3.21433 0
M  V30 1362 H 131.133 2.24686 -2.17336 0
M  V30 1363 H 130.353 0.471998 -3.91364 0
M  V30 1364 H 131.641 1.07071 -4.97406 0
M  V30 1365 H 131.039 4.07391 -3.92491 0
M  V30 1366 H 129.596 4.41913 -4.7912 0
M  V30 1367 N 133.029 1.57378 -0.0835403 0
M  V30 1368 C 134.44 1.81261 0.447358 0
M  V30 1369 C 134.791 0.998331 1.68902 0
M  V30 1370 O 133.916 0.224282 2.15235 0
M  V30 1371 C 134.511 3.28767 0.818386 0
M  V30 1372 C 133.07 3.53455 1.29409 0
M  V30 1373 C 132.217 2.75831 0.285024 0
M  V30 1374 H 135.168 1.5566 -0.309115 0
M  V30 1375 H 135.189 3.41459 1.67887 0
M  V30 1376 H 134.701 3.88006 -0.0855019 0
M  V30 1377 H 132.802 2.99534 2.21608 0
M  V30 1378 H 132.915 4.62128 1.2639 0
M  V30 1379 H 131.279 2.42947 0.764767 0
M  V30 1380 H 132.062 3.37813 -0.611341 0
M  V30 1381 N 134.507 -0.190092 1.56449 0
M  V30 1382 C 135.753 -0.911052 1.81184 0
M  V30 1383 C 136.086 -1.82699 0.658396 0
M  V30 1384 O 135.361 -1.91491 -0.340775 0
M  V30 1385 C 135.644 -1.72297 3.16205 0
M  V30 1386 C 135.497 -0.831419 4.42049 0
M  V30 1387 C 136.816 -2.69454 3.47969 0
M  V30 1388 H 133.935 -0.32977 0.659106 0
M  V30 1389 H 136.577 -0.178169 1.89163 0
M  V30 1390 H 134.727 -2.34778 3.09534 0
M  V30 1391 H 136.399 -0.220929 4.60771 0
M  V30 1392 H 134.642 -0.138406 4.33579 0
M  V30 1393 H 135.313 -1.43461 5.33032 0
M  V30 1394 H 137.789 -2.17104 3.54972 0
M  V30 1395 H 136.665 -3.23342 4.43555 0
M  V30 1396 H 136.926 -3.48744 2.71717 0
M  V30 1397 N 135.985 -1.50799 -0.457987 0
M  V30 1398 C 137.213 -1.66218 -1.23203 0
M  V30 1399 C 137.628 -0.350894 -1.85511 0
M  V30 1400 O 136.985 0.668546 -1.69814 0
M  V30 1401 C 137.036 -2.76291 -2.33121 0
M  V30 1402 O 136.757 -4.02338 -1.73366 0
M  V30 1403 C 138.258 -3.028 -3.2377 0
M  V30 1404 H 135.478 -0.558361 -0.372121 0
M  V30 1405 H 138.022 -1.97099 -0.545179 0
M  V30 1406 H 136.177 -2.48068 -2.97558 0
M  V30 1407 H 136.591 -4.63312 -2.4585 0
M  V30 1408 H 138.065 -3.8345 -3.97077 0
M  V30 1409 H 138.542 -2.14385 -3.83322 0
M  V30 1410 H 139.148 -3.32604 -2.65056 0
M  V30 1411 N 137.463 0.71206 -1.40597 0
M  V30 1412 C 138.712 1.46754 -1.38369 0
M  V30 1413 C 139.025 1.95598 0.0097839 0
M  V30 1414 O 140.231 2.71059 0.154677 0
M  V30 1415 C 138.687 2.65289 -2.43207 0
M  V30 1416 C 138.295 2.23301 -3.88382 0
M  V30 1417 C 140.039 3.43008 -2.50091 0
M  V30 1418 C 137.946 3.38696 -4.84808 0
M  V30 1419 H 136.876 0.55118 -0.514506 0
M  V30 1420 H 139.527 0.774616 -1.66349 0
M  V30 1421 H 137.909 3.36769 -2.08332 0
M  V30 1422 H 139.083 1.59218 -4.32419 0
M  V30 1423 H 137.398 1.58618 -3.85006 0
M  V30 1424 H 139.995 4.28881 -3.1932 0
M  V30 1425 H 140.338 3.87065 -1.53253 0
M  V30 1426 H 140.871 2.78574 -2.83974 0
M  V30 1427 H 137.61 2.99668 -5.82992 0
M  V30 1428 H 137.13 4.01683 -4.45433 0
M  V30 1429 H 138.809 4.04712 -5.04794 0
M  V30 1430 N 138.941 1.26152 0.944643 0
M  V30 1431 C 139.873 1.03199 2.04652 0
M  V30 1432 C 140.886 -0.00642356 1.62799 0
M  V30 1433 O 142.075 0.233263 1.76969 0
M  V30 1434 C 139.175 0.540111 3.34568 0
M  V30 1435 C 138.348 1.64697 4.05208 0
M  V30 1436 C 137.407 1.15374 5.13396 0
M  V30 1437 O 136.433 1.85013 5.38293 0
M  V30 1438 N 137.635 0.00031529 5.805 0
M  V30 1439 H 140.4 1.9808 2.2491 0
M  V30 1440 H 137.961 1.17491 1.11389 0
M  V30 1441 H 139.953 0.194401 4.04233 0
M  V30 1442 H 138.523 -0.315021 3.11009 0
M  V30 1443 H 137.743 2.16379 3.29506 0
M  V30 1444 H 139.031 2.3903 4.49157 0
M  V30 1445 H 138.429 -0.581336 5.62705 0
M  V30 1446 H 136.986 -0.286346 6.51171 0
M  V30 1447 N 140.419 -1.14872 1.07899 0
M  V30 1448 C 141.367 -2.21857 0.698727 0
M  V30 1449 C 142.361 -1.66845 -0.293086 0
M  V30 1450 O 143.567 -1.79321 -0.156204 0
M  V30 1451 H 139.942 -0.722691 0.207899 0
M  V30 1452 H 141.913 -2.51205 1.61054 0
M  V30 1453 C 140.662 -3.47498 0.11858 0
M  V30 1454 H 139.985 -3.90154 0.872914 0
M  V30 1455 H 141.425 -4.23858 -0.109759 0
M  V30 1456 C 139.884 -3.16947 -1.1422 0
M  V30 1457 O 140.414 -3.3426 -2.22785 0
M  V30 1458 N 138.62 -2.70946 -1.05055 0
M  V30 1459 H 138.167 -2.57058 -0.167038 0
M  V30 1460 H 138.125 -2.50879 -1.89491 0
M  V30 1461 N 141.898 -0.863906 -1.31812 0
M  V30 1462 C 143.144 -0.481841 -1.9761 0
M  V30 1463 C 143.499 0.954048 -1.6708 0
M  V30 1464 O 142.792 1.66182 -0.953624 0
M  V30 1465 C 142.986 -0.668547 -3.51091 0
M  V30 1466 C 142.815 -2.12103 -3.96538 0
M  V30 1467 C 141.585 -2.76141 -4.23171 0
M  V30 1468 C 143.783 -3.09265 -4.10925 0
M  V30 1469 N 141.765 -4.12205 -4.54929 0
M  V30 1470 C 143.136 -4.30341 -4.46326 0
M  V30 1471 C 145.191 -3.05337 -3.93286 0
M  V30 1472 C 143.894 -5.48 -4.65928 0
M  V30 1473 C 145.92 -4.22248 -4.14078 0
M  V30 1474 C 145.282 -5.42085 -4.49804 0
M  V30 1475 H 141.381 -0.225238 -0.74886 0
M  V30 1476 H 143.965 -1.11723 -1.59455 0
M  V30 1477 H 142.136 -0.0627898 -3.88349 0
M  V30 1478 H 143.868 -0.255467 -4.03893 0
M  V30 1479 H 140.623 -2.27125 -4.15585 0
M  V30 1480 H 141.047 -4.82416 -4.74978 0
M  V30 1481 H 145.689 -2.138 -3.64759 0
M  V30 1482 H 143.407 -6.40059 -4.93305 0
M  V30 1483 H 146.993 -4.20654 -4.01922 0
M  V30 1484 H 145.873 -6.31044 -4.65567 0
M  V30 1485 N 143.376 1.44774 -0.622745 0
M  V30 1486 C 144.616 2.04004 -0.127102 0
M  V30 1487 C 144.98 1.47862 1.22478 0
M  V30 1488 O 146.181 1.98541 1.81204 0
M  V30 1489 C 144.452 3.57247 -0.104429 0
M  V30 1490 S 146.011 4.37574 0.327814 0
M  V30 1491 H 142.829 0.708713 -0.0569776 0
M  V30 1492 H 145.431 1.77275 -0.824253 0
M  V30 1493 H 144.135 3.95616 -1.09159 0
M  V30 1494 H 143.666 3.88575 0.614236 0
M  V30 1495 H 145.681 4.70575 1.57395 0
M  V30 1496 N 144.854 0.36279 1.53368 0
M  V30 1497 C 145.801 -0.485008 2.25646 0
M  V30 1498 C 146.771 -1.07982 1.2621 0
M  V30 1499 O 147.956 -1.11284 1.54986 0
M  V30 1500 C 145.096 -1.62023 3.04701 0
M  V30 1501 C 144.209 -1.05086 4.19024 0
M  V30 1502 C 143.344 -2.15496 4.85525 0
M  V30 1503 C 142.383 -1.5601 5.91884 0
M  V30 1504 N 141.52 -2.60241 6.52088 0
M  V30 1505 H 146.36 0.137864 2.97681 0
M  V30 1506 H 143.897 0.0798061 1.46883 0
M  V30 1507 H 145.855 -2.28887 3.48807 0
M  V30 1508 H 144.485 -2.2138 2.34927 0
M  V30 1509 H 143.537 -0.27259 3.79422 0
M  V30 1510 H 144.849 -0.575926 4.95464 0
M  V30 1511 H 144.003 -2.90186 5.32801 0
M  V30 1512 H 142.742 -2.66341 4.08551 0
M  V30 1513 H 141.747 -0.798338 5.43973 0
M  V30 1514 H 142.972 -1.05994 6.70777 0
M  V30 1515 H 140.918 -3.10304 5.77968 0
M  V30 1516 H 140.835 -2.17426 7.24059 0
M  V30 1517 H 142.103 -3.34641 7.04014 0
M  V30 1518 N 146.332 -1.57332 0.0918853 0
M  V30 1519 C 147.748 -1.57389 -0.264766 0
M  V30 1520 C 147.948 -1.10281 -1.68643 0
M  V30 1521 O 147.004 -0.777801 -2.40222 0
M  V30 1522 C 148.317 -3.00648 -0.0561195 0
M  V30 1523 C 149.865 -3.12754 -0.124116 0
M  V30 1524 C 150.34 -4.57965 0.0564972 0
M  V30 1525 N 151.831 -4.632 0.00155611 0
M  V30 1526 C 152.566 -5.73281 0.116598 0
M  V30 1527 N 152.062 -6.92208 0.286294 0
M  V30 1528 N 153.855 -5.6207 0.0580973 0
M  V30 1529 H 146.006 -1.86262 1.02079 0
M  V30 1530 H 148.269 -0.859579 0.399786 0
M  V30 1531 H 147.975 -3.393 0.925669 0
M  V30 1532 H 147.849 -3.68623 -0.799823 0
M  V30 1533 H 150.236 -2.73976 -1.09641 0
M  V30 1534 H 150.317 -2.47377 0.651024 0
M  V30 1535 H 149.961 -4.97436 1.02564 0
M  V30 1536 H 149.891 -5.21399 -0.738297 0
M  V30 1537 H 152.382 -3.77686 -0.127192 0
M  V30 1538 H 152.695 -7.71934 0.365676 0
M  V30 1539 H 151.04 -6.94254 0.32192 0
M  V30 1540 H 154.231 -4.68043 -0.0733204 0
M  V30 1541 H 154.404 -6.47824 0.151203 0
M  V30 1542 N 147.81 0.181792 -1.56548 0
M  V30 1543 C 149.058 0.89832 -1.81038 0
M  V30 1544 C 149.379 1.83232 -0.667164 0
M  V30 1545 O 148.649 1.93372 0.313673 0
M  V30 1546 H 147.229 0.33471 -0.667816 0
M  V30 1547 H 149.891 0.184116 -1.94028 0
M  V30 1548 H 148.987 1.4815 -2.74696 0
M  V30 1549 N 149.288 1.51039 0.449983 0
M  V30 1550 C 150.704 1.38934 0.785462 0
M  V30 1551 C 150.904 0.461817 1.96136 0
M  V30 1552 O 149.96 -0.0877389 2.52348 0
M  V30 1553 C 151.273 2.80724 1.0777 0
M  V30 1554 C 152.821 2.89787 1.1829 0
M  V30 1555 C 153.296 4.32457 1.50815 0
M  V30 1556 N 154.787 4.35505 1.57764 0
M  V30 1557 C 155.522 5.42914 1.84477 0
M  V30 1558 N 155.018 6.60502 2.09068 0
M  V30 1559 N 156.811 5.3038 1.86155 0
M  V30 1560 H 148.962 2.09904 -0.324647 0
M  V30 1561 H 151.225 0.944378 -0.0827957 0
M  V30 1562 H 150.931 3.50531 0.286498 0
M  V30 1563 H 150.805 3.19273 2.00859 0
M  V30 1564 H 153.192 2.20186 1.96474 0
M  V30 1565 H 153.273 2.54752 0.231314 0
M  V30 1566 H 152.917 5.02603 0.731622 0
M  V30 1567 H 152.847 4.64995 2.47158 0
M  V30 1568 H 155.338 3.50724 1.40715 0
M  V30 1569 H 155.651 7.38158 2.28785 0
M  V30 1570 H 153.996 6.63639 2.06416 0
M  V30 1571 H 157.187 4.37505 1.66454 0
M  V30 1572 H 157.36 6.1417 2.06637 0
M  V30 1573 N 150.766 -0.704594 1.40972 0
M  V30 1574 C 151.713 -1.81862 1.42109 0
M  V30 1575 C 152.683 -1.63781 0.276593 0
M  V30 1576 O 153.868 -1.84759 0.4763 0
M  V30 1577 C 151.008 -3.19669 1.30022 0
M  V30 1578 C 150.121 -3.49246 2.54267 0
M  V30 1579 C 149.256 -4.76618 2.3454 0
M  V30 1580 C 148.295 -4.99133 3.54306 0
M  V30 1581 N 147.432 -6.17726 3.33706 0
M  V30 1582 H 152.272 -1.80226 2.37324 0
M  V30 1583 H 149.809 -0.880238 1.17857 0
M  V30 1584 H 151.767 -3.99263 1.21018 0
M  V30 1585 H 150.397 -3.20506 0.384192 0
M  V30 1586 H 149.449 -2.64125 2.73756 0
M  V30 1587 H 150.761 -3.61788 3.43381 0
M  V30 1588 H 149.915 -5.64249 2.22952 0
M  V30 1589 H 148.654 -4.66305 1.42867 0
M  V30 1590 H 147.659 -4.09953 3.66359 0
M  V30 1591 H 148.884 -5.11311 4.4692 0
M  V30 1592 H 146.83 -6.08642 2.44725 0
M  V30 1593 H 146.747 -6.30995 4.16391 0
M  V30 1594 H 148.015 -7.08115 3.25873 0
M  V30 1595 N 152.244 -1.26651 -0.937939 0
M  V30 1596 C 153.176 -1.04283 -2.04102 0
M  V30 1597 C 154.189 -0.00221014 -1.628 0
M  V30 1598 O 155.378 -0.242645 -1.76843 0
M  V30 1599 C 152.478 -0.557846 -3.34277 0
M  V30 1600 C 151.651 -1.66843 -4.04329 0
M  V30 1601 C 150.71 -1.18095 -5.12777 0
M  V30 1602 O 149.736 -1.87865 -5.37304 0
M  V30 1603 N 150.938 -0.0311006 -5.80492 0
M  V30 1604 H 153.703 -1.9927 -2.23856 0
M  V30 1605 H 151.264 -1.1808 -1.10764 0
M  V30 1606 H 153.256 -0.215836 -4.04124 0
M  V30 1607 H 151.826 0.298523 -3.11171 0
M  V30 1608 H 151.046 -2.18123 -3.28353 0
M  V30 1609 H 152.334 -2.41408 -4.47883 0
M  V30 1610 H 151.732 0.551486 -5.63005 0
M  V30 1611 H 150.289 0.251809 -6.51313 0
M  V30 1612 N 153.722 1.14298 -1.08507 0
M  V30 1613 C 154.962 1.87016 -0.824894 0
M  V30 1614 C 155.326 1.81099 0.637735 0
M  V30 1615 O 156.527 2.48963 1.01345 0
M  V30 1616 C 154.798 3.31584 -1.33368 0
M  V30 1617 S 156.357 4.21903 -1.20596 0
M  V30 1618 H 153.175 0.645259 -0.2986 0
M  V30 1619 H 155.777 1.37822 -1.38656 0
M  V30 1620 H 154.481 3.33439 -2.39262 0
M  V30 1621 H 154.012 3.85836 -0.767734 0
M  V30 1622 H 156.027 4.95971 -0.150891 0
M  V30 1623 N 155.201 0.870884 1.31352 0
M  V30 1624 C 156.148 0.325425 2.28494 0
M  V30 1625 C 157.118 -0.576615 1.5577 0
M  V30 1626 O 158.303 -0.508059 1.83911 0
M  V30 1627 C 155.443 -0.466283 3.41935 0
M  V30 1628 C 154.556 0.463378 4.29508 0
M  V30 1629 C 153.691 -0.342544 5.30094 0
M  V30 1630 C 152.73 0.583486 6.09313 0
M  V30 1631 N 151.867 -0.186244 7.01853 0
M  V30 1632 H 156.707 1.15901 2.74538 0
M  V30 1633 H 154.244 0.58294 1.35056 0
M  V30 1634 H 156.202 -0.941085 4.06447 0
M  V30 1635 H 154.832 -1.26456 2.97 0
M  V30 1636 H 153.884 1.05663 3.65431 0
M  V30 1637 H 155.196 1.1734 4.84802 0
M  V30 1638 H 154.35 -0.879816 6.00287 0
M  V30 1639 H 153.089 -1.08585 4.75458 0
M  V30 1640 H 152.094 1.13251 5.3801 0
M  V30 1641 H 153.319 1.32566 6.66035 0
M  V30 1642 H 151.265 -0.912348 6.49625 0
M  V30 1643 H 151.182 0.464422 7.54572 0
M  V30 1644 H 152.45 -0.704716 7.76308 0
M  V30 1645 N 156.679 -1.44442 0.630414 0
M  V30 1646 C 157.907 -2.06414 0.141671 0
M  V30 1647 C 158.322 -1.47105 -1.18345 0
M  V30 1648 O 157.679 -0.593662 -1.72574 0
M  V30 1649 C 157.73 -3.61494 0.0199784 0
M  V30 1650 O 157.451 -4.18594 1.29269 0
M  V30 1651 C 158.952 -4.40499 -0.497544 0
M  V30 1652 H 156.172 -0.666292 0.0793452 0
M  V30 1653 H 158.716 -1.85323 0.864614 0
M  V30 1654 H 156.871 -3.8185 -0.653402 0
M  V30 1655 H 157.285 -5.12026 1.13707 0
M  V30 1656 H 158.759 -5.49433 -0.531708 0
M  V30 1657 H 159.236 -4.11895 -1.52445 0
M  V30 1658 H 159.842 -4.25061 0.142562 0
M  V30 1659 N 158.157 -0.370918 -1.53173 0
M  V30 1660 C 159.107 0.489588 -2.22681 0
M  V30 1661 C 160.091 1.04442 -1.22395 0
M  V30 1662 O 161.283 0.973578 -1.47819 0
M  V30 1663 C 158.412 1.626 -3.02351 0
M  V30 1664 C 157.498 1.08379 -4.10018 0
M  V30 1665 N 157.889 0.265004 -5.05105 0
M  V30 1666 C 156.187 1.35809 -4.2482 0
M  V30 1667 C 156.888 -0.0324755 -5.81691 0
M  V30 1668 N 155.864 0.566581 -5.40639 0
M  V30 1669 H 159.666 -0.142729 -2.93553 0
M  V30 1670 H 157.18 -0.179221 -1.61408 0
M  V30 1671 H 159.177 2.2547 -3.50669 0
M  V30 1672 H 157.837 2.26132 -2.33011 0
M  V30 1673 H 158.848 -0.0962352 -5.17811 0
M  V30 1674 H 155.525 1.9958 -3.66707 0
M  V30 1675 H 156.915 -0.69473 -6.68299 0
M  V30 1676 N 159.635 1.57281 -0.100228 0
M  V30 1677 C 161.046 1.81725 0.428107 0
M  V30 1678 C 161.397 1.01619 1.67833 0
M  V30 1679 O 160.522 0.247098 2.14985 0
M  V30 1680 C 161.117 3.29617 0.78347 0
M  V30 1681 C 159.676 3.54808 1.25653 0
M  V30 1682 C 158.823 2.76118 0.255752 0
M  V30 1683 H 161.774 1.55324 -0.325608 0
M  V30 1684 H 161.795 3.4322 1.64256 0
M  V30 1685 H 161.307 3.87893 -0.12665 0
M  V30 1686 H 159.408 3.01868 2.18418 0
M  V30 1687 H 159.521 4.63443 1.21482 0
M  V30 1688 H 157.885 2.43745 0.738956 0
M  V30 1689 H 158.668 3.37145 -0.647136 0
M  V30 1690 N 161.113 -0.173488 1.56642 0
M  V30 1691 C 162.063 -1.21941 1.92651 0
M  V30 1692 C 163.047 -1.39912 0.794577 0
M  V30 1693 O 164.239 -1.41919 1.05773 0
M  V30 1694 C 161.368 -2.55935 2.28806 0
M  V30 1695 C 160.454 -2.41667 3.48508 0
M  V30 1696 N 160.845 -1.9711 4.65813 0
M  V30 1697 C 159.143 -2.72499 3.53072 0
M  V30 1698 C 159.844 -1.95253 5.47952 0
M  V30 1699 N 158.82 -2.37575 4.88937 0
M  V30 1700 H 162.622 -0.866581 2.80834 0
M  V30 1701 H 160.136 -0.381776 1.57849 0
M  V30 1702 H 162.133 -3.31511 2.52797 0
M  V30 1703 H 160.793 -2.92022 1.41961 0
M  V30 1704 H 161.804 -1.67481 4.90072 0
M  V30 1705 H 158.481 -3.12639 2.767 0
M  V30 1706 H 159.871 -1.6252 6.51948 0
M  V30 1707 N 162.591 -1.51276 -0.441967 0
M  V30 1708 C 163.838 -1.63715 -1.19179 0
M  V30 1709 C 164.166 -0.351175 -1.91303 0
M  V30 1710 O 163.421 0.664524 -1.84072 0
M  V30 1711 C 163.72 -2.78746 -2.23686 0
M  V30 1712 C 163.386 -4.18189 -1.68607 0
M  V30 1713 C 162.048 -4.56125 -1.53308 0
M  V30 1714 C 164.4 -5.05222 -1.28062 0
M  V30 1715 C 161.728 -5.78804 -0.959317 0
M  V30 1716 C 164.08 -6.28476 -0.721162 0
M  V30 1717 C 162.744 -6.65188 -0.55504 0
M  V30 1718 H 162.014 -0.599076 -0.436106 0
M  V30 1719 H 164.661 -1.85296 -0.48351 0
M  V30 1720 H 162.966 -2.51369 -3.00535 0
M  V30 1721 H 164.663 -2.8557 -2.81515 0
M  V30 1722 H 161.253 -3.88277 -1.8149 0
M  V30 1723 H 165.437 -4.76524 -1.38704 0
M  V30 1724 H 160.693 -6.05899 -0.81833 0
M  V30 1725 H 164.867 -6.95259 -0.398458 0
M  V30 1726 H 162.494 -7.60123 -0.108311 0
M  V30 1727 N 164.069 0.697108 -1.41344 0
M  V30 1728 C 165.315 1.4593 -1.40827 0
M  V30 1729 C 165.648 1.94193 -0.0167098 0
M  V30 1730 O 164.923 1.69425 0.955263 0
M  V30 1731 C 165.206 2.67229 -2.41373 0
M  V30 1732 C 165.059 2.24741 -3.8963 0
M  V30 1733 C 166.378 3.69423 -2.39196 0
M  V30 1734 H 163.497 0.529303 -0.512842 0
M  V30 1735 H 166.139 0.794112 -1.72609 0
M  V30 1736 H 164.289 3.23982 -2.14401 0
M  V30 1737 H 165.961 1.73327 -4.27499 0
M  V30 1738 H 164.204 1.56542 -4.0457 0
M  V30 1739 H 164.875 3.1177 -4.55525 0
M  V30 1740 H 167.351 3.2234 -2.63128 0
M  V30 1741 H 166.227 4.51907 -3.11563 0
M  V30 1742 H 166.488 4.19012 -1.41001 0
M  V30 1743 N 165.547 1.27147 0.931209 0
M  V30 1744 C 166.796 1.12664 1.67302 0
M  V30 1745 C 167.109 -0.327718 1.92835 0
M  V30 1746 O 168.315 -0.593392 2.64936 0
M  V30 1747 C 166.771 1.9683 3.01307 0
M  V30 1748 C 166.379 3.46901 2.83485 0
M  V30 1749 C 168.123 1.90985 3.79111 0
M  V30 1750 C 166.03 4.23279 4.13024 0
M  V30 1751 H 164.96 0.41803 0.627509 0
M  V30 1752 H 167.611 1.51539 1.03481 0
M  V30 1753 H 165.993 1.50797 3.66164 0
M  V30 1754 H 167.167 4.00773 2.27415 0
M  V30 1755 H 165.482 3.54088 2.19113 0
M  V30 1756 H 168.079 2.45328 4.75098 0
M  V30 1757 H 168.422 0.882718 4.06834 0
M  V30 1758 H 168.955 2.34895 3.21044 0
M  V30 1759 H 165.694 5.26503 3.90481 0
M  V30 1760 H 165.214 3.74186 4.6877 0
M  V30 1761 H 166.893 4.32265 4.81411 0
M  V30 1762 N 167.025 -1.13721 1.09112 0
M  V30 1763 C 168.436 -1.6648 0.845068 0
M  V30 1764 C 168.787 -1.85911 -0.62701 0
M  V30 1765 O 167.912 -1.57556 -1.48341 0
M  V30 1766 C 168.507 -3.02413 1.52748 0
M  V30 1767 C 167.066 -3.52176 1.32849 0
M  V30 1768 C 166.213 -2.27492 1.58564 0
M  V30 1769 H 169.164 -0.976872 1.25072 0
M  V30 1770 H 169.185 -3.68223 0.958752 0
M  V30 1771 H 168.697 -2.88238 2.59885 0
M  V30 1772 H 166.798 -3.7156 0.278137 0
M  V30 1773 H 166.911 -4.32499 2.0611 0
M  V30 1774 H 165.275 -2.33923 1.00758 0
M  V30 1775 H 166.058 -2.15886 2.66924 0
M  V30 1776 N 168.503 -0.877838 -1.30888 0
M  V30 1777 C 169.733 -0.506678 -2.00291 0
M  V30 1778 C 170.141 0.907449 -1.66018 0
M  V30 1779 O 169.484 1.60719 -0.88967 0
M  V30 1780 C 169.546 -0.59323 -3.54572 0
M  V30 1781 C 169.21 -1.97038 -4.12341 0
M  V30 1782 C 170.207 -2.93889 -4.28865 0
M  V30 1783 C 167.892 -2.27383 -4.47886 0
M  V30 1784 C 169.886 -4.19224 -4.80136 0
M  V30 1785 C 167.573 -3.52965 -4.98857 0
M  V30 1786 C 168.571 -4.48701 -5.14934 0
M  V30 1787 O 168.259 -5.72056 -5.64808 0
M  V30 1788 H 167.991 -0.1951 -0.647234 0
M  V30 1789 H 170.545 -1.18301 -1.6791 0
M  V30 1790 H 168.775 0.140057 -3.86446 0
M  V30 1791 H 170.464 -0.234372 -4.05223 0
M  V30 1792 H 171.23 -2.71756 -4.01714 0
M  V30 1793 H 167.109 -1.53639 -4.34645 0
M  V30 1794 H 170.653 -4.93956 -4.92599 0
M  V30 1795 H 166.55 -3.74939 -5.25443 0
M  V30 1796 H 167.318 -5.74337 -5.83163 0
M  V30 1797 N 169.982 1.44106 -0.638065 0
M  V30 1798 C 171.398 1.56672 -0.304286 0
M  V30 1799 C 171.598 1.6244 1.19228 0
M  V30 1800 O 170.654 1.57121 1.9766 0
M  V30 1801 C 171.967 2.83503 -1.00231 0
M  V30 1802 C 173.515 2.97226 -0.981116 0
M  V30 1803 C 173.99 4.26868 -1.65974 0
M  V30 1804 N 175.481 4.33698 -1.62666 0
M  V30 1805 C 176.216 5.32745 -2.12063 0
M  V30 1806 N 175.712 6.38157 -2.6968 0
M  V30 1807 N 177.505 5.24299 -2.02651 0
M  V30 1808 H 169.656 1.38605 -1.60942 0
M  V30 1809 H 171.919 0.664661 -0.675965 0
M  V30 1810 H 171.625 2.85251 -2.0573 0
M  V30 1811 H 171.499 3.73251 -0.54439 0
M  V30 1812 H 173.886 2.95027 0.0654188 0
M  V30 1813 H 173.967 2.08808 -1.47759 0
M  V30 1814 H 173.611 4.29826 -2.70576 0
M  V30 1815 H 173.541 5.14156 -1.13804 0
M  V30 1816 H 176.032 3.58138 -1.20606 0
M  V30 1817 H 176.345 7.10029 -3.05087 0
M  V30 1818 H 174.69 6.38823 -2.73734 0
M  V30 1819 H 177.881 4.4086 -1.57353 0
M  V30 1820 H 178.054 6.01334 -2.41457 0
M  V30 1821 N 171.46 0.379036 1.52974 0
M  V30 1822 C 172.7 -0.206325 2.03356 0
M  V30 1823 C 173.064 -1.44892 1.25977 0
M  V30 1824 O 174.265 -2.11078 1.66432 0
M  V30 1825 C 172.536 -0.477887 3.54191 0
M  V30 1826 S 174.095 -1.035 4.26419 0
M  V30 1827 H 170.913 -0.0590259 0.708546 0
M  V30 1828 H 173.515 0.525013 1.88319 0
M  V30 1829 H 172.219 0.433745 4.08101 0
M  V30 1830 H 171.75 -1.23793 3.73415 0
M  V30 1831 H 173.765 -2.31821 4.38718 0
M  V30 1832 N 172.938 -1.57226 0.108567 0
M  V30 1833 C 173.868 -2.17778 -0.84232 0
M  V30 1834 C 174.849 -1.11487 -1.2847 0
M  V30 1835 O 176.034 -1.39681 -1.34918 0
M  V30 1836 C 173.164 -2.76888 -2.09644 0
M  V30 1837 C 172.118 -3.88669 -1.79221 0
M  V30 1838 C 171.444 -4.34541 -3.11574 0
M  V30 1839 C 172.744 -5.11251 -1.06864 0
M  V30 1840 H 174.438 -2.97489 -0.337774 0
M  V30 1841 H 171.984 -1.43097 -0.161025 0
M  V30 1842 H 173.937 -3.17904 -2.76614 0
M  V30 1843 H 172.661 -1.94451 -2.62405 0
M  V30 1844 H 171.32 -3.48213 -1.14644 0
M  V30 1845 H 170.968 -3.48977 -3.62249 0
M  V30 1846 H 170.668 -5.09914 -2.91996 0
M  V30 1847 H 172.192 -4.782 -3.7968 0
M  V30 1848 H 173.606 -5.49352 -1.63968 0
M  V30 1849 H 172.003 -5.9214 -0.974178 0
M  V30 1850 H 173.073 -4.8487 -0.0536168 0
M  V30 1851 N 174.416 0.165178 -1.56732 0
M  V30 1852 C 175.662 0.882112 -1.82611 0
M  V30 1853 C 175.995 1.81628 -0.687378 0
M  V30 1854 O 175.27 1.92009 0.310267 0
M  V30 1855 C 175.553 1.67245 -3.18906 0
M  V30 1856 C 175.406 0.760987 -4.43316 0
M  V30 1857 C 176.725 2.63884 -3.52212 0
M  V30 1858 H 173.844 0.319242 -0.664269 0
M  V30 1859 H 176.486 0.148052 -1.89422 0
M  V30 1860 H 174.636 2.29824 -3.1323 0
M  V30 1861 H 176.308 0.147596 -4.61064 0
M  V30 1862 H 174.551 0.0694102 -4.33744 0
M  V30 1863 H 175.222 1.34962 -5.35247 0
M  V30 1864 H 177.698 2.11429 -3.58381 0
M  V30 1865 H 176.574 3.16245 -4.48643 0
M  V30 1866 H 176.835 3.44377 -2.77231 0
M  V30 1867 N 175.894 1.51508 0.433938 0
M  V30 1868 C 177.142 1.6402 1.18075 0
M  V30 1869 C 177.463 0.360328 1.91642 0
M  V30 1870 O 176.733 -0.623945 1.85698 0
M  V30 1871 H 175.313 0.6045 0.43885 0
M  V30 1872 H 177.975 1.88452 0.497178 0
M  V30 1873 H 177.071 2.46949 1.90847 0
M  V30 1874 N 177.372 -0.689602 1.41712 0
M  V30 1875 C 178.282 -1.83314 1.46401 0
M  V30 1876 C 179.298 -1.7036 0.35405 0
M  V30 1877 O 180.474 -1.92171 0.602692 0
M  V30 1878 C 177.539 -3.19344 1.34982 0
M  V30 1879 C 176.6 -3.44363 2.56344 0
M  V30 1880 C 175.833 -4.73904 2.45461 0
M  V30 1881 O 176.056 -5.508 1.48241 0
M  V30 1882 O 174.99 -4.99839 3.35328 0
M  V30 1883 H 178.816 -1.82314 2.42889 0
M  V30 1884 H 176.401 -0.843438 1.23315 0
M  V30 1885 H 178.283 -4.00547 1.3092 0
M  V30 1886 H 176.958 -3.21014 0.41612 0
M  V30 1887 H 175.865 -2.63067 2.65982 0
M  V30 1888 H 177.198 -3.47512 3.48563 0
M  V30 1889 N 178.85 -1.27639 -0.924453 0
M  V30 1890 C 180.097 -1.14167 -1.67249 0
M  V30 1891 C 180.425 0.311863 -1.91984 0
M  V30 1892 O 179.68 1.24425 -1.51053 0
M  V30 1893 C 179.979 -1.87407 -3.04325 0
M  V30 1894 C 179.645 -3.37249 -2.99289 0
M  V30 1895 C 178.307 -3.7812 -2.97622 0
M  V30 1896 C 180.659 -4.32845 -2.90336 0
M  V30 1897 C 177.987 -5.12944 -2.8479 0
M  V30 1898 C 180.339 -5.6773 -2.79045 0
M  V30 1899 C 179.003 -6.07889 -2.7573 0
M  V30 1900 H 178.273 -0.417766 -0.612007 0
M  V30 1901 H 180.92 -1.58286 -1.07786 0
M  V30 1902 H 179.225 -1.35805 -3.67511 0
M  V30 1903 H 180.922 -1.74408 -3.61086 0
M  V30 1904 H 177.512 -3.04748 -3.01374 0
M  V30 1905 H 181.696 -4.02239 -2.90719 0
M  V30 1906 H 176.952 -5.432 -2.80612 0
M  V30 1907 H 181.126 -6.41472 -2.71083 0
M  V30 1908 H 178.753 -7.12314 -2.65544 0
M  V30 1909 N 180.328 1.1314 -1.09713 0
M  V30 1910 C 181.574 1.84757 -0.836224 0
M  V30 1911 C 181.907 1.8347 0.636598 0
M  V30 1912 O 181.182 1.27491 1.46889 0
M  V30 1913 C 181.465 3.32782 -1.37578 0
M  V30 1914 C 181.318 3.42567 -2.91493 0
M  V30 1915 C 182.637 4.28307 -1.01198 0
M  V30 1916 H 179.756 0.67082 -0.305236 0
M  V30 1917 H 182.398 1.3278 -1.35903 0
M  V30 1918 H 180.548 3.77177 -0.931097 0
M  V30 1919 H 182.22 3.06862 -3.44432 0
M  V30 1920 H 180.463 2.83349 -3.28475 0
M  V30 1921 H 181.134 4.46674 -3.24324 0
M  V30 1922 H 183.61 3.91999 -1.39556 0
M  V30 1923 H 182.486 5.30307 -1.41653 0
M  V30 1924 H 182.747 4.42029 0.0794833 0
M  V30 1925 N 181.806 0.884767 1.30421 0
M  V30 1926 C 183.031 0.517288 2.00845 0
M  V30 1927 C 183.456 -0.886779 1.65885 0
M  V30 1928 O 182.814 -1.58768 0.875354 0
M  V30 1929 C 182.862 0.698994 3.5376 0
M  V30 1930 O 181.966 -0.255208 4.1161 0
M  V30 1931 H 181.307 0.203872 0.631927 0
M  V30 1932 H 183.837 1.19225 1.66272 0
M  V30 1933 H 183.847 0.597912 4.03595 0
M  V30 1934 H 182.522 1.72271 3.78544 0
M  V30 1935 H 181.099 -0.10784 3.72744 0
M  V30 1936 N 183.284 -1.43765 0.645699 0
M  V30 1937 C 184.561 -1.9541 0.0862963 0
M  V30 1938 C 184.941 -1.58725 -1.39175 0
M  V30 1939 O 184.289 -0.868581 -2.11348 0
M  V30 1940 C 184.499 -3.47488 0.324565 0
M  V30 1941 C 185.847 -4.24001 0.225497 0
M  V30 1942 O 186.871 -3.55274 0.256715 0
M  V30 1943 O 185.73 -5.46313 0.142801 0
M  V30 1944 H 182.824 -0.826882 -0.0139483 0
M  V30 1945 H 185.37 -1.53743 0.718415 0
M  V30 1946 H 184.142 -3.67289 1.3496 0
M  V30 1947 H 183.765 -3.96135 -0.340987 0
M  V30 1948 N 184.763 -0.387143 -1.52771 0
M  V30 1949 C 185.726 0.436939 -2.24997 0
M  V30 1950 C 186.726 0.991991 -1.26555 0
M  V30 1951 O 187.916 0.874335 -1.50669 0
M  V30 1952 C 185.048 1.61281 -3.00335 0
M  V30 1953 H 186.241 -0.195365 -2.99263 0
M  V30 1954 H 183.794 -0.139218 -1.55679 0
M  V30 1955 H 184.529 2.2826 -2.30364 0
M  V30 1956 H 184.314 1.22154 -3.72587 0
M  V30 1957 H 185.804 2.19629 -3.5518 0
M  V30 1958 N 186.241 1.57166 -0.116904 0
M  V30 1959 C 187.171 2.18222 0.830759 0
M  V30 1960 C 188.152 1.12167 1.27877 0
M  V30 1961 O 189.337 1.40394 1.34176 0
M  V30 1962 C 186.467 2.77996 2.08172 0
M  V30 1963 C 185.421 3.89614 1.77157 0
M  V30 1964 C 184.747 4.36187 3.09265 0
M  V30 1965 C 186.047 5.1181 1.04151 0
M  V30 1966 H 187.741 2.97664 0.321992 0
M  V30 1967 H 185.287 1.4318 0.153434 0
M  V30 1968 H 187.24 3.19366 2.74924 0
M  V30 1969 H 185.964 1.9584 2.6137 0
M  V30 1970 H 184.623 3.48816 1.12796 0
M  V30 1971 H 184.271 3.50893 3.60393 0
M  V30 1972 H 183.971 5.11455 2.89288 0
M  V30 1973 H 185.495 4.80207 3.77139 0
M  V30 1974 H 186.909 5.50214 1.61052 0
M  V30 1975 H 185.306 5.92648 0.942762 0
M  V30 1976 H 186.376 4.84892 0.0279022 0
M  V30 1977 N 187.719 -0.156864 1.56817 0
M  V30 1978 C 188.649 -1.19589 2.00551 0
M  V30 1979 C 189.63 -1.4536 0.883426 0
M  V30 1980 O 190.815 -1.56449 1.15054 0
M  V30 1981 C 187.945 -2.53143 2.37773 0
M  V30 1982 C 186.899 -2.41913 3.53075 0
M  V30 1983 C 186.225 -3.80088 3.76081 0
M  V30 1984 C 187.525 -1.91157 4.86062 0
M  V30 1985 H 189.219 -0.832293 2.87599 0
M  V30 1986 H 186.765 -0.398918 1.38364 0
M  V30 1987 H 188.718 -3.26047 2.66967 0
M  V30 1988 H 187.442 -2.91319 1.4765 0
M  V30 1989 H 186.101 -1.71462 3.24031 0
M  V30 1990 H 185.749 -4.15683 2.83225 0
M  V30 1991 H 185.449 -3.73439 4.53671 0
M  V30 1992 H 186.973 -4.54556 4.0769 0
M  V30 1993 H 188.387 -2.53846 5.14038 0
M  V30 1994 H 186.784 -1.95422 5.67389 0
M  V30 1995 H 187.854 -0.866673 4.77092 0
M  V30 1996 N 189.197 -1.51736 -0.425897 0
M  V30 1997 C 190.443 -1.65214 -1.1761 0
M  V30 1998 C 190.776 -0.372778 -1.90589 0
M  V30 1999 O 190.051 0.628139 -1.84078 0
M  V30 2000 C 190.334 -2.86312 -2.18398 0
M  V30 2001 C 190.187 -4.24254 -1.49426 0
M  V30 2002 C 191.506 -3.02925 -3.19256 0
M  V30 2003 H 188.625 -0.601263 -0.426206 0
M  V30 2004 H 191.267 -1.8425 -0.463882 0
M  V30 2005 H 189.417 -2.70213 -2.79137 0
M  V30 2006 H 191.089 -4.52046 -0.919362 0
M  V30 2007 H 189.332 -4.26426 -0.796432 0
M  V30 2008 H 190.003 -5.05001 -2.22885 0
M  V30 2009 H 192.479 -3.1781 -2.68581 0
M  V30 2010 H 191.355 -3.89199 -3.8706 0
M  V30 2011 H 191.616 -2.15497 -3.86023 0
M  V30 2012 N 190.675 0.682077 -1.42076 0
M  V30 2013 C 192.086 1.26246 -1.37546 0
M  V30 2014 C 192.437 1.96092 -0.0651481 0
M  V30 2015 O 191.562 1.99587 0.836297 0
M  V30 2016 C 192.157 2.29594 -2.49143 0
M  V30 2017 C 190.716 2.83175 -2.47969 0
M  V30 2018 C 189.863 1.57395 -2.28303 0
M  V30 2019 H 192.814 0.475937 -1.51395 0
M  V30 2020 H 192.835 3.11175 -2.18976 0
M  V30 2021 H 192.347 1.78729 -3.44496 0
M  V30 2022 H 190.448 3.3818 -1.56413 0
M  V30 2023 H 190.561 3.32687 -3.44755 0
M  V30 2024 H 188.925 1.83699 -1.76428 0
M  V30 2025 H 189.708 1.08507 -3.25701 0
M  V30 2026 N 192.153 1.28127 0.917671 0
M  V30 2027 C 193.43 1.05761 1.64542 0
M  V30 2028 C 193.81 -0.404344 2.07191 0
M  V30 2029 O 193.158 -1.38963 1.81388 0
M  V30 2030 C 193.368 2.02857 2.83989 0
M  V30 2031 C 194.716 2.32786 3.551 0
M  V30 2032 O 195.74 2.0091 2.94132 0
M  V30 2033 O 194.599 2.87169 4.64969 0
M  V30 2034 H 191.693 0.403916 0.721652 0
M  V30 2035 H 194.239 1.39431 0.967322 0
M  V30 2036 H 193.011 3.01407 2.49538 0
M  V30 2037 H 192.634 1.69809 3.59514 0
M  V30 2038 N 193.631 -1.12557 1.10312 0
M  V30 2039 C 194.578 -2.18247 0.750781 0
M  V30 2040 C 195.548 -1.63853 -0.272293 0
M  V30 2041 O 196.733 -1.90195 -0.151862 0
M  V30 2042 C 193.873 -3.44591 0.187379 0
M  V30 2043 C 192.986 -4.13046 1.2656 0
M  V30 2044 C 192.121 -5.27034 0.663978 0
M  V30 2045 C 191.16 -5.87353 1.72287 0
M  V30 2046 N 190.297 -6.92757 1.1416 0
M  V30 2047 H 195.137 -2.47732 1.65628 0
M  V30 2048 H 192.674 -1.21629 0.827337 0
M  V30 2049 H 194.632 -4.16904 -0.157148 0
M  V30 2050 H 193.262 -3.15527 -0.681355 0
M  V30 2051 H 192.314 -3.38924 1.72727 0
M  V30 2052 H 193.626 -4.53947 2.06721 0
M  V30 2053 H 192.78 -6.06104 0.268824 0
M  V30 2054 H 191.519 -4.87407 -0.169082 0
M  V30 2055 H 190.524 -5.06971 2.12746 0
M  V30 2056 H 191.749 -6.29051 2.55875 0
M  V30 2057 H 189.695 -6.5517 0.329984 0
M  V30 2058 H 189.612 -7.3225 1.88007 0
M  V30 2059 H 190.88 -7.75658 0.772956 0
M  V30 2060 N 195.109 -0.891671 -1.2995 0
M  V30 2061 C 196.349 -0.520296 -1.97667 0
M  V30 2062 C 196.713 0.914797 -1.68806 0
M  V30 2063 O 197.914 1.39263 -2.29911 0
M  V30 2064 C 196.185 -0.795222 -3.48441 0
M  V30 2065 S 197.744 -0.526953 -4.35624 0
M  V30 2066 H 194.562 -0.19333 -0.684211 0
M  V30 2067 H 197.164 -1.15238 -1.57926 0
M  V30 2068 H 195.868 -1.83805 -3.66938 0
M  V30 2069 H 195.399 -0.15095 -3.9311 0
M  V30 2070 H 197.414 0.631533 -4.92165 0
M  V30 2071 N 196.587 1.43421 -0.653314 0
M  V30 2072 C 197.534 2.30768 0.0382271 0
M  V30 2073 C 198.504 1.44755 0.814576 0
M  V30 2074 O 199.689 1.73624 0.791162 0
M  V30 2075 C 196.829 3.30336 0.998599 0
M  V30 2076 C 195.942 4.31448 0.218342 0
M  V30 2077 C 195.077 5.18098 1.17252 0
M  V30 2078 C 194.116 6.10902 0.382702 0
M  V30 2079 N 193.253 6.90176 1.28848 0
M  V30 2080 H 198.093 2.89357 -0.712511 0
M  V30 2081 H 195.63 1.42548 -0.363128 0
M  V30 2082 H 197.588 3.86572 1.56901 0
M  V30 2083 H 196.218 2.73397 1.71621 0
M  V30 2084 H 195.27 3.77506 -0.46836 0
M  V30 2085 H 196.582 4.97227 -0.395812 0
M  V30 2086 H 195.736 5.7896 1.81356 0
M  V30 2087 H 194.475 4.52444 1.82058 0
M  V30 2088 H 193.48 5.49128 -0.27169 0
M  V30 2089 H 194.705 6.78598 -0.260957 0
M  V30 2090 H 192.651 6.27171 1.92334 0
M  V30 2091 H 192.568 7.52478 0.728887 0
M  V30 2092 H 193.836 7.55543 1.91766 0
M  V30 2093 N 198.065 0.39524 1.52563 0
M  V30 2094 C 199.312 -0.185044 2.01653 0
M  V30 2095 C 199.64 -1.46317 1.28146 0
M  V30 2096 O 198.895 -1.9213 0.372074 0
M  V30 2097 C 199.194 -0.493444 3.53977 0
M  V30 2098 C 198.86 0.69384 4.4553 0
M  V30 2099 C 197.522 1.01954 4.70275 0
M  V30 2100 C 199.874 1.48785 4.99512 0
M  V30 2101 C 197.202 2.14069 5.46252 0
M  V30 2102 C 199.554 2.59965 5.76716 0
M  V30 2103 C 198.218 2.93037 5.99738 0
M  V30 2104 H 197.488 -0.0677123 0.7379 0
M  V30 2105 H 200.135 0.533807 1.8391 0
M  V30 2106 H 198.44 -1.29369 3.69825 0
M  V30 2107 H 200.137 -0.955163 3.89458 0
M  V30 2108 H 196.727 0.429987 4.26438 0
M  V30 2109 H 200.911 1.24946 4.80315 0
M  V30 2110 H 196.167 2.40056 5.62302 0
M  V30 2111 H 200.341 3.21887 6.17545 0
M  V30 2112 H 197.968 3.8003 6.58393 0
M  V30 2113 N 199.544 -1.57102 0.125237 0
M  V30 2114 C 200.474 -2.18659 -0.819174 0
M  V30 2115 C 201.455 -1.12843 -1.27281 0
M  V30 2116 O 202.64 -1.41104 -1.33429 0
M  V30 2117 C 199.77 -2.79096 -2.06695 0
M  V30 2118 C 198.724 -3.90548 -1.75088 0
M  V30 2119 C 198.05 -4.37821 -3.06948 0
M  V30 2120 C 199.35 -5.12356 -1.01435 0
M  V30 2121 H 201.044 -2.9783 -0.306202 0
M  V30 2122 H 198.59 -1.4326 -0.145839 0
M  V30 2123 H 200.543 -3.2082 -2.73226 0
M  V30 2124 H 199.267 -1.97223 -2.60328 0
M  V30 2125 H 197.926 -3.49409 -1.10944 0
M  V30 2126 H 197.574 -3.52799 -3.58527 0
M  V30 2127 H 197.274 -5.12982 -2.86571 0
M  V30 2128 H 198.798 -4.822 -3.74587 0
M  V30 2129 H 200.212 -5.5106 -1.58132 0
M  V30 2130 H 198.609 -5.9314 -0.911319 0
M  V30 2131 H 199.679 -4.849 -0.00218681 0
M  V30 2132 N 201.022 0.148545 -1.56898 0
M  V30 2133 C 201.972 1.1886 -1.94567 0
M  V30 2134 C 202.956 1.3863 -0.816735 0
M  V30 2135 O 204.148 1.40218 -1.08018 0
M  V30 2136 C 201.277 2.52262 -2.32849 0
M  V30 2137 C 200.363 2.36092 -3.52309 0
M  V30 2138 N 200.754 1.89674 -4.6889 0
M  V30 2139 C 199.052 2.66848 -3.57363 0
M  V30 2140 C 199.753 1.86511 -5.50989 0
M  V30 2141 N 198.729 2.29766 -4.92655 0
M  V30 2142 H 202.531 0.821793 -2.82177 0
M  V30 2143 H 200.045 0.356615 -1.58436 0
M  V30 2144 H 202.042 3.27447 -2.58039 0
M  V30 2145 H 200.702 2.89727 -1.46589 0
M  V30 2146 H 201.713 1.59663 -4.92674 0
M  V30 2147 H 198.39 3.08198 -2.81639 0
M  V30 2148 H 199.78 1.52128 -6.54452 0
M  V30 2149 N 202.5 1.5196 0.417844 0
M  V30 2150 C 203.432 1.70895 1.52733 0
M  V30 2151 C 204.445 0.589405 1.51756 0
M  V30 2152 O 205.634 0.864312 1.56179 0
M  V30 2153 C 202.734 1.72627 2.91639 0
M  V30 2154 C 201.907 3.01479 3.16905 0
M  V30 2155 C 200.966 2.95139 4.35637 0
M  V30 2156 O 199.992 3.69059 4.3334 0
M  V30 2157 N 201.194 2.12328 5.40275 0
M  V30 2158 H 203.959 2.66612 1.36888 0
M  V30 2159 H 201.52 1.50089 0.607037 0
M  V30 2160 H 203.512 1.65928 3.6912 0
M  V30 2161 H 202.082 0.844216 3.00985 0
M  V30 2162 H 201.302 3.21895 2.27546 0
M  V30 2163 H 202.59 3.86736 3.30625 0
M  V30 2164 H 201.988 1.51685 5.44985 0
M  V30 2165 H 200.545 2.11494 6.16534 0
M  V30 2166 N 203.978 -0.674533 1.42435 0
M  V30 2167 C 204.888 -1.81751 1.48337 0
M  V30 2168 C 205.904 -1.69975 0.372099 0
M  V30 2169 O 207.08 -1.91521 0.62304 0
M  V30 2170 C 204.145 -3.17895 1.38361 0
M  V30 2171 C 203.206 -3.41625 2.59982 0
M  V30 2172 C 202.439 -4.71274 2.50473 0
M  V30 2173 O 202.662 -5.49197 1.54075 0
M  V30 2174 O 201.596 -4.96254 3.4061 0
M  V30 2175 H 205.422 -1.79728 2.44809 0
M  V30 2176 H 203.007 -0.830312 1.24202 0
M  V30 2177 H 204.889 -3.99136 1.35161 0
M  V30 2178 H 203.564 -3.20555 0.450144 0
M  V30 2179 H 202.471 -2.60231 2.68757 0
M  V30 2180 H 203.804 -3.43796 3.52229 0
M  V30 2181 N 205.456 -1.28612 -0.910864 0
M  V30 2182 C 206.872 -1.06381 -1.18976 0
M  V30 2183 C 207.072 0.191998 -2.00583 0
M  V30 2184 O 206.128 0.892869 -2.36187 0
M  V30 2185 C 207.441 -2.31295 -1.92154 0
M  V30 2186 C 208.989 -2.36503 -2.05025 0
M  V30 2187 C 209.464 -3.61191 -2.81612 0
M  V30 2188 N 210.955 -3.61847 -2.89172 0
M  V30 2189 C 211.69 -4.55004 -3.4894 0
M  V30 2190 N 211.186 -5.58482 -4.09963 0
M  V30 2191 N 212.979 -4.42594 -3.46506 0
M  V30 2192 H 205.13 -2.09221 -0.366094 0
M  V30 2193 H 207.393 -0.921003 -0.224629 0
M  V30 2194 H 207.099 -3.228 -1.39618 0
M  V30 2195 H 206.973 -2.37934 -2.9269 0
M  V30 2196 H 209.36 -1.45494 -2.5674 0
M  V30 2197 H 209.441 -2.33857 -1.03657 0
M  V30 2198 H 209.085 -4.52545 -2.30576 0
M  V30 2199 H 209.015 -3.61092 -3.83302 0
M  V30 2200 H 211.506 -2.87022 -2.45819 0
M  V30 2201 H 211.819 -6.25704 -4.53557 0
M  V30 2202 H 210.164 -5.62305 -4.08459 0
M  V30 2203 H 213.355 -3.60953 -2.98045 0
M  V30 2204 H 213.528 -5.15381 -3.92793 0
M  V30 2205 N 206.934 1.1197 -1.10907 0
M  V30 2206 C 207.867 2.16998 -0.706192 0
M  V30 2207 C 208.845 1.59903 0.294897 0
M  V30 2208 O 210.029 1.87513 0.192636 0
M  V30 2209 C 207.156 3.38673 -0.0427664 0
M  V30 2210 C 206.202 4.14414 -1.00811 0
M  V30 2211 S 207.035 4.72079 -2.52789 0
M  V30 2212 C 208.191 5.97083 -1.87731 0
M  V30 2213 H 208.424 2.50837 -1.59587 0
M  V30 2214 H 205.957 1.23508 -0.926555 0
M  V30 2215 H 207.915 4.09142 0.333668 0
M  V30 2216 H 206.576 3.03105 0.823788 0
M  V30 2217 H 205.769 5.016 -0.491259 0
M  V30 2218 H 205.371 3.49678 -1.3267 0
M  V30 2219 H 207.663 6.66599 -1.21044 0
M  V30 2220 H 208.606 6.53403 -2.72892 0
M  V30 2221 H 209.014 5.4837 -1.33979 0
M  V30 2222 N 208.412 0.89855 1.29475 0
M  V30 2223 C 209.689 0.443416 1.90508 0
M  V30 2224 C 210.069 -1.07685 1.81569 0
M  V30 2225 O 209.417 -1.9182 1.24166 0
M  V30 2226 C 209.627 0.956708 3.35631 0
M  V30 2227 C 210.975 0.999728 4.12663 0
M  V30 2228 O 211.999 0.904299 3.4453 0
M  V30 2229 O 210.858 1.14289 5.34416 0
M  V30 2230 H 207.952 0.138025 0.815401 0
M  V30 2231 H 210.498 0.98834 1.37949 0
M  V30 2232 H 209.27 2.00067 3.36287 0
M  V30 2233 H 208.893 0.391728 3.95666 0
M  V30 2234 N 209.89 -1.43072 0.660911 0
M  V30 2235 C 211.136 -2.0202 0.177708 0
M  V30 2236 C 211.469 -1.52066 -1.20787 0
M  V30 2237 O 210.744 -0.716987 -1.80802 0
M  V30 2238 C 211.027 -3.59561 0.197019 0
M  V30 2239 C 210.88 -4.19727 1.61706 0
M  V30 2240 C 212.199 -4.37664 -0.462396 0
M  V30 2241 H 209.318 -0.734034 0.0660494 0
M  V30 2242 H 211.96 -1.70272 0.843058 0
M  V30 2243 H 210.11 -3.86739 -0.369527 0
M  V30 2244 H 211.782 -4.03553 2.23479 0
M  V30 2245 H 210.025 -3.76084 2.16201 0
M  V30 2246 H 210.696 -5.28834 1.58237 0
M  V30 2247 H 213.172 -4.16095 0.0197215 0
M  V30 2248 H 212.048 -5.47305 -0.418188 0
M  V30 2249 H 212.309 -4.14493 -1.53778 0
M  V30 2250 N 211.368 -0.403325 -1.52352 0
M  V30 2251 C 212.608 0.173946 -2.03659 0
M  V30 2252 C 212.972 1.42869 -1.28267 0
M  V30 2253 O 214.173 2.08403 -1.69769 0
M  V30 2254 C 212.444 0.421478 -3.54906 0
M  V30 2255 S 214.003 0.967027 -4.28012 0
M  V30 2256 H 210.821 0.0477461 -0.709395 0
M  V30 2257 H 213.423 -0.554906 -1.87459 0
M  V30 2258 H 212.127 -0.498616 -4.0736 0
M  V30 2259 H 211.658 1.17837 -3.75337 0
M  V30 2260 H 213.673 2.24812 -4.4235 0
M  V30 2261 N 212.846 1.57033 -0.133567 0
M  V30 2262 C 213.756 2.19632 0.824564 0
M  V30 2263 C 214.772 1.17666 1.28182 0
M  V30 2264 O 215.948 1.50193 1.3418 0
M  V30 2265 C 213.013 2.79499 2.05137 0
M  V30 2266 C 212.074 3.96548 1.64464 0
M  V30 2267 C 211.307 4.5355 2.81297 0
M  V30 2268 O 211.53 4.09438 3.97136 0
M  V30 2269 O 210.464 5.44018 2.57542 0
M  V30 2270 H 214.29 3.01991 0.321766 0
M  V30 2271 H 211.875 1.49112 0.0927889 0
M  V30 2272 H 213.757 3.17602 2.7696 0
M  V30 2273 H 212.432 2.00162 2.54395 0
M  V30 2274 H 211.339 3.63186 0.897048 0
M  V30 2275 H 212.672 4.77364 1.19934 0
M  V30 2276 N 214.325 -0.140222 1.56975 0
M  V30 2277 C 215.553 -0.866437 1.87884 0
M  V30 2278 C 215.968 -1.74428 0.722517 0
M  V30 2279 O 215.325 -1.79891 -0.30749 0
M  V30 2280 C 215.376 -1.71753 3.18093 0
M  V30 2281 O 215.097 -0.875056 4.29272 0
M  V30 2282 C 216.598 -2.55074 3.62563 0
M  V30 2283 H 213.818 -0.25019 0.622612 0
M  V30 2284 H 216.362 -0.130977 2.0408 0
M  V30 2285 H 214.517 -2.40598 3.03631 0
M  V30 2286 H 214.931 -1.46002 5.03769 0
M  V30 2287 H 216.405 -3.10356 4.5649 0
M  V30 2288 H 216.882 -3.31434 2.88181 0
M  V30 2289 H 217.488 -1.91509 3.79743 0
M  V30 2290 N 215.803 -1.52179 -0.40978 0
M  V30 2291 C 216.753 -1.71857 -1.49831 0
M  V30 2292 C 217.737 -0.572469 -1.50372 0
M  V30 2293 O 218.929 -0.829509 -1.56359 0
M  V30 2294 C 216.058 -1.87206 -2.87765 0
M  V30 2295 C 215.144 -3.07685 -2.91875 0
M  V30 2296 N 215.535 -4.30403 -2.65683 0
M  V30 2297 C 213.833 -3.07505 -3.23043 0
M  V30 2298 C 214.534 -5.11868 -2.76344 0
M  V30 2299 N 213.51 -4.47101 -3.09195 0
M  V30 2300 H 217.312 -2.64381 -1.28375 0
M  V30 2301 H 214.826 -1.50203 -0.617479 0
M  V30 2302 H 216.823 -1.99419 -3.66111 0
M  V30 2303 H 215.483 -0.958814 -3.10221 0
M  V30 2304 H 216.494 -4.58887 -2.4009 0
M  V30 2305 H 213.171 -2.25915 -3.51096 0
M  V30 2306 H 214.561 -6.19634 -2.59814 0
M  V30 2307 N 217.281 0.66697 -1.42791 0
M  V30 2308 C 218.211 1.79218 -1.49677 0
M  V30 2309 C 219.192 1.66405 -0.352623 0
M  V30 2310 O 220.377 1.85708 -0.567993 0
M  V30 2311 C 217.507 3.17565 -1.40605 0
M  V30 2312 C 216.461 3.45124 -2.53127 0
M  V30 2313 C 215.787 4.83127 -2.29112 0
M  V30 2314 C 217.087 3.41236 -3.95418 0
M  V30 2315 H 218.781 1.73713 -2.43853 0
M  V30 2316 H 216.327 0.83432 -1.17367 0
M  V30 2317 H 218.28 3.96022 -1.44029 0
M  V30 2318 H 217.004 3.23767 -0.429271 0
M  V30 2319 H 215.663 2.69031 -2.49034 0
M  V30 2320 H 215.311 4.85988 -1.29709 0
M  V30 2321 H 215.011 5.02528 -3.04531 0
M  V30 2322 H 216.535 5.63859 -2.34297 0
M  V30 2323 H 217.949 4.09651 -4.01073 0
M  V30 2324 H 216.346 3.72173 -4.70752 0
M  V30 2325 H 217.416 2.39665 -4.21532 0
M  V30 2326 N 218.759 1.29093 0.90403 0
M  V30 2327 C 219.709 1.10482 1.99443 0
M  V30 2328 C 220.693 0.0255401 1.6088 0
M  V30 2329 O 221.885 0.24677 1.75271 0
M  V30 2330 C 219.014 0.778882 3.34348 0
M  V30 2331 C 218.1 1.89749 3.79284 0
M  V30 2332 N 218.491 3.14045 3.96497 0
M  V30 2333 C 216.789 1.78955 4.08523 0
M  V30 2334 C 217.49 3.86996 4.34292 0
M  V30 2335 N 216.466 3.14909 4.43095 0
M  V30 2336 H 220.268 2.04778 2.10815 0
M  V30 2337 H 217.782 1.20155 1.09255 0
M  V30 2338 H 219.779 0.62661 4.12164 0
M  V30 2339 H 218.439 -0.156205 3.24324 0
M  V30 2340 H 219.45 3.49548 3.82148 0
M  V30 2341 H 216.127 0.926886 4.07081 0
M  V30 2342 H 217.517 4.93941 4.55491 0
M  V30 2343 N 220.237 -1.11381 1.11499 0
M  V30 2344 C 221.483 -1.83597 0.875423 0
M  V30 2345 C 221.838 -1.83048 -0.592555 0
M  V30 2346 O 221.131 -1.27304 -1.43193 0
M  V30 2347 C 221.325 -3.30026 1.37177 0
M  V30 2348 C 221.154 -3.44837 2.88647 0
M  V30 2349 C 219.924 -3.57825 3.56776 0
M  V30 2350 C 222.122 -3.3907 3.86699 0
M  V30 2351 N 220.104 -3.61113 4.96458 0
M  V30 2352 C 221.475 -3.48986 5.12454 0
M  V30 2353 C 223.53 -3.22605 3.7925 0
M  V30 2354 C 222.233 -3.44135 6.31636 0
M  V30 2355 C 224.259 -3.19072 4.97943 0
M  V30 2356 C 223.621 -3.29559 6.22551 0
M  V30 2357 H 219.72 -0.687044 0.37349 0
M  V30 2358 H 222.304 -1.33265 1.41946 0
M  V30 2359 H 220.475 -3.78874 0.854919 0
M  V30 2360 H 222.207 -3.90153 1.07529 0
M  V30 2361 H 218.962 -3.60414 3.07244 0
M  V30 2362 H 219.386 -3.66394 5.69284 0
M  V30 2363 H 224.028 -3.13382 2.83816 0
M  V30 2364 H 221.746 -3.52126 7.27347 0
M  V30 2365 H 225.332 -3.07498 4.93899 0
M  V30 2366 H 224.212 -3.26815 7.12855 0
M  V30 2367 N 221.715 -0.905404 -1.28997 0
M  V30 2368 C 222.665 -0.358713 -2.25161 0
M  V30 2369 C 223.649 0.524449 -1.52113 0
M  V30 2370 O 224.841 0.365534 -1.73184 0
M  V30 2371 C 221.97 0.407609 -3.40872 0
M  V30 2372 C 221.056 -0.490797 -4.21251 0
M  V30 2373 N 221.447 -1.60061 -4.79806 0
M  V30 2374 C 219.745 -0.289636 -4.45059 0
M  V30 2375 C 220.446 -2.15757 -5.40207 0
M  V30 2376 N 219.422 -1.44988 -5.23908 0
M  V30 2377 H 223.224 -1.20642 -2.67998 0
M  V30 2378 H 220.738 -0.757103 -1.43672 0
M  V30 2379 H 222.735 0.816046 -4.08835 0
M  V30 2380 H 221.395 1.25251 -2.9957 0
M  V30 2381 H 222.406 -1.98329 -4.7842 0
M  V30 2382 H 219.083 0.51643 -4.14294 0
M  V30 2383 H 220.473 -3.09069 -5.96595 0
M  V30 2384 N 223.193 1.4272 -0.668489 0
M  V30 2385 C 224.421 2.05966 -0.196348 0
M  V30 2386 C 224.836 1.50191 1.14403 0
M  V30 2387 O 224.193 0.639208 1.7094 0
M  V30 2388 C 224.244 3.61314 -0.115815 0
M  V30 2389 O 223.965 4.1502 -1.40322 0
M  V30 2390 C 225.466 4.41663 0.380579 0
M  V30 2391 H 222.686 0.663954 -0.0969829 0
M  V30 2392 H 225.23 1.82966 -0.913446 0
M  V30 2393 H 223.385 3.83448 0.551931 0
M  V30 2394 H 223.799 5.08832 -1.27243 0
M  V30 2395 H 225.273 5.5065 0.385848 0
M  V30 2396 H 225.75 4.15792 1.41471 0
M  V30 2397 H 226.356 4.24534 -0.255209 0
M  V30 2398 N 224.671 0.411399 1.52136 0
M  V30 2399 C 225.917 -0.163888 2.02137 0
M  V30 2400 C 226.25 -1.44597 1.29636 0
M  V30 2401 O 225.525 -1.90272 0.403353 0
M  V30 2402 C 225.808 -0.40927 3.57767 0
M  V30 2403 C 225.661 0.889643 4.40914 0
M  V30 2404 C 226.98 -1.19042 4.23694 0
M  V30 2405 H 224.099 -0.0580896 0.734707 0
M  V30 2406 H 226.741 0.54531 1.82007 0
M  V30 2407 H 224.891 -1.0134 3.7505 0
M  V30 2408 H 226.563 1.52575 4.35337 0
M  V30 2409 H 224.806 1.50011 4.07037 0
M  V30 2410 H 225.477 0.672314 5.4789 0
M  V30 2411 H 227.953 -0.678942 4.10524 0
M  V30 2412 H 226.829 -1.33086 5.32522 0
M  V30 2413 H 227.09 -2.21166 3.82803 0
M  V30 2414 N 226.149 -1.5696 0.141893 0
M  V30 2415 C 227.112 -2.15316 -0.785587 0
M  V30 2416 C 228.112 -1.09366 -1.1788 0
M  V30 2417 O 229.302 -1.35031 -1.10056 0
M  V30 2418 C 226.434 -2.71211 -2.06537 0
M  V30 2419 H 227.627 -2.98608 -0.278041 0
M  V30 2420 H 225.18 -1.5593 -0.107519 0
M  V30 2421 H 225.915 -1.91571 -2.6167 0
M  V30 2422 H 225.7 -3.4872 -1.79268 0
M  V30 2423 H 227.19 -3.16189 -2.72789 0
M  V30 2424 N 227.627 0.131896 -1.57047 0
M  V30 2425 C 228.574 1.16236 -1.99393 0
M  V30 2426 C 229.544 1.41863 -0.863943 0
M  V30 2427 O 230.729 1.53946 -1.12718 0
M  V30 2428 C 227.869 2.48708 -2.39245 0
M  V30 2429 C 226.982 2.30127 -3.65603 0
M  V30 2430 C 226.117 3.55738 -3.94492 0
M  V30 2431 C 225.156 3.32259 -5.14073 0
M  V30 2432 N 224.293 4.50039 -5.38896 0
M  V30 2433 H 229.133 0.794251 -2.87221 0
M  V30 2434 H 226.67 0.380707 -1.42088 0
M  V30 2435 H 228.628 3.25969 -2.60384 0
M  V30 2436 H 227.258 2.83437 -1.54478 0
M  V30 2437 H 226.31 1.43845 -3.52154 0
M  V30 2438 H 227.622 2.08746 -4.5302 0
M  V30 2439 H 226.776 4.41423 -4.1621 0
M  V30 2440 H 225.515 3.80138 -3.05526 0
M  V30 2441 H 224.52 2.44963 -4.92212 0
M  V30 2442 H 225.745 3.09242 -6.04604 0
M  V30 2443 H 223.691 4.74584 -4.52886 0
M  V30 2444 H 223.608 4.31716 -6.2061 0
M  V30 2445 H 224.876 5.36895 -5.65123 0
M  V30 2446 N 229.106 1.52395 0.401703 0
M  V30 2447 C 230.016 1.7917 1.51444 0
M  V30 2448 C 231.032 0.677691 1.6026 0
M  V30 2449 O 232.208 0.963909 1.76835 0
M  V30 2450 C 229.273 1.94347 2.87107 0
M  V30 2451 C 228.334 3.18257 2.88116 0
M  V30 2452 C 227.567 3.32701 4.17308 0
M  V30 2453 O 227.79 2.52238 5.11598 0
M  V30 2454 O 226.724 4.25891 4.25324 0
M  V30 2455 H 230.55 2.73633 1.31752 0
M  V30 2456 H 228.135 1.3733 0.588296 0
M  V30 2457 H 230.017 2.06109 3.67555 0
M  V30 2458 H 228.692 1.03073 3.06851 0
M  V30 2459 H 227.599 3.11947 2.06494 0
M  V30 2460 H 228.932 4.09336 2.73322 0
M  V30 2461 N 230.584 -0.659388 1.43143 0
M  V30 2462 C 231.812 -1.44723 1.47861 0
M  V30 2463 C 232.227 -1.88563 0.0945886 0
M  V30 2464 O 231.584 -1.59108 -0.893915 0
M  V30 2465 C 231.635 -2.68627 2.41913 0
M  V30 2466 O 231.356 -2.26623 3.74932 0
M  V30 2467 C 232.857 -3.62045 2.55809 0
M  V30 2468 H 230.077 -0.444801 0.502387 0
M  V30 2469 H 232.621 -0.808916 1.87821 0
M  V30 2470 H 230.776 -3.28613 2.05164 0
M  V30 2471 H 231.19 -3.06745 4.2545 0
M  V30 2472 H 232.664 -4.45666 3.25708 0
M  V30 2473 H 233.141 -4.08981 1.60099 0
M  V30 2474 H 233.747 -3.07944 2.93344 0
M  V30 2475 N 232.062 -1.29571 -0.897171 0
M  V30 2476 C 233.302 -1.18959 -1.66217 0
M  V30 2477 C 233.666 0.254271 -1.90309 0
M  V30 2478 O 234.867 0.483407 -2.64417 0
M  V30 2479 C 233.138 -1.98302 -2.9734 0
M  V30 2480 S 234.697 -2.04253 -3.88364 0
M  V30 2481 H 231.515 -0.424137 -0.570639 0
M  V30 2482 H 234.117 -1.6389 -1.06585 0
M  V30 2483 H 232.821 -3.02342 -2.77521 0
M  V30 2484 H 232.352 -1.53986 -3.62011 0
M  V30 2485 H 234.367 -1.16105 -4.82425 0
M  V30 2486 N 233.54 1.10788 -1.12088 0
M  V30 2487 C 234.765 1.87002 -0.896949 0
M  V30 2488 C 235.19 1.79933 0.548261 0
M  V30 2489 O 234.548 1.16662 1.38779 0
M  V30 2490 C 234.596 3.3349 -1.37174 0
M  V30 2491 O 233.7 4.08745 -0.547831 0
M  V30 2492 H 233.041 0.580397 -0.322545 0
M  V30 2493 H 235.571 1.39996 -1.49206 0
M  V30 2494 H 235.581 3.84339 -1.36922 0
M  V30 2495 H 234.256 3.37951 -2.42408 0
M  V30 2496 H 232.833 3.6776 -0.617034 0
M  V30 2497 N 235.018 0.912232 1.28515 0
M  V30 2498 C 235.928 0.404506 2.31086 0
M  V30 2499 C 236.944 -0.50707 1.66448 0
M  V30 2500 O 238.12 -0.393624 1.97516 0
M  V30 2501 C 235.185 -0.348572 3.44943 0
M  V30 2502 C 234.246 0.59604 4.25142 0
M  V30 2503 C 233.479 -0.121194 5.33562 0
M  V30 2504 O 233.702 -1.34317 5.5436 0
M  V30 2505 O 232.636 0.542716 5.99448 0
M  V30 2506 H 236.462 1.25579 2.76521 0
M  V30 2507 H 234.047 0.676998 1.33181 0
M  V30 2508 H 235.929 -0.77395 4.14232 0
M  V30 2509 H 234.604 -1.17571 3.01594 0
M  V30 2510 H 233.511 1.07079 3.58448 0
M  V30 2511 H 234.844 1.38995 4.72167 0
M  V30 2512 N 236.496 -1.42363 0.676048 0
M  V30 2513 C 237.443 -2.308 -0.00150904 0
M  V30 2514 C 238.413 -1.46032 -0.791444 0
M  V30 2515 O 239.598 -1.74861 -0.76344 0
M  V30 2516 C 236.738 -3.31883 -0.945919 0
M  V30 2517 C 235.851 -4.31741 -0.149675 0
M  V30 2518 C 234.986 -5.19898 -1.08995 0
M  V30 2519 C 234.025 -6.11434 -0.285465 0
M  V30 2520 N 233.162 -6.92138 -1.17851 0
M  V30 2521 H 238.002 -2.88187 0.758455 0
M  V30 2522 H 235.539 -1.41952 0.38576 0
M  V30 2523 H 237.497 -3.89019 -1.50731 0
M  V30 2524 H 236.127 -2.76093 -1.6725 0
M  V30 2525 H 235.179 -3.76713 0.528359 0
M  V30 2526 H 236.491 -4.96534 0.474866 0
M  V30 2527 H 235.645 -5.81772 -1.72123 0
M  V30 2528 H 234.384 -4.55284 -1.74837 0
M  V30 2529 H 233.389 -5.48627 0.359018 0
M  V30 2530 H 234.614 -6.78097 0.368883 0
M  V30 2531 H 232.56 -6.30152 -1.82332 0
M  V30 2532 H 232.477 -7.53542 -0.609082 0
M  V30 2533 H 233.745 -7.58499 -1.79722 0
M  V30 2534 N 237.974 -0.419461 -1.51915 0
M  V30 2535 C 239.199 0.154572 -2.06823 0
M  V30 2536 C 239.624 1.3722 -1.28656 0
M  V30 2537 O 238.982 1.78461 -0.319583 0
M  V30 2538 C 239.03 0.473172 -3.57482 0
M  V30 2539 O 238.134 1.56255 -3.81652 0
M  V30 2540 H 237.475 0.0096924 -0.663929 0
M  V30 2541 H 240.005 -0.595642 -1.95738 0
M  V30 2542 H 240.015 0.728825 -4.01438 0
M  V30 2543 H 238.69 -0.416873 -4.13805 0
M  V30 2544 H 237.267 1.29825 -3.49571 0
M  V30 2545 N 239.452 1.56882 -0.150215 0
M  V30 2546 C 240.68 2.00593 0.506948 0
M  V30 2547 C 241.095 1.03033 1.58208 0
M  V30 2548 O 240.452 0.0278396 1.82479 0
M  V30 2549 C 240.503 3.44209 1.10465 0
M  V30 2550 O 240.224 4.3804 0.0724636 0
M  V30 2551 C 241.725 4.03214 1.84211 0
M  V30 2552 H 238.945 0.65795 0.13169 0
M  V30 2553 H 241.489 2.03018 -0.245743 0
M  V30 2554 H 239.644 3.42625 1.80795 0
M  V30 2555 H 240.058 5.22007 0.510793 0
M  V30 2556 H 241.532 5.0569 2.21318 0
M  V30 2557 H 242.009 3.44107 2.72923 0
M  V30 2558 H 242.615 4.08437 1.18572 0
M  V30 2559 N 240.93 -0.123565 1.57115 0
M  V30 2560 C 241.878 -1.17082 2.00984 0
M  V30 2561 C 242.872 -1.43136 0.906009 0
M  V30 2562 O 244.078 -1.43152 1.09121 0
M  V30 2563 H 240.453 -0.394653 0.64012 0
M  V30 2564 H 242.424 -0.774292 2.88179 0
M  V30 2565 C 241.173 -2.49057 2.42623 0
M  V30 2566 H 240.496 -2.29846 3.27125 0
M  V30 2567 H 241.936 -3.20906 2.7712 0
M  V30 2568 C 240.395 -3.11305 1.28805 0
M  V30 2569 O 240.925 -3.97171 0.60153 0
M  V30 2570 N 239.131 -2.71111 1.04628 0
M  V30 2571 H 238.678 -2.01382 1.60634 0
M  V30 2572 H 238.636 -3.1309 0.286685 0
M  V30 2573 N 242.408 -1.52605 -0.393616 0
M  V30 2574 C 243.338 -1.80022 -1.48709 0
M  V30 2575 C 244.319 -0.651995 -1.57108 0
M  V30 2576 O 245.504 -0.89913 -1.72132 0
M  V30 2577 C 242.634 -1.96492 -2.86371 0
M  V30 2578 C 241.588 -3.12161 -2.92813 0
M  V30 2579 C 240.914 -3.13877 -4.3288 0
M  V30 2580 C 242.214 -4.51322 -2.6288 0
M  V30 2581 H 243.908 -2.71589 -1.26015 0
M  V30 2582 H 241.454 -1.30684 -0.604778 0
M  V30 2583 H 243.407 -2.14255 -3.62867 0
M  V30 2584 H 242.131 -1.01611 -3.10391 0
M  V30 2585 H 240.79 -2.94173 -2.18764 0
M  V30 2586 H 240.438 -2.16687 -4.53933 0
M  V30 2587 H 240.138 -3.91576 -4.38112 0
M  V30 2588 H 241.662 -3.33789 -5.1129 0
M  V30 2589 H 243.076 -4.69435 -3.29096 0
M  V30 2590 H 241.473 -5.31053 -2.79468 0
M  V30 2591 H 242.543 -4.58353 -1.58242 0
M  V30 2592 N 243.887 0.651787 -1.4349 0
M  V30 2593 C 244.837 1.75783 -1.45205 0
M  V30 2594 C 245.821 1.57679 -0.320328 0
M  V30 2595 O 247.013 1.67767 -0.564211 0
M  V30 2596 C 244.142 3.14377 -1.3792 0
M  V30 2597 C 243.228 3.38023 -2.56127 0
M  V30 2598 N 243.619 3.32135 -3.81471 0
M  V30 2599 C 241.917 3.68747 -2.50882 0
M  V30 2600 C 242.618 3.55902 -4.60118 0
M  V30 2601 N 241.594 3.77783 -3.90872 0
M  V30 2602 H 245.396 1.69657 -2.39987 0
M  V30 2603 H 242.91 0.853508 -1.38163 0
M  V30 2604 H 244.907 3.93666 -1.37231 0
M  V30 2605 H 243.567 3.21683 -0.441596 0
M  V30 2606 H 244.578 3.11515 -4.13738 0
M  V30 2607 H 241.255 3.8316 -1.65816 0
M  V30 2608 H 242.645 3.57116 -5.69138 0
M  V30 2609 N 245.365 1.30045 0.890287 0
M  V30 2610 C 246.642 1.09227 1.62262 0
M  V30 2611 C 247.022 -0.360305 2.08002 0
M  V30 2612 O 246.37 -1.35084 1.84295 0
M  V30 2613 C 246.58 2.08835 2.79623 0
M  V30 2614 C 247.928 2.40266 3.50082 0
M  V30 2615 O 248.952 2.07104 2.89804 0
M  V30 2616 O 247.811 2.96967 4.58773 0
M  V30 2617 H 244.905 0.419132 0.712922 0
M  V30 2618 H 247.451 1.41451 0.937529 0
M  V30 2619 H 246.223 3.06633 2.43089 0
M  V30 2620 H 245.846 1.77397 3.55832 0
M  V30 2621 N 246.843 -1.10192 1.12674 0
M  V30 2622 C 248.073 -1.85713 0.905213 0
M  V30 2623 C 248.481 -1.81056 -0.549108 0
M  V30 2624 O 247.824 -1.19927 -1.39151 0
M  V30 2625 C 247.886 -3.34972 1.30516 0
M  V30 2626 C 247.55 -3.63385 2.77129 0
M  V30 2627 C 248.547 -3.59772 3.75313 0
M  V30 2628 C 246.232 -3.91981 3.14096 0
M  V30 2629 C 248.226 -3.84354 5.08479 0
M  V30 2630 C 245.913 -4.16218 4.47443 0
M  V30 2631 C 246.911 -4.12395 5.44444 0
M  V30 2632 O 246.599 -4.36014 6.75387 0
M  V30 2633 H 246.331 -0.593719 0.323223 0
M  V30 2634 H 248.885 -1.40198 1.50112 0
M  V30 2635 H 247.115 -3.81156 0.652463 0
M  V30 2636 H 248.804 -3.91886 1.05736 0
M  V30 2637 H 249.57 -3.37716 3.48099 0
M  V30 2638 H 245.449 -3.94085 2.39202 0
M  V30 2639 H 248.993 -3.81285 5.84181 0
M  V30 2640 H 244.89 -4.37754 4.74386 0
M  V30 2641 H 245.658 -4.53516 6.8137 0
M  V30 2642 N 248.321 -0.919034 -1.28029 0
M  V30 2643 C 249.569 -0.553838 -1.94363 0
M  V30 2644 C 249.89 0.906357 -1.72656 0
M  V30 2645 O 249.16 1.64143 -1.0693 0
M  V30 2646 H 247.74 -0.201834 -0.719216 0
M  V30 2647 H 250.402 -1.16954 -1.55909 0
M  V30 2648 H 249.498 -0.752758 -3.02886 0
M  V30 2649 N 249.799 1.42003 -0.683588 0
M  V30 2650 C 250.732 2.28166 0.039592 0
M  V30 2651 C 251.71 1.41562 0.799942 0
M  V30 2652 O 252.894 1.70997 0.793248 0
M  V30 2653 C 250.021 3.21575 1.06335 0
M  V30 2654 C 249.067 4.24643 0.397562 0
M  V30 2655 S 249.9 5.2869 -0.851296 0
M  V30 2656 C 251.056 6.25666 0.171166 0
M  V30 2657 H 251.289 2.89153 -0.691229 0
M  V30 2658 H 248.822 1.46962 -0.473435 0
M  V30 2659 H 250.78 3.75928 1.6489 0
M  V30 2660 H 249.441 2.59707 1.76667 0
M  V30 2661 H 248.634 4.90223 1.17035 0
M  V30 2662 H 248.236 3.73824 -0.114611 0
M  V30 2663 H 250.528 6.69653 1.02819 0
M  V30 2664 H 251.471 7.06666 -0.450397 0
M  V30 2665 H 251.879 5.62095 0.520578 0
M  V30 2666 N 251.277 0.427512 1.51691 0
M  V30 2667 C 252.207 -0.3796 2.30394 0
M  V30 2668 C 253.188 -1.02982 1.35384 0
M  V30 2669 O 254.373 -1.03534 1.643 0
M  V30 2670 C 251.503 -1.48649 3.1388 0
M  V30 2671 C 250.457 -0.960294 4.17088 0
M  V30 2672 C 249.783 -2.16219 4.89033 0
M  V30 2673 C 251.083 -0.00153679 5.223 0
M  V30 2674 H 252.777 0.277164 2.98114 0
M  V30 2675 H 250.323 0.134739 1.43368 0
M  V30 2676 H 252.276 -2.05826 3.67714 0
M  V30 2677 H 251 -2.1714 2.43962 0
M  V30 2678 H 249.659 -0.410806 3.64291 0
M  V30 2679 H 249.307 -2.83307 4.15628 0
M  V30 2680 H 249.007 -1.81654 5.58816 0
M  V30 2681 H 250.531 -2.73968 5.45687 0
M  V30 2682 H 251.945 -0.482687 5.71264 0
M  V30 2683 H 250.342 0.256199 5.99553 0
M  V30 2684 H 251.412 0.938174 4.75738 0
M  V30 2685 N 252.755 -1.56801 0.158532 0
M  V30 2686 C 253.685 -2.20347 -0.772609 0
M  V30 2687 C 254.666 -1.15518 -1.24859 0
M  V30 2688 O 255.851 -1.43902 -1.30406 0
M  V30 2689 C 252.981 -2.83417 -2.00729 0
M  V30 2690 C 251.935 -3.94174 -1.66765 0
M  V30 2691 C 251.261 -4.44233 -2.97592 0
M  V30 2692 C 252.561 -5.14392 -0.905447 0
M  V30 2693 H 254.255 -2.98413 -0.242959 0
M  V30 2694 H 251.801 -1.43537 -0.115419 0
M  V30 2695 H 253.754 -3.26543 -2.6636 0
M  V30 2696 H 252.478 -2.02701 -2.56086 0
M  V30 2697 H 251.137 -3.51684 -1.03508 0
M  V30 2698 H 250.785 -3.60325 -3.50963 0
M  V30 2699 H 250.485 -5.18945 -2.75626 0
M  V30 2700 H 252.009 -4.90037 -3.64274 0
M  V30 2701 H 253.423 -5.5429 -1.46408 0
M  V30 2702 H 251.82 -5.9494 -0.7853 0
M  V30 2703 H 252.89 -4.84795 0.100668 0
M  V30 2704 N 254.233 0.115231 -1.57178 0
M  V30 2705 C 255.644 0.67197 -1.74188 0
M  V30 2706 C 255.995 1.80125 -0.777777 0
M  V30 2707 O 255.12 2.16346 0.0484376 0
M  V30 2708 C 255.715 1.22573 -3.1585 0
M  V30 2709 C 254.274 1.72872 -3.34353 0
M  V30 2710 C 253.421 0.629972 -2.70049 0
M  V30 2711 H 256.372 -0.110712 -1.58313 0
M  V30 2712 H 256.393 2.09535 -3.17609 0
M  V30 2713 H 255.905 0.403598 -3.85996 0
M  V30 2714 H 254.006 2.5755 -2.69256 0
M  V30 2715 H 254.119 1.83557 -4.42542 0
M  V30 2716 H 252.483 1.0645 -2.31388 0
M  V30 2717 H 253.266 -0.181241 -3.42821 0
M  V30 2718 N 255.711 1.52812 0.385517 0
M  V30 2719 C 256.951 1.69716 1.13911 0
M  V30 2720 C 257.315 0.42962 1.87132 0
M  V30 2721 O 258.516 0.475071 2.64569 0
M  V30 2722 C 256.787 2.90021 2.0886 0
M  V30 2723 S 258.346 3.27531 2.92009 0
M  V30 2724 H 255.164 0.59739 0.385547 0
M  V30 2725 H 257.766 1.90868 0.423061 0
M  V30 2726 H 256.47 3.80493 1.53797 0
M  V30 2727 H 256.001 2.71213 2.84969 0
M  V30 2728 H 258.016 2.77989 4.11019 0
M  V30 2729 N 257.189 -0.644168 1.43834 0
M  V30 2730 C 258.437 -1.40117 1.45642 0
M  V30 2731 C 258.758 -1.94814 0.0852413 0
M  V30 2732 O 258.028 -1.74988 -0.880688 0
M  V30 2733 H 256.608 -0.52005 0.536243 0
M  V30 2734 H 259.27 -0.7591 1.7951 0
M  V30 2735 H 258.366 -2.23902 2.17427 0
M  V30 2736 N 258.668 -1.30515 -0.883378 0
M  V30 2737 C 259.917 -1.18795 -1.63005 0
M  V30 2738 C 260.23 0.255923 -1.93919 0
M  V30 2739 O 261.436 0.494654 -2.66956 0
M  V30 2740 C 259.892 -2.07878 -2.93794 0
M  V30 2741 C 259.5 -3.57184 -2.70414 0
M  V30 2742 C 261.244 -2.04924 -3.71761 0
M  V30 2743 C 259.151 -4.38317 -3.97029 0
M  V30 2744 H 258.081 -0.441031 -0.611562 0
M  V30 2745 H 260.732 -1.55275 -0.977854 0
M  V30 2746 H 259.114 -1.64283 -3.60315 0
M  V30 2747 H 260.288 -4.08937 -2.12384 0
M  V30 2748 H 258.603 -3.61976 -2.0582 0
M  V30 2749 H 261.2 -2.62792 -4.65665 0
M  V30 2750 H 261.543 -1.0331 -4.03277 0
M  V30 2751 H 262.076 -2.46649 -3.12104 0
M  V30 2752 H 258.815 -5.40632 -3.70671 0
M  V30 2753 H 258.335 -3.91326 -4.54559 0
M  V30 2754 H 260.014 -4.49834 -4.65036 0
M  V30 2755 N 260.146 1.09593 -1.13257 0
M  V30 2756 C 261.423 1.78293 -0.804432 0
M  V30 2757 C 261.803 1.99004 0.70431 0
M  V30 2758 O 261.151 1.59007 1.641 0
M  V30 2759 C 261.361 3.10707 -1.5894 0
M  V30 2760 C 262.709 3.85443 -1.78099 0
M  V30 2761 O 263.733 3.20454 -1.55525 0
M  V30 2762 O 262.592 5.02108 -2.15753 0
M  V30 2763 H 259.686 0.773156 -0.293528 0
M  V30 2764 H 262.232 1.16164 -1.23709 0
M  V30 2765 H 261.004 2.91106 -2.61482 0
M  V30 2766 H 260.627 3.80558 -1.15157 0
M  V30 2767 N 261.624 0.925811 1.2754 0
M  V30 2768 C 262.571 0.422045 2.26908 0
M  V30 2769 C 263.541 -0.510029 1.58076 0
M  V30 2770 O 264.726 -0.429599 1.85901 0
M  V30 2771 C 261.866 -0.320837 3.43605 0
M  V30 2772 C 260.979 0.64513 4.27156 0
M  V30 2773 C 260.114 -0.117405 5.3107 0
M  V30 2774 C 259.153 0.841391 6.0629 0
M  V30 2775 N 258.29 0.111604 7.02011 0
M  V30 2776 H 263.13 1.27441 2.69375 0
M  V30 2777 H 260.667 0.639697 1.32462 0
M  V30 2778 H 262.625 -0.76785 4.10073 0
M  V30 2779 H 261.255 -1.13745 3.02096 0
M  V30 2780 H 260.307 1.21067 3.6062 0
M  V30 2781 H 261.619 1.37797 4.79389 0
M  V30 2782 H 260.773 -0.624422 6.03478 0
M  V30 2783 H 259.512 -0.883219 4.79636 0
M  V30 2784 H 258.517 1.35967 5.32722 0
M  V30 2785 H 259.742 1.60696 6.59813 0
M  V30 2786 H 257.688 -0.635999 6.5291 0
M  V30 2787 H 257.605 0.784044 7.51923 0
M  V30 2788 H 258.873 -0.374823 7.78598 0
M  V30 2789 N 263.102 -1.41638 0.69111 0
M  V30 2790 C 264.349 -2.01299 0.220193 0
M  V30 2791 C 264.677 -1.54715 -1.17871 0
M  V30 2792 O 263.932 -0.747193 -1.80874 0
M  V30 2793 C 264.231 -3.56714 0.221277 0
M  V30 2794 C 263.897 -4.22792 1.56709 0
M  V30 2795 C 262.559 -4.40557 1.93554 0
M  V30 2796 C 264.911 -4.59883 2.45268 0
M  V30 2797 C 262.239 -4.92688 3.18552 0
M  V30 2798 C 264.591 -5.13403 3.69595 0
M  V30 2799 C 263.255 -5.29379 4.06589 0
M  V30 2800 H 262.525 -0.736606 0.0805743 0
M  V30 2801 H 265.172 -1.69598 0.889319 0
M  V30 2802 H 263.477 -3.8818 -0.531391 0
M  V30 2803 H 265.174 -4.00678 -0.160547 0
M  V30 2804 H 261.764 -4.09336 1.2705 0
M  V30 2805 H 265.948 -4.45817 2.18084 0
M  V30 2806 H 261.204 -5.03242 3.47214 0
M  V30 2807 H 265.378 -5.41084 4.38407 0
M  V30 2808 H 263.005 -5.69537 5.03519 0
M  V30 2809 N 264.58 -0.43555 -1.51462 0
M  V30 2810 C 265.996 -0.0877501 -1.59359 0
M  V30 2811 C 266.196 1.4027 -1.4466 0
M  V30 2812 O 265.252 2.17243 -1.28693 0
M  V30 2813 C 266.565 -0.606264 -2.94525 0
M  V30 2814 C 268.113 -0.566548 -3.0783 0
M  V30 2815 C 268.588 -1.06201 -4.45517 0
M  V30 2816 N 270.079 -1.01992 -4.51832 0
M  V30 2817 C 270.814 -1.37417 -5.5669 0
M  V30 2818 N 270.31 -1.80119 -6.68976 0
M  V30 2819 N 272.103 -1.29245 -5.47039 0
M  V30 2820 H 264.254 -1.40533 -1.59261 0
M  V30 2821 H 266.517 -0.578992 -0.750648 0
M  V30 2822 H 266.223 -1.64901 -3.10645 0
M  V30 2823 H 266.097 -0.0302097 -3.77188 0
M  V30 2824 H 268.484 0.467208 -2.91378 0
M  V30 2825 H 268.565 -1.17898 -2.2701 0
M  V30 2826 H 268.209 -2.09422 -4.62715 0
M  V30 2827 H 268.139 -0.426127 -5.24873 0
M  V30 2828 H 270.63 -0.706308 -3.71241 0
M  V30 2829 H 270.943 -2.05392 -7.45006 0
M  V30 2830 H 269.288 -1.84044 -6.70189 0
M  V30 2831 H 272.479 -0.957522 -4.58202 0
M  V30 2832 H 272.652 -1.57182 -6.28648 0
M  V30 2833 N 266.058 1.56714 -0.166846 0
M  V30 2834 C 267.306 1.96358 0.478305 0
M  V30 2835 C 267.627 1.0537 1.6408 0
M  V30 2836 O 266.897 0.119154 1.95537 0
M  V30 2837 H 265.477 0.725065 0.179692 0
M  V30 2838 H 268.139 1.93329 -0.246985 0
M  V30 2839 H 267.235 3.00547 0.841292 0
M  V30 2840 N 267.536 -0.106894 1.57237 0
M  V30 2841 C 268.782 -0.81373 1.85759 0
M  V30 2842 C 269.115 -1.78952 0.754315 0
M  V30 2843 O 268.39 -1.93029 -0.23879 0
M  V30 2844 C 268.673 -1.55293 3.24894 0
M  V30 2845 C 268.526 -0.595929 4.45835 0
M  V30 2846 C 269.845 -2.5063 3.61763 0
M  V30 2847 H 266.964 -0.294369 0.67566 0
M  V30 2848 H 269.606 -0.0776472 1.89841 0
M  V30 2849 H 267.756 -2.1804 3.21544 0
M  V30 2850 H 269.428 0.0236262 4.61294 0
M  V30 2851 H 267.671 0.0916191 4.33703 0
M  V30 2852 H 268.342 -1.15004 5.39887 0
M  V30 2853 H 270.818 -1.97982 3.65981 0
M  V30 2854 H 269.694 -2.99376 4.60071 0
M  V30 2855 H 269.955 -3.3385 2.89821 0
M  V30 2856 N 269.014 -1.53014 -0.377408 0
M  V30 2857 C 269.924 -1.81557 -1.48574 0
M  V30 2858 C 270.94 -0.703102 -1.59162 0
M  V30 2859 O 272.116 -0.99192 -1.75279 0
M  V30 2860 C 269.181 -1.9889 -2.83978 0
M  V30 2861 C 268.242 -3.22801 -2.83016 0
M  V30 2862 C 267.475 -3.39298 -4.11962 0
M  V30 2863 O 267.698 -2.60345 -5.0752 0
M  V30 2864 O 266.632 -4.32604 -4.18494 0
M  V30 2865 H 270.458 -2.75695 -1.27382 0
M  V30 2866 H 268.043 -1.38248 -0.566373 0
M  V30 2867 H 269.925 -2.11931 -3.6423 0
M  V30 2868 H 268.6 -1.07942 -3.05172 0
M  V30 2869 H 267.507 -3.15193 -2.01505 0
M  V30 2870 H 268.84 -4.13632 -2.66775 0
M  V30 2871 N 270.492 0.636531 -1.44174 0
M  V30 2872 C 271.739 1.39619 -1.46672 0
M  V30 2873 C 272.067 1.94257 -0.0972691 0
M  V30 2874 O 271.322 1.73768 0.900175 0
M  V30 2875 C 271.621 2.58309 -2.47005 0
M  V30 2876 C 271.287 2.21992 -3.92467 0
M  V30 2877 C 269.949 2.118 -4.32081 0
M  V30 2878 C 272.301 1.9321 -4.84065 0
M  V30 2879 C 269.629 1.71007 -5.61225 0
M  V30 2880 C 271.981 1.53911 -6.13591 0
M  V30 2881 C 270.645 1.42257 -6.52165 0
M  V30 2882 H 269.915 0.510902 -0.536712 0
M  V30 2883 H 272.562 0.722328 -1.77355 0
M  V30 2884 H 270.867 3.30903 -2.09786 0
M  V30 2885 H 272.564 3.16533 -2.46186 0
M  V30 2886 H 269.154 2.30841 -3.61124 0
M  V30 2887 H 273.338 1.99997 -4.54219 0
M  V30 2888 H 268.594 1.60583 -5.89935 0
M  V30 2889 H 272.768 1.30677 -6.8403 0
M  V30 2890 H 270.395 1.10419 -7.52138 0
M  V30 2891 N 271.97 1.30982 0.876444 0
M  V30 2892 C 273.216 1.20474 1.63138 0
M  V30 2893 C 273.549 -0.238096 1.92735 0
M  V30 2894 O 272.824 -1.1692 1.55435 0
M  V30 2895 C 273.107 2.04244 2.96574 0
M  V30 2896 C 272.96 3.56793 2.73896 0
M  V30 2897 C 274.279 1.88684 3.97601 0
M  V30 2898 H 271.398 0.439001 0.591985 0
M  V30 2899 H 274.04 1.60704 1.01361 0
M  V30 2900 H 272.19 1.70063 3.493 0
M  V30 2901 H 273.862 4.01077 2.27892 0
M  V30 2902 H 272.105 3.80548 2.08245 0
M  V30 2903 H 272.776 4.10706 3.68815 0
M  V30 2904 H 275.252 2.18584 3.54062 0
M  V30 2905 H 274.128 2.4961 4.88862 0
M  V30 2906 H 274.389 0.848343 4.33884 0
M  V30 2907 N 273.449 -1.08991 1.13837 0
M  V30 2908 C 274.689 -1.82867 0.913183 0
M  V30 2909 C 275.053 -1.83936 -0.550604 0
M  V30 2910 O 276.254 -2.53515 -0.893515 0
M  V30 2911 C 274.525 -3.24843 1.49036 0
M  V30 2912 S 276.084 -4.15669 1.40588 0
M  V30 2913 H 272.902 -0.630278 0.329046 0
M  V30 2914 H 275.504 -1.31049 1.45073 0
M  V30 2915 H 274.208 -3.21644 2.54899 0
M  V30 2916 H 273.739 -3.81734 0.950947 0
M  V30 2917 H 275.754 -4.94686 0.387353 0
M  V30 2918 N 274.927 -0.932562 -1.27047 0
M  V30 2919 C 276.167 -0.582919 -1.95912 0
M  V30 2920 C 276.531 0.860629 -1.71631 0
M  V30 2921 O 277.732 1.31878 -2.34225 0
M  V30 2922 C 276.003 -0.905673 -3.45734 0
M  V30 2923 S 277.562 -0.665277 -4.33727 0
M  V30 2924 H 274.38 -0.215 -0.677714 0
M  V30 2925 H 276.982 -1.20204 -1.54179 0
M  V30 2926 H 275.686 -1.95386 -3.60905 0
M  V30 2927 H 275.217 -0.275939 -3.92431 0
M  V30 2928 H 277.232 0.474635 -4.93925 0
M  V30 2929 N 276.405 1.4127 -0.698611 0
M  V30 2930 C 277.816 1.84187 -0.305289 0
M  V30 2931 C 278.167 1.58449 1.15708 0
M  V30 2932 O 277.292 1.05651 1.88856 0
M  V30 2933 C 277.887 3.3435 -0.547314 0
M  V30 2934 C 276.446 3.75826 -0.207878 0
M  V30 2935 C 275.593 2.64647 -0.828099 0
M  V30 2936 H 278.544 1.30778 -0.89904 0
M  V30 2937 H 278.565 3.8001 0.192998 0
M  V30 2938 H 278.077 3.53051 -1.61172 0
M  V30 2939 H 276.178 3.62725 0.852143 0
M  V30 2940 H 276.291 4.74462 -0.665021 0
M  V30 2941 H 274.655 2.53395 -0.257458 0
M  V30 2942 H 275.438 2.86165 -1.89643 0
M  V30 2943 N 277.883 0.443576 1.51229 0
M  V30 2944 C 278.813 -0.355142 2.30783 0
M  V30 2945 C 279.794 -1.0154 1.36468 0
M  V30 2946 O 280.979 -1.01785 1.65389 0
M  V30 2947 C 278.109 -1.45312 3.15439 0
M  V30 2948 C 277.063 -0.916002 4.18083 0
M  V30 2949 C 276.389 -2.1102 4.91299 0
M  V30 2950 C 277.689 0.0538602 5.22272 0
M  V30 2951 H 279.383 0.308767 2.97804 0
M  V30 2952 H 276.929 0.149937 1.43217 0
M  V30 2953 H 278.882 -2.01914 3.69876 0
M  V30 2954 H 277.606 -2.14541 2.46252 0
M  V30 2955 H 276.265 -0.372145 3.64706 0
M  V30 2956 H 275.913 -2.78882 4.18609 0
M  V30 2957 H 275.613 -1.75717 5.60712 0
M  V30 2958 H 277.137 -2.68164 5.48562 0
M  V30 2959 H 278.551 -0.422069 5.71744 0
M  V30 2960 H 276.948 0.319776 5.99247 0
M  V30 2961 H 278.018 0.98858 4.74716 0
M  V30 2962 N 279.361 -1.56624 0.175154 0
M  V30 2963 C 280.324 -2.16934 -0.739738 0
M  V30 2964 C 281.324 -1.11842 -1.15533 0
M  V30 2965 O 282.514 -1.37335 -1.07167 0
M  V30 2966 C 279.646 -2.75531 -2.00738 0
M  V30 2967 H 280.839 -2.99131 -0.214639 0
M  V30 2968 H 278.392 -1.56123 -0.0744197 0
M  V30 2969 H 279.127 -1.97078 -2.57548 0
M  V30 2970 H 278.912 -3.52444 -1.71831 0
M  V30 2971 H 280.402 -3.21904 -2.66021 0
M  V30 2972 N 280.839 0.0985539 -1.57292 0
M  V30 2973 C 281.749 1.13824 -2.05137 0
M  V30 2974 C 282.765 1.44076 -0.975604 0
M  V30 2975 O 283.941 1.54786 -1.28853 0
M  V30 2976 C 281.006 2.43969 -2.46333 0
M  V30 2977 C 280.067 2.2093 -3.68087 0
M  V30 2978 C 279.3 3.44869 -4.0731 0
M  V30 2979 O 279.523 4.52972 -3.46659 0
M  V30 2980 O 278.457 3.34661 -5.00285 0
M  V30 2981 H 282.283 0.761881 -2.93988 0
M  V30 2982 H 279.868 0.310818 -1.46131 0
M  V30 2983 H 281.75 3.20609 -2.73473 0
M  V30 2984 H 280.425 2.81038 -1.60621 0
M  V30 2985 H 279.332 1.42081 -3.46069 0
M  V30 2986 H 280.665 1.88755 -4.54568 0
M  V30 2987 N 282.317 1.53212 0.369288 0
M  V30 2988 C 283.227 1.82342 1.47609 0
M  V30 2989 C 284.243 0.711532 1.58787 0
M  V30 2990 O 285.419 1.0012 1.74751 0
M  V30 2991 C 282.484 2.00393 2.8292 0
M  V30 2992 C 281.545 3.24297 2.81301 0
M  V30 2993 C 280.778 3.41478 4.10157 0
M  V30 2994 O 281.001 2.63033 5.06132 0
M  V30 2995 O 279.935 4.34817 4.16194 0
M  V30 2996 H 283.761 2.76366 1.25918 0
M  V30 2997 H 281.346 1.38547 0.559034 0
M  V30 2998 H 283.228 2.13859 3.63101 0
M  V30 2999 H 281.903 1.09559 3.04596 0
M  V30 3000 H 280.81 3.16257 1.99831 0
M  V30 3001 H 282.143 4.15041 2.64578 0
M  V30 3002 N 283.795 -0.628877 1.44509 0
M  V30 3003 C 285.02 -1.42048 1.5112 0
M  V30 3004 C 285.445 -1.87594 0.137818 0
M  V30 3005 O 284.803 -1.58873 -0.873437 0
M  V30 3006 C 284.851 -2.61541 2.48251 0
M  V30 3007 O 283.955 -3.61453 1.98559 0
M  V30 3008 H 283.296 -0.424942 0.510216 0
M  V30 3009 H 285.826 -0.767374 1.89664 0
M  V30 3010 H 285.836 -3.09057 2.66361 0
M  V30 3011 H 284.511 -2.27736 3.48007 0
M  V30 3012 H 283.088 -3.20731 1.90227 0
M  V30 3013 N 285.273 -1.31445 -0.869486 0
M  V30 3014 C 286.55 -1.11795 -1.60503 0
M  V30 3015 C 286.93 0.327168 -2.08549 0
M  V30 3016 O 286.278 1.32135 -1.8642 0
M  V30 3017 C 286.488 -2.13258 -2.76265 0
M  V30 3018 C 287.836 -2.45805 -3.46215 0
M  V30 3019 O 288.86 -2.11688 -2.86473 0
M  V30 3020 O 287.719 -3.04228 -4.5399 0
M  V30 3021 H 284.813 -0.430421 -0.706163 0
M  V30 3022 H 287.359 -1.42925 -0.914907 0
M  V30 3023 H 286.131 -3.10461 -2.3818 0
M  V30 3024 H 285.754 -1.83035 -3.52964 0
M  V30 3025 N 286.751 1.08385 -1.14413 0
M  V30 3026 C 287.699 2.17406 -0.826888 0
M  V30 3027 C 288.693 1.6827 0.195312 0
M  V30 3028 O 289.899 1.79927 0.0513892 0
M  V30 3029 H 286.274 0.70934 -0.249681 0
M  V30 3030 H 288.245 2.41388 -1.75426 0
M  V30 3031 C 286.994 3.46215 -0.320979 0
M  V30 3032 H 286.317 3.84401 -1.0989 0
M  V30 3033 H 287.757 4.23777 -0.137549 0
M  V30 3034 C 286.216 3.23067 0.955472 0
M  V30 3035 O 286.746 3.4668 2.02918 0
M  V30 3036 N 284.952 2.7661 0.890798 0
M  V30 3037 H 284.499 2.57594 0.0168815 0
M  V30 3038 H 284.457 2.61501 1.74542 0
M  V30 3039 N 288.23 0.939286 1.26551 0
M  V30 3040 C 289.476 0.586715 1.94128 0
M  V30 3041 C 289.809 -0.8717 1.73537 0
M  V30 3042 O 289.084 -1.62339 1.07127 0
M  V30 3043 C 289.367 0.927497 3.4795 0
M  V30 3044 C 289.22 2.44052 3.77834 0
M  V30 3045 C 290.539 0.441569 4.37879 0
M  V30 3046 H 287.658 0.21463 0.705055 0
M  V30 3047 H 290.3 1.17316 1.49455 0
M  V30 3048 H 288.45 0.428431 3.8613 0
M  V30 3049 H 290.122 3.01216 3.4938 0
M  V30 3050 H 288.365 2.8848 3.23978 0
M  V30 3051 H 289.036 2.62947 4.85348 0
M  V30 3052 H 291.512 0.869448 4.06915 0
M  V30 3053 H 290.388 0.708856 5.44304 0
M  V30 3054 H 290.649 -0.658467 4.37169 0
M  V30 3055 N 289.708 -1.40897 0.706093 0
M  V30 3056 C 290.985 -1.94868 0.169099 0
M  V30 3057 C 291.365 -1.64485 -1.32318 0
M  V30 3058 O 290.713 -0.95744 -2.07474 0
M  V30 3059 C 290.923 -3.45798 0.471654 0
M  V30 3060 C 292.271 -4.22663 0.405127 0
M  V30 3061 O 293.295 -3.53865 0.407168 0
M  V30 3062 O 292.154 -5.45216 0.374383 0
M  V30 3063 H 289.248 -0.82673 0.0211352 0
M  V30 3064 H 291.794 -1.50558 0.782976 0
M  V30 3065 H 290.566 -3.61235 1.50416 0
M  V30 3066 H 290.189 -3.97225 -0.172666 0
M  V30 3067 N 291.186 -0.45159 -1.50991 0
M  V30 3068 C 292.411 0.110667 -2.07105 0
M  V30 3069 C 292.836 1.3446 -1.31538 0
M  V30 3070 O 292.194 1.77743 -0.357365 0
M  V30 3071 C 292.242 0.397238 -3.58405 0
M  V30 3072 O 291.346 1.48124 -3.84881 0
M  V30 3073 H 290.687 -0.00439271 -0.663985 0
M  V30 3074 H 293.217 -0.637026 -1.9443 0
M  V30 3075 H 293.227 0.64351 -4.02893 0
M  V30 3076 H 291.902 -0.504553 -4.12828 0
M  V30 3077 H 290.479 1.22381 -3.52246 0
M  V30 3078 N 292.664 1.56529 -0.183458 0
M  V30 3079 C 293.627 2.17324 0.728223 0
M  V30 3080 C 294.627 1.12453 1.14939 0
M  V30 3081 O 295.817 1.37902 1.06437 0
M  V30 3082 C 292.949 2.76591 1.99274 0
M  V30 3083 H 294.142 2.99241 0.198772 0
M  V30 3084 H 291.695 1.5616 0.0661391 0
M  V30 3085 H 292.43 1.98441 2.56499 0
M  V30 3086 H 292.215 3.5335 1.69959 0
M  V30 3087 H 293.705 3.23311 2.6431 0
M  V30 3088 N 294.142 -0.090211 1.57342 0
M  V30 3089 C 295.419 -0.824761 1.77361 0
M  V30 3090 C 295.799 -1.96698 0.76637 0
M  V30 3091 O 295.147 -2.27586 -0.204179 0
M  V30 3092 C 295.357 -1.31481 3.23286 0
M  V30 3093 C 296.705 -1.75563 3.86604 0
M  V30 3094 O 297.729 -1.41093 3.27065 0
M  V30 3095 O 296.588 -2.39317 4.91314 0
M  V30 3096 H 293.682 -0.393776 0.727234 0
M  V30 3097 H 296.228 -0.0717138 1.69548 0
M  V30 3098 H 295 -0.496671 3.88135 0
M  V30 3099 H 294.623 -2.12973 3.35751 0
M  V30 3100 N 295.62 -1.53406 -0.361157 0
M  V30 3101 C 296.583 -1.79479 -1.42548 0
M  V30 3102 C 297.583 -0.665327 -1.4639 0
M  V30 3103 O 298.773 -0.933549 -1.47073 0
M  V30 3104 C 295.905 -1.92087 -2.8163 0
M  V30 3105 H 297.098 -2.74538 -1.20701 0
M  V30 3106 H 294.651 -1.4455 -0.594546 0
M  V30 3107 H 295.386 -0.991099 -3.08784 0
M  V30 3108 H 295.171 -2.74241 -2.80239 0
M  V30 3109 H 296.661 -2.13836 -3.58697 0
M  V30 3110 N 297.098 0.621204 -1.44841 0
M  V30 3111 C 298.008 1.7612 -1.5498 0
M  V30 3112 C 299.024 1.68477 -0.434927 0
M  V30 3113 O 300.2 1.89076 -0.693693 0
M  V30 3114 C 297.265 3.1254 -1.50065 0
M  V30 3115 C 296.326 3.31741 -2.72482 0
M  V30 3116 C 295.559 4.61653 -2.67792 0
M  V30 3117 O 295.782 5.431 -1.74352 0
M  V30 3118 O 294.716 4.83271 -3.58794 0
M  V30 3119 H 298.542 1.70518 -2.51311 0
M  V30 3120 H 296.127 0.783643 -1.27198 0
M  V30 3121 H 298.009 3.93844 -1.49882 0
M  V30 3122 H 296.684 3.18663 -0.568806 0
M  V30 3123 H 295.591 2.50077 -2.7823 0
M  V30 3124 H 296.924 3.30486 -3.64746 0
M  V30 3125 N 298.576 1.31904 0.862503 0
M  V30 3126 C 299.486 1.22161 2.00285 0
M  V30 3127 C 300.502 0.136785 1.73462 0
M  V30 3128 O 301.678 0.355994 1.98229 0
M  V30 3129 C 298.743 0.937093 3.33796 0
M  V30 3130 C 297.804 2.10957 3.73893 0
M  V30 3131 C 297.037 1.83853 5.01033 0
M  V30 3132 O 297.26 0.777274 5.65079 0
M  V30 3133 O 296.194 2.69741 5.38074 0
M  V30 3134 H 300.02 2.18008 2.11439 0
M  V30 3135 H 297.605 1.11716 0.991957 0
M  V30 3136 H 299.487 0.794583 4.13841 0
M  V30 3137 H 298.162 0.00871894 3.23699 0
M  V30 3138 H 297.069 2.30752 2.94456 0
M  V30 3139 H 298.402 3.02046 3.88625 0
M  V30 3140 N 300.054 -1.07777 1.14986 0
M  V30 3141 C 301.331 -1.7699 0.832695 0
M  V30 3142 C 301.711 -2.001 -0.672561 0
M  V30 3143 O 301.059 -1.61598 -1.6155 0
M  V30 3144 C 301.269 -3.08139 1.63863 0
M  V30 3145 C 302.617 -3.8256 1.84208 0
M  V30 3146 O 303.641 -3.17939 1.60603 0
M  V30 3147 O 302.5 -4.98612 2.23714 0
M  V30 3148 H 299.594 -0.768389 0.305791 0
M  V30 3149 H 302.14 -1.14182 1.25541 0
M  V30 3150 H 300.912 -2.86909 2.6608 0
M  V30 3151 H 300.535 -3.78678 1.21197 0
M  V30 3152 N 301.532 -0.945985 -1.26051 0
M  V30 3153 C 302.809 -0.513816 -1.88731 0
M  V30 3154 C 303.189 1.00872 -1.8544 0
M  V30 3155 O 302.537 1.8708 -1.312 0
M  V30 3156 C 302.747 -1.08062 -3.31849 0
M  V30 3157 C 304.095 -1.1522 -4.08668 0
M  V30 3158 O 305.119 -1.03155 -3.40936 0
M  V30 3159 O 303.978 -1.34044 -5.29806 0
M  V30 3160 H 301.072 -0.168193 -0.809716 0
M  V30 3161 H 303.618 -1.03886 -1.34186 0
M  V30 3162 H 302.39 -2.1241 -3.2863 0
M  V30 3163 H 302.013 -0.538307 -3.93939 0
M  V30 3164 N 303.011 1.40521 -0.713556 0
M  V30 3165 C 304.236 2.05759 -0.26035 0
M  V30 3166 C 304.661 1.53403 1.08854 0
M  V30 3167 O 304.019 0.668535 1.68524 0
M  V30 3168 C 304.067 3.59745 -0.248122 0
M  V30 3169 O 303.171 4.05123 0.77131 0
M  V30 3170 H 302.512 0.652564 -0.122703 0
M  V30 3171 H 305.042 1.79958 -0.973467 0
M  V30 3172 H 305.052 4.07911 -0.0851129 0
M  V30 3173 H 303.727 3.97218 -1.2325 0
M  V30 3174 H 302.304 3.68422 0.57619 0
M  V30 3175 N 304.489 0.459591 1.5075 0
M  V30 3176 C 305.766 -0.160371 1.94941 0
M  V30 3177 C 306.146 -1.58048 1.39943 0
M  V30 3178 O 305.494 -2.206 0.595629 0
M  V30 3179 C 305.704 -0.115432 3.48809 0
M  V30 3180 C 307.052 -0.310026 4.23467 0
M  V30 3181 O 308.076 -0.192543 3.55679 0
M  V30 3182 O 306.935 -0.546031 5.43765 0
M  V30 3183 H 304.029 -0.117925 0.818549 0
M  V30 3184 H 306.575 0.519169 1.61563 0
M  V30 3185 H 305.347 0.87652 3.81357 0
M  V30 3186 H 304.97 -0.836928 3.88692 0
M  V30 3187 N 305.967 -1.56429 0.191757 0
M  V30 3188 C 307.213 -1.97777 -0.448554 0
M  V30 3189 C 307.546 -1.07847 -1.61501 0
M  V30 3190 O 306.821 -0.129774 -1.94067 0
M  V30 3191 C 307.104 -3.48362 -0.911906 0
M  V30 3192 C 306.957 -4.4907 0.256136 0
M  V30 3193 C 308.276 -4.02561 -1.77857 0
M  V30 3194 H 305.395 -0.719071 -0.161572 0
M  V30 3195 H 308.037 -1.87896 0.282007 0
M  V30 3196 H 306.187 -3.56914 -1.53442 0
M  V30 3197 H 307.859 -4.5256 0.893733 0
M  V30 3198 H 306.102 -4.24181 0.908436 0
M  V30 3199 H 306.773 -5.51889 -0.11053 0
M  V30 3200 H 309.249 -3.96767 -1.25359 0
M  V30 3201 H 308.125 -5.08301 -2.07174 0
M  V30 3202 H 308.386 -3.47616 -2.73158 0
M  V30 3203 N 307.445 0.0818655 -1.57387 0
M  V30 3204 C 308.691 0.778884 -1.87896 0
M  V30 3205 C 309.046 1.75692 -0.784229 0
M  V30 3206 O 308.339 1.90417 0.212567 0
M  V30 3207 C 308.533 1.53513 -3.22752 0
M  V30 3208 C 308.362 0.631838 -4.45239 0
M  V30 3209 C 307.132 0.272571 -5.04564 0
M  V30 3210 C 309.33 -0.0670191 -5.14256 0
M  V30 3211 N 307.312 -0.637498 -6.10581 0
M  V30 3212 C 308.683 -0.834653 -6.14356 0
M  V30 3213 C 310.738 -0.139551 -4.97704 0
M  V30 3214 C 309.441 -1.66806 -6.99691 0
M  V30 3215 C 311.467 -0.959903 -5.83558 0
M  V30 3216 C 310.829 -1.71561 -6.83188 0
M  V30 3217 H 306.928 0.260764 -0.737242 0
M  V30 3218 H 309.512 0.0408227 -1.94657 0
M  V30 3219 H 307.683 2.24398 -3.17018 0
M  V30 3220 H 309.415 2.18038 -3.40942 0
M  V30 3221 H 306.17 0.62319 -4.69482 0
M  V30 3222 H 306.594 -1.08548 -6.68241 0
M  V30 3223 H 311.236 0.430376 -4.20604 0
M  V30 3224 H 308.954 -2.249 -7.76174 0
M  V30 3225 H 312.54 -1.01887 -5.72809 0
M  V30 3226 H 311.42 -2.34017 -7.48469 0
M  V30 3227 N 308.923 1.53595 0.353017 0
M  V30 3228 C 310.169 1.71581 1.09232 0
M  V30 3229 C 310.524 0.468328 1.86613 0
M  V30 3230 O 309.817 -0.538911 1.83865 0
M  V30 3231 C 310.011 2.91313 2.07054 0
M  V30 3232 C 309.84 4.27585 1.39287 0
M  V30 3233 C 308.61 4.92233 1.1417 0
M  V30 3234 C 310.808 5.07656 0.824005 0
M  V30 3235 N 308.79 6.124 0.428841 0
M  V30 3236 C 310.161 6.19531 0.241195 0
M  V30 3237 C 312.216 4.92609 0.723922 0
M  V30 3238 C 310.919 7.18002 -0.431952 0
M  V30 3239 C 312.945 5.91365 0.0645334 0
M  V30 3240 C 312.307 7.02571 -0.507347 0
M  V30 3241 H 308.406 0.680987 0.384422 0
M  V30 3242 H 310.99 1.91013 0.377096 0
M  V30 3243 H 309.161 2.73398 2.75877 0
M  V30 3244 H 310.893 2.98062 2.73753 0
M  V30 3245 H 307.648 4.51612 1.42631 0
M  V30 3246 H 308.072 6.76944 0.0874131 0
M  V30 3247 H 312.714 4.06808 1.15181 0
M  V30 3248 H 310.432 8.03384 -0.871758 0
M  V30 3249 H 314.018 5.81799 -0.0121469 0
M  V30 3250 H 312.898 7.77675 -1.0095 0
M  V30 3251 N 310.401 -0.613514 1.45168 0
M  V30 3252 C 311.649 -1.36997 1.48581 0
M  V30 3253 C 311.97 -1.94589 0.126545 0
M  V30 3254 O 311.24 -1.76816 -0.843372 0
M  V30 3255 H 309.82 -0.508558 0.547154 0
M  V30 3256 H 312.482 -0.720853 1.81079 0
M  V30 3257 H 311.578 -2.1924 2.22127 0
M  V30 3258 N 311.879 -1.3236 -0.855495 0
M  V30 3259 C 313.127 -1.22629 -1.60644 0
M  V30 3260 C 313.448 0.212136 -1.93843 0
M  V30 3261 O 312.718 1.13666 -1.59552 0
M  V30 3262 H 311.298 -0.450882 -0.595579 0
M  V30 3263 H 313.96 -1.65871 -1.02337 0
M  V30 3264 H 313.056 -1.80832 -2.54374 0
M  V30 3265 N 313.357 1.07166 -1.15556 0
M  V30 3266 C 314.32 2.12589 -0.856644 0
M  V30 3267 C 315.32 1.6015 0.14444 0
M  V30 3268 O 316.51 1.7399 -0.0854163 0
M  V30 3269 C 313.642 3.39753 -0.279405 0
M  V30 3270 H 314.835 2.40539 -1.79112 0
M  V30 3271 H 312.388 1.23086 -0.963298 0
M  V30 3272 H 313.123 3.17447 0.663174 0
M  V30 3273 H 312.908 3.79117 -1.00063 0
M  V30 3274 H 314.398 4.17507 -0.0879113 0
M  V30 3275 N 314.835 0.952656 1.25548 0
M  V30 3276 C 316.112 0.523818 1.88456 0
M  V30 3277 C 316.492 -0.998871 1.85973 0
M  V30 3278 O 315.84 -1.86381 1.3219 0
M  V30 3279 C 316.05 1.0982 3.31271 0
M  V30 3280 C 317.398 1.17385 4.08051 0
M  V30 3281 O 318.422 1.04961 3.40384 0
M  V30 3282 O 317.281 1.36852 5.29088 0
M  V30 3283 H 314.375 0.172485 0.808813 0
M  V30 3284 H 316.921 1.04596 1.33633 0
M  V30 3285 H 315.693 2.1415 3.27499 0
M  V30 3286 H 315.316 0.559191 3.93648 0
M  V30 3287 N 316.313 -1.40141 0.720998 0
M  V30 3288 C 317.541 -2.05096 0.272656 0
M  V30 3289 C 317.956 -1.54334 -1.0875 0
M  V30 3290 O 317.313 -0.702211 -1.6845 0
M  V30 3291 C 317.364 -3.60636 0.249835 0
M  V30 3292 O 317.085 -4.09526 1.55629 0
M  V30 3293 C 318.586 -4.42772 -0.216396 0
M  V30 3294 H 315.806 -0.659897 0.121558 0
M  V30 3295 H 318.35 -1.79449 0.980723 0
M  V30 3296 H 316.505 -3.85232 -0.409237 0
M  V30 3297 H 316.919 -5.03758 1.4604 0
M  V30 3298 H 318.393 -5.51702 -0.181212 0
M  V30 3299 H 318.87 -4.20756 -1.25941 0
M  V30 3300 H 319.476 -4.23294 0.412596 0
M  V30 3301 N 317.792 -0.46758 -1.50504 0
M  V30 3302 C 319.069 0.15003 -1.95024 0
M  V30 3303 C 319.449 1.57304 -1.40779 0
M  V30 3304 O 318.797 2.20281 -0.607319 0
M  V30 3305 C 319.007 0.0969324 -3.48865 0
M  V30 3306 C 320.355 0.287565 -4.23625 0
M  V30 3307 O 321.379 0.173678 -3.55776 0
M  V30 3308 O 320.238 0.517186 -5.44047 0
M  V30 3309 H 317.332 0.113582 -0.819163 0
M  V30 3310 H 319.878 -0.52773 -1.61286 0
M  V30 3311 H 318.65 -0.896732 -3.80886 0
M  V30 3312 H 318.273 0.816303 -3.8913 0
M  V30 3313 N 319.27 1.56325 -0.20005 0
M  V30 3314 C 320.5 2.01811 0.442232 0
M  V30 3315 C 320.908 1.07932 1.55394 0
M  V30 3316 O 320.251 0.0772685 1.83537 0
M  V30 3317 C 320.313 3.43685 1.05457 0
M  V30 3318 C 319.977 4.56928 0.0809833 0
M  V30 3319 C 320.974 5.15009 -0.711471 0
M  V30 3320 C 318.659 5.0229 -0.0315364 0
M  V30 3321 C 320.653 6.16904 -1.60336 0
M  V30 3322 C 318.34 6.04028 -0.926981 0
M  V30 3323 C 319.338 6.6121 -1.71146 0
M  V30 3324 O 319.026 7.60971 -2.59189 0
M  V30 3325 H 318.758 0.666173 0.114848 0
M  V30 3326 H 321.312 2.03085 -0.307511 0
M  V30 3327 H 319.542 3.39413 1.85299 0
M  V30 3328 H 321.231 3.72948 1.60201 0
M  V30 3329 H 321.997 4.80827 -0.634873 0
M  V30 3330 H 317.876 4.57476 0.568902 0
M  V30 3331 H 321.42 6.61464 -2.21611 0
M  V30 3332 H 317.317 6.37634 -1.00468 0
M  V30 3333 H 318.085 7.7841 -2.53023 0
M  V30 3334 N 320.748 -0.0735177 1.57428 0
M  V30 3335 C 321.711 -1.07192 2.02589 0
M  V30 3336 C 322.711 -1.31695 0.922661 0
M  V30 3337 O 323.901 -1.27445 1.18758 0
M  V30 3338 C 321.033 -2.41599 2.40506 0
M  V30 3339 H 322.226 -0.682727 2.92025 0
M  V30 3340 H 319.779 -0.319193 1.53006 0
M  V30 3341 H 320.514 -2.85354 1.5409 0
M  V30 3342 H 320.299 -2.25156 3.21009 0
M  V30 3343 H 321.789 -3.13367 2.76027 0
M  V30 3344 N 322.226 -1.5378 -0.344866 0
M  V30 3345 C 323.503 -1.61589 -1.10219 0
M  V30 3346 C 323.883 -0.436316 -2.06542 0
M  V30 3347 O 323.231 0.571543 -2.21237 0
M  V30 3348 C 323.441 -2.97602 -1.82301 0
M  V30 3349 C 324.789 -3.5291 -2.36093 0
M  V30 3350 O 325.813 -2.99768 -1.924 0
M  V30 3351 O 324.672 -4.45859 -3.16026 0
M  V30 3352 H 321.766 -0.653522 -0.506792 0
M  V30 3353 H 324.312 -1.66126 -0.346465 0
M  V30 3354 H 323.084 -3.74893 -1.12121 0
M  V30 3355 H 322.707 -2.9665 -2.64735 0
M  V30 3356 N 323.704 0.605807 -1.45491 0
M  V30 3357 C 324.952 1.36207 -1.49305 0
M  V30 3358 C 325.273 1.94519 -0.136863 0
M  V30 3359 O 324.543 1.77261 0.833983 0
M  V30 3360 H 323.123 0.50565 -0.549843 0
M  V30 3361 H 325.785 0.711239 -1.81459 0
M  V30 3362 H 324.881 2.18058 -2.23287 0
M  V30 3363 N 325.182 1.32811 0.848464 0
M  V30 3364 C 326.407 1.26882 1.6406 0
M  V30 3365 C 326.832 -0.15913 1.87426 0
M  V30 3366 O 326.19 -1.11258 1.43148 0
M  V30 3367 C 326.238 2.03997 2.97351 0
M  V30 3368 O 325.342 1.39201 3.88197 0
M  V30 3369 H 324.683 0.436982 0.499943 0
M  V30 3370 H 327.213 1.75224 1.0563 0
M  V30 3371 H 327.223 2.14403 3.47124 0
M  V30 3372 H 325.898 3.0783 2.79666 0
M  V30 3373 H 324.475 1.37381 3.46671 0
M  V30 3374 N 326.66 -1.06551 1.16123 0
M  V30 3375 C 327.57 -2.17484 0.879662 0
M  V30 3376 C 328.586 -1.73377 -0.147104 0
M  V30 3377 O 329.762 -2.01379 0.0289128 0
M  V30 3378 C 326.827 -3.44591 0.381829 0
M  V30 3379 C 325.888 -4.0322 1.4735 0
M  V30 3380 C 325.121 -5.24261 0.999324 0
M  V30 3381 O 325.344 -5.70198 -0.151957 0
M  V30 3382 O 324.278 -5.74775 1.78653 0
M  V30 3383 H 328.104 -2.44075 1.80724 0
M  V30 3384 H 325.689 -1.16042 0.940992 0
M  V30 3385 H 327.571 -4.21254 0.111053 0
M  V30 3386 H 326.246 -3.19532 -0.51777 0
M  V30 3387 H 325.153 -3.2806 1.79798 0
M  V30 3388 H 326.486 -4.32568 2.34831 0
M  V30 3389 N 328.138 -0.959301 -1.25041 0
M  V30 3390 C 329.415 -0.533805 -1.88175 0
M  V30 3391 C 329.795 0.988994 -1.865 0
M  V30 3392 O 329.143 1.85677 -1.33177 0
M  V30 3393 C 329.353 -1.11575 -3.30684 0
M  V30 3394 C 330.701 -1.19548 -4.07423 0
M  V30 3395 O 331.725 -1.06765 -3.39823 0
M  V30 3396 O 330.584 -1.39656 -5.28354 0
M  V30 3397 H 327.678 -0.176772 -0.807887 0
M  V30 3398 H 330.224 -1.05303 -1.33076 0
M  V30 3399 H 328.996 -2.15884 -3.26358 0
M  V30 3400 H 328.619 -0.580059 -3.93346 0
M  V30 3401 N 329.616 1.39756 -0.72842 0
M  V30 3402 C 330.563 2.30647 -0.0841519 0
M  V30 3403 C 331.533 1.48869 0.7367 0
M  V30 3404 O 332.718 1.77574 0.698015 0
M  V30 3405 C 329.858 3.35165 0.822091 0
M  V30 3406 C 328.971 4.31999 -0.0106663 0
M  V30 3407 C 328.106 5.23585 0.896241 0
M  V30 3408 C 327.145 6.12072 0.0583381 0
M  V30 3409 N 326.282 6.96035 0.920818 0
M  V30 3410 H 331.122 2.85173 -0.864891 0
M  V30 3411 H 328.659 1.40422 -0.438179 0
M  V30 3412 H 330.617 3.94345 1.36189 0
M  V30 3413 H 329.247 2.8211 1.56888 0
M  V30 3414 H 328.299 3.74492 -0.66781 0
M  V30 3415 H 329.611 4.9443 -0.658825 0
M  V30 3416 H 328.765 5.87759 1.50412 0
M  V30 3417 H 327.504 4.61459 1.57819 0
M  V30 3418 H 326.509 5.46916 -0.562389 0
M  V30 3419 H 327.734 6.76261 -0.6203 0
M  V30 3420 H 325.68 6.36485 1.58818 0
M  V30 3421 H 325.597 7.55284 0.32899 0
M  V30 3422 H 326.865 7.64646 1.51447 0
M  V30 3423 N 331.094 0.475555 1.50254 0
M  V30 3424 C 332.34 -0.0780073 2.0265 0
M  V30 3425 C 332.673 -1.38968 1.35652 0
M  V30 3426 O 331.948 -1.8839 0.483691 0
M  V30 3427 C 332.231 -0.257161 3.59181 0
M  V30 3428 C 332.084 1.07585 4.36744 0
M  V30 3429 C 333.403 -1.00965 4.28362 0
M  V30 3430 H 330.522 -0.0268758 0.73651 0
M  V30 3431 H 333.164 0.622015 1.7953 0
M  V30 3432 H 331.314 -0.853412 3.79011 0
M  V30 3433 H 332.986 1.70902 4.28474 0
M  V30 3434 H 331.229 1.6714 4.00308 0
M  V30 3435 H 331.9 0.904088 5.44546 0
M  V30 3436 H 334.376 -0.504214 4.13034 0
M  V30 3437 H 333.252 -1.10381 5.37687 0
M  V30 3438 H 333.513 -2.04731 3.91839 0
M  V30 3439 N 332.573 -1.56217 0.208337 0
M  V30 3440 C 333.819 -1.98242 -0.427552 0
M  V30 3441 C 334.152 -1.09554 -1.60348 0
M  V30 3442 O 333.427 -0.15035 -1.93918 0
M  V30 3443 C 333.71 -3.4931 -0.874907 0
M  V30 3444 C 333.563 -4.48773 0.303751 0
M  V30 3445 C 334.882 -4.04424 -1.73577 0
M  V30 3446 H 332.001 -0.720744 -0.153936 0
M  V30 3447 H 334.643 -1.87586 0.30192 0
M  V30 3448 H 332.793 -3.58522 -1.49648 0
M  V30 3449 H 334.465 -4.51586 0.941682 0
M  V30 3450 H 332.708 -4.23194 0.953375 0
M  V30 3451 H 333.379 -5.51976 -0.0519883 0
M  V30 3452 H 335.855 -3.98075 -1.21143 0
M  V30 3453 H 334.731 -5.1047 -2.01771 0
M  V30 3454 H 334.992 -3.50494 -2.69456 0
M  V30 3455 N 334.051 0.0651679 -1.57465 0
M  V30 3456 C 334.961 1.09448 -2.07505 0
M  V30 3457 C 335.977 1.41974 -1.00595 0
M  V30 3458 O 337.153 1.52018 -1.32107 0
M  V30 3459 C 334.218 2.38689 -2.51453 0
M  V30 3460 C 333.279 2.13073 -3.72691 0
M  V30 3461 C 332.512 3.36152 -4.14533 0
M  V30 3462 O 332.735 4.45517 -3.56189 0
M  V30 3463 O 331.669 3.23974 -5.07272 0
M  V30 3464 H 335.495 0.69935 -2.95538 0
M  V30 3465 H 333.08 0.279752 -1.46757 0
M  V30 3466 H 334.962 3.14736 -2.80212 0
M  V30 3467 H 333.637 2.77568 -1.66546 0
M  V30 3468 H 332.544 1.34709 -3.49005 0
M  V30 3469 H 333.877 1.79071 -4.5847 0
M  V30 3470 N 335.529 1.53961 0.336706 0
M  V30 3471 C 336.775 1.7179 1.07777 0
M  V30 3472 C 337.108 0.483263 1.88091 0
M  V30 3473 O 336.383 -0.519747 1.87427 0
M  V30 3474 C 336.666 2.98558 2.01334 0
M  V30 3475 C 336.519 4.32245 1.24437 0
M  V30 3476 C 337.838 3.21023 3.01052 0
M  V30 3477 H 334.957 0.625089 0.390426 0
M  V30 3478 H 337.599 1.86641 0.35567 0
M  V30 3479 H 335.749 2.86028 2.62908 0
M  V30 3480 H 337.421 4.56637 0.654243 0
M  V30 3481 H 335.664 4.30344 0.546458 0
M  V30 3482 H 336.335 5.17137 1.93063 0
M  V30 3483 H 338.811 3.32929 2.49595 0
M  V30 3484 H 337.687 4.11104 3.6371 0
M  V30 3485 H 337.948 2.37637 3.72802 0
M  V30 3486 N 337.007 -0.598083 1.45811 0
M  V30 3487 C 337.97 -1.69018 1.54808 0
M  V30 3488 C 338.97 -1.55037 0.426652 0
M  V30 3489 O 340.16 -1.59932 0.690456 0
M  V30 3490 C 337.292 -3.0835 1.45371 0
M  V30 3491 H 338.485 -1.62403 2.52121 0
M  V30 3492 H 336.038 -0.814626 1.33392 0
M  V30 3493 H 336.773 -3.20534 0.492793 0
M  V30 3494 H 336.558 -3.19907 2.26721 0
M  V30 3495 H 338.048 -3.8788 1.54721 0
M  V30 3496 N 338.485 -1.33259 -0.841409 0
M  V30 3497 C 339.395 -1.25332 -1.98316 0
M  V30 3498 C 340.411 -0.164364 -1.73222 0
M  V30 3499 O 341.587 -0.387486 -1.97637 0
M  V30 3500 C 338.652 -0.990078 -3.32262 0
M  V30 3501 C 337.713 -2.16879 -3.70489 0
M  V30 3502 C 336.946 -1.91801 -4.98044 0
M  V30 3503 O 337.169 -0.867075 -5.63771 0
M  V30 3504 O 336.103 -2.78267 -5.33714 0
M  V30 3505 H 339.929 -2.21344 -2.07944 0
M  V30 3506 H 337.514 -1.1328 -0.974058 0
M  V30 3507 H 339.396 -0.860321 -4.12524 0
M  V30 3508 H 338.071 -0.0602155 -3.23644 0
M  V30 3509 H 336.978 -2.35407 -2.90748 0
M  V30 3510 H 338.311 -3.0819 -3.8377 0
M  V30 3511 N 339.963 1.05934 -1.16686 0
M  V30 3512 C 340.873 2.17014 -0.891183 0
M  V30 3513 C 341.889 1.73453 0.137907 0
M  V30 3514 O 343.065 2.01361 -0.039592 0
M  V30 3515 C 340.13 3.44384 -0.400099 0
M  V30 3516 C 339.191 4.02433 -1.49486 0
M  V30 3517 C 338.424 5.23723 -1.02711 0
M  V30 3518 O 338.647 5.7027 0.121716 0
M  V30 3519 O 337.581 5.7382 -1.81699 0
M  V30 3520 H 341.407 2.43113 -1.82015 0
M  V30 3521 H 338.992 1.15541 -0.947132 0
M  V30 3522 H 340.874 4.21189 -0.133392 0
M  V30 3523 H 339.549 3.19802 0.500817 0
M  V30 3524 H 338.456 3.27102 -1.81535 0
M  V30 3525 H 339.789 4.31317 -2.37121 0
M  V30 3526 N 341.441 0.965919 1.2453 0
M  V30 3527 C 342.351 0.502154 2.29163 0
M  V30 3528 C 343.367 -0.436017 1.68448 0
M  V30 3529 O 344.543 -0.309497 1.99008 0
M  V30 3530 C 341.608 -0.201956 3.46111 0
M  V30 3531 C 340.669 0.775821 4.22232 0
M  V30 3532 C 339.902 0.105217 5.33596 0
M  V30 3533 O 340.125 -1.10683 5.59558 0
M  V30 3534 O 339.059 0.796475 5.96607 0
M  V30 3535 H 342.885 1.37194 2.70946 0
M  V30 3536 H 340.47 0.732875 1.30189 0
M  V30 3537 H 342.352 -0.597564 4.17142 0
M  V30 3538 H 341.027 -1.04673 3.06309 0
M  V30 3539 H 339.934 1.22185 3.53584 0
M  V30 3540 H 341.267 1.58896 4.65846 0
M  V30 3541 N 342.919 -1.39368 0.735821 0
M  V30 3542 C 343.829 -2.34395 0.0979693 0
M  V30 3543 C 344.845 -1.58361 -0.720968 0
M  V30 3544 O 346.021 -1.90648 -0.649245 0
M  V30 3545 C 343.086 -3.37393 -0.797916 0
M  V30 3546 C 342.147 -4.29287 0.0333662 0
M  V30 3547 C 341.38 -5.27365 -0.819854 0
M  V30 3548 O 341.603 -5.31959 -2.05855 0
M  V30 3549 O 340.537 -6.01389 -0.248079 0
M  V30 3550 H 344.363 -2.90601 0.882315 0
M  V30 3551 H 341.948 -1.40909 0.4965 0
M  V30 3552 H 343.83 -4.00505 -1.31048 0
M  V30 3553 H 342.505 -2.83571 -1.56106 0
M  V30 3554 H 341.412 -3.69395 0.591475 0
M  V30 3555 H 342.745 -4.86317 0.758752 0
M  V30 3556 N 344.397 -0.483516 -1.5 0
M  V30 3557 C 345.643 0.0672592 -2.02688 0
M  V30 3558 C 345.976 1.38247 -1.36387 0
M  V30 3559 O 345.251 1.88131 -0.493675 0
M  V30 3560 C 345.534 0.238109 -3.59312 0
M  V30 3561 C 345.387 -1.099 -4.36168 0
M  V30 3562 C 346.706 0.986916 -4.28892 0
M  V30 3563 H 343.825 0.0229696 -0.736642 0
M  V30 3564 H 346.467 -0.631527 -1.79197 0
M  V30 3565 H 344.617 0.8333 -3.79458 0
M  V30 3566 H 346.289 -1.73172 -4.27562 0
M  V30 3567 H 344.532 -1.69261 -3.99416 0
M  V30 3568 H 345.203 -0.932954 -5.44059 0
M  V30 3569 H 347.679 0.482302 -4.13295 0
M  V30 3570 H 346.555 1.07527 -5.38265 0
M  V30 3571 H 346.816 2.0265 -3.92919 0
M  V30 3572 N 345.875 1.56104 -0.216619 0
M  V30 3573 C 346.838 2.18819 0.681962 0
M  V30 3574 C 347.838 1.14866 1.12528 0
M  V30 3575 O 349.028 1.40128 1.03488 0
M  V30 3576 C 346.16 2.80756 1.93362 0
M  V30 3577 H 347.353 2.99595 0.135254 0
M  V30 3578 H 344.906 1.56265 0.0330003 0
M  V30 3579 H 345.641 2.03837 2.52232 0
M  V30 3580 H 345.426 3.56876 1.62426 0
M  V30 3581 H 346.916 3.28844 2.57393 0
M  V30 3582 N 347.353 -0.0568162 1.57498 0
M  V30 3583 C 348.263 -1.08346 2.08083 0
M  V30 3584 C 349.279 -1.41439 1.01346 0
M  V30 3585 O 350.455 -1.51316 1.32912 0
M  V30 3586 C 347.52 -2.37352 2.52715 0
M  V30 3587 C 346.581 -2.11093 3.73816 0
M  V30 3588 C 345.814 -3.33949 4.1631 0
M  V30 3589 O 346.037 -4.43622 3.58547 0
M  V30 3590 O 344.971 -3.21279 5.08983 0
M  V30 3591 H 348.797 -0.683667 2.95905 0
M  V30 3592 H 346.382 -0.271965 1.46904 0
M  V30 3593 H 348.264 -3.13246 2.81877 0
M  V30 3594 H 346.939 -2.76681 1.68016 0
M  V30 3595 H 345.846 -1.32856 3.49714 0
M  V30 3596 H 347.179 -1.76637 4.59413 0
M  V30 3597 N 348.832 -1.54138 -0.328536 0
M  V30 3598 C 350.078 -1.7236 -1.06865 0
M  V30 3599 C 350.411 -0.493231 -1.87832 0
M  V30 3600 O 349.686 0.5098 -1.877 0
M  V30 3601 C 349.969 -2.99621 -1.99747 0
M  V30 3602 C 349.822 -4.32899 -1.22143 0
M  V30 3603 C 351.141 -3.22615 -2.99345 0
M  V30 3604 H 348.26 -0.627151 -0.387105 0
M  V30 3605 H 350.902 -1.86827 -0.345767 0
M  V30 3606 H 349.052 -2.87418 -2.61387 0
M  V30 3607 H 350.724 -4.56978 -0.630017 0
M  V30 3608 H 348.967 -4.30628 -0.523628 0
M  V30 3609 H 349.638 -5.18154 -1.90318 0
M  V30 3610 H 352.114 -3.34248 -2.47826 0
M  V30 3611 H 350.99 -4.13027 -3.61524 0
M  V30 3612 H 351.251 -2.3961 -3.71536 0
M  V30 3613 N 350.31 0.590341 -1.46126 0
M  V30 3614 C 351.22 1.72793 -1.58681 0
M  V30 3615 C 352.236 1.67516 -0.470566 0
M  V30 3616 O 353.412 1.87562 -0.733642 0
M  V30 3617 C 350.477 3.09287 -1.5666 0
M  V30 3618 C 349.538 3.25886 -2.79458 0
M  V30 3619 C 348.771 4.55869 -2.77524 0
M  V30 3620 O 348.994 5.3928 -1.85832 0
M  V30 3621 O 347.928 4.75552 -3.68964 0
M  V30 3622 H 351.754 1.65149 -2.54872 0
M  V30 3623 H 349.339 0.756486 -1.28832 0
M  V30 3624 H 351.221 3.90577 -1.58202 0
M  V30 3625 H 349.896 3.17385 -0.636271 0
M  V30 3626 H 348.803 2.44119 -2.83472 0
M  V30 3627 H 350.136 3.22675 -3.71674 0
M  V30 3628 N 351.788 1.33704 0.83433 0
M  V30 3629 C 352.698 1.26382 1.97648 0
M  V30 3630 C 353.714 0.173548 1.73132 0
M  V30 3631 O 354.89 0.397962 1.97429 0
M  V30 3632 C 351.955 1.00769 3.31733 0
M  V30 3633 C 351.016 2.1884 3.69334 0
M  V30 3634 C 350.249 1.9444 4.9702 0
M  V30 3635 O 350.472 0.896961 5.63303 0
M  V30 3636 O 349.406 2.81093 5.32231 0
M  V30 3637 H 353.232 2.22444 2.06767 0
M  V30 3638 H 350.817 1.13795 0.968037 0
M  V30 3639 H 352.699 0.882186 4.12062 0
M  V30 3640 H 351.374 0.0773783 3.23608 0
M  V30 3641 H 350.281 2.36946 2.89495 0
M  V30 3642 H 351.614 3.10221 3.82131 0
M  V30 3643 N 353.266 -1.05314 1.17247 0
M  V30 3644 C 354.176 -2.16538 0.90268 0
M  V30 3645 C 355.192 -1.73523 -0.128707 0
M  V30 3646 O 356.368 -2.01337 0.0502701 0
M  V30 3647 C 353.433 -3.44167 0.418356 0
M  V30 3648 C 352.494 -4.01635 1.51618 0
M  V30 3649 C 351.727 -5.23171 1.05487 0
M  V30 3650 O 351.95 -5.70327 -0.0914715 0
M  V30 3651 O 350.884 -5.72848 1.8474 0
M  V30 3652 H 354.71 -2.42145 1.83302 0
M  V30 3653 H 352.295 -1.15037 0.953246 0
M  V30 3654 H 354.177 -4.21112 0.155726 0
M  V30 3655 H 352.852 -3.20063 -0.48385 0
M  V30 3656 H 351.759 -3.26135 1.83268 0
M  V30 3657 H 353.092 -4.30053 2.39405 0
M  V30 3658 N 354.744 -0.972509 -1.24016 0
M  V30 3659 C 355.654 -0.5143 -2.28893 0
M  V30 3660 C 356.67 0.427078 -1.68677 0
M  V30 3661 O 357.846 0.298939 -1.99169 0
M  V30 3662 C 354.911 0.183598 -3.46214 0
M  V30 3663 C 353.972 -0.798202 -4.21814 0
M  V30 3664 C 353.205 -0.133514 -5.33533 0
M  V30 3665 O 353.428 1.07714 -5.60137 0
M  V30 3666 O 352.362 -0.828103 -5.96176 0
M  V30 3667 H 356.188 -1.38629 -2.70214 0
M  V30 3668 H 353.773 -0.739769 -1.29799 0
M  V30 3669 H 355.655 0.575433 -4.17453 0
M  V30 3670 H 354.33 1.03048 -3.0686 0
M  V30 3671 H 353.237 -1.24059 -3.52931 0
M  V30 3672 H 354.57 -1.61364 -4.64997 0
M  V30 3673 N 356.222 1.38976 -0.743202 0
M  V30 3674 C 357.185 2.28901 -0.117014 0
M  V30 3675 C 358.185 1.46698 0.658503 0
M  V30 3676 O 359.375 1.67274 0.486305 0
M  V30 3677 C 356.507 3.30309 0.84315 0
M  V30 3678 H 357.7 2.8578 -0.909373 0
M  V30 3679 H 355.253 1.47761 -0.509547 0
M  V30 3680 H 355.988 2.785 1.66157 0
M  V30 3681 H 355.773 3.91029 0.289594 0
M  V30 3682 H 357.263 3.97577 1.2776 0
M  V30 3683 N 357.7 0.491464 1.49741 0
M  V30 3684 C 358.977 -0.118984 1.95238 0
M  V30 3685 C 359.357 -1.55044 1.43264 0
M  V30 3686 O 358.705 -2.19287 0.642287 0
M  V30 3687 C 358.915 -0.0414187 3.48975 0
M  V30 3688 C 360.263 -0.220133 4.24029 0
M  V30 3689 O 361.287 -0.117055 3.56008 0
M  V30 3690 O 360.146 -0.430567 5.44801 0
M  V30 3691 H 357.24 -0.100536 0.820866 0
M  V30 3692 H 359.786 0.553322 1.60426 0
M  V30 3693 H 358.558 0.957214 3.79412 0
M  V30 3694 H 358.181 -0.754292 3.9038 0
M  V30 3695 N 359.178 -1.55987 0.224894 0
M  V30 3696 C 360.455 -1.90232 -0.455083 0
M  V30 3697 C 360.835 -1.14269 -1.77499 0
M  V30 3698 O 360.183 -0.253079 -2.27094 0
M  V30 3699 C 360.393 -3.42993 -0.644758 0
M  V30 3700 C 361.741 -4.13821 -0.950669 0
M  V30 3701 O 362.765 -3.4861 -0.731423 0
M  V30 3702 O 361.624 -5.29128 -1.36695 0
M  V30 3703 H 358.718 -0.79108 -0.241084 0
M  V30 3704 H 361.264 -1.67581 0.267327 0
M  V30 3705 H 360.036 -3.90252 0.28613 0
M  V30 3706 H 359.659 -3.71434 -1.41853 0
M  V30 3707 N 360.656 0.0484629 -1.57525 0
M  V30 3708 C 361.933 0.777447 -1.79486 0
M  V30 3709 C 362.313 1.94597 -0.818251 0
M  V30 3710 O 361.661 2.28047 0.143767 0
M  V30 3711 C 361.871 1.22864 -3.26658 0
M  V30 3712 C 363.219 1.65251 -3.91123 0
M  V30 3713 O 364.243 1.32372 -3.3069 0
M  V30 3714 O 363.102 2.26207 -4.97486 0
M  V30 3715 H 360.196 0.374357 -0.737419 0
M  V30 3716 H 362.742 0.0267359 -1.69679 0
M  V30 3717 H 361.514 0.393589 -3.89316 0
M  V30 3718 H 361.137 2.03996 -3.41279 0
M  V30 3719 N 362.134 1.5431 0.320358 0
M  V30 3720 C 363.044 1.86946 1.41734 0
M  V30 3721 C 364.06 0.761689 1.56443 0
M  V30 3722 O 365.236 1.05629 1.71477 0
M  V30 3723 C 362.301 2.09293 2.76401 0
M  V30 3724 C 361.362 3.33082 2.70841 0
M  V30 3725 C 360.595 3.54353 3.99086 0
M  V30 3726 O 360.818 2.79002 4.97508 0
M  V30 3727 O 359.752 4.47838 4.0215 0
M  V30 3728 H 363.578 2.80232 1.17062 0
M  V30 3729 H 361.163 1.40255 0.514673 0
M  V30 3730 H 363.045 2.25303 3.56113 0
M  V30 3731 H 361.72 1.19194 3.00956 0
M  V30 3732 H 360.627 3.22454 1.89668 0
M  V30 3733 H 361.96 4.23249 2.5124 0
M  V30 3734 N 363.613 -0.582584 1.46437 0
M  V30 3735 C 364.89 -1.34276 1.4223 0
M  V30 3736 C 365.27 -2.10835 0.10583 0
M  V30 3737 O 364.618 -2.09485 -0.912596 0
M  V30 3738 C 364.828 -2.26865 2.65204 0
M  V30 3739 C 366.176 -2.88691 3.11356 0
M  V30 3740 O 367.2 -2.37178 2.65753 0
M  V30 3741 O 366.059 -3.82255 3.90568 0
M  V30 3742 H 363.153 -0.603326 0.565621 0
M  V30 3743 H 365.699 -0.603591 1.58603 0
M  V30 3744 H 364.471 -1.69724 3.52576 0
M  V30 3745 H 364.094 -3.08122 2.5129 0
M  V30 3746 N 365.091 -1.34144 -0.827227 0
M  V30 3747 C 366.368 -1.16844 -1.56865 0
M  V30 3748 C 366.748 0.260654 -2.09485 0
M  V30 3749 O 366.096 1.26138 -1.9053 0
M  V30 3750 C 366.306 -2.21939 -2.6934 0
M  V30 3751 C 367.654 -2.56695 -3.3822 0
M  V30 3752 O 368.678 -2.20695 -2.79593 0
M  V30 3753 O 367.537 -3.18518 -4.44082 0
M  V30 3754 H 364.631 -0.452669 -0.692112 0
M  V30 3755 H 367.177 -1.45763 -0.868973 0
M  V30 3756 H 365.949 -3.17882 -2.28182 0
M  V30 3757 H 365.572 -1.94172 -3.46962 0
M  V30 3758 N 366.569 1.04691 -1.17803 0
M  V30 3759 C 367.479 2.16057 -0.914151 0
M  V30 3760 C 368.495 1.73589 0.119503 0
M  V30 3761 O 369.671 2.01308 -0.0609468 0
M  V30 3762 C 366.736 3.4394 -0.436603 0
M  V30 3763 C 365.797 4.00825 -1.53746 0
M  V30 3764 C 365.03 5.22604 -1.0826 0
M  V30 3765 O 365.253 5.70367 0.0612244 0
M  V30 3766 O 364.187 5.7186 -1.87775 0
M  V30 3767 H 368.013 2.41169 -1.84584 0
M  V30 3768 H 365.598 1.1453 -0.959334 0
M  V30 3769 H 367.48 4.21024 -0.178057 0
M  V30 3770 H 366.155 3.20316 0.466869 0
M  V30 3771 H 365.062 3.25158 -1.84995 0
M  V30 3772 H 366.395 4.28778 -2.41683 0
M  V30 3773 N 368.047 0.979072 1.23499 0
M  V30 3774 C 369.324 0.563674 1.87302 0
M  V30 3775 C 369.704 -0.959199 1.88049 0
M  V30 3776 O 369.052 -1.83535 1.36114 0
M  V30 3777 C 369.262 1.16822 3.28867 0
M  V30 3778 C 370.61 1.26014 4.0547 0
M  V30 3779 O 371.634 1.12158 3.38082 0
M  V30 3780 O 370.493 1.48044 5.26066 0
M  V30 3781 H 367.587 0.189602 0.804972 0
M  V30 3782 H 370.133 1.07407 1.31384 0
M  V30 3783 H 368.905 2.21049 3.22883 0
M  V30 3784 H 368.528 0.642564 3.92373 0
M  V30 3785 N 369.525 -1.3858 0.750561 0
M  V30 3786 C 370.773 -1.99789 0.30477 0
M  V30 3787 C 371.094 -1.59874 -1.11649 0
M  V30 3788 O 370.364 -0.85417 -1.76297 0
M  V30 3789 H 368.944 -0.738902 0.109694 0
M  V30 3790 H 371.606 -1.69391 0.963983 0
M  V30 3791 H 370.702 -3.09952 0.365499 0
M  V30 3792 N 371.003 -0.499398 -1.49478 0
M  V30 3793 C 372.28 0.108629 -1.95298 0
M  V30 3794 C 372.66 1.54282 -1.44084 0
M  V30 3795 O 372.008 2.18944 -0.653908 0
M  V30 3796 C 372.218 0.0229111 -3.48992 0
M  V30 3797 C 373.566 0.197643 -4.2414 0
M  V30 3798 O 374.59 0.0981735 -3.56065 0
M  V30 3799 O 373.449 0.401669 -5.45022 0
M  V30 3800 H 370.543 0.096181 -0.821388 0
M  V30 3801 H 373.089 -0.561822 -1.6013 0
M  V30 3802 H 371.861 -0.977321 -3.78899 0
M  V30 3803 H 371.484 0.733579 -3.90774 0
M  V30 3804 N 372.481 1.55866 -0.233164 0
M  V30 3805 C 373.391 2.24431 0.683217 0
M  V30 3806 C 374.407 1.2558 1.2044 0
M  V30 3807 O 375.583 1.58422 1.24356 0
M  V30 3808 C 372.648 2.91979 1.86947 0
M  V30 3809 C 371.709 4.06204 1.38912 0
M  V30 3810 C 370.942 4.70522 2.51883 0
M  V30 3811 O 371.165 4.33865 3.70293 0
M  V30 3812 O 370.099 5.59296 2.22423 0
M  V30 3813 H 373.925 3.03426 0.129059 0
M  V30 3814 H 371.51 1.494 -0.0022283 0
M  V30 3815 H 373.392 3.34573 2.56201 0
M  V30 3816 H 372.067 2.15935 2.41151 0
M  V30 3817 H 370.974 3.68155 0.664259 0
M  V30 3818 H 372.307 4.84025 0.893328 0
M  V30 3819 N 373.959 -0.0401083 1.57549 0
M  V30 3820 C 375.205 -0.734211 1.89043 0
M  V30 3821 C 375.538 -1.75591 0.829535 0
M  V30 3822 O 374.813 -1.93868 -0.156706 0
M  V30 3823 C 375.096 -1.41374 3.31188 0
M  V30 3824 C 374.949 -0.406299 4.47961 0
M  V30 3825 C 376.268 -2.35061 3.72068 0
M  V30 3826 H 373.387 -0.265447 0.687537 0
M  V30 3827 H 376.029 0.00294087 1.9 0
M  V30 3828 H 374.179 -2.04206 3.30503 0
M  V30 3829 H 375.851 0.219255 4.60779 0
M  V30 3830 H 374.094 0.275485 4.32924 0
M  V30 3831 H 374.765 -0.920022 5.44279 0
M  V30 3832 H 377.241 -1.82282 3.74049 0
M  V30 3833 H 376.117 -2.79593 4.72355 0
M  V30 3834 H 376.378 -3.21258 3.0372 0
M  V30 3835 N 375.437 -1.54477 -0.31217 0
M  V30 3836 C 376.347 -1.87695 -1.4074 0
M  V30 3837 C 377.363 -0.769975 -1.56036 0
M  V30 3838 O 378.539 -1.06537 -1.70915 0
M  V30 3839 C 375.604 -2.10755 -2.75287 0
M  V30 3840 C 374.665 -3.34514 -2.69071 0
M  V30 3841 C 373.898 -3.56465 -3.97201 0
M  V30 3842 O 374.121 -2.81637 -4.96021 0
M  V30 3843 O 373.055 -4.49964 -3.9977 0
M  V30 3844 H 376.881 -2.80849 -1.15574 0
M  V30 3845 H 374.466 -1.40526 -0.507228 0
M  V30 3846 H 376.348 -2.27188 -3.54913 0
M  V30 3847 H 375.023 -1.20788 -3.0032 0
M  V30 3848 H 373.93 -3.23456 -1.87955 0
M  V30 3849 H 375.263 -4.24575 -2.48992 0
M  V30 3850 N 376.915 0.57481 -1.46744 0
M  V30 3851 C 377.825 1.711 -1.60505 0
M  V30 3852 C 378.841 1.67008 -0.488307 0
M  V30 3853 O 380.017 1.86774 -0.753495 0
M  V30 3854 C 377.082 3.07608 -1.59932 0
M  V30 3855 C 376.143 3.22904 -2.82898 0
M  V30 3856 C 375.376 4.529 -2.82343 0
M  V30 3857 O 375.599 5.37278 -1.91542 0
M  V30 3858 O 374.533 4.71611 -3.73987 0
M  V30 3859 H 378.359 1.62436 -2.56609 0
M  V30 3860 H 375.944 0.742779 -1.29627 0
M  V30 3861 H 377.826 3.88877 -1.62336 0
M  V30 3862 H 376.501 3.16692 -0.669898 0
M  V30 3863 H 375.408 2.41099 -2.86046 0
M  V30 3864 H 376.741 3.18715 -3.75076 0
M  V30 3865 N 378.394 1.34581 0.820102 0
M  V30 3866 C 379.304 1.28471 1.96297 0
M  V30 3867 C 380.32 0.191902 1.72939 0
M  V30 3868 O 381.496 0.418879 1.96996 0
M  V30 3869 C 378.561 1.04281 3.30645 0
M  V30 3870 C 377.622 2.22745 3.66992 0
M  V30 3871 C 376.855 1.997 4.9493 0
M  V30 3872 O 377.078 0.956656 5.6232 0
M  V30 3873 O 376.012 2.86723 5.2922 0
M  V30 3874 H 379.838 2.24624 2.04396 0
M  V30 3875 H 377.423 1.14816 0.955913 0
M  V30 3876 H 379.305 0.925841 4.11104 0
M  V30 3877 H 377.98 0.111697 3.23507 0
M  V30 3878 H 376.887 2.40003 2.86966 0
M  V30 3879 H 378.22 3.14257 3.78819 0
M  V30 3880 N 379.872 -1.04064 1.18357 0
M  V30 3881 C 380.835 -2.10243 0.912707 0
M  V30 3882 C 381.835 -1.60477 -0.101928 0
M  V30 3883 O 383.025 -1.73703 0.131517 0
M  V30 3884 C 380.157 -3.38893 0.369387 0
M  V30 3885 H 381.35 -2.35706 1.85426 0
M  V30 3886 H 378.903 -1.20489 0.995594 0
M  V30 3887 H 379.638 -3.19094 -0.578776 0
M  V30 3888 H 379.423 -3.76331 1.1008 0
M  V30 3889 H 380.913 -4.17128 0.198575 0
M  V30 3890 N 381.35 -0.985608 -1.22978 0
M  V30 3891 C 382.26 -0.538548 -2.28335 0
M  V30 3892 C 383.276 0.409163 -1.69121 0
M  V30 3893 O 384.452 0.277797 -1.99475 0
M  V30 3894 C 381.517 0.146867 -3.46389 0
M  V30 3895 C 380.578 -0.842896 -4.20944 0
M  V30 3896 C 379.811 -0.190095 -5.33361 0
M  V30 3897 O 380.034 1.01767 -5.61248 0
M  V30 3898 O 378.968 -0.891289 -5.95264 0
M  V30 3899 H 382.794 -1.41487 -2.68729 0
M  V30 3900 H 380.379 -0.753495 -1.29007 0
M  V30 3901 H 382.261 0.531125 -4.1804 0
M  V30 3902 H 380.936 0.997871 -3.07935 0
M  V30 3903 H 379.843 -1.27795 -3.51595 0
M  V30 3904 H 381.176 -1.66287 -4.6326 0
M  V30 3905 N 382.828 1.3818 -0.7579 0
M  V30 3906 C 383.738 2.3421 -0.135247 0
M  V30 3907 C 384.754 1.59487 0.695683 0
M  V30 3908 O 385.93 1.91657 0.618832 0
M  V30 3909 C 382.995 3.3862 0.744139 0
M  V30 3910 C 382.056 4.2918 -0.101658 0
M  V30 3911 C 381.289 5.28603 0.735851 0
M  V30 3912 O 381.512 5.35166 1.97366 0
M  V30 3913 O 380.446 6.01707 0.152372 0
M  V30 3914 H 384.272 2.8916 -0.928436 0
M  V30 3915 H 381.857 1.40101 -0.518855 0
M  V30 3916 H 383.739 4.02539 1.2466 0
M  V30 3917 H 382.414 2.86019 1.51575 0
M  V30 3918 H 381.321 3.68407 -0.650167 0
M  V30 3919 H 382.654 4.85048 -0.836024 0
M  V30 3920 N 384.306 0.507319 1.49211 0
M  V30 3921 C 385.717 0.0611118 1.866 0
M  V30 3922 C 386.068 -1.35488 1.41907 0
M  V30 3923 O 385.193 -2.0108 0.799726 0
M  V30 3924 C 385.788 0.104125 3.3864 0
M  V30 3925 C 384.347 -0.28677 3.75306 0
M  V30 3926 C 383.494 0.473893 2.73221 0
M  V30 3927 H 386.445 0.719775 1.41439 0
M  V30 3928 H 386.466 -0.689672 3.74198 0
M  V30 3929 H 385.978 1.13482 3.71138 0
M  V30 3930 H 384.079 -1.32046 3.48417 0
M  V30 3931 H 384.192 0.0370745 4.79086 0
M  V30 3932 H 382.556 -0.0770644 2.54583 0
M  V30 3933 H 383.339 1.50478 3.08563 0
M  V30 3934 N 385.784 -1.5574 0.241426 0
M  V30 3935 C 387.014 -2.02913 -0.38857 0
M  V30 3936 C 387.422 -1.12014 -1.52478 0
M  V30 3937 O 386.765 -0.125903 -1.83268 0
M  V30 3938 C 386.827 -3.4636 -0.963075 0
M  V30 3939 C 386.491 -4.56982 0.0401916 0
M  V30 3940 C 387.488 -5.12941 0.847766 0
M  V30 3941 C 385.173 -5.0203 0.164699 0
M  V30 3942 C 387.167 -6.12437 1.76636 0
M  V30 3943 C 384.854 -6.01358 1.0868 0
M  V30 3944 C 385.852 -6.5644 1.88616 0
M  V30 3945 O 385.54 -7.53831 2.79273 0
M  V30 3946 H 385.272 -0.668983 -0.0971452 0
M  V30 3947 H 387.826 -2.02198 0.361248 0
M  V30 3948 H 386.056 -3.44206 -1.76235 0
M  V30 3949 H 387.745 -3.77065 -1.50257 0
M  V30 3950 H 388.511 -4.78974 0.762133 0
M  V30 3951 H 384.39 -4.58824 -0.447411 0
M  V30 3952 H 387.934 -6.55355 2.39071 0
M  V30 3953 H 383.831 -6.34746 1.17338 0
M  V30 3954 H 384.599 -7.71428 2.73572 0
M  V30 3955 N 387.262 0.0317525 -1.57568 0
M  V30 3956 C 388.172 1.05021 -2.0978 0
M  V30 3957 C 389.188 1.39809 -1.03583 0
M  V30 3958 O 390.364 1.49182 -1.35302 0
M  V30 3959 C 387.429 2.33301 -2.56459 0
M  V30 3960 C 386.49 2.0512 -3.77127 0
M  V30 3961 C 385.723 3.27283 -4.2157 0
M  V30 3962 O 385.946 4.37861 -3.65559 0
M  V30 3963 O 384.88 3.13141 -5.14029 0
M  V30 3964 H 388.706 0.636505 -2.96955 0
M  V30 3965 H 386.291 0.248559 -1.47318 0
M  V30 3966 H 388.173 3.08722 -2.86825 0
M  V30 3967 H 386.848 2.73973 -1.72397 0
M  V30 3968 H 385.755 1.27276 -3.51784 0
M  V30 3969 H 387.088 1.69305 -4.62165 0
M  V30 3970 N 388.74 1.54641 0.303973 0
M  V30 3971 C 389.65 1.88439 1.39743 0
M  V30 3972 C 390.666 0.778239 1.55626 0
M  V30 3973 O 391.842 1.07442 1.70347 0
M  V30 3974 C 388.907 2.12212 2.74166 0
M  V30 3975 C 387.968 3.35936 2.67293 0
M  V30 3976 C 387.201 3.58566 3.95305 0
M  V30 3977 O 387.424 2.84263 4.9452 0
M  V30 3978 O 386.358 4.52078 3.97378 0
M  V30 3979 H 390.184 2.81458 1.14083 0
M  V30 3980 H 387.769 1.40793 0.499768 0
M  V30 3981 H 389.651 2.29067 3.53704 0
M  V30 3982 H 388.326 1.22379 2.99675 0
M  V30 3983 H 387.233 3.24448 1.86237 0
M  V30 3984 H 388.566 4.2589 2.46736 0
M  V30 3985 N 390.218 -0.567019 1.47046 0
M  V30 3986 C 391.181 -1.65696 1.58359 0
M  V30 3987 C 392.181 -1.54097 0.459441 0
M  V30 3988 O 393.371 -1.58432 0.724225 0
M  V30 3989 C 390.503 -3.05197 1.51879 0
M  V30 3990 H 391.696 -1.57019 2.5551 0
M  V30 3991 H 389.249 -0.786148 1.3509 0
M  V30 3992 H 389.984 -3.19417 0.560673 0
M  V30 3993 H 389.769 -3.15025 2.33455 0
M  V30 3994 H 391.259 -3.84511 1.62913 0
M  V30 3995 N 391.696 -1.35014 -0.812953 0
M  V30 3996 C 392.924 -1.31031 -1.6012 0
M  V30 3997 C 393.339 0.113558 -1.88458 0
M  V30 3998 O 392.696 1.06363 -1.48301 0
M  V30 3999 C 392.747 -2.10872 -2.93624 0
M  V30 4000 O 392.468 -3.47706 -2.66518 0
M  V30 4001 C 393.969 -2.14401 -3.88004 0
M  V30 4002 H 391.189 -0.45037 -0.497401 0
M  V30 4003 H 393.733 -1.77775 -1.01076 0
M  V30 4004 H 391.888 -1.67744 -3.492 0
M  V30 4005 H 392.302 -3.89097 -3.51715 0
M  V30 4006 H 393.776 -2.74669 -4.78812 0
M  V30 4007 H 394.253 -1.14105 -4.24119 0
M  V30 4008 H 394.859 -2.57662 -3.38364 0
M  V30 4009 N 393.175 1.03435 -1.18907 0
M  V30 4010 C 394.085 2.15075 -0.937015 0
M  V30 4011 C 395.101 1.73706 0.101085 0
M  V30 4012 O 396.277 2.01232 -0.0822948 0
M  V30 4013 C 393.342 3.43458 -0.473057 0
M  V30 4014 C 392.403 3.99172 -1.57989 0
M  V30 4015 C 391.636 5.21427 -1.13797 0
M  V30 4016 O 391.859 5.704 0.000725941 0
M  V30 4017 O 390.793 5.69837 -1.9383 0
M  V30 4018 H 394.619 2.39198 -1.87131 0
M  V30 4019 H 392.204 1.13506 -0.971427 0
M  V30 4020 H 394.086 4.20811 -0.222702 0
M  V30 4021 H 392.761 3.20793 0.432869 0
M  V30 4022 H 391.668 3.23178 -1.88433 0
M  V30 4023 H 393.001 4.2619 -2.46217 0
M  V30 4024 N 394.653 0.992116 1.22453 0
M  V30 4025 C 396.069 0.702713 1.43297 0
M  V30 4026 C 396.269 -0.726909 1.87932 0
M  V30 4027 O 395.325 -1.49792 2.0327 0
M  V30 4028 C 396.638 1.70762 2.47509 0
M  V30 4029 C 398.186 1.72298 2.61309 0
M  V30 4030 C 398.661 2.71649 3.68742 0
M  V30 4031 N 400.152 2.70239 3.76199 0
M  V30 4032 C 400.887 3.43778 4.58917 0
M  V30 4033 N 400.383 4.26914 5.45633 0
M  V30 4034 N 402.176 3.32487 4.5322 0
M  V30 4035 H 394.327 1.91543 0.917871 0
M  V30 4036 H 396.59 0.826031 0.465162 0
M  V30 4037 H 396.296 2.73059 2.21657 0
M  V30 4038 H 396.17 1.49985 3.46099 0
M  V30 4039 H 398.557 0.706989 2.86506 0
M  V30 4040 H 398.638 1.97143 1.62997 0
M  V30 4041 H 398.282 3.73397 3.44292 0
M  V30 4042 H 398.212 2.44074 4.66622 0
M  V30 4043 H 400.703 2.09912 3.14237 0
M  V30 4044 H 401.016 4.79855 6.05771 0
M  V30 4045 H 399.361 4.31002 5.45218 0
M  V30 4046 H 402.552 2.6698 3.84499 0
M  V30 4047 H 402.725 3.90058 5.17454 0
M  V30 4048 N 396.131 -1.37776 0.765217 0
M  V30 4049 C 397.359 -2.04124 0.337767 0
M  V30 4050 C 397.774 -1.57715 -1.03785 0
M  V30 4051 O 397.131 -0.755447 -1.6613 0
M  V30 4052 C 397.182 -3.59658 0.364442 0
M  V30 4053 O 396.903 -4.04367 1.68579 0
M  V30 4054 C 398.404 -4.43236 -0.0754221 0
M  V30 4055 H 395.624 -0.655696 0.142491 0
M  V30 4056 H 398.168 -1.76238 1.03732 0
M  V30 4057 H 396.323 -3.86339 -0.286471 0
M  V30 4058 H 396.737 -4.98857 1.61993 0
M  V30 4059 H 398.211 -5.52 -0.00560067 0
M  V30 4060 H 398.688 -4.2455 -1.12491 0
M  V30 4061 H 399.294 -4.21767 0.547055 0
M  V30 4062 N 397.609 -0.515225 -1.4894 0
M  V30 4063 C 398.837 0.0206034 -2.0689 0
M  V30 4064 C 399.252 1.29514 -1.37374 0
M  V30 4065 O 398.609 1.76698 -0.456529 0
M  V30 4066 C 398.66 0.26351 -3.60538 0
M  V30 4067 O 398.381 -0.960517 -4.27441 0
M  V30 4068 C 399.882 0.841383 -4.35242 0
M  V30 4069 H 397.102 -0.0268608 -0.670462 0
M  V30 4070 H 399.646 -0.716651 -1.91532 0
M  V30 4071 H 397.801 0.950777 -3.75552 0
M  V30 4072 H 398.215 -0.73212 -5.19365 0
M  V30 4073 H 399.689 0.96085 -5.43573 0
M  V30 4074 H 400.166 1.8427 -3.98674 0
M  V30 4075 H 400.772 0.191143 -4.2487 0
M  V30 4076 N 399.087 1.5561 -0.249682 0
M  V30 4077 C 400.312 2.03865 0.381305 0
M  V30 4078 C 400.737 1.12769 1.50548 0
M  V30 4079 O 400.095 0.121189 1.80895 0
M  V30 4080 C 400.143 3.50101 0.863816 0
M  V30 4081 O 399.247 3.62132 1.97318 0
M  V30 4082 H 398.588 0.658827 0.0827194 0
M  V30 4083 H 401.118 2.01105 -0.376552 0
M  V30 4084 H 401.128 3.90975 1.1663 0
M  V30 4085 H 399.803 4.1588 0.0411816 0
M  V30 4086 H 398.38 3.33155 1.67517 0
M  V30 4087 N 400.565 -0.0233959 1.57583 0
M  V30 4088 C 401.814 -0.712133 1.8871 0
M  V30 4089 C 402.127 -1.76217 0.848944 0
M  V30 4090 O 403.333 -2.50389 1.04964 0
M  V30 4091 C 401.789 -1.3177 3.3491 0
M  V30 4092 C 401.397 -0.303715 4.46969 0
M  V30 4093 C 403.141 -1.98598 3.75179 0
M  V30 4094 C 401.048 -0.917945 5.84233 0
M  V30 4095 H 399.978 -0.269735 0.704101 0
M  V30 4096 H 402.629 0.0333114 1.8347 0
M  V30 4097 H 401.011 -2.11304 3.34913 0
M  V30 4098 H 402.185 0.465325 4.58445 0
M  V30 4099 H 400.5 0.2628 4.1557 0
M  V30 4100 H 403.097 -2.45416 4.75053 0
M  V30 4101 H 403.44 -2.80659 3.07468 0
M  V30 4102 H 403.973 -1.25831 3.77374 0
M  V30 4103 H 400.712 -0.136633 6.55358 0
M  V30 4104 H 400.232 -1.65669 5.76467 0
M  V30 4105 H 401.911 -1.4236 6.31144 0
M  V30 4106 N 402.043 -1.548 -0.295768 0
M  V30 4107 C 403.006 -1.85363 -1.34808 0
M  V30 4108 C 404.006 -0.726817 -1.43436 0
M  V30 4109 O 405.196 -0.995088 -1.42981 0
M  V30 4110 C 402.328 -2.03859 -2.73229 0
M  V30 4111 H 403.521 -2.7941 -1.08949 0
M  V30 4112 H 401.074 -1.46942 -0.532702 0
M  V30 4113 H 401.809 -1.12117 -3.04303 0
M  V30 4114 H 401.594 -2.8588 -2.68356 0
M  V30 4115 H 403.084 -2.28857 -3.49305 0
M  V30 4116 N 403.521 0.559213 -1.47345 0
M  V30 4117 C 404.749 1.34194 -1.57479 0
M  V30 4118 C 405.164 1.87463 -0.224261 0
M  V30 4119 O 404.521 1.64888 0.782185 0
M  V30 4120 C 404.572 2.51324 -2.59843 0
M  V30 4121 O 404.293 2.00256 -3.89653 0
M  V30 4122 C 405.794 3.43563 -2.80142 0
M  V30 4123 H 403.014 0.409136 -0.531835 0
M  V30 4124 H 405.558 0.677609 -1.92947 0
M  V30 4125 H 403.713 3.13699 -2.27314 0
M  V30 4126 H 404.127 2.76708 -4.4557 0
M  V30 4127 H 405.601 4.2217 -3.55635 0
M  V30 4128 H 406.078 3.9698 -1.87892 0
M  V30 4129 H 406.684 2.87005 -3.1386 0
M  V30 4130 N 404.999 1.35443 0.805782 0
M  V30 4131 C 406.227 1.31878 1.59423 0
M  V30 4132 C 406.642 -0.103562 1.88516 0
M  V30 4133 O 405.999 -1.05575 1.48863 0
M  V30 4134 C 406.05 2.12426 2.92502 0
M  V30 4135 O 405.771 3.49115 2.6467 0
M  V30 4136 C 407.272 2.16455 3.86862 0
M  V30 4137 H 404.492 0.453002 0.495005 0
M  V30 4138 H 407.036 1.78309 1.00131 0
M  V30 4139 H 405.191 1.69593 3.48306 0
M  V30 4140 H 405.605 3.90957 3.49647 0
M  V30 4141 H 407.079 2.77204 4.77349 0
M  V30 4142 H 407.556 1.16352 4.23508 0
M  V30 4143 H 408.162 2.59453 3.36993 0
M  V30 4144 N 406.477 -1.02803 1.19454 0
M  V30 4145 C 407.705 -1.79841 1.02297 0
M  V30 4146 C 408.12 -1.83879 -0.428259 0
M  V30 4147 O 407.477 -1.28345 -1.29745 0
M  V30 4148 C 407.528 -3.24852 1.58598 0
M  V30 4149 O 407.249 -3.21097 2.98041 0
M  V30 4150 C 408.75 -4.18485 1.46236 0
M  V30 4151 H 405.97 -0.565936 0.360496 0
M  V30 4152 H 408.514 -1.2948 1.58288 0
M  V30 4153 H 406.669 -3.72401 1.06753 0
M  V30 4154 H 407.083 -4.12033 3.24545 0
M  V30 4155 H 408.557 -5.18121 1.90407 0
M  V30 4156 H 409.034 -4.37254 0.41301 0
M  V30 4157 H 409.64 -3.76811 1.97215 0
M  V30 4158 N 407.956 -0.998596 -1.21925 0
M  V30 4159 C 409.184 -0.696286 -1.94832 0
M  V30 4160 C 409.599 0.740032 -1.73692 0
M  V30 4161 O 408.956 1.5 -1.03953 0
M  V30 4162 C 409.007 -0.999833 -3.47398 0
M  V30 4163 O 408.728 -2.37972 -3.67833 0
M  V30 4164 C 410.229 -0.716025 -4.37479 0
M  V30 4165 H 407.449 -0.257111 -0.619786 0
M  V30 4166 H 409.993 -1.33491 -1.54921 0
M  V30 4167 H 408.148 -0.406918 -3.85257 0
M  V30 4168 H 408.562 -2.48338 -4.61983 0
M  V30 4169 H 410.036 -0.978642 -5.43256 0
M  V30 4170 H 410.513 0.349968 -4.37803 0
M  V30 4171 H 411.119 -1.29025 -4.05256 0
M  V30 4172 N 409.434 1.37368 -0.772513 0
M  V30 4173 C 410.662 2.03942 -0.348588 0
M  V30 4174 C 411.077 1.58264 1.02947 0
M  V30 4175 O 410.434 0.764246 1.65727 0
M  V30 4176 C 410.485 3.5946 -0.38351 0
M  V30 4177 O 410.206 4.03468 -1.70721 0
M  V30 4178 C 411.707 4.4327 0.0519152 0
M  V30 4179 H 408.927 0.654931 -0.145966 0
M  V30 4180 H 411.471 1.75686 -1.04665 0
M  V30 4181 H 409.626 3.86486 0.265978 0
M  V30 4182 H 410.04 4.97991 -1.64636 0
M  V30 4183 H 411.514 5.51995 -0.0236733 0
M  V30 4184 H 411.991 4.2514 1.10238 0
M  V30 4185 H 412.597 4.21471 -0.569415 0
M  V30 4186 N 410.912 0.523116 1.48665 0
M  V30 4187 C 412.14 -0.0096312 2.06898 0
M  V30 4188 C 412.555 -1.28784 1.38059 0
M  V30 4189 O 411.912 -1.76453 0.465893 0
M  V30 4190 C 411.963 -0.244386 3.60673 0
M  V30 4191 O 411.684 0.983172 4.26925 0
M  V30 4192 C 413.185 -0.818289 4.35682 0
M  V30 4193 H 410.405 0.0304161 0.67031 0
M  V30 4194 H 412.949 0.726799 1.91149 0
M  V30 4195 H 411.104 -0.930847 3.76051 0
M  V30 4196 H 411.518 0.759653 5.1897 0
M  V30 4197 H 412.992 -0.93201 5.44075 0
M  V30 4198 H 413.469 -1.82153 3.99646 0
M  V30 4199 H 414.075 -0.168609 4.24966 0
M  V30 4200 N 412.39 -1.55475 0.257931 0
M  V30 4201 C 413.618 -2.03609 -0.367559 0
M  V30 4202 C 414.033 -1.13687 -1.50734 0
M  V30 4203 O 413.39 -0.153479 -1.81853 0
M  V30 4204 C 413.441 -3.51001 -0.864908 0
M  V30 4205 O 413.162 -4.37499 0.229465 0
M  V30 4206 C 414.663 -4.14946 -1.55997 0
M  V30 4207 H 411.883 -0.665459 -0.0860521 0
M  V30 4208 H 414.427 -2.00843 0.385014 0
M  V30 4209 H 412.582 -3.54266 -1.56762 0
M  V30 4210 H 412.996 -5.24286 -0.14998 0
M  V30 4211 H 414.47 -5.19735 -1.85956 0
M  V30 4212 H 414.947 -3.6209 -2.4857 0
M  V30 4213 H 415.553 -4.15635 -0.901543 0
M  V30 4214 N 413.868 0.0150385 -1.57593 0
M  V30 4215 C 414.778 1.02791 -2.10882 0
M  V30 4216 C 415.794 1.38702 -1.0506 0
M  V30 4217 O 416.97 1.47739 -1.36877 0
M  V30 4218 C 414.035 2.30568 -2.58919 0
M  V30 4219 C 413.096 2.01108 -3.79281 0
M  V30 4220 C 412.329 3.22794 -4.25018 0
M  V30 4221 O 412.552 4.33959 -3.70183 0
M  V30 4222 O 411.486 3.07672 -5.17322 0
M  V30 4223 H 415.312 0.604973 -2.97613 0
M  V30 4224 H 412.897 0.23292 -1.47573 0
M  V30 4225 H 414.779 3.05662 -2.90084 0
M  V30 4226 H 413.454 2.72129 -1.75293 0
M  V30 4227 H 412.361 1.23537 -3.53114 0
M  V30 4228 H 413.694 1.64394 -4.63935 0
M  V30 4229 N 415.346 1.54954 0.287554 0
M  V30 4230 C 416.571 1.79209 1.04397 0
M  V30 4231 C 416.996 0.556431 1.79682 0
M  V30 4232 O 416.354 -0.493518 1.74454 0
M  V30 4233 C 416.402 3.00739 1.98969 0
M  V30 4234 O 415.506 2.74805 3.075 0
M  V30 4235 H 414.847 0.592755 0.299227 0
M  V30 4236 H 417.377 2.02068 0.320886 0
M  V30 4237 H 417.387 3.29077 2.4119 0
M  V30 4238 H 416.062 3.90329 1.43582 0
M  V30 4239 H 414.639 2.57523 2.69697 0
M  V30 4240 N 416.824 -0.551391 1.4764 0
M  V30 4241 C 418.07 -1.31024 1.54792 0
M  V30 4242 C 418.403 -1.9304 0.211967 0
M  V30 4243 O 417.678 -1.78175 -0.77999 0
M  V30 4244 C 417.961 -2.41593 2.67029 0
M  V30 4245 C 417.814 -1.84408 4.10261 0
M  V30 4246 C 419.133 -3.43488 2.75143 0
M  V30 4247 H 416.252 -0.475031 0.563485 0
M  V30 4248 H 418.894 -0.616454 1.79722 0
M  V30 4249 H 417.044 -3.00772 2.45904 0
M  V30 4250 H 418.716 -1.29445 4.42766 0
M  V30 4251 H 416.959 -1.15051 4.18265 0
M  V30 4252 H 417.63 -2.64367 4.84576 0
M  V30 4253 H 420.106 -2.94236 2.94218 0
M  V30 4254 H 418.982 -4.18274 3.55441 0
M  V30 4255 H 419.243 -4.02703 1.82435 0
M  V30 4256 N 418.302 -1.35869 -0.798587 0
M  V30 4257 C 419.212 -1.31578 -1.94228 0
M  V30 4258 C 420.228 -0.21939 -1.72611 0
M  V30 4259 O 421.404 -0.450167 -1.96305 0
M  V30 4260 C 418.469 -1.09528 -3.28944 0
M  V30 4261 C 417.53 -2.28556 -3.63402 0
M  V30 4262 C 416.763 -2.07549 -4.9169 0
M  V30 4263 O 416.986 -1.046 -5.60727 0
M  V30 4264 O 415.92 -2.95106 -5.24591 0
M  V30 4265 H 419.746 -2.27847 -2.00796 0
M  V30 4266 H 417.331 -1.16322 -0.937526 0
M  V30 4267 H 419.213 -0.991127 -4.09579 0
M  V30 4268 H 417.888 -0.16315 -3.23289 0
M  V30 4269 H 416.795 -2.44538 -2.83112 0
M  V30 4270 H 418.128 -3.20244 -3.73771 0
M  V30 4271 N 419.78 1.02168 -1.19998 0
M  V30 4272 C 420.69 2.14069 -0.959774 0
M  V30 4273 C 421.706 1.73804 0.082655 0
M  V30 4274 O 422.882 2.01133 -0.103633 0
M  V30 4275 C 419.947 3.42936 -0.509459 0
M  V30 4276 C 419.008 3.97474 -1.62213 0
M  V30 4277 C 418.241 5.2019 -1.19321 0
M  V30 4278 O 418.464 5.70369 -0.0597726 0
M  V30 4279 O 417.398 5.67749 -1.99863 0
M  V30 4280 H 421.224 2.37199 -1.89658 0
M  V30 4281 H 418.809 1.12469 -0.983411 0
M  V30 4282 H 420.691 4.20551 -0.267322 0
M  V30 4283 H 419.366 3.21234 0.398821 0
M  V30 4284 H 418.273 3.21161 -1.9185 0
M  V30 4285 H 419.606 4.23555 -2.50723 0
M  V30 4286 N 421.258 1.00505 1.21394 0
M  V30 4287 C 422.504 0.688793 1.90745 0
M  V30 4288 C 422.837 -0.778486 1.77914 0
M  V30 4289 O 422.112 -1.56433 1.15581 0
M  V30 4290 C 422.395 1.11063 3.42545 0
M  V30 4291 C 422.248 2.63737 3.64367 0
M  V30 4292 C 423.567 0.673059 4.34923 0
M  V30 4293 H 420.686 0.251702 0.692687 0
M  V30 4294 H 423.328 1.25074 1.43026 0
M  V30 4295 H 421.478 0.632508 3.83317 0
M  V30 4296 H 423.15 3.19313 3.32922 0
M  V30 4297 H 421.393 3.05248 3.08231 0
M  V30 4298 H 422.064 2.88305 4.70727 0
M  V30 4299 H 424.54 1.08392 4.01734 0
M  V30 4300 H 423.416 0.996383 5.39781 0
M  V30 4301 H 423.677 -0.425808 4.40045 0
M  V30 4302 N 422.737 -1.36956 0.779787 0
M  V30 4303 C 423.983 -1.99787 0.348281 0
M  V30 4304 C 424.316 -1.61756 -1.07465 0
M  V30 4305 O 423.591 -0.867639 -1.74075 0
M  V30 4306 C 423.874 -3.56597 0.50104 0
M  V30 4307 C 423.727 -4.04513 1.96697 0
M  V30 4308 C 425.046 -4.40008 -0.0898097 0
M  V30 4309 H 422.165 -0.725796 0.128022 0
M  V30 4310 H 424.807 -1.62514 0.984331 0
M  V30 4311 H 422.957 -3.88479 -0.0404347 0
M  V30 4312 H 424.629 -3.83161 2.56876 0
M  V30 4313 H 422.872 -3.56408 2.47297 0
M  V30 4314 H 423.543 -5.1352 2.02486 0
M  V30 4315 H 426.019 -4.14431 0.372293 0
M  V30 4316 H 424.895 -5.4888 0.0471605 0
M  V30 4317 H 425.156 -4.26035 -1.18096 0
M  V30 4318 N 424.215 -0.530993 -1.48385 0
M  V30 4319 C 425.631 -0.188919 -1.58478 0
M  V30 4320 C 425.831 1.30786 -1.53288 0
M  V30 4321 O 424.887 2.08619 -1.42248 0
M  V30 4322 C 426.2 -0.792343 -2.90073 0
M  V30 4323 C 427.748 -0.76117 -3.03604 0
M  V30 4324 C 428.223 -1.34319 -4.37861 0
M  V30 4325 N 429.714 -1.3052 -4.44431 0
M  V30 4326 C 430.449 -1.72543 -5.46824 0
M  V30 4327 N 429.945 -2.22299 -6.56167 0
M  V30 4328 N 431.738 -1.63773 -5.37712 0
M  V30 4329 H 423.889 -1.50377 -1.50002 0
M  V30 4330 H 426.152 -0.625559 -0.712306 0
M  V30 4331 H 425.858 -1.84323 -2.99529 0
M  V30 4332 H 425.732 -0.270026 -3.76232 0
M  V30 4333 H 428.119 0.280957 -2.93759 0
M  V30 4334 H 428.2 -1.32097 -2.19053 0
M  V30 4335 H 427.844 -2.38425 -4.4846 0
M  V30 4336 H 427.774 -0.759064 -5.21101 0
M  V30 4337 H 430.265 -0.940973 -3.65997 0
M  V30 4338 H 430.578 -2.52356 -7.30436 0
M  V30 4339 H 428.923 -2.26293 -6.57127 0
M  V30 4340 H 432.114 -1.24698 -4.51185 0
M  V30 4341 H 432.287 -1.96844 -6.17379 0
M  V30 4342 N 425.693 1.55336 -0.266172 0
M  V30 4343 C 426.603 2.2583 0.635458 0
M  V30 4344 C 427.619 1.28106 1.17749 0
M  V30 4345 O 428.795 1.61024 1.20968 0
M  V30 4346 C 425.86 2.95879 1.80712 0
M  V30 4347 C 424.921 4.09059 1.30265 0
M  V30 4348 C 424.154 4.75759 2.41846 0
M  V30 4349 O 424.377 4.41622 3.61007 0
M  V30 4350 O 423.311 5.63888 2.1051 0
M  V30 4351 H 427.137 3.03631 0.0646693 0
M  V30 4352 H 424.722 1.49361 -0.0339177 0
M  V30 4353 H 426.604 3.39932 2.49047 0
M  V30 4354 H 425.279 2.21002 2.36516 0
M  V30 4355 H 424.186 3.69482 0.586019 0
M  V30 4356 H 425.519 4.85811 0.790458 0
M  V30 4357 N 427.171 -0.0066808 1.57599 0
M  V30 4358 C 428.417 -0.693947 1.90558 0
M  V30 4359 C 428.75 -1.73792 0.866594 0
M  V30 4360 O 428.025 -1.94156 -0.115548 0
M  V30 4361 C 428.308 -1.34317 3.34112 0
M  V30 4362 C 428.161 -0.311189 4.48722 0
M  V30 4363 C 429.48 -2.27116 3.7697 0
M  V30 4364 H 426.599 -0.250803 0.693013 0
M  V30 4365 H 429.241 0.043242 1.89951 0
M  V30 4366 H 427.391 -1.9715 3.3476 0
M  V30 4367 H 429.063 0.316944 4.6021 0
M  V30 4368 H 427.306 0.367253 4.32243 0
M  V30 4369 H 427.977 -0.804366 5.46108 0
M  V30 4370 H 430.453 -1.74306 3.77831 0
M  V30 4371 H 429.329 -2.69511 4.78179 0
M  V30 4372 H 429.59 -3.14743 3.10466 0
M  V30 4373 N 428.649 -1.55105 -0.279332 0
M  V30 4374 C 429.889 -1.7716 -1.01949 0
M  V30 4375 C 430.253 -0.557511 -1.83728 0
M  V30 4376 O 431.454 -0.656198 -2.60667 0
M  V30 4377 C 429.725 -3.0372 -1.88385 0
M  V30 4378 S 431.284 -3.46868 -2.68752 0
M  V30 4379 H 428.102 -0.62253 -0.343478 0
M  V30 4380 H 430.704 -1.93329 -0.290572 0
M  V30 4381 H 429.408 -3.90184 -1.2722 0
M  V30 4382 H 428.939 -2.902 -2.65608 0
M  V30 4383 H 430.954 -3.05643 -3.90892 0
M  V30 4384 N 430.127 0.543554 -1.4793 0
M  V30 4385 C 431.352 1.32995 -1.59145 0
M  V30 4386 C 431.777 1.86472 -0.246956 0
M  V30 4387 O 431.135 1.63696 0.779324 0
M  V30 4388 C 431.183 2.46623 -2.63077 0
M  V30 4389 O 430.287 3.49261 -2.19295 0
M  V30 4390 H 429.628 0.394472 -0.534124 0
M  V30 4391 H 432.158 0.655489 -1.93816 0
M  V30 4392 H 432.168 2.93001 -2.83926 0
M  V30 4393 H 430.843 2.07059 -3.60693 0
M  V30 4394 H 429.42 3.09094 -2.08603 0
M  V30 4395 N 431.605 1.3629 0.791371 0
M  V30 4396 C 432.515 1.32606 1.93527 0
M  V30 4397 C 433.531 0.228541 1.72493 0
M  V30 4398 O 434.707 0.460571 1.96063 0
M  V30 4399 C 431.772 1.11271 3.28359 0
M  V30 4400 C 430.833 2.3048 3.62185 0
M  V30 4401 C 430.066 2.10154 4.90583 0
M  V30 4402 O 430.289 1.07572 5.60165 0
M  V30 4403 O 429.223 2.97884 5.23019 0
M  V30 4404 H 433.049 2.28909 1.99585 0
M  V30 4405 H 430.634 1.16818 0.931344 0
M  V30 4406 H 432.516 1.01283 4.09047 0
M  V30 4407 H 431.191 0.180292 3.23198 0
M  V30 4408 H 430.098 2.46036 2.81811 0
M  V30 4409 H 431.431 3.22221 3.72068 0
M  V30 4410 N 433.083 -1.0153 1.20538 0
M  V30 4411 C 434.015 -2.10224 0.913155 0
M  V30 4412 C 435.028 -1.62495 -0.0995998 0
M  V30 4413 O 436.217 -1.78014 0.131582 0
M  V30 4414 C 433.317 -3.37111 0.347717 0
M  V30 4415 C 432.49 -4.13971 1.41233 0
M  V30 4416 C 431.549 -5.19158 0.857976 0
M  V30 4417 O 430.575 -5.48 1.53897 0
M  V30 4418 N 431.777 -5.7955 -0.331966 0
M  V30 4419 H 434.542 -2.35879 1.84881 0
M  V30 4420 H 432.103 -1.17931 1.10923 0
M  V30 4421 H 434.095 -4.04683 -0.0373026 0
M  V30 4422 H 432.665 -3.08696 -0.492527 0
M  V30 4423 H 431.885 -3.41351 1.97163 0
M  V30 4424 H 433.173 -4.62103 2.12928 0
M  V30 4425 H 432.571 -5.58455 -0.902478 0
M  V30 4426 H 431.128 -6.48464 -0.65861 0
M  V30 4427 N 434.561 -1.01147 -1.20859 0
M  V30 4428 C 435.524 -0.582224 -2.21682 0
M  V30 4429 C 436.524 0.344887 -1.57058 0
M  V30 4430 O 437.714 0.134281 -1.73682 0
M  V30 4431 C 434.846 0.150496 -3.40568 0
M  V30 4432 H 436.039 -1.47408 -2.61172 0
M  V30 4433 H 433.592 -0.800695 -1.34233 0
M  V30 4434 H 434.327 1.0575 -3.06574 0
M  V30 4435 H 434.112 -0.515444 -3.88697 0
M  V30 4436 H 435.602 0.438344 -4.15293 0
M  V30 4437 N 436.039 1.36541 -0.78704 0
M  V30 4438 C 436.949 2.3387 -0.184896 0
M  V30 4439 C 437.965 1.60927 0.661697 0
M  V30 4440 O 439.141 1.92927 0.57804 0
M  V30 4441 C 436.206 3.40122 0.672145 0
M  V30 4442 C 435.267 4.28867 -0.19267 0
M  V30 4443 C 434.5 5.30045 0.623561 0
M  V30 4444 O 434.723 5.39232 1.8597 0
M  V30 4445 O 433.657 6.01895 0.0247068 0
M  V30 4446 H 437.483 2.87126 -0.989562 0
M  V30 4447 H 435.068 1.38969 -0.548455 0
M  V30 4448 H 436.95 4.05093 1.16094 0
M  V30 4449 H 435.625 2.89169 1.45474 0
M  V30 4450 H 434.532 3.66945 -0.728166 0
M  V30 4451 H 435.865 4.83165 -0.938722 0
M  V30 4452 N 437.518 0.538854 1.48102 0
M  V30 4453 C 438.746 0.0123136 2.06896 0
M  V30 4454 C 439.161 -1.27312 1.39417 0
M  V30 4455 O 438.518 -1.75949 0.484582 0
M  V30 4456 C 438.569 -0.206118 3.60912 0
M  V30 4457 O 438.29 1.0284 4.25859 0
M  V30 4458 C 439.791 -0.772033 4.36526 0
M  V30 4459 H 437.011 0.0375239 0.66995 0
M  V30 4460 H 439.555 0.747032 1.90367 0
M  V30 4461 H 437.71 -0.89091 3.77017 0
M  V30 4462 H 438.124 0.814654 5.18135 0
M  V30 4463 H 439.598 -0.874251 5.45033 0
M  V30 4464 H 440.075 -1.77904 4.01555 0
M  V30 4465 H 440.681 -0.123526 4.25121 0
M  V30 4466 N 438.996 -1.55193 0.274407 0
M  V30 4467 C 440.244 -1.99187 -0.341902 0
M  V30 4468 C 440.565 -1.16422 -1.56431 0
M  V30 4469 O 439.835 -0.253573 -1.94252 0
M  V30 4470 H 438.415 -0.735721 -0.129317 0
M  V30 4471 H 441.077 -1.91168 0.379578 0
M  V30 4472 H 440.173 -3.05629 -0.632253 0
M  V30 4473 N 440.474 -0.00167713 -1.576 0
M  V30 4474 C 441.885 0.54091 -1.78693 0
M  V30 4475 C 442.236 1.7386 -0.909247 0
M  V30 4476 O 441.361 2.16109 -0.112176 0
M  V30 4477 C 441.956 0.98806 -3.24072 0
M  V30 4478 C 440.515 1.47594 -3.46256 0
M  V30 4479 C 439.662 0.42792 -2.73978 0
M  V30 4480 H 442.613 -0.22784 -1.57056 0
M  V30 4481 H 442.634 1.85398 -3.32277 0
M  V30 4482 H 442.146 0.116164 -3.87926 0
M  V30 4483 H 440.247 2.36868 -2.87618 0
M  V30 4484 H 440.36 1.50225 -4.54939 0
M  V30 4485 H 438.724 0.889934 -2.38647 0
M  V30 4486 H 439.507 -0.435038 -3.40532 0
M  V30 4487 N 441.952 1.55251 0.271103 0
M  V30 4488 C 443.192 1.77698 1.01008 0
M  V30 4489 C 443.556 0.567246 1.83429 0
M  V30 4490 O 444.757 0.670013 2.60316 0
M  V30 4491 C 443.028 3.04715 1.86772 0
M  V30 4492 S 444.587 3.48289 2.66909 0
M  V30 4493 H 441.405 0.624343 0.340172 0
M  V30 4494 H 444.007 1.9348 0.280315 0
M  V30 4495 H 442.711 3.90853 1.25149 0
M  V30 4496 H 442.242 2.91604 2.64066 0
M  V30 4497 H 444.257 3.07712 3.89266 0
M  V30 4498 N 443.43 -0.535701 1.48216 0
M  V30 4499 C 444.846 -0.863701 1.3421 0
M  V30 4500 C 445.046 -1.98458 0.34879 0
M  V30 4501 O 444.102 -2.51432 -0.23204 0
M  V30 4502 C 445.415 -1.23662 2.74095 0
M  V30 4503 C 446.963 -1.34683 2.82541 0
M  V30 4504 C 447.438 -1.75322 4.23115 0
M  V30 4505 N 448.929 -1.82434 4.2576 0
M  V30 4506 C 449.664 -2.15252 5.31464 0
M  V30 4507 N 449.16 -2.46533 6.47452 0
M  V30 4508 N 450.953 -2.16209 5.18855 0
M  V30 4509 H 443.104 0.203965 2.11418 0
M  V30 4510 H 445.367 0.0286033 0.947568 0
M  V30 4511 H 445.073 -0.486674 3.48316 0
M  V30 4512 H 444.947 -2.18805 3.07253 0
M  V30 4513 H 447.334 -2.08756 2.08579 0
M  V30 4514 H 447.415 -0.376756 2.5301 0
M  V30 4515 H 447.059 -1.01812 4.97591 0
M  V30 4516 H 446.989 -2.7337 4.50085 0
M  V30 4517 H 449.48 -1.6056 3.42095 0
M  V30 4518 H 449.793 -2.70662 7.23852 0
M  V30 4519 H 448.138 -2.44065 6.50736 0
M  V30 4520 H 451.329 -1.91224 4.2726 0
M  V30 4521 H 451.502 -2.41453 6.01335 0
M  V30 4522 N 444.908 -1.36708 -0.784132 0
M  V30 4523 C 445.871 -1.31307 -1.87859 0
M  V30 4524 C 446.871 -0.219654 -1.59293 0
M  V30 4525 O 448.061 -0.47476 -1.67606 0
M  V30 4526 C 445.193 -1.03679 -3.24751 0
M  V30 4527 H 446.386 -2.28647 -1.94064 0
M  V30 4528 H 443.939 -1.21558 -0.98252 0
M  V30 4529 H 444.674 -0.0681936 -3.24228 0
M  V30 4530 H 444.459 -1.82811 -3.46876 0
M  V30 4531 H 445.949 -1.02518 -4.04821 0
M  V30 4532 N 446.386 1.0089 -1.21074 0
M  V30 4533 C 447.319 2.09279 -0.909806 0
M  V30 4534 C 448.297 1.61986 0.141145 0
M  V30 4535 O 449.481 1.88495 0.0130332 0
M  V30 4536 C 446.608 3.36723 -0.365374 0
M  V30 4537 C 445.654 4.02919 -1.39852 0
M  V30 4538 S 446.487 4.45835 -2.96633 0
M  V30 4539 C 447.643 5.76471 -2.43786 0
M  V30 4540 H 447.876 2.34484 -1.82769 0
M  V30 4541 H 445.409 1.14115 -1.04006 0
M  V30 4542 H 447.367 4.10459 -0.0578203 0
M  V30 4543 H 446.028 3.09577 0.531136 0
M  V30 4544 H 445.221 4.94634 -0.967117 0
M  V30 4545 H 444.823 3.35441 -1.65395 0
M  V30 4546 H 447.115 6.52027 -1.84029 0
M  V30 4547 H 448.058 6.24418 -3.33928 0
M  V30 4548 H 448.466 5.33104 -1.85636 0
M  V30 4549 N 447.864 1.01787 1.20321 0
M  V30 4550 C 449.113 0.703249 1.89043 0
M  V30 4551 C 449.426 -0.770445 1.79787 0
M  V30 4552 O 450.632 -1.19767 2.43656 0
M  V30 4553 C 449.088 1.20749 3.3904 0
M  V30 4554 C 448.696 2.70817 3.56878 0
M  V30 4555 C 450.44 0.968352 4.13308 0
M  V30 4556 C 448.347 3.14716 5.00708 0
M  V30 4557 H 447.277 0.259354 0.707991 0
M  V30 4558 H 449.928 1.23072 1.36108 0
M  V30 4559 H 448.31 0.607989 3.91305 0
M  V30 4560 H 449.484 3.36327 3.14993 0
M  V30 4561 H 447.799 2.92888 2.95983 0
M  V30 4562 H 450.396 1.27173 5.19356 0
M  V30 4563 H 450.739 -0.095149 4.16191 0
M  V30 4564 H 451.272 1.53129 3.67146 0
M  V30 4565 H 448.011 4.20347 5.02979 0
M  V30 4566 H 447.531 2.53927 5.43398 0
M  V30 4567 H 449.21 3.07426 5.69296 0
M  V30 4568 N 449.342 -1.36122 0.79427 0
M  V30 4569 C 450.567 -2.03891 0.379871 0
M  V30 4570 C 450.992 -1.59488 -0.997251 0
M  V30 4571 O 450.35 -0.765652 -1.64339 0
M  V30 4572 C 450.398 -3.57687 0.457442 0
M  V30 4573 O 449.502 -4.08931 -0.5338 0
M  V30 4574 H 448.843 -0.6443 0.160541 0
M  V30 4575 H 451.373 -1.73976 1.07673 0
M  V30 4576 H 451.383 -4.06721 0.322792 0
M  V30 4577 H 450.058 -3.89357 1.46199 0
M  V30 4578 H 448.635 -3.71154 -0.360409 0
M  V30 4579 N 450.82 -0.546701 -1.47814 0
M  V30 4580 C 452.236 -0.205717 -1.58269 0
M  V30 4581 C 452.436 1.29153 -1.54667 0
M  V30 4582 O 451.492 2.07098 -1.44453 0
M  V30 4583 C 452.805 -0.823065 -2.89216 0
M  V30 4584 C 454.353 -0.793328 -3.02779 0
M  V30 4585 C 454.828 -1.38955 -4.36412 0
M  V30 4586 N 456.319 -1.35227 -4.43021 0
M  V30 4587 C 457.054 -1.78333 -5.44963 0
M  V30 4588 N 456.55 -2.29246 -6.53772 0
M  V30 4589 N 458.343 -1.69467 -5.35945 0
M  V30 4590 H 450.494 -1.5196 -1.48398 0
M  V30 4591 H 452.757 -0.633078 -0.705632 0
M  V30 4592 H 452.463 -1.8749 -2.97558 0
M  V30 4593 H 452.337 -0.309915 -3.75925 0
M  V30 4594 H 454.724 0.249784 -2.94041 0
M  V30 4595 H 454.805 -1.34412 -2.17639 0
M  V30 4596 H 454.449 -2.43168 -4.45906 0
M  V30 4597 H 454.379 -0.814291 -5.20266 0
M  V30 4598 H 456.87 -0.979739 -3.64979 0
M  V30 4599 H 457.183 -2.60089 -7.27718 0
M  V30 4600 H 455.528 -2.3325 -6.5469 0
M  V30 4601 H 458.719 -1.29477 -4.49837 0
M  V30 4602 H 458.892 -2.03381 -6.15256 0
M  V30 4603 N 452.299 1.55045 -0.282633 0
M  V30 4604 C 453.545 2.0078 0.325436 0
M  V30 4605 C 453.9 1.1676 1.52921 0
M  V30 4606 O 453.193 0.231475 1.90197 0
M  V30 4607 C 453.387 3.49422 0.750938 0
M  V30 4608 C 453.216 4.47827 -0.410056 0
M  V30 4609 C 451.986 4.97288 -0.896239 0
M  V30 4610 C 454.184 4.98903 -1.24902 0
M  V30 4611 N 452.166 5.79508 -2.02591 0
M  V30 4612 C 453.537 5.78644 -2.22646 0
M  V30 4613 C 455.592 4.81126 -1.2815 0
M  V30 4614 C 454.295 6.42502 -3.23393 0
M  V30 4615 C 456.321 5.45789 -2.27745 0
M  V30 4616 C 455.683 6.25348 -3.24222 0
M  V30 4617 H 451.782 0.77747 0.08405 0
M  V30 4618 H 454.366 1.90369 -0.408368 0
M  V30 4619 H 452.537 3.60159 1.45395 0
M  V30 4620 H 454.269 3.81978 1.33698 0
M  V30 4621 H 451.024 4.71219 -0.474277 0
M  V30 4622 H 451.448 6.25308 -2.59459 0
M  V30 4623 H 456.09 4.19215 -0.549397 0
M  V30 4624 H 453.808 7.03558 -3.97533 0
M  V30 4625 H 457.394 5.33972 -2.31009 0
M  V30 4626 H 456.274 6.74498 -4.00027 0
M  V30 4627 N 453.777 0.010035 1.57597 0
M  V30 4628 C 455.007 -0.682422 1.95004 0
M  V30 4629 C 455.415 -1.67278 0.884014 0
M  V30 4630 O 454.758 -1.83129 -0.144672 0
M  V30 4631 C 454.82 -1.46141 3.28456 0
M  V30 4632 C 454.484 -0.631523 4.52615 0
M  V30 4633 C 455.481 0.0850905 5.1983 0
M  V30 4634 C 453.166 -0.574539 4.99003 0
M  V30 4635 C 455.16 0.847566 6.3174 0
M  V30 4636 C 452.847 0.191655 6.10799 0
M  V30 4637 C 453.845 0.901432 6.77025 0
M  V30 4638 O 453.533 1.65511 7.86677 0
M  V30 4639 H 453.265 -0.194361 0.647456 0
M  V30 4640 H 455.819 0.060312 2.05311 0
M  V30 4641 H 454.049 -2.24885 3.14585 0
M  V30 4642 H 455.738 -2.04016 3.50902 0
M  V30 4643 H 456.504 0.0502812 4.84974 0
M  V30 4644 H 452.383 -1.11654 4.47274 0
M  V30 4645 H 455.927 1.4021 6.83364 0
M  V30 4646 H 451.824 0.228249 6.45096 0
M  V30 4647 H 452.592 1.57287 8.03245 0
M  V30 4648 N 455.255 -1.55392 -0.262866 0
M  V30 4649 C 456.502 -1.76476 -0.993109 0
M  V30 4650 C 456.83 -0.571479 -1.85915 0
M  V30 4651 O 456.085 0.445733 -1.90556 0
M  V30 4652 C 456.384 -3.02889 -1.89718 0
M  V30 4653 C 456.05 -4.34974 -1.18781 0
M  V30 4654 C 454.712 -4.7087 -0.991699 0
M  V30 4655 C 457.064 -5.16695 -0.683798 0
M  V30 4656 C 454.392 -5.86036 -0.279024 0
M  V30 4657 C 456.744 -6.32598 0.0153327 0
M  V30 4658 C 455.408 -6.67127 0.223062 0
M  V30 4659 H 454.678 -0.64577 -0.363404 0
M  V30 4660 H 457.325 -1.89664 -0.264525 0
M  V30 4661 H 455.63 -2.84644 -2.6923 0
M  V30 4662 H 457.327 -3.16399 -2.46359 0
M  V30 4663 H 453.917 -4.06765 -1.35058 0
M  V30 4664 H 458.101 -4.8943 -0.8229 0
M  V30 4665 H 453.357 -6.11306 -0.107456 0
M  V30 4666 H 457.531 -6.95171 0.413584 0
M  V30 4667 H 455.158 -7.56216 0.777265 0
M  V30 4668 N 456.733 0.527833 -1.48498 0
M  V30 4669 C 458.01 1.28905 -1.47115 0
M  V30 4670 C 458.39 2.10297 -0.184007 0
M  V30 4671 O 457.738 2.12728 0.834218 0
M  V30 4672 C 457.948 2.16866 -2.73441 0
M  V30 4673 C 459.296 2.76936 -3.21857 0
M  V30 4674 O 460.32 2.27152 -2.74373 0
M  V30 4675 O 459.179 3.67496 -4.04486 0
M  V30 4676 H 456.273 0.581918 -0.587623 0
M  V30 4677 H 458.819 0.544311 -1.60734 0
M  V30 4678 H 457.591 1.56521 -3.58632 0
M  V30 4679 H 457.214 2.98583 -2.62553 0
M  V30 4680 N 458.211 1.37122 0.776871 0
M  V30 4681 C 459.457 1.32243 1.53752 0
M  V30 4682 C 459.79 -0.0944745 1.9397 0
M  V30 4683 O 459.065 -1.05068 1.6368 0
M  V30 4684 C 459.348 2.25681 2.80607 0
M  V30 4685 C 459.201 3.76127 2.46676 0
M  V30 4686 C 460.52 2.17657 3.82509 0
M  V30 4687 H 457.639 0.481704 0.557791 0
M  V30 4688 H 460.281 1.6778 0.891612 0
M  V30 4689 H 458.431 1.95505 3.35723 0
M  V30 4690 H 460.103 4.16877 1.97513 0
M  V30 4691 H 458.346 3.94946 1.79443 0
M  V30 4692 H 459.017 4.36933 3.37333 0
M  V30 4693 H 461.493 2.44245 3.36873 0
M  V30 4694 H 460.369 2.85185 4.69 0
M  V30 4695 H 460.63 1.16785 4.26396 0
M  V30 4696 N 459.689 -1.00246 1.21608 0
M  V30 4697 C 460.917 -1.77631 1.06089 0
M  V30 4698 C 461.332 -1.84746 -0.38916 0
M  V30 4699 O 460.689 -1.31068 -1.26994 0
M  V30 4700 C 460.74 -3.21415 1.65453 0
M  V30 4701 O 460.461 -3.14703 3.04785 0
M  V30 4702 C 461.962 -4.15289 1.55079 0
M  V30 4703 H 459.182 -0.558162 0.37242 0
M  V30 4704 H 461.726 -1.26093 1.60999 0
M  V30 4705 H 459.881 -3.70053 1.14629 0
M  V30 4706 H 460.295 -4.05056 3.33212 0
M  V30 4707 H 461.769 -5.13965 2.01355 0
M  V30 4708 H 462.246 -4.36279 0.505665 0
M  V30 4709 H 462.852 -3.72543 2.05163 0
M  V30 4710 N 461.167 -1.02423 -1.1978 0
M  V30 4711 C 462.077 -0.610919 -2.26506 0
M  V30 4712 C 463.093 0.355152 -1.70337 0
M  V30 4713 O 464.269 0.214195 -2.00258 0
M  V30 4714 C 461.334 0.0365921 -3.46681 0
M  V30 4715 C 460.395 -0.976389 -4.18049 0
M  V30 4716 C 459.628 -0.359683 -5.32487 0
M  V30 4717 O 459.851 0.838601 -5.64202 0
M  V30 4718 O 458.785 -1.08022 -5.92127 0
M  V30 4719 H 462.611 -1.49965 -2.64091 0
M  V30 4720 H 460.196 -0.794156 -1.26545 0
M  V30 4721 H 462.078 0.39786 -4.19518 0
M  V30 4722 H 460.753 0.899398 -3.10954 0
M  V30 4723 H 459.66 -1.38916 -3.47352 0
M  V30 4724 H 460.993 -1.80941 -4.57735 0
M  V30 4725 N 462.645 1.35699 -0.801477 0
M  V30 4726 C 463.893 1.9852 -0.37871 0
M  V30 4727 C 464.214 1.63907 1.05638 0
M  V30 4728 O 463.484 0.919013 1.73006 0
M  V30 4729 H 462.064 0.734322 -0.137042 0
M  V30 4730 H 464.726 1.65697 -1.02619 0
M  V30 4731 H 463.822 3.08382 -0.480284 0
M  V30 4732 N 464.123 0.554532 1.47522 0
M  V30 4733 C 465.07 -0.19466 2.29978 0
M  V30 4734 C 466.04 -0.910882 1.38896 0
M  V30 4735 O 467.225 -0.907102 1.67858 0
M  V30 4736 C 464.365 -1.22035 3.22802 0
M  V30 4737 C 463.478 -0.510474 4.28973 0
M  V30 4738 C 462.613 -1.52123 5.08952 0
M  V30 4739 C 461.652 -0.796173 6.069 0
M  V30 4740 N 460.789 -1.75363 6.79847 0
M  V30 4741 H 465.629 0.51461 2.93523 0
M  V30 4742 H 463.166 0.265607 1.44682 0
M  V30 4743 H 465.124 -1.8276 3.7504 0
M  V30 4744 H 463.754 -1.89769 2.61127 0
M  V30 4745 H 462.806 0.211234 3.79813 0
M  V30 4746 H 464.118 0.0576503 4.98767 0
M  V30 4747 H 463.272 -2.20207 5.65326 0
M  V30 4748 H 462.011 -2.12327 4.39054 0
M  V30 4749 H 461.016 -0.101388 5.49707 0
M  V30 4750 H 462.241 -0.199911 6.78806 0
M  V30 4751 H 460.187 -2.3443 6.12682 0
M  V30 4752 H 460.104 -1.23759 7.45801 0
M  V30 4753 H 461.372 -2.4257 7.40797 0
M  V30 4754 N 465.601 -1.54893 0.290851 0
M  V30 4755 C 466.841 -2.01842 -0.322388 0
M  V30 4756 C 467.205 -1.17477 -1.51865 0
M  V30 4757 O 468.406 -1.54077 -2.20258 0
M  V30 4758 C 466.677 -3.50874 -0.679844 0
M  V30 4759 S 468.236 -4.19796 -1.27739 0
M  V30 4760 H 465.054 -0.704005 -0.0994866 0
M  V30 4761 H 467.656 -1.91015 0.416358 0
M  V30 4762 H 466.36 -4.09915 0.199435 0
M  V30 4763 H 465.891 -3.65717 -1.44964 0
M  V30 4764 H 467.906 -4.24729 -2.56554 0
M  V30 4765 N 467.08 -0.0183926 -1.57589 0
M  V30 4766 C 468.043 0.951986 -2.08494 0
M  V30 4767 C 469.043 1.26092 -0.997874 0
M  V30 4768 O 470.233 1.20304 -1.25987 0
M  V30 4769 C 467.365 2.27165 -2.54182 0
M  V30 4770 H 468.558 0.511307 -2.95509 0
M  V30 4771 H 466.111 0.229444 -1.54607 0
M  V30 4772 H 466.846 2.75884 -1.70465 0
M  V30 4773 H 466.631 2.06057 -3.33591 0
M  V30 4774 H 468.121 2.9674 -2.93828 0
M  V30 4775 N 468.558 1.5553 0.254621 0
M  V30 4776 C 469.969 1.67518 0.824286 0
M  V30 4777 C 470.32 0.614429 1.86331 0
M  V30 4778 O 469.445 -0.240736 2.15057 0
M  V30 4779 C 470.04 3.03692 1.50189 0
M  V30 4780 C 468.599 3.17646 2.01935 0
M  V30 4781 C 467.746 2.63373 0.867746 0
M  V30 4782 H 470.697 1.58671 0.0305843 0
M  V30 4783 H 470.718 2.97706 2.36962 0
M  V30 4784 H 470.23 3.80874 0.745431 0
M  V30 4785 H 468.331 2.45273 2.80485 0
M  V30 4786 H 468.444 4.24455 2.22204 0
M  V30 4787 H 466.808 2.20999 1.26616 0
M  V30 4788 H 467.591 3.43074 0.124498 0
M  V30 4789 N 470.036 -0.519951 1.48776 0
M  V30 4790 C 471.283 -1.27522 1.57303 0
M  V30 4791 C 471.611 -1.92869 0.251328 0
M  V30 4792 O 470.866 -1.80372 -0.759243 0
M  V30 4793 C 471.165 -2.37864 2.6675 0
M  V30 4794 C 470.831 -1.90103 4.08867 0
M  V30 4795 C 469.493 -1.76795 4.47546 0
M  V30 4796 C 471.845 -1.54133 4.97888 0
M  V30 4797 C 469.173 -1.25868 5.73039 0
M  V30 4798 C 471.525 -1.04665 6.23881 0
M  V30 4799 C 470.189 -0.899823 6.61407 0
M  V30 4800 H 469.459 -0.466636 0.575614 0
M  V30 4801 H 472.106 -0.579109 1.82534 0
M  V30 4802 H 470.411 -3.13186 2.35418 0
M  V30 4803 H 472.108 -2.95969 2.70561 0
M  V30 4804 H 468.698 -2.01414 3.78326 0
M  V30 4805 H 472.882 -1.6327 4.68675 0
M  V30 4806 H 468.138 -1.13196 6.0083 0
M  V30 4807 H 472.312 -0.759074 6.92251 0
M  V30 4808 H 469.939 -0.503011 7.58534 0
M  V30 4809 N 471.514 -1.37532 -0.769588 0
M  V30 4810 C 472.761 -1.3286 -1.52822 0
M  V30 4811 C 473.089 0.0862597 -1.94309 0
M  V30 4812 O 472.344 1.05995 -1.6451 0
M  V30 4813 C 472.643 -2.21558 -2.8044 0
M  V30 4814 C 472.309 -3.69796 -2.57996 0
M  V30 4815 C 470.971 -4.10194 -2.51583 0
M  V30 4816 C 473.323 -4.63699 -2.37976 0
M  V30 4817 C 470.651 -5.42608 -2.23144 0
M  V30 4818 C 473.003 -5.96353 -2.1106 0
M  V30 4819 C 471.667 -6.35853 -2.03093 0
M  V30 4820 H 470.937 -0.486168 -0.559215 0
M  V30 4821 H 473.584 -1.69757 -0.886277 0
M  V30 4822 H 471.889 -1.77663 -3.49204 0
M  V30 4823 H 473.586 -2.15256 -3.38328 0
M  V30 4824 H 470.176 -3.37759 -2.63851 0
M  V30 4825 H 474.36 -4.33346 -2.41919 0
M  V30 4826 H 469.616 -5.72173 -2.15472 0
M  V30 4827 H 473.79 -6.68667 -1.94568 0
M  V30 4828 H 471.417 -7.38382 -1.8082 0
M  V30 4829 N 472.992 0.995999 -1.22138 0
M  V30 4830 C 474.222 1.76809 -1.06874 0
M  V30 4831 C 474.63 1.85265 0.383866 0
M  V30 4832 O 473.973 1.31969 1.27789 0
M  V30 4833 C 474.035 3.2186 -1.60144 0
M  V30 4834 C 473.699 3.36958 -3.0872 0
M  V30 4835 C 474.696 3.2452 -4.0618 0
M  V30 4836 C 472.381 3.62109 -3.48112 0
M  V30 4837 C 474.375 3.37013 -5.41019 0
M  V30 4838 C 472.062 3.74243 -4.831 0
M  V30 4839 C 473.06 3.61702 -5.79362 0
M  V30 4840 O 472.748 3.73436 -7.119 0
M  V30 4841 H 472.48 0.562207 -0.375365 0
M  V30 4842 H 475.034 1.26113 -1.62125 0
M  V30 4843 H 473.264 3.73734 -0.992981 0
M  V30 4844 H 474.953 3.80775 -1.40589 0
M  V30 4845 H 475.719 3.05004 -3.77091 0
M  V30 4846 H 471.598 3.70949 -2.73712 0
M  V30 4847 H 475.142 3.27141 -6.16137 0
M  V30 4848 H 471.039 3.93266 -5.11872 0
M  V30 4849 H 471.807 3.90328 -7.19435 0
M  V30 4850 N 474.47 1.03057 1.19235 0
M  V30 4851 C 475.718 0.726581 1.88587 0
M  V30 4852 C 476.039 -0.747227 1.80115 0
M  V30 4853 O 475.309 -1.53849 1.21274 0
M  V30 4854 H 473.889 0.265768 0.698124 0
M  V30 4855 H 476.551 1.30516 1.44746 0
M  V30 4856 H 475.647 1.0224 2.94879 0
M  V30 4857 N 475.948 -1.35272 0.808662 0
M  V30 4858 C 477.196 -1.98316 0.389233 0
M  V30 4859 C 477.517 -1.64465 -1.04767 0
M  V30 4860 O 476.787 -0.928175 -1.72516 0
M  V30 4861 H 475.367 -0.733585 0.140935 0
M  V30 4862 H 478.029 -1.6515 1.03496 0
M  V30 4863 H 477.125 -3.08123 0.496631 0
M  V30 4864 N 477.426 -0.562348 -1.47226 0
M  V30 4865 C 478.666 -0.0426374 -2.04356 0
M  V30 4866 C 479.03 1.28487 -1.42671 0
M  V30 4867 O 480.231 1.89259 -1.90878 0
M  V30 4868 C 478.502 0.0433826 -3.57374 0
M  V30 4869 S 480.061 0.508472 -4.35844 0
M  V30 4870 H 476.879 -0.0276234 -0.710463 0
M  V30 4871 H 479.481 -0.750245 -1.80531 0
M  V30 4872 H 478.185 -0.927072 -3.99792 0
M  V30 4873 H 477.716 0.774387 -3.85703 0
M  V30 4874 H 479.731 1.76719 -4.63665 0
M  V30 4875 N 478.904 1.54736 -0.299062 0
M  V30 4876 C 480.152 1.99706 0.31017 0
M  V30 4877 C 480.473 1.18896 1.54559 0
M  V30 4878 O 479.743 0.284445 1.93824 0
M  V30 4879 H 478.323 0.737686 0.117596 0
M  V30 4880 H 480.985 1.9054 -0.409943 0
M  V30 4881 H 480.081 3.06596 0.58355 0
M  V30 4882 N 480.382 0.0267497 1.57577 0
M  V30 4883 C 481.63 -0.651116 1.91324 0
M  V30 4884 C 481.951 -1.72804 0.90353 0
M  V30 4885 O 481.221 -1.95822 -0.0552946 0
M  V30 4886 H 479.801 -0.243491 0.706202 0
M  V30 4887 H 482.463 0.0739935 1.94759 0
M  V30 4888 H 481.559 -1.10536 2.9187 0
M  V30 4889 N 481.861 -1.55662 -0.24637 0
M  V30 4890 C 482.809 -1.91186 -1.3248 0
M  V30 4891 C 483.803 -0.790996 -1.49799 0
M  V30 4892 O 485.009 -0.975617 -1.51267 0
M  V30 4893 H 481.384 -0.607207 -0.443626 0
M  V30 4894 H 483.355 -2.81221 -0.997853 0
M  V30 4895 C 482.104 -2.22349 -2.67313 0
M  V30 4896 H 481.427 -3.08097 -2.54786 0
M  V30 4897 H 482.867 -2.51107 -3.41645 0
M  V30 4898 C 481.326 -1.04001 -3.20446 0
M  V30 4899 O 481.856 -0.28828 -4.00664 0
M  V30 4900 N 480.062 -0.830494 -2.7848 0
M  V30 4901 H 479.609 -1.4435 -2.13356 0
M  V30 4902 H 479.567 -0.0403258 -3.14374 0
M  V30 4903 N 483.339 0.512053 -1.4905 0
M  V30 4904 C 484.755 0.84224 -1.35567 0
M  V30 4905 C 484.955 1.97878 -0.380319 0
M  V30 4906 O 484.011 2.51769 0.19201 0
M  V30 4907 C 485.324 1.19286 -2.76028 0
M  V30 4908 C 486.872 1.30171 -2.84648 0
M  V30 4909 C 487.347 1.68568 -4.25851 0
M  V30 4910 N 488.838 1.75638 -4.28609 0
M  V30 4911 C 489.573 2.06769 -5.34821 0
M  V30 4912 N 489.069 2.36201 -6.51292 0
M  V30 4913 N 490.862 2.07927 -5.22229 0
M  V30 4914 H 483.013 -0.237574 -2.11067 0
M  V30 4915 H 485.276 -0.0436747 -0.946993 0
M  V30 4916 H 484.982 0.431199 -3.49047 0
M  V30 4917 H 484.856 2.13889 -3.10695 0
M  V30 4918 H 487.243 2.05411 -2.11873 0
M  V30 4919 H 487.324 0.336457 -2.53578 0
M  V30 4920 H 486.968 0.938824 -4.99148 0
M  V30 4921 H 486.898 2.66174 -4.54377 0
M  V30 4922 H 489.389 1.55097 -3.44606 0
M  V30 4923 H 489.702 2.59112 -7.28066 0
M  V30 4924 H 488.047 2.33681 -6.54536 0
M  V30 4925 H 491.238 1.84403 -4.30248 0
M  V30 4926 H 491.411 2.31856 -6.05101 0
M  V30 4927 N 484.817 1.37938 0.762283 0
M  V30 4928 C 485.765 1.34569 1.89721 0
M  V30 4929 C 486.759 0.232929 1.67791 0
M  V30 4930 O 487.965 0.401485 1.75465 0
M  V30 4931 H 484.34 0.419594 0.624055 0
M  V30 4932 H 486.311 2.30357 1.8968 0
M  V30 4933 C 485.06 1.17898 3.27101 0
M  V30 4934 H 484.383 2.02781 3.44558 0
M  V30 4935 H 485.823 1.19593 4.06784 0
M  V30 4936 C 484.282 -0.114728 3.36705 0
M  V30 4937 O 484.812 -1.0949 3.8649 0
M  V30 4938 N 483.018 -0.16863 2.9011 0
M  V30 4939 H 482.565 0.62967 2.49786 0
M  V30 4940 H 482.523 -1.03383 2.96916 0
M  V30 4941 N 486.295 -0.989507 1.22664 0
M  V30 4942 C 487.243 -2.10148 0.997035 0
M  V30 4943 C 488.237 -1.6929 -0.0609783 0
M  V30 4944 O 489.443 -1.79766 0.0917523 0
M  V30 4945 H 485.818 -0.687256 0.305259 0
M  V30 4946 H 487.789 -2.26685 1.94053 0
M  V30 4947 C 486.538 -3.4257 0.595085 0
M  V30 4948 H 485.861 -3.74453 1.40089 0
M  V30 4949 H 487.301 -4.21344 0.473869 0
M  V30 4950 C 485.76 -3.29638 -0.695725 0
M  V30 4951 O 486.29 -3.61709 -1.74727 0
M  V30 4952 N 484.496 -2.82814 -0.668173 0
M  V30 4953 H 484.043 -2.56914 0.18787 0
M  V30 4954 H 484.001 -2.74544 -1.5321 0
M  V30 4955 N 487.773 -1.03688 -1.18687 0
M  V30 4956 C 489.02 -0.73803 -1.88572 0
M  V30 4957 C 489.348 0.733973 -1.8012 0
M  V30 4958 O 488.603 1.55098 -1.19344 0
M  V30 4959 C 488.902 -1.14477 -3.3857 0
M  V30 4960 C 488.568 -2.61641 -3.67226 0
M  V30 4961 C 487.23 -3.01846 -3.74757 0
M  V30 4962 C 489.582 -3.56812 -3.79914 0
M  V30 4963 C 486.91 -4.36118 -3.92451 0
M  V30 4964 C 489.262 -4.90799 -3.99123 0
M  V30 4965 C 487.926 -5.3068 -4.04888 0
M  V30 4966 H 487.196 -0.270064 -0.690034 0
M  V30 4967 H 489.843 -1.3012 -1.40503 0
M  V30 4968 H 488.148 -0.500337 -3.88592 0
M  V30 4969 H 489.845 -0.89095 -3.90977 0
M  V30 4970 H 486.435 -2.29498 -3.61979 0
M  V30 4971 H 490.619 -3.26899 -3.73431 0
M  V30 4972 H 485.875 -4.66542 -3.95157 0
M  V30 4973 H 490.049 -5.64451 -4.07882 0
M  V30 4974 H 487.676 -6.34733 -4.18351 0
M  V30 4975 N 489.251 1.34841 -0.815825 0
M  V30 4976 C 490.528 1.92908 -0.323416 0
M  V30 4977 C 490.908 1.74479 1.18828 0
M  V30 4978 O 490.256 1.11928 1.99209 0
M  V30 4979 C 490.466 3.40957 -0.744952 0
M  V30 4980 C 491.814 4.18107 -0.739716 0
M  V30 4981 O 492.838 3.49511 -0.68708 0
M  V30 4982 O 491.697 5.40517 -0.806456 0
M  V30 4983 H 488.791 0.822436 -0.0867646 0
M  V30 4984 H 491.337 1.4386 -0.90014 0
M  V30 4985 H 490.109 3.4814 -1.78646 0
M  V30 4986 H 489.732 3.97341 -0.143535 0
M  V30 4987 N 490.729 0.570148 1.46925 0
M  V30 4988 C 491.957 0.0561966 2.06824 0
M  V30 4989 C 492.372 -1.24326 1.42086 0
M  V30 4990 O 491.729 -1.74882 0.521794 0
M  V30 4991 C 491.78 -0.129517 3.61268 0
M  V30 4992 O 491.501 1.1185 4.23581 0
M  V30 4993 C 493.002 -0.679266 4.38065 0
M  V30 4994 H 490.222 0.0517261 0.669003 0
M  V30 4995 H 492.766 0.787243 1.8874 0
M  V30 4996 H 490.921 -0.810739 3.78822 0
M  V30 4997 H 491.335 0.924375 5.1629 0
M  V30 4998 H 492.809 -0.758445 5.46765 0
M  V30 4999 H 493.286 -1.69346 4.05239 0
M  V30 5000 H 493.892 -0.0333237 4.25287 0
M  V30 5001 N 492.207 -1.54576 0.307264 0
M  V30 5002 C 493.117 -2.27435 -0.57536 0
M  V30 5003 C 494.133 -1.31183 -1.14311 0
M  V30 5004 O 495.309 -1.64175 -1.16656 0
M  V30 5005 C 492.374 -3.00566 -1.72803 0
M  V30 5006 C 491.435 -4.12369 -1.19373 0
M  V30 5007 C 490.668 -4.82003 -2.29147 0
M  V30 5008 O 490.891 -4.51038 -3.49171 0
M  V30 5009 O 489.825 -5.69271 -1.95485 0
M  V30 5010 H 493.651 -3.03696 0.0158558 0
M  V30 5011 H 491.236 -1.49219 0.0735064 0
M  V30 5012 H 493.118 -3.46416 -2.39946 0
M  V30 5013 H 491.793 -2.27195 -2.30574 0
M  V30 5014 H 490.7 -3.70905 -0.487851 0
M  V30 5015 H 492.033 -4.87736 -0.661376 0
M  V30 5016 N 493.685 -0.035106 -1.57561 0
M  V30 5017 C 494.595 0.960295 -2.14046 0
M  V30 5018 C 495.611 1.3529 -1.0942 0
M  V30 5019 O 496.787 1.43309 -1.41508 0
M  V30 5020 C 493.852 2.22214 -2.66124 0
M  V30 5021 C 492.913 1.8894 -3.85487 0
M  V30 5022 C 492.146 3.09109 -4.35072 0
M  V30 5023 O 492.369 4.21963 -3.83802 0
M  V30 5024 O 491.303 2.91058 -5.26848 0
M  V30 5025 H 495.129 0.509983 -2.99387 0
M  V30 5026 H 492.714 0.185853 -1.48239 0
M  V30 5027 H 494.596 2.96279 -2.99661 0
M  V30 5028 H 493.271 2.66414 -1.83862 0
M  V30 5029 H 492.178 1.12241 -3.56865 0
M  V30 5030 H 493.511 1.49551 -4.6893 0
M  V30 5031 N 495.163 1.55791 0.238111 0
M  V30 5032 C 496.393 1.81834 0.980809 0
M  V30 5033 C 496.801 0.609741 1.79106 0
M  V30 5034 O 496.144 -0.431073 1.78571 0
M  V30 5035 C 496.206 3.01363 1.96011 0
M  V30 5036 C 495.87 4.37037 1.33597 0
M  V30 5037 C 496.867 5.14692 0.734063 0
M  V30 5038 C 494.552 4.83743 1.3527 0
M  V30 5039 C 496.546 6.37206 0.157208 0
M  V30 5040 C 494.233 6.06204 0.77199 0
M  V30 5041 C 495.231 6.82775 0.175282 0
M  V30 5042 O 494.919 8.02922 -0.396432 0
M  V30 5043 H 494.651 0.6088 0.293834 0
M  V30 5044 H 497.205 2.03702 0.263552 0
M  V30 5045 H 495.435 2.75273 2.71591 0
M  V30 5046 H 497.124 3.14422 2.56697 0
M  V30 5047 H 497.89 4.79722 0.713582 0
M  V30 5048 H 493.769 4.24129 1.80653 0
M  V30 5049 H 497.313 6.96915 -0.30917 0
M  V30 5050 H 493.21 6.4065 0.789828 0
M  V30 5051 H 493.978 8.17989 -0.289145 0
M  V30 5052 N 496.642 -0.504142 1.49319 0
M  V30 5053 C 497.882 -1.26867 1.60263 0
M  V30 5054 C 498.246 -1.89924 0.281578 0
M  V30 5055 O 499.447 -2.67479 0.266176 0
M  V30 5056 C 497.718 -2.30956 2.72753 0
M  V30 5057 S 499.277 -3.1679 3.03628 0
M  V30 5058 H 496.095 -0.431198 0.565322 0
M  V30 5059 H 498.697 -0.571407 1.86963 0
M  V30 5060 H 497.401 -1.83156 3.67263 0
M  V30 5061 H 496.932 -3.05356 2.48035 0
M  V30 5062 H 498.947 -4.31549 2.44908 0
M  V30 5063 N 498.12 -1.38341 -0.754957 0
M  V30 5064 C 499.053 -1.29837 -1.87663 0
M  V30 5065 C 500.031 -0.175659 -1.61648 0
M  V30 5066 O 501.215 -0.352745 -1.8517 0
M  V30 5067 C 498.342 -1.01141 -3.23246 0
M  V30 5068 C 497.388 -2.15331 -3.6815 0
M  V30 5069 S 498.221 -3.77459 -3.79849 0
M  V30 5070 C 499.377 -3.50948 -5.18253 0
M  V30 5071 H 499.61 -2.24771 -1.9459 0
M  V30 5072 H 497.143 -1.24161 -0.917796 0
M  V30 5073 H 499.101 -0.852687 -4.01546 0
M  V30 5074 H 497.762 -0.0792784 -3.14 0
M  V30 5075 H 496.955 -1.90795 -4.6649 0
M  V30 5076 H 496.557 -2.27304 -2.97 0
M  V30 5077 H 498.849 -3.06977 -6.03963 0
M  V30 5078 H 499.792 -4.48677 -5.47809 0
M  V30 5079 H 500.2 -2.85492 -4.86985 0
M  V30 5080 N 499.598 0.982988 -1.23187 0
M  V30 5081 C 500.561 2.05649 -1.01198 0
M  V30 5082 C 501.561 1.6078 0.0252464 0
M  V30 5083 O 502.751 1.72878 -0.214243 0
M  V30 5084 C 499.883 3.36744 -0.530656 0
M  V30 5085 H 501.076 2.2659 -1.96461 0
M  V30 5086 H 498.629 1.15602 -1.05195 0
M  V30 5087 H 499.364 3.21492 0.425873 0
M  V30 5088 H 499.149 3.7065 -1.2791 0
M  V30 5089 H 500.639 4.15705 -0.397366 0
M  V30 5090 N 501.076 1.04316 1.18135 0
M  V30 5091 C 502.322 0.749128 1.88457 0
M  V30 5092 C 502.655 -0.72149 1.803 0
M  V30 5093 O 501.93 -1.52676 1.205 0
M  V30 5094 C 502.213 1.21905 3.38838 0
M  V30 5095 C 502.066 2.75195 3.55792 0
M  V30 5096 C 503.385 0.811085 4.32561 0
M  V30 5097 H 500.504 0.273611 0.684329 0
M  V30 5098 H 503.146 1.29561 1.38975 0
M  V30 5099 H 501.296 0.754137 3.8111 0
M  V30 5100 H 502.968 3.29743 3.22595 0
M  V30 5101 H 501.211 3.14899 2.98364 0
M  V30 5102 H 501.882 3.03135 4.61317 0
M  V30 5103 H 504.358 1.21118 3.98082 0
M  V30 5104 H 503.234 1.16761 5.36338 0
M  V30 5105 H 503.495 -0.285596 4.41177 0
M  V30 5106 N 502.554 -1.34406 0.822964 0
M  V30 5107 C 503.794 -2.00103 0.416915 0
M  V30 5108 C 504.158 -1.63826 -1.00125 0
M  V30 5109 O 505.359 -2.22367 -1.51018 0
M  V30 5110 C 503.63 -3.52101 0.613151 0
M  V30 5111 S 505.189 -4.37774 0.299956 0
M  V30 5112 H 502.007 -0.69333 0.157527 0
M  V30 5113 H 504.609 -1.63698 1.06879 0
M  V30 5114 H 503.313 -3.75991 1.64496 0
M  V30 5115 H 502.844 -3.93364 -0.0534554 0
M  V30 5116 H 504.859 -4.8822 -0.886336 0
M  V30 5117 N 504.032 -0.577932 -1.46621 0
M  V30 5118 C 505.28 -0.061566 -2.02006 0
M  V30 5119 C 505.601 1.30117 -1.4524 0
M  V30 5120 O 504.871 1.85313 -0.63529 0
M  V30 5121 H 503.451 -0.0197692 -0.746738 0
M  V30 5122 H 506.113 -0.752631 -1.79782 0
M  V30 5123 H 505.209 0.0110238 -3.12098 0
M  V30 5124 N 505.51 1.54411 -0.315457 0
M  V30 5125 C 506.735 2.05299 0.294496 0
M  V30 5126 C 507.16 1.19052 1.4563 0
M  V30 5127 O 506.518 0.197804 1.80218 0
M  V30 5128 C 506.566 3.5345 0.714549 0
M  V30 5129 O 505.67 3.70175 1.81781 0
M  V30 5130 H 505.011 0.661743 0.0547019 0
M  V30 5131 H 507.541 1.99327 -0.461508 0
M  V30 5132 H 507.551 3.9557 0.999426 0
M  V30 5133 H 506.226 4.1568 -0.135244 0
M  V30 5134 H 504.803 3.3996 1.53236 0
M  V30 5135 N 506.988 0.0434614 1.5754 0
M  V30 5136 C 507.951 -0.918696 2.09982 0
M  V30 5137 C 508.951 -1.24488 1.01781 0
M  V30 5138 O 510.141 -1.18284 1.27885 0
M  V30 5139 C 507.273 -2.23093 2.57764 0
M  V30 5140 H 508.466 -0.464229 2.96285 0
M  V30 5141 H 506.019 -0.204818 1.54952 0
M  V30 5142 H 506.754 -2.73137 1.74832 0
M  V30 5143 H 506.539 -2.00724 3.36827 0
M  V30 5144 H 508.029 -2.92028 2.98512 0
M  V30 5145 N 508.466 -1.55915 -0.229846 0
M  V30 5146 C 509.399 -1.86734 -1.3117 0
M  V30 5147 C 510.377 -0.723947 -1.45595 0
M  V30 5148 O 511.561 -0.971462 -1.61539 0
M  V30 5149 C 508.688 -2.06707 -2.68309 0
M  V30 5150 C 507.734 -3.2938 -2.70944 0
M  V30 5151 S 508.567 -4.85547 -2.25842 0
M  V30 5152 C 509.723 -5.08546 -3.64873 0
M  V30 5153 H 509.956 -2.78204 -1.04832 0
M  V30 5154 H 507.489 -1.48243 -0.431681 0
M  V30 5155 H 509.447 -2.18898 -3.47267 0
M  V30 5156 H 508.108 -1.16049 -2.91876 0
M  V30 5157 H 507.301 -3.40374 -3.71701 0
M  V30 5158 H 506.903 -3.16004 -2.00044 0
M  V30 5159 H 509.195 -4.96935 -4.60502 0
M  V30 5160 H 510.138 -6.10465 -3.58801 0
M  V30 5161 H 510.546 -4.36314 -3.58176 0
M  V30 5162 N 509.944 0.496216 -1.49584 0
M  V30 5163 C 511.169 1.27865 -1.63295 0
M  V30 5164 C 511.594 1.85592 -0.306156 0
M  V30 5165 O 510.952 1.66092 0.726851 0
M  V30 5166 C 511 2.38128 -2.7079 0
M  V30 5167 O 510.104 3.42108 -2.30296 0
M  V30 5168 H 509.445 0.377279 -0.546403 0
M  V30 5169 H 511.975 0.593497 -1.95803 0
M  V30 5170 H 511.985 2.8382 -2.93104 0
M  V30 5171 H 510.66 1.95479 -3.67098 0
M  V30 5172 H 509.237 3.02301 -2.18331 0
M  V30 5173 N 511.423 1.38739 0.74761 0
M  V30 5174 C 512.355 1.32341 1.87132 0
M  V30 5175 C 513.368 0.234502 1.61102 0
M  V30 5176 O 514.557 0.492516 1.71571 0
M  V30 5177 C 511.657 1.02915 3.22896 0
M  V30 5178 C 510.83 2.22834 3.76383 0
M  V30 5179 C 509.889 1.90059 4.90677 0
M  V30 5180 O 508.915 2.62615 5.04997 0
M  V30 5181 N 510.117 0.859141 5.74107 0
M  V30 5182 H 512.882 2.29175 1.93129 0
M  V30 5183 H 510.443 1.32678 0.927805 0
M  V30 5184 H 512.435 0.79031 3.96908 0
M  V30 5185 H 511.005 0.148572 3.12247 0
M  V30 5186 H 510.225 2.62747 2.93867 0
M  V30 5187 H 511.513 3.02851 4.08851 0
M  V30 5188 H 510.911 0.257564 5.65113 0
M  V30 5189 H 509.468 0.680189 6.48241 0
M  V30 5190 N 512.901 -0.976442 1.23707 0
M  V30 5191 C 514.126 -1.75875 1.09922 0
M  V30 5192 C 514.551 -1.84911 -0.34489 0
M  V30 5193 O 513.909 -1.31363 -1.24954 0
M  V30 5194 C 513.957 -3.16179 1.73388 0
M  V30 5195 O 513.061 -4.00124 0.99871 0
M  V30 5196 H 512.402 -0.540954 0.385052 0
M  V30 5197 H 514.932 -1.22546 1.6384 0
M  V30 5198 H 514.942 -3.66741 1.78788 0
M  V30 5199 H 513.617 -3.08917 2.78466 0
M  V30 5200 H 512.194 -3.58624 1.02193 0
M  V30 5201 N 514.379 -1.04941 -1.1758 0
M  V30 5202 C 515.309 -0.669172 -2.23706 0
M  V30 5203 C 516.29 0.331835 -1.66832 0
M  V30 5204 O 517.475 0.209988 -1.93061 0
M  V30 5205 C 514.605 -0.0404889 -3.47276 0
M  V30 5206 C 513.559 -0.965983 -4.16957 0
M  V30 5207 C 512.885 -0.201312 -5.34321 0
M  V30 5208 C 514.185 -2.28902 -4.69469 0
M  V30 5209 H 515.879 -1.55639 -2.55767 0
M  V30 5210 H 513.425 -0.749793 -1.22939 0
M  V30 5211 H 515.378 0.237298 -4.20731 0
M  V30 5212 H 514.102 0.881658 -3.14475 0
M  V30 5213 H 512.761 -1.22829 -3.45411 0
M  V30 5214 H 512.409 0.723519 -4.97769 0
M  V30 5215 H 512.109 -0.817968 -5.81879 0
M  V30 5216 H 513.633 0.0692499 -6.10561 0
M  V30 5217 H 515.047 -2.07132 -5.34574 0
M  V30 5218 H 513.444 -2.85942 -5.27596 0
M  V30 5219 H 514.514 -2.92937 -3.86414 0
M  V30 5220 N 515.857 1.33968 -0.830081 0
M  V30 5221 C 516.787 2.31911 -0.271911 0
M  V30 5222 C 517.768 1.58571 0.61556 0
M  V30 5223 O 518.953 1.86514 0.540946 0
M  V30 5224 C 516.083 3.42737 0.561146 0
M  V30 5225 C 515.037 4.27383 -0.229789 0
M  V30 5226 C 514.363 5.29742 0.726463 0
M  V30 5227 C 515.663 5.02 -1.44197 0
M  V30 5228 H 517.357 2.78844 -1.09025 0
M  V30 5229 H 514.903 1.34061 -0.52571 0
M  V30 5230 H 516.856 4.10276 0.961867 0
M  V30 5231 H 515.58 2.94471 1.41261 0
M  V30 5232 H 514.239 3.61456 -0.611964 0
M  V30 5233 H 513.887 4.77736 1.57408 0
M  V30 5234 H 513.587 5.87255 0.20142 0
M  V30 5235 H 515.111 6.00149 1.12489 0
M  V30 5236 H 516.525 5.62355 -1.11488 0
M  V30 5237 H 514.922 5.69122 -1.90317 0
M  V30 5238 H 515.992 4.31281 -2.2164 0
M  V30 5239 N 517.335 0.585699 1.46312 0
M  V30 5240 C 518.282 -0.145835 2.30339 0
M  V30 5241 C 519.252 -0.881215 1.40797 0
M  V30 5242 O 520.437 -0.871293 1.69744 0
M  V30 5243 C 517.577 -1.15161 3.25318 0
M  V30 5244 C 516.69 -0.419367 4.2996 0
M  V30 5245 C 515.825 -1.41293 5.12064 0
M  V30 5246 C 514.864 -0.667261 6.08452 0
M  V30 5247 N 514.001 -1.60903 6.83414 0
M  V30 5248 H 518.841 0.576755 2.92365 0
M  V30 5249 H 516.378 0.296237 1.44086 0
M  V30 5250 H 518.336 -1.74763 3.78832 0
M  V30 5251 H 516.966 -1.84188 2.65094 0
M  V30 5252 H 516.018 0.291751 3.7928 0
M  V30 5253 H 517.33 0.163433 4.98532 0
M  V30 5254 H 516.484 -2.08167 5.6987 0
M  V30 5255 H 515.223 -2.02966 4.43459 0
M  V30 5256 H 514.228 0.0152356 5.49798 0
M  V30 5257 H 515.453 -0.0558817 6.79077 0
M  V30 5258 H 513.399 -2.21381 6.17516 0
M  V30 5259 H 513.316 -1.07911 7.48259 0
M  V30 5260 H 514.584 -2.26802 7.45775 0
M  V30 5261 N 518.813 -1.54241 0.323641 0
M  V30 5262 C 520.041 -2.04985 -0.280871 0
M  V30 5263 C 520.456 -1.19978 -1.45777 0
M  V30 5264 O 519.813 -0.230471 -1.81039 0
M  V30 5265 C 519.864 -3.54353 -0.715258 0
M  V30 5266 O 519.585 -4.36132 0.414817 0
M  V30 5267 C 521.086 -4.21189 -1.38257 0
M  V30 5268 H 518.306 -0.66851 -0.0577502 0
M  V30 5269 H 520.85 -1.99029 0.469852 0
M  V30 5270 H 519.005 -3.60596 -1.41596 0
M  V30 5271 H 519.419 -5.2445 0.0725227 0
M  V30 5272 H 520.893 -5.27154 -1.63745 0
M  V30 5273 H 521.37 -3.72307 -2.32989 0
M  V30 5274 H 521.976 -4.19085 -0.724447 0
M  V30 5275 N 520.291 -0.0518155 -1.57515 0
M  V30 5276 C 521.519 0.631395 -1.9703 0
M  V30 5277 C 521.934 1.64341 -0.92938 0
M  V30 5278 O 521.291 1.82296 0.0863266 0
M  V30 5279 C 521.342 1.31774 -3.36627 0
M  V30 5280 O 521.063 0.346247 -4.3673 0
M  V30 5281 C 522.564 2.09065 -3.90905 0
M  V30 5282 H 519.784 0.172576 -0.648428 0
M  V30 5283 H 522.328 -0.118306 -2.04158 0
M  V30 5284 H 520.483 2.01867 -3.30649 0
M  V30 5285 H 520.897 0.836226 -5.17791 0
M  V30 5286 H 522.371 2.52508 -4.9086 0
M  V30 5287 H 522.848 2.93908 -3.26366 0
M  V30 5288 H 523.454 1.43882 -4.00223 0
M  V30 5289 N 521.769 1.56035 0.221574 0
M  V30 5290 C 522.701 1.889 1.29805 0
M  V30 5291 C 523.714 0.777269 1.43047 0
M  V30 5292 O 524.903 1.05557 1.43945 0
M  V30 5293 C 522.003 2.0825 2.67367 0
M  V30 5294 C 521.176 3.39267 2.76073 0
M  V30 5295 C 520.235 3.48049 3.94649 0
M  V30 5296 O 519.261 4.2108 3.82988 0
M  V30 5297 N 520.463 2.79191 5.08953 0
M  V30 5298 H 523.228 2.81831 1.01938 0
M  V30 5299 H 520.789 1.5658 0.411612 0
M  V30 5300 H 522.781 2.11441 3.45072 0
M  V30 5301 H 521.351 1.21944 2.87834 0
M  V30 5302 H 520.571 3.48175 1.84846 0
M  V30 5303 H 521.859 4.25575 2.7886 0
M  V30 5304 H 521.257 2.19635 5.21322 0
M  V30 5305 H 519.814 2.88043 5.84701 0
M  V30 5306 N 523.247 -0.488276 1.49845 0
M  V30 5307 C 524.157 -1.61451 1.70207 0
M  V30 5308 C 525.173 -1.63877 0.584846 0
M  V30 5309 O 526.349 -1.82063 0.861107 0
M  V30 5310 C 523.414 -2.9776 1.77594 0
M  V30 5311 C 522.475 -3.05861 3.01243 0
M  V30 5312 C 521.708 -4.35668 3.08268 0
M  V30 5313 O 521.931 -5.25197 2.22541 0
M  V30 5314 O 520.865 -4.49005 4.00847 0
M  V30 5315 H 524.691 -1.47199 2.65643 0
M  V30 5316 H 522.276 -0.665939 1.33737 0
M  V30 5317 H 524.158 -3.7875 1.84732 0
M  V30 5318 H 522.833 -3.12248 0.8534 0
M  V30 5319 H 521.74 -2.24012 2.99616 0
M  V30 5320 H 523.073 -2.96304 3.9302 0
M  V30 5321 N 524.725 -1.39134 -0.740242 0
M  V30 5322 C 526.136 -1.32208 -1.31825 0
M  V30 5323 C 526.487 0.0159919 -1.96193 0
M  V30 5324 O 525.612 0.918111 -1.95958 0
M  V30 5325 C 526.207 -2.39436 -2.39699 0
M  V30 5326 C 524.766 -2.36048 -2.93187 0
M  V30 5327 C 523.913 -2.21599 -1.66701 0
M  V30 5328 H 526.864 -1.49298 -0.538133 0
M  V30 5329 H 526.885 -2.05922 -3.19963 0
M  V30 5330 H 526.397 -3.36811 -1.92821 0
M  V30 5331 H 524.498 -1.42295 -3.44359 0
M  V30 5332 H 524.611 -3.30704 -3.46658 0
M  V30 5333 H 522.975 -1.68681 -1.90837 0
M  V30 5334 H 523.758 -3.20936 -1.21882 0
M  V30 5335 N 526.204 0.969867 -1.24223 0
M  V30 5336 C 527.134 2.08191 -1.05729 0
M  V30 5337 C 528.115 1.70075 0.0290765 0
M  V30 5338 O 529.3 1.93712 -0.137583 0
M  V30 5339 C 526.43 3.40991 -0.658995 0
M  V30 5340 C 525.384 3.93054 -1.69389 0
M  V30 5341 C 524.71 5.22171 -1.15072 0
M  V30 5342 C 526.01 4.21137 -3.08935 0
M  V30 5343 H 527.704 2.23921 -1.98746 0
M  V30 5344 H 525.25 1.07602 -0.956967 0
M  V30 5345 H 527.203 4.18221 -0.51662 0
M  V30 5346 H 525.927 3.25155 0.30686 0
M  V30 5347 H 524.586 3.17977 -1.82444 0
M  V30 5348 H 524.234 5.02694 -0.175539 0
M  V30 5349 H 523.934 5.57973 -1.84229 0
M  V30 5350 H 525.458 6.02013 -1.02042 0
M  V30 5351 H 526.872 4.8908 -2.99121 0
M  V30 5352 H 525.269 4.68163 -3.75425 0
M  V30 5353 H 526.339 3.27996 -3.57137 0
M  V30 5354 N 527.682 1.05563 1.17022 0
M  V30 5355 C 528.645 0.664098 2.19368 0
M  V30 5356 C 529.645 -0.286358 1.5823 0
M  V30 5357 O 530.835 -0.069728 1.7406 0
M  V30 5358 C 527.967 -0.0239932 3.40892 0
M  V30 5359 H 529.16 1.57 2.55521 0
M  V30 5360 H 526.713 0.849964 1.31169 0
M  V30 5361 H 527.448 -0.942988 3.10287 0
M  V30 5362 H 527.233 0.659351 3.86516 0
M  V30 5363 H 528.723 -0.283909 4.16634 0
M  V30 5364 N 529.16 -1.33526 0.837174 0
M  V30 5365 C 530.576 -1.50727 0.524743 0
M  V30 5366 C 530.776 -1.77792 -0.948279 0
M  V30 5367 O 529.832 -1.83719 -1.73216 0
M  V30 5368 C 531.145 -2.66299 1.39661 0
M  V30 5369 C 532.693 -2.80183 1.39521 0
M  V30 5370 C 533.168 -3.98815 2.25189 0
M  V30 5371 N 534.659 -4.06047 2.2289 0
M  V30 5372 C 535.394 -4.97032 2.85915 0
M  V30 5373 N 534.89 -5.93143 3.57985 0
M  V30 5374 N 536.683 -4.90015 2.75394 0
M  V30 5375 H 528.834 -1.1422 1.79074 0
M  V30 5376 H 531.097 -0.561399 0.763894 0
M  V30 5377 H 530.803 -2.52974 2.4433 0
M  V30 5378 H 530.677 -3.61663 1.07145 0
M  V30 5379 H 533.064 -2.92942 0.356253 0
M  V30 5380 H 533.145 -1.85586 1.76044 0
M  V30 5381 H 532.789 -3.86817 3.29143 0
M  V30 5382 H 532.719 -4.92654 1.86009 0
M  V30 5383 H 535.21 -3.37262 1.70478 0
M  V30 5384 H 535.523 -6.59227 4.03286 0
M  V30 5385 H 533.868 -5.93223 3.62093 0
M  V30 5386 H 537.059 -4.13894 2.18654 0
M  V30 5387 H 537.232 -5.60724 3.24796 0
M  V30 5388 N 530.638 -0.59345 -1.46 0
M  V30 5389 C 531.915 -0.0157933 -1.95594 0
M  V30 5390 C 532.295 1.44807 -1.53604 0
M  V30 5391 O 531.643 2.14342 -0.791824 0
M  V30 5392 C 531.853 -0.199081 -3.48432 0
M  V30 5393 C 533.201 -0.0724943 -4.24538 0
M  V30 5394 O 534.225 -0.128469 -3.55968 0
M  V30 5395 O 533.084 0.0542426 -5.46473 0
M  V30 5396 H 530.178 0.043749 -0.825842 0
M  V30 5397 H 532.724 -0.662522 -1.56233 0
M  V30 5398 H 531.496 -1.21631 -3.71916 0
M  V30 5399 H 531.119 0.483576 -3.94648 0
M  V30 5400 N 532.116 1.54067 -0.331816 0
M  V30 5401 C 533.527 1.86059 0.15454 0
M  V30 5402 C 533.878 1.25331 1.50952 0
M  V30 5403 O 533.003 0.562441 2.08963 0
M  V30 5404 C 533.598 3.37581 0.287192 0
M  V30 5405 C 532.157 3.69493 0.717773 0
M  V30 5406 C 531.304 2.76863 -0.155569 0
M  V30 5407 H 534.255 1.48797 -0.55182 0
M  V30 5408 H 534.276 3.63744 1.11671 0
M  V30 5409 H 533.788 3.81751 -0.699131 0
M  V30 5410 H 531.889 3.3086 1.71354 0
M  V30 5411 H 532.002 4.76315 0.5158 0
M  V30 5412 H 530.366 2.51995 0.370213 0
M  V30 5413 H 531.149 3.23861 -1.13881 0
M  V30 5414 N 533.594 0.0601682 1.57485 0
M  V30 5415 C 534.84 -0.612501 1.93329 0
M  V30 5416 C 535.173 -1.6996 0.939526 0
M  V30 5417 O 534.448 -1.94472 -0.0330957 0
M  V30 5418 C 534.731 -1.20025 3.39508 0
M  V30 5419 C 534.584 -0.12059 4.49638 0
M  V30 5420 C 535.903 -2.10923 3.86264 0
M  V30 5421 H 533.022 -0.221185 0.703027 0
M  V30 5422 H 535.664 0.123768 1.89596 0
M  V30 5423 H 533.814 -1.82774 3.42821 0
M  V30 5424 H 535.486 0.51185 4.58452 0
M  V30 5425 H 533.729 0.550251 4.30296 0
M  V30 5426 H 534.4 -0.572019 5.49028 0
M  V30 5427 H 536.876 -1.58124 3.84884 0
M  V30 5428 H 535.752 -2.48987 4.8918 0
M  V30 5429 H 536.013 -3.01292 3.23536 0
M  V30 5430 N 535.072 -1.5615 -0.213296 0
M  V30 5431 C 536.019 -1.93086 -1.26437 0
M  V30 5432 C 536.989 -0.789086 -1.4616 0
M  V30 5433 O 538.174 -1.04569 -1.59593 0
M  V30 5434 C 535.314 -2.26003 -2.608 0
M  V30 5435 C 534.427 -3.53156 -2.48807 0
M  V30 5436 C 533.562 -3.7548 -3.7575 0
M  V30 5437 C 532.601 -4.96119 -3.58514 0
M  V30 5438 N 531.738 -5.14791 -4.77425 0
M  V30 5439 H 536.578 -2.82707 -0.942376 0
M  V30 5440 H 534.115 -1.39919 -0.454001 0
M  V30 5441 H 536.073 -2.431 -3.39055 0
M  V30 5442 H 534.703 -1.39546 -2.91079 0
M  V30 5443 H 533.755 -3.44207 -1.61944 0
M  V30 5444 H 535.067 -4.41565 -2.31996 0
M  V30 5445 H 534.221 -3.92718 -4.62447 0
M  V30 5446 H 532.96 -2.85368 -3.95495 0
M  V30 5447 H 531.965 -4.78823 -2.70201 0
M  V30 5448 H 533.19 -5.87724 -3.40231 0
M  V30 5449 H 531.136 -4.27623 -4.97468 0
M  V30 5450 H 531.053 -5.97347 -4.63371 0
M  V30 5451 H 532.321 -5.36471 -5.65525 0
M  V30 5452 N 536.55 0.480323 -1.50102 0
M  V30 5453 C 537.48 1.58769 -1.71215 0
M  V30 5454 C 538.461 1.60583 -0.560997 0
M  V30 5455 O 539.646 1.76996 -0.799127 0
M  V30 5456 C 536.776 2.97148 -1.79778 0
M  V30 5457 C 535.73 3.10201 -2.94888 0
M  V30 5458 C 535.056 4.50137 -2.88584 0
M  V30 5459 C 536.356 2.88283 -4.35534 0
M  V30 5460 H 538.05 1.41354 -2.6393 0
M  V30 5461 H 535.596 0.678591 -1.27008 0
M  V30 5462 H 537.549 3.74536 -1.93133 0
M  V30 5463 H 536.273 3.15699 -0.836772 0
M  V30 5464 H 534.932 2.35244 -2.81169 0
M  V30 5465 H 534.58 4.65593 -1.90349 0
M  V30 5466 H 534.28 4.59808 -3.65856 0
M  V30 5467 H 535.804 5.29558 -3.03976 0
M  V30 5468 H 537.218 3.55427 -4.49827 0
M  V30 5469 H 535.615 3.09408 -5.14186 0
M  V30 5470 H 536.685 1.84219 -4.48544 0
M  V30 5471 N 538.028 1.39524 0.732853 0
M  V30 5472 C 539.439 1.32905 1.31122 0
M  V30 5473 C 539.79 -0.00558708 1.96199 0
M  V30 5474 O 538.915 -0.907706 1.96443 0
M  V30 5475 C 539.51 2.40704 2.38426 0
M  V30 5476 C 538.069 2.37599 2.91931 0
M  V30 5477 C 537.216 2.2248 1.65523 0
M  V30 5478 H 540.167 1.49581 0.530207 0
M  V30 5479 H 540.188 2.07616 3.18867 0
M  V30 5480 H 539.7 3.37829 1.91033 0
M  V30 5481 H 537.801 1.44119 3.43599 0
M  V30 5482 H 537.914 3.32538 3.44899 0
M  V30 5483 H 536.278 1.69691 1.8994 0
M  V30 5484 H 537.061 3.21577 1.20178 0
M  V30 5485 N 539.506 -0.963266 1.24736 0
M  V30 5486 C 540.734 -1.74166 1.11686 0
M  V30 5487 C 541.149 -1.8589 -0.330187 0
M  V30 5488 O 540.506 -1.35042 -1.2276 0
M  V30 5489 C 540.557 -3.15989 1.75595 0
M  V30 5490 O 540.278 -3.04847 3.14642 0
M  V30 5491 C 541.779 -4.10145 1.68213 0
M  V30 5492 H 538.999 -0.546031 0.389989 0
M  V30 5493 H 541.543 -1.20907 1.64929 0
M  V30 5494 H 539.698 -3.66219 1.26343 0
M  V30 5495 H 540.112 -3.9425 3.4593 0
M  V30 5496 H 541.586 -5.07299 2.17604 0
M  V30 5497 H 542.063 -4.3445 0.644208 0
M  V30 5498 H 542.669 -3.65827 2.16912 0
M  V30 5499 N 540.985 -1.06182 -1.16461 0
M  V30 5500 C 542.213 -0.798583 -1.90867 0
M  V30 5501 C 542.628 0.646921 -1.77371 0
M  V30 5502 O 541.985 1.44279 -1.11758 0
M  V30 5503 C 542.036 -1.18258 -3.4161 0
M  V30 5504 O 541.757 -2.57135 -3.54701 0
M  V30 5505 C 543.258 -0.946917 -4.33069 0
M  V30 5506 H 540.478 -0.289603 -0.605286 0
M  V30 5507 H 543.022 -1.41515 -1.47627 0
M  V30 5508 H 541.177 -0.610562 -3.82558 0
M  V30 5509 H 541.591 -2.72477 -4.4817 0
M  V30 5510 H 543.065 -1.26523 -5.37304 0
M  V30 5511 H 543.542 0.117406 -4.39043 0
M  V30 5512 H 544.148 -1.50326 -3.97847 0
M  V30 5513 N 542.463 1.3308 -0.844243 0
M  V30 5514 C 543.426 2.27403 -0.286485 0
M  V30 5515 C 544.426 1.51179 0.547872 0
M  V30 5516 O 545.616 1.70421 0.360886 0
M  V30 5517 C 542.748 3.35653 0.595813 0
M  V30 5518 H 543.941 2.78248 -1.11885 0
M  V30 5519 H 541.494 1.43574 -0.617749 0
M  V30 5520 H 542.229 2.90058 1.4504 0
M  V30 5521 H 542.014 3.921 -0.00125994 0
M  V30 5522 H 543.504 4.05958 0.979168 0
M  V30 5523 N 543.941 0.601185 1.45683 0
M  V30 5524 C 544.904 -0.111398 2.28929 0
M  V30 5525 C 545.904 -0.801246 1.39416 0
M  V30 5526 O 547.094 -0.650383 1.61603 0
M  V30 5527 C 544.226 -1.16773 3.20276 0
M  V30 5528 H 545.419 0.620412 2.93413 0
M  V30 5529 H 542.972 0.359946 1.52099 0
M  V30 5530 H 543.707 -1.93051 2.60579 0
M  V30 5531 H 543.492 -0.677358 3.86205 0
M  V30 5532 H 544.982 -1.66698 3.82886 0
M  V30 5533 N 545.419 -1.53889 0.339982 0
M  V30 5534 C 546.644 -2.05741 -0.261798 0
M  V30 5535 C 547.069 -1.21354 -1.43718 0
M  V30 5536 O 546.427 -0.22645 -1.7988 0
M  V30 5537 C 546.475 -3.54542 -0.658228 0
M  V30 5538 O 545.579 -3.7302 -1.75869 0
M  V30 5539 H 544.92 -0.662529 -0.0441672 0
M  V30 5540 H 547.45 -1.98568 0.493161 0
M  V30 5541 H 547.46 -3.9711 -0.936368 0
M  V30 5542 H 546.135 -4.15412 0.201358 0
M  V30 5543 H 544.712 -3.42355 -1.47809 0
M  V30 5544 N 546.897 -0.0685191 -1.57451 0
M  V30 5545 C 548.125 0.610462 -1.97689 0
M  V30 5546 C 548.54 1.63346 -0.946758 0
M  V30 5547 O 547.897 1.82377 0.0669868 0
M  V30 5548 C 547.948 1.28196 -3.38006 0
M  V30 5549 O 547.669 0.299906 -4.37072 0
M  V30 5550 C 549.17 2.04907 -3.931 0
M  V30 5551 H 546.39 0.165689 -0.650222 0
M  V30 5552 H 548.934 -0.139953 -2.04021 0
M  V30 5553 H 547.089 1.98348 -3.32771 0
M  V30 5554 H 547.503 0.78126 -5.18649 0
M  V30 5555 H 548.977 2.47287 -4.93511 0
M  V30 5556 H 549.454 2.9043 -3.29465 0
M  V30 5557 H 550.06 1.39629 -4.01726 0
M  V30 5558 N 548.375 1.56261 0.205012 0
M  V30 5559 C 549.786 1.70056 0.770574 0
M  V30 5560 C 550.137 0.673398 1.84282 0
M  V30 5561 O 549.262 -0.172196 2.15714 0
M  V30 5562 C 549.857 3.08316 1.40451 0
M  V30 5563 C 548.416 3.2391 1.91727 0
M  V30 5564 C 547.563 2.66001 0.783516 0
M  V30 5565 H 550.514 1.58688 -0.019911 0
M  V30 5566 H 550.535 3.05094 2.27371 0
M  V30 5567 H 550.047 3.83053 0.623882 0
M  V30 5568 H 548.148 2.54072 2.7254 0
M  V30 5569 H 548.261 4.3131 2.08588 0
M  V30 5570 H 546.625 2.24915 1.19521 0
M  V30 5571 H 547.408 3.43297 0.0152883 0
M  V30 5572 N 549.853 -0.472356 1.50355 0
M  V30 5573 C 551.13 -1.23356 1.51798 0
M  V30 5574 C 551.51 -2.09469 0.26193 0
M  V30 5575 O 550.858 -2.15677 -0.754691 0
M  V30 5576 C 551.068 -2.06568 2.81302 0
M  V30 5577 C 552.416 -2.648 3.31913 0
M  V30 5578 O 553.44 -2.16812 2.82614 0
M  V30 5579 O 552.299 -3.52231 4.17846 0
M  V30 5580 H 549.393 -0.559707 0.608816 0
M  V30 5581 H 551.939 -0.48428 1.62643 0
M  V30 5582 H 550.711 -1.43103 3.64194 0
M  V30 5583 H 550.334 -2.88633 2.73454 0
M  V30 5584 N 551.331 -1.39911 -0.725443 0
M  V30 5585 C 552.294 -1.39156 -1.82121 0
M  V30 5586 C 553.294 -0.287018 -1.58218 0
M  V30 5587 O 554.484 -0.545421 -1.65441 0
M  V30 5588 C 551.616 -1.1736 -3.20062 0
M  V30 5589 H 552.809 -2.36672 -1.84191 0
M  V30 5590 H 550.362 -1.25615 -0.930079 0
M  V30 5591 H 551.097 -0.205648 -3.23647 0
M  V30 5592 H 550.882 -1.97358 -3.3881 0
M  V30 5593 H 552.372 -1.19596 -4.00108 0
M  V30 5594 N 552.809 0.956637 -1.25245 0
M  V30 5595 C 554.055 1.70352 -1.10036 0
M  V30 5596 C 554.388 1.90869 0.358156 0
M  V30 5597 O 553.663 1.47819 1.26411 0
M  V30 5598 C 553.946 3.08766 -1.85298 0
M  V30 5599 C 553.799 2.95672 -3.38966 0
M  V30 5600 C 555.118 4.08622 -1.63451 0
M  V30 5601 H 552.237 0.618279 -0.401123 0
M  V30 5602 H 554.879 1.11212 -1.54051 0
M  V30 5603 H 553.029 3.59252 -1.47887 0
M  V30 5604 H 554.701 2.52527 -3.86041 0
M  V30 5605 H 552.944 2.31634 -3.6678 0
M  V30 5606 H 553.615 3.93776 -3.86839 0
M  V30 5607 H 556.091 3.67038 -1.96015 0
M  V30 5608 H 554.967 5.03514 -2.18551 0
M  V30 5609 H 555.228 4.3834 -0.575357 0
M  V30 5610 N 554.287 1.06798 1.15896 0
M  V30 5611 C 555.564 0.701057 1.82605 0
M  V30 5612 C 555.944 -0.817066 1.94646 0
M  V30 5613 O 555.292 -1.72933 1.49353 0
M  V30 5614 C 555.502 1.40895 3.19296 0
M  V30 5615 C 556.85 1.55744 3.95005 0
M  V30 5616 O 557.874 1.36927 3.28831 0
M  V30 5617 O 556.733 1.86658 5.13635 0
M  V30 5618 H 553.827 0.248791 0.78869 0
M  V30 5619 H 556.373 1.16857 1.23055 0
M  V30 5620 H 555.145 2.4439 3.05596 0
M  V30 5621 H 554.768 0.931847 3.86526 0
M  V30 5622 N 555.766 -1.3263 0.851289 0
M  V30 5623 C 556.713 -2.28952 0.291469 0
M  V30 5624 C 557.683 -1.54897 -0.599676 0
M  V30 5625 O 558.868 -1.83137 -0.535305 0
M  V30 5626 C 556.008 -3.41206 -0.516992 0
M  V30 5627 C 555.121 -4.30148 0.399566 0
M  V30 5628 C 554.256 -5.29527 -0.4212 0
M  V30 5629 C 553.295 -6.10112 0.492969 0
M  V30 5630 N 552.432 -7.01499 -0.290414 0
M  V30 5631 H 557.272 -2.76228 1.11813 0
M  V30 5632 H 554.809 -1.35907 0.562826 0
M  V30 5633 H 556.767 -4.05005 -1.00132 0
M  V30 5634 H 555.397 -2.9509 -1.30851 0
M  V30 5635 H 554.449 -3.66959 1.00227 0
M  V30 5636 H 555.761 -4.8649 1.1013 0
M  V30 5637 H 554.915 -5.98914 -0.968832 0
M  V30 5638 H 553.654 -4.73794 -1.15632 0
M  V30 5639 H 552.659 -5.39632 1.05251 0
M  V30 5640 H 553.884 -6.6793 1.22664 0
M  V30 5641 H 551.83 -6.48199 -1.00868 0
M  V30 5642 H 551.747 -7.55178 0.352354 0
M  V30 5643 H 553.015 -7.75176 -0.819882 0
M  V30 5644 N 557.244 -0.608902 -1.45362 0
M  V30 5645 C 558.474 -0.110852 -2.06302 0
M  V30 5646 C 558.882 1.21062 -1.45398 0
M  V30 5647 O 558.225 1.74861 -0.562976 0
M  V30 5648 C 558.287 0.101793 -3.59356 0
M  V30 5649 C 557.951 -1.13808 -4.42602 0
M  V30 5650 C 558.948 -2.05653 -4.77496 0
M  V30 5651 C 556.633 -1.36727 -4.83333 0
M  V30 5652 C 558.627 -3.18745 -5.51978 0
M  V30 5653 C 556.314 -2.5012 -5.57569 0
M  V30 5654 C 557.312 -3.40957 -5.91809 0
M  V30 5655 O 557 -4.52376 -6.64538 0
M  V30 5656 H 556.732 -0.0666001 -0.672711 0
M  V30 5657 H 559.286 -0.836942 -1.87575 0
M  V30 5658 H 557.516 0.88279 -3.76489 0
M  V30 5659 H 559.205 0.551607 -4.02134 0
M  V30 5660 H 559.971 -1.89172 -4.46586 0
M  V30 5661 H 555.85 -0.669216 -4.56117 0
M  V30 5662 H 559.394 -3.8967 -5.78622 0
M  V30 5663 H 555.291 -2.66553 -5.87894 0
M  V30 5664 H 556.059 -4.51075 -6.82989 0
M  V30 5665 N 558.722 1.53707 -0.348139 0
M  V30 5666 C 559.652 2.28111 0.498766 0
M  V30 5667 C 560.633 1.29851 1.09876 0
M  V30 5668 O 561.818 1.587 1.11928 0
M  V30 5669 C 558.948 3.05735 1.64753 0
M  V30 5670 C 557.902 4.11537 1.17565 0
M  V30 5671 C 557.228 4.77142 2.4133 0
M  V30 5672 C 558.528 5.21587 0.272844 0
M  V30 5673 H 560.222 2.99152 -0.121934 0
M  V30 5674 H 557.768 1.43875 -0.0600842 0
M  V30 5675 H 559.721 3.56526 2.24649 0
M  V30 5676 H 558.445 2.32354 2.2952 0
M  V30 5677 H 557.104 3.61665 0.599483 0
M  V30 5678 H 556.752 4.0035 3.04514 0
M  V30 5679 H 556.452 5.48626 2.10436 0
M  V30 5680 H 557.976 5.30719 3.01943 0
M  V30 5681 H 559.39 5.67986 0.778779 0
M  V30 5682 H 557.787 6.00074 0.0555849 0
M  V30 5683 H 558.857 4.79969 -0.689785 0
M  V30 5684 N 560.2 0.0768682 1.57412 0
M  V30 5685 C 561.11 -0.903207 2.16516 0
M  V30 5686 C 562.126 -1.32341 1.12968 0
M  V30 5687 O 563.302 -1.39507 1.45258 0
M  V30 5688 C 560.367 -2.1508 2.71922 0
M  V30 5689 C 559.428 -1.78653 3.90361 0
M  V30 5690 C 558.661 -2.97465 4.43114 0
M  V30 5691 O 558.884 -4.11638 3.94854 0
M  V30 5692 O 557.818 -2.76987 5.3438 0
M  V30 5693 H 561.644 -0.430427 3.00634 0
M  V30 5694 H 559.229 -0.146485 1.4868 0
M  V30 5695 H 561.111 -2.8823 3.07411 0
M  V30 5696 H 559.786 -2.61446 1.9086 0
M  V30 5697 H 558.693 -1.0274 3.59716 0
M  V30 5698 H 560.026 -1.37066 4.7273 0
M  V30 5699 N 561.678 -1.56367 -0.196722 0
M  V30 5700 C 562.906 -1.84639 -0.933608 0
M  V30 5701 C 563.321 -0.659164 -1.76919 0
M  V30 5702 O 562.678 0.372142 -1.78665 0
M  V30 5703 C 562.729 -3.11694 -1.83109 0
M  V30 5704 O 562.45 -4.25838 -1.02924 0
M  V30 5705 C 563.951 -3.53132 -2.67979 0
M  V30 5706 H 561.171 -0.613188 -0.272473 0
M  V30 5707 H 563.715 -2.03475 -0.204465 0
M  V30 5708 H 561.87 -2.94759 -2.51387 0
M  V30 5709 H 562.284 -4.98178 -1.64069 0
M  V30 5710 H 563.758 -4.45005 -3.26611 0
M  V30 5711 H 564.235 -2.76045 -3.41608 0
M  V30 5712 H 564.841 -3.72592 -2.05074 0
M  V30 5713 N 563.156 0.464375 -1.50603 0
M  V30 5714 C 564.567 1.04507 -1.5471 0
M  V30 5715 C 564.918 1.9297 -0.354542 0
M  V30 5716 O 564.043 2.09763 0.531812 0
M  V30 5717 C 564.638 1.90207 -2.80369 0
M  V30 5718 C 563.197 2.43373 -2.87135 0
M  V30 5719 C 562.344 1.21886 -2.49076 0
M  V30 5720 H 565.295 0.246716 -1.56771 0
M  V30 5721 H 565.316 2.75353 -2.62604 0
M  V30 5722 H 564.828 1.25796 -3.67147 0
M  V30 5723 H 562.929 3.11318 -2.04724 0
M  V30 5724 H 563.042 2.7802 -3.90181 0
M  V30 5725 H 561.406 1.55575 -2.01664 0
M  V30 5726 H 562.189 0.591268 -3.3817 0
M  V30 5727 N 564.634 1.40294 0.718013 0
M  V30 5728 C 565.882 1.38167 1.47494 0
M  V30 5729 C 566.203 -0.01607 1.94993 0
M  V30 5730 O 565.473 -0.970396 1.70177 0
M  V30 5731 H 564.053 0.508505 0.547203 0
M  V30 5732 H 566.715 1.75324 0.851322 0
M  V30 5733 H 565.811 2.05503 2.34894 0
M  V30 5734 N 566.112 -0.949982 1.2575 0
M  V30 5735 C 567.389 -1.6718 1.01539 0
M  V30 5736 C 567.769 -2.06095 -0.456942 0
M  V30 5737 O 567.117 -1.77792 -1.43534 0
M  V30 5738 C 567.327 -2.8906 1.95564 0
M  V30 5739 C 568.675 -3.60909 2.23673 0
M  V30 5740 O 569.699 -2.9915 1.9336 0
M  V30 5741 O 568.558 -4.72127 2.75243 0
M  V30 5742 H 565.652 -0.731697 0.385419 0
M  V30 5743 H 568.198 -1.00249 1.36924 0
M  V30 5744 H 566.97 -2.57128 2.94959 0
M  V30 5745 H 566.593 -3.63719 1.60605 0
M  V30 5746 N 567.59 -1.07411 -1.15328 0
M  V30 5747 C 568.5 -0.706438 -2.23711 0
M  V30 5748 C 569.516 0.282586 -1.7169 0
M  V30 5749 O 570.692 0.129066 -2.00986 0
M  V30 5750 C 567.757 -0.11048 -3.46524 0
M  V30 5751 C 566.818 -1.15282 -4.13532 0
M  V30 5752 C 566.051 -0.585205 -5.30482 0
M  V30 5753 O 566.274 0.598549 -5.67251 0
M  V30 5754 O 565.208 -1.33039 -5.87013 0
M  V30 5755 H 569.034 -1.61031 -2.57493 0
M  V30 5756 H 566.619 -0.847113 -1.23062 0
M  V30 5757 H 568.501 0.21957 -4.20828 0
M  V30 5758 H 567.176 0.766703 -3.14489 0
M  V30 5759 H 566.083 -1.53523 -3.41147 0
M  V30 5760 H 567.416 -2.00192 -4.49649 0
M  V30 5761 N 569.068 1.32177 -0.85831 0
M  V30 5762 C 570.016 2.30729 -0.294442 0
M  V30 5763 C 571.01 1.59009 0.584165 0
M  V30 5764 O 572.216 1.73713 0.471562 0
M  V30 5765 H 568.591 0.748097 -0.0765171 0
M  V30 5766 H 570.562 2.75774 -1.1398 0
M  V30 5767 C 569.311 3.44098 0.499208 0
M  V30 5768 H 568.634 3.99449 -0.167579 0
M  V30 5769 H 570.074 4.15202 0.859273 0
M  V30 5770 C 568.533 2.91684 1.68588 0
M  V30 5771 O 569.063 2.89481 2.78503 0
M  V30 5772 N 567.269 2.48036 1.51415 0
M  V30 5773 H 566.816 2.50027 0.620006 0
M  V30 5774 H 566.774 2.13322 2.30957 0
M  V30 5775 N 570.547 0.616602 1.45037 0
M  V30 5776 C 571.457 -0.0985401 2.34393 0
M  V30 5777 C 572.473 -0.850971 1.51771 0
M  V30 5778 O 573.649 -0.806521 1.84546 0
M  V30 5779 C 570.714 -1.07748 3.29532 0
M  V30 5780 C 569.775 -0.326022 4.2806 0
M  V30 5781 C 569.008 -1.25833 5.18654 0
M  V30 5782 O 569.231 -2.49652 5.12864 0
M  V30 5783 O 568.165 -0.750512 5.97203 0
M  V30 5784 H 571.991 0.636016 2.96966 0
M  V30 5785 H 569.576 0.376832 1.44569 0
M  V30 5786 H 571.458 -1.64107 3.88133 0
M  V30 5787 H 570.133 -1.79291 2.69512 0
M  V30 5788 H 569.04 0.280253 3.73049 0
M  V30 5789 H 570.373 0.349091 4.9096 0
M  V30 5790 N 572.025 -1.5352 0.356285 0
M  V30 5791 C 572.975 -2.22204 -0.510815 0
M  V30 5792 C 573.959 -1.21393 -1.05605 0
M  V30 5793 O 575.151 -1.46883 -0.987639 0
M  V30 5794 C 572.28 -3.00786 -1.65478 0
M  V30 5795 C 571.366 -4.08965 -1.12287 0
M  V30 5796 N 571.757 -5.04829 -0.313191 0
M  V30 5797 C 570.055 -4.23505 -1.39856 0
M  V30 5798 C 570.756 -5.81695 -0.0230322 0
M  V30 5799 N 569.732 -5.40074 -0.618144 0
M  V30 5800 H 573.534 -2.93676 0.114711 0
M  V30 5801 H 571.048 -1.61572 0.163811 0
M  V30 5802 H 573.045 -3.48502 -2.28806 0
M  V30 5803 H 571.705 -2.30843 -2.28345 0
M  V30 5804 H 572.716 -5.17879 0.0468202 0
M  V30 5805 H 569.393 -3.64786 -2.0307 0
M  V30 5806 H 570.783 -6.68931 0.630927 0
M  V30 5807 N 573.503 -0.0852151 -1.57369 0
M  V30 5808 C 574.466 0.8627 -2.12344 0
M  V30 5809 C 575.466 1.21746 -1.05046 0
M  V30 5810 O 576.656 1.14852 -1.30976 0
M  V30 5811 C 573.788 2.1618 -2.63589 0
M  V30 5812 H 574.981 0.385511 -2.97412 0
M  V30 5813 H 572.534 0.163663 -1.55441 0
M  V30 5814 H 573.269 2.68406 -1.82013 0
M  V30 5815 H 573.054 1.91723 -3.4203 0
M  V30 5816 H 574.544 2.84011 -3.06149 0
M  V30 5817 N 574.981 1.5647 0.188427 0
M  V30 5818 C 575.931 1.91479 1.23774 0
M  V30 5819 C 576.915 0.78119 1.40664 0
M  V30 5820 O 578.107 1.04414 1.42922 0
M  V30 5821 C 575.236 2.26354 2.58106 0
M  V30 5822 C 574.322 3.46186 2.44981 0
M  V30 5823 N 574.713 4.63911 2.01546 0
M  V30 5824 C 573.011 3.50456 2.75856 0
M  V30 5825 C 573.712 5.46064 2.00472 0
M  V30 5826 N 572.688 4.86648 2.42229 0
M  V30 5827 H 576.49 2.79994 0.893339 0
M  V30 5828 H 574.004 1.57477 0.39682 0
M  V30 5829 H 576.001 2.49622 3.33908 0
M  V30 5830 H 574.661 1.39168 2.93364 0
M  V30 5831 H 575.672 4.88451 1.7215 0
M  V30 5832 H 572.349 2.73704 3.15265 0
M  V30 5833 H 573.739 6.50368 1.68734 0
M  V30 5834 N 576.459 -0.456382 1.50847 0
M  V30 5835 C 577.706 -1.20736 1.62571 0
M  V30 5836 C 578.034 -1.9163 0.332904 0
M  V30 5837 O 577.289 -1.8343 -0.682058 0
M  V30 5838 C 577.588 -2.26336 2.76599 0
M  V30 5839 C 577.254 -1.7259 4.16562 0
M  V30 5840 C 575.916 -1.57654 4.54641 0
M  V30 5841 C 578.268 -1.32877 5.03977 0
M  V30 5842 C 575.596 -1.0145 5.77862 0
M  V30 5843 C 577.948 -0.7811 6.27759 0
M  V30 5844 C 576.612 -0.618488 6.64628 0
M  V30 5845 H 575.882 -0.441803 0.594888 0
M  V30 5846 H 578.529 -0.501169 1.84826 0
M  V30 5847 H 576.834 -3.0292 2.48489 0
M  V30 5848 H 578.531 -2.84227 2.82871 0
M  V30 5849 H 575.121 -1.85187 3.86528 0
M  V30 5850 H 579.305 -1.43245 4.75179 0
M  V30 5851 H 574.561 -0.876109 6.0509 0
M  V30 5852 H 578.735 -0.464783 6.94847 0
M  V30 5853 H 576.362 -0.180838 7.59985 0
M  V30 5854 N 577.937 -1.40673 -0.710563 0
M  V30 5855 C 578.869 -1.37256 -1.83558 0
M  V30 5856 C 579.882 -0.277133 -1.60424 0
M  V30 5857 O 581.071 -0.537831 -1.70205 0
M  V30 5858 C 578.171 -1.1144 -3.20054 0
M  V30 5859 C 577.344 -2.32734 -3.70342 0
M  V30 5860 C 576.403 -2.03002 -4.85465 0
M  V30 5861 O 575.429 -2.75912 -4.97857 0
M  V30 5862 N 576.631 -1.01105 -5.71627 0
M  V30 5863 H 579.396 -2.34215 -1.86985 0
M  V30 5864 H 576.957 -1.35091 -0.892301 0
M  V30 5865 H 578.949 -0.895265 -3.94673 0
M  V30 5866 H 577.519 -0.231307 -3.11743 0
M  V30 5867 H 576.739 -2.70446 -2.86798 0
M  V30 5868 H 578.027 -3.13584 -4.00678 0
M  V30 5869 H 577.425 -0.407303 -5.64232 0
M  V30 5870 H 575.982 -0.85182 -6.4621 0
M  V30 5871 N 579.415 0.9433 -1.26252 0
M  V30 5872 C 580.362 2.0417 -1.07625 0
M  V30 5873 C 581.332 1.6609 0.0180738 0
M  V30 5874 O 582.517 1.90276 -0.141289 0
M  V30 5875 C 579.657 3.37653 -0.713043 0
M  V30 5876 C 578.77 3.88783 -1.8834 0
M  V30 5877 C 577.905 5.10642 -1.4635 0
M  V30 5878 C 576.944 5.54028 -2.60229 0
M  V30 5879 N 576.081 6.67092 -2.18936 0
M  V30 5880 H 580.921 2.19436 -2.01623 0
M  V30 5881 H 578.458 1.07519 -1.00389 0
M  V30 5882 H 580.416 4.14391 -0.483358 0
M  V30 5883 H 579.046 3.22241 0.18996 0
M  V30 5884 H 578.098 3.08464 -2.22608 0
M  V30 5885 H 579.41 4.16922 -2.73821 0
M  V30 5886 H 578.564 5.94832 -1.19414 0
M  V30 5887 H 577.303 4.84244 -0.579568 0
M  V30 5888 H 576.308 4.68396 -2.87898 0
M  V30 5889 H 577.533 5.82429 -3.49219 0
M  V30 5890 H 575.479 6.42381 -1.32974 0
M  V30 5891 H 575.396 6.94806 -2.97961 0
M  V30 5892 H 576.664 7.54662 -1.95206 0
M  V30 5893 N 580.893 1.08022 1.14757 0
M  V30 5894 C 581.856 0.71048 2.1791 0
M  V30 5895 C 582.856 -0.252731 1.58801 0
M  V30 5896 O 584.046 -0.0327915 1.74169 0
M  V30 5897 C 581.178 0.0483203 3.40866 0
M  V30 5898 H 582.371 1.62384 2.52134 0
M  V30 5899 H 579.924 0.877595 1.29337 0
M  V30 5900 H 580.659 -0.876959 3.12218 0
M  V30 5901 H 580.444 0.741189 3.85031 0
M  V30 5902 H 581.934 -0.195471 4.17142 0
M  V30 5903 N 582.371 -1.3172 0.865308 0
M  V30 5904 C 583.318 -2.2863 0.315736 0
M  V30 5905 C 584.288 -1.55524 -0.583213 0
M  V30 5906 O 585.473 -1.83694 -0.51585 0
M  V30 5907 C 582.613 -3.41735 -0.480773 0
M  V30 5908 C 581.726 -4.297 0.445167 0
M  V30 5909 C 580.861 -5.29944 -0.365012 0
M  V30 5910 C 579.9 -6.09554 0.557651 0
M  V30 5911 N 579.037 -7.01768 -0.215994 0
M  V30 5912 H 583.877 -2.75026 1.14736 0
M  V30 5913 H 581.414 -1.35302 0.577209 0
M  V30 5914 H 583.372 -4.06045 -0.958306 0
M  V30 5915 H 582.002 -2.96461 -1.27714 0
M  V30 5916 H 581.054 -3.65875 1.04113 0
M  V30 5917 H 582.366 -4.85295 1.15284 0
M  V30 5918 H 581.52 -5.99908 -0.905255 0
M  V30 5919 H 580.259 -4.74994 -1.106 0
M  V30 5920 H 579.264 -5.38485 1.10969 0
M  V30 5921 H 580.489 -6.66591 1.29742 0
M  V30 5922 H 578.435 -6.49232 -0.939878 0
M  V30 5923 H 578.352 -7.54762 0.432431 0
M  V30 5924 H 579.62 -7.76002 -0.737618 0
M  V30 5925 N 583.85 -0.624285 -1.44708 0
M  V30 5926 C 584.76 0.0861083 -2.34442 0
M  V30 5927 C 585.776 0.84291 -1.5222 0
M  V30 5928 O 586.952 0.796723 -1.84971 0
M  V30 5929 C 584.017 1.05999 -3.30099 0
M  V30 5930 C 583.077 0.303316 -4.28227 0
M  V30 5931 C 582.311 1.23081 -5.19314 0
M  V30 5932 O 582.534 2.46929 -5.14181 0
M  V30 5933 O 581.468 0.71883 -5.97592 0
M  V30 5934 H 585.293 -0.651756 -2.96624 0
M  V30 5935 H 582.879 -0.384493 -1.44368 0
M  V30 5936 H 584.76 1.62046 -3.88997 0
M  V30 5937 H 583.436 1.77859 -2.70459 0
M  V30 5938 H 582.343 -0.300033 -3.72895 0
M  V30 5939 H 583.676 -0.375123 -4.90768 0
M  V30 5940 N 585.328 1.53329 -0.364422 0
M  V30 5941 C 586.744 1.59594 -0.0133165 0
M  V30 5942 C 586.944 1.37959 1.46865 0
M  V30 5943 O 586 1.18418 2.2301 0
M  V30 5944 C 587.313 2.97032 -0.468213 0
M  V30 5945 C 588.861 3.10138 -0.422334 0
M  V30 5946 C 589.336 4.49986 -0.853024 0
M  V30 5947 N 590.827 4.56098 -0.808037 0
M  V30 5948 C 591.562 5.62495 -1.11299 0
M  V30 5949 N 591.058 6.7665 -1.48717 0
M  V30 5950 N 592.851 5.52473 -1.03586 0
M  V30 5951 H 585.002 1.65644 -1.32951 0
M  V30 5952 H 587.265 0.77684 -0.543345 0
M  V30 5953 H 586.971 3.18 -1.5023 0
M  V30 5954 H 586.845 3.76918 0.145775 0
M  V30 5955 H 589.232 2.88881 0.602622 0
M  V30 5956 H 589.313 2.32263 -1.0718 0
M  V30 5957 H 588.957 4.7198 -1.87609 0
M  V30 5958 H 588.887 5.26289 -0.180819 0
M  V30 5959 H 591.378 3.74131 -0.532361 0
M  V30 5960 H 591.691 7.53776 -1.70415 0
M  V30 5961 H 590.036 6.78044 -1.52581 0
M  V30 5962 H 593.227 4.6217 -0.742736 0
M  V30 5963 H 593.4 6.35295 -1.27686 0
M  V30 5964 N 586.806 0.0935595 1.57322 0
M  V30 5965 C 587.736 -0.863062 2.16964 0
M  V30 5966 C 588.717 -1.29528 1.10256 0
M  V30 5967 O 589.902 -1.36245 1.38387 0
M  V30 5968 C 587.032 -2.12276 2.74875 0
M  V30 5969 C 585.986 -1.82921 3.86942 0
M  V30 5970 C 585.312 -3.15707 4.31548 0
M  V30 5971 C 586.612 -1.11737 5.10208 0
M  V30 5972 H 588.306 -0.366145 2.97153 0
M  V30 5973 H 585.852 -0.174673 1.42937 0
M  V30 5974 H 587.805 -2.79634 3.1525 0
M  V30 5975 H 586.529 -2.64248 1.91938 0
M  V30 5976 H 585.188 -1.17961 3.47103 0
M  V30 5977 H 584.836 -3.65563 3.45504 0
M  V30 5978 H 584.536 -2.96849 5.07104 0
M  V30 5979 H 586.06 -3.84226 4.74555 0
M  V30 5980 H 587.474 -1.69203 5.47762 0
M  V30 5981 H 585.871 -1.03064 5.91183 0
M  V30 5982 H 586.941 -0.0998818 4.84797 0
M  V30 5983 N 588.284 -1.56567 -0.180126 0
M  V30 5984 C 589.194 -1.98947 -1.24327 0
M  V30 5985 C 590.21 -0.899446 -1.4895 0
M  V30 5986 O 591.386 -1.20639 -1.61271 0
M  V30 5987 C 588.451 -2.33328 -2.56435 0
M  V30 5988 C 587.512 -3.56114 -2.39752 0
M  V30 5989 C 586.745 -3.88845 -3.65561 0
M  V30 5990 O 586.968 -3.22662 -4.70368 0
M  V30 5991 O 585.902 -4.82226 -3.60197 0
M  V30 5992 H 589.728 -2.89634 -0.913565 0
M  V30 5993 H 587.313 -1.44319 -0.386306 0
M  V30 5994 H 589.195 -2.5645 -3.34382 0
M  V30 5995 H 587.87 -1.45806 -2.89002 0
M  V30 5996 H 586.777 -3.38221 -1.59866 0
M  V30 5997 H 588.11 -4.4415 -2.12113 0
M  V30 5998 N 589.762 0.448376 -1.51087 0
M  V30 5999 C 590.725 1.52588 -1.71025 0
M  V30 6000 C 591.725 1.49958 -0.580442 0
M  V30 6001 O 592.915 1.52176 -0.847833 0
M  V30 6002 C 590.047 2.92163 -1.75652 0
M  V30 6003 H 591.24 1.36218 -2.67179 0
M  V30 6004 H 588.793 0.676313 -1.4091 0
M  V30 6005 H 589.528 3.13951 -0.812724 0
M  V30 6006 H 589.313 2.95478 -2.57751 0
M  V30 6007 H 590.803 3.70349 -1.92953 0
M  V30 6008 N 591.24 1.41047 0.703093 0
M  V30 6009 C 592.187 1.42302 1.81711 0
M  V30 6010 C 593.157 0.278336 1.63751 0
M  V30 6011 O 594.342 0.478266 1.84709 0
M  V30 6012 C 591.482 1.30362 3.19531 0
M  V30 6013 C 590.595 2.54638 3.48975 0
M  V30 6014 C 589.73 2.35047 4.76368 0
M  V30 6015 C 588.769 3.54837 4.98756 0
M  V30 6016 N 587.906 3.34363 6.1737 0
M  V30 6017 H 592.746 2.37516 1.79973 0
M  V30 6018 H 590.283 1.1795 0.878983 0
M  V30 6019 H 592.241 1.21443 3.99134 0
M  V30 6020 H 590.871 0.387602 3.20464 0
M  V30 6021 H 589.923 2.74037 2.63833 0
M  V30 6022 H 591.235 3.43766 3.61423 0
M  V30 6023 H 590.389 2.23552 5.64012 0
M  V30 6024 H 589.128 1.43363 4.66153 0
M  V30 6025 H 588.133 3.66795 4.09563 0
M  V30 6026 H 589.358 4.47464 5.10835 0
M  V30 6027 H 587.304 2.45373 6.08382 0
M  V30 6028 H 587.221 4.17063 6.30551 0
M  V30 6029 H 588.489 3.26626 7.07768 0
M  V30 6030 N 592.718 -0.936591 1.26751 0
M  V30 6031 C 593.668 -2.0219 1.05371 0
M  V30 6032 C 594.652 -1.60893 -0.0154112 0
M  V30 6033 O 595.844 -1.75843 0.202085 0
M  V30 6034 C 592.973 -3.36222 0.693541 0
M  V30 6035 C 592.059 -3.8399 1.80035 0
M  V30 6036 N 592.45 -4.0436 3.03852 0
M  V30 6037 C 590.748 -4.12945 1.685 0
M  V30 6038 C 591.449 -4.44 3.75818 0
M  V30 6039 N 590.425 -4.50966 3.03531 0
M  V30 6040 H 594.227 -2.15958 1.99347 0
M  V30 6041 H 591.741 -1.12277 1.17335 0
M  V30 6042 H 593.738 -4.13625 0.521513 0
M  V30 6043 H 592.398 -3.23821 -0.238693 0
M  V30 6044 H 593.409 -3.9092 3.39709 0
M  V30 6045 H 590.086 -4.09308 0.822986 0
M  V30 6046 H 591.476 -4.67914 4.82189 0
M  V30 6047 N 594.196 -1.08629 -1.14182 0
M  V30 6048 C 595.612 -0.814363 -1.3726 0
M  V30 6049 C 595.812 0.575271 -1.93114 0
M  V30 6050 O 594.868 1.33165 -2.1453 0
M  V30 6051 C 596.181 -1.8989 -2.33157 0
M  V30 6052 C 597.729 -1.92518 -2.46791 0
M  V30 6053 C 598.204 -3.00092 -3.45989 0
M  V30 6054 N 599.695 -2.99279 -3.53534 0
M  V30 6055 C 600.43 -3.79158 -4.30147 0
M  V30 6056 N 599.926 -4.68923 -5.09983 0
M  V30 6057 N 601.719 -3.67451 -4.25366 0
M  V30 6058 H 593.87 -1.98232 -0.762758 0
M  V30 6059 H 596.133 -0.860383 -0.398051 0
M  V30 6060 H 595.839 -2.89809 -1.99257 0
M  V30 6061 H 595.713 -1.77013 -3.33086 0
M  V30 6062 H 598.1 -0.932425 -2.79982 0
M  V30 6063 H 598.181 -2.09473 -1.46816 0
M  V30 6064 H 597.825 -3.99575 -3.13532 0
M  V30 6065 H 597.755 -2.80382 -4.45751 0
M  V30 6066 H 600.246 -2.3422 -2.96563 0
M  V30 6067 H 600.559 -5.26475 -5.65724 0
M  V30 6068 H 598.904 -4.72964 -5.09244 0
M  V30 6069 H 602.095 -2.9669 -3.62067 0
M  V30 6070 H 602.268 -4.29944 -4.84822 0
M  V30 6071 N 595.674 1.31259 -0.872281 0
M  V30 6072 C 596.584 2.32221 -0.333255 0
M  V30 6073 C 597.6 1.6481 0.558013 0
M  V30 6074 O 598.776 1.96212 0.454175 0
M  V30 6075 C 595.841 3.43708 0.454479 0
M  V30 6076 C 594.902 4.26774 -0.465024 0
M  V30 6077 C 594.135 5.32937 0.28521 0
M  V30 6078 O 594.358 5.49968 1.513 0
M  V30 6079 O 593.292 6.00834 -0.358126 0
M  V30 6080 H 597.118 2.80252 -1.17016 0
M  V30 6081 H 594.703 1.352 -0.635724 0
M  V30 6082 H 596.585 4.11656 0.900963 0
M  V30 6083 H 595.26 2.97836 1.26789 0
M  V30 6084 H 594.167 3.61571 -0.960055 0
M  V30 6085 H 595.5 4.76217 -1.2441 0
M  V30 6086 N 597.152 0.631951 1.44375 0
M  V30 6087 C 598.568 0.297642 1.568 0
M  V30 6088 C 598.768 -1.19916 1.61934 0
M  V30 6089 O 597.824 -1.98324 1.56281 0
M  V30 6090 C 599.137 0.990286 2.83926 0
M  V30 6091 C 600.685 0.968507 2.97639 0
M  V30 6092 C 601.16 1.64163 4.27568 0
M  V30 6093 N 602.651 1.60826 4.34384 0
M  V30 6094 C 603.386 2.09802 5.33639 0
M  V30 6095 N 602.882 2.66973 6.39294 0
M  V30 6096 N 604.675 2.00426 5.25153 0
M  V30 6097 H 596.826 1.60353 1.39286 0
M  V30 6098 H 599.089 0.673142 0.667521 0
M  V30 6099 H 598.795 2.04519 2.8612 0
M  V30 6100 H 598.669 0.528563 3.73478 0
M  V30 6101 H 601.056 -0.0779247 2.94997 0
M  V30 6102 H 601.137 1.46873 2.09433 0
M  V30 6103 H 600.781 2.68752 4.3097 0
M  V30 6104 H 600.711 1.11624 5.14634 0
M  V30 6105 H 603.202 1.19087 3.58646 0
M  V30 6106 H 603.515 3.02074 7.11316 0
M  V30 6107 H 601.86 2.71024 6.39977 0
M  V30 6108 H 605.051 1.55483 4.41523 0
M  V30 6109 H 605.224 2.38906 6.02352 0
M  V30 6110 N 598.631 -1.53133 0.372548 0
M  V30 6111 C 599.564 -2.22328 -0.514361 0
M  V30 6112 C 600.542 -1.21776 -1.07747 0
M  V30 6113 O 601.726 -1.50704 -1.13228 0
M  V30 6114 C 598.853 -2.92343 -1.71035 0
M  V30 6115 C 597.899 -4.07026 -1.27405 0
M  V30 6116 S 598.732 -5.34821 -0.269526 0
M  V30 6117 C 599.888 -6.08352 -1.47168 0
M  V30 6118 H 600.121 -2.9721 0.0732683 0
M  V30 6119 H 597.654 -1.53603 0.156673 0
M  V30 6120 H 599.612 -3.33296 -2.39634 0
M  V30 6121 H 598.273 -2.17173 -2.26925 0
M  V30 6122 H 597.466 -4.55056 -2.16656 0
M  V30 6123 H 597.068 -3.68001 -0.66719 0
M  V30 6124 H 599.36 -6.33507 -2.40157 0
M  V30 6125 H 600.303 -7.0053 -1.03263 0
M  V30 6126 H 600.711 -5.38893 -1.6809 0
M  V30 6127 N 600.109 -0.101901 -1.5727 0
M  V30 6128 C 601.334 0.571759 -1.99363 0
M  V30 6129 C 601.759 1.60507 -0.980768 0
M  V30 6130 O 601.117 1.81231 0.0498517 0
M  V30 6131 C 601.165 1.18996 -3.404 0
M  V30 6132 O 600.269 2.30572 -3.41922 0
M  V30 6133 H 599.61 0.144449 -0.648098 0
M  V30 6134 H 602.14 -0.185325 -2.03759 0
M  V30 6135 H 602.15 1.52962 -3.78241 0
M  V30 6136 H 600.825 0.432984 -4.1364 0
M  V30 6137 H 599.402 1.98173 -3.15883 0
M  V30 6138 N 601.587 1.56661 0.17182 0
M  V30 6139 C 602.519 1.92934 1.2373 0
M  V30 6140 C 603.532 0.822385 1.40502 0
M  V30 6141 O 604.721 1.10083 1.40514 0
M  V30 6142 C 601.821 2.16651 2.60607 0
M  V30 6143 C 600.994 3.47878 2.6514 0
M  V30 6144 C 600.053 3.60429 3.83377 0
M  V30 6145 O 599.079 4.33051 3.69398 0
M  V30 6146 N 600.281 2.95241 4.99813 0
M  V30 6147 H 603.046 2.84931 0.929205 0
M  V30 6148 H 600.607 1.5781 0.361588 0
M  V30 6149 H 602.599 2.22312 3.38171 0
M  V30 6150 H 601.169 1.3104 2.83809 0
M  V30 6151 H 600.389 3.53879 1.73675 0
M  V30 6152 H 601.677 4.34232 2.6518 0
M  V30 6153 H 601.075 2.3611 5.14071 0
M  V30 6154 H 599.632 3.06499 5.75241 0
M  V30 6155 N 603.065 -0.440357 1.51323 0
M  V30 6156 C 604.311 -1.19181 1.64085 0
M  V30 6157 C 604.644 -1.90936 0.354575 0
M  V30 6158 O 603.919 -1.8347 -0.645675 0
M  V30 6159 C 604.202 -2.2112 2.84215 0
M  V30 6160 C 604.055 -1.53468 4.22809 0
M  V30 6161 C 605.374 -3.22133 2.99864 0
M  V30 6162 H 602.493 -0.431924 0.597169 0
M  V30 6163 H 605.135 -0.481443 1.83799 0
M  V30 6164 H 603.285 -2.81703 2.67537 0
M  V30 6165 H 604.957 -0.962455 4.51148 0
M  V30 6166 H 603.2 -0.837086 4.25647 0
M  V30 6167 H 603.871 -2.27694 5.02852 0
M  V30 6168 H 606.347 -2.71601 3.15233 0
M  V30 6169 H 605.223 -3.90756 3.85488 0
M  V30 6170 H 605.484 -3.88061 2.11804 0
M  V30 6171 N 604.543 -1.41418 -0.695603 0
M  V30 6172 C 605.476 -1.3768 -1.81988 0
M  V30 6173 C 606.454 -0.244061 -1.60758 0
M  V30 6174 O 607.638 -0.430965 -1.83507 0
M  V30 6175 C 604.765 -1.1476 -3.18666 0
M  V30 6176 C 603.811 -2.30752 -3.58686 0
M  V30 6177 S 604.644 -3.9323 -3.63498 0
M  V30 6178 C 605.8 -3.72613 -5.02902 0
M  V30 6179 H 606.033 -2.32822 -1.84882 0
M  V30 6180 H 603.566 -1.27942 -0.86431 0
M  V30 6181 H 605.524 -1.02223 -3.97569 0
M  V30 6182 H 604.185 -0.212385 -3.13381 0
M  V30 6183 H 603.378 -2.10409 -4.57978 0
M  V30 6184 H 602.98 -2.39696 -2.87092 0
M  V30 6185 H 605.272 -3.32317 -5.904 0
M  V30 6186 H 606.215 -4.71507 -5.28286 0
M  V30 6187 H 606.623 -3.0589 -4.74438 0
M  V30 6188 N 606.021 0.929856 -1.27246 0
M  V30 6189 C 607.437 1.20542 -1.04603 0
M  V30 6190 C 607.637 2.00276 0.221754 0
M  V30 6191 O 606.693 2.34835 0.927833 0
M  V30 6192 C 608.006 1.95566 -2.28417 0
M  V30 6193 C 609.554 2.08513 -2.33433 0
M  V30 6194 C 610.029 2.86943 -3.5697 0
M  V30 6195 N 611.52 2.94512 -3.57515 0
M  V30 6196 C 612.255 3.55656 -4.49774 0
M  V30 6197 N 611.751 4.18209 -5.52334 0
M  V30 6198 N 613.544 3.53038 -4.37402 0
M  V30 6199 H 605.695 0.397113 -2.08655 0
M  V30 6200 H 607.958 0.238277 -0.917566 0
M  V30 6201 H 607.664 1.44395 -3.20691 0
M  V30 6202 H 607.538 2.9619 -2.33563 0
M  V30 6203 H 609.925 2.58872 -1.41666 0
M  V30 6204 H 610.006 1.07117 -2.32292 0
M  V30 6205 H 609.65 2.37268 -4.49072 0
M  V30 6206 H 609.58 3.8862 -3.55362 0
M  V30 6207 H 612.071 2.50053 -2.83341 0
M  V30 6208 H 612.384 4.62796 -6.18902 0
M  V30 6209 H 610.729 4.16761 -5.56179 0
M  V30 6210 H 613.92 3.0337 -3.56489 0
M  V30 6211 H 614.093 4.004 -5.09493 0
M  V30 6212 N 607.499 1.09233 1.13605 0
M  V30 6213 C 608.409 0.741939 2.22559 0
M  V30 6214 C 609.425 -0.255236 1.72118 0
M  V30 6215 O 610.601 -0.0970747 2.01166 0
M  V30 6216 C 607.666 0.165595 3.46304 0
M  V30 6217 C 606.727 1.21846 4.11645 0
M  V30 6218 C 605.96 0.669526 5.29484 0
M  V30 6219 O 606.183 -0.508228 5.68131 0
M  V30 6220 O 605.117 1.42361 5.84822 0
M  V30 6221 H 608.943 1.65107 2.54899 0
M  V30 6222 H 606.528 0.866584 1.21699 0
M  V30 6223 H 608.41 -0.152592 4.21124 0
M  V30 6224 H 607.085 -0.716573 3.15669 0
M  V30 6225 H 605.992 1.58931 3.38662 0
M  V30 6226 H 607.325 2.07321 4.46407 0
M  V30 6227 N 608.977 -1.30795 0.87923 0
M  V30 6228 C 610.223 -1.97035 0.50487 0
M  V30 6229 C 610.578 -1.68182 -0.934484 0
M  V30 6230 O 609.871 -0.972953 -1.65058 0
M  V30 6231 C 610.065 -3.50287 0.709476 0
M  V30 6232 C 609.894 -3.94035 2.16717 0
M  V30 6233 C 608.664 -4.1992 2.81061 0
M  V30 6234 C 610.862 -4.07288 3.1404 0
M  V30 6235 N 608.844 -4.50088 4.17486 0
M  V30 6236 C 610.215 -4.41273 4.35521 0
M  V30 6237 C 612.27 -3.89696 3.09906 0
M  V30 6238 C 610.973 -4.59501 5.534 0
M  V30 6239 C 612.999 -4.09122 4.27052 0
M  V30 6240 C 612.361 -4.43447 5.47297 0
M  V30 6241 H 608.46 -0.746181 0.233962 0
M  V30 6242 H 611.044 -1.5814 1.13577 0
M  V30 6243 H 609.215 -3.8825 0.108108 0
M  V30 6244 H 610.947 -4.03567 0.302585 0
M  V30 6245 H 607.702 -4.12906 2.3196 0
M  V30 6246 H 608.126 -4.69316 4.87926 0
M  V30 6247 H 612.768 -3.62239 2.18043 0
M  V30 6248 H 610.486 -4.85802 6.45773 0
M  V30 6249 H 614.072 -3.96985 4.25316 0
M  V30 6250 H 612.952 -4.58171 6.36435 0
M  V30 6251 N 610.455 -0.639598 -1.44038 0
M  V30 6252 C 611.365 0.0612377 -2.3452 0
M  V30 6253 C 612.381 0.826717 -1.53106 0
M  V30 6254 O 613.557 0.777059 -1.85806 0
M  V30 6255 C 610.622 1.02492 -3.31204 0
M  V30 6256 C 609.683 0.25788 -4.28525 0
M  V30 6257 C 608.916 1.17566 -5.2059 0
M  V30 6258 O 609.139 2.41461 -5.16771 0
M  V30 6259 O 608.073 0.655407 -5.98321 0
M  V30 6260 H 611.899 -0.68318 -2.95916 0
M  V30 6261 H 609.484 -0.399784 -1.43952 0
M  V30 6262 H 611.366 1.57911 -3.90694 0
M  V30 6263 H 610.041 1.7498 -2.7233 0
M  V30 6264 H 608.948 -0.339566 -3.72556 0
M  V30 6265 H 610.281 -0.427154 -4.90343 0
M  V30 6266 N 611.933 1.52934 -0.380664 0
M  V30 6267 C 612.843 2.29921 0.466192 0
M  V30 6268 C 613.859 1.36488 1.07922 0
M  V30 6269 O 615.035 1.69553 1.0869 0
M  V30 6270 C 612.1 3.08468 1.58266 0
M  V30 6271 C 611.161 4.17595 0.995627 0
M  V30 6272 C 610.394 4.92387 2.05889 0
M  V30 6273 O 610.617 4.67184 3.27254 0
M  V30 6274 O 609.551 5.77949 1.68102 0
M  V30 6275 H 613.377 3.03274 -0.160735 0
M  V30 6276 H 610.962 1.48698 -0.144617 0
M  V30 6277 H 612.844 3.57469 2.23145 0
M  V30 6278 H 611.519 2.37937 2.19471 0
M  V30 6279 H 610.426 3.72811 0.310332 0
M  V30 6280 H 611.759 4.90336 0.427918 0
M  V30 6281 N 613.412 0.11024 1.57214 0
M  V30 6282 C 614.375 -0.828808 2.1369 0
M  V30 6283 C 615.375 -1.20059 1.06969 0
M  V30 6284 O 616.565 -1.12754 1.32786 0
M  V30 6285 C 613.697 -2.11959 2.66994 0
M  V30 6286 H 614.89 -0.338146 2.97988 0
M  V30 6287 H 612.443 -0.138913 1.55681 0
M  V30 6288 H 613.178 -2.65476 1.8626 0
M  V30 6289 H 612.963 -1.86258 3.45037 0
M  V30 6290 H 614.453 -2.79105 3.10629 0
M  V30 6291 N 614.89 -1.56749 -0.16351 0
M  V30 6292 C 615.8 -2.00255 -1.2221 0
M  V30 6293 C 616.816 -0.915194 -1.47987 0
M  V30 6294 O 617.992 -1.22342 -1.59982 0
M  V30 6295 C 615.057 -2.36035 -2.53946 0
M  V30 6296 C 614.118 -3.58637 -2.35962 0
M  V30 6297 C 613.351 -3.92701 -3.61416 0
M  V30 6298 O 613.574 -3.27632 -4.66919 0
M  V30 6299 O 612.508 -4.86019 -3.55062 0
M  V30 6300 H 616.334 -2.90586 -0.882794 0
M  V30 6301 H 613.919 -1.44721 -0.370978 0
M  V30 6302 H 615.801 -2.59982 -3.31643 0
M  V30 6303 H 614.476 -1.48863 -2.8744 0
M  V30 6304 H 613.383 -3.39898 -1.5627 0
M  V30 6305 H 614.716 -4.46374 -2.0739 0
M  V30 6306 N 616.368 0.432326 -1.51554 0
M  V30 6307 C 617.784 0.769195 -1.39841 0
M  V30 6308 C 617.984 1.95584 -0.484675 0
M  V30 6309 O 617.04 2.52433 0.0582829 0
M  V30 6310 C 618.353 1.04487 -2.81963 0
M  V30 6311 C 619.901 1.149 -2.91148 0
M  V30 6312 C 620.376 1.45758 -4.34187 0
M  V30 6313 N 621.867 1.52671 -4.37317 0
M  V30 6314 C 622.602 1.78129 -5.4503 0
M  V30 6315 N 622.098 2.01345 -6.62897 0
M  V30 6316 N 623.891 1.79953 -5.32516 0
M  V30 6317 H 616.042 -0.349122 -2.09511 0
M  V30 6318 H 618.305 -0.0938113 -0.943347 0
M  V30 6319 H 618.011 0.24557 -3.50842 0
M  V30 6320 H 617.885 1.97119 -3.21596 0
M  V30 6321 H 620.272 1.93891 -2.22464 0
M  V30 6322 H 620.353 0.201568 -2.55005 0
M  V30 6323 H 619.997 0.672917 -5.03423 0
M  V30 6324 H 619.927 2.41715 -4.67848 0
M  V30 6325 H 622.418 1.36612 -3.52343 0
M  V30 6326 H 622.731 2.20155 -7.40778 0
M  V30 6327 H 621.076 1.98657 -6.66003 0
M  V30 6328 H 624.267 1.61337 -4.39418 0
M  V30 6329 H 624.44 1.99455 -6.1654 0
M  V30 6330 N 617.846 1.41785 0.688094 0
M  V30 6331 C 618.778 1.40159 1.81351 0
M  V30 6332 C 619.791 0.30262 1.59963 0
M  V30 6333 O 620.98 0.564841 1.69327 0
M  V30 6334 C 618.08 1.16517 3.1824 0
M  V30 6335 C 617.253 2.38597 3.66593 0
M  V30 6336 C 616.312 2.10699 4.82174 0
M  V30 6337 O 615.338 2.83798 4.93404 0
M  V30 6338 N 616.54 1.10187 5.69947 0
M  V30 6339 H 619.305 2.3716 1.83236 0
M  V30 6340 H 616.866 1.36494 0.870697 0
M  V30 6341 H 618.858 0.957941 3.93199 0
M  V30 6342 H 617.428 0.280873 3.11336 0
M  V30 6343 H 616.648 2.74974 2.82459 0
M  V30 6344 H 617.936 3.19919 3.95638 0
M  V30 6345 H 617.334 0.497016 5.63512 0
M  V30 6346 H 615.891 0.954518 6.44773 0
M  V30 6347 N 619.324 -0.923095 1.27737 0
M  V30 6348 C 620.287 -2.00587 1.10894 0
M  V30 6349 C 621.287 -1.60718 0.0514927 0
M  V30 6350 O 622.477 -1.71658 0.296481 0
M  V30 6351 C 619.609 -3.33829 0.690717 0
M  V30 6352 H 620.802 -2.16959 2.07048 0
M  V30 6353 H 618.355 -1.10451 1.1059 0
M  V30 6354 H 619.09 -3.23157 -0.272 0
M  V30 6355 H 618.875 -3.64125 1.45448 0
M  V30 6356 H 620.365 -4.13336 0.595252 0
M  V30 6357 N 620.802 -1.09834 -1.13024 0
M  V30 6358 C 621.749 -0.741522 -2.18564 0
M  V30 6359 C 622.719 0.279236 -1.63736 0
M  V30 6360 O 623.904 0.159923 -1.90129 0
M  V30 6361 C 621.044 -0.17277 -3.44667 0
M  V30 6362 C 620.157 -1.24808 -4.13578 0
M  V30 6363 C 619.292 -0.641631 -5.27311 0
M  V30 6364 C 618.331 -1.69795 -5.88078 0
M  V30 6365 N 617.468 -1.11223 -6.93234 0
M  V30 6366 H 622.308 -1.64576 -2.48432 0
M  V30 6367 H 619.845 -0.822174 -1.21978 0
M  V30 6368 H 621.803 0.17482 -4.16834 0
M  V30 6369 H 620.433 0.694725 -3.15235 0
M  V30 6370 H 619.485 -1.71288 -3.39653 0
M  V30 6371 H 620.797 -2.04795 -4.54819 0
M  V30 6372 H 619.951 -0.243128 -6.06213 0
M  V30 6373 H 618.69 0.189742 -4.87331 0
M  V30 6374 H 617.695 -2.10595 -5.07868 0
M  V30 6375 H 618.92 -2.53206 -6.3013 0
M  V30 6376 H 616.866 -0.302208 -6.55304 0
M  V30 6377 H 616.783 -1.84901 -7.3304 0
M  V30 6378 H 618.051 -0.740068 -7.75979 0
M  V30 6379 N 622.28 1.30327 -0.886154 0
M  V30 6380 C 623.228 2.30052 -0.343317 0
M  V30 6381 C 624.222 1.60212 0.550305 0
M  V30 6382 O 625.428 1.74674 0.434609 0
M  V30 6383 H 621.803 0.746306 -0.0923681 0
M  V30 6384 H 623.774 2.73294 -1.19804 0
M  V30 6385 C 622.523 3.45079 0.426107 0
M  V30 6386 H 621.846 3.99003 -0.25227 0
M  V30 6387 H 623.286 4.16931 0.771009 0
M  V30 6388 C 621.745 2.95195 1.62363 0
M  V30 6389 O 622.275 2.95323 2.723 0
M  V30 6390 N 620.481 2.51192 1.4612 0
M  V30 6391 H 620.028 2.51286 0.566832 0
M  V30 6392 H 619.986 2.18173 2.2638 0
M  V30 6393 N 623.758 0.647228 1.43697 0
M  V30 6394 C 624.688 -0.0345631 2.33474 0
M  V30 6395 C 625.669 -0.818193 1.4913 0
M  V30 6396 O 626.854 -0.780867 1.77809 0
M  V30 6397 C 623.984 -1.00576 3.32418 0
M  V30 6398 C 622.938 -0.33266 4.26705 0
M  V30 6399 C 622.264 -1.41489 5.1564 0
M  V30 6400 C 623.564 0.771204 5.16575 0
M  V30 6401 H 625.258 0.715163 2.90733 0
M  V30 6402 H 622.804 0.345364 1.39797 0
M  V30 6403 H 624.757 -1.49159 3.94119 0
M  V30 6404 H 623.481 -1.78657 2.73403 0
M  V30 6405 H 622.14 0.13267 3.6636 0
M  V30 6406 H 621.788 -2.18698 4.52968 0
M  V30 6407 H 621.488 -0.969799 5.79542 0
M  V30 6408 H 623.012 -1.9022 5.80214 0
M  V30 6409 H 624.426 0.36779 5.72119 0
M  V30 6410 H 622.823 1.1404 5.89165 0
M  V30 6411 H 623.893 1.63169 4.56622 0
M  V30 6412 N 625.236 -1.5273 0.388769 0
M  V30 6413 C 626.647 -1.86505 -0.0853788 0
M  V30 6414 C 626.998 -1.30847 -1.46197 0
M  V30 6415 O 626.123 -0.639609 -2.06732 0
M  V30 6416 C 626.718 -3.38414 -0.161703 0
M  V30 6417 C 625.277 -3.71902 -0.580144 0
M  V30 6418 C 624.424 -2.76095 0.258218 0
M  V30 6419 H 627.375 -1.46647 0.606665 0
M  V30 6420 H 627.396 -3.67638 -0.980936 0
M  V30 6421 H 626.908 -3.78893 0.840333 0
M  V30 6422 H 625.009 -3.36992 -1.58957 0
M  V30 6423 H 625.122 -4.77902 -0.338663 0
M  V30 6424 H 623.486 -2.53195 -0.276432 0
M  V30 6425 H 624.269 -3.19411 1.25822 0
M  V30 6426 N 626.714 -0.118576 -1.57153 0
M  V30 6427 C 627.661 0.831789 -2.1529 0
M  V30 6428 C 628.631 1.26385 -1.07778 0
M  V30 6429 O 629.816 1.34144 -1.35684 0
M  V30 6430 C 626.956 2.07664 -2.75626 0
M  V30 6431 C 626.069 1.69298 -3.97444 0
M  V30 6432 C 625.204 2.88747 -4.45868 0
M  V30 6433 C 624.243 2.46619 -5.60219 0
M  V30 6434 N 623.38 3.5898 -6.03389 0
M  V30 6435 H 628.22 0.329183 -2.96176 0
M  V30 6436 H 625.757 0.150792 -1.46325 0
M  V30 6437 H 627.715 2.80601 -3.08738 0
M  V30 6438 H 626.345 2.55384 -1.97431 0
M  V30 6439 H 625.397 0.862374 -3.70496 0
M  V30 6440 H 626.709 1.34338 -4.80369 0
M  V30 6441 H 625.863 3.69909 -4.80887 0
M  V30 6442 H 624.602 3.26933 -3.61892 0
M  V30 6443 H 623.607 1.63889 -5.24805 0
M  V30 6444 H 624.832 2.0955 -6.45961 0
M  V30 6445 H 622.778 3.9684 -5.22354 0
M  V30 6446 H 622.695 3.27942 -6.81168 0
M  V30 6447 H 623.963 4.40583 -6.43045 0
M  V30 6448 N 628.193 1.56834 0.155195 0
M  V30 6449 C 629.156 1.96748 1.17571 0
M  V30 6450 C 630.156 0.853006 1.3631 0
M  V30 6451 O 631.346 1.11978 1.33441 0
M  V30 6452 C 628.478 2.27631 2.53765 0
M  V30 6453 H 629.671 2.88085 0.833498 0
M  V30 6454 H 627.224 1.51141 0.398242 0
M  V30 6455 H 627.959 1.39059 2.92973 0
M  V30 6456 H 627.744 3.0888 2.41527 0
M  V30 6457 H 629.234 2.59377 3.27282 0
M  V30 6458 N 629.671 -0.424282 1.51781 0
M  V30 6459 C 630.948 -1.18464 1.55646 0
M  V30 6460 C 631.328 -2.08529 0.328438 0
M  V30 6461 O 630.676 -2.17969 -0.685693 0
M  V30 6462 C 630.886 -1.97514 2.87731 0
M  V30 6463 C 632.234 -2.54106 3.40169 0
M  V30 6464 O 633.258 -2.07711 2.89369 0
M  V30 6465 O 632.117 -3.38759 4.28841 0
M  V30 6466 H 629.211 -0.540055 0.626314 0
M  V30 6467 H 631.757 -0.432291 1.64102 0
M  V30 6468 H 630.529 -1.31444 3.68562 0
M  V30 6469 H 630.152 -2.79787 2.82498 0
M  V30 6470 N 631.149 -1.42148 -0.680565 0
M  V30 6471 C 632.096 -1.45175 -1.79424 0
M  V30 6472 C 633.066 -0.304352 -1.63288 0
M  V30 6473 O 634.251 -0.507591 -1.83924 0
M  V30 6474 C 631.391 -1.35429 -3.17416 0
M  V30 6475 C 630.504 -2.60158 -3.4488 0
M  V30 6476 C 629.639 -2.42596 -4.72568 0
M  V30 6477 C 628.678 -3.62727 -4.93047 0
M  V30 6478 N 627.815 -3.44143 -6.11973 0
M  V30 6479 H 632.655 -2.40349 -1.76172 0
M  V30 6480 H 630.192 -1.19334 -0.860107 0
M  V30 6481 H 632.15 -1.27777 -3.97151 0
M  V30 6482 H 630.78 -0.438536 -3.19807 0
M  V30 6483 H 629.832 -2.78199 -2.5944 0
M  V30 6484 H 631.144 -3.49473 -3.55908 0
M  V30 6485 H 630.298 -2.32497 -5.60384 0
M  V30 6486 H 629.037 -1.50761 -4.63813 0
M  V30 6487 H 628.042 -3.73264 -4.03676 0
M  V30 6488 H 629.267 -4.55534 -5.03652 0
M  V30 6489 H 627.213 -2.5502 -6.04401 0
M  V30 6490 H 627.13 -4.27041 -6.23836 0
M  V30 6491 H 628.398 -3.37845 -7.02482 0
M  V30 6492 N 632.627 0.916307 -1.28225 0
M  V30 6493 C 633.574 2.01841 -1.11932 0
M  V30 6494 C 634.544 1.66091 -0.0171604 0
M  V30 6495 O 635.729 1.89934 -0.181617 0
M  V30 6496 C 632.869 3.36065 -0.784504 0
M  V30 6497 C 631.982 3.847 -1.96544 0
M  V30 6498 C 631.117 5.07423 -1.57149 0
M  V30 6499 C 630.156 5.48384 -2.71922 0
M  V30 6500 N 629.293 6.62298 -2.33037 0
M  V30 6501 H 634.133 2.1511 -2.06232 0
M  V30 6502 H 631.67 1.05366 -1.02647 0
M  V30 6503 H 633.628 4.13272 -0.571148 0
M  V30 6504 H 632.258 3.22571 0.121565 0
M  V30 6505 H 631.31 3.03673 -2.291 0
M  V30 6506 H 632.622 4.1102 -2.82603 0
M  V30 6507 H 631.776 5.92165 -1.32004 0
M  V30 6508 H 630.515 4.82906 -0.682153 0
M  V30 6509 H 629.52 4.62184 -2.97768 0
M  V30 6510 H 630.745 5.7489 -3.61494 0
M  V30 6511 H 628.691 6.39416 -1.4657 0
M  V30 6512 H 628.608 6.8833 -3.12631 0
M  V30 6513 H 629.876 7.50352 -2.11169 0
M  V30 6514 N 634.105 1.10431 1.1244 0
M  V30 6515 C 635.068 0.756542 2.16354 0
M  V30 6516 C 636.068 -0.21899 1.59302 0
M  V30 6517 O 637.258 0.00415969 1.742 0
M  V30 6518 C 634.39 0.120612 3.40687 0
M  V30 6519 H 635.583 1.67696 2.48632 0
M  V30 6520 H 633.136 0.904832 1.27446 0
M  V30 6521 H 633.871 -0.810536 3.14008 0
M  V30 6522 H 633.656 0.822693 3.83372 0
M  V30 6523 H 635.146 -0.106945 4.17463 0
M  V30 6524 N 635.583 -1.29855 0.893053 0
M  V30 6525 C 636.829 -1.96116 0.516349 0
M  V30 6526 C 637.162 -1.70281 -0.933695 0
M  V30 6527 O 636.437 -1.01205 -1.66096 0
M  V30 6528 C 636.72 -3.51068 0.801455 0
M  V30 6529 C 636.573 -3.86387 2.30272 0
M  V30 6530 C 637.892 -4.39186 0.283423 0
M  V30 6531 H 635.011 -0.712335 0.189072 0
M  V30 6532 H 637.653 -1.53587 1.11852 0
M  V30 6533 H 635.803 -3.87424 0.288949 0
M  V30 6534 H 637.475 -3.60012 2.88425 0
M  V30 6535 H 635.718 -3.34167 2.76613 0
M  V30 6536 H 636.389 -4.94512 2.45279 0
M  V30 6537 H 638.865 -4.09785 0.722187 0
M  V30 6538 H 637.741 -5.46505 0.512169 0
M  V30 6539 H 638.002 -4.34511 -0.815643 0
M  V30 6540 N 637.061 -0.65484 -1.43351 0
M  V30 6541 C 638.31 -0.166215 -2.01014 0
M  V30 6542 C 638.623 1.22764 -1.52278 0
M  V30 6543 O 639.829 1.81156 -2.02224 0
M  V30 6544 C 638.285 -0.246341 -3.59056 0
M  V30 6545 C 637.893 -1.64299 -4.16785 0
M  V30 6546 C 639.637 0.184597 -4.24098 0
M  V30 6547 C 637.544 -1.67695 -5.67126 0
M  V30 6548 H 636.474 -0.0583769 -0.751737 0
M  V30 6549 H 639.125 -0.817111 -1.64303 0
M  V30 6550 H 637.507 0.472092 -3.93176 0
M  V30 6551 H 638.681 -2.3869 -3.94162 0
M  V30 6552 H 636.996 -2.02004 -3.6412 0
M  V30 6553 H 639.593 0.179088 -5.344 0
M  V30 6554 H 639.936 1.21632 -3.98135 0
M  V30 6555 H 640.469 -0.482141 -3.94867 0
M  V30 6556 H 637.208 -2.68783 -5.9786 0
M  V30 6557 H 636.728 -0.976313 -5.91801 0
M  V30 6558 H 638.407 -1.42142 -6.31193 0
M  V30 6559 N 638.539 1.52521 -0.396863 0
M  V30 6560 C 639.471 2.24333 0.469814 0
M  V30 6561 C 640.484 1.2685 1.02043 0
M  V30 6562 O 641.673 1.52876 0.92147 0
M  V30 6563 C 638.773 2.95202 1.66461 0
M  V30 6564 C 637.946 4.19454 1.24003 0
M  V30 6565 C 637.005 4.73255 2.30036 0
M  V30 6566 O 636.031 5.36151 1.91131 0
M  V30 6567 N 637.233 4.53765 3.62047 0
M  V30 6568 H 639.998 2.99347 -0.145468 0
M  V30 6569 H 637.559 1.60348 -0.223606 0
M  V30 6570 H 639.551 3.28092 2.36934 0
M  V30 6571 H 638.121 2.2345 2.18607 0
M  V30 6572 H 637.341 3.92517 0.363892 0
M  V30 6573 H 638.629 5.0017 0.933135 0
M  V30 6574 H 638.027 4.03576 3.96412 0
M  V30 6575 H 636.584 4.91124 4.28533 0
M  V30 6576 N 640.017 0.126909 1.57088 0
M  V30 6577 C 640.967 -0.831678 2.1229 0
M  V30 6578 C 641.951 -1.22292 1.04564 0
M  V30 6579 O 643.143 -1.19269 1.30782 0
M  V30 6580 C 640.272 -2.07866 2.73215 0
M  V30 6581 C 639.358 -1.71143 3.88035 0
M  V30 6582 N 639.749 -1.05136 4.94753 0
M  V30 6583 C 638.047 -2.00549 3.98367 0
M  V30 6584 C 638.748 -0.877257 5.75047 0
M  V30 6585 N 637.724 -1.40477 5.25135 0
M  V30 6586 H 641.526 -0.317926 2.92175 0
M  V30 6587 H 639.04 -0.0753052 1.62225 0
M  V30 6588 H 641.037 -2.77516 3.11111 0
M  V30 6589 H 639.697 -2.59778 1.94796 0
M  V30 6590 H 640.708 -0.71442 5.12949 0
M  V30 6591 H 637.385 -2.54452 3.30999 0
M  V30 6592 H 638.775 -0.358536 6.70943 0
M  V30 6593 N 641.495 -1.56914 -0.146875 0
M  V30 6594 C 642.742 -1.83356 -0.859467 0
M  V30 6595 C 643.07 -0.707811 -1.81164 0
M  V30 6596 O 642.325 0.303155 -1.93338 0
M  V30 6597 C 642.624 -3.16128 -1.66727 0
M  V30 6598 C 642.29 -4.42586 -0.861881 0
M  V30 6599 C 640.952 -4.76929 -0.639687 0
M  V30 6600 C 643.304 -5.20344 -0.298643 0
M  V30 6601 C 640.632 -5.86491 0.156451 0
M  V30 6602 C 642.984 -6.30742 0.484536 0
M  V30 6603 C 641.648 -6.63635 0.717306 0
M  V30 6604 H 640.918 -0.670947 -0.314501 0
M  V30 6605 H 643.565 -1.91104 -0.123108 0
M  V30 6606 H 641.87 -3.03831 -2.47374 0
M  V30 6607 H 643.567 -3.33802 -2.2221 0
M  V30 6608 H 640.157 -4.15662 -1.04513 0
M  V30 6609 H 644.341 -4.94186 -0.457585 0
M  V30 6610 H 639.597 -6.10419 0.346292 0
M  V30 6611 H 643.771 -6.90188 0.928105 0
M  V30 6612 H 641.398 -7.48367 1.33607 0
M  V30 6613 N 642.974 0.416227 -1.52004 0
M  V30 6614 C 643.906 1.52552 -1.71058 0
M  V30 6615 C 644.919 1.51693 -0.59102 0
M  V30 6616 O 646.108 1.56087 -0.865973 0
M  V30 6617 C 643.208 2.91455 -1.72937 0
M  V30 6618 C 642.381 3.16584 -3.01816 0
M  V30 6619 C 641.44 4.35322 -2.95603 0
M  V30 6620 O 640.466 4.32947 -3.6952 0
M  V30 6621 N 641.668 5.40049 -2.12903 0
M  V30 6622 H 644.433 1.36604 -2.66757 0
M  V30 6623 H 641.994 0.60544 -1.50153 0
M  V30 6624 H 643.986 3.68944 -1.66321 0
M  V30 6625 H 642.556 3.00895 -0.847418 0
M  V30 6626 H 641.776 2.27203 -3.22137 0
M  V30 6627 H 643.064 3.30213 -3.87088 0
M  V30 6628 H 642.462 5.44823 -1.52265 0
M  V30 6629 H 641.019 6.16308 -2.1215 0
M  V30 6630 N 644.452 1.42507 0.673017 0
M  V30 6631 C 645.362 1.4853 1.81593 0
M  V30 6632 C 646.378 0.373907 1.69935 0
M  V30 6633 O 647.554 0.625078 1.91454 0
M  V30 6634 C 644.619 1.387 3.17747 0
M  V30 6635 C 643.68 2.60346 3.41348 0
M  V30 6636 C 642.913 2.50975 4.71007 0
M  V30 6637 O 643.136 1.54659 5.49033 0
M  V30 6638 O 642.07 3.41138 4.95892 0
M  V30 6639 H 645.896 2.45001 1.79467 0
M  V30 6640 H 643.481 1.2429 0.82899 0
M  V30 6641 H 645.363 1.35586 3.98992 0
M  V30 6642 H 644.038 0.453555 3.20507 0
M  V30 6643 H 642.945 2.69034 2.59945 0
M  V30 6644 H 644.278 3.52595 3.43421 0
M  V30 6645 N 645.93 -0.909495 1.28709 0
M  V30 6646 C 646.877 -2.01245 1.13 0
M  V30 6647 C 647.847 -1.6608 0.0259684 0
M  V30 6648 O 649.032 -1.89835 0.191687 0
M  V30 6649 C 646.172 -3.35644 0.802315 0
M  V30 6650 C 645.285 -3.83653 1.98582 0
M  V30 6651 C 644.42 -5.06582 1.59837 0
M  V30 6652 C 643.459 -5.46934 2.74827 0
M  V30 6653 N 642.596 -6.61053 2.36546 0
M  V30 6654 H 647.436 -2.14013 2.0737 0
M  V30 6655 H 644.973 -1.0482 1.03205 0
M  V30 6656 H 646.931 -4.12963 0.593057 0
M  V30 6657 H 645.561 -3.22631 -0.104457 0
M  V30 6658 H 644.613 -3.02454 2.30708 0
M  V30 6659 H 645.925 -4.09515 2.84779 0
M  V30 6660 H 645.079 -5.91457 1.35143 0
M  V30 6661 H 643.818 -4.82537 0.707753 0
M  V30 6662 H 642.823 -4.60599 3.00215 0
M  V30 6663 H 644.048 -5.72965 3.64538 0
M  V30 6664 H 641.994 -6.3863 1.49959 0
M  V30 6665 H 641.911 -6.86662 3.16277 0
M  V30 6666 H 643.179 -7.49221 2.15146 0
M  V30 6667 N 647.408 -1.11026 -1.11852 0
M  V30 6668 C 648.654 -0.857729 -1.83768 0
M  V30 6669 C 648.987 0.615143 -1.842 0
M  V30 6670 O 648.262 1.45391 -1.29196 0
M  V30 6671 C 648.545 -1.41453 -3.31154 0
M  V30 6672 C 648.398 -2.95471 -3.39142 0
M  V30 6673 C 649.717 -1.0619 -4.27097 0
M  V30 6674 H 646.836 -0.313044 -0.667212 0
M  V30 6675 H 649.478 -1.37443 -1.31185 0
M  V30 6676 H 647.628 -0.975052 -3.76065 0
M  V30 6677 H 649.3 -3.4799 -3.02821 0
M  V30 6678 H 647.543 -3.31759 -2.79497 0
M  V30 6679 H 648.214 -3.29515 -4.42859 0
M  V30 6680 H 650.69 -1.44122 -3.90344 0
M  V30 6681 H 649.566 -1.47832 -5.28618 0
M  V30 6682 H 649.827 0.0278912 -4.42091 0
M  V30 6683 N 648.886 1.2938 -0.899927 0
M  V30 6684 C 649.796 2.31462 -0.382437 0
M  V30 6685 C 650.812 1.65956 0.522929 0
M  V30 6686 O 651.988 1.97131 0.412454 0
M  V30 6687 C 649.053 3.44595 0.381472 0
M  V30 6688 C 648.114 4.25692 -0.555444 0
M  V30 6689 C 647.347 5.33422 0.172102 0
M  V30 6690 O 647.57 5.53053 1.396 0
M  V30 6691 O 646.504 5.99939 -0.485491 0
M  V30 6692 H 650.33 2.77706 -1.22934 0
M  V30 6693 H 647.915 1.33821 -0.664259 0
M  V30 6694 H 649.797 4.13474 0.813442 0
M  V30 6695 H 648.472 3.00458 1.20443 0
M  V30 6696 H 647.379 3.59453 -1.03653 0
M  V30 6697 H 648.712 4.73471 -1.34483 0
M  V30 6698 N 650.364 0.662433 1.43002 0
M  V30 6699 C 651.589 0.186003 2.06564 0
M  V30 6700 C 652.014 -1.14314 1.49379 0
M  V30 6701 O 651.372 -1.70824 0.607346 0
M  V30 6702 C 651.42 0.118269 3.60406 0
M  V30 6703 O 650.524 -0.916859 4.02079 0
M  V30 6704 H 649.865 0.0990981 0.656563 0
M  V30 6705 H 652.395 0.907958 1.8335 0
M  V30 6706 H 652.405 -0.0619981 4.07953 0
M  V30 6707 H 651.08 1.08849 4.01403 0
M  V30 6708 H 649.657 -0.708635 3.66105 0
M  V30 6709 N 651.842 -1.52309 0.404946 0
M  V30 6710 C 652.772 -2.29805 -0.41376 0
M  V30 6711 C 653.753 -1.3384 -1.0498 0
M  V30 6712 O 654.938 -1.62745 -1.05961 0
M  V30 6713 C 652.068 -3.11639 -1.53292 0
M  V30 6714 C 651.022 -4.15616 -1.02211 0
M  V30 6715 C 650.348 -4.8577 -2.23455 0
M  V30 6716 C 651.648 -5.2224 -0.0790725 0
M  V30 6717 H 653.342 -2.98493 0.232878 0
M  V30 6718 H 650.888 -1.43552 0.113441 0
M  V30 6719 H 652.841 -3.64618 -2.11262 0
M  V30 6720 H 651.565 -2.40712 -2.20738 0
M  V30 6721 H 650.224 -3.63641 -0.46484 0
M  V30 6722 H 649.872 -4.11376 -2.89445 0
M  V30 6723 H 649.572 -5.56058 -1.89929 0
M  V30 6724 H 651.096 -5.4156 -2.82038 0
M  V30 6725 H 652.51 -5.70485 -0.567438 0
M  V30 6726 H 650.907 -5.99867 0.167167 0
M  V30 6727 H 651.977 -4.77078 0.867447 0
M  V30 6728 N 653.32 -0.135238 -1.57019 0
M  V30 6729 C 654.23 0.822226 -2.19719 0
M  V30 6730 C 655.246 1.28057 -1.17802 0
M  V30 6731 O 656.422 1.3402 -1.50335 0
M  V30 6732 C 653.487 2.0484 -2.79717 0
M  V30 6733 C 652.548 1.64042 -3.96723 0
M  V30 6734 C 651.781 2.80814 -4.53849 0
M  V30 6735 O 652.004 3.967 -4.0986 0
M  V30 6736 O 650.938 2.56963 -5.44292 0
M  V30 6737 H 654.764 0.318552 -3.02025 0
M  V30 6738 H 652.349 0.0912021 -1.49121 0
M  V30 6739 H 654.231 2.76622 -3.17897 0
M  V30 6740 H 652.906 2.54182 -2.00432 0
M  V30 6741 H 651.813 0.893182 -3.63281 0
M  V30 6742 H 653.146 1.19426 -4.77492 0
M  V30 6743 N 654.798 1.5699 0.138552 0
M  V30 6744 C 655.73 1.95515 1.1961 0
M  V30 6745 C 656.743 0.852002 1.38726 0
M  V30 6746 O 657.932 1.13038 1.38147 0
M  V30 6747 C 655.032 2.2213 2.55952 0
M  V30 6748 C 654.205 3.53424 2.57702 0
M  V30 6749 C 653.264 3.6848 3.75645 0
M  V30 6750 O 652.29 4.4079 3.60129 0
M  V30 6751 N 653.492 3.05777 4.93438 0
M  V30 6752 H 656.257 2.86838 0.868557 0
M  V30 6753 H 653.818 1.58542 0.328033 0
M  V30 6754 H 655.81 2.29435 3.33379 0
M  V30 6755 H 654.38 1.3703 2.80965 0
M  V30 6756 H 653.6 3.57484 1.6613 0
M  V30 6757 H 654.888 4.39759 2.55909 0
M  V30 6758 H 654.286 2.46961 5.08947 0
M  V30 6759 H 652.843 3.18631 5.6861 0
M  V30 6760 N 656.276 -0.40816 1.52223 0
M  V30 6761 C 657.186 -1.52202 1.78526 0
M  V30 6762 C 658.202 -1.60546 0.670892 0
M  V30 6763 O 659.378 -1.77242 0.956404 0
M  V30 6764 C 656.443 -2.87928 1.93128 0
M  V30 6765 C 655.504 -2.89463 3.17033 0
M  V30 6766 C 654.737 -4.18715 3.30929 0
M  V30 6767 O 654.96 -5.12662 2.50067 0
M  V30 6768 O 653.894 -4.27125 4.24084 0
M  V30 6769 H 657.72 -1.32911 2.73072 0
M  V30 6770 H 655.305 -0.594112 1.37079 0
M  V30 6771 H 657.187 -3.68426 2.04549 0
M  V30 6772 H 655.862 -3.07285 1.01772 0
M  V30 6773 H 654.769 -2.07815 3.11069 0
M  V30 6774 H 656.102 -2.75055 4.08174 0
M  V30 6775 N 657.755 -1.42862 -0.66545 0
M  V30 6776 C 658.718 -1.46756 -1.76055 0
M  V30 6777 C 659.718 -0.353866 -1.56858 0
M  V30 6778 O 660.908 -0.615099 -1.62979 0
M  V30 6779 C 658.04 -1.30829 -3.14796 0
M  V30 6780 H 659.233 -2.44271 -1.73987 0
M  V30 6781 H 656.786 -1.29447 -0.875965 0
M  V30 6782 H 657.521 -0.342733 -3.22484 0
M  V30 6783 H 657.306 -2.11551 -3.30134 0
M  V30 6784 H 658.796 -1.36458 -3.94676 0
M  V30 6785 N 659.233 0.902656 -1.29189 0
M  V30 6786 C 660.196 1.98797 -1.14071 0
M  V30 6787 C 661.196 1.60615 -0.0770549 0
M  V30 6788 O 662.386 1.71165 -0.323753 0
M  V30 6789 C 659.518 3.32688 -0.743739 0
M  V30 6790 H 660.711 2.13637 -2.10473 0
M  V30 6791 H 658.264 1.08678 -1.12334 0
M  V30 6792 H 658.999 3.23549 0.220554 0
M  V30 6793 H 658.784 3.61765 -1.51223 0
M  V30 6794 H 660.274 4.12337 -0.660935 0
M  V30 6795 N 660.711 1.11618 1.11262 0
M  V30 6796 C 661.659 0.771291 2.1944 0
M  V30 6797 C 662.653 -0.238073 1.67719 0
M  V30 6798 O 663.859 -0.0971628 1.79738 0
M  V30 6799 H 660.234 0.231548 0.715465 0
M  V30 6800 H 662.205 1.69226 2.45775 0
M  V30 6801 C 660.954 0.232765 3.4692 0
M  V30 6802 H 660.277 1.00072 3.87073 0
M  V30 6803 H 661.717 0.0296561 4.2399 0
M  V30 6804 C 660.176 -1.03738 3.20531 0
M  V30 6805 O 660.706 -2.11675 3.41404 0
M  V30 6806 N 658.912 -0.960906 2.74253 0
M  V30 6807 H 658.459 -0.0824323 2.57468 0
M  V30 6808 H 658.417 -1.8114 2.56974 0
M  V30 6809 N 662.189 -1.289 0.906776 0
M  V30 6810 C 663.099 -2.31256 0.394707 0
M  V30 6811 C 664.115 -1.66231 -0.514121 0
M  V30 6812 O 665.291 -1.97347 -0.401994 0
M  V30 6813 C 662.356 -3.44792 -0.363191 0
M  V30 6814 C 661.417 -4.25391 0.578012 0
M  V30 6815 C 660.65 -5.33506 -0.143811 0
M  V30 6816 O 660.873 -5.53786 -1.36665 0
M  V30 6817 O 659.807 -5.99673 0.5173 0
M  V30 6818 H 663.633 -2.77051 1.24405 0
M  V30 6819 H 661.218 -1.33466 0.671346 0
M  V30 6820 H 663.1 -4.139 -0.791503 0
M  V30 6821 H 661.775 -3.01093 -1.18848 0
M  V30 6822 H 660.682 -3.58899 1.05558 0
M  V30 6823 H 662.015 -4.72752 1.36992 0
M  V30 6824 N 663.667 -0.670007 -1.42649 0
M  V30 6825 C 665.083 -0.33911 -1.55956 0
M  V30 6826 C 665.283 1.1558 -1.65056 0
M  V30 6827 O 664.339 1.94111 -1.61485 0
M  V30 6828 C 665.652 -1.06522 -2.812 0
M  V30 6829 C 667.2 -1.04708 -2.94966 0
M  V30 6830 C 667.675 -1.75442 -4.23065 0
M  V30 6831 N 669.166 -1.72286 -4.29967 0
M  V30 6832 C 669.901 -2.23877 -5.27889 0
M  V30 6833 N 669.397 -2.83829 -6.31991 0
M  V30 6834 N 671.19 -2.14279 -5.19654 0
M  V30 6835 H 663.341 -1.6399 -1.34986 0
M  V30 6836 H 665.604 -0.690603 -0.649439 0
M  V30 6837 H 665.31 -2.12033 -2.80597 0
M  V30 6838 H 665.184 -0.627398 -3.71946 0
M  V30 6839 H 667.571 -0.000315966 -2.951 0
M  V30 6840 H 667.652 -1.52374 -2.05465 0
M  V30 6841 H 667.296 -2.80084 -4.23693 0
M  V30 6842 H 667.226 -1.25229 -5.11493 0
M  V30 6843 H 669.717 -1.28554 -3.55362 0
M  V30 6844 H 670.03 -3.20827 -7.03057 0
M  V30 6845 H 668.375 -2.87896 -6.32567 0
M  V30 6846 H 671.566 -1.67135 -4.37245 0
M  V30 6847 H 671.739 -2.54792 -5.95806 0
M  V30 6848 N 665.145 1.52092 -0.413018 0
M  V30 6849 C 666.077 2.24819 0.445994 0
M  V30 6850 C 667.09 1.27925 1.00692 0
M  V30 6851 O 668.279 1.53845 0.905204 0
M  V30 6852 C 665.379 2.96951 1.6332 0
M  V30 6853 C 664.552 4.20746 1.19548 0
M  V30 6854 C 663.611 4.75668 2.25003 0
M  V30 6855 O 662.637 5.38148 1.85434 0
M  V30 6856 N 663.839 4.57579 3.57214 0
M  V30 6857 H 666.604 2.99176 -0.177209 0
M  V30 6858 H 664.165 1.60102 -0.240601 0
M  V30 6859 H 666.157 3.30586 2.33441 0
M  V30 6860 H 664.727 2.25756 2.16225 0
M  V30 6861 H 663.947 3.92881 0.32224 0
M  V30 6862 H 665.235 5.01132 0.880033 0
M  V30 6863 H 664.633 4.07758 3.92109 0
M  V30 6864 H 663.19 4.95642 4.23299 0
M  V30 6865 N 666.623 0.143563 1.56945 0
M  V30 6866 C 667.555 -0.828353 2.13708 0
M  V30 6867 C 668.568 -1.21313 1.08568 0
M  V30 6868 O 669.757 -1.1578 1.35857 0
M  V30 6869 C 666.857 -2.12248 2.64204 0
M  V30 6870 C 666.03 -1.90561 3.93707 0
M  V30 6871 C 665.089 -3.03931 4.29549 0
M  V30 6872 O 664.115 -2.75772 4.97934 0
M  V30 6873 N 665.317 -4.31016 3.88852 0
M  V30 6874 H 668.082 -0.343242 2.97728 0
M  V30 6875 H 665.643 -0.0401152 1.6185 0
M  V30 6876 H 667.635 -2.87132 2.85197 0
M  V30 6877 H 666.205 -2.52033 1.84928 0
M  V30 6878 H 665.425 -0.997327 3.81375 0
M  V30 6879 H 666.713 -1.73405 4.78339 0
M  V30 6880 H 666.111 -4.56762 3.33743 0
M  V30 6881 H 664.668 -5.02691 4.14903 0
M  V30 6882 N 668.101 -1.57061 -0.130224 0
M  V30 6883 C 669.031 -2.02552 -1.16168 0
M  V30 6884 C 670.012 -0.907971 -1.4384 0
M  V30 6885 O 671.197 -1.17693 -1.54473 0
M  V30 6886 C 668.327 -2.42035 -2.49071 0
M  V30 6887 C 667.281 -3.5713 -2.35886 0
M  V30 6888 C 666.607 -3.82478 -3.7365 0
M  V30 6889 C 667.907 -4.89236 -1.8288 0
M  V30 6890 H 669.601 -2.8897 -0.783359 0
M  V30 6891 H 667.147 -1.39021 -0.375376 0
M  V30 6892 H 669.1 -2.72462 -3.21469 0
M  V30 6893 H 667.824 -1.52573 -2.88771 0
M  V30 6894 H 666.483 -3.26895 -1.65938 0
M  V30 6895 H 666.131 -2.9024 -4.10816 0
M  V30 6896 H 665.831 -4.59944 -3.65685 0
M  V30 6897 H 667.355 -4.15347 -4.47571 0
M  V30 6898 H 668.769 -5.18272 -2.45085 0
M  V30 6899 H 667.166 -5.70624 -1.85763 0
M  V30 6900 H 668.236 -4.78494 -0.785571 0
M  V30 6901 N 669.579 0.400081 -1.52437 0
M  V30 6902 C 670.825 1.14788 -1.67187 0
M  V30 6903 C 671.158 1.89928 -0.405074 0
M  V30 6904 O 670.433 1.85118 0.596804 0
M  V30 6905 C 670.716 2.13507 -2.89977 0
M  V30 6906 C 670.569 1.42204 -4.2673 0
M  V30 6907 C 671.888 3.14069 -3.083 0
M  V30 6908 H 669.007 0.415939 -0.608411 0
M  V30 6909 H 671.649 0.432542 -1.85011 0
M  V30 6910 H 669.799 2.7451 -2.74912 0
M  V30 6911 H 671.471 0.842503 -4.53541 0
M  V30 6912 H 669.714 0.723939 -4.27717 0
M  V30 6913 H 670.385 2.14281 -5.08712 0
M  V30 6914 H 672.861 2.63148 -3.22323 0
M  V30 6915 H 671.737 3.80398 -3.95713 0
M  V30 6916 H 671.998 3.82309 -2.22018 0
M  V30 6917 N 671.057 1.43213 0.657864 0
M  V30 6918 C 671.967 1.50448 1.80007 0
M  V30 6919 C 672.983 0.39191 1.69529 0
M  V30 6920 O 674.159 0.645349 1.90781 0
M  V30 6921 C 671.224 1.42062 3.16258 0
M  V30 6922 C 670.285 2.63951 3.38568 0
M  V30 6923 C 669.518 2.55956 4.68318 0
M  V30 6924 O 669.741 1.60473 5.47361 0
M  V30 6925 O 668.675 3.46378 4.92245 0
M  V30 6926 H 672.501 2.4689 1.76858 0
M  V30 6927 H 670.086 1.25163 0.81576 0
M  V30 6928 H 671.968 1.3981 3.97531 0
M  V30 6929 H 670.643 0.487524 3.20008 0
M  V30 6930 H 669.55 2.71776 2.57077 0
M  V30 6931 H 670.883 3.56217 3.39662 0
M  V30 6932 N 672.536 -0.895792 1.29666 0
M  V30 6933 C 673.764 -1.68001 1.20761 0
M  V30 6934 C 674.179 -1.87379 -0.231187 0
M  V30 6935 O 673.536 -1.41359 -1.15429 0
M  V30 6936 C 673.587 -3.06236 1.92098 0
M  V30 6937 O 673.308 -2.8774 3.30359 0
M  V30 6938 C 674.809 -4.00652 1.89717 0
M  V30 6939 H 672.029 -0.524591 0.418384 0
M  V30 6940 H 674.573 -1.11995 1.71106 0
M  V30 6941 H 672.728 -3.59007 1.45578 0
M  V30 6942 H 673.142 -3.75359 3.66342 0
M  V30 6943 H 674.616 -4.95051 2.44189 0
M  V30 6944 H 675.093 -4.30424 0.873595 0
M  V30 6945 H 675.699 -3.53815 2.35998 0
M  V30 6946 N 674.014 -1.12206 -1.10668 0
M  V30 6947 C 674.964 -0.75669 -2.15077 0
M  V30 6948 C 675.948 0.243154 -1.59052 0
M  V30 6949 O 677.14 0.0490268 -1.76932 0
M  V30 6950 C 674.269 -0.210303 -3.42655 0
M  V30 6951 C 673.355 -1.23829 -4.05619 0
M  V30 6952 N 673.746 -2.43513 -4.43323 0
M  V30 6953 C 672.044 -1.08309 -4.32649 0
M  V30 6954 C 672.745 -3.09138 -4.92756 0
M  V30 6955 N 671.721 -2.36593 -4.89413 0
M  V30 6956 H 675.523 -1.66747 -2.42018 0
M  V30 6957 H 673.037 -1.00248 -1.27765 0
M  V30 6958 H 675.034 0.0696287 -4.16842 0
M  V30 6959 H 673.694 0.694967 -3.17176 0
M  V30 6960 H 674.705 -2.80912 -4.35097 0
M  V30 6961 H 671.382 -0.234919 -4.16839 0
M  V30 6962 H 672.772 -4.11049 -5.31496 0
M  V30 6963 N 675.492 1.28418 -0.913599 0
M  V30 6964 C 676.425 2.25557 -0.346328 0
M  V30 6965 C 677.403 1.53038 0.549366 0
M  V30 6966 O 678.587 1.81937 0.493055 0
M  V30 6967 C 675.714 3.34915 0.504961 0
M  V30 6968 C 674.76 4.25257 -0.325334 0
M  V30 6969 S 675.593 5.06718 -1.73198 0
M  V30 6970 C 676.749 6.19569 -0.887988 0
M  V30 6971 H 676.982 2.73325 -1.16965 0
M  V30 6972 H 674.515 1.36855 -0.714841 0
M  V30 6973 H 676.473 3.98376 0.990301 0
M  V30 6974 H 675.134 2.85814 1.30267 0
M  V30 6975 H 674.327 5.02947 0.325589 0
M  V30 6976 H 673.929 3.66519 -0.744321 0
M  V30 6977 H 676.221 6.77398 -0.117568 0
M  V30 6978 H 677.164 6.88908 -1.63742 0
M  V30 6979 H 677.572 5.62812 -0.436228 0
M  V30 6980 N 676.97 0.677563 1.42291 0
M  V30 6981 C 677.933 0.0101085 2.29198 0
M  V30 6982 C 678.933 -0.726219 1.43467 0
M  V30 6983 O 680.123 -0.563807 1.64824 0
M  V30 6984 C 677.255 -0.996316 3.26016 0
M  V30 6985 H 678.448 0.775071 2.89711 0
M  V30 6986 H 676.001 0.440065 1.49977 0
M  V30 6987 H 676.736 -1.78967 2.70446 0
M  V30 6988 H 676.521 -0.471687 3.89253 0
M  V30 6989 H 678.011 -1.46167 3.91184 0
M  V30 6990 N 678.448 -1.51871 0.421078 0
M  V30 6991 C 679.864 -1.59435 0.0725398 0
M  V30 6992 C 680.064 -1.43315 -1.41644 0
M  V30 6993 O 679.12 -1.26614 -2.18461 0
M  V30 6994 C 680.433 -2.9509 0.578132 0
M  V30 6995 C 681.981 -3.08356 0.537149 0
M  V30 6996 C 682.456 -4.4651 1.01945 0
M  V30 6997 N 683.947 -4.52784 0.976758 0
M  V30 6998 C 684.682 -5.57976 1.32099 0
M  V30 6999 N 684.178 -6.70664 1.73727 0
M  V30 7000 N 685.971 -5.48248 1.2402 0
M  V30 7001 H 678.122 -1.60595 1.39007 0
M  V30 7002 H 680.385 -0.756138 0.571803 0
M  V30 7003 H 680.091 -3.12205 1.61929 0
M  V30 7004 H 679.965 -3.772 -0.00578374 0
M  V30 7005 H 682.352 -2.90919 -0.494991 0
M  V30 7006 H 682.433 -2.28125 1.15727 0
M  V30 7007 H 682.077 -4.64692 2.04997 0
M  V30 7008 H 682.007 -5.25256 0.376023 0
M  V30 7009 H 684.498 -3.71898 0.670851 0
M  V30 7010 H 684.811 -7.46932 1.98274 0
M  V30 7011 H 683.156 -6.71914 1.77641 0
M  V30 7012 H 686.347 -4.59095 0.913756 0
M  V30 7013 H 686.52 -6.30119 1.51176 0
M  V30 7014 N 679.926 -0.151884 -1.56866 0
M  V30 7015 C 681.172 0.498742 -1.96572 0
M  V30 7016 C 681.505 1.64194 -1.03702 0
M  V30 7017 O 680.78 1.94334 -0.0803432 0
M  V30 7018 C 681.063 1.00027 -3.45929 0
M  V30 7019 C 680.916 -0.141767 -4.49577 0
M  V30 7020 C 682.235 1.88044 -3.97904 0
M  V30 7021 H 679.354 0.17982 -0.714726 0
M  V30 7022 H 681.996 -0.234097 -1.88552 0
M  V30 7023 H 680.146 1.62476 -3.52894 0
M  V30 7024 H 681.818 -0.778269 -4.54687 0
M  V30 7025 H 680.061 -0.80019 -4.26356 0
M  V30 7026 H 680.732 0.250947 -5.51429 0
M  V30 7027 H 683.208 1.35416 -3.93449 0
M  V30 7028 H 682.084 2.20043 -5.02864 0
M  V30 7029 H 682.345 2.81916 -3.40552 0
M  V30 7030 N 681.404 1.57128 0.121893 0
M  V30 7031 C 682.314 2.03425 1.16857 0
M  V30 7032 C 683.33 0.954108 1.45509 0
M  V30 7033 O 684.506 1.26541 1.56682 0
M  V30 7034 C 681.571 2.42685 2.47599 0
M  V30 7035 C 680.632 3.64767 2.2637 0
M  V30 7036 C 679.865 4.02145 3.50878 0
M  V30 7037 O 680.088 3.39897 4.58068 0
M  V30 7038 O 679.022 4.95262 3.42051 0
M  V30 7039 H 682.848 2.92825 0.80544 0
M  V30 7040 H 680.433 1.45654 0.332477 0
M  V30 7041 H 682.315 2.68684 3.24634 0
M  V30 7042 H 680.99 1.56432 2.83392 0
M  V30 7043 H 679.897 3.43922 1.47203 0
M  V30 7044 H 681.23 4.51716 1.95482 0
M  V30 7045 N 682.882 -0.391992 1.52647 0
M  V30 7046 C 683.845 -1.46135 1.7657 0
M  V30 7047 C 684.845 -1.47701 0.635698 0
M  V30 7048 O 686.035 -1.48924 0.903728 0
M  V30 7049 C 683.167 -2.85443 1.86374 0
M  V30 7050 H 684.36 -1.26208 2.72051 0
M  V30 7051 H 681.913 -0.623549 1.43323 0
M  V30 7052 H 682.648 -3.10718 0.928685 0
M  V30 7053 H 682.433 -2.85708 2.68539 0
M  V30 7054 H 683.923 -3.62933 2.06566 0
M  V30 7055 N 684.36 -1.4356 -0.65026 0
M  V30 7056 C 685.293 -1.434 -1.77515 0
M  V30 7057 C 686.271 -0.295082 -1.599 0
M  V30 7058 O 687.455 -0.489128 -1.82043 0
M  V30 7059 C 684.582 -1.2484 -3.14853 0
M  V30 7060 C 683.628 -2.42046 -3.51163 0
M  V30 7061 S 684.461 -4.04595 -3.50803 0
M  V30 7062 C 685.617 -3.88424 -4.90793 0
M  V30 7063 H 685.85 -2.38586 -1.77381 0
M  V30 7064 H 683.383 -1.30627 -0.823169 0
M  V30 7065 H 685.341 -1.14819 -3.94115 0
M  V30 7066 H 684.002 -0.311977 -3.12547 0
M  V30 7067 H 683.195 -2.24873 -4.51052 0
M  V30 7068 H 682.797 -2.48708 -2.79321 0
M  V30 7069 H 685.089 -3.50932 -5.79528 0
M  V30 7070 H 686.032 -4.88076 -5.13018 0
M  V30 7071 H 686.44 -3.20829 -4.64467 0
M  V30 7072 N 685.838 0.888903 -1.30139 0
M  V30 7073 C 686.768 2.01046 -1.18755 0
M  V30 7074 C 687.749 1.69916 -0.0791438 0
M  V30 7075 O 688.934 1.92445 -0.260498 0
M  V30 7076 C 686.064 3.36109 -0.874518 0
M  V30 7077 C 685.018 3.81486 -1.94043 0
M  V30 7078 C 684.344 5.13796 -1.48047 0
M  V30 7079 C 685.644 4.00637 -3.35093 0
M  V30 7080 H 687.338 2.10828 -2.12584 0
M  V30 7081 H 684.884 1.01298 -1.02346 0
M  V30 7082 H 686.837 4.14089 -0.781548 0
M  V30 7083 H 685.561 3.26449 0.0994519 0
M  V30 7084 H 684.22 3.05731 -2.02297 0
M  V30 7085 H 683.868 5.0056 -0.494878 0
M  V30 7086 H 683.568 5.45127 -2.19341 0
M  V30 7087 H 685.092 5.94305 -1.40121 0
M  V30 7088 H 686.506 4.69067 -3.2962 0
M  V30 7089 H 684.903 4.43339 -4.04438 0
M  V30 7090 H 685.973 3.0462 -3.77273 0
M  V30 7091 N 687.317 1.12792 1.10072 0
M  V30 7092 C 688.265 0.794523 2.18609 0
M  V30 7093 C 689.259 -0.220271 1.67962 0
M  V30 7094 O 690.465 -0.0780938 1.79831 0
M  V30 7095 H 686.84 0.239123 0.712969 0
M  V30 7096 H 688.811 1.71823 2.43966 0
M  V30 7097 C 687.56 0.269548 3.46654 0
M  V30 7098 H 686.883 1.04171 3.8599 0
M  V30 7099 H 688.323 0.0746242 4.23934 0
M  V30 7100 C 686.782 -1.00333 3.21613 0
M  V30 7101 O 687.312 -2.08042 3.4363 0
M  V30 7102 N 685.518 -0.931763 2.75257 0
M  V30 7103 H 685.065 -0.0551197 2.57541 0
M  V30 7104 H 685.023 -1.78405 2.58881 0
M  V30 7105 N 688.795 -1.27931 0.920396 0
M  V30 7106 C 690.072 -1.89728 0.475687 0
M  V30 7107 C 690.452 -1.8337 -1.04588 0
M  V30 7108 O 689.8 -1.27404 -1.89685 0
M  V30 7109 C 690.01 -3.33959 1.01354 0
M  V30 7110 C 691.358 -4.10907 1.06963 0
M  V30 7111 O 692.382 -3.42945 0.962646 0
M  V30 7112 O 691.241 -5.32399 1.23343 0
M  V30 7113 H 688.335 -0.81294 0.151845 0
M  V30 7114 H 690.881 -1.36252 1.01161 0
M  V30 7115 H 689.653 -3.32843 2.05746 0
M  V30 7116 H 689.276 -3.94944 0.458829 0
M  V30 7117 N 690.273 -0.685099 -1.4193 0
M  V30 7118 C 691.689 -0.355632 -1.55587 0
M  V30 7119 C 691.889 1.13823 -1.66273 0
M  V30 7120 O 690.945 1.92387 -1.63534 0
M  V30 7121 C 692.258 -1.09498 -2.80055 0
M  V30 7122 C 693.806 -1.07831 -2.93839 0
M  V30 7123 C 694.281 -1.79919 -4.21181 0
M  V30 7124 N 695.772 -1.76837 -4.28115 0
M  V30 7125 C 696.507 -2.29463 -5.25485 0
M  V30 7126 N 696.003 -2.90516 -6.28945 0
M  V30 7127 N 697.796 -2.19779 -5.17353 0
M  V30 7128 H 689.947 -1.65412 -1.33239 0
M  V30 7129 H 692.21 -0.697453 -0.642078 0
M  V30 7130 H 691.916 -2.14997 -2.78333 0
M  V30 7131 H 691.79 -0.666813 -3.71259 0
M  V30 7132 H 694.177 -0.0316152 -2.95083 0
M  V30 7133 H 694.258 -1.54545 -2.03837 0
M  V30 7134 H 693.902 -2.84562 -4.20698 0
M  V30 7135 H 693.832 -1.30647 -5.10136 0
M  V30 7136 H 696.323 -1.32315 -3.53979 0
M  V30 7137 H 696.636 -3.28266 -6.99615 0
M  V30 7138 H 694.981 -2.94589 -6.29478 0
M  V30 7139 H 698.172 -1.71763 -4.35448 0
M  V30 7140 H 698.345 -2.61097 -5.9307 0
M  V30 7141 N 691.751 1.51645 -0.429126 0
M  V30 7142 C 693.167 1.59394 -0.080994 0
M  V30 7143 C 693.367 1.44064 1.40882 0
M  V30 7144 O 692.423 1.27771 2.17786 0
M  V30 7145 C 693.736 2.94779 -0.593773 0
M  V30 7146 C 695.284 3.08067 -0.553494 0
M  V30 7147 C 695.759 4.45963 -1.04311 0
M  V30 7148 N 697.25 4.5226 -1.00076 0
M  V30 7149 C 697.985 5.57268 -1.35056 0
M  V30 7150 N 697.481 6.69734 -1.77282 0
M  V30 7151 N 699.274 5.47582 -1.26925 0
M  V30 7152 H 691.425 1.59856 -1.39857 0
M  V30 7153 H 693.688 0.753095 -0.575805 0
M  V30 7154 H 693.394 3.11342 -1.63583 0
M  V30 7155 H 693.268 3.77197 -0.0142202 0
M  V30 7156 H 695.655 2.91177 0.479556 0
M  V30 7157 H 695.736 2.27508 -1.16935 0
M  V30 7158 H 695.38 4.63598 -2.07459 0
M  V30 7159 H 695.31 5.25049 -0.403873 0
M  V30 7160 H 697.801 3.71537 -0.690564 0
M  V30 7161 H 698.114 7.4587 -2.02232 0
M  V30 7162 H 696.459 6.70963 -1.81202 0
M  V30 7163 H 699.65 4.58604 -0.93809 0
M  V30 7164 H 699.823 6.29308 -1.54516 0
M  V30 7165 N 693.229 0.160201 1.56784 0
M  V30 7166 C 694.645 -0.196089 1.58391 0
M  V30 7167 C 694.845 -1.63689 1.17508 0
M  V30 7168 O 693.901 -2.36613 0.881506 0
M  V30 7169 C 695.214 0.0746449 3.00607 0
M  V30 7170 C 696.762 0.0119762 3.12998 0
M  V30 7171 C 697.237 0.255551 4.57286 0
M  V30 7172 N 698.728 0.202938 4.62755 0
M  V30 7173 C 699.463 0.365731 5.72232 0
M  V30 7174 N 698.959 0.586972 6.90309 0
M  V30 7175 N 700.752 0.302411 5.61286 0
M  V30 7176 H 692.903 1.1008 1.81648 0
M  V30 7177 H 695.166 0.436779 0.841384 0
M  V30 7178 H 694.872 1.07231 3.34954 0
M  V30 7179 H 694.746 -0.638802 3.71751 0
M  V30 7180 H 697.133 -0.976254 2.78484 0
M  V30 7181 H 697.214 0.75796 2.44313 0
M  V30 7182 H 696.858 1.24094 4.92507 0
M  V30 7183 H 696.788 -0.510912 5.24116 0
M  V30 7184 H 699.279 0.0371328 3.77882 0
M  V30 7185 H 699.592 0.700941 7.69615 0
M  V30 7186 H 697.937 0.623453 6.92198 0
M  V30 7187 H 701.128 0.130238 4.67919 0
M  V30 7188 H 701.301 0.432712 6.46554 0
M  V30 7189 N 694.707 -1.5719 -0.113559 0
M  V30 7190 C 695.637 -2.03772 -1.14013 0
M  V30 7191 C 696.618 -0.923176 -1.42869 0
M  V30 7192 O 697.803 -1.19325 -1.53216 0
M  V30 7193 C 694.933 -2.44663 -2.4649 0
M  V30 7194 C 693.887 -3.59612 -2.32085 0
M  V30 7195 C 693.213 -3.8642 -3.69573 0
M  V30 7196 C 694.513 -4.91149 -1.7768 0
M  V30 7197 H 696.207 -2.89785 -0.752665 0
M  V30 7198 H 693.753 -1.39412 -0.360609 0
M  V30 7199 H 695.706 -2.75857 -3.18561 0
M  V30 7200 H 694.43 -1.55628 -2.87137 0
M  V30 7201 H 693.089 -3.28636 -1.62461 0
M  V30 7202 H 692.737 -2.94581 -4.07715 0
M  V30 7203 H 692.437 -4.63797 -3.60786 0
M  V30 7204 H 693.961 -4.2007 -4.4314 0
M  V30 7205 H 695.375 -5.20843 -2.39574 0
M  V30 7206 H 693.772 -5.72562 -1.79701 0
M  V30 7207 H 694.842 -4.79301 -0.734776 0
M  V30 7208 N 696.185 0.383891 -1.52853 0
M  V30 7209 C 697.148 1.45197 -1.77343 0
M  V30 7210 C 698.148 1.47362 -0.643522 0
M  V30 7211 O 699.338 1.48443 -0.911613 0
M  V30 7212 C 696.47 2.8445 -1.87885 0
M  V30 7213 H 697.663 1.24764 -2.72716 0
M  V30 7214 H 695.216 0.615939 -1.43652 0
M  V30 7215 H 695.951 3.10222 -0.94515 0
M  V30 7216 H 695.736 2.8428 -2.70051 0
M  V30 7217 H 697.226 3.61832 -2.08488 0
M  V30 7218 N 697.663 1.43903 0.642637 0
M  V30 7219 C 698.593 1.52697 1.76652 0
M  V30 7220 C 699.574 0.380816 1.65782 0
M  V30 7221 O 700.759 0.599432 1.84717 0
M  V30 7222 C 697.889 1.45975 3.15133 0
M  V30 7223 C 696.843 2.58949 3.40778 0
M  V30 7224 C 696.169 2.37279 4.79169 0
M  V30 7225 C 697.469 4.01153 3.34475 0
M  V30 7226 H 699.163 2.46766 1.69549 0
M  V30 7227 H 696.709 1.18767 0.814279 0
M  V30 7228 H 698.662 1.5073 3.93521 0
M  V30 7229 H 697.386 0.484162 3.22991 0
M  V30 7230 H 696.045 2.53564 2.64765 0
M  V30 7231 H 695.693 1.37939 4.83717 0
M  V30 7232 H 695.393 3.13016 4.97287 0
M  V30 7233 H 696.917 2.43834 5.59801 0
M  V30 7234 H 698.331 4.07968 4.02784 0
M  V30 7235 H 696.728 4.77001 3.64129 0
M  V30 7236 H 697.798 4.25539 2.32475 0
M  V30 7237 N 699.141 -0.881989 1.30609 0
M  V30 7238 C 700.051 -2.02076 1.19174 0
M  V30 7239 C 701.067 -1.73645 0.11102 0
M  V30 7240 O 702.243 -1.98735 0.326528 0
M  V30 7241 C 699.308 -3.3515 0.887438 0
M  V30 7242 C 698.369 -3.76983 2.05383 0
M  V30 7243 C 697.602 -5.03707 1.76395 0
M  V30 7244 O 697.825 -5.66171 0.693302 0
M  V30 7245 O 696.759 -5.42019 2.61723 0
M  V30 7246 H 700.585 -2.14652 2.14845 0
M  V30 7247 H 698.17 -1.00843 1.10232 0
M  V30 7248 H 700.052 -4.14975 0.73306 0
M  V30 7249 H 698.727 -3.23676 -0.0393354 0
M  V30 7250 H 697.634 -2.97849 2.26355 0
M  V30 7251 H 698.967 -3.93066 2.96243 0
M  V30 7252 N 700.619 -1.13374 -1.09472 0
M  V30 7253 C 701.567 -0.806105 -2.18185 0
M  V30 7254 C 702.561 0.21136 -1.68076 0
M  V30 7255 O 703.767 0.0685558 -1.79869 0
M  V30 7256 H 700.142 -0.242901 -0.71169 0
M  V30 7257 H 702.113 -1.73115 -2.43051 0
M  V30 7258 C 700.862 -0.287928 -3.46506 0
M  V30 7259 H 700.185 -1.06217 -3.85432 0
M  V30 7260 H 701.625 -0.0971054 -4.23889 0
M  V30 7261 C 700.084 0.986256 -3.22141 0
M  V30 7262 O 700.614 2.06217 -3.44728 0
M  V30 7263 N 698.82 0.917153 -2.75747 0
M  V30 7264 H 698.367 0.0414609 -2.57567 0
M  V30 7265 H 698.325 1.77029 -2.59823 0
M  V30 7266 N 702.098 1.27442 -0.927168 0
M  V30 7267 C 703.328 1.9821 -0.582775 0
M  V30 7268 C 703.736 1.69361 0.843406 0
M  V30 7269 O 703.079 0.950381 1.57205 0
M  V30 7270 C 703.141 3.52048 -0.728165 0
M  V30 7271 C 702.805 4.04518 -2.12637 0
M  V30 7272 C 703.802 4.17332 -3.10048 0
M  V30 7273 C 701.487 4.38879 -2.44317 0
M  V30 7274 C 703.481 4.6378 -4.37249 0
M  V30 7275 C 701.168 4.85018 -3.71753 0
M  V30 7276 C 702.166 4.97428 -4.68033 0
M  V30 7277 O 701.854 5.42556 -5.93202 0
M  V30 7278 H 701.586 0.639314 -0.219667 0
M  V30 7279 H 704.14 1.63272 -1.24626 0
M  V30 7280 H 702.37 3.86699 -0.00758143 0
M  V30 7281 H 704.059 4.04033 -0.388906 0
M  V30 7282 H 704.825 3.91046 -2.86894 0
M  V30 7283 H 700.704 4.28462 -1.70121 0
M  V30 7284 H 704.248 4.73382 -5.12402 0
M  V30 7285 H 700.145 5.10746 -3.94726 0
M  V30 7286 H 700.913 5.60811 -5.96182 0
M  V30 7287 N 703.576 0.692616 1.41565 0
M  V30 7288 C 704.825 0.219452 2.00503 0
M  V30 7289 C 705.138 -1.18683 1.55479 0
M  V30 7290 O 706.344 -1.75731 2.06956 0
M  V30 7291 C 704.8 0.341451 3.58277 0
M  V30 7292 C 704.408 1.75291 4.12283 0
M  V30 7293 C 706.152 -0.0720899 4.24439 0
M  V30 7294 C 704.059 1.82673 5.62481 0
M  V30 7295 H 702.989 0.0782874 0.749925 0
M  V30 7296 H 705.64 0.860386 1.62079 0
M  V30 7297 H 704.022 -0.367683 3.94289 0
M  V30 7298 H 705.196 2.49057 3.87695 0
M  V30 7299 H 703.511 2.11587 3.58636 0
M  V30 7300 H 706.108 -0.0373385 5.34687 0
M  V30 7301 H 706.451 -1.11034 4.0122 0
M  V30 7302 H 706.984 0.586663 3.9345 0
M  V30 7303 H 703.723 2.84539 5.90523 0
M  V30 7304 H 703.243 1.13288 5.89004 0
M  V30 7305 H 704.922 1.58827 6.27203 0
M  V30 7306 N 705.054 -1.51416 0.437162 0
M  V30 7307 C 706.282 -2.06503 -0.128045 0
M  V30 7308 C 706.697 -1.30461 -1.36475 0
M  V30 7309 O 706.054 -0.364127 -1.78831 0
M  V30 7310 C 706.105 -3.58683 -0.450437 0
M  V30 7311 O 705.826 -4.31853 0.737186 0
M  V30 7312 C 707.327 -4.30284 -1.06633 0
M  V30 7313 H 704.547 -0.670952 -0.00800269 0
M  V30 7314 H 707.091 -1.94996 0.616193 0
M  V30 7315 H 705.246 -3.70106 -1.14457 0
M  V30 7316 H 705.66 -5.22467 0.461347 0
M  V30 7317 H 707.134 -5.37848 -1.24191 0
M  V30 7318 H 707.611 -3.88564 -2.0473 0
M  V30 7319 H 708.217 -4.23304 -0.411585 0
M  V30 7320 N 706.532 -0.168513 -1.56696 0
M  V30 7321 C 707.495 0.748928 -2.16619 0
M  V30 7322 C 708.495 1.16007 -1.11351 0
M  V30 7323 O 709.685 1.07748 -1.3688 0
M  V30 7324 C 706.817 2.01904 -2.74677 0
M  V30 7325 H 708.01 0.227317 -2.99037 0
M  V30 7326 H 705.563 0.0810372 -1.5609 0
M  V30 7327 H 706.298 2.58381 -1.95985 0
M  V30 7328 H 706.083 1.73323 -3.51712 0
M  V30 7329 H 707.573 2.67383 -3.20774 0
M  V30 7330 N 708.01 1.57248 0.105221 0
M  V30 7331 C 708.94 2.04374 1.12931 0
M  V30 7332 C 709.921 0.93074 1.42377 0
M  V30 7333 O 711.106 1.20136 1.52581 0
M  V30 7334 C 708.236 2.45967 2.45189 0
M  V30 7335 C 707.19 3.60838 2.30174 0
M  V30 7336 C 706.516 3.88374 3.67518 0
M  V30 7337 C 707.816 4.92084 1.75073 0
M  V30 7338 H 709.51 2.9018 0.737287 0
M  V30 7339 H 707.056 1.39601 0.353211 0
M  V30 7340 H 709.009 2.77542 3.17094 0
M  V30 7341 H 707.733 1.57148 2.86308 0
M  V30 7342 H 706.392 3.29493 1.60716 0
M  V30 7343 H 706.04 2.96739 4.06147 0
M  V30 7344 H 705.74 4.65703 3.58321 0
M  V30 7345 H 707.264 4.22415 4.40906 0
M  V30 7346 H 708.678 5.22106 2.36809 0
M  V30 7347 H 707.075 5.73507 1.76662 0
M  V30 7348 H 708.145 4.79684 0.709347 0
M  V30 7349 N 709.488 -0.375779 1.53054 0
M  V30 7350 C 710.42 -1.47963 1.75042 0
M  V30 7351 C 711.433 -1.50073 0.631031 0
M  V30 7352 O 712.622 -1.53736 0.907052 0
M  V30 7353 C 709.722 -2.86767 1.80604 0
M  V30 7354 C 708.895 -3.08471 3.10104 0
M  V30 7355 C 707.954 -4.27332 3.07041 0
M  V30 7356 O 706.98 -4.22998 3.80869 0
M  V30 7357 N 708.182 -5.34214 2.27147 0
M  V30 7358 H 710.947 -1.29484 2.70285 0
M  V30 7359 H 708.508 -0.565416 1.51706 0
M  V30 7360 H 710.5 -3.64404 1.76045 0
M  V30 7361 H 709.07 -2.98542 0.926897 0
M  V30 7362 H 708.29 -2.18583 3.28048 0
M  V30 7363 H 709.578 -3.19834 3.95706 0
M  V30 7364 H 708.976 -5.40594 1.66656 0
M  V30 7365 H 707.533 -6.10467 2.28415 0
M  V30 7366 N 710.966 -1.44241 -0.634997 0
M  V30 7367 C 711.929 -1.50457 -1.72903 0
M  V30 7368 C 712.929 -0.387058 -1.56072 0
M  V30 7369 O 714.119 -0.649531 -1.61638 0
M  V30 7370 C 711.251 -1.37477 -3.1195 0
M  V30 7371 H 712.444 -2.47907 -1.68767 0
M  V30 7372 H 709.997 -1.31276 -0.84831 0
M  V30 7373 H 710.732 -0.41106 -3.21684 0
M  V30 7374 H 710.517 -2.18506 -3.25573 0
M  V30 7375 H 712.007 -1.44799 -3.91692 0
M  V30 7376 N 712.444 0.87505 -1.31075 0
M  V30 7377 C 713.69 1.63009 -1.20647 0
M  V30 7378 C 714.023 1.9276 0.236045 0
M  V30 7379 O 713.298 1.55559 1.16754 0
M  V30 7380 C 713.581 2.96357 -2.0456 0
M  V30 7381 C 713.434 2.73516 -3.57084 0
M  V30 7382 C 714.753 3.974 -1.89107 0
M  V30 7383 H 711.872 0.591518 -0.439631 0
M  V30 7384 H 714.514 1.0119 -1.60812 0
M  V30 7385 H 712.664 3.49119 -1.70435 0
M  V30 7386 H 714.336 2.27465 -4.01319 0
M  V30 7387 H 712.579 2.0784 -3.80769 0
M  V30 7388 H 713.25 3.68377 -4.11099 0
M  V30 7389 H 715.726 3.5383 -2.18961 0
M  V30 7390 H 714.602 4.88596 -2.5013 0
M  V30 7391 H 714.863 4.33794 -0.85296 0
M  V30 7392 N 713.922 1.13953 1.08869 0
M  V30 7393 C 715.333 0.916649 1.62648 0
M  V30 7394 C 715.684 -0.545589 1.88462 0
M  V30 7395 O 714.809 -1.41351 1.63856 0
M  V30 7396 C 715.404 1.65751 2.95486 0
M  V30 7397 C 713.963 1.48034 3.46068 0
M  V30 7398 C 713.11 1.68305 2.20383 0
M  V30 7399 H 716.061 1.292 0.921572 0
M  V30 7400 H 716.082 1.11794 3.63707 0
M  V30 7401 H 715.594 2.72171 2.76667 0
M  V30 7402 H 713.695 0.439416 3.7 0
M  V30 7403 H 713.808 2.24719 4.23129 0
M  V30 7404 H 712.172 1.10833 2.29321 0
M  V30 7405 H 712.955 2.76057 2.04077 0
M  V30 7406 N 715.4 -1.26948 0.933913 0
M  V30 7407 C 716.811 -1.76058 0.621324 0
M  V30 7408 C 717.162 -1.76175 -0.863522 0
M  V30 7409 O 716.287 -1.36921 -1.67576 0
M  V30 7410 C 716.882 -3.19713 1.12111 0
M  V30 7411 C 715.441 -3.66465 0.859074 0
M  V30 7412 C 714.588 -2.46186 1.27624 0
M  V30 7413 H 717.539 -1.13127 1.11301 0
M  V30 7414 H 717.56 -3.77566 0.471608 0
M  V30 7415 H 717.072 -3.19596 2.20182 0
M  V30 7416 H 715.173 -3.72021 -0.207566 0
M  V30 7417 H 715.286 -4.55636 1.48098 0
M  V30 7418 H 713.65 -2.45042 0.694727 0
M  V30 7419 H 714.433 -2.48774 2.36572 0
M  V30 7420 N 716.879 -0.700114 -1.41195 0
M  V30 7421 C 718.295 -0.372114 -1.55201 0
M  V30 7422 C 718.495 1.12053 -1.6747 0
M  V30 7423 O 717.551 1.90642 -1.65566 0
M  V30 7424 C 718.864 -1.12462 -2.78878 0
M  V30 7425 C 720.412 -1.10941 -2.92679 0
M  V30 7426 C 720.887 -1.84376 -4.19249 0
M  V30 7427 N 722.378 -1.81368 -4.26216 0
M  V30 7428 C 723.113 -2.35024 -5.23021 0
M  V30 7429 N 722.609 -2.9717 -6.25829 0
M  V30 7430 N 724.402 -2.25254 -5.14992 0
M  V30 7431 H 716.553 -1.66816 -1.31477 0
M  V30 7432 H 718.816 -0.704223 -0.634644 0
M  V30 7433 H 718.522 -2.17937 -2.76037 0
M  V30 7434 H 718.396 -0.706152 -3.70531 0
M  V30 7435 H 720.783 -0.062911 -2.95033 0
M  V30 7436 H 720.864 -1.56698 -2.02187 0
M  V30 7437 H 720.508 -2.89008 -4.17656 0
M  V30 7438 H 720.438 -1.3605 -5.08722 0
M  V30 7439 H 722.929 -1.36062 -3.52556 0
M  V30 7440 H 723.242 -3.35668 -6.96094 0
M  V30 7441 H 721.587 -3.01249 -6.26318 0
M  V30 7442 H 724.778 -1.76372 -4.33602 0
M  V30 7443 H 724.951 -2.67373 -5.90268 0
M  V30 7444 N 718.357 1.51182 -0.445186 0
M  V30 7445 C 719.768 1.86693 0.0160999 0
M  V30 7446 C 720.119 1.36183 1.4124 0
M  V30 7447 O 719.244 0.715895 2.04215 0
M  V30 7448 C 719.839 3.38781 0.0359918 0
M  V30 7449 C 718.398 3.73799 0.441715 0
M  V30 7450 C 717.545 2.74947 -0.360511 0
M  V30 7451 H 720.496 1.44294 -0.660674 0
M  V30 7452 H 720.517 3.71026 0.843813 0
M  V30 7453 H 720.029 3.75513 -0.980378 0
M  V30 7454 H 718.13 3.42659 1.4634 0
M  V30 7455 H 718.243 4.78829 0.16106 0
M  V30 7456 H 716.607 2.54047 0.182269 0
M  V30 7457 H 717.39 3.14521 -1.3759 0
M  V30 7458 N 719.835 0.176821 1.56605 0
M  V30 7459 C 721.251 -0.179278 1.5859 0
M  V30 7460 C 721.451 -1.62433 1.19238 0
M  V30 7461 O 720.507 -2.35665 0.906552 0
M  V30 7462 C 721.82 0.106524 3.00511 0
M  V30 7463 C 723.368 0.0451731 3.12967 0
M  V30 7464 C 723.843 0.304038 4.5699 0
M  V30 7465 N 725.334 0.252008 4.62514 0
M  V30 7466 C 726.069 0.426404 5.71812 0
M  V30 7467 N 725.565 0.660155 6.89648 0
M  V30 7468 N 727.358 0.361926 5.60934 0
M  V30 7469 H 719.509 1.12001 1.8047 0
M  V30 7470 H 721.772 0.445679 0.836704 0
M  V30 7471 H 721.478 1.10778 3.33798 0
M  V30 7472 H 721.352 -0.599337 3.72408 0
M  V30 7473 H 723.739 -0.946662 2.79504 0
M  V30 7474 H 723.82 0.78383 2.43495 0
M  V30 7475 H 723.464 1.29311 4.91163 0
M  V30 7476 H 723.394 -0.455294 5.24628 0
M  V30 7477 H 725.885 0.0772102 3.77821 0
M  V30 7478 H 726.198 0.782529 7.68828 0
M  V30 7479 H 724.543 0.696835 6.91498 0
M  V30 7480 H 727.734 0.17986 4.67754 0
M  V30 7481 H 727.907 0.501263 6.46058 0
M  V30 7482 N 721.313 -1.57302 -0.09688 0
M  V30 7483 C 722.263 -1.98369 -1.12399 0
M  V30 7484 C 723.247 -0.861872 -1.3587 0
M  V30 7485 O 724.439 -1.1257 -1.36591 0
M  V30 7486 C 721.568 -2.41017 -2.4447 0
M  V30 7487 C 720.654 -3.59881 -2.24381 0
M  V30 7488 N 721.045 -4.74872 -1.74155 0
M  V30 7489 C 719.343 -3.65943 -2.54954 0
M  V30 7490 C 720.044 -5.56823 -1.68294 0
M  V30 7491 N 719.02 -4.99942 -2.13444 0
M  V30 7492 H 722.822 -2.84726 -0.728575 0
M  V30 7493 H 720.336 -1.59523 -0.304332 0
M  V30 7494 H 722.333 -2.68665 -3.18786 0
M  V30 7495 H 720.993 -1.56036 -2.84751 0
M  V30 7496 H 722.004 -4.97657 -1.43379 0
M  V30 7497 H 718.681 -2.9162 -2.98771 0
M  V30 7498 H 720.071 -6.59099 -1.30528 0
M  V30 7499 N 722.791 0.367657 -1.53252 0
M  V30 7500 C 724.037 1.11216 -1.69584 0
M  V30 7501 C 724.37 1.89026 -0.445269 0
M  V30 7502 O 723.645 1.86342 0.557404 0
M  V30 7503 C 723.928 2.07308 -2.94441 0
M  V30 7504 C 723.781 1.3312 -4.2965 0
M  V30 7505 C 725.1 3.07459 -3.14892 0
M  V30 7506 H 722.219 0.40294 -0.617096 0
M  V30 7507 H 724.861 0.393201 -1.85887 0
M  V30 7508 H 723.011 2.68617 -2.80673 0
M  V30 7509 H 724.683 0.746111 -4.55226 0
M  V30 7510 H 722.926 0.633051 -4.29156 0
M  V30 7511 H 723.597 2.03443 -5.13142 0
M  V30 7512 H 726.073 2.56252 -3.27832 0
M  V30 7513 H 724.949 3.71919 -4.03693 0
M  V30 7514 H 725.21 3.77514 -2.30077 0
M  V30 7515 N 724.269 1.44576 0.627338 0
M  V30 7516 C 725.516 1.47558 1.38682 0
M  V30 7517 C 725.844 0.109636 1.94191 0
M  V30 7518 O 725.099 -0.889092 1.74338 0
M  V30 7519 C 725.398 2.48644 2.56731 0
M  V30 7520 C 725.064 3.93873 2.19489 0
M  V30 7521 C 723.726 4.33421 2.09045 0
M  V30 7522 C 726.078 4.85286 1.90124 0
M  V30 7523 C 723.406 5.62303 1.6743 0
M  V30 7524 C 725.758 6.14559 1.50001 0
M  V30 7525 C 724.422 6.53058 1.38101 0
M  V30 7526 H 723.692 0.539955 0.507474 0
M  V30 7527 H 726.339 1.77811 0.711021 0
M  V30 7528 H 724.644 2.11889 3.29561 0
M  V30 7529 H 726.341 2.48197 3.14959 0
M  V30 7530 H 722.931 3.62587 2.28537 0
M  V30 7531 H 727.115 4.55483 1.971 0
M  V30 7532 H 722.371 5.90945 1.56823 0
M  V30 7533 H 726.545 6.84848 1.26319 0
M  V30 7534 H 724.172 7.52826 1.05628 0
M  V30 7535 N 725.747 -0.868086 1.31537 0
M  V30 7536 C 726.695 -1.99688 1.1928 0
M  V30 7537 C 727.689 -1.69101 0.100656 0
M  V30 7538 O 728.895 -1.78073 0.262677 0
M  V30 7539 H 725.27 -0.655032 0.369374 0
M  V30 7540 H 727.241 -2.07157 2.14776 0
M  V30 7541 C 725.99 -3.35338 0.918892 0
M  V30 7542 H 725.313 -3.59396 1.75142 0
M  V30 7543 H 726.753 -4.14909 0.873311 0
M  V30 7544 C 725.212 -3.34769 -0.378366 0
M  V30 7545 O 725.742 -3.76716 -1.39456 0
M  V30 7546 N 723.948 -2.87895 -0.39557 0
M  V30 7547 H 723.495 -2.53954 0.431889 0
M  V30 7548 H 723.453 -2.87897 -1.26344 0
M  V30 7549 N 727.225 -1.14528 -1.08264 0
M  V30 7550 C 728.158 -0.777154 -2.14559 0
M  V30 7551 C 729.136 0.242165 -1.60787 0
M  V30 7552 O 730.32 0.130882 -1.88045 0
M  V30 7553 C 727.447 -0.154092 -3.38349 0
M  V30 7554 C 726.493 -1.14382 -4.10876 0
M  V30 7555 S 727.326 -2.68173 -4.63512 0
M  V30 7556 C 728.482 -2.0726 -5.90588 0
M  V30 7557 H 728.715 -1.67748 -2.45454 0
M  V30 7558 H 726.248 -0.966661 -1.20395 0
M  V30 7559 H 728.206 0.19897 -4.10018 0
M  V30 7560 H 726.867 0.723688 -3.05649 0
M  V30 7561 H 726.06 -0.655908 -4.99714 0
M  V30 7562 H 725.662 -1.44095 -3.45127 0
M  V30 7563 H 727.954 -1.42895 -6.62259 0
M  V30 7564 H 728.897 -2.94227 -6.44078 0
M  V30 7565 H 729.305 -1.51935 -5.43669 0
M  V30 7566 N 728.703 1.26451 -0.940633 0
M  V30 7567 C 729.633 2.28773 -0.467479 0
M  V30 7568 C 730.614 1.63218 0.478955 0
M  V30 7569 O 731.799 1.90427 0.380929 0
M  V30 7570 C 728.929 3.46259 0.268656 0
M  V30 7571 C 727.883 4.23898 -0.591171 0
M  V30 7572 C 727.209 5.33993 0.274891 0
M  V30 7573 C 728.509 4.87974 -1.86223 0
M  V30 7574 H 730.203 2.68601 -1.32265 0
M  V30 7575 H 727.749 1.29123 -0.637436 0
M  V30 7576 H 729.702 4.16951 0.610696 0
M  V30 7577 H 728.426 3.05383 1.15796 0
M  V30 7578 H 727.085 3.54969 -0.916098 0
M  V30 7579 H 726.733 4.89358 1.16353 0
M  V30 7580 H 726.433 5.86849 -0.297006 0
M  V30 7581 H 727.957 6.07523 0.612213 0
M  V30 7582 H 729.371 5.50883 -1.58747 0
M  V30 7583 H 727.768 5.50945 -2.37866 0
M  V30 7584 H 728.838 4.10945 -2.57394 0
M  V30 7585 N 730.181 0.707592 1.40822 0
M  V30 7586 C 731.128 0.0499029 2.30746 0
M  V30 7587 C 732.098 -0.758718 1.47759 0
M  V30 7588 O 733.283 -0.724299 1.76518 0
M  V30 7589 C 730.423 -0.871756 3.33908 0
M  V30 7590 C 729.536 -0.0534655 4.31967 0
M  V30 7591 C 728.671 -0.973869 5.22197 0
M  V30 7592 C 727.71 -0.149194 6.11918 0
M  V30 7593 N 726.847 -1.02404 6.94592 0
M  V30 7594 H 731.687 0.822461 2.86426 0
M  V30 7595 H 729.224 0.417285 1.41057 0
M  V30 7596 H 731.182 -1.42028 3.9228 0
M  V30 7597 H 729.812 -1.61058 2.7975 0
M  V30 7598 H 728.864 0.612142 3.75442 0
M  V30 7599 H 730.176 0.585354 4.95353 0
M  V30 7600 H 729.33 -1.59121 5.85462 0
M  V30 7601 H 728.069 -1.64652 4.59065 0
M  V30 7602 H 727.074 0.481137 5.47691 0
M  V30 7603 H 728.299 0.519841 6.77107 0
M  V30 7604 H 726.245 -1.6825 6.34057 0
M  V30 7605 H 726.162 -0.441076 7.54712 0
M  V30 7606 H 727.43 -1.62782 7.62314 0
M  V30 7607 N 731.66 -1.50943 0.453197 0
M  V30 7608 C 732.607 -2.28128 -0.350197 0
M  V30 7609 C 733.577 -1.32398 -1.00299 0
M  V30 7610 O 734.762 -1.61319 -1.01887 0
M  V30 7611 C 731.902 -3.13782 -1.43649 0
M  V30 7612 C 731.015 -4.24523 -0.800255 0
M  V30 7613 C 730.15 -4.97462 -1.86293 0
M  V30 7614 C 729.189 -6.00102 -1.20598 0
M  V30 7615 N 728.326 -6.66387 -2.21071 0
M  V30 7616 H 733.166 -2.96337 0.31434 0
M  V30 7617 H 730.703 -1.46151 0.166863 0
M  V30 7618 H 732.661 -3.6178 -2.07776 0
M  V30 7619 H 731.291 -2.47655 -2.07044 0
M  V30 7620 H 730.343 -3.80371 -0.0468651 0
M  V30 7621 H 731.655 -4.98009 -0.280777 0
M  V30 7622 H 730.809 -5.49088 -2.58044 0
M  V30 7623 H 729.548 -4.23642 -2.41617 0
M  V30 7624 H 728.553 -5.47753 -0.474 0
M  V30 7625 H 729.778 -6.75887 -0.659859 0
M  V30 7626 H 727.724 -5.9537 -2.75446 0
M  V30 7627 H 727.641 -7.3569 -1.74058 0
M  V30 7628 H 728.909 -7.22638 -2.92257 0
M  V30 7629 N 733.138 -0.185124 -1.56509 0
M  V30 7630 C 734.368 0.461469 -2.0138 0
M  V30 7631 C 734.776 1.56417 -1.06445 0
M  V30 7632 O 734.119 1.83603 -0.0597515 0
M  V30 7633 C 734.181 1.08731 -3.42663 0
M  V30 7634 C 733.845 0.124581 -4.5683 0
M  V30 7635 C 734.842 -0.662295 -5.15664 0
M  V30 7636 C 732.527 0.0163947 -5.02297 0
M  V30 7637 C 734.521 -1.54442 -6.18406 0
M  V30 7638 C 732.208 -0.869301 -6.04885 0
M  V30 7639 C 733.206 -1.64828 -6.62813 0
M  V30 7640 O 732.894 -2.51915 -7.63409 0
M  V30 7641 H 732.626 0.1212 -0.665046 0
M  V30 7642 H 735.18 -0.288119 -2.03369 0
M  V30 7643 H 733.41 1.8853 -3.37629 0
M  V30 7644 H 735.099 1.63753 -3.71403 0
M  V30 7645 H 735.865 -0.588963 -4.81411 0
M  V30 7646 H 731.744 0.61253 -4.56913 0
M  V30 7647 H 735.288 -2.15289 -6.63548 0
M  V30 7648 H 731.185 -0.943786 -6.38563 0
M  V30 7649 H 731.953 -2.45584 -7.80789 0
M  V30 7650 N 734.616 1.57351 0.0885366 0
M  V30 7651 C 735.862 1.86696 0.791996 0
M  V30 7652 C 736.195 0.775148 1.78059 0
M  V30 7653 O 735.47 -0.216247 1.93294 0
M  V30 7654 C 735.753 3.26684 1.51491 0
M  V30 7655 C 735.606 4.465 0.543858 0
M  V30 7656 C 736.925 3.64664 2.46391 0
M  V30 7657 H 734.044 0.679049 0.286463 0
M  V30 7658 H 736.686 1.89919 0.0554866 0
M  V30 7659 H 734.836 3.24067 2.14273 0
M  V30 7660 H 736.508 4.61235 -0.0774597 0
M  V30 7661 H 734.751 4.33567 -0.142228 0
M  V30 7662 H 735.422 5.41192 1.08696 0
M  V30 7663 H 737.898 3.68267 1.93698 0
M  V30 7664 H 736.774 4.63534 2.93986 0
M  V30 7665 H 737.035 2.93698 3.30445 0
M  V30 7666 N 736.094 -0.359525 1.53444 0
M  V30 7667 C 737.51 -0.701599 1.43352 0
M  V30 7668 C 737.71 -1.93049 0.577439 0
M  V30 7669 O 736.766 -2.52423 0.0622224 0
M  V30 7670 C 738.079 -0.90915 2.86627 0
M  V30 7671 C 739.627 -1.00878 2.96298 0
M  V30 7672 C 740.102 -1.24876 4.40647 0
M  V30 7673 N 741.593 -1.31632 4.44103 0
M  V30 7674 C 742.328 -1.51922 5.52908 0
M  V30 7675 N 741.824 -1.69489 6.71748 0
M  V30 7676 N 743.617 -1.54341 5.40496 0
M  V30 7677 H 735.768 0.448685 2.07607 0
M  V30 7678 H 738.031 0.138713 0.937797 0
M  V30 7679 H 737.737 -0.0778997 3.51614 0
M  V30 7680 H 737.611 -1.81551 3.30634 0
M  V30 7681 H 739.998 -1.83057 2.31461 0
M  V30 7682 H 740.079 -0.0796721 2.55676 0
M  V30 7683 H 739.723 -0.431961 5.0606 0
M  V30 7684 H 739.653 -2.19118 4.78848 0
M  V30 7685 H 742.144 -1.19646 3.5846 0
M  V30 7686 H 742.457 -1.84561 7.50438 0
M  V30 7687 H 740.802 -1.66655 6.74723 0
M  V30 7688 H 743.993 -1.40188 4.46615 0
M  V30 7689 H 744.166 -1.69812 6.25354 0
M  V30 7690 N 737.572 -1.44907 -0.619662 0
M  V30 7691 C 738.535 -1.52282 -1.71297 0
M  V30 7692 C 739.535 -0.40359 -1.55653 0
M  V30 7693 O 740.725 -0.666638 -1.6094 0
M  V30 7694 C 737.857 -1.40778 -3.10474 0
M  V30 7695 H 739.05 -2.49683 -1.66128 0
M  V30 7696 H 736.603 -1.32168 -0.834339 0
M  V30 7697 H 737.338 -0.445156 -3.2123 0
M  V30 7698 H 737.123 -2.21947 -3.23237 0
M  V30 7699 H 738.613 -1.48946 -3.90135 0
M  V30 7700 N 739.05 0.861098 -1.31996 0
M  V30 7701 C 739.96 2.00154 -1.22374 0
M  V30 7702 C 740.976 1.73447 -0.138631 0
M  V30 7703 O 742.152 1.98191 -0.358104 0
M  V30 7704 C 739.217 3.33696 -0.940645 0
M  V30 7705 C 738.278 3.73668 -2.11355 0
M  V30 7706 C 737.511 5.00837 -1.84386 0
M  V30 7707 O 737.734 5.64996 -0.783287 0
M  V30 7708 O 736.668 5.37787 -2.70313 0
M  V30 7709 H 740.494 2.11207 -2.18233 0
M  V30 7710 H 738.079 0.990768 -1.11822 0
M  V30 7711 H 739.961 4.13756 -0.798987 0
M  V30 7712 H 738.636 3.23698 -0.0121636 0
M  V30 7713 H 737.543 2.94211 -2.31065 0
M  V30 7714 H 738.876 3.88303 -3.02459 0
M  V30 7715 N 740.528 1.15101 1.07655 0
M  V30 7716 C 741.46 0.802722 2.14684 0
M  V30 7717 C 742.473 -0.183874 1.61758 0
M  V30 7718 O 743.662 0.0389349 1.78458 0
M  V30 7719 C 740.762 0.172135 3.38463 0
M  V30 7720 C 739.935 1.19538 4.20749 0
M  V30 7721 C 738.994 0.58714 5.22914 0
M  V30 7722 O 738.02 1.25224 5.55255 0
M  V30 7723 N 739.222 -0.632566 5.77043 0
M  V30 7724 H 741.987 1.72379 2.45164 0
M  V30 7725 H 739.548 1.04647 1.23534 0
M  V30 7726 H 741.54 -0.247465 4.03943 0
M  V30 7727 H 740.11 -0.652214 3.0572 0
M  V30 7728 H 739.33 1.79165 3.51132 0
M  V30 7729 H 740.618 1.88636 4.7254 0
M  V30 7730 H 740.016 -1.19135 5.53013 0
M  V30 7731 H 738.573 -0.994566 6.44167 0
M  V30 7732 N 742.006 -1.2595 0.947325 0
M  V30 7733 C 742.953 -2.26159 0.460497 0
M  V30 7734 C 743.923 -1.58919 -0.483125 0
M  V30 7735 O 745.108 -1.86603 -0.397983 0
M  V30 7736 C 742.248 -3.441 -0.26247 0
M  V30 7737 C 741.361 -4.25999 0.717539 0
M  V30 7738 C 740.496 -5.31193 -0.0272486 0
M  V30 7739 C 739.535 -6.04774 0.944177 0
M  V30 7740 N 738.672 -7.01721 0.230741 0
M  V30 7741 H 743.512 -2.67173 1.31995 0
M  V30 7742 H 741.049 -1.31358 0.662088 0
M  V30 7743 H 743.007 -4.11317 -0.698137 0
M  V30 7744 H 741.637 -3.03983 -1.08602 0
M  V30 7745 H 740.689 -3.58513 1.27171 0
M  V30 7746 H 742.001 -4.76981 1.45913 0
M  V30 7747 H 741.155 -6.04451 -0.521903 0
M  V30 7748 H 739.894 -4.81066 -0.801682 0
M  V30 7749 H 738.899 -5.30338 1.4499 0
M  V30 7750 H 740.124 -6.56991 1.71872 0
M  V30 7751 H 738.07 -6.53895 -0.525088 0
M  V30 7752 H 737.987 -7.50484 0.911556 0
M  V30 7753 H 739.255 -7.79122 -0.242616 0
M  V30 7754 N 743.484 -0.715051 -1.40445 0
M  V30 7755 C 744.761 -0.181503 -1.94756 0
M  V30 7756 C 745.141 1.31268 -1.65324 0
M  V30 7757 O 744.489 2.0686 -0.970631 0
M  V30 7758 C 744.699 -0.493663 -3.45491 0
M  V30 7759 C 746.047 -0.432032 -4.22396 0
M  V30 7760 O 747.071 -0.429692 -3.53599 0
M  V30 7761 O 745.93 -0.409091 -5.44967 0
M  V30 7762 H 743.024 -0.0263989 -0.826579 0
M  V30 7763 H 745.57 -0.792546 -1.50056 0
M  V30 7764 H 744.342 -1.52713 -3.6027 0
M  V30 7765 H 743.965 0.14737 -3.97327 0
M  V30 7766 N 744.962 1.50701 -0.461195 0
M  V30 7767 C 746.378 1.59187 -0.114786 0
M  V30 7768 C 746.578 1.4702 1.37794 0
M  V30 7769 O 745.634 1.32361 2.15027 0
M  V30 7770 C 746.947 2.93453 -0.656167 0
M  V30 7771 C 748.495 3.06824 -0.618715 0
M  V30 7772 C 748.97 4.4365 -1.13747 0
M  V30 7773 N 750.461 4.50035 -1.09646 0
M  V30 7774 C 751.196 5.54278 -1.46846 0
M  V30 7775 N 750.692 6.65822 -1.91448 0
M  V30 7776 N 752.485 5.44767 -1.38512 0
M  V30 7777 H 744.636 1.56853 -1.43216 0
M  V30 7778 H 746.899 0.740712 -0.59165 0
M  V30 7779 H 746.605 3.07802 -1.7015 0
M  V30 7780 H 746.479 3.77082 -0.0942261 0
M  V30 7781 H 748.866 2.92129 0.417685 0
M  V30 7782 H 748.947 2.24976 -1.21734 0
M  V30 7783 H 748.591 4.59093 -2.17245 0
M  V30 7784 H 748.521 5.24074 -0.515153 0
M  V30 7785 H 751.012 3.69988 -0.769217 0
M  V30 7786 H 751.325 7.41413 -2.18007 0
M  V30 7787 H 749.67 6.66968 -1.95393 0
M  V30 7788 H 752.861 4.56511 -1.03516 0
M  V30 7789 H 753.034 6.25889 -1.6783 0
M  V30 7790 N 746.441 0.193421 1.56409 0
M  V30 7791 C 747.373 -0.759944 2.16235 0
M  V30 7792 C 748.386 -1.17797 1.12373 0
M  V30 7793 O 749.575 -1.11399 1.39472 0
M  V30 7794 C 746.675 -2.03735 2.70823 0
M  V30 7795 C 745.848 -1.77939 3.9957 0
M  V30 7796 C 744.907 -2.90111 4.39001 0
M  V30 7797 O 743.933 -2.59791 5.06456 0
M  V30 7798 N 745.135 -4.18426 4.02368 0
M  V30 7799 H 747.9 -0.248348 2.98669 0
M  V30 7800 H 745.461 0.0113966 1.61896 0
M  V30 7801 H 747.453 -2.77914 2.94187 0
M  V30 7802 H 746.023 -2.46022 1.92852 0
M  V30 7803 H 745.243 -0.875491 3.84355 0
M  V30 7804 H 746.531 -1.58099 4.83614 0
M  V30 7805 H 745.929 -4.45913 3.48106 0
M  V30 7806 H 744.486 -4.89237 4.30686 0
M  V30 7807 N 747.919 -1.57396 -0.0801906 0
M  V30 7808 C 748.869 -1.9955 -1.10289 0
M  V30 7809 C 749.853 -0.876234 -1.34948 0
M  V30 7810 O 751.045 -1.14012 -1.35389 0
M  V30 7811 C 748.174 -2.43596 -2.419 0
M  V30 7812 C 747.26 -3.6224 -2.20551 0
M  V30 7813 N 747.651 -4.76693 -1.69109 0
M  V30 7814 C 745.949 -3.68627 -2.51059 0
M  V30 7815 C 746.65 -5.58577 -1.62379 0
M  V30 7816 N 745.626 -5.02178 -2.0813 0
M  V30 7817 H 749.428 -2.85483 -0.698335 0
M  V30 7818 H 746.942 -1.59837 -0.287395 0
M  V30 7819 H 748.939 -2.72031 -3.15919 0
M  V30 7820 H 747.599 -1.59047 -2.8308 0
M  V30 7821 H 748.61 -4.9915 -1.38092 0
M  V30 7822 H 745.287 -2.94772 -2.95661 0
M  V30 7823 H 746.677 -6.60447 -1.2353 0
M  V30 7824 N 749.397 0.351382 -1.53633 0
M  V30 7825 C 750.625 1.11275 -1.74429 0
M  V30 7826 C 751.04 1.82602 -0.479798 0
M  V30 7827 O 750.397 1.74074 0.548125 0
M  V30 7828 C 750.448 2.13223 -2.91921 0
M  V30 7829 O 750.169 1.44798 -4.13479 0
M  V30 7830 C 751.67 3.01797 -3.24706 0
M  V30 7831 H 748.89 0.332153 -0.583023 0
M  V30 7832 H 751.434 0.405974 -2.0043 0
M  V30 7833 H 749.589 2.79477 -2.68274 0
M  V30 7834 H 750.003 2.12839 -4.79374 0
M  V30 7835 H 751.477 3.69282 -4.10286 0
M  V30 7836 H 751.954 3.67387 -2.40673 0
M  V30 7837 H 752.56 2.41141 -3.5033 0
M  V30 7838 N 750.875 1.45233 0.611969 0
M  V30 7839 C 751.805 1.5641 1.73373 0
M  V30 7840 C 752.786 0.415896 1.64937 0
M  V30 7841 O 753.971 0.638478 1.83404 0
M  V30 7842 C 751.101 1.52627 3.11965 0
M  V30 7843 C 750.055 2.66119 3.35208 0
M  V30 7844 C 749.381 2.4739 4.74028 0
M  V30 7845 C 750.681 4.08157 3.25891 0
M  V30 7846 H 752.375 2.50307 1.64277 0
M  V30 7847 H 749.921 1.20467 0.788904 0
M  V30 7848 H 751.874 1.59043 3.90235 0
M  V30 7849 H 750.598 0.552564 3.21892 0
M  V30 7850 H 749.257 2.59123 2.59327 0
M  V30 7851 H 748.905 1.48168 4.80682 0
M  V30 7852 H 748.605 3.23494 4.90536 0
M  V30 7853 H 750.129 2.55653 5.54503 0
M  V30 7854 H 751.543 4.1642 3.9404 0
M  V30 7855 H 749.94 4.84617 3.5393 0
M  V30 7856 H 751.01 4.30374 2.23397 0
M  V30 7857 N 752.353 -0.854086 1.3245 0
M  V30 7858 C 753.3 -1.96271 1.21434 0
M  V30 7859 C 754.27 -1.6582 0.0963851 0
M  V30 7860 O 755.455 -1.88851 0.27203 0
M  V30 7861 C 752.595 -3.31939 0.943952 0
M  V30 7862 C 751.708 -3.74885 2.14675 0
M  V30 7863 C 750.843 -4.99347 1.81179 0
M  V30 7864 C 749.882 -5.34785 2.97777 0
M  V30 7865 N 749.019 -6.50425 2.6437 0
M  V30 7866 H 753.859 -2.05025 2.16261 0
M  V30 7867 H 751.396 -1.00348 1.07558 0
M  V30 7868 H 753.354 -4.10076 0.767675 0
M  V30 7869 H 751.984 -3.22784 0.0324763 0
M  V30 7870 H 751.036 -2.92396 2.43328 0
M  V30 7871 H 752.348 -3.97068 3.01891 0
M  V30 7872 H 751.502 -5.85193 1.60107 0
M  V30 7873 H 750.241 -4.79101 0.911777 0
M  V30 7874 H 749.246 -4.47451 3.1948 0
M  V30 7875 H 750.471 -5.56988 3.88511 0
M  V30 7876 H 748.417 -6.31695 1.7691 0
M  V30 7877 H 748.334 -6.7263 3.45116 0
M  V30 7878 H 749.602 -7.39422 2.46729 0
M  V30 7879 N 753.831 -1.1567 -1.07043 0
M  V30 7880 C 754.781 -0.824733 -2.12561 0
M  V30 7881 C 755.765 0.19243 -1.59745 0
M  V30 7882 O 756.957 -0.00728759 -1.76998 0
M  V30 7883 C 754.086 -0.31921 -3.41813 0
M  V30 7884 C 753.172 -1.36671 -4.01475 0
M  V30 7885 N 753.563 -2.57493 -4.35351 0
M  V30 7886 C 751.861 -1.22018 -4.28984 0
M  V30 7887 C 752.562 -3.24658 -4.82672 0
M  V30 7888 N 751.538 -2.52043 -4.81638 0
M  V30 7889 H 755.34 -1.74363 -2.3659 0
M  V30 7890 H 752.854 -1.04262 -1.24511 0
M  V30 7891 H 754.851 -0.0630216 -4.16852 0
M  V30 7892 H 753.511 0.593708 -3.19226 0
M  V30 7893 H 754.522 -2.94612 -4.25939 0
M  V30 7894 H 751.199 -0.367414 -4.1588 0
M  V30 7895 H 752.589 -4.2775 -5.1815 0
M  V30 7896 N 755.309 1.25446 -0.953992 0
M  V30 7897 C 756.556 1.93143 -0.608429 0
M  V30 7898 C 756.884 1.74727 0.854451 0
M  V30 7899 O 756.139 1.0855 1.62836 0
M  V30 7900 C 756.438 3.45555 -0.912496 0
M  V30 7901 C 756.104 3.84126 -2.36131 0
M  V30 7902 C 754.766 3.94367 -2.75732 0
M  V30 7903 C 757.118 4.0324 -3.30223 0
M  V30 7904 C 754.446 4.21127 -4.08496 0
M  V30 7905 C 756.798 4.31493 -4.62598 0
M  V30 7906 C 755.462 4.3995 -5.01996 0
M  V30 7907 H 754.732 0.706762 -0.22264 0
M  V30 7908 H 757.379 1.49005 -1.20291 0
M  V30 7909 H 755.684 3.91091 -0.235618 0
M  V30 7910 H 757.381 3.9612 -0.623714 0
M  V30 7911 H 753.971 3.76711 -2.04418 0
M  V30 7912 H 758.155 3.94744 -3.00817 0
M  V30 7913 H 753.411 4.2589 -4.38665 0
M  V30 7914 H 757.585 4.45227 -5.35486 0
M  V30 7915 H 755.212 4.60439 -6.04896 0
M  V30 7916 N 756.787 0.722489 1.40064 0
M  V30 7917 C 757.697 0.0755984 2.34478 0
M  V30 7918 C 758.713 -0.736046 1.57665 0
M  V30 7919 O 759.889 -0.667407 1.9002 0
M  V30 7920 C 756.954 -0.830075 3.36616 0
M  V30 7921 C 756.015 -0.00759884 4.29299 0
M  V30 7922 C 755.248 -0.870139 5.26559 0
M  V30 7923 O 755.471 -2.10921 5.2997 0
M  V30 7924 O 754.405 -0.305454 6.01124 0
M  V30 7925 H 758.231 0.854545 2.9143 0
M  V30 7926 H 755.816 0.483032 1.41376 0
M  V30 7927 H 757.698 -1.34864 3.99236 0
M  V30 7928 H 756.373 -1.58805 2.82069 0
M  V30 7929 H 755.28 0.556199 3.69942 0
M  V30 7930 H 756.613 0.712312 4.87018 0
M  V30 7931 N 758.265 -1.50454 0.469181 0
M  V30 7932 C 759.215 -2.25381 -0.344582 0
M  V30 7933 C 760.199 -1.28892 -0.963098 0
M  V30 7934 O 761.391 -1.53805 -0.875964 0
M  V30 7935 C 758.52 -3.12232 -1.4271 0
M  V30 7936 C 757.606 -4.16168 -0.816411 0
M  V30 7937 N 757.997 -5.05762 0.0621424 0
M  V30 7938 C 756.295 -4.32712 -1.08056 0
M  V30 7939 C 756.996 -5.80264 0.408519 0
M  V30 7940 N 755.972 -5.43171 -0.215827 0
M  V30 7941 H 759.774 -2.92016 0.332237 0
M  V30 7942 H 757.288 -1.59911 0.283209 0
M  V30 7943 H 759.285 -3.64514 -2.02324 0
M  V30 7944 H 757.945 -2.47145 -2.10593 0
M  V30 7945 H 758.956 -5.16105 0.430841 0
M  V30 7946 H 755.633 -3.78844 -1.75452 0
M  V30 7947 H 757.023 -6.62408 1.12539 0
M  V30 7948 N 759.743 -0.201713 -1.56304 0
M  V30 7949 C 760.989 0.435952 -1.98059 0
M  V30 7950 C 761.322 1.60811 -1.08873 0
M  V30 7951 O 760.597 1.9398 -0.142128 0
M  V30 7952 C 760.88 0.889706 -3.48936 0
M  V30 7953 C 760.733 -0.284725 -4.48898 0
M  V30 7954 C 762.052 1.7529 -4.03685 0
M  V30 7955 H 759.171 0.15699 -0.720085 0
M  V30 7956 H 761.813 -0.293965 -1.87712 0
M  V30 7957 H 759.963 1.51166 -3.57884 0
M  V30 7958 H 761.635 -0.922531 -4.51981 0
M  V30 7959 H 759.878 -0.935427 -4.23594 0
M  V30 7960 H 760.549 0.0753865 -5.51949 0
M  V30 7961 H 763.025 1.2283 -3.97558 0
M  V30 7962 H 761.901 2.03933 -5.0961 0
M  V30 7963 H 762.162 2.70939 -3.49348 0
M  V30 7964 N 761.222 1.57436 0.0718424 0
M  V30 7965 C 762.638 1.53792 0.426628 0
M  V30 7966 C 762.838 0.921887 1.79174 0
M  V30 7967 O 761.894 0.524374 2.46995 0
M  V30 7968 C 763.207 2.98443 0.367739 0
M  V30 7969 C 764.755 3.09778 0.447928 0
M  V30 7970 C 765.23 4.5608 0.418946 0
M  V30 7971 N 766.721 4.60716 0.479022 0
M  V30 7972 C 767.456 5.71397 0.47881 0
M  V30 7973 N 766.952 6.91443 0.433417 0
M  V30 7974 N 768.745 5.59639 0.525364 0
M  V30 7975 H 760.896 1.95848 -0.822033 0
M  V30 7976 H 763.159 0.896418 -0.308447 0
M  V30 7977 H 762.865 3.47072 -0.56865 0
M  V30 7978 H 762.739 3.58335 1.17795 0
M  V30 7979 H 765.126 2.61122 1.37474 0
M  V30 7980 H 765.207 2.52796 -0.390857 0
M  V30 7981 H 764.851 5.05393 -0.504016 0
M  V30 7982 H 764.781 5.10925 1.27526 0
M  V30 7983 H 767.272 3.74328 0.518355 0
M  V30 7984 H 767.585 7.71562 0.43718 0
M  V30 7985 H 765.93 6.93847 0.400106 0
M  V30 7986 H 769.121 4.64756 0.558519 0
M  V30 7987 H 769.294 6.45896 0.52173 0
M  V30 7988 N 762.7 -0.34323 1.53817 0
M  V30 7989 C 763.633 -1.44472 1.76644 0
M  V30 7990 C 764.611 -1.50498 0.615556 0
M  V30 7991 O 765.795 -1.6821 0.850751 0
M  V30 7992 C 762.922 -2.82705 1.86536 0
M  V30 7993 C 761.968 -2.94302 3.08688 0
M  V30 7994 S 762.801 -2.60739 4.67735 0
M  V30 7995 C 763.957 -4.01079 4.80506 0
M  V30 7996 H 764.19 -1.24893 2.69794 0
M  V30 7997 H 761.723 -0.538915 1.4469 0
M  V30 7998 H 763.681 -3.62342 1.92921 0
M  V30 7999 H 762.342 -2.9958 0.943975 0
M  V30 8000 H 761.535 -3.95593 3.12286 0
M  V30 8001 H 761.137 -2.22614 3.00531 0
M  V30 8002 H 763.429 -4.95603 4.61935 0
M  V30 8003 H 764.372 -4.02475 5.82597 0
M  V30 8004 H 764.78 -3.89119 4.08958 0
M  V30 8005 N 764.178 -1.45556 -0.604258 0
M  V30 8006 C 765.424 -1.49968 -1.36519 0
M  V30 8007 C 765.757 -0.142236 -1.93678 0
M  V30 8008 O 765.032 0.843717 -1.75247 0
M  V30 8009 C 765.315 -2.58146 -2.51063 0
M  V30 8010 C 765.168 -4.03346 -1.99078 0
M  V30 8011 C 766.487 -2.62581 -3.53184 0
M  V30 8012 H 763.606 -0.545993 -0.495036 0
M  V30 8013 H 766.248 -1.77382 -0.680845 0
M  V30 8014 H 764.398 -2.34901 -3.09441 0
M  V30 8015 H 766.07 -4.37811 -1.45323 0
M  V30 8016 H 764.313 -4.13845 -1.30055 0
M  V30 8017 H 764.984 -4.74731 -2.81664 0
M  V30 8018 H 767.46 -2.83419 -3.04652 0
M  V30 8019 H 766.336 -3.40131 -4.30816 0
M  V30 8020 H 766.597 -1.67798 -4.09019 0
M  V30 8021 N 765.656 0.84705 -1.32902 0
M  V30 8022 C 766.933 1.58583 -1.14503 0
M  V30 8023 C 767.313 2.09075 0.291724 0
M  V30 8024 O 766.661 1.88636 1.28952 0
M  V30 8025 C 766.871 2.72605 -2.17916 0
M  V30 8026 C 768.219 3.41993 -2.51646 0
M  V30 8027 O 769.243 2.82838 -2.1652 0
M  V30 8028 O 768.102 4.48761 -3.1189 0
M  V30 8029 H 765.196 0.698756 -0.442345 0
M  V30 8030 H 767.742 0.890516 -1.44457 0
M  V30 8031 H 766.514 2.32876 -3.14459 0
M  V30 8032 H 766.137 3.49807 -1.89 0
M  V30 8033 N 767.134 1.16236 1.06428 0
M  V30 8034 C 768.545 0.950942 1.60667 0
M  V30 8035 C 768.896 -0.505491 1.89576 0
M  V30 8036 O 768.021 -1.37843 1.66818 0
M  V30 8037 C 768.616 1.71982 2.91904 0
M  V30 8038 C 767.175 1.55342 3.4285 0
M  V30 8039 C 766.322 1.72942 2.16763 0
M  V30 8040 H 769.273 1.31126 0.893959 0
M  V30 8041 H 769.294 1.19483 3.61253 0
M  V30 8042 H 768.806 2.77978 2.70831 0
M  V30 8043 H 766.907 0.5178 3.68985 0
M  V30 8044 H 767.02 2.33643 4.18267 0
M  V30 8045 H 765.384 1.15673 2.26918 0
M  V30 8046 H 766.167 2.80324 1.98175 0
M  V30 8047 N 768.612 -1.24939 0.960631 0
M  V30 8048 C 769.559 -2.25658 0.484459 0
M  V30 8049 C 770.529 -1.59422 -0.466242 0
M  V30 8050 O 771.714 -1.87015 -0.378169 0
M  V30 8051 C 768.854 -3.44359 -0.225958 0
M  V30 8052 C 767.967 -4.25214 0.762682 0
M  V30 8053 C 767.102 -5.31192 0.0290931 0
M  V30 8054 C 766.141 -6.03739 1.00827 0
M  V30 8055 N 765.278 -7.01437 0.305155 0
M  V30 8056 H 770.118 -2.65758 1.34821 0
M  V30 8057 H 767.655 -1.30648 0.675983 0
M  V30 8058 H 769.613 -4.12035 -0.654472 0
M  V30 8059 H 768.243 -3.05118 -1.05371 0
M  V30 8060 H 767.295 -3.57144 1.30966 0
M  V30 8061 H 768.607 -4.75406 1.50964 0
M  V30 8062 H 767.761 -6.04971 -0.457763 0
M  V30 8063 H 766.5 -4.81889 -0.750614 0
M  V30 8064 H 765.505 -5.2877 1.50607 0
M  V30 8065 H 766.73 -6.55131 1.7883 0
M  V30 8066 H 764.676 -6.54415 -0.455704 0
M  V30 8067 H 764.593 -7.49475 0.991104 0
M  V30 8068 H 765.861 -7.79336 -0.159966 0
M  V30 8069 N 770.09 -0.729906 -1.39679 0
M  V30 8070 C 771.037 -0.0866063 -2.30637 0
M  V30 8071 C 772.007 0.735115 -1.48947 0
M  V30 8072 O 773.192 0.696125 -1.77648 0
M  V30 8073 C 770.332 0.818524 -3.35252 0
M  V30 8074 C 769.445 -0.0152635 -4.31997 0
M  V30 8075 C 768.58 0.890669 -5.2368 0
M  V30 8076 C 767.619 0.0518246 -6.12078 0
M  V30 8077 N 766.756 0.913411 -6.96133 0
M  V30 8078 H 771.596 -0.867925 -2.85081 0
M  V30 8079 H 769.133 -0.439673 -1.40376 0
M  V30 8080 H 771.091 1.3577 -3.9449 0
M  V30 8081 H 769.721 1.56587 -2.82277 0
M  V30 8082 H 768.773 -0.671794 -3.74421 0
M  V30 8083 H 770.085 -0.664086 -4.9436 0
M  V30 8084 H 769.239 1.49787 -5.87919 0
M  V30 8085 H 767.978 1.57328 -4.61627 0
M  V30 8086 H 766.983 -0.568209 -5.46856 0
M  V30 8087 H 768.208 -0.627497 -6.76195 0
M  V30 8088 H 766.154 1.58141 -6.36653 0
M  V30 8089 H 766.071 0.320952 -7.55318 0
M  V30 8090 H 767.339 1.50633 -7.64807 0
M  V30 8091 N 771.568 1.50203 -0.477153 0
M  V30 8092 C 772.531 2.27194 0.302599 0
M  V30 8093 C 773.531 1.32221 0.915112 0
M  V30 8094 O 774.721 1.55593 0.783348 0
M  V30 8095 C 771.853 3.0938 1.43167 0
M  V30 8096 H 773.046 2.97575 -0.372678 0
M  V30 8097 H 770.599 1.54578 -0.231392 0
M  V30 8098 H 771.334 2.43509 2.14182 0
M  V30 8099 H 771.119 3.79181 0.998197 0
M  V30 8100 H 772.609 3.67592 1.98157 0
M  V30 8101 N 773.046 0.209999 1.56195 0
M  V30 8102 C 774.009 -0.691232 2.18528 0
M  V30 8103 C 775.009 -1.13013 1.14388 0
M  V30 8104 O 776.199 -1.04081 1.39688 0
M  V30 8105 C 773.331 -1.94551 2.79934 0
M  V30 8106 H 774.524 -0.147953 2.99535 0
M  V30 8107 H 772.077 -0.0396243 1.5625 0
M  V30 8108 H 772.812 -2.53094 2.02766 0
M  V30 8109 H 772.597 -1.63938 3.56184 0
M  V30 8110 H 774.087 -2.58785 3.2775 0
M  V30 8111 N 774.524 -1.57472 -0.0634922 0
M  V30 8112 C 775.456 -2.00999 -1.10145 0
M  V30 8113 C 776.469 -0.917219 -1.34503 0
M  V30 8114 O 777.658 -1.19501 -1.32596 0
M  V30 8115 C 774.758 -2.34089 -2.45063 0
M  V30 8116 C 773.931 -3.65317 -2.40546 0
M  V30 8117 C 772.99 -3.85982 -3.57637 0
M  V30 8118 O 772.016 -4.5747 -3.38689 0
M  V30 8119 N 773.218 -3.28971 -4.78287 0
M  V30 8120 H 775.983 -2.90656 -0.730714 0
M  V30 8121 H 773.544 -1.59926 -0.252017 0
M  V30 8122 H 775.536 -2.4508 -3.22053 0
M  V30 8123 H 774.106 -1.50279 -2.74107 0
M  V30 8124 H 773.326 -3.65003 -1.48885 0
M  V30 8125 H 774.614 -4.51468 -2.34636 0
M  V30 8126 H 774.012 -2.70962 -4.96584 0
M  V30 8127 H 772.569 -3.45398 -5.5276 0
M  V30 8128 N 776.003 0.335068 -1.53997 0
M  V30 8129 C 777.252 1.07182 -1.70865 0
M  V30 8130 C 777.565 1.89541 -0.483078 0
M  V30 8131 O 778.771 2.66219 -0.532879 0
M  V30 8132 C 777.227 1.95497 -3.02174 0
M  V30 8133 C 776.835 1.18304 -4.32097 0
M  V30 8134 C 778.579 2.68978 -3.28407 0
M  V30 8135 C 776.486 2.05699 -5.54474 0
M  V30 8136 H 775.416 0.403857 -0.636722 0
M  V30 8137 H 778.067 0.33076 -1.80494 0
M  V30 8138 H 776.449 2.73456 -2.86423 0
M  V30 8139 H 777.623 0.451969 -4.58578 0
M  V30 8140 H 775.938 0.565556 -4.12541 0
M  V30 8141 H 778.535 3.34651 -4.17029 0
M  V30 8142 H 778.878 3.36 -2.45784 0
M  V30 8143 H 779.411 1.98087 -3.44973 0
M  V30 8144 H 776.15 1.43204 -6.39666 0
M  V30 8145 H 775.67 2.76572 -5.32229 0
M  V30 8146 H 777.349 2.64554 -5.90441 0
M  V30 8147 N 777.481 1.45874 0.596531 0
M  V30 8148 C 778.897 1.30524 0.918459 0
M  V30 8149 C 779.097 0.266429 1.99731 0
M  V30 8150 O 778.153 -0.335809 2.50257 0
M  V30 8151 C 779.466 2.68747 1.3489 0
M  V30 8152 C 781.014 2.7673 1.46251 0
M  V30 8153 C 781.489 4.15504 1.92667 0
M  V30 8154 N 782.98 4.17853 1.99883 0
M  V30 8155 C 783.715 5.22109 2.37044 0
M  V30 8156 N 783.211 6.36704 2.73094 0
M  V30 8157 N 785.004 5.09471 2.37479 0
M  V30 8158 H 777.155 2.12081 -0.116368 0
M  V30 8159 H 779.418 0.947941 0.0106033 0
M  V30 8160 H 779.124 3.46006 0.630288 0
M  V30 8161 H 778.998 2.97942 2.31323 0
M  V30 8162 H 781.385 1.99768 2.17202 0
M  V30 8163 H 781.466 2.51236 0.481054 0
M  V30 8164 H 781.11 4.92956 1.223 0
M  V30 8165 H 781.04 4.38396 2.91747 0
M  V30 8166 H 783.531 3.35163 1.74568 0
M  V30 8167 H 783.844 7.12041 3.00362 0
M  V30 8168 H 782.189 6.40087 2.70764 0
M  V30 8169 H 785.38 4.18987 2.08728 0
M  V30 8170 H 785.553 5.90837 2.66112 0
M  V30 8171 N 778.959 -0.83999 1.33349 0
M  V30 8172 C 780.184 -1.63249 1.27924 0
M  V30 8173 C 780.609 -1.87523 -0.147193 0
M  V30 8174 O 779.967 -1.43853 -1.10345 0
M  V30 8175 C 780.015 -2.96046 2.05886 0
M  V30 8176 O 779.119 -3.87303 1.4167 0
M  V30 8177 H 778.46 -0.49715 0.440157 0
M  V30 8178 H 780.99 -1.04512 1.75893 0
M  V30 8179 H 781 -3.45752 2.16609 0
M  V30 8180 H 779.675 -2.77701 3.09605 0
M  V30 8181 H 778.252 -3.45789 1.39585 0
M  V30 8182 N 780.437 -1.16799 -1.0581 0
M  V30 8183 C 781.369 -0.836774 -2.13379 0
M  V30 8184 C 782.382 0.158116 -1.6203 0
M  V30 8185 O 783.571 -0.0673211 -1.78373 0
M  V30 8186 C 780.671 -0.225959 -3.38146 0
M  V30 8187 C 779.844 -1.26217 -4.18794 0
M  V30 8188 C 778.903 -0.670257 -5.21914 0
M  V30 8189 O 777.929 -1.34042 -5.53192 0
M  V30 8190 N 779.131 0.540683 -5.77977 0
M  V30 8191 H 781.896 -1.76257 -2.42391 0
M  V30 8192 H 779.457 -1.06599 -1.21853 0
M  V30 8193 H 781.449 0.18317 -4.04285 0
M  V30 8194 H 780.019 0.603494 -3.06719 0
M  V30 8195 H 779.239 -1.84729 -3.48237 0
M  V30 8196 H 780.527 -1.9613 -4.69479 0
M  V30 8197 H 779.925 1.10322 -5.54838 0
M  V30 8198 H 778.482 0.891958 -6.45668 0
M  V30 8199 N 781.915 1.24427 -0.967243 0
M  V30 8200 C 783.161 1.92772 -0.629812 0
M  V30 8201 C 783.494 1.75436 0.832827 0
M  V30 8202 O 782.769 1.10716 1.59913 0
M  V30 8203 C 783.052 3.45798 -1.00477 0
M  V30 8204 C 782.905 3.72304 -2.52407 0
M  V30 8205 C 784.224 4.36787 -0.538999 0
M  V30 8206 H 781.343 0.700099 -0.230282 0
M  V30 8207 H 783.985 1.46805 -1.20616 0
M  V30 8208 H 782.135 3.8508 -0.514336 0
M  V30 8209 H 783.807 3.42584 -3.08924 0
M  V30 8210 H 782.05 3.17472 -2.95625 0
M  V30 8211 H 782.721 4.7937 -2.73693 0
M  V30 8212 H 785.197 4.04877 -0.959874 0
M  V30 8213 H 784.073 5.4259 -0.829926 0
M  V30 8214 H 784.334 4.38527 0.560923 0
M  V30 8215 N 783.393 0.737304 1.3929 0
M  V30 8216 C 784.326 0.0475454 2.2815 0
M  V30 8217 C 785.304 -0.745314 1.44512 0
M  V30 8218 O 786.488 -0.727387 1.739 0
M  V30 8219 C 783.615 -0.939803 3.254 0
M  V30 8220 C 782.661 -0.235153 4.25851 0
M  V30 8221 S 783.494 1.05252 5.25055 0
M  V30 8222 C 784.65 0.0678242 6.25863 0
M  V30 8223 H 784.883 0.801117 2.86303 0
M  V30 8224 H 782.416 0.529197 1.45048 0
M  V30 8225 H 784.374 -1.50417 3.81949 0
M  V30 8226 H 783.035 -1.66623 2.66262 0
M  V30 8227 H 782.228 -0.982336 4.94334 0
M  V30 8228 H 781.83 0.257245 3.73114 0
M  V30 8229 H 784.122 -0.771779 6.7309 0
M  V30 8230 H 785.065 0.719858 7.04431 0
M  V30 8231 H 785.473 -0.305604 5.63672 0
M  V30 8232 N 784.871 -1.49948 0.485112 0
M  V30 8233 C 786.099 -2.06806 -0.0622824 0
M  V30 8234 C 786.514 -1.34736 -1.32256 0
M  V30 8235 O 785.871 -0.420836 -1.77582 0
M  V30 8236 C 785.922 -3.59934 -0.336096 0
M  V30 8237 O 785.643 -4.29289 0.874203 0
M  V30 8238 C 787.144 -4.33459 -0.928903 0
M  V30 8239 H 784.364 -0.670867 0.0133472 0
M  V30 8240 H 786.908 -1.92937 0.677917 0
M  V30 8241 H 785.063 -3.7356 -1.02625 0
M  V30 8242 H 785.477 -5.20735 0.627332 0
M  V30 8243 H 786.951 -5.41527 -1.07017 0
M  V30 8244 H 787.428 -3.94881 -1.92265 0
M  V30 8245 H 788.034 -4.24399 -0.276705 0
M  V30 8246 N 786.349 -0.21828 -1.56081 0
M  V30 8247 C 787.299 0.706492 -2.16778 0
M  V30 8248 C 788.283 1.15987 -1.11516 0
M  V30 8249 O 789.475 1.11441 -1.37513 0
M  V30 8250 C 786.604 1.91583 -2.8487 0
M  V30 8251 C 785.69 1.48228 -3.97353 0
M  V30 8252 N 786.081 0.761113 -5.00041 0
M  V30 8253 C 784.379 1.76982 -4.09382 0
M  V30 8254 C 785.08 0.540496 -5.79184 0
M  V30 8255 N 784.056 1.09622 -5.32432 0
M  V30 8256 H 787.858 0.147038 -2.93532 0
M  V30 8257 H 785.372 -0.0194049 -1.62388 0
M  V30 8258 H 787.369 2.58906 -3.26762 0
M  V30 8259 H 786.029 2.47979 -2.09611 0
M  V30 8260 H 787.04 0.414141 -5.16241 0
M  V30 8261 H 783.717 2.34721 -3.45271 0
M  V30 8262 H 785.107 -0.0332531 -6.71892 0
M  V30 8263 N 787.827 1.57504 0.0551401 0
M  V30 8264 C 788.757 2.07864 1.06372 0
M  V30 8265 C 789.738 0.975565 1.39344 0
M  V30 8266 O 790.923 1.24929 1.48682 0
M  V30 8267 C 788.053 2.53643 2.3724 0
M  V30 8268 C 787.007 3.67978 2.18578 0
M  V30 8269 C 786.333 3.9987 3.54976 0
M  V30 8270 C 787.633 4.97405 1.59329 0
M  V30 8271 H 789.327 2.92379 0.644595 0
M  V30 8272 H 786.873 1.40654 0.308619 0
M  V30 8273 H 788.826 2.8749 3.08103 0
M  V30 8274 H 787.55 1.66177 2.81163 0
M  V30 8275 H 786.209 3.3444 1.50152 0
M  V30 8276 H 785.857 3.0951 3.965 0
M  V30 8277 H 785.557 4.76867 3.43324 0
M  V30 8278 H 787.081 4.36228 4.27244 0
M  V30 8279 H 788.495 5.29375 2.20078 0
M  V30 8280 H 786.892 5.78837 1.58327 0
M  V30 8281 H 787.962 4.81697 0.55638 0
M  V30 8282 N 789.305 -0.326896 1.54172 0
M  V30 8283 C 790.721 -0.671034 1.44808 0
M  V30 8284 C 790.921 -1.91781 0.618258 0
M  V30 8285 O 789.977 -2.52235 0.115751 0
M  V30 8286 C 791.29 -0.848147 2.88491 0
M  V30 8287 C 792.838 -0.945702 2.98371 0
M  V30 8288 C 793.313 -1.15501 4.43197 0
M  V30 8289 N 794.804 -1.22183 4.46795 0
M  V30 8290 C 795.539 -1.4016 5.56006 0
M  V30 8291 N 795.035 -1.55202 6.75192 0
M  V30 8292 N 796.828 -1.42841 5.43648 0
M  V30 8293 H 788.979 0.49262 2.06608 0
M  V30 8294 H 791.242 0.158574 0.934643 0
M  V30 8295 H 790.948 -0.00329969 3.517 0
M  V30 8296 H 790.822 -1.74497 3.34411 0
M  V30 8297 H 793.209 -1.78106 2.35292 0
M  V30 8298 H 793.29 -0.0254215 2.55787 0
M  V30 8299 H 792.934 -0.324521 5.06862 0
M  V30 8300 H 792.864 -2.08911 4.83388 0
M  V30 8301 H 795.355 -1.12016 3.60917 0
M  V30 8302 H 795.668 -1.68601 7.54184 0
M  V30 8303 H 794.013 -1.52306 6.78106 0
M  V30 8304 H 797.204 -1.30683 4.49488 0
M  V30 8305 H 797.377 -1.56509 6.28816 0
M  V30 8306 N 790.784 -1.46188 -0.588786 0
M  V30 8307 C 792.03 -1.51407 -1.34921 0
M  V30 8308 C 792.363 -0.162771 -1.93517 0
M  V30 8309 O 791.638 0.825082 -1.76132 0
M  V30 8310 C 791.921 -2.60795 -2.48311 0
M  V30 8311 C 791.774 -4.05435 -1.94789 0
M  V30 8312 C 793.093 -2.66313 -3.50379 0
M  V30 8313 H 790.212 -0.551213 -0.489217 0
M  V30 8314 H 792.854 -1.78095 -0.661993 0
M  V30 8315 H 791.004 -2.3817 -3.06932 0
M  V30 8316 H 792.676 -4.39328 -1.40672 0
M  V30 8317 H 790.919 -4.15202 -1.25659 0
M  V30 8318 H 791.59 -4.77691 -2.76613 0
M  V30 8319 H 794.066 -2.86634 -3.01629 0
M  V30 8320 H 792.942 -3.44681 -4.27184 0
M  V30 8321 H 793.203 -1.72127 -4.07216 0
M  V30 8322 N 792.262 0.832906 -1.33792 0
M  V30 8323 C 793.511 1.58351 -1.24932 0
M  V30 8324 C 793.824 1.94754 0.181703 0
M  V30 8325 O 795.03 2.6865 0.392375 0
M  V30 8326 C 793.486 2.85643 -2.18943 0
M  V30 8327 C 793.094 2.56581 -3.67247 0
M  V30 8328 C 794.838 3.63667 -2.18968 0
M  V30 8329 C 792.745 3.80006 -4.53155 0
M  V30 8330 H 791.675 0.594278 -0.464058 0
M  V30 8331 H 794.326 0.91786 -1.58895 0
M  V30 8332 H 792.708 3.53781 -1.77919 0
M  V30 8333 H 793.882 1.96617 -4.16747 0
M  V30 8334 H 792.197 1.91851 -3.6957 0
M  V30 8335 H 794.794 4.55293 -2.80379 0
M  V30 8336 H 795.137 3.99039 -1.18631 0
M  V30 8337 H 795.67 3.0246 -2.58384 0
M  V30 8338 H 792.409 3.4976 -5.5439 0
M  V30 8339 H 791.929 4.39288 -4.08395 0
M  V30 8340 H 793.608 4.47523 -4.6726 0
M  V30 8341 N 793.74 1.17359 1.05189 0
M  V30 8342 C 794.97 0.985099 1.81602 0
M  V30 8343 C 795.378 -0.469872 1.83273 0
M  V30 8344 O 794.721 -1.33806 1.25864 0
M  V30 8345 C 794.783 1.44956 3.2898 0
M  V30 8346 C 794.447 2.92666 3.50993 0
M  V30 8347 C 795.444 3.906 3.43115 0
M  V30 8348 C 793.129 3.30841 3.77954 0
M  V30 8349 C 795.123 5.24709 3.61883 0
M  V30 8350 C 792.81 4.65116 3.96371 0
M  V30 8351 C 793.808 5.61859 3.88335 0
M  V30 8352 O 793.496 6.93704 4.06238 0
M  V30 8353 H 793.228 0.348731 0.579105 0
M  V30 8354 H 795.782 1.56066 1.33539 0
M  V30 8355 H 794.012 0.817559 3.77959 0
M  V30 8356 H 795.701 1.22674 3.86919 0
M  V30 8357 H 796.467 3.62453 3.22262 0
M  V30 8358 H 792.346 2.5611 3.83313 0
M  V30 8359 H 795.89 6.00205 3.55527 0
M  V30 8360 H 791.787 4.92969 4.16715 0
M  V30 8361 H 792.555 7.00443 4.23463 0
M  V30 8362 N 795.218 -1.23913 0.973828 0
M  V30 8363 C 796.128 -2.28838 0.516735 0
M  V30 8364 C 797.144 -1.68723 -0.425282 0
M  V30 8365 O 798.32 -1.99201 -0.296819 0
M  V30 8366 C 795.385 -3.46233 -0.179914 0
M  V30 8367 C 794.446 -4.21729 0.80269 0
M  V30 8368 C 793.679 -5.33518 0.139191 0
M  V30 8369 O 793.902 -5.60252 -1.07118 0
M  V30 8370 O 792.836 -5.96088 0.834447 0
M  V30 8371 H 796.662 -2.70067 1.38916 0
M  V30 8372 H 794.247 -1.2972 0.74115 0
M  V30 8373 H 796.129 -4.17514 -0.570991 0
M  V30 8374 H 794.804 -3.06969 -1.02721 0
M  V30 8375 H 793.711 -3.52799 1.24434 0
M  V30 8376 H 795.044 -4.64825 1.61859 0
M  V30 8377 N 796.696 -0.74468 -1.38897 0
M  V30 8378 C 798.112 -0.421302 -1.53939 0
M  V30 8379 C 798.312 1.06668 -1.70951 0
M  V30 8380 O 797.368 1.85278 -1.71547 0
M  V30 8381 C 798.681 -1.21278 -2.75159 0
M  V30 8382 C 800.229 -1.20196 -2.89001 0
M  V30 8383 C 800.704 -1.97621 -4.13171 0
M  V30 8384 N 802.195 -1.94836 -4.2023 0
M  V30 8385 C 802.93 -2.51545 -5.15279 0
M  V30 8386 N 802.426 -3.1693 -6.16058 0
M  V30 8387 N 804.219 -2.41524 -5.07565 0
M  V30 8388 H 796.37 -1.70914 -1.26103 0
M  V30 8389 H 798.633 -0.724058 -0.611919 0
M  V30 8390 H 798.339 -2.26609 -2.68963 0
M  V30 8391 H 798.213 -0.823677 -3.68097 0
M  V30 8392 H 800.6 -0.156742 -2.94683 0
M  V30 8393 H 800.681 -1.63051 -1.97099 0
M  V30 8394 H 800.325 -3.02149 -4.0825 0
M  V30 8395 H 800.255 -1.52166 -5.04136 0
M  V30 8396 H 802.746 -1.4721 -3.48048 0
M  V30 8397 H 803.059 -3.57644 -6.85062 0
M  V30 8398 H 801.404 -3.21023 -6.16417 0
M  V30 8399 H 804.595 -1.90077 -4.27771 0
M  V30 8400 H 804.768 -2.86016 -5.81462 0
M  V30 8401 N 798.174 1.49689 -0.493057 0
M  V30 8402 C 799.107 2.25712 0.336062 0
M  V30 8403 C 800.085 1.29953 0.977294 0
M  V30 8404 O 801.269 1.59225 1.00895 0
M  V30 8405 C 798.396 3.0501 1.47263 0
M  V30 8406 C 797.442 4.15863 0.946575 0
M  V30 8407 S 798.275 5.35272 -0.156323 0
M  V30 8408 C 799.431 6.18123 0.983601 0
M  V30 8409 H 799.664 2.95688 -0.309215 0
M  V30 8410 H 797.197 1.51872 -0.278238 0
M  V30 8411 H 799.155 3.51284 2.12391 0
M  V30 8412 H 797.816 2.34519 2.08949 0
M  V30 8413 H 797.009 4.70834 1.7981 0
M  V30 8414 H 796.611 3.72139 0.372647 0
M  V30 8415 H 798.903 6.50588 1.89056 0
M  V30 8416 H 799.846 7.06521 0.472687 0
M  V30 8417 H 800.254 5.50547 1.24735 0
M  V30 8418 N 799.652 0.226554 1.55963 0
M  V30 8419 C 800.6 -0.697922 2.21882 0
M  V30 8420 C 801.594 -1.19586 1.19981 0
M  V30 8421 O 802.8 -1.15511 1.38048 0
M  V30 8422 H 799.175 -0.243501 0.711485 0
M  V30 8423 H 801.146 -0.118576 2.98164 0
M  V30 8424 C 799.895 -1.89309 2.91646 0
M  V30 8425 H 799.218 -1.51906 3.69817 0
M  V30 8426 H 800.658 -2.51762 3.41162 0
M  V30 8427 C 799.117 -2.75162 1.94391 0
M  V30 8428 O 799.647 -3.74071 1.46402 0
M  V30 8429 N 797.853 -2.41302 1.61932 0
M  V30 8430 H 797.4 -1.60923 2.01151 0
M  V30 8431 H 797.358 -2.99023 0.971219 0
M  V30 8432 N 801.13 -1.57531 -0.0467866 0
M  V30 8433 C 802.062 -2.02156 -1.08007 0
M  V30 8434 C 803.075 -0.931434 -1.33522 0
M  V30 8435 O 804.264 -1.209 -1.31321 0
M  V30 8436 C 801.364 -2.36675 -2.42566 0
M  V30 8437 C 800.537 -3.67848 -2.36658 0
M  V30 8438 C 799.596 -3.89754 -3.53523 0
M  V30 8439 O 798.622 -4.61036 -3.33818 0
M  V30 8440 N 799.824 -3.34025 -4.74771 0
M  V30 8441 H 802.589 -2.91414 -0.699845 0
M  V30 8442 H 800.15 -1.60185 -0.235041 0
M  V30 8443 H 802.142 -2.48482 -3.19435 0
M  V30 8444 H 800.712 -1.53178 -2.72498 0
M  V30 8445 H 799.932 -3.66561 -1.45005 0
M  V30 8446 H 801.22 -4.53931 -2.29835 0
M  V30 8447 H 800.618 -2.76214 -4.93683 0
M  V30 8448 H 799.175 -3.51241 -5.49066 0
M  V30 8449 N 802.608 0.318715 -1.54344 0
M  V30 8450 C 803.833 1.07987 -1.77069 0
M  V30 8451 C 804.258 1.80766 -0.520117 0
M  V30 8452 O 803.616 1.73424 0.528566 0
M  V30 8453 C 803.664 2.04987 -2.96669 0
M  V30 8454 O 802.768 3.12974 -2.68554 0
M  V30 8455 H 802.109 0.311109 -0.586606 0
M  V30 8456 H 804.639 0.361533 -2.0138 0
M  V30 8457 H 804.649 2.47771 -3.2415 0
M  V30 8458 H 803.324 1.51417 -3.87357 0
M  V30 8459 H 801.901 2.74831 -2.52037 0
M  V30 8460 N 804.086 1.46499 0.581025 0
M  V30 8461 C 805.016 1.60052 1.70017 0
M  V30 8462 C 805.997 0.450788 1.64018 0
M  V30 8463 O 807.182 0.677237 1.82009 0
M  V30 8464 C 804.312 1.5921 3.08658 0
M  V30 8465 C 803.266 2.73169 3.29488 0
M  V30 8466 C 802.592 2.57389 4.68674 0
M  V30 8467 C 803.892 4.14978 3.1716 0
M  V30 8468 H 805.586 2.53735 1.5893 0
M  V30 8469 H 803.132 1.22113 0.763173 0
M  V30 8470 H 805.085 1.67285 3.86773 0
M  V30 8471 H 803.809 0.620718 3.20647 0
M  V30 8472 H 802.468 2.64566 2.53773 0
M  V30 8473 H 802.116 1.58331 4.77431 0
M  V30 8474 H 801.816 3.33826 4.83564 0
M  V30 8475 H 803.34 2.67358 5.48956 0
M  V30 8476 H 804.754 4.24684 3.85119 0
M  V30 8477 H 803.151 4.92016 3.4357 0
M  V30 8478 H 804.221 4.35016 2.14218 0
M  V30 8479 N 805.565 -0.825799 1.34232 0
M  V30 8480 C 806.79 -1.61883 1.29648 0
M  V30 8481 C 807.215 -1.87669 -0.127295 0
M  V30 8482 O 806.573 -1.45016 -1.08813 0
M  V30 8483 C 806.621 -2.93846 2.09014 0
M  V30 8484 O 805.725 -3.85778 1.4577 0
M  V30 8485 H 805.066 -0.492454 0.445405 0
M  V30 8486 H 807.596 -1.02641 1.76992 0
M  V30 8487 H 807.606 -3.43435 2.20264 0
M  V30 8488 H 806.281 -2.74401 3.12533 0
M  V30 8489 H 804.858 -3.4429 1.43245 0
M  V30 8490 N 807.043 -1.17915 -1.04565 0
M  V30 8491 C 807.973 -0.925033 -2.14395 0
M  V30 8492 C 808.954 0.135375 -1.6956 0
M  V30 8493 O 810.139 -0.0161774 -1.94193 0
M  V30 8494 C 807.269 -0.444469 -3.44444 0
M  V30 8495 C 806.223 -1.44478 -4.02877 0
M  V30 8496 C 805.549 -0.821933 -5.28345 0
M  V30 8497 C 806.849 -2.81995 -4.39632 0
M  V30 8498 H 808.543 -1.84354 -2.35911 0
M  V30 8499 H 806.089 -0.887806 -1.13375 0
M  V30 8500 H 808.042 -0.254078 -4.20633 0
M  V30 8501 H 806.766 0.509592 -3.226 0
M  V30 8502 H 805.425 -1.62203 -3.28764 0
M  V30 8503 H 805.073 0.139161 -5.02807 0
M  V30 8504 H 804.773 -1.48976 -5.68401 0
M  V30 8505 H 806.297 -0.641959 -6.07216 0
M  V30 8506 H 807.711 -2.67952 -5.06828 0
M  V30 8507 H 806.108 -3.45414 -4.90723 0
M  V30 8508 H 807.178 -3.35927 -3.49687 0
M  V30 8509 N 808.521 1.23394 -0.980386 0
M  V30 8510 C 809.451 2.2717 -0.540024 0
M  V30 8511 C 810.432 1.64659 0.426787 0
M  V30 8512 O 811.617 1.91543 0.320153 0
M  V30 8513 C 808.747 3.46939 0.15836 0
M  V30 8514 C 807.701 4.21802 -0.725732 0
M  V30 8515 C 807.027 5.34597 0.104866 0
M  V30 8516 C 808.327 4.81802 -2.01654 0
M  V30 8517 H 810.021 2.64257 -1.40743 0
M  V30 8518 H 807.567 1.2703 -0.678193 0
M  V30 8519 H 809.52 4.18683 0.477737 0
M  V30 8520 H 808.244 3.08912 1.06022 0
M  V30 8521 H 806.903 3.51875 -1.02857 0
M  V30 8522 H 806.551 4.92812 1.00726 0
M  V30 8523 H 806.251 5.85607 -0.483557 0
M  V30 8524 H 807.775 6.09163 0.418624 0
M  V30 8525 H 809.189 5.45554 -1.76193 0
M  V30 8526 H 807.586 5.43098 -2.55273 0
M  V30 8527 H 808.656 4.02549 -2.70338 0
M  V30 8528 N 809.999 0.752036 1.385 0
M  V30 8529 C 811.229 0.317812 2.04141 0
M  V30 8530 C 811.637 -1.05822 1.56839 0
M  V30 8531 O 810.98 -1.68311 0.736016 0
M  V30 8532 C 811.042 0.260205 3.58557 0
M  V30 8533 C 810.706 1.57753 4.28909 0
M  V30 8534 C 811.703 2.52642 4.54387 0
M  V30 8535 C 809.388 1.84653 4.67128 0
M  V30 8536 C 811.382 3.72653 5.17116 0
M  V30 8537 C 809.069 3.04938 5.29581 0
M  V30 8538 C 810.067 3.98759 5.54509 0
M  V30 8539 O 809.755 5.16929 6.15662 0
M  V30 8540 H 809.487 0.133931 0.6626 0
M  V30 8541 H 812.041 1.02138 1.78205 0
M  V30 8542 H 810.271 -0.499596 3.83459 0
M  V30 8543 H 811.96 -0.144295 4.05643 0
M  V30 8544 H 812.726 2.33135 4.25292 0
M  V30 8545 H 808.605 1.12464 4.47071 0
M  V30 8546 H 812.149 4.45898 5.36489 0
M  V30 8547 H 808.046 3.24339 5.58099 0
M  V30 8548 H 808.814 5.1749 6.3415 0
M  V30 8549 N 811.477 -1.49425 0.500989 0
M  V30 8550 C 812.425 -2.30771 -0.291149 0
M  V30 8551 C 813.419 -1.3938 -0.962787 0
M  V30 8552 O 814.625 -1.56431 -0.890477 0
M  V30 8553 H 811 -0.743499 -0.11275 0
M  V30 8554 H 812.971 -2.95501 0.414917 0
M  V30 8555 C 811.72 -3.20725 -1.34279 0
M  V30 8556 H 811.043 -3.90975 -0.83538 0
M  V30 8557 H 812.483 -3.80583 -1.86903 0
M  V30 8558 C 810.942 -2.40334 -2.36095 0
M  V30 8559 O 811.472 -2.10749 -3.41976 0
M  V30 8560 N 809.678 -2.02359 -2.08565 0
M  V30 8561 H 809.225 -2.26619 -1.22482 0
M  V30 8562 H 809.183 -1.48878 -2.76916 0
M  V30 8563 N 812.955 -0.234822 -1.55841 0
M  V30 8564 C 814.201 0.393843 -1.98939 0
M  V30 8565 C 814.534 1.58466 -1.1226 0
M  V30 8566 O 813.809 1.93635 -0.183242 0
M  V30 8567 C 814.092 0.815492 -3.50745 0
M  V30 8568 C 813.945 -0.379878 -4.48193 0
M  V30 8569 C 815.264 1.66687 -4.07312 0
M  V30 8570 H 812.383 0.141681 -0.723253 0
M  V30 8571 H 815.025 -0.333716 -1.87046 0
M  V30 8572 H 813.175 1.43541 -3.6101 0
M  V30 8573 H 814.847 -1.0182 -4.49923 0
M  V30 8574 H 813.09 -1.02507 -4.21515 0
M  V30 8575 H 813.761 -0.0417069 -5.51984 0
M  V30 8576 H 816.237 1.14369 -4.00074 0
M  V30 8577 H 815.113 1.93078 -5.13821 0
M  V30 8578 H 815.374 2.63468 -3.55017 0
M  V30 8579 N 814.433 1.57553 0.0384317 0
M  V30 8580 C 815.844 1.77258 0.586211 0
M  V30 8581 C 816.195 0.864706 1.76117 0
M  V30 8582 O 815.32 0.057141 2.16325 0
M  V30 8583 C 815.915 3.21453 1.07021 0
M  V30 8584 C 814.474 3.42387 1.56358 0
M  V30 8585 C 813.621 2.72801 0.497508 0
M  V30 8586 H 816.572 1.57585 -0.187796 0
M  V30 8587 H 816.593 3.27451 1.93794 0
M  V30 8588 H 816.105 3.87505 0.214851 0
M  V30 8589 H 814.206 2.81497 2.44111 0
M  V30 8590 H 814.319 4.50968 1.61754 0
M  V30 8591 H 812.683 2.36305 0.95038 0
M  V30 8592 H 813.466 3.41529 -0.348234 0
M  V30 8593 N 815.911 -0.310526 1.54511 0
M  V30 8594 C 816.874 -1.3657 1.84068 0
M  V30 8595 C 817.874 -1.44123 0.713097 0
M  V30 8596 O 819.064 -1.43924 0.981399 0
M  V30 8597 C 816.196 -2.75162 2.01243 0
M  V30 8598 H 817.389 -1.1161 2.78358 0
M  V30 8599 H 814.942 -0.546699 1.46427 0
M  V30 8600 H 815.677 -3.05359 1.09208 0
M  V30 8601 H 815.462 -2.71071 2.83307 0
M  V30 8602 H 816.952 -3.51473 2.25514 0
M  V30 8603 N 817.389 -1.46805 -0.573248 0
M  V30 8604 C 818.635 -1.5283 -1.33307 0
M  V30 8605 C 818.968 -0.183287 -1.93333 0
M  V30 8606 O 818.243 0.806354 -1.76998 0
M  V30 8607 C 818.526 -2.63414 -2.45531 0
M  V30 8608 C 818.379 -4.07478 -1.90478 0
M  V30 8609 C 819.698 -2.70014 -3.47535 0
M  V30 8610 H 816.817 -0.556371 -0.483343 0
M  V30 8611 H 819.459 -1.78787 -0.643066 0
M  V30 8612 H 817.609 -2.41412 -3.04389 0
M  V30 8613 H 819.281 -4.40795 -1.36004 0
M  V30 8614 H 817.524 -4.16511 -1.21248 0
M  V30 8615 H 818.195 -4.80598 -2.71531 0
M  V30 8616 H 820.671 -2.89817 -2.98572 0
M  V30 8617 H 819.547 -3.49192 -4.23504 0
M  V30 8618 H 819.808 -1.76436 -4.05367 0
M  V30 8619 N 818.867 0.818669 -1.34668 0
M  V30 8620 C 819.83 1.9114 -1.26483 0
M  V30 8621 C 820.83 1.598 -0.179044 0
M  V30 8622 O 822.02 1.6876 -0.431952 0
M  V30 8623 C 819.152 3.27285 -0.95381 0
M  V30 8624 H 820.345 1.9982 -2.23634 0
M  V30 8625 H 817.898 1.01314 -1.19018 0
M  V30 8626 H 818.633 3.24297 0.0143428 0
M  V30 8627 H 818.418 3.51416 -1.73924 0
M  V30 8628 H 819.908 4.07299 -0.921827 0
M  V30 8629 N 820.346 1.18468 1.03938 0
M  V30 8630 C 821.256 0.927889 2.1547 0
M  V30 8631 C 822.272 -0.108447 1.73662 0
M  V30 8632 O 823.448 0.0737636 2.01265 0
M  V30 8633 C 820.513 0.458494 3.43655 0
M  V30 8634 C 819.574 1.56295 3.99838 0
M  V30 8635 C 818.807 1.11586 5.21904 0
M  V30 8636 O 819.03 -0.0249057 5.70395 0
M  V30 8637 O 817.964 1.91412 5.70653 0
M  V30 8638 H 821.79 1.86116 2.39989 0
M  V30 8639 H 819.375 0.966607 1.13917 0
M  V30 8640 H 821.257 0.204861 4.20902 0
M  V30 8641 H 819.932 -0.446464 3.20606 0
M  V30 8642 H 818.839 1.87061 3.23974 0
M  V30 8643 H 820.172 2.44408 4.2723 0
M  V30 8644 N 821.824 -1.22873 0.986916 0
M  V30 8645 C 822.734 -2.28277 0.540978 0
M  V30 8646 C 823.75 -1.69164 -0.407363 0
M  V30 8647 O 824.926 -1.99504 -0.275674 0
M  V30 8648 C 821.991 -3.46404 -0.143181 0
M  V30 8649 C 821.052 -4.20854 0.847375 0
M  V30 8650 C 820.285 -5.33341 0.19577 0
M  V30 8651 O 820.508 -5.61356 -1.0117 0
M  V30 8652 O 819.442 -5.95169 0.897623 0
M  V30 8653 H 823.268 -2.68578 1.41773 0
M  V30 8654 H 820.853 -1.28927 0.754867 0
M  V30 8655 H 822.735 -4.18096 -0.526676 0
M  V30 8656 H 821.41 -3.08041 -0.994593 0
M  V30 8657 H 820.317 -3.51459 1.28169 0
M  V30 8658 H 821.65 -4.63082 1.6678 0
M  V30 8659 N 823.302 -0.75937 -1.38099 0
M  V30 8660 C 824.551 -0.314864 -1.99227 0
M  V30 8661 C 824.864 1.1113 -1.60964 0
M  V30 8662 O 826.07 1.65657 -2.15105 0
M  V30 8663 C 824.526 -0.512001 -3.56239 0
M  V30 8664 C 824.134 -1.94762 -4.0345 0
M  V30 8665 C 825.878 -0.130497 -4.24299 0
M  V30 8666 C 823.785 -2.09301 -5.53125 0
M  V30 8667 H 822.715 -0.113978 -0.745335 0
M  V30 8668 H 825.366 -0.936736 -1.57789 0
M  V30 8669 H 823.748 0.179144 -3.95595 0
M  V30 8670 H 824.922 -2.67271 -3.75371 0
M  V30 8671 H 823.237 -2.28457 -3.48133 0
M  V30 8672 H 825.834 -0.21781 -5.34256 0
M  V30 8673 H 826.177 0.917644 -4.0606 0
M  V30 8674 H 826.71 -0.773716 -3.90203 0
M  V30 8675 H 823.449 -3.1239 -5.76275 0
M  V30 8676 H 822.969 -1.41261 -5.82928 0
M  V30 8677 H 824.648 -1.88571 -6.1891 0
M  V30 8678 N 824.78 1.49157 -0.508906 0
M  V30 8679 C 825.712 2.272 0.302115 0
M  V30 8680 C 826.725 1.3407 0.923529 0
M  V30 8681 O 827.914 1.5929 0.805532 0
M  V30 8682 C 825.014 3.06736 1.44105 0
M  V30 8683 C 824.187 4.27497 0.925477 0
M  V30 8684 C 823.246 4.89014 1.94297 0
M  V30 8685 O 822.272 5.48851 1.50834 0
M  V30 8686 N 823.474 4.7937 3.2739 0
M  V30 8687 H 826.239 2.97443 -0.367115 0
M  V30 8688 H 823.8 1.58248 -0.341933 0
M  V30 8689 H 825.792 3.44763 2.11944 0
M  V30 8690 H 824.362 2.3905 2.0143 0
M  V30 8691 H 823.582 3.94135 0.0717301 0
M  V30 8692 H 824.87 5.05714 0.55955 0
M  V30 8693 H 824.268 4.31869 3.65384 0
M  V30 8694 H 822.825 5.21559 3.90922 0
M  V30 8695 N 826.258 0.243083 1.55714 0
M  V30 8696 C 827.535 -0.432851 1.90751 0
M  V30 8697 C 827.915 -1.76153 1.16333 0
M  V30 8698 O 827.263 -2.26783 0.279565 0
M  V30 8699 C 827.473 -0.604685 3.43722 0
M  V30 8700 C 828.821 -0.90231 4.14902 0
M  V30 8701 O 829.845 -0.690689 3.49439 0
M  V30 8702 O 828.704 -1.3051 5.30688 0
M  V30 8703 H 825.798 -0.231835 0.79384 0
M  V30 8704 H 828.344 0.286867 1.67258 0
M  V30 8705 H 827.116 0.331655 3.89892 0
M  V30 8706 H 826.739 -1.37509 3.73065 0
M  V30 8707 N 827.736 -1.57571 -0.0300757 0
M  V30 8708 C 828.646 -2.09892 -1.04798 0
M  V30 8709 C 829.662 -1.03732 -1.39698 0
M  V30 8710 O 830.838 -1.35461 -1.49038 0
M  V30 8711 C 827.903 -2.56707 -2.33028 0
M  V30 8712 C 826.964 -3.77345 -2.04718 0
M  V30 8713 C 826.197 -4.21918 -3.26834 0
M  V30 8714 O 826.42 -3.66025 -4.37472 0
M  V30 8715 O 825.354 -5.14362 -3.12594 0
M  V30 8716 H 829.18 -2.97023 -0.633344 0
M  V30 8717 H 826.765 -1.47344 -0.246991 0
M  V30 8718 H 828.647 -2.87154 -3.08417 0
M  V30 8719 H 827.322 -1.72688 -2.73789 0
M  V30 8720 H 826.229 -3.51919 -1.26901 0
M  V30 8721 H 827.562 -4.62345 -1.68813 0
M  V30 8722 N 829.214 0.302327 -1.54673 0
M  V30 8723 C 830.46 1.03924 -1.74149 0
M  V30 8724 C 830.793 1.86968 -0.525041 0
M  V30 8725 O 830.068 1.88538 0.477868 0
M  V30 8726 C 830.351 1.94633 -3.02969 0
M  V30 8727 C 830.204 1.14778 -4.34909 0
M  V30 8728 C 831.523 2.93826 -3.27649 0
M  V30 8729 H 828.642 0.376405 -0.633631 0
M  V30 8730 H 831.284 0.314007 -1.87387 0
M  V30 8731 H 829.434 2.56471 -2.91813 0
M  V30 8732 H 831.106 0.552363 -4.57981 0
M  V30 8733 H 829.349 0.450462 -4.31455 0
M  V30 8734 H 830.02 1.81495 -5.21309 0
M  V30 8735 H 832.496 2.42117 -3.38406 0
M  V30 8736 H 831.372 3.54462 -4.19104 0
M  V30 8737 H 831.633 3.67416 -2.45882 0
M  V30 8738 N 830.692 1.47107 0.565454 0
M  V30 8739 C 831.969 1.43787 1.32607 0
M  V30 8740 C 832.349 0.130428 2.10697 0
M  V30 8741 O 831.697 -0.888086 2.10536 0
M  V30 8742 C 831.907 2.67833 2.23755 0
M  V30 8743 C 833.255 3.14704 2.85037 0
M  V30 8744 O 834.279 2.68503 2.34061 0
M  V30 8745 O 833.138 3.95002 3.77671 0
M  V30 8746 H 830.232 0.572623 0.596684 0
M  V30 8747 H 832.778 1.59296 0.58504 0
M  V30 8748 H 831.55 3.54532 1.65597 0
M  V30 8749 H 831.173 2.54869 3.05168 0
M  V30 8750 N 832.17 -0.811516 1.35101 0
M  V30 8751 C 833.08 -1.95475 1.29718 0
M  V30 8752 C 834.096 -1.72813 0.202909 0
M  V30 8753 O 835.272 -1.96725 0.431414 0
M  V30 8754 C 832.337 -3.29975 1.06385 0
M  V30 8755 C 831.398 -3.65566 2.25077 0
M  V30 8756 C 830.631 -4.93648 2.02848 0
M  V30 8757 O 830.854 -5.617 0.992442 0
M  V30 8758 O 829.788 -5.27384 2.90087 0
M  V30 8759 H 833.614 -2.02961 2.25921 0
M  V30 8760 H 831.199 -0.948583 1.15422 0
M  V30 8761 H 833.081 -4.10506 0.951999 0
M  V30 8762 H 831.756 -3.2343 0.132294 0
M  V30 8763 H 830.663 -2.85432 2.41825 0
M  V30 8764 H 831.996 -3.7681 3.16662 0
M  V30 8765 N 833.648 -1.19017 -1.03309 0
M  V30 8766 C 834.578 -0.94772 -2.13402 0
M  V30 8767 C 835.559 0.117383 -1.69694 0
M  V30 8768 O 836.744 -0.0367733 -1.94165 0
M  V30 8769 C 833.874 -0.480977 -3.43953 0
M  V30 8770 C 832.828 -1.48743 -4.01322 0
M  V30 8771 C 832.154 -0.877924 -5.27443 0
M  V30 8772 C 833.454 -2.86642 -4.36616 0
M  V30 8773 H 835.148 -1.86846 -2.33942 0
M  V30 8774 H 832.694 -0.899781 -1.12427 0
M  V30 8775 H 834.647 -0.298677 -4.2034 0
M  V30 8776 H 833.371 0.475348 -3.23122 0
M  V30 8777 H 832.03 -1.65681 -3.27025 0
M  V30 8778 H 831.678 0.0858232 -5.02927 0
M  V30 8779 H 831.378 -1.54996 -5.66789 0
M  V30 8780 H 832.902 -0.706326 -6.06501 0
M  V30 8781 H 834.316 -2.73312 -5.03958 0
M  V30 8782 H 832.713 -3.50599 -4.87032 0
M  V30 8783 H 833.783 -3.39617 -3.46105 0
M  V30 8784 N 835.127 1.22348 -0.993418 0
M  V30 8785 C 836.057 2.26584 -0.564088 0
M  V30 8786 C 837.038 1.65102 0.409298 0
M  V30 8787 O 838.223 1.91872 0.299819 0
M  V30 8788 C 835.353 3.47087 0.121554 0
M  V30 8789 C 834.307 4.21009 -0.770429 0
M  V30 8790 C 833.633 5.34678 0.0481586 0
M  V30 8791 C 834.933 4.79636 -2.06752 0
M  V30 8792 H 836.627 2.62749 -1.43538 0
M  V30 8793 H 834.173 1.26303 -0.691628 0
M  V30 8794 H 836.126 4.19166 0.433303 0
M  V30 8795 H 834.85 3.1002 1.0274 0
M  V30 8796 H 833.509 3.50764 -1.06583 0
M  V30 8797 H 833.157 4.93852 0.954933 0
M  V30 8798 H 832.857 5.85061 -0.545641 0
M  V30 8799 H 834.381 6.09573 0.353991 0
M  V30 8800 H 835.795 5.43654 -1.81969 0
M  V30 8801 H 834.192 5.4036 -2.61019 0
M  V30 8802 H 835.262 3.99659 -2.74592 0
M  V30 8803 N 836.605 0.766683 1.37694 0
M  V30 8804 C 837.537 0.107798 2.28946 0
M  V30 8805 C 838.55 -0.669701 1.48387 0
M  V30 8806 O 839.739 -0.508629 1.711 0
M  V30 8807 C 836.839 -0.871084 3.27514 0
M  V30 8808 C 836.012 -0.148471 4.37148 0
M  V30 8809 C 835.071 -1.03998 5.1582 0
M  V30 8810 O 834.097 -0.505639 5.6695 0
M  V30 8811 N 835.299 -2.36679 5.3006 0
M  V30 8812 H 838.064 0.89154 2.86132 0
M  V30 8813 H 835.625 0.618593 1.49616 0
M  V30 8814 H 837.617 -1.47081 3.77027 0
M  V30 8815 H 836.187 -1.55582 2.71133 0
M  V30 8816 H 835.407 0.632117 3.89099 0
M  V30 8817 H 836.695 0.351045 5.07588 0
M  V30 8818 H 836.093 -2.82532 4.90094 0
M  V30 8819 H 834.65 -2.9167 5.82899 0
M  V30 8820 N 838.083 -1.48885 0.516809 0
M  V30 8821 C 839.03 -2.29408 -0.253125 0
M  V30 8822 C 840 -1.36533 -0.945935 0
M  V30 8823 O 841.185 -1.65495 -0.949527 0
M  V30 8824 C 838.325 -3.19592 -1.30211 0
M  V30 8825 C 837.438 -4.27535 -0.61948 0
M  V30 8826 C 836.573 -5.04916 -1.65026 0
M  V30 8827 C 835.612 -6.04677 -0.950368 0
M  V30 8828 N 834.749 -6.75164 -1.92608 0
M  V30 8829 H 839.589 -2.94738 0.439744 0
M  V30 8830 H 837.126 -1.45311 0.2287 0
M  V30 8831 H 839.084 -3.70267 -1.92245 0
M  V30 8832 H 837.714 -2.56213 -1.96353 0
M  V30 8833 H 836.766 -3.80228 0.114505 0
M  V30 8834 H 838.078 -4.98752 -0.0693016 0
M  V30 8835 H 837.232 -5.59539 -2.34523 0
M  V30 8836 H 835.971 -4.33508 -2.23432 0
M  V30 8837 H 834.976 -5.4927 -0.241252 0
M  V30 8838 H 836.201 -6.78077 -0.372599 0
M  V30 8839 H 834.147 -6.06517 -2.49946 0
M  V30 8840 H 834.064 -7.4241 -1.42699 0
M  V30 8841 H 835.332 -7.34384 -2.61345 0
M  V30 8842 N 839.561 -0.251338 -1.55583 0
M  V30 8843 C 840.471 0.656978 -2.25213 0
M  V30 8844 C 841.487 1.18966 -1.26977 0
M  V30 8845 O 842.663 1.22499 -1.59862 0
M  V30 8846 C 839.728 1.83527 -2.94141 0
M  V30 8847 C 838.789 1.34162 -4.07798 0
M  V30 8848 C 838.022 2.46375 -4.73429 0
M  V30 8849 O 838.245 3.65205 -4.38157 0
M  V30 8850 O 837.179 2.15881 -5.61853 0
M  V30 8851 H 841.005 0.0936395 -3.03556 0
M  V30 8852 H 838.59 -0.0196638 -1.49387 0
M  V30 8853 H 840.472 2.52279 -3.3754 0
M  V30 8854 H 839.147 2.38614 -2.18735 0
M  V30 8855 H 838.054 0.621249 -3.68906 0
M  V30 8856 H 839.387 0.836779 -4.85035 0
M  V30 8857 N 841.039 1.57585 0.0217189 0
M  V30 8858 C 841.971 2.03849 1.04777 0
M  V30 8859 C 842.984 0.952558 1.32023 0
M  V30 8860 O 844.173 1.22974 1.29381 0
M  V30 8861 C 841.273 2.40504 2.3877 0
M  V30 8862 C 840.446 3.71566 2.30775 0
M  V30 8863 C 839.505 3.95329 3.47277 0
M  V30 8864 O 838.531 4.66289 3.26441 0
M  V30 8865 N 839.733 3.41536 4.69397 0
M  V30 8866 H 842.498 2.92491 0.653395 0
M  V30 8867 H 840.059 1.60538 0.209527 0
M  V30 8868 H 842.051 2.53532 3.15442 0
M  V30 8869 H 840.621 1.57494 2.70027 0
M  V30 8870 H 839.841 3.68822 1.39155 0
M  V30 8871 H 841.129 4.5753 2.22584 0
M  V30 8872 H 840.527 2.84033 4.89226 0
M  V30 8873 H 839.084 3.59932 5.43408 0
M  V30 8874 N 842.517 -0.29412 1.54831 0
M  V30 8875 C 843.465 -1.38296 1.87021 0
M  V30 8876 C 844.459 -1.5216 0.744557 0
M  V30 8877 O 845.665 -1.54196 0.92864 0
M  V30 8878 H 842.04 -0.462088 0.593278 0
M  V30 8879 H 844.011 -1.08386 2.7802 0
M  V30 8880 C 842.76 -2.74024 2.14023 0
M  V30 8881 H 842.083 -2.6414 3.00117 0
M  V30 8882 H 843.523 -3.49205 2.40482 0
M  V30 8883 C 841.982 -3.23492 0.940982 0
M  V30 8884 O 842.512 -4.01361 0.164937 0
M  V30 8885 N 840.718 -2.80902 0.744467 0
M  V30 8886 H 840.265 -2.17694 1.37721 0
M  V30 8887 H 840.223 -3.14349 -0.0563652 0
M  V30 8888 N 843.995 -1.47404 -0.557645 0
M  V30 8889 C 845.225 -1.57393 -1.33832 0
M  V30 8890 C 845.633 -0.222978 -1.87881 0
M  V30 8891 O 844.976 0.793854 -1.65661 0
M  V30 8892 C 845.038 -2.53882 -2.54528 0
M  V30 8893 C 844.702 -3.99585 -2.21767 0
M  V30 8894 C 845.699 -4.88082 -1.79087 0
M  V30 8895 C 843.384 -4.44917 -2.3314 0
M  V30 8896 C 845.378 -6.1993 -1.48209 0
M  V30 8897 C 843.065 -5.76793 -2.01874 0
M  V30 8898 C 844.063 -6.64121 -1.59476 0
M  V30 8899 O 843.751 -7.93546 -1.28607 0
M  V30 8900 H 843.483 -0.534172 -0.41429 0
M  V30 8901 H 846.037 -1.93733 -0.682404 0
M  V30 8902 H 844.267 -2.12609 -3.23009 0
M  V30 8903 H 845.956 -2.54003 -3.16603 0
M  V30 8904 H 846.722 -4.54307 -1.69794 0
M  V30 8905 H 842.601 -3.77152 -2.65099 0
M  V30 8906 H 846.145 -6.88049 -1.15043 0
M  V30 8907 H 842.042 -6.1011 -2.10799 0
M  V30 8908 H 842.81 -8.06046 -1.42241 0
M  V30 8909 N 845.473 0.80434 -1.35529 0
M  V30 8910 C 846.698 1.598 -1.32207 0
M  V30 8911 C 847.123 1.87848 0.0974226 0
M  V30 8912 O 846.481 1.46728 1.06492 0
M  V30 8913 C 846.529 2.90483 -2.13663 0
M  V30 8914 O 845.633 3.83411 -1.51888 0
M  V30 8915 H 844.974 0.485305 -0.453183 0
M  V30 8916 H 847.504 0.998119 -1.78602 0
M  V30 8917 H 847.514 3.39888 -2.257 0
M  V30 8918 H 846.189 2.69395 -3.16859 0
M  V30 8919 H 844.766 3.41967 -1.48704 0
M  V30 8920 N 846.951 1.19563 1.02676 0
M  V30 8921 C 848.228 0.908857 1.73203 0
M  V30 8922 C 848.608 -0.584928 2.02834 0
M  V30 8923 O 847.956 -1.54372 1.68469 0
M  V30 8924 C 848.166 1.77105 3.00724 0
M  V30 8925 C 849.514 2.00667 3.7419 0
M  V30 8926 O 850.538 1.74274 3.10656 0
M  V30 8927 O 849.397 2.4518 4.88415 0
M  V30 8928 H 846.491 0.338909 0.754367 0
M  V30 8929 H 849.037 1.30387 1.08616 0
M  V30 8930 H 847.809 2.78303 2.7507 0
M  V30 8931 H 847.432 1.37546 3.73051 0
M  V30 8932 N 848.429 -1.21819 0.999893 0
M  V30 8933 C 849.706 -1.86318 0.595384 0
M  V30 8934 C 850.086 -1.8965 -0.927143 0
M  V30 8935 O 849.434 -1.3921 -1.81199 0
M  V30 8936 C 849.644 -3.26837 1.22387 0
M  V30 8937 C 850.992 -4.03272 1.32878 0
M  V30 8938 O 852.016 -3.36129 1.1788 0
M  V30 8939 O 850.875 -5.23477 1.56952 0
M  V30 8940 H 847.969 -0.801638 0.203238 0
M  V30 8941 H 850.515 -1.29542 1.09622 0
M  V30 8942 H 849.287 -3.19084 2.26497 0
M  V30 8943 H 848.91 -3.91226 0.709069 0
M  V30 8944 N 849.908 -0.773975 -1.37286 0
M  V30 8945 C 851.154 -0.339809 -1.99933 0
M  V30 8946 C 851.487 1.0815 -1.61299 0
M  V30 8947 O 850.762 1.74442 -0.860252 0
M  V30 8948 C 851.045 -0.485919 -3.56806 0
M  V30 8949 C 850.898 -1.9498 -4.05343 0
M  V30 8950 C 852.217 0.108461 -4.39966 0
M  V30 8951 H 849.336 -0.124944 -0.726332 0
M  V30 8952 H 851.978 -0.977433 -1.6293 0
M  V30 8953 H 850.128 0.0569023 -3.88458 0
M  V30 8954 H 851.8 -2.5525 -3.84246 0
M  V30 8955 H 850.043 -2.45784 -3.57453 0
M  V30 8956 H 850.714 -2.00308 -5.14374 0
M  V30 8957 H 853.19 -0.354722 -4.14585 0
M  V30 8958 H 852.066 -0.0238926 -5.48895 0
M  V30 8959 H 852.327 1.19901 -4.25531 0
M  V30 8960 N 851.386 1.48609 -0.524698 0
M  V30 8961 C 852.316 2.32366 0.229837 0
M  V30 8962 C 853.297 1.41759 0.940129 0
M  V30 8963 O 854.482 1.7065 0.926936 0
M  V30 8964 C 851.612 3.22835 1.28043 0
M  V30 8965 C 850.566 4.22424 0.688603 0
M  V30 8966 C 849.892 5.0199 1.84146 0
M  V30 8967 C 851.192 5.21217 -0.336176 0
M  V30 8968 H 852.886 2.95698 -0.469339 0
M  V30 8969 H 850.432 1.42197 -0.227156 0
M  V30 8970 H 852.385 3.80253 1.8162 0
M  V30 8971 H 851.109 2.57492 2.00912 0
M  V30 8972 H 849.768 3.66185 0.174402 0
M  V30 8973 H 849.416 4.33076 2.5584 0
M  V30 8974 H 849.116 5.69392 1.45142 0
M  V30 8975 H 850.64 5.62259 2.38111 0
M  V30 8976 H 852.054 5.7319 0.112307 0
M  V30 8977 H 850.451 5.96642 -0.643324 0
M  V30 8978 H 851.521 4.68676 -1.24381 0
M  V30 8979 N 852.864 0.259585 1.55447 0
M  V30 8980 C 853.827 -0.621359 2.20617 0
M  V30 8981 C 854.827 -1.09317 1.17925 0
M  V30 8982 O 856.017 -0.995842 1.42929 0
M  V30 8983 C 853.149 -1.85546 2.85982 0
M  V30 8984 H 854.342 -0.0525833 2.99854 0
M  V30 8985 H 851.895 0.0101055 1.56297 0
M  V30 8986 H 852.63 -2.46515 2.10715 0
M  V30 8987 H 852.415 -1.52523 3.61219 0
M  V30 8988 H 853.905 -2.48227 3.35817 0
M  V30 8989 N 854.342 -1.57594 -0.0133615 0
M  V30 8990 C 855.29 -2.08682 -1.02736 0
M  V30 8991 C 856.284 -1.00391 -1.36448 0
M  V30 8992 O 857.49 -1.18868 -1.35168 0
M  V30 8993 H 853.865 -0.666158 -0.34891 0
M  V30 8994 H 855.836 -2.9289 -0.570815 0
M  V30 8995 C 854.585 -2.5945 -2.31476 0
M  V30 8996 H 853.908 -3.42401 -2.06401 0
M  V30 8997 H 855.348 -2.98888 -3.00735 0
M  V30 8998 C 853.807 -1.50266 -3.01533 0
M  V30 8999 O 854.337 -0.877875 -3.9199 0
M  V30 9000 N 852.543 -1.23336 -2.63129 0
M  V30 9001 H 852.09 -1.74327 -1.89652 0
M  V30 9002 H 852.048 -0.504987 -3.10318 0
M  V30 9003 N 855.82 0.285905 -1.54985 0
M  V30 9004 C 856.753 1.37817 -1.81884 0
M  V30 9005 C 857.731 1.4811 -0.670988 0
M  V30 9006 O 858.915 1.64936 -0.912595 0
M  V30 9007 C 856.042 2.75587 -1.969 0
M  V30 9008 C 855.088 2.82643 -3.19398 0
M  V30 9009 S 855.921 2.43199 -4.7709 0
M  V30 9010 C 857.077 3.82969 -4.95061 0
M  V30 9011 H 857.31 1.14794 -2.74244 0
M  V30 9012 H 854.843 0.484843 -1.4659 0
M  V30 9013 H 856.801 3.54932 -2.06236 0
M  V30 9014 H 855.462 2.9587 -1.05451 0
M  V30 9015 H 854.655 3.8373 -3.26753 0
M  V30 9016 H 854.257 2.11306 -3.08586 0
M  V30 9017 H 856.549 4.78117 -4.80011 0
M  V30 9018 H 857.492 3.80575 -5.97133 0
M  V30 9019 H 857.9 3.73673 -4.23118 0
M  V30 9020 N 857.298 1.47698 0.54982 0
M  V30 9021 C 858.547 1.53961 1.30303 0
M  V30 9022 C 858.86 0.209731 1.94472 0
M  V30 9023 O 860.066 0.150418 2.71083 0
M  V30 9024 C 858.522 2.71436 2.36328 0
M  V30 9025 C 858.13 4.10983 1.78316 0
M  V30 9026 C 859.874 2.86996 3.12783 0
M  V30 9027 C 857.781 5.19747 2.82164 0
M  V30 9028 H 856.711 0.573098 0.489975 0
M  V30 9029 H 859.362 1.73989 0.583089 0
M  V30 9030 H 857.744 2.44801 3.11269 0
M  V30 9031 H 858.918 4.47552 1.09697 0
M  V30 9032 H 857.233 4.00371 1.1442 0
M  V30 9033 H 859.83 3.65422 3.90347 0
M  V30 9034 H 860.173 1.95712 3.67427 0
M  V30 9035 H 860.706 3.13436 2.44954 0
M  V30 9036 H 857.445 6.12932 2.32366 0
M  V30 9037 H 856.965 4.87688 3.49171 0
M  V30 9038 H 858.644 5.47014 3.4552 0
M  V30 9039 N 858.776 -0.797141 1.35954 0
M  V30 9040 C 860.001 -1.59097 1.33053 0
M  V30 9041 C 860.426 -1.87897 -0.0874592 0
M  V30 9042 O 859.784 -1.47291 -1.05712 0
M  V30 9043 C 859.832 -2.89346 2.152 0
M  V30 9044 O 858.936 -3.826 1.5392 0
M  V30 9045 H 858.277 -0.482895 0.45575 0
M  V30 9046 H 860.807 -0.988633 1.79129 0
M  V30 9047 H 860.817 -3.38686 2.27499 0
M  V30 9048 H 859.492 -2.6771 3.18283 0
M  V30 9049 H 858.069 -3.41174 1.50516 0
M  V30 9050 N 860.254 -1.20106 -1.0204 0
M  V30 9051 C 861.164 -0.962051 -2.13967 0
M  V30 9052 C 862.18 0.0808053 -1.73812 0
M  V30 9053 O 863.356 -0.105774 -2.01122 0
M  V30 9054 C 860.421 -0.513108 -3.42882 0
M  V30 9055 C 859.482 -1.62636 -3.97301 0
M  V30 9056 C 858.715 -1.19875 -5.20063 0
M  V30 9057 O 858.938 -0.0658423 -5.70362 0
M  V30 9058 O 857.872 -2.00467 -5.67536 0
M  V30 9059 H 861.698 -1.8991 -2.36998 0
M  V30 9060 H 859.283 -0.984608 -1.12365 0
M  V30 9061 H 861.165 -0.271797 -4.20523 0
M  V30 9062 H 859.84 0.395402 -3.21276 0
M  V30 9063 H 858.747 -1.92192 -3.20957 0
M  V30 9064 H 860.08 -2.51174 -4.23288 0
M  V30 9065 N 861.732 1.21287 -1.00634 0
M  V30 9066 C 863.143 1.72136 -0.722914 0
M  V30 9067 C 863.494 1.8091 0.759338 0
M  V30 9068 O 862.619 1.46458 1.59308 0
M  V30 9069 C 863.214 3.12633 -1.30561 0
M  V30 9070 C 861.773 3.60833 -1.07127 0
M  V30 9071 C 860.92 2.38326 -1.4176 0
M  V30 9072 H 863.871 1.06445 -1.17708 0
M  V30 9073 H 863.892 3.74174 -0.690937 0
M  V30 9074 H 863.404 3.06215 -2.38441 0
M  V30 9075 H 861.505 3.72599 -0.00968671 0
M  V30 9076 H 861.618 4.46226 -1.74411 0
M  V30 9077 H 859.982 2.40575 -0.836412 0
M  V30 9078 H 860.765 2.34558 -2.50674 0
M  V30 9079 N 863.21 0.781244 1.36873 0
M  V30 9080 C 864.626 0.461968 1.52768 0
M  V30 9081 C 864.826 -1.02099 1.73719 0
M  V30 9082 O 863.882 -1.80665 1.76399 0
M  V30 9083 C 865.195 1.2853 2.71846 0
M  V30 9084 C 866.743 1.27817 2.85713 0
M  V30 9085 C 867.218 2.08506 4.07786 0
M  V30 9086 N 868.709 2.05909 4.14917 0
M  V30 9087 C 869.444 2.65118 5.08429 0
M  V30 9088 N 868.94 3.33152 6.07438 0
M  V30 9089 N 870.733 2.54896 5.00983 0
M  V30 9090 H 862.884 1.74198 1.21527 0
M  V30 9091 H 865.147 0.740027 0.592506 0
M  V30 9092 H 864.853 2.3366 2.62861 0
M  V30 9093 H 864.727 0.920981 3.65784 0
M  V30 9094 H 867.114 0.234817 2.94164 0
M  V30 9095 H 867.195 1.68219 1.92707 0
M  V30 9096 H 866.839 3.12867 4.00096 0
M  V30 9097 H 866.769 1.65479 4.99924 0
M  V30 9098 H 869.26 1.56386 3.44023 0
M  V30 9099 H 869.573 3.75681 6.75339 0
M  V30 9100 H 867.918 3.37253 6.07689 0
M  V30 9101 H 871.109 2.01352 4.22581 0
M  V30 9102 H 871.282 3.01332 5.73675 0
M  V30 9103 N 864.689 -1.48329 0.532571 0
M  V30 9104 C 865.938 -2.017 -0.00259705 0
M  V30 9105 C 866.251 -1.41469 -1.35077 0
M  V30 9106 O 867.457 -1.86354 -1.97445 0
M  V30 9107 C 865.913 -3.59858 -0.0550179 0
M  V30 9108 C 865.521 -4.29073 1.28842 0
M  V30 9109 C 867.265 -4.21066 -0.538878 0
M  V30 9110 C 865.172 -5.79171 1.19644 0
M  V30 9111 H 864.102 -0.753985 -0.00474081 0
M  V30 9112 H 866.753 -1.70565 0.676739 0
M  V30 9113 H 865.135 -3.87846 -0.799486 0
M  V30 9114 H 866.309 -4.12755 2.04865 0
M  V30 9115 H 864.624 -3.79748 1.70822 0
M  V30 9116 H 867.221 -5.31026 -0.6257 0
M  V30 9117 H 867.564 -3.86559 -1.54525 0
M  V30 9118 H 868.097 -3.97517 0.149984 0
M  V30 9119 H 864.836 -6.18257 2.17805 0
M  V30 9120 H 864.356 -5.97895 0.477609 0
M  V30 9121 H 866.035 -6.40875 0.888186 0
M  V30 9122 N 866.167 -0.267825 -1.55308 0
M  V30 9123 C 867.392 0.357487 -2.04296 0
M  V30 9124 C 867.817 1.49222 -1.14518 0
M  V30 9125 O 867.175 1.80741 -0.142292 0
M  V30 9126 C 867.223 0.822899 -3.51085 0
M  V30 9127 O 866.327 1.93078 -3.6441 0
M  V30 9128 H 865.668 0.075025 -0.659748 0
M  V30 9129 H 868.198 -0.399996 -2.00652 0
M  V30 9130 H 868.208 1.12059 -3.92309 0
M  V30 9131 H 866.883 -0.0073562 -4.15899 0
M  V30 9132 H 865.46 1.63618 -3.35087 0
M  V30 9133 N 867.645 1.57599 0.00500368 0
M  V30 9134 C 868.875 1.94344 0.700998 0
M  V30 9135 C 869.283 0.868011 1.68114 0
M  V30 9136 O 868.626 -0.16214 1.82983 0
M  V30 9137 C 868.688 3.27046 1.49268 0
M  V30 9138 C 868.352 4.51992 0.674684 0
M  V30 9139 C 869.349 5.19888 -0.0354833 0
M  V30 9140 C 867.034 4.98432 0.622129 0
M  V30 9141 C 869.028 6.3252 -0.787246 0
M  V30 9142 C 866.715 6.10954 -0.133362 0
M  V30 9143 C 867.713 6.77855 -0.836788 0
M  V30 9144 O 867.401 7.88221 -1.57996 0
M  V30 9145 H 867.133 0.645572 0.20053 0
M  V30 9146 H 869.687 2.0536 -0.040718 0
M  V30 9147 H 867.917 3.12424 2.27877 0
M  V30 9148 H 869.606 3.4894 2.07355 0
M  V30 9149 H 870.372 4.85 -0.00400159 0
M  V30 9150 H 866.251 4.46189 1.15917 0
M  V30 9151 H 869.795 6.84671 -1.33683 0
M  V30 9152 H 865.692 6.45285 -0.166682 0
M  V30 9153 H 866.46 8.0471 -1.49615 0
M  V30 9154 N 869.123 -0.277682 1.55134 0
M  V30 9155 C 870.371 -1.00791 1.75173 0
M  V30 9156 C 870.692 -1.86987 0.553266 0
M  V30 9157 O 869.962 -1.91079 -0.43195 0
M  V30 9158 H 868.542 -0.375129 0.645978 0
M  V30 9159 H 871.204 -0.303041 1.9253 0
M  V30 9160 H 870.3 -1.64756 2.6507 0
M  V30 9161 N 870.601 -1.47988 -0.541979 0
M  V30 9162 C 871.549 -1.62044 -1.66867 0
M  V30 9163 C 872.543 -0.487217 -1.62242 0
M  V30 9164 O 873.749 -0.66554 -1.67244 0
M  V30 9165 H 870.124 -0.51024 -0.552412 0
M  V30 9166 H 872.095 -2.56695 -1.52153 0
M  V30 9167 C 870.844 -1.66615 -3.0518 0
M  V30 9168 H 870.167 -2.5317 -3.09427 0
M  V30 9169 H 871.607 -1.80496 -3.83663 0
M  V30 9170 C 870.066 -0.402421 -3.34488 0
M  V30 9171 O 870.596 0.48992 -3.98701 0
M  V30 9172 N 868.802 -0.277778 -2.89269 0
M  V30 9173 H 868.349 -1.00488 -2.37192 0
M  V30 9174 H 868.307 0.566784 -3.09249 0
M  V30 9175 N 872.079 0.78992 -1.36375 0
M  V30 9176 C 873.356 1.53584 -1.21126 0
M  V30 9177 C 873.736 2.10124 0.202785 0
M  V30 9178 O 873.084 1.93936 1.20835 0
M  V30 9179 C 873.294 2.63117 -2.29282 0
M  V30 9180 C 874.642 3.31013 -2.65924 0
M  V30 9181 O 875.666 2.734 -2.28321 0
M  V30 9182 O 874.525 4.35129 -3.30643 0
M  V30 9183 H 871.619 0.679366 -0.471583 0
M  V30 9184 H 874.165 0.828446 -1.48104 0
M  V30 9185 H 872.937 2.19329 -3.24053 0
M  V30 9186 H 872.56 3.41476 -2.03666 0
M  V30 9187 N 873.557 1.20646 1.01402 0
M  V30 9188 C 874.52 0.959314 2.08158 0
M  V30 9189 C 875.52 -0.0661558 1.60664 0
M  V30 9190 O 876.71 0.170177 1.73367 0
M  V30 9191 C 873.842 0.444785 3.37986 0
M  V30 9192 H 875.035 1.90631 2.31517 0
M  V30 9193 H 872.588 1.02219 1.18241 0
M  V30 9194 H 873.323 -0.507553 3.20304 0
M  V30 9195 H 873.108 1.18435 3.73785 0
M  V30 9196 H 874.598 0.291443 4.16582 0
M  V30 9197 N 875.035 -1.20752 1.01276 0
M  V30 9198 C 875.965 -2.25658 0.600064 0
M  V30 9199 C 876.946 -1.65733 -0.38298 0
M  V30 9200 O 878.131 -1.92324 -0.269256 0
M  V30 9201 C 875.261 -3.47237 -0.0663197 0
M  V30 9202 C 874.215 -4.1973 0.83731 0
M  V30 9203 C 873.541 -5.34687 0.0369102 0
M  V30 9204 C 874.841 -4.76286 2.14357 0
M  V30 9205 H 876.535 -2.60432 1.477 0
M  V30 9206 H 874.081 -1.25187 0.711634 0
M  V30 9207 H 876.034 -4.19803 -0.366563 0
M  V30 9208 H 874.758 -3.11615 -0.977944 0
M  V30 9209 H 873.417 -3.49024 1.1215 0
M  V30 9210 H 873.065 -4.95309 -0.876244 0
M  V30 9211 H 872.765 -5.84119 0.63865 0
M  V30 9212 H 874.289 -6.10059 -0.256968 0
M  V30 9213 H 875.703 -5.40691 1.90595 0
M  V30 9214 H 874.1 -5.36139 2.69583 0
M  V30 9215 H 875.17 -3.9524 2.80916 0
M  V30 9216 N 876.513 -0.788492 -1.36457 0
M  V30 9217 C 877.446 -0.132189 -2.27817 0
M  V30 9218 C 878.424 0.691166 -1.47179 0
M  V30 9219 O 879.608 0.662344 -1.7648 0
M  V30 9220 C 876.735 0.818386 -3.28664 0
M  V30 9221 C 875.781 0.0769392 -4.26431 0
M  V30 9222 S 876.614 -1.24666 -5.20786 0
M  V30 9223 C 877.77 -0.300063 -6.2518 0
M  V30 9224 H 878.003 -0.906824 -2.83132 0
M  V30 9225 H 875.536 -0.582666 -1.42984 0
M  V30 9226 H 877.494 1.36138 -3.87268 0
M  V30 9227 H 876.155 1.56626 -2.72263 0
M  V30 9228 H 875.348 0.79819 -4.97639 0
M  V30 9229 H 874.95 -0.395547 -3.71902 0
M  V30 9230 H 877.242 0.521434 -6.7549 0
M  V30 9231 H 878.185 -0.980808 -7.01274 0
M  V30 9232 H 878.593 0.0961898 -5.64418 0
M  V30 9233 N 877.991 1.48044 -0.54043 0
M  V30 9234 C 879.402 1.86418 -0.102662 0
M  V30 9235 C 879.753 1.4489 1.32293 0
M  V30 9236 O 878.878 0.844319 1.99249 0
M  V30 9237 C 879.473 3.38324 -0.179533 0
M  V30 9238 C 878.032 3.75852 0.203098 0
M  V30 9239 C 877.179 2.72097 -0.534637 0
M  V30 9240 H 880.13 1.398 -0.751103 0
M  V30 9241 H 880.151 3.75641 0.606147 0
M  V30 9242 H 879.663 3.68518 -1.21721 0
M  V30 9243 H 877.764 3.51272 1.24252 0
M  V30 9244 H 877.877 4.78884 -0.143784 0
M  V30 9245 H 876.241 2.54692 0.0203358 0
M  V30 9246 H 877.024 3.05135 -1.57314 0
M  V30 9247 N 879.47 0.276058 1.55163 0
M  V30 9248 C 880.695 -0.346648 2.04483 0
M  V30 9249 C 881.12 -1.48613 1.15308 0
M  V30 9250 O 880.478 -1.80663 0.151875 0
M  V30 9251 C 880.526 -0.804268 3.51517 0
M  V30 9252 O 879.63 -1.91143 3.65429 0
M  V30 9253 H 878.971 -0.0715251 0.660136 0
M  V30 9254 H 881.501 0.410631 2.00437 0
M  V30 9255 H 881.511 -1.09977 3.92898 0
M  V30 9256 H 880.186 0.0294123 4.1589 0
M  V30 9257 H 878.763 -1.61839 3.3595 0
M  V30 9258 N 880.948 -1.576 0.00335426 0
M  V30 9259 C 881.878 -2.11668 -0.985839 0
M  V30 9260 C 882.859 -1.02661 -1.35627 0
M  V30 9261 O 884.044 -1.30361 -1.43943 0
M  V30 9262 C 881.174 -2.62273 -2.27662 0
M  V30 9263 C 880.128 -3.75837 -2.0477 0
M  V30 9264 C 879.454 -4.12769 -3.39891 0
M  V30 9265 C 880.754 -5.02975 -1.40759 0
M  V30 9266 H 882.448 -2.9457 -0.535637 0
M  V30 9267 H 879.994 -1.41702 -0.256204 0
M  V30 9268 H 881.947 -2.98727 -2.97221 0
M  V30 9269 H 880.671 -1.76498 -2.74802 0
M  V30 9270 H 879.33 -3.39782 -1.37636 0
M  V30 9271 H 878.978 -3.24013 -3.8474 0
M  V30 9272 H 878.678 -4.89281 -3.25389 0
M  V30 9273 H 880.202 -4.51784 -4.1076 0
M  V30 9274 H 881.616 -5.37179 -2.00279 0
M  V30 9275 H 880.013 -5.84315 -1.36734 0
M  V30 9276 H 881.083 -4.83431 -0.377218 0
M  V30 9277 N 882.426 0.269451 -1.5528 0
M  V30 9278 C 883.654 1.01872 -1.80082 0
M  V30 9279 C 884.069 1.79802 -0.575917 0
M  V30 9280 O 883.426 1.76735 0.455081 0
M  V30 9281 C 883.477 1.9745 -3.02813 0
M  V30 9282 O 883.198 1.22677 -4.20573 0
M  V30 9283 C 884.699 2.8416 -3.40247 0
M  V30 9284 H 881.919 0.300781 -0.59981 0
M  V30 9285 H 884.463 0.29916 -2.023 0
M  V30 9286 H 882.618 2.64864 -2.82712 0
M  V30 9287 H 883.032 1.87129 -4.89982 0
M  V30 9288 H 884.506 3.47014 -4.29284 0
M  V30 9289 H 884.983 3.54113 -2.59809 0
M  V30 9290 H 885.589 2.22232 -3.6262 0
M  V30 9291 N 883.904 1.48273 0.534124 0
M  V30 9292 C 884.814 1.65162 1.66609 0
M  V30 9293 C 885.83 0.534177 1.65598 0
M  V30 9294 O 887.006 0.804715 1.84625 0
M  V30 9295 C 884.071 1.68354 3.03081 0
M  V30 9296 C 883.132 2.91696 3.1498 0
M  V30 9297 C 882.365 2.94725 4.44941 0
M  V30 9298 O 882.588 2.06285 5.31792 0
M  V30 9299 O 881.522 3.8685 4.61119 0
M  V30 9300 H 885.348 2.60991 1.55298 0
M  V30 9301 H 882.933 1.31626 0.706749 0
M  V30 9302 H 884.815 1.72998 3.84252 0
M  V30 9303 H 883.49 0.756978 3.14725 0
M  V30 9304 H 882.397 2.92586 2.33119 0
M  V30 9305 H 883.73 3.83722 3.0825 0
M  V30 9306 N 885.382 -0.782676 1.36792 0
M  V30 9307 C 886.61 -1.57162 1.34565 0
M  V30 9308 C 887.025 -1.88664 -0.0715501 0
M  V30 9309 O 886.382 -1.50633 -1.03033 0
M  V30 9310 C 886.433 -2.88854 2.1736 0
M  V30 9311 O 886.154 -2.58707 3.53557 0
M  V30 9312 C 887.655 -3.83132 2.2299 0
M  V30 9313 H 884.875 -0.487245 0.461338 0
M  V30 9314 H 887.419 -0.970905 1.79982 0
M  V30 9315 H 885.574 -3.45377 1.7548 0
M  V30 9316 H 885.988 -3.42961 3.96835 0
M  V30 9317 H 887.462 -4.72575 2.85266 0
M  V30 9318 H 887.939 -4.21472 1.23524 0
M  V30 9319 H 888.545 -3.32541 2.65135 0
M  V30 9320 N 886.86 -1.21182 -1.00761 0
M  V30 9321 C 887.807 -0.968741 -2.09485 0
M  V30 9322 C 888.777 0.104325 -1.65772 0
M  V30 9323 O 889.962 -0.0422587 -1.90753 0
M  V30 9324 C 887.102 -0.536686 -3.40901 0
M  V30 9325 C 886.215 -1.6789 -3.98041 0
M  V30 9326 C 885.35 -1.19627 -5.17555 0
M  V30 9327 C 884.389 -2.31099 -5.66798 0
M  V30 9328 N 883.526 -1.83988 -6.77564 0
M  V30 9329 H 888.366 -1.89952 -2.29613 0
M  V30 9330 H 885.903 -0.946688 -1.12589 0
M  V30 9331 H 887.861 -0.26745 -4.16342 0
M  V30 9332 H 886.491 0.357092 -3.20819 0
M  V30 9333 H 885.543 -2.06284 -3.19611 0
M  V30 9334 H 886.855 -2.51794 -4.30582 0
M  V30 9335 H 886.009 -0.883539 -6.00232 0
M  V30 9336 H 884.748 -0.327244 -4.86601 0
M  V30 9337 H 883.753 -2.63178 -4.82719 0
M  V30 9338 H 884.978 -3.18493 -5.99782 0
M  V30 9339 H 882.924 -0.994257 -6.48422 0
M  V30 9340 H 882.841 -2.61466 -7.09346 0
M  V30 9341 H 884.109 -1.55741 -7.63783 0
M  V30 9342 N 888.338 1.20213 -1.01915 0
M  V30 9343 C 889.566 1.93622 -0.729255 0
M  V30 9344 C 889.981 1.74923 0.710444 0
M  V30 9345 O 889.338 1.06484 1.48214 0
M  V30 9346 C 889.389 3.45651 -1.05865 0
M  V30 9347 O 889.11 3.63741 -2.44181 0
M  V30 9348 C 890.611 4.36201 -0.790176 0
M  V30 9349 H 887.831 0.615333 -0.267594 0
M  V30 9350 H 890.375 1.52633 -1.36101 0
M  V30 9351 H 888.53 3.84511 -0.47225 0
M  V30 9352 H 888.944 4.57702 -2.56143 0
M  V30 9353 H 890.418 5.41516 -1.07071 0
M  V30 9354 H 890.895 4.38334 0.275609 0
M  V30 9355 H 891.501 4.03008 -1.35885 0
M  V30 9356 N 889.816 0.795718 1.36037 0
M  V30 9357 C 891.044 0.383153 2.03321 0
M  V30 9358 C 891.459 -1.00246 1.59988 0
M  V30 9359 O 890.816 -1.64406 0.792265 0
M  V30 9360 C 890.867 0.444467 3.58757 0
M  V30 9361 O 890.588 1.77544 4.00512 0
M  V30 9362 C 892.089 0.0233291 4.43294 0
M  V30 9363 H 889.309 0.157061 0.652359 0
M  V30 9364 H 891.853 1.07632 1.73884 0
M  V30 9365 H 890.008 -0.200341 3.86882 0
M  V30 9366 H 890.422 1.73065 4.95125 0
M  V30 9367 H 891.896 0.117361 5.51875 0
M  V30 9368 H 892.373 -1.03007 4.2695 0
M  V30 9369 H 892.979 0.64087 4.20444 0
M  V30 9370 N 891.294 -1.47756 0.548274 0
M  V30 9371 C 892.54 -2.02789 0.0209265 0
M  V30 9372 C 892.873 -1.42268 -1.32187 0
M  V30 9373 O 892.148 -0.575001 -1.85806 0
M  V30 9374 C 892.431 -3.60007 -0.0816674 0
M  V30 9375 C 892.284 -4.30977 1.28759 0
M  V30 9376 C 893.603 -4.32777 -0.799515 0
M  V30 9377 H 890.722 -0.736944 0.00907884 0
M  V30 9378 H 893.364 -1.76282 0.708839 0
M  V30 9379 H 891.514 -3.82722 -0.667537 0
M  V30 9380 H 893.186 -4.19629 1.91597 0
M  V30 9381 H 891.429 -3.9168 1.86466 0
M  V30 9382 H 892.1 -5.39488 1.16861 0
M  V30 9383 H 894.576 -4.15001 -0.30216 0
M  V30 9384 H 893.452 -5.42431 -0.840239 0
M  V30 9385 H 893.713 -4.01358 -1.85375 0
M  V30 9386 N 892.772 -0.284283 -1.55015 0
M  V30 9387 C 893.682 0.60906 -2.26556 0
M  V30 9388 C 894.698 1.16246 -1.29472 0
M  V30 9389 O 895.874 1.1908 -1.62425 0
M  V30 9390 C 892.939 1.77246 -2.97968 0
M  V30 9391 C 892 1.25482 -4.10552 0
M  V30 9392 C 891.233 2.36277 -4.78549 0
M  V30 9393 O 891.456 3.55829 -4.45805 0
M  V30 9394 O 890.39 2.03914 -5.66306 0
M  V30 9395 H 894.216 0.0292298 -3.03686 0
M  V30 9396 H 891.801 -0.0513466 -1.49312 0
M  V30 9397 H 893.683 2.45062 -3.42815 0
M  V30 9398 H 892.358 2.33921 -2.23747 0
M  V30 9399 H 891.265 0.542859 -3.7014 0
M  V30 9400 H 892.598 0.733708 -4.86701 0
M  V30 9401 N 894.251 1.57596 -0.0117121 0
M  V30 9402 C 895.181 2.12188 0.9746 0
M  V30 9403 C 896.162 1.03379 1.35081 0
M  V30 9404 O 897.347 1.31123 1.4325 0
M  V30 9405 C 894.477 2.63477 2.26268 0
M  V30 9406 C 893.431 3.76917 2.02774 0
M  V30 9407 C 892.757 4.14566 3.37697 0
M  V30 9408 C 894.057 5.03715 1.38089 0
M  V30 9409 H 895.751 2.9485 0.520007 0
M  V30 9410 H 893.297 1.41836 0.248685 0
M  V30 9411 H 895.25 3.00299 2.95633 0
M  V30 9412 H 893.974 1.77953 2.73862 0
M  V30 9413 H 892.633 3.40507 1.35832 0
M  V30 9414 H 892.281 3.26048 3.83016 0
M  V30 9415 H 891.981 4.91 3.22789 0
M  V30 9416 H 893.505 4.53956 4.08358 0
M  V30 9417 H 894.919 5.38233 1.97428 0
M  V30 9418 H 893.316 5.85032 1.33634 0
M  V30 9419 H 894.386 4.83624 0.351575 0
M  V30 9420 N 895.729 -0.261212 1.5542 0
M  V30 9421 C 896.659 -1.32712 1.92119 0
M  V30 9422 C 897.64 -1.50934 0.784406 0
M  V30 9423 O 898.825 -1.63781 1.04352 0
M  V30 9424 C 895.955 -2.68453 2.20341 0
M  V30 9425 C 894.909 -2.64947 3.36136 0
M  V30 9426 C 894.235 -4.04349 3.49865 0
M  V30 9427 C 895.535 -2.23182 4.72215 0
M  V30 9428 H 897.229 -1.02245 2.81401 0
M  V30 9429 H 894.775 -0.490406 1.35392 0
M  V30 9430 H 896.728 -3.43144 2.44603 0
M  V30 9431 H 895.452 -3.00527 1.27871 0
M  V30 9432 H 894.111 -1.92714 3.11861 0
M  V30 9433 H 893.759 -4.33665 2.5484 0
M  V30 9434 H 893.459 -4.02895 4.27726 0
M  V30 9435 H 894.983 -4.80761 3.76432 0
M  V30 9436 H 896.397 -2.87599 4.95943 0
M  V30 9437 H 894.794 -2.32867 5.53076 0
M  V30 9438 H 895.864 -1.18327 4.70241 0
M  V30 9439 N 897.207 -1.48554 -0.526253 0
M  V30 9440 C 898.618 -1.50256 -1.10815 0
M  V30 9441 C 898.969 -0.274445 -1.94271 0
M  V30 9442 O 898.094 0.618094 -2.07385 0
M  V30 9443 C 898.689 -2.72264 -2.01638 0
M  V30 9444 C 897.248 -2.76826 -2.55038 0
M  V30 9445 C 896.395 -2.43823 -1.32081 0
M  V30 9446 H 899.346 -1.55616 -0.31133 0
M  V30 9447 H 899.367 -2.50993 -2.85977 0
M  V30 9448 H 898.879 -3.61632 -1.4087 0
M  V30 9449 H 896.98 -1.91676 -3.19517 0
M  V30 9450 H 897.093 -3.78351 -2.93917 0
M  V30 9451 H 895.457 -1.95058 -1.63781 0
M  V30 9452 H 896.24 -3.35436 -0.730596 0
M  V30 9453 N 898.685 0.775411 -1.37205 0
M  V30 9454 C 899.931 1.53611 -1.32407 0
M  V30 9455 C 900.264 1.9398 0.0924103 0
M  V30 9456 O 899.539 1.63791 1.04893 0
M  V30 9457 C 899.822 2.80367 -2.25979 0
M  V30 9458 C 899.675 2.46275 -3.76389 0
M  V30 9459 C 900.994 3.82277 -2.18064 0
M  V30 9460 H 898.113 0.557278 -0.482297 0
M  V30 9461 H 900.755 0.889826 -1.67875 0
M  V30 9462 H 898.905 3.35515 -1.95862 0
M  V30 9463 H 900.577 1.9707 -4.17087 0
M  V30 9464 H 898.82 1.79023 -3.95137 0
M  V30 9465 H 899.491 3.36868 -4.37291 0
M  V30 9466 H 901.967 3.36613 -2.44604 0
M  V30 9467 H 900.843 4.68696 -2.85684 0
M  V30 9468 H 901.104 4.26272 -1.17239 0
M  V30 9469 N 900.163 1.21714 1.00117 0
M  V30 9470 C 901.111 0.976937 2.11089 0
M  V30 9471 C 902.105 -0.0771295 1.69224 0
M  V30 9472 O 903.311 0.0745945 1.79845 0
M  V30 9473 H 899.686 0.298687 0.690138 0
M  V30 9474 H 901.657 1.91881 2.28526 0
M  V30 9475 C 900.406 0.562369 3.43122 0
M  V30 9476 H 899.729 1.36509 3.75773 0
M  V30 9477 H 901.169 0.433642 4.21777 0
M  V30 9478 C 899.628 -0.727148 3.28959 0
M  V30 9479 O 900.158 -1.78171 3.60025 0
M  V30 9480 N 898.364 -0.695129 2.82164 0
M  V30 9481 H 897.911 0.163346 2.57082 0
M  V30 9482 H 897.869 -1.55822 2.73069 0
M  V30 9483 N 901.641 -1.19671 1.02551 0
M  V30 9484 C 902.889 -1.88894 0.71858 0
M  V30 9485 C 903.21 -1.79797 -0.754856 0
M  V30 9486 O 902.48 -1.20621 -1.54362 0
M  V30 9487 H 901.06 -0.699244 0.262806 0
M  V30 9488 H 903.722 -1.45298 1.29902 0
M  V30 9489 H 902.818 -2.95309 1.00989 0
M  V30 9490 N 903.119 -0.802921 -1.35613 0
M  V30 9491 C 904.029 -0.212177 -2.33639 0
M  V30 9492 C 905.045 0.642871 -1.61689 0
M  V30 9493 O 906.221 0.555485 -1.93588 0
M  V30 9494 C 903.286 0.632406 -3.40883 0
M  V30 9495 C 902.347 -0.242708 -4.28613 0
M  V30 9496 C 901.58 0.56166 -5.30736 0
M  V30 9497 O 901.803 1.79664 -5.41366 0
M  V30 9498 O 900.737 -0.0455387 -6.01883 0
M  V30 9499 H 904.563 -1.023 -2.85952 0
M  V30 9500 H 902.148 -0.564636 -1.38319 0
M  V30 9501 H 904.03 1.11358 -4.0642 0
M  V30 9502 H 902.705 1.42089 -2.90848 0
M  V30 9503 H 901.612 -0.77094 -3.6607 0
M  V30 9504 H 902.945 -0.995046 -4.82037 0
M  V30 9505 N 904.597 1.47463 -0.556102 0
M  V30 9506 C 905.844 2.02475 -0.0316337 0
M  V30 9507 C 906.172 1.43057 1.31777 0
M  V30 9508 O 905.427 0.575376 1.87051 0
M  V30 9509 C 905.726 3.57224 0.112126 0
M  V30 9510 C 905.392 4.35557 -1.16624 0
M  V30 9511 C 904.054 4.56678 -1.51654 0
M  V30 9512 C 906.406 4.8074 -2.01342 0
M  V30 9513 C 903.734 5.20231 -2.7125 0
M  V30 9514 C 906.086 5.45613 -3.2014 0
M  V30 9515 C 904.75 5.64967 -3.55484 0
M  V30 9516 H 904.02 0.74091 -0.0115756 0
M  V30 9517 H 906.667 1.77148 -0.727392 0
M  V30 9518 H 904.972 3.81538 0.890842 0
M  V30 9519 H 906.669 3.97438 0.533261 0
M  V30 9520 H 903.259 4.19395 -0.883489 0
M  V30 9521 H 907.443 4.64201 -1.75587 0
M  V30 9522 H 902.699 5.3341 -2.98804 0
M  V30 9523 H 906.873 5.79587 -3.86073 0
M  V30 9524 H 904.5 6.13984 -4.4825 0
M  V30 9525 N 906.075 0.2925 1.54862 0
M  V30 9526 C 907.3 -0.32494 2.04839 0
M  V30 9527 C 907.725 -1.47381 1.16877 0
M  V30 9528 O 907.083 -1.80492 0.171028 0
M  V30 9529 C 907.131 -0.76694 3.5235 0
M  V30 9530 O 906.235 -1.87256 3.67436 0
M  V30 9531 H 905.576 -0.0645195 0.660858 0
M  V30 9532 H 908.106 0.431867 1.9999 0
M  V30 9533 H 908.116 -1.05804 3.94043 0
M  V30 9534 H 906.791 0.0735212 4.15835 0
M  V30 9535 H 905.368 -1.58266 3.37648 0
M  V30 9536 N 907.553 -1.57587 0.0200696 0
M  V30 9537 C 908.483 -2.12702 -0.963333 0
M  V30 9538 C 909.464 -1.04094 -1.34531 0
M  V30 9539 O 910.649 -1.31881 -1.42552 0
M  V30 9540 C 907.779 -2.64673 -2.24868 0
M  V30 9541 C 906.733 -3.77987 -2.00772 0
M  V30 9542 C 906.059 -4.16351 -3.35494 0
M  V30 9543 C 907.359 -5.0444 -1.35416 0
M  V30 9544 H 909.053 -2.95121 -0.504363 0
M  V30 9545 H 906.599 -1.41966 -0.24116 0
M  V30 9546 H 908.552 -3.01862 -2.94036 0
M  V30 9547 H 907.276 -1.79403 -2.72914 0
M  V30 9548 H 905.935 -3.41223 -1.34025 0
M  V30 9549 H 905.583 -3.28075 -3.81282 0
M  V30 9550 H 905.283 -4.92705 -3.20181 0
M  V30 9551 H 906.807 -4.56115 -4.05945 0
M  V30 9552 H 908.221 -5.39273 -1.94571 0
M  V30 9553 H 906.618 -5.85732 -1.30529 0
M  V30 9554 H 907.688 -4.83803 -0.325923 0
M  V30 9555 N 909.032 0.252966 -1.55557 0
M  V30 9556 C 910.309 1.00432 -1.67847 0
M  V30 9557 C 910.689 2.03587 -0.55816 0
M  V30 9558 O 910.037 2.24239 0.439197 0
M  V30 9559 C 910.247 1.64313 -3.079 0
M  V30 9560 C 911.595 2.14726 -3.66303 0
M  V30 9561 O 912.619 1.74264 -3.10661 0
M  V30 9562 O 911.478 2.89 -4.63833 0
M  V30 9563 H 908.572 0.467102 -0.682455 0
M  V30 9564 H 911.118 0.247233 -1.67889 0
M  V30 9565 H 909.89 0.896681 -3.80888 0
M  V30 9566 H 909.513 2.46657 -3.11843 0
M  V30 9567 N 910.51 1.48831 0.518367 0
M  V30 9568 C 911.787 1.47933 1.27966 0
M  V30 9569 C 912.167 0.197393 2.10175 0
M  V30 9570 O 911.515 -0.820656 2.13255 0
M  V30 9571 C 911.725 2.74816 2.15121 0
M  V30 9572 C 913.073 3.23613 2.74881 0
M  V30 9573 O 914.097 2.75814 2.254 0
M  V30 9574 O 912.956 4.06818 3.64913 0
M  V30 9575 H 910.05 0.591316 0.578164 0
M  V30 9576 H 912.596 1.61077 0.534065 0
M  V30 9577 H 911.368 3.59621 1.54234 0
M  V30 9578 H 910.991 2.64449 2.96905 0
M  V30 9579 N 911.988 -0.768124 1.37614 0
M  V30 9580 C 912.918 -1.89537 1.36374 0
M  V30 9581 C 913.899 -1.68513 0.231803 0
M  V30 9582 O 915.084 -1.89318 0.432705 0
M  V30 9583 C 912.214 -3.26871 1.17358 0
M  V30 9584 C 911.168 -3.62466 2.27602 0
M  V30 9585 C 910.494 -4.9838 1.93705 0
M  V30 9586 C 911.794 -3.68841 3.69802 0
M  V30 9587 H 913.488 -1.90832 2.30702 0
M  V30 9588 H 911.034 -0.91672 1.11051 0
M  V30 9589 H 912.987 -4.05371 1.15119 0
M  V30 9590 H 911.711 -3.26018 0.194865 0
M  V30 9591 H 910.37 -2.86276 2.29002 0
M  V30 9592 H 910.018 -4.94071 0.943539 0
M  V30 9593 H 909.718 -5.23165 2.6753 0
M  V30 9594 H 911.242 -5.79276 1.93059 0
M  V30 9595 H 912.656 -4.37485 3.70513 0
M  V30 9596 H 911.053 -4.05126 4.42711 0
M  V30 9597 H 912.123 -2.69415 4.03167 0
M  V30 9598 N 913.466 -1.22244 -0.994698 0
M  V30 9599 C 914.398 -0.948706 -2.08644 0
M  V30 9600 C 915.411 0.0720049 -1.62641 0
M  V30 9601 O 916.6 -0.161778 -1.77765 0
M  V30 9602 C 913.7 -0.404885 -3.36473 0
M  V30 9603 C 912.873 -1.48239 -4.11514 0
M  V30 9604 C 911.932 -0.94597 -5.17627 0
M  V30 9605 O 910.958 -1.63177 -5.45309 0
M  V30 9606 N 912.16 0.23355 -5.8003 0
M  V30 9607 H 914.925 -1.88858 -2.32707 0
M  V30 9608 H 912.486 -1.12908 -1.16032 0
M  V30 9609 H 914.478 -0.0313903 -4.04688 0
M  V30 9610 H 913.048 0.440061 -3.09487 0
M  V30 9611 H 912.268 -2.02928 -3.37955 0
M  V30 9612 H 913.556 -2.20741 -4.58422 0
M  V30 9613 H 912.954 0.80756 -5.59906 0
M  V30 9614 H 911.511 0.54845 -6.49488 0
M  V30 9615 N 914.944 1.19125 -1.03184 0
M  V30 9616 C 916.355 1.70564 -0.759264 0
M  V30 9617 C 916.706 1.8248 0.720794 0
M  V30 9618 O 915.831 1.49804 1.56166 0
M  V30 9619 C 916.426 3.09793 -1.37163 0
M  V30 9620 C 914.985 3.5848 -1.14757 0
M  V30 9621 C 914.132 2.35265 -1.46784 0
M  V30 9622 H 917.083 1.03925 -1.19939 0
M  V30 9623 H 917.104 3.72624 -0.77015 0
M  V30 9624 H 916.616 3.01088 -2.44882 0
M  V30 9625 H 914.717 3.72494 -0.0887182 0
M  V30 9626 H 914.83 4.42426 -1.83836 0
M  V30 9627 H 913.194 2.38747 -0.887254 0
M  V30 9628 H 913.977 2.29188 -2.55593 0
M  V30 9629 N 916.422 0.810101 1.35185 0
M  V30 9630 C 917.668 0.401839 1.99391 0
M  V30 9631 C 918.023 -1.02059 1.63101 0
M  V30 9632 O 917.316 -1.69889 0.8859 0
M  V30 9633 C 917.51 0.526561 3.535 0
M  V30 9634 C 917.339 1.95956 4.04761 0
M  V30 9635 C 916.109 2.58869 4.33953 0
M  V30 9636 C 918.307 2.92459 4.23051 0
M  V30 9637 N 916.289 3.93542 4.71166 0
M  V30 9638 C 917.66 4.12011 4.633 0
M  V30 9639 C 919.715 2.89244 4.05268 0
M  V30 9640 C 918.418 5.28784 4.87627 0
M  V30 9641 C 920.444 4.05223 4.30753 0
M  V30 9642 C 919.806 5.23524 4.71277 0
M  V30 9643 H 915.905 0.194886 0.757327 0
M  V30 9644 H 918.489 1.05209 1.63827 0
M  V30 9645 H 916.66 -0.0937151 3.88287 0
M  V30 9646 H 918.392 0.0925434 4.04594 0
M  V30 9647 H 915.147 2.10198 4.24398 0
M  V30 9648 H 915.571 4.62889 4.94027 0
M  V30 9649 H 920.213 1.98932 3.73076 0
M  V30 9650 H 917.931 6.19666 5.18691 0
M  V30 9651 H 921.517 4.04121 4.18542 0
M  V30 9652 H 920.397 6.11776 4.90612 0
M  V30 9653 N 917.9 -1.47166 0.563914 0
M  V30 9654 C 918.85 -2.27116 -0.20055 0
M  V30 9655 C 919.834 -1.34756 -0.879177 0
M  V30 9656 O 921.026 -1.59064 -0.776377 0
M  V30 9657 C 918.155 -3.20676 -1.22565 0
M  V30 9658 C 917.241 -4.20517 -0.550092 0
M  V30 9659 N 917.632 -5.04343 0.383662 0
M  V30 9660 C 915.93 -4.38708 -0.803186 0
M  V30 9661 C 916.631 -5.76491 0.776718 0
M  V30 9662 N 915.607 -5.43444 0.130047 0
M  V30 9663 H 919.409 -2.89312 0.517275 0
M  V30 9664 H 916.923 -1.57787 0.384334 0
M  V30 9665 H 918.92 -3.76643 -1.78733 0
M  V30 9666 H 917.58 -2.60038 -1.94449 0
M  V30 9667 H 918.591 -5.1232 0.758192 0
M  V30 9668 H 915.268 -3.89235 -1.51003 0
M  V30 9669 H 916.658 -6.5391 1.54437 0
M  V30 9670 N 919.378 -0.300708 -1.54705 0
M  V30 9671 C 920.603 0.314073 -2.05008 0
M  V30 9672 C 921.028 1.46759 -1.17657 0
M  V30 9673 O 920.386 1.80398 -0.180598 0
M  V30 9674 C 920.434 0.748243 -3.52752 0
M  V30 9675 O 919.538 1.85305 -3.68424 0
M  V30 9676 H 918.879 0.0610139 -0.661191 0
M  V30 9677 H 921.409 -0.442467 -1.99758 0
M  V30 9678 H 921.419 1.03713 -3.94598 0
M  V30 9679 H 920.094 -0.095573 -4.1579 0
M  V30 9680 H 918.671 1.56473 -3.38483 0
M  V30 9681 N 920.856 1.57574 -0.0284266 0
M  V30 9682 C 922.103 1.91772 0.650364 0
M  V30 9683 C 922.431 0.904769 1.72175 0
M  V30 9684 O 921.686 -0.0864038 1.95509 0
M  V30 9685 C 921.985 3.32699 1.3056 0
M  V30 9686 C 921.651 4.49423 0.364658 0
M  V30 9687 C 920.313 4.81084 0.105672 0
M  V30 9688 C 922.665 5.20439 -0.28151 0
M  V30 9689 C 919.993 5.81119 -0.8073 0
M  V30 9690 C 922.345 6.21449 -1.18253 0
M  V30 9691 C 921.009 6.51551 -1.45042 0
M  V30 9692 H 920.279 0.701744 0.237985 0
M  V30 9693 H 922.926 1.91288 -0.0900448 0
M  V30 9694 H 921.231 3.29441 2.12075 0
M  V30 9695 H 922.928 3.5643 1.83736 0
M  V30 9696 H 919.518 4.24703 0.576692 0
M  V30 9697 H 923.702 4.9621 -0.0944806 0
M  V30 9698 H 918.958 6.02788 -1.02256 0
M  V30 9699 H 923.132 6.75597 -1.68942 0
M  V30 9700 H 920.759 7.28882 -2.15951 0
M  V30 9701 N 922.334 -0.244713 1.55689 0
M  V30 9702 C 923.582 -0.970525 1.77272 0
M  V30 9703 C 923.903 -1.85771 0.592804 0
M  V30 9704 O 923.173 -1.91952 -0.391323 0
M  V30 9705 H 921.753 -0.361342 0.653789 0
M  V30 9706 H 924.415 -0.262134 1.93129 0
M  V30 9707 H 923.511 -1.59096 2.68505 0
M  V30 9708 N 923.813 -1.49104 -0.510467 0
M  V30 9709 C 924.776 -1.64569 -1.59529 0
M  V30 9710 C 925.776 -0.517937 -1.5223 0
M  V30 9711 O 926.966 -0.784183 -1.55551 0
M  V30 9712 C 924.098 -1.6342 -2.99177 0
M  V30 9713 H 925.291 -2.61318 -1.4715 0
M  V30 9714 H 922.844 -1.37993 -0.734001 0
M  V30 9715 H 923.579 -0.68221 -3.17043 0
M  V30 9716 H 923.364 -2.45312 -3.05883 0
M  V30 9717 H 924.854 -1.77474 -3.78011 0
M  V30 9718 N 925.291 0.760815 -1.38019 0
M  V30 9719 C 926.568 1.5098 -1.24356 0
M  V30 9720 C 926.948 2.10507 0.158169 0
M  V30 9721 O 926.296 1.96455 1.16695 0
M  V30 9722 C 926.506 2.58195 -2.34811 0
M  V30 9723 C 927.854 3.25297 -2.72886 0
M  V30 9724 O 928.878 2.68496 -2.34069 0
M  V30 9725 O 927.737 4.28018 -3.39799 0
M  V30 9726 H 924.831 0.66921 -0.485888 0
M  V30 9727 H 927.377 0.796844 -1.49828 0
M  V30 9728 H 926.149 2.12406 -3.28633 0
M  V30 9729 H 925.772 3.37079 -2.10864 0
M  V30 9730 N 926.769 1.22769 0.988202 0
M  V30 9731 C 927.994 1.08239 1.76915 0
M  V30 9732 C 928.419 -0.362519 1.84574 0
M  V30 9733 O 927.777 -1.26202 1.30165 0
M  V30 9734 C 927.825 1.70363 3.17819 0
M  V30 9735 O 926.929 0.960484 4.01059 0
M  V30 9736 H 926.27 0.379872 0.544604 0
M  V30 9737 H 928.8 1.62663 1.24104 0
M  V30 9738 H 928.81 1.7528 3.6843 0
M  V30 9739 H 927.485 2.75505 3.1156 0
M  V30 9740 H 926.062 0.987667 3.59582 0
M  V30 9741 N 928.247 -1.18576 1.03814 0
M  V30 9742 C 929.493 -1.88773 0.741132 0
M  V30 9743 C 929.826 -1.79993 -0.729127 0
M  V30 9744 O 929.101 -1.19851 -1.53186 0
M  V30 9745 C 929.384 -3.39352 1.20468 0
M  V30 9746 C 929.237 -3.56955 2.73684 0
M  V30 9747 C 930.556 -4.32901 0.792741 0
M  V30 9748 H 927.675 -0.685482 0.270708 0
M  V30 9749 H 930.317 -1.39523 1.2897 0
M  V30 9750 H 928.467 -3.81427 0.737974 0
M  V30 9751 H 930.139 -3.2399 3.28372 0
M  V30 9752 H 928.382 -2.99696 3.13632 0
M  V30 9753 H 929.053 -4.62598 3.01176 0
M  V30 9754 H 931.529 -3.98592 1.1943 0
M  V30 9755 H 930.405 -5.36828 1.14486 0
M  V30 9756 H 930.666 -4.41052 -0.304295 0
M  V30 9757 N 929.725 -0.817259 -1.34754 0
M  V30 9758 C 931.136 -0.462215 -1.80888 0
M  V30 9759 C 931.487 1.01685 -1.67794 0
M  V30 9760 O 930.612 1.79094 -1.21468 0
M  V30 9761 C 931.207 -0.832204 -3.2842 0
M  V30 9762 C 929.766 -0.52961 -3.72655 0
M  V30 9763 C 928.913 -1.05214 -2.56564 0
M  V30 9764 H 931.864 -1.00795 -1.22581 0
M  V30 9765 H 931.885 -0.133804 -3.80265 0
M  V30 9766 H 931.397 -1.90873 -3.37919 0
M  V30 9767 H 929.498 0.537743 -3.68699 0
M  V30 9768 H 929.611 -1.06971 -4.67005 0
M  V30 9769 H 927.975 -0.473949 -2.50251 0
M  V30 9770 H 928.758 -2.135 -2.68836 0
M  V30 9771 N 931.203 1.46865 -0.571711 0
M  V30 9772 C 932.166 2.28658 0.157499 0
M  V30 9773 C 933.166 1.37773 0.829172 0
M  V30 9774 O 934.356 1.6026 0.682811 0
M  V30 9775 C 931.488 3.17859 1.23202 0
M  V30 9776 H 932.681 2.94603 -0.561171 0
M  V30 9777 H 930.234 1.52793 -0.329229 0
M  V30 9778 H 930.969 2.56637 1.98262 0
M  V30 9779 H 930.754 3.84762 0.755031 0
M  V30 9780 H 932.244 3.7945 1.74378 0
M  V30 9781 N 932.681 0.308908 1.54543 0
M  V30 9782 C 933.629 -0.579326 2.2527 0
M  V30 9783 C 934.623 -1.13058 1.26152 0
M  V30 9784 O 935.829 -1.08031 1.43977 0
M  V30 9785 H 932.204 -0.205444 0.723392 0
M  V30 9786 H 934.175 0.0396415 2.98374 0
M  V30 9787 C 932.924 -1.73584 3.01271 0
M  V30 9788 H 932.247 -1.32089 3.77349 0
M  V30 9789 H 933.687 -2.33324 3.54028 0
M  V30 9790 C 932.146 -2.6447 2.08703 0
M  V30 9791 O 932.676 -3.65785 1.66025 0
M  V30 9792 N 930.882 -2.32379 1.74495 0
M  V30 9793 H 930.429 -1.50034 2.09398 0
M  V30 9794 H 930.387 -2.93454 1.12836 0
M  V30 9795 N 934.159 -1.57557 0.0367827 0
M  V30 9796 C 935.387 -1.96419 -0.650168 0
M  V30 9797 C 935.802 -0.913656 -1.6522 0
M  V30 9798 O 935.159 0.103718 -1.82205 0
M  V30 9799 C 935.21 -3.35355 -1.3498 0
M  V30 9800 O 934.931 -4.36379 -0.387905 0
M  V30 9801 C 936.432 -3.88892 -2.12786 0
M  V30 9802 H 933.652 -0.646751 -0.178756 0
M  V30 9803 H 936.196 -2.04261 0.0988197 0
M  V30 9804 H 934.351 -3.28708 -2.05012 0
M  V30 9805 H 934.765 -5.16969 -0.885596 0
M  V30 9806 H 936.239 -4.88428 -2.5718 0
M  V30 9807 H 936.716 -3.23547 -2.97008 0
M  V30 9808 H 937.322 -3.98831 -1.47694 0
M  V30 9809 N 935.637 0.236453 -1.55816 0
M  V30 9810 C 936.547 1.31418 -1.94336 0
M  V30 9811 C 937.563 1.52095 -0.845164 0
M  V30 9812 O 938.739 1.65515 -1.14746 0
M  V30 9813 C 935.804 2.6468 -2.23932 0
M  V30 9814 C 934.865 2.52435 -3.47239 0
M  V30 9815 C 934.098 3.79342 -3.75414 0
M  V30 9816 O 934.321 4.81694 -3.05495 0
M  V30 9817 O 933.255 3.77347 -4.68927 0
M  V30 9818 H 937.081 1.01739 -2.86152 0
M  V30 9819 H 934.666 0.438084 -1.42833 0
M  V30 9820 H 936.548 3.4341 -2.44228 0
M  V30 9821 H 935.223 2.94071 -1.35292 0
M  V30 9822 H 934.13 1.71955 -3.32238 0
M  V30 9823 H 935.463 2.27987 -4.36214 0
M  V30 9824 N 937.115 1.49373 0.502552 0
M  V30 9825 C 938.063 1.66411 1.62512 0
M  V30 9826 C 939.057 0.530062 1.60893 0
M  V30 9827 O 940.263 0.709648 1.65421 0
M  V30 9828 H 936.638 0.524707 0.538689 0
M  V30 9829 H 938.609 2.60639 1.45293 0
M  V30 9830 C 937.358 1.74648 3.00655 0
M  V30 9831 H 936.681 2.61285 3.02606 0
M  V30 9832 H 938.121 1.90605 3.78742 0
M  V30 9833 C 936.58 0.490963 3.33303 0
M  V30 9834 O 937.11 -0.384039 3.9986 0
M  V30 9835 N 935.316 0.354375 2.88431 0
M  V30 9836 H 934.863 1.06742 2.34444 0
M  V30 9837 H 934.821 -0.484593 3.10643 0
M  V30 9838 N 938.594 -0.753485 1.38421 0
M  V30 9839 C 939.504 -1.89797 1.37892 0
M  V30 9840 C 940.52 -1.71797 0.276023 0
M  V30 9841 O 941.696 -1.94718 0.514464 0
M  V30 9842 C 938.761 -3.25166 1.20284 0
M  V30 9843 C 937.822 -3.55691 2.4038 0
M  V30 9844 C 937.055 -4.84601 2.23602 0
M  V30 9845 O 937.278 -5.56985 1.22979 0
M  V30 9846 O 936.212 -5.14605 3.12194 0
M  V30 9847 H 940.038 -1.93197 2.34326 0
M  V30 9848 H 937.623 -0.898775 1.19342 0
M  V30 9849 H 939.505 -4.06099 1.12525 0
M  V30 9850 H 938.18 -3.22577 0.269352 0
M  V30 9851 H 937.087 -2.74919 2.53714 0
M  V30 9852 H 938.42 -3.6304 3.32359 0
M  V30 9853 N 940.072 -1.23292 -0.981677 0
M  V30 9854 C 941.318 -1.06582 -1.72535 0
M  V30 9855 C 941.651 0.396538 -1.90108 0
M  V30 9856 O 940.926 1.29363 -1.45243 0
M  V30 9857 C 941.209 -1.7904 -3.12437 0
M  V30 9858 C 941.062 -3.32941 -3.02441 0
M  V30 9859 C 942.381 -1.55185 -4.11832 0
M  V30 9860 H 939.5 -0.388585 -0.626236 0
M  V30 9861 H 942.142 -1.51779 -1.14293 0
M  V30 9862 H 940.292 -1.40619 -3.62158 0
M  V30 9863 H 941.964 -3.80875 -2.60254 0
M  V30 9864 H 940.207 -3.62039 -2.38977 0
M  V30 9865 H 940.878 -3.78827 -4.0149 0
M  V30 9866 H 943.354 -1.88581 -3.70913 0
M  V30 9867 H 942.23 -2.08362 -5.07815 0
M  V30 9868 H 942.491 -0.486925 -4.3941 0
M  V30 9869 N 941.55 1.18024 -1.04442 0
M  V30 9870 C 942.46 2.25436 -0.649276 0
M  V30 9871 C 943.476 1.70915 0.326189 0
M  V30 9872 O 944.652 2.00592 0.180174 0
M  V30 9873 C 941.717 3.46693 -0.0222558 0
M  V30 9874 C 940.778 4.16332 -1.0472 0
M  V30 9875 C 940.011 5.31799 -0.450011 0
M  V30 9876 O 940.234 5.65544 0.742717 0
M  V30 9877 O 939.168 5.90209 -1.18056 0
M  V30 9878 H 942.994 2.61508 -1.54426 0
M  V30 9879 H 940.579 1.25178 -0.81552 0
M  V30 9880 H 942.461 4.20132 0.326597 0
M  V30 9881 H 941.136 3.12436 0.84649 0
M  V30 9882 H 940.043 3.44944 -1.44792 0
M  V30 9883 H 941.376 4.54598 -1.88684 0
M  V30 9884 N 943.028 0.824394 1.34319 0
M  V30 9885 C 944.439 0.471802 1.8064 0
M  V30 9886 C 944.79 -1.00793 1.6833 0
M  V30 9887 O 943.915 -1.78447 1.22416 0
M  V30 9888 C 944.51 0.849609 3.27974 0
M  V30 9889 C 943.069 0.549365 3.72369 0
M  V30 9890 C 942.216 1.06573 2.56003 0
M  V30 9891 H 945.167 1.01443 1.22045 0
M  V30 9892 H 945.188 0.153968 3.80188 0
M  V30 9893 H 944.7 1.92663 3.36902 0
M  V30 9894 H 942.801 -0.518182 3.68979 0
M  V30 9895 H 942.914 1.09446 4.66432 0
M  V30 9896 H 941.278 0.487214 2.49997 0
M  V30 9897 H 942.061 2.14923 2.677 0
M  V30 9898 N 944.506 -1.46559 0.579492 0
M  V30 9899 C 945.752 -2.02699 0.0639363 0
M  V30 9900 C 946.085 -1.4504 -1.29139 0
M  V30 9901 O 945.36 -0.614284 -1.84545 0
M  V30 9902 C 945.643 -3.601 -0.00528618 0
M  V30 9903 C 945.496 -4.28149 1.37871 0
M  V30 9904 C 946.815 -4.34375 -0.707537 0
M  V30 9905 H 943.934 -0.736586 0.0247085 0
M  V30 9906 H 946.576 -1.74739 0.746071 0
M  V30 9907 H 944.726 -3.84052 -0.586206 0
M  V30 9908 H 946.398 -4.1547 2.00455 0
M  V30 9909 H 944.641 -3.87636 1.94732 0
M  V30 9910 H 945.312 -5.36888 1.28278 0
M  V30 9911 H 947.788 -4.15549 -0.214064 0
M  V30 9912 H 946.664 -5.44091 -0.724992 0
M  V30 9913 H 946.925 -4.052 -1.7682 0
M  V30 9914 N 945.984 -0.3171 -1.54377 0
M  V30 9915 C 947.261 0.341348 -1.92598 0
M  V30 9916 C 947.641 1.70402 -1.24605 0
M  V30 9917 O 946.989 2.25191 -0.387448 0
M  V30 9918 C 947.199 0.440003 -3.46215 0
M  V30 9919 C 948.547 0.703327 -4.18734 0
M  V30 9920 O 949.571 0.523181 -3.52337 0
M  V30 9921 O 948.43 1.05042 -5.3631 0
M  V30 9922 H 945.524 0.193696 -0.803997 0
M  V30 9923 H 948.07 -0.366341 -1.65699 0
M  V30 9924 H 946.842 -0.517299 -3.87866 0
M  V30 9925 H 946.465 1.19553 -3.792 0
M  V30 9926 N 947.462 1.57535 -0.0451378 0
M  V30 9927 C 948.425 2.1008 0.916461 0
M  V30 9928 C 949.425 1.01913 1.2438 0
M  V30 9929 O 950.615 1.2801 1.18148 0
M  V30 9930 C 947.747 2.58001 2.22818 0
M  V30 9931 H 948.94 2.96334 0.461076 0
M  V30 9932 H 946.493 1.54974 0.203169 0
M  V30 9933 H 947.228 1.75123 2.72951 0
M  V30 9934 H 947.013 3.3704 2.00366 0
M  V30 9935 H 948.503 2.98822 2.9171 0
M  V30 9936 N 948.94 -0.228186 1.55939 0
M  V30 9937 C 950.356 -0.577583 1.48782 0
M  V30 9938 C 950.556 -1.87461 0.738972 0
M  V30 9939 O 949.612 -2.50988 0.275929 0
M  V30 9940 C 950.925 -0.662961 2.93301 0
M  V30 9941 C 952.473 -0.754035 3.03782 0
M  V30 9942 C 952.948 -0.870815 4.49645 0
M  V30 9943 N 954.439 -0.935208 4.53661 0
M  V30 9944 C 955.174 -1.04516 5.63794 0
M  V30 9945 N 954.67 -1.11948 6.83696 0
M  V30 9946 N 956.463 -1.07978 5.51631 0
M  V30 9947 H 948.614 0.623018 2.03057 0
M  V30 9948 H 950.877 0.217692 0.922667 0
M  V30 9949 H 950.583 0.220375 3.51009 0
M  V30 9950 H 950.457 -1.52876 3.44831 0
M  V30 9951 H 952.844 -1.62782 2.46143 0
M  V30 9952 H 952.925 0.137301 2.55431 0
M  V30 9953 H 952.569 -0.0015186 5.079 0
M  V30 9954 H 952.499 -1.77747 4.95695 0
M  V30 9955 H 954.99 -0.88836 3.6731 0
M  V30 9956 H 955.303 -1.20297 7.6338 0
M  V30 9957 H 953.648 -1.08873 6.8642 0
M  V30 9958 H 956.839 -1.01833 4.56889 0
M  V30 9959 H 957.012 -1.16202 6.37496 0
M  V30 9960 N 950.418 -1.49637 -0.494624 0
M  V30 9961 C 951.829 -1.52573 -1.07603 0
M  V30 9962 C 952.18 -0.315591 -1.93645 0
M  V30 9963 O 951.305 0.573966 -2.08649 0
M  V30 9964 C 951.9 -2.7648 -1.95817 0
M  V30 9965 C 950.459 -2.82173 -2.49109 0
M  V30 9966 C 949.606 -2.4657 -1.2688 0
M  V30 9967 H 952.557 -1.56242 -0.278251 0
M  V30 9968 H 952.578 -2.57003 -2.80588 0
M  V30 9969 H 952.09 -3.64538 -1.33167 0
M  V30 9970 H 950.191 -1.9841 -3.15379 0
M  V30 9971 H 950.304 -3.84501 -2.85825 0
M  V30 9972 H 948.668 -1.98489 -1.59607 0
M  V30 9973 H 949.451 -3.3691 -0.659281 0
M  V30 9974 N 951.896 0.746133 -1.38819 0
M  V30 9975 C 952.859 1.84167 -1.36437 0
M  V30 9976 C 953.859 1.58626 -0.263499 0
M  V30 9977 O 955.049 1.66233 -0.520801 0
M  V30 9978 C 952.181 3.21769 -1.12596 0
M  V30 9979 H 953.374 1.87684 -2.33912 0
M  V30 9980 H 950.927 0.948625 -1.24221 0
M  V30 9981 H 951.662 3.23917 -0.15758 0
M  V30 9982 H 951.447 3.41702 -1.92307 0
M  V30 9983 H 952.937 4.0184 -1.13643 0
M  V30 9984 N 953.375 1.23811 0.975125 0
M  V30 9985 C 954.338 1.02505 2.05001 0
M  V30 9986 C 955.338 -0.0150084 1.60793 0
M  V30 9987 O 956.528 0.225246 1.72738 0
M  V30 9988 C 953.66 0.552087 3.364 0
M  V30 9989 H 954.853 1.979 2.25335 0
M  V30 9990 H 952.406 1.05929 1.1493 0
M  V30 9991 H 953.141 -0.405394 3.21756 0
M  V30 9992 H 952.926 1.30267 3.69828 0
M  V30 9993 H 954.416 0.423828 4.15444 0
M  V30 9994 N 954.853 -1.17469 1.05066 0
M  V30 9995 C 956.13 -1.83625 0.673872 0
M  V30 9996 C 956.51 -1.93412 -0.845871 0
M  V30 9997 O 955.858 -1.4677 -1.75131 0
M  V30 9998 C 956.068 -3.21352 1.36139 0
M  V30 9999 C 957.416 -3.97274 1.49863 0
M  V30 10000 O 958.44 -3.30827 1.3203 0
M  V30 10001 O 957.299 -5.16349 1.79013 0
M  V30 10002 H 954.393 -0.792297 0.237055 0
M  V30 10003 H 956.939 -1.24776 1.15017 0
M  V30 10004 H 955.711 -3.0919 2.39827 0
M  V30 10005 H 955.334 -3.87867 0.874364 0
M  V30 10006 N 956.331 -0.831506 -1.3388 0
M  V30 10007 C 957.747 -0.518349 -1.50948 0
M  V30 10008 C 957.947 0.955807 -1.77388 0
M  V30 10009 O 957.003 1.73993 -1.82983 0
M  V30 10010 C 958.316 -1.38531 -2.66889 0
M  V30 10011 C 959.864 -1.38332 -2.80772 0
M  V30 10012 C 960.339 -2.23497 -3.99766 0
M  V30 10013 N 961.83 -2.21167 -4.06988 0
M  V30 10014 C 962.565 -2.83805 -4.98239 0
M  V30 10015 N 962.061 -3.55468 -5.94655 0
M  V30 10016 N 963.854 -2.73314 -4.91178 0
M  V30 10017 H 956.005 -1.78588 -1.14978 0
M  V30 10018 H 958.268 -0.761508 -0.564633 0
M  V30 10019 H 957.974 -2.43255 -2.54007 0
M  V30 10020 H 957.848 -1.05611 -3.62114 0
M  V30 10021 H 960.235 -0.343832 -2.9309 0
M  V30 10022 H 960.316 -1.75256 -1.86331 0
M  V30 10023 H 959.96 -3.27501 -3.88208 0
M  V30 10024 H 959.89 -1.83919 -4.93438 0
M  V30 10025 H 962.381 -1.69046 -3.37982 0
M  V30 10026 H 962.694 -4.00487 -6.60931 0
M  V30 10027 H 961.039 -3.59575 -5.94753 0
M  V30 10028 H 964.23 -2.16897 -4.14817 0
M  V30 10029 H 964.403 -3.22416 -5.62096 0
M  V30 10030 N 957.809 1.4625 -0.587256 0
M  V30 10031 C 959.057 2.01963 -0.0744273 0
M  V30 10032 C 959.378 1.46065 1.29189 0
M  V30 10033 O 958.648 0.647077 1.84905 0
M  V30 10034 H 957.228 0.746597 -0.0245236 0
M  V30 10035 H 959.89 1.79299 -0.764063 0
M  V30 10036 H 958.986 3.12099 -0.00884894 0
M  V30 10037 N 959.287 0.325282 1.54207 0
M  V30 10038 C 960.217 -0.532574 2.27345 0
M  V30 10039 C 961.198 -1.11791 1.28206 0
M  V30 10040 O 962.383 -1.14272 1.57021 0
M  V30 10041 C 959.513 -1.69274 3.03255 0
M  V30 10042 C 958.467 -1.23662 4.09746 0
M  V30 10043 C 957.793 -2.48386 4.73506 0
M  V30 10044 C 959.093 -0.350244 5.21124 0
M  V30 10045 H 960.787 0.0775108 2.993 0
M  V30 10046 H 958.333 0.0387193 1.43948 0
M  V30 10047 H 960.286 -2.29917 3.53152 0
M  V30 10048 H 959.01 -2.32944 2.28921 0
M  V30 10049 H 957.669 -0.653106 3.60735 0
M  V30 10050 H 957.317 -3.10424 3.95786 0
M  V30 10051 H 957.017 -2.18558 5.45441 0
M  V30 10052 H 958.541 -3.09789 5.26178 0
M  V30 10053 H 959.955 -0.863011 5.66767 0
M  V30 10054 H 958.352 -0.14466 5.99926 0
M  V30 10055 H 959.422 0.618457 4.8094 0
M  V30 10056 N 960.765 -1.57509 0.0534917 0
M  V30 10057 C 961.993 -1.97098 -0.629298 0
M  V30 10058 C 962.408 -0.931128 -1.64242 0
M  V30 10059 O 961.765 0.0843866 -1.82305 0
M  V30 10060 C 961.816 -3.36767 -1.31415 0
M  V30 10061 O 961.537 -4.36766 -0.341599 0
M  V30 10062 C 963.038 -3.91127 -2.08649 0
M  V30 10063 H 960.258 -0.648611 -0.171886 0
M  V30 10064 H 962.802 -2.04145 0.120479 0
M  V30 10065 H 960.957 -3.30863 -2.01515 0
M  V30 10066 H 961.371 -5.1788 -0.830715 0
M  V30 10067 H 962.845 -4.91129 -2.51985 0
M  V30 10068 H 963.322 -3.26679 -2.9356 0
M  V30 10069 H 963.928 -4.00376 -1.43456 0
M  V30 10070 N 962.243 0.219913 -1.56058 0
M  V30 10071 C 963.471 0.960915 -1.83232 0
M  V30 10072 C 963.886 1.77878 -0.632828 0
M  V30 10073 O 963.243 1.78093 0.398624 0
M  V30 10074 C 963.294 1.87716 -3.08942 0
M  V30 10075 O 963.015 1.09235 -4.24263 0
M  V30 10076 C 964.516 2.73192 -3.49115 0
M  V30 10077 H 961.736 0.281546 -0.609075 0
M  V30 10078 H 964.28 0.234648 -2.03149 0
M  V30 10079 H 962.435 2.55736 -2.90995 0
M  V30 10080 H 962.849 1.71446 -4.95688 0
M  V30 10081 H 964.323 3.33181 -4.40107 0
M  V30 10082 H 964.8 3.45668 -2.70943 0
M  V30 10083 H 965.406 2.10583 -3.69506 0
M  V30 10084 N 963.721 1.49897 0.486681 0
M  V30 10085 C 965.137 1.36977 0.819109 0
M  V30 10086 C 965.337 0.41385 1.97204 0
M  V30 10087 O 964.393 -0.149249 2.52059 0
M  V30 10088 C 965.706 2.78013 1.14584 0
M  V30 10089 C 967.254 2.86816 1.25321 0
M  V30 10090 C 967.729 4.28651 1.61316 0
M  V30 10091 N 969.22 4.31528 1.68337 0
M  V30 10092 C 969.955 5.38254 1.97662 0
M  V30 10093 N 969.451 6.55207 2.25113 0
M  V30 10094 N 971.244 5.25683 1.99033 0
M  V30 10095 H 963.395 2.10634 -0.273364 0
M  V30 10096 H 965.658 0.946116 -0.0597418 0
M  V30 10097 H 965.364 3.49728 0.371892 0
M  V30 10098 H 965.238 3.1428 2.08585 0
M  V30 10099 H 967.625 2.15329 2.01785 0
M  V30 10100 H 967.706 2.54112 0.293368 0
M  V30 10101 H 967.35 5.00669 0.853968 0
M  V30 10102 H 967.28 4.5883 2.58424 0
M  V30 10103 H 969.771 3.47189 1.49226 0
M  V30 10104 H 970.084 7.32359 2.46717 0
M  V30 10105 H 968.429 6.58408 2.22538 0
M  V30 10106 H 971.62 4.33316 1.77074 0
M  V30 10107 H 971.793 6.08949 2.21552 0
M  V30 10108 N 965.199 -0.738761 1.39212 0
M  V30 10109 C 966.61 -1.31684 1.32348 0
M  V30 10110 C 966.961 -1.96195 -0.0139041 0
M  V30 10111 O 966.086 -1.96056 -0.916025 0
M  V30 10112 C 966.681 -2.39444 2.39691 0
M  V30 10113 C 965.24 -2.92935 2.36359 0
M  V30 10114 C 964.387 -1.66465 2.21776 0
M  V30 10115 H 967.338 -0.536543 1.49355 0
M  V30 10116 H 967.359 -3.19744 2.06262 0
M  V30 10117 H 966.871 -1.92463 3.37016 0
M  V30 10118 H 964.972 -3.44207 1.42662 0
M  V30 10119 H 965.085 -3.46306 3.31073 0
M  V30 10120 H 963.449 -1.90657 1.68884 0
M  V30 10121 H 964.232 -1.21541 3.21065 0
M  V30 10122 N 966.677 -1.24326 -0.968545 0
M  V30 10123 C 967.925 -1.08032 -1.70803 0
M  V30 10124 C 968.246 0.381728 -1.91227 0
M  V30 10125 O 967.516 1.27253 -1.48942 0
M  V30 10126 H 966.096 -0.396777 -0.632912 0
M  V30 10127 H 968.758 -1.56232 -1.16523 0
M  V30 10128 H 967.854 -1.57769 -2.69287 0
M  V30 10129 N 968.156 1.1691 -1.05688 0
M  V30 10130 C 969.381 1.91745 -0.790478 0
M  V30 10131 C 969.806 1.76568 0.648478 0
M  V30 10132 O 969.164 1.08682 1.45114 0
M  V30 10133 C 969.212 3.4067 -1.18222 0
M  V30 10134 O 968.316 4.11177 -0.317341 0
M  V30 10135 H 967.657 0.5976 -0.28943 0
M  V30 10136 H 970.187 1.48157 -1.41105 0
M  V30 10137 H 970.197 3.91424 -1.15114 0
M  V30 10138 H 968.872 3.51036 -2.2304 0
M  V30 10139 H 967.449 3.70645 -0.409459 0
M  V30 10140 N 969.634 0.838594 1.33437 0
M  V30 10141 C 970.882 0.433312 1.974 0
M  V30 10142 C 971.203 -1.01078 1.66758 0
M  V30 10143 O 970.473 -1.70406 0.966373 0
M  V30 10144 H 969.053 0.15724 0.730263 0
M  V30 10145 H 971.715 1.07149 1.62804 0
M  V30 10146 H 970.811 0.565144 3.06941 0
M  V30 10147 N 971.112 -1.45937 0.595003 0
M  V30 10148 C 972.042 -2.33198 -0.11871 0
M  V30 10149 C 973.023 -1.46083 -0.871423 0
M  V30 10150 O 974.208 -1.74879 -0.844461 0
M  V30 10151 C 971.338 -3.28576 -1.12495 0
M  V30 10152 C 970.292 -4.25229 -0.486275 0
M  V30 10153 C 969.618 -5.10204 -1.59986 0
M  V30 10154 C 970.918 -5.19019 0.584473 0
M  V30 10155 H 972.612 -2.93122 0.609886 0
M  V30 10156 H 970.158 -1.40951 0.294742 0
M  V30 10157 H 972.111 -3.88485 -1.6327 0
M  V30 10158 H 970.835 -2.66784 -1.88398 0
M  V30 10159 H 969.494 -3.666 0.000507962 0
M  V30 10160 H 969.142 -4.44789 -2.34886 0
M  V30 10161 H 968.842 -5.75669 -1.1781 0
M  V30 10162 H 970.366 -5.7298 -2.11014 0
M  V30 10163 H 971.78 -5.73073 0.161297 0
M  V30 10164 H 970.177 -5.92893 0.927256 0
M  V30 10165 H 971.247 -4.62208 1.46601 0
M  V30 10166 N 972.59 -0.333456 -1.54032 0
M  V30 10167 C 973.818 0.267813 -2.05159 0
M  V30 10168 C 974.233 1.4501 -1.20903 0
M  V30 10169 O 973.59 1.80888 -0.241994 0
M  V30 10170 C 973.641 0.69268 -3.54802 0
M  V30 10171 O 973.362 -0.442579 -4.35859 0
M  V30 10172 C 974.863 1.35572 -4.2206 0
M  V30 10173 H 972.083 0.0534924 -0.668864 0
M  V30 10174 H 974.627 -0.482515 -1.98726 0
M  V30 10175 H 972.782 1.39297 -3.6149 0
M  V30 10176 H 973.196 -0.105915 -5.24393 0
M  V30 10177 H 974.67 1.60385 -5.28186 0
M  V30 10178 H 975.147 2.30614 -3.73783 0
M  V30 10179 H 975.753 0.697748 -4.19537 0
M  V30 10180 N 974.068 1.57479 -0.061844 0
M  V30 10181 C 975.016 2.13346 0.926629 0
M  V30 10182 C 976.01 1.06787 1.31502 0
M  V30 10183 O 977.216 1.25181 1.29343 0
M  V30 10184 H 973.591 0.682046 0.316729 0
M  V30 10185 H 975.562 2.95279 0.430424 0
M  V30 10186 C 974.311 2.70198 2.18834 0
M  V30 10187 H 973.634 3.51859 1.89829 0
M  V30 10188 H 975.074 3.12897 2.86132 0
M  V30 10189 C 973.533 1.64481 2.9402 0
M  V30 10190 O 974.063 1.0639 3.87355 0
M  V30 10191 N 972.269 1.35749 2.56944 0
M  V30 10192 H 971.816 1.83177 1.81119 0
M  V30 10193 H 971.774 0.652469 3.07555 0
M  V30 10194 N 975.546 -0.211634 1.56173 0
M  V30 10195 C 976.795 -0.932647 1.78842 0
M  V30 10196 C 977.108 -1.85103 0.63217 0
M  V30 10197 O 978.314 -2.61143 0.742746 0
M  V30 10198 C 976.77 -1.70866 3.16753 0
M  V30 10199 C 976.378 -0.835934 4.40132 0
M  V30 10200 C 978.122 -2.4203 3.48743 0
M  V30 10201 C 976.029 -1.60987 5.69067 0
M  V30 10202 H 974.959 -0.351983 0.666801 0
M  V30 10203 H 977.61 -0.186284 1.82552 0
M  V30 10204 H 975.992 -2.4983 3.07247 0
M  V30 10205 H 977.166 -0.0861298 4.60719 0
M  V30 10206 H 975.481 -0.235941 4.15731 0
M  V30 10207 H 978.078 -3.00453 4.42303 0
M  V30 10208 H 978.421 -3.15406 2.71707 0
M  V30 10209 H 978.954 -1.70048 3.59623 0
M  V30 10210 H 975.693 -0.9192 6.49023 0
M  V30 10211 H 975.213 -2.33403 5.52524 0
M  V30 10212 H 976.892 -2.16798 6.09596 0
M  V30 10213 N 977.024 -1.50153 -0.478725 0
M  V30 10214 C 977.971 -1.68458 -1.57767 0
M  V30 10215 C 978.941 -0.5259 -1.57555 0
M  V30 10216 O 980.126 -0.755574 -1.75202 0
M  V30 10217 C 977.266 -1.77772 -2.95789 0
M  V30 10218 C 976.379 -3.05092 -3.05848 0
M  V30 10219 C 975.514 -3.05247 -4.34739 0
M  V30 10220 C 974.553 -4.27053 -4.38512 0
M  V30 10221 N 973.69 -4.24991 -5.58862 0
M  V30 10222 H 978.53 -2.62282 -1.41464 0
M  V30 10223 H 976.067 -1.30023 -0.687921 0
M  V30 10224 H 978.025 -1.81152 -3.75819 0
M  V30 10225 H 976.655 -0.873944 -3.10744 0
M  V30 10226 H 975.707 -3.11219 -2.1874 0
M  V30 10227 H 977.019 -3.95075 -3.04495 0
M  V30 10228 H 976.173 -3.07314 -5.23109 0
M  V30 10229 H 974.912 -2.13081 -4.38689 0
M  V30 10230 H 973.917 -4.25206 -3.4854 0
M  V30 10231 H 975.142 -5.20437 -4.36259 0
M  V30 10232 H 973.088 -3.35674 -5.63612 0
M  V30 10233 H 973.005 -5.08734 -5.59219 0
M  V30 10234 H 974.273 -4.31193 -6.49379 0
M  V30 10235 N 978.502 0.731368 -1.39602 0
M  V30 10236 C 979.73 1.52059 -1.40305 0
M  V30 10237 C 980.145 1.888 0.00147921 0
M  V30 10238 O 979.502 1.54354 0.973715 0
M  V30 10239 C 979.553 2.80588 -2.27931 0
M  V30 10240 O 979.274 2.45406 -3.62915 0
M  V30 10241 C 980.775 3.74592 -2.37056 0
M  V30 10242 H 977.995 0.469787 -0.479104 0
M  V30 10243 H 980.539 0.903436 -1.83462 0
M  V30 10244 H 978.694 3.38626 -1.88178 0
M  V30 10245 H 979.108 3.27996 -4.09291 0
M  V30 10246 H 980.582 4.61662 -3.02609 0
M  V30 10247 H 981.059 4.16597 -1.39081 0
M  V30 10248 H 981.665 3.22471 -2.77295 0
M  V30 10249 N 979.98 1.24838 0.961938 0
M  V30 10250 C 980.89 1.06304 2.09133 0
M  V30 10251 C 981.906 0.00221475 1.74 0
M  V30 10252 O 983.082 0.201611 2.00388 0
M  V30 10253 C 980.147 0.676117 3.40043 0
M  V30 10254 C 979.208 1.81407 3.89089 0
M  V30 10255 C 978.441 1.44551 5.13752 0
M  V30 10256 O 978.664 0.337894 5.69398 0
M  V30 10257 O 977.598 2.27316 5.57325 0
M  V30 10258 H 981.424 2.01001 2.27667 0
M  V30 10259 H 979.009 1.0371 1.07539 0
M  V30 10260 H 980.891 0.472124 4.18747 0
M  V30 10261 H 979.566 -0.241667 3.22797 0
M  V30 10262 H 978.473 2.07286 3.11421 0
M  V30 10263 H 979.806 2.71083 4.10822 0
M  V30 10264 N 981.458 -1.16348 1.06306 0
M  V30 10265 C 982.368 -2.24375 0.685059 0
M  V30 10266 C 983.384 -1.71413 -0.298956 0
M  V30 10267 O 984.56 -2.00854 -0.148239 0
M  V30 10268 C 981.625 -3.46614 0.0774088 0
M  V30 10269 C 980.686 -4.14613 1.11331 0
M  V30 10270 C 979.919 -5.31016 0.534559 0
M  V30 10271 O 980.142 -5.66654 -0.65265 0
M  V30 10272 O 979.076 -5.88256 1.27431 0
M  V30 10273 H 982.902 -2.59018 1.58566 0
M  V30 10274 H 980.487 -1.23865 0.835332 0
M  V30 10275 H 982.369 -4.20599 -0.259716 0
M  V30 10276 H 981.044 -3.13743 -0.796677 0
M  V30 10277 H 979.951 -3.42597 1.50261 0
M  V30 10278 H 981.284 -4.51538 1.95893 0
M  V30 10279 N 982.937 -0.845659 -1.3299 0
M  V30 10280 C 984.186 -0.440928 -1.96822 0
M  V30 10281 C 984.499 1.00668 -1.67706 0
M  V30 10282 O 985.705 1.51641 -2.25205 0
M  V30 10283 C 984.161 -0.73752 -3.52262 0
M  V30 10284 C 983.769 -2.20026 -3.90247 0
M  V30 10285 C 985.513 -0.400072 -4.22611 0
M  V30 10286 C 983.42 -2.44054 -5.38694 0
M  V30 10287 H 982.35 -0.161148 -0.736578 0
M  V30 10288 H 985.001 -1.03519 -1.51513 0
M  V30 10289 H 983.383 -0.0728025 -3.95933 0
M  V30 10290 H 984.557 -2.90602 -3.57613 0
M  V30 10291 H 982.872 -2.50135 -3.32899 0
M  V30 10292 H 985.469 -0.557136 -5.3179 0
M  V30 10293 H 985.812 0.657547 -4.11074 0
M  V30 10294 H 986.345 -1.0203 -3.84493 0
M  V30 10295 H 983.084 -3.48407 -5.55241 0
M  V30 10296 H 982.604 -1.78047 -5.72765 0
M  V30 10297 H 984.283 -2.27549 -6.05665 0
M  V30 10298 N 984.415 1.45619 -0.602734 0
M  V30 10299 C 985.64 2.07157 -0.100429 0
M  V30 10300 C 986.065 1.44524 1.20393 0
M  V30 10301 O 985.423 0.536191 1.7319 0
M  V30 10302 C 985.471 3.60587 0.0308604 0
M  V30 10303 O 984.575 3.97944 1.08234 0
M  V30 10304 H 983.916 0.6601 -0.0718643 0
M  V30 10305 H 986.446 1.86948 -0.831366 0
M  V30 10306 H 986.456 4.07348 0.230634 0
M  V30 10307 H 985.131 4.05561 -0.921581 0
M  V30 10308 H 983.708 3.62862 0.859414 0
M  V30 10309 N 985.893 0.34162 1.53853 0
M  V30 10310 C 986.803 -0.524555 2.2866 0
M  V30 10311 C 987.819 -1.1136 1.33697 0
M  V30 10312 O 988.995 -1.1297 1.66732 0
M  V30 10313 C 986.06 -1.66065 3.04341 0
M  V30 10314 C 985.121 -1.10158 4.14926 0
M  V30 10315 C 984.354 -2.18353 4.86988 0
M  V30 10316 O 984.577 -3.39038 4.58704 0
M  V30 10317 O 983.511 -1.82756 5.73484 0
M  V30 10318 H 987.337 0.0835014 3.03585 0
M  V30 10319 H 984.922 0.106727 1.49018 0
M  V30 10320 H 986.804 -2.3217 3.51674 0
M  V30 10321 H 985.479 -2.25456 2.32275 0
M  V30 10322 H 984.386 -0.405109 3.719 0
M  V30 10323 H 985.719 -0.552567 4.89088 0
M  V30 10324 N 987.371 -1.57444 0.0701946 0
M  V30 10325 C 988.617 -1.93716 -0.600178 0
M  V30 10326 C 988.95 -0.950329 -1.69359 0
M  V30 10327 O 988.225 0.0207123 -1.94489 0
M  V30 10328 C 988.508 -3.40266 -1.17861 0
M  V30 10329 C 988.361 -4.49706 -0.0919575 0
M  V30 10330 C 989.68 -3.87599 -2.08459 0
M  V30 10331 H 986.799 -0.704421 -0.216704 0
M  V30 10332 H 989.441 -1.89514 0.135838 0
M  V30 10333 H 987.591 -3.43977 -1.80587 0
M  V30 10334 H 989.263 -4.58116 0.541031 0
M  V30 10335 H 987.506 -4.29937 0.577639 0
M  V30 10336 H 988.177 -5.49381 -0.537048 0
M  V30 10337 H 990.653 -3.85883 -1.5567 0
M  V30 10338 H 989.529 -4.90755 -2.45867 0
M  V30 10339 H 989.79 -3.25448 -2.99226 0
M  V30 10340 N 988.849 0.203349 -1.56283 0
M  V30 10341 C 989.796 1.25205 -1.93888 0
M  V30 10342 C 990.766 1.45654 -0.798376 0
M  V30 10343 O 991.951 1.58924 -1.05583 0
M  V30 10344 C 989.091 2.59355 -2.27659 0
M  V30 10345 C 988.204 2.46553 -3.54733 0
M  V30 10346 C 987.339 3.73351 -3.77865 0
M  V30 10347 C 986.378 3.55347 -4.98392 0
M  V30 10348 N 985.515 4.74137 -5.17821 0
M  V30 10349 H 990.355 0.924356 -2.83301 0
M  V30 10350 H 987.892 0.445082 -1.40205 0
M  V30 10351 H 989.85 3.375 -2.45254 0
M  V30 10352 H 988.48 2.90184 -1.41396 0
M  V30 10353 H 987.532 1.59749 -3.45231 0
M  V30 10354 H 988.844 2.2918 -4.43033 0
M  V30 10355 H 987.998 4.59937 -3.95655 0
M  V30 10356 H 986.737 3.9367 -2.8788 0
M  V30 10357 H 985.742 2.67146 -4.80534 0
M  V30 10358 H 986.967 3.36482 -5.89879 0
M  V30 10359 H 984.913 4.94735 -4.30782 0
M  V30 10360 H 984.83 4.59558 -6.00285 0
M  V30 10361 H 986.098 5.62098 -5.40061 0
M  V30 10362 N 990.327 1.50405 0.470755 0
M  V30 10363 C 991.26 1.63933 1.58749 0
M  V30 10364 C 992.238 0.487444 1.55122 0
M  V30 10365 O 993.422 0.706992 1.74739 0
M  V30 10366 C 990.549 1.62222 2.97324 0
M  V30 10367 C 989.595 2.82975 3.19104 0
M  V30 10368 S 990.428 4.44272 2.98969 0
M  V30 10369 C 991.584 4.45254 4.39886 0
M  V30 10370 H 991.817 2.58396 1.47034 0
M  V30 10371 H 989.35 1.39672 0.658115 0
M  V30 10372 H 991.308 1.6192 3.77217 0
M  V30 10373 H 989.969 0.689944 3.06429 0
M  V30 10374 H 989.162 2.78083 4.2034 0
M  V30 10375 H 988.764 2.80846 2.46984 0
M  V30 10376 H 991.056 4.18837 5.32524 0
M  V30 10377 H 991.999 5.4687 4.49821 0
M  V30 10378 H 992.407 3.74958 4.2198 0
M  V30 10379 N 991.805 -0.723954 1.39988 0
M  V30 10380 C 993.082 -1.4763 1.28316 0
M  V30 10381 C 993.462 -2.10852 -0.102302 0
M  V30 10382 O 992.81 -1.9948 -1.11445 0
M  V30 10383 C 993.02 -2.51878 2.41574 0
M  V30 10384 C 994.368 -3.17948 2.81415 0
M  V30 10385 O 995.392 -2.62195 2.41106 0
M  V30 10386 O 994.251 -4.18858 3.51027 0
M  V30 10387 H 991.345 -0.656092 0.50346 0
M  V30 10388 H 993.891 -0.75684 1.51888 0
M  V30 10389 H 992.663 -2.03618 3.34149 0
M  V30 10390 H 992.286 -3.3137 2.19727 0
M  V30 10391 N 993.283 -1.25346 -0.955304 0
M  V30 10392 C 994.246 -1.05754 -2.03344 0
M  V30 10393 C 995.246 -0.0105743 -1.60797 0
M  V30 10394 O 996.436 -0.252699 -1.72357 0
M  V30 10395 C 993.568 -0.605536 -3.35479 0
M  V30 10396 H 994.761 -2.01459 -2.22158 0
M  V30 10397 H 992.314 -1.07744 -1.1323 0
M  V30 10398 H 993.049 0.354154 -3.2236 0
M  V30 10399 H 992.834 -1.36134 -3.67709 0
M  V30 10400 H 994.324 -0.489867 -4.14717 0
M  V30 10401 N 994.761 1.15782 -1.06922 0
M  V30 10402 C 995.671 2.24008 -0.696948 0
M  V30 10403 C 996.687 1.71569 0.289862 0
M  V30 10404 O 997.863 2.00929 0.137585 0
M  V30 10405 C 994.928 3.46568 -0.0957895 0
M  V30 10406 C 993.989 4.14017 -1.13528 0
M  V30 10407 C 993.222 5.30725 -0.562713 0
M  V30 10408 O 993.445 5.66992 0.62259 0
M  V30 10409 O 992.379 5.87572 -1.30549 0
M  V30 10410 H 996.205 2.58174 -1.59938 0
M  V30 10411 H 993.79 1.2342 -0.841889 0
M  V30 10412 H 995.672 4.20731 0.237407 0
M  V30 10413 H 994.347 3.14161 0.780027 0
M  V30 10414 H 993.254 3.41795 -1.52076 0
M  V30 10415 H 994.587 4.50493 -1.98285 0
M  V30 10416 N 996.239 0.8527 1.3254 0
M  V30 10417 C 997.486 0.455123 1.97319 0
M  V30 10418 C 997.814 -0.988814 1.67489 0
M  V30 10419 O 997.069 -1.70845 0.954483 0
M  V30 10420 C 997.368 0.638757 3.51646 0
M  V30 10421 C 997.034 2.05287 4.01458 0
M  V30 10422 C 995.696 2.43963 4.14771 0
M  V30 10423 C 998.048 2.9759 4.27889 0
M  V30 10424 C 995.376 3.7422 4.51859 0
M  V30 10425 C 997.728 4.27343 4.66434 0
M  V30 10426 C 996.392 4.65957 4.77954 0
M  V30 10427 H 995.662 0.166541 0.722042 0
M  V30 10428 H 998.309 1.08238 1.57977 0
M  V30 10429 H 996.614 -0.0717394 3.91734 0
M  V30 10430 H 998.311 0.311219 3.9979 0
M  V30 10431 H 994.901 1.74253 3.91579 0
M  V30 10432 H 999.085 2.68942 4.17114 0
M  V30 10433 H 994.341 4.03923 4.58973 0
M  V30 10434 H 998.515 4.9893 4.85841 0
M  V30 10435 H 996.142 5.66934 5.06449 0
M  V30 10436 N 997.718 -1.45297 0.610449 0
M  V30 10437 C 999.134 -1.57225 0.274332 0
M  V30 10438 C 999.334 -1.60136 -1.22306 0
M  V30 10439 O 998.39 -1.5332 -2.00622 0
M  V30 10440 C 999.703 -2.85365 0.948028 0
M  V30 10441 C 1001.25 -2.99044 0.924216 0
M  V30 10442 C 1001.73 -4.29958 1.57798 0
M  V30 10443 N 1003.22 -4.36723 1.5436 0
M  V30 10444 C 1003.95 -5.36695 2.01857 0
M  V30 10445 N 1003.45 -6.43187 2.57453 0
M  V30 10446 N 1005.24 -5.28071 1.92608 0
M  V30 10447 H 997.392 -1.41651 1.58268 0
M  V30 10448 H 999.655 -0.67744 0.663158 0
M  V30 10449 H 999.361 -2.89125 2.00249 0
M  V30 10450 H 999.235 -3.74222 0.473062 0
M  V30 10451 H 1001.62 -2.94849 -0.121709 0
M  V30 10452 H 1001.7 -2.1159 1.43748 0
M  V30 10453 H 1001.35 -4.34912 2.62325 0
M  V30 10454 H 1001.28 -5.16234 1.03972 0
M  V30 10455 H 1003.77 -3.60374 1.13749 0
M  V30 10456 H 1004.08 -7.15722 2.91482 0
M  V30 10457 H 1002.43 -6.4393 2.61493 0
M  V30 10458 H 1005.62 -4.43783 1.48912 0
M  V30 10459 H 1005.79 -6.05832 2.29938 0
M  V30 10460 N 999.196 -0.349774 -1.5367 0
M  V30 10461 C 1000.15 0.52023 -2.21986 0
M  V30 10462 C 1001.13 1.06119 -1.20944 0
M  V30 10463 O 1002.32 0.993857 -1.46463 0
M  V30 10464 C 999.451 1.66751 -3.00082 0
M  V30 10465 C 998.537 1.14019 -4.08486 0
M  V30 10466 N 998.928 0.334588 -5.04692 0
M  V30 10467 C 997.226 1.4165 -4.22908 0
M  V30 10468 C 997.927 0.0476906 -5.8168 0
M  V30 10469 N 996.903 0.641032 -5.39807 0
M  V30 10470 H 1000.7 -0.102261 -2.93722 0
M  V30 10471 H 998.219 -0.15696 -1.6164 0
M  V30 10472 H 1000.22 2.30281 -3.47529 0
M  V30 10473 H 998.876 2.29322 -2.29873 0
M  V30 10474 H 999.887 -0.0248665 -5.17894 0
M  V30 10475 H 996.564 2.04615 -3.63922 0
M  V30 10476 H 997.954 -0.602565 -6.69193 0
M  V30 10477 N 1000.67 1.57404 -0.0785433 0
M  V30 10478 C 1001.95 1.85163 0.630389 0
M  V30 10479 C 1002.33 0.972295 1.87376 0
M  V30 10480 O 1001.68 0.0403375 2.28464 0
M  V30 10481 C 1001.89 3.35491 0.961604 0
M  V30 10482 C 1003.24 4.0316 1.33219 0
M  V30 10483 O 1004.26 3.40276 1.05313 0
M  V30 10484 O 1003.12 5.14086 1.85412 0
M  V30 10485 H 1000.21 0.765169 0.31376 0
M  V30 10486 H 1002.76 1.69343 -0.109986 0
M  V30 10487 H 1001.53 3.91221 0.0788113 0
M  V30 10488 H 1001.15 3.56598 1.75852 0
M  V30 10489 N 1002.15 -0.195058 1.56388 0
M  V30 10490 C 1003.38 -0.935745 1.85091 0
M  V30 10491 C 1003.8 -1.76061 0.662118 0
M  V30 10492 O 1003.16 -1.77076 -0.389083 0
M  V30 10493 C 1003.21 -1.80764 3.1202 0
M  V30 10494 O 1002.31 -2.90643 2.92575 0
M  V30 10495 H 1001.65 -0.26351 0.609474 0
M  V30 10496 H 1004.18 -0.200362 2.03617 0
M  V30 10497 H 1004.19 -2.21229 3.42815 0
M  V30 10498 H 1002.87 -1.20157 3.98165 0
M  V30 10499 H 1001.44 -2.53934 2.73079 0
M  V30 10500 N 1003.63 -1.50653 -0.462772 0
M  V30 10501 C 1004.88 -1.61737 -1.21184 0
M  V30 10502 C 1005.2 -0.32369 -1.92295 0
M  V30 10503 O 1004.47 0.659269 -1.84473 0
M  V30 10504 H 1003.05 -0.596015 -0.450306 0
M  V30 10505 H 1005.71 -1.87469 -0.533051 0
M  V30 10506 H 1004.81 -2.43262 -1.95525 0
M  V30 10507 N 1005.11 0.71652 -1.4037 0
M  V30 10508 C 1006.34 1.50344 -1.41704 0
M  V30 10509 C 1006.75 1.89194 -0.0148011 0
M  V30 10510 O 1006.09 1.55916 0.971391 0
M  V30 10511 C 1006.15 2.80928 -2.2432 0
M  V30 10512 C 1005.82 2.64406 -3.72744 0
M  V30 10513 C 1006.81 2.31727 -4.65401 0
M  V30 10514 C 1004.5 2.807 -4.16549 0
M  V30 10515 C 1006.49 2.15551 -5.99847 0
M  V30 10516 C 1004.18 2.64141 -5.51065 0
M  V30 10517 C 1005.18 2.31614 -6.42529 0
M  V30 10518 O 1004.86 2.15179 -7.74566 0
M  V30 10519 H 1004.6 0.470574 -0.48532 0
M  V30 10520 H 1007.15 0.89152 -1.85043 0
M  V30 10521 H 1005.38 3.4445 -1.75759 0
M  V30 10522 H 1007.07 3.4264 -2.17607 0
M  V30 10523 H 1007.84 2.18773 -4.32855 0
M  V30 10524 H 1003.71 3.05005 -3.45677 0
M  V30 10525 H 1007.26 1.90084 -6.71203 0
M  V30 10526 H 1003.16 2.76679 -5.83197 0
M  V30 10527 H 1003.92 2.30106 -7.85489 0
M  V30 10528 N 1006.59 1.25851 0.948643 0
M  V30 10529 C 1007.5 1.08516 2.07994 0
M  V30 10530 C 1008.51 0.0206696 1.73988 0
M  V30 10531 O 1009.69 0.222854 2.00163 0
M  V30 10532 C 1006.75 0.712145 3.39307 0
M  V30 10533 C 1005.81 1.85523 3.87143 0
M  V30 10534 C 1005.05 1.49992 5.1219 0
M  V30 10535 O 1005.27 0.398268 5.69008 0
M  V30 10536 O 1004.2 2.33215 5.54882 0
M  V30 10537 H 1008.03 2.03405 2.25522 0
M  V30 10538 H 1005.62 1.04844 1.06433 0
M  V30 10539 H 1007.5 0.516512 4.18223 0
M  V30 10540 H 1006.17 -0.207416 3.23035 0
M  V30 10541 H 1005.08 2.10578 3.09205 0
M  V30 10542 H 1006.41 2.75425 4.07924 0
M  V30 10543 N 1008.06 -1.15214 1.07534 0
M  V30 10544 C 1009.31 -1.86319 0.800814 0
M  V30 10545 C 1009.64 -1.82221 -0.671494 0
M  V30 10546 O 1008.92 -1.24664 -1.49295 0
M  V30 10547 C 1009.2 -3.35347 1.31203 0
M  V30 10548 C 1009.05 -3.48067 2.84902 0
M  V30 10549 C 1010.37 -4.3016 0.930064 0
M  V30 10550 H 1007.49 -0.676523 0.292379 0
M  V30 10551 H 1010.13 -1.35349 1.33344 0
M  V30 10552 H 1008.28 -3.78886 0.858949 0
M  V30 10553 H 1009.96 -3.13379 3.38514 0
M  V30 10554 H 1008.2 -2.89566 3.23008 0
M  V30 10555 H 1008.87 -4.52782 3.15741 0
M  V30 10556 H 1011.35 -3.94591 1.3205 0
M  V30 10557 H 1010.22 -5.32914 1.31507 0
M  V30 10558 H 1010.48 -4.41796 -0.163824 0
M  V30 10559 N 1009.54 -0.859717 -1.32086 0
M  V30 10560 C 1010.49 -0.279715 -2.26278 0
M  V30 10561 C 1011.48 0.577348 -1.50185 0
M  V30 10562 O 1012.67 0.425903 -1.71799 0
M  V30 10563 C 1009.8 0.526622 -3.39237 0
M  V30 10564 C 1008.88 -0.343112 -4.2271 0
M  V30 10565 N 1009.27 -1.43176 -4.85113 0
M  V30 10566 C 1007.57 -0.133744 -4.45799 0
M  V30 10567 C 1008.27 -1.96725 -5.47425 0
M  V30 10568 N 1007.25 -1.26569 -5.2866 0
M  V30 10569 H 1011.05 -1.11191 -2.72055 0
M  V30 10570 H 1008.57 -0.706372 -1.46233 0
M  V30 10571 H 1010.56 0.958587 -4.0573 0
M  V30 10572 H 1009.22 1.35655 -2.95005 0
M  V30 10573 H 1010.23 -1.81469 -4.85066 0
M  V30 10574 H 1006.91 0.661064 -4.12233 0
M  V30 10575 H 1008.3 -2.88006 -6.07044 0
M  V30 10576 N 1011.02 1.44971 -0.618145 0
M  V30 10577 C 1011.97 2.27704 0.116119 0
M  V30 10578 C 1012.95 1.37927 0.828558 0
M  V30 10579 O 1014.15 1.61836 0.716806 0
M  V30 10580 C 1011.28 3.25004 1.10578 0
M  V30 10581 C 1010.36 4.22269 0.39364 0
M  V30 10582 N 1010.75 5.02571 -0.570581 0
M  V30 10583 C 1009.05 4.41387 0.639809 0
M  V30 10584 C 1009.75 5.73211 -0.990144 0
M  V30 10585 N 1008.73 5.42587 -0.331653 0
M  V30 10586 H 1012.53 2.87193 -0.624295 0
M  V30 10587 H 1010.04 1.56252 -0.442631 0
M  V30 10588 H 1012.04 3.83017 1.64631 0
M  V30 10589 H 1010.7 2.67075 1.84664 0
M  V30 10590 H 1011.71 5.09153 -0.947814 0
M  V30 10591 H 1008.39 3.94572 1.36453 0
M  V30 10592 H 1009.78 6.47728 -1.78601 0
M  V30 10593 N 1012.5 0.357919 1.53482 0
M  V30 10594 C 1013.43 -0.526753 2.23065 0
M  V30 10595 C 1014.44 -1.05239 1.24212 0
M  V30 10596 O 1015.63 -0.960078 1.50482 0
M  V30 10597 C 1012.73 -1.73919 2.9087 0
M  V30 10598 C 1011.91 -1.34638 4.16163 0
M  V30 10599 C 1010.96 -2.42005 4.67247 0
M  V30 10600 O 1009.99 -2.04714 5.31113 0
M  V30 10601 N 1011.19 -3.73478 4.44404 0
M  V30 10602 H 1013.96 0.0692386 2.9962 0
M  V30 10603 H 1011.52 0.182726 1.60866 0
M  V30 10604 H 1013.51 -2.45207 3.21956 0
M  V30 10605 H 1012.08 -2.24223 2.17814 0
M  V30 10606 H 1011.3 -0.463667 3.91464 0
M  V30 10607 H 1012.59 -1.06012 4.97633 0
M  V30 10608 H 1011.99 -4.06555 3.93357 0
M  V30 10609 H 1010.54 -4.40893 4.80059 0
M  V30 10610 N 1013.98 -1.5736 0.0868897 0
M  V30 10611 C 1014.92 -2.13571 -0.874996 0
M  V30 10612 C 1015.89 -1.0521 -1.2853 0
M  V30 10613 O 1017.08 -1.32954 -1.3685 0
M  V30 10614 C 1014.22 -2.71386 -2.13175 0
M  V30 10615 C 1013.33 -3.93953 -1.77272 0
M  V30 10616 C 1012.47 -4.3996 -2.97671 0
M  V30 10617 C 1011.51 -5.55137 -2.57856 0
M  V30 10618 N 1010.64 -5.96034 -3.71064 0
M  V30 10619 H 1015.48 -2.95453 -0.388789 0
M  V30 10620 H 1013.02 -1.45992 -0.180242 0
M  V30 10621 H 1014.98 -3.03022 -2.86764 0
M  V30 10622 H 1013.61 -1.92245 -2.5931 0
M  V30 10623 H 1012.66 -3.68683 -0.936845 0
M  V30 10624 H 1013.97 -4.77565 -1.43989 0
M  V30 10625 H 1013.13 -4.73337 -3.79522 0
M  V30 10626 H 1011.86 -3.55232 -3.34158 0
M  V30 10627 H 1010.87 -5.21397 -1.7443 0
M  V30 10628 H 1012.09 -6.41608 -2.22522 0
M  V30 10629 H 1010.04 -5.14253 -4.07284 0
M  V30 10630 H 1009.96 -6.74423 -3.41599 0
M  V30 10631 H 1011.23 -6.34038 -4.53449 0
M  V30 10632 N 1015.45 0.186762 -1.56489 0
M  V30 10633 C 1016.38 1.23395 -1.98232 0
M  V30 10634 C 1017.37 1.4702 -0.855526 0
M  V30 10635 O 1018.55 1.58616 -1.12048 0
M  V30 10636 C 1015.68 2.57635 -2.32898 0
M  V30 10637 C 1014.63 2.48607 -3.48394 0
M  V30 10638 C 1013.96 3.87196 -3.68759 0
M  V30 10639 C 1015.26 2.00398 -4.82325 0
M  V30 10640 H 1016.95 0.887026 -2.85958 0
M  V30 10641 H 1014.5 0.42525 -1.37578 0
M  V30 10642 H 1016.45 3.31082 -2.60696 0
M  V30 10643 H 1015.18 2.94084 -1.42064 0
M  V30 10644 H 1013.84 1.77615 -3.207 0
M  V30 10645 H 1013.48 4.21012 -2.75241 0
M  V30 10646 H 1013.18 3.82029 -4.46462 0
M  V30 10647 H 1014.71 4.62253 -3.98941 0
M  V30 10648 H 1016.12 2.6361 -5.091 0
M  V30 10649 H 1014.52 2.06214 -5.63556 0
M  V30 10650 H 1015.59 0.957562 -4.75351 0
M  V30 10651 N 1016.93 1.50896 0.454776 0
M  V30 10652 C 1018.18 1.6294 1.20741 0
M  V30 10653 C 1018.51 0.336339 1.91265 0
M  V30 10654 O 1017.79 -0.663153 1.82846 0
M  V30 10655 C 1018.07 2.82092 2.23822 0
M  V30 10656 C 1017.92 4.21326 1.57495 0
M  V30 10657 C 1019.24 2.96777 3.24979 0
M  V30 10658 H 1016.36 0.59302 0.437603 0
M  V30 10659 H 1019 1.83331 0.498959 0
M  V30 10660 H 1017.15 2.64837 2.84243 0
M  V30 10661 H 1018.82 4.50209 1.00546 0
M  V30 10662 H 1017.07 4.24829 0.877664 0
M  V30 10663 H 1017.74 5.00656 2.32482 0
M  V30 10664 H 1020.21 3.12627 2.74597 0
M  V30 10665 H 1019.09 3.81742 3.94416 0
M  V30 10666 H 1019.35 2.08091 3.90065 0
M  V30 10667 N 1018.41 -0.709066 1.40748 0
M  V30 10668 C 1019.66 -1.46901 1.39378 0
M  V30 10669 C 1019.99 -1.945 -0.0016993 0
M  V30 10670 O 1019.24 -1.68963 -0.987426 0
M  V30 10671 C 1019.54 -2.70543 2.33541 0
M  V30 10672 C 1019.21 -2.41674 3.80663 0
M  V30 10673 C 1017.87 -2.33511 4.20745 0
M  V30 10674 C 1020.22 -2.1759 4.73607 0
M  V30 10675 C 1017.55 -1.99342 5.51797 0
M  V30 10676 C 1019.9 -1.84933 6.04965 0
M  V30 10677 C 1018.56 -1.75256 6.44082 0
M  V30 10678 H 1017.83 -0.537549 0.510021 0
M  V30 10679 H 1020.48 -0.811635 1.7345 0
M  V30 10680 H 1018.79 -3.41149 1.92677 0
M  V30 10681 H 1020.48 -3.2865 2.29761 0
M  V30 10682 H 1017.07 -2.48917 3.4891 0
M  V30 10683 H 1021.26 -2.22849 4.43454 0
M  V30 10684 H 1016.51 -1.90392 5.81 0
M  V30 10685 H 1020.69 -1.65313 6.76494 0
M  V30 10686 H 1018.31 -1.48547 7.45545 0
M  V30 10687 N 1019.89 -1.26353 -0.941956 0
M  V30 10688 C 1021.14 -1.11851 -1.68806 0
M  V30 10689 C 1021.46 0.33829 -1.91535 0
M  V30 10690 O 1020.72 1.26495 -1.49324 0
M  V30 10691 C 1021.02 -1.83195 -3.06879 0
M  V30 10692 C 1020.68 -3.33093 -3.03908 0
M  V30 10693 C 1019.35 -3.73982 -3.02805 0
M  V30 10694 C 1021.7 -4.28803 -2.96273 0
M  V30 10695 C 1019.03 -5.08971 -2.91832 0
M  V30 10696 C 1021.38 -5.6383 -2.86842 0
M  V30 10697 C 1020.04 -6.04032 -2.84081 0
M  V30 10698 H 1019.31 -0.409293 -0.617706 0
M  V30 10699 H 1021.96 -1.56785 -1.09957 0
M  V30 10700 H 1020.26 -1.30728 -3.69347 0
M  V30 10701 H 1021.96 -1.69416 -3.63455 0
M  V30 10702 H 1018.55 -3.00566 -3.05546 0
M  V30 10703 H 1022.74 -3.98195 -2.96234 0
M  V30 10704 H 1017.99 -5.39282 -2.88072 0
M  V30 10705 H 1022.17 -6.37676 -2.79898 0
M  V30 10706 H 1019.79 -7.08586 -2.75335 0
M  V30 10707 N 1021.37 1.14642 -1.08144 0
M  V30 10708 C 1022.33 2.17834 -0.712799 0
M  V30 10709 C 1023.33 1.58828 0.251041 0
M  V30 10710 O 1024.52 1.74173 0.0309381 0
M  V30 10711 C 1021.65 3.4086 -0.0519477 0
M  V30 10712 H 1022.85 2.51961 -1.62653 0
M  V30 10713 H 1020.4 1.29243 -0.878971 0
M  V30 10714 H 1021.13 3.12311 0.873636 0
M  V30 10715 H 1020.92 3.84952 -0.745286 0
M  V30 10716 H 1022.41 4.17163 0.191031 0
M  V30 10717 N 1022.85 0.866709 1.31628 0
M  V30 10718 C 1023.76 0.323408 2.3236 0
M  V30 10719 C 1024.77 -0.564995 1.64572 0
M  V30 10720 O 1025.95 -0.462489 1.96018 0
M  V30 10721 C 1023.01 -0.469045 3.43513 0
M  V30 10722 C 1022.07 0.446928 4.26967 0
M  V30 10723 C 1021.31 -0.307799 5.32812 0
M  V30 10724 O 1021.53 -1.5363 5.49321 0
M  V30 10725 O 1020.46 0.332653 6.0098 0
M  V30 10726 H 1024.29 1.15827 2.80745 0
M  V30 10727 H 1021.87 0.629987 1.35468 0
M  V30 10728 H 1023.76 -0.918405 4.1127 0
M  V30 10729 H 1022.43 -1.28051 2.97296 0
M  V30 10730 H 1021.34 0.944719 3.61975 0
M  V30 10731 H 1022.67 1.2239 4.76741 0
M  V30 10732 N 1024.32 -1.44642 0.625825 0
M  V30 10733 C 1025.6 -1.9551 0.0593587 0
M  V30 10734 C 1025.98 -1.56792 -1.41349 0
M  V30 10735 O 1025.33 -0.839373 -2.12525 0
M  V30 10736 C 1025.54 -3.47902 0.276647 0
M  V30 10737 C 1026.89 -4.24271 0.167044 0
M  V30 10738 O 1027.91 -3.55594 0.207731 0
M  V30 10739 O 1026.77 -5.46458 0.0675 0
M  V30 10740 H 1023.86 -0.826612 -0.0253422 0
M  V30 10741 H 1026.41 -1.54718 0.697159 0
M  V30 10742 H 1025.18 -3.69115 1.29885 0
M  V30 10743 H 1024.8 -3.95628 -0.395547 0
M  V30 10744 N 1025.8 -0.366053 -1.5329 0
M  V30 10745 C 1027.05 0.223824 -2.01561 0
M  V30 10746 C 1027.38 1.48382 -1.25286 0
M  V30 10747 O 1026.66 1.91385 -0.34669 0
M  V30 10748 C 1026.94 0.5153 -3.56394 0
M  V30 10749 C 1026.79 -0.758357 -4.43361 0
M  V30 10750 C 1028.11 1.31568 -4.19974 0
M  V30 10751 H 1025.23 0.0798751 -0.732659 0
M  V30 10752 H 1027.87 -0.491038 -1.83545 0
M  V30 10753 H 1026.02 1.12429 -3.71876 0
M  V30 10754 H 1027.69 -1.39584 -4.39675 0
M  V30 10755 H 1025.94 -1.37862 -4.11311 0
M  V30 10756 H 1026.61 -0.509366 -5.49645 0
M  V30 10757 H 1029.08 0.800514 -4.08327 0
M  V30 10758 H 1027.96 1.48837 -5.28336 0
M  V30 10759 H 1028.22 2.32432 -3.76069 0
M  V30 10760 N 1027.28 1.57312 -0.0952337 0
M  V30 10761 C 1028.53 1.93974 0.567319 0
M  V30 10762 C 1028.85 0.977805 1.68713 0
M  V30 10763 O 1028.12 0.0298944 1.95877 0
M  V30 10764 H 1026.7 0.71612 0.212558 0
M  V30 10765 H 1029.36 1.94254 -0.158598 0
M  V30 10766 H 1028.46 2.964 0.977423 0
M  V30 10767 N 1028.76 -0.17846 1.56586 0
M  V30 10768 C 1029.98 -0.916061 1.86073 0
M  V30 10769 C 1030.41 -1.75349 0.680754 0
M  V30 10770 O 1029.77 -1.77479 -0.37028 0
M  V30 10771 C 1029.81 -1.77445 3.1392 0
M  V30 10772 O 1028.92 -2.87524 2.95641 0
M  V30 10773 H 1028.26 -0.257031 0.612234 0
M  V30 10774 H 1030.79 -0.178755 2.03818 0
M  V30 10775 H 1030.8 -2.1758 3.45142 0
M  V30 10776 H 1029.47 -1.15927 3.99417 0
M  V30 10777 H 1028.05 -2.51023 2.75757 0
M  V30 10778 N 1030.24 -1.51135 -0.446768 0
M  V30 10779 C 1031.18 -1.72328 -1.56224 0
M  V30 10780 C 1032.18 -0.589411 -1.58815 0
M  V30 10781 O 1033.38 -0.770554 -1.62673 0
M  V30 10782 H 1029.76 -0.544339 -0.518844 0
M  V30 10783 H 1031.73 -2.65851 -1.3552 0
M  V30 10784 C 1030.48 -1.85686 -2.93966 0
M  V30 10785 H 1029.8 -2.72336 -2.927 0
M  V30 10786 H 1031.24 -2.0453 -3.71407 0
M  V30 10787 C 1029.7 -0.614328 -3.31252 0
M  V30 10788 O 1030.23 0.235369 -4.0101 0
M  V30 10789 N 1028.44 -0.461181 -2.86917 0
M  V30 10790 H 1027.98 -1.15369 -2.30321 0
M  V30 10791 H 1027.94 0.368966 -3.12227 0
M  V30 10792 N 1031.71 0.701592 -1.41122 0
M  V30 10793 C 1032.66 1.81559 -1.42495 0
M  V30 10794 C 1033.63 1.63722 -0.280078 0
M  V30 10795 O 1034.82 1.84658 -0.480231 0
M  V30 10796 C 1031.96 3.19392 -1.30702 0
M  V30 10797 C 1031.07 3.48704 -2.55009 0
M  V30 10798 C 1030.2 4.76118 -2.35554 0
M  V30 10799 C 1029.24 4.98378 -3.55367 0
M  V30 10800 N 1028.38 6.17014 -3.3502 0
M  V30 10801 H 1033.22 1.7972 -2.37707 0
M  V30 10802 H 1030.76 0.877727 -1.18044 0
M  V30 10803 H 1032.71 3.99004 -1.21867 0
M  V30 10804 H 1031.34 3.20423 -0.391012 0
M  V30 10805 H 1030.4 2.63542 -2.74317 0
M  V30 10806 H 1031.71 3.61057 -3.44151 0
M  V30 10807 H 1030.86 5.63774 -2.24152 0
M  V30 10808 H 1029.6 4.66 -1.43859 0
M  V30 10809 H 1028.61 4.09172 -3.6723 0
M  V30 10810 H 1029.83 5.10359 -4.48007 0
M  V30 10811 H 1027.78 6.0812 -2.4602 0
M  V30 10812 H 1027.69 6.30107 -4.17733 0
M  V30 10813 H 1028.96 7.0742 -3.27379 0
M  V30 10814 N 1033.19 1.2685 0.935242 0
M  V30 10815 C 1034.44 1.12522 1.67878 0
M  V30 10816 C 1034.76 -0.330894 1.92172 0
M  V30 10817 O 1034.03 -1.23259 1.52263 0
M  V30 10818 H 1032.61 0.413418 0.622169 0
M  V30 10819 H 1035.27 1.59267 1.12339 0
M  V30 10820 H 1034.37 1.64853 2.65009 0
M  V30 10821 N 1034.67 -1.14067 1.0875 0
M  V30 10822 C 1035.63 -2.17453 0.724341 0
M  V30 10823 C 1036.63 -1.58959 -0.242614 0
M  V30 10824 O 1037.82 -1.74186 -0.0217008 0
M  V30 10825 C 1034.96 -3.40828 0.0700236 0
M  V30 10826 H 1036.15 -2.51094 1.63987 0
M  V30 10827 H 1033.7 -1.28775 0.885813 0
M  V30 10828 H 1034.44 -3.1277 -0.857061 0
M  V30 10829 H 1034.22 -3.84551 0.76569 0
M  V30 10830 H 1035.71 -4.17258 -0.168905 0
M  V30 10831 N 1036.15 -0.873678 -1.31166 0
M  V30 10832 C 1037.4 -0.482577 -1.95842 0
M  V30 10833 C 1037.71 0.970881 -1.69804 0
M  V30 10834 O 1038.92 1.4683 -2.28371 0
M  V30 10835 C 1037.37 -0.812074 -3.50619 0
M  V30 10836 C 1036.98 -2.28254 -3.85492 0
M  V30 10837 C 1038.72 -0.489624 -4.21667 0
M  V30 10838 C 1036.63 -2.55426 -5.33396 0
M  V30 10839 H 1035.56 -0.176736 -0.732994 0
M  V30 10840 H 1038.21 -1.06709 -1.49283 0
M  V30 10841 H 1036.59 -0.156769 -3.9569 0
M  V30 10842 H 1037.77 -2.98122 -3.51369 0
M  V30 10843 H 1036.08 -2.5714 -3.27518 0
M  V30 10844 H 1038.68 -0.669811 -5.30488 0
M  V30 10845 H 1039.02 0.570204 -4.12376 0
M  V30 10846 H 1039.56 -1.10163 -3.82242 0
M  V30 10847 H 1036.3 -3.60106 -5.47726 0
M  V30 10848 H 1035.82 -1.90156 -5.68859 0
M  V30 10849 H 1037.49 -2.40345 -6.00702 0
M  V30 10850 N 1037.63 1.44308 -0.633487 0
M  V30 10851 C 1038.88 2.01239 -0.136356 0
M  V30 10852 C 1039.19 1.50438 1.25011 0
M  V30 10853 O 1040.39 1.99513 1.84138 0
M  V30 10854 C 1038.85 3.59382 -0.193011 0
M  V30 10855 C 1038.46 4.19178 -1.58093 0
M  V30 10856 C 1040.2 4.23778 0.247534 0
M  V30 10857 C 1038.11 5.69553 -1.59258 0
M  V30 10858 H 1037.04 0.752521 -0.0472109 0
M  V30 10859 H 1039.69 1.65498 -0.79263 0
M  V30 10860 H 1038.07 3.92432 0.530408 0
M  V30 10861 H 1039.25 3.97662 -2.32813 0
M  V30 10862 H 1037.56 3.67079 -1.96576 0
M  V30 10863 H 1040.16 5.34075 0.258401 0
M  V30 10864 H 1040.5 3.96285 1.27529 0
M  V30 10865 H 1041.03 3.9554 -0.423469 0
M  V30 10866 H 1037.77 6.01784 -2.59878 0
M  V30 10867 H 1037.29 5.93185 -0.888352 0
M  V30 10868 H 1038.97 6.33234 -1.32756 0
M  V30 10869 N 1039.1 0.374177 1.53094 0
M  V30 10870 C 1040.35 -0.212396 2.00981 0
M  V30 10871 C 1040.67 -1.48576 1.26293 0
M  V30 10872 O 1039.94 -1.92206 0.378642 0
M  V30 10873 H 1038.52 -0.0814763 0.742543 0
M  V30 10874 H 1041.19 0.502389 1.88314 0
M  V30 10875 H 1040.28 -0.433316 3.09077 0
M  V30 10876 N 1040.58 -1.57259 0.103575 0
M  V30 10877 C 1041.51 -2.17509 -0.84923 0
M  V30 10878 C 1042.49 -1.11079 -1.28824 0
M  V30 10879 O 1043.68 -1.39252 -1.35361 0
M  V30 10880 C 1040.81 -2.76221 -2.10522 0
M  V30 10881 C 1039.76 -3.88098 -1.80454 0
M  V30 10882 C 1039.09 -4.33549 -3.12952 0
M  V30 10883 C 1040.39 -5.10909 -1.08486 0
M  V30 10884 H 1042.08 -2.9738 -0.347217 0
M  V30 10885 H 1039.63 -1.43045 -0.165568 0
M  V30 10886 H 1041.58 -3.17024 -2.77621 0
M  V30 10887 H 1040.31 -1.93617 -2.63021 0
M  V30 10888 H 1038.96 -3.47847 -1.15749 0
M  V30 10889 H 1038.61 -3.47825 -3.63355 0
M  V30 10890 H 1038.31 -5.08984 -2.93614 0
M  V30 10891 H 1039.84 -4.76992 -3.81196 0
M  V30 10892 H 1041.25 -5.48828 -1.65711 0
M  V30 10893 H 1039.65 -5.91828 -0.992973 0
M  V30 10894 H 1040.72 -4.84851 -0.0690108 0
M  V30 10895 N 1042.06 0.170153 -1.56679 0
M  V30 10896 C 1042.99 1.23945 -1.91606 0
M  V30 10897 C 1043.97 1.42725 -0.779004 0
M  V30 10898 O 1045.16 1.57712 -1.03243 0
M  V30 10899 C 1042.28 2.60222 -2.168 0
M  V30 10900 C 1041.33 2.58172 -3.39484 0
M  V30 10901 S 1042.16 2.0714 -4.93815 0
M  V30 10902 C 1043.32 3.45192 -5.22105 0
M  V30 10903 H 1043.55 0.941345 -2.82004 0
M  V30 10904 H 1041.08 0.374771 -1.49783 0
M  V30 10905 H 1043.04 3.38656 -2.31996 0
M  V30 10906 H 1041.7 2.87232 -1.27107 0
M  V30 10907 H 1040.9 3.58435 -3.54317 0
M  V30 10908 H 1040.5 1.87834 -3.2341 0
M  V30 10909 H 1042.79 4.41194 -5.14154 0
M  V30 10910 H 1043.73 3.35233 -6.23718 0
M  V30 10911 H 1044.14 3.41257 -4.49671 0
M  V30 10912 N 1043.54 1.5137 0.438746 0
M  V30 10913 C 1044.78 1.64211 1.19006 0
M  V30 10914 C 1045.12 0.356607 1.90898 0
M  V30 10915 O 1044.39 -0.643722 1.83539 0
M  V30 10916 C 1044.68 2.8445 2.20817 0
M  V30 10917 C 1044.53 4.22972 1.53018 0
M  V30 10918 C 1045.85 3.00207 3.21813 0
M  V30 10919 H 1042.97 0.597628 0.431288 0
M  V30 10920 H 1045.61 1.8385 0.479487 0
M  V30 10921 H 1043.76 2.67836 2.81418 0
M  V30 10922 H 1045.43 4.5125 0.957654 0
M  V30 10923 H 1043.67 4.25736 0.832556 0
M  V30 10924 H 1044.34 5.03094 2.27158 0
M  V30 10925 H 1046.82 3.15522 2.71266 0
M  V30 10926 H 1045.7 3.85904 3.90345 0
M  V30 10927 H 1045.96 2.12216 3.87836 0
M  V30 10928 N 1045.02 -0.694098 1.41492 0
M  V30 10929 C 1046.26 -1.45127 1.4065 0
M  V30 10930 C 1046.59 -1.94993 0.0170289 0
M  V30 10931 O 1045.86 -1.71799 -0.941372 0
M  V30 10932 H 1044.44 -0.538493 0.51772 0
M  V30 10933 H 1047.1 -0.821441 1.76744 0
M  V30 10934 H 1046.19 -2.31372 2.0946 0
M  V30 10935 N 1046.49 -1.27344 -0.928501 0
M  V30 10936 C 1047.74 -1.13411 -1.67279 0
M  V30 10937 C 1048.06 0.320698 -1.92345 0
M  V30 10938 O 1047.33 1.2245 -1.52915 0
M  V30 10939 H 1045.91 -0.416712 -0.619968 0
M  V30 10940 H 1048.58 -1.5986 -1.11493 0
M  V30 10941 H 1047.67 -1.66256 -2.64131 0
M  V30 10942 N 1047.97 1.13488 -1.09353 0
M  V30 10943 C 1049.22 1.85022 -0.830354 0
M  V30 10944 C 1049.55 1.83266 0.64242 0
M  V30 10945 O 1048.83 1.27024 1.47293 0
M  V30 10946 C 1049.11 3.33218 -1.36521 0
M  V30 10947 C 1048.96 3.43491 -2.90404 0
M  V30 10948 C 1050.28 4.28626 -0.998381 0
M  V30 10949 H 1047.4 0.671786 -0.303105 0
M  V30 10950 H 1050.04 1.33211 -1.3548 0
M  V30 10951 H 1048.19 3.77471 -0.919117 0
M  V30 10952 H 1049.86 3.07954 -3.43456 0
M  V30 10953 H 1048.11 2.84391 -3.27573 0
M  V30 10954 H 1048.78 4.47702 -3.22905 0
M  V30 10955 H 1051.25 3.9244 -1.38311 0
M  V30 10956 H 1050.13 5.30754 -1.39968 0
M  V30 10957 H 1050.39 4.42001 0.093517 0
M  V30 10958 N 1049.45 0.880621 1.30701 0
M  V30 10959 C 1050.7 0.497611 1.966 0
M  V30 10960 C 1051.03 -0.949901 1.69383 0
M  V30 10961 O 1050.31 -1.67054 0.996152 0
M  V30 10962 C 1050.59 0.767919 3.51817 0
M  V30 10963 C 1050.44 2.26574 3.88567 0
M  V30 10964 C 1051.76 0.241502 4.39437 0
M  V30 10965 H 1048.88 0.182267 0.714106 0
M  V30 10966 H 1051.52 1.10382 1.54648 0
M  V30 10967 H 1049.67 0.251967 3.87682 0
M  V30 10968 H 1051.34 2.84977 3.62748 0
M  V30 10969 H 1049.59 2.73411 3.36792 0
M  V30 10970 H 1050.26 2.40549 4.9683 0
M  V30 10971 H 1052.73 0.683051 4.10455 0
M  V30 10972 H 1051.61 0.459997 5.46969 0
M  V30 10973 H 1051.87 -0.857068 4.33713 0
M  V30 10974 N 1050.93 -1.4397 0.641131 0
M  V30 10975 C 1052.18 -2.01163 0.147026 0
M  V30 10976 C 1052.49 -1.51099 -1.24211 0
M  V30 10977 O 1053.7 -2.00487 -1.83078 0
M  V30 10978 C 1052.15 -3.59275 0.212068 0
M  V30 10979 C 1051.76 -4.18334 1.60314 0
M  V30 10980 C 1053.51 -4.23903 -0.225057 0
M  V30 10981 C 1051.41 -5.68701 1.62276 0
M  V30 10982 H 1050.34 -0.75226 0.051201 0
M  V30 10983 H 1052.99 -1.65075 0.801396 0
M  V30 10984 H 1051.38 -3.92708 -0.509589 0
M  V30 10985 H 1052.55 -3.96422 2.34918 0
M  V30 10986 H 1050.86 -3.66031 1.9852 0
M  V30 10987 H 1053.46 -5.34205 -0.230074 0
M  V30 10988 H 1053.8 -3.96956 -1.25426 0
M  V30 10989 H 1054.34 -3.95309 0.44444 0
M  V30 10990 H 1051.08 -6.00397 2.63066 0
M  V30 10991 H 1050.6 -5.92705 0.919797 0
M  V30 10992 H 1052.28 -6.32521 1.36112 0
M  V30 10993 N 1052.41 -0.382291 -1.52893 0
M  V30 10994 C 1053.37 0.44408 -2.24857 0
M  V30 10995 C 1054.37 0.996004 -1.26239 0
M  V30 10996 O 1055.56 0.879114 -1.5039 0
M  V30 10997 C 1052.69 1.62234 -2.99822 0
M  V30 10998 H 1053.89 -0.185862 -2.99324 0
M  V30 10999 H 1051.44 -0.134275 -1.55722 0
M  V30 11000 H 1052.17 2.28991 -2.29638 0
M  V30 11001 H 1051.96 1.23336 -3.72197 0
M  V30 11002 H 1053.45 2.20756 -3.54481 0
M  V30 11003 N 1053.89 1.57202 -0.111913 0
M  V30 11004 C 1055.11 1.99297 0.555713 0
M  V30 11005 C 1055.53 0.991444 1.60673 0
M  V30 11006 O 1054.89 -0.0166672 1.82492 0
M  V30 11007 C 1054.94 3.41413 1.18826 0
M  V30 11008 O 1054.66 4.37733 0.179261 0
M  V30 11009 C 1056.16 3.98602 1.93989 0
M  V30 11010 H 1053.38 0.654543 0.147695 0
M  V30 11011 H 1055.92 2.03557 -0.196163 0
M  V30 11012 H 1054.08 3.38115 1.89096 0
M  V30 11013 H 1054.49 5.20606 0.637935 0
M  V30 11014 H 1055.97 5.00143 2.33584 0
M  V30 11015 H 1056.44 3.37349 2.81233 0
M  V30 11016 H 1057.05 4.05424 1.28497 0
M  V30 11017 N 1055.36 -0.161842 1.56767 0
M  V30 11018 C 1056.61 -0.878224 1.82798 0
M  V30 11019 C 1056.94 -1.81481 0.691242 0
M  V30 11020 O 1056.22 -1.92075 -0.30618 0
M  V30 11021 C 1056.5 -1.66565 3.19262 0
M  V30 11022 C 1056.35 -0.751551 4.43477 0
M  V30 11023 C 1057.67 -2.63134 3.52773 0
M  V30 11024 H 1054.79 -0.317828 0.664947 0
M  V30 11025 H 1057.43 -0.14402 1.89453 0
M  V30 11026 H 1055.58 -2.29157 3.13719 0
M  V30 11027 H 1057.26 -0.137783 4.61094 0
M  V30 11028 H 1055.5 -0.0601785 4.33758 0
M  V30 11029 H 1056.17 -1.33823 5.35533 0
M  V30 11030 H 1058.65 -2.10666 3.5883 0
M  V30 11031 H 1057.52 -3.15289 4.49315 0
M  V30 11032 H 1057.78 -3.43786 2.77963 0
M  V30 11033 N 1056.84 -1.516 -0.430713 0
M  V30 11034 C 1058.09 -1.63829 -1.17657 0
M  V30 11035 C 1058.4 -0.363605 -1.92191 0
M  V30 11036 O 1059.61 -0.365358 -2.6903 0
M  V30 11037 C 1058.07 -2.89357 -2.14011 0
M  V30 11038 C 1057.67 -4.23854 -1.45094 0
M  V30 11039 C 1059.42 -3.10944 -2.88988 0
M  V30 11040 C 1057.32 -5.40526 -2.3997 0
M  V30 11041 H 1056.25 -0.610221 -0.442884 0
M  V30 11042 H 1058.91 -1.78073 -0.442984 0
M  V30 11043 H 1057.29 -2.68762 -2.90832 0
M  V30 11044 H 1058.46 -4.54854 -0.737853 0
M  V30 11045 H 1056.78 -4.08197 -0.822429 0
M  V30 11046 H 1059.37 -3.95286 -3.60074 0
M  V30 11047 H 1059.72 -2.24291 -3.50712 0
M  V30 11048 H 1060.25 -3.3191 -2.19272 0
M  V30 11049 H 1056.99 -6.29459 -1.82925 0
M  V30 11050 H 1056.51 -5.13893 -3.09313 0
M  V30 11051 H 1058.19 -5.72741 -3.00959 0
M  V30 11052 N 1058.32 0.686584 -1.41858 0
M  V30 11053 C 1059.57 1.44879 -1.41908 0
M  V30 11054 C 1059.9 1.94175 -0.0311408 0
M  V30 11055 O 1059.17 1.70131 0.942646 0
M  V30 11056 C 1059.46 2.65428 -2.43352 0
M  V30 11057 C 1059.31 2.2184 -3.91289 0
M  V30 11058 C 1060.63 3.67635 -2.41934 0
M  V30 11059 H 1057.75 0.525477 -0.516762 0
M  V30 11060 H 1060.39 0.781263 -1.73194 0
M  V30 11061 H 1058.54 3.2238 -2.16803 0
M  V30 11062 H 1060.21 1.70146 -4.28775 0
M  V30 11063 H 1058.45 1.53531 -4.05722 0
M  V30 11064 H 1059.13 3.08376 -4.5783 0
M  V30 11065 H 1061.6 3.20376 -2.65516 0
M  V30 11066 H 1060.48 4.49579 -3.14913 0
M  V30 11067 H 1060.74 4.17953 -1.44111 0
M  V30 11068 N 1059.8 1.27835 0.921735 0
M  V30 11069 C 1061.05 1.13904 1.6646 0
M  V30 11070 C 1061.36 -0.313379 1.93073 0
M  V30 11071 O 1062.57 -0.573687 2.6537 0
M  V30 11072 C 1061.02 1.99064 2.99836 0
M  V30 11073 C 1060.63 3.48998 2.80899 0
M  V30 11074 C 1062.37 1.93797 3.77681 0
M  V30 11075 C 1060.28 4.26337 4.09867 0
M  V30 11076 H 1059.21 0.422681 0.624385 0
M  V30 11077 H 1061.86 1.52303 1.02352 0
M  V30 11078 H 1060.24 1.53514 3.65034 0
M  V30 11079 H 1061.42 4.02452 2.24431 0
M  V30 11080 H 1059.73 3.55707 2.16476 0
M  V30 11081 H 1062.33 2.48852 4.73262 0
M  V30 11082 H 1062.67 0.912928 4.06167 0
M  V30 11083 H 1063.21 2.37275 3.19289 0
M  V30 11084 H 1059.94 5.2939 3.86557 0
M  V30 11085 H 1059.46 3.77659 4.65976 0
M  V30 11086 H 1061.14 4.3583 4.78185 0
M  V30 11087 N 1061.28 -1.12907 1.09954 0
M  V30 11088 C 1062.5 -1.88138 0.860905 0
M  V30 11089 C 1062.92 -1.79402 -0.588256 0
M  V30 11090 O 1062.28 -1.16442 -1.40526 0
M  V30 11091 C 1062.33 -3.37537 1.29425 0
M  V30 11092 O 1062.05 -3.46056 2.68658 0
M  V30 11093 C 1063.55 -4.29721 1.08879 0
M  V30 11094 H 1060.77 -0.595437 0.309347 0
M  V30 11095 H 1063.31 -1.42894 1.46292 0
M  V30 11096 H 1061.47 -3.80344 0.736009 0
M  V30 11097 H 1061.88 -4.38969 2.87065 0
M  V30 11098 H 1063.36 -5.32854 1.4412 0
M  V30 11099 H 1063.83 -4.39192 0.0270053 0
M  V30 11100 H 1064.44 -3.9269 1.63325 0
M  V30 11101 N 1062.75 -0.88754 -1.30232 0
M  V30 11102 C 1063.68 -0.372481 -2.3051 0
M  V30 11103 C 1064.66 0.546037 -1.61098 0
M  V30 11104 O 1065.85 0.459345 -1.88689 0
M  V30 11105 C 1062.98 0.411605 -3.44852 0
M  V30 11106 C 1061.93 -0.415383 -4.2598 0
M  V30 11107 C 1061.26 0.495463 -5.324 0
M  V30 11108 C 1062.56 -1.65886 -4.95257 0
M  V30 11109 H 1064.25 -1.21045 -2.7384 0
M  V30 11110 H 1061.8 -0.583498 -1.31648 0
M  V30 11111 H 1063.75 0.782584 -4.1407 0
M  V30 11112 H 1062.48 1.28325 -3.00334 0
M  V30 11113 H 1061.14 -0.768534 -3.58454 0
M  V30 11114 H 1060.78 1.36489 -4.84128 0
M  V30 11115 H 1060.48 -0.0540885 -5.87575 0
M  V30 11116 H 1062.01 0.862901 -6.04472 0
M  V30 11117 H 1063.42 -1.35832 -5.56976 0
M  V30 11118 H 1061.82 -2.14881 -5.60309 0
M  V30 11119 H 1062.89 -2.40181 -4.21237 0
M  V30 11120 N 1064.23 1.43628 -0.648757 0
M  V30 11121 C 1065.48 2.02163 -0.160574 0
M  V30 11122 C 1065.81 1.51037 1.22072 0
M  V30 11123 O 1065.09 0.701633 1.81404 0
M  V30 11124 C 1065.37 3.59715 -0.166528 0
M  V30 11125 C 1065.22 4.21083 -1.58142 0
M  V30 11126 C 1066.54 4.37256 0.499485 0
M  V30 11127 H 1063.66 0.734568 -0.0598238 0
M  V30 11128 H 1066.3 1.70981 -0.828592 0
M  V30 11129 H 1064.45 3.86411 0.402302 0
M  V30 11130 H 1066.12 4.05433 -2.2005 0
M  V30 11131 H 1064.37 3.77904 -2.13005 0
M  V30 11132 H 1065.04 5.30156 -1.53748 0
M  V30 11133 H 1067.51 4.16097 0.0155561 0
M  V30 11134 H 1066.39 5.4693 0.464574 0
M  V30 11135 H 1066.65 4.13175 1.57286 0
M  V30 11136 N 1065.71 0.390394 1.52688 0
M  V30 11137 C 1066.64 -0.48838 2.22913 0
M  V30 11138 C 1067.62 -1.06319 1.23025 0
M  V30 11139 O 1068.81 -1.11462 1.52015 0
M  V30 11140 C 1065.93 -1.67612 2.9432 0
M  V30 11141 C 1064.98 -1.22646 4.08485 0
M  V30 11142 S 1065.81 -0.207092 5.35099 0
M  V30 11143 C 1066.97 -1.40058 6.10028 0
M  V30 11144 H 1067.2 0.107949 2.97104 0
M  V30 11145 H 1064.73 0.174588 1.5341 0
M  V30 11146 H 1066.69 -2.35728 3.36069 0
M  V30 11147 H 1065.35 -2.24375 2.19806 0
M  V30 11148 H 1064.55 -2.11331 4.57554 0
M  V30 11149 H 1064.15 -0.624197 3.68754 0
M  V30 11150 H 1066.44 -2.32747 6.36266 0
M  V30 11151 H 1067.38 -0.950804 7.01687 0
M  V30 11152 H 1067.79 -1.61789 5.40818 0
M  V30 11153 N 1067.19 -1.57141 0.120249 0
M  V30 11154 C 1068.12 -2.18398 -0.826112 0
M  V30 11155 C 1069.1 -1.12439 -1.27638 0
M  V30 11156 O 1070.28 -1.40679 -1.33877 0
M  V30 11157 C 1067.41 -2.78438 -2.0758 0
M  V30 11158 C 1066.37 -3.89991 -1.76327 0
M  V30 11159 C 1065.69 -4.36844 -3.08336 0
M  V30 11160 C 1066.99 -5.12031 -1.03062 0
M  V30 11161 H 1068.69 -2.97731 -0.315656 0
M  V30 11162 H 1066.23 -1.43213 -0.150387 0
M  V30 11163 H 1068.19 -3.19951 -2.74243 0
M  V30 11164 H 1066.91 -1.96396 -2.60953 0
M  V30 11165 H 1065.57 -3.49055 -1.12053 0
M  V30 11166 H 1065.22 -3.51659 -3.59646 0
M  V30 11167 H 1064.92 -5.1207 -2.88199 0
M  V30 11168 H 1066.44 -4.81009 -3.76116 0
M  V30 11169 H 1067.86 -5.50555 -1.59881 0
M  V30 11170 H 1066.25 -5.92848 -0.930146 0
M  V30 11171 H 1067.32 -4.84897 -0.017582 0
M  V30 11172 N 1068.67 0.153526 -1.5685 0
M  V30 11173 C 1069.61 1.18973 -1.97773 0
M  V30 11174 C 1070.58 1.43041 -0.844311 0
M  V30 11175 O 1071.77 1.55484 -1.10586 0
M  V30 11176 C 1068.91 2.51981 -2.35795 0
M  V30 11177 C 1068.02 2.35143 -3.62397 0
M  V30 11178 C 1067.16 3.61141 -3.89552 0
M  V30 11179 C 1066.2 3.39311 -5.09445 0
M  V30 11180 N 1065.33 4.57423 -5.32643 0
M  V30 11181 H 1070.17 0.833758 -2.86099 0
M  V30 11182 H 1067.71 0.400252 -1.4155 0
M  V30 11183 H 1069.67 3.29527 -2.55867 0
M  V30 11184 H 1068.3 2.85539 -1.50557 0
M  V30 11185 H 1067.35 1.48684 -3.50139 0
M  V30 11186 H 1068.66 2.14969 -4.501 0
M  V30 11187 H 1067.82 4.47117 -4.10087 0
M  V30 11188 H 1066.55 3.84312 -3.00259 0
M  V30 11189 H 1065.56 2.51723 -4.8879 0
M  V30 11190 H 1066.78 3.17545 -6.00285 0
M  V30 11191 H 1064.73 4.8078 -4.46303 0
M  V30 11192 H 1064.65 4.40228 -6.14602 0
M  V30 11193 H 1065.92 5.44632 -5.57671 0
M  V30 11194 N 1070.14 1.51827 0.422667 0
M  V30 11195 C 1071.09 1.74198 1.51406 0
M  V30 11196 C 1072.06 0.584013 1.55494 0
M  V30 11197 O 1073.25 0.820079 1.72277 0
M  V30 11198 C 1070.39 1.88627 2.88988 0
M  V30 11199 C 1069.5 3.16233 2.94314 0
M  V30 11200 C 1068.63 3.21172 4.2311 0
M  V30 11201 C 1067.67 4.43033 4.2236 0
M  V30 11202 N 1066.81 4.4544 5.42704 0
M  V30 11203 H 1071.65 2.67352 1.31632 0
M  V30 11204 H 1069.19 1.32487 0.63919 0
M  V30 11205 H 1071.15 1.94976 3.68837 0
M  V30 11206 H 1069.78 0.988673 3.07287 0
M  V30 11207 H 1068.83 3.19123 2.07039 0
M  V30 11208 H 1070.14 4.06104 2.89623 0
M  V30 11209 H 1069.29 3.26517 5.11343 0
M  V30 11210 H 1068.03 2.29216 4.30478 0
M  V30 11211 H 1067.04 4.37849 3.32518 0
M  V30 11212 H 1068.26 5.3627 4.16643 0
M  V30 11213 H 1066.21 3.56361 5.50766 0
M  V30 11214 H 1066.13 5.29138 5.39953 0
M  V30 11215 H 1067.39 4.54997 6.32928 0
M  V30 11216 N 1071.62 -0.679052 1.4222 0
M  V30 11217 C 1072.57 -1.79269 1.45366 0
M  V30 11218 C 1073.54 -1.63255 0.306089 0
M  V30 11219 O 1074.72 -1.8387 0.509548 0
M  V30 11220 C 1071.86 -3.17272 1.35766 0
M  V30 11221 C 1070.98 -3.44603 2.60525 0
M  V30 11222 C 1070.11 -4.7231 2.43098 0
M  V30 11223 C 1069.15 -4.92661 3.63251 0
M  V30 11224 N 1068.29 -6.11606 3.44794 0
M  V30 11225 H 1073.13 -1.75916 2.40536 0
M  V30 11226 H 1070.67 -0.858836 1.19425 0
M  V30 11227 H 1072.62 -3.97015 1.282 0
M  V30 11228 H 1071.25 -3.1976 0.441939 0
M  V30 11229 H 1070.31 -2.59144 2.78475 0
M  V30 11230 H 1071.62 -3.55536 3.49851 0
M  V30 11231 H 1070.77 -5.60136 2.33093 0
M  V30 11232 H 1069.51 -4.63652 1.51255 0
M  V30 11233 H 1068.52 -4.03278 3.73693 0
M  V30 11234 H 1069.74 -5.03167 4.5607 0
M  V30 11235 H 1067.69 -6.04129 2.55663 0
M  V30 11236 H 1067.6 -6.23381 4.27705 0
M  V30 11237 H 1068.87 -7.02122 3.38592 0
M  V30 11238 N 1073.1 -1.28322 -0.914942 0
M  V30 11239 C 1074.03 -1.07947 -2.02188 0
M  V30 11240 C 1075.05 -0.0315743 -1.62769 0
M  V30 11241 O 1076.23 -0.274503 -1.76377 0
M  V30 11242 C 1073.33 -0.61805 -3.33217 0
M  V30 11243 C 1072.51 -1.74109 -4.01254 0
M  V30 11244 C 1071.57 -1.27325 -5.10563 0
M  V30 11245 O 1070.59 -1.97526 -5.33828 0
M  V30 11246 N 1071.79 -0.1358 -5.80341 0
M  V30 11247 H 1074.56 -2.03275 -2.20225 0
M  V30 11248 H 1072.12 -1.20059 -1.08616 0
M  V30 11249 H 1074.11 -0.288693 -4.03669 0
M  V30 11250 H 1072.68 0.242348 -3.11659 0
M  V30 11251 H 1071.9 -2.2401 -3.24366 0
M  V30 11252 H 1073.19 -2.49448 -4.43456 0
M  V30 11253 H 1072.59 0.449846 -5.63909 0
M  V30 11254 H 1071.15 0.134289 -6.51662 0
M  V30 11255 N 1074.58 1.12322 -1.10551 0
M  V30 11256 C 1075.81 1.87407 -0.869607 0
M  V30 11257 C 1076.22 1.79976 0.58356 0
M  V30 11258 O 1075.56 1.1725 1.41415 0
M  V30 11259 C 1075.62 3.37401 -1.24099 0
M  V30 11260 C 1075.29 3.68607 -2.70144 0
M  V30 11261 C 1076.28 3.66869 -3.68379 0
M  V30 11262 C 1073.97 3.97903 -3.06559 0
M  V30 11263 C 1075.96 3.93987 -5.01052 0
M  V30 11264 C 1073.65 4.24681 -4.39419 0
M  V30 11265 C 1074.65 4.2271 -5.36475 0
M  V30 11266 O 1074.33 4.48823 -6.66943 0
M  V30 11267 H 1074.07 0.59978 -0.311834 0
M  V30 11268 H 1076.62 1.43037 -1.4741 0
M  V30 11269 H 1074.85 3.82332 -0.579606 0
M  V30 11270 H 1076.54 3.93833 -0.982378 0
M  V30 11271 H 1077.31 3.44297 -3.41591 0
M  V30 11272 H 1073.18 3.98578 -2.31638 0
M  V30 11273 H 1076.73 3.92364 -5.76798 0
M  V30 11274 H 1072.63 4.46727 -4.65945 0
M  V30 11275 H 1073.39 4.66436 -6.72592 0
M  V30 11276 N 1076.06 0.894434 1.2976 0
M  V30 11277 C 1077.28 0.532916 1.99919 0
M  V30 11278 C 1077.7 -0.881022 1.66983 0
M  V30 11279 O 1077.06 -1.58076 0.912035 0
M  V30 11280 C 1077.11 0.70936 3.54472 0
M  V30 11281 O 1076.83 2.06764 3.86239 0
M  V30 11282 C 1078.33 0.352089 4.419 0
M  V30 11283 H 1075.55 0.205019 0.638912 0
M  V30 11284 H 1078.09 1.20233 1.65421 0
M  V30 11285 H 1076.25 0.0871901 3.87302 0
M  V30 11286 H 1076.66 2.09315 4.80924 0
M  V30 11287 H 1078.14 0.526405 5.49484 0
M  V30 11288 H 1078.61 -0.710527 4.33415 0
M  V30 11289 H 1079.22 0.950979 4.14532 0
M  V30 11290 N 1077.53 -1.43282 0.656365 0
M  V30 11291 C 1078.76 -2.06641 0.177245 0
M  V30 11292 C 1079.18 -1.48893 -1.14946 0
M  V30 11293 O 1078.54 -0.600099 -1.7108 0
M  V30 11294 C 1078.59 -3.60453 0.10299 0
M  V30 11295 O 1077.69 -4.01687 -0.933895 0
M  V30 11296 H 1077.04 -0.656978 0.096314 0
M  V30 11297 H 1079.57 -1.83733 0.900178 0
M  V30 11298 H 1079.58 -4.07923 -0.079291 0
M  V30 11299 H 1078.25 -4.01861 1.07147 0
M  V30 11300 H 1076.83 -3.65801 -0.724148 0
M  V30 11301 N 1079.01 -0.398486 -1.52479 0
M  V30 11302 C 1080.26 0.182046 -2.00877 0
M  V30 11303 C 1080.58 1.47128 -1.2889 0
M  V30 11304 O 1081.78 2.13242 -1.68048 0
M  V30 11305 C 1080.24 0.374978 -3.57941 0
M  V30 11306 C 1079.85 -0.901544 -4.38835 0
M  V30 11307 C 1081.59 0.911378 -4.14601 0
M  V30 11308 C 1079.5 -0.676385 -5.87519 0
M  V30 11309 H 1078.43 0.0718068 -0.750573 0
M  V30 11310 H 1081.08 -0.522297 -1.7591 0
M  V30 11311 H 1079.46 1.14139 -3.79194 0
M  V30 11312 H 1080.63 -1.67329 -4.29346 0
M  V30 11313 H 1078.95 -1.36357 -3.93441 0
M  V30 11314 H 1081.55 1.09569 -5.23353 0
M  V30 11315 H 1081.89 1.88306 -3.71277 0
M  V30 11316 H 1082.42 0.204296 -3.97275 0
M  V30 11317 H 1079.16 -1.61933 -6.35184 0
M  V30 11318 H 1078.68 0.0562542 -5.99774 0
M  V30 11319 H 1080.36 -0.314454 -6.46235 0
M  V30 11320 N 1080.49 1.57075 -0.12858 0
M  V30 11321 C 1081.44 2.12379 0.829418 0
M  V30 11322 C 1082.43 1.04694 1.2218 0
M  V30 11323 O 1083.62 1.30909 1.1913 0
M  V30 11324 C 1080.75 2.73436 2.07575 0
M  V30 11325 C 1079.83 3.88217 1.7073 0
M  V30 11326 N 1080.22 4.94864 1.04609 0
M  V30 11327 C 1078.52 3.9858 2.00125 0
M  V30 11328 C 1079.22 5.7514 0.871137 0
M  V30 11329 N 1078.2 5.25284 1.39918 0
M  V30 11330 H 1082 2.92209 0.314816 0
M  V30 11331 H 1079.51 1.62233 0.0735788 0
M  V30 11332 H 1081.51 3.11406 2.77185 0
M  V30 11333 H 1080.17 1.95073 2.5957 0
M  V30 11334 H 1081.18 5.13025 0.708961 0
M  V30 11335 H 1077.86 3.3127 2.541 0
M  V30 11336 H 1079.25 6.7098 0.351395 0
M  V30 11337 N 1081.97 -0.145205 1.5693 0
M  V30 11338 C 1082.92 -1.18446 1.94819 0
M  V30 11339 C 1083.9 -1.38456 0.819684 0
M  V30 11340 O 1085.1 -1.39988 1.08316 0
M  V30 11341 C 1082.22 -2.51766 2.33385 0
M  V30 11342 C 1081.31 -2.35341 3.5281 0
M  V30 11343 N 1081.7 -1.88676 4.69292 0
M  V30 11344 C 1080 -2.66087 3.5793 0
M  V30 11345 C 1080.7 -1.85337 5.51385 0
M  V30 11346 N 1079.68 -2.28717 4.93142 0
M  V30 11347 H 1083.48 -0.815785 2.82351 0
M  V30 11348 H 1080.99 -0.353242 1.58512 0
M  V30 11349 H 1082.99 -3.26897 2.58735 0
M  V30 11350 H 1081.65 -2.89414 1.47206 0
M  V30 11351 H 1082.66 -1.58614 4.93013 0
M  V30 11352 H 1079.34 -3.07597 2.82294 0
M  V30 11353 H 1080.73 -1.50734 6.54774 0
M  V30 11354 N 1083.45 -1.52049 -0.414609 0
M  V30 11355 C 1084.7 -1.65511 -1.15977 0
M  V30 11356 C 1085.02 -0.384703 -1.91168 0
M  V30 11357 O 1084.29 0.600247 -1.86477 0
M  V30 11358 H 1082.87 -0.610039 -0.431116 0
M  V30 11359 H 1085.53 -1.8907 -0.473139 0
M  V30 11360 H 1084.62 -2.4936 -1.87686 0
M  V30 11361 N 1084.93 0.6715 -1.42579 0
M  V30 11362 C 1086.17 1.43366 -1.43436 0
M  V30 11363 C 1086.5 1.94131 -0.0517339 0
M  V30 11364 O 1085.78 1.71121 0.924548 0
M  V30 11365 C 1086.06 2.62832 -2.46154 0
M  V30 11366 C 1085.92 2.17677 -3.9362 0
M  V30 11367 C 1087.23 3.65049 -2.4582 0
M  V30 11368 H 1084.35 0.519967 -0.522306 0
M  V30 11369 H 1087 0.762849 -1.74013 0
M  V30 11370 H 1085.15 3.20062 -2.2021 0
M  V30 11371 H 1086.82 1.65588 -4.30556 0
M  V30 11372 H 1085.06 1.49219 -4.07328 0
M  V30 11373 H 1085.73 3.03503 -4.61075 0
M  V30 11374 H 1088.21 3.17541 -2.68899 0
M  V30 11375 H 1087.08 4.46213 -3.19664 0
M  V30 11376 H 1087.34 4.16401 -1.48536 0
M  V30 11377 N 1086.4 1.28806 0.908124 0
M  V30 11378 C 1087.65 1.1646 1.66027 0
M  V30 11379 C 1087.98 -0.285025 1.92097 0
M  V30 11380 O 1087.26 -1.20675 1.52538 0
M  V30 11381 C 1087.54 1.96951 3.01467 0
M  V30 11382 C 1087.39 3.50007 2.82515 0
M  V30 11383 C 1088.71 1.78932 4.02084 0
M  V30 11384 H 1085.83 0.424435 0.602515 0
M  V30 11385 H 1088.47 1.58185 1.0525 0
M  V30 11386 H 1086.62 1.61495 3.53344 0
M  V30 11387 H 1088.3 3.95401 2.37605 0
M  V30 11388 H 1086.54 3.75356 2.17463 0
M  V30 11389 H 1087.21 4.01591 3.7872 0
M  V30 11390 H 1089.69 2.09885 3.59287 0
M  V30 11391 H 1088.56 2.37615 4.94803 0
M  V30 11392 H 1088.82 0.742286 4.35824 0
M  V30 11393 N 1087.88 -1.11734 1.11145 0
M  V30 11394 C 1088.79 -2.21267 0.779607 0
M  V30 11395 C 1089.81 -1.72526 -0.225986 0
M  V30 11396 O 1090.98 -2.01302 -0.0629166 0
M  V30 11397 C 1088.05 -3.45973 0.22435 0
M  V30 11398 C 1087.11 -4.09518 1.28816 0
M  V30 11399 C 1086.34 -5.28271 0.7593 0
M  V30 11400 O 1086.57 -5.68912 -0.411725 0
M  V30 11401 O 1085.5 -5.82322 1.52266 0
M  V30 11402 H 1089.33 -2.5206 1.6941 0
M  V30 11403 H 1086.91 -1.20211 0.887115 0
M  V30 11404 H 1088.79 -4.21322 -0.0810921 0
M  V30 11405 H 1087.47 -3.1684 -0.662891 0
M  V30 11406 H 1086.37 -3.35915 1.64657 0
M  V30 11407 H 1087.71 -4.42824 2.14868 0
M  V30 11408 N 1089.36 -0.901303 -1.29284 0
M  V30 11409 C 1090.61 -0.528826 -1.95784 0
M  V30 11410 C 1090.94 0.922833 -1.70873 0
M  V30 11411 O 1090.21 1.65448 -1.0226 0
M  V30 11412 C 1090.5 -0.823793 -3.50551 0
M  V30 11413 C 1090.35 -2.32727 -3.84913 0
M  V30 11414 C 1091.67 -0.311382 -4.38997 0
M  V30 11415 H 1088.79 -0.193604 -0.711116 0
M  V30 11416 H 1091.43 -1.12828 -1.52872 0
M  V30 11417 H 1089.58 -0.313612 -3.87232 0
M  V30 11418 H 1091.25 -2.90712 -3.58168 0
M  V30 11419 H 1089.49 -2.78735 -3.32399 0
M  V30 11420 H 1090.17 -2.48423 -4.9294 0
M  V30 11421 H 1092.64 -0.748265 -4.09317 0
M  V30 11422 H 1091.52 -0.546957 -5.46168 0
M  V30 11423 H 1091.78 0.787959 -4.35021 0
M  V30 11424 N 1090.84 1.42931 -0.663954 0
M  V30 11425 C 1092.11 1.95284 -0.111174 0
M  V30 11426 C 1092.49 1.60484 1.37142 0
M  V30 11427 O 1091.84 0.895425 2.10225 0
M  V30 11428 C 1092.05 3.47046 -0.368789 0
M  V30 11429 C 1093.4 4.23679 -0.279473 0
M  V30 11430 O 1094.42 3.54918 -0.301937 0
M  V30 11431 O 1093.28 5.46087 -0.21236 0
M  V30 11432 H 1090.38 0.826993 0.00341718 0
M  V30 11433 H 1092.92 1.52816 -0.737935 0
M  V30 11434 H 1091.7 3.65541 -1.39626 0
M  V30 11435 H 1091.32 3.96537 0.290514 0
M  V30 11436 N 1092.32 0.406567 1.52266 0
M  V30 11437 C 1093.28 -0.408251 2.25535 0
M  V30 11438 C 1094.28 -0.975795 1.27808 0
M  V30 11439 O 1095.47 -0.855077 1.5177 0
M  V30 11440 C 1092.6 -1.57443 3.02365 0
M  V30 11441 H 1093.79 0.233459 2.9899 0
M  V30 11442 H 1091.35 0.159032 1.55489 0
M  V30 11443 H 1092.08 -2.25308 2.33252 0
M  V30 11444 H 1091.87 -1.17399 3.74112 0
M  V30 11445 H 1093.36 -2.15088 3.57948 0
M  V30 11446 N 1093.79 -1.57004 0.136909 0
M  V30 11447 C 1094.76 -2.15066 -0.792419 0
M  V30 11448 C 1095.76 -1.08991 -1.18226 0
M  V30 11449 O 1096.95 -1.34681 -1.10484 0
M  V30 11450 C 1094.08 -2.70554 -2.07397 0
M  V30 11451 H 1095.27 -2.98519 -0.28752 0
M  V30 11452 H 1092.83 -1.55895 -0.112469 0
M  V30 11453 H 1093.56 -1.90739 -2.62277 0
M  V30 11454 H 1093.35 -3.48149 -1.80374 0
M  V30 11455 H 1094.84 -3.15322 -2.73792 0
M  V30 11456 N 1095.27 0.136881 -1.57004 0
M  V30 11457 C 1096.52 0.849031 -1.84172 0
M  V30 11458 C 1096.85 1.80359 -0.720027 0
M  V30 11459 O 1096.13 1.92538 0.275584 0
M  V30 11460 C 1096.41 1.61465 -3.21871 0
M  V30 11461 C 1096.26 0.680902 -4.44616 0
M  V30 11462 C 1097.58 2.57488 -3.56914 0
M  V30 11463 H 1094.7 0.307209 -0.669919 0
M  V30 11464 H 1097.34 0.113862 -1.89659 0
M  V30 11465 H 1095.49 2.24137 -3.17325 0
M  V30 11466 H 1097.16 0.0644094 -4.61255 0
M  V30 11467 H 1095.41 -0.00883629 -4.33799 0
M  V30 11468 H 1096.08 1.25286 -5.37594 0
M  V30 11469 H 1098.55 2.0493 -3.62136 0
M  V30 11470 H 1097.43 3.08101 -4.54274 0
M  V30 11471 H 1097.69 3.39321 -2.83397 0
M  V30 11472 N 1096.75 1.52266 0.40654 0
M  V30 11473 C 1097.98 1.70304 1.17491 0
M  V30 11474 C 1098.39 0.413656 1.84213 0
M  V30 11475 O 1097.75 -0.610524 1.71985 0
M  V30 11476 C 1097.8 2.84045 2.23609 0
M  V30 11477 O 1097.52 4.0799 1.5961 0
M  V30 11478 C 1099.02 3.13614 3.13306 0
M  V30 11479 H 1096.24 0.570669 0.352955 0
M  V30 11480 H 1098.79 1.98836 0.477967 0
M  V30 11481 H 1096.94 2.58025 2.88967 0
M  V30 11482 H 1097.36 4.7139 2.29983 0
M  V30 11483 H 1098.83 3.96707 3.83833 0
M  V30 11484 H 1099.31 2.27272 3.75824 0
M  V30 11485 H 1099.91 3.41409 2.53614 0
M  V30 11486 N 1098.23 -0.663929 1.42933 0
M  V30 11487 C 1099.64 -1.24484 1.39143 0
M  V30 11488 C 1099.99 -1.95993 0.0901142 0
M  V30 11489 O 1099.12 -2.00636 -0.810812 0
M  V30 11490 C 1099.71 -2.26402 2.52047 0
M  V30 11491 C 1098.27 -2.79995 2.51555 0
M  V30 11492 C 1097.42 -1.54475 2.30289 0
M  V30 11493 H 1100.37 -0.456619 1.51989 0
M  V30 11494 H 1100.39 -3.08361 2.22921 0
M  V30 11495 H 1099.9 -1.74328 3.46744 0
M  V30 11496 H 1098 -3.36161 1.60707 0
M  V30 11497 H 1098.11 -3.2827 3.48964 0
M  V30 11498 H 1096.48 -1.81437 1.78753 0
M  V30 11499 H 1097.26 -1.04351 3.27056 0
M  V30 11500 N 1099.71 -1.29285 -0.901281 0
M  V30 11501 C 1100.62 -1.16161 -2.03823 0
M  V30 11502 C 1101.63 -0.0852298 -1.73791 0
M  V30 11503 O 1102.81 -0.29699 -1.99198 0
M  V30 11504 C 1099.87 -0.837586 -3.3643 0
M  V30 11505 C 1098.93 -1.99764 -3.7999 0
M  V30 11506 C 1098.17 -1.68898 -5.0627 0
M  V30 11507 O 1098.39 -0.609177 -5.67138 0
M  V30 11508 O 1097.32 -2.53648 -5.45845 0
M  V30 11509 H 1101.15 -2.11635 -2.17817 0
M  V30 11510 H 1098.74 -1.08722 -1.02468 0
M  V30 11511 H 1100.62 -0.671376 -4.16017 0
M  V30 11512 H 1099.29 0.0873811 -3.23582 0
M  V30 11513 H 1098.2 -2.21908 -3.01177 0
M  V30 11514 H 1099.53 -2.90376 -3.9742 0
M  V30 11515 N 1101.18 1.11143 -1.11736 0
M  V30 11516 C 1102.09 2.20851 -0.791331 0
M  V30 11517 C 1103.11 1.72644 0.216833 0
M  V30 11518 O 1104.29 2.01332 0.0522401 0
M  V30 11519 C 1101.35 3.4585 -0.242694 0
M  V30 11520 C 1100.41 4.08829 -1.30986 0
M  V30 11521 C 1099.65 5.27861 -0.787305 0
M  V30 11522 O 1099.87 5.69122 0.381549 0
M  V30 11523 O 1098.8 5.81506 -1.55352 0
M  V30 11524 H 1102.63 2.51158 -1.70744 0
M  V30 11525 H 1100.21 1.19739 -0.893478 0
M  V30 11526 H 1102.1 4.21359 0.0587472 0
M  V30 11527 H 1100.77 3.17187 0.646079 0
M  V30 11528 H 1099.68 3.35037 -1.66436 0
M  V30 11529 H 1101.01 4.41678 -2.17213 0
M  V30 11530 N 1102.66 0.908147 1.28804 0
M  V30 11531 C 1104.08 0.605474 1.47669 0
M  V30 11532 C 1104.28 -0.850759 1.82659 0
M  V30 11533 O 1103.33 -1.63029 1.92816 0
M  V30 11534 C 1104.65 1.53856 2.58358 0
M  V30 11535 C 1106.2 1.54467 2.7223 0
M  V30 11536 C 1106.67 2.46424 3.86056 0
M  V30 11537 N 1108.16 2.44519 3.93402 0
M  V30 11538 C 1108.9 3.12371 4.80845 0
M  V30 11539 N 1108.39 3.89533 5.72919 0
M  V30 11540 N 1110.19 3.01486 4.74407 0
M  V30 11541 H 1102.34 1.84988 1.04371 0
M  V30 11542 H 1104.6 0.793132 0.519274 0
M  V30 11543 H 1104.31 2.57651 2.39393 0
M  V30 11544 H 1104.18 1.26543 3.5534 0
M  V30 11545 H 1106.57 0.514127 2.90587 0
M  V30 11546 H 1106.65 1.85821 1.75796 0
M  V30 11547 H 1106.29 3.49577 3.68454 0
M  V30 11548 H 1106.22 2.12375 4.81876 0
M  V30 11549 H 1108.71 1.88464 3.27551 0
M  V30 11550 H 1109.03 4.3834 6.36457 0
M  V30 11551 H 1107.37 3.93639 5.72777 0
M  V30 11552 H 1110.56 2.40713 4.01466 0
M  V30 11553 H 1110.73 3.5464 5.42342 0
M  V30 11554 N 1104.14 -1.42577 0.671525 0
M  V30 11555 C 1105.09 -2.27978 -0.0315286 0
M  V30 11556 C 1106.07 -1.40907 -0.776796 0
M  V30 11557 O 1107.27 -1.64385 -0.656248 0
M  V30 11558 C 1104.4 -3.28884 -0.9844 0
M  V30 11559 C 1103.48 -4.23439 -0.236647 0
M  V30 11560 N 1103.87 -5.00107 0.756714 0
M  V30 11561 C 1102.17 -4.43457 -0.475551 0
M  V30 11562 C 1102.87 -5.69141 1.20221 0
M  V30 11563 N 1101.85 -5.40983 0.532802 0
M  V30 11564 H 1105.65 -2.84678 0.730455 0
M  V30 11565 H 1103.16 -1.54501 0.500317 0
M  V30 11566 H 1105.16 -3.88864 -1.50302 0
M  V30 11567 H 1103.82 -2.73745 -1.74625 0
M  V30 11568 H 1104.83 -5.05285 1.13613 0
M  V30 11569 H 1101.51 -3.99364 -1.21715 0
M  V30 11570 H 1102.9 -6.40653 2.02517 0
M  V30 11571 N 1105.62 -0.414636 -1.52048 0
M  V30 11572 C 1106.55 0.399119 -2.30064 0
M  V30 11573 C 1107.53 1.04126 -1.34506 0
M  V30 11574 O 1108.71 1.04923 -1.63416 0
M  V30 11575 C 1105.84 1.51305 -3.12608 0
M  V30 11576 C 1104.8 0.995621 -4.16259 0
M  V30 11577 C 1104.12 2.20357 -4.87183 0
M  V30 11578 C 1105.42 0.0458178 -5.2228 0
M  V30 11579 H 1107.12 -0.251879 -2.98339 0
M  V30 11580 H 1104.66 -0.122579 -1.43477 0
M  V30 11581 H 1106.62 2.08936 -3.65956 0
M  V30 11582 H 1105.34 2.19201 -2.42113 0
M  V30 11583 H 1104 0.441676 -3.6393 0
M  V30 11584 H 1103.65 2.8682 -4.13211 0
M  V30 11585 H 1103.35 1.86385 -5.57256 0
M  V30 11586 H 1104.87 2.78584 -5.43345 0
M  V30 11587 H 1106.29 0.531102 -5.70835 0
M  V30 11588 H 1104.68 -0.20536 -5.99749 0
M  V30 11589 H 1105.75 -0.897807 -4.76516 0
M  V30 11590 N 1107.1 1.56929 -0.145233 0
M  V30 11591 C 1108.32 2.00864 0.516564 0
M  V30 11592 C 1108.75 1.02466 1.57741 0
M  V30 11593 O 1108.1 0.000145439 1.813 0
M  V30 11594 C 1108.15 3.43552 1.09563 0
M  V30 11595 O 1107.26 3.4815 2.21055 0
M  V30 11596 H 1106.6 0.651835 0.126521 0
M  V30 11597 H 1109.13 2.0317 -0.241445 0
M  V30 11598 H 1109.14 3.82316 1.42473 0
M  V30 11599 H 1107.81 4.14677 0.318749 0
M  V30 11600 H 1106.39 3.21228 1.89387 0
M  V30 11601 N 1108.58 -0.128553 1.57075 0
M  V30 11602 C 1109.52 -1.15812 1.9964 0
M  V30 11603 C 1110.49 -1.41679 0.86696 0
M  V30 11604 O 1111.68 -1.53705 1.13046 0
M  V30 11605 C 1108.82 -2.48198 2.39774 0
M  V30 11606 C 1107.93 -2.29348 3.66092 0
M  V30 11607 C 1107.07 -3.54898 3.95248 0
M  V30 11608 C 1106.1 -3.31164 5.14779 0
M  V30 11609 N 1105.24 -4.48891 5.39853 0
M  V30 11610 H 1110.08 -0.788136 2.87389 0
M  V30 11611 H 1107.62 -0.377682 1.42169 0
M  V30 11612 H 1109.58 -3.25414 2.61077 0
M  V30 11613 H 1108.21 -2.83108 1.5508 0
M  V30 11614 H 1107.26 -1.43095 3.5246 0
M  V30 11615 H 1108.57 -2.07781 4.53463 0
M  V30 11616 H 1107.72 -4.40536 4.17148 0
M  V30 11617 H 1106.46 -3.79487 3.06335 0
M  V30 11618 H 1105.47 -2.43915 4.92733 0
M  V30 11619 H 1106.69 -3.07954 6.05261 0
M  V30 11620 H 1104.64 -4.73619 4.53895 0
M  V30 11621 H 1104.56 -4.30394 6.21528 0
M  V30 11622 H 1105.82 -5.35691 5.66265 0
M  V30 11623 N 1110.05 -1.5248 -0.398459 0
M  V30 11624 C 1110.99 -1.71321 -1.50746 0
M  V30 11625 C 1111.96 -0.5609 -1.52619 0
M  V30 11626 O 1113.15 -0.789557 -1.71167 0
M  V30 11627 C 1110.28 -1.76223 -2.89246 0
M  V30 11628 C 1109.32 -2.97878 -3.05239 0
M  V30 11629 S 1110.15 -4.58031 -2.77431 0
M  V30 11630 C 1111.31 -4.65735 -4.18141 0
M  V30 11631 H 1111.54 -2.65117 -1.34538 0
M  V30 11632 H 1109.08 -1.42653 -0.590727 0
M  V30 11633 H 1111.03 -1.79733 -3.69062 0
M  V30 11634 H 1109.7 -0.83536 -3.02788 0
M  V30 11635 H 1108.89 -2.97821 -4.06594 0
M  V30 11636 H 1108.49 -2.92311 -2.33304 0
M  V30 11637 H 1110.78 -4.43768 -5.11934 0
M  V30 11638 H 1111.73 -5.67709 -4.23217 0
M  V30 11639 H 1112.13 -3.94664 -4.03609 0
M  V30 11640 N 1111.53 0.65634 -1.43283 0
M  V30 11641 C 1112.46 1.78184 -1.44164 0
M  V30 11642 C 1113.48 1.59249 -0.338177 0
M  V30 11643 O 1114.67 1.68027 -0.60242 0
M  V30 11644 C 1111.77 3.15566 -1.23577 0
M  V30 11645 C 1110.94 3.61187 -2.46704 0
M  V30 11646 C 1110 4.77361 -2.21388 0
M  V30 11647 O 1109.02 4.8696 -2.94718 0
M  V30 11648 N 1110.23 5.67351 -1.22855 0
M  V30 11649 H 1112.99 1.77907 -2.41183 0
M  V30 11650 H 1110.55 0.840076 -1.38399 0
M  V30 11651 H 1112.54 3.90968 -1.04529 0
M  V30 11652 H 1111.11 3.10633 -0.350155 0
M  V30 11653 H 1110.33 2.76263 -2.81198 0
M  V30 11654 H 1111.62 3.88413 -3.28652 0
M  V30 11655 H 1111.02 5.62265 -0.622417 0
M  V30 11656 H 1109.58 6.42487 -1.09791 0
M  V30 11657 N 1113.01 1.29761 0.894412 0
M  V30 11658 C 1113.94 1.1115 2.00445 0
M  V30 11659 C 1114.95 0.0574655 1.62699 0
M  V30 11660 O 1116.14 0.302528 1.75918 0
M  V30 11661 C 1113.24 0.670984 3.32191 0
M  V30 11662 C 1112.42 1.80471 3.98433 0
M  V30 11663 C 1111.48 1.35431 5.08473 0
M  V30 11664 O 1110.5 2.05994 5.30618 0
M  V30 11665 N 1111.7 0.22811 5.80052 0
M  V30 11666 H 1114.47 2.06753 2.16964 0
M  V30 11667 H 1112.03 1.21772 1.06692 0
M  V30 11668 H 1114.02 0.352877 4.03159 0
M  V30 11669 H 1112.59 -0.192735 3.12005 0
M  V30 11670 H 1111.81 2.29142 3.20761 0
M  V30 11671 H 1113.1 2.56471 4.39431 0
M  V30 11672 H 1112.5 -0.360076 5.64553 0
M  V30 11673 H 1111.05 -0.0305985 6.51793 0
M  V30 11674 N 1114.49 -1.10549 1.12324 0
M  V30 11675 C 1115.44 -2.18944 0.785248 0
M  V30 11676 C 1116.43 -1.67867 -0.227389 0
M  V30 11677 O 1117.64 -1.79796 -0.0857162 0
M  V30 11678 H 1114.01 -0.713976 0.236098 0
M  V30 11679 H 1115.98 -2.44692 1.70788 0
M  V30 11680 C 1114.73 -3.46765 0.25485 0
M  V30 11681 H 1114.05 -3.86428 1.02534 0
M  V30 11682 H 1115.49 -4.23962 0.0566526 0
M  V30 11683 C 1113.95 -3.21185 -1.01695 0
M  V30 11684 O 1114.48 -3.42745 -2.09497 0
M  V30 11685 N 1112.69 -2.7486 -0.943423 0
M  V30 11686 H 1112.24 -2.57515 -0.0660366 0
M  V30 11687 H 1112.19 -2.58122 -1.795 0
M  V30 11688 N 1115.97 -0.914965 -1.28321 0
M  V30 11689 C 1117.21 -0.547665 -1.94538 0
M  V30 11690 C 1117.53 0.911834 -1.72368 0
M  V30 11691 O 1116.8 1.64481 -1.06408 0
M  V30 11692 H 1115.38 -0.199549 -0.719853 0
M  V30 11693 H 1118.05 -1.16459 -1.5628 0
M  V30 11694 H 1117.14 -0.743138 -3.03124 0
M  V30 11695 N 1117.44 1.42219 -0.679077 0
M  V30 11696 C 1118.67 2.05516 -0.211342 0
M  V30 11697 C 1119.08 1.5113 1.13826 0
M  V30 11698 O 1118.42 0.647593 1.71907 0
M  V30 11699 C 1118.49 3.59425 -0.0736007 0
M  V30 11700 C 1118.15 4.36525 -1.3526 0
M  V30 11701 C 1119.15 4.66897 -2.28698 0
M  V30 11702 C 1116.83 4.76089 -1.60139 0
M  V30 11703 C 1118.83 5.35775 -3.45288 0
M  V30 11704 C 1116.51 5.44706 -2.77017 0
M  V30 11705 C 1117.51 5.74474 -3.69416 0
M  V30 11706 O 1117.2 6.41683 -4.8425 0
M  V30 11707 H 1116.93 0.668662 -0.0993318 0
M  V30 11708 H 1119.49 1.8327 -0.927434 0
M  V30 11709 H 1117.72 3.80346 0.69811 0
M  V30 11710 H 1119.4 4.04346 0.354813 0
M  V30 11711 H 1120.17 4.36828 -2.10729 0
M  V30 11712 H 1116.05 4.5231 -0.890887 0
M  V30 11713 H 1119.59 5.58927 -4.17428 0
M  V30 11714 H 1115.49 5.74194 -2.9491 0
M  V30 11715 H 1116.26 6.60175 -4.8385 0
M  V30 11716 N 1118.92 0.422693 1.51826 0
M  V30 11717 C 1119.83 -0.40261 2.31119 0
M  V30 11718 C 1120.85 -1.04117 1.39412 0
M  V30 11719 O 1122.02 -1.03973 1.72486 0
M  V30 11720 C 1119.09 -1.49699 3.12716 0
M  V30 11721 C 1118.15 -0.880088 4.20182 0
M  V30 11722 C 1117.38 -1.92232 4.97878 0
M  V30 11723 O 1117.61 -3.14246 4.76031 0
M  V30 11724 O 1116.54 -1.521 5.82365 0
M  V30 11725 H 1120.37 0.244308 3.02716 0
M  V30 11726 H 1117.95 0.185569 1.48243 0
M  V30 11727 H 1119.83 -2.13202 3.63487 0
M  V30 11728 H 1118.51 -2.12826 2.43899 0
M  V30 11729 H 1117.41 -0.207404 3.73525 0
M  V30 11730 H 1118.75 -0.292535 4.9133 0
M  V30 11731 N 1120.4 -1.5685 0.153553 0
M  V30 11732 C 1121.35 -2.18385 -0.800667 0
M  V30 11733 C 1122.34 -1.14272 -1.25053 0
M  V30 11734 O 1123.55 -1.32509 -1.21825 0
M  V30 11735 H 1119.92 -0.699352 -0.276425 0
M  V30 11736 H 1121.89 -2.97287 -0.257535 0
M  V30 11737 C 1120.64 -2.82497 -2.02708 0
M  V30 11738 H 1119.97 -3.62328 -1.68992 0
M  V30 11739 H 1121.41 -3.29047 -2.67403 0
M  V30 11740 C 1119.86 -1.81343 -2.8393 0
M  V30 11741 O 1120.39 -1.28793 -3.80493 0
M  V30 11742 N 1118.6 -1.50499 -2.48593 0
M  V30 11743 H 1118.15 -1.93425 -1.70131 0
M  V30 11744 H 1118.11 -0.830672 -3.03228 0
M  V30 11745 N 1121.88 0.120221 -1.57141 0
M  V30 11746 C 1123.29 0.677497 -1.73974 0
M  V30 11747 C 1123.64 1.80371 -0.772055 0
M  V30 11748 O 1122.76 2.16329 0.0553062 0
M  V30 11749 C 1123.36 1.23575 -3.1546 0
M  V30 11750 C 1121.92 1.73933 -3.33803 0
M  V30 11751 C 1121.07 0.638542 -2.69848 0
M  V30 11752 H 1124.02 -0.105685 -1.58348 0
M  V30 11753 H 1124.04 2.10542 -3.16942 0
M  V30 11754 H 1123.55 0.415851 -3.85866 0
M  V30 11755 H 1121.65 2.58404 -2.68437 0
M  V30 11756 H 1121.76 1.84961 -4.41957 0
M  V30 11757 H 1120.13 1.07185 -2.31049 0
M  V30 11758 H 1120.91 -0.170356 -3.42877 0
M  V30 11759 N 1123.36 1.52689 0.390367 0
M  V30 11760 C 1124.58 1.71541 1.15678 0
M  V30 11761 C 1125 0.433171 1.83764 0
M  V30 11762 O 1124.36 -0.592248 1.72623 0
M  V30 11763 C 1124.41 2.864 2.20584 0
M  V30 11764 O 1124.13 4.0966 1.55274 0
M  V30 11765 C 1125.63 3.1692 3.09962 0
M  V30 11766 H 1122.85 0.574381 0.346883 0
M  V30 11767 H 1125.39 1.99332 0.456851 0
M  V30 11768 H 1123.55 2.61075 2.86214 0
M  V30 11769 H 1123.96 4.73802 2.2497 0
M  V30 11770 H 1125.44 4.00755 3.79604 0
M  V30 11771 H 1125.91 2.31245 3.73393 0
M  V30 11772 H 1126.52 3.4408 2.49979 0
M  V30 11773 N 1124.83 -0.648732 1.43629 0
M  V30 11774 C 1126.06 -1.43412 1.48716 0
M  V30 11775 C 1126.47 -1.88908 0.105051 0
M  V30 11776 O 1125.82 -1.60373 -0.895896 0
M  V30 11777 C 1125.88 -2.69906 2.37468 0
M  V30 11778 C 1125.54 -2.46321 3.84935 0
M  V30 11779 C 1126.54 -2.09259 4.75927 0
M  V30 11780 C 1124.22 -2.60506 4.29467 0
M  V30 11781 C 1126.22 -1.86686 6.09448 0
M  V30 11782 C 1123.9 -2.37548 5.6304 0
M  V30 11783 C 1124.9 -2.00694 6.52848 0
M  V30 11784 O 1124.59 -1.77979 7.83951 0
M  V30 11785 H 1124.32 -0.446883 0.507219 0
M  V30 11786 H 1126.88 -0.802218 1.89086 0
M  V30 11787 H 1125.11 -3.35672 1.91993 0
M  V30 11788 H 1126.8 -3.31867 2.33707 0
M  V30 11789 H 1127.56 -1.97872 4.428 0
M  V30 11790 H 1123.44 -2.88165 3.59836 0
M  V30 11791 H 1126.98 -1.57844 6.79508 0
M  V30 11792 H 1122.88 -2.48539 5.95734 0
M  V30 11793 H 1123.65 -1.92368 7.95573 0
M  V30 11794 N 1126.31 -1.30234 -0.887518 0
M  V30 11795 C 1127.26 -1.164 -1.99298 0
M  V30 11796 C 1128.23 -0.0541536 -1.66012 0
M  V30 11797 O 1129.41 -0.223881 -1.89482 0
M  V30 11798 C 1126.55 -0.859169 -3.34234 0
M  V30 11799 C 1125.67 -2.05065 -3.80227 0
M  V30 11800 C 1124.8 -1.68413 -5.03796 0
M  V30 11801 C 1123.84 -2.8407 -5.4219 0
M  V30 11802 N 1122.98 -2.47732 -6.56942 0
M  V30 11803 H 1127.82 -2.10973 -2.10463 0
M  V30 11804 H 1125.36 -1.04969 -1.03053 0
M  V30 11805 H 1127.31 -0.663064 -4.11897 0
M  V30 11806 H 1125.94 0.0496808 -3.22762 0
M  V30 11807 H 1125 -2.35808 -2.98494 0
M  V30 11808 H 1126.31 -2.91688 -4.04623 0
M  V30 11809 H 1125.46 -1.45162 -5.89078 0
M  V30 11810 H 1124.2 -0.789553 -4.81266 0
M  V30 11811 H 1123.21 -3.0799 -4.55437 0
M  V30 11812 H 1124.43 -3.74211 -5.66695 0
M  V30 11813 H 1122.38 -1.60777 -6.35993 0
M  V30 11814 H 1122.29 -3.27887 -6.81195 0
M  V30 11815 H 1123.56 -2.27831 -7.45462 0
M  V30 11816 N 1127.79 1.09952 -1.12909 0
M  V30 11817 C 1129.04 1.82016 -0.887482 0
M  V30 11818 C 1129.37 1.85445 0.586546 0
M  V30 11819 O 1128.62 1.31446 1.44984 0
M  V30 11820 C 1128.92 3.28252 -1.41369 0
M  V30 11821 C 1128.59 3.44965 -2.90362 0
M  V30 11822 C 1127.25 3.49233 -3.31043 0
M  V30 11823 C 1129.6 3.49947 -3.86247 0
M  V30 11824 C 1126.93 3.56057 -4.66305 0
M  V30 11825 C 1129.28 3.58305 -5.21345 0
M  V30 11826 C 1127.94 3.6084 -5.61561 0
M  V30 11827 H 1127.21 0.666046 -0.324753 0
M  V30 11828 H 1129.86 1.29568 -1.41012 0
M  V30 11829 H 1128.17 3.83301 -0.81163 0
M  V30 11830 H 1129.86 3.82533 -1.20289 0
M  V30 11831 H 1126.45 3.42323 -2.57901 0
M  V30 11832 H 1130.64 3.45895 -3.55908 0
M  V30 11833 H 1125.89 3.56305 -4.96847 0
M  V30 11834 H 1130.07 3.61104 -5.95463 0
M  V30 11835 H 1127.69 3.6588 -6.6636 0
M  V30 11836 N 1129.27 0.921757 1.27833 0
M  V30 11837 C 1130.52 0.559078 1.94629 0
M  V30 11838 C 1130.84 -0.898641 1.72495 0
M  V30 11839 O 1130.1 -1.65546 1.0437 0
M  V30 11840 C 1130.4 0.824259 3.47765 0
M  V30 11841 C 1130.06 2.26278 3.90011 0
M  V30 11842 C 1128.73 2.65607 4.01256 0
M  V30 11843 C 1131.08 3.19853 4.11513 0
M  V30 11844 C 1128.41 3.97646 4.31387 0
M  V30 11845 C 1130.76 4.51467 4.43126 0
M  V30 11846 C 1129.42 4.90637 4.52583 0
M  V30 11847 H 1128.69 0.204581 0.712199 0
M  V30 11848 H 1131.34 1.1646 1.52018 0
M  V30 11849 H 1129.64 0.136011 3.91564 0
M  V30 11850 H 1131.34 0.522701 3.97579 0
M  V30 11851 H 1127.93 1.94765 3.81791 0
M  V30 11852 H 1132.11 2.90674 4.02271 0
M  V30 11853 H 1127.37 4.27685 4.36916 0
M  V30 11854 H 1131.54 5.23982 4.58711 0
M  V30 11855 H 1129.17 5.92982 4.75685 0
M  V30 11856 N 1130.75 -1.41857 0.686609 0
M  V30 11857 C 1131.66 -2.34595 0.0159005 0
M  V30 11858 C 1132.67 -1.55741 -0.775933 0
M  V30 11859 O 1133.85 -1.8826 -0.71555 0
M  V30 11860 C 1130.91 -3.34395 -0.915473 0
M  V30 11861 C 1129.97 -4.29141 -0.116851 0
M  V30 11862 C 1129.21 -5.24174 -1.00386 0
M  V30 11863 O 1129.43 -5.24431 -2.2434 0
M  V30 11864 O 1128.36 -6.00152 -0.458337 0
M  V30 11865 H 1132.19 -2.9351 0.780101 0
M  V30 11866 H 1129.78 -1.42559 0.446896 0
M  V30 11867 H 1131.66 -3.95675 -1.44981 0
M  V30 11868 H 1130.33 -2.77936 -1.65932 0
M  V30 11869 H 1129.24 -3.71238 0.461871 0
M  V30 11870 H 1130.57 -4.88673 0.588138 0
M  V30 11871 N 1132.22 -0.430739 -1.51599 0
M  V30 11872 C 1133.16 0.419726 -2.25324 0
M  V30 11873 C 1134.17 0.991925 -1.29092 0
M  V30 11874 O 1135.36 0.887188 -1.54891 0
M  V30 11875 C 1132.46 1.59844 -2.98836 0
M  V30 11876 C 1131.63 1.14629 -4.22112 0
M  V30 11877 C 1130.69 2.19437 -4.78261 0
M  V30 11878 O 1129.72 1.79141 -5.40275 0
M  V30 11879 N 1130.92 3.51849 -4.61717 0
M  V30 11880 H 1133.68 -0.212112 -2.98948 0
M  V30 11881 H 1131.24 -0.259269 -1.59811 0
M  V30 11882 H 1133.24 2.29567 -3.33288 0
M  V30 11883 H 1131.81 2.13575 -2.28264 0
M  V30 11884 H 1131.03 0.276367 -3.9323 0
M  V30 11885 H 1132.31 0.821488 -5.02124 0
M  V30 11886 H 1131.71 3.87324 -4.12306 0
M  V30 11887 H 1130.27 4.17486 -5.00548 0
M  V30 11888 N 1133.7 1.56767 -0.161869 0
M  V30 11889 C 1134.64 2.13321 0.810527 0
M  V30 11890 C 1135.61 1.06073 1.23237 0
M  V30 11891 O 1136.8 1.33993 1.32583 0
M  V30 11892 C 1133.92 2.66506 2.09027 0
M  V30 11893 C 1132.97 3.86038 1.8132 0
M  V30 11894 S 1133.8 5.26253 0.990873 0
M  V30 11895 C 1134.96 5.82837 2.28149 0
M  V30 11896 H 1135.19 2.95467 0.32965 0
M  V30 11897 H 1132.73 1.5431 0.052655 0
M  V30 11898 H 1134.68 2.97797 2.82537 0
M  V30 11899 H 1133.34 1.84463 2.54229 0
M  V30 11900 H 1132.54 4.21547 2.7625 0
M  V30 11901 H 1132.14 3.55585 1.1591 0
M  V30 11902 H 1134.43 5.95175 3.23686 0
M  V30 11903 H 1135.37 6.80109 1.97123 0
M  V30 11904 H 1135.78 5.11186 2.39477 0
M  V30 11905 N 1135.18 -0.111886 1.57202 0
M  V30 11906 C 1136.11 -1.16274 1.97517 0
M  V30 11907 C 1137.13 -1.37259 0.875425 0
M  V30 11908 O 1138.31 -1.36208 1.15367 0
M  V30 11909 C 1135.41 -2.52145 2.26442 0
M  V30 11910 C 1134.59 -2.51666 3.57747 0
M  V30 11911 C 1133.65 -3.69337 3.74802 0
M  V30 11912 O 1132.67 -3.52596 4.46839 0
M  V30 11913 N 1133.87 -4.88177 3.14108 0
M  V30 11914 H 1136.64 -0.819747 2.88271 0
M  V30 11915 H 1134.2 -0.301076 1.59076 0
M  V30 11916 H 1136.19 -3.29437 2.3506 0
M  V30 11917 H 1134.76 -2.78599 1.41779 0
M  V30 11918 H 1133.98 -1.60038 3.60252 0
M  V30 11919 H 1135.27 -2.48408 4.44039 0
M  V30 11920 H 1134.67 -5.04682 2.55564 0
M  V30 11921 H 1133.23 -5.6312 3.28237 0
M  V30 11922 N 1136.66 -1.52894 -0.382264 0
M  V30 11923 C 1137.61 -1.78799 -1.48774 0
M  V30 11924 C 1138.6 -0.65624 -1.56173 0
M  V30 11925 O 1139.81 -0.838856 -1.59258 0
M  V30 11926 H 1136.18 -0.565855 -0.49529 0
M  V30 11927 H 1138.15 -2.7136 -1.24122 0
M  V30 11928 C 1136.9 -1.97987 -2.85826 0
M  V30 11929 H 1136.22 -2.84505 -2.80886 0
M  V30 11930 H 1137.66 -2.20099 -3.62398 0
M  V30 11931 C 1136.12 -0.75427 -3.28348 0
M  V30 11932 O 1136.65 0.0650749 -4.01647 0
M  V30 11933 N 1134.86 -0.582457 -2.84703 0
M  V30 11934 H 1134.41 -1.25034 -2.2522 0
M  V30 11935 H 1134.36 0.236208 -3.13511 0
M  V30 11936 O 1138.18 0.528217 -1.52618 0
M  V30 11937 H 1138.87 1.18332 -1.53353 0
M  V30 END ATOM
M  V30 BEGIN BOND
M  V30 END BOND
M  V30 END CTAB
M  END
$$$$
