drugbank_target|P05164 Myeloperoxidase (DB00244; DB00535; DB00583; DB01065; DB04821)
 OpenBabel12092119473D

  0  0  0     0  0            999 V3000
M  V30 BEGIN CTAB
M  V30 COUNTS 11799 11934 0 0 0
M  V30 BEGIN ATOM
M  V30 1 H -0.908 1.98254 -0.117106 0
M  V30 2 N 0 1.576 0 0
M  V30 3 C 0.933 2.03868 1.02534 0
M  V30 4 C 1.911 0.928543 1.3348 0
M  V30 5 O 3.095 1.19667 1.45644 0
M  V30 6 C 0.222 2.43627 2.35294 0
M  V30 7 C -0.732 3.65373 2.2001 0
M  V30 8 S 0.101 5.13292 1.52614 0
M  V30 9 C 1.257 5.56322 2.86805 0
M  V30 10 H 1.49 2.90518 0.631377 0
M  V30 11 H -0.977 1.52953 0.210867 0
M  V30 12 H 0.981 2.67203 3.11629 0
M  V30 13 H -0.358 1.57376 2.7183 0
M  V30 14 H -1.165 3.90944 3.18086 0
M  V30 15 H -1.563 3.418 1.51819 0
M  V30 16 H 0.729 5.58782 3.83104 0
M  V30 17 H 1.672 6.56266 2.65933 0
M  V30 18 H 2.08 4.83886 2.90714 0
M  V30 19 N 1.4781 -0.272755 1.55222 0
M  V30 20 C 2.7261 -1.00234 1.75492 0
M  V30 21 C 3.0471 -1.8681 0.5592 0
M  V30 22 O 2.3171 -1.91215 -0.425882 0
M  V30 23 H 0.8971 -0.373076 0.647166 0
M  V30 24 H 3.5591 -0.296926 1.92625 0
M  V30 25 H 2.6551 -1.63913 2.65592 0
M  V30 26 N 2.9562 -1.48159 -0.537278 0
M  V30 27 C 4.2022 -1.56035 -1.29541 0
M  V30 28 C 4.5352 -0.230377 -1.92829 0
M  V30 29 O 3.8102 0.762952 -1.78911 0
M  V30 30 C 4.0932 -2.69323 -2.39034 0
M  V30 31 C 3.9462 -4.12002 -1.80485 0
M  V30 32 C 5.2652 -2.78408 -3.40847 0
M  V30 33 H 2.3842 -0.567992 -0.469632 0
M  V30 34 H 5.0262 -1.80302 -0.599277 0
M  V30 35 H 3.1762 -2.48763 -2.98412 0
M  V30 36 H 4.8482 -4.43981 -1.25215 0
M  V30 37 H 3.0912 -4.19344 -1.11055 0
M  V30 38 H 3.7622 -4.87077 -2.59731 0
M  V30 39 H 6.2382 -2.97012 -2.91416 0
M  V30 40 H 5.1142 -3.59416 -4.14863 0
M  V30 41 H 5.3752 -1.86269 -4.00944 0
M  V30 42 N 4.4343 0.785586 -1.36625 0
M  V30 43 C 5.8453 1.36101 -1.27803 0
M  V30 44 C 6.1963 1.96035 0.0804875 0
M  V30 45 O 5.3213 1.92834 0.982042 0
M  V30 46 C 5.9163 2.47442 -2.31426 0
M  V30 47 C 4.4753 3.00789 -2.26281 0
M  V30 48 C 3.6223 1.73896 -2.15999 0
M  V30 49 H 6.5733 0.586928 -1.47448 0
M  V30 50 H 6.5943 3.2656 -1.95291 0
M  V30 51 H 6.1063 2.03791 -3.30289 0
M  V30 52 H 4.2073 3.48851 -1.30896 0
M  V30 53 H 4.3203 3.57343 -3.19128 0
M  V30 54 H 2.6843 1.9628 -1.62316 0
M  V30 55 H 3.4673 1.32368 -3.16755 0
M  V30 56 N 5.9124 1.20967 1.01018 0
M  V30 57 C 7.1594 1.02374 1.74716 0
M  V30 58 C 7.4874 -0.443375 1.89379 0
M  V30 59 O 6.7424 -1.34535 1.42123 0
M  V30 60 C 7.0414 1.65997 3.16512 0
M  V30 61 C 6.7074 3.15831 3.2181 0
M  V30 62 C 5.3694 3.56719 3.22963 0
M  V30 63 C 7.7214 4.11816 3.19464 0
M  V30 64 C 5.0494 4.92107 3.19449 0
M  V30 65 C 7.4014 5.47158 3.17491 0
M  V30 66 C 6.0654 5.87451 3.16951 0
M  V30 67 H 5.3354 0.374614 0.639332 0
M  V30 68 H 7.9824 1.50485 1.18434 0
M  V30 69 H 6.2874 1.10166 3.75993 0
M  V30 70 H 7.9844 1.49119 3.72242 0
M  V30 71 H 4.5744 2.83263 3.21652 0
M  V30 72 H 8.7584 3.81257 3.17737 0
M  V30 73 H 4.0144 5.22579 3.17366 0
M  V30 74 H 8.1884 6.21274 3.14629 0
M  V30 75 H 5.8154 6.92329 3.13983 0
M  V30 76 N 7.3905 -1.2043 1.01659 0
M  V30 77 C 8.6375 -1.89797 0.705917 0
M  V30 78 C 8.9655 -1.78848 -0.764439 0
M  V30 79 O 8.2205 -1.16694 -1.57102 0
M  V30 80 C 8.5195 -3.40464 1.08714 0
M  V30 81 C 8.1855 -3.71614 2.5537 0
M  V30 82 C 6.8475 -3.79826 2.95441 0
M  V30 83 C 9.1995 -3.85915 3.50313 0
M  V30 84 C 6.5275 -3.99797 4.29394 0
M  V30 85 C 8.8795 -4.07396 4.83954 0
M  V30 86 C 7.5435 -4.13837 5.23732 0
M  V30 87 H 6.8135 -0.694518 0.258313 0
M  V30 88 H 9.4605 -1.42691 1.27717 0
M  V30 89 H 7.7655 -3.89385 0.434309 0
M  V30 90 H 9.4625 -3.92433 0.824461 0
M  V30 91 H 6.0525 -3.65822 2.23321 0
M  V30 92 H 10.2365 -3.78926 3.20513 0
M  V30 93 H 5.4925 -4.03018 4.59768 0
M  V30 94 H 9.6665 -4.17404 5.57447 0
M  V30 95 H 7.2935 -4.29064 6.27541 0
M  V30 96 N 8.8686 -0.792821 -1.36206 0
M  V30 97 C 10.0936 -0.377701 -2.03932 0
M  V30 98 C 10.5186 0.998947 -1.59382 0
M  V30 99 O 9.8766 1.64421 -0.763903 0
M  V30 100 C 9.9246 -0.453635 -3.57735 0
M  V30 101 O 9.0286 0.538151 -4.08874 0
M  V30 102 H 8.3696 -0.159855 -0.644471 0
M  V30 103 H 10.8996 -1.07488 -1.7409 0
M  V30 104 H 10.9096 -0.318464 -4.06755 0
M  V30 105 H 9.5846 -1.45784 -3.89512 0
M  V30 106 H 8.1616 0.364359 -3.71116 0
M  V30 107 N 10.3467 1.47872 -0.545128 0
M  V30 108 C 11.5717 2.07391 -0.0190611 0
M  V30 109 C 11.9967 1.39688 1.25971 0
M  V30 110 O 11.3547 0.467816 1.7516 0
M  V30 111 C 11.4027 3.60188 0.172335 0
M  V30 112 O 10.5067 3.9339 1.23766 0
M  V30 113 H 9.8477 0.662411 -0.0459059 0
M  V30 114 H 12.3777 1.90066 -0.757365 0
M  V30 115 H 12.3877 4.06129 0.390305 0
M  V30 116 H 11.0627 4.08865 -0.761725 0
M  V30 117 H 9.6397 3.5921 1.00114 0
M  V30 118 N 11.8248 0.280983 1.55075 0
M  V30 119 C 12.7548 -0.597469 2.25727 0
M  V30 120 C 13.7358 -1.15417 1.24952 0
M  V30 121 O 14.9208 -1.18722 1.53684 0
M  V30 122 C 12.0508 -1.7789 2.98283 0
M  V30 123 C 11.0048 -1.35347 4.06036 0
M  V30 124 C 10.3308 -2.61846 4.66198 0
M  V30 125 C 11.6308 -0.499354 5.19907 0
M  V30 126 H 13.3248 -0.00824265 2.99399 0
M  V30 127 H 10.8708 -0.0025244 1.44 0
M  V30 128 H 12.8238 -2.39937 3.46422 0
M  V30 129 H 11.5478 -2.39405 2.22155 0
M  V30 130 H 10.2068 -0.756156 3.58717 0
M  V30 131 H 9.8548 -3.21632 3.86732 0
M  V30 132 H 9.5548 -2.3409 5.38958 0
M  V30 133 H 11.0788 -3.24732 5.1709 0
M  V30 134 H 12.4928 -1.02498 5.64063 0
M  V30 135 H 10.8898 -0.316424 5.99265 0
M  V30 136 H 11.9598 0.480459 4.82514 0
M  V30 137 N 13.3029 -1.57598 0.00835791 0
M  V30 138 C 14.7189 -1.55764 -0.347822 0
M  V30 139 C 14.9189 -1.01186 -1.74252 0
M  V30 140 O 13.9749 -0.649371 -2.44007 0
M  V30 141 C 15.2879 -2.99927 -0.215407 0
M  V30 142 C 16.8359 -3.11656 -0.289725 0
M  V30 143 C 17.3109 -4.57621 -0.18634 0
M  V30 144 N 18.8019 -4.62557 -0.243978 0
M  V30 145 C 19.5369 -5.73094 -0.18745 0
M  V30 146 N 19.0329 -6.92753 -0.0810331 0
M  V30 147 N 20.8259 -5.61588 -0.239925 0
M  V30 148 H 12.9769 -1.91411 0.92062 0
M  V30 149 H 15.2399 -0.879562 0.353659 0
M  V30 150 H 14.9459 -3.43729 0.744512 0
M  V30 151 H 14.8199 -3.63865 -0.994097 0
M  V30 152 H 17.2069 -2.67779 -1.24009 0
M  V30 153 H 17.2879 -2.5048 0.51898 0
M  V30 154 H 16.9319 -5.02174 0.760519 0
M  V30 155 H 16.8619 -5.16752 -1.01364 0
M  V30 156 H 19.3529 -3.76481 -0.327217 0
M  V30 157 H 19.6659 -7.72787 -0.0440241 0
M  V30 158 H 18.0109 -6.94984 -0.0465419 0
M  V30 159 H 21.2019 -4.66996 -0.321317 0
M  V30 160 H 21.3749 -6.47714 -0.192407 0
M  V30 161 N 14.781 0.264519 -1.55364 0
M  V30 162 C 16.021 1.00254 -1.78125 0
M  V30 163 C 16.385 1.83187 -0.575017 0
M  V30 164 O 17.586 2.60029 -0.681042 0
M  V30 165 C 15.857 1.85478 -3.05504 0
M  V30 166 S 17.416 2.6543 -3.49417 0
M  V30 167 H 14.234 0.337522 -0.625779 0
M  V30 168 H 16.836 0.272111 -1.93597 0
M  V30 169 H 15.54 1.23491 -3.9138 0
M  V30 170 H 15.071 2.62827 -2.92721 0
M  V30 171 H 17.086 3.87958 -3.09359 0
M  V30 172 N 16.2591 1.48442 0.529413 0
M  V30 173 C 17.1921 1.57577 1.65059 0
M  V30 174 C 18.1701 0.426198 1.56915 0
M  V30 175 O 19.3541 0.637877 1.77379 0
M  V30 176 C 16.4811 1.5043 3.03461 0
M  V30 177 C 15.5271 2.70235 3.29962 0
M  V30 178 S 16.3601 4.32198 3.16172 0
M  V30 179 C 17.5161 4.2765 4.57019 0
M  V30 180 H 17.7491 2.52427 1.5706 0
M  V30 181 H 15.2821 1.36982 0.712417 0
M  V30 182 H 17.2401 1.46992 3.8328 0
M  V30 183 H 15.9011 0.569167 3.089 0
M  V30 184 H 15.0941 2.61374 4.30929 0
M  V30 185 H 14.6961 2.70938 2.57815 0
M  V30 186 H 16.9881 3.97618 5.48549 0
M  V30 187 H 17.9311 5.28797 4.70934 0
M  V30 188 H 18.3391 3.5811 4.36368 0
M  V30 189 N 17.7372 -0.778329 1.37039 0
M  V30 190 C 18.9832 -1.53892 1.32079 0
M  V30 191 C 19.3162 -1.9396 -0.0965386 0
M  V30 192 O 18.5912 -1.63568 -1.05242 0
M  V30 193 C 18.8742 -2.80847 2.25382 0
M  V30 194 C 18.7272 -2.47076 3.75864 0
M  V30 195 C 20.0462 -3.82741 2.1725 0
M  V30 196 H 17.1652 -0.558303 0.48111 0
M  V30 197 H 19.8072 -0.893397 1.67685 0
M  V30 198 H 17.9572 -3.35931 1.95148 0
M  V30 199 H 19.6292 -1.97957 4.16666 0
M  V30 200 H 17.8722 -1.79863 3.94755 0
M  V30 201 H 18.5432 -3.37798 4.36574 0
M  V30 202 H 21.0192 -3.37133 2.43887 0
M  V30 203 H 19.8952 -4.69303 2.84686 0
M  V30 204 H 20.1562 -4.2652 1.16331 0
M  V30 205 N 19.2153 -1.21501 -1.00376 0
M  V30 206 C 20.4923 -0.941745 -1.71437 0
M  V30 207 C 20.8723 0.546114 -2.03914 0
M  V30 208 O 20.2203 1.51128 -1.71384 0
M  V30 209 C 20.4303 -1.82812 -2.97289 0
M  V30 210 C 21.7783 -2.07771 -3.70292 0
M  V30 211 O 22.8023 -1.80171 -3.07273 0
M  V30 212 O 21.6613 -2.54456 -4.83647 0
M  V30 213 H 18.7553 -0.353243 -0.747762 0
M  V30 214 H 21.3013 -1.32436 -1.06108 0
M  V30 215 H 20.0733 -2.83501 -2.69709 0
M  V30 216 H 19.6963 -1.4464 -3.70358 0
M  V30 217 N 20.6934 1.19889 -1.02296 0
M  V30 218 C 21.6234 2.25141 -0.619174 0
M  V30 219 C 22.6044 1.66051 0.368915 0
M  V30 220 O 23.7894 1.92546 0.252941 0
M  V30 221 C 20.9194 3.4728 0.0368783 0
M  V30 222 C 19.8734 4.19005 -0.872865 0
M  V30 223 C 19.1994 5.34637 -0.0822402 0
M  V30 224 C 20.4994 4.74452 -2.18387 0
M  V30 225 H 22.1934 2.59171 -1.49903 0
M  V30 226 H 19.7394 1.24579 -0.722222 0
M  V30 227 H 21.6924 4.20098 0.330958 0
M  V30 228 H 20.4164 3.12433 0.95149 0
M  V30 229 H 19.0754 3.48061 -1.15105 0
M  V30 230 H 18.7234 4.96034 0.83422 0
M  V30 231 H 18.4234 5.83557 -0.688149 0
M  V30 232 H 19.9474 6.10255 0.205238 0
M  V30 233 H 21.3614 5.39055 -1.95172 0
M  V30 234 H 19.7584 5.33834 -2.74119 0
M  V30 235 H 20.8284 3.92844 -2.84257 0
M  V30 236 N 22.1715 0.800033 1.35784 0
M  V30 237 C 23.4195 0.376597 1.9856 0
M  V30 238 C 23.7405 -1.05812 1.63795 0
M  V30 239 O 23.0105 -1.73103 0.917171 0
M  V30 240 H 21.5905 0.136261 0.734467 0
M  V30 241 H 24.2525 1.02442 1.65806 0
M  V30 242 H 23.3485 0.477002 3.08433 0
M  V30 243 N 23.6496 -1.47581 0.552962 0
M  V30 244 C 25.0606 -1.86324 0.118463 0
M  V30 245 C 25.4116 -1.46006 -1.3106 0
M  V30 246 O 24.5366 -0.861182 -1.98526 0
M  V30 247 C 25.1316 -3.3816 0.20821 0
M  V30 248 C 23.6906 -3.7601 -0.171226 0
M  V30 249 C 22.8376 -2.71634 0.557686 0
M  V30 250 H 25.7886 -1.39159 0.762928 0
M  V30 251 H 25.8096 -3.76141 -0.574278 0
M  V30 252 H 25.3216 -3.67473 1.24841 0
M  V30 253 H 23.4226 -3.52313 -1.21269 0
M  V30 254 H 23.5356 -4.78745 0.184379 0
M  V30 255 H 21.8996 -2.547 0.00125792 0
M  V30 256 H 22.6826 -3.0379 1.59896 0
M  V30 257 N 25.1277 -0.289203 -1.54924 0
M  V30 258 C 26.3677 0.324536 -2.01807 0
M  V30 259 C 26.7317 1.5199 -1.17316 0
M  V30 260 O 27.9327 2.20422 -1.53843 0
M  V30 261 C 26.2037 0.683578 -3.50802 0
M  V30 262 S 27.7627 1.28185 -4.19659 0
M  V30 263 H 24.5807 0.100236 -0.703899 0
M  V30 264 H 27.1827 -0.414325 -1.91059 0
M  V30 265 H 25.8867 -0.195073 -4.09936 0
M  V30 266 H 25.4177 1.45354 -3.65562 0
M  V30 267 H 27.4327 2.57006 -4.24456 0
M  V30 268 N 26.6058 1.57591 -0.0167156 0
M  V30 269 C 27.8518 1.92399 0.659861 0
M  V30 270 C 28.2068 0.892561 1.70444 0
M  V30 271 O 27.4998 -0.0930755 1.91374 0
M  V30 272 C 27.6938 3.3172 1.33029 0
M  V30 273 C 27.5228 4.48319 0.352174 0
M  V30 274 C 26.2928 5.05281 -0.0434883 0
M  V30 275 C 28.4908 5.12831 -0.388474 0
M  V30 276 N 26.4728 6.05399 -1.01807 0
M  V30 277 C 27.8438 6.07934 -1.2172 0
M  V30 278 C 29.8988 4.95858 -0.450513 0
M  V30 279 C 28.6018 6.87891 -2.10235 0
M  V30 280 C 30.6278 5.76413 -1.32295 0
M  V30 281 C 29.9898 6.71123 -2.13948 0
M  V30 282 H 26.0888 0.752106 0.21415 0
M  V30 283 H 28.6728 1.94532 -0.0809846 0
M  V30 284 H 26.8438 3.3043 2.04134 0
M  V30 285 H 28.5758 3.5391 1.9629 0
M  V30 286 H 25.3308 4.7246 0.328384 0
M  V30 287 H 25.7548 6.60145 -1.50123 0
M  V30 288 H 30.3968 4.22472 0.166512 0
M  V30 289 H 28.1148 7.60591 -2.72997 0
M  V30 290 H 31.7008 5.65317 -1.37508 0
M  V30 291 H 30.5808 7.3237 -2.80364 0
M  V30 292 N 28.0839 -0.256276 1.55502 0
M  V30 293 C 29.0469 -1.30047 1.88734 0
M  V30 294 C 30.0469 -1.4154 0.763086 0
M  V30 295 O 31.2369 -1.40403 1.03115 0
M  V30 296 C 28.3689 -2.67953 2.10747 0
M  V30 297 H 29.5619 -1.01802 2.82093 0
M  V30 298 H 27.1149 -0.495134 1.4825 0
M  V30 299 H 27.8499 -3.01351 1.19825 0
M  V30 300 H 27.6349 -2.60993 2.92617 0
M  V30 301 H 29.1249 -3.43368 2.37673 0
M  V30 302 N 29.562 -1.4872 -0.521534 0
M  V30 303 C 30.81 -1.56857 -1.27437 0
M  V30 304 C 31.131 -0.247982 -1.93417 0
M  V30 305 O 30.401 0.731151 -1.81744 0
M  V30 306 H 28.981 -0.577885 -0.473347 0
M  V30 307 H 31.643 -1.85233 -0.606205 0
M  V30 308 H 30.739 -2.35402 -2.0492 0
M  V30 309 N 31.0401 0.771051 -1.3745 0
M  V30 310 C 32.2881 1.52661 -1.32435 0
M  V30 311 C 32.6091 1.9479 0.0905024 0
M  V30 312 O 31.8791 1.66348 1.03466 0
M  V30 313 H 30.4591 0.566218 -0.487244 0
M  V30 314 H 33.1211 0.917636 -1.71946 0
M  V30 315 H 32.2171 2.42568 -1.96385 0
M  V30 316 N 32.5182 1.22032 0.997298 0
M  V30 317 C 33.4482 1.01065 2.10495 0
M  V30 318 C 34.4292 -0.0669542 1.69968 0
M  V30 319 O 35.6142 0.0943987 1.9397 0
M  V30 320 C 32.7442 0.582874 3.42374 0
M  V30 321 C 31.6982 1.60592 3.96729 0
M  V30 322 C 31.0242 1.03412 5.24605 0
M  V30 323 C 32.3242 2.99478 4.27914 0
M  V30 324 H 34.0182 1.93708 2.28292 0
M  V30 325 H 31.5642 0.932761 1.09707 0
M  V30 326 H 33.5172 0.423332 4.19268 0
M  V30 327 H 32.2412 -0.379213 3.24391 0
M  V30 328 H 30.9002 1.75316 3.21963 0
M  V30 329 H 30.5482 0.063518 5.0296 0
M  V30 330 H 30.2482 1.71754 5.61938 0
M  V30 331 H 31.7722 0.886066 6.04137 0
M  V30 332 H 33.1862 2.88153 4.95622 0
M  V30 333 H 31.5832 3.64903 4.76409 0
M  V30 334 H 32.6532 3.49742 3.3587 0
M  V30 335 N 33.9963 -1.19345 1.0293 0
M  V30 336 C 35.2243 -1.92997 0.745644 0
M  V30 337 C 35.6393 -1.75519 -0.695589 0
M  V30 338 O 34.9963 -1.07737 -1.47306 0
M  V30 339 C 35.0473 -3.44741 1.08792 0
M  V30 340 O 34.7683 -3.61658 2.47256 0
M  V30 341 C 36.2693 -4.35515 0.827129 0
M  V30 342 H 33.4893 -0.613042 0.272801 0
M  V30 343 H 36.0333 -1.51473 1.3739 0
M  V30 344 H 34.1883 -3.84097 0.504832 0
M  V30 345 H 34.6023 -4.55514 2.60015 0
M  V30 346 H 36.0763 -5.40589 1.11658 0
M  V30 347 H 36.5533 -4.38552 -0.238436 0
M  V30 348 H 37.1593 -4.01841 1.39297 0
M  V30 349 N 35.4744 -0.807222 -1.35358 0
M  V30 350 C 36.4374 -0.223665 -2.28106 0
M  V30 351 C 37.4374 0.589354 -1.4961 0
M  V30 352 O 38.6274 0.407745 -1.69361 0
M  V30 353 C 35.7594 0.688149 -3.33882 0
M  V30 354 H 36.9524 -1.04169 -2.81227 0
M  V30 355 H 34.5054 -0.577921 -1.45223 0
M  V30 356 H 35.2404 1.52984 -2.85948 0
M  V30 357 H 35.0254 0.10687 -3.91954 0
M  V30 358 H 36.5154 1.09075 -4.03104 0
M  V30 359 N 36.9525 1.47285 -0.560781 0
M  V30 360 C 37.8625 2.33846 0.187954 0
M  V30 361 C 38.8785 1.48412 0.908293 0
M  V30 362 O 40.0545 1.81332 0.876388 0
M  V30 363 C 37.1195 3.25178 1.2025 0
M  V30 364 C 36.1805 4.26504 0.489208 0
M  V30 365 C 35.4135 5.13472 1.45542 0
M  V30 366 O 35.6365 5.02959 2.6905 0
M  V30 367 O 34.5705 5.93902 0.977963 0
M  V30 368 H 38.3965 2.99177 -0.522177 0
M  V30 369 H 35.9815 1.45903 -0.321364 0
M  V30 370 H 37.8635 3.81584 1.78805 0
M  V30 371 H 36.5385 2.6247 1.89449 0
M  V30 372 H 35.4455 3.73847 -0.137627 0
M  V30 373 H 36.7785 4.91935 -0.161399 0
M  V30 374 N 38.4306 0.297415 1.54768 0
M  V30 375 C 39.3636 -0.622188 2.19554 0
M  V30 376 C 40.3416 -1.13558 1.16376 0
M  V30 377 O 41.5256 -1.20444 1.45002 0
M  V30 378 C 38.6526 -1.8509 2.83653 0
M  V30 379 C 37.6986 -1.47106 4.00328 0
M  V30 380 S 38.5316 -0.53006 5.3287 0
M  V30 381 C 39.6876 -1.76665 6.0045 0
M  V30 382 H 39.9206 -0.0717806 2.97213 0
M  V30 383 H 37.4536 0.0815678 1.54184 0
M  V30 384 H 39.4116 -2.55605 3.21211 0
M  V30 385 H 38.0726 -2.37247 2.05846 0
M  V30 386 H 37.2656 -2.38594 4.43947 0
M  V30 387 H 36.8676 -0.845885 3.64309 0
M  V30 388 H 39.1596 -2.7077 6.21039 0
M  V30 389 H 40.1026 -1.37308 6.9466 0
M  V30 390 H 40.5106 -1.94174 5.30054 0
M  V30 391 N 39.9087 -1.5758 0.0250728 0
M  V30 392 C 40.8557 -2.09973 -0.958129 0
M  V30 393 C 41.8257 -1.00085 -1.3256 0
M  V30 394 O 43.0107 -1.27481 -1.41962 0
M  V30 395 C 40.1507 -2.62812 -2.2366 0
M  V30 396 C 39.2637 -3.86693 -1.92594 0
M  V30 397 C 38.3987 -4.27941 -3.14707 0
M  V30 398 C 37.4377 -5.44591 -2.79442 0
M  V30 399 N 36.5747 -5.81014 -3.94167 0
M  V30 400 H 41.4147 -2.937 -0.504428 0
M  V30 401 H 38.9517 -1.45172 -0.237392 0
M  V30 402 H 40.9097 -2.91536 -2.98434 0
M  V30 403 H 39.5397 -1.81922 -2.66654 0
M  V30 404 H 38.5917 -3.64723 -1.0808 0
M  V30 405 H 39.9037 -4.71547 -1.62619 0
M  V30 406 H 39.0577 -4.58079 -3.97804 0
M  V30 407 H 37.7967 -3.41845 -3.4784 0
M  V30 408 H 36.8017 -5.1415 -1.94755 0
M  V30 409 H 38.0267 -6.32382 -2.47528 0
M  V30 410 H 35.9727 -4.97874 -4.2715 0
M  V30 411 H 35.8897 -6.60498 -3.67801 0
M  V30 412 H 37.1577 -6.15756 -4.7798 0
M  V30 413 N 41.3868 0.248026 -1.55636 0
M  V30 414 C 42.3168 1.31079 -1.93237 0
M  V30 415 C 43.2978 1.50264 -0.797174 0
M  V30 416 O 44.4828 1.62891 -1.05737 0
M  V30 417 C 41.6128 2.66575 -2.22609 0
M  V30 418 C 40.5668 2.62087 -3.3837 0
M  V30 419 C 39.8928 4.01369 -3.53281 0
M  V30 420 C 41.1928 2.19171 -4.7409 0
M  V30 421 H 42.8868 0.998556 -2.82257 0
M  V30 422 H 40.4328 0.47891 -1.35803 0
M  V30 423 H 42.3858 3.41057 -2.47503 0
M  V30 424 H 41.1098 2.99432 -1.30414 0
M  V30 425 H 39.7688 1.90063 -3.13483 0
M  V30 426 H 39.4168 4.31489 -2.58508 0
M  V30 427 H 39.1168 3.99254 -4.31127 0
M  V30 428 H 40.6408 4.77552 -3.80495 0
M  V30 429 H 42.0548 2.83384 -4.98363 0
M  V30 430 H 40.4518 2.2817 -5.5503 0
M  V30 431 H 41.5218 1.14336 -4.71227 0
M  V30 432 N 42.8649 1.48995 0.513639 0
M  V30 433 C 43.7949 1.67636 1.62544 0
M  V30 434 C 44.7759 0.525087 1.61793 0
M  V30 435 O 45.9609 0.759502 1.78732 0
M  V30 436 C 43.0909 1.73114 3.01079 0
M  V30 437 C 42.0449 2.87905 3.16693 0
M  V30 438 C 41.3709 2.78486 4.56453 0
M  V30 439 C 42.6709 4.29005 2.97913 0
M  V30 440 H 44.3649 2.60716 1.47198 0
M  V30 441 H 41.9109 1.25465 0.706714 0
M  V30 442 H 43.8639 1.84742 3.78746 0
M  V30 443 H 42.5879 0.766241 3.17484 0
M  V30 444 H 41.2469 2.75859 2.41448 0
M  V30 445 H 40.8949 1.7993 4.69717 0
M  V30 446 H 40.5949 3.55523 4.67843 0
M  V30 447 H 42.1189 2.92104 5.36197 0
M  V30 448 H 43.5329 4.41798 3.65359 0
M  V30 449 H 41.9299 5.07166 3.20785 0
M  V30 450 H 42.9999 4.44329 1.94165 0
M  V30 451 N 44.343 -0.763751 1.37857 0
M  V30 452 C 45.273 -1.89103 1.36975 0
M  V30 453 C 46.254 -1.68439 0.237152 0
M  V30 454 O 47.439 -1.8918 0.438713 0
M  V30 455 C 44.569 -3.26496 1.18395 0
M  V30 456 C 43.523 -3.61741 2.28751 0
M  V30 457 C 42.849 -4.97762 1.95286 0
M  V30 458 C 44.149 -3.67665 3.70972 0
M  V30 459 H 45.843 -1.90099 2.31307 0
M  V30 460 H 43.389 -0.91319 1.11341 0
M  V30 461 H 45.342 -4.05003 1.16406 0
M  V30 462 H 44.066 -3.25955 0.205215 0
M  V30 463 H 42.725 -2.85547 2.29909 0
M  V30 464 H 42.373 -4.93769 0.959221 0
M  V30 465 H 42.073 -5.22313 2.69189 0
M  V30 466 H 43.597 -5.7866 1.94898 0
M  V30 467 H 45.011 -4.36307 3.719 0
M  V30 468 H 43.408 -4.03718 4.43995 0
M  V30 469 H 44.478 -2.68134 4.0402 0
M  V30 470 N 45.8211 -1.22559 -0.990812 0
M  V30 471 C 46.7841 -0.998863 -2.0629 0
M  V30 472 C 47.7841 0.0354834 -1.60761 0
M  V30 473 O 48.9741 -0.203231 -1.7301 0
M  V30 474 C 46.1061 -0.509203 -3.37076 0
M  V30 475 H 47.2991 -1.95014 -2.27837 0
M  V30 476 H 44.8521 -1.04456 -1.16269 0
M  V30 477 H 45.5871 0.446335 -3.21214 0
M  V30 478 H 45.3721 -1.25547 -3.71457 0
M  V30 479 H 46.8621 -0.370888 -4.1595 0
M  V30 480 N 47.2992 1.18797 -1.03562 0
M  V30 481 C 48.2292 2.24472 -0.643019 0
M  V30 482 C 49.2102 1.66433 0.351283 0
M  V30 483 O 50.3952 1.92803 0.232505 0
M  V30 484 C 47.5252 3.473 4.24935e-05 0
M  V30 485 C 46.4792 4.18055 -0.917257 0
M  V30 486 C 45.8052 5.34519 -0.138941 0
M  V30 487 C 47.1052 4.72109 -2.23407 0
M  V30 488 H 48.7992 2.57566 -1.52643 0
M  V30 489 H 46.3452 1.23806 -0.735394 0
M  V30 490 H 48.2982 4.20426 0.286383 0
M  V30 491 H 47.0222 3.13424 0.918299 0
M  V30 492 H 45.6812 3.46821 -1.1879 0
M  V30 493 H 45.3292 4.96891 0.781562 0
M  V30 494 H 45.0292 5.82794 -0.750005 0
M  V30 495 H 46.5532 6.10438 0.1405 0
M  V30 496 H 47.9672 5.36955 -2.00879 0
M  V30 497 H 46.3642 5.30897 -2.79765 0
M  V30 498 H 47.4342 3.89807 -2.88407 0
M  V30 499 N 48.7773 0.814389 1.34928 0
M  V30 500 C 49.7403 0.235759 2.27984 0
M  V30 501 C 50.7403 -0.581412 1.49921 0
M  V30 502 O 51.9303 -0.398758 1.69575 0
M  V30 503 C 49.0623 -0.670433 3.34242 0
M  V30 504 H 50.2553 1.05659 2.80671 0
M  V30 505 H 47.8083 0.585614 1.44915 0
M  V30 506 H 48.5433 -1.51466 2.86755 0
M  V30 507 H 48.3283 -0.0860822 3.92005 0
M  V30 508 H 49.8183 -1.06935 4.03676 0
M  V30 509 N 50.2554 -1.46986 0.568584 0
M  V30 510 C 51.5034 -2.02041 0.0487022 0
M  V30 511 C 51.8244 -1.44408 -1.31039 0
M  V30 512 O 51.0944 -0.623477 -1.85714 0
M  V30 513 H 49.6744 -0.746849 0.015014 0
M  V30 514 H 52.3364 -1.80257 0.741168 0
M  V30 515 H 51.4324 -3.12085 -0.0308961 0
M  V30 516 N 51.7335 -0.305618 -1.54608 0
M  V30 517 C 52.6635 0.561482 -2.26649 0
M  V30 518 C 53.6445 1.13415 -1.26772 0
M  V30 519 O 54.8295 1.16262 -1.55553 0
M  V30 520 C 51.9595 1.73122 -3.01075 0
M  V30 521 C 50.9135 1.2887 -4.08138 0
M  V30 522 C 50.2395 2.54396 -4.70305 0
M  V30 523 C 51.5395 0.416578 -5.20636 0
M  V30 524 H 53.2335 -0.0393902 -2.99374 0
M  V30 525 H 50.7795 -0.020385 -1.43986 0
M  V30 526 H 52.7325 2.34396 -3.50195 0
M  V30 527 H 51.4565 2.3584 -2.25936 0
M  V30 528 H 50.1155 0.698991 -3.59875 0
M  V30 529 H 49.7635 3.15439 -3.918 0
M  V30 530 H 49.4635 2.25486 -5.42614 0
M  V30 531 H 50.9875 3.16464 -5.2219 0
M  V30 532 H 52.4015 0.935116 -5.65622 0
M  V30 533 H 50.7985 0.221046 -5.99693 0
M  V30 534 H 51.8685 -0.557162 -4.81688 0
M  V30 535 N 53.2116 1.57565 -0.0334293 0
M  V30 536 C 54.1416 2.13511 0.945265 0
M  V30 537 C 55.1226 1.05231 1.33643 0
M  V30 538 O 56.3076 1.33084 1.41429 0
M  V30 539 C 53.4376 2.6657 2.22616 0
M  V30 540 C 52.3916 3.79676 1.97561 0
M  V30 541 C 51.7176 4.1918 3.31952 0
M  V30 542 C 53.0176 5.0557 1.31135 0
M  V30 543 H 54.7116 2.95538 0.479325 0
M  V30 544 H 52.2576 1.42166 0.229115 0
M  V30 545 H 54.2106 3.04344 2.91466 0
M  V30 546 H 52.9346 1.8171 2.71384 0
M  V30 547 H 51.5936 3.42347 1.31127 0
M  V30 548 H 51.2416 3.31296 3.78487 0
M  V30 549 H 50.9416 4.95402 3.15992 0
M  V30 550 H 52.4656 4.59541 4.02063 0
M  V30 551 H 53.8796 5.40903 1.89992 0
M  V30 552 H 52.2766 5.86818 1.25559 0
M  V30 553 H 53.3466 4.84062 0.284894 0
M  V30 554 N 54.6897 -0.239769 1.55765 0
M  V30 555 C 55.6527 -1.28038 1.90103 0
M  V30 556 C 56.6527 -1.40723 0.778055 0
M  V30 557 O 57.8427 -1.39301 1.04599 0
M  V30 558 C 54.9747 -2.65702 2.13577 0
M  V30 559 H 56.1677 -0.988048 2.83157 0
M  V30 560 H 53.7207 -0.479382 1.48767 0
M  V30 561 H 54.4557 -3.00063 1.23015 0
M  V30 562 H 54.2407 -2.57875 2.95369 0
M  V30 563 H 55.7307 -3.40828 2.41301 0
M  V30 564 N 56.1678 -1.49265 -0.50573 0
M  V30 565 C 57.4168 -1.57761 -1.25675 0
M  V30 566 C 57.7298 -0.267371 -1.93764 0
M  V30 567 O 58.9358 -0.230827 -2.70517 0
M  V30 568 C 57.3918 -2.78332 -2.28165 0
M  V30 569 C 56.9998 -4.16096 -1.66037 0
M  V30 570 C 58.7438 -2.96155 -3.04125 0
M  V30 571 C 56.6508 -5.27895 -2.6661 0
M  V30 572 H 55.5808 -0.587391 -0.472745 0
M  V30 573 H 58.2318 -1.75644 -0.53118 0
M  V30 574 H 56.6138 -2.53934 -3.03865 0
M  V30 575 H 57.7878 -4.50612 -0.963622 0
M  V30 576 H 56.1028 -4.03591 -1.02484 0
M  V30 577 H 58.6998 -3.76849 -3.79327 0
M  V30 578 H 59.0428 -2.06534 -3.61455 0
M  V30 579 H 59.5758 -3.2057 -2.35541 0
M  V30 580 H 56.3148 -6.1956 -2.14068 0
M  V30 581 H 55.8348 -4.97839 -3.34539 0
M  V30 582 H 57.5138 -5.57031 -3.29129 0
M  V30 583 N 57.6459 0.756429 -1.3826 0
M  V30 584 C 58.5759 1.88374 -1.37976 0
M  V30 585 C 59.5569 1.68311 -0.246082 0
M  V30 586 O 60.7419 1.88944 -0.44874 0
M  V30 587 C 57.8719 3.25864 -1.20125 0
M  V30 588 C 56.8259 3.60523 -2.30666 0
M  V30 589 C 56.1519 4.9672 -1.97923 0
M  V30 590 C 57.4519 3.65692 -3.72916 0
M  V30 591 H 59.1459 1.88869 -2.32312 0
M  V30 592 H 56.6919 0.907272 -1.11824 0
M  V30 593 H 58.6449 4.0438 -1.18552 0
M  V30 594 H 57.3689 3.25841 -0.222498 0
M  V30 595 H 56.0279 2.84324 -2.3142 0
M  V30 596 H 55.6759 4.93253 -0.985393 0
M  V30 597 H 55.3759 5.20878 -2.71955 0
M  V30 598 H 56.8999 5.77618 -1.97964 0
M  V30 599 H 58.3139 4.34328 -3.74208 0
M  V30 600 H 56.7109 4.01358 -4.4613 0
M  V30 601 H 57.7809 2.65987 -4.05436 0
M  V30 602 N 59.124 1.23083 0.984299 0
M  V30 603 C 60.087 1.00979 2.05757 0
M  V30 604 C 61.087 -0.0269573 1.60777 0
M  V30 605 O 62.277 0.212403 1.729 0
M  V30 606 C 59.409 0.527072 3.36801 0
M  V30 607 H 60.602 1.9622 2.26799 0
M  V30 608 H 58.155 1.05072 1.15714 0
M  V30 609 H 58.89 -0.429294 3.21446 0
M  V30 610 H 58.675 1.27515 3.70786 0
M  V30 611 H 60.165 0.392942 4.15747 0
M  V30 612 N 60.6021 -1.18246 1.0419 0
M  V30 613 C 61.8301 -1.92195 0.766072 0
M  V30 614 C 62.2451 -1.76247 -0.676933 0
M  V30 615 O 61.6021 -1.09293 -1.46155 0
M  V30 616 C 61.6531 -3.43568 1.12442 0
M  V30 617 O 61.3741 -3.59015 2.51078 0
M  V30 618 C 62.8751 -4.34613 0.873275 0
M  V30 619 H 60.0951 -0.610114 0.279288 0
M  V30 620 H 62.6391 -1.50007 1.38989 0
M  V30 621 H 60.7941 -3.8354 0.545542 0
M  V30 622 H 61.2081 -4.5273 2.64831 0
M  V30 623 H 62.6821 -5.39374 1.17385 0
M  V30 624 H 63.1591 -4.38781 -0.191909 0
M  V30 625 H 63.7651 -4.00341 1.43551 0
M  V30 626 N 62.0802 -0.821533 -1.34494 0
M  V30 627 C 63.4912 -0.467956 -1.8074 0
M  V30 628 C 63.8422 1.01151 -1.68116 0
M  V30 629 O 62.9672 1.78707 -1.22036 0
M  V30 630 C 63.5622 -0.842627 -3.28154 0
M  V30 631 C 62.1212 -0.541439 -3.72485 0
M  V30 632 C 61.2682 -1.06028 -2.56229 0
M  V30 633 H 64.2192 -1.01183 -1.22261 0
M  V30 634 H 64.2402 -0.145876 -3.8022 0
M  V30 635 H 63.7522 -1.91945 -3.37311 0
M  V30 636 H 61.8532 0.526034 -3.68868 0
M  V30 637 H 61.9662 -1.08453 -4.66663 0
M  V30 638 H 60.3302 -0.481892 -2.501 0
M  V30 639 H 61.1132 -2.14352 -2.68157 0
M  V30 640 N 63.5583 1.46682 -0.576371 0
M  V30 641 C 64.4903 2.28341 0.198231 0
M  V30 642 C 65.5033 1.38141 0.861453 0
M  V30 643 O 66.6923 1.62797 0.732082 0
M  V30 644 C 63.7923 3.12986 1.29972 0
M  V30 645 C 62.9653 4.31271 0.729639 0
M  V30 646 C 62.0243 4.97363 1.71803 0
M  V30 647 O 61.0503 5.55156 1.25658 0
M  V30 648 N 62.2523 4.93796 3.05198 0
M  V30 649 H 65.0173 2.9546 -0.502324 0
M  V30 650 H 62.5783 1.56525 -0.413715 0
M  V30 651 H 64.5703 3.54066 1.96008 0
M  V30 652 H 63.1403 2.47984 1.90323 0
M  V30 653 H 62.3603 3.94052 -0.108012 0
M  V30 654 H 63.6483 5.07739 0.328438 0
M  V30 655 H 63.0463 4.48077 3.45317 0
M  V30 656 H 61.6033 5.38837 3.6674 0
M  V30 657 N 65.0364 0.313813 1.54444 0
M  V30 658 C 66.4474 -0.176243 1.85866 0
M  V30 659 C 66.7984 -1.52405 1.23561 0
M  V30 660 O 65.9234 -2.09605 0.538016 0
M  V30 661 C 66.5184 -0.32657 3.37222 0
M  V30 662 C 65.0774 -0.760846 3.6863 0
M  V30 663 C 64.2244 0.123247 2.77026 0
M  V30 664 H 67.1754 0.534418 1.49431 0
M  V30 665 H 67.1964 -1.15908 3.62416 0
M  V30 666 H 66.7084 0.654531 3.82541 0
M  V30 667 H 64.8094 -1.75204 3.28838 0
M  V30 668 H 64.9224 -0.571353 4.75681 0
M  V30 669 H 63.2864 -0.399597 2.51546 0
M  V30 670 H 64.0694 1.10094 3.25168 0
M  V30 671 N 66.5145 -1.57545 0.0417849 0
M  V30 672 C 67.7395 -1.97035 -0.647455 0
M  V30 673 C 68.1645 -0.918775 -1.64135 0
M  V30 674 O 67.5225 0.119006 -1.80909 0
M  V30 675 C 67.5705 -3.35609 -1.31905 0
M  V30 676 O 66.6745 -3.3287 -2.43457 0
M  V30 677 H 66.0155 -0.64211 -0.169086 0
M  V30 678 H 68.5455 -2.04318 0.107399 0
M  V30 679 H 68.5555 -3.72126 -1.67291 0
M  V30 680 H 67.2305 -4.11685 -0.590586 0
M  V30 681 H 65.8075 -3.08087 -2.10088 0
M  V30 682 N 67.9926 0.231505 -1.5589 0
M  V30 683 C 68.9026 1.308 -1.94752 0
M  V30 684 C 69.9186 1.51826 -0.849989 0
M  V30 685 O 71.0946 1.6515 -1.15271 0
M  V30 686 C 68.1596 2.63968 -2.24771 0
M  V30 687 C 67.2206 2.51331 -3.48039 0
M  V30 688 C 66.4536 3.78148 -3.76616 0
M  V30 689 O 66.6766 4.80722 -3.07022 0
M  V30 690 O 65.6106 3.75857 -4.70123 0
M  V30 691 H 69.4366 1.0083 -2.86474 0
M  V30 692 H 67.0216 0.433547 -1.42971 0
M  V30 693 H 68.9036 3.42633 -2.45318 0
M  V30 694 H 67.5786 2.9364 -1.36225 0
M  V30 695 H 66.4856 1.709 -3.32782 0
M  V30 696 H 67.8186 2.26601 -4.36936 0
M  V30 697 N 69.4707 1.49531 0.497807 0
M  V30 698 C 70.7187 1.58865 1.24926 0
M  V30 699 C 71.0397 0.278721 1.92998 0
M  V30 700 O 70.3097 -0.702144 1.82885 0
M  V30 701 H 68.8897 0.585343 0.464094 0
M  V30 702 H 71.5517 1.86174 0.57666 0
M  V30 703 H 70.6477 2.38633 2.01149 0
M  V30 704 N 70.9488 -0.749086 1.3866 0
M  V30 705 C 71.9118 -1.84457 1.36045 0
M  V30 706 C 72.9118 -1.58682 0.260122 0
M  V30 707 O 74.1018 -1.66343 0.517261 0
M  V30 708 C 71.2338 -3.22008 1.11911 0
M  V30 709 H 72.4268 -1.88182 2.33512 0
M  V30 710 H 69.9798 -0.951266 1.24019 0
M  V30 711 H 70.7148 -3.2395 0.150686 0
M  V30 712 H 70.4998 -3.42111 1.91579 0
M  V30 713 H 71.9898 -4.0208 1.12788 0
M  V30 714 N 72.4269 -1.23603 -0.977757 0
M  V30 715 C 73.3899 -1.02069 -2.05218 0
M  V30 716 C 74.3899 0.0184305 -1.60789 0
M  V30 717 O 75.5799 -0.221569 -1.72785 0
M  V30 718 C 72.7119 -0.544926 -3.36517 0
M  V30 719 H 73.9049 -1.9742 -2.25755 0
M  V30 720 H 71.4579 -1.05684 -1.15155 0
M  V30 721 H 72.1929 0.412241 -3.21669 0
M  V30 722 H 71.9779 -1.2948 -3.70105 0
M  V30 723 H 73.4679 -0.414985 -4.15533 0
M  V30 724 N 73.905 1.17692 -1.04816 0
M  V30 725 C 75.316 1.69501 -0.782698 0
M  V30 726 C 75.667 1.83456 0.695577 0
M  V30 727 O 74.792 1.51942 1.54086 0
M  V30 728 C 75.387 3.07874 -1.41419 0
M  V30 729 C 73.946 3.56864 -1.19686 0
M  V30 730 C 73.093 2.3322 -1.50012 0
M  V30 731 H 76.044 1.02262 -1.2136 0
M  V30 732 H 76.065 3.71528 -0.821428 0
M  V30 733 H 75.577 2.97685 -2.49009 0
M  V30 734 H 73.678 3.72337 -0.140043 0
M  V30 735 H 73.791 4.39851 -1.89916 0
M  V30 736 H 72.155 2.37501 -0.920071 0
M  V30 737 H 72.938 2.25644 -2.58727 0
M  V30 738 N 75.3831 0.828654 1.34056 0
M  V30 739 C 76.3461 0.259927 2.27721 0
M  V30 740 C 77.3461 -0.565478 1.50529 0
M  V30 741 O 78.5361 -0.38075 1.69988 0
M  V30 742 C 75.6681 -0.634944 3.34935 0
M  V30 743 H 76.8611 1.0863 2.79534 0
M  V30 744 H 74.4141 0.600951 1.44285 0
M  V30 745 H 75.1491 -1.48416 2.88346 0
M  V30 746 H 74.9341 -0.0444999 3.92075 0
M  V30 747 H 76.4241 -1.02648 4.04788 0
M  V30 748 N 76.8612 -1.46375 0.584142 0
M  V30 749 C 78.1072 -2.02678 0.0703716 0
M  V30 750 C 78.4402 -1.4545 -1.28678 0
M  V30 751 O 77.7152 -0.62014 -1.84349 0
M  V30 752 C 77.9982 -3.60099 0.00614674 0
M  V30 753 C 77.8512 -4.27709 1.3923 0
M  V30 754 C 79.1702 -4.34598 -0.693742 0
M  V30 755 H 76.2892 -0.736504 0.027047 0
M  V30 756 H 78.9312 -1.74501 0.751615 0
M  V30 757 H 77.0812 -3.84236 -0.574009 0
M  V30 758 H 78.7532 -4.14832 2.01773 0
M  V30 759 H 76.9962 -3.87016 1.95962 0
M  V30 760 H 77.6672 -5.36478 1.29982 0
M  V30 761 H 80.1432 -4.15615 -0.200869 0
M  V30 762 H 79.0192 -5.44318 -0.707714 0
M  V30 763 H 79.2802 -4.05759 -1.75533 0
M  V30 764 N 78.3393 -0.321999 -1.54275 0
M  V30 765 C 79.2693 0.537411 -2.27231 0
M  V30 766 C 80.2503 1.12064 -1.27968 0
M  V30 767 O 81.4353 1.14606 -1.56777 0
M  V30 768 C 78.5653 1.69919 -3.02894 0
M  V30 769 C 77.5193 1.24534 -4.09482 0
M  V30 770 C 76.8453 2.49394 -4.72977 0
M  V30 771 C 78.1453 0.361335 -5.21049 0
M  V30 772 H 79.8393 -0.0711406 -2.99315 0
M  V30 773 H 77.3853 -0.0356555 -1.43956 0
M  V30 774 H 79.3383 2.30668 -3.52662 0
M  V30 775 H 78.0623 2.33431 -2.28424 0
M  V30 776 H 76.7213 0.660782 -3.60596 0
M  V30 777 H 76.3693 3.11265 -3.95124 0
M  V30 778 H 76.0693 2.19718 -5.44975 0
M  V30 779 H 77.5933 3.10908 -5.25517 0
M  V30 780 H 79.0073 0.875072 -5.66582 0
M  V30 781 H 77.4043 0.157428 -5.99893 0
M  V30 782 H 78.4743 -0.60822 -4.8107 0
M  V30 783 N 79.8174 1.5752 -0.0501392 0
M  V30 784 C 81.0654 1.9227 0.622642 0
M  V30 785 C 81.3864 0.929083 1.71444 0
M  V30 786 O 80.6564 -0.0262186 1.95882 0
M  V30 787 H 79.2364 0.709739 0.232981 0
M  V30 788 H 81.8984 1.94628 -0.102898 0
M  V30 789 H 80.9944 2.93479 1.06191 0
M  V30 790 N 81.2955 -0.223234 1.56011 0
M  V30 791 C 82.2055 -1.29766 1.95443 0
M  V30 792 C 83.2215 -1.51373 0.858028 0
M  V30 793 O 84.3975 -1.64536 1.16146 0
M  V30 794 C 81.4625 -2.62772 2.26167 0
M  V30 795 C 80.5235 -2.49482 3.49367 0
M  V30 796 C 79.7565 -3.76145 3.78616 0
M  V30 797 O 79.9795 -4.79087 3.09568 0
M  V30 798 O 78.9135 -3.73358 4.72109 0
M  V30 799 H 82.7395 -0.99309 2.87004 0
M  V30 800 H 80.3245 -0.425958 1.43199 0
M  V30 801 H 82.2065 -3.41327 2.47131 0
M  V30 802 H 80.8815 -2.92913 1.37781 0
M  V30 803 H 79.7885 -1.69133 3.33684 0
M  V30 804 H 81.1215 -2.2428 4.38131 0
M  V30 805 N 82.7736 -1.49793 -0.48987 0
M  V30 806 C 84.0196 -1.60078 -1.24511 0
M  V30 807 C 84.3526 -0.291608 -1.91998 0
M  V30 808 O 83.6276 0.705647 -1.81248 0
M  V30 809 C 83.9106 -2.76791 -2.30345 0
M  V30 810 C 83.7636 -4.17535 -1.67286 0
M  V30 811 C 85.0826 -2.89111 -3.31817 0
M  V30 812 H 82.2016 -0.582645 -0.451324 0
M  V30 813 H 84.8436 -1.82117 -0.541612 0
M  V30 814 H 82.9936 -2.5813 -2.90346 0
M  V30 815 H 84.6656 -4.4774 -1.11026 0
M  V30 816 H 82.9086 -4.22665 -0.976577 0
M  V30 817 H 83.5796 -4.95094 -2.44103 0
M  V30 818 H 86.0556 -3.06133 -2.81819 0
M  V30 819 H 84.9316 -3.72433 -4.03219 0
M  V30 820 H 85.1926 -1.9893 -3.94815 0
M  V30 821 N 84.2517 0.741722 -1.39055 0
M  V30 822 C 85.5287 1.49252 -1.26425 0
M  V30 823 C 85.9087 2.10705 0.129144 0
M  V30 824 O 85.2567 1.98045 1.13976 0
M  V30 825 C 85.4667 2.54934 -2.38347 0
M  V30 826 C 86.8147 3.21506 -2.77343 0
M  V30 827 O 87.8387 2.65245 -2.37747 0
M  V30 828 O 86.6977 4.23294 -3.45665 0
M  V30 829 H 83.7917 0.662451 -0.495064 0
M  V30 830 H 86.3377 0.776121 -1.50912 0
M  V30 831 H 85.1097 2.07857 -3.31529 0
M  V30 832 H 84.7327 3.34141 -2.15489 0
M  V30 833 N 85.7298 1.2412 0.971189 0
M  V30 834 C 86.9578 1.10575 1.74874 0
M  V30 835 C 87.3728 -0.342017 1.85676 0
M  V30 836 O 86.7298 -1.23617 1.34258 0
M  V30 837 C 86.7808 1.73579 3.171 0
M  V30 838 O 86.5018 3.12695 3.06844 0
M  V30 839 C 88.0028 1.65598 4.11208 0
M  V30 840 H 85.2228 0.386504 0.548503 0
M  V30 841 H 87.7668 1.64156 1.21955 0
M  V30 842 H 85.9218 1.24009 3.67016 0
M  V30 843 H 86.3358 3.43412 3.96445 0
M  V30 844 H 87.8098 2.1437 5.08674 0
M  V30 845 H 88.2868 0.616532 4.34851 0
M  V30 846 H 88.8928 2.14578 3.67201 0
M  V30 847 N 87.2079 -1.17134 1.05439 0
M  V30 848 C 88.4329 -1.91913 0.786396 0
M  V30 849 C 88.8579 -1.7643 -0.652234 0
M  V30 850 O 88.2159 -1.08372 -1.45345 0
M  V30 851 C 88.2639 -3.40921 1.17497 0
M  V30 852 O 87.3679 -4.11244 0.308589 0
M  V30 853 H 86.7089 -0.598215 0.288158 0
M  V30 854 H 89.2389 -1.48457 1.4079 0
M  V30 855 H 89.2489 -3.91668 1.14281 0
M  V30 856 H 87.9239 -3.5151 2.22292 0
M  V30 857 H 86.5009 -3.70731 0.40157 0
M  V30 858 N 88.686 -0.835752 -1.33615 0
M  V30 859 C 89.616 -0.281739 -2.31794 0
M  V30 860 C 90.597 0.608833 -1.58831 0
M  V30 861 O 91.782 0.533035 -1.86741 0
M  V30 862 C 88.912 0.546612 -3.42971 0
M  V30 863 C 87.866 -0.247904 -4.27281 0
M  V30 864 C 87.192 0.704001 -5.30045 0
M  V30 865 C 88.492 -1.46324 -5.01385 0
M  V30 866 H 90.186 -1.10206 -2.78379 0
M  V30 867 H 87.732 -0.531388 -1.33837 0
M  V30 868 H 89.685 0.944467 -4.1068 0
M  V30 869 H 88.409 1.40011 -2.95067 0
M  V30 870 H 87.068 -0.627281 -3.61194 0
M  V30 871 H 86.716 1.55381 -4.78399 0
M  V30 872 H 86.416 0.176524 -5.87335 0
M  V30 873 H 87.94 1.09944 -6.0062 0
M  V30 874 H 89.354 -1.13871 -5.61877 0
M  V30 875 H 87.751 -1.92728 -5.6831 0
M  V30 876 H 88.821 -2.23467 -4.30338 0
M  V30 877 N 90.1641 1.46063 -0.591896 0
M  V30 878 C 91.4101 2.02638 -0.0811191 0
M  V30 879 C 91.7431 1.4613 1.27905 0
M  V30 880 O 91.0181 0.629908 1.84017 0
M  V30 881 C 91.3011 3.60091 -0.0252436 0
M  V30 882 C 91.1541 4.26965 -1.41496 0
M  V30 883 C 92.4731 4.3496 0.670685 0
M  V30 884 H 89.5921 0.73635 -0.0309524 0
M  V30 885 H 92.2341 1.741 -0.760859 0
M  V30 886 H 90.3841 3.84535 0.553624 0
M  V30 887 H 92.0561 4.13756 -2.0397 0
M  V30 888 H 90.2991 3.85971 -1.98011 0
M  V30 889 H 90.9701 5.35781 -1.32825 0
M  V30 890 H 93.4461 4.15716 0.178825 0
M  V30 891 H 92.3221 5.44686 0.678837 0
M  V30 892 H 92.5831 4.06685 1.73379 0
M  V30 893 N 91.6422 0.330177 1.54103 0
M  V30 894 C 92.5722 -0.525353 2.27513 0
M  V30 895 C 93.5532 -1.11383 1.2856 0
M  V30 896 O 94.7382 -1.13773 1.57383 0
M  V30 897 C 91.8682 -1.6831 3.03791 0
M  V30 898 C 90.8222 -1.2236 4.10137 0
M  V30 899 C 90.1482 -2.46882 4.74293 0
M  V30 900 C 91.4482 -0.333697 5.21233 0
M  V30 901 H 93.1422 0.087013 2.99274 0
M  V30 902 H 90.6882 0.0432893 1.43935 0
M  V30 903 H 92.6412 -2.28795 3.5388 0
M  V30 904 H 91.3652 -2.32216 2.29659 0
M  V30 905 H 90.0242 -0.64165 3.60941 0
M  V30 906 H 89.6722 -3.09165 3.96769 0
M  V30 907 H 89.3722 -2.16825 5.46133 0
M  V30 908 H 90.8962 -3.08117 5.27159 0
M  V30 909 H 92.3102 -0.845013 5.67038 0
M  V30 910 H 90.7072 -0.125612 5.99969 0
M  V30 911 H 91.7772 0.633724 4.80741 0
M  V30 912 N 93.1203 -1.57491 0.0584922 0
M  V30 913 C 94.3453 -1.97711 -0.62652 0
M  V30 914 C 94.7703 -0.936132 -1.63151 0
M  V30 915 O 94.1283 0.099811 -1.81025 0
M  V30 916 C 94.1763 -3.36989 -1.28338 0
M  V30 917 O 93.2803 -3.35433 -2.39913 0
M  V30 918 H 92.6213 -0.643868 -0.162266 0
M  V30 919 H 95.1513 -2.04193 0.129064 0
M  V30 920 H 95.1613 -3.73879 -1.63335 0
M  V30 921 H 93.8363 -4.12289 -0.546889 0
M  V30 922 H 92.4133 -3.10298 -2.06809 0
M  V30 923 N 94.5984 0.214957 -1.56127 0
M  V30 924 C 95.8234 0.95924 -1.83884 0
M  V30 925 C 96.2484 1.7689 -0.639644 0
M  V30 926 O 95.6064 1.76566 0.411601 0
M  V30 927 C 95.6544 1.84723 -3.09693 0
M  V30 928 O 94.7584 2.94346 -2.8885 0
M  V30 929 H 94.0994 0.27125 -0.606069 0
M  V30 930 H 96.6294 0.226276 -2.03345 0
M  V30 931 H 96.6394 2.25576 -3.39969 0
M  V30 932 H 95.3144 1.25218 -3.96602 0
M  V30 933 H 93.8914 2.57391 -2.69823 0
M  V30 934 N 96.0765 1.50051 0.48192 0
M  V30 935 C 97.0095 1.62749 1.59963 0
M  V30 936 C 97.9875 0.475903 1.5548 0
M  V30 937 O 99.1715 0.693986 1.7526 0
M  V30 938 C 96.2985 1.60008 2.98522 0
M  V30 939 C 95.3445 2.80596 3.21198 0
M  V30 940 S 96.1775 4.42038 3.02262 0
M  V30 941 C 97.3335 4.41973 4.43182 0
M  V30 942 H 97.5665 2.57296 1.4895 0
M  V30 943 H 95.0995 1.39179 0.668477 0
M  V30 944 H 97.0575 1.59112 3.78409 0
M  V30 945 H 95.7185 0.667153 3.06933 0
M  V30 946 H 94.9115 2.74952 4.22395 0
M  V30 947 H 94.5135 2.79003 2.49065 0
M  V30 948 H 96.8055 4.14868 5.35622 0
M  V30 949 H 97.7485 5.43512 4.53873 0
M  V30 950 H 98.1565 3.71812 4.24755 0
M  V30 951 N 97.5546 -0.734337 1.39446 0
M  V30 952 C 98.4646 -1.87879 1.40495 0
M  V30 953 C 99.4806 -1.714 0.299672 0
M  V30 954 O 100.657 -1.93991 0.541249 0
M  V30 955 C 97.7216 -3.23477 1.24754 0
M  V30 956 C 96.7826 -3.52344 2.45259 0
M  V30 957 C 96.0156 -4.81473 2.30259 0
M  V30 958 O 96.2386 -5.55237 1.30643 0
M  V30 959 O 95.1726 -5.10254 3.19256 0
M  V30 960 H 98.9986 -1.89949 2.36966 0
M  V30 961 H 96.5836 -0.882243 1.20569 0
M  V30 962 H 98.4656 -4.04509 1.18111 0
M  V30 963 H 97.1406 -3.22176 0.313781 0
M  V30 964 H 96.0476 -2.71396 2.57478 0
M  V30 965 H 97.3806 -3.58426 3.37331 0
M  V30 966 N 99.0327 -1.24633 -0.964593 0
M  V30 967 C 99.9427 -1.05859 -2.09359 0
M  V30 968 C 100.959 0.00148855 -1.74 0
M  V30 969 O 102.135 -0.197346 -2.00431 0
M  V30 970 C 99.1997 -0.668879 -3.40187 0
M  V30 971 C 98.2607 -1.80578 -3.89474 0
M  V30 972 C 97.4937 -1.43457 -5.14058 0
M  V30 973 O 97.7167 -0.325775 -5.69469 0
M  V30 974 O 96.6507 -2.2613 -5.57807 0
M  V30 975 H 100.477 -2.00516 -2.28094 0
M  V30 976 H 98.0617 -1.03481 -1.0776 0
M  V30 977 H 99.9437 -0.463211 -4.18846 0
M  V30 978 H 98.6187 0.248536 -3.22744 0
M  V30 979 H 97.5257 -2.06623 -3.11862 0
M  V30 980 H 98.8587 -2.70208 -4.11398 0
M  V30 981 N 100.511 1.16574 -1.06058 0
M  V30 982 C 101.474 2.19085 -0.673392 0
M  V30 983 C 102.474 1.5835 0.279648 0
M  V30 984 O 103.664 1.74088 0.0623488 0
M  V30 985 C 100.796 3.40899 0.00954234 0
M  V30 986 H 101.989 2.54853 -1.58081 0
M  V30 987 H 99.5418 1.30808 -0.855516 0
M  V30 988 H 100.277 3.10684 0.929826 0
M  V30 989 H 100.062 3.86233 -0.67573 0
M  V30 990 H 101.552 4.1675 0.266245 0
M  V30 991 N 101.989 0.842826 1.3317 0
M  V30 992 C 102.936 0.276885 2.29133 0
M  V30 993 C 103.906 -0.609527 1.54512 0
M  V30 994 O 105.091 -0.546955 1.82792 0
M  V30 995 C 102.231 -0.538707 3.40869 0
M  V30 996 C 101.344 0.372169 4.30394 0
M  V30 997 C 100.479 -0.454908 5.29249 0
M  V30 998 C 99.5179 0.45411 6.10413 0
M  V30 999 N 98.6549 -0.335075 7.013 0
M  V30 1000 H 103.495 1.10052 2.76934 0
M  V30 1001 H 101.032 0.554161 1.36262 0
M  V30 1002 H 102.99 -1.02709 4.0436 0
M  V30 1003 H 101.62 -1.32727 2.9425 0
M  V30 1004 H 100.672 0.97888 3.6759 0
M  V30 1005 H 101.984 1.0703 4.87182 0
M  V30 1006 H 101.138 -1.00695 5.98285 0
M  V30 1007 H 99.8769 -1.18646 4.73048 0
M  V30 1008 H 98.8819 1.01813 5.40291 0
M  V30 1009 H 100.107 1.18409 6.68697 0
M  V30 1010 H 98.0529 -1.04994 6.47543 0
M  V30 1011 H 97.9699 0.304262 7.55387 0
M  V30 1012 H 99.2379 -0.869224 7.74638 0
M  V30 1013 N 103.467 -1.45747 0.599634 0
M  V30 1014 C 104.399 -2.28628 -0.161879 0
M  V30 1015 C 105.412 -1.39494 -0.839367 0
M  V30 1016 O 106.601 -1.63941 -0.706089 0
M  V30 1017 C 103.701 -3.15014 -1.24976 0
M  V30 1018 C 102.874 -4.32378 -0.660935 0
M  V30 1019 C 101.933 -5.00033 -1.63869 0
M  V30 1020 O 100.959 -5.57085 -1.1681 0
M  V30 1021 N 102.161 -4.98589 -2.97303 0
M  V30 1022 H 104.926 -2.94624 0.549265 0
M  V30 1023 H 102.487 -1.55847 0.438565 0
M  V30 1024 H 104.479 -3.5714 -1.9035 0
M  V30 1025 H 103.049 -2.5098 -1.86354 0
M  V30 1026 H 102.269 -3.9383 0.170688 0
M  V30 1027 H 103.557 -5.08197 -0.247619 0
M  V30 1028 H 102.955 -4.53514 -3.38145 0
M  V30 1029 H 101.512 -5.44603 -3.58121 0
M  V30 1030 N 104.945 -0.338344 -1.53925 0
M  V30 1031 C 105.875 0.51328 -2.27789 0
M  V30 1032 C 106.856 1.107 -1.29149 0
M  V30 1033 O 108.041 1.12937 -1.57984 0
M  V30 1034 C 105.171 1.66697 -3.04679 0
M  V30 1035 C 104.125 1.20183 -4.1078 0
M  V30 1036 C 103.451 2.44363 -4.75595 0
M  V30 1037 C 104.751 0.30605 -5.21403 0
M  V30 1038 H 106.445 -0.102883 -2.99223 0
M  V30 1039 H 103.991 -0.0509219 -1.4391 0
M  V30 1040 H 105.944 2.26915 -3.55088 0
M  V30 1041 H 104.668 2.30995 -2.30887 0
M  V30 1042 H 103.327 0.622499 -3.61276 0
M  V30 1043 H 102.975 3.07057 -3.98403 0
M  V30 1044 H 102.675 2.13925 -5.47275 0
M  V30 1045 H 104.199 3.05317 -5.28786 0
M  V30 1046 H 105.613 0.814929 -5.67478 0
M  V30 1047 H 104.01 0.0937929 -6.00027 0
M  V30 1048 H 105.08 -0.65921 -4.80398 0
M  V30 1049 N 106.423 1.57458 -0.0668435 0
M  V30 1050 C 107.669 1.93587 0.6043 0
M  V30 1051 C 108.002 0.946722 1.69561 0
M  V30 1052 O 107.277 -0.0248516 1.94484 0
M  V30 1053 C 107.56 3.40014 1.18585 0
M  V30 1054 C 107.413 4.49685 0.101529 0
M  V30 1055 C 108.732 3.87154 2.09284 0
M  V30 1056 H 105.851 0.703958 0.218202 0
M  V30 1057 H 108.493 1.89542 -0.131804 0
M  V30 1058 H 106.643 3.43592 1.81319 0
M  V30 1059 H 108.315 4.5823 -0.531279 0
M  V30 1060 H 106.558 4.30059 -0.568487 0
M  V30 1061 H 107.229 5.49266 0.54874 0
M  V30 1062 H 109.705 3.85551 1.56491 0
M  V30 1063 H 108.581 4.90231 2.46911 0
M  V30 1064 H 108.842 3.2481 2.99918 0
M  V30 1065 N 107.901 -0.206675 1.56239 0
M  V30 1066 C 109.178 -0.954051 1.70755 0
M  V30 1067 C 109.558 -2.01841 0.618353 0
M  V30 1068 O 108.906 -2.25444 -0.372434 0
M  V30 1069 C 109.116 -1.551 3.12642 0
M  V30 1070 C 110.464 -2.03757 3.72516 0
M  V30 1071 O 111.488 -1.64965 3.15698 0
M  V30 1072 O 110.347 -2.75103 4.72208 0
M  V30 1073 H 107.441 -0.446636 0.696021 0
M  V30 1074 H 109.987 -0.197283 1.68549 0
M  V30 1075 H 108.759 -0.783212 3.83382 0
M  V30 1076 H 108.382 -2.37291 3.19028 0
M  V30 1077 N 109.379 -1.50304 -0.473955 0
M  V30 1078 C 110.326 -1.68959 -1.57231 0
M  V30 1079 C 111.296 -0.530899 -1.57387 0
M  V30 1080 O 112.481 -0.761133 -1.74961 0
M  V30 1081 C 109.621 -1.7871 -2.95223 0
M  V30 1082 C 108.734 -3.06061 -3.04878 0
M  V30 1083 C 107.869 -3.06626 -4.33767 0
M  V30 1084 C 106.908 -4.28443 -4.37154 0
M  V30 1085 N 106.045 -4.26763 -5.5751 0
M  V30 1086 H 110.885 -2.6273 -1.40631 0
M  V30 1087 H 108.422 -1.30241 -0.683789 0
M  V30 1088 H 110.38 -1.82344 -3.75242 0
M  V30 1089 H 109.01 -0.883806 -3.10465 0
M  V30 1090 H 108.062 -3.11911 -2.17751 0
M  V30 1091 H 109.374 -3.96039 -3.0324 0
M  V30 1092 H 108.528 -3.08973 -5.22131 0
M  V30 1093 H 107.267 -2.14473 -4.3801 0
M  V30 1094 H 106.272 -4.2631 -3.47188 0
M  V30 1095 H 107.497 -5.2182 -4.34605 0
M  V30 1096 H 105.443 -3.37462 -5.62544 0
M  V30 1097 H 105.36 -5.10507 -5.57601 0
M  V30 1098 H 106.628 -4.33253 -6.48006 0
M  V30 1099 N 110.857 0.726932 -1.39834 0
M  V30 1100 C 111.82 1.82269 -1.38962 0
M  V30 1101 C 112.82 1.58248 -0.285334 0
M  V30 1102 O 114.01 1.65499 -0.54366 0
M  V30 1103 C 111.142 3.20186 -1.17019 0
M  V30 1104 H 112.335 1.84443 -2.36476 0
M  V30 1105 H 109.888 0.931416 -1.25516 0
M  V30 1106 H 110.623 3.23669 -0.202204 0
M  V30 1107 H 110.408 3.3902 -1.96998 0
M  V30 1108 H 111.898 4.00235 -1.1917 0
M  V30 1109 N 112.336 1.25143 0.95797 0
M  V30 1110 C 113.566 1.12261 1.73439 0
M  V30 1111 C 113.974 -0.326715 1.86358 0
M  V30 1112 O 113.317 -1.2367 1.35836 0
M  V30 1113 C 113.379 1.69966 3.16784 0
M  V30 1114 C 113.043 3.18936 3.27305 0
M  V30 1115 C 114.04 4.15968 3.11877 0
M  V30 1116 C 111.725 3.59083 3.51234 0
M  V30 1117 C 113.719 5.51126 3.20217 0
M  V30 1118 C 111.406 4.9438 3.5921 0
M  V30 1119 C 112.404 5.90211 3.43716 0
M  V30 1120 O 112.092 7.23046 3.51368 0
M  V30 1121 H 111.824 0.392476 0.550399 0
M  V30 1122 H 114.378 1.65927 1.21068 0
M  V30 1123 H 112.608 1.10744 3.70503 0
M  V30 1124 H 114.297 1.52232 3.76272 0
M  V30 1125 H 115.063 3.86292 2.93264 0
M  V30 1126 H 110.942 2.84989 3.62356 0
M  V30 1127 H 114.486 6.25905 3.0804 0
M  V30 1128 H 110.383 5.23723 3.77339 0
M  V30 1129 H 111.151 7.31097 3.6802 0
M  V30 1130 N 113.814 -1.1601 1.06675 0
M  V30 1131 C 114.761 -2.20525 0.680967 0
M  V30 1132 C 115.731 -1.62904 -0.324283 0
M  V30 1133 O 116.916 -1.89615 -0.212294 0
M  V30 1134 C 114.056 -3.45013 0.0776551 0
M  V30 1135 C 113.169 -4.16863 1.13355 0
M  V30 1136 C 112.304 -5.2888 0.49597 0
M  V30 1137 C 111.343 -5.92537 1.53513 0
M  V30 1138 N 110.48 -6.96038 0.920631 0
M  V30 1139 H 115.32 -2.52876 1.57663 0
M  V30 1140 H 112.857 -1.24199 0.788223 0
M  V30 1141 H 114.815 -4.16193 -0.289704 0
M  V30 1142 H 113.445 -3.132 -0.781393 0
M  V30 1143 H 112.497 -3.44248 1.61857 0
M  V30 1144 H 113.809 -4.60294 1.92174 0
M  V30 1145 H 112.963 -6.06653 0.0758604 0
M  V30 1146 H 111.702 -4.86622 -0.324062 0
M  V30 1147 H 110.707 -5.13482 1.9651 0
M  V30 1148 H 111.932 -6.36873 2.35733 0
M  V30 1149 H 109.878 -6.55888 0.12138 0
M  V30 1150 H 109.795 -7.3786 1.64616 0
M  V30 1151 H 111.063 -7.77725 0.525795 0
M  V30 1152 N 115.292 -0.849877 -1.32721 0
M  V30 1153 C 116.202 -0.293791 -2.32753 0
M  V30 1154 C 117.218 0.585906 -1.63839 0
M  V30 1155 O 118.394 0.487413 -1.95413 0
M  V30 1156 C 115.459 0.512752 -3.42887 0
M  V30 1157 C 114.52 -0.39252 -4.27502 0
M  V30 1158 C 113.753 0.375625 -5.32377 0
M  V30 1159 O 113.976 1.60613 -5.4732 0
M  V30 1160 O 112.91 -0.256094 -6.01355 0
M  V30 1161 H 116.736 -1.12242 -2.82197 0
M  V30 1162 H 114.321 -0.612685 -1.36259 0
M  V30 1163 H 116.203 0.970704 -4.10067 0
M  V30 1164 H 114.878 1.31826 -2.95641 0
M  V30 1165 H 113.785 -0.898547 -3.63149 0
M  V30 1166 H 115.118 -1.16309 -4.7826 0
M  V30 1167 N 116.77 1.45427 -0.607355 0
M  V30 1168 C 118.186 1.57283 -0.270985 0
M  V30 1169 C 118.386 1.59875 1.22647 0
M  V30 1170 O 117.442 1.52893 2.00948 0
M  V30 1171 C 118.755 2.85566 -0.941952 0
M  V30 1172 C 120.303 2.9924 -0.917849 0
M  V30 1173 C 120.778 4.30293 -1.56882 0
M  V30 1174 N 122.269 4.37051 -1.5343 0
M  V30 1175 C 123.004 5.37123 -2.00715 0
M  V30 1176 N 122.5 6.43734 -2.56084 0
M  V30 1177 N 124.293 5.28479 -1.91484 0
M  V30 1178 H 116.444 1.41988 -1.57966 0
M  V30 1179 H 118.707 0.67885 -0.661715 0
M  V30 1180 H 118.413 2.8955 -1.99633 0
M  V30 1181 H 118.287 3.74322 -0.465096 0
M  V30 1182 H 120.674 2.94822 0.127984 0
M  V30 1183 H 120.755 2.11895 -1.43297 0
M  V30 1184 H 120.399 4.35469 -2.61398 0
M  V30 1185 H 120.329 5.16454 -1.02873 0
M  V30 1186 H 122.82 3.60615 -1.12982 0
M  V30 1187 H 123.133 7.16341 -2.89958 0
M  V30 1188 H 121.478 6.44485 -2.60122 0
M  V30 1189 H 124.669 4.44098 -1.47967 0
M  V30 1190 H 124.842 6.0632 -2.28648 0
M  V30 1191 N 118.248 0.346503 1.53744 0
M  V30 1192 C 119.664 -0.00530975 1.59599 0
M  V30 1193 C 119.864 -1.48465 1.36236 0
M  V30 1194 O 118.92 -2.24376 1.15808 0
M  V30 1195 C 120.233 0.433516 2.97559 0
M  V30 1196 C 121.781 0.386111 3.10609 0
M  V30 1197 C 122.256 0.800451 4.50951 0
M  V30 1198 N 123.747 0.754753 4.5701 0
M  V30 1199 C 124.482 1.04727 5.63755 0
M  V30 1200 N 123.978 1.4081 6.7834 0
M  V30 1201 N 125.771 0.971316 5.53644 0
M  V30 1202 H 117.922 1.31009 1.67184 0
M  V30 1203 H 120.185 0.534242 0.783128 0
M  V30 1204 H 119.891 1.46509 3.19731 0
M  V30 1205 H 119.765 -0.189753 3.76722 0
M  V30 1206 H 122.152 -0.636295 2.88158 0
M  V30 1207 H 122.233 1.04462 2.33498 0
M  V30 1208 H 121.877 1.82088 4.74137 0
M  V30 1209 H 121.807 0.119386 5.26465 0
M  V30 1210 H 124.298 0.488662 3.74727 0
M  V30 1211 H 124.611 1.61607 7.55714 0
M  V30 1212 H 122.956 1.44657 6.79779 0
M  V30 1213 H 126.147 0.688748 4.63005 0
M  V30 1214 H 126.32 1.20263 6.36742 0
M  V30 1215 N 119.726 -1.57421 0.075193 0
M  V30 1216 C 120.636 -2.1642 -0.905511 0
M  V30 1217 C 121.652 -1.12828 -1.32461 0
M  V30 1218 O 122.828 -1.45109 -1.39661 0
M  V30 1219 C 119.893 -2.71693 -2.15369 0
M  V30 1220 C 118.954 -3.90171 -1.79068 0
M  V30 1221 C 118.187 -4.42798 -2.97936 0
M  V30 1222 O 118.41 -3.94416 -4.12058 0
M  V30 1223 O 117.344 -5.34085 -2.77555 0
M  V30 1224 H 121.17 -3.00588 -0.433626 0
M  V30 1225 H 118.755 -1.48664 -0.148067 0
M  V30 1226 H 120.637 -3.07104 -2.88557 0
M  V30 1227 H 119.312 -1.90582 -2.61649 0
M  V30 1228 H 118.219 -3.59606 -1.03122 0
M  V30 1229 H 119.552 -4.72584 -1.37569 0
M  V30 1230 N 121.204 0.198386 -1.56346 0
M  V30 1231 C 122.429 0.939682 -1.84891 0
M  V30 1232 C 122.854 1.76202 -0.658369 0
M  V30 1233 O 122.212 1.76993 0.392851 0
M  V30 1234 C 122.26 1.81428 -3.11635 0
M  V30 1235 O 121.364 2.91265 -2.91956 0
M  V30 1236 H 120.705 0.264807 -0.608912 0
M  V30 1237 H 123.235 0.204695 -2.03573 0
M  V30 1238 H 123.245 2.21958 -3.42343 0
M  V30 1239 H 121.92 1.21004 -3.97908 0
M  V30 1240 H 120.497 2.54514 -2.72538 0
M  V30 1241 N 122.682 1.50554 0.465978 0
M  V30 1242 C 123.931 1.61038 1.21448 0
M  V30 1243 C 124.244 0.31865 1.92987 0
M  V30 1244 O 125.45 0.302469 2.6981 0
M  V30 1245 C 123.906 2.84283 2.20706 0
M  V30 1246 C 123.514 4.20352 1.54946 0
M  V30 1247 C 125.258 3.04115 2.96166 0
M  V30 1248 C 123.165 5.34778 2.5252 0
M  V30 1249 H 122.095 0.599718 0.457005 0
M  V30 1250 H 124.746 1.7699 0.484424 0
M  V30 1251 H 123.128 2.61901 2.97025 0
M  V30 1252 H 124.302 4.53008 0.843811 0
M  V30 1253 H 122.617 4.06167 0.917475 0
M  V30 1254 H 125.214 3.86774 3.69202 0
M  V30 1255 H 125.557 2.16045 3.55852 0
M  V30 1256 H 126.09 3.26702 2.26959 0
M  V30 1257 H 122.829 6.25018 1.97566 0
M  V30 1258 H 122.349 5.06534 3.21222 0
M  V30 1259 H 124.028 5.65561 3.14245 0
M  V30 1260 N 124.16 -0.719506 1.40217 0
M  V30 1261 C 125.107 -1.83359 1.40172 0
M  V30 1262 C 126.077 -1.64065 0.259206 0
M  V30 1263 O 127.262 -1.85254 0.456677 0
M  V30 1264 C 124.402 -3.2103 1.26624 0
M  V30 1265 C 123.515 -3.51923 2.50548 0
M  V30 1266 C 122.65 -4.79079 2.29471 0
M  V30 1267 C 121.689 -5.02863 3.48992 0
M  V30 1268 N 120.826 -6.2123 3.27135 0
M  V30 1269 H 125.666 -1.82733 2.35399 0
M  V30 1270 H 123.203 -0.892688 1.16917 0
M  V30 1271 H 125.161 -4.00524 1.16776 0
M  V30 1272 H 123.791 -3.20895 0.350176 0
M  V30 1273 H 122.843 -2.67014 2.70939 0
M  V30 1274 H 124.155 -3.6541 3.39525 0
M  V30 1275 H 123.309 -5.66582 2.16955 0
M  V30 1276 H 122.048 -4.67794 1.37913 0
M  V30 1277 H 121.053 -4.13816 3.6199 0
M  V30 1278 H 122.278 -5.16023 4.41472 0
M  V30 1279 H 120.224 -6.11204 2.38256 0
M  V30 1280 H 120.141 -6.35375 4.09675 0
M  V30 1281 H 121.409 -7.11532 3.18344 0
M  V30 1282 N 125.638 -1.25649 -0.95132 0
M  V30 1283 C 126.57 -1.02112 -2.05197 0
M  V30 1284 C 127.583 0.0150571 -1.62793 0
M  V30 1285 O 128.772 -0.223874 -1.77091 0
M  V30 1286 C 125.872 -0.522361 -3.3485 0
M  V30 1287 C 125.045 -1.62546 -4.06076 0
M  V30 1288 C 124.104 -1.12649 -5.14001 0
M  V30 1289 O 123.13 -1.82156 -5.39266 0
M  V30 1290 N 124.332 0.03047 -5.80492 0
M  V30 1291 H 127.097 -1.96885 -2.25957 0
M  V30 1292 H 124.658 -1.16899 -1.1201 0
M  V30 1293 H 126.65 -0.172961 -4.0433 0
M  V30 1294 H 125.22 0.33151 -3.10837 0
M  V30 1295 H 124.44 -2.14628 -3.30649 0
M  V30 1296 H 125.728 -2.36644 -4.50419 0
M  V30 1297 H 125.126 0.611169 -5.62389 0
M  V30 1298 H 123.683 0.320875 -6.5101 0
M  V30 1299 N 127.117 1.15442 -1.07289 0
M  V30 1300 C 128.533 1.38201 -0.798288 0
M  V30 1301 C 128.733 1.92429 0.597769 0
M  V30 1302 O 127.789 2.12962 1.3566 0
M  V30 1303 C 129.102 2.35357 -1.87156 0
M  V30 1304 C 130.65 2.49021 -1.89624 0
M  V30 1305 C 131.125 3.49468 -2.96034 0
M  V30 1306 N 132.616 3.57003 -2.95132 0
M  V30 1307 C 133.351 4.34543 -3.74112 0
M  V30 1308 N 132.847 5.15421 -4.6294 0
M  V30 1309 N 134.64 4.29625 -3.62462 0
M  V30 1310 H 126.791 0.78584 -1.97328 0
M  V30 1311 H 129.054 0.408065 -0.855679 0
M  V30 1312 H 128.76 2.02626 -2.87464 0
M  V30 1313 H 128.634 3.35129 -1.73114 0
M  V30 1314 H 131.021 2.81051 -0.899687 0
M  V30 1315 H 131.102 1.4925 -2.07745 0
M  V30 1316 H 130.746 3.18173 -3.95889 0
M  V30 1317 H 130.676 4.48992 -2.75161 0
M  V30 1318 H 133.167 2.99276 -2.30743 0
M  V30 1319 H 133.48 5.7183 -5.19837 0
M  V30 1320 H 131.825 5.14729 -4.66989 0
M  V30 1321 H 135.016 3.65505 -2.92444 0
M  V30 1322 H 135.189 4.89807 -4.24256 0
M  V30 1323 N 128.595 0.856903 1.32268 0
M  V30 1324 C 129.525 0.31858 2.31316 0
M  V30 1325 C 130.506 -0.583487 1.59779 0
M  V30 1326 O 131.691 -0.503259 1.87566 0
M  V30 1327 C 128.821 -0.491979 3.43798 0
M  V30 1328 C 127.775 0.315849 4.26833 0
M  V30 1329 C 127.101 -0.619586 5.31098 0
M  V30 1330 C 128.401 1.54282 4.98993 0
M  V30 1331 H 130.095 1.14621 2.76591 0
M  V30 1332 H 127.641 0.552613 1.32974 0
M  V30 1333 H 129.594 -0.879012 4.1213 0
M  V30 1334 H 128.318 -1.35299 2.97257 0
M  V30 1335 H 126.977 0.684664 3.6015 0
M  V30 1336 H 126.625 -1.47751 4.8081 0
M  V30 1337 H 126.325 -0.0830621 5.87541 0
M  V30 1338 H 127.849 -1.00375 6.02293 0
M  V30 1339 H 129.263 1.22796 5.59995 0
M  V30 1340 H 127.66 2.01745 5.65172 0
M  V30 1341 H 128.73 2.30285 4.26728 0
M  V30 1342 N 130.073 -1.45103 0.615059 0
M  V30 1343 C 131.489 -1.57137 0.279322 0
M  V30 1344 C 131.689 -1.60523 -1.21797 0
M  V30 1345 O 130.745 -1.53956 -2.00134 0
M  V30 1346 C 132.058 -2.85062 0.957083 0
M  V30 1347 C 133.606 -2.98749 0.933706 0
M  V30 1348 C 134.081 -4.29455 1.59162 0
M  V30 1349 N 135.572 -4.36231 1.55746 0
M  V30 1350 C 136.307 -5.36051 2.0356 0
M  V30 1351 N 135.803 -6.42367 2.59494 0
M  V30 1352 N 137.596 -5.27456 1.94284 0
M  V30 1353 H 129.747 -1.41148 1.58717 0
M  V30 1354 H 132.01 -0.675331 0.665306 0
M  V30 1355 H 131.716 -2.88488 2.01166 0
M  V30 1356 H 131.59 -3.7407 0.48494 0
M  V30 1357 H 133.977 -2.94886 -0.112347 0
M  V30 1358 H 134.058 -2.11132 1.44419 0
M  V30 1359 H 133.702 -4.34077 2.63704 0
M  V30 1360 H 133.632 -5.15901 1.0561 0
M  V30 1361 H 136.123 -3.60011 1.14893 0
M  V30 1362 H 136.436 -7.14793 2.93752 0
M  V30 1363 H 134.781 -6.43097 2.63537 0
M  V30 1364 H 137.972 -4.43308 1.5032 0
M  V30 1365 H 138.145 -6.05099 2.3186 0
M  V30 1366 N 131.551 -0.354651 -1.53558 0
M  V30 1367 C 132.776 0.242153 -2.05981 0
M  V30 1368 C 133.201 1.42553 -1.2272 0
M  V30 1369 O 132.559 1.79656 -0.243604 0
M  V30 1370 C 132.607 0.624367 -3.55154 0
M  V30 1371 O 131.711 1.72301 -3.74681 0
M  V30 1372 H 131.052 0.0378432 -0.662921 0
M  V30 1373 H 133.582 -0.512087 -1.98088 0
M  V30 1374 H 133.592 0.898433 -3.97985 0
M  V30 1375 H 132.267 -0.240989 -4.15201 0
M  V30 1376 H 130.844 1.44535 -3.4375 0
M  V30 1377 N 133.029 1.57378 -0.0835403 0
M  V30 1378 C 134.277 1.93547 0.581718 0
M  V30 1379 C 134.598 0.96524 1.69435 0
M  V30 1380 O 133.868 0.0153369 1.95894 0
M  V30 1381 H 132.448 0.714521 0.217874 0
M  V30 1382 H 135.11 1.94366 -0.144158 0
M  V30 1383 H 134.206 2.95665 0.999423 0
M  V30 1384 N 134.507 -0.190092 1.56449 0
M  V30 1385 C 135.732 -0.929864 1.85387 0
M  V30 1386 C 136.157 -1.7585 0.667704 0
M  V30 1387 O 135.515 -1.77198 -0.383459 0
M  V30 1388 C 135.563 -1.79773 3.12593 0
M  V30 1389 O 134.667 -2.89713 2.93496 0
M  V30 1390 H 134.008 -0.261574 0.610307 0
M  V30 1391 H 136.538 -0.193896 2.03679 0
M  V30 1392 H 136.548 -2.20139 3.43515 0
M  V30 1393 H 135.223 -1.18892 3.98544 0
M  V30 1394 H 133.8 -2.53065 2.73884 0
M  V30 1395 N 135.985 -1.50799 -0.457987 0
M  V30 1396 C 136.948 -1.7005 -1.53674 0
M  V30 1397 C 137.948 -0.570881 -1.50325 0
M  V30 1398 O 139.138 -0.838126 -1.52712 0
M  V30 1399 C 136.27 -1.73788 -2.93276 0
M  V30 1400 H 137.463 -2.66306 -1.37917 0
M  V30 1401 H 135.016 -1.40477 -0.685271 0
M  V30 1402 H 135.751 -0.792717 -3.14462 0
M  V30 1403 H 135.536 -2.55864 -2.97113 0
M  V30 1404 H 137.026 -1.90591 -3.71571 0
M  V30 1405 N 137.463 0.71206 -1.40597 0
M  V30 1406 C 138.688 1.50617 -1.42581 0
M  V30 1407 C 139.113 1.88079 -0.0282102 0
M  V30 1408 O 138.471 1.53511 0.964579 0
M  V30 1409 C 138.519 2.7557 -2.3258 0
M  V30 1410 O 137.623 3.72414 -1.77148 0
M  V30 1411 H 136.964 0.453966 -0.484573 0
M  V30 1412 H 139.494 0.876649 -1.84868 0
M  V30 1413 H 139.504 3.2406 -2.47889 0
M  V30 1414 H 138.179 2.47639 -3.34138 0
M  V30 1415 H 136.756 3.31276 -1.71204 0
M  V30 1416 N 138.941 1.26152 0.944643 0
M  V30 1417 C 140.352 1.10454 1.50522 0
M  V30 1418 C 140.703 -0.31635 1.93633 0
M  V30 1419 O 139.828 -1.20746 1.79581 0
M  V30 1420 C 140.423 1.99891 2.73549 0
M  V30 1421 C 138.982 1.88348 3.25886 0
M  V30 1422 C 138.129 1.93447 1.9868 0
M  V30 1423 H 141.08 1.39292 0.760489 0
M  V30 1424 H 141.101 1.54477 3.47732 0
M  V30 1425 H 140.613 3.03297 2.42141 0
M  V30 1426 H 138.714 0.878636 3.62092 0
M  V30 1427 H 138.827 2.73696 3.93227 0
M  V30 1428 H 137.191 1.37456 2.14425 0
M  V30 1429 H 137.974 2.98476 1.69607 0
M  V30 1430 N 140.419 -1.14872 1.07899 0
M  V30 1431 C 141.352 -2.18794 0.64841 0
M  V30 1432 C 142.33 -1.59065 -0.337189 0
M  V30 1433 O 143.514 -1.86936 -0.242284 0
M  V30 1434 C 140.641 -3.38667 -0.0470417 0
M  V30 1435 C 139.687 -4.16942 0.897884 0
M  V30 1436 S 140.52 -4.78615 2.40183 0
M  V30 1437 C 141.676 -6.0185 1.71834 0
M  V30 1438 H 141.909 -2.5498 1.52881 0
M  V30 1439 H 139.442 -1.25922 0.893484 0
M  V30 1440 H 141.4 -4.08113 -0.442027 0
M  V30 1441 H 140.061 -3.00814 -0.903861 0
M  V30 1442 H 139.254 -5.02726 0.358096 0
M  V30 1443 H 138.856 -3.53073 1.23352 0
M  V30 1444 H 141.148 -6.69574 1.03328 0
M  V30 1445 H 142.091 -6.60408 2.55473 0
M  V30 1446 H 142.499 -5.5173 1.19392 0
M  V30 1447 N 141.898 -0.863906 -1.31812 0
M  V30 1448 C 142.808 -0.318461 -2.32428 0
M  V30 1449 C 143.824 0.568496 -1.64451 0
M  V30 1450 O 145 0.46666 -1.95919 0
M  V30 1451 C 142.065 0.476355 -3.43412 0
M  V30 1452 C 141.126 -0.43784 -4.27061 0
M  V30 1453 C 140.359 0.319138 -5.32745 0
M  V30 1454 O 140.582 1.54799 -5.48993 0
M  V30 1455 O 139.516 -0.319861 -6.01049 0
M  V30 1456 H 143.342 -1.15229 -2.80991 0
M  V30 1457 H 140.927 -0.627103 -1.35602 0
M  V30 1458 H 142.809 0.927156 -4.11074 0
M  V30 1459 H 141.484 1.28683 -2.97022 0
M  V30 1460 H 140.391 -0.937013 -3.62175 0
M  V30 1461 H 141.724 -1.21375 -4.77 0
M  V30 1462 N 143.376 1.44774 -0.622745 0
M  V30 1463 C 144.306 2.33382 0.0741861 0
M  V30 1464 C 145.287 1.47719 0.843387 0
M  V30 1465 O 146.472 1.76458 0.810934 0
M  V30 1466 C 143.602 3.30663 1.06204 0
M  V30 1467 C 142.556 4.26079 0.405037 0
M  V30 1468 C 141.882 5.13165 1.5022 0
M  V30 1469 C 143.182 5.1781 -0.683414 0
M  V30 1470 H 144.876 2.91905 -0.665713 0
M  V30 1471 H 142.422 1.40363 -0.321587 0
M  V30 1472 H 144.375 3.9153 1.55827 0
M  V30 1473 H 143.099 2.70331 1.83272 0
M  V30 1474 H 141.758 3.66532 -0.0704683 0
M  V30 1475 H 141.406 4.49191 2.26355 0
M  V30 1476 H 141.106 5.77812 1.06803 0
M  V30 1477 H 142.63 5.76902 2.00041 0
M  V30 1478 H 144.044 5.72661 -0.270631 0
M  V30 1479 H 142.441 5.91015 -1.04023 0
M  V30 1480 H 143.511 4.59326 -1.55395 0
M  V30 1481 N 144.854 0.36279 1.53368 0
M  V30 1482 C 145.784 -0.476976 2.28576 0
M  V30 1483 C 146.765 -1.08631 1.30894 0
M  V30 1484 O 147.95 -1.10409 1.59761 0
M  V30 1485 C 145.08 -1.61828 3.07293 0
M  V30 1486 C 144.034 -1.13633 4.1264 0
M  V30 1487 C 143.36 -2.36766 4.79423 0
M  V30 1488 C 144.66 -0.223061 5.21823 0
M  V30 1489 H 146.354 0.150474 2.99022 0
M  V30 1490 H 143.9 0.0738103 1.43811 0
M  V30 1491 H 145.853 -2.21237 3.58653 0
M  V30 1492 H 144.577 -2.27292 2.34533 0
M  V30 1493 H 143.236 -0.564945 3.62221 0
M  V30 1494 H 142.884 -3.0068 4.03238 0
M  V30 1495 H 142.584 -2.05192 5.50609 0
M  V30 1496 H 144.108 -2.96865 5.33576 0
M  V30 1497 H 145.522 -0.724545 5.68703 0
M  V30 1498 H 143.919 0.001678 6.001 0
M  V30 1499 H 144.989 0.735553 4.79289 0
M  V30 1500 N 146.332 -1.57332 0.0918853 0
M  V30 1501 C 147.557 -1.98995 -0.584442 0
M  V30 1502 C 147.982 -0.970528 -1.61128 0
M  V30 1503 O 147.34 0.0613904 -1.81196 0
M  V30 1504 C 147.388 -3.39636 -1.21161 0
M  V30 1505 O 146.492 -3.40447 -2.32744 0
M  V30 1506 H 145.833 -0.647165 -0.148572 0
M  V30 1507 H 148.363 -2.03873 0.172347 0
M  V30 1508 H 148.373 -3.7726 -1.55367 0
M  V30 1509 H 147.048 -4.13356 -0.459313 0
M  V30 1510 H 145.625 -3.14614 -2.0018 0
M  V30 1511 N 147.81 0.181792 -1.56548 0
M  V30 1512 C 149.04 0.914618 -1.85252 0
M  V30 1513 C 149.448 1.76791 -0.673914 0
M  V30 1514 O 148.791 1.80009 0.366416 0
M  V30 1515 C 148.853 1.85019 -3.08234 0
M  V30 1516 C 148.517 1.17754 -4.41569 0
M  V30 1517 C 149.514 0.548035 -5.17003 0
M  V30 1518 C 147.199 1.17742 -4.88305 0
M  V30 1519 C 149.193 -0.0726128 -6.37359 0
M  V30 1520 C 146.88 0.552946 -6.08593 0
M  V30 1521 C 147.878 -0.070978 -6.82963 0
M  V30 1522 O 147.566 -0.685635 -8.00971 0
M  V30 1523 H 147.298 0.271695 -0.618998 0
M  V30 1524 H 149.852 0.189944 -2.0452 0
M  V30 1525 H 148.082 2.61491 -2.84885 0
M  V30 1526 H 149.771 2.45195 -3.23472 0
M  V30 1527 H 150.537 0.540174 -4.81982 0
M  V30 1528 H 146.416 1.65246 -4.30366 0
M  V30 1529 H 149.96 -0.560213 -6.95347 0
M  V30 1530 H 145.857 0.558354 -6.43081 0
M  V30 1531 H 146.625 -0.58385 -8.16415 0
M  V30 1532 N 149.288 1.51039 0.449983 0
M  V30 1533 C 150.535 1.63081 1.20045 0
M  V30 1534 C 150.863 0.341024 1.91487 0
M  V30 1535 O 150.118 -0.674276 1.83717 0
M  V30 1536 C 150.417 2.77556 2.25161 0
M  V30 1537 C 150.083 4.17289 1.70823 0
M  V30 1538 C 148.745 4.55305 1.55725 0
M  V30 1539 C 151.097 5.04536 1.3074 0
M  V30 1540 C 148.425 5.78287 0.989999 0
M  V30 1541 C 150.777 6.28085 0.754482 0
M  V30 1542 C 149.441 6.64885 0.590308 0
M  V30 1543 H 148.711 0.596755 0.439277 0
M  V30 1544 H 151.358 1.85037 0.49333 0
M  V30 1545 H 149.663 2.49771 3.01863 0
M  V30 1546 H 151.36 2.84073 2.83026 0
M  V30 1547 H 147.95 3.8731 1.83546 0
M  V30 1548 H 152.134 4.75782 1.41229 0
M  V30 1549 H 147.39 6.05456 0.850451 0
M  V30 1550 H 151.564 6.95038 0.435324 0
M  V30 1551 H 149.191 7.60055 0.14862 0
M  V30 1552 N 150.766 -0.704594 1.40972 0
M  V30 1553 C 151.713 -1.81862 1.42109 0
M  V30 1554 C 152.683 -1.63781 0.276593 0
M  V30 1555 O 153.868 -1.84759 0.4763 0
M  V30 1556 C 151.008 -3.19669 1.30022 0
M  V30 1557 C 150.121 -3.49246 2.54267 0
M  V30 1558 C 149.256 -4.76618 2.3454 0
M  V30 1559 C 148.295 -4.99133 3.54306 0
M  V30 1560 N 147.432 -6.17726 3.33706 0
M  V30 1561 H 152.272 -1.80226 2.37324 0
M  V30 1562 H 149.809 -0.880238 1.17857 0
M  V30 1563 H 151.767 -3.99263 1.21018 0
M  V30 1564 H 150.397 -3.20506 0.384192 0
M  V30 1565 H 149.449 -2.64125 2.73756 0
M  V30 1566 H 150.761 -3.61788 3.43381 0
M  V30 1567 H 149.915 -5.64249 2.22952 0
M  V30 1568 H 148.654 -4.66305 1.42867 0
M  V30 1569 H 147.659 -4.09953 3.66359 0
M  V30 1570 H 148.884 -5.11311 4.4692 0
M  V30 1571 H 146.83 -6.08642 2.44725 0
M  V30 1572 H 146.747 -6.30995 4.16391 0
M  V30 1573 H 148.015 -7.08115 3.25873 0
M  V30 1574 N 152.244 -1.26651 -0.937939 0
M  V30 1575 C 153.176 -1.04283 -2.04102 0
M  V30 1576 C 154.189 -0.00221014 -1.628 0
M  V30 1577 O 155.378 -0.242645 -1.76843 0
M  V30 1578 C 152.478 -0.557846 -3.34277 0
M  V30 1579 C 151.651 -1.66843 -4.04329 0
M  V30 1580 C 150.71 -1.18095 -5.12777 0
M  V30 1581 O 149.736 -1.87865 -5.37304 0
M  V30 1582 N 150.938 -0.0311006 -5.80492 0
M  V30 1583 H 153.703 -1.9927 -2.23856 0
M  V30 1584 H 151.264 -1.1808 -1.10764 0
M  V30 1585 H 153.256 -0.215836 -4.04124 0
M  V30 1586 H 151.826 0.298523 -3.11171 0
M  V30 1587 H 151.046 -2.18123 -3.28353 0
M  V30 1588 H 152.334 -2.41408 -4.47883 0
M  V30 1589 H 151.732 0.551486 -5.63005 0
M  V30 1590 H 150.289 0.251809 -6.51313 0
M  V30 1591 N 153.722 1.14298 -1.08507 0
M  V30 1592 C 155.133 1.66926 -0.836227 0
M  V30 1593 C 155.484 1.85576 0.63686 0
M  V30 1594 O 154.609 1.56767 1.49175 0
M  V30 1595 C 155.204 3.03219 -1.51142 0
M  V30 1596 C 153.763 3.52876 -1.30979 0
M  V30 1597 C 152.91 2.2833 -1.57356 0
M  V30 1598 H 155.861 0.983491 -1.24552 0
M  V30 1599 H 155.882 3.68726 -0.939211 0
M  V30 1600 H 155.394 2.89612 -2.58353 0
M  V30 1601 H 153.495 3.71703 -0.258429 0
M  V30 1602 H 153.608 4.33586 -2.03814 0
M  V30 1603 H 151.972 2.34454 -0.995164 0
M  V30 1604 H 152.755 2.17298 -2.65775 0
M  V30 1605 N 155.201 0.870884 1.31352 0
M  V30 1606 C 156.447 0.482987 1.96965 0
M  V30 1607 C 156.78 -0.962462 1.68672 0
M  V30 1608 O 156.055 -1.6779 0.98371 0
M  V30 1609 C 156.338 0.741752 3.52378 0
M  V30 1610 C 156.191 2.2368 3.9024 0
M  V30 1611 C 157.51 0.208838 4.39604 0
M  V30 1612 H 154.629 0.176955 0.715441 0
M  V30 1613 H 157.271 1.09229 1.55464 0
M  V30 1614 H 155.421 0.223149 3.87859 0
M  V30 1615 H 157.093 2.82273 3.64856 0
M  V30 1616 H 155.336 2.70901 3.38814 0
M  V30 1617 H 156.007 2.3685 4.98604 0
M  V30 1618 H 158.483 0.652529 4.10952 0
M  V30 1619 H 157.359 0.419336 5.47296 0
M  V30 1620 H 157.62 -0.889275 4.33064 0
M  V30 1621 N 156.679 -1.44442 0.630414 0
M  V30 1622 C 157.642 -2.29107 -0.0652523 0
M  V30 1623 C 158.642 -1.41002 -0.772995 0
M  V30 1624 O 159.832 -1.62881 -0.617692 0
M  V30 1625 C 156.964 -3.22564 -1.10296 0
M  V30 1626 H 158.157 -2.92103 0.679401 0
M  V30 1627 H 155.71 -1.51343 0.390517 0
M  V30 1628 H 156.445 -2.64416 -1.87762 0
M  V30 1629 H 156.23 -3.87491 -0.59941 0
M  V30 1630 H 157.72 -3.86167 -1.5895 0
M  V30 1631 N 158.157 -0.370918 -1.53173 0
M  V30 1632 C 159.12 0.460778 -2.24521 0
M  V30 1633 C 160.12 1.00536 -1.25496 0
M  V30 1634 O 161.31 0.890266 -1.49733 0
M  V30 1635 C 158.442 1.64457 -2.98608 0
M  V30 1636 H 159.635 -0.163613 -2.99453 0
M  V30 1637 H 157.188 -0.122699 -1.55818 0
M  V30 1638 H 157.923 2.30691 -2.2793 0
M  V30 1639 H 157.708 1.26099 -3.7127 0
M  V30 1640 H 159.198 2.23384 -3.5283 0
M  V30 1641 N 159.635 1.57281 -0.100228 0
M  V30 1642 C 160.863 1.98879 0.570509 0
M  V30 1643 C 161.278 0.979476 1.61405 0
M  V30 1644 O 160.635 -0.0302288 1.82475 0
M  V30 1645 C 160.686 3.4052 1.2136 0
M  V30 1646 O 160.407 4.37588 0.211786 0
M  V30 1647 C 161.908 3.97149 1.96945 0
M  V30 1648 H 159.128 0.653428 0.152555 0
M  V30 1649 H 161.672 2.03697 -0.18103 0
M  V30 1650 H 159.827 3.367 1.91603 0
M  V30 1651 H 160.241 5.20118 0.676607 0
M  V30 1652 H 161.715 4.98393 2.37294 0
M  V30 1653 H 162.192 3.3525 2.83733 0
M  V30 1654 H 162.798 4.04458 1.31506 0
M  V30 1655 N 161.113 -0.173488 1.56642 0
M  V30 1656 C 162.529 -0.525174 1.50712 0
M  V30 1657 C 162.729 -1.8476 0.804107 0
M  V30 1658 O 161.785 -2.49869 0.363574 0
M  V30 1659 C 163.098 -0.559937 2.95441 0
M  V30 1660 C 164.646 -0.647288 3.06234 0
M  V30 1661 C 165.121 -0.712963 4.52417 0
M  V30 1662 N 166.612 -0.775911 4.56655 0
M  V30 1663 C 167.347 -0.847264 5.67106 0
M  V30 1664 N 166.843 -0.879585 6.87194 0
M  V30 1665 N 168.636 -0.886117 5.55071 0
M  V30 1666 H 160.787 0.693681 2.00753 0
M  V30 1667 H 163.05 0.249841 0.914485 0
M  V30 1668 H 162.756 0.343049 3.50023 0
M  V30 1669 H 162.63 -1.40718 3.49969 0
M  V30 1670 H 165.017 -1.5407 2.51687 0
M  V30 1671 H 165.098 0.226586 2.54794 0
M  V30 1672 H 164.742 0.176183 5.07594 0
M  V30 1673 H 164.672 -1.60295 5.0161 0
M  V30 1674 H 167.163 -0.759304 3.70193 0
M  V30 1675 H 167.476 -0.935144 7.67121 0
M  V30 1676 H 165.821 -0.847898 6.89808 0
M  V30 1677 H 169.012 -0.857853 4.60172 0
M  V30 1678 H 169.185 -0.938263 6.41171 0
M  V30 1679 N 162.591 -1.51276 -0.441967 0
M  V30 1680 C 163.819 -1.67516 -1.21434 0
M  V30 1681 C 164.234 -0.37055 -1.85128 0
M  V30 1682 O 163.591 0.650498 -1.70513 0
M  V30 1683 C 163.642 -2.78748 -2.30177 0
M  V30 1684 O 163.363 -4.04154 -1.69089 0
M  V30 1685 C 164.864 -3.06217 -3.20541 0
M  V30 1686 H 162.084 -0.562276 -0.366178 0
M  V30 1687 H 164.628 -1.97666 -0.524244 0
M  V30 1688 H 162.783 -2.5121 -2.94911 0
M  V30 1689 H 163.197 -4.65894 -2.40922 0
M  V30 1690 H 164.671 -3.8764 -3.92987 0
M  V30 1691 H 165.148 -2.18439 -3.81026 0
M  V30 1692 H 165.754 -3.35397 -2.61513 0
M  V30 1693 N 164.069 0.697108 -1.41344 0
M  V30 1694 C 165.032 1.79281 -1.42797 0
M  V30 1695 C 166.032 1.57607 -0.318837 0
M  V30 1696 O 167.222 1.64309 -0.578642 0
M  V30 1697 C 164.354 3.17632 -1.23785 0
M  V30 1698 H 165.547 1.79385 -2.40335 0
M  V30 1699 H 163.1 0.904582 -1.27464 0
M  V30 1700 H 163.835 3.23167 -0.270814 0
M  V30 1701 H 163.62 3.34765 -2.04144 0
M  V30 1702 H 165.11 3.97617 -1.27633 0
M  V30 1703 N 165.547 1.27147 0.931209 0
M  V30 1704 C 166.793 1.13446 1.68101 0
M  V30 1705 C 167.126 -0.319628 1.91552 0
M  V30 1706 O 166.401 -1.23407 1.50336 0
M  V30 1707 C 166.684 1.91482 3.0497 0
M  V30 1708 C 166.537 3.44855 2.88782 0
M  V30 1709 C 167.856 1.71651 4.05246 0
M  V30 1710 H 164.975 0.413498 0.610072 0
M  V30 1711 H 167.617 1.56261 1.08086 0
M  V30 1712 H 165.767 1.55095 3.56199 0
M  V30 1713 H 167.439 3.9105 2.44698 0
M  V30 1714 H 165.682 3.71373 2.24198 0
M  V30 1715 H 166.353 3.94694 3.85902 0
M  V30 1716 H 168.829 2.0337 3.63015 0
M  V30 1717 H 167.705 2.28651 4.99009 0
M  V30 1718 H 167.966 0.663555 4.37092 0
M  V30 1719 N 167.025 -1.13721 1.09112 0
M  V30 1720 C 168.441 -1.36914 0.820174 0
M  V30 1721 C 168.641 -1.93356 -0.567079 0
M  V30 1722 O 167.697 -2.15093 -1.32255 0
M  V30 1723 C 169.01 -2.3235 1.90877 0
M  V30 1724 C 170.558 -2.45973 1.93562 0
M  V30 1725 C 171.033 -3.44714 3.01556 0
M  V30 1726 N 172.524 -3.52263 3.00775 0
M  V30 1727 C 173.259 -4.28536 3.80978 0
M  V30 1728 N 172.755 -5.07991 4.71081 0
M  V30 1729 N 174.548 -4.23804 3.69251 0
M  V30 1730 H 166.699 -0.754348 1.98553 0
M  V30 1731 H 168.962 -0.3944 0.862063 0
M  V30 1732 H 168.668 -1.98027 2.90651 0
M  V30 1733 H 168.542 -3.32332 1.78424 0
M  V30 1734 H 170.929 -2.79584 0.944286 0
M  V30 1735 H 171.01 -1.45926 2.10093 0
M  V30 1736 H 170.654 -3.11835 4.00901 0
M  V30 1737 H 170.584 -4.44558 2.82269 0
M  V30 1738 H 173.075 -2.95567 2.35475 0
M  V30 1739 H 173.388 -5.63487 5.28869 0
M  V30 1740 H 171.733 -5.07235 4.75119 0
M  V30 1741 H 174.924 -3.60806 2.98222 0
M  V30 1742 H 175.097 -4.82995 4.31995 0
M  V30 1743 N 168.503 -0.877838 -1.30888 0
M  V30 1744 C 169.466 -0.344265 -2.266 0
M  V30 1745 C 170.466 0.50922 -1.52524 0
M  V30 1746 O 171.656 0.317398 -1.71284 0
M  V30 1747 C 168.788 0.510198 -3.37061 0
M  V30 1748 H 169.981 -1.1893 -2.7531 0
M  V30 1749 H 167.534 -0.654088 -1.41956 0
M  V30 1750 H 168.269 1.37612 -2.93655 0
M  V30 1751 H 168.054 -0.101047 -3.9197 0
M  V30 1752 H 169.544 0.875537 -4.08319 0
M  V30 1753 N 169.982 1.44106 -0.638065 0
M  V30 1754 C 170.945 2.29138 0.0531013 0
M  V30 1755 C 171.945 1.41409 0.765506 0
M  V30 1756 O 173.135 1.63206 0.609046 0
M  V30 1757 C 170.267 3.23144 1.08584 0
M  V30 1758 H 171.46 2.91739 -0.694883 0
M  V30 1759 H 169.013 1.51134 -0.398538 0
M  V30 1760 H 169.748 2.65408 1.86357 0
M  V30 1761 H 169.533 3.87804 0.578852 0
M  V30 1762 H 171.023 3.87004 1.56899 0
M  V30 1763 N 171.46 0.379036 1.52974 0
M  V30 1764 C 172.737 -0.263479 1.93817 0
M  V30 1765 C 173.117 -1.65244 1.31368 0
M  V30 1766 O 172.465 -2.23448 0.477856 0
M  V30 1767 C 172.675 -0.300166 3.47707 0
M  V30 1768 C 174.023 -0.534061 4.21228 0
M  V30 1769 O 175.047 -0.38081 3.54159 0
M  V30 1770 O 173.906 -0.833501 5.40106 0
M  V30 1771 H 171 -0.161149 0.811147 0
M  V30 1772 H 173.546 0.432798 1.64088 0
M  V30 1773 H 172.318 0.673138 3.85467 0
M  V30 1774 H 171.941 -1.04179 3.83709 0
M  V30 1775 N 172.938 -1.57226 0.108567 0
M  V30 1776 C 174.168 -1.9889 -0.559142 0
M  V30 1777 C 174.576 -0.986889 -1.61422 0
M  V30 1778 O 173.919 0.0298705 -1.83676 0
M  V30 1779 C 173.981 -3.36952 -1.25315 0
M  V30 1780 C 173.645 -4.55679 -0.347248 0
M  V30 1781 C 174.642 -5.18281 0.409996 0
M  V30 1782 C 172.327 -5.0162 -0.261367 0
M  V30 1783 C 174.321 -6.25203 1.24096 0
M  V30 1784 C 172.008 -6.08405 0.573238 0
M  V30 1785 C 173.006 -6.70063 1.32304 0
M  V30 1786 O 172.694 -7.74788 2.14381 0
M  V30 1787 H 172.426 -0.658343 -0.153492 0
M  V30 1788 H 174.98 -2.04532 0.188584 0
M  V30 1789 H 173.21 -3.28032 -2.04773 0
M  V30 1790 H 174.899 -3.62974 -1.81673 0
M  V30 1791 H 175.665 -4.8371 0.353457 0
M  V30 1792 H 171.544 -4.53381 -0.834656 0
M  V30 1793 H 175.088 -6.73259 1.82669 0
M  V30 1794 H 170.985 -6.42406 0.631208 0
M  V30 1795 H 171.753 -7.91837 2.07209 0
M  V30 1796 N 174.416 0.165178 -1.56732 0
M  V30 1797 C 175.346 1.20651 -1.99914 0
M  V30 1798 C 176.327 1.45827 -0.875705 0
M  V30 1799 O 177.512 1.57057 -1.14223 0
M  V30 1800 C 174.642 2.54401 -2.36427 0
M  V30 1801 C 173.596 2.43782 -3.51787 0
M  V30 1802 C 172.922 3.82078 -3.7406 0
M  V30 1803 C 174.222 1.93732 -4.85041 0
M  V30 1804 H 175.916 0.847534 -2.87154 0
M  V30 1805 H 173.462 0.40625 -1.38151 0
M  V30 1806 H 175.415 3.27458 -2.65234 0
M  V30 1807 H 174.139 2.92098 -1.46103 0
M  V30 1808 H 172.798 1.73178 -3.23117 0
M  V30 1809 H 172.446 4.17179 -2.81017 0
M  V30 1810 H 172.146 3.7584 -4.51684 0
M  V30 1811 H 173.67 4.56712 -4.05274 0
M  V30 1812 H 175.084 2.56569 -5.12684 0
M  V30 1813 H 173.481 1.98428 -5.66345 0
M  V30 1814 H 174.551 0.891962 -4.76626 0
M  V30 1815 N 175.894 1.51508 0.433938 0
M  V30 1816 C 176.844 1.69451 1.52546 0
M  V30 1817 C 177.828 0.548474 1.51263 0
M  V30 1818 O 179.02 0.804529 1.57659 0
M  V30 1819 C 176.149 1.82604 2.90707 0
M  V30 1820 C 175.235 3.03002 2.96733 0
M  V30 1821 N 175.626 4.26121 2.72496 0
M  V30 1822 C 173.924 3.02327 3.27894 0
M  V30 1823 C 174.625 5.07407 2.84452 0
M  V30 1824 N 173.601 4.42126 3.16269 0
M  V30 1825 H 177.403 2.62305 1.32564 0
M  V30 1826 H 174.917 1.49202 0.641297 0
M  V30 1827 H 176.914 1.93569 3.69238 0
M  V30 1828 H 175.574 0.909339 3.11707 0
M  V30 1829 H 176.585 4.55009 2.4736 0
M  V30 1830 H 173.262 2.20301 3.54646 0
M  V30 1831 H 174.652 6.15422 2.69639 0
M  V30 1832 N 177.372 -0.689602 1.41712 0
M  V30 1833 C 178.618 -1.45181 1.41599 0
M  V30 1834 C 178.951 -1.94181 0.0270081 0
M  V30 1835 O 178.226 -1.6993 -0.946265 0
M  V30 1836 C 178.509 -2.65945 2.42787 0
M  V30 1837 C 178.362 -2.22672 3.90816 0
M  V30 1838 C 179.681 -3.68149 2.41151 0
M  V30 1839 H 176.8 -0.526576 0.515642 0
M  V30 1840 H 179.442 -0.784947 1.73028 0
M  V30 1841 H 177.592 -3.2284 2.16116 0
M  V30 1842 H 179.264 -1.71058 4.28412 0
M  V30 1843 H 177.507 -1.54394 4.05395 0
M  V30 1844 H 178.178 -3.0935 4.57172 0
M  V30 1845 H 180.654 -3.2094 2.64834 0
M  V30 1846 H 179.53 -4.50248 3.13955 0
M  V30 1847 H 179.791 -4.18259 1.43221 0
M  V30 1848 N 178.85 -1.27639 -0.924453 0
M  V30 1849 C 179.813 -1.10681 -2.00705 0
M  V30 1850 C 180.813 -0.0497823 -1.60723 0
M  V30 1851 O 182.003 -0.294654 -1.7169 0
M  V30 1852 C 179.135 -0.687164 -3.33902 0
M  V30 1853 H 180.328 -2.06817 -2.17179 0
M  V30 1854 H 177.881 -1.10473 -1.10569 0
M  V30 1855 H 178.616 0.275439 -3.23128 0
M  V30 1856 H 178.401 -1.45061 -3.6428 0
M  V30 1857 H 179.891 -0.590853 -4.13399 0
M  V30 1858 N 180.328 1.1314 -1.09713 0
M  V30 1859 C 181.258 2.20748 -0.761102 0
M  V30 1860 C 182.239 1.68061 0.262566 0
M  V30 1861 O 183.424 1.93765 0.129977 0
M  V30 1862 C 180.554 3.46812 -0.184054 0
M  V30 1863 C 179.508 4.12606 -1.13757 0
M  V30 1864 C 178.834 5.33031 -0.422083 0
M  V30 1865 C 180.134 4.59603 -2.48118 0
M  V30 1866 H 181.828 2.49113 -1.66082 0
M  V30 1867 H 179.374 1.19734 -0.799987 0
M  V30 1868 H 181.327 4.21353 0.0631215 0
M  V30 1869 H 180.051 3.17851 0.750868 0
M  V30 1870 H 178.71 3.40036 -1.37007 0
M  V30 1871 H 178.358 5.00335 0.517072 0
M  V30 1872 H 178.058 5.77999 -1.05788 0
M  V30 1873 H 179.582 6.10325 -0.183277 0
M  V30 1874 H 180.996 5.25552 -2.29059 0
M  V30 1875 H 179.393 5.15321 -3.07514 0
M  V30 1876 H 180.463 3.73971 -3.08665 0
M  V30 1877 N 181.806 0.884767 1.30421 0
M  V30 1878 C 183.083 0.423185 1.90967 0
M  V30 1879 C 183.463 -1.09605 1.80416 0
M  V30 1880 O 182.811 -1.93126 1.22125 0
M  V30 1881 C 183.021 0.921056 3.36627 0
M  V30 1882 C 184.369 0.955903 4.137 0
M  V30 1883 O 185.393 0.867706 3.4547 0
M  V30 1884 O 184.252 1.08614 5.35598 0
M  V30 1885 H 181.346 0.129369 0.816819 0
M  V30 1886 H 183.892 0.973653 1.3899 0
M  V30 1887 H 182.664 1.96489 3.3839 0
M  V30 1888 H 182.287 0.349741 3.96059 0
M  V30 1889 N 183.284 -1.43765 0.645699 0
M  V30 1890 C 184.214 -2.33471 -0.0370477 0
M  V30 1891 C 185.195 -1.49042 -0.819779 0
M  V30 1892 O 186.38 -1.77726 -0.782758 0
M  V30 1893 C 183.51 -3.32311 -1.0093 0
M  V30 1894 C 182.464 -4.2667 -0.337201 0
M  V30 1895 C 181.79 -5.1549 -1.42037 0
M  V30 1896 C 183.09 -5.16657 0.765706 0
M  V30 1897 H 184.784 -2.90809 0.712069 0
M  V30 1898 H 182.33 -1.39834 0.343876 0
M  V30 1899 H 184.283 -3.9396 -1.49578 0
M  V30 1900 H 183.007 -2.73213 -1.78948 0
M  V30 1901 H 181.666 -3.66374 0.128771 0
M  V30 1902 H 181.314 -4.52735 -2.1918 0
M  V30 1903 H 181.014 -5.79438 -0.975966 0
M  V30 1904 H 182.538 -5.80012 -1.90838 0
M  V30 1905 H 183.952 -5.72158 0.361702 0
M  V30 1906 H 182.349 -5.89286 1.13413 0
M  V30 1907 H 183.419 -4.56796 1.62683 0
M  V30 1908 N 184.763 -0.387143 -1.52771 0
M  V30 1909 C 185.693 0.440551 -2.29306 0
M  V30 1910 C 186.674 1.06535 -1.32606 0
M  V30 1911 O 187.859 1.07853 -1.61497 0
M  V30 1912 C 184.989 1.56919 -3.09829 0
M  V30 1913 C 183.943 1.07054 -4.14395 0
M  V30 1914 C 183.269 2.29109 -4.83129 0
M  V30 1915 C 184.569 0.140015 -5.22112 0
M  V30 1916 H 186.263 -0.198026 -2.98744 0
M  V30 1917 H 183.809 -0.09668 -1.43675 0
M  V30 1918 H 185.762 2.15503 -3.62128 0
M  V30 1919 H 184.486 2.23532 -2.3812 0
M  V30 1920 H 183.145 0.507247 -3.63074 0
M  V30 1921 H 182.793 2.94227 -4.0797 0
M  V30 1922 H 182.493 1.96406 -5.53804 0
M  V30 1923 H 184.017 2.88339 -5.38231 0
M  V30 1924 H 185.431 0.633978 -5.69784 0
M  V30 1925 H 183.828 -0.0971485 -6.00021 0
M  V30 1926 H 184.898 -0.811711 -4.78058 0
M  V30 1927 N 186.241 1.57166 -0.116904 0
M  V30 1928 C 187.151 2.18745 0.847812 0
M  V30 1929 C 188.167 1.163 1.29423 0
M  V30 1930 O 189.343 1.48761 1.35765 0
M  V30 1931 C 186.408 2.77307 2.0809 0
M  V30 1932 C 185.469 3.94781 1.68661 0
M  V30 1933 C 184.702 4.50541 2.86091 0
M  V30 1934 O 184.925 4.05202 4.01456 0
M  V30 1935 O 183.859 5.41256 2.63298 0
M  V30 1936 H 187.685 3.01632 0.353778 0
M  V30 1937 H 185.27 1.49005 0.108599 0
M  V30 1938 H 187.152 3.14647 2.80313 0
M  V30 1939 H 185.827 1.97452 2.56504 0
M  V30 1940 H 184.734 3.62214 0.935518 0
M  V30 1941 H 186.067 4.76065 1.24991 0
M  V30 1942 N 187.719 -0.156864 1.56817 0
M  V30 1943 C 189.135 -0.50916 1.5126 0
M  V30 1944 C 189.335 -1.83897 0.823658 0
M  V30 1945 O 188.391 -2.49469 0.390055 0
M  V30 1946 C 189.704 -0.52857 2.96018 0
M  V30 1947 C 191.252 -0.614771 3.06903 0
M  V30 1948 C 191.727 -0.664938 4.53147 0
M  V30 1949 N 193.218 -0.727433 4.57452 0
M  V30 1950 C 193.953 -0.787067 5.67973 0
M  V30 1951 N 193.449 -0.806649 6.88088 0
M  V30 1952 N 195.242 -0.827195 5.5598 0
M  V30 1953 H 187.393 0.714935 2.00006 0
M  V30 1954 H 189.656 0.259526 0.911784 0
M  V30 1955 H 189.362 0.380154 3.49639 0
M  V30 1956 H 189.236 -1.36998 3.51442 0
M  V30 1957 H 191.623 -1.51392 2.53307 0
M  V30 1958 H 191.704 0.253597 2.5454 0
M  V30 1959 H 191.348 0.230011 5.07379 0
M  V30 1960 H 191.278 -1.54966 5.03282 0
M  V30 1961 H 193.769 -0.719998 3.70978 0
M  V30 1962 H 194.082 -0.853727 7.6807 0
M  V30 1963 H 192.427 -0.774687 6.90669 0
M  V30 1964 H 195.618 -0.808998 4.61056 0
M  V30 1965 H 195.791 -0.870206 6.4213 0
M  V30 1966 N 189.197 -1.51736 -0.425897 0
M  V30 1967 C 190.144 -1.73875 -1.51776 0
M  V30 1968 C 191.114 -0.580702 -1.55618 0
M  V30 1969 O 192.299 -0.81641 -1.72451 0
M  V30 1970 C 189.439 -1.88012 -2.89388 0
M  V30 1971 C 188.552 -3.15606 -2.94986 0
M  V30 1972 C 187.687 -3.20271 -4.23793 0
M  V30 1973 C 186.726 -4.42134 -4.23302 0
M  V30 1974 N 185.863 -4.44284 -5.43651 0
M  V30 1975 H 190.703 -2.67071 -1.32201 0
M  V30 1976 H 188.24 -1.32351 -0.642008 0
M  V30 1977 H 190.198 -1.9419 -3.69251 0
M  V30 1978 H 188.828 -0.98213 -3.07496 0
M  V30 1979 H 187.88 -3.18681 -2.07717 0
M  V30 1980 H 189.192 -4.05486 -2.90486 0
M  V30 1981 H 188.346 -3.25428 -5.12036 0
M  V30 1982 H 187.085 -2.28299 -4.30965 0
M  V30 1983 H 186.09 -4.3714 -3.3345 0
M  V30 1984 H 187.315 -5.35382 -4.17783 0
M  V30 1985 H 185.261 -3.55188 -5.51523 0
M  V30 1986 H 185.178 -5.27988 -5.41078 0
M  V30 1987 H 186.446 -4.53649 -6.33895 0
M  V30 1988 N 190.675 0.682077 -1.42076 0
M  V30 1989 C 191.605 1.80796 -1.47767 0
M  V30 1990 C 192.586 1.6677 -0.334954 0
M  V30 1991 O 193.771 1.863 -0.548264 0
M  V30 1992 C 190.901 3.19038 -1.37229 0
M  V30 1993 C 189.855 3.47789 -2.49453 0
M  V30 1994 C 189.181 4.8553 -2.23975 0
M  V30 1995 C 190.481 3.45411 -3.91776 0
M  V30 1996 H 192.175 1.7629 -2.41997 0
M  V30 1997 H 189.721 0.846721 -1.16476 0
M  V30 1998 H 191.674 3.97528 -1.39821 0
M  V30 1999 H 190.398 3.24204 -0.394907 0
M  V30 2000 H 189.057 2.71657 -2.46166 0
M  V30 2001 H 188.705 4.87337 -1.24547 0
M  V30 2002 H 188.405 5.0573 -2.99184 0
M  V30 2003 H 189.929 5.66312 -2.28304 0
M  V30 2004 H 191.343 4.13882 -3.96705 0
M  V30 2005 H 189.74 3.77145 -4.66778 0
M  V30 2006 H 190.81 2.44122 -4.18966 0
M  V30 2007 N 192.153 1.28127 0.917671 0
M  V30 2008 C 193.569 1.05749 1.19538 0
M  V30 2009 C 193.769 -0.202633 2.00479 0
M  V30 2010 O 192.825 -0.905382 2.3571 0
M  V30 2011 C 194.138 2.30273 1.93378 0
M  V30 2012 C 195.686 2.35412 2.06277 0
M  V30 2013 C 196.161 3.59692 2.83524 0
M  V30 2014 N 197.652 3.60309 2.91087 0
M  V30 2015 C 198.387 4.53147 3.51348 0
M  V30 2016 N 197.883 5.563 4.12919 0
M  V30 2017 N 199.676 4.40751 3.48849 0
M  V30 2018 H 191.827 2.09024 0.377184 0
M  V30 2019 H 194.09 0.919798 0.22951 0
M  V30 2020 H 193.796 3.22055 1.41328 0
M  V30 2021 H 193.67 2.36378 2.93947 0
M  V30 2022 H 196.057 1.4413 2.57508 0
M  V30 2023 H 196.138 2.33304 1.04895 0
M  V30 2024 H 195.782 4.51316 2.32973 0
M  V30 2025 H 195.712 3.59054 3.85211 0
M  V30 2026 H 198.203 2.85714 2.47338 0
M  V30 2027 H 198.516 6.2329 4.56869 0
M  V30 2028 H 196.861 5.60131 4.11435 0
M  V30 2029 H 200.052 3.59367 2.99955 0
M  V30 2030 H 200.225 5.13291 3.9552 0
M  V30 2031 N 193.631 -1.12557 1.10312 0
M  V30 2032 C 194.856 -1.88405 0.867085 0
M  V30 2033 C 195.281 -1.79038 -0.576817 0
M  V30 2034 O 194.639 -1.14439 -1.40618 0
M  V30 2035 C 194.687 -3.3563 1.31851 0
M  V30 2036 O 193.791 -4.09565 0.482734 0
M  V30 2037 H 193.132 -0.585455 0.313271 0
M  V30 2038 H 195.662 -1.42352 1.4696 0
M  V30 2039 H 195.672 -3.86469 1.3079 0
M  V30 2040 H 194.347 -3.41765 2.37001 0
M  V30 2041 H 192.924 -3.68695 0.558448 0
M  V30 2042 N 195.109 -0.891671 -1.2995 0
M  V30 2043 C 196.039 -0.379797 -2.30391 0
M  V30 2044 C 197.02 0.540919 -1.6127 0
M  V30 2045 O 198.205 0.453352 -1.88834 0
M  V30 2046 C 195.335 0.400654 -3.44981 0
M  V30 2047 C 194.289 -0.428905 -4.25846 0
M  V30 2048 C 193.615 0.478557 -5.32554 0
M  V30 2049 C 194.915 -1.67458 -4.94727 0
M  V30 2050 H 196.609 -1.21914 -2.73454 0
M  V30 2051 H 194.155 -0.587675 -1.31462 0
M  V30 2052 H 196.108 0.769434 -4.14316 0
M  V30 2053 H 194.832 1.27371 -3.0074 0
M  V30 2054 H 193.491 -0.779911 -3.58208 0
M  V30 2055 H 193.139 1.34951 -4.84559 0
M  V30 2056 H 192.839 -0.0727433 -5.87555 0
M  V30 2057 H 194.363 0.843705 -6.04743 0
M  V30 2058 H 195.777 -1.376 -5.56542 0
M  V30 2059 H 194.174 -2.16659 -5.59624 0
M  V30 2060 H 195.244 -2.41518 -4.20473 0
M  V30 2061 N 196.587 1.43421 -0.653314 0
M  V30 2062 C 197.833 2.02641 -0.175593 0
M  V30 2063 C 198.188 1.5062 1.19713 0
M  V30 2064 O 197.481 0.689697 1.78756 0
M  V30 2065 C 197.675 3.57176 -0.126623 0
M  V30 2066 C 197.504 4.24191 -1.49306 0
M  V30 2067 C 196.274 4.60257 -2.08547 0
M  V30 2068 C 198.472 4.53193 -2.43148 0
M  V30 2069 N 196.454 5.12345 -3.38194 0
M  V30 2070 C 197.825 5.06601 -3.57429 0
M  V30 2071 C 199.88 4.35161 -2.41949 0
M  V30 2072 C 198.583 5.43875 -4.70736 0
M  V30 2073 C 200.609 4.73498 -3.54336 0
M  V30 2074 C 199.971 5.27039 -4.67343 0
M  V30 2075 H 196.07 0.77441 -0.108686 0
M  V30 2076 H 198.654 1.74596 -0.861638 0
M  V30 2077 H 196.825 3.84784 0.528766 0
M  V30 2078 H 198.557 4.03078 0.36198 0
M  V30 2079 H 195.312 4.45302 -1.61255 0
M  V30 2080 H 195.736 5.42842 -4.04538 0
M  V30 2081 H 200.378 3.9304 -1.55818 0
M  V30 2082 H 198.096 5.8494 -5.57558 0
M  V30 2083 H 201.682 4.61241 -3.5461 0
M  V30 2084 H 200.562 5.56153 -5.52868 0
M  V30 2085 N 198.065 0.39524 1.52563 0
M  V30 2086 C 199.481 0.0454682 1.59535 0
M  V30 2087 C 199.681 -1.44056 1.4089 0
M  V30 2088 O 198.737 -2.20579 1.22888 0
M  V30 2089 C 200.05 0.527963 2.96029 0
M  V30 2090 C 201.598 0.484733 3.09224 0
M  V30 2091 C 202.073 0.943512 4.48176 0
M  V30 2092 N 203.564 0.899765 4.54377 0
M  V30 2093 C 204.299 1.22609 5.60138 0
M  V30 2094 N 203.795 1.62319 6.73516 0
M  V30 2095 N 205.588 1.14696 5.50274 0
M  V30 2096 H 197.739 1.36261 1.62931 0
M  V30 2097 H 200.002 0.558887 0.765735 0
M  V30 2098 H 199.708 1.56607 3.14908 0
M  V30 2099 H 199.582 -0.0698056 3.77135 0
M  V30 2100 H 201.969 -0.544298 2.90037 0
M  V30 2101 H 202.05 1.11838 2.30056 0
M  V30 2102 H 201.694 1.9708 4.68104 0
M  V30 2103 H 201.624 0.286817 5.25818 0
M  V30 2104 H 204.115 0.607632 3.72983 0
M  V30 2105 H 204.428 1.85567 7.5019 0
M  V30 2106 H 202.773 1.66211 6.74833 0
M  V30 2107 H 205.964 0.835701 4.6058 0
M  V30 2108 H 206.137 1.40459 6.32594 0
M  V30 2109 N 199.544 -1.57102 0.125237 0
M  V30 2110 C 200.96 -1.57915 -0.231322 0
M  V30 2111 C 201.16 -1.13833 -1.66266 0
M  V30 2112 O 200.216 -0.828581 -2.38518 0
M  V30 2113 C 201.529 -3.00699 0.00766489 0
M  V30 2114 C 203.077 -3.12947 -0.0577483 0
M  V30 2115 C 203.552 -4.57742 0.153626 0
M  V30 2116 N 205.043 -4.63092 0.0998073 0
M  V30 2117 C 205.778 -5.72905 0.238174 0
M  V30 2118 N 205.274 -6.91445 0.433057 0
M  V30 2119 N 207.067 -5.6182 0.177308 0
M  V30 2120 H 199.218 -1.84055 1.06007 0
M  V30 2121 H 201.481 -0.850905 0.417929 0
M  V30 2122 H 201.187 -3.3726 0.997431 0
M  V30 2123 H 201.061 -3.70236 -0.721452 0
M  V30 2124 H 203.448 -2.7624 -1.03804 0
M  V30 2125 H 203.529 -2.4594 0.70335 0
M  V30 2126 H 203.173 -4.95149 1.13092 0
M  V30 2127 H 203.103 -5.22848 -0.627534 0
M  V30 2128 H 205.594 -3.77871 -0.047051 0
M  V30 2129 H 205.907 -7.70985 0.529332 0
M  V30 2130 H 204.252 -6.93415 0.469109 0
M  V30 2131 H 207.443 -4.68093 0.0259748 0
M  V30 2132 H 207.616 -6.47357 0.288582 0
M  V30 2133 N 201.022 0.148545 -1.56898 0
M  V30 2134 C 202.433 0.708766 -1.72723 0
M  V30 2135 C 202.784 1.81734 -0.739395 0
M  V30 2136 O 201.909 2.16194 0.0943169 0
M  V30 2137 C 202.504 1.29245 -3.13179 0
M  V30 2138 C 201.063 1.79925 -3.30611 0
M  V30 2139 C 200.21 0.687111 -2.68652 0
M  V30 2140 H 203.161 -0.0771063 -1.58513 0
M  V30 2141 H 203.182 2.16224 -3.13093 0
M  V30 2142 H 202.694 0.485382 -3.85053 0
M  V30 2143 H 200.795 2.63203 -2.63732 0
M  V30 2144 H 200.908 1.92903 -4.38549 0
M  V30 2145 H 199.272 1.11335 -2.29078 0
M  V30 2146 H 200.055 -0.108483 -3.43129 0
M  V30 2147 N 202.5 1.5196 0.417844 0
M  V30 2148 C 203.747 1.65591 1.16559 0
M  V30 2149 C 204.075 0.381565 1.90721 0
M  V30 2150 O 203.33 -0.635156 1.85106 0
M  V30 2151 C 203.629 2.82269 2.19223 0
M  V30 2152 C 203.295 4.20819 1.61933 0
M  V30 2153 C 201.957 4.58506 1.46033 0
M  V30 2154 C 204.309 5.07196 1.20008 0
M  V30 2155 C 201.637 5.80257 0.867113 0
M  V30 2156 C 203.989 6.29544 0.621086 0
M  V30 2157 C 202.653 6.65987 0.449144 0
M  V30 2158 H 201.923 0.605939 0.42652 0
M  V30 2159 H 204.57 1.86041 0.45397 0
M  V30 2160 H 202.875 2.56118 2.96498 0
M  V30 2161 H 204.572 2.90012 2.76936 0
M  V30 2162 H 201.162 3.91116 1.7529 0
M  V30 2163 H 205.346 4.7867 1.31105 0
M  V30 2164 H 200.602 6.07124 0.721833 0
M  V30 2165 H 204.776 6.95805 0.287798 0
M  V30 2166 H 202.403 7.60199 -0.012632 0
M  V30 2167 N 203.978 -0.674533 1.42435 0
M  V30 2168 C 204.926 -1.80934 1.46169 0
M  V30 2169 C 205.92 -1.66006 0.3374 0
M  V30 2170 O 207.126 -1.72611 0.510425 0
M  V30 2171 H 203.501 -0.596594 0.457798 0
M  V30 2172 H 205.472 -1.74903 2.41767 0
M  V30 2173 C 204.221 -3.19088 1.38123 0
M  V30 2174 H 203.544 -3.31203 2.23931 0
M  V30 2175 H 204.984 -3.9851 1.44797 0
M  V30 2176 C 203.443 -3.36763 0.0960517 0
M  V30 2177 O 203.973 -3.92581 -0.851073 0
M  V30 2178 N 202.179 -2.90597 0.0131186 0
M  V30 2179 H 201.726 -2.45359 0.784639 0
M  V30 2180 H 201.684 -3.028 -0.846133 0
M  V30 2181 N 205.456 -1.28612 -0.910864 0
M  V30 2182 C 206.702 -1.16106 -1.66274 0
M  V30 2183 C 207.035 0.289113 -1.92036 0
M  V30 2184 O 206.31 1.21 -1.52281 0
M  V30 2185 C 206.593 -1.96309 -3.01885 0
M  V30 2186 C 206.446 -3.49405 -2.8326 0
M  V30 2187 C 207.765 -1.78076 -4.02463 0
M  V30 2188 H 204.884 -0.423152 -0.603417 0
M  V30 2189 H 207.526 -1.57961 -1.05586 0
M  V30 2190 H 205.676 -1.60742 -3.53687 0
M  V30 2191 H 207.348 -3.94894 -2.38446 0
M  V30 2192 H 205.591 -3.74893 -2.18261 0
M  V30 2193 H 206.262 -4.00784 -3.79574 0
M  V30 2194 H 208.738 -2.0912 -3.59733 0
M  V30 2195 H 207.614 -2.36561 -4.95308 0
M  V30 2196 H 207.875 -0.733008 -4.35981 0
M  V30 2197 N 206.934 1.1197 -1.10907 0
M  V30 2198 C 208.162 1.87402 -0.876824 0
M  V30 2199 C 208.577 1.79894 0.573025 0
M  V30 2200 O 207.934 1.17629 1.39534 0
M  V30 2201 C 207.985 3.36428 -1.32282 0
M  V30 2202 O 207.706 3.43765 -2.71582 0
M  V30 2203 C 209.207 4.28783 -1.12518 0
M  V30 2204 H 206.427 0.592793 -0.314384 0
M  V30 2205 H 208.971 1.41649 -1.47499 0
M  V30 2206 H 207.126 3.79706 -0.768229 0
M  V30 2207 H 207.54 4.3652 -2.90776 0
M  V30 2208 H 209.014 5.31613 -1.48633 0
M  V30 2209 H 209.491 4.39153 -0.0642394 0
M  V30 2210 H 210.097 3.91291 -1.66648 0
M  V30 2211 N 208.412 0.89855 1.29475 0
M  V30 2212 C 209.689 0.443416 1.90508 0
M  V30 2213 C 210.069 -1.07685 1.81569 0
M  V30 2214 O 209.417 -1.9182 1.24166 0
M  V30 2215 C 209.627 0.956708 3.35631 0
M  V30 2216 C 210.975 0.999728 4.12663 0
M  V30 2217 O 211.999 0.904299 3.4453 0
M  V30 2218 O 210.858 1.14289 5.34416 0
M  V30 2219 H 207.952 0.138025 0.815401 0
M  V30 2220 H 210.498 0.98834 1.37949 0
M  V30 2221 H 209.27 2.00067 3.36287 0
M  V30 2222 H 208.893 0.391728 3.95666 0
M  V30 2223 N 209.89 -1.43072 0.660911 0
M  V30 2224 C 211.136 -2.0202 0.177708 0
M  V30 2225 C 211.469 -1.52066 -1.20787 0
M  V30 2226 O 210.744 -0.716987 -1.80802 0
M  V30 2227 C 211.027 -3.59561 0.197019 0
M  V30 2228 C 210.88 -4.19727 1.61706 0
M  V30 2229 C 212.199 -4.37664 -0.462396 0
M  V30 2230 H 209.318 -0.734034 0.0660494 0
M  V30 2231 H 211.96 -1.70272 0.843058 0
M  V30 2232 H 210.11 -3.86739 -0.369527 0
M  V30 2233 H 211.782 -4.03553 2.23479 0
M  V30 2234 H 210.025 -3.76084 2.16201 0
M  V30 2235 H 210.696 -5.28834 1.58237 0
M  V30 2236 H 213.172 -4.16095 0.0197215 0
M  V30 2237 H 212.048 -5.47305 -0.418188 0
M  V30 2238 H 212.309 -4.14493 -1.53778 0
M  V30 2239 N 211.368 -0.403325 -1.52352 0
M  V30 2240 C 212.298 0.416205 -2.29761 0
M  V30 2241 C 213.279 1.05123 -1.33728 0
M  V30 2242 O 214.464 1.06134 -1.62632 0
M  V30 2243 C 211.594 1.53624 -3.11475 0
M  V30 2244 C 210.548 1.02653 -4.15507 0
M  V30 2245 C 209.874 2.23971 -4.85532 0
M  V30 2246 C 211.174 0.08463 -5.22231 0
M  V30 2247 H 212.868 -0.229701 -2.98518 0
M  V30 2248 H 210.414 -0.111913 -1.43564 0
M  V30 2249 H 212.367 2.1165 -3.64393 0
M  V30 2250 H 211.091 2.20994 -2.40477 0
M  V30 2251 H 209.75 0.46871 -3.63591 0
M  V30 2252 H 209.398 2.89883 -4.11068 0
M  V30 2253 H 209.098 1.90521 -5.55856 0
M  V30 2254 H 210.622 2.82614 -5.41259 0
M  V30 2255 H 212.036 0.573509 -5.70424 0
M  V30 2256 H 210.433 -0.160783 -5.99885 0
M  V30 2257 H 211.503 -0.86237 -4.7717 0
M  V30 2258 N 212.846 1.57033 -0.133567 0
M  V30 2259 C 214.074 2.00044 0.528195 0
M  V30 2260 C 214.489 1.01349 1.59291 0
M  V30 2261 O 213.846 0.00848369 1.82498 0
M  V30 2262 C 213.897 3.43018 1.1411 0
M  V30 2263 O 213.618 4.37939 0.11892 0
M  V30 2264 C 215.119 4.01237 1.88477 0
M  V30 2265 H 212.339 0.656517 0.138661 0
M  V30 2266 H 214.883 2.03267 -0.224196 0
M  V30 2267 H 213.038 3.40688 1.84418 0
M  V30 2268 H 213.452 5.21436 0.56613 0
M  V30 2269 H 214.926 5.03314 2.26669 0
M  V30 2270 H 215.403 3.41193 2.76558 0
M  V30 2271 H 216.009 4.07156 1.22898 0
M  V30 2272 N 214.325 -0.140222 1.56975 0
M  V30 2273 C 215.736 -0.699596 1.73097 0
M  V30 2274 C 216.087 -1.8134 0.749022 0
M  V30 2275 O 215.212 -2.16241 -0.0828503 0
M  V30 2276 C 215.807 -1.27582 3.1386 0
M  V30 2277 C 214.366 -1.78169 3.31561 0
M  V30 2278 C 213.513 -0.672855 2.69013 0
M  V30 2279 H 216.464 0.0855115 1.58469 0
M  V30 2280 H 216.485 -2.14561 3.14235 0
M  V30 2281 H 215.997 -0.464955 3.85305 0
M  V30 2282 H 214.098 -2.61801 2.65124 0
M  V30 2283 H 214.211 -1.90574 4.39566 0
M  V30 2284 H 212.575 -1.10118 2.29665 0
M  V30 2285 H 213.358 0.126679 3.43066 0
M  V30 2286 N 215.803 -1.52179 -0.40978 0
M  V30 2287 C 216.766 -1.74853 -1.48186 0
M  V30 2288 C 217.766 -0.618417 -1.48433 0
M  V30 2289 O 218.956 -0.886286 -1.49969 0
M  V30 2290 C 216.088 -1.8303 -2.87598 0
M  V30 2291 H 217.281 -2.70559 -1.29374 0
M  V30 2292 H 214.834 -1.42586 -0.640233 0
M  V30 2293 H 215.569 -0.89236 -3.11781 0
M  V30 2294 H 215.354 -2.65187 -2.88822 0
M  V30 2295 H 216.844 -2.02316 -3.65319 0
M  V30 2296 N 217.281 0.66697 -1.42791 0
M  V30 2297 C 218.213 1.7925 -1.42836 0
M  V30 2298 C 219.226 1.59496 -0.326333 0
M  V30 2299 O 220.415 1.6847 -0.589916 0
M  V30 2300 C 217.515 3.16476 -1.21229 0
M  V30 2301 C 216.688 3.63011 -2.44013 0
M  V30 2302 C 215.747 4.78993 -2.17834 0
M  V30 2303 O 214.773 4.89137 -2.91091 0
M  V30 2304 N 215.975 5.68248 -1.18635 0
M  V30 2305 H 218.74 1.79695 -2.39854 0
M  V30 2306 H 216.301 0.850338 -1.37771 0
M  V30 2307 H 218.293 3.91734 -1.01621 0
M  V30 2308 H 216.863 3.10884 -0.32706 0
M  V30 2309 H 216.083 2.78346 -2.79137 0
M  V30 2310 H 217.371 3.90845 -3.25757 0
M  V30 2311 H 216.769 5.62712 -0.580615 0
M  V30 2312 H 215.326 6.43285 -1.05013 0
M  V30 2313 N 218.759 1.29093 0.90403 0
M  V30 2314 C 219.689 1.16401 2.02418 0
M  V30 2315 C 220.67 0.0593085 1.69997 0
M  V30 2316 O 221.855 0.238021 1.92736 0
M  V30 2317 C 218.985 0.835233 3.37107 0
M  V30 2318 C 217.939 1.89578 3.83724 0
M  V30 2319 C 217.265 1.42041 5.15489 0
M  V30 2320 C 218.565 3.30394 4.04521 0
M  V30 2321 H 220.259 2.10109 2.13295 0
M  V30 2322 H 217.805 1.01157 1.02486 0
M  V30 2323 H 219.758 0.733169 4.14973 0
M  V30 2324 H 218.482 -0.137543 3.2631 0
M  V30 2325 H 217.141 1.98715 3.08071 0
M  V30 2326 H 216.789 0.436426 5.01103 0
M  V30 2327 H 216.489 2.12964 5.4765 0
M  V30 2328 H 218.013 1.33176 5.959 0
M  V30 2329 H 219.427 3.24123 4.72882 0
M  V30 2330 H 217.824 3.99237 4.48029 0
M  V30 2331 H 218.894 3.73692 3.09002 0
M  V30 2332 N 220.237 -1.11381 1.11499 0
M  V30 2333 C 221.185 -2.19522 0.768956 0
M  V30 2334 C 222.179 -1.67693 -0.239857 0
M  V30 2335 O 223.385 -1.79727 -0.0990755 0
M  V30 2336 H 219.76 -0.715711 0.230786 0
M  V30 2337 H 221.731 -2.45954 1.68964 0
M  V30 2338 C 220.48 -3.46945 0.229073 0
M  V30 2339 H 219.803 -3.8718 0.996596 0
M  V30 2340 H 221.243 -4.23993 0.0251441 0
M  V30 2341 C 219.702 -3.2042 -1.04079 0
M  V30 2342 O 220.232 -3.41178 -2.12038 0
M  V30 2343 N 218.438 -2.74151 -0.963823 0
M  V30 2344 H 217.985 -2.57459 -0.0851722 0
M  V30 2345 H 217.943 -2.56781 -1.81414 0
M  V30 2346 N 221.715 -0.905404 -1.28997 0
M  V30 2347 C 222.961 -0.535039 -1.95615 0
M  V30 2348 C 223.294 0.917404 -1.71165 0
M  V30 2349 O 222.569 1.65123 -1.02785 0
M  V30 2350 C 222.852 -0.834918 -3.50287 0
M  V30 2351 C 222.705 -2.33948 -3.84172 0
M  V30 2352 C 224.024 -0.325318 -4.38896 0
M  V30 2353 H 221.143 -0.195861 -0.710498 0
M  V30 2354 H 223.785 -1.13313 -1.52513 0
M  V30 2355 H 221.935 -0.325904 -3.87131 0
M  V30 2356 H 223.607 -2.91847 -3.57243 0
M  V30 2357 H 221.85 -2.79789 -3.31513 0
M  V30 2358 H 222.521 -2.49987 -4.92149 0
M  V30 2359 H 224.997 -0.761256 -4.09077 0
M  V30 2360 H 223.873 -0.564295 -5.45992 0
M  V30 2361 H 224.134 0.774144 -4.35269 0
M  V30 2362 N 223.193 1.4272 -0.668489 0
M  V30 2363 C 224.123 2.335 -0.000100175 0
M  V30 2364 C 225.104 1.50328 0.795964 0
M  V30 2365 O 226.289 1.78949 0.754385 0
M  V30 2366 C 223.419 3.33874 0.956302 0
M  V30 2367 C 222.373 4.27152 0.269278 0
M  V30 2368 C 221.699 5.17684 1.33818 0
M  V30 2369 C 222.999 5.15373 -0.847805 0
M  V30 2370 H 224.693 2.89639 -0.758244 0
M  V30 2371 H 222.239 1.39269 -0.366079 0
M  V30 2372 H 224.192 3.9629 1.43292 0
M  V30 2373 H 222.916 2.76025 1.74579 0
M  V30 2374 H 221.575 3.66123 -0.187042 0
M  V30 2375 H 221.223 4.56165 2.1195 0
M  V30 2376 H 220.923 5.80918 0.883659 0
M  V30 2377 H 222.447 5.82974 1.81586 0
M  V30 2378 H 223.861 5.7151 -0.452681 0
M  V30 2379 H 222.258 5.87407 -1.22773 0
M  V30 2380 H 223.328 4.5415 -1.69929 0
M  V30 2381 N 224.671 0.411399 1.52136 0
M  V30 2382 C 225.896 -0.165538 2.06738 0
M  V30 2383 C 226.321 -1.379 1.27926 0
M  V30 2384 O 225.679 -1.78628 0.310114 0
M  V30 2385 C 225.727 -0.492124 3.57226 0
M  V30 2386 O 224.831 -1.58276 3.80818 0
M  V30 2387 H 224.172 -0.0132132 0.663869 0
M  V30 2388 H 226.702 0.585253 1.96051 0
M  V30 2389 H 226.712 -0.750104 4.01045 0
M  V30 2390 H 225.387 0.394922 4.14021 0
M  V30 2391 H 223.964 -1.31677 3.48877 0
M  V30 2392 N 226.149 -1.5696 0.141893 0
M  V30 2393 C 227.096 -2.16501 -0.799737 0
M  V30 2394 C 228.066 -1.09643 -1.24771 0
M  V30 2395 O 229.251 -1.3766 -1.32115 0
M  V30 2396 C 226.391 -2.78679 -2.03549 0
M  V30 2397 C 225.504 -3.99914 -1.6338 0
M  V30 2398 C 224.639 -4.50106 -2.82096 0
M  V30 2399 C 223.678 -5.63819 -2.38275 0
M  V30 2400 N 222.815 -6.08651 -3.49983 0
M  V30 2401 H 227.655 -2.96632 -0.285179 0
M  V30 2402 H 225.192 -1.46533 -0.129053 0
M  V30 2403 H 227.15 -3.1287 -2.75986 0
M  V30 2404 H 225.78 -2.012 -2.52425 0
M  V30 2405 H 224.832 -3.71735 -0.807279 0
M  V30 2406 H 226.144 -4.82311 -1.27192 0
M  V30 2407 H 225.298 -4.86325 -3.62729 0
M  V30 2408 H 224.037 -3.66706 -3.21525 0
M  V30 2409 H 223.042 -5.2718 -1.56081 0
M  V30 2410 H 224.267 -6.49 -1.99938 0
M  V30 2411 H 222.213 -5.28188 -3.89042 0
M  V30 2412 H 222.13 -6.85961 -3.17794 0
M  V30 2413 H 223.398 -6.49515 -4.30988 0
M  V30 2414 N 227.627 0.131896 -1.57047 0
M  V30 2415 C 228.852 0.860418 -1.8871 0
M  V30 2416 C 229.277 1.73251 -0.73251 0
M  V30 2417 O 228.635 1.785 0.317429 0
M  V30 2418 C 228.683 1.68047 -3.19049 0
M  V30 2419 O 227.787 2.7862 -3.04047 0
M  V30 2420 H 227.128 0.238743 -0.619595 0
M  V30 2421 H 229.658 0.118169 -2.04258 0
M  V30 2422 H 229.668 2.07238 -3.51449 0
M  V30 2423 H 228.343 1.04018 -4.02682 0
M  V30 2424 H 226.92 2.42726 -2.83088 0
M  V30 2425 N 229.106 1.52395 0.401703 0
M  V30 2426 C 230.331 1.70972 1.17403 0
M  V30 2427 C 230.756 0.421615 1.83314 0
M  V30 2428 O 230.114 -0.621564 1.70312 0
M  V30 2429 C 230.162 2.85151 2.20728 0
M  V30 2430 O 229.266 2.51238 3.27037 0
M  V30 2431 H 228.607 0.568927 0.342372 0
M  V30 2432 H 231.137 1.99131 0.469891 0
M  V30 2433 H 231.147 3.10279 2.64936 0
M  V30 2434 H 229.822 3.78603 1.7214 0
M  V30 2435 H 228.399 2.36808 2.88057 0
M  V30 2436 N 230.584 -0.659388 1.43143 0
M  V30 2437 C 231.832 -1.41654 1.44147 0
M  V30 2438 C 232.153 -1.94893 0.0645739 0
M  V30 2439 O 231.423 -1.74044 -0.899198 0
M  V30 2440 H 230.003 -0.525708 0.530697 0
M  V30 2441 H 232.665 -0.778097 1.78694 0
M  V30 2442 H 231.761 -2.26195 2.1504 0
M  V30 2443 N 232.062 -1.29571 -0.897171 0
M  V30 2444 C 233.302 -1.18959 -1.66217 0
M  V30 2445 C 233.666 0.254271 -1.90309 0
M  V30 2446 O 234.867 0.483407 -2.64417 0
M  V30 2447 C 233.138 -1.98302 -2.9734 0
M  V30 2448 S 234.697 -2.04253 -3.88364 0
M  V30 2449 H 231.515 -0.424137 -0.570639 0
M  V30 2450 H 234.117 -1.6389 -1.06585 0
M  V30 2451 H 232.821 -3.02342 -2.77521 0
M  V30 2452 H 232.352 -1.53986 -3.62011 0
M  V30 2453 H 234.367 -1.16105 -4.82425 0
M  V30 2454 N 233.54 1.10788 -1.12088 0
M  V30 2455 C 234.503 2.15207 -0.788577 0
M  V30 2456 C 235.503 1.59609 0.195317 0
M  V30 2457 O 236.693 1.74174 -0.0300193 0
M  V30 2458 C 233.825 3.4047 -0.171174 0
M  V30 2459 H 235.018 2.46116 -1.71368 0
M  V30 2460 H 232.571 1.26089 -0.923652 0
M  V30 2461 H 233.306 3.15176 0.763832 0
M  V30 2462 H 233.091 3.82109 -0.879514 0
M  V30 2463 H 234.581 4.17576 0.04496 0
M  V30 2464 N 235.018 0.912232 1.28515 0
M  V30 2465 C 236.248 0.559604 1.98877 0
M  V30 2466 C 236.656 -0.863113 1.68366 0
M  V30 2467 O 235.999 -1.58304 0.931969 0
M  V30 2468 C 236.061 0.68703 3.52874 0
M  V30 2469 C 235.725 2.07901 4.06972 0
M  V30 2470 C 236.722 3.05157 4.20922 0
M  V30 2471 C 234.407 2.39178 4.417 0
M  V30 2472 C 236.401 4.31806 4.68852 0
M  V30 2473 C 234.088 3.66068 4.89324 0
M  V30 2474 C 235.086 4.62195 5.02856 0
M  V30 2475 O 234.774 5.86829 5.49442 0
M  V30 2476 H 234.506 0.212191 0.641834 0
M  V30 2477 H 237.06 1.22712 1.64715 0
M  V30 2478 H 235.29 -0.0375486 3.86682 0
M  V30 2479 H 236.979 0.341727 4.04459 0
M  V30 2480 H 237.745 2.82311 3.94367 0
M  V30 2481 H 233.624 1.65109 4.30418 0
M  V30 2482 H 237.168 5.06842 4.79329 0
M  V30 2483 H 233.065 3.88739 5.15318 0
M  V30 2484 H 233.833 5.89597 5.6773 0
M  V30 2485 N 236.496 -1.42363 0.676048 0
M  V30 2486 C 237.428 -2.29164 -0.0404605 0
M  V30 2487 C 238.441 -1.43747 -0.764245 0
M  V30 2488 O 239.63 -1.67453 -0.618195 0
M  V30 2489 C 236.73 -3.21196 -1.08103 0
M  V30 2490 C 235.903 -4.35273 -0.430812 0
M  V30 2491 C 234.962 -5.08017 -1.37133 0
M  V30 2492 O 233.988 -5.62494 -0.87116 0
M  V30 2493 N 235.19 -5.13647 -2.70456 0
M  V30 2494 H 237.955 -2.91298 0.704667 0
M  V30 2495 H 235.516 -1.53303 0.520559 0
M  V30 2496 H 237.508 -3.66728 -1.71152 0
M  V30 2497 H 236.078 -2.60505 -1.72788 0
M  V30 2498 H 235.298 -3.92372 0.379209 0
M  V30 2499 H 236.586 -5.08795 0.0221132 0
M  V30 2500 H 235.984 -4.708 -3.1363 0
M  V30 2501 H 234.541 -5.62821 -3.28749 0
M  V30 2502 N 237.974 -0.419461 -1.51915 0
M  V30 2503 C 239.251 0.211999 -1.94448 0
M  V30 2504 C 239.631 1.61703 -1.35703 0
M  V30 2505 O 238.979 2.22102 -0.536931 0
M  V30 2506 C 239.189 0.207872 -3.4838 0
M  V30 2507 C 240.537 0.422192 -4.22496 0
M  V30 2508 O 241.561 0.286778 -3.55044 0
M  V30 2509 O 240.42 0.690009 -5.42126 0
M  V30 2510 H 237.514 0.139586 -0.815135 0
M  V30 2511 H 240.06 -0.476151 -1.62883 0
M  V30 2512 H 238.832 -0.775102 -3.83546 0
M  V30 2513 H 238.455 0.939688 -3.86336 0
M  V30 2514 N 239.452 1.56882 -0.150215 0
M  V30 2515 C 240.698 1.96518 0.500834 0
M  V30 2516 C 241.031 1.03527 1.64304 0
M  V30 2517 O 240.306 0.0782751 1.94342 0
M  V30 2518 C 240.589 3.45822 1.00395 0
M  V30 2519 C 240.442 4.49591 -0.136983 0
M  V30 2520 C 241.761 3.97704 1.88467 0
M  V30 2521 H 238.88 0.714535 0.18058 0
M  V30 2522 H 241.522 1.88577 -0.232091 0
M  V30 2523 H 239.672 3.5272 1.62851 0
M  V30 2524 H 241.344 4.5477 -0.77343 0
M  V30 2525 H 239.587 4.26441 -0.795652 0
M  V30 2526 H 240.258 5.51402 0.256815 0
M  V30 2527 H 242.734 3.93304 1.35834 0
M  V30 2528 H 241.61 5.0263 2.20578 0
M  V30 2529 H 241.871 3.40252 2.82279 0
M  V30 2530 N 240.93 -0.123565 1.57115 0
M  V30 2531 C 242.178 -0.83051 1.84247 0
M  V30 2532 C 242.499 -1.80629 0.73471 0
M  V30 2533 O 241.769 -1.94403 -0.241688 0
M  V30 2534 H 240.349 -0.309694 0.679778 0
M  V30 2535 H 243.011 -0.111976 1.94578 0
M  V30 2536 H 242.107 -1.37852 2.80006 0
M  V30 2537 N 242.408 -1.52605 -0.393616 0
M  V30 2538 C 243.654 -1.67672 -1.14079 0
M  V30 2539 C 243.987 -0.413121 -1.89755 0
M  V30 2540 O 243.262 0.588952 -1.85369 0
M  V30 2541 C 243.545 -2.9088 -2.12276 0
M  V30 2542 C 243.398 -4.27329 -1.40394 0
M  V30 2543 C 244.717 -3.09628 -3.12759 0
M  V30 2544 H 241.836 -0.610168 -0.413356 0
M  V30 2545 H 244.478 -1.85193 -0.424696 0
M  V30 2546 H 242.628 -2.76073 -2.73342 0
M  V30 2547 H 244.3 -4.53894 -0.82327 0
M  V30 2548 H 242.543 -4.2802 -0.705801 0
M  V30 2549 H 243.214 -5.09615 -2.12123 0
M  V30 2550 H 245.69 -3.23436 -2.61779 0
M  V30 2551 H 244.566 -3.97322 -3.78717 0
M  V30 2552 H 244.827 -2.23637 -3.81365 0
M  V30 2553 N 243.887 0.651787 -1.4349 0
M  V30 2554 C 245.115 1.43937 -1.48626 0
M  V30 2555 C 245.53 1.8851 -0.104587 0
M  V30 2556 O 244.887 1.5958 0.885464 0
M  V30 2557 C 244.938 2.6734 -2.43334 0
M  V30 2558 O 244.659 2.24631 -3.76128 0
M  V30 2559 C 246.16 3.60683 -2.57726 0
M  V30 2560 H 243.38 0.44213 -0.504739 0
M  V30 2561 H 245.924 0.798944 -1.88248 0
M  V30 2562 H 244.079 3.2752 -2.06904 0
M  V30 2563 H 244.493 3.04485 -4.2707 0
M  V30 2564 H 245.967 4.43933 -3.28067 0
M  V30 2565 H 246.444 4.08126 -1.62265 0
M  V30 2566 H 247.05 3.06384 -2.94973 0
M  V30 2567 N 245.365 1.30045 0.890287 0
M  V30 2568 C 246.605 1.19839 1.65584 0
M  V30 2569 C 246.969 -0.244175 1.90441 0
M  V30 2570 O 248.17 -0.469378 2.6467 0
M  V30 2571 C 246.441 1.99876 2.96284 0
M  V30 2572 S 248 2.06309 3.87275 0
M  V30 2573 H 244.818 0.427157 0.568382 0
M  V30 2574 H 247.42 1.64453 1.05715 0
M  V30 2575 H 246.124 3.03809 2.75913 0
M  V30 2576 H 245.655 1.55903 3.61189 0
M  V30 2577 H 247.67 1.18661 4.81803 0
M  V30 2578 N 246.843 -1.10192 1.12674 0
M  V30 2579 C 248.254 -1.63707 0.897604 0
M  V30 2580 C 248.605 -1.87812 -0.567546 0
M  V30 2581 O 247.73 -1.62196 -1.43253 0
M  V30 2582 C 248.325 -2.974 1.62292 0
M  V30 2583 C 246.884 -3.47772 1.43986 0
M  V30 2584 C 246.031 -2.22332 1.65722 0
M  V30 2585 H 248.982 -0.936587 1.28116 0
M  V30 2586 H 249.003 -3.64986 1.07541 0
M  V30 2587 H 248.515 -2.79824 2.68924 0
M  V30 2588 H 246.616 -3.70487 0.396206 0
M  V30 2589 H 246.729 -4.25723 2.19765 0
M  V30 2590 H 245.093 -2.30599 1.08149 0
M  V30 2591 H 245.876 -2.07285 2.73657 0
M  V30 2592 N 248.321 -0.919034 -1.28029 0
M  V30 2593 C 249.231 -0.416756 -2.30869 0
M  V30 2594 C 250.247 0.498235 -1.66714 0
M  V30 2595 O 251.423 0.383144 -1.97722 0
M  V30 2596 C 248.488 0.330274 -3.45123 0
M  V30 2597 C 247.549 -0.618578 -4.2482 0
M  V30 2598 C 246.782 0.0928959 -5.33619 0
M  V30 2599 O 247.005 1.31375 -5.55065 0
M  V30 2600 O 245.939 -0.574499 -5.99152 0
M  V30 2601 H 249.765 -1.27043 -2.75851 0
M  V30 2602 H 247.35 -0.684052 -1.3282 0
M  V30 2603 H 249.232 0.751972 -4.14636 0
M  V30 2604 H 247.907 1.1597 -3.02213 0
M  V30 2605 H 246.814 -1.08978 -3.57875 0
M  V30 2606 H 248.147 -1.41497 -4.71423 0
M  V30 2607 N 249.799 1.42003 -0.683588 0
M  V30 2608 C 250.731 2.29183 0.0283068 0
M  V30 2609 C 251.744 1.4415 0.756611 0
M  V30 2610 O 252.933 1.67779 0.609306 0
M  V30 2611 C 250.033 3.21765 1.06398 0
M  V30 2612 C 249.206 4.35496 0.407723 0
M  V30 2613 C 248.265 5.08737 1.34437 0
M  V30 2614 O 247.291 5.62948 0.841318 0
M  V30 2615 N 248.493 5.15075 2.67728 0
M  V30 2616 H 251.258 2.9092 -0.720105 0
M  V30 2617 H 248.819 1.53025 -0.528682 0
M  V30 2618 H 250.811 3.6763 1.69204 0
M  V30 2619 H 249.381 2.61418 1.71404 0
M  V30 2620 H 248.601 3.92165 -0.400012 0
M  V30 2621 H 249.889 5.08776 -0.0490956 0
M  V30 2622 H 249.287 4.72457 3.11129 0
M  V30 2623 H 247.844 5.64556 3.2576 0
M  V30 2624 N 251.277 0.427512 1.51691 0
M  V30 2625 C 252.554 -0.201684 1.94557 0
M  V30 2626 C 252.934 -1.60981 1.36559 0
M  V30 2627 O 252.282 -2.21814 0.548702 0
M  V30 2628 C 252.492 -0.189394 3.48486 0
M  V30 2629 C 253.84 -0.39978 4.22714 0
M  V30 2630 O 254.864 -0.267945 3.55191 0
M  V30 2631 O 253.723 -0.661249 5.42485 0
M  V30 2632 H 250.817 -0.135261 0.815864 0
M  V30 2633 H 253.363 0.484782 1.62628 0
M  V30 2634 H 252.135 0.795431 3.8313 0
M  V30 2635 H 251.758 -0.919187 3.86829 0
M  V30 2636 N 252.755 -1.56801 0.158532 0
M  V30 2637 C 253.702 -2.17337 -0.776729 0
M  V30 2638 C 254.672 -1.1096 -1.23601 0
M  V30 2639 O 255.857 -1.39054 -1.30647 0
M  V30 2640 C 252.997 -2.80822 -2.00582 0
M  V30 2641 C 252.11 -4.01624 -1.59129 0
M  V30 2642 C 251.245 -4.53072 -2.77306 0
M  V30 2643 C 250.284 -5.66314 -2.32282 0
M  V30 2644 N 249.421 -6.12329 -3.43508 0
M  V30 2645 H 254.261 -2.96918 -0.253701 0
M  V30 2646 H 251.798 -1.46661 -0.113504 0
M  V30 2647 H 253.756 -3.15779 -2.72652 0
M  V30 2648 H 252.386 -2.03866 -2.50277 0
M  V30 2649 H 251.438 -3.72571 -0.767806 0
M  V30 2650 H 252.75 -4.83633 -1.2207 0
M  V30 2651 H 251.904 -4.90145 -3.57551 0
M  V30 2652 H 250.643 -3.70095 -3.17617 0
M  V30 2653 H 249.648 -5.28806 -1.5048 0
M  V30 2654 H 250.873 -6.51085 -1.93043 0
M  V30 2655 H 248.819 -5.32284 -3.83418 0
M  V30 2656 H 248.736 -6.89293 -3.105 0
M  V30 2657 H 250.004 -6.5405 -4.24075 0
M  V30 2658 N 254.233 0.115231 -1.57178 0
M  V30 2659 C 255.463 0.835224 -1.88964 0
M  V30 2660 C 255.871 1.73774 -0.74829 0
M  V30 2661 O 255.214 1.81401 0.289739 0
M  V30 2662 C 255.276 1.7178 -3.15804 0
M  V30 2663 C 254.94 0.989198 -4.46166 0
M  V30 2664 C 255.937 0.328263 -5.18863 0
M  V30 2665 C 253.622 0.969256 -4.9286 0
M  V30 2666 C 255.616 -0.342873 -6.36477 0
M  V30 2667 C 253.303 0.294324 -6.10391 0
M  V30 2668 C 254.301 -0.360582 -6.82048 0
M  V30 2669 O 253.989 -1.02474 -7.97342 0
M  V30 2670 H 253.721 0.245197 -0.629964 0
M  V30 2671 H 256.275 0.10303 -2.05141 0
M  V30 2672 H 254.505 2.49173 -2.95719 0
M  V30 2673 H 256.194 2.31255 -3.33581 0
M  V30 2674 H 256.96 0.335263 -4.8384 0
M  V30 2675 H 252.839 1.46844 -4.36987 0
M  V30 2676 H 256.383 -0.854629 -6.92345 0
M  V30 2677 H 252.28 0.285099 -6.4487 0
M  V30 2678 H 253.048 -0.929594 -8.13204 0
M  V30 2679 N 255.711 1.52812 0.385517 0
M  V30 2680 C 257.127 1.4214 0.725829 0
M  V30 2681 C 257.327 0.544589 1.94001 0
M  V30 2682 O 256.383 0.0193693 2.52493 0
M  V30 2683 C 257.696 2.85042 0.957668 0
M  V30 2684 C 259.244 2.94543 1.05892 0
M  V30 2685 C 259.719 4.38464 1.32337 0
M  V30 2686 N 261.21 4.41804 1.39151 0
M  V30 2687 C 261.945 5.5025 1.61285 0
M  V30 2688 N 261.441 6.68775 1.80866 0
M  V30 2689 N 263.234 5.37798 1.63492 0
M  V30 2690 H 255.385 2.08338 -0.413383 0
M  V30 2691 H 257.648 0.940016 -0.122775 0
M  V30 2692 H 257.354 3.51431 0.137568 0
M  V30 2693 H 257.228 3.27505 1.87137 0
M  V30 2694 H 259.615 2.28321 1.86959 0
M  V30 2695 H 259.696 2.55504 0.123057 0
M  V30 2696 H 259.34 5.05254 0.517793 0
M  V30 2697 H 259.27 4.75059 2.27214 0
M  V30 2698 H 261.761 3.56377 1.25713 0
M  V30 2699 H 262.074 7.47197 1.97271 0
M  V30 2700 H 260.419 6.71797 1.78083 0
M  V30 2701 H 263.61 4.44171 1.47749 0
M  V30 2702 H 263.783 6.22382 1.80402 0
M  V30 2703 N 257.189 -0.644168 1.43834 0
M  V30 2704 C 258.417 -1.43147 1.49387 0
M  V30 2705 C 258.832 -1.88452 0.114583 0
M  V30 2706 O 258.189 -1.60047 -0.876989 0
M  V30 2707 C 258.24 -2.66046 2.44748 0
M  V30 2708 O 257.961 -2.22633 3.77314 0
M  V30 2709 C 259.462 -3.59311 2.59635 0
M  V30 2710 H 256.682 -0.439447 0.507077 0
M  V30 2711 H 259.226 -0.78895 1.88669 0
M  V30 2712 H 257.381 -3.26418 2.08638 0
M  V30 2713 H 257.795 -3.02216 4.28679 0
M  V30 2714 H 259.269 -4.42187 3.30416 0
M  V30 2715 H 259.746 -4.07259 1.64427 0
M  V30 2716 H 260.352 -3.04816 2.96593 0
M  V30 2717 N 258.668 -1.30515 -0.883378 0
M  V30 2718 C 259.917 -1.18795 -1.63005 0
M  V30 2719 C 260.23 0.255923 -1.93919 0
M  V30 2720 O 261.436 0.494654 -2.66956 0
M  V30 2721 C 259.892 -2.07878 -2.93794 0
M  V30 2722 C 259.5 -3.57184 -2.70414 0
M  V30 2723 C 261.244 -2.04924 -3.71761 0
M  V30 2724 C 259.151 -4.38317 -3.97029 0
M  V30 2725 H 258.081 -0.441031 -0.611562 0
M  V30 2726 H 260.732 -1.55275 -0.977854 0
M  V30 2727 H 259.114 -1.64283 -3.60315 0
M  V30 2728 H 260.288 -4.08937 -2.12384 0
M  V30 2729 H 258.603 -3.61976 -2.0582 0
M  V30 2730 H 261.2 -2.62792 -4.65665 0
M  V30 2731 H 261.543 -1.0331 -4.03277 0
M  V30 2732 H 262.076 -2.46649 -3.12104 0
M  V30 2733 H 258.815 -5.40632 -3.70671 0
M  V30 2734 H 258.335 -3.91326 -4.54559 0
M  V30 2735 H 260.014 -4.49834 -4.65036 0
M  V30 2736 N 260.146 1.09593 -1.13257 0
M  V30 2737 C 261.374 1.855 -0.916378 0
M  V30 2738 C 261.789 1.81069 0.534738 0
M  V30 2739 O 261.146 1.20562 1.37007 0
M  V30 2740 C 261.197 3.33546 -1.39388 0
M  V30 2741 O 260.918 3.37927 -2.78813 0
M  V30 2742 C 262.419 4.26299 -1.21588 0
M  V30 2743 H 259.639 0.585991 -0.326887 0
M  V30 2744 H 262.183 1.38488 -1.5047 0
M  V30 2745 H 260.338 3.77992 -0.848597 0
M  V30 2746 H 260.752 4.30254 -2.9997 0
M  V30 2747 H 262.226 5.28341 -1.59876 0
M  V30 2748 H 262.703 4.38918 -0.157376 0
M  V30 2749 H 263.309 3.87668 -1.7491 0
M  V30 2750 N 261.624 0.925811 1.2754 0
M  V30 2751 C 262.872 0.564138 1.94067 0
M  V30 2752 C 263.193 -0.897188 1.73134 0
M  V30 2753 O 262.463 -1.63573 1.07799 0
M  V30 2754 H 261.043 0.205645 0.718136 0
M  V30 2755 H 263.705 1.1778 1.55287 0
M  V30 2756 H 262.801 0.76881 3.02483 0
M  V30 2757 N 263.102 -1.41638 0.69111 0
M  V30 2758 C 264.035 -2.28183 -0.0274913 0
M  V30 2759 C 265.013 -1.41984 -0.792424 0
M  V30 2760 O 266.197 -1.71415 -0.784169 0
M  V30 2761 C 263.324 -3.22135 -1.04628 0
M  V30 2762 C 262.37 -4.24848 -0.375037 0
M  V30 2763 S 263.203 -5.28231 0.879321 0
M  V30 2764 C 264.359 -6.25748 -0.137983 0
M  V30 2765 H 264.592 -2.88782 0.706553 0
M  V30 2766 H 262.125 -1.46709 0.481222 0
M  V30 2767 H 264.083 -3.76797 -1.62894 0
M  V30 2768 H 262.744 -2.6064 -1.75287 0
M  V30 2769 H 261.937 -4.90837 -1.14433 0
M  V30 2770 H 261.539 -3.73758 0.134434 0
M  V30 2771 H 263.831 -6.70188 -0.992659 0
M  V30 2772 H 264.774 -7.06417 0.487867 0
M  V30 2773 H 265.182 -5.62363 -0.490762 0
M  V30 2774 N 264.58 -0.43555 -1.51462 0
M  V30 2775 C 265.82 0.130708 -2.03982 0
M  V30 2776 C 266.184 1.40117 -1.31268 0
M  V30 2777 O 267.385 2.04755 -1.74152 0
M  V30 2778 C 265.656 0.346102 -3.5572 0
M  V30 2779 S 267.215 0.876022 -4.29967 0
M  V30 2780 H 264.033 0.0326881 -0.710248 0
M  V30 2781 H 266.635 -0.594544 -1.8624 0
M  V30 2782 H 265.339 -0.584911 -4.0621 0
M  V30 2783 H 264.87 1.09849 -3.77752 0
M  V30 2784 H 266.885 2.15379 -4.47019 0
M  V30 2785 N 266.058 1.56714 -0.166846 0
M  V30 2786 C 267.006 2.19056 0.782123 0
M  V30 2787 C 268 1.15328 1.24079 0
M  V30 2788 O 269.206 1.33537 1.20697 0
M  V30 2789 H 265.581 0.70167 0.270486 0
M  V30 2790 H 267.552 2.97494 0.232322 0
M  V30 2791 C 266.301 2.84206 2.00306 0
M  V30 2792 H 265.624 3.63748 1.65914 0
M  V30 2793 H 267.064 3.31302 2.64604 0
M  V30 2794 C 265.523 1.83744 2.82382 0
M  V30 2795 O 266.053 1.32014 3.79388 0
M  V30 2796 N 264.259 1.52601 2.47308 0
M  V30 2797 H 263.806 1.9486 1.68485 0
M  V30 2798 H 263.764 0.856351 3.02513 0
M  V30 2799 N 267.536 -0.106894 1.57237 0
M  V30 2800 C 268.484 -1.14944 2.02215 0
M  V30 2801 C 269.478 -1.42167 0.92114 0
M  V30 2802 O 270.684 -1.41987 1.10634 0
M  V30 2803 H 267.059 -0.387841 0.64427 0
M  V30 2804 H 269.03 -0.743683 2.88984 0
M  V30 2805 C 267.779 -2.4647 2.4525 0
M  V30 2806 H 267.102 -2.26363 3.29545 0
M  V30 2807 H 268.542 -3.17948 2.80508 0
M  V30 2808 C 267.001 -3.09921 1.321 0
M  V30 2809 O 267.531 -3.9651 0.643622 0
M  V30 2810 N 265.737 -2.69986 1.07497 0
M  V30 2811 H 265.284 -1.99667 1.62761 0
M  V30 2812 H 265.242 -3.12769 0.319876 0
M  V30 2813 N 269.014 -1.53014 -0.377408 0
M  V30 2814 C 270.43 -1.42523 -0.718281 0
M  V30 2815 C 270.63 -0.55487 -1.9371 0
M  V30 2816 O 269.686 -0.0327593 -2.52479 0
M  V30 2817 C 270.999 -2.85546 -0.942539 0
M  V30 2818 C 272.547 -2.95101 -1.04329 0
M  V30 2819 C 273.022 -4.3916 -1.3001 0
M  V30 2820 N 274.513 -4.42536 -1.36806 0
M  V30 2821 C 275.248 -5.51097 -1.58364 0
M  V30 2822 N 274.744 -6.69724 -1.77317 0
M  V30 2823 N 276.537 -5.38657 -1.60638 0
M  V30 2824 H 268.688 -2.08116 0.424426 0
M  V30 2825 H 270.951 -0.939352 0.127759 0
M  V30 2826 H 270.657 -3.51499 -0.118929 0
M  V30 2827 H 270.531 -3.28493 -1.85397 0
M  V30 2828 H 272.918 -2.29309 -1.85745 0
M  V30 2829 H 272.999 -2.55566 -0.109505 0
M  V30 2830 H 272.643 -5.05521 -0.490991 0
M  V30 2831 H 272.573 -4.76258 -2.24691 0
M  V30 2832 H 275.064 -3.57039 -1.23821 0
M  V30 2833 H 275.377 -7.48233 -1.93306 0
M  V30 2834 H 273.722 -6.72732 -1.74518 0
M  V30 2835 H 276.913 -4.44948 -1.45391 0
M  V30 2836 H 277.086 -6.2333 -1.77098 0
M  V30 2837 N 270.492 0.636531 -1.44174 0
M  V30 2838 C 271.908 0.954104 -1.27941 0
M  V30 2839 C 272.108 2.0039 -0.211248 0
M  V30 2840 O 271.164 2.49236 0.404695 0
M  V30 2841 C 272.477 1.4225 -2.64925 0
M  V30 2842 C 274.025 1.53827 -2.72592 0
M  V30 2843 C 274.5 2.04053 -4.10032 0
M  V30 2844 N 275.991 2.11331 -4.12182 0
M  V30 2845 C 276.726 2.51352 -5.15374 0
M  V30 2846 N 276.222 2.90549 -6.2893 0
M  V30 2847 N 278.015 2.51438 -5.02728 0
M  V30 2848 H 270.166 -0.0578386 -2.12321 0
M  V30 2849 H 272.429 0.0367406 -0.947288 0
M  V30 2850 H 272.135 0.725466 -3.44136 0
M  V30 2851 H 272.009 2.39451 -2.9145 0
M  V30 2852 H 274.396 2.22628 -1.93702 0
M  V30 2853 H 274.477 0.550154 -2.49814 0
M  V30 2854 H 274.121 1.35848 -4.89395 0
M  V30 2855 H 274.051 3.03726 -4.30184 0
M  V30 2856 H 276.542 1.83745 -3.30222 0
M  V30 2857 H 276.855 3.19884 -7.03487 0
M  V30 2858 H 275.2 2.88313 -6.32377 0
M  V30 2859 H 278.391 2.20203 -4.13072 0
M  V30 2860 H 278.564 2.82304 -5.83274 0
M  V30 2861 N 271.97 1.30982 0.876444 0
M  V30 2862 C 273.195 1.23373 1.66715 0
M  V30 2863 C 273.62 -0.19885 1.87046 0
M  V30 2864 O 272.978 -1.1427 1.40756 0
M  V30 2865 C 273.026 1.97644 3.01611 0
M  V30 2866 O 272.13 1.30935 3.91062 0
M  V30 2867 H 271.471 0.426279 0.509099 0
M  V30 2868 H 274.001 1.72944 1.09323 0
M  V30 2869 H 274.011 2.06992 3.51594 0
M  V30 2870 H 272.686 3.01829 2.86133 0
M  V30 2871 H 271.263 1.29996 3.49507 0
M  V30 2872 N 273.449 -1.08991 1.13837 0
M  V30 2873 C 274.86 -1.62746 0.914917 0
M  V30 2874 C 275.211 -1.88403 -0.547594 0
M  V30 2875 O 274.336 -1.63706 -1.41525 0
M  V30 2876 C 274.931 -2.95662 1.65437 0
M  V30 2877 C 273.49 -3.46225 1.47666 0
M  V30 2878 C 272.637 -2.20562 1.6807 0
M  V30 2879 H 275.588 -0.922946 1.29102 0
M  V30 2880 H 275.609 -3.63825 1.11407 0
M  V30 2881 H 275.121 -2.76956 2.71877 0
M  V30 2882 H 273.222 -3.70046 0.435478 0
M  V30 2883 H 273.335 -4.23368 2.24268 0
M  V30 2884 H 271.699 -2.29439 1.10589 0
M  V30 2885 H 272.482 -2.0437 2.7584 0
M  V30 2886 N 274.927 -0.932562 -1.27047 0
M  V30 2887 C 276.155 -0.592031 -1.98249 0
M  V30 2888 C 276.57 0.831062 -1.69525 0
M  V30 2889 O 275.927 1.55299 -0.958561 0
M  V30 2890 C 275.978 -0.814279 -3.5221 0
M  V30 2891 O 275.699 -2.18139 -3.7993 0
M  V30 2892 C 277.2 -0.483121 -4.4066 0
M  V30 2893 H 274.42 -0.223896 -0.632544 0
M  V30 2894 H 276.964 -1.25091 -1.61779 0
M  V30 2895 H 275.119 -0.20213 -3.86872 0
M  V30 2896 H 275.533 -2.235 -4.74498 0
M  V30 2897 H 277.007 -0.689298 -5.47679 0
M  V30 2898 H 277.484 0.581546 -4.35333 0
M  V30 2899 H 278.09 -1.07362 -4.11526 0
M  V30 2900 N 276.405 1.4127 -0.698611 0
M  V30 2901 C 277.335 2.33447 -0.049629 0
M  V30 2902 C 278.316 1.51982 0.763898 0
M  V30 2903 O 279.501 1.80509 0.716257 0
M  V30 2904 C 276.631 3.35828 0.885267 0
M  V30 2905 C 275.585 4.27627 0.178613 0
M  V30 2906 C 274.911 5.20406 1.22807 0
M  V30 2907 C 276.211 5.13459 -0.956933 0
M  V30 2908 H 277.905 2.87966 -0.81951 0
M  V30 2909 H 275.451 1.38461 -0.395538 0
M  V30 2910 H 277.404 3.9924 1.34854 0
M  V30 2911 H 276.128 2.79666 1.68685 0
M  V30 2912 H 274.787 3.65643 -0.26466 0
M  V30 2913 H 274.435 4.60558 2.02226 0
M  V30 2914 H 274.135 5.82661 0.760239 0
M  V30 2915 H 275.659 5.86695 1.69179 0
M  V30 2916 H 277.073 5.70421 -0.573805 0
M  V30 2917 H 275.47 5.8467 -1.35205 0
M  V30 2918 H 276.54 4.50443 -1.79524 0
M  V30 2919 N 277.883 0.443576 1.51229 0
M  V30 2920 C 279.131 -0.120557 2.0174 0
M  V30 2921 C 279.452 -1.42665 1.32935 0
M  V30 2922 O 278.722 -1.9028 0.465866 0
M  V30 2923 H 277.302 -0.0475426 0.745486 0
M  V30 2924 H 279.964 0.587711 1.85828 0
M  V30 2925 H 279.06 -0.291972 3.10731 0
M  V30 2926 N 279.361 -1.56624 0.175154 0
M  V30 2927 C 280.324 -2.16934 -0.739738 0
M  V30 2928 C 281.324 -1.11842 -1.15533 0
M  V30 2929 O 282.514 -1.37335 -1.07167 0
M  V30 2930 C 279.646 -2.75531 -2.00738 0
M  V30 2931 H 280.839 -2.99131 -0.214639 0
M  V30 2932 H 278.392 -1.56123 -0.0744197 0
M  V30 2933 H 279.127 -1.97078 -2.57548 0
M  V30 2934 H 278.912 -3.52444 -1.71831 0
M  V30 2935 H 280.402 -3.21904 -2.66021 0
M  V30 2936 N 280.839 0.0985539 -1.57292 0
M  V30 2937 C 282.064 0.820196 -1.90493 0
M  V30 2938 C 282.489 1.71658 -0.769094 0
M  V30 2939 O 281.847 1.79133 0.279495 0
M  V30 2940 C 281.895 1.61242 -3.22542 0
M  V30 2941 O 280.999 2.72108 -3.09888 0
M  V30 2942 H 280.34 0.225547 -0.62452 0
M  V30 2943 H 282.87 0.0748159 -2.04463 0
M  V30 2944 H 282.88 1.99737 -3.55766 0
M  V30 2945 H 281.555 0.954535 -4.04798 0
M  V30 2946 H 280.132 2.36667 -2.88172 0
M  V30 2947 N 282.317 1.53212 0.369288 0
M  V30 2948 C 283.265 1.80054 1.47253 0
M  V30 2949 C 284.259 0.669456 1.55611 0
M  V30 2950 O 285.465 0.852328 1.58541 0
M  V30 2951 H 281.84 0.570034 0.490475 0
M  V30 2952 H 283.811 2.72403 1.21817 0
M  V30 2953 C 282.56 2.00403 2.84137 0
M  V30 2954 H 281.883 2.86876 2.78464 0
M  V30 2955 H 283.323 2.23164 3.60519 0
M  V30 2956 C 281.782 0.782081 3.27697 0
M  V30 2957 O 282.312 -0.0310205 4.01688 0
M  V30 2958 N 280.518 0.606573 2.84199 0
M  V30 2959 H 280.065 1.26939 2.24152 0
M  V30 2960 H 280.023 -0.20962 3.137 0
M  V30 2961 N 283.795 -0.628877 1.44509 0
M  V30 2962 C 285.211 -0.947305 1.28446 0
M  V30 2963 C 285.411 -2.00275 0.221872 0
M  V30 2964 O 284.467 -2.49447 -0.391471 0
M  V30 2965 C 285.78 -1.40843 2.65676 0
M  V30 2966 C 287.328 -1.52379 2.73404 0
M  V30 2967 C 287.803 -2.01875 4.11109 0
M  V30 2968 N 289.294 -2.09142 4.13296 0
M  V30 2969 C 290.029 -2.48615 5.16699 0
M  V30 2970 N 289.525 -2.87209 6.30462 0
M  V30 2971 N 291.318 -2.48768 5.04054 0
M  V30 2972 H 283.469 0.0690977 2.12288 0
M  V30 2973 H 285.732 -0.0317164 0.947469 0
M  V30 2974 H 285.438 -0.707206 3.44516 0
M  V30 2975 H 285.312 -2.37902 2.92716 0
M  V30 2976 H 287.699 -2.21598 1.9488 0
M  V30 2977 H 287.78 -0.536898 2.50102 0
M  V30 2978 H 287.424 -1.3325 4.90109 0
M  V30 2979 H 287.354 -3.0144 4.31789 0
M  V30 2980 H 289.845 -1.81991 3.31191 0
M  V30 2981 H 290.158 -3.16149 7.05174 0
M  V30 2982 H 288.503 -2.84955 6.33897 0
M  V30 2983 H 291.694 -2.18009 4.14234 0
M  V30 2984 H 291.867 -2.79207 5.84763 0
M  V30 2985 N 285.273 -1.31445 -0.869486 0
M  V30 2986 C 286.236 -1.19094 -1.9583 0
M  V30 2987 C 287.236 -0.117906 -1.60367 0
M  V30 2988 O 288.426 -0.367208 -1.70286 0
M  V30 2989 C 285.558 -0.828165 -3.30688 0
M  V30 2990 H 286.751 -2.15842 -2.08212 0
M  V30 2991 H 284.304 -1.15063 -1.05784 0
M  V30 2992 H 285.039 0.138142 -3.24006 0
M  V30 2993 H 284.824 -1.6038 -3.578 0
M  V30 2994 H 286.314 -0.765658 -4.10521 0
M  V30 2995 N 286.751 1.08385 -1.14413 0
M  V30 2996 C 287.998 1.80776 -0.912482 0
M  V30 2997 C 288.326 1.86236 0.560934 0
M  V30 2998 O 287.581 1.33431 1.43159 0
M  V30 2999 C 287.88 3.26273 -1.45879 0
M  V30 3000 C 287.546 3.4093 -2.95089 0
M  V30 3001 C 286.208 3.44638 -3.35824 0
M  V30 3002 C 288.56 3.44591 -3.91033 0
M  V30 3003 C 285.888 3.49597 -4.71167 0
M  V30 3004 C 288.24 3.51086 -5.26233 0
M  V30 3005 C 286.904 3.53067 -5.6648 0
M  V30 3006 H 286.174 0.661507 -0.333901 0
M  V30 3007 H 288.821 1.27613 -1.42784 0
M  V30 3008 H 287.126 3.82146 -0.864376 0
M  V30 3009 H 288.823 3.80839 -1.2555 0
M  V30 3010 H 285.413 3.38736 -2.62594 0
M  V30 3011 H 289.597 3.40957 -3.60641 0
M  V30 3012 H 284.853 3.49424 -5.0171 0
M  V30 3013 H 289.027 3.52864 -6.00383 0
M  V30 3014 H 286.654 3.56662 -6.71339 0
M  V30 3015 N 288.23 0.939286 1.26551 0
M  V30 3016 C 289.476 0.586715 1.94128 0
M  V30 3017 C 289.809 -0.8717 1.73537 0
M  V30 3018 O 289.084 -1.62339 1.07127 0
M  V30 3019 C 289.367 0.927497 3.4795 0
M  V30 3020 C 289.22 2.44052 3.77834 0
M  V30 3021 C 290.539 0.441569 4.37879 0
M  V30 3022 H 287.658 0.21463 0.705055 0
M  V30 3023 H 290.3 1.17316 1.49455 0
M  V30 3024 H 288.45 0.428431 3.8613 0
M  V30 3025 H 290.122 3.01216 3.4938 0
M  V30 3026 H 288.365 2.8848 3.23978 0
M  V30 3027 H 289.036 2.62947 4.85348 0
M  V30 3028 H 291.512 0.869448 4.06915 0
M  V30 3029 H 290.388 0.708856 5.44304 0
M  V30 3030 H 290.649 -0.658467 4.37169 0
M  V30 3031 N 289.708 -1.40897 0.706093 0
M  V30 3032 C 291.124 -1.55042 0.37869 0
M  V30 3033 C 291.324 -1.67944 -1.11342 0
M  V30 3034 O 290.38 -1.66372 -1.89938 0
M  V30 3035 C 291.693 -2.78398 1.13643 0
M  V30 3036 C 293.241 -2.92206 1.12181 0
M  V30 3037 C 293.716 -4.18463 1.86152 0
M  V30 3038 N 295.207 -4.25443 1.83173 0
M  V30 3039 C 295.942 -5.2202 2.37239 0
M  V30 3040 N 295.438 -6.24563 2.99821 0
M  V30 3041 N 297.231 -5.14033 2.27435 0
M  V30 3042 H 289.382 -1.30769 1.67372 0
M  V30 3043 H 291.645 -0.631653 0.706907 0
M  V30 3044 H 291.351 -2.7511 2.19106 0
M  V30 3045 H 291.225 -3.70228 0.721853 0
M  V30 3046 H 293.612 -2.95004 0.0754171 0
M  V30 3047 H 293.693 -2.01521 1.57554 0
M  V30 3048 H 293.337 -4.16427 2.90776 0
M  V30 3049 H 293.267 -5.08141 1.38206 0
M  V30 3050 H 295.758 -3.51976 1.37556 0
M  V30 3051 H 296.071 -6.94665 3.38616 0
M  V30 3052 H 294.416 -6.25035 3.03902 0
M  V30 3053 H 297.607 -4.3285 1.78208 0
M  V30 3054 H 297.78 -5.89129 2.69873 0
M  V30 3055 N 291.186 -0.45159 -1.50991 0
M  V30 3056 C 292.432 0.102439 -2.03142 0
M  V30 3057 C 292.787 1.39138 -1.32884 0
M  V30 3058 O 292.08 1.86493 -0.439438 0
M  V30 3059 C 292.274 0.361728 -3.55565 0
M  V30 3060 C 292.103 -0.900535 -4.40591 0
M  V30 3061 C 290.873 -1.43821 -4.844 0
M  V30 3062 C 293.071 -1.79063 -4.82121 0
M  V30 3063 N 291.053 -2.65153 -5.53685 0
M  V30 3064 C 292.424 -2.84991 -5.50618 0
M  V30 3065 C 294.479 -1.80334 -4.64095 0
M  V30 3066 C 293.182 -3.92155 -6.02998 0
M  V30 3067 C 295.208 -2.86442 -5.17402 0
M  V30 3068 C 294.57 -3.9109 -5.85857 0
M  V30 3069 H 290.669 -0.00204537 -0.781997 0
M  V30 3070 H 293.253 -0.615446 -1.84717 0
M  V30 3071 H 291.424 1.04865 -3.73976 0
M  V30 3072 H 293.156 0.908372 -3.94374 0
M  V30 3073 H 289.911 -0.990117 -4.63135 0
M  V30 3074 H 290.335 -3.26717 -5.92946 0
M  V30 3075 H 294.977 -1.00753 -4.1062 0
M  V30 3076 H 292.695 -4.72565 -6.55521 0
M  V30 3077 H 296.281 -2.88386 -5.05297 0
M  V30 3078 H 295.161 -4.71845 -6.26364 0
M  V30 3079 N 292.664 1.56529 -0.183458 0
M  V30 3080 C 293.594 2.21549 0.737456 0
M  V30 3081 C 294.575 1.17489 1.23005 0
M  V30 3082 O 295.76 1.45959 1.281 0
M  V30 3083 C 292.89 2.86575 1.96194 0
M  V30 3084 C 291.844 3.96778 1.60473 0
M  V30 3085 C 291.17 4.48911 2.90487 0
M  V30 3086 C 292.47 5.15767 0.823497 0
M  V30 3087 H 294.164 2.98761 0.195453 0
M  V30 3088 H 291.71 1.43702 0.0925686 0
M  V30 3089 H 293.663 3.30739 2.61131 0
M  V30 3090 H 292.387 2.06749 2.52828 0
M  V30 3091 H 291.046 3.53286 0.978997 0
M  V30 3092 H 290.694 3.65862 3.45186 0
M  V30 3093 H 290.394 5.23265 2.67335 0
M  V30 3094 H 291.918 4.95771 3.56432 0
M  V30 3095 H 293.332 5.56549 1.37571 0
M  V30 3096 H 291.729 5.96114 0.690551 0
M  V30 3097 H 292.799 4.84574 -0.177782 0
M  V30 3098 N 294.142 -0.090211 1.57342 0
M  V30 3099 C 295.553 -0.644173 1.75235 0
M  V30 3100 C 295.904 -1.78865 0.806335 0
M  V30 3101 O 295.029 -2.16395 -0.0140128 0
M  V30 3102 C 295.624 -1.17532 3.1776 0
M  V30 3103 C 294.183 -1.67531 3.37061 0
M  V30 3104 C 293.33 -0.58693 2.71017 0
M  V30 3105 H 296.281 0.135884 1.58117 0
M  V30 3106 H 296.302 -2.04455 3.20902 0
M  V30 3107 H 295.814 -0.342138 3.86589 0
M  V30 3108 H 293.915 -2.53234 2.73319 0
M  V30 3109 H 294.028 -1.76493 4.45406 0
M  V30 3110 H 292.392 -1.02756 2.33052 0
M  V30 3111 H 293.175 0.235758 3.4249 0
M  V30 3112 N 295.62 -1.53406 -0.361157 0
M  V30 3113 C 296.583 -1.79479 -1.42548 0
M  V30 3114 C 297.583 -0.665327 -1.4639 0
M  V30 3115 O 298.773 -0.933549 -1.47073 0
M  V30 3116 C 295.905 -1.92087 -2.8163 0
M  V30 3117 H 297.098 -2.74538 -1.20701 0
M  V30 3118 H 294.651 -1.4455 -0.594546 0
M  V30 3119 H 295.386 -0.991099 -3.08784 0
M  V30 3120 H 295.171 -2.74241 -2.80239 0
M  V30 3121 H 296.661 -2.13836 -3.58697 0
M  V30 3122 N 297.098 0.621204 -1.44841 0
M  V30 3123 C 298.008 1.7612 -1.5498 0
M  V30 3124 C 299.024 1.68477 -0.434927 0
M  V30 3125 O 300.2 1.89076 -0.693693 0
M  V30 3126 C 297.265 3.1254 -1.50065 0
M  V30 3127 C 296.326 3.31741 -2.72482 0
M  V30 3128 C 295.559 4.61653 -2.67792 0
M  V30 3129 O 295.782 5.431 -1.74352 0
M  V30 3130 O 294.716 4.83271 -3.58794 0
M  V30 3131 H 298.542 1.70518 -2.51311 0
M  V30 3132 H 296.127 0.783643 -1.27198 0
M  V30 3133 H 298.009 3.93844 -1.49882 0
M  V30 3134 H 296.684 3.18663 -0.568806 0
M  V30 3135 H 295.591 2.50077 -2.7823 0
M  V30 3136 H 296.924 3.30486 -3.64746 0
M  V30 3137 N 298.576 1.31904 0.862503 0
M  V30 3138 C 299.806 1.24817 1.64634 0
M  V30 3139 C 300.214 -0.187579 1.88268 0
M  V30 3140 O 299.557 -1.13253 1.44635 0
M  V30 3141 C 299.619 1.92996 3.03303 0
M  V30 3142 C 299.283 3.42336 3.02746 0
M  V30 3143 C 300.28 4.37956 2.80162 0
M  V30 3144 C 297.965 3.84147 3.2363 0
M  V30 3145 C 299.959 5.73361 2.78453 0
M  V30 3146 C 297.646 5.19663 3.21549 0
M  V30 3147 C 298.644 6.14081 2.98988 0
M  V30 3148 O 298.332 7.47118 2.96766 0
M  V30 3149 H 298.064 0.432222 0.519769 0
M  V30 3150 H 300.618 1.7445 1.08427 0
M  V30 3151 H 298.848 1.37922 3.61268 0
M  V30 3152 H 300.537 1.79723 3.63943 0
M  V30 3153 H 301.303 4.06981 2.63802 0
M  V30 3154 H 297.182 3.11083 3.40218 0
M  V30 3155 H 300.726 6.4703 2.60763 0
M  V30 3156 H 296.623 5.5027 3.37451 0
M  V30 3157 H 297.391 7.56382 3.12775 0
M  V30 3158 N 300.054 -1.07777 1.14986 0
M  V30 3159 C 300.964 -2.18404 0.856546 0
M  V30 3160 C 301.98 -1.73211 -0.165485 0
M  V30 3161 O 303.156 -2.01399 0.00755219 0
M  V30 3162 C 300.221 -3.44977 0.34526 0
M  V30 3163 C 299.282 -4.0476 1.43065 0
M  V30 3164 C 298.515 -5.25291 0.943663 0
M  V30 3165 O 298.738 -5.70004 -0.212426 0
M  V30 3166 O 297.672 -5.76638 1.72547 0
M  V30 3167 H 301.498 -2.45978 1.78125 0
M  V30 3168 H 299.083 -1.17033 0.928631 0
M  V30 3169 H 300.965 -4.21348 0.0663671 0
M  V30 3170 H 299.64 -3.18965 -0.551631 0
M  V30 3171 H 298.547 -3.29949 1.76309 0
M  V30 3172 H 299.88 -4.35035 2.30229 0
M  V30 3173 N 301.532 -0.945985 -1.26051 0
M  V30 3174 C 302.809 -0.513816 -1.88731 0
M  V30 3175 C 303.189 1.00872 -1.8544 0
M  V30 3176 O 302.537 1.8708 -1.312 0
M  V30 3177 C 302.747 -1.08062 -3.31849 0
M  V30 3178 C 304.095 -1.1522 -4.08668 0
M  V30 3179 O 305.119 -1.03155 -3.40936 0
M  V30 3180 O 303.978 -1.34044 -5.29806 0
M  V30 3181 H 301.072 -0.168193 -0.809716 0
M  V30 3182 H 303.618 -1.03886 -1.34186 0
M  V30 3183 H 302.39 -2.1241 -3.2863 0
M  V30 3184 H 302.013 -0.538307 -3.93939 0
M  V30 3185 N 303.011 1.40521 -0.713556 0
M  V30 3186 C 304.259 2.00527 -0.251692 0
M  V30 3187 C 304.58 1.56857 1.15848 0
M  V30 3188 O 303.85 0.807127 1.785 0
M  V30 3189 H 302.43 0.741551 -0.0900646 0
M  V30 3190 H 305.092 1.71887 -0.918733 0
M  V30 3191 H 304.188 3.10813 -0.283192 0
M  V30 3192 N 304.489 0.459591 1.5075 0
M  V30 3193 C 305.736 -0.0993495 2.02256 0
M  V30 3194 C 306.064 -1.40751 1.34237 0
M  V30 3195 O 305.319 -1.90379 0.453228 0
M  V30 3196 C 305.618 -0.342866 3.55752 0
M  V30 3197 C 305.284 0.88218 4.42186 0
M  V30 3198 C 303.946 1.21808 4.65528 0
M  V30 3199 C 306.298 1.69837 4.92752 0
M  V30 3200 C 303.626 2.37045 5.36681 0
M  V30 3201 C 305.978 2.84192 5.65171 0
M  V30 3202 C 304.642 3.1821 5.8677 0
M  V30 3203 H 303.912 -0.0363545 0.740108 0
M  V30 3204 H 306.559 0.611329 1.8148 0
M  V30 3205 H 304.864 -1.13567 3.7498 0
M  V30 3206 H 306.561 -0.789121 3.93159 0
M  V30 3207 H 303.151 0.610467 4.2423 0
M  V30 3208 H 307.335 1.45205 4.74583 0
M  V30 3209 H 302.591 2.63689 5.51614 0
M  V30 3210 H 306.765 3.4779 6.03337 0
M  V30 3211 H 304.392 4.07613 6.41682 0
M  V30 3212 N 305.967 -1.56429 0.191757 0
M  V30 3213 C 307.192 -2.02309 -0.456706 0
M  V30 3214 C 307.617 -1.07103 -1.5463 0
M  V30 3215 O 306.975 -0.0539677 -1.8122 0
M  V30 3216 C 307.023 -3.46654 -0.993159 0
M  V30 3217 O 306.127 -3.54559 -2.10622 0
M  V30 3218 H 305.468 -0.655303 -0.107114 0
M  V30 3219 H 307.998 -2.02364 0.301653 0
M  V30 3220 H 308.008 -3.86377 -1.31061 0
M  V30 3221 H 306.683 -4.1544 -0.195504 0
M  V30 3222 H 305.26 -3.26708 -1.79767 0
M  V30 3223 N 307.445 0.0818655 -1.57387 0
M  V30 3224 C 308.375 1.09885 -2.06028 0
M  V30 3225 C 309.356 1.4098 -0.951774 0
M  V30 3226 O 310.541 1.50781 -1.22387 0
M  V30 3227 C 307.671 2.4151 -2.4958 0
M  V30 3228 C 306.625 2.24792 -3.64215 0
M  V30 3229 C 305.951 3.61712 -3.93787 0
M  V30 3230 C 307.251 1.67749 -4.94629 0
M  V30 3231 H 308.945 0.694128 -2.91243 0
M  V30 3232 H 306.491 0.332448 -1.4011 0
M  V30 3233 H 308.444 3.12939 -2.82219 0
M  V30 3234 H 307.168 2.83943 -1.61381 0
M  V30 3235 H 305.827 1.55807 -3.31843 0
M  V30 3236 H 305.475 4.01697 -3.02735 0
M  V30 3237 H 305.175 3.51368 -4.70971 0
M  V30 3238 H 306.699 4.34587 -4.28913 0
M  V30 3239 H 308.113 2.29032 -5.25564 0
M  V30 3240 H 306.51 1.68128 -5.76067 0
M  V30 3241 H 307.58 0.638059 -4.80684 0
M  V30 3242 N 308.923 1.53595 0.353017 0
M  V30 3243 C 310.334 1.61937 0.929153 0
M  V30 3244 C 310.685 0.494686 1.89861 0
M  V30 3245 O 309.81 -0.377017 2.1309 0
M  V30 3246 C 310.405 2.93526 1.69199 0
M  V30 3247 C 308.964 3.04161 2.21727 0
M  V30 3248 C 308.111 2.57322 1.03348 0
M  V30 3249 H 311.062 1.58155 0.131431 0
M  V30 3250 H 311.083 2.82034 2.55416 0
M  V30 3251 H 310.595 3.75362 0.986144 0
M  V30 3252 H 308.696 2.26938 2.95516 0
M  V30 3253 H 308.809 4.09465 2.48748 0
M  V30 3254 H 307.173 2.12499 1.40414 0
M  V30 3255 H 307.956 3.41588 0.342428 0
M  V30 3256 N 310.401 -0.613514 1.45168 0
M  V30 3257 C 311.631 -1.39743 1.52169 0
M  V30 3258 C 312.039 -1.88596 0.151086 0
M  V30 3259 O 311.382 -1.6251 -0.856521 0
M  V30 3260 C 311.444 -2.64035 2.43979 0
M  V30 3261 C 311.108 -2.36861 3.90827 0
M  V30 3262 C 312.105 -1.97591 4.80889 0
M  V30 3263 C 309.79 -2.49956 4.35692 0
M  V30 3264 C 311.784 -1.71768 6.1382 0
M  V30 3265 C 309.471 -2.23747 5.68665 0
M  V30 3266 C 310.469 -1.84714 6.57548 0
M  V30 3267 O 310.157 -1.58809 7.88058 0
M  V30 3268 H 309.889 -0.434382 0.517966 0
M  V30 3269 H 312.443 -0.75587 1.90986 0
M  V30 3270 H 310.673 -3.3089 2.00122 0
M  V30 3271 H 312.362 -3.26069 2.41731 0
M  V30 3272 H 313.128 -1.87015 4.47493 0
M  V30 3273 H 309.007 -2.79305 3.66756 0
M  V30 3274 H 312.551 -1.41227 6.83155 0
M  V30 3275 H 308.448 -2.33938 6.01617 0
M  V30 3276 H 309.216 -1.7291 8.00028 0
M  V30 3277 N 311.879 -1.3236 -0.855495 0
M  V30 3278 C 313.127 -1.22629 -1.60644 0
M  V30 3279 C 313.448 0.212136 -1.93843 0
M  V30 3280 O 312.718 1.13666 -1.59552 0
M  V30 3281 H 311.298 -0.450882 -0.595579 0
M  V30 3282 H 313.96 -1.65871 -1.02337 0
M  V30 3283 H 313.056 -1.80832 -2.54374 0
M  V30 3284 N 313.357 1.07166 -1.15556 0
M  V30 3285 C 314.603 1.80222 -0.942961 0
M  V30 3286 C 314.958 1.85121 0.524209 0
M  V30 3287 O 314.251 1.32531 1.38369 0
M  V30 3288 C 314.445 3.24707 -1.49332 0
M  V30 3289 C 314.274 3.33887 -3.01247 0
M  V30 3290 C 313.044 3.44337 -3.69811 0
M  V30 3291 C 315.242 3.24484 -3.99017 0
M  V30 3292 N 313.224 3.42439 -5.09518 0
M  V30 3293 C 314.595 3.29726 -5.25053 0
M  V30 3294 C 316.65 3.08307 -3.90962 0
M  V30 3295 C 315.353 3.20455 -6.43973 0
M  V30 3296 C 317.379 3.00371 -5.09442 0
M  V30 3297 C 316.741 3.06227 -6.34354 0
M  V30 3298 H 312.84 0.672709 -0.398731 0
M  V30 3299 H 315.424 1.27905 -1.46794 0
M  V30 3300 H 313.595 3.7544 -0.994946 0
M  V30 3301 H 315.327 3.85894 -1.21935 0
M  V30 3302 H 312.082 3.48762 -3.20409 0
M  V30 3303 H 312.506 3.45013 -5.8249 0
M  V30 3304 H 317.148 3.02633 -2.95251 0
M  V30 3305 H 314.866 3.24888 -7.39914 0
M  V30 3306 H 318.452 2.88955 -5.04971 0
M  V30 3307 H 317.332 3.00132 -7.24493 0
M  V30 3308 N 314.835 0.952656 1.25548 0
M  V30 3309 C 316.063 0.623496 1.97282 0
M  V30 3310 C 316.478 -0.803987 1.70826 0
M  V30 3311 O 315.835 -1.53755 0.983147 0
M  V30 3312 C 315.886 0.870209 3.5087 0
M  V30 3313 O 315.607 2.24156 3.76412 0
M  V30 3314 C 317.108 0.553164 4.39835 0
M  V30 3315 H 314.328 0.233931 0.628902 0
M  V30 3316 H 316.872 1.27649 1.59768 0
M  V30 3317 H 315.027 0.263652 3.86502 0
M  V30 3318 H 315.441 2.31021 4.70882 0
M  V30 3319 H 316.915 0.776342 5.46513 0
M  V30 3320 H 317.392 -0.512215 4.36203 0
M  V30 3321 H 317.998 1.13896 4.09766 0
M  V30 3322 N 316.313 -1.40141 0.720998 0
M  V30 3323 C 317.724 -1.83678 0.334553 0
M  V30 3324 C 318.075 -1.6027 -1.13173 0
M  V30 3325 O 317.2 -1.08643 -1.87152 0
M  V30 3326 C 317.795 -3.33437 0.600437 0
M  V30 3327 C 316.354 -3.75447 0.267642 0
M  V30 3328 C 315.501 -2.63296 0.870097 0
M  V30 3329 H 318.452 -1.29331 0.919732 0
M  V30 3330 H 318.473 -3.80269 -0.132517 0
M  V30 3331 H 317.985 -3.50442 1.66768 0
M  V30 3332 H 316.086 -3.64035 -0.794329 0
M  V30 3333 H 316.199 -4.73344 0.74042 0
M  V30 3334 H 314.563 -2.52954 0.297739 0
M  V30 3335 H 315.346 -2.83112 1.94172 0
M  V30 3336 N 317.792 -0.46758 -1.50504 0
M  V30 3337 C 319.04 0.0884469 -2.01906 0
M  V30 3338 C 319.361 1.40532 -1.35188 0
M  V30 3339 O 318.631 1.89515 -0.496079 0
M  V30 3340 H 317.211 0.0356765 -0.746148 0
M  V30 3341 H 319.873 -0.6172 -1.84869 0
M  V30 3342 H 318.969 0.2425 -3.11156 0
M  V30 3343 N 319.27 1.56325 -0.20005 0
M  V30 3344 C 320.516 1.98012 0.438059 0
M  V30 3345 C 320.849 1.08702 1.60927 0
M  V30 3346 O 320.124 0.140064 1.93995 0
M  V30 3347 C 320.407 3.48841 0.893419 0
M  V30 3348 C 320.26 4.48928 -0.279947 0
M  V30 3349 C 321.579 4.03498 1.75719 0
M  V30 3350 H 318.698 0.719918 0.157757 0
M  V30 3351 H 321.34 1.87743 -0.291968 0
M  V30 3352 H 319.49 3.57723 1.51547 0
M  V30 3353 H 321.162 4.52079 -0.91772 0
M  V30 3354 H 319.405 4.23694 -0.930919 0
M  V30 3355 H 320.076 5.5194 0.0812601 0
M  V30 3356 H 322.552 3.97427 1.23253 0
M  V30 3357 H 321.428 5.09393 2.04476 0
M  V30 3358 H 321.689 3.4906 2.71311 0
M  V30 3359 N 320.748 -0.0735177 1.57428 0
M  V30 3360 C 321.695 -1.08756 2.0357 0
M  V30 3361 C 322.665 -1.38559 0.916 0
M  V30 3362 O 323.85 -1.49656 1.18354 0
M  V30 3363 C 320.99 -2.39657 2.48311 0
M  V30 3364 C 320.103 -2.16399 3.73892 0
M  V30 3365 C 319.238 -3.40852 4.07423 0
M  V30 3366 C 318.277 -3.1295 5.2605 0
M  V30 3367 N 317.414 -4.29729 5.55228 0
M  V30 3368 H 322.254 -0.687104 2.8997 0
M  V30 3369 H 319.791 -0.327709 1.43403 0
M  V30 3370 H 321.749 -3.16081 2.72303 0
M  V30 3371 H 320.379 -2.77508 1.64891 0
M  V30 3372 H 319.431 -1.30676 3.57251 0
M  V30 3373 H 320.743 -1.91788 4.60455 0
M  V30 3374 H 319.897 -4.25671 4.32306 0
M  V30 3375 H 318.636 -3.68537 3.19425 0
M  V30 3376 H 317.641 -2.26526 5.00965 0
M  V30 3377 H 318.866 -2.86589 6.15665 0
M  V30 3378 H 316.812 -4.57448 4.70188 0
M  V30 3379 H 316.729 -4.08385 6.36206 0
M  V30 3380 H 317.997 -5.1555 5.84661 0
M  V30 3381 N 322.226 -1.5378 -0.344866 0
M  V30 3382 C 323.642 -1.44015 -0.687888 0
M  V30 3383 C 323.842 -0.595834 -1.92489 0
M  V30 3384 O 322.898 -0.0863064 -2.52352 0
M  V30 3385 C 324.211 -2.87481 -0.881758 0
M  V30 3386 C 325.759 -2.97247 -0.980459 0
M  V30 3387 C 326.234 -4.41819 -1.20665 0
M  V30 3388 N 327.725 -4.45339 -1.27389 0
M  V30 3389 C 328.46 -5.54333 -1.46639 0
M  V30 3390 N 327.956 -6.73335 -1.63071 0
M  V30 3391 N 329.749 -5.41944 -1.49176 0
M  V30 3392 H 321.9 -2.07169 0.468475 0
M  V30 3393 H 324.163 -0.93643 0.147655 0
M  V30 3394 H 323.869 -3.51672 -0.0443444 0
M  V30 3395 H 323.743 -3.32352 -1.78388 0
M  V30 3396 H 326.13 -2.33197 -1.8084 0
M  V30 3397 H 326.211 -2.5574 -0.0552713 0
M  V30 3398 H 325.855 -5.06449 -0.383652 0
M  V30 3399 H 325.785 -4.80917 -2.14539 0
M  V30 3400 H 328.276 -3.59585 -1.1622 0
M  V30 3401 H 328.589 -7.52165 -1.77391 0
M  V30 3402 H 326.934 -6.76282 -1.60209 0
M  V30 3403 H 330.125 -4.47932 -1.3592 0
M  V30 3404 H 330.298 -6.26946 -1.63837 0
M  V30 3405 N 323.704 0.605807 -1.45491 0
M  V30 3406 C 324.652 1.73754 -1.54636 0
M  V30 3407 C 325.646 1.64207 -0.416219 0
M  V30 3408 O 326.852 1.69979 -0.592199 0
M  V30 3409 H 323.227 0.574073 -0.485741 0
M  V30 3410 H 325.198 1.63169 -2.49837 0
M  V30 3411 C 323.947 3.12135 -1.53189 0
M  V30 3412 H 323.27 3.20141 -2.39478 0
M  V30 3413 H 324.71 3.91147 -1.63645 0
M  V30 3414 C 323.169 3.35921 -0.256616 0
M  V30 3415 O 323.699 3.96194 0.662798 0
M  V30 3416 N 321.905 2.90204 -0.151751 0
M  V30 3417 H 321.452 2.41336 -0.90081 0
M  V30 3418 H 321.41 3.06492 0.700699 0
M  V30 3419 N 325.182 1.32811 0.848464 0
M  V30 3420 C 326.43 1.23479 1.59991 0
M  V30 3421 C 326.751 -0.201853 1.93952 0
M  V30 3422 O 326.021 -1.12818 1.60153 0
M  V30 3423 H 324.601 0.454034 0.593179 0
M  V30 3424 H 327.263 1.66412 1.01455 0
M  V30 3425 H 326.359 1.82178 2.53412 0
M  V30 3426 N 326.66 -1.06551 1.16123 0
M  V30 3427 C 327.907 -1.79302 0.941126 0
M  V30 3428 C 328.235 -1.87105 -0.531235 0
M  V30 3429 O 327.49 -1.35692 -1.41018 0
M  V30 3430 C 327.789 -3.23911 1.51052 0
M  V30 3431 C 327.455 -3.36193 3.00475 0
M  V30 3432 C 326.117 -3.39252 3.41265 0
M  V30 3433 C 328.469 -3.38326 3.96465 0
M  V30 3434 C 325.797 -3.42057 4.76669 0
M  V30 3435 C 328.149 -3.4267 5.31752 0
M  V30 3436 C 326.813 -3.4401 5.72026 0
M  V30 3437 H 326.083 -0.656111 0.344382 0
M  V30 3438 H 328.73 -1.25325 1.44796 0
M  V30 3439 H 327.035 -3.80723 0.925063 0
M  V30 3440 H 328.732 -3.78793 1.31593 0
M  V30 3441 H 325.322 -3.34516 2.6795 0
M  V30 3442 H 329.506 -3.35176 3.6602 0
M  V30 3443 H 324.762 -3.41398 5.07206 0
M  V30 3444 H 328.936 -3.43268 6.05921 0
M  V30 3445 H 326.563 -3.45937 6.76928 0
M  V30 3446 N 328.138 -0.959301 -1.25041 0
M  V30 3447 C 329.549 -0.65667 -1.74771 0
M  V30 3448 C 329.9 0.827852 -1.77879 0
M  V30 3449 O 329.025 1.64783 -1.40269 0
M  V30 3450 C 329.62 -1.1853 -3.1739 0
M  V30 3451 C 328.179 -0.932734 -3.6466 0
M  V30 3452 C 327.326 -1.32558 -2.43564 0
M  V30 3453 H 330.277 -1.13558 -1.10862 0
M  V30 3454 H 330.298 -0.547582 -3.76539 0
M  V30 3455 H 329.81 -2.26576 -3.15095 0
M  V30 3456 H 327.911 0.13257 -3.72364 0
M  V30 3457 H 328.024 -1.57248 -4.52559 0
M  V30 3458 H 326.388 -0.743956 -2.43593 0
M  V30 3459 H 327.171 -2.41537 -2.43957 0
M  V30 3460 N 329.616 1.39756 -0.72842 0
M  V30 3461 C 330.862 2.00942 -0.273892 0
M  V30 3462 C 331.195 1.57656 1.13394 0
M  V30 3463 O 330.47 0.802434 1.77176 0
M  V30 3464 C 330.753 3.58211 -0.368346 0
M  V30 3465 C 330.606 4.11534 -1.81548 0
M  V30 3466 C 331.925 4.39372 0.253054 0
M  V30 3467 H 329.044 0.730047 -0.100996 0
M  V30 3468 H 331.686 1.66056 -0.923337 0
M  V30 3469 H 329.836 3.88061 0.184588 0
M  V30 3470 H 331.508 3.92431 -2.42478 0
M  V30 3471 H 329.751 3.65341 -2.33898 0
M  V30 3472 H 330.422 5.20682 -1.83288 0
M  V30 3473 H 332.898 4.15527 -0.218224 0
M  V30 3474 H 331.774 5.48677 0.156585 0
M  V30 3475 H 332.035 4.21358 1.33826 0
M  V30 3476 N 331.094 0.475555 1.50254 0
M  V30 3477 C 332.057 -0.305016 2.27161 0
M  V30 3478 C 333.057 -0.916519 1.32123 0
M  V30 3479 O 334.247 -0.785003 1.5551 0
M  V30 3480 C 331.379 -1.43496 3.09227 0
M  V30 3481 H 332.572 0.369511 2.97615 0
M  V30 3482 H 330.125 0.229747 1.54602 0
M  V30 3483 H 330.86 -2.14441 2.43281 0
M  V30 3484 H 330.645 -1.00223 3.79075 0
M  V30 3485 H 332.135 -1.98548 3.67381 0
M  V30 3486 N 332.573 -1.56217 0.208337 0
M  V30 3487 C 333.503 -2.22694 -0.702116 0
M  V30 3488 C 334.484 -1.19432 -1.2112 0
M  V30 3489 O 335.669 -1.47978 -1.25762 0
M  V30 3490 C 332.799 -2.8966 -1.9161 0
M  V30 3491 C 331.753 -3.9928 -1.5414 0
M  V30 3492 C 331.079 -4.53476 -2.83308 0
M  V30 3493 C 332.379 -5.17012 -0.741339 0
M  V30 3494 H 334.073 -2.99034 -0.147898 0
M  V30 3495 H 331.619 -1.43831 -0.0696951 0
M  V30 3496 H 333.572 -3.34852 -2.55836 0
M  V30 3497 H 332.296 -2.10746 -2.49507 0
M  V30 3498 H 330.955 -3.54799 -0.922668 0
M  V30 3499 H 330.603 -3.71308 -3.39322 0
M  V30 3500 H 330.303 -5.27451 -2.58976 0
M  V30 3501 H 331.827 -5.01378 -3.485 0
M  V30 3502 H 333.241 -5.58667 -1.28699 0
M  V30 3503 H 331.638 -5.97137 -0.595627 0
M  V30 3504 H 332.708 -4.8423 0.254851 0
M  V30 3505 N 334.051 0.0651679 -1.57465 0
M  V30 3506 C 335.014 1.06117 -2.03155 0
M  V30 3507 C 336.014 1.31204 -0.929632 0
M  V30 3508 O 337.204 1.26813 -1.19432 0
M  V30 3509 C 334.336 2.4032 -2.41783 0
M  V30 3510 H 335.529 0.667231 -2.92383 0
M  V30 3511 H 333.082 0.311075 -1.53173 0
M  V30 3512 H 333.817 2.84532 -1.55601 0
M  V30 3513 H 333.602 2.23451 -3.22199 0
M  V30 3514 H 335.092 3.11898 -2.77685 0
M  V30 3515 N 335.529 1.53961 0.336706 0
M  V30 3516 C 336.945 1.44378 0.680241 0
M  V30 3517 C 337.145 0.606034 1.9217 0
M  V30 3518 O 336.201 0.099688 2.52303 0
M  V30 3519 C 337.514 2.87945 0.8665 0
M  V30 3520 C 339.062 2.97763 0.964682 0
M  V30 3521 C 339.537 4.42453 1.18321 0
M  V30 3522 N 341.028 4.46008 1.25025 0
M  V30 3523 C 341.763 5.55102 1.43697 0
M  V30 3524 N 341.259 6.7419 1.59498 0
M  V30 3525 N 343.052 5.42727 1.463 0
M  V30 3526 H 335.203 2.06918 -0.479455 0
M  V30 3527 H 337.466 0.935634 -0.152619 0
M  V30 3528 H 337.172 3.51691 0.0256937 0
M  V30 3529 H 337.046 3.33293 1.76623 0
M  V30 3530 H 339.433 2.34153 1.796 0
M  V30 3531 H 339.514 2.55766 0.041708 0
M  V30 3532 H 339.158 5.06645 0.356788 0
M  V30 3533 H 339.088 4.82048 2.11985 0
M  V30 3534 H 341.579 3.60196 1.14312 0
M  V30 3535 H 341.892 7.53095 1.734 0
M  V30 3536 H 340.237 6.77123 1.56621 0
M  V30 3537 H 343.428 4.48647 1.33543 0
M  V30 3538 H 343.601 6.27806 1.6051 0
M  V30 3539 N 337.007 -0.598083 1.45811 0
M  V30 3540 C 337.97 -1.69018 1.54808 0
M  V30 3541 C 338.97 -1.55037 0.426652 0
M  V30 3542 O 340.16 -1.59932 0.690456 0
M  V30 3543 C 337.292 -3.0835 1.45371 0
M  V30 3544 H 338.485 -1.62403 2.52121 0
M  V30 3545 H 336.038 -0.814626 1.33392 0
M  V30 3546 H 336.773 -3.20534 0.492793 0
M  V30 3547 H 336.558 -3.19907 2.26721 0
M  V30 3548 H 338.048 -3.8788 1.54721 0
M  V30 3549 N 338.485 -1.33259 -0.841409 0
M  V30 3550 C 339.731 -1.24757 -1.59886 0
M  V30 3551 C 340.064 0.186913 -1.93298 0
M  V30 3552 O 339.339 1.12757 -1.5848 0
M  V30 3553 C 339.622 -2.12036 -2.91055 0
M  V30 3554 C 339.475 -3.63929 -2.6434 0
M  V30 3555 C 340.794 -1.9916 -3.92458 0
M  V30 3556 H 337.913 -0.454542 -0.580138 0
M  V30 3557 H 340.555 -1.63335 -0.970647 0
M  V30 3558 H 338.705 -1.79265 -3.44669 0
M  V30 3559 H 340.377 -4.06978 -2.17178 0
M  V30 3560 H 338.62 -3.85935 -1.98082 0
M  V30 3561 H 339.291 -4.20341 -3.57796 0
M  V30 3562 H 341.767 -2.27895 -3.48143 0
M  V30 3563 H 340.643 -2.62484 -4.82072 0
M  V30 3564 H 340.904 -0.963082 -4.31482 0
M  V30 3565 N 339.963 1.05934 -1.16686 0
M  V30 3566 C 341.188 1.83029 -0.975455 0
M  V30 3567 C 341.613 1.82096 0.471452 0
M  V30 3568 O 340.971 1.22443 1.33706 0
M  V30 3569 C 341.019 3.27372 -1.51195 0
M  V30 3570 O 340.123 4.06054 -0.720701 0
M  V30 3571 H 339.464 0.566194 -0.346872 0
M  V30 3572 H 341.994 1.33541 -1.55009 0
M  V30 3573 H 342.004 3.78186 -1.53099 0
M  V30 3574 H 340.679 3.27366 -2.56523 0
M  V30 3575 H 339.256 3.64812 -0.772458 0
M  V30 3576 N 341.441 0.965919 1.2453 0
M  V30 3577 C 342.389 0.486506 2.27455 0
M  V30 3578 C 343.383 -0.449041 1.6334 0
M  V30 3579 O 344.589 -0.324527 1.7705 0
M  V30 3580 H 340.964 0.138857 0.739069 0
M  V30 3581 H 342.935 1.3666 2.65267 0
M  V30 3582 C 341.684 -0.209481 3.47068 0
M  V30 3583 H 341.007 0.50129 3.96645 0
M  V30 3584 H 342.447 -0.508775 4.20936 0
M  V30 3585 C 340.906 -1.43586 3.0477 0
M  V30 3586 O 341.436 -2.53299 3.11773 0
M  V30 3587 N 339.642 -1.30126 2.59838 0
M  V30 3588 H 339.189 -0.408583 2.54339 0
M  V30 3589 H 339.147 -2.12294 2.31902 0
M  V30 3590 N 342.919 -1.39368 0.735821 0
M  V30 3591 C 343.829 -2.34395 0.0979693 0
M  V30 3592 C 344.845 -1.58361 -0.720968 0
M  V30 3593 O 346.021 -1.90648 -0.649245 0
M  V30 3594 C 343.086 -3.37393 -0.797916 0
M  V30 3595 C 342.147 -4.29287 0.0333662 0
M  V30 3596 C 341.38 -5.27365 -0.819854 0
M  V30 3597 O 341.603 -5.31959 -2.05855 0
M  V30 3598 O 340.537 -6.01389 -0.248079 0
M  V30 3599 H 344.363 -2.90601 0.882315 0
M  V30 3600 H 341.948 -1.40909 0.4965 0
M  V30 3601 H 343.83 -4.00505 -1.31048 0
M  V30 3602 H 342.505 -2.83571 -1.56106 0
M  V30 3603 H 341.412 -3.69395 0.591475 0
M  V30 3604 H 342.745 -4.86317 0.758752 0
M  V30 3605 N 344.397 -0.483516 -1.5 0
M  V30 3606 C 345.646 0.0689102 -2.01582 0
M  V30 3607 C 345.959 1.39655 -1.36952 0
M  V30 3608 O 347.165 2.03465 -1.79762 0
M  V30 3609 C 345.621 0.173302 -3.59483 0
M  V30 3610 C 345.229 -1.14665 -4.33077 0
M  V30 3611 C 346.973 0.677024 -4.19066 0
M  V30 3612 C 344.88 -1.00537 -5.82792 0
M  V30 3613 H 343.81 0.0295277 -0.753422 0
M  V30 3614 H 346.461 -0.620295 -1.72698 0
M  V30 3615 H 344.843 0.926569 -3.85007 0
M  V30 3616 H 346.017 -1.91184 -4.19268 0
M  V30 3617 H 344.332 -1.58244 -3.85159 0
M  V30 3618 H 346.929 0.799952 -5.28682 0
M  V30 3619 H 347.272 1.67151 -3.81269 0
M  V30 3620 H 347.805 -0.0192083 -3.97795 0
M  V30 3621 H 344.544 -1.9736 -6.25083 0
M  V30 3622 H 344.064 -0.280776 -5.99142 0
M  V30 3623 H 345.743 -0.677 -6.43448 0
M  V30 3624 N 345.875 1.56104 -0.216619 0
M  V30 3625 C 347.121 1.98466 0.417033 0
M  V30 3626 C 347.454 1.10403 1.59765 0
M  V30 3627 O 346.729 0.160632 1.93836 0
M  V30 3628 C 347.012 3.49769 0.85637 0
M  V30 3629 C 346.865 4.48606 -0.327546 0
M  V30 3630 C 348.184 4.05339 1.7143 0
M  V30 3631 H 345.303 0.721551 0.150112 0
M  V30 3632 H 347.945 1.87423 -0.311864 0
M  V30 3633 H 346.095 3.5931 1.47745 0
M  V30 3634 H 347.767 4.5108 -0.965618 0
M  V30 3635 H 346.01 4.22682 -0.975805 0
M  V30 3636 H 346.681 5.51995 0.0227149 0
M  V30 3637 H 349.157 3.98712 1.19031 0
M  V30 3638 H 348.033 5.11533 1.99061 0
M  V30 3639 H 348.294 3.51918 2.67593 0
M  V30 3640 N 347.353 -0.0568162 1.57498 0
M  V30 3641 C 348.769 -0.411933 1.54192 0
M  V30 3642 C 348.969 -1.78287 0.938942 0
M  V30 3643 O 348.025 -2.46483 0.547919 0
M  V30 3644 C 349.338 -0.339244 2.9878 0
M  V30 3645 C 350.886 -0.418348 3.10192 0
M  V30 3646 C 351.361 -0.375407 4.56459 0
M  V30 3647 N 352.852 -0.435038 4.61153 0
M  V30 3648 C 353.587 -0.424265 5.71828 0
M  V30 3649 N 353.083 -0.367418 6.91825 0
M  V30 3650 N 354.876 -0.471938 5.60115 0
M  V30 3651 H 347.027 0.840684 1.95055 0
M  V30 3652 H 349.29 0.316987 0.893433 0
M  V30 3653 H 348.996 0.601742 3.46514 0
M  V30 3654 H 348.87 -1.14371 3.59443 0
M  V30 3655 H 351.257 -1.34976 2.62422 0
M  V30 3656 H 351.338 0.414962 2.52412 0
M  V30 3657 H 350.982 0.552219 5.04889 0
M  V30 3658 H 350.912 -1.22645 5.12119 0
M  V30 3659 H 353.403 -0.482612 3.74806 0
M  V30 3660 H 353.716 -0.363535 7.71944 0
M  V30 3661 H 352.061 -0.333879 6.94198 0
M  V30 3662 H 355.252 -0.514145 4.65268 0
M  V30 3663 H 355.425 -0.460073 6.46365 0
M  V30 3664 N 348.832 -1.54138 -0.328536 0
M  V30 3665 C 350.079 -1.72105 -1.06706 0
M  V30 3666 C 350.407 -0.492111 -1.88171 0
M  V30 3667 O 349.662 0.526153 -1.88494 0
M  V30 3668 C 349.961 -2.9457 -2.02393 0
M  V30 3669 C 349.627 -4.29544 -1.37122 0
M  V30 3670 C 348.289 -4.6624 -1.19052 0
M  V30 3671 C 350.641 -5.1333 -0.902331 0
M  V30 3672 C 347.969 -5.84325 -0.527331 0
M  V30 3673 C 350.321 -6.32094 -0.252988 0
M  V30 3674 C 348.985 -6.67473 -0.0600901 0
M  V30 3675 H 348.255 -0.629775 -0.390466 0
M  V30 3676 H 350.902 -1.88372 -0.34473 0
M  V30 3677 H 349.207 -2.72969 -2.81061 0
M  V30 3678 H 350.904 -3.05665 -2.59557 0
M  V30 3679 H 347.494 -4.0067 -1.52188 0
M  V30 3680 H 351.678 -4.855 -1.02974 0
M  V30 3681 H 346.934 -6.103 -0.366634 0
M  V30 3682 H 351.108 -6.96299 0.118366 0
M  V30 3683 H 348.735 -7.58832 0.455828 0
M  V30 3684 N 350.31 0.590341 -1.46126 0
M  V30 3685 C 351.721 1.17243 -1.45296 0
M  V30 3686 C 352.072 1.95281 -0.189723 0
M  V30 3687 O 351.197 2.04502 0.707674 0
M  V30 3688 C 351.792 2.13284 -2.6324 0
M  V30 3689 C 350.351 2.66832 -2.65476 0
M  V30 3690 C 349.498 1.42557 -2.3785 0
M  V30 3691 H 352.449 0.378692 -1.54116 0
M  V30 3692 H 352.47 2.96619 -2.38323 0
M  V30 3693 H 351.982 1.56459 -3.55165 0
M  V30 3694 H 350.083 3.27548 -1.77603 0
M  V30 3695 H 350.196 3.10088 -3.65215 0
M  V30 3696 H 348.56 1.72107 -1.87753 0
M  V30 3697 H 349.343 0.875741 -3.31942 0
M  V30 3698 N 351.788 1.33704 0.83433 0
M  V30 3699 C 353.016 1.28467 1.62185 0
M  V30 3700 C 353.431 -0.143526 1.88254 0
M  V30 3701 O 352.788 -1.08709 1.4659 0
M  V30 3702 C 352.839 2.06174 2.96942 0
M  V30 3703 O 352.56 3.43422 2.72016 0
M  V30 3704 C 354.061 2.08201 3.91366 0
M  V30 3705 H 351.281 0.4424 0.504503 0
M  V30 3706 H 353.825 1.76145 1.03891 0
M  V30 3707 H 351.98 1.62167 3.51825 0
M  V30 3708 H 352.394 3.83453 3.57861 0
M  V30 3709 H 353.868 2.67017 4.83121 0
M  V30 3710 H 354.345 1.07343 4.2588 0
M  V30 3711 H 354.951 2.52246 3.42421 0
M  V30 3712 N 353.266 -1.05314 1.17247 0
M  V30 3713 C 354.543 -1.75184 0.87005 0
M  V30 3714 C 354.923 -2.01481 -0.629965 0
M  V30 3715 O 354.271 -1.64988 -1.58086 0
M  V30 3716 C 354.481 -3.04594 1.70363 0
M  V30 3717 C 355.829 -3.78567 1.92281 0
M  V30 3718 O 356.853 -3.14461 1.67311 0
M  V30 3719 O 355.712 -4.93755 2.3424 0
M  V30 3720 H 352.806 -0.761729 0.322021 0
M  V30 3721 H 355.352 -1.11493 1.27935 0
M  V30 3722 H 354.124 -2.81201 2.72106 0
M  V30 3723 H 353.747 -3.76022 1.29202 0
M  V30 3724 N 354.744 -0.972509 -1.24016 0
M  V30 3725 C 355.676 -0.464375 -2.24446 0
M  V30 3726 C 356.689 0.4295 -1.57032 0
M  V30 3727 O 357.878 0.234902 -1.76948 0
M  V30 3728 C 354.978 0.348385 -3.37105 0
M  V30 3729 C 354.151 -0.53673 -4.34094 0
M  V30 3730 C 353.21 0.220838 -5.25736 0
M  V30 3731 O 352.236 -0.386867 -5.67884 0
M  V30 3732 N 353.438 1.50907 -5.60542 0
M  V30 3733 H 356.203 -1.32788 -2.68677 0
M  V30 3734 H 353.764 -0.844877 -1.38107 0
M  V30 3735 H 355.756 0.863341 -3.95384 0
M  V30 3736 H 354.326 1.11285 -2.92121 0
M  V30 3737 H 353.546 -1.23261 -3.74433 0
M  V30 3738 H 354.834 -1.14022 -4.95859 0
M  V30 3739 H 354.232 2.02444 -5.28236 0
M  V30 3740 H 352.789 1.96962 -6.21329 0
M  V30 3741 N 356.222 1.38976 -0.743202 0
M  V30 3742 C 357.152 2.33171 -0.123873 0
M  V30 3743 C 358.133 1.54336 0.71516 0
M  V30 3744 O 359.318 1.82696 0.658467 0
M  V30 3745 C 356.448 3.38474 0.777978 0
M  V30 3746 C 355.402 4.27979 0.0424758 0
M  V30 3747 C 354.728 5.2405 1.06189 0
M  V30 3748 C 356.028 5.10155 -1.1198 0
M  V30 3749 H 357.722 2.85213 -0.910709 0
M  V30 3750 H 355.268 1.37133 -0.439388 0
M  V30 3751 H 357.221 4.03328 1.22084 0
M  V30 3752 H 355.945 2.84891 1.59702 0
M  V30 3753 H 354.604 3.64616 -0.380853 0
M  V30 3754 H 354.252 4.66758 1.87472 0
M  V30 3755 H 353.952 5.84785 0.574485 0
M  V30 3756 H 355.476 5.9178 1.50428 0
M  V30 3757 H 356.89 5.68307 -0.75499 0
M  V30 3758 H 355.287 5.80073 -1.53738 0
M  V30 3759 H 356.357 4.44504 -1.93764 0
M  V30 3760 N 357.7 0.491464 1.49741 0
M  V30 3761 C 358.928 -0.0535151 2.06831 0
M  V30 3762 C 359.343 -1.31683 1.35296 0
M  V30 3763 O 358.7 -1.77402 0.42836 0
M  V30 3764 C 358.751 -0.320835 3.60073 0
M  V30 3765 O 358.472 0.892394 4.28915 0
M  V30 3766 C 359.973 -0.910519 4.33848 0
M  V30 3767 H 357.193 0.0161909 0.670805 0
M  V30 3768 H 359.737 0.68609 1.92647 0
M  V30 3769 H 357.892 -1.0104 3.73991 0
M  V30 3770 H 358.306 0.649401 5.20464 0
M  V30 3771 H 359.78 -1.04721 5.41976 0
M  V30 3772 H 360.257 -1.90589 3.95692 0
M  V30 3773 H 360.863 -0.258712 4.24512 0
M  V30 3774 N 359.178 -1.55987 0.224894 0
M  V30 3775 C 360.589 -1.84553 -0.282345 0
M  V30 3776 C 360.94 -1.14634 -1.59227 0
M  V30 3777 O 360.065 -0.417155 -2.12341 0
M  V30 3778 C 360.66 -3.348 -0.519062 0
M  V30 3779 C 359.219 -3.63671 -0.970604 0
M  V30 3780 C 358.366 -2.77277 -0.0355261 0
M  V30 3781 H 361.317 -1.52245 0.448006 0
M  V30 3782 H 361.338 -3.55187 -1.36463 0
M  V30 3783 H 360.85 -3.8566 0.43449 0
M  V30 3784 H 358.951 -3.1827 -1.9374 0
M  V30 3785 H 359.064 -4.71631 -0.842698 0
M  V30 3786 H 357.428 -2.48846 -0.542927 0
M  V30 3787 H 358.211 -3.30937 0.913003 0
M  V30 3788 N 360.656 0.0484629 -1.57525 0
M  V30 3789 C 361.933 0.777447 -1.79486 0
M  V30 3790 C 362.313 1.94597 -0.818251 0
M  V30 3791 O 361.661 2.28047 0.143767 0
M  V30 3792 C 361.871 1.22864 -3.26658 0
M  V30 3793 C 363.219 1.65251 -3.91123 0
M  V30 3794 O 364.243 1.32372 -3.3069 0
M  V30 3795 O 363.102 2.26207 -4.97486 0
M  V30 3796 H 360.196 0.374357 -0.737419 0
M  V30 3797 H 362.742 0.0267359 -1.69679 0
M  V30 3798 H 361.514 0.393589 -3.89316 0
M  V30 3799 H 361.137 2.03996 -3.41279 0
M  V30 3800 N 362.134 1.5431 0.320358 0
M  V30 3801 C 363.066 1.80262 1.41556 0
M  V30 3802 C 364.079 0.684723 1.477 0
M  V30 3803 O 365.268 0.961886 1.50366 0
M  V30 3804 C 362.368 1.90825 2.8007 0
M  V30 3805 C 361.541 3.21023 2.97091 0
M  V30 3806 C 360.6 3.22247 4.15985 0
M  V30 3807 O 359.626 3.95871 4.08992 0
M  V30 3808 N 360.828 2.46258 5.25678 0
M  V30 3809 H 363.593 2.74778 1.19655 0
M  V30 3810 H 361.154 1.53646 0.510358 0
M  V30 3811 H 363.146 1.89067 3.57821 0
M  V30 3812 H 361.716 1.03392 2.95006 0
M  V30 3813 H 360.936 3.35715 2.06614 0
M  V30 3814 H 362.224 4.0698 3.05361 0
M  V30 3815 H 361.622 1.86037 5.34235 0
M  V30 3816 H 360.179 2.50275 6.01835 0
M  V30 3817 N 363.613 -0.582584 1.46437 0
M  V30 3818 C 364.523 -1.71949 1.59595 0
M  V30 3819 C 365.539 -1.67264 0.479443 0
M  V30 3820 O 366.715 -1.87171 0.743579 0
M  V30 3821 C 363.78 -3.08452 1.58298 0
M  V30 3822 C 362.841 -3.244 2.81182 0
M  V30 3823 C 362.074 -4.54391 2.79937 0
M  V30 3824 O 362.297 -5.38287 1.8869 0
M  V30 3825 O 361.231 -4.73588 3.71481 0
M  V30 3826 H 365.057 -1.63795 2.55744 0
M  V30 3827 H 362.642 -0.749643 1.29231 0
M  V30 3828 H 364.524 -3.89732 1.60271 0
M  V30 3829 H 363.199 -3.17043 0.653094 0
M  V30 3830 H 362.106 -2.42613 2.84763 0
M  V30 3831 H 363.439 -3.20699 3.7338 0
M  V30 3832 N 365.091 -1.34144 -0.827227 0
M  V30 3833 C 366.507 -1.13732 -1.11969 0
M  V30 3834 C 366.707 0.0640463 -2.01398 0
M  V30 3835 O 365.763 0.740856 -2.41387 0
M  V30 3836 C 367.076 -2.43047 -1.77055 0
M  V30 3837 C 368.624 -2.49063 -1.89569 0
M  V30 3838 C 369.099 -3.78369 -2.58072 0
M  V30 3839 N 370.59 -3.79505 -2.65575 0
M  V30 3840 C 371.325 -4.76274 -3.19297 0
M  V30 3841 N 370.821 -5.83424 -3.73616 0
M  V30 3842 N 372.614 -4.63735 -3.17658 0
M  V30 3843 H 364.765 -2.11126 -0.232296 0
M  V30 3844 H 367.028 -0.933424 -0.165602 0
M  V30 3845 H 366.734 -3.31025 -1.18807 0
M  V30 3846 H 366.608 -2.56066 -2.76966 0
M  V30 3847 H 368.995 -1.61527 -2.46968 0
M  V30 3848 H 369.076 -2.39975 -0.885745 0
M  V30 3849 H 368.72 -4.66293 -2.01329 0
M  V30 3850 H 368.65 -3.84737 -3.59562 0
M  V30 3851 H 371.141 -3.02074 -2.27068 0
M  V30 3852 H 371.454 -6.53282 -4.12846 0
M  V30 3853 H 369.799 -5.87143 -3.71871 0
M  V30 3854 H 372.99 -3.79177 -2.74486 0
M  V30 3855 H 373.163 -5.39318 -3.59221 0
M  V30 3856 N 366.569 1.04691 -1.17803 0
M  V30 3857 C 367.794 1.81984 -0.994813 0
M  V30 3858 C 368.219 1.82586 0.452112 0
M  V30 3859 O 367.577 1.23854 1.324 0
M  V30 3860 C 367.625 3.2575 -1.54659 0
M  V30 3861 O 366.729 4.05267 -0.763728 0
M  V30 3862 H 366.07 0.562483 -0.352857 0
M  V30 3863 H 368.6 1.3189 -1.56417 0
M  V30 3864 H 368.61 3.76541 -1.57102 0
M  V30 3865 H 367.285 3.24627 -2.59981 0
M  V30 3866 H 365.862 3.63972 -0.811108 0
M  V30 3867 N 368.047 0.979072 1.23499 0
M  V30 3868 C 368.977 0.537606 2.27227 0
M  V30 3869 C 369.958 -0.428539 1.64613 0
M  V30 3870 O 371.143 -0.322191 1.91509 0
M  V30 3871 C 368.273 -0.162052 3.46922 0
M  V30 3872 C 367.227 0.721242 4.21879 0
M  V30 3873 C 366.553 -0.110555 5.34586 0
M  V30 3874 C 367.853 2.01141 4.82016 0
M  V30 3875 H 369.547 1.40462 2.64406 0
M  V30 3876 H 367.093 0.67684 1.27102 0
M  V30 3877 H 369.046 -0.482192 4.18632 0
M  V30 3878 H 367.77 -1.06351 3.08799 0
M  V30 3879 H 366.429 1.02482 3.51984 0
M  V30 3880 H 366.077 -1.0125 4.92704 0
M  V30 3881 H 365.777 0.477325 5.85658 0
M  V30 3882 H 367.301 -0.425107 6.09118 0
M  V30 3883 H 368.715 1.75612 5.45741 0
M  V30 3884 H 367.112 2.54695 5.43369 0
M  V30 3885 H 368.182 2.69909 4.02836 0
M  V30 3886 N 369.525 -1.3858 0.750561 0
M  V30 3887 C 370.458 -2.28095 0.0693139 0
M  V30 3888 C 371.436 -1.45217 -0.731491 0
M  V30 3889 O 372.62 -1.74587 -0.71076 0
M  V30 3890 C 369.747 -3.26282 -0.90871 0
M  V30 3891 C 368.793 -4.26056 -0.194507 0
M  V30 3892 S 369.626 -5.24026 1.10257 0
M  V30 3893 C 370.782 -6.2577 0.127542 0
M  V30 3894 H 371.015 -2.85526 0.8284 0
M  V30 3895 H 368.548 -1.44536 0.543014 0
M  V30 3896 H 370.506 -3.83367 -1.46766 0
M  V30 3897 H 369.167 -2.6784 -1.64075 0
M  V30 3898 H 368.36 -4.95249 -0.93512 0
M  V30 3899 H 367.962 -3.72852 0.292837 0
M  V30 3900 H 370.254 -6.73796 -0.707516 0
M  V30 3901 H 371.197 -7.03712 0.787044 0
M  V30 3902 H 371.605 -5.63938 -0.251803 0
M  V30 3903 N 371.003 -0.499398 -1.49478 0
M  V30 3904 C 372.25 0.0456899 -2.02448 0
M  V30 3905 C 372.578 1.37142 -1.37921 0
M  V30 3906 O 371.833 1.89111 -0.503544 0
M  V30 3907 C 372.132 0.248424 -3.56536 0
M  V30 3908 C 371.798 -0.999107 -4.39692 0
M  V30 3909 C 370.46 -1.34108 -4.62135 0
M  V30 3910 C 372.812 -1.82842 -4.88076 0
M  V30 3911 C 370.14 -2.51191 -5.30208 0
M  V30 3912 C 372.492 -2.99076 -5.57437 0
M  V30 3913 C 371.156 -3.33655 -5.78127 0
M  V30 3914 H 370.426 0.0167191 -0.740811 0
M  V30 3915 H 373.073 -0.65923 -1.79795 0
M  V30 3916 H 371.378 1.03586 -3.77859 0
M  V30 3917 H 373.075 0.684605 -3.95113 0
M  V30 3918 H 369.665 -0.722729 -4.22463 0
M  V30 3919 H 373.849 -1.57737 -4.70566 0
M  V30 3920 H 369.105 -2.78221 -5.44429 0
M  V30 3921 H 373.279 -3.63664 -5.93904 0
M  V30 3922 H 370.906 -4.24483 -6.30649 0
M  V30 3923 N 372.481 1.55866 -0.233164 0
M  V30 3924 C 373.414 2.16794 0.712442 0
M  V30 3925 C 374.392 1.1158 1.18273 0
M  V30 3926 O 375.576 1.39897 1.26337 0
M  V30 3927 C 372.703 2.75757 1.96661 0
M  V30 3928 C 371.749 3.93902 1.63533 0
M  V30 3929 S 372.582 5.30223 0.74995 0
M  V30 3930 C 373.738 5.92631 2.01343 0
M  V30 3931 H 373.971 2.96662 0.194617 0
M  V30 3932 H 371.504 1.5439 -0.0177425 0
M  V30 3933 H 373.462 3.10367 2.68668 0
M  V30 3934 H 372.123 1.9586 2.45556 0
M  V30 3935 H 371.316 4.33702 2.56747 0
M  V30 3936 H 370.918 3.60499 0.995804 0
M  V30 3937 H 373.21 6.09312 2.96219 0
M  V30 3938 H 374.153 6.88388 1.65915 0
M  V30 3939 H 374.561 5.21571 2.15925 0
M  V30 3940 N 373.959 -0.0401083 1.57549 0
M  V30 3941 C 374.891 -1.07149 2.02612 0
M  V30 3942 C 375.904 -1.33126 0.937085 0
M  V30 3943 O 377.093 -1.30808 1.21456 0
M  V30 3944 C 374.193 -2.41561 2.37701 0
M  V30 3945 C 373.366 -2.35096 3.68848 0
M  V30 3946 C 372.425 -3.51867 3.91249 0
M  V30 3947 O 371.451 -3.3186 4.62447 0
M  V30 3948 N 372.653 -4.73351 3.36035 0
M  V30 3949 H 375.418 -0.687485 2.91708 0
M  V30 3950 H 372.979 -0.228248 1.60283 0
M  V30 3951 H 374.971 -3.18379 2.49833 0
M  V30 3952 H 373.541 -2.71846 1.54332 0
M  V30 3953 H 372.761 -1.4345 3.67173 0
M  V30 3954 H 374.049 -2.27908 4.54901 0
M  V30 3955 H 373.447 -4.92507 2.78304 0
M  V30 3956 H 372.004 -5.47572 3.53565 0
M  V30 3957 N 375.437 -1.54477 -0.31217 0
M  V30 3958 C 376.683 -1.74417 -1.04644 0
M  V30 3959 C 377.038 -0.517641 -1.85306 0
M  V30 3960 O 376.331 0.489973 -1.85229 0
M  V30 3961 C 376.525 -2.967 -1.99258 0
M  V30 3962 C 376.354 -4.31128 -1.27901 0
M  V30 3963 C 375.124 -4.95087 -1.01079 0
M  V30 3964 C 377.322 -5.09662 -0.689119 0
M  V30 3965 N 375.304 -6.13322 -0.266323 0
M  V30 3966 C 376.675 -6.19952 -0.0768523 0
M  V30 3967 C 378.73 -4.94355 -0.593061 0
M  V30 3968 C 377.433 -7.16604 0.622165 0
M  V30 3969 C 379.459 -5.91328 0.0922792 0
M  V30 3970 C 378.821 -7.00978 0.693443 0
M  V30 3971 H 374.92 -0.69094 -0.366231 0
M  V30 3972 H 377.504 -1.91946 -0.326319 0
M  V30 3973 H 375.675 -2.80616 -2.68532 0
M  V30 3974 H 377.407 -3.05216 -2.65755 0
M  V30 3975 H 374.162 -4.55235 -1.30607 0
M  V30 3976 H 374.586 -6.76937 0.0920973 0
M  V30 3977 H 379.228 -4.09719 -1.04355 0
M  V30 3978 H 376.946 -8.0079 1.08445 0
M  V30 3979 H 380.532 -5.81562 0.166396 0
M  V30 3980 H 379.412 -7.74725 1.21533 0
M  V30 3981 N 376.915 0.57481 -1.46744 0
M  V30 3982 C 378.163 1.33009 -1.52161 0
M  V30 3983 C 378.484 1.94185 -0.178092 0
M  V30 3984 O 377.754 1.7899 0.796196 0
M  V30 3985 H 376.334 0.493873 -0.560445 0
M  V30 3986 H 378.996 0.672589 -1.82927 0
M  V30 3987 H 378.092 2.13273 -2.27862 0
M  V30 3988 N 378.394 1.34581 0.820102 0
M  V30 3989 C 379.326 1.22236 1.93884 0
M  V30 3990 C 380.339 0.148776 1.62119 0
M  V30 3991 O 381.528 0.400877 1.7394 0
M  V30 3992 C 378.628 0.856542 3.27897 0
M  V30 3993 C 377.801 2.02569 3.87666 0
M  V30 3994 C 376.86 1.63782 5.00062 0
M  V30 3995 O 375.886 2.35477 5.18208 0
M  V30 3996 N 377.088 0.553611 5.77854 0
M  V30 3997 H 379.853 2.18615 2.05006 0
M  V30 3998 H 377.414 1.27573 0.99683 0
M  V30 3999 H 379.406 0.578806 4.0054 0
M  V30 4000 H 377.976 -0.0171518 3.12595 0
M  V30 4001 H 377.196 2.468 3.07382 0
M  V30 4002 H 378.484 2.80752 4.24329 0
M  V30 4003 H 377.882 -0.0423528 5.65684 0
M  V30 4004 H 376.439 0.335614 6.50935 0
M  V30 4005 N 379.872 -1.04064 1.18357 0
M  V30 4006 C 380.802 -2.14001 0.934113 0
M  V30 4007 C 381.783 -1.69616 -0.128186 0
M  V30 4008 O 382.968 -1.94185 0.0244093 0
M  V30 4009 C 380.098 -3.44253 0.459066 0
M  V30 4010 C 379.052 -4.02261 1.46185 0
M  V30 4011 C 378.378 -5.27992 0.844322 0
M  V30 4012 C 379.678 -4.38432 2.83856 0
M  V30 4013 H 381.372 -2.35127 1.85352 0
M  V30 4014 H 378.918 -1.12998 0.892604 0
M  V30 4015 H 380.871 -4.20522 0.271907 0
M  V30 4016 H 379.595 -3.22813 -0.495912 0
M  V30 4017 H 378.254 -3.28074 1.63595 0
M  V30 4018 H 377.902 -5.02862 -0.117845 0
M  V30 4019 H 377.602 -5.67765 1.51384 0
M  V30 4020 H 379.126 -6.06938 0.667693 0
M  V30 4021 H 380.54 -5.05688 2.70098 0
M  V30 4022 H 378.937 -4.89254 3.47491 0
M  V30 4023 H 380.007 -3.4826 3.37406 0
M  V30 4024 N 381.35 -0.985608 -1.22978 0
M  V30 4025 C 382.28 -0.549649 -2.26939 0
M  V30 4026 C 383.261 0.419803 -1.64838 0
M  V30 4027 O 384.446 0.31203 -1.91677 0
M  V30 4028 C 381.576 0.143652 -3.47003 0
M  V30 4029 C 380.53 -0.743606 -4.21491 0
M  V30 4030 C 379.856 0.0822027 -5.34637 0
M  V30 4031 C 381.156 -2.03694 -4.80943 0
M  V30 4032 H 382.85 -1.41862 -2.63658 0
M  V30 4033 H 380.396 -0.683571 -1.26741 0
M  V30 4034 H 382.349 0.459985 -4.18882 0
M  V30 4035 H 381.073 1.04711 -3.09359 0
M  V30 4036 H 379.732 -1.04347 -3.51436 0
M  V30 4037 H 379.38 0.986359 -4.93234 0
M  V30 4038 H 379.08 -0.508377 -5.85397 0
M  V30 4039 H 380.604 0.392797 -6.09335 0
M  V30 4040 H 382.018 -1.78504 -5.44802 0
M  V30 4041 H 380.415 -2.57573 -5.42011 0
M  V30 4042 H 381.485 -2.72042 -4.01399 0
M  V30 4043 N 382.828 1.3818 -0.7579 0
M  V30 4044 C 384.105 1.94106 -0.241306 0
M  V30 4045 C 384.485 1.69282 1.26122 0
M  V30 4046 O 383.833 1.03378 2.03777 0
M  V30 4047 C 384.043 3.43809 -0.59967 0
M  V30 4048 C 385.391 4.20868 -0.561717 0
M  V30 4049 O 386.415 3.5211 -0.538222 0
M  V30 4050 O 385.274 5.43451 -0.576478 0
M  V30 4051 H 382.368 0.825376 -0.0518042 0
M  V30 4052 H 384.914 1.47548 -0.838315 0
M  V30 4053 H 383.686 3.55403 -1.6372 0
M  V30 4054 H 383.309 3.97592 0.0251197 0
M  V30 4055 N 384.306 0.507319 1.49211 0
M  V30 4056 C 385.256 -0.287112 2.26185 0
M  V30 4057 C 386.24 -0.929983 1.31302 0
M  V30 4058 O 387.432 -0.836538 1.55984 0
M  V30 4059 C 384.561 -1.34718 3.15763 0
M  V30 4060 C 383.647 -0.710235 4.18111 0
M  V30 4061 N 384.038 0.190836 5.0544 0
M  V30 4062 C 382.336 -0.97009 4.35322 0
M  V30 4063 C 383.037 0.55606 5.79036 0
M  V30 4064 N 382.013 -0.0775232 5.43545 0
M  V30 4065 H 385.815 0.406445 2.91076 0
M  V30 4066 H 383.329 0.323814 1.59139 0
M  V30 4067 H 385.326 -1.92982 3.69545 0
M  V30 4068 H 383.986 -2.04235 2.52424 0
M  V30 4069 H 384.997 0.562047 5.14841 0
M  V30 4070 H 381.674 -1.65753 3.83187 0
M  V30 4071 H 383.064 1.2936 6.5933 0
M  V30 4072 N 385.784 -1.5574 0.241426 0
M  V30 4073 C 387.061 -1.90704 -0.434881 0
M  V30 4074 C 387.441 -1.16145 -1.76277 0
M  V30 4075 O 386.789 -0.277152 -2.26813 0
M  V30 4076 C 386.999 -3.43657 -0.608343 0
M  V30 4077 C 388.347 -4.14806 -0.906725 0
M  V30 4078 O 389.371 -3.49366 -0.694408 0
M  V30 4079 O 388.23 -5.30548 -1.31075 0
M  V30 4080 H 385.324 -0.793592 -0.23268 0
M  V30 4081 H 387.87 -1.67288 0.285086 0
M  V30 4082 H 386.642 -3.89927 0.327505 0
M  V30 4083 H 386.265 -3.72918 -1.37906 0
M  V30 4084 N 387.262 0.0317525 -1.57568 0
M  V30 4085 C 388.192 1.03274 -2.0942 0
M  V30 4086 C 389.173 1.3788 -0.996143 0
M  V30 4087 O 390.358 1.46811 -1.27122 0
M  V30 4088 C 387.488 2.33448 -2.57137 0
M  V30 4089 C 386.442 2.13091 -3.71182 0
M  V30 4090 C 385.768 3.49001 -4.05095 0
M  V30 4091 C 387.068 1.51928 -4.99715 0
M  V30 4092 H 388.762 0.60112 -2.93303 0
M  V30 4093 H 386.308 0.287705 -1.41097 0
M  V30 4094 H 388.261 3.03802 -2.92032 0
M  V30 4095 H 386.985 2.78665 -1.70333 0
M  V30 4096 H 385.644 1.45171 -3.36632 0
M  V30 4097 H 385.292 3.91862 -3.15362 0
M  V30 4098 H 384.992 3.36207 -4.81911 0
M  V30 4099 H 386.516 4.20721 -4.42522 0
M  V30 4100 H 387.93 2.12196 -5.32584 0
M  V30 4101 H 386.327 1.49716 -5.81124 0
M  V30 4102 H 387.397 0.484811 -4.8247 0
M  V30 4103 N 388.74 1.54641 0.303973 0
M  V30 4104 C 390.017 1.64455 1.05896 0
M  V30 4105 C 390.397 0.490923 2.05312 0
M  V30 4106 O 389.745 -0.512685 2.22674 0
M  V30 4107 C 389.955 3.02331 1.74347 0
M  V30 4108 C 391.303 3.59045 2.26653 0
M  V30 4109 O 392.327 3.04764 1.84384 0
M  V30 4110 O 391.186 4.54081 3.04093 0
M  V30 4111 H 388.28 0.666729 0.489287 0
M  V30 4112 H 390.826 1.66986 0.302298 0
M  V30 4113 H 389.598 3.77734 1.02142 0
M  V30 4114 H 389.221 3.03565 2.56777 0
M  V30 4115 N 390.218 -0.567019 1.47046 0
M  V30 4116 C 391.465 -1.32462 1.53167 0
M  V30 4117 C 391.793 -1.93571 0.189841 0
M  V30 4118 O 391.048 -1.77865 -0.816243 0
M  V30 4119 C 391.347 -2.4623 2.59047 0
M  V30 4120 C 391.013 -2.03014 4.02612 0
M  V30 4121 C 389.675 -1.90944 4.41694 0
M  V30 4122 C 392.027 -1.69895 4.92732 0
M  V30 4123 C 389.355 -1.44035 5.68745 0
M  V30 4124 C 391.707 -1.2446 6.20236 0
M  V30 4125 C 390.371 -1.10979 6.5821 0
M  V30 4126 H 389.641 -0.484713 0.560477 0
M  V30 4127 H 392.288 -0.636888 1.80599 0
M  V30 4128 H 390.593 -3.20517 2.25335 0
M  V30 4129 H 392.29 -3.04427 2.61008 0
M  V30 4130 H 388.88 -2.13348 3.71726 0
M  V30 4131 H 393.064 -1.78098 4.63244 0
M  V30 4132 H 388.32 -1.32254 5.96925 0
M  V30 4133 H 392.494 -0.978924 6.89485 0
M  V30 4134 H 390.121 -0.744078 7.5655 0
M  V30 4135 N 391.696 -1.35014 -0.812953 0
M  V30 4136 C 392.924 -1.31031 -1.6012 0
M  V30 4137 C 393.339 0.113558 -1.88458 0
M  V30 4138 O 392.696 1.06363 -1.48301 0
M  V30 4139 C 392.747 -2.10872 -2.93624 0
M  V30 4140 O 392.468 -3.47706 -2.66518 0
M  V30 4141 C 393.969 -2.14401 -3.88004 0
M  V30 4142 H 391.189 -0.45037 -0.497401 0
M  V30 4143 H 393.733 -1.77775 -1.01076 0
M  V30 4144 H 391.888 -1.67744 -3.492 0
M  V30 4145 H 392.302 -3.89097 -3.51715 0
M  V30 4146 H 393.776 -2.74669 -4.78812 0
M  V30 4147 H 394.253 -1.14105 -4.24119 0
M  V30 4148 H 394.859 -2.57662 -3.38364 0
M  V30 4149 N 393.175 1.03435 -1.18907 0
M  V30 4150 C 394.586 1.58195 -0.991523 0
M  V30 4151 C 394.937 1.90801 0.457081 0
M  V30 4152 O 394.062 1.70272 1.33553 0
M  V30 4153 C 394.657 2.87432 -1.79355 0
M  V30 4154 C 393.216 3.38785 -1.64017 0
M  V30 4155 C 392.363 2.12292 -1.78402 0
M  V30 4156 H 395.314 0.860299 -1.33359 0
M  V30 4157 H 395.335 3.58096 -1.28638 0
M  V30 4158 H 394.847 2.63669 -2.84781 0
M  V30 4159 H 392.948 3.67547 -0.611536 0
M  V30 4160 H 393.061 4.12186 -2.44212 0
M  V30 4161 H 391.425 2.23901 -1.2141 0
M  V30 4162 H 392.208 1.90977 -2.85277 0
M  V30 4163 N 394.653 0.992116 1.22453 0
M  V30 4164 C 395.563 0.55065 2.28046 0
M  V30 4165 C 396.579 -0.400189 1.69335 0
M  V30 4166 O 397.755 -0.267215 1.99619 0
M  V30 4167 C 394.82 -0.128496 3.46462 0
M  V30 4168 C 393.881 0.865208 4.20491 0
M  V30 4169 C 393.114 0.218377 5.33253 0
M  V30 4170 O 393.337 -0.987894 5.6178 0
M  V30 4171 O 392.271 0.922845 5.94783 0
M  V30 4172 H 396.097 1.4291 2.67975 0
M  V30 4173 H 393.682 0.760326 1.28606 0
M  V30 4174 H 395.564 -0.508947 4.18315 0
M  V30 4175 H 394.239 -0.981526 3.0846 0
M  V30 4176 H 393.146 1.29658 3.50913 0
M  V30 4177 H 394.479 1.68741 4.62371 0
M  V30 4178 N 396.131 -1.37776 0.765217 0
M  V30 4179 C 397.542 -1.82521 0.392819 0
M  V30 4180 C 397.893 -1.63789 -1.08017 0
M  V30 4181 O 397.018 -1.14542 -1.83601 0
M  V30 4182 C 397.613 -3.31358 0.706214 0
M  V30 4183 C 396.172 -3.74406 0.386952 0
M  V30 4184 C 395.319 -2.60394 0.953422 0
M  V30 4185 H 398.27 -1.2634 0.960412 0
M  V30 4186 H 398.291 -3.80498 -0.0114706 0
M  V30 4187 H 397.803 -3.44959 1.77833 0
M  V30 4188 H 395.904 -3.66377 -0.678112 0
M  V30 4189 H 396.017 -4.70749 0.890636 0
M  V30 4190 H 394.381 -2.51878 0.378064 0
M  V30 4191 H 395.164 -2.76791 2.03081 0
M  V30 4192 N 397.609 -0.515225 -1.4894 0
M  V30 4193 C 398.572 0.244681 -2.2789 0
M  V30 4194 C 399.572 0.881166 -1.34507 0
M  V30 4195 O 400.762 0.743497 -1.57537 0
M  V30 4196 C 397.894 1.35247 -3.12923 0
M  V30 4197 H 399.087 -0.448289 -2.96531 0
M  V30 4198 H 396.64 -0.270656 -1.53939 0
M  V30 4199 H 397.375 2.07916 -2.48881 0
M  V30 4200 H 397.16 0.901374 -3.81599 0
M  V30 4201 H 398.65 1.88737 -3.72516 0
M  V30 4202 N 399.087 1.5561 -0.249682 0
M  V30 4203 C 400.05 2.20217 0.635394 0
M  V30 4204 C 401.05 1.17227 1.10066 0
M  V30 4205 O 402.24 1.42292 1.00492 0
M  V30 4206 C 399.372 2.84794 1.87363 0
M  V30 4207 H 400.565 2.99814 0.0716752 0
M  V30 4208 H 398.118 1.563 -0.000153234 0
M  V30 4209 H 398.853 2.09142 2.47851 0
M  V30 4210 H 398.638 3.60241 1.5482 0
M  V30 4211 H 400.128 3.3423 2.5036 0
M  V30 4212 N 400.565 -0.0233959 1.57583 0
M  V30 4213 C 401.981 -0.379134 1.55031 0
M  V30 4214 C 402.181 -1.76255 0.976548 0
M  V30 4215 O 401.237 -2.45266 0.600078 0
M  V30 4216 C 402.55 -0.275792 2.99433 0
M  V30 4217 C 404.098 -0.352458 3.11009 0
M  V30 4218 C 404.573 -0.278501 4.57152 0
M  V30 4219 N 406.064 -0.337123 4.61972 0
M  V30 4220 C 406.799 -0.302876 5.726 0
M  V30 4221 N 406.295 -0.220589 6.92449 0
M  V30 4222 N 408.088 -0.353023 5.6099 0
M  V30 4223 H 400.239 0.881869 1.93227 0
M  V30 4224 H 402.502 0.335867 0.886509 0
M  V30 4225 H 402.208 0.675108 3.4516 0
M  V30 4226 H 402.082 -1.06721 3.61788 0
M  V30 4227 H 404.469 -1.29379 2.65226 0
M  V30 4228 H 404.55 0.468409 2.51475 0
M  V30 4229 H 404.194 0.659189 5.03604 0
M  V30 4230 H 404.124 -1.11755 5.14605 0
M  V30 4231 H 406.615 -0.403002 3.75745 0
M  V30 4232 H 406.928 -0.199713 7.72542 0
M  V30 4233 H 405.273 -0.186555 6.9475 0
M  V30 4234 H 408.464 -0.415339 4.66254 0
M  V30 4235 H 408.637 -0.322866 6.47195 0
M  V30 4236 N 402.043 -1.548 -0.295768 0
M  V30 4237 C 403.006 -1.85363 -1.34808 0
M  V30 4238 C 404.006 -0.726817 -1.43436 0
M  V30 4239 O 405.196 -0.995088 -1.42981 0
M  V30 4240 C 402.328 -2.03859 -2.73229 0
M  V30 4241 H 403.521 -2.7941 -1.08949 0
M  V30 4242 H 401.074 -1.46942 -0.532702 0
M  V30 4243 H 401.809 -1.12117 -3.04303 0
M  V30 4244 H 401.594 -2.8588 -2.68356 0
M  V30 4245 H 403.084 -2.28857 -3.49305 0
M  V30 4246 N 403.521 0.559213 -1.47345 0
M  V30 4247 C 404.746 1.34676 -1.57725 0
M  V30 4248 C 405.171 1.86723 -0.227164 0
M  V30 4249 O 404.529 1.6286 0.796642 0
M  V30 4250 C 404.577 2.49399 -2.60447 0
M  V30 4251 O 403.681 3.51567 -2.15578 0
M  V30 4252 H 403.022 0.400115 -0.52991 0
M  V30 4253 H 405.552 0.676009 -1.93109 0
M  V30 4254 H 405.562 2.95996 -2.80803 0
M  V30 4255 H 404.237 2.10873 -3.58477 0
M  V30 4256 H 402.814 3.11289 -2.05313 0
M  V30 4257 N 404.999 1.35443 0.805782 0
M  V30 4258 C 406.246 1.28761 1.56291 0
M  V30 4259 C 406.574 -0.137747 1.94012 0
M  V30 4260 O 405.829 -1.1032 1.61642 0
M  V30 4261 C 406.128 2.14045 2.86216 0
M  V30 4262 C 405.794 3.62826 2.67709 0
M  V30 4263 C 404.456 4.0338 2.6237 0
M  V30 4264 C 406.808 4.57227 2.50186 0
M  V30 4265 C 404.136 5.36501 2.37451 0
M  V30 4266 C 406.488 5.90547 2.26797 0
M  V30 4267 C 405.152 6.30245 2.1988 0
M  V30 4268 H 404.422 0.471171 0.571908 0
M  V30 4269 H 407.069 1.67347 0.930974 0
M  V30 4270 H 405.374 1.68342 3.53791 0
M  V30 4271 H 407.071 2.0621 3.43917 0
M  V30 4272 H 403.661 3.30644 2.72713 0
M  V30 4273 H 407.845 4.2678 2.53323 0
M  V30 4274 H 403.101 5.66259 2.30567 0
M  V30 4275 H 407.275 6.63274 2.12228 0
M  V30 4276 H 404.902 7.33328 2.00333 0
M  V30 4277 N 406.477 -1.02803 1.19454 0
M  V30 4278 C 407.723 -1.76478 0.999171 0
M  V30 4279 C 408.056 -1.88456 -0.468828 0
M  V30 4280 O 407.331 -1.40198 -1.34814 0
M  V30 4281 C 407.614 -3.19044 1.66981 0
M  V30 4282 C 407.467 -3.14932 3.21151 0
M  V30 4283 C 408.786 -4.17456 1.39349 0
M  V30 4284 H 405.905 -0.640614 0.364393 0
M  V30 4285 H 408.547 -1.20005 1.47305 0
M  V30 4286 H 406.697 -3.67263 1.2669 0
M  V30 4287 H 408.369 -2.74605 3.70661 0
M  V30 4288 H 406.612 -2.52625 3.52652 0
M  V30 4289 H 407.283 -4.1566 3.63223 0
M  V30 4290 H 409.759 -3.77842 1.74283 0
M  V30 4291 H 408.635 -5.154 1.88823 0
M  V30 4292 H 408.896 -4.40949 0.318813 0
M  V30 4293 N 407.956 -0.998596 -1.21925 0
M  V30 4294 C 409.184 -0.696286 -1.94832 0
M  V30 4295 C 409.599 0.740032 -1.73692 0
M  V30 4296 O 408.956 1.5 -1.03953 0
M  V30 4297 C 409.007 -0.999833 -3.47398 0
M  V30 4298 O 408.728 -2.37972 -3.67833 0
M  V30 4299 C 410.229 -0.716025 -4.37479 0
M  V30 4300 H 407.449 -0.257111 -0.619786 0
M  V30 4301 H 409.993 -1.33491 -1.54921 0
M  V30 4302 H 408.148 -0.406918 -3.85257 0
M  V30 4303 H 408.562 -2.48338 -4.61983 0
M  V30 4304 H 410.036 -0.978642 -5.43256 0
M  V30 4305 H 410.513 0.349968 -4.37803 0
M  V30 4306 H 411.119 -1.29025 -4.05256 0
M  V30 4307 N 409.434 1.37368 -0.772513 0
M  V30 4308 C 410.682 1.99279 -0.336516 0
M  V30 4309 C 411.003 1.6163 1.09091 0
M  V30 4310 O 410.273 0.882109 1.74916 0
M  V30 4311 H 408.853 0.737063 -0.121435 0
M  V30 4312 H 411.515 1.67836 -0.990809 0
M  V30 4313 H 410.611 3.09332 -0.414763 0
M  V30 4314 N 410.912 0.523116 1.48665 0
M  V30 4315 C 412.158 -0.0134963 2.02796 0
M  V30 4316 C 412.491 -1.34582 1.40004 0
M  V30 4317 O 411.766 -1.86756 0.543381 0
M  V30 4318 C 412.049 -0.14276 3.59817 0
M  V30 4319 C 411.902 1.21425 4.331 0
M  V30 4320 C 413.221 -0.872856 4.31357 0
M  V30 4321 H 410.34 -0.00343074 0.736992 0
M  V30 4322 H 412.982 0.678816 1.7746 0
M  V30 4323 H 411.132 -0.732401 3.81534 0
M  V30 4324 H 412.804 1.84447 4.2282 0
M  V30 4325 H 411.047 1.79791 3.94788 0
M  V30 4326 H 411.718 1.07687 5.41394 0
M  V30 4327 H 414.194 -0.372555 4.14429 0
M  V30 4328 H 413.07 -0.932185 5.40927 0
M  V30 4329 H 413.331 -1.92161 3.98154 0
M  V30 4330 N 412.39 -1.55475 0.257931 0
M  V30 4331 C 413.338 -2.23244 -0.653076 0
M  V30 4332 C 414.332 -1.22366 -1.17144 0
M  V30 4333 O 415.538 -1.40347 -1.12706 0
M  V30 4334 H 411.913 -0.716247 -0.229117 0
M  V30 4335 H 413.884 -2.98343 -0.0584788 0
M  V30 4336 C 412.633 -2.95401 -1.83395 0
M  V30 4337 H 411.956 -3.72802 -1.44424 0
M  V30 4338 H 413.396 -3.46165 -2.44838 0
M  V30 4339 C 411.855 -1.99895 -2.71189 0
M  V30 4340 O 412.385 -1.53909 -3.71046 0
M  V30 4341 N 410.591 -1.6676 -2.3799 0
M  V30 4342 H 410.138 -2.04352 -1.56837 0
M  V30 4343 H 410.096 -1.03127 -2.97005 0
M  V30 4344 N 413.868 0.0150385 -1.57593 0
M  V30 4345 C 415.108 0.70768 -1.91758 0
M  V30 4346 C 415.472 1.71764 -0.857974 0
M  V30 4347 O 416.673 2.45956 -1.0844 0
M  V30 4348 C 414.944 1.34736 -3.3103 0
M  V30 4349 S 416.503 2.06721 -3.87056 0
M  V30 4350 H 413.321 0.234119 -0.671349 0
M  V30 4351 H 415.923 -0.0380373 -1.95463 0
M  V30 4352 H 414.627 0.59926 -4.06001 0
M  V30 4353 H 414.158 2.13133 -3.30663 0
M  V30 4354 H 416.173 3.34047 -3.66915 0
M  V30 4355 N 415.346 1.54954 0.287554 0
M  V30 4356 C 416.256 1.8991 1.37736 0
M  V30 4357 C 417.272 0.794701 1.54792 0
M  V30 4358 O 418.448 1.09243 1.69198 0
M  V30 4359 C 415.513 2.15108 2.71899 0
M  V30 4360 C 414.574 3.38752 2.63715 0
M  V30 4361 C 413.807 3.62739 3.91479 0
M  V30 4362 O 414.03 2.89492 4.91478 0
M  V30 4363 O 412.964 4.56267 3.92561 0
M  V30 4364 H 416.79 2.82652 1.11092 0
M  V30 4365 H 414.375 1.41315 0.484807 0
M  V30 4366 H 416.257 2.32806 3.51254 0
M  V30 4367 H 414.932 1.25551 2.9836 0
M  V30 4368 H 413.839 3.26405 1.82786 0
M  V30 4369 H 415.172 4.28483 2.42205 0
M  V30 4370 N 416.824 -0.551391 1.4764 0
M  V30 4371 C 418.052 -1.33357 1.58189 0
M  V30 4372 C 418.467 -1.87342 0.234199 0
M  V30 4373 O 417.824 -1.65301 -0.77343 0
M  V30 4374 C 417.875 -2.49942 2.61173 0
M  V30 4375 O 417.596 -1.98187 3.90709 0
M  V30 4376 C 419.097 -3.42072 2.8196 0
M  V30 4377 H 416.317 -0.40631 0.533998 0
M  V30 4378 H 418.861 -0.667367 1.93304 0
M  V30 4379 H 417.016 -3.12489 2.28975 0
M  V30 4380 H 417.43 -2.74342 4.47031 0
M  V30 4381 H 418.904 -4.20278 3.57869 0
M  V30 4382 H 419.381 -3.95978 1.89995 0
M  V30 4383 H 419.987 -2.85336 3.15378 0
M  V30 4384 N 418.302 -1.35869 -0.798587 0
M  V30 4385 C 419.527 -1.32883 -1.59238 0
M  V30 4386 C 419.952 0.0894587 -1.87887 0
M  V30 4387 O 419.31 1.05869 -1.47178 0
M  V30 4388 C 419.358 -2.14892 -2.89575 0
M  V30 4389 O 418.462 -1.53512 -3.82763 0
M  V30 4390 H 417.803 -0.455236 -0.48338 0
M  V30 4391 H 420.333 -1.79024 -0.990539 0
M  V30 4392 H 420.343 -2.27139 -3.38928 0
M  V30 4393 H 419.018 -3.17998 -2.68049 0
M  V30 4394 H 417.595 -1.50153 -3.41334 0
M  V30 4395 N 419.78 1.02168 -1.19998 0
M  V30 4396 C 421.02 1.77232 -1.01825 0
M  V30 4397 C 421.384 1.86833 0.442428 0
M  V30 4398 O 422.585 2.58293 0.744189 0
M  V30 4399 C 420.856 3.15601 -1.67722 0
M  V30 4400 S 422.415 4.06765 -1.64584 0
M  V30 4401 H 419.233 0.610021 -0.365233 0
M  V30 4402 H 421.835 1.22368 -1.52467 0
M  V30 4403 H 420.539 3.06235 -2.73218 0
M  V30 4404 H 420.07 3.7554 -1.17189 0
M  V30 4405 H 422.085 4.91586 -0.67511 0
M  V30 4406 N 421.258 1.00505 1.21394 0
M  V30 4407 C 422.504 0.688793 1.90745 0
M  V30 4408 C 422.837 -0.778486 1.77914 0
M  V30 4409 O 422.112 -1.56433 1.15581 0
M  V30 4410 C 422.395 1.11063 3.42545 0
M  V30 4411 C 422.248 2.63737 3.64367 0
M  V30 4412 C 423.567 0.673059 4.34923 0
M  V30 4413 H 420.686 0.251702 0.692687 0
M  V30 4414 H 423.328 1.25074 1.43026 0
M  V30 4415 H 421.478 0.632508 3.83317 0
M  V30 4416 H 423.15 3.19313 3.32922 0
M  V30 4417 H 421.393 3.05248 3.08231 0
M  V30 4418 H 422.064 2.88305 4.70727 0
M  V30 4419 H 424.54 1.08392 4.01734 0
M  V30 4420 H 423.416 0.996383 5.39781 0
M  V30 4421 H 423.677 -0.425808 4.40045 0
M  V30 4422 N 422.737 -1.36956 0.779787 0
M  V30 4423 C 423.669 -2.28833 0.129639 0
M  V30 4424 C 424.682 -1.4902 -0.655511 0
M  V30 4425 O 425.871 -1.71578 -0.492279 0
M  V30 4426 C 422.971 -3.2833 -0.839792 0
M  V30 4427 C 422.144 -4.3727 -0.10675 0
M  V30 4428 C 421.203 -5.16789 -0.990717 0
M  V30 4429 O 420.229 -5.67406 -0.451516 0
M  V30 4430 N 421.431 -5.32294 -2.3161 0
M  V30 4431 H 424.196 -2.85268 0.918803 0
M  V30 4432 H 421.757 -1.49019 0.632841 0
M  V30 4433 H 423.749 -3.78413 -1.43477 0
M  V30 4434 H 422.319 -2.72605 -1.52988 0
M  V30 4435 H 421.539 -3.88478 0.669216 0
M  V30 4436 H 422.827 -5.07229 0.399464 0
M  V30 4437 H 422.225 -4.92768 -2.77843 0
M  V30 4438 H 420.782 -5.85656 -2.86095 0
M  V30 4439 N 424.215 -0.530993 -1.48385 0
M  V30 4440 C 425.147 0.268353 -2.27624 0
M  V30 4441 C 426.16 0.903525 -1.35426 0
M  V30 4442 O 427.349 0.781796 -1.60469 0
M  V30 4443 C 424.449 1.39535 -3.08842 0
M  V30 4444 C 423.622 0.861913 -4.28824 0
M  V30 4445 C 422.681 1.87016 -4.91845 0
M  V30 4446 O 421.707 1.4267 -5.5103 0
M  V30 4447 N 422.909 3.20238 -4.84178 0
M  V30 4448 H 425.674 -0.41123 -2.96865 0
M  V30 4449 H 423.235 -0.365387 -1.57723 0
M  V30 4450 H 425.227 2.06803 -3.47871 0
M  V30 4451 H 423.797 1.97859 -2.42014 0
M  V30 4452 H 423.017 0.0132126 -3.94198 0
M  V30 4453 H 424.305 0.484415 -5.06489 0
M  V30 4454 H 423.703 3.58932 -4.37246 0
M  V30 4455 H 422.26 3.83136 -5.27305 0
M  V30 4456 N 425.693 1.55336 -0.266172 0
M  V30 4457 C 427.104 1.85236 0.233315 0
M  V30 4458 C 427.455 1.18816 1.56132 0
M  V30 4459 O 426.58 0.473307 2.11161 0
M  V30 4460 C 427.175 3.36059 0.430113 0
M  V30 4461 C 425.734 3.66116 0.873842 0
M  V30 4462 C 424.881 2.77274 -0.0380016 0
M  V30 4463 H 427.832 1.51004 -0.488214 0
M  V30 4464 H 427.853 3.58681 1.26998 0
M  V30 4465 H 427.365 3.84373 -0.536588 0
M  V30 4466 H 425.466 3.23295 1.85233 0
M  V30 4467 H 425.579 4.73699 0.717358 0
M  V30 4468 H 423.943 2.50198 0.476759 0
M  V30 4469 H 424.726 3.284 -1.00042 0
M  V30 4470 N 427.171 -0.0066808 1.57599 0
M  V30 4471 C 428.582 -0.550379 1.78403 0
M  V30 4472 C 428.933 -1.74339 0.900014 0
M  V30 4473 O 428.058 -2.16166 0.100713 0
M  V30 4474 C 428.653 -1.00523 3.23544 0
M  V30 4475 C 427.212 -1.49428 3.45468 0
M  V30 4476 C 426.359 -0.442444 2.73748 0
M  V30 4477 H 429.31 0.219508 1.57175 0
M  V30 4478 H 429.331 -1.87157 3.31289 0
M  V30 4479 H 428.843 -0.136735 3.87859 0
M  V30 4480 H 426.944 -2.3839 2.86358 0
M  V30 4481 H 427.057 -1.52635 4.54136 0
M  V30 4482 H 425.421 -0.902578 2.38171 0
M  V30 4483 H 426.204 0.416973 3.40758 0
M  V30 4484 N 428.649 -1.55105 -0.279332 0
M  V30 4485 C 429.889 -1.7716 -1.01949 0
M  V30 4486 C 430.253 -0.557511 -1.83728 0
M  V30 4487 O 431.454 -0.656198 -2.60667 0
M  V30 4488 C 429.725 -3.0372 -1.88385 0
M  V30 4489 S 431.284 -3.46868 -2.68752 0
M  V30 4490 H 428.102 -0.62253 -0.343478 0
M  V30 4491 H 430.704 -1.93329 -0.290572 0
M  V30 4492 H 429.408 -3.90184 -1.2722 0
M  V30 4493 H 428.939 -2.902 -2.65608 0
M  V30 4494 H 430.954 -3.05643 -3.90892 0
M  V30 4495 N 430.127 0.543554 -1.4793 0
M  V30 4496 C 431.374 1.30008 -1.55255 0
M  V30 4497 C 431.702 1.93245 -0.220612 0
M  V30 4498 O 430.957 1.79141 0.787843 0
M  V30 4499 C 431.256 2.42078 -2.62932 0
M  V30 4500 C 430.922 1.96583 -4.0579 0
M  V30 4501 C 429.584 1.83893 -4.44676 0
M  V30 4502 C 431.936 1.62034 -4.95373 0
M  V30 4503 C 429.264 1.34969 -5.70964 0
M  V30 4504 C 431.616 1.14577 -6.22137 0
M  V30 4505 C 430.28 1.00493 -6.59892 0
M  V30 4506 H 429.55 0.475735 -0.568117 0
M  V30 4507 H 432.197 0.608075 -1.81589 0
M  V30 4508 H 430.502 3.16892 -2.30406 0
M  V30 4509 H 432.199 3.00236 -2.65818 0
M  V30 4510 H 428.789 2.07407 -3.75074 0
M  V30 4511 H 432.973 1.70705 -4.66019 0
M  V30 4512 H 428.229 1.2274 -5.98953 0
M  V30 4513 H 432.403 0.869109 -6.90955 0
M  V30 4514 H 430.03 0.623624 -7.57638 0
M  V30 4515 N 431.605 1.3629 0.791371 0
M  V30 4516 C 433.016 1.27225 1.36641 0
M  V30 4517 C 433.367 -0.0887968 1.95999 0
M  V30 4518 O 432.492 -0.990207 1.92416 0
M  V30 4519 C 433.087 2.30375 2.48421 0
M  V30 4520 C 431.646 2.25004 3.01746 0
M  V30 4521 C 430.793 2.15259 1.7481 0
M  V30 4522 H 433.744 1.47198 0.593173 0
M  V30 4523 H 433.765 1.93905 3.27385 0
M  V30 4524 H 433.277 3.29422 2.05189 0
M  V30 4525 H 431.378 1.29417 3.49403 0
M  V30 4526 H 431.491 3.1761 3.58693 0
M  V30 4527 H 429.855 1.61482 1.96966 0
M  V30 4528 H 430.638 3.16191 1.33709 0
M  V30 4529 N 433.083 -1.0153 1.20538 0
M  V30 4530 C 434.013 -2.11972 0.979295 0
M  V30 4531 C 434.994 -1.6985 -0.0921787 0
M  V30 4532 O 436.179 -1.94089 0.0655932 0
M  V30 4533 C 433.309 -3.43201 0.531984 0
M  V30 4534 C 432.263 -3.9907 1.54685 0
M  V30 4535 C 431.589 -5.26082 0.956127 0
M  V30 4536 C 432.889 -4.32313 2.93092 0
M  V30 4537 H 434.583 -2.31143 1.90298 0
M  V30 4538 H 432.129 -1.11079 0.916372 0
M  V30 4539 H 434.082 -4.1985 0.361044 0
M  V30 4540 H 432.806 -3.23792 -0.427327 0
M  V30 4541 H 431.465 -3.2453 1.70517 0
M  V30 4542 H 431.113 -5.02999 -0.0111538 0
M  V30 4543 H 430.813 -5.64426 1.63393 0
M  V30 4544 H 432.337 -6.05386 0.796284 0
M  V30 4545 H 433.751 -4.99845 2.80763 0
M  V30 4546 H 432.148 -4.81774 3.57791 0
M  V30 4547 H 433.218 -3.41025 3.44717 0
M  V30 4548 N 434.561 -1.01147 -1.20859 0
M  V30 4549 C 435.508 -0.577354 -2.23462 0
M  V30 4550 C 436.478 0.399922 -1.61214 0
M  V30 4551 O 437.663 0.300515 -1.88419 0
M  V30 4552 C 434.803 0.083372 -3.44999 0
M  V30 4553 C 433.916 -0.937856 -4.21697 0
M  V30 4554 C 433.051 -0.248717 -5.30617 0
M  V30 4555 C 432.09 -1.25705 -5.99053 0
M  V30 4556 N 431.227 -0.594939 -6.99575 0
M  V30 4557 H 436.067 -1.45695 -2.59956 0
M  V30 4558 H 433.604 -0.729428 -1.27741 0
M  V30 4559 H 435.562 0.483535 -4.14388 0
M  V30 4560 H 434.192 0.926645 -3.09214 0
M  V30 4561 H 433.244 -1.45622 -3.51423 0
M  V30 4562 H 434.556 -1.70493 -4.68757 0
M  V30 4563 H 433.71 0.207215 -6.06346 0
M  V30 4564 H 432.449 0.55071 -4.84581 0
M  V30 4565 H 431.454 -1.72343 -5.2209 0
M  V30 4566 H 432.679 -2.05767 -6.47176 0
M  V30 4567 H 430.625 0.184713 -6.5574 0
M  V30 4568 H 430.542 -1.30017 -7.44736 0
M  V30 4569 H 431.81 -0.162427 -7.79331 0
M  V30 4570 N 436.039 1.36541 -0.78704 0
M  V30 4571 C 437.288 1.98552 -0.35494 0
M  V30 4572 C 437.601 1.63171 1.07864 0
M  V30 4573 O 438.807 2.18399 1.61289 0
M  V30 4574 C 437.263 3.55136 -0.583671 0
M  V30 4575 C 436.871 3.99444 -2.02851 0
M  V30 4576 C 438.615 4.2395 -0.215957 0
M  V30 4577 C 436.522 5.48796 -2.20403 0
M  V30 4578 H 435.452 0.742888 -0.128972 0
M  V30 4579 H 438.103 1.5587 -0.968337 0
M  V30 4580 H 436.485 3.95875 0.0994046 0
M  V30 4581 H 437.659 3.6991 -2.74779 0
M  V30 4582 H 435.974 3.43459 -2.35425 0
M  V30 4583 H 438.571 5.33709 -0.325405 0
M  V30 4584 H 438.914 4.07827 0.835646 0
M  V30 4585 H 439.447 3.88565 -0.852175 0
M  V30 4586 H 436.186 5.69864 -3.23937 0
M  V30 4587 H 435.706 5.79964 -1.52977 0
M  V30 4588 H 437.385 6.14986 -2.01002 0
M  V30 4589 N 437.518 0.538854 1.48102 0
M  V30 4590 C 438.929 0.100679 1.86428 0
M  V30 4591 C 439.28 -1.32447 1.44749 0
M  V30 4592 O 438.405 -1.99339 0.842199 0
M  V30 4593 C 439 0.175933 3.38343 0
M  V30 4594 C 437.559 -0.207098 3.7583 0
M  V30 4595 C 436.706 0.531741 2.72154 0
M  V30 4596 H 439.657 0.749614 1.3988 0
M  V30 4597 H 439.678 -0.610144 3.75576 0
M  V30 4598 H 439.19 1.21328 3.68648 0
M  V30 4599 H 437.291 -1.24626 3.5114 0
M  V30 4600 H 437.404 0.138687 4.78899 0
M  V30 4601 H 435.768 -0.0230462 2.5469 0
M  V30 4602 H 436.551 1.56989 3.05302 0
M  V30 4603 N 438.996 -1.55193 0.274407 0
M  V30 4604 C 440.407 -1.85358 -0.223488 0
M  V30 4605 C 440.758 -1.19642 -1.555 0
M  V30 4606 O 439.883 -0.484498 -2.10907 0
M  V30 4607 C 440.478 -3.36282 -0.412285 0
M  V30 4608 C 439.037 -3.66574 -0.854413 0
M  V30 4609 C 438.184 -2.7725 0.0527056 0
M  V30 4610 H 441.135 -1.50743 0.496215 0
M  V30 4611 H 441.156 -3.59349 -1.25094 0
M  V30 4612 H 440.668 -3.84083 0.556965 0
M  V30 4613 H 438.769 -3.24273 -1.83516 0
M  V30 4614 H 438.882 -4.74073 -0.692226 0
M  V30 4615 H 437.246 -2.50447 -0.463484 0
M  V30 4616 H 438.029 -3.27865 1.01783 0
M  V30 4617 N 440.474 -0.00167713 -1.576 0
M  V30 4618 C 441.422 1.0074 -2.09652 0
M  V30 4619 C 442.416 1.35483 -1.01689 0
M  V30 4620 O 443.622 1.34028 -1.20152 0
M  V30 4621 H 439.997 0.342537 -0.669457 0
M  V30 4622 H 441.968 0.542841 -2.93421 0
M  V30 4623 C 440.717 2.2899 -2.61647 0
M  V30 4624 H 440.04 2.03124 -3.44355 0
M  V30 4625 H 441.48 2.9787 -3.01744 0
M  V30 4626 C 439.939 3.00085 -1.53136 0
M  V30 4627 O 440.469 3.91135 -0.91524 0
M  V30 4628 N 438.675 2.6194 -1.25841 0
M  V30 4629 H 438.222 1.8798 -1.76129 0
M  V30 4630 H 438.18 3.09822 -0.534576 0
M  V30 4631 N 441.952 1.55251 0.271103 0
M  V30 4632 C 443.229 1.66664 1.02384 0
M  V30 4633 C 443.609 0.534363 2.04225 0
M  V30 4634 O 442.957 -0.465337 2.23712 0
M  V30 4635 C 443.167 3.05961 1.67895 0
M  V30 4636 C 444.515 3.63772 2.18986 0
M  V30 4637 O 445.539 3.08606 1.77878 0
M  V30 4638 O 444.398 4.60429 2.94393 0
M  V30 4639 H 441.492 0.676957 0.475035 0
M  V30 4640 H 444.038 1.67589 0.26681 0
M  V30 4641 H 442.81 3.79815 0.941071 0
M  V30 4642 H 442.433 3.08943 2.5028 0
M  V30 4643 N 443.43 -0.535701 1.48216 0
M  V30 4644 C 444.841 -1.11769 1.49548 0
M  V30 4645 C 445.192 -1.94442 0.26207 0
M  V30 4646 O 444.317 -2.06987 -0.631287 0
M  V30 4647 C 444.912 -2.03367 2.70975 0
M  V30 4648 C 443.471 -2.56795 2.75196 0
M  V30 4649 C 442.618 -1.33631 2.42977 0
M  V30 4650 H 445.569 -0.321232 1.55415 0
M  V30 4651 H 445.59 -2.87569 2.49167 0
M  V30 4652 H 445.102 -1.43169 3.60727 0
M  V30 4653 H 443.203 -3.20731 1.89638 0
M  V30 4654 H 443.316 -2.9632 3.76472 0
M  V30 4655 H 441.68 -1.6502 1.94012 0
M  V30 4656 H 442.463 -0.75194 3.34964 0
M  V30 4657 N 444.908 -1.36708 -0.784132 0
M  V30 4658 C 446.324 -1.17237 -1.08294 0
M  V30 4659 C 446.524 -5.93947e-05 -2.015 0
M  V30 4660 O 445.58 0.663686 -2.43622 0
M  V30 4661 C 446.893 -2.48557 -1.69233 0
M  V30 4662 C 448.441 -2.54968 -1.8155 0
M  V30 4663 C 448.916 -3.86388 -2.45904 0
M  V30 4664 N 450.407 -3.87762 -2.53367 0
M  V30 4665 C 451.142 -4.86191 -3.03983 0
M  V30 4666 N 450.638 -5.95015 -3.54866 0
M  V30 4667 N 452.431 -4.73606 -3.02743 0
M  V30 4668 H 444.582 -2.11758 -0.16501 0
M  V30 4669 H 446.845 -0.93822 -0.135822 0
M  V30 4670 H 446.551 -3.34638 -1.08215 0
M  V30 4671 H 446.425 -2.64748 -2.68679 0
M  V30 4672 H 448.812 -1.69302 -2.41704 0
M  V30 4673 H 448.893 -2.42672 -0.80895 0
M  V30 4674 H 448.537 -4.72462 -1.86392 0
M  V30 4675 H 448.467 -3.95982 -3.4714 0
M  V30 4676 H 450.958 -3.09145 -2.17343 0
M  V30 4677 H 451.271 -6.66086 -3.91854 0
M  V30 4678 H 449.616 -5.98676 -3.53003 0
M  V30 4679 H 452.807 -3.87717 -2.62284 0
M  V30 4680 H 452.98 -5.50473 -3.41881 0
M  V30 4681 N 446.386 1.0089 -1.21074 0
M  V30 4682 C 447.635 1.74019 -1.01981 0
M  V30 4683 C 447.948 1.90408 0.447665 0
M  V30 4684 O 449.154 2.60707 0.757906 0
M  V30 4685 C 447.61 3.13026 -1.77603 0
M  V30 4686 C 447.218 3.04623 -3.28495 0
M  V30 4687 C 448.962 3.90312 -1.66904 0
M  V30 4688 C 446.869 4.38685 -3.96623 0
M  V30 4689 H 445.799 0.652422 -0.377971 0
M  V30 4690 H 448.45 1.12755 -1.44771 0
M  V30 4691 H 446.832 3.74878 -1.27604 0
M  V30 4692 H 448.006 2.52032 -3.85767 0
M  V30 4693 H 446.321 2.40827 -3.39693 0
M  V30 4694 H 448.918 4.8951 -2.15138 0
M  V30 4695 H 449.261 4.11558 -0.62658 0
M  V30 4696 H 449.794 3.35104 -2.14359 0
M  V30 4697 H 446.533 4.22641 -5.01054 0
M  V30 4698 H 446.053 4.91252 -3.4414 0
M  V30 4699 H 447.732 5.075 -4.01314 0
M  V30 4700 N 447.864 1.01787 1.20321 0
M  V30 4701 C 448.811 0.589197 2.23153 0
M  V30 4702 C 449.781 -0.391367 1.61423 0
M  V30 4703 O 450.966 -0.290518 1.88575 0
M  V30 4704 C 448.106 -0.0650747 3.45039 0
M  V30 4705 C 447.219 0.960207 4.21194 0
M  V30 4706 C 446.354 0.276854 5.30478 0
M  V30 4707 C 445.393 1.2888 5.98378 0
M  V30 4708 N 444.53 0.632031 6.99249 0
M  V30 4709 H 449.37 1.47071 2.59179 0
M  V30 4710 H 446.907 0.736192 1.27352 0
M  V30 4711 H 448.865 -0.461552 4.14639 0
M  V30 4712 H 447.495 -0.910233 3.09701 0
M  V30 4713 H 446.547 1.47484 3.50646 0
M  V30 4714 H 447.859 1.72977 4.67847 0
M  V30 4715 H 447.013 -0.175056 6.06447 0
M  V30 4716 H 445.752 -0.525004 4.84866 0
M  V30 4717 H 444.757 1.75109 5.21169 0
M  V30 4718 H 445.982 2.09196 6.46076 0
M  V30 4719 H 443.928 -0.149935 6.55829 0
M  V30 4720 H 443.845 1.33964 7.44036 0
M  V30 4721 H 445.113 0.203755 7.79234 0
M  V30 4722 N 449.342 -1.36122 0.79427 0
M  V30 4723 C 450.29 -2.31871 0.184023 0
M  V30 4724 C 451.284 -1.56041 -0.659365 0
M  V30 4725 O 452.49 -1.71266 -0.553906 0
M  V30 4726 H 448.865 -0.750896 0.0407373 0
M  V30 4727 H 450.836 -2.80898 1.00693 0
M  V30 4728 C 449.585 -3.41324 -0.662813 0
M  V30 4729 H 448.908 -3.99793 -0.0231944 0
M  V30 4730 H 450.348 -4.10629 -1.05639 0
M  V30 4731 C 448.807 -2.83308 -1.82313 0
M  V30 4732 O 449.337 -2.75863 -2.91997 0
M  V30 4733 N 447.543 -2.40529 -1.63077 0
M  V30 4734 H 447.09 -2.46785 -0.738591 0
M  V30 4735 H 447.048 -2.02059 -2.40872 0
M  V30 4736 N 450.82 -0.546701 -1.47814 0
M  V30 4737 C 451.752 0.244196 -2.27895 0
M  V30 4738 C 452.765 0.88911 -1.36377 0
M  V30 4739 O 453.954 0.764733 -1.61289 0
M  V30 4740 C 451.054 1.36252 -3.10304 0
M  V30 4741 C 450.227 0.816382 -4.29714 0
M  V30 4742 C 449.286 1.81789 -4.93801 0
M  V30 4743 O 448.312 1.36818 -5.52512 0
M  V30 4744 N 449.514 3.15085 -4.87547 0
M  V30 4745 H 452.279 -0.442694 -2.96412 0
M  V30 4746 H 449.84 -0.382095 -1.57327 0
M  V30 4747 H 451.832 2.03102 -3.50045 0
M  V30 4748 H 450.402 1.95281 -2.44099 0
M  V30 4749 H 449.622 -0.0285981 -3.9419 0
M  V30 4750 H 450.91 0.430668 -5.06974 0
M  V30 4751 H 450.308 3.54275 -4.41028 0
M  V30 4752 H 448.865 3.77522 -5.31339 0
M  V30 4753 N 452.299 1.55045 -0.282633 0
M  V30 4754 C 453.262 2.21515 0.588539 0
M  V30 4755 C 454.262 1.19535 1.07554 0
M  V30 4756 O 455.452 1.44391 0.974514 0
M  V30 4757 C 452.584 2.88704 1.8128 0
M  V30 4758 H 453.777 2.99899 0.00806397 0
M  V30 4759 H 451.33 1.56265 -0.0333067 0
M  V30 4760 H 452.065 2.14352 2.43359 0
M  V30 4761 H 451.85 3.63443 1.47144 0
M  V30 4762 H 453.34 3.39465 2.43214 0
M  V30 4763 N 453.777 0.010035 1.57597 0
M  V30 4764 C 455.054 -0.710296 1.82248 0
M  V30 4765 C 455.434 -1.91426 0.889911 0
M  V30 4766 O 454.782 -2.28424 -0.0590292 0
M  V30 4767 C 454.992 -1.10655 3.30993 0
M  V30 4768 C 456.34 -1.50621 3.96987 0
M  V30 4769 O 457.364 -1.20007 3.35375 0
M  V30 4770 O 456.223 -2.07587 5.05539 0
M  V30 4771 H 453.317 -0.34673 0.750804 0
M  V30 4772 H 455.863 0.0362578 1.69661 0
M  V30 4773 H 454.635 -0.248826 3.90508 0
M  V30 4774 H 454.258 -1.91189 3.48615 0
M  V30 4775 N 455.255 -1.55392 -0.262866 0
M  V30 4776 C 456.495 -1.78231 -1.00064 0
M  V30 4777 C 456.859 -0.576966 -1.83126 0
M  V30 4778 O 458.06 -0.683809 -2.59957 0
M  V30 4779 C 456.331 -3.05701 -1.85153 0
M  V30 4780 S 457.89 -3.49699 -2.65058 0
M  V30 4781 H 454.708 -0.626138 -0.336856 0
M  V30 4782 H 457.31 -1.93626 -0.27005 0
M  V30 4783 H 456.014 -3.91511 -1.23074 0
M  V30 4784 H 455.545 -2.93 -2.62515 0
M  V30 4785 H 457.56 -3.09772 -3.87629 0
M  V30 4786 N 456.733 0.527833 -1.48498 0
M  V30 4787 C 457.982 1.28003 -1.55878 0
M  V30 4788 C 458.295 1.9414 -0.238577 0
M  V30 4789 O 459.501 2.7083 -0.190643 0
M  V30 4790 C 457.957 2.32272 -2.74914 0
M  V30 4791 C 457.565 1.72196 -4.13585 0
M  V30 4792 C 459.309 3.08488 -2.91608 0
M  V30 4793 C 457.216 2.74417 -5.23879 0
M  V30 4794 H 456.146 0.481413 -0.580308 0
M  V30 4795 H 458.797 0.557195 -1.74836 0
M  V30 4796 H 457.179 3.07601 -2.49395 0
M  V30 4797 H 458.353 1.03041 -4.49132 0
M  V30 4798 H 456.668 1.08464 -4.02025 0
M  V30 4799 H 459.265 3.84879 -3.71177 0
M  V30 4800 H 459.608 3.64481 -2.01145 0
M  V30 4801 H 460.141 2.40274 -3.17038 0
M  V30 4802 H 456.88 2.23242 -6.16314 0
M  V30 4803 H 456.4 3.41893 -4.92818 0
M  V30 4804 H 458.079 3.37362 -5.52083 0
M  V30 4805 N 458.211 1.37122 0.776871 0
M  V30 4806 C 459.622 1.28667 1.35284 0
M  V30 4807 C 459.973 -0.0680035 1.96082 0
M  V30 4808 O 459.098 -0.969743 1.93455 0
M  V30 4809 C 459.693 2.32997 2.45963 0
M  V30 4810 C 458.252 2.28191 2.99342 0
M  V30 4811 C 457.399 2.17101 1.72517 0
M  V30 4812 H 460.35 1.47819 0.577527 0
M  V30 4813 H 460.371 1.97366 3.2531 0
M  V30 4814 H 459.883 3.3158 2.01684 0
M  V30 4815 H 457.984 1.33115 3.4801 0
M  V30 4816 H 458.097 3.21397 3.55304 0
M  V30 4817 H 456.461 1.63562 1.95242 0
M  V30 4818 H 457.244 3.17591 1.30348 0
M  V30 4819 N 459.689 -1.00246 1.21608 0
M  V30 4820 C 460.936 -1.74061 1.03485 0
M  V30 4821 C 461.264 -1.89658 -0.431308 0
M  V30 4822 O 460.519 -1.42976 -1.33627 0
M  V30 4823 C 460.818 -3.15448 1.68009 0
M  V30 4824 C 460.484 -3.19792 3.17874 0
M  V30 4825 C 459.146 -3.20685 3.58768 0
M  V30 4826 C 461.498 -3.16835 4.13842 0
M  V30 4827 C 458.826 -3.16309 4.94131 0
M  V30 4828 C 461.178 -3.14001 5.49169 0
M  V30 4829 C 459.842 -3.13204 5.89457 0
M  V30 4830 H 459.112 -0.636934 0.378677 0
M  V30 4831 H 461.759 -1.17473 1.51236 0
M  V30 4832 H 460.064 -3.75284 1.12557 0
M  V30 4833 H 461.761 -3.71285 1.51487 0
M  V30 4834 H 458.351 -3.19842 2.85305 0
M  V30 4835 H 462.535 -3.15303 3.83272 0
M  V30 4836 H 457.791 -3.14032 5.24589 0
M  V30 4837 H 461.965 -3.10667 6.23265 0
M  V30 4838 H 459.592 -3.09568 6.94314 0
M  V30 4839 N 461.167 -1.02423 -1.1978 0
M  V30 4840 C 462.414 -0.717988 -1.89344 0
M  V30 4841 C 462.742 0.753036 -1.79331 0
M  V30 4842 O 461.997 1.56355 -1.17692 0
M  V30 4843 C 462.296 -1.1088 -3.39765 0
M  V30 4844 C 461.962 -2.57731 -3.6998 0
M  V30 4845 C 460.624 -2.97854 -3.77937 0
M  V30 4846 C 462.976 -3.52763 -3.83677 0
M  V30 4847 C 460.304 -4.31931 -3.97054 0
M  V30 4848 C 462.656 -4.86538 -4.04306 0
M  V30 4849 C 461.32 -5.26356 -4.10494 0
M  V30 4850 H 460.59 -0.26273 -0.692859 0
M  V30 4851 H 463.237 -1.28623 -1.41875 0
M  V30 4852 H 461.542 -0.459094 -3.89101 0
M  V30 4853 H 463.239 -0.849432 -3.919 0
M  V30 4854 H 459.829 -2.25646 -3.64393 0
M  V30 4855 H 464.013 -3.2292 -3.76877 0
M  V30 4856 H 459.269 -4.62324 -4.00083 0
M  V30 4857 H 463.443 -5.60093 -4.13846 0
M  V30 4858 H 461.07 -6.3026 -4.2506 0
M  V30 4859 N 462.645 1.35699 -0.801477 0
M  V30 4860 C 464.061 1.52065 -0.484596 0
M  V30 4861 C 464.261 1.75215 0.995084 0
M  V30 4862 O 463.317 1.79061 1.78026 0
M  V30 4863 C 464.63 2.69908 -1.32552 0
M  V30 4864 C 466.178 2.83784 -1.32044 0
M  V30 4865 C 466.653 4.04646 -2.14536 0
M  V30 4866 N 468.144 4.11814 -2.12046 0
M  V30 4867 C 468.879 5.04437 -2.72636 0
M  V30 4868 N 468.375 6.02426 -3.42133 0
M  V30 4869 N 470.168 4.97144 -2.62305 0
M  V30 4870 H 462.319 1.18928 -1.75983 0
M  V30 4871 H 464.582 0.581455 -0.748741 0
M  V30 4872 H 464.288 2.59363 -2.37537 0
M  V30 4873 H 464.162 3.64376 -0.975181 0
M  V30 4874 H 466.549 2.93783 -0.27846 0
M  V30 4875 H 466.63 1.90188 -1.71062 0
M  V30 4876 H 466.274 3.95407 -3.18772 0
M  V30 4877 H 466.204 4.97413 -1.72882 0
M  V30 4878 H 468.695 3.41664 -1.61476 0
M  V30 4879 H 469.008 6.69688 -3.85666 0
M  V30 4880 H 467.353 6.02615 -3.46237 0
M  V30 4881 H 470.544 4.19546 -2.07603 0
M  V30 4882 H 470.717 5.69138 -3.09815 0
M  V30 4883 N 464.123 0.554532 1.47522 0
M  V30 4884 C 465.348 0.0322661 2.07375 0
M  V30 4885 C 465.773 -1.25079 1.40488 0
M  V30 4886 O 465.131 -1.74859 0.47896 0
M  V30 4887 C 465.179 -0.149397 3.6029 0
M  V30 4888 O 464.283 -1.21259 3.9417 0
M  V30 4889 H 463.624 0.0501228 0.662106 0
M  V30 4890 H 466.154 0.769452 1.8958 0
M  V30 4891 H 466.164 -0.364437 4.06369 0
M  V30 4892 H 464.839 0.787743 4.08372 0
M  V30 4893 H 463.416 -0.97825 3.5984 0
M  V30 4894 N 465.601 -1.54893 0.290851 0
M  V30 4895 C 466.841 -2.01842 -0.322388 0
M  V30 4896 C 467.205 -1.17477 -1.51865 0
M  V30 4897 O 468.406 -1.54077 -2.20258 0
M  V30 4898 C 466.677 -3.50874 -0.679844 0
M  V30 4899 S 468.236 -4.19796 -1.27739 0
M  V30 4900 H 465.054 -0.704005 -0.0994866 0
M  V30 4901 H 467.656 -1.91015 0.416358 0
M  V30 4902 H 466.36 -4.09915 0.199435 0
M  V30 4903 H 465.891 -3.65717 -1.44964 0
M  V30 4904 H 467.906 -4.24729 -2.56554 0
M  V30 4905 N 467.08 -0.0183926 -1.57589 0
M  V30 4906 C 468.491 0.521927 -1.79256 0
M  V30 4907 C 468.842 1.72885 -0.927636 0
M  V30 4908 O 467.967 2.15978 -0.135091 0
M  V30 4909 C 468.562 0.953632 -3.25102 0
M  V30 4910 C 467.121 1.43913 -3.47801 0
M  V30 4911 C 466.268 0.398837 -2.74417 0
M  V30 4912 H 469.219 -0.244485 -1.56805 0
M  V30 4913 H 469.24 1.81863 -3.34224 0
M  V30 4914 H 468.752 0.0750123 -3.88028 0
M  V30 4915 H 466.853 2.33804 -2.90115 0
M  V30 4916 H 466.966 1.45391 -4.56507 0
M  V30 4917 H 465.33 0.864572 -2.39577 0
M  V30 4918 H 466.113 -0.471132 -3.40052 0
M  V30 4919 N 468.558 1.5553 0.254621 0
M  V30 4920 C 469.521 1.88872 1.29846 0
M  V30 4921 C 470.521 0.764591 1.41459 0
M  V30 4922 O 471.711 1.03265 1.40293 0
M  V30 4923 C 468.843 2.11032 2.67728 0
M  V30 4924 H 470.036 2.82201 1.01502 0
M  V30 4925 H 467.589 1.48303 0.493556 0
M  V30 4926 H 468.324 1.20146 3.01223 0
M  V30 4927 H 468.109 2.92895 2.60682 0
M  V30 4928 H 469.599 2.38038 3.43115 0
M  V30 4929 N 470.036 -0.519951 1.48776 0
M  V30 4930 C 471.276 -1.2856 1.58908 0
M  V30 4931 C 471.64 -1.90212 0.261418 0
M  V30 4932 O 472.841 -2.67746 0.237791 0
M  V30 4933 C 471.112 -2.33836 2.70288 0
M  V30 4934 S 472.671 -3.19992 3.0025 0
M  V30 4935 H 469.489 -0.43717 0.560717 0
M  V30 4936 H 472.091 -0.591205 1.86346 0
M  V30 4937 H 470.795 -1.87041 3.653 0
M  V30 4938 H 470.326 -3.07969 2.44783 0
M  V30 4939 H 472.341 -4.34122 2.40317 0
M  V30 4940 N 471.514 -1.37532 -0.769588 0
M  V30 4941 C 472.925 -1.29382 -1.346 0
M  V30 4942 C 473.276 0.0576039 -1.96115 0
M  V30 4943 O 472.401 0.95947 -1.93967 0
M  V30 4944 C 472.996 -2.34298 -2.44724 0
M  V30 4945 C 471.555 -2.29776 -2.98128 0
M  V30 4946 C 470.702 -2.18013 -1.71364 0
M  V30 4947 H 473.653 -1.48123 -0.56968 0
M  V30 4948 H 473.674 -1.99089 -3.24259 0
M  V30 4949 H 473.186 -3.32645 -1.99922 0
M  V30 4950 H 471.287 -1.34959 -3.47299 0
M  V30 4951 H 471.4 -3.23276 -3.53595 0
M  V30 4952 H 469.764 -1.64595 -1.94372 0
M  V30 4953 H 470.547 -3.18278 -1.28662 0
M  V30 4954 N 472.992 0.995999 -1.22138 0
M  V30 4955 C 474.24 1.73167 -1.042 0
M  V30 4956 C 474.561 1.90329 0.42423 0
M  V30 4957 O 473.831 1.4607 1.30539 0
M  V30 4958 H 472.411 0.641593 -0.38258 0
M  V30 4959 H 475.073 1.19974 -1.53598 0
M  V30 4960 H 474.169 2.72734 -1.51731 0
M  V30 4961 N 474.47 1.03057 1.19235 0
M  V30 4962 C 475.695 0.74757 1.93458 0
M  V30 4963 C 476.12 -0.687648 1.7508 0
M  V30 4964 O 475.478 -1.47499 1.05422 0
M  V30 4965 C 475.526 1.10604 3.43219 0
M  V30 4966 O 474.63 0.225671 4.11782 0
M  V30 4967 H 473.971 0.276047 0.603899 0
M  V30 4968 H 476.501 1.3777 1.51263 0
M  V30 4969 H 476.511 1.06366 3.93891 0
M  V30 4970 H 475.186 2.15165 3.55917 0
M  V30 4971 H 473.763 0.326795 3.71465 0
M  V30 4972 N 475.948 -1.35272 0.808662 0
M  V30 4973 C 476.896 -2.31663 0.208606 0
M  V30 4974 C 477.89 -1.56731 -0.642778 0
M  V30 4975 O 479.096 -1.71843 -0.53571 0
M  V30 4976 H 475.471 -0.750421 0.0486993 0
M  V30 4977 H 477.442 -2.79814 1.03666 0
M  V30 4978 C 476.191 -3.42008 -0.626573 0
M  V30 4979 H 475.514 -3.99795 0.0192103 0
M  V30 4980 H 476.954 -4.11727 -1.01278 0
M  V30 4981 C 475.413 -2.85226 -1.79298 0
M  V30 4982 O 475.943 -2.78945 -2.89055 0
M  V30 4983 N 474.149 -2.42245 -1.60516 0
M  V30 4984 H 473.696 -2.47554 -0.712375 0
M  V30 4985 H 473.654 -2.04603 -2.38715 0
M  V30 4986 N 477.426 -0.562348 -1.47226 0
M  V30 4987 C 478.675 -0.038041 -2.01664 0
M  V30 4988 C 478.988 1.32199 -1.44162 0
M  V30 4989 O 480.194 1.9365 -1.90294 0
M  V30 4990 C 478.65 -0.0174958 -3.59896 0
M  V30 4991 C 478.258 -1.3746 -4.2639 0
M  V30 4992 C 480.002 0.453934 -4.22066 0
M  V30 4993 C 477.909 -1.31289 -5.76643 0
M  V30 4994 H 476.839 -0.0104511 -0.753928 0
M  V30 4995 H 479.49 -0.710966 -1.69167 0
M  V30 4996 H 477.872 0.721182 -3.89378 0
M  V30 4997 H 479.046 -2.1314 -4.08544 0
M  V30 4998 H 477.361 -1.78438 -3.7623 0
M  V30 4999 H 479.958 0.518584 -5.32179 0
M  V30 5000 H 480.301 1.46706 -3.89594 0
M  V30 5001 H 480.834 -0.230044 -3.97134 0
M  V30 5002 H 477.573 -2.30217 -6.13743 0
M  V30 5003 H 477.093 -0.597973 -5.96812 0
M  V30 5004 H 478.772 -1.01713 -6.38955 0
M  V30 5005 N 478.904 1.54736 -0.299062 0
M  V30 5006 C 480.132 2.04512 0.313447 0
M  V30 5007 C 480.547 1.17643 1.47667 0
M  V30 5008 O 479.904 0.20164 1.81383 0
M  V30 5009 C 479.955 3.53171 0.771542 0
M  V30 5010 O 479.676 4.36736 -0.345379 0
M  V30 5011 C 481.177 4.18936 1.4494 0
M  V30 5012 H 478.397 0.667507 0.0683784 0
M  V30 5013 H 480.941 1.99752 -0.438129 0
M  V30 5014 H 479.096 3.58298 1.47314 0
M  V30 5015 H 479.51 5.24499 0.0109219 0
M  V30 5016 H 480.984 5.24482 1.72111 0
M  V30 5017 H 481.461 3.68554 2.38883 0
M  V30 5018 H 482.067 4.17879 0.791028 0
M  V30 5019 N 480.382 0.0267497 1.57577 0
M  V30 5020 C 481.631 -0.651736 1.9088 0
M  V30 5021 C 481.944 -1.73427 0.904576 0
M  V30 5022 O 483.15 -2.46923 1.12877 0
M  V30 5023 C 481.606 -1.21048 3.38933 0
M  V30 5024 C 481.214 -0.161362 4.47709 0
M  V30 5025 C 482.958 -1.86562 3.81307 0
M  V30 5026 C 480.865 -0.731611 5.86857 0
M  V30 5027 H 479.795 -0.247198 0.712326 0
M  V30 5028 H 482.446 0.0916641 1.83271 0
M  V30 5029 H 480.828 -2.00542 3.41466 0
M  V30 5030 H 482.002 0.61094 4.56732 0
M  V30 5031 H 480.317 0.394877 4.14523 0
M  V30 5032 H 482.914 -2.30178 4.8262 0
M  V30 5033 H 483.257 -2.70735 3.16241 0
M  V30 5034 H 483.79 -1.13762 3.81186 0
M  V30 5035 H 480.529 0.0719329 6.55461 0
M  V30 5036 H 480.049 -1.47245 5.81445 0
M  V30 5037 H 481.728 -1.22208 6.35354 0
M  V30 5038 N 481.861 -1.55662 -0.24637 0
M  V30 5039 C 483.277 -1.48098 -0.594907 0
M  V30 5040 C 483.477 -0.717044 -1.8831 0
M  V30 5041 O 482.533 -0.246618 -2.51293 0
M  V30 5042 C 483.846 -2.92507 -0.697146 0
M  V30 5043 C 485.394 -3.02881 -0.789436 0
M  V30 5044 C 485.869 -4.48598 -0.923232 0
M  V30 5045 N 487.36 -4.52538 -0.988088 0
M  V30 5046 C 488.095 -5.62536 -1.11089 0
M  V30 5047 N 487.591 -6.82342 -1.19919 0
M  V30 5048 N 489.384 -5.50334 -1.14408 0
M  V30 5049 H 481.535 -2.0377 0.599278 0
M  V30 5050 H 483.798 -0.925145 0.20691 0
M  V30 5051 H 483.504 -3.51242 0.179396 0
M  V30 5052 H 483.378 -3.43024 -1.5689 0
M  V30 5053 H 485.765 -2.44226 -1.65643 0
M  V30 5054 H 485.846 -2.55574 0.107482 0
M  V30 5055 H 485.49 -5.07864 -0.0607927 0
M  V30 5056 H 485.42 -4.93587 -1.8352 0
M  V30 5057 H 487.911 -3.66248 -0.931167 0
M  V30 5058 H 488.224 -7.61924 -1.29197 0
M  V30 5059 H 486.569 -6.85102 -1.16876 0
M  V30 5060 H 489.76 -4.5567 -1.07158 0
M  V30 5061 H 489.933 -6.36096 -1.23634 0
M  V30 5062 N 483.339 0.512053 -1.4905 0
M  V30 5063 C 484.287 1.63568 -1.65373 0
M  V30 5064 C 485.281 1.61228 -0.519806 0
M  V30 5065 O 486.487 1.65869 -0.699101 0
M  V30 5066 H 482.862 0.542019 -0.521267 0
M  V30 5067 H 484.833 1.4695 -2.59708 0
M  V30 5068 C 483.582 3.01761 -1.7273 0
M  V30 5069 H 482.905 3.04263 -2.59353 0
M  V30 5070 H 484.345 3.79948 -1.8819 0
M  V30 5071 C 482.804 3.33609 -0.46973 0
M  V30 5072 O 483.334 3.99607 0.409492 0
M  V30 5073 N 481.54 2.88651 -0.336003 0
M  V30 5074 H 481.087 2.35119 -1.05247 0
M  V30 5075 H 481.045 3.10328 0.504363 0
M  V30 5076 N 484.817 1.37938 0.762283 0
M  V30 5077 C 485.749 1.30349 1.88525 0
M  V30 5078 C 486.762 0.217402 1.61342 0
M  V30 5079 O 487.951 0.474291 1.72084 0
M  V30 5080 C 485.051 0.994844 3.23969 0
M  V30 5081 C 484.224 2.18829 3.78725 0
M  V30 5082 C 483.283 1.84844 4.92665 0
M  V30 5083 O 482.309 2.57244 5.07754 0
M  V30 5084 N 483.511 0.798201 5.74986 0
M  V30 5085 H 486.276 2.27114 1.95549 0
M  V30 5086 H 483.837 1.31686 0.941825 0
M  V30 5087 H 485.829 0.748168 3.97724 0
M  V30 5088 H 484.399 0.115446 3.12387 0
M  V30 5089 H 483.619 2.59615 2.96637 0
M  V30 5090 H 484.907 2.98497 4.1204 0
M  V30 5091 H 484.305 0.197611 5.65355 0
M  V30 5092 H 482.862 0.611396 6.48926 0
M  V30 5093 N 486.295 -0.989507 1.22664 0
M  V30 5094 C 487.544 -1.72375 1.04737 0
M  V30 5095 C 487.857 -1.91096 -0.417316 0
M  V30 5096 O 489.063 -2.6188 -0.716334 0
M  V30 5097 C 487.519 -3.10161 1.82561 0
M  V30 5098 C 487.127 -2.99358 3.333 0
M  V30 5099 C 488.871 -3.87607 1.73093 0
M  V30 5100 C 486.778 -4.32319 4.03552 0
M  V30 5101 H 485.708 -0.646326 0.388302 0
M  V30 5102 H 488.359 -1.10437 1.46546 0
M  V30 5103 H 486.741 -3.728 1.33552 0
M  V30 5104 H 487.915 -2.45863 3.89728 0
M  V30 5105 H 486.23 -2.35392 3.43481 0
M  V30 5106 H 488.827 -4.86025 2.22899 0
M  V30 5107 H 489.17 -4.10509 0.691976 0
M  V30 5108 H 489.703 -3.31652 2.19663 0
M  V30 5109 H 486.442 -4.14616 5.07714 0
M  V30 5110 H 485.962 -4.85714 3.51911 0
M  V30 5111 H 487.641 -5.01051 4.09337 0
M  V30 5112 N 487.773 -1.03688 -1.18687 0
M  V30 5113 C 488.721 -0.618292 -2.24232 0
M  V30 5114 C 489.715 0.353045 -1.6568 0
M  V30 5115 O 490.921 0.220749 -1.78641 0
M  V30 5116 H 487.296 -0.181711 -0.729716 0
M  V30 5117 H 489.267 -1.51893 -2.56848 0
M  V30 5118 C 488.016 0.00677342 -3.47699 0
M  V30 5119 H 487.339 -0.731692 -3.93047 0
M  V30 5120 H 488.779 0.262492 -4.23187 0
M  V30 5121 C 487.238 1.25572 -3.12623 0
M  V30 5122 O 487.768 2.34691 -3.26011 0
M  V30 5123 N 485.974 1.14755 -2.66982 0
M  V30 5124 H 485.521 0.259601 -2.56289 0
M  V30 5125 H 485.479 1.98412 -2.43885 0
M  V30 5126 N 489.251 1.34841 -0.815825 0
M  V30 5127 C 490.214 2.27959 -0.238185 0
M  V30 5128 C 491.214 1.49983 0.579816 0
M  V30 5129 O 492.404 1.69617 0.396953 0
M  V30 5130 C 489.536 3.34314 0.666876 0
M  V30 5131 H 490.729 2.80558 -1.05958 0
M  V30 5132 H 488.282 1.44852 -0.587156 0
M  V30 5133 H 489.017 2.86916 1.5116 0
M  V30 5134 H 488.802 3.92014 0.0819106 0
M  V30 5135 H 490.292 4.0379 1.06506 0
M  V30 5136 N 490.729 0.570148 1.46925 0
M  V30 5137 C 491.659 -0.158274 2.32963 0
M  V30 5138 C 492.64 -0.896093 1.44583 0
M  V30 5139 O 493.825 -0.874022 1.7342 0
M  V30 5140 C 490.955 -1.18055 3.26619 0
M  V30 5141 C 489.909 -0.558379 4.24342 0
M  V30 5142 C 489.235 -1.68623 5.07415 0
M  V30 5143 C 490.535 0.496295 5.19937 0
M  V30 5144 H 492.229 0.560046 2.94115 0
M  V30 5145 H 489.775 0.270775 1.41431 0
M  V30 5146 H 491.728 -1.69841 3.85658 0
M  V30 5147 H 490.452 -1.92899 2.63548 0
M  V30 5148 H 489.111 -0.0617157 3.66548 0
M  V30 5149 H 488.759 -2.42402 4.40738 0
M  V30 5150 H 488.459 -1.27564 5.73586 0
M  V30 5151 H 489.983 -2.20709 5.69315 0
M  V30 5152 H 491.397 0.0640052 5.73264 0
M  V30 5153 H 489.794 0.82649 5.94381 0
M  V30 5154 H 490.864 1.38735 4.6463 0
M  V30 5155 N 492.207 -1.54576 0.307264 0
M  V30 5156 C 493.435 -2.04675 -0.302597 0
M  V30 5157 C 493.85 -1.18425 -1.47041 0
M  V30 5158 O 493.207 -0.211257 -1.81273 0
M  V30 5159 C 493.258 -3.53575 -0.752801 0
M  V30 5160 O 492.979 -4.36547 0.368536 0
M  V30 5161 C 494.48 -4.19699 -1.42717 0
M  V30 5162 H 491.7 -0.66786 -0.0648374 0
M  V30 5163 H 494.244 -1.99516 0.448716 0
M  V30 5164 H 492.399 -3.59074 -1.45412 0
M  V30 5165 H 492.813 -5.24497 0.0168937 0
M  V30 5166 H 494.287 -5.25388 -1.69327 0
M  V30 5167 H 494.764 -3.69815 -2.36925 0
M  V30 5168 H 495.37 -4.18293 -0.768856 0
M  V30 5169 N 493.685 -0.035106 -1.57561 0
M  V30 5170 C 494.91 0.655802 -1.96759 0
M  V30 5171 C 495.335 1.64523 -0.911809 0
M  V30 5172 O 494.693 1.80857 0.126673 0
M  V30 5173 C 494.741 1.33326 -3.35047 0
M  V30 5174 O 493.845 2.44866 -3.31835 0
M  V30 5175 H 493.186 0.171807 -0.641388 0
M  V30 5176 H 495.716 -0.0987369 -2.04362 0
M  V30 5177 H 495.726 1.68867 -3.71413 0
M  V30 5178 H 494.401 0.608033 -4.11431 0
M  V30 5179 H 492.978 2.11392 -3.07193 0
M  V30 5180 N 495.163 1.55791 0.238111 0
M  V30 5181 C 496.41 1.78033 0.964907 0
M  V30 5182 C 496.738 0.600984 1.84982 0
M  V30 5183 O 495.993 -0.41536 1.91241 0
M  V30 5184 C 496.292 3.05869 1.84875 0
M  V30 5185 C 495.958 4.36808 1.11846 0
M  V30 5186 C 494.62 4.72388 0.916662 0
M  V30 5187 C 496.972 5.17717 0.60151 0
M  V30 5188 C 494.3 5.86406 0.185756 0
M  V30 5189 C 496.652 6.32494 -0.115972 0
M  V30 5190 C 495.316 6.66688 -0.329168 0
M  V30 5191 H 494.586 0.651469 0.353085 0
M  V30 5192 H 497.233 1.90061 0.234318 0
M  V30 5193 H 495.538 2.88891 2.64668 0
M  V30 5194 H 497.235 3.20278 2.41294 0
M  V30 5195 H 493.825 4.08862 1.28569 0
M  V30 5196 H 498.009 4.90678 0.744932 0
M  V30 5197 H 493.265 6.11399 0.0101886 0
M  V30 5198 H 497.439 6.94425 -0.524127 0
M  V30 5199 H 495.066 7.54884 -0.897474 0
M  V30 5200 N 496.642 -0.504142 1.49319 0
M  V30 5201 C 497.888 -1.26033 1.58882 0
M  V30 5202 C 498.221 -1.92268 0.273274 0
M  V30 5203 O 497.496 -1.80567 -0.72291 0
M  V30 5204 C 497.779 -2.32976 2.7458 0
M  V30 5205 C 497.632 -1.71263 4.1592 0
M  V30 5206 C 498.951 -3.34561 2.85932 0
M  V30 5207 H 496.07 -0.456863 0.578312 0
M  V30 5208 H 498.712 -0.558965 1.81592 0
M  V30 5209 H 496.862 -2.92796 2.55348 0
M  V30 5210 H 498.534 -1.15294 4.4666 0
M  V30 5211 H 496.777 -1.01686 4.21714 0
M  V30 5212 H 497.448 -2.48816 4.92742 0
M  V30 5213 H 499.924 -2.84727 3.0343 0
M  V30 5214 H 498.8 -4.06754 3.68568 0
M  V30 5215 H 499.061 -3.96695 1.95154 0
M  V30 5216 N 498.12 -1.38341 -0.754957 0
M  V30 5217 C 499.397 -1.24995 -1.50451 0
M  V30 5218 C 499.777 0.149244 -2.10572 0
M  V30 5219 O 499.125 1.15861 -1.96948 0
M  V30 5220 C 499.335 -2.35904 -2.57197 0
M  V30 5221 C 500.683 -2.74262 -3.24138 0
M  V30 5222 O 501.707 -2.35205 -2.67501 0
M  V30 5223 O 500.566 -3.4161 -4.26574 0
M  V30 5224 H 497.66 -0.48872 -0.667144 0
M  V30 5225 H 500.206 -1.50165 -0.790486 0
M  V30 5226 H 498.978 -3.2953 -2.11011 0
M  V30 5227 H 498.601 -2.12291 -3.36182 0
M  V30 5228 N 499.598 0.982988 -1.23187 0
M  V30 5229 C 500.561 2.05649 -1.01198 0
M  V30 5230 C 501.561 1.6078 0.0252464 0
M  V30 5231 O 502.751 1.72878 -0.214243 0
M  V30 5232 C 499.883 3.36744 -0.530656 0
M  V30 5233 H 501.076 2.2659 -1.96461 0
M  V30 5234 H 498.629 1.15602 -1.05195 0
M  V30 5235 H 499.364 3.21492 0.425873 0
M  V30 5236 H 499.149 3.7065 -1.2791 0
M  V30 5237 H 500.639 4.15705 -0.397366 0
M  V30 5238 N 501.076 1.04316 1.18135 0
M  V30 5239 C 502.301 0.768047 1.92655 0
M  V30 5240 C 502.726 -0.66904 1.758 0
M  V30 5241 O 502.084 -1.46372 1.06981 0
M  V30 5242 C 502.132 1.14239 3.42026 0
M  V30 5243 O 501.236 0.269333 4.1152 0
M  V30 5244 H 500.577 0.282436 0.600937 0
M  V30 5245 H 503.107 1.39367 1.49793 0
M  V30 5246 H 503.117 1.10538 3.92741 0
M  V30 5247 H 501.792 2.18928 3.53615 0
M  V30 5248 H 500.369 0.366175 3.71098 0
M  V30 5249 N 502.554 -1.34406 0.822964 0
M  V30 5250 C 503.487 -2.27407 0.190124 0
M  V30 5251 C 504.465 -1.4889 -0.653486 0
M  V30 5252 O 505.649 -1.78109 -0.617216 0
M  V30 5253 C 502.776 -3.3064 -0.734477 0
M  V30 5254 C 501.822 -4.26488 0.0316099 0
M  V30 5255 S 502.655 -5.17445 1.3788 0
M  V30 5256 C 503.811 -6.24214 0.45907 0
M  V30 5257 H 504.044 -2.80733 0.978586 0
M  V30 5258 H 501.577 -1.41455 0.618866 0
M  V30 5259 H 503.535 -3.90607 -1.26238 0
M  V30 5260 H 502.196 -2.76161 -1.49646 0
M  V30 5261 H 501.389 -4.9951 -0.671285 0
M  V30 5262 H 500.991 -3.70775 0.490066 0
M  V30 5263 H 503.283 -6.76599 -0.349357 0
M  V30 5264 H 504.226 -6.98551 1.15896 0
M  V30 5265 H 504.634 -5.6448 0.0474825 0
M  V30 5266 N 504.032 -0.577932 -1.46621 0
M  V30 5267 C 505.278 -0.0617793 -2.02706 0
M  V30 5268 C 505.611 1.29294 -1.44903 0
M  V30 5269 O 504.886 1.8461 -0.61232 0
M  V30 5270 C 505.169 0.00911824 -3.60099 0
M  V30 5271 C 505.022 -1.37416 -4.28295 0
M  V30 5272 C 506.341 0.712159 -4.343 0
M  V30 5273 H 503.46 -0.0239246 -0.736612 0
M  V30 5274 H 506.102 -0.744211 -1.74818 0
M  V30 5275 H 504.252 0.590292 -3.83989 0
M  V30 5276 H 505.924 -2.00013 -4.15683 0
M  V30 5277 H 504.167 -1.94319 -3.87843 0
M  V30 5278 H 504.838 -1.27707 -5.37024 0
M  V30 5279 H 507.314 0.218486 -4.15526 0
M  V30 5280 H 506.19 0.730782 -5.44014 0
M  V30 5281 H 506.451 1.77251 -4.05012 0
M  V30 5282 N 505.51 1.54411 -0.315457 0
M  V30 5283 C 506.74 2.04536 0.291315 0
M  V30 5284 C 507.148 1.19162 1.4696 0
M  V30 5285 O 506.491 0.213199 1.82459 0
M  V30 5286 C 506.553 3.5056 0.796725 0
M  V30 5287 C 506.217 4.5627 -0.258178 0
M  V30 5288 C 507.214 5.08312 -1.09153 0
M  V30 5289 C 504.899 5.00672 -0.404036 0
M  V30 5290 C 506.893 6.03312 -2.05655 0
M  V30 5291 C 504.58 5.95488 -1.37248 0
M  V30 5292 C 505.578 6.46693 -2.19721 0
M  V30 5293 O 505.266 7.39648 -3.14921 0
M  V30 5294 H 504.998 0.672856 0.0651165 0
M  V30 5295 H 507.552 2.00244 -0.457308 0
M  V30 5296 H 505.782 3.52223 1.59612 0
M  V30 5297 H 507.471 3.83804 1.32096 0
M  V30 5298 H 508.237 4.74793 -0.98979 0
M  V30 5299 H 504.116 4.60436 0.22799 0
M  V30 5300 H 507.66 6.43203 -2.70067 0
M  V30 5301 H 503.557 6.28424 -1.47489 0
M  V30 5302 H 504.325 7.57496 -3.10067 0
M  V30 5303 N 506.988 0.0434614 1.5754 0
M  V30 5304 C 508.236 -0.630786 1.92004 0
M  V30 5305 C 508.557 -1.71836 0.921807 0
M  V30 5306 O 507.827 -1.9587 -0.034522 0
M  V30 5307 H 506.407 -0.235988 0.708745 0
M  V30 5308 H 509.069 0.0946462 1.9467 0
M  V30 5309 H 508.165 -1.07434 2.93026 0
M  V30 5310 N 508.466 -1.55915 -0.229846 0
M  V30 5311 C 509.691 -1.8296 -0.976743 0
M  V30 5312 C 510.116 -0.622735 -1.77493 0
M  V30 5313 O 509.474 0.428431 -1.76165 0
M  V30 5314 C 509.522 -3.07916 -1.8767 0
M  V30 5315 O 508.626 -2.86028 -2.97088 0
M  V30 5316 H 507.967 -0.603453 -0.277021 0
M  V30 5317 H 510.497 -2.0312 -0.245669 0
M  V30 5318 H 510.507 -3.37802 -2.2881 0
M  V30 5319 H 509.182 -3.95389 -1.28996 0
M  V30 5320 H 507.759 -2.67355 -2.59954 0
M  V30 5321 N 509.944 0.496216 -1.49584 0
M  V30 5322 C 510.854 1.62352 -1.69349 0
M  V30 5323 C 511.87 1.64184 -0.576147 0
M  V30 5324 O 513.046 1.82517 -0.85144 0
M  V30 5325 C 510.111 2.98698 -1.76013 0
M  V30 5326 C 509.172 3.07454 -2.99617 0
M  V30 5327 C 508.405 4.37296 -3.05953 0
M  V30 5328 O 508.628 5.2637 -2.19752 0
M  V30 5329 O 507.562 4.51124 -3.9846 0
M  V30 5330 H 511.388 1.48606 -2.64859 0
M  V30 5331 H 508.973 0.673022 -1.33382 0
M  V30 5332 H 510.855 3.79725 -1.82721 0
M  V30 5333 H 509.53 3.12696 -0.836828 0
M  V30 5334 H 508.437 2.25597 -2.98424 0
M  V30 5335 H 509.77 2.98385 -3.91443 0
M  V30 5336 N 511.423 1.38739 0.74761 0
M  V30 5337 C 512.333 1.38696 1.89211 0
M  V30 5338 C 513.349 0.283303 1.71678 0
M  V30 5339 O 514.525 0.522713 1.94498 0
M  V30 5340 C 511.59 1.21662 3.24653 0
M  V30 5341 C 510.651 2.41886 3.54669 0
M  V30 5342 C 509.884 2.25655 4.83648 0
M  V30 5343 O 510.107 1.25339 5.56459 0
M  V30 5344 O 509.041 3.14372 5.13277 0
M  V30 5345 H 512.867 2.35143 1.92202 0
M  V30 5346 H 510.452 1.19721 0.893708 0
M  V30 5347 H 512.334 1.14246 4.05618 0
M  V30 5348 H 511.009 0.283024 3.2246 0
M  V30 5349 H 509.916 2.54877 2.73841 0
M  V30 5350 H 511.249 3.33895 3.61628 0
M  V30 5351 N 512.901 -0.976442 1.23707 0
M  V30 5352 C 514.312 -1.53284 1.06587 0
M  V30 5353 C 514.663 -1.92765 -0.365526 0
M  V30 5354 O 513.788 -1.7645 -1.25277 0
M  V30 5355 C 514.383 -2.78548 1.92864 0
M  V30 5356 C 512.942 -3.30574 1.79994 0
M  V30 5357 C 512.089 -2.03538 1.88328 0
M  V30 5358 H 515.04 -0.795692 1.37311 0
M  V30 5359 H 515.061 -3.5155 1.45577 0
M  V30 5360 H 514.573 -2.49782 2.97037 0
M  V30 5361 H 512.674 -3.64211 0.786202 0
M  V30 5362 H 512.787 -4.00065 2.636 0
M  V30 5363 H 511.151 -2.17853 1.31954 0
M  V30 5364 H 511.934 -1.77149 2.94063 0
M  V30 5365 N 514.379 -1.04941 -1.1758 0
M  V30 5366 C 515.309 -0.669172 -2.23706 0
M  V30 5367 C 516.29 0.331835 -1.66832 0
M  V30 5368 O 517.475 0.209988 -1.93061 0
M  V30 5369 C 514.605 -0.0404889 -3.47276 0
M  V30 5370 C 513.559 -0.965983 -4.16957 0
M  V30 5371 C 512.885 -0.201312 -5.34321 0
M  V30 5372 C 514.185 -2.28902 -4.69469 0
M  V30 5373 H 515.879 -1.55639 -2.55767 0
M  V30 5374 H 513.425 -0.749793 -1.22939 0
M  V30 5375 H 515.378 0.237298 -4.20731 0
M  V30 5376 H 514.102 0.881658 -3.14475 0
M  V30 5377 H 512.761 -1.22829 -3.45411 0
M  V30 5378 H 512.409 0.723519 -4.97769 0
M  V30 5379 H 512.109 -0.817968 -5.81879 0
M  V30 5380 H 513.633 0.0692499 -6.10561 0
M  V30 5381 H 515.047 -2.07132 -5.34574 0
M  V30 5382 H 513.444 -2.85942 -5.27596 0
M  V30 5383 H 514.514 -2.92937 -3.86414 0
M  V30 5384 N 515.857 1.33968 -0.830081 0
M  V30 5385 C 516.82 2.27694 -0.26235 0
M  V30 5386 C 517.82 1.50589 0.563876 0
M  V30 5387 O 519.01 1.70028 0.378941 0
M  V30 5388 C 516.142 3.35002 0.63138 0
M  V30 5389 H 517.335 2.79419 -1.08928 0
M  V30 5390 H 514.888 1.44221 -0.602486 0
M  V30 5391 H 515.623 2.88504 1.48109 0
M  V30 5392 H 515.408 3.92079 0.0403276 0
M  V30 5393 H 516.898 4.04897 1.02217 0
M  V30 5394 N 517.335 0.585699 1.46312 0
M  V30 5395 C 518.751 0.247607 1.57668 0
M  V30 5396 C 518.951 -1.25007 1.58037 0
M  V30 5397 O 518.007 -2.03196 1.49893 0
M  V30 5398 C 519.32 0.899456 2.86933 0
M  V30 5399 C 520.868 0.873326 3.00569 0
M  V30 5400 C 521.343 1.50477 4.32574 0
M  V30 5401 N 522.834 1.46925 4.3928 0
M  V30 5402 C 523.569 1.92719 5.40044 0
M  V30 5403 N 523.065 2.46499 6.47464 0
M  V30 5404 N 524.858 1.83617 5.31264 0
M  V30 5405 H 517.009 1.55841 1.44317 0
M  V30 5406 H 519.272 0.651564 0.688599 0
M  V30 5407 H 518.978 1.95313 2.92482 0
M  V30 5408 H 518.852 0.409476 3.74971 0
M  V30 5409 H 521.239 -0.171736 2.946 0
M  V30 5410 H 521.32 1.40136 2.13999 0
M  V30 5411 H 520.964 2.54905 4.39302 0
M  V30 5412 H 520.894 0.951944 5.17924 0
M  V30 5413 H 523.385 1.07616 3.62253 0
M  V30 5414 H 523.698 2.79291 7.20567 0
M  V30 5415 H 522.043 2.50526 6.48276 0
M  V30 5416 H 525.234 1.41358 4.46246 0
M  V30 5417 H 525.407 2.19622 6.09648 0
M  V30 5418 N 518.813 -1.54241 0.323641 0
M  V30 5419 C 519.761 -2.25813 -0.557804 0
M  V30 5420 C 520.755 -1.27225 -1.11849 0
M  V30 5421 O 521.961 -1.45001 -1.06652 0
M  V30 5422 H 518.336 -0.72532 -0.198532 0
M  V30 5423 H 520.307 -2.98322 0.0681112 0
M  V30 5424 C 519.056 -3.02913 -1.70701 0
M  V30 5425 H 518.379 -3.78593 -1.28482 0
M  V30 5426 H 519.819 -3.56238 -2.29935 0
M  V30 5427 C 518.278 -2.11217 -2.62467 0
M  V30 5428 O 518.808 -1.69508 -3.64184 0
M  V30 5429 N 517.014 -1.76704 -2.30703 0
M  V30 5430 H 516.561 -2.1082 -1.48029 0
M  V30 5431 H 516.519 -1.15631 -2.92364 0
M  V30 5432 N 520.291 -0.0518155 -1.57515 0
M  V30 5433 C 521.221 0.920283 -2.146 0
M  V30 5434 C 522.202 1.32406 -1.06783 0
M  V30 5435 O 523.387 1.39866 -1.34726 0
M  V30 5436 C 520.517 2.1949 -2.6915 0
M  V30 5437 C 519.471 1.93116 -3.81956 0
M  V30 5438 C 518.797 3.27037 -4.23026 0
M  V30 5439 C 520.097 1.25225 -5.07066 0
M  V30 5440 H 521.791 0.444801 -2.96077 0
M  V30 5441 H 519.337 0.212508 -1.42423 0
M  V30 5442 H 521.29 2.87894 -3.07725 0
M  V30 5443 H 520.014 2.69244 -1.84865 0
M  V30 5444 H 518.673 1.27123 -3.43854 0
M  V30 5445 H 518.321 3.74595 -3.3569 0
M  V30 5446 H 518.021 3.10189 -4.99056 0
M  V30 5447 H 519.545 3.96673 -4.64202 0
M  V30 5448 H 520.959 1.83666 -5.43083 0
M  V30 5449 H 519.356 1.18702 -5.88243 0
M  V30 5450 H 520.426 0.228382 -4.84362 0
M  V30 5451 N 521.769 1.56035 0.221574 0
M  V30 5452 C 523.185 1.49026 0.571271 0
M  V30 5453 C 523.385 0.746912 1.87146 0
M  V30 5454 O 522.441 0.286566 2.50869 0
M  V30 5455 C 523.754 2.93579 0.650522 0
M  V30 5456 C 525.302 3.04099 0.741151 0
M  V30 5457 C 525.777 4.5001 0.851747 0
M  V30 5458 N 527.268 4.54053 0.915968 0
M  V30 5459 C 528.003 5.64232 1.02125 0
M  V30 5460 N 527.499 6.84164 1.09049 0
M  V30 5461 N 529.292 5.52084 1.05639 0
M  V30 5462 H 521.443 2.02791 -0.63162 0
M  V30 5463 H 523.706 0.921736 -0.221602 0
M  V30 5464 H 523.412 3.50912 -0.235253 0
M  V30 5465 H 523.286 3.45476 1.51413 0
M  V30 5466 H 525.673 2.4683 1.61737 0
M  V30 5467 H 525.754 2.55371 -0.148128 0
M  V30 5468 H 525.398 5.07896 -0.0200117 0
M  V30 5469 H 525.328 4.96444 1.75644 0
M  V30 5470 H 527.819 3.67683 0.872782 0
M  V30 5471 H 528.132 7.63883 1.1706 0
M  V30 5472 H 526.477 6.86875 1.05962 0
M  V30 5473 H 529.668 4.57317 0.998953 0
M  V30 5474 H 529.841 6.37983 1.13498 0
M  V30 5475 N 523.247 -0.488276 1.49845 0
M  V30 5476 C 524.195 -1.60917 1.67954 0
M  V30 5477 C 525.189 -1.6038 0.54539 0
M  V30 5478 O 526.395 -1.64736 0.7254 0
M  V30 5479 H 522.77 -0.533658 0.529824 0
M  V30 5480 H 524.741 -1.428 2.62013 0
M  V30 5481 C 523.49 -2.98975 1.77509 0
M  V30 5482 H 522.813 -3.00099 2.6416 0
M  V30 5483 H 524.253 -3.76906 1.9421 0
M  V30 5484 C 522.712 -3.3282 0.522745 0
M  V30 5485 O 523.242 -4.00208 -0.345866 0
M  V30 5486 N 521.448 -2.8808 0.381882 0
M  V30 5487 H 520.995 -2.33415 1.08974 0
M  V30 5488 H 520.953 -3.11091 -0.454929 0
M  V30 5489 N 524.725 -1.39134 -0.740242 0
M  V30 5490 C 525.658 -1.3182 -1.86276 0
M  V30 5491 C 526.636 -0.192794 -1.61453 0
M  V30 5492 O 527.82 -0.372365 -1.84786 0
M  V30 5493 C 524.947 -1.04564 -3.22155 0
M  V30 5494 C 523.993 -2.19224 -3.65846 0
M  V30 5495 S 524.826 -3.81466 -3.75824 0
M  V30 5496 C 525.982 -3.56425 -5.14502 0
M  V30 5497 H 526.215 -2.26822 -1.92195 0
M  V30 5498 H 523.748 -1.25127 -0.904576 0
M  V30 5499 H 525.706 -0.895228 -4.00619 0
M  V30 5500 H 524.367 -0.112578 -3.13898 0
M  V30 5501 H 523.56 -1.95732 -4.6444 0
M  V30 5502 H 523.162 -2.30441 -2.94572 0
M  V30 5503 H 525.454 -3.13366 -6.00673 0
M  V30 5504 H 526.397 -4.54462 -5.43019 0
M  V30 5505 H 526.805 -2.90641 -4.8393 0
M  V30 5506 N 526.204 0.969867 -1.24223 0
M  V30 5507 C 527.429 1.75289 -1.10853 0
M  V30 5508 C 527.854 1.85091 0.335079 0
M  V30 5509 O 527.212 1.32024 1.24255 0
M  V30 5510 C 527.26 3.15255 -1.75062 0
M  V30 5511 O 526.364 3.99589 -1.01992 0
M  V30 5512 H 525.705 0.538904 -0.387915 0
M  V30 5513 H 528.235 1.21675 -1.64488 0
M  V30 5514 H 528.245 3.65787 -1.80731 0
M  V30 5515 H 526.92 3.07436 -2.801 0
M  V30 5516 H 525.497 3.58077 -1.04094 0
M  V30 5517 N 527.682 1.05563 1.17022 0
M  V30 5518 C 528.63 0.653887 2.2322 0
M  V30 5519 C 529.624 -0.326642 1.66221 0
M  V30 5520 O 530.83 -0.192301 1.7897 0
M  V30 5521 H 527.205 0.193297 0.726733 0
M  V30 5522 H 529.176 1.5596 2.54399 0
M  V30 5523 C 527.925 0.0485434 3.47666 0
M  V30 5524 H 527.248 0.79413 3.91834 0
M  V30 5525 H 528.688 -0.195133 4.23551 0
M  V30 5526 C 527.147 -1.20583 3.14581 0
M  V30 5527 O 527.677 -2.29475 3.29703 0
M  V30 5528 N 525.883 -1.10493 2.68774 0
M  V30 5529 H 525.43 -0.218795 2.56669 0
M  V30 5530 H 525.388 -1.94507 2.47011 0
M  V30 5531 N 529.16 -1.33526 0.837174 0
M  V30 5532 C 530.092 -2.28077 0.226579 0
M  V30 5533 C 531.105 -1.51666 -0.591717 0
M  V30 5534 O 532.294 -1.73511 -0.419064 0
M  V30 5535 C 529.394 -3.31597 -0.69978 0
M  V30 5536 C 528.567 -4.37329 0.0788067 0
M  V30 5537 C 527.626 -5.20526 -0.770637 0
M  V30 5538 O 526.652 -5.68811 -0.210453 0
M  V30 5539 N 527.854 -5.41639 -2.08825 0
M  V30 5540 H 530.619 -2.81115 1.03897 0
M  V30 5541 H 528.18 -1.46201 0.695476 0
M  V30 5542 H 530.172 -3.84158 -1.27298 0
M  V30 5543 H 528.742 -2.78848 -1.41288 0
M  V30 5544 H 527.962 -3.8529 0.833381 0
M  V30 5545 H 529.25 -5.05079 0.614238 0
M  V30 5546 H 528.648 -5.04108 -2.56693 0
M  V30 5547 H 527.205 -5.97263 -2.60998 0
M  V30 5548 N 530.638 -0.59345 -1.46 0
M  V30 5549 C 531.568 0.121192 -2.33185 0
M  V30 5550 C 532.549 0.872977 -1.4599 0
M  V30 5551 O 533.734 0.846321 -1.74789 0
M  V30 5552 C 530.864 1.12844 -3.28456 0
M  V30 5553 C 529.818 0.4908 -4.25177 0
M  V30 5554 C 529.144 1.60529 -5.10034 0
M  V30 5555 C 530.444 -0.578949 -5.19081 0
M  V30 5556 H 532.138 -0.606767 -2.93187 0
M  V30 5557 H 529.684 -0.293242 -1.40983 0
M  V30 5558 H 531.637 1.63684 -3.88311 0
M  V30 5559 H 530.361 1.88681 -2.66584 0
M  V30 5560 H 529.02 0.00339328 -3.666 0
M  V30 5561 H 528.668 2.35359 -4.44539 0
M  V30 5562 H 528.368 1.18422 -5.75543 0
M  V30 5563 H 529.892 2.11623 -5.72755 0
M  V30 5564 H 531.306 -0.155199 -5.7309 0
M  V30 5565 H 529.703 -0.920947 -5.92991 0
M  V30 5566 H 530.773 -1.46109 -4.62364 0
M  V30 5567 N 532.116 1.54067 -0.331816 0
M  V30 5568 C 533.364 2.00319 0.267739 0
M  V30 5569 C 533.685 1.22148 1.52003 0
M  V30 5570 O 532.955 0.325494 1.93177 0
M  V30 5571 H 531.535 0.740014 0.101922 0
M  V30 5572 H 534.197 1.89628 -0.450267 0
M  V30 5573 H 533.293 3.07765 0.518385 0
M  V30 5574 N 533.594 0.0601682 1.57485 0
M  V30 5575 C 534.524 -0.90889 2.15085 0
M  V30 5576 C 535.505 -1.31838 1.07484 0
M  V30 5577 O 536.69 -1.3915 1.35466 0
M  V30 5578 C 533.82 -2.18059 2.7031 0
M  V30 5579 C 532.774 -1.91088 3.82974 0
M  V30 5580 C 532.1 -3.24789 4.24754 0
M  V30 5581 C 533.4 -1.22535 5.07723 0
M  V30 5582 H 535.094 -0.429093 2.96309 0
M  V30 5583 H 532.64 -0.204952 1.42534 0
M  V30 5584 H 534.593 -2.86258 3.09248 0
M  V30 5585 H 533.317 -2.6826 1.8629 0
M  V30 5586 H 531.976 -1.25297 3.44523 0
M  V30 5587 H 531.624 -3.72809 3.37672 0
M  V30 5588 H 531.324 -3.07538 5.00694 0
M  V30 5589 H 532.848 -3.94205 4.66299 0
M  V30 5590 H 534.262 -1.80783 5.4405 0
M  V30 5591 H 532.659 -1.1558 5.88864 0
M  V30 5592 H 533.729 -0.202692 4.84476 0
M  V30 5593 N 535.072 -1.5615 -0.213296 0
M  V30 5594 C 536.002 -1.96109 -1.26742 0
M  V30 5595 C 536.983 -0.830448 -1.48451 0
M  V30 5596 O 538.168 -1.09339 -1.60495 0
M  V30 5597 C 535.298 -2.28492 -2.61551 0
M  V30 5598 C 534.252 -3.44124 -2.54485 0
M  V30 5599 C 533.578 -3.62134 -3.93399 0
M  V30 5600 C 534.878 -4.78855 -2.08556 0
M  V30 5601 H 536.572 -2.84412 -0.935434 0
M  V30 5602 H 534.118 -1.36836 -0.44854 0
M  V30 5603 H 536.071 -2.55039 -3.3546 0
M  V30 5604 H 534.795 -1.37052 -2.96453 0
M  V30 5605 H 533.454 -3.17639 -1.83033 0
M  V30 5606 H 533.102 -2.68055 -4.25623 0
M  V30 5607 H 532.802 -4.39913 -3.89551 0
M  V30 5608 H 534.326 -3.91038 -4.68958 0
M  V30 5609 H 535.74 -5.04552 -2.72213 0
M  V30 5610 H 534.137 -5.59975 -2.1575 0
M  V30 5611 H 535.207 -4.73657 -1.03811 0
M  V30 5612 N 536.55 0.480323 -1.50102 0
M  V30 5613 C 537.513 1.56181 -1.6775 0
M  V30 5614 C 538.513 1.51156 -0.548503 0
M  V30 5615 O 539.703 1.5394 -0.815363 0
M  V30 5616 C 536.835 2.95823 -1.69415 0
M  V30 5617 H 538.028 1.41855 -2.6423 0
M  V30 5618 H 535.581 0.70605 -1.39444 0
M  V30 5619 H 536.316 3.15604 -0.745948 0
M  V30 5620 H 536.101 3.00878 -2.51425 0
M  V30 5621 H 537.591 3.74359 -1.85054 0
M  V30 5622 N 538.028 1.39524 0.732853 0
M  V30 5623 C 539.274 1.37068 1.49467 0
M  V30 5624 C 539.607 -0.0327166 1.94172 0
M  V30 5625 O 538.882 -0.998071 1.66939 0
M  V30 5626 C 539.165 2.34494 2.73285 0
M  V30 5627 C 539.018 3.83784 2.34585 0
M  V30 5628 C 540.337 2.29717 3.75391 0
M  V30 5629 H 537.456 0.499206 0.542183 0
M  V30 5630 H 540.098 1.70532 0.837783 0
M  V30 5631 H 538.248 2.06087 3.29333 0
M  V30 5632 H 539.92 4.22949 1.84151 0
M  V30 5633 H 538.163 4.00455 1.66787 0
M  V30 5634 H 538.834 4.47444 3.23262 0
M  V30 5635 H 541.31 2.54839 3.28932 0
M  V30 5636 H 540.186 2.99962 4.59689 0
M  V30 5637 H 540.447 1.30291 4.22465 0
M  V30 5638 N 539.506 -0.963266 1.24736 0
M  V30 5639 C 540.454 -2.07985 1.04139 0
M  V30 5640 C 541.448 -1.69381 -0.0250556 0
M  V30 5641 O 542.654 -1.79531 0.129863 0
M  V30 5642 H 539.029 -0.680627 0.319768 0
M  V30 5643 H 541 -2.22517 1.98818 0
M  V30 5644 C 539.749 -3.4123 0.667615 0
M  V30 5645 H 539.072 -3.71397 1.48 0
M  V30 5646 H 540.512 -4.20244 0.563136 0
M  V30 5647 C 538.971 -3.3104 -0.625647 0
M  V30 5648 O 539.501 -3.65334 -1.67016 0
M  V30 5649 N 537.707 -2.84168 -0.608033 0
M  V30 5650 H 537.254 -2.56458 0.242323 0
M  V30 5651 H 537.212 -2.77732 -1.47352 0
M  V30 5652 N 540.985 -1.06182 -1.16461 0
M  V30 5653 C 541.917 -0.629584 -2.20383 0
M  V30 5654 C 542.93 0.311834 -1.59786 0
M  V30 5655 O 544.119 0.103 -1.78203 0
M  V30 5656 C 541.219 0.0973695 -3.3876 0
M  V30 5657 C 540.392 -0.857252 -4.28917 0
M  V30 5658 C 539.451 -0.169749 -5.25926 0
M  V30 5659 O 538.477 -0.807044 -5.6345 0
M  V30 5660 N 539.679 1.08911 -5.70192 0
M  V30 5661 H 542.444 -1.52352 -2.58087 0
M  V30 5662 H 540.005 -0.944993 -1.31459 0
M  V30 5663 H 541.997 0.567676 -4.00699 0
M  V30 5664 H 540.567 0.893093 -2.99571 0
M  V30 5665 H 539.787 -1.50696 -3.64259 0
M  V30 5666 H 541.075 -1.50489 -4.86035 0
M  V30 5667 H 540.473 1.62703 -5.41797 0
M  V30 5668 H 539.03 1.50331 -6.34227 0
M  V30 5669 N 542.463 1.3308 -0.844243 0
M  V30 5670 C 543.879 1.50447 -0.532729 0
M  V30 5671 C 544.079 1.78292 0.938837 0
M  V30 5672 O 543.135 1.84635 1.72239 0
M  V30 5673 C 544.448 2.65555 -1.41072 0
M  V30 5674 C 545.996 2.7944 -1.41005 0
M  V30 5675 C 546.471 3.97616 -2.27301 0
M  V30 5676 N 547.962 4.0486 -2.2504 0
M  V30 5677 C 548.697 4.95508 -2.88547 0
M  V30 5678 N 548.193 5.91236 -3.61126 0
M  V30 5679 N 549.986 4.88548 -2.77989 0
M  V30 5680 H 542.137 1.13269 -1.79677 0
M  V30 5681 H 544.4 0.55734 -0.766861 0
M  V30 5682 H 544.106 2.51675 -2.45668 0
M  V30 5683 H 543.98 3.61089 -1.09061 0
M  V30 5684 H 546.367 2.92749 -0.371784 0
M  V30 5685 H 546.448 1.8465 -1.77026 0
M  V30 5686 H 546.092 3.85066 -3.3119 0
M  V30 5687 H 546.022 4.91661 -1.88619 0
M  V30 5688 H 548.513 3.36353 -1.72264 0
M  V30 5689 H 548.826 6.57079 -4.06776 0
M  V30 5690 H 547.171 5.91295 -3.65234 0
M  V30 5691 H 550.362 4.12729 -2.20846 0
M  V30 5692 H 550.535 5.58994 -3.27765 0
M  V30 5693 N 543.941 0.601185 1.45683 0
M  V30 5694 C 545.188 0.0938811 2.02282 0
M  V30 5695 C 545.516 -1.27315 1.47041 0
M  V30 5696 O 544.771 -1.85193 0.632623 0
M  V30 5697 C 545.07 -0.00222425 3.574 0
M  V30 5698 C 544.736 1.29963 4.31764 0
M  V30 5699 C 543.398 1.65625 4.51798 0
M  V30 5700 C 545.75 2.1603 4.74321 0
M  V30 5701 C 543.078 2.87119 5.11644 0
M  V30 5702 C 545.43 3.36766 5.3551 0
M  V30 5703 C 544.094 3.72689 5.53768 0
M  V30 5704 H 543.364 0.0343535 0.740203 0
M  V30 5705 H 546.011 0.781522 1.74827 0
M  V30 5706 H 544.316 -0.773096 3.84097 0
M  V30 5707 H 546.013 -0.410794 3.9889 0
M  V30 5708 H 542.603 1.01204 4.1648 0
M  V30 5709 H 546.787 1.89778 4.58582 0
M  V30 5710 H 542.043 3.15065 5.2397 0
M  V30 5711 H 546.217 4.03713 5.67441 0
M  V30 5712 H 543.844 4.66918 5.99909 0
M  V30 5713 N 545.419 -1.53889 0.339982 0
M  V30 5714 C 546.351 -2.22435 -0.55275 0
M  V30 5715 C 547.364 -1.22975 -1.06681 0
M  V30 5716 O 548.553 -1.49351 -0.977575 0
M  V30 5717 C 545.653 -2.8882 -1.77302 0
M  V30 5718 C 544.826 -4.14563 -1.39486 0
M  V30 5719 C 543.885 -4.64391 -2.47442 0
M  V30 5720 O 542.911 -5.28687 -2.10899 0
M  V30 5721 N 544.113 -4.40015 -3.78639 0
M  V30 5722 H 546.878 -2.9968 0.0342669 0
M  V30 5723 H 544.439 -1.61068 0.16394 0
M  V30 5724 H 546.431 -3.19072 -2.48948 0
M  V30 5725 H 545.001 -2.15182 -2.26749 0
M  V30 5726 H 544.221 -3.90896 -0.509321 0
M  V30 5727 H 545.509 -4.96362 -1.11813 0
M  V30 5728 H 544.907 -3.88586 -4.11118 0
M  V30 5729 H 543.464 -4.74881 -4.46465 0
M  V30 5730 N 546.897 -0.0685191 -1.57451 0
M  V30 5731 C 548.174 0.642167 -1.84758 0
M  V30 5732 C 548.554 1.87991 -0.960344 0
M  V30 5733 O 547.902 2.28485 -0.0257894 0
M  V30 5734 C 548.112 0.982946 -3.34872 0
M  V30 5735 C 549.46 1.35784 -4.02303 0
M  V30 5736 O 550.484 1.07477 -3.39598 0
M  V30 5737 O 549.343 1.88681 -5.12895 0
M  V30 5738 H 546.437 0.318625 -0.763156 0
M  V30 5739 H 548.983 -0.0992015 -1.6941 0
M  V30 5740 H 547.755 0.10372 -3.91163 0
M  V30 5741 H 547.378 1.78119 -3.55471 0
M  V30 5742 N 548.375 1.56261 0.205012 0
M  V30 5743 C 549.323 1.94631 1.27364 0
M  V30 5744 C 550.317 0.830434 1.47649 0
M  V30 5745 O 551.523 1.01538 1.48627 0
M  V30 5746 H 547.898 0.618755 0.427371 0
M  V30 5747 H 549.869 2.83768 0.922941 0
M  V30 5748 C 548.618 2.29358 2.61324 0
M  V30 5749 H 547.941 3.14744 2.46528 0
M  V30 5750 H 549.381 2.60076 3.34868 0
M  V30 5751 C 547.84 1.12461 3.17575 0
M  V30 5752 O 548.37 0.394407 3.99759 0
M  V30 5753 N 546.576 0.904036 2.7618 0
M  V30 5754 H 546.123 1.49956 2.09454 0
M  V30 5755 H 546.081 0.123662 3.14157 0
M  V30 5756 N 549.853 -0.472356 1.50355 0
M  V30 5757 C 551.101 -1.22211 1.60962 0
M  V30 5758 C 551.422 -1.92497 0.311439 0
M  V30 5759 O 550.692 -1.8405 -0.671002 0
M  V30 5760 H 549.272 -0.454092 0.593135 0
M  V30 5761 H 551.934 -0.544977 1.87126 0
M  V30 5762 H 551.03 -1.9707 2.42012 0
M  V30 5763 N 551.331 -1.39911 -0.725443 0
M  V30 5764 C 552.747 -1.21725 -1.03224 0
M  V30 5765 C 552.947 -0.0855224 -2.01318 0
M  V30 5766 O 552.003 0.55976 -2.46217 0
M  V30 5767 C 553.316 -2.55511 -1.58539 0
M  V30 5768 C 554.864 -2.62439 -1.70572 0
M  V30 5769 C 555.339 -3.9647 -2.29294 0
M  V30 5770 N 556.83 -3.98159 -2.36692 0
M  V30 5771 C 557.565 -4.98647 -2.83088 0
M  V30 5772 N 557.061 -6.0953 -3.2931 0
M  V30 5773 N 558.854 -4.8602 -2.82384 0
M  V30 5774 H 551.005 -2.12267 -0.075048 0
M  V30 5775 H 553.268 -0.943136 -0.0959066 0
M  V30 5776 H 552.974 -3.38926 -0.939249 0
M  V30 5777 H 552.848 -2.75905 -2.57208 0
M  V30 5778 H 555.235 -1.79401 -2.34306 0
M  V30 5779 H 555.316 -2.45885 -0.705297 0
M  V30 5780 H 554.96 -4.79942 -1.66186 0
M  V30 5781 H 554.89 -4.10349 -3.30032 0
M  V30 5782 H 557.381 -3.18085 -2.04035 0
M  V30 5783 H 557.694 -6.82106 -3.6325 0
M  V30 5784 H 556.039 -6.1311 -3.27294 0
M  V30 5785 H 559.23 -3.98493 -2.45603 0
M  V30 5786 H 559.403 -5.64478 -3.18226 0
M  V30 5787 N 552.809 0.956637 -1.25245 0
M  V30 5788 C 553.772 2.03457 -1.05537 0
M  V30 5789 C 554.772 1.60798 -0.00886317 0
M  V30 5790 O 555.962 1.72384 -0.250865 0
M  V30 5791 C 553.094 3.35543 -0.601965 0
M  V30 5792 H 554.287 2.22372 -2.01223 0
M  V30 5793 H 551.84 1.13344 -1.07623 0
M  V30 5794 H 552.575 3.22323 0.357584 0
M  V30 5795 H 552.36 3.67854 -1.35743 0
M  V30 5796 H 553.85 4.14769 -0.485454 0
M  V30 5797 N 554.287 1.06798 1.15896 0
M  V30 5798 C 555.217 0.704677 2.22613 0
M  V30 5799 C 556.198 -0.305252 1.67339 0
M  V30 5800 O 557.383 -0.179247 1.93371 0
M  V30 5801 C 554.513 0.0957325 3.47168 0
M  V30 5802 C 553.467 1.0322 4.15367 0
M  V30 5803 C 552.793 0.286293 5.33933 0
M  V30 5804 C 554.093 2.36341 4.65768 0
M  V30 5805 H 555.787 1.59688 2.53259 0
M  V30 5806 H 553.333 0.769257 1.21731 0
M  V30 5807 H 555.286 -0.170333 4.21056 0
M  V30 5808 H 554.01 -0.831516 3.15838 0
M  V30 5809 H 552.669 1.28309 3.43413 0
M  V30 5810 H 552.317 -0.644237 4.98857 0
M  V30 5811 H 552.017 0.910436 5.80504 0
M  V30 5812 H 553.541 0.0278938 6.10594 0
M  V30 5813 H 554.955 2.1561 5.31211 0
M  V30 5814 H 553.352 2.94299 5.2298 0
M  V30 5815 H 554.422 2.99047 3.81705 0
M  V30 5816 N 555.766 -1.3263 0.851289 0
M  V30 5817 C 556.696 -2.31449 0.308771 0
M  V30 5818 C 557.677 -1.59531 -0.590255 0
M  V30 5819 O 558.862 -1.87351 -0.511205 0
M  V30 5820 C 555.992 -3.43586 -0.506548 0
M  V30 5821 C 554.946 -4.26963 0.297753 0
M  V30 5822 C 554.272 -5.30831 -0.642094 0
M  V30 5823 C 555.572 -4.99643 1.52166 0
M  V30 5824 H 557.266 -2.77074 1.13447 0
M  V30 5825 H 554.812 -1.33207 0.546971 0
M  V30 5826 H 556.765 -4.11754 -0.896474 0
M  V30 5827 H 555.489 -2.96681 -1.36558 0
M  V30 5828 H 554.148 -3.60437 0.669391 0
M  V30 5829 H 553.796 -4.8018 -1.49788 0
M  V30 5830 H 553.496 -5.87501 -0.107968 0
M  V30 5831 H 555.02 -6.01862 -1.02927 0
M  V30 5832 H 556.434 -5.6051 1.20421 0
M  V30 5833 H 554.831 -5.66022 1.99347 0
M  V30 5834 H 555.901 -4.27701 2.28474 0
M  V30 5835 N 557.244 -0.608902 -1.45362 0
M  V30 5836 C 558.655 -0.189511 -1.85736 0
M  V30 5837 C 559.006 1.2539 -1.50903 0
M  V30 5838 O 558.131 1.95094 -0.936347 0
M  V30 5839 C 558.726 -0.33716 -3.37118 0
M  V30 5840 C 557.285 0.0275487 -3.7639 0
M  V30 5841 C 556.432 -0.660983 -2.69307 0
M  V30 5842 H 559.383 -0.815499 -1.36144 0
M  V30 5843 H 559.404 0.430257 -3.7806 0
M  V30 5844 H 558.916 -1.38779 -3.62439 0
M  V30 5845 H 557.017 1.0773 -3.56686 0
M  V30 5846 H 557.13 -0.367018 -4.77692 0
M  V30 5847 H 555.494 -0.0984958 -2.54509 0
M  V30 5848 H 556.277 -1.71377 -2.97464 0
M  V30 5849 N 558.722 1.53707 -0.348139 0
M  V30 5850 C 559.969 2.00988 0.246966 0
M  V30 5851 C 560.297 1.23586 1.50189 0
M  V30 5852 O 559.552 0.312817 1.93184 0
M  V30 5853 C 559.851 3.52292 0.602061 0
M  V30 5854 C 559.517 4.47453 -0.556509 0
M  V30 5855 C 558.179 4.73188 -0.874446 0
M  V30 5856 C 560.531 5.03851 -1.33354 0
M  V30 5857 C 557.859 5.52577 -1.9717 0
M  V30 5858 C 560.211 5.84437 -2.42108 0
M  V30 5859 C 558.875 6.08465 -2.74456 0
M  V30 5860 H 558.145 0.735469 0.0903712 0
M  V30 5861 H 560.792 1.85464 -0.477001 0
M  V30 5862 H 559.097 3.65672 1.40681 0
M  V30 5863 H 560.794 3.86337 1.07447 0
M  V30 5864 H 557.384 4.27558 -0.298652 0
M  V30 5865 H 561.568 4.8393 -1.10117 0
M  V30 5866 H 556.824 5.69418 -2.22651 0
M  V30 5867 H 560.998 6.27151 -3.02745 0
M  V30 5868 H 558.625 6.69768 -3.59604 0
M  V30 5869 N 560.2 0.0768682 1.57412 0
M  V30 5870 C 561.477 -0.632359 1.85096 0
M  V30 5871 C 561.857 -1.87479 0.9703 0
M  V30 5872 O 561.205 -2.28469 0.0379062 0
M  V30 5873 C 561.415 -0.965174 3.35388 0
M  V30 5874 C 562.763 -1.33648 4.03018 0
M  V30 5875 O 563.787 -1.05675 3.40164 0
M  V30 5876 O 562.646 -1.85959 5.13889 0
M  V30 5877 H 559.74 -0.314574 0.764835 0
M  V30 5878 H 562.286 0.108184 1.69355 0
M  V30 5879 H 561.058 -0.0829745 3.91212 0
M  V30 5880 H 560.681 -1.76231 3.5641 0
M  V30 5881 N 561.678 -1.56367 -0.196722 0
M  V30 5882 C 562.626 -1.95304 -1.2633 0
M  V30 5883 C 563.62 -0.838252 -1.47206 0
M  V30 5884 O 564.826 -1.02325 -1.48087 0
M  V30 5885 H 561.201 -0.621013 -0.424083 0
M  V30 5886 H 563.172 -2.84254 -0.907879 0
M  V30 5887 C 561.921 -2.3074 -2.60104 0
M  V30 5888 H 561.244 -3.16047 -2.44856 0
M  V30 5889 H 562.684 -2.61849 -3.33484 0
M  V30 5890 C 561.143 -1.14143 -3.16975 0
M  V30 5891 O 561.673 -0.415602 -3.99544 0
M  V30 5892 N 559.879 -0.91867 -2.75697 0
M  V30 5893 H 559.426 -1.51065 -2.08656 0
M  V30 5894 H 559.384 -0.140321 -3.14087 0
M  V30 5895 N 563.156 0.464375 -1.50603 0
M  V30 5896 C 564.086 1.56944 -1.72889 0
M  V30 5897 C 565.067 1.59979 -0.577997 0
M  V30 5898 O 566.252 1.76138 -0.817855 0
M  V30 5899 C 563.382 2.95225 -1.8292 0
M  V30 5900 C 562.336 3.07056 -2.98162 0
M  V30 5901 C 561.662 4.47051 -2.93343 0
M  V30 5902 C 562.962 2.83648 -4.38567 0
M  V30 5903 H 564.656 1.38547 -2.65415 0
M  V30 5904 H 562.202 0.665082 -1.27721 0
M  V30 5905 H 564.155 3.72467 -1.97095 0
M  V30 5906 H 562.879 3.14793 -0.870209 0
M  V30 5907 H 561.538 2.32248 -2.83648 0
M  V30 5908 H 561.186 4.63547 -1.95276 0
M  V30 5909 H 560.886 4.55902 -3.70712 0
M  V30 5910 H 562.41 5.26304 -3.09575 0
M  V30 5911 H 563.824 3.50636 -4.53572 0
M  V30 5912 H 562.221 3.03937 -5.17438 0
M  V30 5913 H 563.291 1.79451 -4.50472 0
M  V30 5914 N 564.634 1.40294 0.718013 0
M  V30 5915 C 565.584 1.36847 1.82365 0
M  V30 5916 C 566.568 0.246424 1.59002 0
M  V30 5917 O 567.76 0.485336 1.70216 0
M  V30 5918 C 564.889 1.23105 3.20469 0
M  V30 5919 C 563.975 2.4008 3.49603 0
M  V30 5920 N 564.366 3.65562 3.49568 0
M  V30 5921 C 562.664 2.33407 3.80049 0
M  V30 5922 C 563.365 4.43015 3.76978 0
M  V30 5923 N 562.341 3.72823 3.95606 0
M  V30 5924 H 566.143 2.31811 1.80668 0
M  V30 5925 H 563.657 1.34031 0.91703 0
M  V30 5926 H 565.654 1.18718 3.9964 0
M  V30 5927 H 564.314 0.291056 3.23393 0
M  V30 5928 H 565.325 3.98756 3.30476 0
M  V30 5929 H 562.002 1.47762 3.90478 0
M  V30 5930 H 563.392 5.51859 3.83276 0
M  V30 5931 N 566.112 -0.949982 1.2575 0
M  V30 5932 C 567.389 -1.6718 1.01539 0
M  V30 5933 C 567.769 -2.06095 -0.456942 0
M  V30 5934 O 567.117 -1.77792 -1.43534 0
M  V30 5935 C 567.327 -2.8906 1.95564 0
M  V30 5936 C 568.675 -3.60909 2.23673 0
M  V30 5937 O 569.699 -2.9915 1.9336 0
M  V30 5938 O 568.558 -4.72127 2.75243 0
M  V30 5939 H 565.652 -0.731697 0.385419 0
M  V30 5940 H 568.198 -1.00249 1.36924 0
M  V30 5941 H 566.97 -2.57128 2.94959 0
M  V30 5942 H 566.593 -3.63719 1.60605 0
M  V30 5943 N 567.59 -1.07411 -1.15328 0
M  V30 5944 C 568.867 -0.710732 -1.82231 0
M  V30 5945 C 569.247 0.806732 -1.95077 0
M  V30 5946 O 568.595 1.72139 -1.50268 0
M  V30 5947 C 568.805 -1.42586 -3.18544 0
M  V30 5948 C 570.153 -1.57836 -3.94174 0
M  V30 5949 O 571.177 -1.38669 -3.281 0
M  V30 5950 O 570.036 -1.8938 -5.12638 0
M  V30 5951 H 567.13 -0.25297 -0.78736 0
M  V30 5952 H 569.676 -1.17508 -1.22434 0
M  V30 5953 H 568.448 -2.46008 -3.04296 0
M  V30 5954 H 568.071 -0.952332 -3.86026 0
M  V30 5955 N 569.068 1.32177 -0.85831 0
M  V30 5956 C 570.479 1.79381 -0.517621 0
M  V30 5957 C 570.83 1.70841 0.964769 0
M  V30 5958 O 569.955 1.26917 1.75274 0
M  V30 5959 C 570.55 3.25706 -0.932801 0
M  V30 5960 C 569.109 3.70851 -0.643953 0
M  V30 5961 C 568.256 2.53208 -1.13054 0
M  V30 5962 H 571.207 1.19424 -1.04516 0
M  V30 5963 H 571.228 3.79673 -0.250674 0
M  V30 5964 H 570.74 3.31889 -2.01174 0
M  V30 5965 H 568.841 3.70178 0.424112 0
M  V30 5966 H 568.954 4.63495 -1.21281 0
M  V30 5967 H 567.318 2.48676 -0.550679 0
M  V30 5968 H 568.101 2.62143 -2.21666 0
M  V30 5969 N 570.547 0.616602 1.45037 0
M  V30 5970 C 571.787 0.118453 2.04056 0
M  V30 5971 C 572.151 -1.23104 1.47341 0
M  V30 5972 O 573.352 -1.82044 1.97771 0
M  V30 5973 C 571.623 0.0892842 3.57288 0
M  V30 5974 S 573.182 -0.346361 4.37431 0
M  V30 5975 H 570 0.0539728 0.708948 0
M  V30 5976 H 572.602 0.816731 1.77623 0
M  V30 5977 H 571.306 1.07481 3.96076 0
M  V30 5978 H 570.837 -0.630703 3.88311 0
M  V30 5979 H 572.852 -1.59389 4.69904 0
M  V30 5980 N 572.025 -1.5352 0.356285 0
M  V30 5981 C 572.955 -2.28372 -0.486661 0
M  V30 5982 C 573.936 -1.30432 -1.09185 0
M  V30 5983 O 575.121 -1.59291 -1.11085 0
M  V30 5984 C 572.251 -3.06604 -1.63129 0
M  V30 5985 C 571.205 -4.12154 -1.15381 0
M  V30 5986 C 570.531 -4.78415 -2.38796 0
M  V30 5987 C 571.831 -5.21724 -0.245179 0
M  V30 5988 H 573.525 -2.99083 0.137797 0
M  V30 5989 H 571.071 -1.43841 0.0677134 0
M  V30 5990 H 573.024 -3.57712 -2.22755 0
M  V30 5991 H 571.748 -2.33568 -2.28284 0
M  V30 5992 H 570.407 -3.61978 -0.580294 0
M  V30 5993 H 570.055 -4.01959 -3.02387 0
M  V30 5994 H 569.755 -5.49734 -2.07524 0
M  V30 5995 H 571.279 -5.32313 -2.99125 0
M  V30 5996 H 572.693 -5.68391 -0.748646 0
M  V30 5997 H 571.09 -6.00095 -0.0237608 0
M  V30 5998 H 572.16 -4.79596 0.715229 0
M  V30 5999 N 573.503 -0.0852151 -1.57369 0
M  V30 6000 C 574.433 0.874556 -2.16503 0
M  V30 6001 C 575.414 1.30111 -1.09568 0
M  V30 6002 O 576.599 1.36977 -1.37662 0
M  V30 6003 C 573.729 2.13731 -2.73745 0
M  V30 6004 C 572.683 1.84971 -3.85966 0
M  V30 6005 C 572.009 3.17991 -4.29867 0
M  V30 6006 C 573.309 1.14442 -5.09608 0
M  V30 6007 H 575.003 0.381899 -2.96954 0
M  V30 6008 H 572.549 0.18225 -1.42842 0
M  V30 6009 H 574.502 2.81302 -3.13763 0
M  V30 6010 H 573.226 2.65263 -1.90534 0
M  V30 6011 H 571.885 1.19801 -3.46473 0
M  V30 6012 H 571.533 3.6739 -3.4356 0
M  V30 6013 H 571.233 2.99534 -5.05523 0
M  V30 6014 H 572.757 3.86737 -4.72511 0
M  V30 6015 H 574.171 1.72105 -5.46857 0
M  V30 6016 H 572.568 1.06197 -5.90629 0
M  V30 6017 H 573.638 0.12559 -4.84737 0
M  V30 6018 N 574.981 1.5647 0.188427 0
M  V30 6019 C 576.209 1.85131 0.923803 0
M  V30 6020 C 576.624 0.668537 1.76567 0
M  V30 6021 O 575.981 -0.362662 1.7886 0
M  V30 6022 C 576.032 3.12661 1.81453 0
M  V30 6023 O 575.753 4.26378 1.00665 0
M  V30 6024 C 577.254 3.54548 2.66103 0
M  V30 6025 H 574.474 0.614624 0.269218 0
M  V30 6026 H 577.018 2.03581 0.193671 0
M  V30 6027 H 575.173 2.96088 2.49821 0
M  V30 6028 H 575.587 4.99041 1.61425 0
M  V30 6029 H 577.061 4.4673 3.24247 0
M  V30 6030 H 577.538 2.77853 3.40139 0
M  V30 6031 H 578.144 3.73674 2.03096 0
M  V30 6032 N 576.459 -0.456382 1.50847 0
M  V30 6033 C 577.407 -1.57318 1.71329 0
M  V30 6034 C 578.401 -1.59187 0.579287 0
M  V30 6035 O 579.607 -1.6316 0.76018 0
M  V30 6036 H 575.982 -0.5223 0.541024 0
M  V30 6037 H 577.953 -1.3721 2.64983 0
M  V30 6038 C 576.702 -2.95142 1.83811 0
M  V30 6039 H 576.025 -2.94428 2.70467 0
M  V30 6040 H 577.465 -3.72702 2.02161 0
M  V30 6041 C 575.924 -3.31636 0.593224 0
M  V30 6042 O 576.454 -4.00852 -0.260898 0
M  V30 6043 N 574.66 -2.87205 0.442902 0
M  V30 6044 H 574.207 -2.31051 1.13901 0
M  V30 6045 H 574.165 -3.11986 -0.38884 0
M  V30 6046 N 577.937 -1.40673 -0.710563 0
M  V30 6047 C 579.353 -1.22813 -1.01928 0
M  V30 6048 C 579.553 -0.10687 -2.01216 0
M  V30 6049 O 578.609 0.533614 -2.46797 0
M  V30 6050 C 579.922 -2.57178 -1.5582 0
M  V30 6051 C 581.47 -2.64233 -1.67779 0
M  V30 6052 C 581.945 -3.98879 -2.25076 0
M  V30 6053 N 583.436 -4.00647 -2.32456 0
M  V30 6054 C 584.171 -5.01621 -2.77784 0
M  V30 6055 N 583.667 -6.12989 -3.22826 0
M  V30 6056 N 585.46 -4.88988 -2.77213 0
M  V30 6057 H 577.611 -2.12335 -0.05253 0
M  V30 6058 H 579.874 -0.9441 -0.085898 0
M  V30 6059 H 579.58 -3.39903 -0.903249 0
M  V30 6060 H 579.454 -2.78618 -2.54267 0
M  V30 6061 H 581.841 -1.81876 -2.3239 0
M  V30 6062 H 581.922 -2.46619 -0.679178 0
M  V30 6063 H 581.566 -4.81678 -1.61086 0
M  V30 6064 H 581.496 -4.13826 -3.25661 0
M  V30 6065 H 583.987 -3.20231 -2.0065 0
M  V30 6066 H 584.3 -6.85921 -3.55995 0
M  V30 6067 H 582.645 -6.16547 -3.20773 0
M  V30 6068 H 585.836 -4.01075 -2.41363 0
M  V30 6069 H 586.009 -5.67822 -3.12221 0
M  V30 6070 N 579.415 0.9433 -1.26252 0
M  V30 6071 C 580.64 1.72898 -1.14547 0
M  V30 6072 C 581.065 1.85761 0.295743 0
M  V30 6073 O 580.423 1.3463 1.21427 0
M  V30 6074 C 580.471 3.11471 -1.8171 0
M  V30 6075 O 579.575 3.97336 -1.10445 0
M  V30 6076 H 578.916 0.530555 -0.399259 0
M  V30 6077 H 581.446 1.18159 -1.67032 0
M  V30 6078 H 581.456 3.61872 -1.88449 0
M  V30 6079 H 580.131 3.01425 -2.86558 0
M  V30 6080 H 578.708 3.55788 -1.11666 0
M  V30 6081 N 580.893 1.08022 1.14757 0
M  V30 6082 C 581.856 0.71048 2.1791 0
M  V30 6083 C 582.856 -0.252731 1.58801 0
M  V30 6084 O 584.046 -0.0327915 1.74169 0
M  V30 6085 C 581.178 0.0483203 3.40866 0
M  V30 6086 H 582.371 1.62384 2.52134 0
M  V30 6087 H 579.924 0.877595 1.29337 0
M  V30 6088 H 580.659 -0.876959 3.12218 0
M  V30 6089 H 580.444 0.741189 3.85031 0
M  V30 6090 H 581.934 -0.195471 4.17142 0
M  V30 6091 N 582.371 -1.3172 0.865308 0
M  V30 6092 C 583.787 -1.4958 0.556596 0
M  V30 6093 C 583.987 -1.79763 -0.910353 0
M  V30 6094 O 583.043 -1.87351 -1.6928 0
M  V30 6095 C 584.356 -2.63277 1.45279 0
M  V30 6096 C 585.904 -2.77161 1.45433 0
M  V30 6097 C 586.379 -3.93949 2.33598 0
M  V30 6098 N 587.87 -4.01228 2.31453 0
M  V30 6099 C 588.605 -4.90855 2.96393 0
M  V30 6100 N 588.101 -5.85416 3.70486 0
M  V30 6101 N 589.894 -4.84063 2.85726 0
M  V30 6102 H 582.045 -1.10396 1.81456 0
M  V30 6103 H 584.308 -0.54507 0.775631 0
M  V30 6104 H 584.014 -2.47734 2.49641 0
M  V30 6105 H 583.888 -3.59309 1.14792 0
M  V30 6106 H 586.275 -2.9212 0.41831 0
M  V30 6107 H 586.356 -1.8181 1.79941 0
M  V30 6108 H 586 -3.79748 3.37274 0
M  V30 6109 H 585.93 -4.88598 1.96417 0
M  V30 6110 H 588.421 -3.3357 1.77593 0
M  V30 6111 H 588.734 -6.50525 4.17178 0
M  V30 6112 H 587.079 -5.85409 3.74594 0
M  V30 6113 H 590.27 -4.09163 2.27384 0
M  V30 6114 H 590.443 -5.53708 3.36617 0
M  V30 6115 N 583.85 -0.624285 -1.44708 0
M  V30 6116 C 585.099 -0.123539 -2.01321 0
M  V30 6117 C 585.412 1.25966 -1.49639 0
M  V30 6118 O 586.618 1.85405 -1.98336 0
M  V30 6119 C 585.074 -0.170124 -3.59498 0
M  V30 6120 C 584.682 -1.55421 -4.20176 0
M  V30 6121 C 586.426 0.274513 -4.23611 0
M  V30 6122 C 584.332 -1.55628 -5.70556 0
M  V30 6123 H 583.263 -0.0424183 -0.752806 0
M  V30 6124 H 585.913 -0.782076 -1.65999 0
M  V30 6125 H 584.296 0.555385 -3.92086 0
M  V30 6126 H 585.47 -2.30276 -3.99136 0
M  V30 6127 H 583.784 -1.94235 -3.68323 0
M  V30 6128 H 586.382 0.292402 -5.339 0
M  V30 6129 H 586.725 1.3005 -3.95465 0
M  V30 6130 H 587.258 -0.398275 -3.95801 0
M  V30 6131 H 583.997 -2.56041 -6.03426 0
M  V30 6132 H 583.517 -0.850563 -5.93739 0
M  V30 6133 H 585.196 -1.28721 -6.34066 0
M  V30 6134 N 585.328 1.53329 -0.364422 0
M  V30 6135 C 586.739 1.86345 0.115039 0
M  V30 6136 C 587.09 1.28505 1.4826 0
M  V30 6137 O 586.215 0.606639 2.07723 0
M  V30 6138 C 586.81 3.38114 0.215522 0
M  V30 6139 C 585.369 3.70932 0.639237 0
M  V30 6140 C 584.516 2.76471 -0.214261 0
M  V30 6141 H 587.467 1.47593 -0.583258 0
M  V30 6142 H 587.488 3.66031 1.0393 0
M  V30 6143 H 587 3.80182 -0.779948 0
M  V30 6144 H 585.101 3.3442 1.64298 0
M  V30 6145 H 585.214 4.77302 0.41465 0
M  V30 6146 H 583.578 2.52724 0.316678 0
M  V30 6147 H 584.361 3.21373 -1.20725 0
M  V30 6148 N 586.806 0.0935595 1.57322 0
M  V30 6149 C 588.046 -0.573901 1.96178 0
M  V30 6150 C 588.41 -1.65445 0.97426 0
M  V30 6151 O 589.611 -2.37901 1.25126 0
M  V30 6152 C 587.882 -1.11612 3.39526 0
M  V30 6153 S 589.441 -1.79566 4.00377 0
M  V30 6154 H 586.259 -0.187315 0.685882 0
M  V30 6155 H 588.861 0.172597 1.94737 0
M  V30 6156 H 587.565 -0.31815 4.09165 0
M  V30 6157 H 587.096 -1.89848 3.4456 0
M  V30 6158 H 589.111 -3.07978 3.89056 0
M  V30 6159 N 588.284 -1.56567 -0.180126 0
M  V30 6160 C 589.531 -1.81492 -0.898167 0
M  V30 6161 C 589.859 -0.669225 -1.82624 0
M  V30 6162 O 589.114 0.344096 -1.92651 0
M  V30 6163 C 589.413 -3.1252 -1.73395 0
M  V30 6164 C 589.079 -4.40658 -0.955567 0
M  V30 6165 C 587.741 -4.75465 -0.740707 0
M  V30 6166 C 590.093 -5.19593 -0.408948 0
M  V30 6167 C 587.421 -5.86691 0.0320128 0
M  V30 6168 C 589.773 -6.31627 0.350638 0
M  V30 6169 C 588.437 -6.65007 0.576378 0
M  V30 6170 H 587.707 -0.664125 -0.328662 0
M  V30 6171 H 590.354 -1.908 -0.163616 0
M  V30 6172 H 588.659 -2.98515 -2.53763 0
M  V30 6173 H 590.356 -3.29013 -2.29241 0
M  V30 6174 H 586.946 -4.13352 -1.13306 0
M  V30 6175 H 591.13 -4.93104 -0.562307 0
M  V30 6176 H 586.386 -6.11016 0.216735 0
M  V30 6177 H 590.56 -6.92001 0.781497 0
M  V30 6178 H 588.187 -7.51033 1.17703 0
M  V30 6179 N 589.762 0.448376 -1.51087 0
M  V30 6180 C 590.692 1.55102 -1.74544 0
M  V30 6181 C 591.673 1.59357 -0.594932 0
M  V30 6182 O 592.858 1.75261 -0.836491 0
M  V30 6183 C 589.988 2.93268 -1.86041 0
M  V30 6184 C 588.942 3.03877 -3.01402 0
M  V30 6185 C 588.268 4.43914 -2.98068 0
M  V30 6186 C 589.568 2.7898 -4.41551 0
M  V30 6187 H 591.262 1.35724 -2.66869 0
M  V30 6188 H 588.808 0.651498 -1.28419 0
M  V30 6189 H 590.761 3.70356 -2.01034 0
M  V30 6190 H 589.485 3.13853 -0.903548 0
M  V30 6191 H 588.144 2.29227 -2.86096 0
M  V30 6192 H 587.792 4.6145 -2.00182 0
M  V30 6193 H 587.492 4.51944 -3.75527 0
M  V30 6194 H 589.016 5.22991 -3.1514 0
M  V30 6195 H 590.43 3.45805 -4.57265 0
M  V30 6196 H 588.827 2.98431 -5.20633 0
M  V30 6197 H 589.897 1.74663 -4.5235 0
M  V30 6198 N 591.24 1.41047 0.703093 0
M  V30 6199 C 592.203 1.42036 1.79884 0
M  V30 6200 C 593.203 0.312153 1.57741 0
M  V30 6201 O 594.393 0.571672 1.64553 0
M  V30 6202 C 591.525 1.22437 3.18154 0
M  V30 6203 H 592.718 2.39572 1.80403 0
M  V30 6204 H 590.271 1.27079 0.909977 0
M  V30 6205 H 591.006 0.257112 3.23279 0
M  V30 6206 H 590.791 2.02723 3.35627 0
M  V30 6207 H 592.281 1.25946 3.98155 0
M  V30 6208 N 592.718 -0.936591 1.26751 0
M  V30 6209 C 593.966 -1.67998 1.12343 0
M  V30 6210 C 594.287 -1.92137 -0.332938 0
M  V30 6211 O 593.557 -1.52132 -1.23421 0
M  V30 6212 H 592.137 -0.622609 0.412756 0
M  V30 6213 H 594.799 -1.12509 1.59147 0
M  V30 6214 H 593.895 -2.65185 1.64571 0
M  V30 6215 N 594.196 -1.08629 -1.14182 0
M  V30 6216 C 595.473 -0.73002 -1.81466 0
M  V30 6217 C 595.853 0.785996 -1.95922 0
M  V30 6218 O 595.201 1.70535 -1.52086 0
M  V30 6219 C 595.411 -1.45957 -3.17014 0
M  V30 6220 C 596.759 -1.62008 -3.92477 0
M  V30 6221 O 597.783 -1.42141 -3.26611 0
M  V30 6222 O 596.642 -1.94806 -5.106 0
M  V30 6223 H 593.736 -0.261307 -0.784632 0
M  V30 6224 H 596.282 -1.188 -1.2118 0
M  V30 6225 H 595.054 -2.49221 -3.01669 0
M  V30 6226 H 594.677 -0.993222 -3.84995 0
M  V30 6227 N 595.674 1.31259 -0.872281 0
M  V30 6228 C 596.902 2.00795 -0.498907 0
M  V30 6229 C 597.317 1.65464 0.909238 0
M  V30 6230 O 596.674 0.885073 1.59602 0
M  V30 6231 C 596.725 3.55625 -0.649092 0
M  V30 6232 O 596.446 3.89692 -2.00179 0
M  V30 6233 C 597.947 4.42434 -0.277034 0
M  V30 6234 H 595.167 0.642299 -0.194145 0
M  V30 6235 H 597.711 1.67438 -1.17408 0
M  V30 6236 H 595.866 3.87394 -0.0214402 0
M  V30 6237 H 596.28 4.84407 -2.01122 0
M  V30 6238 H 597.754 5.50299 -0.433064 0
M  V30 6239 H 598.231 4.32146 0.783989 0
M  V30 6240 H 598.837 4.16086 -0.880483 0
M  V30 6241 N 597.152 0.631951 1.44375 0
M  V30 6242 C 598.568 0.297642 1.568 0
M  V30 6243 C 598.768 -1.19916 1.61934 0
M  V30 6244 O 597.824 -1.98324 1.56281 0
M  V30 6245 C 599.137 0.990286 2.83926 0
M  V30 6246 C 600.685 0.968507 2.97639 0
M  V30 6247 C 601.16 1.64163 4.27568 0
M  V30 6248 N 602.651 1.60826 4.34384 0
M  V30 6249 C 603.386 2.09802 5.33639 0
M  V30 6250 N 602.882 2.66973 6.39294 0
M  V30 6251 N 604.675 2.00426 5.25153 0
M  V30 6252 H 596.826 1.60353 1.39286 0
M  V30 6253 H 599.089 0.673142 0.667521 0
M  V30 6254 H 598.795 2.04519 2.8612 0
M  V30 6255 H 598.669 0.528563 3.73478 0
M  V30 6256 H 601.056 -0.0779247 2.94997 0
M  V30 6257 H 601.137 1.46873 2.09433 0
M  V30 6258 H 600.781 2.68752 4.3097 0
M  V30 6259 H 600.711 1.11624 5.14634 0
M  V30 6260 H 603.202 1.19087 3.58646 0
M  V30 6261 H 603.515 3.02074 7.11316 0
M  V30 6262 H 601.86 2.71024 6.39977 0
M  V30 6263 H 605.051 1.55483 4.41523 0
M  V30 6264 H 605.224 2.38906 6.02352 0
M  V30 6265 N 598.631 -1.53133 0.372548 0
M  V30 6266 C 599.856 -2.0625 -0.218098 0
M  V30 6267 C 600.281 -1.24375 -1.41111 0
M  V30 6268 O 599.639 -0.264554 -1.79359 0
M  V30 6269 C 599.687 -3.55858 -0.582876 0
M  V30 6270 O 598.791 -3.76667 -1.67917 0
M  V30 6271 H 598.132 -0.663317 -0.030104 0
M  V30 6272 H 600.662 -1.97477 0.535169 0
M  V30 6273 H 600.672 -3.99007 -0.851925 0
M  V30 6274 H 599.347 -4.14892 0.289428 0
M  V30 6275 H 597.924 -3.45413 -1.40513 0
M  V30 6276 N 600.109 -0.101901 -1.5727 0
M  V30 6277 C 601.334 0.571759 -1.99363 0
M  V30 6278 C 601.759 1.60507 -0.980768 0
M  V30 6279 O 601.117 1.81231 0.0498517 0
M  V30 6280 C 601.165 1.18996 -3.404 0
M  V30 6281 O 600.269 2.30572 -3.41922 0
M  V30 6282 H 599.61 0.144449 -0.648098 0
M  V30 6283 H 602.14 -0.185325 -2.03759 0
M  V30 6284 H 602.15 1.52962 -3.78241 0
M  V30 6285 H 600.825 0.432984 -4.1364 0
M  V30 6286 H 599.402 1.98173 -3.15883 0
M  V30 6287 N 601.587 1.56661 0.17182 0
M  V30 6288 C 602.497 1.99604 1.2327 0
M  V30 6289 C 603.513 0.907333 1.4847 0
M  V30 6290 O 604.689 1.21492 1.60629 0
M  V30 6291 C 601.754 2.34685 2.55194 0
M  V30 6292 C 600.815 3.57381 2.3786 0
M  V30 6293 C 600.048 3.90779 3.63494 0
M  V30 6294 O 600.271 3.25152 4.6865 0
M  V30 6295 O 599.205 4.84129 3.57634 0
M  V30 6296 H 603.031 2.90114 0.898192 0
M  V30 6297 H 600.616 1.44522 0.378647 0
M  V30 6298 H 602.498 2.5822 3.33017 0
M  V30 6299 H 601.173 1.47336 2.88225 0
M  V30 6300 H 600.08 3.39064 1.5807 0
M  V30 6301 H 601.413 4.45268 2.09754 0
M  V30 6302 N 603.065 -0.440357 1.51323 0
M  V30 6303 C 603.998 -1.55414 1.67098 0
M  V30 6304 C 604.976 -1.54108 0.518599 0
M  V30 6305 O 606.16 -1.7328 0.742054 0
M  V30 6306 C 603.287 -2.93996 1.68179 0
M  V30 6307 C 602.333 -3.13338 2.89347 0
M  V30 6308 S 603.166 -2.89957 4.50206 0
M  V30 6309 C 604.322 -4.30826 4.54027 0
M  V30 6310 H 604.555 -1.41798 2.61306 0
M  V30 6311 H 602.088 -0.629841 1.40969 0
M  V30 6312 H 604.046 -3.73878 1.69487 0
M  V30 6313 H 602.707 -3.04976 0.751542 0
M  V30 6314 H 601.9 -4.14652 2.86495 0
M  V30 6315 H 601.502 -2.41276 2.85766 0
M  V30 6316 H 603.794 -5.23977 4.29481 0
M  V30 6317 H 604.737 -4.38712 5.55822 0
M  V30 6318 H 605.145 -4.1434 3.83384 0
M  V30 6319 N 604.543 -1.41418 -0.695603 0
M  V30 6320 C 605.954 -1.36335 -1.27552 0
M  V30 6321 C 606.305 -0.0464336 -1.96145 0
M  V30 6322 O 605.43 0.855304 -1.9878 0
M  V30 6323 C 606.025 -2.46941 -2.3196 0
M  V30 6324 C 604.584 -2.45256 -2.85529 0
M  V30 6325 C 603.731 -2.2679 -1.59566 0
M  V30 6326 H 606.682 -1.50934 -0.490362 0
M  V30 6327 H 606.703 -2.15997 -3.1325 0
M  V30 6328 H 606.215 -3.42775 -1.82008 0
M  V30 6329 H 604.316 -1.53179 -3.39657 0
M  V30 6330 H 604.429 -3.41565 -3.35961 0
M  V30 6331 H 602.793 -1.74667 -1.85374 0
M  V30 6332 H 603.576 -3.24651 -1.1161 0
M  V30 6333 N 606.021 0.929856 -1.27246 0
M  V30 6334 C 606.931 2.0636 -1.11592 0
M  V30 6335 C 607.947 1.73938 -0.046496 0
M  V30 6336 O 609.123 1.9981 -0.252544 0
M  V30 6337 C 606.188 3.38213 -0.762437 0
M  V30 6338 C 605.249 3.84346 -1.9125 0
M  V30 6339 C 604.482 5.09906 -1.57579 0
M  V30 6340 O 604.705 5.68354 -0.482694 0
M  V30 6341 O 603.639 5.51359 -2.41426 0
M  V30 6342 H 607.465 2.22478 -2.0673 0
M  V30 6343 H 605.05 1.04865 -1.06413 0
M  V30 6344 H 606.932 4.1741 -0.57854 0
M  V30 6345 H 605.607 3.23307 0.159439 0
M  V30 6346 H 604.514 3.06045 -2.15144 0
M  V30 6347 H 605.847 4.0379 -2.81451 0
M  V30 6348 N 607.499 1.09233 1.13605 0
M  V30 6349 C 608.429 0.751738 2.21068 0
M  V30 6350 C 609.41 -0.269688 1.67948 0
M  V30 6351 O 610.595 -0.13819 1.93708 0
M  V30 6352 C 607.725 0.16935 3.46887 0
M  V30 6353 C 606.679 1.12007 4.13084 0
M  V30 6354 C 606.005 0.399483 5.33206 0
M  V30 6355 C 607.305 2.46168 4.6065 0
M  V30 6356 H 608.999 1.65024 2.49815 0
M  V30 6357 H 606.545 0.794905 1.20072 0
M  V30 6358 H 608.498 -0.0809824 4.21322 0
M  V30 6359 H 607.222 -0.764335 3.1753 0
M  V30 6360 H 605.881 1.35564 3.40614 0
M  V30 6361 H 605.529 -0.538277 5.00112 0
M  V30 6362 H 605.229 1.03337 5.78442 0
M  V30 6363 H 606.753 0.157403 6.10397 0
M  V30 6364 H 608.167 2.26829 5.26518 0
M  V30 6365 H 606.564 3.05326 5.1662 0
M  V30 6366 H 607.634 3.07076 3.75276 0
M  V30 6367 N 608.977 -1.30795 0.87923 0
M  V30 6368 C 610.205 -2.00527 0.509548 0
M  V30 6369 C 610.62 -1.65944 -0.90045 0
M  V30 6370 O 609.977 -0.893525 -1.5913 0
M  V30 6371 C 610.028 -3.55276 0.667943 0
M  V30 6372 O 609.749 -3.88625 2.02242 0
M  V30 6373 C 611.25 -4.4228 0.300494 0
M  V30 6374 H 608.47 -0.641261 0.197549 0
M  V30 6375 H 611.014 -1.66813 1.18295 0
M  V30 6376 H 609.169 -3.87377 0.0419843 0
M  V30 6377 H 609.583 -4.83334 2.03688 0
M  V30 6378 H 611.057 -5.50061 0.462242 0
M  V30 6379 H 611.534 -4.32556 -0.76106 0
M  V30 6380 H 612.14 -4.15613 0.902536 0
M  V30 6381 N 610.455 -0.639598 -1.44038 0
M  V30 6382 C 611.68 -0.153117 -2.06834 0
M  V30 6383 C 612.105 1.16676 -1.47541 0
M  V30 6384 O 611.463 1.71769 -0.580093 0
M  V30 6385 C 611.511 -0.0609169 -3.60549 0
M  V30 6386 O 610.615 0.98071 -4.00569 0
M  V30 6387 H 609.956 -0.0886402 -0.658057 0
M  V30 6388 H 612.486 -0.878674 -1.84771 0
M  V30 6389 H 612.496 0.126892 -4.07803 0
M  V30 6390 H 611.171 -1.0245 -4.03084 0
M  V30 6391 H 609.748 0.766789 -3.64931 0
M  V30 6392 N 611.933 1.52934 -0.380664 0
M  V30 6393 C 612.866 2.22597 0.502564 0
M  V30 6394 C 613.844 1.22345 1.071 0
M  V30 6395 O 615.028 1.51302 1.12428 0
M  V30 6396 C 612.155 2.93246 1.69482 0
M  V30 6397 C 611.201 4.07696 1.25244 0
M  V30 6398 S 612.034 5.34957 0.241159 0
M  V30 6399 C 613.19 6.09124 1.4394 0
M  V30 6400 H 613.423 2.97167 -0.089029 0
M  V30 6401 H 610.956 1.53518 -0.164817 0
M  V30 6402 H 612.914 3.34562 2.37863 0
M  V30 6403 H 611.575 2.18373 2.2577 0
M  V30 6404 H 610.768 4.56199 2.1424 0
M  V30 6405 H 610.37 3.68349 0.647664 0
M  V30 6406 H 612.662 6.34771 2.36794 0
M  V30 6407 H 613.605 7.01068 0.995464 0
M  V30 6408 H 614.013 5.39777 1.65229 0
M  V30 6409 N 613.412 0.11024 1.57214 0
M  V30 6410 C 614.362 -0.854147 2.11396 0
M  V30 6411 C 615.346 -1.23394 1.03261 0
M  V30 6412 O 616.538 -1.20649 1.2951 0
M  V30 6413 C 613.667 -2.10752 2.70995 0
M  V30 6414 C 612.753 -1.75249 3.86198 0
M  V30 6415 N 613.144 -1.10377 4.9361 0
M  V30 6416 C 611.442 -2.04763 3.96217 0
M  V30 6417 C 612.143 -0.938199 5.74084 0
M  V30 6418 N 611.119 -1.46039 5.23616 0
M  V30 6419 H 614.921 -0.348897 2.91822 0
M  V30 6420 H 612.435 -0.0925071 1.62136 0
M  V30 6421 H 614.432 -2.80801 3.0815 0
M  V30 6422 H 613.092 -2.61829 1.9203 0
M  V30 6423 H 614.103 -0.768785 5.12162 0
M  V30 6424 H 610.78 -2.57948 3.28282 0
M  V30 6425 H 612.17 -0.429678 6.70525 0
M  V30 6426 N 614.89 -1.56749 -0.16351 0
M  V30 6427 C 616.118 -1.86577 -0.894233 0
M  V30 6428 C 616.533 -0.696543 -1.75481 0
M  V30 6429 O 615.89 0.334161 -1.79415 0
M  V30 6430 C 615.941 -3.15508 -1.76456 0
M  V30 6431 O 615.662 -4.27926 -0.938685 0
M  V30 6432 C 617.163 -3.58737 -2.60428 0
M  V30 6433 H 614.383 -0.618829 -0.259405 0
M  V30 6434 H 616.927 -2.03863 -0.161259 0
M  V30 6435 H 615.082 -3.00025 -2.45079 0
M  V30 6436 H 615.496 -5.01546 -1.53465 0
M  V30 6437 H 616.97 -4.51832 -3.17099 0
M  V30 6438 H 617.447 -2.83229 -3.35675 0
M  V30 6439 H 618.053 -3.76858 -1.97125 0
M  V30 6440 N 616.368 0.432326 -1.51554 0
M  V30 6441 C 617.298 1.53242 -1.76179 0
M  V30 6442 C 618.279 1.58717 -0.611801 0
M  V30 6443 O 619.464 1.74364 -0.855033 0
M  V30 6444 C 616.594 2.91278 -1.89141 0
M  V30 6445 C 615.548 3.00663 -3.04608 0
M  V30 6446 C 614.874 4.40728 -3.02759 0
M  V30 6447 C 616.174 2.74281 -4.44485 0
M  V30 6448 H 617.868 1.32886 -2.68294 0
M  V30 6449 H 615.414 0.637841 -1.29103 0
M  V30 6450 H 617.367 3.68203 -2.04951 0
M  V30 6451 H 616.091 3.12877 -0.936785 0
M  V30 6452 H 614.75 2.26179 -2.88511 0
M  V30 6453 H 614.398 4.59301 -2.05065 0
M  V30 6454 H 614.098 4.47936 -3.80299 0
M  V30 6455 H 615.622 5.19619 -3.20669 0
M  V30 6456 H 617.036 3.40936 -4.60907 0
M  V30 6457 H 615.433 2.92893 -5.23769 0
M  V30 6458 H 616.503 1.69856 -4.54177 0
M  V30 6459 N 617.846 1.41785 0.688094 0
M  V30 6460 C 618.776 1.47 1.8142 0
M  V30 6461 C 619.757 0.327881 1.6691 0
M  V30 6462 O 620.942 0.540362 1.86531 0
M  V30 6463 C 618.072 1.35876 3.19617 0
M  V30 6464 C 617.026 2.47976 3.48844 0
M  V30 6465 C 616.352 2.21915 4.86475 0
M  V30 6466 C 617.652 3.90309 3.47068 0
M  V30 6467 H 619.346 2.41247 1.77314 0
M  V30 6468 H 616.892 1.16116 0.851651 0
M  V30 6469 H 618.845 1.38134 3.98117 0
M  V30 6470 H 617.569 0.38116 3.24368 0
M  V30 6471 H 616.228 2.45013 2.72698 0
M  V30 6472 H 615.876 1.2248 4.8786 0
M  V30 6473 H 615.576 2.97037 5.06994 0
M  V30 6474 H 617.1 2.25901 5.67275 0
M  V30 6475 H 618.514 3.94947 4.1556 0
M  V30 6476 H 616.911 4.65175 3.7912 0
M  V30 6477 H 617.981 4.17927 2.45896 0
M  V30 6478 N 619.324 -0.923095 1.27737 0
M  V30 6479 C 620.254 -2.04124 1.13383 0
M  V30 6480 C 621.235 -1.70066 0.0340658 0
M  V30 6481 O 622.42 -1.93068 0.209383 0
M  V30 6482 C 619.55 -3.3831 0.785097 0
M  V30 6483 C 618.504 -3.86496 1.8386 0
M  V30 6484 C 617.83 -5.1754 1.34373 0
M  V30 6485 C 619.13 -4.09381 3.24353 0
M  V30 6486 H 620.824 -2.1639 2.06919 0
M  V30 6487 H 618.37 -1.03976 0.996243 0
M  V30 6488 H 620.323 -4.16016 0.671485 0
M  V30 6489 H 619.047 -3.2607 -0.185969 0
M  V30 6490 H 617.706 -3.10987 1.9412 0
M  V30 6491 H 617.354 -5.01696 0.361989 0
M  V30 6492 H 617.054 -5.50751 2.04811 0
M  V30 6493 H 618.578 -5.97811 1.24315 0
M  V30 6494 H 619.992 -4.77641 3.17067 0
M  V30 6495 H 618.389 -4.53906 3.92542 0
M  V30 6496 H 619.459 -3.14515 3.69064 0
M  V30 6497 N 620.802 -1.09834 -1.13024 0
M  V30 6498 C 622.218 -0.828875 -1.36388 0
M  V30 6499 C 622.418 0.554756 -1.93713 0
M  V30 6500 O 621.474 1.30882 -2.15931 0
M  V30 6501 C 622.787 -1.92352 -2.3113 0
M  V30 6502 C 624.335 -1.95124 -2.44735 0
M  V30 6503 C 624.81 -3.03745 -3.42787 0
M  V30 6504 N 626.301 -3.03012 -3.5034 0
M  V30 6505 C 627.036 -3.83699 -4.26101 0
M  V30 6506 N 626.532 -4.74306 -5.04981 0
M  V30 6507 N 628.325 -3.71942 -4.21445 0
M  V30 6508 H 620.476 -1.99029 -0.74169 0
M  V30 6509 H 622.739 -0.864557 -0.388903 0
M  V30 6510 H 622.445 -2.91906 -1.96172 0
M  V30 6511 H 622.319 -1.80536 -3.3119 0
M  V30 6512 H 624.706 -0.962069 -2.78977 0
M  V30 6513 H 624.787 -2.11018 -1.44586 0
M  V30 6514 H 624.431 -4.02878 -3.09276 0
M  V30 6515 H 624.361 -2.85094 -4.42752 0
M  V30 6516 H 626.852 -2.37352 -2.94062 0
M  V30 6517 H 627.165 -5.32446 -5.60108 0
M  V30 6518 H 625.51 -4.78339 -5.04199 0
M  V30 6519 H 628.701 -3.00513 -3.589 0
M  V30 6520 H 628.874 -4.35062 -4.80235 0
M  V30 6521 N 622.28 1.30327 -0.886154 0
M  V30 6522 C 623.19 2.31854 -0.357866 0
M  V30 6523 C 624.206 1.65392 0.540502 0
M  V30 6524 O 625.382 1.96683 0.433339 0
M  V30 6525 C 622.447 3.44171 0.417999 0
M  V30 6526 C 621.508 4.26257 -0.510263 0
M  V30 6527 C 620.741 5.3321 0.228669 0
M  V30 6528 O 620.964 5.51542 1.45458 0
M  V30 6529 O 619.898 6.0042 -0.421832 0
M  V30 6530 H 623.724 2.78995 -1.19982 0
M  V30 6531 H 621.309 1.34518 -0.650028 0
M  V30 6532 H 623.191 4.12588 0.857251 0
M  V30 6533 H 621.866 2.99164 1.23623 0
M  V30 6534 H 620.773 3.60533 -0.99835 0
M  V30 6535 H 622.106 4.74871 -1.29454 0
M  V30 6536 N 623.758 0.647228 1.43697 0
M  V30 6537 C 624.708 -0.0702191 2.27892 0
M  V30 6538 C 625.692 -0.800601 1.39568 0
M  V30 6539 O 626.884 -0.684055 1.63247 0
M  V30 6540 C 624.013 -1.04008 3.27165 0
M  V30 6541 C 623.099 -0.308484 4.22977 0
M  V30 6542 N 623.49 0.671721 5.0132 0
M  V30 6543 C 621.788 -0.550751 4.42586 0
M  V30 6544 C 622.489 1.10543 5.711 0
M  V30 6545 N 621.465 0.440903 5.41809 0
M  V30 6546 H 625.267 0.682031 2.85877 0
M  V30 6547 H 622.781 0.474022 1.55328 0
M  V30 6548 H 624.778 -1.56881 3.86256 0
M  V30 6549 H 623.438 -1.79246 2.70742 0
M  V30 6550 H 624.449 1.0502 5.0714 0
M  V30 6551 H 621.126 -1.28476 3.97241 0
M  V30 6552 H 622.516 1.91614 6.43998 0
M  V30 6553 N 625.236 -1.5273 0.388769 0
M  V30 6554 C 626.184 -2.27975 -0.461527 0
M  V30 6555 C 627.178 -1.31854 -1.06352 0
M  V30 6556 O 628.384 -1.49394 -1.00406 0
M  V30 6557 H 624.759 -0.733088 -0.16759 0
M  V30 6558 H 626.73 -2.97765 0.194579 0
M  V30 6559 C 625.479 -3.09881 -1.577 0
M  V30 6560 H 624.802 -3.83701 -1.12309 0
M  V30 6561 H 626.242 -3.6567 -2.14619 0
M  V30 6562 C 624.701 -2.22159 -2.53272 0
M  V30 6563 O 625.231 -1.84802 -3.56667 0
M  V30 6564 N 623.437 -1.8633 -2.23001 0
M  V30 6565 H 622.984 -2.16909 -1.38954 0
M  V30 6566 H 622.942 -1.27927 -2.87197 0
M  V30 6567 N 626.714 -0.118576 -1.57153 0
M  V30 6568 C 628.13 0.238014 -1.57815 0
M  V30 6569 C 628.33 1.66747 -1.13127 0
M  V30 6570 O 627.386 2.38867 -0.818462 0
M  V30 6571 C 628.699 0.00508207 -3.007 0
M  V30 6572 C 630.247 0.0710139 -3.12919 0
M  V30 6573 C 630.722 -0.13422 -4.57803 0
M  V30 6574 N 632.213 -0.0801755 -4.63131 0
M  V30 6575 C 632.948 -0.213885 -5.73001 0
M  V30 6576 N 632.444 -0.403742 -6.91623 0
M  V30 6577 N 634.237 -0.15349 -5.6189 0
M  V30 6578 H 626.388 -1.05226 -1.84503 0
M  V30 6579 H 628.651 -0.414318 -0.852669 0
M  V30 6580 H 628.357 -0.983125 -3.3768 0
M  V30 6581 H 628.231 0.73714 -3.69927 0
M  V30 6582 H 630.618 1.04975 -2.75798 0
M  V30 6583 H 630.699 -0.692918 -2.46236 0
M  V30 6584 H 630.343 -1.10992 -4.95624 0
M  V30 6585 H 630.273 0.649692 -5.22577 0
M  V30 6586 H 632.764 0.0630689 -3.77847 0
M  V30 6587 H 633.077 -0.496645 -7.71202 0
M  V30 6588 H 631.422 -0.43971 -6.93608 0
M  V30 6589 H 634.613 -0.00613174 -4.681 0
M  V30 6590 H 634.786 -0.261138 -6.47474 0
M  V30 6591 N 628.193 1.56834 0.155195 0
M  V30 6592 C 629.123 2.00678 1.19376 0
M  V30 6593 C 630.104 0.884973 1.45266 0
M  V30 6594 O 631.289 1.1522 1.56326 0
M  V30 6595 C 628.419 2.38042 2.5289 0
M  V30 6596 C 627.373 3.53332 2.41538 0
M  V30 6597 C 626.699 3.76485 3.79688 0
M  V30 6598 C 627.999 4.86265 1.9064 0
M  V30 6599 H 629.693 2.87688 0.829232 0
M  V30 6600 H 627.239 1.38407 0.397445 0
M  V30 6601 H 629.192 2.67314 3.25763 0
M  V30 6602 H 627.916 1.4796 2.91162 0
M  V30 6603 H 626.575 3.24213 1.71117 0
M  V30 6604 H 626.223 2.83667 4.15382 0
M  V30 6605 H 625.923 4.54068 3.72956 0
M  V30 6606 H 627.447 4.08174 4.54122 0
M  V30 6607 H 628.861 5.14308 2.53299 0
M  V30 6608 H 627.258 5.67597 1.94818 0
M  V30 6609 H 628.328 4.77184 0.861596 0
M  V30 6610 N 629.671 -0.424282 1.51781 0
M  V30 6611 C 630.634 -1.49848 1.73431 0
M  V30 6612 C 631.634 -1.49016 0.604225 0
M  V30 6613 O 632.824 -1.50808 0.871935 0
M  V30 6614 C 629.956 -2.89332 1.80277 0
M  V30 6615 H 631.149 -1.3195 2.69312 0
M  V30 6616 H 628.702 -0.653809 1.41968 0
M  V30 6617 H 629.437 -3.12618 0.862568 0
M  V30 6618 H 629.222 -2.9134 2.62419 0
M  V30 6619 H 630.712 -3.67233 1.98821 0
M  V30 6620 N 631.149 -1.42148 -0.680565 0
M  V30 6621 C 632.377 -1.45696 -1.46902 0
M  V30 6622 C 632.792 -0.0665858 -1.88683 0
M  V30 6623 O 632.149 0.917436 -1.57764 0
M  V30 6624 C 632.2 -2.37898 -2.72188 0
M  V30 6625 O 631.921 -3.71526 -2.32163 0
M  V30 6626 C 633.422 -2.50407 -3.65802 0
M  V30 6627 H 630.642 -0.495729 -0.45221 0
M  V30 6628 H 633.186 -1.866 -0.836709 0
M  V30 6629 H 631.341 -2.00263 -3.31622 0
M  V30 6630 H 631.755 -4.20849 -3.13027 0
M  V30 6631 H 633.229 -3.19056 -4.50452 0
M  V30 6632 H 633.706 -1.5401 -4.11312 0
M  V30 6633 H 634.312 -2.8874 -3.12265 0
M  V30 6634 N 632.627 0.916307 -1.28225 0
M  V30 6635 C 633.537 2.05165 -1.13775 0
M  V30 6636 C 634.553 1.73879 -0.0649418 0
M  V30 6637 O 635.729 1.99531 -0.273722 0
M  V30 6638 C 632.794 3.37385 -0.798267 0
M  V30 6639 C 631.855 3.82296 -1.95316 0
M  V30 6640 C 631.088 5.08206 -1.62978 0
M  V30 6641 O 631.311 5.6781 -0.542948 0
M  V30 6642 O 630.245 5.48768 -2.47261 0
M  V30 6643 H 634.071 2.20273 -2.09078 0
M  V30 6644 H 631.656 1.0373 -1.07519 0
M  V30 6645 H 633.538 4.16773 -0.62278 0
M  V30 6646 H 632.213 3.23458 0.125139 0
M  V30 6647 H 631.12 3.03746 -2.18378 0
M  V30 6648 H 632.453 4.00782 -2.85718 0
M  V30 6649 N 634.105 1.10431 1.1244 0
M  V30 6650 C 635.035 0.775143 2.20258 0
M  V30 6651 C 636.016 -0.25186 1.68225 0
M  V30 6652 O 637.201 -0.117637 1.93843 0
M  V30 6653 C 634.331 0.206133 3.46688 0
M  V30 6654 C 633.285 1.16382 4.11873 0
M  V30 6655 C 632.611 0.456014 5.32752 0
M  V30 6656 C 633.911 2.5104 4.58013 0
M  V30 6657 H 635.605 1.67665 2.4805 0
M  V30 6658 H 633.151 0.807595 1.19222 0
M  V30 6659 H 635.104 -0.036291 4.21384 0
M  V30 6660 H 633.828 -0.730614 3.18323 0
M  V30 6661 H 632.487 1.39169 3.39157 0
M  V30 6662 H 632.135 -0.485203 5.00654 0
M  V30 6663 H 631.835 1.09466 5.77314 0
M  V30 6664 H 633.359 0.222135 6.10196 0
M  V30 6665 H 634.773 2.32401 5.24083 0
M  V30 6666 H 633.17 3.10789 5.13352 0
M  V30 6667 H 634.24 3.11039 3.71998 0
M  V30 6668 N 635.583 -1.29855 0.893053 0
M  V30 6669 C 636.53 -2.27909 0.364161 0
M  V30 6670 C 637.5 -1.56726 -0.550093 0
M  V30 6671 O 638.685 -1.84747 -0.47677 0
M  V30 6672 C 635.825 -3.42678 -0.408178 0
M  V30 6673 C 634.938 -4.28659 0.536212 0
M  V30 6674 C 634.073 -5.30599 -0.252521 0
M  V30 6675 C 633.112 -6.08234 0.686822 0
M  V30 6676 N 632.249 -7.02068 -0.0670902 0
M  V30 6677 H 637.089 -2.72531 1.20544 0
M  V30 6678 H 634.626 -1.34047 0.605779 0
M  V30 6679 H 636.584 -4.07986 -0.871962 0
M  V30 6680 H 635.214 -2.99103 -1.21397 0
M  V30 6681 H 634.266 -3.63584 1.1185 0
M  V30 6682 H 635.578 -4.8274 1.25552 0
M  V30 6683 H 634.732 -6.01694 -0.777801 0
M  V30 6684 H 633.471 -4.77233 -1.005 0
M  V30 6685 H 632.476 -5.3601 1.22366 0
M  V30 6686 H 633.701 -6.63689 1.43852 0
M  V30 6687 H 631.647 -6.5108 -0.801955 0
M  V30 6688 H 631.564 -7.53675 0.59243 0
M  V30 6689 H 632.832 -7.77392 -0.572851 0
M  V30 6690 N 637.061 -0.65484 -1.43351 0
M  V30 6691 C 638.286 -0.175046 -2.0666 0
M  V30 6692 C 638.711 1.15104 -1.4877 0
M  V30 6693 O 638.069 1.71144 -0.598279 0
M  V30 6694 C 638.117 -0.0991544 -3.60464 0
M  V30 6695 O 637.221 0.938169 -4.01587 0
M  V30 6696 H 636.562 -0.0956148 -0.65708 0
M  V30 6697 H 639.092 -0.898222 -1.83829 0
M  V30 6698 H 639.102 0.083632 -4.07914 0
M  V30 6699 H 637.777 -1.06719 -4.01975 0
M  V30 6700 H 636.354 0.72804 -3.65724 0
M  V30 6701 N 638.539 1.52521 -0.396863 0
M  V30 6702 C 639.469 2.29582 0.425941 0
M  V30 6703 C 640.45 1.33281 1.05689 0
M  V30 6704 O 641.635 1.62181 1.06823 0
M  V30 6705 C 638.765 3.10821 1.54943 0
M  V30 6706 C 637.719 4.15069 1.04413 0
M  V30 6707 C 637.045 4.84578 2.26028 0
M  V30 6708 C 638.345 5.22191 0.106767 0
M  V30 6709 H 640.039 2.98612 -0.217045 0
M  V30 6710 H 637.585 1.43611 -0.105826 0
M  V30 6711 H 639.538 3.63492 2.13193 0
M  V30 6712 H 638.262 2.39538 2.22011 0
M  V30 6713 H 636.921 3.63389 0.484118 0
M  V30 6714 H 636.569 4.09835 2.91623 0
M  V30 6715 H 636.269 5.55043 1.92876 0
M  V30 6716 H 637.793 5.40056 2.84906 0
M  V30 6717 H 639.207 5.70176 0.597685 0
M  V30 6718 H 637.604 5.99947 -0.135352 0
M  V30 6719 H 638.674 4.77531 -0.842134 0
M  V30 6720 N 640.017 0.126909 1.57088 0
M  V30 6721 C 640.965 -0.837618 2.16995 0
M  V30 6722 C 641.959 -1.26974 1.12133 0
M  V30 6723 O 643.165 -1.24056 1.30423 0
M  V30 6724 H 639.54 -0.288256 0.694559 0
M  V30 6725 H 641.511 -0.307957 2.96807 0
M  V30 6726 C 640.26 -2.07474 2.79016 0
M  V30 6727 H 639.583 -1.75117 3.59408 0
M  V30 6728 H 641.023 -2.72949 3.24461 0
M  V30 6729 C 639.482 -2.86967 1.76498 0
M  V30 6730 O 640.012 -3.82625 1.22316 0
M  V30 6731 N 638.218 -2.51111 1.46258 0
M  V30 6732 H 637.765 -1.73389 1.90509 0
M  V30 6733 H 637.723 -3.04594 0.779085 0
M  V30 6734 N 641.495 -1.56914 -0.146875 0
M  V30 6735 C 642.906 -1.72799 -0.706928 0
M  V30 6736 C 643.257 -0.741329 -1.81656 0
M  V30 6737 O 642.382 0.0920162 -2.16204 0
M  V30 6738 C 642.977 -3.13317 -1.28911 0
M  V30 6739 C 641.536 -3.30803 -1.79573 0
M  V30 6740 C 640.683 -2.68725 -0.684252 0
M  V30 6741 H 643.634 -1.58504 0.0787931 0
M  V30 6742 H 643.655 -3.13323 -2.15891 0
M  V30 6743 H 643.167 -3.85104 -0.481284 0
M  V30 6744 H 641.268 -2.64012 -2.62923 0
M  V30 6745 H 641.381 -4.38754 -1.92436 0
M  V30 6746 H 639.745 -2.29196 -1.11091 0
M  V30 6747 H 640.528 -3.43117 0.112134 0
M  V30 6748 N 642.974 0.416227 -1.52004 0
M  V30 6749 C 644.39 0.754319 -1.40649 0
M  V30 6750 C 644.59 1.95059 -0.505392 0
M  V30 6751 O 643.646 2.5248 0.0315057 0
M  V30 6752 C 644.959 1.0149 -2.83055 0
M  V30 6753 C 646.507 1.11805 -2.9235 0
M  V30 6754 C 646.982 1.41144 -4.35709 0
M  V30 6755 N 648.473 1.48024 -4.38911 0
M  V30 6756 C 649.208 1.72338 -5.46889 0
M  V30 6757 N 648.704 1.94303 -6.64995 0
M  V30 6758 N 650.497 1.74294 -5.34395 0
M  V30 6759 H 642.648 -0.371324 -2.09129 0
M  V30 6760 H 644.911 -0.103811 -0.942299 0
M  V30 6761 H 644.617 0.208345 -3.51082 0
M  V30 6762 H 644.491 1.93697 -3.23668 0
M  V30 6763 H 646.878 1.91521 -2.24508 0
M  V30 6764 H 646.959 0.17451 -2.55204 0
M  V30 6765 H 646.603 0.619484 -5.04108 0
M  V30 6766 H 646.533 2.36739 -4.70385 0
M  V30 6767 H 649.024 1.32868 -3.53772 0
M  V30 6768 H 649.337 2.12286 -7.43071 0
M  V30 6769 H 647.682 1.91582 -6.68073 0
M  V30 6770 H 650.873 1.56667 -4.41104 0
M  V30 6771 H 651.046 1.92904 -6.18621 0
M  V30 6772 N 644.452 1.42507 0.673017 0
M  V30 6773 C 645.698 1.44282 1.43367 0
M  V30 6774 C 646.053 0.0588239 1.9231 0
M  V30 6775 O 645.346 -0.919288 1.68106 0
M  V30 6776 C 645.54 2.40351 2.64511 0
M  V30 6777 C 645.369 3.87955 2.27423 0
M  V30 6778 C 644.139 4.56476 2.16697 0
M  V30 6779 C 646.337 4.7833 1.88957 0
M  V30 6780 N 644.319 5.89099 1.72731 0
M  V30 6781 C 645.69 6.00073 1.55923 0
M  V30 6782 C 647.745 4.65769 1.75965 0
M  V30 6783 C 646.448 7.10652 1.112 0
M  V30 6784 C 648.474 5.76332 1.32647 0
M  V30 6785 C 647.836 6.97188 1.00538 0
M  V30 6786 H 643.935 0.583134 0.521036 0
M  V30 6787 H 646.519 1.78547 0.776481 0
M  V30 6788 H 644.69 2.08145 3.27918 0
M  V30 6789 H 646.422 2.32694 3.31113 0
M  V30 6790 H 643.177 4.10712 2.35823 0
M  V30 6791 H 643.601 6.59446 1.53166 0
M  V30 6792 H 648.243 3.72808 1.99435 0
M  V30 6793 H 645.961 8.0346 0.864768 0
M  V30 6794 H 649.547 5.68625 1.23112 0
M  V30 6795 H 648.427 7.81287 0.675283 0
M  V30 6796 N 645.93 -0.909495 1.28709 0
M  V30 6797 C 647.207 -1.63865 1.06806 0
M  V30 6798 C 647.587 -2.07445 -0.391143 0
M  V30 6799 O 646.935 -1.82269 -1.37805 0
M  V30 6800 C 647.145 -2.82692 2.04661 0
M  V30 6801 C 648.493 -3.5361 2.35042 0
M  V30 6802 O 649.517 -2.92847 2.02779 0
M  V30 6803 O 648.376 -4.63131 2.90124 0
M  V30 6804 H 645.47 -0.719065 0.408502 0
M  V30 6805 H 648.016 -0.958424 1.40044 0
M  V30 6806 H 646.788 -2.47614 3.0299 0
M  V30 6807 H 646.411 -3.58426 1.72095 0
M  V30 6808 N 647.408 -1.11026 -1.11852 0
M  V30 6809 C 648.656 -0.854769 -1.83134 0
M  V30 6810 C 648.977 0.621375 -1.84835 0
M  V30 6811 O 648.247 1.45129 -1.31584 0
M  V30 6812 H 646.827 -0.313229 -0.678157 0
M  V30 6813 H 649.489 -1.40178 -1.35411 0
M  V30 6814 H 648.585 -1.22311 -2.87135 0
M  V30 6815 N 648.886 1.2938 -0.899927 0
M  V30 6816 C 649.796 2.31462 -0.382437 0
M  V30 6817 C 650.812 1.65956 0.522929 0
M  V30 6818 O 651.988 1.97131 0.412454 0
M  V30 6819 C 649.053 3.44595 0.381472 0
M  V30 6820 C 648.114 4.25692 -0.555444 0
M  V30 6821 C 647.347 5.33422 0.172102 0
M  V30 6822 O 647.57 5.53053 1.396 0
M  V30 6823 O 646.504 5.99939 -0.485491 0
M  V30 6824 H 650.33 2.77706 -1.22934 0
M  V30 6825 H 647.915 1.33821 -0.664259 0
M  V30 6826 H 649.797 4.13474 0.813442 0
M  V30 6827 H 648.472 3.00458 1.20443 0
M  V30 6828 H 647.379 3.59453 -1.03653 0
M  V30 6829 H 648.712 4.73471 -1.34483 0
M  V30 6830 N 650.364 0.662433 1.43002 0
M  V30 6831 C 651.78 0.330835 1.56133 0
M  V30 6832 C 651.98 -1.16454 1.64441 0
M  V30 6833 O 651.036 -1.94964 1.60453 0
M  V30 6834 C 652.349 1.05029 2.81761 0
M  V30 6835 C 653.897 1.03142 2.95518 0
M  V30 6836 C 654.372 1.73196 4.2399 0
M  V30 6837 N 655.863 1.70004 4.30875 0
M  V30 6838 C 656.598 2.21074 5.29069 0
M  V30 6839 N 656.094 2.80473 6.33488 0
M  V30 6840 N 657.887 2.1152 5.20784 0
M  V30 6841 H 650.038 1.63272 1.35853 0
M  V30 6842 H 652.301 0.687149 0.653092 0
M  V30 6843 H 652.007 2.10542 2.81718 0
M  V30 6844 H 651.881 0.607664 3.72273 0
M  V30 6845 H 654.268 -0.0153339 2.95096 0
M  V30 6846 H 654.349 1.51282 2.0627 0
M  V30 6847 H 653.993 2.77833 4.25172 0
M  V30 6848 H 653.923 1.22515 5.1215 0
M  V30 6849 H 656.414 1.26667 3.56039 0
M  V30 6850 H 656.727 3.17094 7.04749 0
M  V30 6851 H 655.072 2.84538 6.34085 0
M  V30 6852 H 658.263 1.64814 4.38126 0
M  V30 6853 H 658.436 2.51629 5.97149 0
M  V30 6854 N 651.842 -1.52309 0.404946 0
M  V30 6855 C 652.772 -2.29805 -0.41376 0
M  V30 6856 C 653.753 -1.3384 -1.0498 0
M  V30 6857 O 654.938 -1.62745 -1.05961 0
M  V30 6858 C 652.068 -3.11639 -1.53292 0
M  V30 6859 C 651.022 -4.15616 -1.02211 0
M  V30 6860 C 650.348 -4.8577 -2.23455 0
M  V30 6861 C 651.648 -5.2224 -0.0790725 0
M  V30 6862 H 653.342 -2.98493 0.232878 0
M  V30 6863 H 650.888 -1.43552 0.113441 0
M  V30 6864 H 652.841 -3.64618 -2.11262 0
M  V30 6865 H 651.565 -2.40712 -2.20738 0
M  V30 6866 H 650.224 -3.63641 -0.46484 0
M  V30 6867 H 649.872 -4.11376 -2.89445 0
M  V30 6868 H 649.572 -5.56058 -1.89929 0
M  V30 6869 H 651.096 -5.4156 -2.82038 0
M  V30 6870 H 652.51 -5.70485 -0.567438 0
M  V30 6871 H 650.907 -5.99867 0.167167 0
M  V30 6872 H 651.977 -4.77078 0.867447 0
M  V30 6873 N 653.32 -0.135238 -1.57019 0
M  V30 6874 C 654.55 0.525303 -1.9981 0
M  V30 6875 C 654.958 1.59724 -1.01415 0
M  V30 6876 O 654.301 1.837 -0.00130938 0
M  V30 6877 C 654.363 1.19578 -3.3903 0
M  V30 6878 C 654.027 0.269855 -4.56203 0
M  V30 6879 C 655.024 -0.497905 -5.1751 0
M  V30 6880 C 652.709 0.176188 -5.01991 0
M  V30 6881 C 654.703 -1.3469 -6.23007 0
M  V30 6882 C 652.39 -0.676422 -6.07345 0
M  V30 6883 C 653.388 -1.43658 -6.67721 0
M  V30 6884 O 653.076 -2.27501 -7.71037 0
M  V30 6885 H 652.808 0.142296 -0.660854 0
M  V30 6886 H 655.362 -0.223272 -2.04183 0
M  V30 6887 H 653.592 1.99176 -3.3146 0
M  V30 6888 H 655.281 1.75486 -3.66005 0
M  V30 6889 H 656.047 -0.435507 -4.83041 0
M  V30 6890 H 651.926 0.757583 -4.54733 0
M  V30 6891 H 655.47 -1.9407 -6.70062 0
M  V30 6892 H 651.367 -0.740154 -6.41243 0
M  V30 6893 H 652.135 -2.20619 -7.88206 0
M  V30 6894 N 654.798 1.5699 0.138552 0
M  V30 6895 C 655.73 1.95515 1.1961 0
M  V30 6896 C 656.743 0.852002 1.38726 0
M  V30 6897 O 657.932 1.13038 1.38147 0
M  V30 6898 C 655.032 2.2213 2.55952 0
M  V30 6899 C 654.205 3.53424 2.57702 0
M  V30 6900 C 653.264 3.6848 3.75645 0
M  V30 6901 O 652.29 4.4079 3.60129 0
M  V30 6902 N 653.492 3.05777 4.93438 0
M  V30 6903 H 656.257 2.86838 0.868557 0
M  V30 6904 H 653.818 1.58542 0.328033 0
M  V30 6905 H 655.81 2.29435 3.33379 0
M  V30 6906 H 654.38 1.3703 2.80965 0
M  V30 6907 H 653.6 3.57484 1.6613 0
M  V30 6908 H 654.888 4.39759 2.55909 0
M  V30 6909 H 654.286 2.46961 5.08947 0
M  V30 6910 H 652.843 3.18631 5.6861 0
M  V30 6911 N 656.276 -0.40816 1.52223 0
M  V30 6912 C 657.186 -1.52202 1.78526 0
M  V30 6913 C 658.202 -1.60546 0.670892 0
M  V30 6914 O 659.378 -1.77242 0.956404 0
M  V30 6915 C 656.443 -2.87928 1.93128 0
M  V30 6916 C 655.504 -2.89463 3.17033 0
M  V30 6917 C 654.737 -4.18715 3.30929 0
M  V30 6918 O 654.96 -5.12662 2.50067 0
M  V30 6919 O 653.894 -4.27125 4.24084 0
M  V30 6920 H 657.72 -1.32911 2.73072 0
M  V30 6921 H 655.305 -0.594112 1.37079 0
M  V30 6922 H 657.187 -3.68426 2.04549 0
M  V30 6923 H 655.862 -3.07285 1.01772 0
M  V30 6924 H 654.769 -2.07815 3.11069 0
M  V30 6925 H 656.102 -2.75055 4.08174 0
M  V30 6926 N 657.755 -1.42862 -0.66545 0
M  V30 6927 C 658.718 -1.46756 -1.76055 0
M  V30 6928 C 659.718 -0.353866 -1.56858 0
M  V30 6929 O 660.908 -0.615099 -1.62979 0
M  V30 6930 C 658.04 -1.30829 -3.14796 0
M  V30 6931 H 659.233 -2.44271 -1.73987 0
M  V30 6932 H 656.786 -1.29447 -0.875965 0
M  V30 6933 H 657.521 -0.342733 -3.22484 0
M  V30 6934 H 657.306 -2.11551 -3.30134 0
M  V30 6935 H 658.796 -1.36458 -3.94676 0
M  V30 6936 N 659.233 0.902656 -1.29189 0
M  V30 6937 C 660.649 1.18296 -1.07137 0
M  V30 6938 C 660.849 2.00701 0.179223 0
M  V30 6939 O 659.905 2.3675 0.877812 0
M  V30 6940 C 661.218 1.90677 -2.32514 0
M  V30 6941 C 662.766 2.03515 -2.37804 0
M  V30 6942 C 663.241 2.79307 -3.62976 0
M  V30 6943 N 664.732 2.86862 -3.63681 0
M  V30 6944 C 665.467 3.46035 -4.57217 0
M  V30 6945 N 664.963 4.06399 -5.61081 0
M  V30 6946 N 666.756 3.43681 -4.44792 0
M  V30 6947 H 658.907 0.352765 -2.0945 0
M  V30 6948 H 661.17 0.21876 -0.922414 0
M  V30 6949 H 660.876 1.3756 -3.23682 0
M  V30 6950 H 660.75 2.91169 -2.39793 0
M  V30 6951 H 663.137 2.55809 -1.47125 0
M  V30 6952 H 663.218 1.02166 -2.34512 0
M  V30 6953 H 662.862 2.2769 -4.54004 0
M  V30 6954 H 662.792 3.80995 -3.63525 0
M  V30 6955 H 665.283 2.43987 -2.88581 0
M  V30 6956 H 665.596 4.49564 -6.2858 0
M  V30 6957 H 663.941 4.0487 -5.64894 0
M  V30 6958 H 667.132 2.9574 -3.62843 0
M  V30 6959 H 667.305 3.89503 -5.17872 0
M  V30 6960 N 660.711 1.11618 1.11262 0
M  V30 6961 C 661.658 0.7762 2.17356 0
M  V30 6962 C 662.628 -0.253152 1.6416 0
M  V30 6963 O 663.813 -0.129655 1.90359 0
M  V30 6964 C 660.953 0.227581 3.44349 0
M  V30 6965 C 660.066 1.31372 4.1154 0
M  V30 6966 C 659.201 0.72544 5.26223 0
M  V30 6967 C 658.24 1.7913 5.85302 0
M  V30 6968 N 657.377 1.22237 6.91377 0
M  V30 6969 H 662.217 1.68508 2.45783 0
M  V30 6970 H 659.754 0.841475 1.20655 0
M  V30 6971 H 661.712 -0.108483 4.17059 0
M  V30 6972 H 660.342 -0.644486 3.16301 0
M  V30 6973 H 659.394 1.7667 3.36885 0
M  V30 6974 H 660.706 2.12005 4.51504 0
M  V30 6975 H 659.86 0.339541 6.05749 0
M  V30 6976 H 658.599 -0.112188 4.87571 0
M  V30 6977 H 657.604 2.18648 5.04453 0
M  V30 6978 H 658.829 2.63199 6.26022 0
M  V30 6979 H 656.775 0.406423 6.5474 0
M  V30 6980 H 656.692 1.9654 7.30006 0
M  V30 6981 H 657.96 0.863426 7.74703 0
M  V30 6982 N 662.189 -1.289 0.906776 0
M  V30 6983 C 663.438 -1.9455 0.532262 0
M  V30 6984 C 663.751 -1.72219 -0.927353 0
M  V30 6985 O 664.957 -2.32033 -1.40971 0
M  V30 6986 C 663.413 -3.48438 0.901041 0
M  V30 6987 C 663.021 -3.79558 2.37991 0
M  V30 6988 C 664.765 -4.20284 0.596777 0
M  V30 6989 C 662.672 -5.26723 2.68918 0
M  V30 6990 H 661.602 -0.728259 0.195333 0
M  V30 6991 H 664.253 -1.46519 1.10474 0
M  V30 6992 H 662.635 -3.95162 0.257419 0
M  V30 6993 H 663.809 -3.43668 3.06967 0
M  V30 6994 H 662.124 -3.20868 2.65391 0
M  V30 6995 H 664.721 -5.28612 0.8046 0
M  V30 6996 H 665.064 -4.13694 -0.465072 0
M  V30 6997 H 665.597 -3.79315 1.19855 0
M  V30 6998 H 662.336 -5.38384 3.73928 0
M  V30 6999 H 661.856 -5.63836 2.04571 0
M  V30 7000 H 663.535 -5.94391 2.55555 0
M  V30 7001 N 663.667 -0.670007 -1.42649 0
M  V30 7002 C 664.913 -0.190568 -2.01903 0
M  V30 7003 C 665.246 1.19817 -1.52832 0
M  V30 7004 O 664.521 1.80342 -0.728485 0
M  V30 7005 C 664.804 -0.21991 -3.59428 0
M  V30 7006 C 664.657 -1.64376 -4.18689 0
M  V30 7007 C 665.976 0.434519 -4.3795 0
M  V30 7008 H 663.095 -0.0707219 -0.733599 0
M  V30 7009 H 665.737 -0.853883 -1.69732 0
M  V30 7010 H 663.887 0.344894 -3.86966 0
M  V30 7011 H 665.559 -2.26044 -4.02122 0
M  V30 7012 H 663.802 -2.18591 -3.747 0
M  V30 7013 H 664.473 -1.61601 -5.27815 0
M  V30 7014 H 666.949 -0.0462156 -4.16074 0
M  V30 7015 H 665.825 0.38333 -5.4756 0
M  V30 7016 H 666.086 1.51135 -4.15464 0
M  V30 7017 N 665.145 1.52092 -0.413018 0
M  V30 7018 C 666.393 2.01456 0.161178 0
M  V30 7019 C 666.714 1.30034 1.45314 0
M  V30 7020 O 665.984 0.427435 1.9118 0
M  V30 7021 H 664.564 0.744376 0.0625526 0
M  V30 7022 H 667.226 1.86974 -0.550151 0
M  V30 7023 H 666.322 3.1008 0.354517 0
M  V30 7024 N 666.623 0.143563 1.56945 0
M  V30 7025 C 667.586 -0.783295 2.154 0
M  V30 7026 C 668.586 -1.17763 1.09492 0
M  V30 7027 O 669.776 -1.09912 1.35148 0
M  V30 7028 C 666.908 -2.06248 2.7143 0
M  V30 7029 H 668.101 -0.274863 2.98638 0
M  V30 7030 H 665.654 -0.105859 1.55941 0
M  V30 7031 H 666.389 -2.61466 1.91849 0
M  V30 7032 H 666.174 -1.78897 3.4891 0
M  V30 7033 H 667.664 -2.72453 3.16479 0
M  V30 7034 N 668.101 -1.57061 -0.130224 0
M  V30 7035 C 669.034 -1.94698 -1.19029 0
M  V30 7036 C 670.012 -0.815074 -1.40696 0
M  V30 7037 O 671.196 -1.07223 -1.55034 0
M  V30 7038 C 668.323 -2.23352 -2.5462 0
M  V30 7039 C 667.369 -3.45945 -2.49448 0
M  V30 7040 S 668.202 -4.98927 -1.94505 0
M  V30 7041 C 669.358 -5.30721 -3.31792 0
M  V30 7042 H 669.591 -2.84308 -0.869272 0
M  V30 7043 H 667.124 -1.50688 -0.336531 0
M  V30 7044 H 669.082 -2.40539 -3.32643 0
M  V30 7045 H 667.743 -1.34376 -2.83905 0
M  V30 7046 H 666.936 -3.63324 -3.49302 0
M  V30 7047 H 666.538 -3.28086 -1.79543 0
M  V30 7048 H 668.83 -5.25215 -4.27966 0
M  V30 7049 H 669.773 -6.32048 -3.19251 0
M  V30 7050 H 670.181 -4.5821 -3.29703 0
M  V30 7051 N 669.579 0.400081 -1.52437 0
M  V30 7052 C 670.825 1.14788 -1.67187 0
M  V30 7053 C 671.158 1.89928 -0.405074 0
M  V30 7054 O 670.433 1.85118 0.596804 0
M  V30 7055 C 670.716 2.13507 -2.89977 0
M  V30 7056 C 670.569 1.42204 -4.2673 0
M  V30 7057 C 671.888 3.14069 -3.083 0
M  V30 7058 H 669.007 0.415939 -0.608411 0
M  V30 7059 H 671.649 0.432542 -1.85011 0
M  V30 7060 H 669.799 2.7451 -2.74912 0
M  V30 7061 H 671.471 0.842503 -4.53541 0
M  V30 7062 H 669.714 0.723939 -4.27717 0
M  V30 7063 H 670.385 2.14281 -5.08712 0
M  V30 7064 H 672.861 2.63148 -3.22323 0
M  V30 7065 H 671.737 3.80398 -3.95713 0
M  V30 7066 H 671.998 3.82309 -2.22018 0
M  V30 7067 N 671.057 1.43213 0.657864 0
M  V30 7068 C 671.989 1.43974 1.78337 0
M  V30 7069 C 673.002 0.336482 1.59285 0
M  V30 7070 O 674.191 0.600631 1.68091 0
M  V30 7071 C 671.291 1.23242 3.15697 0
M  V30 7072 C 670.464 2.46319 3.61449 0
M  V30 7073 C 669.523 2.2088 4.77597 0
M  V30 7074 O 668.549 2.942 4.87273 0
M  V30 7075 N 669.751 1.22251 5.67481 0
M  V30 7076 H 672.516 2.40993 1.78164 0
M  V30 7077 H 670.077 1.3831 0.841549 0
M  V30 7078 H 672.069 1.04113 3.91079 0
M  V30 7079 H 670.639 0.346849 3.1067 0
M  V30 7080 H 669.859 2.80904 2.76563 0
M  V30 7081 H 671.147 3.28239 3.88763 0
M  V30 7082 H 670.545 0.616433 5.62331 0
M  V30 7083 H 669.102 1.09107 6.42603 0
M  V30 7084 N 672.536 -0.895792 1.29666 0
M  V30 7085 C 673.785 -1.64131 1.17234 0
M  V30 7086 C 674.098 -1.93665 -0.274416 0
M  V30 7087 O 675.304 -2.66472 -0.520105 0
M  V30 7088 C 673.76 -2.95764 2.05065 0
M  V30 7089 C 673.368 -2.7381 3.54587 0
M  V30 7090 C 675.112 -3.737 2.01367 0
M  V30 7091 C 673.019 -4.01194 4.34508 0
M  V30 7092 H 671.949 -0.615742 0.435175 0
M  V30 7093 H 674.6 -0.992626 1.54335 0
M  V30 7094 H 672.982 -3.61867 1.60837 0
M  V30 7095 H 674.156 -2.16277 4.06892 0
M  V30 7096 H 672.471 -2.09265 3.59996 0
M  V30 7097 H 675.068 -4.68152 2.58337 0
M  V30 7098 H 675.411 -4.04245 0.994575 0
M  V30 7099 H 675.944 -3.14444 2.43659 0
M  V30 7100 H 672.683 -3.75813 5.37071 0
M  V30 7101 H 672.203 -4.58272 3.86971 0
M  V30 7102 H 673.882 -4.69307 4.45376 0
M  V30 7103 N 674.014 -1.12206 -1.10668 0
M  V30 7104 C 675.263 -0.870595 -1.81944 0
M  V30 7105 C 675.576 0.605447 -1.85994 0
M  V30 7106 O 676.782 0.973433 -2.53449 0
M  V30 7107 C 675.238 -1.50783 -3.26791 0
M  V30 7108 C 674.846 -3.01849 -3.31046 0
M  V30 7109 C 676.59 -1.33653 -4.02911 0
M  V30 7110 C 674.497 -3.58518 -4.70339 0
M  V30 7111 H 673.427 -0.322043 -0.681765 0
M  V30 7112 H 676.078 -1.34827 -1.24475 0
M  V30 7113 H 674.46 -0.957825 -3.84242 0
M  V30 7114 H 675.634 -3.63321 -2.83433 0
M  V30 7115 H 673.949 -3.18346 -2.68411 0
M  V30 7116 H 676.546 -1.73416 -5.05797 0
M  V30 7117 H 676.889 -0.279949 -4.15358 0
M  V30 7118 H 677.422 -1.85562 -3.51868 0
M  V30 7119 H 674.161 -4.63925 -4.63091 0
M  V30 7120 H 673.681 -3.01819 -5.18329 0
M  V30 7121 H 675.36 -3.57434 -5.39305 0
M  V30 7122 N 675.492 1.28418 -0.913599 0
M  V30 7123 C 676.72 1.99106 -0.562536 0
M  V30 7124 C 677.135 1.68273 0.856137 0
M  V30 7125 O 676.492 0.935401 1.56705 0
M  V30 7126 C 676.543 3.5338 -0.761903 0
M  V30 7127 O 676.264 3.83127 -2.12475 0
M  V30 7128 C 677.765 4.41328 -0.417651 0
M  V30 7129 H 674.985 0.635798 -0.214481 0
M  V30 7130 H 677.529 1.63618 -1.22676 0
M  V30 7131 H 675.684 3.8713 -0.144676 0
M  V30 7132 H 676.098 4.77763 -2.16431 0
M  V30 7133 H 677.572 5.48642 -0.607919 0
M  V30 7134 H 678.049 4.34422 0.646108 0
M  V30 7135 H 678.655 4.13074 -1.01241 0
M  V30 7136 N 676.97 0.677563 1.42291 0
M  V30 7137 C 678.2 0.209155 2.05539 0
M  V30 7138 C 678.608 -1.13987 1.51009 0
M  V30 7139 O 677.951 -1.71976 0.645764 0
M  V30 7140 C 678.013 0.0697758 3.59432 0
M  V30 7141 C 677.677 1.34795 4.36668 0
M  V30 7142 C 678.674 2.28201 4.67141 0
M  V30 7143 C 676.359 1.59632 4.76259 0
M  V30 7144 C 678.353 3.44718 5.36142 0
M  V30 7145 C 676.04 2.76437 5.45 0
M  V30 7146 C 677.038 3.68805 5.74867 0
M  V30 7147 O 676.726 4.83567 6.42198 0
M  V30 7148 H 676.458 0.0986202 0.668768 0
M  V30 7149 H 679.012 0.925483 1.83368 0
M  V30 7150 H 677.242 -0.702157 3.80272 0
M  V30 7151 H 678.931 -0.359115 4.04308 0
M  V30 7152 H 679.697 2.10264 4.37052 0
M  V30 7153 H 675.576 0.886073 4.52404 0
M  V30 7154 H 679.12 4.16833 5.59371 0
M  V30 7155 H 675.017 2.94299 5.74507 0
M  V30 7156 H 675.785 4.83147 6.6069 0
M  V30 7157 N 678.448 -1.51871 0.421078 0
M  V30 7158 C 679.864 -1.59435 0.0725398 0
M  V30 7159 C 680.064 -1.43315 -1.41644 0
M  V30 7160 O 679.12 -1.26614 -2.18461 0
M  V30 7161 C 680.433 -2.9509 0.578132 0
M  V30 7162 C 681.981 -3.08356 0.537149 0
M  V30 7163 C 682.456 -4.4651 1.01945 0
M  V30 7164 N 683.947 -4.52784 0.976758 0
M  V30 7165 C 684.682 -5.57976 1.32099 0
M  V30 7166 N 684.178 -6.70664 1.73727 0
M  V30 7167 N 685.971 -5.48248 1.2402 0
M  V30 7168 H 678.122 -1.60595 1.39007 0
M  V30 7169 H 680.385 -0.756138 0.571803 0
M  V30 7170 H 680.091 -3.12205 1.61929 0
M  V30 7171 H 679.965 -3.772 -0.00578374 0
M  V30 7172 H 682.352 -2.90919 -0.494991 0
M  V30 7173 H 682.433 -2.28125 1.15727 0
M  V30 7174 H 682.077 -4.64692 2.04997 0
M  V30 7175 H 682.007 -5.25256 0.376023 0
M  V30 7176 H 684.498 -3.71898 0.670851 0
M  V30 7177 H 684.811 -7.46932 1.98274 0
M  V30 7178 H 683.156 -6.71914 1.77641 0
M  V30 7179 H 686.347 -4.59095 0.913756 0
M  V30 7180 H 686.52 -6.30119 1.51176 0
M  V30 7181 N 679.926 -0.151884 -1.56866 0
M  V30 7182 C 681.203 0.543328 -1.87902 0
M  V30 7183 C 681.583 1.82636 -1.05864 0
M  V30 7184 O 680.931 2.28028 -0.146868 0
M  V30 7185 C 681.141 0.804056 -3.39611 0
M  V30 7186 C 682.489 1.14267 -4.08935 0
M  V30 7187 O 683.513 0.893248 -3.44818 0
M  V30 7188 O 682.372 1.61229 -5.22176 0
M  V30 7189 H 679.466 0.277724 -0.778973 0
M  V30 7190 H 682.012 -0.188862 -1.68646 0
M  V30 7191 H 680.784 -0.103772 -3.91162 0
M  V30 7192 H 680.407 1.59025 -3.64413 0
M  V30 7193 N 681.404 1.57128 0.121893 0
M  V30 7194 C 682.634 1.88609 0.843227 0
M  V30 7195 C 683.042 0.740917 1.74089 0
M  V30 7196 O 682.385 -0.297426 1.81276 0
M  V30 7197 C 682.447 3.15073 1.73117 0
M  V30 7198 C 682.111 4.45742 1.0081 0
M  V30 7199 C 683.108 5.18719 0.350255 0
M  V30 7200 C 680.793 4.92444 0.99014 0
M  V30 7201 C 682.787 6.36617 -0.315889 0
M  V30 7202 C 680.474 6.10261 0.320196 0
M  V30 7203 C 681.472 6.82194 -0.331666 0
M  V30 7204 O 681.16 7.97769 -0.990927 0
M  V30 7205 H 680.892 0.628919 0.247865 0
M  V30 7206 H 683.446 2.05096 0.111725 0
M  V30 7207 H 681.676 2.9466 2.50424 0
M  V30 7208 H 683.365 3.32597 2.32667 0
M  V30 7209 H 684.131 4.83693 0.35577 0
M  V30 7210 H 680.01 4.36361 1.48695 0
M  V30 7211 H 683.554 6.92701 -0.825272 0
M  V30 7212 H 679.451 6.44743 0.312433 0
M  V30 7213 H 680.219 8.13591 -0.895113 0
M  V30 7214 N 682.882 -0.391992 1.52647 0
M  V30 7215 C 683.812 -1.48517 1.8018 0
M  V30 7216 C 684.793 -1.57039 0.653667 0
M  V30 7217 O 685.978 -1.72036 0.900962 0
M  V30 7218 C 683.108 -2.86161 1.96797 0
M  V30 7219 C 682.062 -2.92481 3.12472 0
M  V30 7220 C 681.388 -4.32546 3.14338 0
M  V30 7221 C 682.688 -2.624 4.51601 0
M  V30 7222 H 684.382 -1.25726 2.71723 0
M  V30 7223 H 681.928 -0.603387 1.30749 0
M  V30 7224 H 683.881 -3.62639 2.14641 0
M  V30 7225 H 682.605 -3.10283 1.01941 0
M  V30 7226 H 681.264 -2.18451 2.94406 0
M  V30 7227 H 680.912 -4.53703 2.1717 0
M  V30 7228 H 680.612 -4.37695 3.92042 0
M  V30 7229 H 682.136 -5.10934 3.34333 0
M  V30 7230 H 683.55 -3.28596 4.69785 0
M  V30 7231 H 681.947 -2.78903 5.3135 0
M  V30 7232 H 683.017 -1.57754 4.58521 0
M  V30 7233 N 684.36 -1.4356 -0.65026 0
M  V30 7234 C 685.771 -1.40324 -1.2315 0
M  V30 7235 C 686.122 -0.108812 -1.95898 0
M  V30 7236 O 685.247 0.79163 -2.01401 0
M  V30 7237 C 685.842 -2.54195 -2.23987 0
M  V30 7238 C 684.401 -2.54215 -2.77582 0
M  V30 7239 C 683.548 -2.31752 -1.5227 0
M  V30 7240 H 686.499 -1.52418 -0.442095 0
M  V30 7241 H 686.52 -2.25854 -3.0622 0
M  V30 7242 H 686.032 -3.48392 -1.71011 0
M  V30 7243 H 684.133 -1.63907 -3.34612 0
M  V30 7244 H 684.246 -3.52081 -3.24925 0
M  V30 7245 H 682.61 -1.80476 -1.79723 0
M  V30 7246 H 683.393 -3.28037 -1.01225 0
M  V30 7247 N 685.838 0.888903 -1.30139 0
M  V30 7248 C 686.768 2.01046 -1.18755 0
M  V30 7249 C 687.749 1.69916 -0.0791438 0
M  V30 7250 O 688.934 1.92445 -0.260498 0
M  V30 7251 C 686.064 3.36109 -0.874518 0
M  V30 7252 C 685.018 3.81486 -1.94043 0
M  V30 7253 C 684.344 5.13796 -1.48047 0
M  V30 7254 C 685.644 4.00637 -3.35093 0
M  V30 7255 H 687.338 2.10828 -2.12584 0
M  V30 7256 H 684.884 1.01298 -1.02346 0
M  V30 7257 H 686.837 4.14089 -0.781548 0
M  V30 7258 H 685.561 3.26449 0.0994519 0
M  V30 7259 H 684.22 3.05731 -2.02297 0
M  V30 7260 H 683.868 5.0056 -0.494878 0
M  V30 7261 H 683.568 5.45127 -2.19341 0
M  V30 7262 H 685.092 5.94305 -1.40121 0
M  V30 7263 H 686.506 4.69067 -3.2962 0
M  V30 7264 H 684.903 4.43339 -4.04438 0
M  V30 7265 H 685.973 3.0462 -3.77273 0
M  V30 7266 N 687.317 1.12792 1.10072 0
M  V30 7267 C 688.563 0.886857 1.82381 0
M  V30 7268 C 688.896 -0.58576 1.85155 0
M  V30 7269 O 688.171 -1.43317 1.31493 0
M  V30 7270 C 688.454 1.46703 3.28862 0
M  V30 7271 C 688.307 3.00829 3.34398 0
M  V30 7272 C 689.626 1.12971 4.25353 0
M  V30 7273 H 686.745 0.32362 0.662148 0
M  V30 7274 H 689.387 1.39513 1.28982 0
M  V30 7275 H 687.537 1.03476 3.74466 0
M  V30 7276 H 689.209 3.52764 2.97247 0
M  V30 7277 H 687.452 3.36164 2.74183 0
M  V30 7278 H 688.123 3.36519 4.3756 0
M  V30 7279 H 690.599 1.50313 3.88001 0
M  V30 7280 H 689.475 1.56223 5.26199 0
M  V30 7281 H 689.736 0.0424452 4.4208 0
M  V30 7282 N 688.795 -1.27931 0.920396 0
M  V30 7283 C 689.725 -2.29487 0.431024 0
M  V30 7284 C 690.706 -1.62435 -0.504861 0
M  V30 7285 O 691.891 -1.89797 -0.411176 0
M  V30 7286 C 689.021 -3.45788 -0.323709 0
M  V30 7287 C 687.975 -4.24784 0.523658 0
M  V30 7288 C 687.301 -5.33488 -0.359809 0
M  V30 7289 C 688.601 -4.90874 1.78437 0
M  V30 7290 H 690.295 -2.70671 1.27975 0
M  V30 7291 H 687.841 -1.30121 0.616813 0
M  V30 7292 H 689.794 -4.15927 -0.676952 0
M  V30 7293 H 688.518 -3.03502 -1.2064 0
M  V30 7294 H 687.177 -3.56382 0.85951 0
M  V30 7295 H 686.825 -4.87445 -1.24124 0
M  V30 7296 H 686.525 -5.87247 0.203605 0
M  V30 7297 H 688.049 -6.06472 -0.708787 0
M  V30 7298 H 689.463 -5.53339 1.49963 0
M  V30 7299 H 687.86 -5.54659 2.29071 0
M  V30 7300 H 688.93 -4.14988 2.50824 0
M  V30 7301 N 690.273 -0.685099 -1.4193 0
M  V30 7302 C 691.521 -0.21124 -2.00993 0
M  V30 7303 C 691.842 1.18985 -1.54491 0
M  V30 7304 O 691.112 1.8009 -0.771 0
M  V30 7305 H 689.692 -0.0751059 -0.743215 0
M  V30 7306 H 692.354 -0.883915 -1.73704 0
M  V30 7307 H 691.45 -0.220513 -3.1132 0
M  V30 7308 N 691.751 1.51645 -0.429126 0
M  V30 7309 C 693.162 1.86665 0.0359003 0
M  V30 7310 C 693.513 1.34677 1.42676 0
M  V30 7311 O 692.638 0.694195 2.04963 0
M  V30 7312 C 693.233 3.38724 0.0719221 0
M  V30 7313 C 691.792 3.7331 0.481336 0
M  V30 7314 C 690.939 2.75313 -0.331329 0
M  V30 7315 H 693.89 1.44987 -0.645333 0
M  V30 7316 H 693.911 3.7011 0.883118 0
M  V30 7317 H 693.423 3.76532 -0.940495 0
M  V30 7318 H 691.524 3.41088 1.49966 0
M  V30 7319 H 691.637 4.78631 0.211837 0
M  V30 7320 H 690.001 2.53839 0.209204 0
M  V30 7321 H 690.784 3.15963 -1.34247 0
M  V30 7322 N 693.229 0.160201 1.56784 0
M  V30 7323 C 694.457 -0.494165 2.00912 0
M  V30 7324 C 694.872 -1.57548 1.04038 0
M  V30 7325 O 694.229 -1.82457 0.0394581 0
M  V30 7326 C 694.28 -1.08271 3.44905 0
M  V30 7327 O 694.001 -0.0445704 4.38077 0
M  V30 7328 C 695.502 -1.8164 4.04378 0
M  V30 7329 H 692.722 -0.127498 0.658776 0
M  V30 7330 H 695.266 0.258665 2.02858 0
M  V30 7331 H 693.421 -1.78609 3.4377 0
M  V30 7332 H 693.835 -0.477544 5.22322 0
M  V30 7333 H 695.309 -2.18094 5.07089 0
M  V30 7334 H 695.786 -2.70727 3.45838 0
M  V30 7335 H 696.392 -1.15969 4.09184 0
M  V30 7336 N 694.707 -1.5719 -0.113559 0
M  V30 7337 C 695.67 -1.99796 -1.12314 0
M  V30 7338 C 696.67 -0.888847 -1.34001 0
M  V30 7339 O 697.86 -1.15476 -1.30426 0
M  V30 7340 C 694.992 -2.34279 -2.47641 0
M  V30 7341 H 696.185 -2.90193 -0.756825 0
M  V30 7342 H 693.738 -1.52144 -0.358029 0
M  V30 7343 H 694.473 -1.46778 -2.89183 0
M  V30 7344 H 694.258 -3.15175 -2.33253 0
M  V30 7345 H 695.748 -2.67963 -3.2029 0
M  V30 7346 N 696.185 0.383891 -1.52853 0
M  V30 7347 C 697.118 1.49105 -1.72751 0
M  V30 7348 C 698.096 1.52077 -0.575438 0
M  V30 7349 O 699.28 1.70406 -0.805854 0
M  V30 7350 C 696.407 2.87551 -1.78975 0
M  V30 7351 C 695.453 3.02383 -3.00777 0
M  V30 7352 S 696.286 2.73048 -4.60657 0
M  V30 7353 C 697.442 4.13678 -4.69704 0
M  V30 7354 H 697.675 1.32002 -2.66388 0
M  V30 7355 H 695.208 0.577088 -1.4321 0
M  V30 7356 H 697.166 3.6733 -1.83246 0
M  V30 7357 H 695.827 3.01977 -0.864215 0
M  V30 7358 H 695.02 4.03733 -3.01688 0
M  V30 7359 H 694.622 2.30504 -2.94523 0
M  V30 7360 H 696.914 5.07676 -4.48633 0
M  V30 7361 H 697.857 4.1778 -5.71721 0
M  V30 7362 H 698.265 3.99825 -3.98497 0
M  V30 7363 N 697.663 1.43903 0.642637 0
M  V30 7364 C 699.079 1.27536 0.959519 0
M  V30 7365 C 699.279 0.202751 2.00477 0
M  V30 7366 O 698.335 -0.415256 2.49062 0
M  V30 7367 C 699.648 2.6432 1.43372 0
M  V30 7368 C 701.196 2.71937 1.54981 0
M  V30 7369 C 701.671 4.09164 2.05789 0
M  V30 7370 N 703.162 4.11282 2.13076 0
M  V30 7371 C 703.897 5.14303 2.53534 0
M  V30 7372 N 703.393 6.27693 2.93212 0
M  V30 7373 N 705.186 5.01657 2.53567 0
M  V30 7374 H 697.337 2.12344 -0.0488376 0
M  V30 7375 H 699.6 0.947124 0.0407559 0
M  V30 7376 H 699.306 3.43826 0.740048 0
M  V30 7377 H 699.18 2.90432 2.40685 0
M  V30 7378 H 701.567 1.92757 2.23448 0
M  V30 7379 H 701.648 2.49578 0.560739 0
M  V30 7380 H 701.292 4.88815 1.37921 0
M  V30 7381 H 701.222 4.28893 3.05546 0
M  V30 7382 H 703.713 3.2944 1.85143 0
M  V30 7383 H 704.026 7.02125 3.22863 0
M  V30 7384 H 702.371 6.31149 2.90991 0
M  V30 7385 H 705.562 4.12134 2.21952 0
M  V30 7386 H 705.735 5.82072 2.84774 0
M  V30 7387 N 699.141 -0.881989 1.30609 0
M  V30 7388 C 700.088 -1.98803 1.17244 0
M  V30 7389 C 701.058 -1.65987 0.0611905 0
M  V30 7390 O 702.243 -1.89385 0.231911 0
M  V30 7391 C 699.383 -3.33867 0.87333 0
M  V30 7392 C 698.496 -3.79354 2.06675 0
M  V30 7393 C 697.631 -5.03078 1.70547 0
M  V30 7394 C 696.67 -5.40981 2.86366 0
M  V30 7395 N 695.807 -6.55886 2.50514 0
M  V30 7396 H 700.647 -2.09566 2.11863 0
M  V30 7397 H 698.184 -1.02607 1.05405 0
M  V30 7398 H 700.142 -4.11612 0.680519 0
M  V30 7399 H 698.772 -3.2278 -0.0359983 0
M  V30 7400 H 697.824 -2.97492 2.37071 0
M  V30 7401 H 699.136 -4.03382 2.93401 0
M  V30 7402 H 698.29 -5.88457 1.47658 0
M  V30 7403 H 697.029 -4.80927 0.809947 0
M  V30 7404 H 696.034 -4.54127 3.09917 0
M  V30 7405 H 697.259 -5.65104 3.76609 0
M  V30 7406 H 695.205 -6.35306 1.63471 0
M  V30 7407 H 695.122 -6.79799 3.30771 0
M  V30 7408 H 696.39 -7.44489 2.30989 0
M  V30 7409 N 700.619 -1.13374 -1.09472 0
M  V30 7410 C 701.849 -0.917019 -1.85133 0
M  V30 7411 C 702.257 0.537568 -1.81402 0
M  V30 7412 O 701.6 1.38385 -1.20811 0
M  V30 7413 C 701.662 -1.32646 -3.34134 0
M  V30 7414 C 701.326 -2.79437 -3.61613 0
M  V30 7415 C 702.323 -3.77596 -3.57375 0
M  V30 7416 C 700.008 -3.16586 -3.89973 0
M  V30 7417 C 702.002 -5.10916 -3.81108 0
M  V30 7418 C 699.689 -4.50085 -4.13361 0
M  V30 7419 C 700.687 -5.47059 -4.0892 0
M  V30 7420 O 700.375 -6.78149 -4.31705 0
M  V30 7421 H 700.107 -0.326997 -0.591649 0
M  V30 7422 H 702.661 -1.51002 -1.39239 0
M  V30 7423 H 700.891 -0.676719 -3.80733 0
M  V30 7424 H 702.58 -1.08229 -3.91205 0
M  V30 7425 H 703.346 -3.50242 -3.35493 0
M  V30 7426 H 699.225 -2.41707 -3.92554 0
M  V30 7427 H 702.769 -5.86597 -3.77558 0
M  V30 7428 H 698.666 -4.77163 -4.34724 0
M  V30 7429 H 699.434 -6.84244 -4.49168 0
M  V30 7430 N 702.098 1.27442 -0.927168 0
M  V30 7431 C 703.028 2.29256 -0.443188 0
M  V30 7432 C 704.009 1.62701 0.49624 0
M  V30 7433 O 705.194 1.90013 0.401105 0
M  V30 7434 C 702.324 3.45955 0.305366 0
M  V30 7435 C 701.278 4.24501 -0.546178 0
M  V30 7436 C 700.604 5.33671 0.331512 0
M  V30 7437 C 701.904 4.89921 -1.81037 0
M  V30 7438 H 703.598 2.69988 -1.29409 0
M  V30 7439 H 701.144 1.29792 -0.623705 0
M  V30 7440 H 703.097 4.1628 0.654885 0
M  V30 7441 H 701.821 3.04138 1.19029 0
M  V30 7442 H 700.48 3.55921 -0.878398 0
M  V30 7443 H 700.128 4.88096 1.21537 0
M  V30 7444 H 699.828 5.87131 -0.234746 0
M  V30 7445 H 701.352 6.0684 0.676614 0
M  V30 7446 H 702.766 5.52536 -1.52895 0
M  V30 7447 H 701.163 5.53436 -2.32009 0
M  V30 7448 H 702.233 4.13652 -2.53021 0
M  V30 7449 N 703.576 0.692616 1.41565 0
M  V30 7450 C 704.987 0.297478 1.84315 0
M  V30 7451 C 705.338 -1.16379 1.57957 0
M  V30 7452 O 704.463 -1.89303 1.0485 0
M  V30 7453 C 705.058 0.533136 3.34579 0
M  V30 7454 C 703.617 0.191944 3.7591 0
M  V30 7455 C 702.764 0.816873 2.64995 0
M  V30 7456 H 705.715 0.893488 1.31158 0
M  V30 7457 H 705.736 -0.209105 3.79925 0
M  V30 7458 H 705.248 1.59674 3.53731 0
M  V30 7459 H 703.349 -0.867512 3.6236 0
M  V30 7460 H 703.462 0.644902 4.7474 0
M  V30 7461 H 701.826 0.246715 2.53502 0
M  V30 7462 H 702.609 1.88429 2.86966 0
M  V30 7463 N 705.054 -1.51416 0.437162 0
M  V30 7464 C 706.282 -2.06503 -0.128045 0
M  V30 7465 C 706.697 -1.30461 -1.36475 0
M  V30 7466 O 706.054 -0.364127 -1.78831 0
M  V30 7467 C 706.105 -3.58683 -0.450437 0
M  V30 7468 O 705.826 -4.31853 0.737186 0
M  V30 7469 C 707.327 -4.30284 -1.06633 0
M  V30 7470 H 704.547 -0.670952 -0.00800269 0
M  V30 7471 H 707.091 -1.94996 0.616193 0
M  V30 7472 H 705.246 -3.70106 -1.14457 0
M  V30 7473 H 705.66 -5.22467 0.461347 0
M  V30 7474 H 707.134 -5.37848 -1.24191 0
M  V30 7475 H 707.611 -3.88564 -2.0473 0
M  V30 7476 H 708.217 -4.23304 -0.411585 0
M  V30 7477 N 706.532 -0.168513 -1.56696 0
M  V30 7478 C 707.762 0.482802 -2.0088 0
M  V30 7479 C 708.17 1.57537 -1.0478 0
M  V30 7480 O 707.513 1.83656 -0.0402746 0
M  V30 7481 C 707.575 1.1236 -3.4149 0
M  V30 7482 C 707.239 0.173027 -4.56672 0
M  V30 7483 C 708.236 -0.607565 -5.16338 0
M  V30 7484 C 705.921 0.0696691 -5.02252 0
M  V30 7485 C 707.915 -1.47874 -6.2001 0
M  V30 7486 C 705.602 -0.805096 -6.05773 0
M  V30 7487 C 706.6 -1.57789 -6.64524 0
M  V30 7488 O 706.288 -2.43804 -7.66038 0
M  V30 7489 H 706.02 0.128246 -0.663723 0
M  V30 7490 H 708.574 -0.266532 -2.03663 0
M  V30 7491 H 706.804 1.921 -3.35611 0
M  V30 7492 H 708.493 1.67683 -3.69645 0
M  V30 7493 H 709.259 -0.53787 -4.82008 0
M  V30 7494 H 705.138 0.660957 -4.56237 0
M  V30 7495 H 708.682 -2.0824 -6.65794 0
M  V30 7496 H 704.579 -0.876005 -6.39528 0
M  V30 7497 H 705.347 -2.37289 -7.83349 0
M  V30 7498 N 708.01 1.57248 0.105221 0
M  V30 7499 C 709.426 1.52853 0.459153 0
M  V30 7500 C 709.626 0.883674 1.8109 0
M  V30 7501 O 708.682 0.471864 2.48052 0
M  V30 7502 C 709.995 2.97596 0.43096 0
M  V30 7503 C 711.543 3.08758 0.513536 0
M  V30 7504 C 712.018 4.55089 0.515593 0
M  V30 7505 N 713.509 4.59597 0.576639 0
M  V30 7506 C 714.244 5.70253 0.599904 0
M  V30 7507 N 713.74 6.90368 0.579985 0
M  V30 7508 N 715.533 5.58399 0.643953 0
M  V30 7509 H 707.684 1.97547 -0.780306 0
M  V30 7510 H 709.947 0.902758 -0.289363 0
M  V30 7511 H 709.653 3.48201 -0.494903 0
M  V30 7512 H 709.527 3.55756 1.2537 0
M  V30 7513 H 711.914 2.58148 1.42982 0
M  V30 7514 H 711.995 2.53568 -0.337148 0
M  V30 7515 H 711.639 5.06348 -0.396701 0
M  V30 7516 H 711.569 5.08105 1.38335 0
M  V30 7517 H 714.06 3.73144 0.597639 0
M  V30 7518 H 714.373 7.70462 0.600741 0
M  V30 7519 H 712.718 6.92843 0.547191 0
M  V30 7520 H 715.909 4.63467 0.656975 0
M  V30 7521 H 716.082 6.44644 0.658616 0
M  V30 7522 N 709.488 -0.375779 1.53054 0
M  V30 7523 C 710.713 -1.14484 1.7294 0
M  V30 7524 C 711.138 -1.82572 0.452668 0
M  V30 7525 O 710.496 -1.71343 -0.592567 0
M  V30 7526 C 710.544 -2.15857 2.88857 0
M  V30 7527 O 709.648 -3.22725 2.56753 0
M  V30 7528 H 708.989 -0.332666 0.574656 0
M  V30 7529 H 711.519 -0.436025 1.999 0
M  V30 7530 H 711.529 -2.59631 3.14731 0
M  V30 7531 H 710.204 -1.65689 3.81471 0
M  V30 7532 H 708.781 -2.83996 2.41663 0
M  V30 7533 N 710.966 -1.44241 -0.634997 0
M  V30 7534 C 712.196 -1.50078 -1.41987 0
M  V30 7535 C 712.604 -0.123072 -1.88799 0
M  V30 7536 O 711.947 0.880552 -1.6122 0
M  V30 7537 C 712.009 -2.40033 -2.67628 0
M  V30 7538 C 711.673 -3.87268 -2.42637 0
M  V30 7539 C 712.67 -4.77902 -2.04708 0
M  V30 7540 C 710.355 -4.31933 -2.56396 0
M  V30 7541 C 712.349 -6.11202 -1.80862 0
M  V30 7542 C 710.036 -5.65281 -2.32164 0
M  V30 7543 C 711.034 -6.54734 -1.94455 0
M  V30 7544 O 710.722 -7.85613 -1.7049 0
M  V30 7545 H 710.454 -0.51146 -0.442023 0
M  V30 7546 H 713.008 -1.89843 -0.784138 0
M  V30 7547 H 711.238 -1.95188 -3.33824 0
M  V30 7548 H 712.927 -2.36863 -3.29622 0
M  V30 7549 H 713.693 -4.44668 -1.93638 0
M  V30 7550 H 709.572 -3.62569 -2.84719 0
M  V30 7551 H 713.116 -6.80983 -1.51353 0
M  V30 7552 H 709.013 -5.98078 -2.42843 0
M  V30 7553 H 709.781 -7.97373 -1.84767 0
M  V30 7554 N 712.444 0.87505 -1.31075 0
M  V30 7555 C 713.392 2.00317 -1.18219 0
M  V30 7556 C 714.386 1.69152 -0.0916872 0
M  V30 7557 O 715.592 1.7821 -0.253229 0
M  V30 7558 H 711.967 0.656981 -0.365895 0
M  V30 7559 H 713.938 2.08293 -2.13674 0
M  V30 7560 C 712.687 3.35821 -0.901095 0
M  V30 7561 H 712.01 3.6032 -1.73233 0
M  V30 7562 H 713.45 4.15366 -0.851295 0
M  V30 7563 C 711.909 3.34563 0.396114 0
M  V30 7564 O 712.439 3.75971 1.41452 0
M  V30 7565 N 710.645 2.87681 0.410832 0
M  V30 7566 H 710.192 2.54179 -0.418415 0
M  V30 7567 H 710.15 2.87223 1.27869 0
M  V30 7568 N 713.922 1.13953 1.08869 0
M  V30 7569 C 715.199 0.815768 1.77777 0
M  V30 7570 C 715.579 -0.691624 1.99449 0
M  V30 7571 O 714.927 -1.63085 1.60049 0
M  V30 7572 C 715.137 1.60916 3.09689 0
M  V30 7573 C 716.485 1.80549 3.84301 0
M  V30 7574 O 717.509 1.57562 3.19457 0
M  V30 7575 O 716.368 2.18946 5.00724 0
M  V30 7576 H 713.462 0.298445 0.771271 0
M  V30 7577 H 716.008 1.24446 1.15374 0
M  V30 7578 H 714.78 2.6333 2.89435 0
M  V30 7579 H 714.403 1.17578 3.79817 0
M  V30 7580 N 715.4 -1.26948 0.933913 0
M  V30 7581 C 716.625 -1.98724 0.593589 0
M  V30 7582 C 717.05 -1.6915 -0.822801 0
M  V30 7583 O 716.408 -0.93533 -1.5531 0
M  V30 7584 C 716.456 -3.50834 0.833542 0
M  V30 7585 O 715.56 -4.12284 -0.0978788 0
M  V30 7586 H 714.901 -0.623683 0.227849 0
M  V30 7587 H 717.431 -1.61599 1.25486 0
M  V30 7588 H 717.441 -4.01018 0.75156 0
M  V30 7589 H 716.116 -3.71691 1.86597 0
M  V30 7590 H 714.693 -3.72884 0.0345443 0
M  V30 7591 N 716.879 -0.700114 -1.41195 0
M  V30 7592 C 718.125 -0.233351 -2.01453 0
M  V30 7593 C 718.458 1.16548 -1.55339 0
M  V30 7594 O 717.733 1.78756 -0.766575 0
M  V30 7595 C 718.016 -0.2961 -3.58881 0
M  V30 7596 C 717.869 -1.7322 -4.15108 0
M  V30 7597 C 719.188 0.341525 -4.38773 0
M  V30 7598 H 716.307 -0.0862667 -0.731934 0
M  V30 7599 H 718.949 -0.889693 -1.67882 0
M  V30 7600 H 717.099 0.262736 -3.87611 0
M  V30 7601 H 718.771 -2.34523 -3.97236 0
M  V30 7602 H 717.014 -2.2649 -3.69979 0
M  V30 7603 H 717.685 -1.7276 -5.24269 0
M  V30 7604 H 720.161 -0.134461 -4.15883 0
M  V30 7605 H 719.037 0.267098 -5.4825 0
M  V30 7606 H 719.298 1.42289 -4.18577 0
M  V30 7607 N 718.357 1.51182 -0.445186 0
M  V30 7608 C 719.634 1.9478 0.178965 0
M  V30 7609 C 720.014 1.38428 1.59376 0
M  V30 7610 O 719.362 0.574552 2.21159 0
M  V30 7611 C 719.572 3.48683 0.148711 0
M  V30 7612 C 720.92 4.23152 0.35042 0
M  V30 7613 O 721.944 3.55479 0.226474 0
M  V30 7614 O 720.803 5.4322 0.597893 0
M  V30 7615 H 717.897 0.817387 0.12573 0
M  V30 7616 H 720.443 1.62051 -0.503729 0
M  V30 7617 H 719.215 3.82176 -0.84009 0
M  V30 7618 H 718.838 3.87875 0.873979 0
M  V30 7619 N 719.835 0.176821 1.56605 0
M  V30 7620 C 721.246 -0.338963 1.83597 0
M  V30 7621 C 721.597 -1.62677 1.09684 0
M  V30 7622 O 720.722 -2.13524 0.351661 0
M  V30 7623 C 721.317 -0.62177 3.33046 0
M  V30 7624 C 719.876 -1.08198 3.60514 0
M  V30 7625 C 719.023 -0.120774 2.77037 0
M  V30 7626 H 721.974 0.400978 1.53551 0
M  V30 7627 H 721.995 -1.47321 3.50823 0
M  V30 7628 H 721.507 0.315692 3.86814 0
M  V30 7629 H 719.608 -2.03435 3.12162 0
M  V30 7630 H 719.721 -0.987329 4.68816 0
M  V30 7631 H 718.085 -0.619192 2.47059 0
M  V30 7632 H 718.868 0.810806 3.33588 0
M  V30 7633 N 721.313 -1.57302 -0.09688 0
M  V30 7634 C 722.729 -1.53094 -0.451041 0
M  V30 7635 C 722.929 -0.893265 -1.80618 0
M  V30 7636 O 721.985 -0.485013 -2.47798 0
M  V30 7637 C 723.298 -2.9782 -0.415172 0
M  V30 7638 C 724.846 -3.09026 -0.497155 0
M  V30 7639 C 725.321 -4.55356 -0.491452 0
M  V30 7640 N 726.812 -4.59896 -0.552258 0
M  V30 7641 C 727.547 -5.70563 -0.569654 0
M  V30 7642 N 727.043 -6.90666 -0.543365 0
M  V30 7643 N 728.836 -5.58733 -0.614331 0
M  V30 7644 H 720.987 -1.97131 0.790771 0
M  V30 7645 H 723.25 -0.901211 0.294147 0
M  V30 7646 H 722.956 -3.47933 0.513362 0
M  V30 7647 H 722.83 -3.56416 -1.23481 0
M  V30 7648 H 725.217 -2.58902 -1.41611 0
M  V30 7649 H 725.298 -2.53386 0.35059 0
M  V30 7650 H 724.942 -5.06131 0.423549 0
M  V30 7651 H 724.872 -5.08832 -1.35639 0
M  V30 7652 H 727.363 -3.73456 -0.577842 0
M  V30 7653 H 727.676 -7.70769 -0.559873 0
M  V30 7654 H 726.021 -6.93123 -0.510441 0
M  V30 7655 H 729.212 -4.63809 -0.632387 0
M  V30 7656 H 729.385 -6.44984 -0.62442 0
M  V30 7657 N 722.791 0.367657 -1.53252 0
M  V30 7658 C 724.04 1.10782 -1.68554 0
M  V30 7659 C 724.353 1.90523 -0.442765 0
M  V30 7660 O 725.559 2.6729 -0.47629 0
M  V30 7661 C 724.015 2.01863 -2.97959 0
M  V30 7662 C 723.623 1.27443 -4.29491 0
M  V30 7663 C 725.367 2.75883 -3.22628 0
M  V30 7664 C 723.274 2.17414 -5.49987 0
M  V30 7665 H 722.204 0.417272 -0.628013 0
M  V30 7666 H 724.855 0.368971 -1.79752 0
M  V30 7667 H 723.237 2.7947 -2.80558 0
M  V30 7668 H 724.411 0.549138 -4.57516 0
M  V30 7669 H 722.726 0.652935 -4.11249 0
M  V30 7670 H 725.323 3.43421 -4.09837 0
M  V30 7671 H 725.666 3.41138 -2.38601 0
M  V30 7672 H 726.199 2.0536 -3.40693 0
M  V30 7673 H 722.938 1.5674 -6.36485 0
M  V30 7674 H 722.458 2.87799 -5.26243 0
M  V30 7675 H 724.137 2.77019 -5.84696 0
M  V30 7676 N 724.269 1.44576 0.627338 0
M  V30 7677 C 725.232 1.51372 1.72102 0
M  V30 7678 C 726.232 0.395329 1.55865 0
M  V30 7679 O 727.422 0.658094 1.61291 0
M  V30 7680 C 724.554 1.39129 3.11217 0
M  V30 7681 H 725.747 2.48798 1.6745 0
M  V30 7682 H 723.3 1.31724 0.841336 0
M  V30 7683 H 724.035 0.428114 3.21462 0
M  V30 7684 H 723.82 2.20229 3.24409 0
M  V30 7685 H 725.31 1.46874 3.90919 0
M  V30 7686 N 725.747 -0.868086 1.31537 0
M  V30 7687 C 726.695 -1.99688 1.1928 0
M  V30 7688 C 727.689 -1.69101 0.100656 0
M  V30 7689 O 728.895 -1.78073 0.262677 0
M  V30 7690 H 725.27 -0.655032 0.369374 0
M  V30 7691 H 727.241 -2.07157 2.14776 0
M  V30 7692 C 725.99 -3.35338 0.918892 0
M  V30 7693 H 725.313 -3.59396 1.75142 0
M  V30 7694 H 726.753 -4.14909 0.873311 0
M  V30 7695 C 725.212 -3.34769 -0.378366 0
M  V30 7696 O 725.742 -3.76716 -1.39456 0
M  V30 7697 N 723.948 -2.87895 -0.39557 0
M  V30 7698 H 723.495 -2.53954 0.431889 0
M  V30 7699 H 723.453 -2.87897 -1.26344 0
M  V30 7700 N 727.225 -1.14528 -1.08264 0
M  V30 7701 C 728.471 -0.91576 -1.80947 0
M  V30 7702 C 728.804 0.55623 -1.86064 0
M  V30 7703 O 728.079 1.41207 -1.33756 0
M  V30 7704 C 728.362 -1.51917 -3.26486 0
M  V30 7705 C 728.215 -3.06111 -3.2957 0
M  V30 7706 C 729.534 -1.19724 -4.23502 0
M  V30 7707 H 726.653 -0.334113 -0.656915 0
M  V30 7708 H 729.295 -1.41547 -1.26746 0
M  V30 7709 H 727.445 -1.0942 -3.72773 0
M  V30 7710 H 729.117 -3.57448 -2.91597 0
M  V30 7711 H 727.36 -3.40483 -2.688 0
M  V30 7712 H 728.031 -3.43438 -4.32151 0
M  V30 7713 H 730.507 -1.56467 -3.85561 0
M  V30 7714 H 729.383 -1.64575 -5.23647 0
M  V30 7715 H 729.644 -0.112771 -4.41956 0
M  V30 7716 N 728.703 1.26451 -0.940633 0
M  V30 7717 C 729.95 1.93778 -0.587909 0
M  V30 7718 C 730.278 1.73811 0.872935 0
M  V30 7719 O 729.533 1.06816 1.63978 0
M  V30 7720 C 729.832 3.46503 -0.875794 0
M  V30 7721 C 729.498 3.86609 -2.32043 0
M  V30 7722 C 728.16 3.97269 -2.71534 0
M  V30 7723 C 730.512 4.0672 -3.25927 0
M  V30 7724 C 727.84 4.25436 -4.04006 0
M  V30 7725 C 730.192 4.36375 -4.57995 0
M  V30 7726 C 728.856 4.45249 -4.97302 0
M  V30 7727 H 728.126 0.709084 -0.215131 0
M  V30 7728 H 730.773 1.50272 -1.18704 0
M  V30 7729 H 729.078 3.91319 -0.194124 0
M  V30 7730 H 730.775 3.96759 -0.581665 0
M  V30 7731 H 727.365 3.78858 -2.00411 0
M  V30 7732 H 731.549 3.97912 -2.96614 0
M  V30 7733 H 726.805 4.30519 -4.34124 0
M  V30 7734 H 730.979 4.50882 -5.30734 0
M  V30 7735 H 728.606 4.66829 -5.99979 0
M  V30 7736 N 730.181 0.707592 1.40822 0
M  V30 7737 C 731.409 0.253073 2.05346 0
M  V30 7738 C 731.824 -1.10218 1.53289 0
M  V30 7739 O 731.181 -1.69112 0.686105 0
M  V30 7740 C 731.232 0.215411 3.60858 0
M  V30 7741 O 730.953 1.51714 4.10992 0
M  V30 7742 C 732.454 -0.258636 4.42545 0
M  V30 7743 H 729.674 0.115256 0.661027 0
M  V30 7744 H 732.218 0.963555 1.80377 0
M  V30 7745 H 730.373 -0.445978 3.84824 0
M  V30 7746 H 730.787 1.41226 5.05129 0
M  V30 7747 H 732.261 -0.233849 5.51504 0
M  V30 7748 H 732.738 -1.2995 4.19535 0
M  V30 7749 H 733.344 0.372186 4.23668 0
M  V30 7750 N 731.66 -1.50943 0.453197 0
M  V30 7751 C 732.608 -2.29728 -0.364419 0
M  V30 7752 C 733.602 -1.36246 -1.00664 0
M  V30 7753 O 734.808 -1.53518 -0.939794 0
M  V30 7754 H 731.183 -0.739536 -0.136347 0
M  V30 7755 H 733.154 -2.96672 0.320696 0
M  V30 7756 C 731.903 -3.1629 -1.44415 0
M  V30 7757 H 731.226 -3.88119 -0.959343 0
M  V30 7758 H 732.666 -3.74444 -1.98917 0
M  V30 7759 C 731.125 -2.32702 -2.43622 0
M  V30 7760 O 731.655 -1.99763 -3.48508 0
M  V30 7761 N 729.861 -1.95621 -2.14897 0
M  V30 7762 H 729.408 -2.22607 -1.29629 0
M  V30 7763 H 729.366 -1.39993 -2.81513 0
M  V30 7764 N 733.138 -0.185124 -1.56509 0
M  V30 7765 C 734.101 0.72591 -2.17401 0
M  V30 7766 C 735.101 1.14819 -1.12575 0
M  V30 7767 O 736.291 1.0629 -1.38015 0
M  V30 7768 C 733.423 1.98979 -2.76803 0
M  V30 7769 H 734.616 0.195588 -2.99262 0
M  V30 7770 H 732.169 0.0644772 -1.56167 0
M  V30 7771 H 732.904 2.56287 -1.98714 0
M  V30 7772 H 732.689 1.69583 -3.53531 0
M  V30 7773 H 734.179 2.63966 -3.23592 0
M  V30 7774 N 734.616 1.57351 0.0885366 0
M  V30 7775 C 735.863 1.86419 0.790824 0
M  V30 7776 C 736.191 0.774561 1.78412 0
M  V30 7777 O 735.446 -0.23119 1.9433 0
M  V30 7778 C 735.745 3.22098 1.5488 0
M  V30 7779 C 735.411 4.4548 0.697025 0
M  V30 7780 C 734.073 4.78975 0.462237 0
M  V30 7781 C 736.425 5.21094 0.105315 0
M  V30 7782 C 733.753 5.85507 -0.374016 0
M  V30 7783 C 736.105 6.28509 -0.718298 0
M  V30 7784 C 734.769 6.60515 -0.963116 0
M  V30 7785 H 734.039 0.682157 0.289383 0
M  V30 7786 H 736.686 1.91429 0.0520961 0
M  V30 7787 H 734.991 3.12803 2.35927 0
M  V30 7788 H 736.688 3.41819 2.09669 0
M  V30 7789 H 733.278 4.19255 0.890137 0
M  V30 7790 H 737.462 4.95544 0.273856 0
M  V30 7791 H 732.718 6.08713 -0.572606 0
M  V30 7792 H 736.892 6.86268 -1.18362 0
M  V30 7793 H 734.519 7.42893 -1.6129 0
M  V30 7794 N 736.094 -0.359525 1.53444 0
M  V30 7795 C 737.51 -0.701599 1.43352 0
M  V30 7796 C 737.71 -1.93049 0.577439 0
M  V30 7797 O 736.766 -2.52423 0.0622224 0
M  V30 7798 C 738.079 -0.90915 2.86627 0
M  V30 7799 C 739.627 -1.00878 2.96298 0
M  V30 7800 C 740.102 -1.24876 4.40647 0
M  V30 7801 N 741.593 -1.31632 4.44103 0
M  V30 7802 C 742.328 -1.51922 5.52908 0
M  V30 7803 N 741.824 -1.69489 6.71748 0
M  V30 7804 N 743.617 -1.54341 5.40496 0
M  V30 7805 H 735.768 0.448685 2.07607 0
M  V30 7806 H 738.031 0.138713 0.937797 0
M  V30 7807 H 737.737 -0.0778997 3.51614 0
M  V30 7808 H 737.611 -1.81551 3.30634 0
M  V30 7809 H 739.998 -1.83057 2.31461 0
M  V30 7810 H 740.079 -0.0796721 2.55676 0
M  V30 7811 H 739.723 -0.431961 5.0606 0
M  V30 7812 H 739.653 -2.19118 4.78848 0
M  V30 7813 H 742.144 -1.19646 3.5846 0
M  V30 7814 H 742.457 -1.84561 7.50438 0
M  V30 7815 H 740.802 -1.66655 6.74723 0
M  V30 7816 H 743.993 -1.40188 4.46615 0
M  V30 7817 H 744.166 -1.69812 6.25354 0
M  V30 7818 N 737.572 -1.44907 -0.619662 0
M  V30 7819 C 738.802 -1.51575 -1.40387 0
M  V30 7820 C 739.21 -0.14309 -1.88658 0
M  V30 7821 O 738.553 0.863403 -1.62145 0
M  V30 7822 C 738.615 -2.42858 -2.65067 0
M  V30 7823 C 738.279 -3.8982 -2.38515 0
M  V30 7824 C 739.276 -4.80047 -1.99627 0
M  V30 7825 C 736.961 -4.34628 -2.51801 0
M  V30 7826 C 738.955 -6.13086 -1.74369 0
M  V30 7827 C 736.642 -5.67712 -2.26156 0
M  V30 7828 C 737.64 -6.56759 -1.875 0
M  V30 7829 O 737.328 -7.87377 -1.62148 0
M  V30 7830 H 737.06 -0.51612 -0.436573 0
M  V30 7831 H 739.614 -1.90664 -0.763959 0
M  V30 7832 H 737.844 -1.98717 -3.31735 0
M  V30 7833 H 739.533 -2.40346 -3.27091 0
M  V30 7834 H 740.299 -4.46697 -1.8891 0
M  V30 7835 H 736.178 -3.65568 -2.80857 0
M  V30 7836 H 739.722 -6.8255 -1.44122 0
M  V30 7837 H 735.619 -6.0062 -2.36486 0
M  V30 7838 H 736.387 -7.99288 -1.763 0
M  V30 7839 N 739.05 0.861098 -1.31996 0
M  V30 7840 C 740.298 1.61162 -1.21947 0
M  V30 7841 C 740.619 1.93751 0.220351 0
M  V30 7842 O 739.889 1.59069 1.14341 0
M  V30 7843 H 738.469 0.597485 -0.448353 0
M  V30 7844 H 741.131 1.03039 -1.65436 0
M  V30 7845 H 740.227 2.55138 -1.79752 0
M  V30 7846 N 740.528 1.15101 1.07655 0
M  V30 7847 C 741.478 0.813448 2.12995 0
M  V30 7848 C 742.462 -0.200899 1.59641 0
M  V30 7849 O 743.654 -0.00209918 1.77 0
M  V30 7850 C 740.783 0.301078 3.41977 0
M  V30 7851 C 739.869 1.3454 4.02194 0
M  V30 7852 N 740.26 2.55181 4.36711 0
M  V30 7853 C 738.558 1.19742 4.29625 0
M  V30 7854 C 739.259 3.22094 4.84387 0
M  V30 7855 N 738.235 2.49486 4.82968 0
M  V30 7856 H 742.037 1.73105 2.37511 0
M  V30 7857 H 739.551 1.03601 1.25063 0
M  V30 7858 H 741.548 0.040914 4.1688 0
M  V30 7859 H 740.208 -0.610629 3.18907 0
M  V30 7860 H 741.219 2.92349 4.27496 0
M  V30 7861 H 737.896 0.345353 4.16069 0
M  V30 7862 H 739.286 4.24996 5.20411 0
M  V30 7863 N 742.006 -1.2595 0.947325 0
M  V30 7864 C 743.234 -1.97544 0.615127 0
M  V30 7865 C 743.649 -1.70484 -0.811221 0
M  V30 7866 O 743.006 -0.97662 -1.5417 0
M  V30 7867 C 743.057 -3.51236 0.855328 0
M  V30 7868 O 742.778 -3.77359 2.22558 0
M  V30 7869 C 744.279 -4.40066 0.534515 0
M  V30 7870 H 741.499 -0.629888 0.231263 0
M  V30 7871 H 744.043 -1.60308 1.26971 0
M  V30 7872 H 742.198 -3.8661 0.247266 0
M  V30 7873 H 742.612 -4.71857 2.29022 0
M  V30 7874 H 744.086 -5.46838 0.753168 0
M  V30 7875 H 744.563 -4.35982 -0.530701 0
M  V30 7876 H 745.169 -4.10245 1.12158 0
M  V30 7877 N 743.484 -0.715051 -1.40445 0
M  V30 7878 C 744.414 -0.0768699 -2.33373 0
M  V30 7879 C 745.395 0.746109 -1.52863 0
M  V30 7880 O 746.58 0.695142 -1.81332 0
M  V30 7881 C 743.71 0.846014 -3.36838 0
M  V30 7882 C 742.664 0.128694 -4.27806 0
M  V30 7883 C 741.99 1.16726 -5.21804 0
M  V30 7884 C 743.29 -1.01679 -5.12307 0
M  V30 7885 H 744.984 -0.853061 -2.8699 0
M  V30 7886 H 742.53 -0.41167 -1.3799 0
M  V30 7887 H 744.483 1.30185 -4.00786 0
M  V30 7888 H 743.207 1.6541 -2.81615 0
M  V30 7889 H 741.866 -0.307314 -3.6531 0
M  V30 7890 H 741.514 1.96838 -4.62887 0
M  V30 7891 H 741.214 0.692188 -5.83509 0
M  V30 7892 H 742.738 1.62321 -5.88629 0
M  V30 7893 H 744.152 -0.640337 -5.69713 0
M  V30 7894 H 742.549 -1.4202 -5.83053 0
M  V30 7895 H 743.619 -1.84769 -4.48317 0
M  V30 7896 N 744.962 1.50701 -0.461195 0
M  V30 7897 C 746.211 2.01458 0.0988277 0
M  V30 7898 C 746.524 1.34863 1.41673 0
M  V30 7899 O 747.73 1.76721 2.06111 0
M  V30 7900 C 746.186 3.59186 0.226648 0
M  V30 7901 C 745.794 4.34732 -1.08223 0
M  V30 7902 C 747.538 4.18015 0.73916 0
M  V30 7903 C 745.445 5.8422 -0.918747 0
M  V30 7904 H 744.375 0.7529 0.040709 0
M  V30 7905 H 747.026 1.736 -0.594589 0
M  V30 7906 H 745.408 3.83589 0.983621 0
M  V30 7907 H 746.582 4.22059 -1.84939 0
M  V30 7908 H 744.897 3.87466 -1.52509 0
M  V30 7909 H 747.494 5.27436 0.878347 0
M  V30 7910 H 747.837 3.78746 1.72793 0
M  V30 7911 H 748.37 3.9778 0.0398469 0
M  V30 7912 H 745.109 6.27944 -1.88059 0
M  V30 7913 H 744.629 5.99493 -0.191801 0
M  V30 7914 H 746.308 6.44382 -0.581405 0
M  V30 7915 N 746.441 0.193421 1.56409 0
M  V30 7916 C 747.373 -0.759944 2.16235 0
M  V30 7917 C 748.386 -1.17797 1.12373 0
M  V30 7918 O 749.575 -1.11399 1.39472 0
M  V30 7919 C 746.675 -2.03735 2.70823 0
M  V30 7920 C 745.848 -1.77939 3.9957 0
M  V30 7921 C 744.907 -2.90111 4.39001 0
M  V30 7922 O 743.933 -2.59791 5.06456 0
M  V30 7923 N 745.135 -4.18426 4.02368 0
M  V30 7924 H 747.9 -0.248348 2.98669 0
M  V30 7925 H 745.461 0.0113966 1.61896 0
M  V30 7926 H 747.453 -2.77914 2.94187 0
M  V30 7927 H 746.023 -2.46022 1.92852 0
M  V30 7928 H 745.243 -0.875491 3.84355 0
M  V30 7929 H 746.531 -1.58099 4.83614 0
M  V30 7930 H 745.929 -4.45913 3.48106 0
M  V30 7931 H 744.486 -4.89237 4.30686 0
M  V30 7932 N 747.919 -1.57396 -0.0801906 0
M  V30 7933 C 749.33 -1.75642 -0.633002 0
M  V30 7934 C 749.681 -0.817708 -1.78348 0
M  V30 7935 O 748.806 0.000233743 -2.164 0
M  V30 7936 C 749.401 -3.18502 -1.15507 0
M  V30 7937 C 747.96 -3.38121 -1.65381 0
M  V30 7938 C 747.107 -2.71386 -0.569661 0
M  V30 7939 H 750.058 -1.58027 0.145949 0
M  V30 7940 H 750.079 -3.22198 -2.02408 0
M  V30 7941 H 749.591 -3.86799 -0.317515 0
M  V30 7942 H 747.692 -2.74926 -2.51488 0
M  V30 7943 H 747.805 -4.46521 -1.73654 0
M  V30 7944 H 746.169 -2.33702 -1.0127 0
M  V30 7945 H 746.952 -3.42332 0.257561 0
M  V30 7946 N 749.397 0.351382 -1.53633 0
M  V30 7947 C 750.644 1.0925 -1.70502 0
M  V30 7948 C 750.972 1.88881 -0.464123 0
M  V30 7949 O 750.227 1.87693 0.554077 0
M  V30 7950 C 750.526 2.06744 -2.91533 0
M  V30 7951 C 750.192 1.43484 -4.27461 0
M  V30 7952 C 748.854 1.2596 -4.64422 0
M  V30 7953 C 751.206 0.978436 -5.11934 0
M  V30 7954 C 748.534 0.614017 -5.83478 0
M  V30 7955 C 750.886 0.346795 -6.31649 0
M  V30 7956 C 749.55 0.15917 -6.6731 0
M  V30 7957 H 748.82 0.399773 -0.623909 0
M  V30 7958 H 751.467 0.372656 -1.87839 0
M  V30 7959 H 749.772 2.85082 -2.68767 0
M  V30 7960 H 751.469 2.64066 -3.01778 0
M  V30 7961 H 748.059 1.5812 -3.98367 0
M  V30 7962 H 752.243 1.1017 -4.83918 0
M  V30 7963 H 747.499 0.457194 -6.09688 0
M  V30 7964 H 751.673 -0.0149864 -6.96398 0
M  V30 7965 H 749.3 -0.343129 -7.59425 0
M  V30 7966 N 750.875 1.45233 0.611969 0
M  V30 7967 C 751.808 1.48056 1.73651 0
M  V30 7968 C 752.786 0.337373 1.59061 0
M  V30 7969 O 753.97 0.537222 1.80683 0
M  V30 7970 C 751.097 1.33144 3.11433 0
M  V30 7971 C 750.143 2.51272 3.44623 0
M  V30 7972 S 750.976 4.13754 3.39953 0
M  V30 7973 C 752.132 4.013 4.80322 0
M  V30 7974 H 752.365 2.43205 1.70993 0
M  V30 7975 H 749.898 1.32763 0.788246 0
M  V30 7976 H 751.856 1.25228 3.90932 0
M  V30 7977 H 750.517 0.394734 3.1161 0
M  V30 7978 H 749.71 2.36753 4.44932 0
M  V30 7979 H 749.312 2.56027 2.72629 0
M  V30 7980 H 751.604 3.66174 5.7002 0
M  V30 7981 H 752.547 5.01506 4.99897 0
M  V30 7982 H 752.955 3.3303 4.55797 0
M  V30 7983 N 752.353 -0.854086 1.3245 0
M  V30 7984 C 753.6 -1.60831 1.23043 0
M  V30 7985 C 753.928 -1.93389 -0.2076 0
M  V30 7986 O 753.183 -1.5756 -1.16075 0
M  V30 7987 C 753.482 -2.93746 2.03587 0
M  V30 7988 C 753.148 -2.80615 3.52939 0
M  V30 7989 C 751.81 -2.76742 3.93659 0
M  V30 7990 C 754.162 -2.66507 4.4791 0
M  V30 7991 C 751.49 -2.56638 5.27592 0
M  V30 7992 C 753.842 -2.47939 5.81987 0
M  V30 7993 C 752.506 -2.42458 6.21909 0
M  V30 7994 H 751.776 -0.588523 0.450247 0
M  V30 7995 H 754.423 -0.990699 1.63882 0
M  V30 7996 H 752.728 -3.5963 1.55478 0
M  V30 7997 H 754.425 -3.51127 1.93677 0
M  V30 7998 H 751.015 -2.84456 3.20598 0
M  V30 7999 H 755.199 -2.68544 4.1737 0
M  V30 8000 H 750.455 -2.50831 5.57579 0
M  V30 8001 H 754.629 -2.36002 6.55192 0
M  V30 8002 H 752.256 -2.2664 7.2563 0
M  V30 8003 N 753.831 -1.1567 -1.07043 0
M  V30 8004 C 755.247 -0.900006 -1.31803 0
M  V30 8005 C 755.447 0.451293 -1.96381 0
M  V30 8006 O 754.503 1.19252 -2.22565 0
M  V30 8007 C 755.816 -2.04334 -2.20609 0
M  V30 8008 C 757.364 -2.07823 -2.34048 0
M  V30 8009 C 757.839 -3.21488 -3.26204 0
M  V30 8010 N 759.33 -3.21156 -3.33786 0
M  V30 8011 C 760.065 -4.05746 -4.05163 0
M  V30 8012 N 759.561 -5.00407 -4.79129 0
M  V30 8013 N 761.354 -3.93759 -4.01136 0
M  V30 8014 H 753.505 -2.02681 -0.635146 0
M  V30 8015 H 755.768 -0.883956 -0.342528 0
M  V30 8016 H 755.474 -3.01895 -1.80423 0
M  V30 8017 H 755.348 -1.97838 -3.21154 0
M  V30 8018 H 757.735 -1.1086 -2.73485 0
M  V30 8019 H 757.816 -2.18386 -1.33197 0
M  V30 8020 H 757.46 -4.18706 -2.87485 0
M  V30 8021 H 757.39 -3.08162 -4.27017 0
M  V30 8022 H 759.881 -2.52606 -2.81067 0
M  V30 8023 H 760.194 -5.61387 -5.31097 0
M  V30 8024 H 758.539 -5.04393 -4.78135 0
M  V30 8025 H 761.73 -3.19115 -3.42466 0
M  V30 8026 H 761.903 -4.59906 -4.56498 0
M  V30 8027 N 755.309 1.25446 -0.953992 0
M  V30 8028 C 756.239 2.28264 -0.491717 0
M  V30 8029 C 757.22 1.63717 0.461617 0
M  V30 8030 O 758.405 1.90821 0.36071 0
M  V30 8031 C 755.535 3.46525 0.231915 0
M  V30 8032 C 754.489 4.23247 -0.636098 0
M  V30 8033 C 753.815 5.34254 0.218238 0
M  V30 8034 C 755.115 4.85971 -1.91389 0
M  V30 8035 H 756.809 2.67183 -1.35106 0
M  V30 8036 H 754.355 1.2844 -0.651095 0
M  V30 8037 H 756.308 4.17576 0.566439 0
M  V30 8038 H 755.032 3.06594 1.12551 0
M  V30 8039 H 753.691 3.53978 -0.953696 0
M  V30 8040 H 753.339 4.90564 1.11156 0
M  V30 8041 H 753.039 5.86501 -0.359232 0
M  V30 8042 H 754.563 6.08138 0.547743 0
M  V30 8043 H 755.977 5.49168 -1.64581 0
M  V30 8044 H 754.374 5.48391 -2.43696 0
M  V30 8045 H 755.444 4.08192 -2.61738 0
M  V30 8046 N 756.787 0.722489 1.40064 0
M  V30 8047 C 758.064 0.191829 1.94657 0
M  V30 8048 C 758.444 -1.30389 1.66018 0
M  V30 8049 O 757.792 -2.06342 0.981588 0
M  V30 8050 C 758.002 0.511978 3.45224 0
M  V30 8051 C 759.35 0.454426 4.22161 0
M  V30 8052 O 760.374 0.448438 3.53366 0
M  V30 8053 O 759.233 0.437986 5.44742 0
M  V30 8054 H 756.327 0.0307821 0.826427 0
M  V30 8055 H 758.873 0.800493 1.49634 0
M  V30 8056 H 757.645 1.54622 3.59455 0
M  V30 8057 H 757.268 -0.126296 3.97399 0
M  V30 8058 N 758.265 -1.50454 0.469181 0
M  V30 8059 C 759.213 -2.30101 -0.340033 0
M  V30 8060 C 760.207 -1.37306 -0.992135 0
M  V30 8061 O 761.413 -1.54506 -0.923458 0
M  V30 8062 H 757.788 -0.740941 -0.128495 0
M  V30 8063 H 759.759 -2.96315 0.352144 0
M  V30 8064 C 758.508 -3.17804 -1.41052 0
M  V30 8065 H 757.831 -3.89115 -0.918124 0
M  V30 8066 H 759.271 -3.76533 -1.94934 0
M  V30 8067 C 757.73 -2.35272 -2.4114 0
M  V30 8068 O 758.26 -2.03448 -3.4637 0
M  V30 8069 N 756.466 -1.97889 -2.1281 0
M  V30 8070 H 756.013 -2.2397 -1.27261 0
M  V30 8071 H 755.971 -1.42971 -2.80012 0
M  V30 8072 N 759.743 -0.201713 -1.56304 0
M  V30 8073 C 761.159 0.154025 -1.58855 0
M  V30 8074 C 761.359 1.60516 -1.21807 0
M  V30 8075 O 760.415 2.34193 -0.94393 0
M  V30 8076 C 761.728 -0.154319 -3.00304 0
M  V30 8077 C 763.276 -0.0949578 -3.12856 0
M  V30 8078 C 763.751 -0.376703 -4.56448 0
M  V30 8079 N 765.242 -0.325558 -4.62054 0
M  V30 8080 C 765.977 -0.51732 -5.71062 0
M  V30 8081 N 765.473 -0.769789 -6.8851 0
M  V30 8082 N 767.266 -0.45112 -5.60287 0
M  V30 8083 H 759.417 -1.14858 -1.78666 0
M  V30 8084 H 761.68 -0.458934 -0.829508 0
M  V30 8085 H 761.386 -1.16074 -3.31994 0
M  V30 8086 H 761.26 0.540014 -3.73314 0
M  V30 8087 H 763.647 0.902075 -2.80974 0
M  V30 8088 H 763.728 -0.822468 -2.42217 0
M  V30 8089 H 763.372 -1.37108 -4.89044 0
M  V30 8090 H 763.302 0.371772 -5.25286 0
M  V30 8091 H 765.793 -0.137308 -3.7765 0
M  V30 8092 H 766.106 -0.904744 -7.67486 0
M  V30 8093 H 764.451 -0.806758 -6.90302 0
M  V30 8094 H 767.642 -0.254253 -4.67409 0
M  V30 8095 H 767.815 -0.603982 -6.45179 0
M  V30 8096 N 761.222 1.57436 0.0718424 0
M  V30 8097 C 762.452 1.91196 0.782795 0
M  V30 8098 C 762.86 0.795927 1.71644 0
M  V30 8099 O 762.203 -0.239604 1.82131 0
M  V30 8100 C 762.265 3.20421 1.63005 0
M  V30 8101 C 761.929 4.48724 0.865782 0
M  V30 8102 C 762.926 5.19571 0.185051 0
M  V30 8103 C 760.611 4.95345 0.832971 0
M  V30 8104 C 762.605 6.3529 -0.518264 0
M  V30 8105 C 760.292 6.1097 0.125884 0
M  V30 8106 C 761.29 6.80794 -0.548533 0
M  V30 8107 O 760.978 7.94213 -1.24423 0
M  V30 8108 H 760.71 0.636486 0.227731 0
M  V30 8109 H 763.264 2.05348 0.0464187 0
M  V30 8110 H 761.494 3.02478 2.40923 0
M  V30 8111 H 763.183 3.39831 2.21968 0
M  V30 8112 H 763.949 4.8458 0.201707 0
M  V30 8113 H 759.828 4.40871 1.34737 0
M  V30 8114 H 763.372 6.89725 -1.04523 0
M  V30 8115 H 759.269 6.45411 0.107155 0
M  V30 8116 H 760.037 8.10331 -1.1535 0
M  V30 8117 N 762.7 -0.34323 1.53817 0
M  V30 8118 C 763.632 -1.44216 1.78141 0
M  V30 8119 C 764.645 -1.48701 0.662721 0
M  V30 8120 O 765.834 -1.51778 0.939458 0
M  V30 8121 C 762.934 -2.82872 1.86646 0
M  V30 8122 C 762.107 -3.01824 3.16577 0
M  V30 8123 C 761.166 -4.20723 3.16036 0
M  V30 8124 O 760.192 -4.14824 3.89756 0
M  V30 8125 N 761.394 -5.29276 2.38427 0
M  V30 8126 H 764.159 -1.23721 2.72971 0
M  V30 8127 H 761.72 -0.53311 1.52871 0
M  V30 8128 H 763.712 -3.60588 1.83735 0
M  V30 8129 H 762.282 -2.96509 0.990014 0
M  V30 8130 H 761.502 -2.11575 3.3261 0
M  V30 8131 H 762.79 -3.11369 4.02402 0
M  V30 8132 H 762.188 -5.36938 1.78085 0
M  V30 8133 H 760.745 -6.05484 2.41313 0
M  V30 8134 N 764.178 -1.45556 -0.604258 0
M  V30 8135 C 765.589 -1.44171 -1.18624 0
M  V30 8136 C 765.94 -0.171081 -1.95453 0
M  V30 8137 O 765.065 0.727156 -2.03817 0
M  V30 8138 C 765.66 -2.61193 -2.15786 0
M  V30 8139 C 764.219 -2.62918 -2.69353 0
M  V30 8140 C 763.366 -2.36479 -1.4482 0
M  V30 8141 H 766.317 -1.53747 -0.393381 0
M  V30 8142 H 766.338 -2.35481 -2.98879 0
M  V30 8143 H 765.85 -3.53656 -1.59841 0
M  V30 8144 H 763.951 -1.7447 -3.29228 0
M  V30 8145 H 764.064 -3.6224 -3.13559 0
M  V30 8146 H 762.428 -1.86103 -1.73891 0
M  V30 8147 H 763.211 -3.31091 -0.907376 0
M  V30 8148 N 765.656 0.84705 -1.32902 0
M  V30 8149 C 766.589 1.96038 -1.1681 0
M  V30 8150 C 767.567 1.62468 -0.0656144 0
M  V30 8151 O 768.751 1.87136 -0.226339 0
M  V30 8152 C 765.878 3.29362 -0.789839 0
M  V30 8153 C 764.924 3.81908 -1.89865 0
M  V30 8154 S 765.757 4.04576 -3.50826 0
M  V30 8155 C 766.913 5.40863 -3.14989 0
M  V30 8156 H 767.146 2.09387 -2.11055 0
M  V30 8157 H 764.679 0.999896 -1.1765 0
M  V30 8158 H 766.637 4.06405 -0.578369 0
M  V30 8159 H 765.298 3.13815 0.133878 0
M  V30 8160 H 764.491 4.78357 -1.58716 0
M  V30 8161 H 764.093 3.11733 -2.06636 0
M  V30 8162 H 766.385 6.23393 -2.65306 0
M  V30 8163 H 767.328 5.7698 -4.10488 0
M  V30 8164 H 767.736 5.05228 -2.51804 0
M  V30 8165 N 767.134 1.16236 1.06428 0
M  V30 8166 C 768.044 0.881976 2.1739 0
M  V30 8167 C 769.06 -0.145259 1.73393 0
M  V30 8168 O 770.236 0.0310558 2.01376 0
M  V30 8169 C 767.301 0.385496 3.4455 0
M  V30 8170 C 766.362 1.47779 4.03063 0
M  V30 8171 C 765.595 1.0049 5.24154 0
M  V30 8172 O 765.818 -0.145889 5.70213 0
M  V30 8173 O 764.752 1.79265 5.74585 0
M  V30 8174 H 768.578 1.80983 2.43883 0
M  V30 8175 H 766.163 0.942226 1.15942 0
M  V30 8176 H 768.045 0.115536 4.21242 0
M  V30 8177 H 766.72 -0.514369 3.19587 0
M  V30 8178 H 765.627 1.80147 3.27869 0
M  V30 8179 H 766.96 2.35291 4.32318 0
M  V30 8180 N 768.612 -1.24939 0.960631 0
M  V30 8181 C 770.023 -1.74701 0.658529 0
M  V30 8182 C 770.374 -1.77967 -0.825959 0
M  V30 8183 O 769.499 -1.40444 -1.64634 0
M  V30 8184 C 770.094 -3.17263 1.18867 0
M  V30 8185 C 768.653 -3.64561 0.936614 0
M  V30 8186 C 767.8 -2.43423 1.32817 0
M  V30 8187 H 770.751 -1.10741 1.13676 0
M  V30 8188 H 770.772 -3.76481 0.551589 0
M  V30 8189 H 770.284 -3.14854 2.26912 0
M  V30 8190 H 768.385 -3.72378 -0.128608 0
M  V30 8191 H 768.498 -4.52392 1.57729 0
M  V30 8192 H 766.862 -2.43513 0.746548 0
M  V30 8193 H 767.645 -2.437 2.41796 0
M  V30 8194 N 770.09 -0.729906 -1.39679 0
M  V30 8195 C 771.038 -0.0756589 -2.32477 0
M  V30 8196 C 772.032 0.731438 -1.52795 0
M  V30 8197 O 773.238 0.633195 -1.68495 0
M  V30 8198 H 769.613 -0.00566492 -0.751979 0
M  V30 8199 H 771.584 -0.874797 -2.85289 0
M  V30 8200 C 770.333 0.821313 -3.37861 0
M  V30 8201 H 769.656 0.209666 -3.9925 0
M  V30 8202 H 771.096 1.24679 -4.05254 0
M  V30 8203 C 769.555 1.9533 -2.74495 0
M  V30 8204 O 770.085 3.04548 -2.61942 0
M  V30 8205 N 768.291 1.74119 -2.3266 0
M  V30 8206 H 767.838 0.852908 -2.4307 0
M  V30 8207 H 767.796 2.50036 -1.90603 0
M  V30 8208 N 771.568 1.50203 -0.477153 0
M  V30 8209 C 772.979 1.86685 -0.0235041 0
M  V30 8210 C 773.33 1.39148 1.38319 0
M  V30 8211 O 772.455 0.759051 2.02651 0
M  V30 8212 C 773.05 3.38781 -0.0358767 0
M  V30 8213 C 771.609 3.74652 0.362327 0
M  V30 8214 C 770.756 2.7412 -0.41875 0
M  V30 8215 H 773.707 1.4286 -0.691133 0
M  V30 8216 H 773.728 3.72732 0.764924 0
M  V30 8217 H 773.24 3.73349 -1.05981 0
M  V30 8218 H 771.341 3.45686 1.39039 0
M  V30 8219 H 771.454 4.79063 0.059457 0
M  V30 8220 H 769.818 2.54376 0.128341 0
M  V30 8221 H 770.601 3.11532 -1.44231 0
M  V30 8222 N 773.046 0.209999 1.56195 0
M  V30 8223 C 774.462 -0.145598 1.58934 0
M  V30 8224 C 774.662 -1.59868 1.22656 0
M  V30 8225 O 773.718 -2.33689 0.956336 0
M  V30 8226 C 775.031 0.170243 3.00218 0
M  V30 8227 C 776.579 0.111548 3.12801 0
M  V30 8228 C 777.054 0.400904 4.56242 0
M  V30 8229 N 778.545 0.350058 4.61875 0
M  V30 8230 C 779.28 0.547598 5.70779 0
M  V30 8231 N 778.776 0.806291 6.88092 0
M  V30 8232 N 780.569 0.480827 5.6004 0
M  V30 8233 H 772.72 1.15804 1.78054 0
M  V30 8234 H 774.983 0.463326 0.827063 0
M  V30 8235 H 774.689 1.17833 3.31373 0
M  V30 8236 H 774.563 -0.520208 3.73596 0
M  V30 8237 H 776.95 -0.887162 2.81449 0
M  V30 8238 H 777.031 0.835302 2.41777 0
M  V30 8239 H 776.675 1.397 4.8831 0
M  V30 8240 H 776.605 -0.34391 5.25476 0
M  V30 8241 H 779.096 0.157334 3.77572 0
M  V30 8242 H 779.409 0.945433 7.66995 0
M  V30 8243 H 777.754 0.843355 6.89864 0
M  V30 8244 H 780.945 0.279037 4.67268 0
M  V30 8245 H 781.118 0.638189 6.4485 0
M  V30 8246 N 774.524 -1.57472 -0.0634922 0
M  V30 8247 C 775.77 -1.87932 -0.762194 0
M  V30 8248 C 776.103 -0.803377 -1.76804 0
M  V30 8249 O 775.378 0.185468 -1.93614 0
M  V30 8250 C 775.661 -3.29053 -1.46275 0
M  V30 8251 C 775.514 -4.47309 -0.472755 0
M  V30 8252 C 776.833 -3.68537 -2.40558 0
M  V30 8253 H 773.952 -0.683521 -0.275624 0
M  V30 8254 H 776.594 -1.89983 -0.0252651 0
M  V30 8255 H 774.744 -3.27435 -2.0909 0
M  V30 8256 H 776.416 -4.61053 0.150828 0
M  V30 8257 H 774.659 -4.33286 0.211187 0
M  V30 8258 H 775.33 -5.42853 -1.00072 0
M  V30 8259 H 777.806 -3.71302 -1.87814 0
M  V30 8260 H 776.682 -4.68152 -2.86574 0
M  V30 8261 H 776.943 -2.98917 -3.25731 0
M  V30 8262 N 776.003 0.335068 -1.53997 0
M  V30 8263 C 777.414 0.910191 -1.6301 0
M  V30 8264 C 777.765 1.89271 -0.516809 0
M  V30 8265 O 776.89 2.13516 0.352123 0
M  V30 8266 C 777.485 1.65761 -2.9548 0
M  V30 8267 C 776.044 2.18163 -3.06728 0
M  V30 8268 C 775.191 1.00338 -2.5851 0
M  V30 8269 H 778.142 0.112965 -1.58297 0
M  V30 8270 H 778.163 2.52107 -2.84995 0
M  V30 8271 H 777.675 0.94227 -3.76488 0
M  V30 8272 H 775.776 2.92847 -2.30372 0
M  V30 8273 H 775.889 2.43952 -4.1234 0
M  V30 8274 H 774.253 1.37925 -2.14124 0
M  V30 8275 H 775.036 0.30254 -3.41964 0
M  V30 8276 N 777.481 1.45874 0.596531 0
M  V30 8277 C 778.411 1.5824 1.71705 0
M  V30 8278 C 779.392 0.433366 1.64487 0
M  V30 8279 O 780.577 0.657895 1.82717 0
M  V30 8280 C 777.707 1.55927 3.10329 0
M  V30 8281 C 776.661 2.69659 3.32367 0
M  V30 8282 C 775.987 2.52403 4.71377 0
M  V30 8283 C 777.287 4.11591 3.21544 0
M  V30 8284 H 778.981 2.52035 1.61613 0
M  V30 8285 H 776.527 1.21297 0.776082 0
M  V30 8286 H 778.48 1.63173 3.88526 0
M  V30 8287 H 777.204 0.586674 3.21288 0
M  V30 8288 H 775.863 2.61859 2.56564 0
M  V30 8289 H 775.511 1.53258 4.79083 0
M  V30 8290 H 775.211 3.28679 4.87077 0
M  V30 8291 H 776.735 2.6152 5.5176 0
M  V30 8292 H 778.149 4.20576 3.89601 0
M  V30 8293 H 776.546 4.88344 3.4877 0
M  V30 8294 H 777.616 4.32719 2.1882 0
M  V30 8295 N 778.959 -0.83999 1.33349 0
M  V30 8296 C 780.184 -1.63249 1.27924 0
M  V30 8297 C 780.609 -1.87523 -0.147193 0
M  V30 8298 O 779.967 -1.43853 -1.10345 0
M  V30 8299 C 780.015 -2.96046 2.05886 0
M  V30 8300 O 779.119 -3.87303 1.4167 0
M  V30 8301 H 778.46 -0.49715 0.440157 0
M  V30 8302 H 780.99 -1.04512 1.75893 0
M  V30 8303 H 781 -3.45752 2.16609 0
M  V30 8304 H 779.675 -2.77701 3.09605 0
M  V30 8305 H 778.252 -3.45789 1.39585 0
M  V30 8306 N 780.437 -1.16799 -1.0581 0
M  V30 8307 C 781.853 -0.913935 -1.30841 0
M  V30 8308 C 782.053 0.430439 -1.96849 0
M  V30 8309 O 781.109 1.16885 -2.23817 0
M  V30 8310 C 782.422 -2.06662 -2.18429 0
M  V30 8311 C 783.97 -2.10294 -2.31831 0
M  V30 8312 C 784.445 -3.2493 -3.22776 0
M  V30 8313 N 785.936 -3.24678 -3.30361 0
M  V30 8314 C 786.671 -4.10021 -4.00837 0
M  V30 8315 N 786.167 -5.05461 -4.73795 0
M  V30 8316 N 787.96 -3.97991 -3.96937 0
M  V30 8317 H 780.111 -2.03343 -0.613613 0
M  V30 8318 H 782.374 -0.88754 -0.333133 0
M  V30 8319 H 782.08 -3.03791 -1.77211 0
M  V30 8320 H 781.954 -2.01233 -3.19038 0
M  V30 8321 H 784.341 -1.13754 -2.72294 0
M  V30 8322 H 784.422 -2.19786 -1.30873 0
M  V30 8323 H 784.066 -4.21731 -2.83028 0
M  V30 8324 H 783.996 -3.12674 -4.23725 0
M  V30 8325 H 786.487 -2.55573 -2.78372 0
M  V30 8326 H 786.8 -5.66989 -5.25113 0
M  V30 8327 H 785.145 -5.09436 -4.72758 0
M  V30 8328 H 788.336 -3.2273 -3.39062 0
M  V30 8329 H 788.509 -4.64722 -4.51594 0
M  V30 8330 N 781.915 1.24427 -0.967243 0
M  V30 8331 C 783.161 1.92772 -0.629812 0
M  V30 8332 C 783.494 1.75436 0.832827 0
M  V30 8333 O 782.769 1.10716 1.59913 0
M  V30 8334 C 783.052 3.45798 -1.00477 0
M  V30 8335 C 782.905 3.72304 -2.52407 0
M  V30 8336 C 784.224 4.36787 -0.538999 0
M  V30 8337 H 781.343 0.700099 -0.230282 0
M  V30 8338 H 783.985 1.46805 -1.20616 0
M  V30 8339 H 782.135 3.8508 -0.514336 0
M  V30 8340 H 783.807 3.42584 -3.08924 0
M  V30 8341 H 782.05 3.17472 -2.95625 0
M  V30 8342 H 782.721 4.7937 -2.73693 0
M  V30 8343 H 785.197 4.04877 -0.959874 0
M  V30 8344 H 784.073 5.4259 -0.829926 0
M  V30 8345 H 784.334 4.38527 0.560923 0
M  V30 8346 N 783.393 0.737304 1.3929 0
M  V30 8347 C 784.64 0.286257 2.00467 0
M  V30 8348 C 784.968 -1.1272 1.58507 0
M  V30 8349 O 784.223 -1.7832 0.806257 0
M  V30 8350 C 784.522 0.338438 3.55794 0
M  V30 8351 C 784.188 1.70524 4.17411 0
M  V30 8352 C 782.85 2.07934 4.33955 0
M  V30 8353 C 785.202 2.60256 4.51571 0
M  V30 8354 C 782.53 3.34578 4.81948 0
M  V30 8355 C 784.882 3.86275 5.00974 0
M  V30 8356 C 783.546 4.23774 5.15725 0
M  V30 8357 H 782.816 0.104749 0.733559 0
M  V30 8358 H 785.463 0.944598 1.66582 0
M  V30 8359 H 783.768 -0.403478 3.89717 0
M  V30 8360 H 785.465 -0.0287255 4.0099 0
M  V30 8361 H 782.055 1.40439 4.04938 0
M  V30 8362 H 786.239 2.32624 4.38406 0
M  V30 8363 H 781.495 3.63572 4.91554 0
M  V30 8364 H 785.669 4.5596 5.26378 0
M  V30 8365 H 783.296 5.21972 5.52674 0
M  V30 8366 N 784.871 -1.49948 0.485112 0
M  V30 8367 C 786.118 -2.02396 -0.0650059 0
M  V30 8368 C 786.446 -1.36606 -1.38452 0
M  V30 8369 O 785.701 -0.485476 -1.89583 0
M  V30 8370 C 786 -3.56282 -0.282434 0
M  V30 8371 C 785.666 -4.40625 0.957106 0
M  V30 8372 C 784.328 -4.63393 1.29692 0
M  V30 8373 C 786.68 -4.89799 1.78176 0
M  V30 8374 C 784.008 -5.3258 2.4612 0
M  V30 8375 C 786.36 -5.60266 2.93743 0
M  V30 8376 C 785.024 -5.81284 3.28124 0
M  V30 8377 H 784.294 -0.740618 -0.0237873 0
M  V30 8378 H 786.941 -1.80416 0.642044 0
M  V30 8379 H 785.246 -3.76853 -1.07186 0
M  V30 8380 H 786.943 -3.94442 -0.722276 0
M  V30 8381 H 783.533 -4.23133 0.682384 0
M  V30 8382 H 787.717 -4.7205 1.53239 0
M  V30 8383 H 782.973 -5.47059 2.73014 0
M  V30 8384 H 787.147 -5.97347 3.5798 0
M  V30 8385 H 784.774 -6.34671 4.18446 0
M  V30 8386 N 786.349 -0.21828 -1.56081 0
M  V30 8387 C 787.312 0.679633 -2.18892 0
M  V30 8388 C 788.312 1.12405 -1.14986 0
M  V30 8389 O 789.502 1.03339 -1.40238 0
M  V30 8390 C 786.634 1.93063 -2.80962 0
M  V30 8391 H 787.827 0.132066 -2.99609 0
M  V30 8392 H 785.38 0.0313374 -1.56269 0
M  V30 8393 H 786.115 2.52015 -2.04106 0
M  V30 8394 H 785.9 1.62046 -3.57048 0
M  V30 8395 H 787.39 2.57043 -3.29118 0
M  V30 8396 N 787.827 1.57504 0.0551401 0
M  V30 8397 C 789.052 1.92682 0.767352 0
M  V30 8398 C 789.477 0.81614 1.69472 0
M  V30 8399 O 788.835 -0.229989 1.79835 0
M  V30 8400 C 788.883 3.26866 1.52286 0
M  V30 8401 O 787.987 3.17274 2.63459 0
M  V30 8402 H 787.328 0.630502 0.208238 0
M  V30 8403 H 789.858 2.04592 0.0184026 0
M  V30 8404 H 789.868 3.61138 1.8985 0
M  V30 8405 H 788.543 4.07276 0.842541 0
M  V30 8406 H 787.12 2.94589 2.2863 0
M  V30 8407 N 789.305 -0.326896 1.54172 0
M  V30 8408 C 790.551 -1.06304 1.7341 0
M  V30 8409 C 790.906 -1.85791 0.499935 0
M  V30 8410 O 790.199 -1.84753 -0.507625 0
M  V30 8411 C 790.393 -2.0208 2.94785 0
M  V30 8412 C 790.222 -1.32009 4.29888 0
M  V30 8413 C 788.992 -1.05798 4.941 0
M  V30 8414 C 791.19 -0.737721 5.08982 0
M  V30 8415 N 789.172 -0.324836 6.1304 0
M  V30 8416 C 790.543 -0.136006 6.19851 0
M  V30 8417 C 792.598 -0.640206 4.93767 0
M  V30 8418 C 791.301 0.553757 7.17165 0
M  V30 8419 C 793.327 0.0358492 5.91389 0
M  V30 8420 C 792.689 0.626522 7.01608 0
M  V30 8421 H 788.788 -0.372808 0.687414 0
M  V30 8422 H 791.372 -0.34462 1.91626 0
M  V30 8423 H 789.543 -2.71197 2.78041 0
M  V30 8424 H 791.275 -2.68655 3.02666 0
M  V30 8425 H 788.03 -1.34945 4.53968 0
M  V30 8426 H 788.454 0.0274982 6.76994 0
M  V30 8427 H 793.096 -1.0826 4.08705 0
M  V30 8428 H 790.814 1.00799 8.01789 0
M  V30 8429 H 794.4 0.110895 5.81694 0
M  V30 8430 H 793.28 1.14135 7.7585 0
M  V30 8431 N 790.784 -1.46188 -0.588786 0
M  V30 8432 C 792.2 -1.31009 -0.911524 0
M  V30 8433 C 792.4 -0.277017 -1.99587 0
M  V30 8434 O 791.456 0.322532 -2.50432 0
M  V30 8435 C 792.769 -2.69459 -1.33463 0
M  V30 8436 C 794.317 -2.77502 -1.44782 0
M  V30 8437 C 794.792 -4.1652 -1.90461 0
M  V30 8438 N 796.283 -4.18907 -1.97665 0
M  V30 8439 C 797.018 -5.23359 -2.34271 0
M  V30 8440 N 796.514 -6.38143 -2.69714 0
M  V30 8441 N 798.307 -5.10723 -2.34774 0
M  V30 8442 H 790.458 -2.12016 0.127614 0
M  V30 8443 H 792.721 -0.947984 -0.00557599 0
M  V30 8444 H 792.427 -3.46336 -0.611929 0
M  V30 8445 H 792.301 -2.99165 -2.2974 0
M  V30 8446 H 794.688 -2.00917 -2.1614 0
M  V30 8447 H 794.769 -2.51488 -0.467724 0
M  V30 8448 H 794.413 -4.93597 -1.19684 0
M  V30 8449 H 794.343 -4.39937 -2.89418 0
M  V30 8450 H 796.834 -3.36084 -1.72789 0
M  V30 8451 H 797.147 -7.13624 -2.96582 0
M  V30 8452 H 795.492 -6.41514 -2.67366 0
M  V30 8453 H 798.683 -4.20088 -2.06503 0
M  V30 8454 H 798.856 -5.9224 -2.62975 0
M  V30 8455 N 792.262 0.832906 -1.33792 0
M  V30 8456 C 793.508 1.59089 -1.25772 0
M  V30 8457 C 793.841 1.93414 0.174601 0
M  V30 8458 O 793.116 1.59195 1.11746 0
M  V30 8459 C 793.399 2.89699 -2.13885 0
M  V30 8460 C 793.252 2.62017 -3.65605 0
M  V30 8461 C 794.571 3.91182 -2.01654 0
M  V30 8462 H 791.69 0.577232 -0.458227 0
M  V30 8463 H 794.332 0.960227 -1.6395 0
M  V30 8464 H 792.482 3.4352 -1.81456 0
M  V30 8465 H 794.154 2.14582 -4.08353 0
M  V30 8466 H 792.397 1.95621 -3.87189 0
M  V30 8467 H 793.068 3.55112 -4.2261 0
M  V30 8468 H 795.544 3.46684 -2.30107 0
M  V30 8469 H 794.42 4.80391 -2.65548 0
M  V30 8470 H 794.681 4.30861 -0.990536 0
M  V30 8471 N 793.74 1.17359 1.05189 0
M  V30 8472 C 794.986 0.963413 1.78455 0
M  V30 8473 C 795.319 -0.506703 1.87473 0
M  V30 8474 O 794.594 -1.37611 1.37453 0
M  V30 8475 C 794.877 1.60519 3.22344 0
M  V30 8476 C 794.73 3.14741 3.21338 0
M  V30 8477 C 796.049 1.3091 4.20179 0
M  V30 8478 H 793.168 0.351412 0.647826 0
M  V30 8479 H 795.81 1.44858 1.22948 0
M  V30 8480 H 793.96 1.19265 3.69741 0
M  V30 8481 H 795.632 3.65053 2.82017 0
M  V30 8482 H 793.875 3.4749 2.59679 0
M  V30 8483 H 794.546 3.54775 4.22894 0
M  V30 8484 H 797.022 1.66635 3.81277 0
M  V30 8485 H 795.898 1.784 5.191 0
M  V30 8486 H 796.159 0.229908 4.41502 0
M  V30 8487 N 795.218 -1.23913 0.973828 0
M  V30 8488 C 796.148 -2.27453 0.527969 0
M  V30 8489 C 797.129 -1.6443 -0.435513 0
M  V30 8490 O 798.314 -1.9137 -0.330306 0
M  V30 8491 C 795.444 -3.4685 -0.176757 0
M  V30 8492 C 794.398 -4.22181 0.703352 0
M  V30 8493 C 793.724 -5.34534 -0.133215 0
M  V30 8494 C 795.024 -4.82865 1.99096 0
M  V30 8495 H 796.718 -2.65 1.3934 0
M  V30 8496 H 794.264 -1.27388 0.671446 0
M  V30 8497 H 796.217 -4.18424 -0.499934 0
M  V30 8498 H 794.941 -3.08346 -1.07659 0
M  V30 8499 H 793.6 -3.52416 1.00989 0
M  V30 8500 H 793.248 -4.92271 -1.03338 0
M  V30 8501 H 792.948 -5.85855 0.452494 0
M  V30 8502 H 794.472 -6.08933 -0.450924 0
M  V30 8503 H 795.886 -5.46481 1.73297 0
M  V30 8504 H 794.283 -5.44444 2.52389 0
M  V30 8505 H 795.353 -4.03977 2.68199 0
M  V30 8506 N 796.696 -0.74468 -1.38897 0
M  V30 8507 C 797.606 -0.112892 -2.34328 0
M  V30 8508 C 798.622 0.71087 -1.58816 0
M  V30 8509 O 799.798 0.637092 -1.91058 0
M  V30 8510 C 796.863 0.776417 -3.37894 0
M  V30 8511 C 795.924 -0.0606999 -4.29257 0
M  V30 8512 C 795.157 0.786258 -5.27877 0
M  V30 8513 O 795.38 2.02463 -5.33259 0
M  V30 8514 O 794.314 0.209781 -6.01534 0
M  V30 8515 H 798.14 -0.900801 -2.90033 0
M  V30 8516 H 795.725 -0.505462 -1.4059 0
M  V30 8517 H 797.607 1.28496 -4.01331 0
M  V30 8518 H 796.282 1.54297 -2.84559 0
M  V30 8519 H 795.189 -0.614984 -3.69011 0
M  V30 8520 H 796.522 -0.789702 -4.85824 0
M  V30 8521 N 798.174 1.49689 -0.493057 0
M  V30 8522 C 799.422 2.02027 0.0541642 0
M  V30 8523 C 799.743 1.37554 1.38217 0
M  V30 8524 O 799.013 0.528174 1.88646 0
M  V30 8525 H 797.593 0.746646 0.0230069 0
M  V30 8526 H 800.255 1.83795 -0.648489 0
M  V30 8527 H 799.351 3.11523 0.189652 0
M  V30 8528 N 799.652 0.226554 1.55963 0
M  V30 8529 C 800.9 -0.402991 1.98041 0
M  V30 8530 C 801.221 -1.59938 1.11557 0
M  V30 8531 O 800.491 -1.9494 0.193719 0
M  V30 8532 H 799.071 -0.15188 0.731397 0
M  V30 8533 H 801.733 0.320613 1.92245 0
M  V30 8534 H 800.829 -0.725937 3.0354 0
M  V30 8535 N 801.13 -1.57531 -0.0467866 0
M  V30 8536 C 802.379 -1.87632 -0.740069 0
M  V30 8537 C 802.692 -0.822691 -1.77457 0
M  V30 8538 O 803.898 -1.01235 -2.5192 0
M  V30 8539 C 802.354 -3.32917 -1.36727 0
M  V30 8540 C 801.962 -4.46469 -0.370035 0
M  V30 8541 C 803.706 -3.72189 -2.04146 0
M  V30 8542 C 801.613 -5.82806 -1.00457 0
M  V30 8543 H 800.543 -0.70002 -0.280158 0
M  V30 8544 H 803.194 -1.83499 0.00607151 0
M  V30 8545 H 801.576 -3.31739 -2.16252 0
M  V30 8546 H 802.75 -4.59085 0.397217 0
M  V30 8547 H 801.065 -4.15914 0.201079 0
M  V30 8548 H 803.662 -4.71357 -2.52441 0
M  V30 8549 H 804.005 -3.03268 -2.85192 0
M  V30 8550 H 804.538 -3.75465 -1.3142 0
M  V30 8551 H 801.277 -6.55083 -0.233907 0
M  V30 8552 H 800.797 -5.73944 -1.74209 0
M  V30 8553 H 802.476 -6.28961 -1.51713 0
M  V30 8554 N 802.608 0.318715 -1.54344 0
M  V30 8555 C 803.885 1.07461 -1.63437 0
M  V30 8556 C 804.265 2.05771 -0.47131 0
M  V30 8557 O 803.613 2.22175 0.53391 0
M  V30 8558 C 803.823 1.77224 -3.00654 0
M  V30 8559 C 805.171 2.30069 -3.56866 0
M  V30 8560 O 806.195 1.87284 -3.0299 0
M  V30 8561 O 805.054 3.08412 -4.51159 0
M  V30 8562 H 802.148 0.495627 -0.66203 0
M  V30 8563 H 804.694 0.318218 -1.6669 0
M  V30 8564 H 803.466 1.05742 -3.76742 0
M  V30 8565 H 803.089 2.59662 -3.01101 0
M  V30 8566 N 804.086 1.46499 0.581025 0
M  V30 8567 C 805.497 1.4604 1.16315 0
M  V30 8568 C 805.848 0.202154 1.95156 0
M  V30 8569 O 804.973 -0.694638 2.04948 0
M  V30 8570 C 805.568 2.64593 2.11604 0
M  V30 8571 C 804.127 2.6717 2.65136 0
M  V30 8572 C 803.274 2.38753 1.4104 0
M  V30 8573 H 806.225 1.54354 0.368871 0
M  V30 8574 H 806.246 2.40207 2.95095 0
M  V30 8575 H 805.758 3.56154 1.54194 0
M  V30 8576 H 803.859 1.79685 3.26411 0
M  V30 8577 H 803.972 3.67182 3.07757 0
M  V30 8578 H 802.336 1.88845 1.70908 0
M  V30 8579 H 803.119 3.32493 0.854588 0
M  V30 8580 N 805.565 -0.825799 1.34232 0
M  V30 8581 C 806.814 -1.57686 1.2577 0
M  V30 8582 C 807.127 -1.94848 -0.171372 0
M  V30 8583 O 808.333 -2.68854 -0.378123 0
M  V30 8584 C 806.789 -2.84478 2.20454 0
M  V30 8585 C 806.397 -2.54629 3.68603 0
M  V30 8586 C 808.141 -3.625 2.20893 0
M  V30 8587 C 806.048 -3.77597 4.55164 0
M  V30 8588 H 804.978 -0.591809 0.467203 0
M  V30 8589 H 807.629 -0.909421 1.59379 0
M  V30 8590 H 806.011 -3.52832 1.79793 0
M  V30 8591 H 807.185 -1.94404 4.17784 0
M  V30 8592 H 805.5 -1.89888 3.70582 0
M  V30 8593 H 808.097 -4.538 2.82789 0
M  V30 8594 H 808.44 -3.98404 1.20746 0
M  V30 8595 H 808.973 -3.01086 2.59985 0
M  V30 8596 H 805.712 -3.46815 5.56237 0
M  V30 8597 H 805.232 -4.37116 4.10719 0
M  V30 8598 H 806.911 -4.45039 4.69627 0
M  V30 8599 N 807.043 -1.17915 -1.04565 0
M  V30 8600 C 807.973 -0.925033 -2.14395 0
M  V30 8601 C 808.954 0.135375 -1.6956 0
M  V30 8602 O 810.139 -0.0161774 -1.94193 0
M  V30 8603 C 807.269 -0.444469 -3.44444 0
M  V30 8604 C 806.223 -1.44478 -4.02877 0
M  V30 8605 C 805.549 -0.821933 -5.28345 0
M  V30 8606 C 806.849 -2.81995 -4.39632 0
M  V30 8607 H 808.543 -1.84354 -2.35911 0
M  V30 8608 H 806.089 -0.887806 -1.13375 0
M  V30 8609 H 808.042 -0.254078 -4.20633 0
M  V30 8610 H 806.766 0.509592 -3.226 0
M  V30 8611 H 805.425 -1.62203 -3.28764 0
M  V30 8612 H 805.073 0.139161 -5.02807 0
M  V30 8613 H 804.773 -1.48976 -5.68401 0
M  V30 8614 H 806.297 -0.641959 -6.07216 0
M  V30 8615 H 807.711 -2.67952 -5.06828 0
M  V30 8616 H 806.108 -3.45414 -4.90723 0
M  V30 8617 H 807.178 -3.35927 -3.49687 0
M  V30 8618 N 808.521 1.23394 -0.980386 0
M  V30 8619 C 809.937 1.43961 -0.689008 0
M  V30 8620 C 810.137 1.87229 0.744809 0
M  V30 8621 O 809.193 2.01831 1.51725 0
M  V30 8622 C 810.506 2.49128 -1.68392 0
M  V30 8623 C 812.054 2.62941 -1.69796 0
M  V30 8624 C 812.529 3.71317 -2.68118 0
M  V30 8625 N 814.02 3.7876 -2.66636 0
M  V30 8626 C 814.755 4.62176 -3.39383 0
M  V30 8627 N 814.251 5.49682 -4.21688 0
M  V30 8628 N 816.044 4.56372 -3.28147 0
M  V30 8629 H 808.195 0.936106 -1.90659 0
M  V30 8630 H 810.458 0.473023 -0.821555 0
M  V30 8631 H 810.164 2.24252 -2.70931 0
M  V30 8632 H 810.038 3.47514 -1.46675 0
M  V30 8633 H 812.425 2.87168 -0.679617 0
M  V30 8634 H 812.506 1.64871 -1.95579 0
M  V30 8635 H 812.15 3.4784 -3.70095 0
M  V30 8636 H 812.08 4.68929 -2.3961 0
M  V30 8637 H 814.571 3.16226 -2.06904 0
M  V30 8638 H 814.884 6.10323 -4.74053 0
M  V30 8639 H 813.229 5.49306 -4.25779 0
M  V30 8640 H 816.42 3.87029 -2.63299 0
M  V30 8641 H 816.593 5.21153 -3.85102 0
M  V30 8642 N 809.999 0.752036 1.385 0
M  V30 8643 C 811.247 0.306895 1.99756 0
M  V30 8644 C 811.568 -1.11478 1.59992 0
M  V30 8645 O 810.838 -1.76206 0.856045 0
M  V30 8646 H 809.418 0.11048 0.738785 0
M  V30 8647 H 812.08 0.965785 1.69289 0
M  V30 8648 H 811.176 0.368797 3.09913 0
M  V30 8649 N 811.477 -1.49425 0.500989 0
M  V30 8650 C 812.407 -2.31971 -0.266775 0
M  V30 8651 C 813.388 -1.40245 -0.962563 0
M  V30 8652 O 814.573 -1.69154 -0.953968 0
M  V30 8653 C 811.703 -3.20757 -1.33163 0
M  V30 8654 C 810.657 -4.21275 -0.75572 0
M  V30 8655 C 809.983 -4.98997 -1.92109 0
M  V30 8656 C 811.283 -5.21686 0.253213 0
M  V30 8657 H 812.977 -2.96408 0.422237 0
M  V30 8658 H 810.523 -1.4254 0.204505 0
M  V30 8659 H 812.476 -3.77315 -1.87646 0
M  V30 8660 H 811.2 -2.54263 -2.04983 0
M  V30 8661 H 809.859 -3.65861 -0.232637 0
M  V30 8662 H 809.507 -4.28951 -2.62698 0
M  V30 8663 H 809.207 -5.67011 -1.54182 0
M  V30 8664 H 810.731 -5.584 -2.47026 0
M  V30 8665 H 812.145 -5.72939 -0.203483 0
M  V30 8666 H 810.542 -5.9759 0.548322 0
M  V30 8667 H 811.612 -4.70596 1.16909 0
M  V30 8668 N 812.955 -0.234822 -1.55841 0
M  V30 8669 C 813.888 0.710134 -2.16869 0
M  V30 8670 C 814.866 1.18155 -1.11706 0
M  V30 8671 O 816.05 1.26188 -1.40032 0
M  V30 8672 C 813.177 1.96368 -2.75966 0
M  V30 8673 C 812.223 1.63114 -3.94076 0
M  V30 8674 S 813.056 0.744307 -5.30302 0
M  V30 8675 C 814.212 2.00712 -5.92845 0
M  V30 8676 H 814.445 0.19146 -2.96683 0
M  V30 8677 H 811.978 -0.0193854 -1.54388 0
M  V30 8678 H 813.936 2.68338 -3.10653 0
M  V30 8679 H 812.597 2.45347 -1.96121 0
M  V30 8680 H 811.79 2.56285 -4.33975 0
M  V30 8681 H 811.392 0.991967 -3.60605 0
M  V30 8682 H 813.684 2.9557 -6.09627 0
M  V30 8683 H 814.627 1.65182 -6.88564 0
M  V30 8684 H 815.035 2.1537 -5.21801 0
M  V30 8685 N 814.433 1.57553 0.0384317 0
M  V30 8686 C 815.396 2.04927 1.02653 0
M  V30 8687 C 816.396 0.951768 1.29607 0
M  V30 8688 O 817.586 1.21568 1.24768 0
M  V30 8689 C 814.718 2.45828 2.36181 0
M  V30 8690 H 815.911 2.93474 0.617508 0
M  V30 8691 H 813.464 1.53679 0.285031 0
M  V30 8692 H 814.199 1.60408 2.8185 0
M  V30 8693 H 813.984 3.25945 2.1795 0
M  V30 8694 H 815.474 2.82939 3.0714 0
M  V30 8695 N 815.911 -0.310526 1.54511 0
M  V30 8696 C 817.139 -1.06611 1.77318 0
M  V30 8697 C 817.554 -1.81265 0.528043 0
M  V30 8698 O 816.911 -1.75466 -0.50178 0
M  V30 8699 C 816.962 -2.05409 2.97472 0
M  V30 8700 O 816.683 -1.33785 4.17173 0
M  V30 8701 C 818.184 -2.93082 3.32593 0
M  V30 8702 H 815.404 -0.316578 0.591624 0
M  V30 8703 H 817.948 -0.352691 2.01436 0
M  V30 8704 H 816.103 -2.72266 2.7559 0
M  V30 8705 H 816.517 -2.00055 4.84849 0
M  V30 8706 H 817.991 -3.58274 4.19933 0
M  V30 8707 H 818.468 -3.60877 2.50329 0
M  V30 8708 H 819.074 -2.31768 3.566 0
M  V30 8709 N 817.389 -1.46805 -0.573248 0
M  V30 8710 C 818.8 -1.46655 -1.15539 0
M  V30 8711 C 819.151 -0.2125 -1.95046 0
M  V30 8712 O 818.276 0.683759 -2.05314 0
M  V30 8713 C 818.871 -2.65711 -2.10198 0
M  V30 8714 C 817.43 -2.68572 -2.63716 0
M  V30 8715 C 816.577 -2.39498 -1.39772 0
M  V30 8716 H 819.528 -1.54547 -0.36068 0
M  V30 8717 H 819.549 -2.41768 -2.93817 0
M  V30 8718 H 819.061 -3.56967 -1.52303 0
M  V30 8719 H 817.162 -1.81414 -3.25453 0
M  V30 8720 H 817.275 -3.68809 -3.05805 0
M  V30 8721 H 815.639 -1.89749 -1.69904 0
M  V30 8722 H 816.422 -3.32942 -0.836943 0
M  V30 8723 N 818.867 0.818669 -1.34668 0
M  V30 8724 C 819.83 1.9114 -1.26483 0
M  V30 8725 C 820.83 1.598 -0.179044 0
M  V30 8726 O 822.02 1.6876 -0.431952 0
M  V30 8727 C 819.152 3.27285 -0.95381 0
M  V30 8728 H 820.345 1.9982 -2.23634 0
M  V30 8729 H 817.898 1.01314 -1.19018 0
M  V30 8730 H 818.633 3.24297 0.0143428 0
M  V30 8731 H 818.418 3.51416 -1.73924 0
M  V30 8732 H 819.908 4.07299 -0.921827 0
M  V30 8733 N 820.346 1.18468 1.03938 0
M  V30 8734 C 821.293 0.912859 2.1198 0
M  V30 8735 C 822.263 -0.14824 1.65437 0
M  V30 8736 O 823.448 -0.008331 1.90798 0
M  V30 8737 C 820.588 0.446114 3.42204 0
M  V30 8738 C 819.701 1.57278 4.02353 0
M  V30 8739 C 818.836 1.05863 5.20544 0
M  V30 8740 C 817.875 2.1599 5.72726 0
M  V30 8741 N 817.012 1.65959 6.82204 0
M  V30 8742 H 821.852 1.83798 2.34569 0
M  V30 8743 H 819.389 0.916504 1.15059 0
M  V30 8744 H 821.347 0.15697 4.16905 0
M  V30 8745 H 819.977 -0.442025 3.19759 0
M  V30 8746 H 819.029 1.97737 3.24968 0
M  V30 8747 H 820.341 2.40289 4.37107 0
M  V30 8748 H 819.495 0.724087 6.02364 0
M  V30 8749 H 818.234 0.198116 4.87297 0
M  V30 8750 H 817.239 2.50287 4.89527 0
M  V30 8751 H 818.464 3.02479 6.08016 0
M  V30 8752 H 816.41 0.82199 6.5083 0
M  V30 8753 H 816.327 2.42567 7.16029 0
M  V30 8754 H 817.595 1.35436 7.67644 0
M  V30 8755 N 821.824 -1.22873 0.986916 0
M  V30 8756 C 822.754 -2.2688 0.552064 0
M  V30 8757 C 823.735 -1.64883 -0.418048 0
M  V30 8758 O 824.92 -1.9171 -0.30999 0
M  V30 8759 C 822.05 -3.47018 -0.139959 0
M  V30 8760 C 821.004 -4.21411 0.748091 0
M  V30 8761 C 820.33 -5.34645 -0.0765132 0
M  V30 8762 C 821.63 -4.80726 2.04206 0
M  V30 8763 H 823.324 -2.63507 1.42143 0
M  V30 8764 H 820.87 -1.26668 0.68492 0
M  V30 8765 H 822.823 -4.18931 -0.455527 0
M  V30 8766 H 821.547 -3.0947 -1.04382 0
M  V30 8767 H 820.206 -3.51325 1.04721 0
M  V30 8768 H 819.854 -4.93339 -0.981109 0
M  V30 8769 H 819.554 -5.85342 0.514606 0
M  V30 8770 H 821.078 -6.09377 -0.386313 0
M  V30 8771 H 822.492 -5.44612 1.79083 0
M  V30 8772 H 820.889 -5.41737 2.5815 0
M  V30 8773 H 821.959 -4.01109 2.72469 0
M  V30 8774 N 823.302 -0.75937 -1.38099 0
M  V30 8775 C 824.25 -0.124954 -2.32264 0
M  V30 8776 C 825.244 0.698863 -1.54312 0
M  V30 8777 O 826.45 0.597312 -1.698 0
M  V30 8778 H 822.825 -0.0216142 -0.751689 0
M  V30 8779 H 824.796 -0.935115 -2.83369 0
M  V30 8780 C 823.545 0.749463 -3.39527 0
M  V30 8781 H 822.868 0.124932 -3.99605 0
M  V30 8782 H 824.308 1.16055 -4.07808 0
M  V30 8783 C 822.767 1.89464 -2.78577 0
M  V30 8784 O 823.297 2.98923 -2.68343 0
M  V30 8785 N 821.503 1.69145 -2.36301 0
M  V30 8786 H 821.05 0.801157 -2.44825 0
M  V30 8787 H 821.008 2.45936 -1.95864 0
M  V30 8788 N 824.78 1.49157 -0.508906 0
M  V30 8789 C 826.196 1.58741 -0.165372 0
M  V30 8790 C 826.396 1.5133 1.33047 0
M  V30 8791 O 825.452 1.39135 2.10707 0
M  V30 8792 C 826.765 2.91217 -0.749194 0
M  V30 8793 C 828.313 3.047 -0.716015 0
M  V30 8794 C 828.788 4.39807 -1.27804 0
M  V30 8795 N 830.279 4.46319 -1.23908 0
M  V30 8796 C 831.014 5.49325 -1.64406 0
M  V30 8797 N 830.51 6.59395 -2.12534 0
M  V30 8798 N 832.303 5.40084 -1.55773 0
M  V30 8799 H 824.454 1.52217 -1.48134 0
M  V30 8800 H 826.717 0.721514 -0.614915 0
M  V30 8801 H 826.423 3.02233 -1.79856 0
M  V30 8802 H 826.297 3.76592 -0.214144 0
M  V30 8803 H 828.684 2.9331 0.324535 0
M  V30 8804 H 828.765 2.2099 -1.2883 0
M  V30 8805 H 828.409 4.5195 -2.31741 0
M  V30 8806 H 828.339 5.2217 -0.681623 0
M  V30 8807 H 830.83 3.67354 -0.886537 0
M  V30 8808 H 831.143 7.34102 -2.41485 0
M  V30 8809 H 829.488 6.60414 -2.16513 0
M  V30 8810 H 832.679 4.52986 -1.17987 0
M  V30 8811 H 832.852 6.20233 -1.87657 0
M  V30 8812 N 826.258 0.243083 1.55714 0
M  V30 8813 C 827.19 -0.690766 2.18543 0
M  V30 8814 C 828.203 -1.14163 1.16064 0
M  V30 8815 O 829.392 -1.06906 1.42946 0
M  V30 8816 C 826.492 -1.95016 2.77168 0
M  V30 8817 C 825.665 -1.65137 4.05029 0
M  V30 8818 C 824.724 -2.75998 4.48009 0
M  V30 8819 O 823.75 -2.43547 5.14464 0
M  V30 8820 N 824.952 -4.05414 4.15476 0
M  V30 8821 H 827.717 -0.153203 2.99308 0
M  V30 8822 H 825.278 0.0628968 1.61778 0
M  V30 8823 H 827.27 -2.68414 3.0288 0
M  V30 8824 H 825.84 -2.39762 2.00582 0
M  V30 8825 H 825.06 -0.752768 3.86946 0
M  V30 8826 H 826.348 -1.42633 4.88399 0
M  V30 8827 H 825.746 -4.34613 3.62116 0
M  V30 8828 H 824.303 -4.75288 4.46032 0
M  V30 8829 N 827.736 -1.57571 -0.0300757 0
M  V30 8830 C 828.684 -2.0758 -1.04944 0
M  V30 8831 C 829.678 -0.989384 -1.37505 0
M  V30 8832 O 830.884 -1.17427 -1.36422 0
M  V30 8833 H 827.259 -0.662419 -0.355956 0
M  V30 8834 H 829.23 -2.92268 -0.601848 0
M  V30 8835 C 827.979 -2.5698 -2.34215 0
M  V30 8836 H 827.302 -3.40193 -2.10021 0
M  V30 8837 H 828.742 -2.95682 -3.03888 0
M  V30 8838 C 827.201 -1.47059 -3.03109 0
M  V30 8839 O 827.731 -0.83625 -3.92899 0
M  V30 8840 N 825.937 -1.20538 -2.64422 0
M  V30 8841 H 825.484 -1.72305 -1.9149 0
M  V30 8842 H 825.442 -0.472045 -3.10836 0
M  V30 8843 N 829.214 0.302327 -1.54673 0
M  V30 8844 C 830.146 1.39443 -1.81902 0
M  V30 8845 C 831.159 1.46891 -0.701914 0
M  V30 8846 O 832.348 1.49233 -0.979369 0
M  V30 8847 C 829.448 2.77824 -1.9408 0
M  V30 8848 C 828.621 2.93324 -3.24468 0
M  V30 8849 C 827.68 4.12196 -3.27079 0
M  V30 8850 O 826.706 4.04344 -4.00617 0
M  V30 8851 N 827.908 5.22768 -2.52376 0
M  V30 8852 H 830.673 1.1644 -2.76155 0
M  V30 8853 H 828.234 0.492392 -1.54231 0
M  V30 8854 H 830.226 3.5559 -1.9323 0
M  V30 8855 H 828.796 2.9378 -1.06828 0
M  V30 8856 H 828.016 2.02682 -3.38103 0
M  V30 8857 H 829.304 3.0059 -4.10516 0
M  V30 8858 H 828.702 5.32027 -1.92259 0
M  V30 8859 H 827.259 5.98874 -2.57281 0
M  V30 8860 N 830.692 1.47107 0.565454 0
M  V30 8861 C 831.941 1.5257 1.31929 0
M  V30 8862 C 832.254 0.189092 1.94684 0
M  V30 8863 O 833.46 0.121657 2.71227 0
M  V30 8864 C 831.916 2.68914 2.39193 0
M  V30 8865 C 831.524 4.09069 1.82665 0
M  V30 8866 C 833.268 2.83663 3.1581 0
M  V30 8867 C 831.175 5.16726 2.87661 0
M  V30 8868 H 830.105 0.567869 0.496025 0
M  V30 8869 H 832.756 1.73361 0.60151 0
M  V30 8870 H 831.138 2.41486 3.13848 0
M  V30 8871 H 832.312 4.46364 1.14438 0
M  V30 8872 H 830.627 3.99135 1.1866 0
M  V30 8873 H 833.224 3.61261 3.94201 0
M  V30 8874 H 833.567 1.91804 3.69482 0
M  V30 8875 H 834.1 3.10821 2.48265 0
M  V30 8876 H 830.839 6.10433 2.38854 0
M  V30 8877 H 830.359 4.83957 3.54324 0
M  V30 8878 H 832.038 5.43319 3.51303 0
M  V30 8879 N 832.17 -0.811516 1.35101 0
M  V30 8880 C 833.133 -1.90467 1.27495 0
M  V30 8881 C 834.133 -1.59703 0.187516 0
M  V30 8882 O 835.323 -1.68528 0.440896 0
M  V30 8883 C 832.455 -3.26774 0.971154 0
M  V30 8884 H 833.648 -1.98631 2.2469 0
M  V30 8885 H 831.201 -1.00681 1.19553 0
M  V30 8886 H 831.936 -3.243 0.0028557 0
M  V30 8887 H 831.721 -3.50488 1.75785 0
M  V30 8888 H 833.211 -4.06804 0.943414 0
M  V30 8889 N 833.648 -1.19017 -1.03309 0
M  V30 8890 C 834.894 -0.991681 -1.769 0
M  V30 8891 C 835.227 0.476813 -1.88255 0
M  V30 8892 O 834.502 1.35407 -1.39625 0
M  V30 8893 C 834.785 -1.65627 -3.19749 0
M  V30 8894 C 834.638 -3.19813 -3.1629 0
M  V30 8895 C 835.957 -1.37579 -4.18043 0
M  V30 8896 H 833.076 -0.361674 -0.642153 0
M  V30 8897 H 835.718 -1.46795 -1.20628 0
M  V30 8898 H 833.868 -1.25132 -3.67796 0
M  V30 8899 H 835.54 -3.69494 -2.76174 0
M  V30 8900 H 833.783 -3.51578 -2.54117 0
M  V30 8901 H 834.454 -3.61457 -4.17196 0
M  V30 8902 H 836.93 -1.72679 -3.78578 0
M  V30 8903 H 835.806 -1.86636 -5.16196 0
M  V30 8904 H 836.067 -0.300118 -4.4108 0
M  V30 8905 N 835.127 1.22348 -0.993418 0
M  V30 8906 C 836.404 1.86632 -0.585495 0
M  V30 8907 C 836.784 1.89156 0.937187 0
M  V30 8908 O 836.132 1.38247 1.81934 0
M  V30 8909 C 836.342 3.27481 -1.20652 0
M  V30 8910 C 837.69 4.03971 -1.30738 0
M  V30 8911 O 838.714 3.3675 -1.16096 0
M  V30 8912 O 837.573 5.24302 -1.54173 0
M  V30 8913 H 834.667 0.802704 -0.198984 0
M  V30 8914 H 837.213 1.30122 -1.08933 0
M  V30 8915 H 835.985 3.20281 -2.24802 0
M  V30 8916 H 835.608 3.91597 -0.688312 0
M  V30 8917 N 836.605 0.766683 1.37694 0
M  V30 8918 C 837.515 0.150158 2.34119 0
M  V30 8919 C 838.531 -0.685513 1.59927 0
M  V30 8920 O 839.707 -0.606616 1.92047 0
M  V30 8921 C 836.772 -0.722562 3.39087 0
M  V30 8922 C 835.833 0.128983 4.29106 0
M  V30 8923 C 835.066 -0.702178 5.29061 0
M  V30 8924 O 835.289 -1.93954 5.36412 0
M  V30 8925 O 834.223 -0.114056 6.01792 0
M  V30 8926 H 838.049 0.946829 2.88563 0
M  V30 8927 H 835.634 0.527765 1.39768 0
M  V30 8928 H 837.516 -1.22095 4.03325 0
M  V30 8929 H 836.191 -1.49751 2.86978 0
M  V30 8930 H 835.098 0.673612 3.67985 0
M  V30 8931 H 836.431 0.866892 4.84506 0
M  V30 8932 N 838.083 -1.48885 0.516809 0
M  V30 8933 C 839.332 -2.01686 -0.0239899 0
M  V30 8934 C 839.645 -1.40029 -1.3657 0
M  V30 8935 O 840.851 -1.84249 -1.9941 0
M  V30 8936 C 839.307 -3.59779 -0.0931825 0
M  V30 8937 C 838.915 -4.30416 1.24283 0
M  V30 8938 C 840.659 -4.20471 -0.583507 0
M  V30 8939 C 838.566 -5.80408 1.13494 0
M  V30 8940 H 837.496 -0.753892 -0.0127376 0
M  V30 8941 H 840.147 -1.71273 0.65861 0
M  V30 8942 H 838.529 -3.86976 -0.840577 0
M  V30 8943 H 839.703 -4.14905 2.00476 0
M  V30 8944 H 838.018 -3.81539 1.66785 0
M  V30 8945 H 840.615 -5.30333 -0.681987 0
M  V30 8946 H 840.958 -3.84898 -1.58617 0
M  V30 8947 H 841.491 -3.97654 0.107814 0
M  V30 8948 H 838.23 -6.20532 2.11235 0
M  V30 8949 H 837.75 -5.98368 0.414167 0
M  V30 8950 H 839.429 -6.41781 0.820162 0
M  V30 8951 N 839.561 -0.251338 -1.55583 0
M  V30 8952 C 840.977 0.103409 -1.59265 0
M  V30 8953 C 841.177 1.56559 -1.26852 0
M  V30 8954 O 840.233 2.31071 -1.01796 0
M  V30 8955 C 841.546 -0.249781 -2.99661 0
M  V30 8956 C 843.094 -0.194442 -3.12395 0
M  V30 8957 C 843.569 -0.521728 -4.55019 0
M  V30 8958 N 845.06 -0.472393 -4.60785 0
M  V30 8959 C 845.795 -0.698737 -5.69127 0
M  V30 8960 N 845.291 -0.988443 -6.85713 0
M  V30 8961 N 847.084 -0.629143 -5.58568 0
M  V30 8962 H 839.235 -1.20484 -1.74921 0
M  V30 8963 H 841.498 -0.485092 -0.814488 0
M  V30 8964 H 841.204 -1.26577 -3.28133 0
M  V30 8965 H 841.078 0.420973 -3.74844 0
M  V30 8966 H 843.465 0.812229 -2.83702 0
M  V30 8967 H 843.546 -0.899111 -2.39478 0
M  V30 8968 H 843.19 -1.52597 -4.84434 0
M  V30 8969 H 843.12 0.204468 -5.26203 0
M  V30 8970 H 845.611 -0.257386 -3.77022 0
M  V30 8971 H 845.924 -1.14846 -7.64219 0
M  V30 8972 H 844.269 -1.02596 -6.87386 0
M  V30 8973 H 847.46 -0.402826 -4.66364 0
M  V30 8974 H 847.633 -0.808935 -6.42931 0
M  V30 8975 N 841.039 1.57585 0.0217189 0
M  V30 8976 C 841.949 2.10444 1.03684 0
M  V30 8977 C 842.965 1.04472 1.39146 0
M  V30 8978 O 844.141 1.36249 1.48317 0
M  V30 8979 C 841.206 2.5794 2.31664 0
M  V30 8980 C 840.267 3.78425 2.02714 0
M  V30 8981 C 839.5 4.23646 3.24592 0
M  V30 8982 O 839.723 3.6834 4.35525 0
M  V30 8983 O 838.657 5.16013 3.09862 0
M  V30 8984 H 842.483 2.97354 0.617584 0
M  V30 8985 H 840.068 1.47473 0.239174 0
M  V30 8986 H 841.95 2.88785 3.06889 0
M  V30 8987 H 840.625 1.74138 2.7287 0
M  V30 8988 H 839.532 3.52587 1.25033 0
M  V30 8989 H 840.865 4.63234 1.66359 0
M  V30 8990 N 842.517 -0.29412 1.54831 0
M  V30 8991 C 843.933 -0.640167 1.46199 0
M  V30 8992 C 844.133 -1.90426 0.658798 0
M  V30 8993 O 843.189 -2.51932 0.169228 0
M  V30 8994 C 844.502 -0.786763 2.90225 0
M  V30 8995 C 846.05 -0.882201 3.0031 0
M  V30 8996 C 846.525 -1.06074 4.45547 0
M  V30 8997 N 848.016 -1.12678 4.49286 0
M  V30 8998 C 848.751 -1.28334 5.58854 0
M  V30 8999 N 848.247 -1.40845 6.78332 0
M  V30 9000 N 850.04 -1.31277 5.46555 0
M  V30 9001 H 842.191 0.536334 2.05517 0
M  V30 9002 H 844.454 0.178363 0.93107 0
M  V30 9003 H 844.16 0.0713018 3.51628 0
M  V30 9004 H 844.034 -1.67364 3.38037 0
M  V30 9005 H 846.421 -1.73075 2.39017 0
M  V30 9006 H 846.502 0.0288405 2.55784 0
M  V30 9007 H 846.146 -0.216935 5.07437 0
M  V30 9008 H 846.076 -1.98611 4.8771 0
M  V30 9009 H 848.567 -1.04335 3.63212 0
M  V30 9010 H 848.88 -1.52566 7.57591 0
M  V30 9011 H 847.225 -1.37888 6.81184 0
M  V30 9012 H 850.416 -1.2112 4.52159 0
M  V30 9013 H 850.589 -1.43136 6.31994 0
M  V30 9014 N 843.995 -1.47404 -0.557645 0
M  V30 9015 C 844.925 -1.62736 -1.67449 0
M  V30 9016 C 845.906 -0.476824 -1.6328 0
M  V30 9017 O 847.091 -0.706108 -1.80908 0
M  V30 9018 C 844.221 -1.641 -3.06086 0
M  V30 9019 C 843.175 -2.78377 -3.25101 0
M  V30 9020 C 842.501 -2.64812 -4.6452 0
M  V30 9021 C 843.801 -4.19971 -3.10518 0
M  V30 9022 H 845.495 -2.56232 -1.54873 0
M  V30 9023 H 843.041 -1.23312 -0.743649 0
M  V30 9024 H 844.994 -1.73417 -3.84063 0
M  V30 9025 H 843.718 -0.671652 -3.19619 0
M  V30 9026 H 842.377 -2.6857 -2.49531 0
M  V30 9027 H 842.025 -1.65906 -4.74852 0
M  V30 9028 H 841.725 -3.41477 -4.78191 0
M  V30 9029 H 843.249 -2.76057 -5.44633 0
M  V30 9030 H 844.663 -4.30757 -3.78313 0
M  V30 9031 H 843.06 -4.97419 -3.35699 0
M  V30 9032 H 844.13 -4.38369 -2.0727 0
M  V30 9033 N 845.473 0.80434 -1.35529 0
M  V30 9034 C 846.72 1.56154 -1.28927 0
M  V30 9035 C 847.048 1.94026 0.135682 0
M  V30 9036 O 846.303 1.61759 1.10148 0
M  V30 9037 C 846.602 2.85988 -2.14349 0
M  V30 9038 C 846.268 2.67323 -3.6311 0
M  V30 9039 C 844.93 2.61941 -4.03659 0
M  V30 9040 C 847.282 2.49699 -4.57493 0
M  V30 9041 C 844.61 2.3688 -5.36754 0
M  V30 9042 C 846.962 2.26168 -5.90788 0
M  V30 9043 C 845.626 2.19209 -6.30479 0
M  V30 9044 H 844.896 0.571407 -0.471779 0
M  V30 9045 H 847.543 0.929193 -1.67446 0
M  V30 9046 H 845.848 3.53612 -1.68718 0
M  V30 9047 H 847.545 3.43697 -2.06576 0
M  V30 9048 H 844.135 2.72361 -3.30934 0
M  V30 9049 H 848.319 2.52869 -4.27049 0
M  V30 9050 H 843.575 2.29964 -5.66504 0
M  V30 9051 H 847.749 2.11522 -6.63499 0
M  V30 9052 H 845.376 1.99553 -7.33541 0
M  V30 9053 N 846.951 1.19563 1.02676 0
M  V30 9054 C 847.861 0.950691 2.14474 0
M  V30 9055 C 848.877 -0.0900219 1.73767 0
M  V30 9056 O 850.053 0.0951063 2.01175 0
M  V30 9057 C 847.118 0.494917 3.43149 0
M  V30 9058 C 846.179 1.60527 3.98158 0
M  V30 9059 C 845.412 1.17115 5.20692 0
M  V30 9060 O 845.635 0.0355937 5.70389 0
M  V30 9061 O 844.569 1.97454 5.68591 0
M  V30 9062 H 848.395 1.88651 2.38001 0
M  V30 9063 H 845.98 0.978635 1.12885 0
M  V30 9064 H 847.862 0.249492 4.20661 0
M  V30 9065 H 846.537 -0.412434 3.21062 0
M  V30 9066 H 845.444 1.90487 3.21971 0
M  V30 9067 H 846.777 2.48925 4.24614 0
M  V30 9068 N 848.429 -1.21819 0.999893 0
M  V30 9069 C 849.361 -2.23356 0.514256 0
M  V30 9070 C 850.374 -1.5795 -0.394413 0
M  V30 9071 O 851.563 -1.77427 -0.195428 0
M  V30 9072 C 848.663 -3.37797 -0.273207 0
M  V30 9073 C 847.836 -4.32791 0.633293 0
M  V30 9074 C 846.895 -5.26098 -0.103673 0
M  V30 9075 O 845.921 -5.66881 0.513269 0
M  V30 9076 N 847.123 -5.63764 -1.38383 0
M  V30 9077 H 849.888 -2.65653 1.3874 0
M  V30 9078 H 847.449 -1.3619 0.875431 0
M  V30 9079 H 849.441 -3.97209 -0.775053 0
M  V30 9080 H 848.011 -2.94527 -1.0475 0
M  V30 9081 H 847.231 -3.71595 1.31571 0
M  V30 9082 H 848.519 -4.93196 1.25039 0
M  V30 9083 H 847.917 -5.32614 -1.90627 0
M  V30 9084 H 846.474 -6.25562 -1.83073 0
M  V30 9085 N 849.908 -0.773975 -1.37286 0
M  V30 9086 C 851.154 -0.339809 -1.99933 0
M  V30 9087 C 851.487 1.0815 -1.61299 0
M  V30 9088 O 850.762 1.74442 -0.860252 0
M  V30 9089 C 851.045 -0.485919 -3.56806 0
M  V30 9090 C 850.898 -1.9498 -4.05343 0
M  V30 9091 C 852.217 0.108461 -4.39966 0
M  V30 9092 H 849.336 -0.124944 -0.726332 0
M  V30 9093 H 851.978 -0.977433 -1.6293 0
M  V30 9094 H 850.128 0.0569023 -3.88458 0
M  V30 9095 H 851.8 -2.5525 -3.84246 0
M  V30 9096 H 850.043 -2.45784 -3.57453 0
M  V30 9097 H 850.714 -2.00308 -5.14374 0
M  V30 9098 H 853.19 -0.354722 -4.14585 0
M  V30 9099 H 852.066 -0.0238926 -5.48895 0
M  V30 9100 H 852.327 1.19901 -4.25531 0
M  V30 9101 N 851.386 1.48609 -0.524698 0
M  V30 9102 C 852.319 2.26374 0.288109 0
M  V30 9103 C 853.297 1.31997 0.949509 0
M  V30 9104 O 854.481 1.61329 0.974946 0
M  V30 9105 C 851.608 3.08065 1.4076 0
M  V30 9106 C 850.654 4.17777 0.858152 0
M  V30 9107 S 851.487 5.3482 -0.269827 0
M  V30 9108 C 852.643 6.2007 0.852266 0
M  V30 9109 H 852.876 2.94965 -0.371865 0
M  V30 9110 H 850.409 1.51248 -0.31039 0
M  V30 9111 H 852.367 3.5571 2.04892 0
M  V30 9112 H 851.028 2.38898 2.03928 0
M  V30 9113 H 850.221 4.74542 1.69783 0
M  V30 9114 H 849.823 3.72846 0.293627 0
M  V30 9115 H 852.115 6.54451 1.75213 0
M  V30 9116 H 853.058 7.07364 0.322717 0
M  V30 9117 H 853.466 5.53068 1.13029 0
M  V30 9118 N 852.864 0.259585 1.55447 0
M  V30 9119 C 854.28 -0.094961 1.59317 0
M  V30 9120 C 854.48 -1.55884 1.2768 0
M  V30 9121 O 853.536 -2.30528 1.0302 0
M  V30 9122 C 854.849 0.265669 2.99524 0
M  V30 9123 C 856.397 0.211007 3.12288 0
M  V30 9124 C 856.872 0.545851 4.54736 0
M  V30 9125 N 858.363 0.496823 4.60528 0
M  V30 9126 C 859.098 0.728909 5.68748 0
M  V30 9127 N 858.594 1.02479 6.85179 0
M  V30 9128 N 860.387 0.658756 5.58226 0
M  V30 9129 H 852.538 1.2141 1.7428 0
M  V30 9130 H 854.801 0.489404 0.811904 0
M  V30 9131 H 854.507 1.28316 3.27457 0
M  V30 9132 H 854.381 -0.401089 3.75061 0
M  V30 9133 H 856.768 -0.797172 2.84129 0
M  V30 9134 H 856.849 0.911799 2.38998 0
M  V30 9135 H 856.493 1.55164 4.83618 0
M  V30 9136 H 856.423 -0.17656 5.26304 0
M  V30 9137 H 858.914 0.277376 3.76881 0
M  V30 9138 H 859.227 1.18897 7.63599 0
M  V30 9139 H 857.572 1.0624 6.86832 0
M  V30 9140 H 860.763 0.427553 4.66143 0
M  V30 9141 H 860.936 0.84302 6.42493 0
M  V30 9142 N 854.342 -1.57594 -0.0133615 0
M  V30 9143 C 855.591 -1.8916 -0.700103 0
M  V30 9144 C 855.904 -0.860147 -1.75673 0
M  V30 9145 O 857.11 -1.06556 -2.49716 0
M  V30 9146 C 855.566 -3.35742 -1.29635 0
M  V30 9147 C 855.174 -4.47154 -0.275249 0
M  V30 9148 C 856.918 -3.76436 -1.96205 0
M  V30 9149 C 854.825 -5.84805 -0.880726 0
M  V30 9150 H 853.755 -0.705805 -0.265247 0
M  V30 9151 H 856.406 -1.83445 0.044993 0
M  V30 9152 H 854.788 -3.36252 -2.09167 0
M  V30 9153 H 855.962 -4.58139 0.494506 0
M  V30 9154 H 854.277 -4.15394 0.289256 0
M  V30 9155 H 856.874 -4.76606 -2.42386 0
M  V30 9156 H 857.217 -3.09249 -2.78695 0
M  V30 9157 H 857.75 -3.78168 -1.23426 0
M  V30 9158 H 854.489 -6.55431 -0.0949013 0
M  V30 9159 H 854.009 -5.7751 -1.61995 0
M  V30 9160 H 855.688 -6.32038 -1.38338 0
M  V30 9161 N 855.82 0.285905 -1.54985 0
M  V30 9162 C 857.068 1.01718 -1.74636 0
M  V30 9163 C 857.389 1.87277 -0.543342 0
M  V30 9164 O 856.659 1.90847 0.442078 0
M  V30 9165 H 855.239 0.378549 -0.643979 0
M  V30 9166 H 857.901 0.313247 -1.92366 0
M  V30 9167 H 856.997 1.66159 -2.64192 0
M  V30 9168 N 857.298 1.47698 0.54982 0
M  V30 9169 C 858.228 1.63622 1.66583 0
M  V30 9170 C 859.209 0.485477 1.63025 0
M  V30 9171 O 860.394 0.715692 1.80531 0
M  V30 9172 C 857.524 1.65721 3.05211 0
M  V30 9173 C 856.478 2.80097 3.2362 0
M  V30 9174 C 855.804 2.67272 4.63109 0
M  V30 9175 C 857.104 4.21612 3.08286 0
M  V30 9176 H 858.798 2.57049 1.53512 0
M  V30 9177 H 856.344 1.23705 0.737099 0
M  V30 9178 H 858.297 1.75451 3.83138 0
M  V30 9179 H 857.021 0.688593 3.19258 0
M  V30 9180 H 855.68 2.69889 2.48104 0
M  V30 9181 H 855.328 1.68422 4.73965 0
M  V30 9182 H 855.028 3.44008 4.76374 0
M  V30 9183 H 856.552 2.78942 5.43161 0
M  V30 9184 H 857.966 4.32758 3.76024 0
M  V30 9185 H 856.363 4.99193 3.33057 0
M  V30 9186 H 857.433 4.39462 2.04942 0
M  V30 9187 N 858.776 -0.797141 1.35954 0
M  V30 9188 C 860.053 -1.54224 1.2031 0
M  V30 9189 C 860.433 -2.10013 -0.213926 0
M  V30 9190 O 859.781 -1.93292 -1.21862 0
M  V30 9191 C 859.991 -2.6433 2.27883 0
M  V30 9192 C 861.339 -3.32418 2.64165 0
M  V30 9193 O 862.363 -2.74607 2.26868 0
M  V30 9194 O 861.222 -4.36876 3.28331 0
M  V30 9195 H 858.316 -0.681857 0.467974 0
M  V30 9196 H 860.862 -0.836288 1.47663 0
M  V30 9197 H 859.634 -2.21044 3.22885 0
M  V30 9198 H 859.257 -3.42551 2.01853 0
M  V30 9199 N 860.254 -1.20106 -1.0204 0
M  V30 9200 C 861.184 -0.970301 -2.12385 0
M  V30 9201 C 862.165 0.099378 -1.69809 0
M  V30 9202 O 863.35 -0.057365 -1.94115 0
M  V30 9203 C 860.48 -0.517431 -3.43424 0
M  V30 9204 C 859.434 -1.52992 -3.99722 0
M  V30 9205 C 858.76 -0.933817 -5.26483 0
M  V30 9206 C 860.06 -2.91257 -4.33551 0
M  V30 9207 H 861.754 -1.89316 -2.31948 0
M  V30 9208 H 859.3 -0.911655 -1.11467 0
M  V30 9209 H 861.253 -0.343243 -4.2 0
M  V30 9210 H 859.977 0.441049 -3.23608 0
M  V30 9211 H 858.636 -1.6914 -3.2525 0
M  V30 9212 H 858.284 0.0324763 -5.0299 0
M  V30 9213 H 857.984 -1.60999 -5.65113 0
M  V30 9214 H 859.508 -0.770614 -6.05718 0
M  V30 9215 H 860.922 -2.78642 -5.0103 0
M  V30 9216 H 859.319 -3.55745 -4.83286 0
M  V30 9217 H 860.389 -3.43269 -3.42483 0
M  V30 9218 N 861.732 1.21287 -1.00634 0
M  V30 9219 C 863.143 1.72136 -0.722914 0
M  V30 9220 C 863.494 1.8091 0.759338 0
M  V30 9221 O 862.619 1.46458 1.59308 0
M  V30 9222 C 863.214 3.12633 -1.30561 0
M  V30 9223 C 861.773 3.60833 -1.07127 0
M  V30 9224 C 860.92 2.38326 -1.4176 0
M  V30 9225 H 863.871 1.06445 -1.17708 0
M  V30 9226 H 863.892 3.74174 -0.690937 0
M  V30 9227 H 863.404 3.06215 -2.38441 0
M  V30 9228 H 861.505 3.72599 -0.00968671 0
M  V30 9229 H 861.618 4.46226 -1.74411 0
M  V30 9230 H 859.982 2.40575 -0.836412 0
M  V30 9231 H 860.765 2.34558 -2.50674 0
M  V30 9232 N 863.21 0.781244 1.36873 0
M  V30 9233 C 864.173 0.180094 2.28491 0
M  V30 9234 C 865.173 -0.617798 1.48458 0
M  V30 9235 O 866.363 -0.439991 1.68552 0
M  V30 9236 C 863.495 -0.751741 3.32508 0
M  V30 9237 H 864.688 0.987837 2.83164 0
M  V30 9238 H 862.241 0.550102 1.463 0
M  V30 9239 H 862.976 -1.58413 2.82977 0
M  V30 9240 H 862.761 -0.181649 3.91679 0
M  V30 9241 H 864.251 -1.16748 4.00949 0
M  V30 9242 N 864.689 -1.48329 0.532571 0
M  V30 9243 C 865.619 -2.32485 -0.217511 0
M  V30 9244 C 866.6 -1.42255 -0.932598 0
M  V30 9245 O 867.785 -1.7114 -0.917873 0
M  V30 9246 C 864.915 -3.23509 -1.26329 0
M  V30 9247 C 863.869 -4.22784 -0.666191 0
M  V30 9248 C 863.195 -5.0296 -1.81482 0
M  V30 9249 C 864.495 -5.21031 0.363813 0
M  V30 9250 H 866.189 -2.95445 0.485014 0
M  V30 9251 H 863.735 -1.42075 0.234694 0
M  V30 9252 H 865.688 -3.81211 -1.79601 0
M  V30 9253 H 864.412 -2.58554 -1.99543 0
M  V30 9254 H 863.071 -3.66272 -0.15498 0
M  V30 9255 H 862.719 -4.34427 -2.5354 0
M  V30 9256 H 862.419 -5.70154 -1.4212 0
M  V30 9257 H 863.943 -5.63514 -2.35126 0
M  V30 9258 H 865.357 -5.73241 -0.0819079 0
M  V30 9259 H 863.754 -5.96292 0.674956 0
M  V30 9260 H 864.824 -4.6801 1.26865 0
M  V30 9261 N 866.167 -0.267825 -1.55308 0
M  V30 9262 C 867.115 0.638848 -2.23655 0
M  V30 9263 C 868.109 1.16363 -1.2311 0
M  V30 9264 O 869.315 1.1181 -1.41062 0
M  V30 9265 H 865.69 0.224551 -0.717691 0
M  V30 9266 H 867.661 0.0394809 -2.98374 0
M  V30 9267 C 866.41 1.8151 -2.96562 0
M  V30 9268 H 865.733 1.42048 -3.73715 0
M  V30 9269 H 867.173 2.42629 -3.47717 0
M  V30 9270 C 865.632 2.69911 -2.01618 0
M  V30 9271 O 866.162 3.70058 -1.56268 0
M  V30 9272 N 864.368 2.36924 -1.68272 0
M  V30 9273 H 863.915 1.55533 -2.05347 0
M  V30 9274 H 863.873 2.96343 -1.05016 0
M  V30 9275 N 867.645 1.57599 0.00500368 0
M  V30 9276 C 868.578 2.03541 1.03181 0
M  V30 9277 C 869.556 0.924301 1.33774 0
M  V30 9278 O 870.74 1.19204 1.46023 0
M  V30 9279 C 867.867 2.42879 2.36067 0
M  V30 9280 C 866.913 3.64673 2.21169 0
M  V30 9281 S 867.746 5.12805 1.54243 0
M  V30 9282 C 868.902 5.55408 2.88569 0
M  V30 9283 H 869.135 2.90316 0.640598 0
M  V30 9284 H 866.668 1.52886 0.215722 0
M  V30 9285 H 868.626 2.66212 3.12476 0
M  V30 9286 H 867.287 1.56512 2.72329 0
M  V30 9287 H 866.48 3.89932 3.19326 0
M  V30 9288 H 866.082 3.41316 1.52904 0
M  V30 9289 H 868.374 5.57563 3.84876 0
M  V30 9290 H 869.317 6.55418 2.68016 0
M  V30 9291 H 869.725 4.82961 2.92249 0
M  V30 9292 N 869.123 -0.277682 1.55134 0
M  V30 9293 C 870.055 -1.36531 1.84098 0
M  V30 9294 C 871.068 -1.45756 0.725194 0
M  V30 9295 O 872.257 -1.47656 1.00299 0
M  V30 9296 C 869.357 -2.74701 1.98476 0
M  V30 9297 C 868.53 -2.88125 3.29094 0
M  V30 9298 C 867.589 -4.0694 3.33596 0
M  V30 9299 O 866.615 -3.9792 4.06999 0
M  V30 9300 N 867.817 -5.18687 2.60661 0
M  V30 9301 H 870.582 -1.12032 2.77973 0
M  V30 9302 H 868.143 -0.467793 1.54995 0
M  V30 9303 H 870.135 -3.52471 1.98863 0
M  V30 9304 H 868.705 -2.92043 1.11488 0
M  V30 9305 H 867.925 -1.97277 3.41285 0
M  V30 9306 H 869.213 -2.94021 4.15246 0
M  V30 9307 H 868.611 -5.28901 2.00699 0
M  V30 9308 H 867.168 -5.94705 2.66776 0
M  V30 9309 N 870.601 -1.47988 -0.541979 0
M  V30 9310 C 872.017 -1.33843 -0.869383 0
M  V30 9311 C 872.217 -0.340374 -1.98604 0
M  V30 9312 O 871.273 0.242696 -2.51331 0
M  V30 9313 C 872.586 -2.73568 -1.24823 0
M  V30 9314 C 874.134 -2.81967 -1.3588 0
M  V30 9315 C 874.609 -4.22368 -1.77114 0
M  V30 9316 N 876.1 -4.24983 -1.84237 0
M  V30 9317 C 876.835 -5.30547 -2.17503 0
M  V30 9318 N 876.331 -6.46401 -2.49275 0
M  V30 9319 N 878.124 -5.17933 -2.18406 0
M  V30 9320 H 870.275 -2.11503 0.195001 0
M  V30 9321 H 872.538 -0.947681 0.0245862 0
M  V30 9322 H 872.244 -3.48107 -0.501435 0
M  V30 9323 H 872.118 -3.06322 -2.20106 0
M  V30 9324 H 874.505 -2.07692 -2.09638 0
M  V30 9325 H 874.586 -2.52848 -0.387478 0
M  V30 9326 H 874.23 -4.97155 -1.0392 0
M  V30 9327 H 874.16 -4.48922 -2.75275 0
M  V30 9328 H 876.651 -3.41411 -1.62009 0
M  V30 9329 H 876.964 -7.22698 -2.73729 0
M  V30 9330 H 875.309 -6.49696 -2.46821 0
M  V30 9331 H 878.5 -4.26445 -1.93034 0
M  V30 9332 H 878.673 -6.00307 -2.44 0
M  V30 9333 N 872.079 0.78992 -1.36375 0
M  V30 9334 C 873.304 1.58389 -1.33895 0
M  V30 9335 C 873.729 1.8794 0.0774934 0
M  V30 9336 O 873.087 1.4785 1.0493 0
M  V30 9337 C 873.135 2.88201 -2.16732 0
M  V30 9338 O 872.239 3.81778 -1.55946 0
M  V30 9339 H 871.58 0.480471 -0.458305 0
M  V30 9340 H 874.11 0.979119 -1.79651 0
M  V30 9341 H 874.12 3.37475 -2.29292 0
M  V30 9342 H 872.795 2.66019 -3.19698 0
M  V30 9343 H 871.372 3.40371 -1.52323 0
M  V30 9344 N 873.557 1.20646 1.01402 0
M  V30 9345 C 874.973 0.961866 1.27359 0
M  V30 9346 C 875.173 -0.357083 1.98311 0
M  V30 9347 O 874.229 -1.08498 2.28001 0
M  V30 9348 C 875.542 2.14627 2.10609 0
M  V30 9349 C 877.09 2.18753 2.23866 0
M  V30 9350 C 877.565 3.36686 3.10494 0
M  V30 9351 N 879.056 3.36716 3.18083 0
M  V30 9352 C 879.791 4.24615 3.85343 0
M  V30 9353 N 879.287 5.22697 4.54708 0
M  V30 9354 N 881.08 4.12449 3.81893 0
M  V30 9355 H 873.231 2.05481 0.537721 0
M  V30 9356 H 875.494 0.899292 0.299963 0
M  V30 9357 H 875.2 3.10159 1.65814 0
M  V30 9358 H 875.074 2.12935 3.11349 0
M  V30 9359 H 877.461 1.23782 2.67885 0
M  V30 9360 H 877.542 2.24492 1.22626 0
M  V30 9361 H 877.186 4.31945 2.67181 0
M  V30 9362 H 877.116 3.28185 4.11828 0
M  V30 9363 H 879.607 2.65728 2.68695 0
M  V30 9364 H 879.92 5.86087 5.03708 0
M  V30 9365 H 878.265 5.26631 4.53525 0
M  V30 9366 H 881.456 3.35091 3.26851 0
M  V30 9367 H 881.629 4.81162 4.34035 0
M  V30 9368 N 875.035 -1.20752 1.01276 0
M  V30 9369 C 876.312 -1.85676 0.615112 0
M  V30 9370 C 876.692 -1.90623 -0.906976 0
M  V30 9371 O 876.04 -1.41124 -1.79712 0
M  V30 9372 C 876.25 -3.2552 1.25847 0
M  V30 9373 C 877.598 -4.0184 1.37148 0
M  V30 9374 O 878.622 -3.3486 1.21438 0
M  V30 9375 O 877.481 -5.21783 1.62495 0
M  V30 9376 H 874.575 -0.799437 0.211729 0
M  V30 9377 H 877.121 -1.28372 1.10989 0
M  V30 9378 H 875.893 -3.16664 2.29869 0
M  V30 9379 H 875.516 -3.90452 0.750524 0
M  V30 9380 N 876.513 -0.788492 -1.36457 0
M  V30 9381 C 877.463 -0.159377 -2.27442 0
M  V30 9382 C 878.447 0.656146 -1.46913 0
M  V30 9383 O 879.639 0.516372 -1.693 0
M  V30 9384 C 876.768 0.705703 -3.35968 0
M  V30 9385 C 875.854 -0.11856 -4.23934 0
M  V30 9386 N 876.245 -1.1726 -4.9202 0
M  V30 9387 C 874.543 0.102752 -4.45882 0
M  V30 9388 C 875.244 -1.6743 -5.57083 0
M  V30 9389 N 874.22 -0.983682 -5.34626 0
M  V30 9390 H 878.022 -0.96614 -2.77566 0
M  V30 9391 H 875.536 -0.627864 -1.49772 0
M  V30 9392 H 877.533 1.17231 -4.00078 0
M  V30 9393 H 876.193 1.51102 -2.87399 0
M  V30 9394 H 877.204 -1.55502 -4.94004 0
M  V30 9395 H 873.881 0.878651 -4.08149 0
M  V30 9396 H 875.271 -2.55423 -6.21457 0
M  V30 9397 N 877.991 1.48044 -0.54043 0
M  V30 9398 C 879.239 2.02097 -0.0101367 0
M  V30 9399 C 879.56 1.41881 1.33771 0
M  V30 9400 O 878.83 0.587923 1.8687 0
M  V30 9401 H 877.41 0.747 -0.000758716 0
M  V30 9402 H 880.072 1.81639 -0.706634 0
M  V30 9403 H 879.168 3.11969 0.0904474 0
M  V30 9404 N 879.47 0.276058 1.55163 0
M  V30 9405 C 880.4 -0.604633 2.25536 0
M  V30 9406 C 881.381 -1.15813 1.24585 0
M  V30 9407 O 882.566 -1.1921 1.53306 0
M  V30 9408 C 879.696 -1.78836 2.97716 0
M  V30 9409 C 878.65 -1.36635 4.05604 0
M  V30 9410 C 877.976 -2.63325 4.65364 0
M  V30 9411 C 879.276 -0.515858 5.19746 0
M  V30 9412 H 880.97 -0.0177483 2.99395 0
M  V30 9413 H 878.516 -0.00709627 1.43998 0
M  V30 9414 H 880.469 -2.41036 3.45658 0
M  V30 9415 H 879.193 -2.40109 2.21394 0
M  V30 9416 H 877.852 -0.767541 3.58475 0
M  V30 9417 H 877.5 -3.22858 3.85709 0
M  V30 9418 H 877.2 -2.358 5.38212 0
M  V30 9419 H 878.724 -3.26372 5.16056 0
M  V30 9420 H 880.138 -1.04289 5.63735 0
M  V30 9421 H 878.535 -0.335449 5.99162 0
M  V30 9422 H 879.605 0.465137 4.82664 0
M  V30 9423 N 880.948 -1.576 0.00335426 0
M  V30 9424 C 882.359 -1.7875 -0.539008 0
M  V30 9425 C 882.71 -0.911097 -1.73763 0
M  V30 9426 O 881.835 -0.114476 -2.16097 0
M  V30 9427 C 882.43 -3.24177 -0.984611 0
M  V30 9428 C 880.989 -3.46412 -1.47226 0
M  V30 9429 C 880.136 -2.74024 -0.425004 0
M  V30 9430 H 883.087 -1.57032 0.229511 0
M  V30 9431 H 883.108 -3.32474 -1.85044 0
M  V30 9432 H 882.62 -3.87938 -0.112035 0
M  V30 9433 H 880.721 -2.8787 -2.36562 0
M  V30 9434 H 880.834 -4.55098 -1.49741 0
M  V30 9435 H 879.198 -2.38741 -0.887394 0
M  V30 9436 H 879.981 -3.40486 0.438662 0
M  V30 9437 N 882.426 0.269451 -1.5528 0
M  V30 9438 C 883.674 0.998604 -1.75705 0
M  V30 9439 C 883.995 1.86691 -0.563175 0
M  V30 9440 O 883.265 1.91305 0.421811 0
M  V30 9441 H 881.845 0.371698 -0.647958 0
M  V30 9442 H 884.507 0.292826 -1.92688 0
M  V30 9443 H 883.603 1.63348 -2.6594 0
M  V30 9444 N 883.904 1.48273 0.534124 0
M  V30 9445 C 885.134 1.59503 1.31311 0
M  V30 9446 C 885.542 0.25284 1.87503 0
M  V30 9447 O 884.885 -0.767399 1.66903 0
M  V30 9448 C 884.947 2.57899 2.50456 0
M  V30 9449 C 884.611 4.03063 2.15382 0
M  V30 9450 C 885.608 4.90869 1.713 0
M  V30 9451 C 883.293 4.4857 2.26032 0
M  V30 9452 C 885.287 6.22209 1.38328 0
M  V30 9453 C 882.974 5.79932 1.92672 0
M  V30 9454 C 883.972 6.66574 1.4889 0
M  V30 9455 O 883.66 7.95492 1.15966 0
M  V30 9456 H 883.392 0.540695 0.405739 0
M  V30 9457 H 885.946 1.94794 0.651497 0
M  V30 9458 H 884.176 2.1772 3.19585 0
M  V30 9459 H 885.865 2.59008 3.12522 0
M  V30 9460 H 886.631 4.56951 1.62545 0
M  V30 9461 H 882.51 3.81321 2.59066 0
M  V30 9462 H 886.054 6.89792 1.04082 0
M  V30 9463 H 881.951 6.13386 2.01066 0
M  V30 9464 H 882.719 8.08207 1.29399 0
M  V30 9465 N 885.382 -0.782676 1.36792 0
M  V30 9466 C 886.33 -1.91698 1.31737 0
M  V30 9467 C 887.324 -1.68118 0.207994 0
M  V30 9468 O 888.53 -1.76042 0.375393 0
M  V30 9469 H 884.905 -0.630215 0.410284 0
M  V30 9470 H 886.876 -1.93078 2.27516 0
M  V30 9471 C 885.625 -3.28816 1.13029 0
M  V30 9472 H 884.948 -3.4753 1.97643 0
M  V30 9473 H 886.388 -4.08515 1.13541 0
M  V30 9474 C 884.847 -3.36497 -0.1647 0
M  V30 9475 O 885.377 -3.84822 -1.15216 0
M  V30 9476 N 883.583 -2.89828 -0.211678 0
M  V30 9477 H 883.13 -2.50693 0.59252 0
M  V30 9478 H 883.088 -2.95349 -1.07779 0
M  V30 9479 N 886.86 -1.21182 -1.00761 0
M  V30 9480 C 887.823 -0.970339 -2.07646 0
M  V30 9481 C 888.823 0.0576345 -1.60697 0
M  V30 9482 O 890.013 -0.179369 -1.73274 0
M  V30 9483 C 887.145 -0.462703 -3.37745 0
M  V30 9484 H 888.338 -1.91856 -2.30502 0
M  V30 9485 H 885.891 -1.02844 -1.17698 0
M  V30 9486 H 886.626 0.490559 -3.20568 0
M  V30 9487 H 886.411 -1.20416 -3.73152 0
M  V30 9488 H 887.901 -0.313531 -4.16421 0
M  V30 9489 N 888.338 1.20213 -1.01915 0
M  V30 9490 C 889.584 1.90203 -0.720724 0
M  V30 9491 C 889.939 1.77526 0.74178 0
M  V30 9492 O 889.232 1.15037 1.53222 0
M  V30 9493 C 889.426 3.40232 -1.09438 0
M  V30 9494 C 889.255 3.67509 -2.59167 0
M  V30 9495 C 888.025 3.86082 -3.25989 0
M  V30 9496 C 890.223 3.69863 -3.5736 0
M  V30 9497 N 888.205 4.009 -4.64922 0
M  V30 9498 C 889.576 3.90136 -4.81865 0
M  V30 9499 C 891.631 3.52839 -3.51296 0
M  V30 9500 C 890.334 3.9515 -6.0104 0
M  V30 9501 C 892.36 3.59125 -4.69875 0
M  V30 9502 C 891.722 3.79874 -5.93191 0
M  V30 9503 H 887.821 0.715556 -0.315442 0
M  V30 9504 H 890.405 1.44538 -1.30449 0
M  V30 9505 H 888.576 3.84643 -0.538933 0
M  V30 9506 H 890.308 3.97704 -0.74923 0
M  V30 9507 H 887.063 3.84569 -2.76413 0
M  V30 9508 H 887.487 4.12181 -5.37062 0
M  V30 9509 H 892.129 3.35762 -2.56951 0
M  V30 9510 H 889.847 4.11022 -6.95763 0
M  V30 9511 H 893.433 3.47257 -4.66802 0
M  V30 9512 H 892.313 3.846 -6.83412 0
M  V30 9513 N 889.816 0.795718 1.36037 0
M  V30 9514 C 891.232 0.478145 1.52269 0
M  V30 9515 C 891.432 -1.0025 1.74792 0
M  V30 9516 O 890.488 -1.78783 1.78305 0
M  V30 9517 C 891.801 1.31406 2.70468 0
M  V30 9518 C 893.349 1.3084 2.84341 0
M  V30 9519 C 893.824 2.12819 4.05551 0
M  V30 9520 N 895.315 2.10298 4.12709 0
M  V30 9521 C 896.05 2.70495 5.05589 0
M  V30 9522 N 895.546 3.39576 6.03871 0
M  V30 9523 N 897.339 2.60195 4.98252 0
M  V30 9524 H 889.49 1.75477 1.19673 0
M  V30 9525 H 891.753 0.74627 0.584624 0
M  V30 9526 H 891.459 2.36435 2.60368 0
M  V30 9527 H 891.333 0.959726 3.64786 0
M  V30 9528 H 893.72 0.266003 2.93899 0
M  V30 9529 H 893.801 1.70254 1.90912 0
M  V30 9530 H 893.445 3.17093 3.96755 0
M  V30 9531 H 893.375 1.70772 4.98141 0
M  V30 9532 H 895.866 1.60026 3.42345 0
M  V30 9533 H 896.179 3.82823 6.71317 0
M  V30 9534 H 894.524 3.43679 6.04077 0
M  V30 9535 H 897.715 2.05823 4.20422 0
M  V30 9536 H 897.888 3.074 5.70447 0
M  V30 9537 N 891.294 -1.47756 0.548274 0
M  V30 9538 C 892.71 -1.58247 0.207401 0
M  V30 9539 C 892.91 -1.54804 -1.28988 0
M  V30 9540 O 891.966 -1.44673 -2.06944 0
M  V30 9541 C 893.279 -2.89129 0.826142 0
M  V30 9542 C 894.827 -3.02695 0.79655 0
M  V30 9543 C 895.302 -4.36264 1.3942 0
M  V30 9544 N 896.793 -4.42877 1.35698 0
M  V30 9545 C 897.528 -5.44773 1.78913 0
M  V30 9546 N 897.024 -6.53528 2.29942 0
M  V30 9547 N 898.817 -5.35765 1.70038 0
M  V30 9548 H 890.968 -1.48236 1.52117 0
M  V30 9549 H 893.231 -0.704957 0.633829 0
M  V30 9550 H 892.937 -2.97358 1.87806 0
M  V30 9551 H 892.811 -3.75891 0.313916 0
M  V30 9552 H 895.198 -2.94067 -0.246655 0
M  V30 9553 H 895.279 -2.17496 1.34644 0
M  V30 9554 H 894.923 -4.45646 2.43642 0
M  V30 9555 H 894.853 -5.20179 0.819827 0
M  V30 9556 H 897.344 -3.64874 0.983623 0
M  V30 9557 H 897.657 -7.27441 2.60863 0
M  V30 9558 H 896.002 -6.54442 2.33947 0
M  V30 9559 H 899.193 -4.49699 1.29955 0
M  V30 9560 H 899.366 -6.1504 2.04035 0
M  V30 9561 N 892.772 -0.284283 -1.55015 0
M  V30 9562 C 894.019 0.329864 -1.99795 0
M  V30 9563 C 894.347 1.55171 -1.1727 0
M  V30 9564 O 893.602 1.94312 -0.232667 0
M  V30 9565 C 893.901 0.747219 -3.49502 0
M  V30 9566 C 893.567 -0.37101 -4.49371 0
M  V30 9567 C 892.229 -0.678034 -4.76399 0
M  V30 9568 C 894.581 -1.12406 -5.08935 0
M  V30 9569 C 891.909 -1.74152 -5.60257 0
M  V30 9570 C 894.261 -2.17734 -5.93948 0
M  V30 9571 C 892.925 -2.49061 -6.19294 0
M  V30 9572 H 892.195 0.120706 -0.731103 0
M  V30 9573 H 894.842 -0.399904 -1.87278 0
M  V30 9574 H 893.147 1.55681 -3.59542 0
M  V30 9575 H 894.844 1.2333 -3.81563 0
M  V30 9576 H 891.434 -0.1216 -4.28427 0
M  V30 9577 H 895.618 -0.900119 -4.88069 0
M  V30 9578 H 890.874 -1.98915 -5.78137 0
M  V30 9579 H 895.048 -2.76553 -6.39133 0
M  V30 9580 H 892.675 -3.31602 -6.84064 0
M  V30 9581 N 894.251 1.57596 -0.0117121 0
M  V30 9582 C 895.491 1.92932 0.675031 0
M  V30 9583 C 895.855 0.887004 1.70283 0
M  V30 9584 O 897.056 1.12599 2.4408 0
M  V30 9585 C 895.327 3.3327 1.29098 0
M  V30 9586 S 896.886 3.90509 2.00121 0
M  V30 9587 H 893.704 0.675226 0.22269 0
M  V30 9588 H 896.306 1.9537 -0.071208 0
M  V30 9589 H 895.01 4.0696 0.530262 0
M  V30 9590 H 894.541 3.34233 2.0749 0
M  V30 9591 H 896.556 3.72532 3.27771 0
M  V30 9592 N 895.729 -0.261212 1.5542 0
M  V30 9593 C 896.977 -0.989272 1.76232 0
M  V30 9594 C 897.298 -1.86389 0.573067 0
M  V30 9595 O 896.568 -1.91526 -0.41166 0
M  V30 9596 H 895.148 -0.368256 0.64992 0
M  V30 9597 H 897.81 -0.282603 1.9284 0
M  V30 9598 H 896.906 -1.61935 2.66802 0
M  V30 9599 N 897.207 -1.48554 -0.526253 0
M  V30 9600 C 898.137 -1.66252 -1.63959 0
M  V30 9601 C 899.118 -0.511351 -1.62232 0
M  V30 9602 O 900.303 -0.744322 -1.7937 0
M  V30 9603 C 897.433 -1.70556 -3.02536 0
M  V30 9604 C 896.387 -2.8521 -3.19123 0
M  V30 9605 C 895.713 -2.74606 -4.58798 0
M  V30 9606 C 897.013 -4.26463 -3.0154 0
M  V30 9607 H 898.707 -2.59459 -1.49404 0
M  V30 9608 H 896.253 -1.24862 -0.717326 0
M  V30 9609 H 898.206 -1.81524 -3.80298 0
M  V30 9610 H 896.93 -0.739297 -3.18123 0
M  V30 9611 H 895.589 -2.73802 -2.43779 0
M  V30 9612 H 895.237 -1.75941 -4.71226 0
M  V30 9613 H 894.937 -3.51544 -4.70841 0
M  V30 9614 H 896.461 -2.87548 -5.38655 0
M  V30 9615 H 897.875 -4.38685 -3.69091 0
M  V30 9616 H 896.272 -5.04428 -3.25073 0
M  V30 9617 H 897.342 -4.42667 -1.97925 0
M  V30 9618 N 898.685 0.775411 -1.37205 0
M  V30 9619 C 900.096 1.35147 -1.28811 0
M  V30 9620 C 900.447 1.96089 0.0659168 0
M  V30 9621 O 899.572 1.93558 0.967684 0
M  V30 9622 C 900.167 2.45715 -2.33258 0
M  V30 9623 C 898.726 2.99099 -2.2851 0
M  V30 9624 C 897.873 1.72286 -2.17285 0
M  V30 9625 H 900.824 0.575954 -1.4788 0
M  V30 9626 H 900.845 3.251 -1.97712 0
M  V30 9627 H 900.357 2.01331 -3.31795 0
M  V30 9628 H 898.458 3.47868 -1.33485 0
M  V30 9629 H 898.571 3.54962 -3.21774 0
M  V30 9630 H 896.935 1.95068 -1.6377 0
M  V30 9631 H 897.718 1.3001 -3.1773 0
M  V30 9632 N 900.163 1.21714 1.00117 0
M  V30 9633 C 901.095 0.937627 2.09144 0
M  V30 9634 C 902.108 -0.0806291 1.626 0
M  V30 9635 O 903.297 0.152348 1.77849 0
M  V30 9636 C 900.397 0.387036 3.36683 0
M  V30 9637 C 899.57 1.46054 4.12295 0
M  V30 9638 C 898.629 0.918505 5.18122 0
M  V30 9639 O 897.655 1.60282 5.46167 0
M  V30 9640 N 898.857 -0.264308 5.79898 0
M  V30 9641 H 901.622 1.87622 2.33705 0
M  V30 9642 H 899.183 1.12291 1.16629 0
M  V30 9643 H 901.175 0.00992825 4.04699 0
M  V30 9644 H 899.745 -0.456467 3.09249 0
M  V30 9645 H 898.965 2.01133 3.39027 0
M  V30 9646 H 900.253 2.18306 4.59587 0
M  V30 9647 H 899.651 -0.837242 5.5947 0
M  V30 9648 H 898.208 -0.582886 6.49188 0
M  V30 9649 N 901.641 -1.19671 1.02551 0
M  V30 9650 C 903.052 -1.70964 0.750208 0
M  V30 9651 C 903.403 -1.82095 -0.730461 0
M  V30 9652 O 902.528 -1.48974 -1.56958 0
M  V30 9653 C 903.123 -3.10516 1.35518 0
M  V30 9654 C 901.682 -3.59083 1.12854 0
M  V30 9655 C 900.829 -2.36041 1.45534 0
M  V30 9656 H 903.78 -1.04559 1.19386 0
M  V30 9657 H 903.801 -3.73028 0.750378 0
M  V30 9658 H 903.313 -3.02383 2.43282 0
M  V30 9659 H 901.414 -3.72536 0.0689627 0
M  V30 9660 H 901.527 -4.43395 1.81488 0
M  V30 9661 H 899.891 -2.39214 0.87458 0
M  V30 9662 H 900.674 -2.3054 2.54374 0
M  V30 9663 N 903.119 -0.802921 -1.35613 0
M  V30 9664 C 904.029 -0.212177 -2.33639 0
M  V30 9665 C 905.045 0.642871 -1.61689 0
M  V30 9666 O 906.221 0.555485 -1.93588 0
M  V30 9667 C 903.286 0.632406 -3.40883 0
M  V30 9668 C 902.347 -0.242708 -4.28613 0
M  V30 9669 C 901.58 0.56166 -5.30736 0
M  V30 9670 O 901.803 1.79664 -5.41366 0
M  V30 9671 O 900.737 -0.0455387 -6.01883 0
M  V30 9672 H 904.563 -1.023 -2.85952 0
M  V30 9673 H 902.148 -0.564636 -1.38319 0
M  V30 9674 H 904.03 1.11358 -4.0642 0
M  V30 9675 H 902.705 1.42089 -2.90848 0
M  V30 9676 H 901.612 -0.77094 -3.6607 0
M  V30 9677 H 902.945 -0.995046 -4.82037 0
M  V30 9678 N 904.597 1.47463 -0.556102 0
M  V30 9679 C 905.825 2.06868 -0.0364585 0
M  V30 9680 C 906.24 1.40893 1.25677 0
M  V30 9681 O 905.597 0.505083 1.75371 0
M  V30 9682 C 905.648 3.61128 0.163984 0
M  V30 9683 O 905.369 4.24629 -1.07803 0
M  V30 9684 C 906.87 4.37397 0.721036 0
M  V30 9685 H 904.09 0.669466 -0.0453399 0
M  V30 9686 H 906.634 1.89482 -0.769198 0
M  V30 9687 H 904.789 3.78031 0.84685 0
M  V30 9688 H 905.203 5.17149 -0.875067 0
M  V30 9689 H 906.677 5.46016 0.810584 0
M  V30 9690 H 907.154 4.03604 1.73206 0
M  V30 9691 H 907.76 4.25236 0.073904 0
M  V30 9692 N 906.075 0.2925 1.54862 0
M  V30 9693 C 907.321 -0.319736 2.00264 0
M  V30 9694 C 907.654 -1.5419 1.18064 0
M  V30 9695 O 906.929 -1.92821 0.254983 0
M  V30 9696 C 907.212 -0.684753 3.5353 0
M  V30 9697 C 907.065 0.545961 4.46474 0
M  V30 9698 C 908.384 -1.51456 4.13218 0
M  V30 9699 H 905.503 -0.11474 0.728014 0
M  V30 9700 H 908.145 0.402907 1.85679 0
M  V30 9701 H 906.295 -1.30044 3.66089 0
M  V30 9702 H 907.967 1.18448 4.45834 0
M  V30 9703 H 906.21 1.1808 4.1742 0
M  V30 9704 H 906.881 0.246544 5.51449 0
M  V30 9705 H 909.357 -0.994421 4.04043 0
M  V30 9706 H 908.233 -1.73875 5.20633 0
M  V30 9707 H 908.494 -2.5011 3.64551 0
M  V30 9708 N 907.553 -1.57587 0.0200696 0
M  V30 9709 C 908.801 -1.91046 -0.65922 0
M  V30 9710 C 909.122 -0.896197 -1.73186 0
M  V30 9711 O 908.392 0.0635952 -1.95797 0
M  V30 9712 H 906.972 -0.705163 -0.246483 0
M  V30 9713 H 909.634 -1.94789 0.0657368 0
M  V30 9714 H 908.73 -2.91399 -1.11773 0
M  V30 9715 N 909.032 0.252966 -1.55557 0
M  V30 9716 C 909.964 1.33585 -1.86246 0
M  V30 9717 C 910.977 1.44584 -0.748291 0
M  V30 9718 O 912.166 1.46042 -1.02635 0
M  V30 9719 C 909.266 2.71509 -2.02821 0
M  V30 9720 C 908.439 2.82853 -3.33636 0
M  V30 9721 C 907.498 4.01581 -3.40028 0
M  V30 9722 O 906.524 3.91394 -4.13278 0
M  V30 9723 N 907.726 5.14474 -2.6888 0
M  V30 9724 H 910.491 1.07596 -2.7972 0
M  V30 9725 H 908.052 0.443075 -1.55719 0
M  V30 9726 H 910.044 3.49262 -2.04445 0
M  V30 9727 H 908.614 2.90232 -1.1612 0
M  V30 9728 H 907.834 1.91823 -3.4438 0
M  V30 9729 H 909.122 2.87378 -4.19871 0
M  V30 9730 H 908.52 5.25641 -2.09087 0
M  V30 9731 H 907.077 5.90385 -2.76204 0
M  V30 9732 N 910.51 1.48831 0.518367 0
M  V30 9733 C 911.44 1.67119 1.63075 0
M  V30 9734 C 912.421 0.519948 1.61958 0
M  V30 9735 O 913.606 0.753824 1.78972 0
M  V30 9736 C 910.736 1.72158 3.01627 0
M  V30 9737 C 909.69 2.86898 3.17606 0
M  V30 9738 C 909.016 2.77035 4.57335 0
M  V30 9739 C 910.316 4.28057 2.99274 0
M  V30 9740 H 912.01 2.60248 1.48025 0
M  V30 9741 H 909.556 1.2524 0.710694 0
M  V30 9742 H 911.509 1.83539 3.7933 0
M  V30 9743 H 910.233 0.756157 3.17726 0
M  V30 9744 H 908.892 2.75091 2.42323 0
M  V30 9745 H 908.54 1.78438 4.70286 0
M  V30 9746 H 908.24 3.54036 4.6897 0
M  V30 9747 H 909.764 2.904 5.37122 0
M  V30 9748 H 911.178 4.40636 3.6676 0
M  V30 9749 H 909.575 5.06145 3.22393 0
M  V30 9750 H 910.645 4.4371 1.95574 0
M  V30 9751 N 911.988 -0.768124 1.37614 0
M  V30 9752 C 913.236 -1.52379 1.3276 0
M  V30 9753 C 913.557 -1.94809 -0.0863564 0
M  V30 9754 O 912.827 -1.66568 -1.03112 0
M  V30 9755 H 911.407 -0.565179 0.488448 0
M  V30 9756 H 914.069 -0.913974 1.72141 0
M  V30 9757 H 913.165 -2.4215 1.96901 0
M  V30 9758 N 913.466 -1.22244 -0.994698 0
M  V30 9759 C 914.694 -1.07218 -1.76952 0
M  V30 9760 C 915.109 0.377388 -1.8499 0
M  V30 9761 O 914.466 1.26157 -1.31874 0
M  V30 9762 C 914.517 -1.67496 -3.20355 0
M  V30 9763 O 914.238 -3.06782 -3.12756 0
M  V30 9764 C 915.739 -1.57721 -4.14294 0
M  V30 9765 H 912.959 -0.375966 -0.555779 0
M  V30 9766 H 915.503 -1.61799 -1.25065 0
M  V30 9767 H 913.658 -1.16982 -3.69315 0
M  V30 9768 H 914.072 -3.35784 -4.02926 0
M  V30 9769 H 915.546 -2.04623 -5.12673 0
M  V30 9770 H 916.023 -0.533434 -4.35949 0
M  V30 9771 H 916.629 -2.07531 -3.71229 0
M  V30 9772 N 914.944 1.19125 -1.03184 0
M  V30 9773 C 916.19 1.89163 -0.731111 0
M  V30 9774 C 916.523 1.79604 0.738662 0
M  V30 9775 O 915.798 1.19037 1.53819 0
M  V30 9776 C 916.081 3.39986 -1.18666 0
M  V30 9777 C 915.934 3.58401 -2.71788 0
M  V30 9778 C 917.253 4.33316 -0.769772 0
M  V30 9779 H 914.372 0.686908 -0.267069 0
M  V30 9780 H 917.014 1.40205 -1.28229 0
M  V30 9781 H 915.164 3.81813 -0.717736 0
M  V30 9782 H 916.836 3.25727 -3.26649 0
M  V30 9783 H 915.079 3.01355 -3.12038 0
M  V30 9784 H 915.75 4.64189 -2.98719 0
M  V30 9785 H 918.226 3.9922 -1.17314 0
M  V30 9786 H 917.102 5.37427 -1.11637 0
M  V30 9787 H 917.363 4.40884 0.327681 0
M  V30 9788 N 916.422 0.810101 1.35185 0
M  V30 9789 C 917.352 0.237453 2.32289 0
M  V30 9790 C 918.333 -0.639032 1.5764 0
M  V30 9791 O 919.518 -0.568575 1.8569 0
M  V30 9792 C 916.648 -0.611964 3.41866 0
M  V30 9793 C 915.602 0.166318 4.27677 0
M  V30 9794 C 914.928 -0.805024 5.28605 0
M  V30 9795 C 916.228 1.36729 5.04086 0
M  V30 9796 H 917.922 1.04874 2.80432 0
M  V30 9797 H 915.468 0.505751 1.34826 0
M  V30 9798 H 917.421 -1.02267 4.08802 0
M  V30 9799 H 916.145 -1.45617 2.92341 0
M  V30 9800 H 914.804 0.558238 3.62325 0
M  V30 9801 H 914.452 -1.64483 4.75347 0
M  V30 9802 H 914.152 -0.288577 5.86891 0
M  V30 9803 H 915.676 -1.21386 5.98413 0
M  V30 9804 H 917.09 1.03128 5.63948 0
M  V30 9805 H 915.487 1.81848 5.71884 0
M  V30 9806 H 916.557 2.15214 4.34524 0
M  V30 9807 N 917.9 -1.47166 0.563914 0
M  V30 9808 C 919.316 -1.58018 0.224173 0
M  V30 9809 C 919.516 -1.56163 -1.27339 0
M  V30 9810 O 918.572 -1.4686 -2.05398 0
M  V30 9811 C 919.885 -2.88236 0.856762 0
M  V30 9812 C 921.433 -3.01833 0.82861 0
M  V30 9813 C 921.908 -4.34761 1.44039 0
M  V30 9814 N 923.399 -4.41413 1.40388 0
M  V30 9815 C 924.134 -5.42845 1.84681 0
M  V30 9816 N 923.63 -6.51052 2.3686 0
M  V30 9817 N 925.423 -5.33931 1.75711 0
M  V30 9818 H 917.574 -1.46615 1.53681 0
M  V30 9819 H 919.837 -0.698195 0.64127 0
M  V30 9820 H 919.543 -2.95349 1.90949 0
M  V30 9821 H 919.417 -3.75537 0.353766 0
M  V30 9822 H 921.804 -2.94312 -0.215451 0
M  V30 9823 H 921.885 -2.16056 1.36943 0
M  V30 9824 H 921.529 -4.43037 2.48355 0
M  V30 9825 H 921.459 -5.1928 0.874953 0
M  V30 9826 H 923.95 -3.63811 1.02227 0
M  V30 9827 H 924.263 -7.24633 2.68564 0
M  V30 9828 H 922.608 -6.51924 2.40875 0
M  V30 9829 H 925.799 -4.48295 1.34718 0
M  V30 9830 H 925.972 -6.12841 2.10547 0
M  V30 9831 N 919.378 -0.300708 -1.54705 0
M  V30 9832 C 920.326 0.591264 -2.2496 0
M  V30 9833 C 921.32 1.13725 -1.2555 0
M  V30 9834 O 922.526 1.08793 -1.43402 0
M  V30 9835 H 918.901 0.209278 -0.722293 0
M  V30 9836 H 920.872 -0.0238175 -2.9839 0
M  V30 9837 C 919.621 1.75179 -3.00346 0
M  V30 9838 H 918.944 1.34089 -3.76643 0
M  V30 9839 H 920.384 2.35198 -3.52786 0
M  V30 9840 C 918.843 2.65574 -2.07298 0
M  V30 9841 O 919.373 3.6666 -1.64083 0
M  V30 9842 N 917.579 2.33301 -1.7326 0
M  V30 9843 H 917.126 1.51142 -2.08599 0
M  V30 9844 H 917.084 2.94049 -1.11278 0
M  V30 9845 N 920.856 1.57574 -0.0284266 0
M  V30 9846 C 921.786 2.1321 0.952039 0
M  V30 9847 C 922.767 1.04806 1.33977 0
M  V30 9848 O 923.952 1.32635 1.41851 0
M  V30 9849 C 921.082 2.65862 2.23461 0
M  V30 9850 C 920.036 3.79047 1.98765 0
M  V30 9851 C 919.362 4.18124 3.33281 0
M  V30 9852 C 920.662 5.05151 1.32739 0
M  V30 9853 H 922.356 2.95385 0.488705 0
M  V30 9854 H 919.902 1.42092 0.233628 0
M  V30 9855 H 921.855 3.03417 2.92431 0
M  V30 9856 H 920.579 1.80848 2.71959 0
M  V30 9857 H 919.238 3.41929 1.32213 0
M  V30 9858 H 918.886 3.30092 3.79537 0
M  V30 9859 H 918.586 4.94396 3.17563 0
M  V30 9860 H 920.11 4.58262 4.0352 0
M  V30 9861 H 921.524 5.40297 1.91708 0
M  V30 9862 H 919.921 5.86416 1.27421 0
M  V30 9863 H 920.991 4.83969 0.300261 0
M  V30 9864 N 922.334 -0.244713 1.55689 0
M  V30 9865 C 923.281 -1.30301 1.905 0
M  V30 9866 C 924.251 -1.4772 0.759478 0
M  V30 9867 O 925.436 -1.61667 1.01333 0
M  V30 9868 C 922.576 -2.653 2.20703 0
M  V30 9869 C 921.689 -2.55872 3.48071 0
M  V30 9870 C 920.824 -3.83238 3.67834 0
M  V30 9871 C 919.863 -3.68436 4.88796 0
M  V30 9872 N 919 -4.877 5.05068 0
M  V30 9873 H 923.84 -0.999143 2.80751 0
M  V30 9874 H 921.377 -0.482099 1.38976 0
M  V30 9875 H 923.335 -3.43884 2.36219 0
M  V30 9876 H 921.965 -2.93831 1.33653 0
M  V30 9877 H 921.017 -1.68846 3.40874 0
M  V30 9878 H 922.329 -2.40845 4.36801 0
M  V30 9879 H 921.483 -4.70266 3.83321 0
M  V30 9880 H 920.222 -4.01165 2.77341 0
M  V30 9881 H 919.227 -2.79793 4.73282 0
M  V30 9882 H 920.452 -3.52003 5.8075 0
M  V30 9883 H 918.398 -5.05983 4.17513 0
M  V30 9884 H 918.315 -4.75312 5.8789 0
M  V30 9885 H 919.583 -5.76219 5.24969 0
M  V30 9886 N 923.813 -1.49104 -0.510467 0
M  V30 9887 C 924.743 -1.67981 -1.62187 0
M  V30 9888 C 925.724 -0.528529 -1.6168 0
M  V30 9889 O 926.909 -0.763305 -1.7857 0
M  V30 9890 C 924.039 -1.73755 -3.0071 0
M  V30 9891 C 922.993 -2.88579 -3.1608 0
M  V30 9892 C 922.319 -2.79457 -4.5586 0
M  V30 9893 C 923.619 -4.29638 -2.97 0
M  V30 9894 H 925.313 -2.61029 -1.46643 0
M  V30 9895 H 922.859 -1.25615 -0.704042 0
M  V30 9896 H 924.812 -1.85548 -3.78352 0
M  V30 9897 H 923.536 -0.772996 -3.17321 0
M  V30 9898 H 922.195 -2.76372 -2.40861 0
M  V30 9899 H 921.843 -1.80929 -4.69333 0
M  V30 9900 H 921.543 -3.56518 -4.67086 0
M  V30 9901 H 923.067 -2.93245 -5.35574 0
M  V30 9902 H 924.481 -4.42575 -3.64418 0
M  V30 9903 H 922.878 -5.07847 -3.19704 0
M  V30 9904 H 923.948 -4.44741 -1.93219 0
M  V30 9905 N 925.291 0.760815 -1.38019 0
M  V30 9906 C 926.254 1.85604 -1.34476 0
M  V30 9907 C 927.254 1.58897 -0.24666 0
M  V30 9908 O 928.444 1.66776 -0.50314 0
M  V30 9909 C 925.576 3.22945 -1.09176 0
M  V30 9910 H 926.769 1.90155 -2.31908 0
M  V30 9911 H 924.322 0.961746 -1.23208 0
M  V30 9912 H 925.057 3.24066 -0.123216 0
M  V30 9913 H 924.842 3.43723 -1.88672 0
M  V30 9914 H 926.332 4.03022 -1.09375 0
M  V30 9915 N 926.769 1.22769 0.988202 0
M  V30 9916 C 928.185 0.988665 1.2529 0
M  V30 9917 C 928.385 -0.314938 1.99024 0
M  V30 9918 O 927.441 -1.03637 2.30251 0
M  V30 9919 C 928.754 2.19046 2.06009 0
M  V30 9920 C 930.302 2.23452 2.19176 0
M  V30 9921 C 930.777 3.43196 3.03283 0
M  V30 9922 N 932.268 3.43387 3.10869 0
M  V30 9923 C 933.003 4.32693 3.7625 0
M  V30 9924 N 932.499 5.32224 4.43519 0
M  V30 9925 N 934.292 4.20457 3.73058 0
M  V30 9926 H 926.443 2.06575 0.494014 0
M  V30 9927 H 928.706 0.905452 0.28082 0
M  V30 9928 H 928.412 3.13607 1.59197 0
M  V30 9929 H 928.286 2.19492 3.06763 0
M  V30 9930 H 930.673 1.29436 2.65199 0
M  V30 9931 H 930.754 2.27042 1.17836 0
M  V30 9932 H 930.398 4.37515 2.57959 0
M  V30 9933 H 930.328 3.36847 4.04774 0
M  V30 9934 H 932.819 2.71368 2.62998 0
M  V30 9935 H 933.132 5.9664 4.91163 0
M  V30 9936 H 931.477 5.36133 4.42252 0
M  V30 9937 H 934.668 3.41949 3.19669 0
M  V30 9938 H 934.841 4.90261 4.23731 0
M  V30 9939 N 928.247 -1.18576 1.03814 0
M  V30 9940 C 929.194 -2.2212 0.626988 0
M  V30 9941 C 930.164 -1.62064 -0.363912 0
M  V30 9942 O 931.349 -1.89041 -0.258469 0
M  V30 9943 C 928.489 -3.45099 -0.00650133 0
M  V30 9944 C 927.602 -4.19503 1.03156 0
M  V30 9945 C 926.737 -5.29932 0.366852 0
M  V30 9946 C 925.776 -5.96104 1.39018 0
M  V30 9947 N 924.913 -6.98076 0.750625 0
M  V30 9948 H 929.753 -2.56646 1.51449 0
M  V30 9949 H 927.29 -1.26084 0.757702 0
M  V30 9950 H 929.248 -4.15363 -0.391108 0
M  V30 9951 H 927.878 -3.11201 -0.857536 0
M  V30 9952 H 926.93 -3.48092 1.53414 0
M  V30 9953 H 928.242 -4.64843 1.80893 0
M  V30 9954 H 927.396 -6.06657 -0.0720979 0
M  V30 9955 H 926.135 -4.85687 -0.442631 0
M  V30 9956 H 925.14 -5.18122 1.8393 0
M  V30 9957 H 926.365 -6.42432 2.20132 0
M  V30 9958 H 924.311 -6.55989 -0.0385981 0
M  V30 9959 H 924.228 -7.41655 1.46574 0
M  V30 9960 H 925.496 -7.78776 0.335986 0
M  V30 9961 N 929.725 -0.817259 -1.34754 0
M  V30 9962 C 930.655 -0.249769 -2.3216 0
M  V30 9963 C 931.636 0.630663 -1.57977 0
M  V30 9964 O 932.821 0.558719 -1.85989 0
M  V30 9965 C 929.951 0.593825 -3.42186 0
M  V30 9966 C 928.905 -0.188997 -4.27583 0
M  V30 9967 C 928.231 0.776979 -5.29025 0
M  V30 9968 C 929.531 -1.39401 -5.03354 0
M  V30 9969 H 931.225 -1.06359 -2.79872 0
M  V30 9970 H 928.771 -0.512894 -1.34556 0
M  V30 9971 H 930.724 1.00097 -4.09339 0
M  V30 9972 H 929.448 1.44064 -2.93109 0
M  V30 9973 H 928.107 -0.577445 -3.62024 0
M  V30 9974 H 927.755 1.61959 -4.76212 0
M  V30 9975 H 927.455 0.257448 -5.87036 0
M  V30 9976 H 928.979 1.18211 -5.99048 0
M  V30 9977 H 930.393 -1.06117 -5.63393 0
M  V30 9978 H 928.79 -1.84878 -5.70912 0
M  V30 9979 H 929.86 -2.17515 -4.33377 0
M  V30 9980 N 931.203 1.46865 -0.571711 0
M  V30 9981 C 932.136 2.27176 0.215944 0
M  V30 9982 C 933.114 1.34951 0.907035 0
M  V30 9983 O 934.298 1.64349 0.923127 0
M  V30 9984 C 931.425 3.12388 1.30888 0
M  V30 9985 C 930.471 4.20296 0.724804 0
M  V30 9986 S 931.304 5.33691 -0.439839 0
M  V30 9987 C 932.46 6.22468 0.654564 0
M  V30 9988 H 932.693 2.93633 -0.465518 0
M  V30 9989 H 930.226 1.50184 -0.358351 0
M  V30 9990 H 932.184 3.62049 1.93471 0
M  V30 9991 H 930.845 2.45265 1.96224 0
M  V30 9992 H 930.038 4.79703 1.54599 0
M  V30 9993 H 929.64 3.73591 0.174861 0
M  V30 9994 H 931.932 6.59694 1.54304 0
M  V30 9995 H 932.875 7.08033 0.0975111 0
M  V30 9996 H 933.283 5.56384 0.953762 0
M  V30 9997 N 932.681 0.308908 1.54543 0
M  V30 9998 C 933.591 -0.572939 2.27496 0
M  V30 9999 C 934.607 -1.14171 1.31305 0
M  V30 10000 O 935.783 -1.16481 1.64299 0
M  V30 10001 C 932.848 -1.72483 3.0075 0
M  V30 10002 C 931.909 -1.18934 4.12496 0
M  V30 10003 C 931.142 -2.28634 4.82247 0
M  V30 10004 O 931.365 -3.48691 4.5141 0
M  V30 10005 O 930.299 -1.94879 5.69478 0
M  V30 10006 H 934.125 0.0190877 3.03694 0
M  V30 10007 H 931.71 0.0750943 1.49211 0
M  V30 10008 H 933.592 -2.39578 3.46671 0
M  V30 10009 H 932.267 -2.30332 2.2744 0
M  V30 10010 H 931.174 -0.483904 3.70957 0
M  V30 10011 H 932.507 -0.656185 4.87806 0
M  V30 10012 N 934.159 -1.57557 0.0367827 0
M  V30 10013 C 935.091 -2.07597 -0.971395 0
M  V30 10014 C 936.104 -1.0009 -1.28397 0
M  V30 10015 O 937.293 -1.27692 -1.24728 0
M  V30 10016 C 934.393 -2.492 -2.2968 0
M  V30 10017 C 933.566 -3.79875 -2.16826 0
M  V30 10018 C 932.625 -4.07946 -3.32366 0
M  V30 10019 O 931.651 -4.78083 -3.0891 0
M  V30 10020 N 932.853 -3.58722 -4.56397 0
M  V30 10021 H 935.618 -2.94714 -0.544389 0
M  V30 10022 H 933.179 -1.61205 -0.1498 0
M  V30 10023 H 935.171 -2.65065 -3.05815 0
M  V30 10024 H 933.741 -1.67407 -2.63995 0
M  V30 10025 H 932.961 -3.73732 -1.2537 0
M  V30 10026 H 934.249 -4.65476 -2.0545 0
M  V30 10027 H 933.647 -3.01994 -4.78347 0
M  V30 10028 H 932.204 -3.79852 -5.29675 0
M  V30 10029 N 935.637 0.236453 -1.55816 0
M  V30 10030 C 936.867 0.978873 -1.81939 0
M  V30 10031 C 937.275 1.79041 -0.611647 0
M  V30 10032 O 936.618 1.78616 0.429172 0
M  V30 10033 C 936.68 1.9569 -3.01572 0
M  V30 10034 C 936.344 1.33131 -4.37178 0
M  V30 10035 C 937.341 0.728585 -5.1477 0
M  V30 10036 C 935.026 1.34755 -4.83887 0
M  V30 10037 C 937.02 0.150427 -6.37222 0
M  V30 10038 C 934.707 0.765539 -6.06286 0
M  V30 10039 C 935.705 0.168017 -6.82793 0
M  V30 10040 O 935.393 -0.404976 -8.02879 0
M  V30 10041 H 935.125 0.293186 -0.609113 0
M  V30 10042 H 937.679 0.261384 -2.0373 0
M  V30 10043 H 935.909 2.71298 -2.75562 0
M  V30 10044 H 937.598 2.56362 -3.14695 0
M  V30 10045 H 938.364 0.708477 -4.79797 0
M  V30 10046 H 934.243 1.80202 -4.24321 0
M  V30 10047 H 937.787 -0.316586 -6.96881 0
M  V30 10048 H 933.684 0.78301 -6.40733 0
M  V30 10049 H 934.452 -0.29785 -8.17958 0
M  V30 10050 N 937.115 1.49373 0.502552 0
M  V30 10051 C 938.363 1.58467 1.25429 0
M  V30 10052 C 938.684 0.272593 1.93085 0
M  V30 10053 O 937.954 -0.707947 1.82661 0
M  V30 10054 H 936.534 0.583866 0.46595 0
M  V30 10055 H 939.196 1.8599 0.582568 0
M  V30 10056 H 938.292 2.37993 2.01906 0
M  V30 10057 N 938.594 -0.753485 1.38421 0
M  V30 10058 C 939.822 -1.54272 1.37868 0
M  V30 10059 C 940.237 -1.88774 -0.0315155 0
M  V30 10060 O 939.594 -1.52785 -0.998148 0
M  V30 10061 C 939.645 -2.84179 2.23438 0
M  V30 10062 O 939.366 -2.51149 3.58965 0
M  V30 10063 C 940.867 -3.78316 2.31067 0
M  V30 10064 H 938.087 -0.47735 0.47157 0
M  V30 10065 H 940.631 -0.932509 1.82001 0
M  V30 10066 H 938.786 -3.41577 1.82767 0
M  V30 10067 H 939.2 -3.34466 4.04021 0
M  V30 10068 H 940.674 -4.66418 2.95226 0
M  V30 10069 H 941.151 -4.18757 1.32436 0
M  V30 10070 H 941.757 -3.26842 2.72129 0
M  V30 10071 N 940.072 -1.23292 -0.981677 0
M  V30 10072 C 941.483 -1.05936 -1.53735 0
M  V30 10073 C 941.834 0.373695 -1.92608 0
M  V30 10074 O 940.959 1.26024 -1.75917 0
M  V30 10075 C 941.554 -1.91682 -2.79363 0
M  V30 10076 C 940.113 -1.78591 -3.31334 0
M  V30 10077 C 939.26 -1.87463 -2.04335 0
M  V30 10078 H 942.211 -1.36973 -0.801505 0
M  V30 10079 H 942.232 -1.44085 -3.52164 0
M  V30 10080 H 941.744 -2.95975 -2.51039 0
M  V30 10081 H 939.845 -0.770755 -3.64541 0
M  V30 10082 H 939.958 -2.61902 -4.01179 0
M  V30 10083 H 938.322 -1.3103 -2.18411 0
M  V30 10084 H 939.105 -2.9331 -1.78394 0
M  V30 10085 N 941.55 1.18024 -1.04442 0
M  V30 10086 C 942.498 2.23834 -0.632557 0
M  V30 10087 C 943.492 1.65902 0.342488 0
M  V30 10088 O 944.698 1.78778 0.20937 0
M  V30 10089 H 941.073 0.728544 -0.186353 0
M  V30 10090 H 943.044 2.55876 -1.53526 0
M  V30 10091 C 941.793 3.47697 -0.0153661 0
M  V30 10092 H 941.116 3.92574 -0.756704 0
M  V30 10093 H 942.556 4.23345 0.235541 0
M  V30 10094 C 941.015 3.13416 1.23579 0
M  V30 10095 O 941.545 3.27499 2.3261 0
M  V30 10096 N 939.751 2.67708 1.13053 0
M  V30 10097 H 939.298 2.56449 0.243277 0
M  V30 10098 H 939.256 2.45143 1.96855 0
M  V30 10099 N 943.028 0.824394 1.34319 0
M  V30 10100 C 943.976 0.235628 2.31403 0
M  V30 10101 C 944.97 -0.624443 1.57471 0
M  V30 10102 O 946.176 -0.515618 1.72457 0
M  V30 10103 H 942.551 0.0574537 0.749802 0
M  V30 10104 H 944.522 1.06925 2.78585 0
M  V30 10105 C 943.271 -0.586617 3.42716 0
M  V30 10106 H 942.594 0.0658669 3.99746 0
M  V30 10107 H 944.034 -0.964661 4.1288 0
M  V30 10108 C 942.493 -1.75957 2.87299 0
M  V30 10109 O 943.023 -2.8578 2.82299 0
M  V30 10110 N 941.229 -1.57678 2.44102 0
M  V30 10111 H 940.776 -0.683436 2.48369 0
M  V30 10112 H 940.734 -2.36311 2.07375 0
M  V30 10113 N 944.506 -1.46559 0.579492 0
M  V30 10114 C 945.755 -2.01606 0.0615735 0
M  V30 10115 C 946.068 -1.45695 -1.30508 0
M  V30 10116 O 947.274 -1.92541 -1.91416 0
M  V30 10117 C 945.73 -3.59851 0.059496 0
M  V30 10118 C 945.338 -4.24757 1.42427 0
M  V30 10119 C 947.082 -4.22567 -0.404646 0
M  V30 10120 C 944.989 -5.75072 1.38009 0
M  V30 10121 H 943.919 -0.753754 0.0192491 0
M  V30 10122 H 946.57 -1.68326 0.73066 0
M  V30 10123 H 944.952 -3.90193 -0.675691 0
M  V30 10124 H 946.126 -4.06029 2.17893 0
M  V30 10125 H 944.441 -3.74121 1.82817 0
M  V30 10126 H 947.038 -5.32748 -0.456441 0
M  V30 10127 H 947.381 -3.91279 -1.42149 0
M  V30 10128 H 947.914 -3.96839 0.276376 0
M  V30 10129 H 944.653 -6.11014 2.37364 0
M  V30 10130 H 944.173 -5.96073 0.667583 0
M  V30 10131 H 945.852 -6.37724 1.09163 0
M  V30 10132 N 945.984 -0.3171 -1.54377 0
M  V30 10133 C 947.261 0.341348 -1.92598 0
M  V30 10134 C 947.641 1.70402 -1.24605 0
M  V30 10135 O 946.989 2.25191 -0.387448 0
M  V30 10136 C 947.199 0.440003 -3.46215 0
M  V30 10137 C 948.547 0.703327 -4.18734 0
M  V30 10138 O 949.571 0.523181 -3.52337 0
M  V30 10139 O 948.43 1.05042 -5.3631 0
M  V30 10140 H 945.524 0.193696 -0.803997 0
M  V30 10141 H 948.07 -0.366341 -1.65699 0
M  V30 10142 H 946.842 -0.517299 -3.87866 0
M  V30 10143 H 946.465 1.19553 -3.792 0
M  V30 10144 N 947.462 1.57535 -0.0451378 0
M  V30 10145 C 948.711 1.91628 0.629415 0
M  V30 10146 C 949.024 0.924754 1.72359 0
M  V30 10147 O 950.23 1.15751 2.45589 0
M  V30 10148 C 948.686 3.40322 1.17084 0
M  V30 10149 C 948.294 4.47867 0.109101 0
M  V30 10150 C 950.038 3.83458 1.82099 0
M  V30 10151 C 947.945 5.87671 0.663072 0
M  V30 10152 H 946.875 0.715163 0.238868 0
M  V30 10153 H 949.526 1.83151 -0.113046 0
M  V30 10154 H 947.908 3.43783 1.96543 0
M  V30 10155 H 949.082 4.55988 -0.664201 0
M  V30 10156 H 947.397 4.14034 -0.443227 0
M  V30 10157 H 949.994 4.85273 2.2453 0
M  V30 10158 H 950.337 3.19379 2.67026 0
M  V30 10159 H 950.87 3.82488 1.09305 0
M  V30 10160 H 947.609 6.55332 -0.148423 0
M  V30 10161 H 947.129 5.83124 1.4045 0
M  V30 10162 H 948.808 6.36737 1.14785 0
M  V30 10163 N 948.94 -0.228186 1.55939 0
M  V30 10164 C 950.186 -0.950604 1.7982 0
M  V30 10165 C 950.541 -1.82236 0.617079 0
M  V30 10166 O 949.834 -1.87607 -0.389102 0
M  V30 10167 C 950.028 -1.82924 3.0704 0
M  V30 10168 C 949.857 -1.04403 4.37413 0
M  V30 10169 C 948.627 -0.741613 4.99828 0
M  V30 10170 C 950.825 -0.412534 5.12643 0
M  V30 10171 N 948.807 0.0656922 6.13865 0
M  V30 10172 C 950.178 0.258471 6.19461 0
M  V30 10173 C 952.233 -0.324893 4.96839 0
M  V30 10174 C 950.936 1.00873 7.12192 0
M  V30 10175 C 952.962 0.411878 5.89964 0
M  V30 10176 C 952.324 1.07145 6.96203 0
M  V30 10177 H 948.423 -0.328336 0.709732 0
M  V30 10178 H 951.007 -0.222056 1.9343 0
M  V30 10179 H 949.178 -2.52966 2.94725 0
M  V30 10180 H 950.91 -2.48863 3.19139 0
M  V30 10181 H 947.665 -1.05801 4.61631 0
M  V30 10182 H 948.089 0.457986 6.75449 0
M  V30 10183 H 952.731 -0.820485 4.14762 0
M  V30 10184 H 950.449 1.51586 7.93755 0
M  V30 10185 H 954.035 0.480606 5.79812 0
M  V30 10186 H 952.915 1.63245 7.67021 0
M  V30 10187 N 950.418 -1.49637 -0.494624 0
M  V30 10188 C 951.351 -1.61387 -1.61337 0
M  V30 10189 C 952.329 -0.462704 -1.55878 0
M  V30 10190 O 953.513 -0.679103 -1.75842 0
M  V30 10191 C 950.64 -1.57471 -2.99867 0
M  V30 10192 C 949.686 -2.77863 -3.23565 0
M  V30 10193 S 950.519 -4.3946 -3.05999 0
M  V30 10194 C 951.675 -4.382 -4.46914 0
M  V30 10195 H 951.908 -2.56024 -1.51126 0
M  V30 10196 H 949.441 -1.38607 -0.680253 0
M  V30 10197 H 951.399 -1.55898 -3.79745 0
M  V30 10198 H 950.06 -0.641107 -3.07488 0
M  V30 10199 H 949.253 -2.71361 -4.24711 0
M  V30 10200 H 948.855 -2.76882 -2.51421 0
M  V30 10201 H 951.147 -4.10312 -5.3912 0
M  V30 10202 H 952.09 -5.39645 -4.58464 0
M  V30 10203 H 952.498 -3.68197 -4.27891 0
M  V30 10204 N 951.896 0.746133 -1.38819 0
M  V30 10205 C 953.144 1.50247 -1.35167 0
M  V30 10206 C 953.465 1.94921 0.0553531 0
M  V30 10207 O 952.735 1.68187 1.00449 0
M  V30 10208 H 951.315 0.557337 -0.497377 0
M  V30 10209 H 953.977 0.886472 -1.73573 0
M  V30 10210 H 953.073 2.38986 -2.00728 0
M  V30 10211 N 953.375 1.23811 0.975125 0
M  V30 10212 C 954.623 1.07124 1.71373 0
M  V30 10213 C 954.944 -0.391864 1.91022 0
M  V30 10214 O 954.214 -1.28041 1.48265 0
M  V30 10215 H 952.794 0.393415 0.635007 0
M  V30 10216 H 955.456 1.55612 1.17349 0
M  V30 10217 H 954.552 1.56338 2.7012 0
M  V30 10218 N 954.853 -1.17469 1.05066 0
M  V30 10219 C 956.099 -1.87976 0.761113 0
M  V30 10220 C 956.432 -1.80756 -0.709995 0
M  V30 10221 O 955.707 -1.21469 -1.51906 0
M  V30 10222 C 955.99 -3.38055 1.2406 0
M  V30 10223 C 955.843 -3.54032 2.77455 0
M  V30 10224 C 957.162 -4.32036 0.838612 0
M  V30 10225 H 954.281 -0.682573 0.277963 0
M  V30 10226 H 956.923 -1.38147 1.30443 0
M  V30 10227 H 955.073 -3.80622 0.778388 0
M  V30 10228 H 956.745 -3.20489 3.3179 0
M  V30 10229 H 954.988 -2.96352 3.16793 0
M  V30 10230 H 955.659 -4.59377 3.06066 0
M  V30 10231 H 958.135 -3.97303 1.23651 0
M  V30 10232 H 957.011 -5.35583 1.20173 0
M  V30 10233 H 957.272 -4.41349 -0.257498 0
M  V30 10234 N 956.331 -0.831506 -1.3388 0
M  V30 10235 C 957.556 -0.435954 -2.02766 0
M  V30 10236 C 957.981 0.952889 -1.62178 0
M  V30 10237 O 957.339 1.62166 -0.810681 0
M  V30 10238 C 957.387 -0.555907 -3.56289 0
M  V30 10239 O 956.491 0.420826 -4.10247 0
M  V30 10240 H 955.832 -0.178248 -0.639628 0
M  V30 10241 H 958.362 -1.1243 -1.70941 0
M  V30 10242 H 958.372 -0.434831 -4.05676 0
M  V30 10243 H 957.047 -1.56881 -3.85177 0
M  V30 10244 H 955.624 0.257919 -3.72007 0
M  V30 10245 N 957.809 1.4625 -0.587256 0
M  V30 10246 C 958.719 2.34147 0.145744 0
M  V30 10247 C 959.735 1.50026 0.881376 0
M  V30 10248 O 960.911 1.82884 0.843539 0
M  V30 10249 C 957.976 3.27294 1.14366 0
M  V30 10250 C 957.037 4.27317 0.412199 0
M  V30 10251 C 956.27 5.16013 1.36257 0
M  V30 10252 O 956.493 5.0773 2.59934 0
M  V30 10253 O 955.427 5.95569 0.870681 0
M  V30 10254 H 959.253 2.98187 -0.576055 0
M  V30 10255 H 956.838 1.45299 -0.347628 0
M  V30 10256 H 958.72 3.84747 1.71894 0
M  V30 10257 H 957.395 2.65845 1.84684 0
M  V30 10258 H 956.302 3.73538 -0.205036 0
M  V30 10259 H 957.635 4.91564 -0.250104 0
M  V30 10260 N 959.287 0.325282 1.54207 0
M  V30 10261 C 960.698 -0.162426 1.85992 0
M  V30 10262 C 961.049 -1.51482 1.2469 0
M  V30 10263 O 960.174 -2.092 0.553578 0
M  V30 10264 C 960.769 -0.3015 3.37456 0
M  V30 10265 C 959.328 -0.73343 3.69185 0
M  V30 10266 C 958.475 0.143831 2.76927 0
M  V30 10267 H 961.426 0.545508 1.4903 0
M  V30 10268 H 961.447 -1.13212 3.63268 0
M  V30 10269 H 960.959 0.682942 3.82044 0
M  V30 10270 H 959.06 -1.72755 3.30131 0
M  V30 10271 H 959.173 -0.535987 4.76092 0
M  V30 10272 H 957.537 -0.380892 2.51836 0
M  V30 10273 H 958.32 1.12507 3.24341 0
M  V30 10274 N 960.765 -1.57509 0.0534917 0
M  V30 10275 C 961.695 -2.14698 -0.917999 0
M  V30 10276 C 962.676 -1.06924 -1.32292 0
M  V30 10277 O 963.861 -1.34875 -1.39723 0
M  V30 10278 C 960.991 -2.69383 -2.19203 0
M  V30 10279 C 959.945 -3.82161 -1.9271 0
M  V30 10280 C 959.271 -4.23373 -3.26587 0
M  V30 10281 C 960.571 -5.07199 -1.24686 0
M  V30 10282 H 962.265 -2.96125 -0.44165 0
M  V30 10283 H 959.811 -1.42446 -0.210993 0
M  V30 10284 H 961.764 -3.08031 -2.87567 0
M  V30 10285 H 960.488 -1.85151 -2.69048 0
M  V30 10286 H 959.147 -3.43989 -1.26757 0
M  V30 10287 H 958.795 -3.36089 -3.74237 0
M  V30 10288 H 958.495 -4.99385 -3.09658 0
M  V30 10289 H 960.019 -4.64623 -3.96178 0
M  V30 10290 H 961.433 -5.43279 -1.83088 0
M  V30 10291 H 959.83 -5.88369 -1.18076 0
M  V30 10292 H 960.9 -4.84386 -0.223227 0
M  V30 10293 N 962.243 0.219913 -1.56058 0
M  V30 10294 C 963.19 1.27254 -1.92549 0
M  V30 10295 C 964.16 1.46493 -0.782883 0
M  V30 10296 O 965.345 1.60035 -1.03892 0
M  V30 10297 C 962.485 2.61756 -2.24896 0
M  V30 10298 C 961.598 2.50302 -3.52098 0
M  V30 10299 C 960.733 3.77338 -3.73884 0
M  V30 10300 C 959.772 3.60613 -4.94595 0
M  V30 10301 N 958.909 4.79603 -5.12763 0
M  V30 10302 H 963.749 0.954352 -2.82305 0
M  V30 10303 H 961.286 0.459928 -1.39725 0
M  V30 10304 H 963.244 3.40082 -2.4166 0
M  V30 10305 H 961.874 2.91668 -1.38311 0
M  V30 10306 H 960.926 1.63401 -3.43517 0
M  V30 10307 H 962.238 2.33866 -4.40577 0
M  V30 10308 H 961.392 4.64108 -3.90754 0
M  V30 10309 H 960.131 3.96702 -2.83689 0
M  V30 10310 H 959.136 2.72228 -4.77674 0
M  V30 10311 H 960.361 3.42719 -5.86277 0
M  V30 10312 H 958.307 4.99277 -4.2551 0
M  V30 10313 H 958.224 4.65899 -5.95377 0
M  V30 10314 H 959.492 5.67794 -5.34069 0
M  V30 10315 N 963.721 1.49897 0.486681 0
M  V30 10316 C 965.137 1.36977 0.819109 0
M  V30 10317 C 965.337 0.41385 1.97204 0
M  V30 10318 O 964.393 -0.149249 2.52059 0
M  V30 10319 C 965.706 2.78013 1.14584 0
M  V30 10320 C 967.254 2.86816 1.25321 0
M  V30 10321 C 967.729 4.28651 1.61316 0
M  V30 10322 N 969.22 4.31528 1.68337 0
M  V30 10323 C 969.955 5.38254 1.97662 0
M  V30 10324 N 969.451 6.55207 2.25113 0
M  V30 10325 N 971.244 5.25683 1.99033 0
M  V30 10326 H 963.395 2.10634 -0.273364 0
M  V30 10327 H 965.658 0.946116 -0.0597418 0
M  V30 10328 H 965.364 3.49728 0.371892 0
M  V30 10329 H 965.238 3.1428 2.08585 0
M  V30 10330 H 967.625 2.15329 2.01785 0
M  V30 10331 H 967.706 2.54112 0.293368 0
M  V30 10332 H 967.35 5.00669 0.853968 0
M  V30 10333 H 967.28 4.5883 2.58424 0
M  V30 10334 H 969.771 3.47189 1.49226 0
M  V30 10335 H 970.084 7.32359 2.46717 0
M  V30 10336 H 968.429 6.58408 2.22538 0
M  V30 10337 H 971.62 4.33316 1.77074 0
M  V30 10338 H 971.793 6.08949 2.21552 0
M  V30 10339 N 965.199 -0.738761 1.39212 0
M  V30 10340 C 966.146 -1.85273 1.37631 0
M  V30 10341 C 967.116 -1.64407 0.236572 0
M  V30 10342 O 968.301 -1.85866 0.431104 0
M  V30 10343 C 965.441 -3.22745 1.22188 0
M  V30 10344 C 964.554 -3.55342 2.45674 0
M  V30 10345 C 963.689 -4.82195 2.22847 0
M  V30 10346 C 962.728 -5.07625 3.42029 0
M  V30 10347 N 961.865 -6.25679 3.18543 0
M  V30 10348 H 966.705 -1.85959 2.32859 0
M  V30 10349 H 964.242 -0.908716 1.15675 0
M  V30 10350 H 966.2 -4.02095 1.11245 0
M  V30 10351 H 964.83 -3.21347 0.30592 0
M  V30 10352 H 963.882 -2.70722 2.67233 0
M  V30 10353 H 965.194 -3.70054 3.34457 0
M  V30 10354 H 964.348 -5.69518 2.09126 0
M  V30 10355 H 963.087 -4.6965 1.31454 0
M  V30 10356 H 962.092 -4.18765 3.56253 0
M  V30 10357 H 963.317 -5.22058 4.34319 0
M  V30 10358 H 961.263 -6.14429 2.2981 0
M  V30 10359 H 961.18 -6.40961 4.0088 0
M  V30 10360 H 962.448 -7.15851 3.08508 0
M  V30 10361 N 966.677 -1.24326 -0.968545 0
M  V30 10362 C 967.925 -1.08032 -1.70803 0
M  V30 10363 C 968.246 0.381728 -1.91227 0
M  V30 10364 O 967.516 1.27253 -1.48942 0
M  V30 10365 H 966.096 -0.396777 -0.632912 0
M  V30 10366 H 968.758 -1.56232 -1.16523 0
M  V30 10367 H 967.854 -1.57769 -2.69287 0
M  V30 10368 N 968.156 1.1691 -1.05688 0
M  V30 10369 C 969.572 1.39288 -0.779167 0
M  V30 10370 C 969.772 1.91587 0.624231 0
M  V30 10371 O 968.828 2.11072 1.38582 0
M  V30 10372 C 970.141 2.37914 -1.83895 0
M  V30 10373 C 971.689 2.51611 -1.86175 0
M  V30 10374 C 972.164 3.53514 -2.9119 0
M  V30 10375 N 973.655 3.61036 -2.90184 0
M  V30 10376 C 974.39 4.39657 -3.68088 0
M  V30 10377 N 973.886 5.21752 -4.55793 0
M  V30 10378 N 975.679 4.3458 -3.56507 0
M  V30 10379 H 967.83 0.81296 -1.96226 0
M  V30 10380 H 970.093 0.419818 -0.849975 0
M  V30 10381 H 969.799 2.06568 -2.84645 0
M  V30 10382 H 969.673 3.37483 -1.68479 0
M  V30 10383 H 972.06 2.82264 -0.86087 0
M  V30 10384 H 972.141 1.52099 -2.05668 0
M  V30 10385 H 971.785 3.23599 -3.91467 0
M  V30 10386 H 971.715 4.52742 -2.68947 0
M  V30 10387 H 974.206 3.02428 -2.26596 0
M  V30 10388 H 974.519 5.78939 -5.11907 0
M  V30 10389 H 972.864 5.21116 -4.59851 0
M  V30 10390 H 976.055 3.69501 -2.87379 0
M  V30 10391 H 976.228 4.95607 -4.17466 0
M  V30 10392 N 969.634 0.838594 1.33437 0
M  V30 10393 C 970.88 0.434813 1.98084 0
M  V30 10394 C 971.213 -1.00331 1.66275 0
M  V30 10395 O 970.488 -1.70139 0.942501 0
M  V30 10396 C 970.771 0.655602 3.54082 0
M  V30 10397 C 970.624 2.14097 3.95578 0
M  V30 10398 C 971.943 0.101576 4.39983 0
M  V30 10399 H 969.062 0.159456 0.719544 0
M  V30 10400 H 971.704 1.05406 1.58081 0
M  V30 10401 H 969.854 0.128501 3.88287 0
M  V30 10402 H 971.526 2.73292 3.71631 0
M  V30 10403 H 969.769 2.62558 3.4532 0
M  V30 10404 H 970.44 2.24621 5.04231 0
M  V30 10405 H 972.916 0.552122 4.12421 0
M  V30 10406 H 971.792 0.28575 5.48156 0
M  V30 10407 H 972.053 -0.994616 4.30767 0
M  V30 10408 N 971.112 -1.45937 0.595003 0
M  V30 10409 C 972.36 -2.01921 0.0851368 0
M  V30 10410 C 972.681 -1.46748 -1.28413 0
M  V30 10411 O 971.951 -0.656873 -1.84559 0
M  V30 10412 H 970.531 -0.746457 0.0284826 0
M  V30 10413 H 973.193 -1.78891 0.773561 0
M  V30 10414 H 972.289 -3.1209 0.0254002 0
M  V30 10415 N 972.59 -0.333456 -1.54032 0
M  V30 10416 C 974.001 0.15256 -1.86076 0
M  V30 10417 C 974.352 1.50819 -1.25492 0
M  V30 10418 O 973.477 2.08903 -0.564665 0
M  V30 10419 C 974.072 0.283599 -3.37611 0
M  V30 10420 C 972.631 0.713841 -3.69569 0
M  V30 10421 C 971.778 -0.158515 -2.76847 0
M  V30 10422 H 974.729 -0.553404 -1.48738 0
M  V30 10423 H 974.75 1.11284 -3.63863 0
M  V30 10424 H 974.262 -0.703193 -3.81676 0
M  V30 10425 H 972.363 1.71002 -3.31042 0
M  V30 10426 H 972.476 0.510731 -4.7637 0
M  V30 10427 H 970.84 0.367531 -2.52034 0
M  V30 10428 H 971.623 -1.14226 -3.2374 0
M  V30 10429 N 974.068 1.57479 -0.061844 0
M  V30 10430 C 974.998 2.15181 0.9066 0
M  V30 10431 C 975.979 1.07624 1.31724 0
M  V30 10432 O 977.164 1.35614 1.39006 0
M  V30 10433 C 974.294 2.70542 2.17771 0
M  V30 10434 C 973.248 3.83178 1.9068 0
M  V30 10435 C 972.574 4.25099 3.24337 0
M  V30 10436 C 973.874 5.07853 1.21994 0
M  V30 10437 H 975.568 2.96355 0.42594 0
M  V30 10438 H 973.114 1.42556 0.203435 0
M  V30 10439 H 975.067 3.09552 2.85929 0
M  V30 10440 H 973.791 1.86575 2.68062 0
M  V30 10441 H 972.45 3.44656 1.24931 0
M  V30 10442 H 972.098 3.38069 3.72449 0
M  V30 10443 H 971.798 5.01021 3.07005 0
M  V30 10444 H 973.322 4.66718 3.93709 0
M  V30 10445 H 974.736 5.44242 1.80204 0
M  V30 10446 H 973.133 5.88987 1.14954 0
M  V30 10447 H 974.203 4.84497 0.197536 0
M  V30 10448 N 975.546 -0.211634 1.56173 0
M  V30 10449 C 976.476 -1.26533 1.96244 0
M  V30 10450 C 977.457 -1.48362 0.832028 0
M  V30 10451 O 978.642 -1.60378 1.0951 0
M  V30 10452 C 975.772 -2.61307 2.2877 0
M  V30 10453 C 974.726 -2.54119 3.44395 0
M  V30 10454 C 974.052 -3.93014 3.62552 0
M  V30 10455 C 975.352 -2.08046 4.79076 0
M  V30 10456 H 977.046 -0.932407 2.84511 0
M  V30 10457 H 974.592 -0.447084 1.36884 0
M  V30 10458 H 976.545 -3.35188 2.55396 0
M  V30 10459 H 975.269 -2.96307 1.37367 0
M  V30 10460 H 973.928 -1.82694 3.17834 0
M  V30 10461 H 973.576 -4.25338 2.68508 0
M  V30 10462 H 973.276 -3.89083 4.40327 0
M  V30 10463 H 974.8 -4.68542 3.91537 0
M  V30 10464 H 976.214 -2.71676 5.04842 0
M  V30 10465 H 974.611 -2.15154 5.60204 0
M  V30 10466 H 975.681 -1.03306 4.73768 0
M  V30 10467 N 977.024 -1.50153 -0.478725 0
M  V30 10468 C 977.987 -1.67916 -1.56003 0
M  V30 10469 C 978.987 -0.550111 -1.51097 0
M  V30 10470 O 980.177 -0.817001 -1.53853 0
M  V30 10471 C 977.309 -1.6973 -2.95643 0
M  V30 10472 H 978.502 -2.6438 -1.41573 0
M  V30 10473 H 976.055 -1.39519 -0.704565 0
M  V30 10474 H 976.79 -0.749306 -3.15525 0
M  V30 10475 H 976.575 -2.51745 -3.00611 0
M  V30 10476 H 978.065 -1.85453 -3.74162 0
M  V30 10477 N 978.502 0.731368 -1.39602 0
M  V30 10478 C 979.742 1.5036 -1.3846 0
M  V30 10479 C 980.106 1.91991 0.018784 0
M  V30 10480 O 981.307 2.68351 0.155236 0
M  V30 10481 C 979.578 2.70755 -2.33295 0
M  V30 10482 S 981.137 3.6036 -2.50372 0
M  V30 10483 H 977.955 0.514271 -0.490964 0
M  V30 10484 H 980.557 0.856654 -1.75732 0
M  V30 10485 H 979.261 2.38316 -3.34116 0
M  V30 10486 H 978.792 3.40376 -1.97251 0
M  V30 10487 H 980.807 4.64529 -1.74435 0
M  V30 10488 N 979.98 1.24838 0.961938 0
M  V30 10489 C 981.229 1.0855 1.69999 0
M  V30 10490 C 981.542 -0.374645 1.91979 0
M  V30 10491 O 982.748 -0.657822 2.6341 0
M  V30 10492 C 981.204 1.89424 3.06017 0
M  V30 10493 C 980.812 3.39885 2.9186 0
M  V30 10494 C 982.556 1.81684 3.83655 0
M  V30 10495 C 980.463 4.13082 4.23223 0
M  V30 10496 H 979.393 0.402603 0.637516 0
M  V30 10497 H 982.044 1.4897 1.07146 0
M  V30 10498 H 980.426 1.41823 3.69733 0
M  V30 10499 H 981.6 3.95108 2.37121 0
M  V30 10500 H 979.915 3.4864 2.27683 0
M  V30 10501 H 982.512 2.3367 4.80939 0
M  V30 10502 H 982.855 0.783247 4.08865 0
M  V30 10503 H 983.388 2.26997 3.26676 0
M  V30 10504 H 980.127 5.16824 4.03204 0
M  V30 10505 H 979.647 3.62644 4.77755 0
M  V30 10506 H 981.326 4.20397 4.91808 0
M  V30 10507 N 981.458 -1.16348 1.06306 0
M  V30 10508 C 982.707 -1.8622 0.774909 0
M  V30 10509 C 983.02 -1.82598 -0.701245 0
M  V30 10510 O 984.226 -2.48051 -1.10377 0
M  V30 10511 C 982.682 -3.34182 1.33604 0
M  V30 10512 C 982.29 -3.46279 2.84245 0
M  V30 10513 C 984.034 -4.09309 1.12544 0
M  V30 10514 C 981.941 -4.88327 3.33602 0
M  V30 10515 H 980.871 -0.697574 0.286194 0
M  V30 10516 H 983.522 -1.31311 1.28179 0
M  V30 10517 H 981.904 -3.88698 0.756937 0
M  V30 10518 H 983.078 -3.01923 3.48108 0
M  V30 10519 H 981.393 -2.84585 3.03974 0
M  V30 10520 H 983.99 -5.14123 1.46909 0
M  V30 10521 H 984.333 -4.16251 0.0638129 0
M  V30 10522 H 984.866 -3.61032 1.67034 0
M  V30 10523 H 981.605 -4.86565 4.39244 0
M  V30 10524 H 981.125 -5.33307 2.74487 0
M  V30 10525 H 982.804 -5.57144 3.28937 0
M  V30 10526 N 982.937 -0.845659 -1.3299 0
M  V30 10527 C 984.185 -0.443774 -1.97168 0
M  V30 10528 C 984.506 1.00192 -1.67292 0
M  V30 10529 O 983.776 1.69891 -0.975397 0
M  V30 10530 H 982.356 -0.161111 -0.729419 0
M  V30 10531 H 985.018 -1.08011 -1.62233 0
M  V30 10532 H 984.114 -0.581414 -3.06637 0
M  V30 10533 N 984.415 1.45619 -0.602734 0
M  V30 10534 C 985.643 2.06647 -0.102253 0
M  V30 10535 C 986.058 1.4482 1.21131 0
M  V30 10536 O 985.415 0.560621 1.73676 0
M  V30 10537 C 985.466 3.61467 0.0490113 0
M  V30 10538 O 985.187 4.20985 -1.21257 0
M  V30 10539 C 986.688 4.39469 0.581517 0
M  V30 10540 H 983.908 0.667685 -0.0666155 0
M  V30 10541 H 986.452 1.86939 -0.829091 0
M  V30 10542 H 984.607 3.80534 0.726153 0
M  V30 10543 H 985.021 5.14103 -1.03915 0
M  V30 10544 H 986.495 5.48318 0.636462 0
M  V30 10545 H 986.972 4.0891 1.60277 0
M  V30 10546 H 987.578 4.25256 -0.061419 0
M  V30 10547 N 985.893 0.34162 1.53853 0
M  V30 10548 C 986.825 -0.550383 2.22494 0
M  V30 10549 C 987.838 -1.0655 1.23089 0
M  V30 10550 O 989.027 -0.975985 1.49455 0
M  V30 10551 C 986.127 -1.76995 2.89009 0
M  V30 10552 C 985.3 -1.39045 4.14711 0
M  V30 10553 C 984.359 -2.46947 4.64654 0
M  V30 10554 O 983.385 -2.10336 5.28912 0
M  V30 10555 N 984.587 -3.7817 4.40418 0
M  V30 10556 H 987.352 0.037456 2.99677 0
M  V30 10557 H 984.913 0.165654 1.6105 0
M  V30 10558 H 986.905 -2.48608 3.19337 0
M  V30 10559 H 985.475 -2.2652 2.15424 0
M  V30 10560 H 984.695 -0.505161 3.9095 0
M  V30 10561 H 985.983 -1.11284 4.96481 0
M  V30 10562 H 985.381 -4.10704 3.89023 0
M  V30 10563 H 983.938 -4.45959 4.75356 0
M  V30 10564 N 987.371 -1.57444 0.0701946 0
M  V30 10565 C 988.618 -1.93429 -0.59929 0
M  V30 10566 C 988.946 -0.9501 -1.69715 0
M  V30 10567 O 988.201 0.0345377 -1.9567 0
M  V30 10568 C 988.5 -3.36044 -1.21694 0
M  V30 10569 C 988.166 -4.50232 -0.245374 0
M  V30 10570 C 986.828 -4.81195 0.0219161 0
M  V30 10571 C 989.18 -5.1951 0.419396 0
M  V30 10572 C 986.508 -5.78775 0.96109 0
M  V30 10573 C 988.86 -6.18095 1.34688 0
M  V30 10574 C 987.524 -6.47477 1.62265 0
M  V30 10575 H 986.794 -0.707807 -0.219296 0
M  V30 10576 H 989.441 -1.90982 0.14073 0
M  V30 10577 H 987.746 -3.34948 -2.03265 0
M  V30 10578 H 989.443 -3.61176 -1.74221 0
M  V30 10579 H 986.033 -4.26082 -0.463887 0
M  V30 10580 H 990.217 -4.95785 0.226009 0
M  V30 10581 H 985.473 -5.99865 1.18202 0
M  V30 10582 H 989.647 -6.7088 1.86795 0
M  V30 10583 H 987.274 -7.229 2.352 0
M  V30 10584 N 988.849 0.203349 -1.56283 0
M  V30 10585 C 990.265 0.55384 -1.49682 0
M  V30 10586 C 990.465 1.86261 -0.768701 0
M  V30 10587 O 989.521 2.50517 -0.315824 0
M  V30 10588 C 990.834 0.616216 -2.94318 0
M  V30 10589 C 992.382 0.705611 -3.04943 0
M  V30 10590 C 992.857 0.79917 -4.50974 0
M  V30 10591 N 994.348 0.862916 -4.55091 0
M  V30 10592 C 995.083 0.955334 -5.65386 0
M  V30 10593 N 994.579 1.01057 -6.8539 0
M  V30 10594 N 996.372 0.991884 -5.53279 0
M  V30 10595 H 988.523 -0.655244 -2.0204 0
M  V30 10596 H 990.786 -0.232344 -0.919087 0
M  V30 10597 H 990.492 -0.27619 -3.50614 0
M  V30 10598 H 990.366 1.47371 -3.4722 0
M  V30 10599 H 992.753 1.58845 -2.48701 0
M  V30 10600 H 992.834 -0.177921 -2.5518 0
M  V30 10601 H 992.478 -0.0792841 -5.07838 0
M  V30 10602 H 992.408 1.69838 -4.9846 0
M  V30 10603 H 994.899 0.829812 -3.68677 0
M  V30 10604 H 995.212 1.08137 -7.65197 0
M  V30 10605 H 993.557 0.979384 -6.88065 0
M  V30 10606 H 996.748 0.945514 -4.58451 0
M  V30 10607 H 996.921 1.06045 -6.39264 0
M  V30 10608 N 990.327 1.50405 0.470755 0
M  V30 10609 C 991.274 1.69293 1.56871 0
M  V30 10610 C 992.244 0.534248 1.57274 0
M  V30 10611 O 993.429 0.764855 1.74799 0
M  V30 10612 C 990.569 1.79338 2.94842 0
M  V30 10613 C 989.682 3.06709 3.04226 0
M  V30 10614 C 988.817 3.07548 4.33114 0
M  V30 10615 C 987.856 4.29372 4.36241 0
M  V30 10616 N 986.993 4.27949 5.56601 0
M  V30 10617 H 991.833 2.63029 1.40071 0
M  V30 10618 H 989.37 1.30386 0.681016 0
M  V30 10619 H 991.328 1.83143 3.74853 0
M  V30 10620 H 989.958 0.890411 3.10277 0
M  V30 10621 H 989.01 3.12374 2.17086 0
M  V30 10622 H 990.322 3.96684 3.02396 0
M  V30 10623 H 989.476 3.10084 5.21472 0
M  V30 10624 H 988.215 2.15404 4.37553 0
M  V30 10625 H 987.22 4.27048 3.4628 0
M  V30 10626 H 988.445 5.22743 4.33493 0
M  V30 10627 H 986.391 3.38658 5.61824 0
M  V30 10628 H 986.308 5.11692 5.56513 0
M  V30 10629 H 987.576 4.34631 6.47083 0
M  V30 10630 N 991.805 -0.723954 1.39988 0
M  V30 10631 C 992.735 -1.85103 1.42335 0
M  V30 10632 C 993.716 -1.6769 0.285297 0
M  V30 10633 O 994.901 -1.87846 0.492716 0
M  V30 10634 C 992.031 -3.22972 1.27697 0
M  V30 10635 C 990.985 -3.55041 2.39018 0
M  V30 10636 C 990.311 -4.91965 2.09462 0
M  V30 10637 C 991.611 -3.56889 3.8135 0
M  V30 10638 H 993.305 -1.83396 2.36656 0
M  V30 10639 H 990.851 -0.880926 1.13911 0
M  V30 10640 H 992.804 -4.01503 1.27958 0
M  V30 10641 H 991.528 -3.25233 0.298487 0
M  V30 10642 H 990.187 -2.78845 2.37993 0
M  V30 10643 H 989.835 -4.90819 1.10025 0
M  V30 10644 H 989.535 -5.14389 2.84038 0
M  V30 10645 H 991.059 -5.7284 2.11391 0
M  V30 10646 H 992.473 -4.25476 3.84243 0
M  V30 10647 H 990.87 -3.90836 4.55376 0
M  V30 10648 H 991.94 -2.56452 4.11534 0
M  V30 10649 N 993.283 -1.25346 -0.955304 0
M  V30 10650 C 994.699 -1.02154 -1.22625 0
M  V30 10651 C 994.899 0.26206 -1.99789 0
M  V30 10652 O 993.955 0.974958 -2.32918 0
M  V30 10653 C 995.268 -2.2443 -2.00129 0
M  V30 10654 C 996.816 -2.29185 -2.13174 0
M  V30 10655 C 997.291 -3.51117 -2.94077 0
M  V30 10656 N 998.782 -3.51509 -3.01655 0
M  V30 10657 C 999.517 -4.42517 -3.64645 0
M  V30 10658 N 999.013 -5.43796 -4.29252 0
M  V30 10659 N 1000.81 -4.302 -3.61779 0
M  V30 10660 H 992.957 -2.07812 -0.439071 0
M  V30 10661 H 995.22 -0.91258 -0.256715 0
M  V30 10662 H 994.926 -3.17717 -1.50827 0
M  V30 10663 H 994.8 -2.27548 -3.00835 0
M  V30 10664 H 997.187 -1.36422 -2.61674 0
M  V30 10665 H 997.268 -2.30087 -1.11775 0
M  V30 10666 H 996.912 -4.44201 -2.46268 0
M  V30 10667 H 996.842 -3.4746 -3.95701 0
M  V30 10668 H 999.333 -2.78245 -2.55711 0
M  V30 10669 H 999.646 -6.09453 -4.75171 0
M  V30 10670 H 997.991 -5.4767 -4.27882 0
M  V30 10671 H 1001.18 -3.50304 -3.10491 0
M  V30 10672 H 1001.36 -5.01323 -4.10584 0
M  V30 10673 N 994.761 1.15782 -1.06922 0
M  V30 10674 C 996.038 1.8253 -0.703 0
M  V30 10675 C 996.418 1.94733 0.814994 0
M  V30 10676 O 995.766 1.49537 1.72774 0
M  V30 10677 C 995.976 3.19145 -1.41234 0
M  V30 10678 C 997.324 3.94839 -1.56164 0
M  V30 10679 O 998.348 3.28685 -1.37277 0
M  V30 10680 O 997.207 5.13436 -1.87205 0
M  V30 10681 H 994.301 0.788425 -0.24963 0
M  V30 10682 H 996.847 1.22931 -1.16988 0
M  V30 10683 H 995.619 3.05336 -2.44715 0
M  V30 10684 H 995.242 3.86427 -0.935959 0
M  V30 10685 N 996.239 0.8527 1.3254 0
M  V30 10686 C 997.487 0.454224 1.96929 0
M  V30 10687 C 997.808 -0.993034 1.67821 0
M  V30 10688 O 997.078 -1.69371 0.984393 0
M  V30 10689 H 995.658 0.164977 0.728554 0
M  V30 10690 H 998.32 1.0887 1.61658 0
M  V30 10691 H 997.416 0.597667 3.06324 0
M  V30 10692 N 997.718 -1.45297 0.610449 0
M  V30 10693 C 998.995 -1.95562 0.0386189 0
M  V30 10694 C 999.375 -1.55284 -1.43004 0
M  V30 10695 O 998.723 -0.816785 -2.13403 0
M  V30 10696 C 998.933 -3.48176 0.239731 0
M  V30 10697 C 1000.28 -4.24425 0.122035 0
M  V30 10698 O 1001.3 -3.55794 0.170003 0
M  V30 10699 O 1000.16 -5.46499 0.00953695 0
M  V30 10700 H 997.258 -0.826296 -0.0341081 0
M  V30 10701 H 999.804 -1.55449 0.68071 0
M  V30 10702 H 998.576 -3.70471 1.25963 0
M  V30 10703 H 998.199 -3.95186 -0.437486 0
M  V30 10704 N 999.196 -0.349774 -1.5367 0
M  V30 10705 C 1000.61 0.00191293 -1.596 0
M  V30 10706 C 1000.81 1.48175 -1.36552 0
M  V30 10707 O 999.868 2.24129 -1.16285 0
M  V30 10708 C 1001.18 -0.439848 -2.97466 0
M  V30 10709 C 1002.73 -0.392721 -3.10526 0
M  V30 10710 C 1003.2 -0.810047 -4.5078 0
M  V30 10711 N 1004.69 -0.764478 -4.56848 0
M  V30 10712 C 1005.43 -1.05927 -5.63531 0
M  V30 10713 N 1004.93 -1.42253 -6.78038 0
M  V30 10714 N 1006.72 -0.983098 -5.53436 0
M  V30 10715 H 998.87 -1.31364 -1.66905 0
M  V30 10716 H 1001.13 -0.535908 -0.781989 0
M  V30 10717 H 1000.84 -1.47189 -3.19419 0
M  V30 10718 H 1000.71 0.181735 -3.76762 0
M  V30 10719 H 1003.1 0.630161 -2.88293 0
M  V30 10720 H 1003.18 -1.04959 -2.33275 0
M  V30 10721 H 1002.82 -1.83097 -4.73749 0
M  V30 10722 H 1002.75 -0.130591 -5.26438 0
M  V30 10723 H 1005.25 -0.496637 -3.74622 0
M  V30 10724 H 1005.56 -1.63215 -7.55368 0
M  V30 10725 H 1003.9 -1.46104 -6.79469 0
M  V30 10726 H 1007.09 -0.698601 -4.62858 0
M  V30 10727 H 1007.27 -1.21618 -6.36485 0
M  V30 10728 N 1000.67 1.57404 -0.0785433 0
M  V30 10729 C 1001.92 1.93744 0.589024 0
M  V30 10730 C 1002.25 0.959087 1.69209 0
M  V30 10731 O 1001.5 -0.0241604 1.95685 0
M  V30 10732 C 1001.8 3.36684 1.1991 0
M  V30 10733 C 1001.47 4.50356 0.221493 0
M  V30 10734 C 1000.13 4.81177 -0.0474347 0
M  V30 10735 C 1002.48 5.1928 -0.446941 0
M  V30 10736 C 999.811 5.78257 -0.99177 0
M  V30 10737 C 1002.16 6.17372 -1.37964 0
M  V30 10738 C 1000.83 6.46607 -1.65697 0
M  V30 10739 H 1000.1 0.70896 0.215539 0
M  V30 10740 H 1002.74 1.90905 -0.150856 0
M  V30 10741 H 1001.05 3.36022 2.01486 0
M  V30 10742 H 1002.75 3.62095 1.72303 0
M  V30 10743 H 999.336 4.26322 0.441284 0
M  V30 10744 H 1003.52 4.95658 -0.252298 0
M  V30 10745 H 998.776 5.9923 -1.21381 0
M  V30 10746 H 1002.95 6.6988 -1.9035 0
M  V30 10747 H 1000.58 7.21643 -2.39031 0
M  V30 10748 N 1002.15 -0.195058 1.56388 0
M  V30 10749 C 1003.4 -0.912248 1.81795 0
M  V30 10750 C 1003.75 -1.80886 0.655596 0
M  V30 10751 O 1003.05 -1.88391 -0.34922 0
M  V30 10752 C 1003.24 -1.7637 3.10851 0
M  V30 10753 C 1003.07 -0.951012 4.39529 0
M  V30 10754 C 1001.84 -0.635425 5.01289 0
M  V30 10755 C 1004.04 -0.303702 5.13403 0
M  V30 10756 N 1002.02 0.195887 6.13587 0
M  V30 10757 C 1003.39 0.38981 6.18773 0
M  V30 10758 C 1005.44 -0.219433 4.97416 0
M  V30 10759 C 1004.15 1.15957 7.09892 0
M  V30 10760 C 1006.17 0.536925 5.88958 0
M  V30 10761 C 1005.54 1.21888 6.93774 0
M  V30 10762 H 1001.63 -0.313208 0.716537 0
M  V30 10763 H 1004.22 -0.180977 1.93857 0
M  V30 10764 H 1002.39 -2.46657 3.00025 0
M  V30 10765 H 1004.12 -2.42037 3.24346 0
M  V30 10766 H 1000.88 -0.959855 4.63771 0
M  V30 10767 H 1001.3 0.601155 6.74326 0
M  V30 10768 H 1005.94 -0.732323 4.16409 0
M  V30 10769 H 1003.66 1.68389 7.90361 0
M  V30 10770 H 1007.25 0.603485 5.78662 0
M  V30 10771 H 1006.13 1.79478 7.63385 0
M  V30 10772 N 1003.63 -1.50653 -0.462772 0
M  V30 10773 C 1004.88 -1.63264 -1.21311 0
M  V30 10774 C 1005.23 -0.332647 -1.89503 0
M  V30 10775 O 1004.52 0.669994 -1.79504 0
M  V30 10776 C 1004.72 -2.75637 -2.27507 0
M  V30 10777 C 1004.55 -4.16438 -1.69734 0
M  V30 10778 C 1003.32 -4.82727 -1.49341 0
M  V30 10779 C 1005.51 -5.00399 -1.18765 0
M  V30 10780 N 1003.5 -6.07718 -0.868991 0
M  V30 10781 C 1004.87 -6.16182 -0.68697 0
M  V30 10782 C 1006.92 -4.86112 -1.07699 0
M  V30 10783 C 1005.63 -7.19248 -0.0865268 0
M  V30 10784 C 1007.65 -5.89363 -0.490473 0
M  V30 10785 C 1007.01 -7.044 -0.000208479 0
M  V30 10786 H 1003.11 -0.651518 -0.432491 0
M  V30 10787 H 1005.7 -1.878 -0.51375 0
M  V30 10788 H 1003.87 -2.52809 -2.9486 0
M  V30 10789 H 1005.6 -2.77562 -2.94519 0
M  V30 10790 H 1002.35 -4.40161 -1.74801 0
M  V30 10791 H 1002.78 -6.74554 -0.574957 0
M  V30 10792 H 1007.42 -3.97452 -1.44194 0
M  V30 10793 H 1005.14 -8.07577 0.290614 0
M  V30 10794 H 1008.72 -5.80374 -0.407099 0
M  V30 10795 H 1007.6 -7.82928 0.44652 0
M  V30 10796 N 1005.11 0.71652 -1.4037 0
M  V30 10797 C 1006.02 1.86074 -1.42876 0
M  V30 10798 C 1007.03 1.71005 -0.321475 0
M  V30 10799 O 1008.21 1.93286 -0.565909 0
M  V30 10800 C 1005.28 3.21862 -1.28863 0
M  V30 10801 C 1004.34 3.49193 -2.49726 0
M  V30 10802 C 1003.57 4.78502 -2.36372 0
M  V30 10803 O 1003.79 5.53529 -1.37703 0
M  V30 10804 O 1002.73 5.06147 -3.25728 0
M  V30 10805 H 1006.55 1.86916 -2.39366 0
M  V30 10806 H 1004.14 0.866818 -1.21683 0
M  V30 10807 H 1006.02 4.02972 -1.23253 0
M  V30 10808 H 1004.69 3.2175 -0.354783 0
M  V30 10809 H 1003.6 2.68095 -2.60913 0
M  V30 10810 H 1004.93 3.54101 -3.41868 0
M  V30 10811 N 1006.59 1.25851 0.948643 0
M  V30 10812 C 1007.53 1.06559 2.06756 0
M  V30 10813 C 1008.53 -0.00528632 1.69399 0
M  V30 10814 O 1009.73 0.150806 1.79367 0
M  V30 10815 H 1006.11 0.327689 0.676848 0
M  V30 10816 H 1008.08 2.01401 2.20182 0
M  V30 10817 C 1006.83 0.707392 3.40428 0
M  V30 10818 H 1006.15 1.52324 3.69645 0
M  V30 10819 H 1007.59 0.612142 4.19558 0
M  V30 10820 C 1006.05 -0.58697 3.31747 0
M  V30 10821 O 1006.58 -1.62741 3.67258 0
M  V30 10822 N 1004.79 -0.574828 2.84858 0
M  V30 10823 H 1004.33 0.272236 2.56157 0
M  V30 10824 H 1004.29 -1.441 2.79432 0
M  V30 10825 N 1008.06 -1.15214 1.07534 0
M  V30 10826 C 1008.97 -2.23636 0.708818 0
M  V30 10827 C 1009.99 -1.7172 -0.280759 0
M  V30 10828 O 1011.17 -2.01 -0.126927 0
M  V30 10829 C 1008.23 -3.46512 0.114167 0
M  V30 10830 C 1007.29 -4.13409 1.15722 0
M  V30 10831 C 1006.53 -5.30419 0.59085 0
M  V30 10832 O 1006.75 -5.67314 -0.592512 0
M  V30 10833 O 1005.68 -5.86871 1.33663 0
M  V30 10834 H 1009.51 -2.57322 1.61305 0
M  V30 10835 H 1007.09 -1.22972 0.848422 0
M  V30 10836 H 1008.98 -4.20851 -0.215091 0
M  V30 10837 H 1007.65 -3.1457 -0.763356 0
M  V30 10838 H 1006.56 -3.40984 1.53886 0
M  V30 10839 H 1007.89 -4.49435 2.00671 0
M  V30 10840 N 1009.54 -0.859717 -1.32086 0
M  V30 10841 C 1010.79 -0.464662 -1.96686 0
M  V30 10842 C 1011.11 0.98412 -1.68345 0
M  V30 10843 O 1010.38 1.68847 -0.993361 0
M  V30 10844 H 1008.96 -0.168838 -0.727669 0
M  V30 10845 H 1011.62 -1.09726 -1.61079 0
M  V30 10846 H 1010.72 -0.613904 -3.06003 0
M  V30 10847 N 1011.02 1.44971 -0.618145 0
M  V30 10848 C 1012.27 2.02458 -0.117656 0
M  V30 10849 C 1012.6 1.48413 1.25248 0
M  V30 10850 O 1011.87 0.662997 1.82851 0
M  V30 10851 C 1012.16 3.59987 -0.0901897 0
M  V30 10852 C 1012.01 4.24343 -1.49175 0
M  V30 10853 C 1013.33 4.36099 0.592121 0
M  V30 10854 H 1010.45 0.735672 -0.0442291 0
M  V30 10855 H 1013.09 1.727 -0.792138 0
M  V30 10856 H 1011.24 3.85471 0.484175 0
M  V30 10857 H 1012.91 4.10009 -2.114 0
M  V30 10858 H 1011.16 3.82337 -2.04941 0
M  V30 10859 H 1011.83 5.33298 -1.42468 0
M  V30 10860 H 1014.3 4.1597 0.103813 0
M  V30 10861 H 1013.18 5.45822 0.580481 0
M  V30 10862 H 1013.44 4.09746 1.66015 0
M  V30 10863 N 1012.5 0.357919 1.53482 0
M  V30 10864 C 1013.75 -0.234163 2.01142 0
M  V30 10865 C 1014.07 -1.49399 1.2454 0
M  V30 10866 O 1013.33 -1.92981 0.325111 0
M  V30 10867 C 1013.63 -0.579617 3.52669 0
M  V30 10868 C 1013.29 0.584988 4.47089 0
M  V30 10869 C 1011.96 0.904558 4.72622 0
M  V30 10870 C 1014.31 1.3656 5.02992 0
M  V30 10871 C 1011.64 2.00685 5.5131 0
M  V30 10872 C 1013.99 2.45824 5.82884 0
M  V30 10873 C 1012.65 2.78325 6.06706 0
M  V30 10874 H 1011.92 -0.0856863 0.736029 0
M  V30 10875 H 1014.57 0.488801 1.85157 0
M  V30 10876 H 1012.87 -1.38349 3.66561 0
M  V30 10877 H 1014.57 -1.04985 3.87013 0
M  V30 10878 H 1011.16 0.32587 4.27359 0
M  V30 10879 H 1015.34 1.13196 4.83219 0
M  V30 10880 H 1010.6 2.26272 5.67988 0
M  V30 10881 H 1014.77 3.06732 6.25211 0
M  V30 10882 H 1012.4 3.63862 6.67464 0
M  V30 10883 N 1013.98 -1.5736 0.0868897 0
M  V30 10884 C 1015.2 -1.98809 -0.590757 0
M  V30 10885 C 1015.63 -0.965407 -1.61436 0
M  V30 10886 O 1014.98 0.067143 -1.81176 0
M  V30 10887 C 1015.03 -3.39249 -1.22238 0
M  V30 10888 O 1014.14 -3.39706 -2.33824 0
M  V30 10889 H 1013.48 -0.64669 -0.150626 0
M  V30 10890 H 1016.01 -2.03927 0.165873 0
M  V30 10891 H 1016.02 -3.76765 -1.56564 0
M  V30 10892 H 1014.69 -4.13208 -0.472434 0
M  V30 10893 H 1013.27 -3.13977 -2.01178 0
M  V30 10894 N 1015.45 0.186762 -1.56489 0
M  V30 10895 C 1016.39 1.25971 -1.9028 0
M  V30 10896 C 1017.37 1.43543 -0.763822 0
M  V30 10897 O 1018.55 1.58799 -1.01564 0
M  V30 10898 C 1015.68 2.62507 -2.14028 0
M  V30 10899 C 1014.72 2.61758 -3.36727 0
M  V30 10900 S 1015.56 2.12366 -4.9159 0
M  V30 10901 C 1016.71 3.5071 -5.18414 0
M  V30 10902 H 1016.94 0.971203 -2.80989 0
M  V30 10903 H 1014.48 0.390636 -1.49377 0
M  V30 10904 H 1016.44 3.41098 -2.28391 0
M  V30 10905 H 1015.1 2.88564 -1.24054 0
M  V30 10906 H 1014.29 3.62173 -3.50495 0
M  V30 10907 H 1013.89 1.91254 -3.214 0
M  V30 10908 H 1016.18 4.46622 -5.09445 0
M  V30 10909 H 1017.13 3.41829 -6.20128 0
M  V30 10910 H 1017.53 3.46008 -4.46026 0
M  V30 10911 N 1016.93 1.50896 0.454776 0
M  V30 10912 C 1017.86 1.6712 1.56855 0
M  V30 10913 C 1018.88 0.552223 1.53148 0
M  V30 10914 O 1020.07 0.825969 1.5824 0
M  V30 10915 C 1017.17 1.65464 2.95762 0
M  V30 10916 C 1016.34 2.93662 3.24163 0
M  V30 10917 C 1015.4 2.84428 4.42704 0
M  V30 10918 O 1014.42 3.58382 4.42211 0
M  V30 10919 N 1015.63 1.9909 5.45292 0
M  V30 10920 H 1018.39 2.63194 1.43349 0
M  V30 10921 H 1015.95 1.48564 0.643457 0
M  V30 10922 H 1017.94 1.56878 3.73057 0
M  V30 10923 H 1016.51 0.770568 3.02954 0
M  V30 10924 H 1015.73 3.16251 2.35328 0
M  V30 10925 H 1017.02 3.78558 3.39957 0
M  V30 10926 H 1016.42 1.3835 5.48521 0
M  V30 10927 H 1014.98 1.96396 6.21508 0
M  V30 10928 N 1018.41 -0.709066 1.40748 0
M  V30 10929 C 1019.34 -1.83412 1.37451 0
M  V30 10930 C 1020.36 -1.60394 0.27884 0
M  V30 10931 O 1021.54 -1.70147 0.539642 0
M  V30 10932 C 1018.64 -3.19935 1.1178 0
M  V30 10933 C 1017.82 -3.70095 2.33128 0
M  V30 10934 C 1016.88 -4.85249 2.03518 0
M  V30 10935 O 1015.9 -4.97563 2.76442 0
M  V30 10936 N 1017.1 -5.7152 1.01714 0
M  V30 10937 H 1019.87 -1.86736 2.34414 0
M  V30 10938 H 1017.43 -0.890863 1.35186 0
M  V30 10939 H 1019.42 -3.94578 0.899464 0
M  V30 10940 H 1017.99 -3.11718 0.234624 0
M  V30 10941 H 1017.21 -2.8651 2.70751 0
M  V30 10942 H 1018.5 -4.00344 3.1401 0
M  V30 10943 H 1017.9 -5.64188 0.413307 0
M  V30 10944 H 1016.46 -6.46119 0.858696 0
M  V30 10945 N 1019.89 -1.26353 -0.941956 0
M  V30 10946 C 1021.31 -1.03448 -1.21534 0
M  V30 10947 C 1021.51 0.240855 -2.00055 0
M  V30 10948 O 1020.56 0.950199 -2.33939 0
M  V30 10949 C 1021.87 -2.2654 -1.97737 0
M  V30 10950 C 1023.42 -2.31433 -2.10731 0
M  V30 10951 C 1023.9 -3.54216 -2.90336 0
M  V30 10952 N 1025.39 -3.54688 -2.9791 0
M  V30 10953 C 1026.12 -4.4636 -3.59931 0
M  V30 10954 N 1025.62 -5.48319 -4.2346 0
M  V30 10955 N 1027.41 -4.34013 -3.57196 0
M  V30 10956 H 1019.56 -2.08266 -0.417005 0
M  V30 10957 H 1021.83 -0.915251 -0.247021 0
M  V30 10958 H 1021.53 -3.19299 -1.47449 0
M  V30 10959 H 1021.41 -2.30726 -2.98405 0
M  V30 10960 H 1023.79 -1.3919 -2.60212 0
M  V30 10961 H 1023.87 -2.31259 -1.09329 0
M  V30 10962 H 1023.52 -4.46788 -2.41543 0
M  V30 10963 H 1023.45 -3.51637 -3.91993 0
M  V30 10964 H 1025.94 -2.80942 -2.52745 0
M  V30 10965 H 1026.25 -6.14458 -4.6868 0
M  V30 10966 H 1024.6 -5.52177 -4.22049 0
M  V30 10967 H 1027.79 -3.53578 -3.06758 0
M  V30 10968 H 1027.96 -5.0565 -4.05244 0
M  V30 10969 N 1021.37 1.14642 -1.08144 0
M  V30 10970 C 1022.3 2.19283 -0.6669 0
M  V30 10971 C 1023.31 1.60292 0.284668 0
M  V30 10972 O 1024.5 1.78352 0.0727383 0
M  V30 10973 C 1021.6 3.38877 0.0398572 0
M  V30 10974 C 1020.77 4.274 -0.929929 0
M  V30 10975 C 1019.83 5.25562 -0.258991 0
M  V30 10976 O 1018.86 5.61999 -0.902563 0
M  V30 10977 N 1020.06 5.71958 0.992177 0
M  V30 10978 H 1022.83 2.55464 -1.5671 0
M  V30 10979 H 1020.39 1.29836 -0.96717 0
M  V30 10980 H 1022.38 4.01605 0.499583 0
M  V30 10981 H 1020.95 3.01043 0.842118 0
M  V30 10982 H 1020.17 3.61649 -1.56857 0
M  V30 10983 H 1021.46 4.83411 -1.58717 0
M  V30 10984 H 1020.86 5.44481 1.53484 0
M  V30 10985 H 1019.41 6.36687 1.39544 0
M  V30 10986 N 1022.85 0.866709 1.31628 0
M  V30 10987 C 1023.81 0.325041 2.26883 0
M  V30 10988 C 1024.81 -0.522133 1.52087 0
M  V30 10989 O 1026 -0.331908 1.71009 0
M  V30 10990 C 1023.13 -0.538756 3.36616 0
M  V30 10991 H 1024.32 1.16592 2.76308 0
M  V30 10992 H 1021.88 0.642029 1.42505 0
M  V30 10993 H 1022.61 -1.40096 2.92478 0
M  V30 10994 H 1022.4 0.0678115 3.92041 0
M  V30 10995 H 1023.89 -0.910123 4.07562 0
M  V30 10996 N 1024.32 -1.44642 0.625825 0
M  V30 10997 C 1025.25 -2.33397 -0.0692188 0
M  V30 10998 C 1026.23 -1.47898 -0.840241 0
M  V30 10999 O 1027.42 -1.7663 -0.807176 0
M  V30 11000 C 1024.55 -3.30888 -1.055 0
M  V30 11001 C 1023.5 -4.26164 -0.395968 0
M  V30 11002 C 1022.83 -5.13483 -1.49128 0
M  V30 11003 C 1024.13 -5.17663 0.694433 0
M  V30 11004 H 1025.82 -2.91763 0.671925 0
M  V30 11005 H 1023.37 -1.40294 0.324573 0
M  V30 11006 H 1025.32 -3.91861 -1.54993 0
M  V30 11007 H 1024.05 -2.7072 -1.82696 0
M  V30 11008 H 1022.71 -3.66516 0.0782691 0
M  V30 11009 H 1022.35 -4.49672 -2.25399 0
M  V30 11010 H 1022.05 -5.78038 -1.05573 0
M  V30 11011 H 1023.58 -5.77327 -1.98813 0
M  V30 11012 H 1024.99 -5.72602 0.282818 0
M  V30 11013 H 1023.39 -5.90793 1.05281 0
M  V30 11014 H 1024.46 -4.58994 1.56372 0
M  V30 11015 N 1025.8 -0.366053 -1.5329 0
M  V30 11016 C 1026.76 0.467904 -2.24373 0
M  V30 11017 C 1027.76 1.00934 -1.25176 0
M  V30 11018 O 1028.95 0.895015 -1.49449 0
M  V30 11019 C 1026.09 1.65405 -2.98084 0
M  V30 11020 H 1027.28 -0.154105 -2.99504 0
M  V30 11021 H 1024.83 -0.117751 -1.55856 0
M  V30 11022 H 1025.57 2.31413 -2.27197 0
M  V30 11023 H 1025.35 1.27277 -3.70868 0
M  V30 11024 H 1026.84 2.24503 -3.52119 0
M  V30 11025 N 1027.28 1.57312 -0.0952337 0
M  V30 11026 C 1028.21 2.11059 0.893678 0
M  V30 11027 C 1029.22 1.04787 1.24594 0
M  V30 11028 O 1030.41 1.32233 1.19903 0
M  V30 11029 C 1027.51 2.57552 2.20272 0
M  V30 11030 C 1026.69 3.87661 2.02578 0
M  V30 11031 C 1025.75 4.2 3.16996 0
M  V30 11032 O 1024.77 4.89219 2.90953 0
M  V30 11033 N 1025.97 3.75414 4.42769 0
M  V30 11034 H 1028.74 2.96532 0.434632 0
M  V30 11035 H 1026.3 1.6165 0.0898661 0
M  V30 11036 H 1028.29 2.76232 2.95766 0
M  V30 11037 H 1026.86 1.7709 2.576 0
M  V30 11038 H 1026.08 3.78128 1.11413 0
M  V30 11039 H 1027.37 4.7278 1.88032 0
M  V30 11040 H 1026.77 3.1954 4.66809 0
M  V30 11041 H 1025.32 3.99249 5.15212 0
M  V30 11042 N 1028.76 -0.17846 1.56586 0
M  V30 11043 C 1030.01 -0.894502 1.8078 0
M  V30 11044 C 1030.32 -1.8372 0.67129 0
M  V30 11045 O 1031.53 -2.59509 0.797971 0
M  V30 11046 C 1029.98 -1.64109 3.20306 0
M  V30 11047 C 1029.59 -0.742387 4.41806 0
M  V30 11048 C 1031.33 -2.34578 3.53798 0
M  V30 11049 C 1029.24 -1.4888 5.72354 0
M  V30 11050 H 1028.17 -0.33776 0.674117 0
M  V30 11051 H 1030.82 -0.14752 1.82906 0
M  V30 11052 H 1029.2 -2.43257 3.12477 0
M  V30 11053 H 1030.38 0.011615 4.60799 0
M  V30 11054 H 1028.69 -0.147705 4.16138 0
M  V30 11055 H 1031.29 -2.91004 4.48577 0
M  V30 11056 H 1031.63 -3.09572 2.78336 0
M  V30 11057 H 1032.17 -1.62381 3.63149 0
M  V30 11058 H 1028.9 -0.781325 6.50827 0
M  V30 11059 H 1028.42 -2.21631 5.57351 0
M  V30 11060 H 1030.1 -2.03819 6.14058 0
M  V30 11061 N 1030.24 -1.51135 -0.446768 0
M  V30 11062 C 1031.46 -1.67411 -1.22427 0
M  V30 11063 C 1031.89 -0.367009 -1.84485 0
M  V30 11064 O 1031.24 0.67185 -1.68392 0
M  V30 11065 C 1031.29 -2.78473 -2.29096 0
M  V30 11066 O 1030.4 -2.41419 -3.34351 0
M  V30 11067 H 1029.74 -0.558512 -0.359111 0
M  V30 11068 H 1032.27 -1.97648 -0.5288 0
M  V30 11069 H 1032.28 -3.02277 -2.7403 0
M  V30 11070 H 1030.95 -3.73326 -1.83304 0
M  V30 11071 H 1029.53 -2.28152 -2.9496 0
M  V30 11072 N 1031.71 0.701592 -1.41122 0
M  V30 11073 C 1032.64 1.82815 -1.45262 0
M  V30 11074 C 1033.62 1.67215 -0.311939 0
M  V30 11075 O 1034.81 1.87038 -0.522538 0
M  V30 11076 C 1031.94 3.20899 -1.32819 0
M  V30 11077 C 1030.89 3.51194 -2.44636 0
M  V30 11078 C 1030.22 4.8857 -2.17263 0
M  V30 11079 C 1031.52 3.50777 -3.86979 0
M  V30 11080 H 1033.21 1.79608 -2.39544 0
M  V30 11081 H 1030.76 0.862693 -1.15298 0
M  V30 11082 H 1032.71 3.99417 -1.34329 0
M  V30 11083 H 1031.44 3.24717 -0.350191 0
M  V30 11084 H 1030.1 2.75024 -2.42399 0
M  V30 11085 H 1029.74 4.89007 -1.17819 0
M  V30 11086 H 1029.44 5.09805 -2.92186 0
M  V30 11087 H 1030.97 5.69405 -2.20478 0
M  V30 11088 H 1032.38 4.19309 -3.90964 0
M  V30 11089 H 1030.78 3.83542 -4.61536 0
M  V30 11090 H 1031.85 2.49873 -4.15562 0
M  V30 11091 N 1033.19 1.2685 0.935242 0
M  V30 11092 C 1034.6 1.11569 1.49697 0
M  V30 11093 C 1034.95 -0.301952 1.93863 0
M  V30 11094 O 1034.08 -1.19408 1.80473 0
M  V30 11095 C 1034.67 2.01918 2.72056 0
M  V30 11096 C 1033.23 1.90765 3.24477 0
M  V30 11097 C 1032.38 1.94918 1.97237 0
M  V30 11098 H 1035.33 1.39853 0.750116 0
M  V30 11099 H 1035.35 1.57056 3.46574 0
M  V30 11100 H 1034.86 3.05088 2.39881 0
M  V30 11101 H 1032.96 0.905521 3.61429 0
M  V30 11102 H 1033.08 2.76611 3.91182 0
M  V30 11103 H 1031.44 1.39046 2.13397 0
M  V30 11104 H 1032.22 2.99729 1.67385 0
M  V30 11105 N 1034.67 -1.14067 1.0875 0
M  V30 11106 C 1036.09 -1.37173 0.815823 0
M  V30 11107 C 1036.29 -1.93175 -0.573215 0
M  V30 11108 O 1035.34 -2.14672 -1.32937 0
M  V30 11109 C 1036.66 -2.32955 1.90138 0
M  V30 11110 C 1038.2 -2.46586 1.9278 0
M  V30 11111 C 1038.68 -3.4567 3.0046 0
M  V30 11112 N 1040.17 -3.53216 2.99655 0
M  V30 11113 C 1040.9 -4.29743 3.79616 0
M  V30 11114 N 1040.4 -5.09484 4.69466 0
M  V30 11115 N 1042.19 -4.24975 3.67903 0
M  V30 11116 H 1034.34 -0.760648 1.98313 0
M  V30 11117 H 1036.61 -0.397135 0.860807 0
M  V30 11118 H 1036.31 -1.98949 2.90021 0
M  V30 11119 H 1036.19 -3.32897 1.77368 0
M  V30 11120 H 1038.57 -2.79882 0.935404 0
M  V30 11121 H 1038.66 -1.46593 2.09629 0
M  V30 11122 H 1038.3 -3.13106 3.99909 0
M  V30 11123 H 1038.23 -4.45452 2.80856 0
M  V30 11124 H 1040.72 -2.96314 2.34535 0
M  V30 11125 H 1041.03 -5.65163 5.27077 0
M  V30 11126 H 1039.38 -5.08741 4.73506 0
M  V30 11127 H 1042.57 -3.61751 2.97075 0
M  V30 11128 H 1042.74 -4.84364 4.30459 0
M  V30 11129 N 1036.15 -0.873678 -1.31166 0
M  V30 11130 C 1037.4 -0.482577 -1.95842 0
M  V30 11131 C 1037.71 0.970881 -1.69804 0
M  V30 11132 O 1038.92 1.4683 -2.28371 0
M  V30 11133 C 1037.37 -0.812074 -3.50619 0
M  V30 11134 C 1036.98 -2.28254 -3.85492 0
M  V30 11135 C 1038.72 -0.489624 -4.21667 0
M  V30 11136 C 1036.63 -2.55426 -5.33396 0
M  V30 11137 H 1035.56 -0.176736 -0.732994 0
M  V30 11138 H 1038.21 -1.06709 -1.49283 0
M  V30 11139 H 1036.59 -0.156769 -3.9569 0
M  V30 11140 H 1037.77 -2.98122 -3.51369 0
M  V30 11141 H 1036.08 -2.5714 -3.27518 0
M  V30 11142 H 1038.68 -0.669811 -5.30488 0
M  V30 11143 H 1039.02 0.570204 -4.12376 0
M  V30 11144 H 1039.56 -1.10163 -3.82242 0
M  V30 11145 H 1036.3 -3.60106 -5.47726 0
M  V30 11146 H 1035.82 -1.90156 -5.68859 0
M  V30 11147 H 1037.49 -2.40345 -6.00702 0
M  V30 11148 N 1037.63 1.44308 -0.633487 0
M  V30 11149 C 1038.88 2.01239 -0.136356 0
M  V30 11150 C 1039.19 1.50438 1.25011 0
M  V30 11151 O 1040.39 1.99513 1.84138 0
M  V30 11152 C 1038.85 3.59382 -0.193011 0
M  V30 11153 C 1038.46 4.19178 -1.58093 0
M  V30 11154 C 1040.2 4.23778 0.247534 0
M  V30 11155 C 1038.11 5.69553 -1.59258 0
M  V30 11156 H 1037.04 0.752521 -0.0472109 0
M  V30 11157 H 1039.69 1.65498 -0.79263 0
M  V30 11158 H 1038.07 3.92432 0.530408 0
M  V30 11159 H 1039.25 3.97662 -2.32813 0
M  V30 11160 H 1037.56 3.67079 -1.96576 0
M  V30 11161 H 1040.16 5.34075 0.258401 0
M  V30 11162 H 1040.5 3.96285 1.27529 0
M  V30 11163 H 1041.03 3.9554 -0.423469 0
M  V30 11164 H 1037.77 6.01784 -2.59878 0
M  V30 11165 H 1037.29 5.93185 -0.888352 0
M  V30 11166 H 1038.97 6.33234 -1.32756 0
M  V30 11167 N 1039.1 0.374177 1.53094 0
M  V30 11168 C 1040.34 -0.21278 2.03289 0
M  V30 11169 C 1040.71 -1.45291 1.25517 0
M  V30 11170 O 1041.91 -2.11605 1.65761 0
M  V30 11171 C 1040.18 -0.48913 3.54037 0
M  V30 11172 S 1041.74 -1.04853 4.26088 0
M  V30 11173 H 1038.56 -0.0612752 0.708355 0
M  V30 11174 H 1041.16 0.519031 1.88484 0
M  V30 11175 H 1039.86 0.420786 4.08237 0
M  V30 11176 H 1039.39 -1.24978 3.7302 0
M  V30 11177 H 1041.41 -2.33213 4.3798 0
M  V30 11178 N 1040.58 -1.57259 0.103575 0
M  V30 11179 C 1041.86 -1.86143 -0.600852 0
M  V30 11180 C 1042.24 -1.00198 -1.85805 0
M  V30 11181 O 1041.59 -0.0766791 -2.28371 0
M  V30 11182 C 1041.8 -3.36978 -0.908108 0
M  V30 11183 C 1043.15 -4.05228 -1.26788 0
M  V30 11184 O 1044.17 -3.41908 -0.998859 0
M  V30 11185 O 1043.03 -5.16971 -1.7721 0
M  V30 11186 H 1040.12 -0.770064 -0.301547 0
M  V30 11187 H 1042.67 -1.69147 0.136914 0
M  V30 11188 H 1041.44 -3.91296 -0.0165615 0
M  V30 11189 H 1041.06 -3.5935 -1.70156 0
M  V30 11190 N 1042.06 0.170153 -1.56679 0
M  V30 11191 C 1043.01 1.22997 -1.9742 0
M  V30 11192 C 1044 1.45762 -0.863117 0
M  V30 11193 O 1045.21 1.46328 -1.04824 0
M  V30 11194 H 1041.58 0.413482 -0.628122 0
M  V30 11195 H 1043.55 0.859502 -2.85754 0
M  V30 11196 C 1042.3 2.5615 -2.35122 0
M  V30 11197 H 1041.63 2.39456 -3.20158 0
M  V30 11198 H 1043.07 3.28991 -2.67471 0
M  V30 11199 C 1041.53 3.14992 -1.19507 0
M  V30 11200 O 1042.06 3.98781 -0.483357 0
M  V30 11201 N 1040.26 2.74098 -0.965332 0
M  V30 11202 H 1039.81 2.06062 -1.54585 0
M  V30 11203 H 1039.77 3.13803 -0.193611 0
M  V30 11204 N 1043.54 1.5137 0.438746 0
M  V30 11205 C 1044.77 1.67774 1.21077 0
M  V30 11206 C 1045.18 0.374489 1.85049 0
M  V30 11207 O 1044.54 -0.646867 1.70651 0
M  V30 11208 C 1044.59 2.79238 2.29584 0
M  V30 11209 O 1044.31 4.04513 1.68228 0
M  V30 11210 C 1045.81 3.06898 3.19888 0
M  V30 11211 H 1043.03 0.563054 0.364981 0
M  V30 11212 H 1045.58 1.97777 0.520035 0
M  V30 11213 H 1043.73 2.51837 2.94375 0
M  V30 11214 H 1044.14 4.66405 2.3993 0
M  V30 11215 H 1045.62 3.88476 3.92162 0
M  V30 11216 H 1046.1 2.19249 3.80561 0
M  V30 11217 H 1046.7 3.35952 2.60799 0
M  V30 11218 N 1045.02 -0.694098 1.41492 0
M  V30 11219 C 1046.26 -1.45127 1.4065 0
M  V30 11220 C 1046.59 -1.94993 0.0170289 0
M  V30 11221 O 1045.86 -1.71799 -0.941372 0
M  V30 11222 H 1044.44 -0.538493 0.51772 0
M  V30 11223 H 1047.1 -0.821441 1.76744 0
M  V30 11224 H 1046.19 -2.31372 2.0946 0
M  V30 11225 N 1046.49 -1.27344 -0.928501 0
M  V30 11226 C 1047.74 -1.13019 -1.67061 0
M  V30 11227 C 1048.06 0.323614 -1.92904 0
M  V30 11228 O 1049.26 0.587752 -2.65062 0
M  V30 11229 C 1047.72 -1.97471 -3.00887 0
M  V30 11230 C 1047.33 -3.47504 -2.82746 0
M  V30 11231 C 1049.07 -1.91792 -3.78703 0
M  V30 11232 C 1046.98 -4.24158 -4.12122 0
M  V30 11233 H 1045.91 -0.419364 -0.626618 0
M  V30 11234 H 1048.56 -1.51759 -1.03158 0
M  V30 11235 H 1046.94 -1.51576 -3.65843 0
M  V30 11236 H 1048.11 -4.01256 -2.26562 0
M  V30 11237 H 1046.43 -3.54554 -2.18359 0
M  V30 11238 H 1049.03 -2.46339 -4.74575 0
M  V30 11239 H 1049.37 -0.891375 -4.06645 0
M  V30 11240 H 1049.9 -2.35578 -3.20543 0
M  V30 11241 H 1046.64 -5.27333 -3.89359 0
M  V30 11242 H 1046.16 -3.75183 -4.67972 0
M  V30 11243 H 1047.84 -4.33288 -4.80489 0
M  V30 11244 N 1047.97 1.13488 -1.09353 0
M  V30 11245 C 1049.2 1.88592 -0.850915 0
M  V30 11246 C 1049.62 1.79087 0.597761 0
M  V30 11247 O 1048.97 1.15695 1.41142 0
M  V30 11248 C 1049.02 3.38219 -1.27633 0
M  V30 11249 O 1048.74 3.47476 -2.66819 0
M  V30 11250 C 1050.25 4.30293 -1.06598 0
M  V30 11251 H 1047.47 0.597069 -0.306185 0
M  V30 11252 H 1050.01 1.43668 -1.45533 0
M  V30 11253 H 1048.16 3.80729 -0.715828 0
M  V30 11254 H 1048.58 4.40485 -2.84733 0
M  V30 11255 H 1050.05 5.33611 -1.41293 0
M  V30 11256 H 1050.53 4.392 -0.0037135 0
M  V30 11257 H 1051.14 3.9355 -1.6124 0
M  V30 11258 N 1049.45 0.880621 1.30701 0
M  V30 11259 C 1050.68 0.511682 2.00473 0
M  V30 11260 C 1051.09 -0.898684 1.6604 0
M  V30 11261 O 1050.45 -1.59035 0.895218 0
M  V30 11262 C 1050.5 0.671723 3.55204 0
M  V30 11263 O 1050.22 2.02656 3.8841 0
M  V30 11264 C 1051.72 0.3052 4.42248 0
M  V30 11265 H 1048.94 0.198231 0.64105 0
M  V30 11266 H 1051.49 1.18472 1.66687 0
M  V30 11267 H 1049.64 0.0461066 3.87373 0
M  V30 11268 H 1050.06 2.04202 4.83117 0
M  V30 11269 H 1051.53 0.468095 5.50012 0
M  V30 11270 H 1052.01 -0.756456 4.32637 0
M  V30 11271 H 1052.61 0.906959 4.15517 0
M  V30 11272 N 1050.93 -1.4397 0.641131 0
M  V30 11273 C 1052.18 -2.02246 0.14985 0
M  V30 11274 C 1052.51 -1.50387 -1.22871 0
M  V30 11275 O 1051.78 -0.692003 -1.81773 0
M  V30 11276 C 1052.07 -3.59798 0.147449 0
M  V30 11277 C 1051.92 -4.21916 1.55907 0
M  V30 11278 C 1053.24 -4.36985 -0.522667 0
M  V30 11279 H 1050.36 -0.734875 0.0559274 0
M  V30 11280 H 1053 -1.71418 0.819513 0
M  V30 11281 H 1051.15 -3.86193 -0.422789 0
M  V30 11282 H 1052.82 -4.06594 2.17896 0
M  V30 11283 H 1051.06 -3.79028 2.10998 0
M  V30 11284 H 1051.74 -5.30964 1.50934 0
M  V30 11285 H 1054.21 -4.16083 -0.0376226 0
M  V30 11286 H 1053.09 -5.46676 -0.493572 0
M  V30 11287 H 1053.35 -4.12335 -1.59475 0
M  V30 11288 N 1052.41 -0.382291 -1.52893 0
M  V30 11289 C 1053.63 0.204961 -2.06385 0
M  V30 11290 C 1054.06 1.40316 -1.25271 0
M  V30 11291 O 1053.42 1.79187 -0.275969 0
M  V30 11292 C 1053.46 0.560205 -3.56222 0
M  V30 11293 O 1052.57 1.65515 -3.77728 0
M  V30 11294 H 1051.91 0.0258798 -0.663495 0
M  V30 11295 H 1054.44 -0.547733 -1.97132 0
M  V30 11296 H 1054.45 0.826501 -3.99541 0
M  V30 11297 H 1053.12 -0.31584 -4.14699 0
M  V30 11298 H 1051.7 1.38311 -3.46301 0
M  V30 11299 N 1053.89 1.57202 -0.111913 0
M  V30 11300 C 1054.83 2.14936 0.840908 0
M  V30 11301 C 1055.8 1.07242 1.2684 0
M  V30 11302 O 1056.99 1.35114 1.34718 0
M  V30 11303 C 1054.13 2.74743 2.0883 0
M  V30 11304 C 1053.24 3.96723 1.70982 0
M  V30 11305 C 1052.38 4.4464 2.90634 0
M  V30 11306 C 1051.41 5.59169 2.48992 0
M  V30 11307 N 1050.55 6.01862 3.61534 0
M  V30 11308 H 1055.39 2.96034 0.341735 0
M  V30 11309 H 1052.93 1.4626 0.156993 0
M  V30 11310 H 1054.89 3.07546 2.81907 0
M  V30 11311 H 1053.52 1.96346 2.56218 0
M  V30 11312 H 1052.57 3.70127 0.878072 0
M  V30 11313 H 1053.88 4.79795 1.36373 0
M  V30 11314 H 1053.03 4.79315 3.71944 0
M  V30 11315 H 1051.77 3.60503 3.28464 0
M  V30 11316 H 1050.78 5.24106 1.66113 0
M  V30 11317 H 1052 6.45067 2.12287 0
M  V30 11318 H 1049.95 5.20667 3.99051 0
M  V30 11319 H 1049.87 6.79772 3.30827 0
M  V30 11320 H 1051.13 6.41172 4.43305 0
M  V30 11321 N 1055.36 -0.161842 1.56767 0
M  V30 11322 C 1056.31 -1.21948 1.98069 0
M  V30 11323 C 1057.31 -1.45303 0.870835 0
M  V30 11324 O 1058.51 -1.45771 1.05598 0
M  V30 11325 H 1054.89 -0.410145 0.630306 0
M  V30 11326 H 1056.86 -0.844336 2.86205 0
M  V30 11327 C 1055.61 -2.549 2.36477 0
M  V30 11328 H 1054.93 -2.37755 3.21423 0
M  V30 11329 H 1056.37 -3.27568 2.69212 0
M  V30 11330 C 1054.83 -3.14353 1.21176 0
M  V30 11331 O 1055.36 -3.98519 0.504499 0
M  V30 11332 N 1053.56 -2.73582 0.979855 0
M  V30 11333 H 1053.11 -2.05239 1.55675 0
M  V30 11334 H 1053.07 -3.13696 0.21025 0
M  V30 11335 N 1056.84 -1.516 -0.430713 0
M  V30 11336 C 1057.79 -1.73975 -1.54387 0
M  V30 11337 C 1058.78 -0.606222 -1.58181 0
M  V30 11338 O 1059.99 -0.787764 -1.61846 0
M  V30 11339 H 1056.36 -0.549811 -0.513041 0
M  V30 11340 H 1058.34 -2.67274 -1.32692 0
M  V30 11341 C 1057.08 -1.88794 -2.9198 0
M  V30 11342 H 1056.41 -2.75425 -2.89795 0
M  V30 11343 H 1057.85 -2.08458 -3.69217 0
M  V30 11344 C 1056.31 -0.649427 -3.30581 0
M  V30 11345 O 1056.84 0.192823 -4.01237 0
M  V30 11346 N 1055.04 -0.491586 -2.86412 0
M  V30 11347 H 1054.59 -1.17806 -2.29084 0
M  V30 11348 H 1054.55 0.33583 -3.12601 0
M  V30 11349 N 1058.32 0.686584 -1.41858 0
M  V30 11350 C 1059.57 1.44235 -1.40994 0
M  V30 11351 C 1059.88 1.95583 -0.0254979 0
M  V30 11352 O 1061.09 2.71294 0.10576 0
M  V30 11353 C 1059.54 2.6086 -2.47952 0
M  V30 11354 C 1059.15 2.16259 -3.92347 0
M  V30 11355 C 1060.9 3.38441 -2.56237 0
M  V30 11356 C 1058.8 3.29896 -4.90838 0
M  V30 11357 H 1057.73 0.54181 -0.524364 0
M  V30 11358 H 1060.38 0.744486 -1.67719 0
M  V30 11359 H 1058.77 3.32957 -2.14373 0
M  V30 11360 H 1059.94 1.51392 -4.35221 0
M  V30 11361 H 1058.25 1.51648 -3.87804 0
M  V30 11362 H 1060.85 4.23052 -3.27003 0
M  V30 11363 H 1061.19 3.84238 -1.6021 0
M  V30 11364 H 1061.73 2.73406 -2.88953 0
M  V30 11365 H 1058.47 2.89104 -5.88302 0
M  V30 11366 H 1057.99 3.93584 -4.52606 0
M  V30 11367 H 1059.67 3.95541 -5.12012 0
M  V30 11368 N 1059.8 1.27835 0.921735 0
M  V30 11369 C 1061.04 1.14523 1.67005 0
M  V30 11370 C 1061.37 -0.307776 1.92049 0
M  V30 11371 O 1060.63 -1.24103 1.51317 0
M  V30 11372 C 1060.93 1.88054 3.03925 0
M  V30 11373 C 1060.59 3.37886 2.9857 0
M  V30 11374 C 1059.25 3.78752 2.96817 0
M  V30 11375 C 1061.61 4.33462 2.89414 0
M  V30 11376 C 1058.93 5.13549 2.83698 0
M  V30 11377 C 1061.29 5.68322 2.77836 0
M  V30 11378 C 1059.95 6.08475 2.74436 0
M  V30 11379 H 1059.22 0.419068 0.611116 0
M  V30 11380 H 1061.87 1.58515 1.07449 0
M  V30 11381 H 1060.17 1.36587 3.67221 0
M  V30 11382 H 1061.87 1.75176 3.60714 0
M  V30 11383 H 1058.46 3.05389 3.00725 0
M  V30 11384 H 1062.64 4.02857 2.89862 0
M  V30 11385 H 1057.9 5.43796 2.79456 0
M  V30 11386 H 1062.07 6.42048 2.69717 0
M  V30 11387 H 1059.7 7.12877 2.64027 0
M  V30 11388 N 1061.28 -1.12907 1.09954 0
M  V30 11389 C 1062.21 -2.17589 0.687769 0
M  V30 11390 C 1063.19 -1.59648 -0.308444 0
M  V30 11391 O 1064.37 -1.87343 -0.208527 0
M  V30 11392 C 1061.5 -3.38697 0.0140519 0
M  V30 11393 C 1060.54 -4.15254 0.972942 0
M  V30 11394 S 1061.38 -4.74205 2.48777 0
M  V30 11395 C 1062.53 -5.98653 1.82662 0
M  V30 11396 H 1062.77 -2.52181 1.57455 0
M  V30 11397 H 1060.3 -1.24289 0.916051 0
M  V30 11398 H 1062.26 -4.08844 -0.368343 0
M  V30 11399 H 1060.92 -3.02396 -0.849456 0
M  V30 11400 H 1060.11 -5.01999 0.448715 0
M  V30 11401 H 1059.71 -3.5079 1.297 0
M  V30 11402 H 1062 -6.67602 1.15388 0
M  V30 11403 H 1062.95 -6.55693 2.67343 0
M  V30 11404 H 1063.36 -5.49486 1.29325 0
M  V30 11405 N 1062.75 -0.88754 -1.30232 0
M  V30 11406 C 1063.98 -0.521562 -2.00735 0
M  V30 11407 C 1064.4 0.883247 -1.66073 0
M  V30 11408 O 1063.76 1.58581 -0.878731 0
M  V30 11409 C 1063.81 -0.706521 -3.53611 0
M  V30 11410 O 1062.91 0.246447 -4.11663 0
M  V30 11411 H 1062.25 -0.205216 -0.631492 0
M  V30 11412 H 1064.78 -1.19579 -1.66018 0
M  V30 11413 H 1064.79 -0.606501 -4.03467 0
M  V30 11414 H 1063.47 -1.73076 -3.78177 0
M  V30 11415 H 1062.05 0.0999062 -3.72766 0
M  V30 11416 N 1064.23 1.43628 -0.648757 0
M  V30 11417 C 1065.18 2.32529 0.057536 0
M  V30 11418 C 1066.17 1.48358 0.817699 0
M  V30 11419 O 1067.38 1.64595 0.728605 0
M  V30 11420 H 1063.76 0.75107 0.037388 0
M  V30 11421 H 1065.73 2.89829 -0.710062 0
M  V30 11422 C 1064.48 3.32605 1.01336 0
M  V30 11423 H 1063.8 3.97395 0.437855 0
M  V30 11424 H 1065.24 3.97453 1.47672 0
M  V30 11425 C 1063.7 2.62865 2.10722 0
M  V30 11426 O 1064.23 2.4408 3.19042 0
M  V30 11427 N 1062.43 2.22312 1.87152 0
M  V30 11428 H 1061.98 2.3779 0.990644 0
M  V30 11429 H 1061.94 1.75979 2.60536 0
M  V30 11430 N 1065.71 0.390394 1.52688 0
M  V30 11431 C 1066.94 -0.194013 2.06491 0
M  V30 11432 C 1067.36 -1.3965 1.26014 0
M  V30 11433 O 1066.72 -1.79038 0.285468 0
M  V30 11434 C 1066.77 -0.541306 3.56514 0
M  V30 11435 O 1065.87 -1.63509 3.78601 0
M  V30 11436 H 1065.21 -0.0223608 0.663623 0
M  V30 11437 H 1067.74 0.558179 1.96839 0
M  V30 11438 H 1067.75 -0.805301 3.99974 0
M  V30 11439 H 1066.43 0.337828 4.14526 0
M  V30 11440 H 1065 -1.36473 3.4703 0
M  V30 11441 N 1067.19 -1.57141 0.120249 0
M  V30 11442 C 1068.42 -1.993 -0.544346 0
M  V30 11443 C 1068.83 -0.998858 -1.60684 0
M  V30 11444 O 1068.17 0.0162197 -1.83693 0
M  V30 11445 C 1068.23 -3.37874 -1.22808 0
M  V30 11446 C 1067.9 -4.55924 -0.313374 0
M  V30 11447 C 1068.89 -5.17962 0.448501 0
M  V30 11448 C 1066.58 -5.018 -0.224082 0
M  V30 11449 C 1068.57 -6.24264 1.28739 0
M  V30 11450 C 1066.26 -6.07963 0.618437 0
M  V30 11451 C 1067.26 -6.69061 1.3728 0
M  V30 11452 O 1066.94 -7.73173 2.20133 0
M  V30 11453 H 1066.68 -0.659466 -0.148596 0
M  V30 11454 H 1069.23 -2.04387 0.203779 0
M  V30 11455 H 1067.46 -3.29545 -2.02329 0
M  V30 11456 H 1069.15 -3.64314 -1.7897 0
M  V30 11457 H 1069.92 -4.83434 0.389395 0
M  V30 11458 H 1065.79 -4.53989 -0.80094 0
M  V30 11459 H 1069.34 -6.71883 1.87667 0
M  V30 11460 H 1065.24 -6.4192 0.678932 0
M  V30 11461 H 1066 -7.90276 2.13088 0
M  V30 11462 N 1068.67 0.153526 -1.5685 0
M  V30 11463 C 1070.08 0.714247 -1.72498 0
M  V30 11464 C 1070.43 1.81968 -0.733621 0
M  V30 11465 O 1069.55 2.16163 0.10118 0
M  V30 11466 C 1070.15 1.30238 -3.12767 0
M  V30 11467 C 1068.71 1.80974 -3.30038 0
M  V30 11468 C 1067.85 0.695638 -2.68433 0
M  V30 11469 H 1070.81 -0.0720733 -1.58536 0
M  V30 11470 H 1070.83 2.17217 -3.12405 0
M  V30 11471 H 1070.34 0.497605 -3.84897 0
M  V30 11472 H 1068.44 2.64039 -2.62895 0
M  V30 11473 H 1068.55 1.94294 -4.37934 0
M  V30 11474 H 1066.92 1.12061 -2.28723 0
M  V30 11475 H 1067.7 -0.0975885 -3.43161 0
M  V30 11476 N 1070.14 1.51827 0.422667 0
M  V30 11477 C 1071.56 1.40328 0.760275 0
M  V30 11478 C 1071.76 0.497119 1.95272 0
M  V30 11479 O 1070.82 -0.0422083 2.52465 0
M  V30 11480 C 1072.13 2.82622 1.02689 0
M  V30 11481 C 1073.68 2.91874 1.13044 0
M  V30 11482 C 1074.15 4.35107 1.4299 0
M  V30 11483 N 1075.64 4.3828 1.49883 0
M  V30 11484 C 1076.38 5.46153 1.74655 0
M  V30 11485 N 1075.87 6.64165 1.9712 0
M  V30 11486 N 1077.67 5.33651 1.76558 0
M  V30 11487 H 1069.82 2.09285 -0.362455 0
M  V30 11488 H 1072.08 0.94273 -0.0998161 0
M  V30 11489 H 1071.79 3.50991 0.223226 0
M  V30 11490 H 1071.66 3.22844 1.95068 0
M  V30 11491 H 1074.05 2.23694 1.92471 0
M  V30 11492 H 1074.13 2.55128 0.185326 0
M  V30 11493 H 1073.77 5.03841 0.640848 0
M  V30 11494 H 1073.7 4.69377 2.38731 0
M  V30 11495 H 1076.19 3.53206 1.34366 0
M  V30 11496 H 1076.51 7.42165 2.15434 0
M  V30 11497 H 1074.85 6.67255 1.94413 0
M  V30 11498 H 1078.04 4.40436 1.58536 0
M  V30 11499 H 1078.22 6.17798 1.95525 0
M  V30 11500 N 1071.62 -0.679052 1.4222 0
M  V30 11501 C 1072.9 -1.43473 1.32947 0
M  V30 11502 C 1073.28 -2.11071 -0.0351689 0
M  V30 11503 O 1072.63 -2.02925 -1.05042 0
M  V30 11504 C 1072.84 -2.44065 2.49466 0
M  V30 11505 C 1074.19 -3.08834 2.91387 0
M  V30 11506 O 1075.21 -2.54392 2.49325 0
M  V30 11507 O 1074.07 -4.07478 3.64175 0
M  V30 11508 H 1071.16 -0.639743 0.524078 0
M  V30 11509 H 1073.71 -0.708134 1.54219 0
M  V30 11510 H 1072.48 -1.92884 3.40457 0
M  V30 11511 H 1072.1 -3.24212 2.30158 0
M  V30 11512 N 1073.1 -1.28322 -0.914942 0
M  V30 11513 C 1074.35 -1.15407 -1.66396 0
M  V30 11514 C 1074.68 0.297587 -1.9221 0
M  V30 11515 O 1073.93 1.23299 -1.51973 0
M  V30 11516 C 1074.23 -1.89663 -3.02924 0
M  V30 11517 C 1073.9 -3.39464 -2.96774 0
M  V30 11518 C 1072.56 -3.80321 -2.94804 0
M  V30 11519 C 1074.91 -4.3499 -2.87111 0
M  V30 11520 C 1072.24 -5.15046 -2.8097 0
M  V30 11521 C 1074.59 -5.69788 -2.74818 0
M  V30 11522 C 1073.25 -6.09921 -2.71205 0
M  V30 11523 H 1072.52 -0.422303 -0.608885 0
M  V30 11524 H 1075.17 -1.59082 -1.06607 0
M  V30 11525 H 1073.48 -1.38533 -3.66491 0
M  V30 11526 H 1075.17 -1.77087 -3.59779 0
M  V30 11527 H 1071.76 -3.06979 -2.99101 0
M  V30 11528 H 1075.95 -4.04389 -2.87721 0
M  V30 11529 H 1071.2 -5.45271 -2.76568 0
M  V30 11530 H 1075.38 -6.43469 -2.66309 0
M  V30 11531 H 1073 -7.14267 -2.60243 0
M  V30 11532 N 1074.58 1.12322 -1.10551 0
M  V30 11533 C 1075.82 1.8413 -0.849932 0
M  V30 11534 C 1076.16 1.83938 0.622946 0
M  V30 11535 O 1075.43 1.28579 1.45937 0
M  V30 11536 C 1075.72 3.31751 -1.40048 0
M  V30 11537 C 1075.57 3.40391 -2.9403 0
M  V30 11538 C 1076.89 4.27543 -1.04379 0
M  V30 11539 H 1074.01 0.668533 -0.310213 0
M  V30 11540 H 1076.65 1.31766 -1.36886 0
M  V30 11541 H 1074.8 3.76475 -0.959102 0
M  V30 11542 H 1076.47 3.04294 -3.46703 0
M  V30 11543 H 1074.71 2.809 -3.30571 0
M  V30 11544 H 1075.38 4.44252 -3.27635 0
M  V30 11545 H 1077.86 3.90951 -1.42466 0
M  V30 11546 H 1076.74 5.2924 -1.4559 0
M  V30 11547 H 1077 4.42075 0.0466316 0
M  V30 11548 N 1076.06 0.894434 1.2976 0
M  V30 11549 C 1077 0.357958 2.29829 0
M  V30 11550 C 1078 -0.540093 1.6056 0
M  V30 11551 O 1079.2 -0.423478 1.74948 0
M  V30 11552 H 1075.58 0.0971183 0.745702 0
M  V30 11553 H 1077.55 1.21542 2.72526 0
M  V30 11554 C 1076.3 -0.404126 3.45343 0
M  V30 11555 H 1075.62 0.277671 3.98835 0
M  V30 11556 H 1077.06 -0.744446 4.17413 0
M  V30 11557 C 1075.52 -1.6048 2.96222 0
M  V30 11558 O 1076.05 -2.70414 2.97051 0
M  V30 11559 N 1074.26 -1.44517 2.52117 0
M  V30 11560 H 1073.8 -0.55082 2.51642 0
M  V30 11561 H 1073.76 -2.24987 2.1961 0
M  V30 11562 N 1077.53 -1.43282 0.656365 0
M  V30 11563 C 1078.77 -2.03652 0.174681 0
M  V30 11564 C 1079.14 -1.5068 -1.18994 0
M  V30 11565 O 1080.34 -2.02716 -1.76521 0
M  V30 11566 C 1078.61 -3.56906 0.18778 0
M  V30 11567 S 1080.17 -4.3822 -0.225599 0
M  V30 11568 H 1076.99 -0.70719 0.0735029 0
M  V30 11569 H 1079.59 -1.75303 0.865403 0
M  V30 11570 H 1078.29 -3.92961 1.18363 0
M  V30 11571 H 1077.82 -3.89903 -0.523378 0
M  V30 11572 H 1079.84 -4.74121 -1.46369 0
M  V30 11573 N 1079.01 -0.398486 -1.52479 0
M  V30 11574 C 1080.24 0.183059 -2.06591 0
M  V30 11575 C 1080.66 1.3898 -1.26753 0
M  V30 11576 O 1080.02 1.78885 -0.294959 0
M  V30 11577 C 1080.07 0.522392 -3.56796 0
M  V30 11578 O 1079.17 1.61499 -3.79462 0
M  V30 11579 H 1078.51 0.0188411 -0.663733 0
M  V30 11580 H 1081.04 -0.56861 -1.9654 0
M  V30 11581 H 1081.05 0.784078 -4.00395 0
M  V30 11582 H 1079.73 -0.359807 -4.14341 0
M  V30 11583 H 1078.31 1.3463 -3.47749 0
M  V30 11584 N 1080.49 1.57075 -0.12858 0
M  V30 11585 C 1081.72 1.99876 0.534544 0
M  V30 11586 C 1082.13 1.00843 1.59612 0
M  V30 11587 O 1081.49 0.00268947 1.825 0
M  V30 11588 C 1081.54 3.42654 1.15198 0
M  V30 11589 O 1081.26 4.37899 0.132823 0
M  V30 11590 C 1082.76 4.00637 1.8975 0
M  V30 11591 H 1079.98 0.656073 0.140744 0
M  V30 11592 H 1082.53 2.03337 -0.217742 0
M  V30 11593 H 1080.68 3.40101 1.85499 0
M  V30 11594 H 1081.1 5.21253 0.582682 0
M  V30 11595 H 1082.57 5.02592 2.28266 0
M  V30 11596 H 1083.05 3.40313 2.7764 0
M  V30 11597 H 1083.65 4.06764 1.2419 0
M  V30 11598 N 1081.97 -0.145205 1.5693 0
M  V30 11599 C 1082.9 -1.18096 2.01434 0
M  V30 11600 C 1083.88 -1.447 0.894204 0
M  V30 11601 O 1085.07 -1.55589 1.16214 0
M  V30 11602 C 1082.2 -2.51369 2.39647 0
M  V30 11603 C 1081.15 -2.39283 3.54863 0
M  V30 11604 C 1080.48 -3.77283 3.78895 0
M  V30 11605 C 1081.78 -1.8754 4.87469 0
M  V30 11606 H 1083.47 -0.810897 2.8821 0
M  V30 11607 H 1081.02 -0.388624 1.38657 0
M  V30 11608 H 1082.97 -3.24054 2.69382 0
M  V30 11609 H 1081.69 -2.90214 1.49811 0
M  V30 11610 H 1080.35 -1.6905 3.25296 0
M  V30 11611 H 1080 -4.13567 2.86307 0
M  V30 11612 H 1079.7 -3.70057 4.56433 0
M  V30 11613 H 1081.22 -4.51514 4.11057 0
M  V30 11614 H 1082.64 -2.50019 5.1591 0
M  V30 11615 H 1081.03 -1.912 5.68826 0
M  V30 11616 H 1082.1 -0.831194 4.77723 0
M  V30 11617 N 1083.45 -1.52049 -0.414609 0
M  V30 11618 C 1084.86 -1.58062 -0.993638 0
M  V30 11619 C 1085.21 -0.417795 -1.917 0
M  V30 11620 O 1084.33 0.462558 -2.11399 0
M  V30 11621 C 1084.93 -2.86471 -1.80886 0
M  V30 11622 C 1083.49 -2.94981 -2.33801 0
M  V30 11623 C 1082.64 -2.52949 -1.13631 0
M  V30 11624 H 1085.59 -1.57497 -0.19504 0
M  V30 11625 H 1085.61 -2.71515 -2.66571 0
M  V30 11626 H 1085.12 -3.71085 -1.13657 0
M  V30 11627 H 1083.22 -2.14849 -3.04419 0
M  V30 11628 H 1083.33 -3.99111 -2.65042 0
M  V30 11629 H 1081.7 -2.0667 -1.48861 0
M  V30 11630 H 1082.48 -3.39931 -0.479765 0
M  V30 11631 N 1084.93 0.6715 -1.42579 0
M  V30 11632 C 1085.89 1.76676 -1.46008 0
M  V30 11633 C 1086.89 1.57007 -0.347213 0
M  V30 11634 O 1088.08 1.63238 -0.608185 0
M  V30 11635 C 1085.21 3.15348 -1.29494 0
M  V30 11636 H 1086.4 1.75021 -2.43531 0
M  V30 11637 H 1083.96 0.881444 -1.29075 0
M  V30 11638 H 1084.69 3.22626 -0.32906 0
M  V30 11639 H 1084.48 3.31028 -2.10149 0
M  V30 11640 H 1085.97 3.95251 -1.34784 0
M  V30 11641 N 1086.4 1.28806 0.908124 0
M  V30 11642 C 1087.33 1.15758 2.02787 0
M  V30 11643 C 1088.31 0.053911 1.70015 0
M  V30 11644 O 1089.5 0.231901 1.9281 0
M  V30 11645 C 1086.63 0.824526 3.37371 0
M  V30 11646 C 1085.58 1.88359 3.84324 0
M  V30 11647 C 1084.91 1.40404 5.15937 0
M  V30 11648 C 1086.21 3.29108 4.05568 0
M  V30 11649 H 1087.9 2.09431 2.13961 0
M  V30 11650 H 1085.45 1.00831 1.02806 0
M  V30 11651 H 1087.4 0.71999 4.15204 0
M  V30 11652 H 1086.13 -0.147902 3.26265 0
M  V30 11653 H 1084.79 1.97736 3.087 0
M  V30 11654 H 1084.43 0.420515 5.01239 0
M  V30 11655 H 1084.13 2.11224 5.48323 0
M  V30 11656 H 1085.66 1.31283 5.9632 0
M  V30 11657 H 1087.07 3.2262 4.73909 0
M  V30 11658 H 1085.47 3.97812 4.49294 0
M  V30 11659 H 1086.54 3.72709 3.10187 0
M  V30 11660 N 1087.88 -1.11734 1.11145 0
M  V30 11661 C 1088.83 -2.19765 0.761982 0
M  V30 11662 C 1089.82 -1.67616 -0.24518 0
M  V30 11663 O 1091.03 -1.79695 -0.104781 0
M  V30 11664 H 1087.4 -0.71644 0.228513 0
M  V30 11665 H 1089.38 -2.4649 1.68183 0
M  V30 11666 C 1088.12 -3.47016 0.218057 0
M  V30 11667 H 1087.45 -3.87494 0.984299 0
M  V30 11668 H 1088.89 -4.23998 0.0116825 0
M  V30 11669 C 1087.35 -3.20088 -1.05096 0
M  V30 11670 O 1087.88 -3.40503 -2.1312 0
M  V30 11671 N 1086.08 -2.73844 -0.972523 0
M  V30 11672 H 1085.63 -2.57431 -0.0933459 0
M  V30 11673 H 1085.59 -2.56204 -1.82228 0
M  V30 11674 N 1089.36 -0.901303 -1.29284 0
M  V30 11675 C 1090.29 -0.396909 -2.30102 0
M  V30 11676 C 1091.27 0.528919 -1.61668 0
M  V30 11677 O 1092.46 0.439306 -1.89166 0
M  V30 11678 C 1089.59 0.375006 -3.45269 0
M  V30 11679 C 1088.54 -0.46054 -4.25515 0
M  V30 11680 C 1087.87 0.438967 -5.32895 0
M  V30 11681 C 1089.17 -1.7113 -4.93469 0
M  V30 11682 H 1090.86 -1.23943 -2.72541 0
M  V30 11683 H 1088.41 -0.597428 -1.31022 0
M  V30 11684 H 1090.36 0.738622 -4.14876 0
M  V30 11685 H 1089.08 1.25132 -3.01678 0
M  V30 11686 H 1087.74 -0.80651 -3.57618 0
M  V30 11687 H 1087.39 1.31346 -4.85548 0
M  V30 11688 H 1087.09 -0.116406 -5.87485 0
M  V30 11689 H 1088.61 0.79874 -6.05353 0
M  V30 11690 H 1090.03 -1.41732 -5.55504 0
M  V30 11691 H 1088.42 -2.20811 -5.57999 0
M  V30 11692 H 1089.49 -2.44636 -4.18666 0
M  V30 11693 N 1090.84 1.42931 -0.663954 0
M  V30 11694 C 1091.8 2.29197 0.0117626 0
M  V30 11695 C 1092.8 1.42767 0.739875 0
M  V30 11696 O 1093.99 1.64278 0.579509 0
M  V30 11697 C 1091.12 3.2505 1.02738 0
M  V30 11698 H 1092.32 2.90438 -0.747391 0
M  V30 11699 H 1089.87 1.5039 -0.425733 0
M  V30 11700 H 1090.6 2.68726 1.8154 0
M  V30 11701 H 1090.39 3.88785 0.508809 0
M  V30 11702 H 1091.88 3.89771 1.49893 0
M  V30 11703 N 1092.32 0.406567 1.52266 0
M  V30 11704 C 1093.54 -0.172101 2.06685 0
M  V30 11705 C 1093.97 -1.38306 1.27488 0
M  V30 11706 O 1093.32 -1.78726 0.304441 0
M  V30 11707 C 1093.37 -0.503463 3.57068 0
M  V30 11708 O 1092.48 -1.59485 3.80314 0
M  V30 11709 H 1091.82 -0.0153209 0.663823 0
M  V30 11710 H 1094.35 0.579025 1.96236 0
M  V30 11711 H 1094.36 -0.762833 4.00805 0
M  V30 11712 H 1093.03 0.381775 4.14144 0
M  V30 11713 H 1091.61 -1.32784 3.48458 0
M  V30 11714 N 1093.79 -1.57004 0.136909 0
M  V30 11715 C 1095.04 -1.96873 -0.511137 0
M  V30 11716 C 1095.4 -1.02001 -1.63137 0
M  V30 11717 O 1094.69 -0.0532138 -1.91526 0
M  V30 11718 C 1094.88 -3.40903 -1.07331 0
M  V30 11719 C 1094.71 -4.49699 -0.00908112 0
M  V30 11720 C 1093.48 -5.03477 0.42889 0
M  V30 11721 C 1095.68 -5.08372 0.778631 0
M  V30 11722 N 1093.66 -5.95867 1.47702 0
M  V30 11723 C 1095.03 -5.96875 1.67751 0
M  V30 11724 C 1097.09 -4.90975 0.827538 0
M  V30 11725 C 1095.79 -6.69845 2.62108 0
M  V30 11726 C 1097.82 -5.64639 1.75889 0
M  V30 11727 C 1097.18 -6.52842 2.64531 0
M  V30 11728 H 1093.28 -0.766253 -0.156141 0
M  V30 11729 H 1095.86 -1.93347 0.229176 0
M  V30 11730 H 1094.03 -3.45042 -1.78327 0
M  V30 11731 H 1095.76 -3.67855 -1.68715 0
M  V30 11732 H 1092.52 -4.73588 0.03306 0
M  V30 11733 H 1092.94 -6.46767 2.00055 0
M  V30 11734 H 1097.59 -4.22511 0.156318 0
M  V30 11735 H 1095.3 -7.37544 3.30235 0
M  V30 11736 H 1098.89 -5.53177 1.80241 0
M  V30 11737 H 1097.77 -7.08843 3.35426 0
M  V30 11738 N 1095.27 0.136881 -1.57004 0
M  V30 11739 C 1096.69 0.489856 -1.51897 0
M  V30 11740 C 1096.89 1.82833 -0.847009 0
M  V30 11741 O 1095.94 2.48952 -0.421792 0
M  V30 11742 C 1097.26 0.490831 -2.96667 0
M  V30 11743 C 1098.81 0.575639 -3.07661 0
M  V30 11744 C 1099.28 0.607178 -4.53957 0
M  V30 11745 N 1100.77 0.66912 -4.58342 0
M  V30 11746 C 1101.51 0.714675 -5.68929 0
M  V30 11747 N 1101 0.718959 -6.89059 0
M  V30 11748 N 1102.8 0.756326 -5.56988 0
M  V30 11749 H 1094.95 -0.740347 -1.99079 0
M  V30 11750 H 1097.21 -0.271116 -0.908405 0
M  V30 11751 H 1096.92 -0.424648 -3.49127 0
M  V30 11752 H 1096.79 1.32512 -3.53158 0
M  V30 11753 H 1099.18 1.48154 -2.55215 0
M  V30 11754 H 1099.26 -0.285991 -2.54196 0
M  V30 11755 H 1098.9 -0.294604 -5.07045 0
M  V30 11756 H 1098.83 1.48544 -5.05215 0
M  V30 11757 H 1101.32 0.672697 -3.71864 0
M  V30 11758 H 1101.64 0.755848 -7.69095 0
M  V30 11759 H 1099.98 0.686671 -6.91599 0
M  V30 11760 H 1103.17 0.750219 -4.62049 0
M  V30 11761 H 1103.34 0.788363 -6.43186 0
M  V30 11762 N 1096.75 1.52266 0.40654 0
M  V30 11763 C 1097.66 1.78688 1.52012 0
M  V30 11764 C 1098.68 0.6726 1.60475 0
M  V30 11765 O 1099.85 0.95829 1.77141 0
M  V30 11766 C 1096.92 1.93434 2.87722 0
M  V30 11767 C 1095.98 3.17341 2.89125 0
M  V30 11768 C 1095.21 3.31374 4.18362 0
M  V30 11769 O 1095.43 2.50613 5.12396 0
M  V30 11770 O 1094.37 4.24539 4.26674 0
M  V30 11771 H 1098.19 2.73213 1.3262 0
M  V30 11772 H 1095.78 1.37142 0.592653 0
M  V30 11773 H 1097.66 2.04941 3.68208 0
M  V30 11774 H 1096.34 1.02099 3.07177 0
M  V30 11775 H 1095.24 3.1129 2.07483 0
M  V30 11776 H 1096.58 4.08466 2.7462 0
M  V30 11777 N 1098.23 -0.663929 1.42933 0
M  V30 11778 C 1099.19 -1.75899 1.46943 0
M  V30 11779 C 1100.19 -1.5682 0.355535 0
M  V30 11780 O 1101.38 -1.62914 0.616833 0
M  V30 11781 C 1098.51 -3.14657 1.31164 0
M  V30 11782 H 1099.71 -1.73727 2.44456 0
M  V30 11783 H 1097.26 -0.874587 1.2954 0
M  V30 11784 H 1097.99 -3.22447 0.346165 0
M  V30 11785 H 1097.78 -3.29909 2.11902 0
M  V30 11786 H 1099.27 -3.9453 1.36878 0
M  V30 11787 N 1099.71 -1.29285 -0.901281 0
M  V30 11788 C 1100.93 -1.20169 -1.69039 0
M  V30 11789 C 1101.36 0.234509 -1.86632 0
M  V30 11790 O 1100.71 1.16935 -1.38549 0
M  V30 11791 C 1100.76 -1.91852 -3.05328 0
M  V30 11792 O 1099.87 -1.23448 -3.9349 0
M  V30 11793 H 1099.21 -0.416486 -0.517141 0
M  V30 11794 H 1101.74 -1.70826 -1.12603 0
M  V30 11795 H 1101.75 -2.00244 -3.5548 0
M  V30 11796 H 1100.42 -2.96313 -2.91841 0
M  V30 11797 H 1099 -1.23303 -3.51924 0
M  V30 11798 O 1101.22 1.0367 -1.23834 0
M  V30 11799 H 1101.91 1.65154 -1.01211 0
M  V30 END ATOM
M  V30 BEGIN BOND
M  V30 END BOND
M  V30 END CTAB
M  END
$$$$
