drugbank_target|Q46822 Isopentenyl-diphosphate Delta-isomerase (DB01799; DB02480; DB03165; DB03366; DB04170)
 OpenBabel12092119543D

  0  0  0     0  0            999 V3000
M  V30 BEGIN CTAB
M  V30 COUNTS 2852 2889 0 0 0
M  V30 BEGIN ATOM
M  V30 1 H -0.908 1.98254 -0.117106 0
M  V30 2 N 0 1.576 0 0
M  V30 3 C 0.933 2.03868 1.02534 0
M  V30 4 C 1.911 0.928543 1.3348 0
M  V30 5 O 3.095 1.19667 1.45644 0
M  V30 6 C 0.222 2.43627 2.35294 0
M  V30 7 C -0.732 3.65373 2.2001 0
M  V30 8 S 0.101 5.13292 1.52614 0
M  V30 9 C 1.257 5.56322 2.86805 0
M  V30 10 H 1.49 2.90518 0.631377 0
M  V30 11 H -0.977 1.52953 0.210867 0
M  V30 12 H 0.981 2.67203 3.11629 0
M  V30 13 H -0.358 1.57376 2.7183 0
M  V30 14 H -1.165 3.90944 3.18086 0
M  V30 15 H -1.563 3.418 1.51819 0
M  V30 16 H 0.729 5.58782 3.83104 0
M  V30 17 H 1.672 6.56266 2.65933 0
M  V30 18 H 2.08 4.83886 2.90714 0
M  V30 19 N 1.4781 -0.272755 1.55222 0
M  V30 20 C 2.4101 -1.35946 1.8453 0
M  V30 21 C 3.4231 -1.45525 0.729818 0
M  V30 22 O 4.6121 -1.47337 1.00767 0
M  V30 23 C 1.7121 -2.74069 1.99347 0
M  V30 24 C 0.8851 -2.87079 3.30007 0
M  V30 25 C -0.0559 -4.05879 3.34886 0
M  V30 26 O -1.0299 -3.96626 4.08261 0
M  V30 27 N 0.1721 -5.17857 2.62307 0
M  V30 28 H 2.9371 -1.11149 2.78327 0
M  V30 29 H 0.4981 -0.462869 1.55142 0
M  V30 30 H 2.4901 -3.51838 1.99981 0
M  V30 31 H 1.0601 -2.91688 1.12415 0
M  V30 32 H 0.2801 -1.96193 3.41909 0
M  V30 33 H 1.5681 -2.92701 4.16177 0
M  V30 34 H 0.9661 -5.28261 2.02377 0
M  V30 35 H -0.4769 -5.93855 2.68663 0
M  V30 36 N 2.9562 -1.48159 -0.537278 0
M  V30 37 C 4.1842 -1.59454 -1.31841 0
M  V30 38 C 4.5992 -0.252065 -1.8711 0
M  V30 39 O 3.9562 0.757621 -1.66031 0
M  V30 40 C 4.0072 -2.63546 -2.47439 0
M  V30 41 O 3.7282 -3.92583 -1.94449 0
M  V30 42 C 5.2292 -2.85212 -3.39366 0
M  V30 43 H 2.4492 -0.53785 -0.401196 0
M  V30 44 H 4.9932 -1.93932 -0.648891 0
M  V30 45 H 3.1482 -2.31946 -3.1029 0
M  V30 46 H 3.5622 -4.49629 -2.70063 0
M  V30 47 H 5.0362 -3.61863 -4.16844 0
M  V30 48 H 5.5132 -1.93765 -3.94147 0
M  V30 49 H 6.1192 -3.18086 -2.82314 0
M  V30 50 N 4.4343 0.785586 -1.36625 0
M  V30 51 C 5.3443 1.92964 -1.33425 0
M  V30 52 C 6.3603 1.72394 -0.235851 0
M  V30 53 O 7.5363 1.95866 -0.468878 0
M  V30 54 C 4.6013 3.27884 -1.12662 0
M  V30 55 C 3.6623 3.61204 -2.32013 0
M  V30 56 C 2.8953 4.89687 -2.12231 0
M  V30 57 O 3.1183 5.59704 -1.09945 0
M  V30 58 O 2.0523 5.21752 -3.00098 0
M  V30 59 H 5.8783 1.98613 -2.29753 0
M  V30 60 H 3.4633 0.926384 -1.17211 0
M  V30 61 H 5.3453 4.08614 -1.03016 0
M  V30 62 H 4.0203 3.23118 -0.193991 0
M  V30 63 H 2.9273 2.80765 -2.47228 0
M  V30 64 H 4.2603 3.70698 -3.23796 0
M  V30 65 N 5.9124 1.20967 1.01018 0
M  V30 66 C 6.8624 0.93182 2.08089 0
M  V30 67 C 7.8464 -0.110898 1.60517 0
M  V30 68 O 9.0384 0.0973392 1.76732 0
M  V30 69 C 6.1674 0.492719 3.39746 0
M  V30 70 C 5.2534 1.56922 3.94 0
M  V30 71 N 5.6444 2.79312 4.21686 0
M  V30 72 C 3.9424 1.43688 4.2222 0
M  V30 73 C 4.6434 3.48797 4.65527 0
M  V30 74 N 3.6194 2.76224 4.68189 0
M  V30 75 H 7.4214 1.86175 2.27412 0
M  V30 76 H 4.9354 1.10463 1.19045 0
M  V30 77 H 6.9324 0.275044 4.15992 0
M  V30 78 H 5.5924 -0.430509 3.21833 0
M  V30 79 H 6.6034 3.15903 4.10397 0
M  V30 80 H 3.2804 0.578548 4.13472 0
M  V30 81 H 4.6704 4.53561 4.95714 0
M  V30 82 N 7.3905 -1.2043 1.01659 0
M  V30 83 C 8.6365 -1.90079 0.706963 0
M  V30 84 C 8.9695 -1.78648 -0.761474 0
M  V30 85 O 8.2445 -1.17069 -1.55323 0
M  V30 86 C 8.5275 -3.41469 1.14327 0
M  V30 87 C 8.3805 -3.61833 2.67201 0
M  V30 88 C 9.6995 -4.34261 0.714529 0
M  V30 89 H 6.8185 -0.690254 0.2583 0
M  V30 90 H 9.4605 -1.41826 1.26433 0
M  V30 91 H 7.6105 -3.82696 0.669056 0
M  V30 92 H 9.2825 -3.2986 3.22475 0
M  V30 93 H 7.5255 -3.05304 3.08175 0
M  V30 94 H 8.1965 -4.67955 2.92783 0
M  V30 95 H 10.6725 -4.00682 1.12221 0
M  V30 96 H 9.5485 -5.38806 1.04784 0
M  V30 97 H 9.8095 -4.40431 -0.383799 0
M  V30 98 N 8.8686 -0.792821 -1.36206 0
M  V30 99 C 10.1176 -0.363353 -1.984 0
M  V30 100 C 10.4306 1.07172 -1.63626 0
M  V30 101 O 11.6366 1.60362 -2.19081 0
M  V30 102 C 10.0926 -0.59872 -3.54885 0
M  V30 103 C 9.7006 -2.04543 -3.9858 0
M  V30 104 C 11.4446 -0.233926 -4.23855 0
M  V30 105 C 9.3516 -2.22727 -5.47856 0
M  V30 106 H 8.2816 -0.13212 -0.742334 0
M  V30 107 H 10.9326 -0.974935 -1.55458 0
M  V30 108 H 9.3146 0.0826222 -3.95914 0
M  V30 109 H 10.4886 -2.76345 -3.68741 0
M  V30 110 H 8.8036 -2.36879 -3.42458 0
M  V30 111 H 11.4006 -0.348027 -5.33566 0
M  V30 112 H 11.7436 0.818351 -4.08177 0
M  V30 113 H 12.2766 -0.868639 -3.882 0
M  V30 114 H 9.0156 -3.2635 -5.68486 0
M  V30 115 H 8.5356 -1.55434 -5.7931 0
M  V30 116 H 10.2146 -2.03607 -6.14128 0
M  V30 117 N 10.3467 1.47872 -0.545128 0
M  V30 118 C 11.2767 2.32661 0.197793 0
M  V30 119 C 12.2577 1.43041 0.920504 0
M  V30 120 O 13.4427 1.71912 0.90333 0
M  V30 121 C 10.5727 3.24569 1.23582 0
M  V30 122 C 9.5267 4.23333 0.630323 0
M  V30 123 C 8.8527 5.0448 1.77211 0
M  V30 124 C 10.1527 5.20704 -0.407974 0
M  V30 125 H 11.8467 2.95024 -0.510045 0
M  V30 126 H 9.3927 1.4187 -0.246731 0
M  V30 127 H 11.3457 3.8272 1.76362 0
M  V30 128 H 10.0697 2.60236 1.97344 0
M  V30 129 H 8.7287 3.6639 0.123922 0
M  V30 130 H 8.3767 4.36561 2.49847 0
M  V30 131 H 8.0767 5.71339 1.37281 0
M  V30 132 H 9.6007 5.65487 2.3034 0
M  V30 133 H 11.0147 5.7329 0.033305 0
M  V30 134 H 9.4117 5.95699 -0.725486 0
M  V30 135 H 10.4817 4.66917 -1.30828 0
M  V30 136 N 11.8248 0.280983 1.55075 0
M  V30 137 C 12.7548 -0.597469 2.25727 0
M  V30 138 C 13.7358 -1.15417 1.24952 0
M  V30 139 O 14.9208 -1.18722 1.53684 0
M  V30 140 C 12.0508 -1.7789 2.98283 0
M  V30 141 C 11.0048 -1.35347 4.06036 0
M  V30 142 C 10.3308 -2.61846 4.66198 0
M  V30 143 C 11.6308 -0.499354 5.19907 0
M  V30 144 H 13.3248 -0.00824265 2.99399 0
M  V30 145 H 10.8708 -0.0025244 1.44 0
M  V30 146 H 12.8238 -2.39937 3.46422 0
M  V30 147 H 11.5478 -2.39405 2.22155 0
M  V30 148 H 10.2068 -0.756156 3.58717 0
M  V30 149 H 9.8548 -3.21632 3.86732 0
M  V30 150 H 9.5548 -2.3409 5.38958 0
M  V30 151 H 11.0788 -3.24732 5.1709 0
M  V30 152 H 12.4928 -1.02498 5.64063 0
M  V30 153 H 10.8898 -0.316424 5.99265 0
M  V30 154 H 11.9598 0.480459 4.82514 0
M  V30 155 N 13.3029 -1.57598 0.00835791 0
M  V30 156 C 14.2509 -2.10078 -0.998508 0
M  V30 157 C 15.2449 -1.02262 -1.35051 0
M  V30 158 O 16.4509 -1.20719 -1.33518 0
M  V30 159 H 12.8259 -0.670903 -0.339696 0
M  V30 160 H 14.7969 -2.93648 -0.530398 0
M  V30 161 C 13.5459 -2.62615 -2.27879 0
M  V30 162 H 12.8689 -3.45213 -2.01662 0
M  V30 163 H 14.3089 -3.03004 -2.96588 0
M  V30 164 C 12.7679 -1.54407 -2.99433 0
M  V30 165 O 13.2979 -0.931812 -3.90743 0
M  V30 166 N 11.5039 -1.2695 -2.61404 0
M  V30 167 H 11.0509 -1.76924 -1.87232 0
M  V30 168 H 11.0089 -0.547704 -3.09593 0
M  V30 169 N 14.781 0.264519 -1.55364 0
M  V30 170 C 15.744 1.31046 -1.88042 0
M  V30 171 C 16.744 1.41943 -0.755569 0
M  V30 172 O 17.934 1.40947 -1.02369 0
M  V30 173 C 15.066 2.69067 -2.09323 0
M  V30 174 H 16.259 1.03297 -2.81549 0
M  V30 175 H 13.812 0.502989 -1.47986 0
M  V30 176 H 14.547 3.01982 -1.18226 0
M  V30 177 H 14.332 2.62542 -2.91229 0
M  V30 178 H 15.822 3.44623 -2.35848 0
M  V30 179 N 16.2591 1.48442 0.529413 0
M  V30 180 C 17.1911 1.59095 1.64989 0
M  V30 181 C 18.2041 0.475212 1.5571 0
M  V30 182 O 19.3931 0.746081 1.6216 0
M  V30 183 C 16.4931 1.50518 3.0364 0
M  V30 184 C 15.6661 2.77142 3.38395 0
M  V30 185 C 14.7251 2.62012 4.56329 0
M  V30 186 O 13.7511 3.35898 4.59522 0
M  V30 187 N 14.9531 1.71667 5.54536 0
M  V30 188 H 17.7181 2.55723 1.56287 0
M  V30 189 H 15.2791 1.45173 0.716697 0
M  V30 190 H 17.2711 1.38091 3.80412 0
M  V30 191 H 15.8411 0.618627 3.06418 0
M  V30 192 H 15.0611 3.0413 2.50796 0
M  V30 193 H 16.3491 3.61146 3.58401 0
M  V30 194 H 15.7471 1.10841 5.54735 0
M  V30 195 H 14.3041 1.65178 6.30523 0
M  V30 196 N 17.7372 -0.778329 1.37039 0
M  V30 197 C 18.9852 -1.53361 1.31623 0
M  V30 198 C 19.3062 -1.94739 -0.100831 0
M  V30 199 O 18.5762 -1.65797 -1.04347 0
M  V30 200 H 17.1562 -0.568794 0.484234 0
M  V30 201 H 19.8182 -0.926742 1.71457 0
M  V30 202 H 18.9142 -2.43606 1.95096 0
M  V30 203 N 19.2153 -1.21501 -1.00376 0
M  V30 204 C 20.4613 -1.03452 -1.74429 0
M  V30 205 C 20.7943 0.430764 -1.89362 0
M  V30 206 O 20.0693 1.31962 -1.42886 0
M  V30 207 C 20.3523 -1.73375 -3.15615 0
M  V30 208 C 20.2053 -3.27431 -3.08397 0
M  V30 209 C 21.5243 -1.47732 -4.14564 0
M  V30 210 H 18.6433 -0.377226 -0.633143 0
M  V30 211 H 21.2853 -1.49693 -1.17013 0
M  V30 212 H 19.4353 -1.34064 -3.64636 0
M  V30 213 H 21.1073 -3.76119 -2.67081 0
M  V30 214 H 19.3503 -3.5767 -2.45468 0
M  V30 215 H 20.0213 -3.71524 -4.08258 0
M  V30 216 H 22.4973 -1.8186 -3.74254 0
M  V30 217 H 21.3733 -1.99169 -5.11491 0
M  V30 218 H 21.6343 -0.407589 -4.40217 0
M  V30 219 N 20.6934 1.19889 -1.02296 0
M  V30 220 C 22.1044 1.71124 -0.746568 0
M  V30 221 C 22.4554 1.81939 0.734335 0
M  V30 222 O 21.5804 1.48639 1.57275 0
M  V30 223 C 22.1754 3.10804 -1.34857 0
M  V30 224 C 20.7344 3.59323 -1.1209 0
M  V30 225 C 19.8814 2.3635 -1.45031 0
M  V30 226 H 22.8324 1.04813 -1.19163 0
M  V30 227 H 22.8534 3.73186 -0.742437 0
M  V30 228 H 22.3654 3.029 -2.42638 0
M  V30 229 H 20.4664 3.7255 -0.0610337 0
M  V30 230 H 20.5794 4.4378 -1.80544 0
M  V30 231 H 18.9434 2.39399 -0.869487 0
M  V30 232 H 19.7264 2.31081 -2.53883 0
M  V30 233 N 22.1715 0.800033 1.35784 0
M  V30 234 C 23.3995 0.389606 2.03199 0
M  V30 235 C 23.8145 -0.997375 1.60306 0
M  V30 236 O 23.1715 -1.64154 0.797481 0
M  V30 237 C 23.2225 0.455855 3.58614 0
M  V30 238 O 22.9435 1.78815 3.99946 0
M  V30 239 C 24.4445 0.0374032 4.43284 0
M  V30 240 H 21.6645 0.159132 0.651857 0
M  V30 241 H 24.2085 1.08183 1.73541 0
M  V30 242 H 22.3635 -0.188057 3.86943 0
M  V30 243 H 22.7775 1.74636 4.94573 0
M  V30 244 H 24.2515 0.134882 5.51835 0
M  V30 245 H 24.7285 -1.01651 4.27275 0
M  V30 246 H 25.3345 0.654215 4.20238 0
M  V30 247 N 23.6496 -1.47581 0.552962 0
M  V30 248 C 24.8976 -2.02082 0.0272703 0
M  V30 249 C 25.2186 -1.4301 -1.32563 0
M  V30 250 O 24.4886 -0.603745 -1.86365 0
M  V30 251 H 23.0686 -0.746966 0.00709182 0
M  V30 252 H 25.7306 -1.81033 0.722008 0
M  V30 253 H 24.8266 -3.12034 -0.0639951 0
M  V30 254 N 25.1277 -0.289203 -1.54924 0
M  V30 255 C 26.3557 0.326463 -2.04308 0
M  V30 256 C 26.7707 1.48413 -1.16701 0
M  V30 257 O 26.1277 1.81507 -0.190087 0
M  V30 258 C 26.1787 0.794014 -3.52672 0
M  V30 259 O 25.8997 -0.317564 -4.36948 0
M  V30 260 C 27.4007 1.47605 -4.18004 0
M  V30 261 H 24.6207 0.0726272 -0.667058 0
M  V30 262 H 27.1647 -0.425401 -2.00026 0
M  V30 263 H 25.3197 1.49593 -3.57352 0
M  V30 264 H 25.7337 0.0443186 -5.24481 0
M  V30 265 H 27.2077 1.75447 -5.23376 0
M  V30 266 H 27.6847 2.41224 -3.67025 0
M  V30 267 H 28.2907 0.81762 -4.17367 0
M  V30 268 N 26.6058 1.57591 -0.0167156 0
M  V30 269 C 27.5358 2.12496 0.967858 0
M  V30 270 C 28.5168 1.03807 1.34752 0
M  V30 271 O 29.7018 1.31577 1.42833 0
M  V30 272 C 26.8318 2.64194 2.25431 0
M  V30 273 C 25.7858 3.77559 2.01576 0
M  V30 274 C 25.1118 4.15636 3.36379 0
M  V30 275 C 26.4118 5.04151 1.36489 0
M  V30 276 H 28.1058 2.95013 0.510643 0
M  V30 277 H 25.6518 1.41915 0.244181 0
M  V30 278 H 27.6048 3.01236 2.94678 0
M  V30 279 H 26.3288 1.78821 2.73296 0
M  V30 280 H 24.9878 3.40937 1.34751 0
M  V30 281 H 24.6358 3.27263 3.81979 0
M  V30 282 H 24.3358 4.92022 3.21229 0
M  V30 283 H 25.8598 4.5525 4.06915 0
M  V30 284 H 27.2738 5.38857 1.95718 0
M  V30 285 H 25.6708 5.85453 1.31776 0
M  V30 286 H 26.7408 4.83733 0.336219 0
M  V30 287 N 28.0839 -0.256276 1.55502 0
M  V30 288 C 28.9939 -1.33882 1.92647 0
M  V30 289 C 30.0099 -1.53159 0.825727 0
M  V30 290 O 31.1859 -1.66963 1.12629 0
M  V30 291 C 28.2509 -2.6751 2.20543 0
M  V30 292 C 27.3119 -2.56836 3.43997 0
M  V30 293 C 26.5449 -3.84092 3.70553 0
M  V30 294 O 26.7679 -4.85545 2.99336 0
M  V30 295 O 25.7019 -3.83288 4.64084 0
M  V30 296 H 29.5279 -1.05374 2.84833 0
M  V30 297 H 27.1129 -0.456237 1.42263 0
M  V30 298 H 28.9949 -3.46492 2.39835 0
M  V30 299 H 27.6699 -2.9577 1.31536 0
M  V30 300 H 26.5769 -1.76172 3.30021 0
M  V30 301 H 27.9099 -2.33523 4.33275 0
M  V30 302 N 29.562 -1.4872 -0.521534 0
M  V30 303 C 30.509 -1.63871 -1.62527 0
M  V30 304 C 31.479 -0.480559 -1.58996 0
M  V30 305 O 32.664 -0.705085 -1.77294 0
M  V30 306 C 29.804 -1.69227 -3.00759 0
M  V30 307 C 28.917 -2.96207 -3.14461 0
M  V30 308 C 28.052 -2.92671 -4.43303 0
M  V30 309 C 27.091 -4.14318 -4.50563 0
M  V30 310 N 26.228 -4.0881 -5.70805 0
M  V30 311 H 31.068 -2.58123 -1.48918 0
M  V30 312 H 28.605 -1.28 -0.724878 0
M  V30 313 H 30.563 -1.70314 -3.80853 0
M  V30 314 H 29.193 -0.784586 -3.1312 0
M  V30 315 H 28.245 -3.04826 -2.27564 0
M  V30 316 H 29.557 -3.86192 -3.15686 0
M  V30 317 H 28.711 -2.92206 -5.31696 0
M  V30 318 H 27.45 -2.00429 -4.44612 0
M  V30 319 H 26.455 -4.15049 -3.60575 0
M  V30 320 H 27.68 -5.07729 -4.50986 0
M  V30 321 H 25.626 -3.19394 -5.72995 0
M  V30 322 H 25.543 -4.92509 -5.7356 0
M  V30 323 H 26.811 -4.12418 -6.61462 0
M  V30 324 N 31.0401 0.771051 -1.3745 0
M  V30 325 C 32.2701 1.55789 -1.35696 0
M  V30 326 C 32.6781 1.89107 0.0594523 0
M  V30 327 O 32.0211 1.51984 1.03183 0
M  V30 328 C 32.0831 2.89515 -2.13123 0
M  V30 329 C 31.7471 2.78829 -3.62082 0
M  V30 330 C 32.7441 2.49812 -4.5595 0
M  V30 331 C 30.4291 2.9683 -4.05213 0
M  V30 332 C 32.4231 2.38923 -5.90927 0
M  V30 333 C 30.1101 2.85562 -5.40276 0
M  V30 334 C 31.1081 2.56649 -6.32946 0
M  V30 335 O 30.7961 2.45408 -7.65526 0
M  V30 336 H 30.5281 0.489257 -0.466481 0
M  V30 337 H 33.0821 0.963446 -1.81403 0
M  V30 338 H 31.3121 3.51081 -1.62107 0
M  V30 339 H 33.0011 3.50915 -2.03994 0
M  V30 340 H 33.7671 2.3559 -4.23937 0
M  V30 341 H 29.6461 3.18335 -3.33442 0
M  V30 342 H 33.1901 2.16277 -6.63227 0
M  V30 343 H 29.0871 2.99351 -5.71891 0
M  V30 344 H 29.8551 2.60753 -7.75855 0
M  V30 345 N 32.5182 1.22032 0.997298 0
M  V30 346 C 33.4812 0.987909 2.06816 0
M  V30 347 C 34.4812 -0.0440084 1.6074 0
M  V30 348 O 35.6712 0.194053 1.73116 0
M  V30 349 C 32.8032 0.49132 3.37341 0
M  V30 350 H 33.9962 1.93803 2.28868 0
M  V30 351 H 31.5492 1.03838 1.16822 0
M  V30 352 H 32.2842 -0.463364 3.20973 0
M  V30 353 H 32.0692 1.23575 3.72118 0
M  V30 354 H 33.5592 0.348824 4.16141 0
M  V30 355 N 33.9963 -1.19345 1.0293 0
M  V30 356 C 34.9593 -2.20793 0.615069 0
M  V30 357 C 35.9593 -1.57553 -0.321533 0
M  V30 358 O 37.1493 -1.73862 -0.108483 0
M  V30 359 C 34.2813 -3.40754 -0.0999222 0
M  V30 360 H 35.4743 -2.58955 1.51269 0
M  V30 361 H 33.0273 -1.3303 0.820534 0
M  V30 362 H 33.7623 -3.0811 -1.01187 0
M  V30 363 H 33.5473 -3.87889 0.57309 0
M  V30 364 H 35.0373 -4.15898 -0.376645 0
M  V30 365 N 35.4744 -0.807222 -1.35358 0
M  V30 366 C 36.4244 -0.190706 -2.27201 0
M  V30 367 C 37.4084 0.635838 -1.47804 0
M  V30 368 O 38.6004 0.492991 -1.69996 0
M  V30 369 C 35.7294 0.659337 -3.36909 0
M  V30 370 C 34.8154 -0.176971 -4.23731 0
M  V30 371 N 35.2064 -1.24029 -4.90357 0
M  V30 372 C 33.5044 0.0412953 -4.45981 0
M  V30 373 C 34.2054 -1.75092 -5.54723 0
M  V30 374 N 33.1814 -1.05727 -5.33219 0
M  V30 375 H 36.9834 -1.0043 -2.76208 0
M  V30 376 H 34.4974 -0.648445 -1.48892 0
M  V30 377 H 36.4944 1.11706 -4.01656 0
M  V30 378 H 35.1544 1.47127 -2.89454 0
M  V30 379 H 36.1654 -1.62295 -4.91814 0
M  V30 380 H 32.8424 0.82232 -4.09322 0
M  V30 381 H 34.2324 -2.63963 -6.17878 0
M  V30 382 N 36.9525 1.47285 -0.560781 0
M  V30 383 C 38.1805 2.06855 -0.0430262 0
M  V30 384 C 38.5955 1.41291 1.25229 0
M  V30 385 O 37.9525 0.510648 1.7521 0
M  V30 386 C 38.0035 3.61178 0.152518 0
M  V30 387 O 37.7245 4.24285 -1.0915 0
M  V30 388 C 39.2255 4.37624 0.707145 0
M  V30 389 H 36.4455 0.669319 -0.0474652 0
M  V30 390 H 38.9895 1.89237 -0.77521 0
M  V30 391 H 37.1445 3.78298 0.834843 0
M  V30 392 H 37.5585 5.16868 -0.891482 0
M  V30 393 H 39.0325 5.46271 0.793244 0
M  V30 394 H 39.5095 4.04152 1.71923 0
M  V30 395 H 40.1155 4.25257 0.0604027 0
M  V30 396 N 38.4306 0.297415 1.54768 0
M  V30 397 C 39.3936 -0.567375 2.22066 0
M  V30 398 C 40.3936 -1.06409 1.20556 0
M  V30 399 O 41.5836 -0.960691 1.45315 0
M  V30 400 C 38.7156 -1.78517 2.90421 0
M  V30 401 H 39.9086 0.0205534 2.99893 0
M  V30 402 H 37.4616 0.0482163 1.56226 0
M  V30 403 H 38.1966 -2.41303 2.16664 0
M  V30 404 H 37.9816 -1.43669 3.64831 0
M  V30 405 H 39.4716 -2.39964 3.41771 0
M  V30 406 N 39.9087 -1.5758 0.0250728 0
M  V30 407 C 41.1857 -1.82917 -0.692873 0
M  V30 408 C 41.5657 -0.908137 -1.90568 0
M  V30 409 O 40.9137 0.0372298 -2.2847 0
M  V30 410 C 41.1237 -3.32034 -1.07492 0
M  V30 411 C 42.4717 -3.98406 -1.46826 0
M  V30 412 O 43.4957 -3.36505 -1.16801 0
M  V30 413 O 42.3547 -5.07497 -2.02754 0
M  V30 414 H 39.4487 -0.754079 -0.33955 0
M  V30 415 H 41.9947 -1.69619 0.0524456 0
M  V30 416 H 40.7667 -3.90728 -0.211552 0
M  V30 417 H 40.3897 -3.50424 -1.87854 0
M  V30 418 N 41.3868 0.248026 -1.55636 0
M  V30 419 C 42.6148 0.993808 -1.81469 0
M  V30 420 C 43.0298 1.78991 -0.60064 0
M  V30 421 O 42.3868 1.77345 0.430682 0
M  V30 422 C 42.4378 1.93258 -3.05506 0
M  V30 423 O 42.1588 1.16869 -4.22224 0
M  V30 424 C 43.6598 2.79444 -3.4413 0
M  V30 425 H 40.8798 0.292486 -0.603898 0
M  V30 426 H 43.4238 0.271253 -2.02693 0
M  V30 427 H 41.5788 2.60943 -2.86335 0
M  V30 428 H 41.9928 1.80359 -4.92515 0
M  V30 429 H 43.4668 3.41066 -4.34026 0
M  V30 430 H 43.9438 3.50499 -2.64665 0
M  V30 431 H 44.5498 2.17214 -3.65648 0
M  V30 432 N 42.8649 1.48995 0.513639 0
M  V30 433 C 44.2809 1.35478 0.843682 0
M  V30 434 C 44.4809 0.378213 1.97919 0
M  V30 435 O 43.5369 -0.194689 2.51748 0
M  V30 436 C 44.8499 2.75901 1.1958 0
M  V30 437 C 46.3979 2.84509 1.30474 0
M  V30 438 C 46.8729 4.25671 1.69021 0
M  V30 439 N 48.3639 4.28422 1.76094 0
M  V30 440 C 49.0989 5.34601 2.07338 0
M  V30 441 N 48.5949 6.5104 2.36894 0
M  V30 442 N 50.3879 5.22007 2.08483 0
M  V30 443 H 42.5389 2.11092 -0.235328 0
M  V30 444 H 44.8019 0.947039 -0.0426669 0
M  V30 445 H 44.5079 3.49001 0.434913 0
M  V30 446 H 44.3819 3.10467 2.1422 0
M  V30 447 H 46.7689 2.11655 2.05637 0
M  V30 448 H 46.8499 2.53542 0.339155 0
M  V30 449 H 46.4939 4.99048 0.944135 0
M  V30 450 H 46.4239 4.54094 2.66658 0
M  V30 451 H 48.9149 3.44441 1.55464 0
M  V30 452 H 49.2279 7.2779 2.59887 0
M  V30 453 H 47.5729 6.54287 2.34378 0
M  V30 454 H 50.7639 4.30051 1.84861 0
M  V30 455 H 50.9369 6.04854 2.325 0
M  V30 456 N 44.343 -0.763751 1.37857 0
M  V30 457 C 45.273 -1.89103 1.36975 0
M  V30 458 C 46.254 -1.68439 0.237152 0
M  V30 459 O 47.439 -1.8918 0.438713 0
M  V30 460 C 44.569 -3.26496 1.18395 0
M  V30 461 C 43.523 -3.61741 2.28751 0
M  V30 462 C 42.849 -4.97762 1.95286 0
M  V30 463 C 44.149 -3.67665 3.70972 0
M  V30 464 H 45.843 -1.90099 2.31307 0
M  V30 465 H 43.389 -0.91319 1.11341 0
M  V30 466 H 45.342 -4.05003 1.16406 0
M  V30 467 H 44.066 -3.25955 0.205215 0
M  V30 468 H 42.725 -2.85547 2.29909 0
M  V30 469 H 42.373 -4.93769 0.959221 0
M  V30 470 H 42.073 -5.22313 2.69189 0
M  V30 471 H 43.597 -5.7866 1.94898 0
M  V30 472 H 45.011 -4.36307 3.719 0
M  V30 473 H 43.408 -4.03718 4.43995 0
M  V30 474 H 44.478 -2.68134 4.0402 0
M  V30 475 N 45.8211 -1.22559 -0.990812 0
M  V30 476 C 46.7711 -0.964807 -2.0658 0
M  V30 477 C 47.7551 0.0853472 -1.60673 0
M  V30 478 O 48.9471 -0.125443 -1.76555 0
M  V30 479 C 46.0761 -0.546707 -3.38919 0
M  V30 480 C 45.1621 -1.6317 -3.91454 0
M  V30 481 N 45.5531 -2.85985 -4.17189 0
M  V30 482 C 43.8511 -1.50387 -4.19881 0
M  V30 483 C 44.5521 -3.56159 -4.59919 0
M  V30 484 N 43.5281 -2.83637 -4.63736 0
M  V30 485 H 47.3301 -1.89769 -2.24421 0
M  V30 486 H 44.8441 -1.12343 -1.17273 0
M  V30 487 H 46.8411 -0.34119 -4.15502 0
M  V30 488 H 45.5011 0.379254 -3.22478 0
M  V30 489 H 46.5121 -3.22392 -4.05319 0
M  V30 490 H 43.1891 -0.644254 -4.12499 0
M  V30 491 H 44.5791 -4.6139 -4.88435 0
M  V30 492 N 47.2992 1.18797 -1.03562 0
M  V30 493 C 48.2292 2.24472 -0.643019 0
M  V30 494 C 49.2102 1.66433 0.351283 0
M  V30 495 O 50.3952 1.92803 0.232505 0
M  V30 496 C 47.5252 3.473 4.24935e-05 0
M  V30 497 C 46.4792 4.18055 -0.917257 0
M  V30 498 C 45.8052 5.34519 -0.138941 0
M  V30 499 C 47.1052 4.72109 -2.23407 0
M  V30 500 H 48.7992 2.57566 -1.52643 0
M  V30 501 H 46.3452 1.23806 -0.735394 0
M  V30 502 H 48.2982 4.20426 0.286383 0
M  V30 503 H 47.0222 3.13424 0.918299 0
M  V30 504 H 45.6812 3.46821 -1.1879 0
M  V30 505 H 45.3292 4.96891 0.781562 0
M  V30 506 H 45.0292 5.82794 -0.750005 0
M  V30 507 H 46.5532 6.10438 0.1405 0
M  V30 508 H 47.9672 5.36955 -2.00879 0
M  V30 509 H 46.3642 5.30897 -2.79765 0
M  V30 510 H 47.4342 3.89807 -2.88407 0
M  V30 511 N 48.7773 0.814389 1.34928 0
M  V30 512 C 49.7403 0.235759 2.27984 0
M  V30 513 C 50.7403 -0.581412 1.49921 0
M  V30 514 O 51.9303 -0.398758 1.69575 0
M  V30 515 C 49.0623 -0.670433 3.34242 0
M  V30 516 H 50.2553 1.05659 2.80671 0
M  V30 517 H 47.8083 0.585614 1.44915 0
M  V30 518 H 48.5433 -1.51466 2.86755 0
M  V30 519 H 48.3283 -0.0860822 3.92005 0
M  V30 520 H 49.8183 -1.06935 4.03676 0
M  V30 521 N 50.2554 -1.46986 0.568584 0
M  V30 522 C 51.5024 -2.02441 0.0487986 0
M  V30 523 C 51.8304 -1.44169 -1.30559 0
M  V30 524 O 51.0854 -0.591213 -1.86556 0
M  V30 525 C 51.3844 -3.57306 -0.081836 0
M  V30 526 C 51.0504 -4.34552 1.20313 0
M  V30 527 C 49.7124 -4.55376 1.5552 0
M  V30 528 C 52.0644 -4.79016 2.05411 0
M  V30 529 C 49.3924 -5.17913 2.7565 0
M  V30 530 C 51.7444 -5.42879 3.24754 0
M  V30 531 C 50.4084 -5.61933 3.60261 0
M  V30 532 H 49.6784 -0.740785 0.0178567 0
M  V30 533 H 52.3254 -1.76525 0.742384 0
M  V30 534 H 50.6304 -3.8228 -0.858463 0
M  V30 535 H 52.3274 -3.97876 -0.499546 0
M  V30 536 H 48.9174 -4.18631 0.919014 0
M  V30 537 H 53.1014 -4.62696 1.79516 0
M  V30 538 H 48.3574 -5.30858 3.03315 0
M  V30 539 H 52.5314 -5.76293 3.90973 0
M  V30 540 H 50.1584 -6.10161 4.53439 0
M  V30 541 N 51.7335 -0.305618 -1.54608 0
M  V30 542 C 52.9585 0.307562 -2.05107 0
M  V30 543 C 53.3835 1.46385 -1.18123 0
M  V30 544 O 52.7415 1.8034 -0.186324 0
M  V30 545 C 52.7895 0.73704 -3.52987 0
M  V30 546 O 51.8935 1.84134 -3.6901 0
M  V30 547 H 51.2345 0.0589143 -0.661381 0
M  V30 548 H 53.7645 -0.448807 -1.99617 0
M  V30 549 H 53.7745 1.02459 -3.94925 0
M  V30 550 H 52.4495 -0.108773 -4.15758 0
M  V30 551 H 51.0265 1.55398 -3.38978 0
M  V30 552 N 53.2116 1.57565 -0.0334293 0
M  V30 553 C 54.4366 1.96689 0.657895 0
M  V30 554 C 54.8616 0.910057 1.64619 0
M  V30 555 O 54.2196 -0.128598 1.80843 0
M  V30 556 C 54.2676 3.34905 1.33683 0
M  V30 557 O 53.3716 3.31574 2.45219 0
M  V30 558 H 52.7126 0.641205 0.172489 0
M  V30 559 H 55.2426 2.04372 -0.0965621 0
M  V30 560 H 55.2526 3.71234 1.69262 0
M  V30 561 H 53.9276 4.11366 0.612411 0
M  V30 562 H 52.5046 3.06968 2.11719 0
M  V30 563 N 54.6897 -0.239769 1.55765 0
M  V30 564 C 55.9357 -0.963942 1.79108 0
M  V30 565 C 56.2907 -1.82689 0.60352 0
M  V30 566 O 55.5837 -1.87313 -0.403033 0
M  V30 567 C 55.7777 -1.852 3.05672 0
M  V30 568 C 55.6067 -1.07651 4.36625 0
M  V30 569 C 54.3767 -0.778738 4.99263 0
M  V30 570 C 56.5747 -0.45062 5.12322 0
M  V30 571 N 54.5567 0.0200708 6.13897 0
M  V30 572 C 55.9277 0.212429 6.19636 0
M  V30 573 C 57.9827 -0.361806 4.96584 0
M  V30 574 C 56.6857 0.955772 7.12922 0
M  V30 575 C 58.7117 0.368023 5.90254 0
M  V30 576 C 58.0737 1.01968 6.96981 0
M  V30 577 H 54.1727 -0.333601 0.707272 0
M  V30 578 H 56.7567 -0.236425 1.93259 0
M  V30 579 H 54.9277 -2.55149 2.92837 0
M  V30 580 H 56.6597 -2.51228 3.1728 0
M  V30 581 H 53.4147 -1.09229 4.60832 0
M  V30 582 H 53.8387 0.407777 6.75771 0
M  V30 583 H 58.4807 -0.851286 4.14141 0
M  V30 584 H 56.1987 1.45683 7.9486 0
M  V30 585 H 59.7847 0.437504 5.80153 0
M  V30 586 H 58.6647 1.5754 7.68213 0
M  V30 587 N 56.1678 -1.49265 -0.50573 0
M  V30 588 C 57.0978 -1.68495 -1.61653 0
M  V30 589 C 58.0788 -0.53366 -1.61512 0
M  V30 590 O 59.2638 -0.76897 -1.78327 0
M  V30 591 C 56.3938 -1.74709 -3.00157 0
M  V30 592 C 55.3478 -2.89581 -3.15162 0
M  V30 593 C 54.6738 -2.80903 -4.5497 0
M  V30 594 C 55.9738 -4.30578 -2.95634 0
M  V30 595 H 57.6678 -2.61493 -1.45814 0
M  V30 596 H 55.2138 -1.25838 -0.70005 0
M  V30 597 H 57.1668 -1.86748 -3.77761 0
M  V30 598 H 55.8908 -0.783067 -3.17074 0
M  V30 599 H 54.5498 -2.77136 -2.39982 0
M  V30 600 H 54.1978 -1.82419 -4.68756 0
M  V30 601 H 53.8978 -3.57999 -4.65951 0
M  V30 602 H 55.4218 -2.94944 -5.34641 0
M  V30 603 H 56.8358 -4.4373 -3.63011 0
M  V30 604 H 55.2328 -5.0886 -3.18091 0
M  V30 605 H 56.3028 -4.45352 -1.91806 0
M  V30 606 N 57.6459 0.756429 -1.3826 0
M  V30 607 C 58.8929 1.51547 -1.34312 0
M  V30 608 C 59.2209 1.94382 0.0677144 0
M  V30 609 O 58.4759 1.65514 1.04421 0
M  V30 610 C 58.7749 2.78313 -2.24224 0
M  V30 611 C 58.4409 2.54455 -3.72241 0
M  V30 612 C 57.1029 2.47657 -4.12576 0
M  V30 613 C 59.4549 2.3354 -4.65949 0
M  V30 614 C 56.7829 2.17956 -5.44713 0
M  V30 615 C 59.1349 2.05359 -5.9834 0
M  V30 616 C 57.7989 1.97016 -6.37762 0
M  V30 617 H 57.0689 0.55455 -0.491482 0
M  V30 618 H 59.7159 0.870039 -1.70595 0
M  V30 619 H 58.0209 3.47492 -1.80987 0
M  V30 620 H 59.7179 3.36259 -2.18474 0
M  V30 621 H 56.3079 2.60616 -3.40261 0
M  V30 622 H 60.4919 2.37772 -4.35635 0
M  V30 623 H 55.7479 2.10003 -5.74203 0
M  V30 624 H 59.9219 1.88179 -6.70494 0
M  V30 625 H 57.5489 1.73766 -7.40074 0
M  V30 626 N 59.124 1.23083 0.984299 0
M  V30 627 C 60.072 1.00593 2.09723 0
M  V30 628 C 61.066 -0.0538014 1.69315 0
M  V30 629 O 62.272 0.0993719 1.79725 0
M  V30 630 H 58.647 0.30817 0.685956 0
M  V30 631 H 60.618 1.95012 2.2586 0
M  V30 632 C 59.367 0.609601 3.42314 0
M  V30 633 H 58.69 1.41675 3.73856 0
M  V30 634 H 60.13 0.491726 4.21139 0
M  V30 635 C 58.589 -0.681745 3.2993 0
M  V30 636 O 59.119 -1.73192 3.62446 0
M  V30 637 N 57.325 -0.656178 2.83095 0
M  V30 638 H 56.872 0.198759 2.56832 0
M  V30 639 H 56.83 -1.52044 2.75191 0
M  V30 640 N 60.6021 -1.18246 1.0419 0
M  V30 641 C 61.5651 -2.20128 0.638452 0
M  V30 642 C 62.5651 -1.57885 -0.304805 0
M  V30 643 O 63.7551 -1.73967 -0.0900369 0
M  V30 644 C 60.8871 -3.4084 -0.0637751 0
M  V30 645 H 62.0801 -2.57336 1.54007 0
M  V30 646 H 59.6331 -1.32152 0.834598 0
M  V30 647 H 60.3681 -3.09166 -0.979136 0
M  V30 648 H 60.1531 -3.8726 0.614198 0
M  V30 649 H 61.6431 -4.16274 -0.332512 0
M  V30 650 N 62.0802 -0.821533 -1.34494 0
M  V30 651 C 63.0272 -0.240397 -2.29545 0
M  V30 652 C 63.9972 0.634031 -1.53523 0
M  V30 653 O 65.1822 0.575966 -1.81899 0
M  V30 654 C 62.3222 0.592869 -3.39969 0
M  V30 655 C 61.4352 -0.30365 -4.30932 0
M  V30 656 C 60.5702 0.539049 -5.28458 0
M  V30 657 C 59.6092 -0.356942 -6.11058 0
M  V30 658 N 58.7462 0.446603 -7.00678 0
M  V30 659 H 63.5862 -1.05632 -2.7865 0
M  V30 660 H 61.1232 -0.532413 -1.37127 0
M  V30 661 H 63.0812 1.09129 -4.02675 0
M  V30 662 H 61.7112 1.37392 -2.92102 0
M  V30 663 H 60.7632 -0.920276 -3.691 0
M  V30 664 H 62.0752 -0.992661 -4.88823 0
M  V30 665 H 61.2292 1.102 -5.96608 0
M  V30 666 H 59.9682 1.26157 -4.71101 0
M  V30 667 H 58.9732 -0.932047 -5.41842 0
M  V30 668 H 60.1982 -1.07755 -6.70497 0
M  V30 669 H 58.1442 1.15282 -6.45791 0
M  V30 670 H 58.0612 -0.184048 -7.55776 0
M  V30 671 H 59.3292 0.992352 -7.73158 0
M  V30 672 N 63.5583 1.46682 -0.576371 0
M  V30 673 C 64.8063 2.02013 -0.0594163 0
M  V30 674 C 65.1273 1.45101 1.30271 0
M  V30 675 O 64.3973 0.633317 1.8538 0
M  V30 676 H 62.9773 0.746759 -0.0189745 0
M  V30 677 H 65.6393 1.79862 -0.750717 0
M  V30 678 H 64.7353 3.12097 0.014345 0
M  V30 679 N 65.0364 0.313813 1.54444 0
M  V30 680 C 65.9684 -0.590425 2.21465 0
M  V30 681 C 66.9814 -1.08753 1.21147 0
M  V30 682 O 68.1704 -1.00278 1.4767 0
M  V30 683 C 65.2704 -1.82179 2.85769 0
M  V30 684 C 64.4434 -1.46502 4.12136 0
M  V30 685 C 63.5024 -2.55288 4.60124 0
M  V30 686 O 62.5284 -2.19842 5.25032 0
M  V30 687 N 63.7304 -3.86053 4.33525 0
M  V30 688 H 66.4954 -0.0166033 2.99695 0
M  V30 689 H 64.0564 0.136578 1.61323 0
M  V30 690 H 66.0484 -2.54328 3.14801 0
M  V30 691 H 64.6184 -2.30369 2.11303 0
M  V30 692 H 63.8384 -0.575595 3.89975 0
M  V30 693 H 65.1264 -1.20221 4.94393 0
M  V30 694 H 64.5244 -4.17654 3.81552 0
M  V30 695 H 63.0814 -4.54461 4.67235 0
M  V30 696 N 66.5145 -1.57545 0.0417849 0
M  V30 697 C 67.4445 -2.14009 -0.933929 0
M  V30 698 C 68.4255 -1.05938 -1.33083 0
M  V30 699 O 69.6105 -1.33833 -1.40721 0
M  V30 700 C 66.7405 -2.67747 -2.21199 0
M  V30 701 C 65.6945 -3.80718 -1.95544 0
M  V30 702 C 65.0205 -4.20935 -3.29724 0
M  V30 703 C 66.3205 -5.06258 -1.28452 0
M  V30 704 H 68.0145 -2.95788 -0.463645 0
M  V30 705 H 65.5605 -1.42285 -0.221573 0
M  V30 706 H 67.5135 -3.05886 -2.89848 0
M  V30 707 H 66.2375 -1.83147 -2.70416 0
M  V30 708 H 64.8965 -3.43037 -1.2931 0
M  V30 709 H 64.5445 -3.33298 -3.76724 0
M  V30 710 H 64.2445 -4.9707 -3.13361 0
M  V30 711 H 65.7685 -4.61666 -3.9962 0
M  V30 712 H 67.1825 -5.41903 -1.8712 0
M  V30 713 H 65.5795 -5.87475 -1.22445 0
M  V30 714 H 66.6495 -4.84207 -0.259219 0
M  V30 715 N 67.9926 0.231505 -1.5589 0
M  V30 716 C 68.9226 1.29022 -1.94617 0
M  V30 717 C 69.9036 1.4941 -0.813067 0
M  V30 718 O 71.0886 1.6176 -1.07459 0
M  V30 719 C 68.2186 2.64199 -2.25424 0
M  V30 720 C 67.1726 2.58484 -3.41131 0
M  V30 721 C 66.4986 3.97599 -3.57518 0
M  V30 722 C 67.7986 2.1413 -4.76388 0
M  V30 723 H 69.4926 0.968563 -2.83301 0
M  V30 724 H 67.0386 0.464479 -1.36303 0
M  V30 725 H 68.9916 3.38413 -2.51107 0
M  V30 726 H 67.7156 2.98032 -1.33583 0
M  V30 727 H 66.3746 1.86727 -3.15481 0
M  V30 728 H 66.0226 4.28723 -2.6307 0
M  V30 729 H 65.7226 3.94659 -4.35337 0
M  V30 730 H 67.2466 4.7349 -3.85538 0
M  V30 731 H 68.6606 2.78083 -5.01341 0
M  V30 732 H 67.0576 2.2227 -5.57419 0
M  V30 733 H 68.1276 1.09331 -4.72414 0
M  V30 734 N 69.4707 1.49531 0.497807 0
M  V30 735 C 70.7167 1.59415 1.25358 0
M  V30 736 C 71.0497 0.281422 1.9215 0
M  V30 737 O 70.3247 -0.715249 1.80871 0
M  V30 738 C 70.6077 2.75566 2.3181 0
M  V30 739 C 70.4607 4.16642 1.69498 0
M  V30 740 C 71.7797 2.87347 3.33346 0
M  V30 741 H 68.8987 0.580244 0.454408 0
M  V30 742 H 71.5407 1.81827 0.551262 0
M  V30 743 H 69.6907 2.56587 2.91711 0
M  V30 744 H 71.3627 4.47145 1.13399 0
M  V30 745 H 69.6057 4.22141 0.998978 0
M  V30 746 H 70.2767 4.93792 2.46725 0
M  V30 747 H 72.7527 3.04634 2.83438 0
M  V30 748 H 71.6287 3.70289 4.05188 0
M  V30 749 H 71.8897 1.96834 3.95865 0
M  V30 750 N 70.9488 -0.749086 1.3866 0
M  V30 751 C 72.1768 -1.53834 1.38358 0
M  V30 752 C 72.5918 -1.88783 -0.0255219 0
M  V30 753 O 71.9488 -1.53101 -0.993292 0
M  V30 754 C 71.9998 -2.83468 2.2434 0
M  V30 755 O 71.7208 -2.50008 3.5976 0
M  V30 756 C 73.2218 -3.7758 2.32267 0
M  V30 757 H 70.4418 -0.47585 0.473083 0
M  V30 758 H 72.9858 -0.926726 1.82297 0
M  V30 759 H 71.1408 -3.40995 1.83851 0
M  V30 760 H 71.5548 -3.33182 4.05081 0
M  V30 761 H 73.0288 -4.65478 2.96706 0
M  V30 762 H 73.5058 -4.18334 1.33765 0
M  V30 763 H 74.1118 -3.25976 2.73166 0
M  V30 764 N 72.4269 -1.23603 -0.977757 0
M  V30 765 C 73.8429 -0.999251 -1.24447 0
M  V30 766 C 74.0429 0.298053 -1.99283 0
M  V30 767 O 73.0989 1.01681 -2.31122 0
M  V30 768 C 74.4119 -2.20784 -2.04144 0
M  V30 769 C 75.9599 -2.25303 -2.17273 0
M  V30 770 C 76.4349 -3.45755 -3.00362 0
M  V30 771 N 77.9259 -3.4601 -3.07947 0
M  V30 772 C 78.6609 -4.35868 -3.72568 0
M  V30 773 N 78.1569 -5.35966 -4.38991 0
M  V30 774 N 79.9499 -4.23605 -3.6948 0
M  V30 775 H 72.1009 -2.06986 -0.476483 0
M  V30 776 H 74.3639 -0.907801 -0.273134 0
M  V30 777 H 74.0699 -3.14945 -1.56533 0
M  V30 778 H 73.9439 -2.22085 -3.04891 0
M  V30 779 H 76.3309 -1.3168 -2.64092 0
M  V30 780 H 76.4119 -2.28033 -1.15907 0
M  V30 781 H 76.0559 -4.39687 -2.5424 0
M  V30 782 H 75.9859 -3.40266 -4.01904 0
M  V30 783 H 78.4769 -2.73588 -2.60688 0
M  V30 784 H 78.7899 -6.00783 -4.86086 0
M  V30 785 H 77.1349 -5.39863 -4.37691 0
M  V30 786 H 80.3259 -3.44647 -3.16759 0
M  V30 787 H 80.4989 -4.93836 -4.1956 0
M  V30 788 N 73.905 1.17692 -1.04816 0
M  V30 789 C 75.321 1.39863 -0.768794 0
M  V30 790 C 75.521 1.91118 0.638451 0
M  V30 791 O 74.577 2.10036 1.40146 0
M  V30 792 C 75.89 2.39274 -1.82122 0
M  V30 793 C 77.438 2.52987 -1.843 0
M  V30 794 C 77.913 3.55669 -2.88555 0
M  V30 795 N 79.404 3.63183 -2.87493 0
M  V30 796 C 80.139 4.42381 -3.64811 0
M  V30 797 N 79.635 5.25125 -4.51903 0
M  V30 798 N 81.428 4.37217 -3.53267 0
M  V30 799 H 73.579 0.82752 -1.95617 0
M  V30 800 H 75.842 0.426123 -0.846831 0
M  V30 801 H 75.548 2.08678 -2.83102 0
M  V30 802 H 75.422 3.38725 -1.65967 0
M  V30 803 H 77.809 2.82896 -0.839869 0
M  V30 804 H 77.89 1.53623 -2.04532 0
M  V30 805 H 77.534 3.26499 -3.89051 0
M  V30 806 H 77.464 4.54728 -2.65575 0
M  V30 807 H 79.955 3.04103 -2.24343 0
M  V30 808 H 80.268 5.82728 -5.07591 0
M  V30 809 H 78.613 5.24519 -4.55966 0
M  V30 810 H 81.804 3.71626 -2.84625 0
M  V30 811 H 81.977 4.98696 -4.13771 0
M  V30 812 N 75.3831 0.828654 1.34056 0
M  V30 813 C 76.3461 0.259927 2.27721 0
M  V30 814 C 77.3461 -0.565478 1.50529 0
M  V30 815 O 78.5361 -0.38075 1.69988 0
M  V30 816 C 75.6681 -0.634944 3.34935 0
M  V30 817 H 76.8611 1.0863 2.79534 0
M  V30 818 H 74.4141 0.600951 1.44285 0
M  V30 819 H 75.1491 -1.48416 2.88346 0
M  V30 820 H 74.9341 -0.0444999 3.92075 0
M  V30 821 H 76.4241 -1.02648 4.04788 0
M  V30 822 N 76.8612 -1.46375 0.584142 0
M  V30 823 C 77.7912 -2.33103 -0.136037 0
M  V30 824 C 78.7722 -1.45431 -0.882255 0
M  V30 825 O 79.9572 -1.74246 -0.857434 0
M  V30 826 C 77.0872 -3.27731 -1.14933 0
M  V30 827 C 76.0412 -4.24855 -0.517862 0
M  V30 828 C 75.3672 -5.09001 -1.63773 0
M  V30 829 C 76.6672 -5.19439 0.545886 0
M  V30 830 H 78.3612 -2.93568 0.588086 0
M  V30 831 H 75.9072 -1.41166 0.284259 0
M  V30 832 H 77.8602 -3.87261 -1.66153 0
M  V30 833 H 76.5842 -2.65377 -1.90375 0
M  V30 834 H 75.2432 -3.6659 -0.0267361 0
M  V30 835 H 74.8912 -4.43031 -2.38185 0
M  V30 836 H 74.5912 -5.74777 -1.22085 0
M  V30 837 H 76.1152 -5.71396 -2.15266 0
M  V30 838 H 77.5292 -5.73177 0.118704 0
M  V30 839 H 75.9262 -5.93566 0.88317 0
M  V30 840 H 76.9962 -4.63285 1.43162 0
M  V30 841 N 78.3393 -0.321999 -1.54275 0
M  V30 842 C 79.5643 0.285791 -2.05422 0
M  V30 843 C 79.9893 1.45124 -1.19669 0
M  V30 844 O 79.3473 1.80132 -0.205441 0
M  V30 845 C 79.3953 0.69956 -3.53749 0
M  V30 846 O 78.4993 1.8021 -3.70942 0
M  V30 847 H 77.8403 0.0518962 -0.661969 0
M  V30 848 H 80.3703 -0.469954 -1.9913 0
M  V30 849 H 80.3803 0.982649 -3.9599 0
M  V30 850 H 79.0553 -0.152864 -4.15619 0
M  V30 851 H 77.6323 1.51794 -3.40607 0
M  V30 852 N 79.8174 1.5752 -0.0501392 0
M  V30 853 C 80.7644 2.1147 0.924603 0
M  V30 854 C 81.7344 1.02182 1.30951 0
M  V30 855 O 82.9194 1.29723 1.39916 0
M  V30 856 C 80.0594 2.66337 2.19451 0
M  V30 857 C 79.1724 3.89708 1.86418 0
M  V30 858 C 78.3074 4.32893 3.07859 0
M  V30 859 C 77.3464 5.48967 2.70742 0
M  V30 860 N 76.4834 5.87211 3.84874 0
M  V30 861 H 81.3234 2.94465 0.457639 0
M  V30 862 H 78.8604 1.45531 0.214266 0
M  V30 863 H 80.8184 2.96247 2.93758 0
M  V30 864 H 79.4484 1.86141 2.63726 0
M  V30 865 H 78.5004 3.66396 1.02264 0
M  V30 866 H 79.8124 4.74074 1.55096 0
M  V30 867 H 78.9664 4.6435 3.90466 0
M  V30 868 H 77.7054 3.47336 3.42358 0
M  V30 869 H 76.7104 5.17183 1.86551 0
M  V30 870 H 77.9354 6.3624 2.37436 0
M  V30 871 H 75.8814 5.04607 4.19175 0
M  V30 872 H 75.7984 6.66266 3.57247 0
M  V30 873 H 77.0664 6.23282 4.68123 0
M  V30 874 N 81.2955 -0.223234 1.56011 0
M  V30 875 C 82.2425 -1.27664 1.92277 0
M  V30 876 C 83.2125 -1.46659 0.779763 0
M  V30 877 O 84.3975 -1.60256 1.03551 0
M  V30 878 C 81.5375 -2.62234 2.24338 0
M  V30 879 C 80.6505 -2.51051 3.51564 0
M  V30 880 C 79.7855 -3.78133 3.7308 0
M  V30 881 C 78.8245 -3.61665 4.93827 0
M  V30 882 N 77.9615 -4.80693 5.11741 0
M  V30 883 H 82.8015 -0.960358 2.82101 0
M  V30 884 H 80.3385 -0.462901 1.39627 0
M  V30 885 H 82.2965 -3.40596 2.40936 0
M  V30 886 H 80.9265 -2.91961 1.3769 0
M  V30 887 H 79.9785 -1.64132 3.43169 0
M  V30 888 H 81.2905 -2.34803 4.40079 0
M  V30 889 H 80.4445 -4.64938 3.89766 0
M  V30 890 H 79.1835 -3.97304 2.82844 0
M  V30 891 H 78.1885 -2.73244 4.77093 0
M  V30 892 H 79.4135 -3.43966 5.85546 0
M  V30 893 H 77.3595 -5.00181 4.24446 0
M  V30 894 H 77.2765 -4.67165 5.94384 0
M  V30 895 H 78.5445 -5.6893 5.3286 0
M  V30 896 N 82.7736 -1.49793 -0.48987 0
M  V30 897 C 83.7366 -1.66752 -1.57246 0
M  V30 898 C 84.7366 -0.538867 -1.51502 0
M  V30 899 O 85.9266 -0.805545 -1.54456 0
M  V30 900 C 83.0586 -1.67528 -2.96896 0
M  V30 901 H 84.2516 -2.63321 -1.43534 0
M  V30 902 H 81.8046 -1.38992 -0.714914 0
M  V30 903 H 82.5396 -0.725837 -3.16073 0
M  V30 904 H 82.3246 -2.49504 -3.02473 0
M  V30 905 H 83.8146 -1.82667 -3.7553 0
M  V30 906 N 84.2517 0.741722 -1.39055 0
M  V30 907 C 85.4977 1.50234 -1.37118 0
M  V30 908 C 85.8527 1.92368 0.0350439 0
M  V30 909 O 85.1457 1.63422 1.00019 0
M  V30 910 C 85.3397 2.7592 -2.27163 0
M  V30 911 C 85.1687 2.46074 -3.76401 0
M  V30 912 C 83.9387 2.38704 -4.45364 0
M  V30 913 C 86.1367 2.12062 -4.68545 0
M  V30 914 N 84.1187 2.01258 -5.79973 0
M  V30 915 C 85.4897 1.85005 -5.91754 0
M  V30 916 C 87.5447 1.98473 -4.56632 0
M  V30 917 C 86.2477 1.4573 -7.04383 0
M  V30 918 C 88.2737 1.60599 -5.69176 0
M  V30 919 C 87.6357 1.34423 -6.91455 0
M  V30 920 H 83.7347 0.548858 -0.557027 0
M  V30 921 H 86.3187 0.862642 -1.74547 0
M  V30 922 H 84.4897 3.3768 -1.91904 0
M  V30 923 H 86.2217 3.42068 -2.16267 0
M  V30 924 H 82.9767 2.55574 -3.98721 0
M  V30 925 H 83.4007 1.85147 -6.51191 0
M  V30 926 H 88.0427 2.17381 -3.62637 0
M  V30 927 H 85.7607 1.25562 -7.98286 0
M  V30 928 H 89.3467 1.507 -5.61944 0
M  V30 929 H 88.2267 1.05555 -7.77064 0
M  V30 930 N 85.7298 1.2412 0.971189 0
M  V30 931 C 87.1408 1.07236 1.52831 0
M  V30 932 C 87.4918 -0.357352 1.92918 0
M  V30 933 O 86.6168 -1.24528 1.76979 0
M  V30 934 C 87.2118 1.94043 2.77728 0
M  V30 935 C 85.7708 1.81394 3.29808 0
M  V30 936 C 84.9178 1.89189 2.02738 0
M  V30 937 H 87.8688 1.37648 0.789864 0
M  V30 938 H 87.8898 1.47066 3.5093 0
M  V30 939 H 87.4018 2.98093 2.4852 0
M  V30 940 H 85.5028 0.801634 3.63874 0
M  V30 941 H 85.6158 2.65294 3.98944 0
M  V30 942 H 83.9798 1.32877 2.17292 0
M  V30 943 H 84.7628 2.94812 1.759 0
M  V30 944 N 87.2079 -1.17134 1.05439 0
M  V30 945 C 88.4559 -1.87085 0.764429 0
M  V30 946 C 88.7769 -1.81584 -0.710787 0
M  V30 947 O 88.0469 -1.24349 -1.51374 0
M  V30 948 H 86.6269 -0.692627 0.279779 0
M  V30 949 H 89.2889 -1.42087 1.33406 0
M  V30 950 H 88.3849 -2.92759 1.0816 0
M  V30 951 N 88.686 -0.835752 -1.33615 0
M  V30 952 C 89.932 -0.430596 -1.98176 0
M  V30 953 C 90.265 1.00684 -1.66061 0
M  V30 954 O 89.54 1.70339 -0.938877 0
M  V30 955 C 89.823 -0.648065 -3.5422 0
M  V30 956 C 89.676 -2.13255 -3.96033 0
M  V30 957 C 90.995 -0.0922113 -4.40003 0
M  V30 958 H 88.114 -0.157924 -0.719881 0
M  V30 959 H 90.756 -1.05069 -1.58305 0
M  V30 960 H 88.906 -0.120237 -3.88314 0
M  V30 961 H 90.578 -2.725 -3.72211 0
M  V30 962 H 88.821 -2.61823 -3.45878 0
M  V30 963 H 89.492 -2.23547 -5.04708 0
M  V30 964 H 91.968 -0.543343 -4.12537 0
M  V30 965 H 90.844 -0.274083 -5.48215 0
M  V30 966 H 91.105 1.00378 -4.30554 0
M  V30 967 N 90.1641 1.46063 -0.591896 0
M  V30 968 C 91.4101 2.03203 -0.0894879 0
M  V30 969 C 91.7651 1.45407 1.25994 0
M  V30 970 O 91.0581 0.61326 1.8152 0
M  V30 971 C 91.2521 3.57391 0.0249813 0
M  V30 972 C 91.0811 4.30142 -1.3118 0
M  V30 973 C 89.8511 4.68688 -1.88838 0
M  V30 974 C 92.0491 4.63098 -2.23708 0
M  V30 975 N 90.0311 5.26228 -3.1616 0
M  V30 976 C 91.4021 5.21305 -3.3562 0
M  V30 977 C 93.4571 4.45031 -2.23274 0
M  V30 978 C 92.1601 5.63351 -4.47245 0
M  V30 979 C 94.1861 4.881 -3.33935 0
M  V30 980 C 93.5481 5.46386 -4.44569 0
M  V30 981 H 89.6471 0.778323 -0.0757431 0
M  V30 982 H 92.2311 1.78094 -0.78681 0
M  V30 983 H 90.4021 3.82195 0.69149 0
M  V30 984 H 92.1341 4.0118 0.532613 0
M  V30 985 H 88.8891 4.5174 -1.42223 0
M  V30 986 H 89.3131 5.59512 -3.8115 0
M  V30 987 H 93.9551 3.99295 -1.39008 0
M  V30 988 H 91.6731 6.08061 -5.32247 0
M  V30 989 H 95.2591 4.75866 -3.34728 0
M  V30 990 H 94.1391 5.79102 -5.28782 0
M  V30 991 N 91.6422 0.330177 1.54103 0
M  V30 992 C 92.8702 -0.272179 2.05102 0
M  V30 993 C 93.2852 -1.45267 1.20595 0
M  V30 994 O 92.6422 -1.8094 0.238144 0
M  V30 995 C 92.6932 -0.70023 3.54653 0
M  V30 996 O 92.4142 0.433301 4.35952 0
M  V30 997 C 93.9152 -1.3647 4.21771 0
M  V30 998 H 91.1352 -0.0549159 0.668749 0
M  V30 999 H 93.6792 0.478285 1.98828 0
M  V30 1000 H 91.8342 -1.40066 3.61193 0
M  V30 1001 H 92.2482 0.0947539 5.24414 0
M  V30 1002 H 93.7222 -1.61509 5.27843 0
M  V30 1003 H 94.1992 -2.31409 3.73292 0
M  V30 1004 H 94.8052 -0.706675 4.19388 0
M  V30 1005 N 93.1203 -1.57491 0.0584922 0
M  V30 1006 C 94.0683 -2.13148 -0.931168 0
M  V30 1007 C 95.0623 -1.06507 -1.31729 0
M  V30 1008 O 96.2683 -1.24906 -1.29609 0
M  V30 1009 H 92.6433 -0.68137 -0.31818 0
M  V30 1010 H 94.6143 -2.95187 -0.436707 0
M  V30 1011 C 93.3633 -2.69732 -2.19408 0
M  V30 1012 H 92.6863 -3.51454 -1.90578 0
M  V30 1013 H 94.1263 -3.12287 -2.86798 0
M  V30 1014 C 92.5853 -1.63855 -2.94369 0
M  V30 1015 O 93.1153 -1.05565 -3.87581 0
M  V30 1016 N 91.3213 -1.35202 -2.57233 0
M  V30 1017 H 90.8683 -1.82791 -1.81508 0
M  V30 1018 H 90.8263 -0.645922 -3.07693 0
M  V30 1019 N 94.5984 0.214957 -1.56127 0
M  V30 1020 C 95.8234 0.95924 -1.83884 0
M  V30 1021 C 96.2484 1.7689 -0.639644 0
M  V30 1022 O 95.6064 1.76566 0.411601 0
M  V30 1023 C 95.6544 1.84723 -3.09693 0
M  V30 1024 O 94.7584 2.94346 -2.8885 0
M  V30 1025 H 94.0994 0.27125 -0.606069 0
M  V30 1026 H 96.6294 0.226276 -2.03345 0
M  V30 1027 H 96.6394 2.25576 -3.39969 0
M  V30 1028 H 95.3144 1.25218 -3.96602 0
M  V30 1029 H 93.8914 2.57391 -2.69823 0
M  V30 1030 N 96.0765 1.50051 0.48192 0
M  V30 1031 C 97.3225 1.60736 1.2366 0
M  V30 1032 C 97.6555 0.301786 1.91841 0
M  V30 1033 O 96.9305 -0.696025 1.8162 0
M  V30 1034 C 97.2135 2.78009 2.28874 0
M  V30 1035 C 97.0665 4.18416 1.65069 0
M  V30 1036 C 98.3855 2.90867 3.30279 0
M  V30 1037 H 95.5045 0.585031 0.448228 0
M  V30 1038 H 98.1465 1.82402 0.531946 0
M  V30 1039 H 96.2965 2.59667 2.88973 0
M  V30 1040 H 97.9685 4.48322 1.0865 0
M  V30 1041 H 96.2115 4.23177 0.954148 0
M  V30 1042 H 96.8825 4.96381 2.41474 0
M  V30 1043 H 99.3585 3.07623 2.80191 0
M  V30 1044 H 98.2345 3.74566 4.01238 0
M  V30 1045 H 98.4955 2.01021 3.93755 0
M  V30 1046 N 97.5546 -0.734337 1.39446 0
M  V30 1047 C 98.7946 -1.50655 1.38139 0
M  V30 1048 C 99.1586 -1.91986 -0.0228701 0
M  V30 1049 O 100.36 -2.68318 -0.160947 0
M  V30 1050 C 98.6306 -2.71251 2.32718 0
M  V30 1051 S 100.19 -3.60892 2.49605 0
M  V30 1052 H 97.0076 -0.515315 0.489869 0
M  V30 1053 H 99.6096 -0.860392 1.75549 0
M  V30 1054 H 98.3136 -2.39027 3.33608 0
M  V30 1055 H 97.8446 -3.40795 1.96526 0
M  V30 1056 H 99.8596 -4.64899 1.73446 0
M  V30 1057 N 99.0327 -1.24633 -0.964593 0
M  V30 1058 C 100.281 -1.08573 -1.70459 0
M  V30 1059 C 100.602 0.375655 -1.91347 0
M  V30 1060 O 99.8717 1.26779 -1.49345 0
M  V30 1061 H 98.4517 -0.398784 -0.631649 0
M  V30 1062 H 101.114 -1.56601 -1.16026 0
M  V30 1063 H 100.21 -1.58623 -2.68785 0
M  V30 1064 N 100.511 1.16574 -1.06058 0
M  V30 1065 C 101.461 2.18854 -0.63929 0
M  V30 1066 C 102.445 1.57505 0.328798 0
M  V30 1067 O 103.637 1.76408 0.144623 0
M  V30 1068 C 100.766 3.43291 -0.0247203 0
M  V30 1069 C 99.8518 4.11722 -1.01716 0
M  V30 1070 N 100.243 4.55841 -2.19186 0
M  V30 1071 C 98.5408 4.37872 -0.847569 0
M  V30 1072 C 99.2418 5.08751 -2.82042 0
M  V30 1073 N 98.2178 5.01489 -2.09784 0
M  V30 1074 H 102.02 2.5068 -1.53417 0
M  V30 1075 H 99.5338 1.32999 -0.931935 0
M  V30 1076 H 101.531 4.15856 0.294915 0
M  V30 1077 H 100.191 3.12954 0.865448 0
M  V30 1078 H 101.202 4.49649 -2.56975 0
M  V30 1079 H 97.8788 4.17499 -0.00918848 0
M  V30 1080 H 99.2688 5.52944 -3.81709 0
M  V30 1081 N 101.989 0.842826 1.3317 0
M  V30 1082 C 103.4 0.496651 1.79973 0
M  V30 1083 C 103.751 -0.984641 1.69703 0
M  V30 1084 O 102.876 -1.76743 1.24863 0
M  V30 1085 C 103.471 0.894727 3.26772 0
M  V30 1086 C 102.03 0.600629 3.71577 0
M  V30 1087 C 101.177 1.10091 2.5451 0
M  V30 1088 H 104.128 1.03116 1.20635 0
M  V30 1089 H 104.149 0.206347 3.7994 0
M  V30 1090 H 103.661 1.97287 3.34215 0
M  V30 1091 H 101.762 -0.467284 3.69658 0
M  V30 1092 H 101.875 1.15863 4.64879 0
M  V30 1093 H 100.239 0.52162 2.49301 0
M  V30 1094 H 101.022 2.18591 2.64713 0
M  V30 1095 N 103.467 -1.45747 0.599634 0
M  V30 1096 C 104.399 -2.28628 -0.161879 0
M  V30 1097 C 105.412 -1.39494 -0.839367 0
M  V30 1098 O 106.601 -1.63941 -0.706089 0
M  V30 1099 C 103.701 -3.15014 -1.24976 0
M  V30 1100 C 102.874 -4.32378 -0.660935 0
M  V30 1101 C 101.933 -5.00033 -1.63869 0
M  V30 1102 O 100.959 -5.57085 -1.1681 0
M  V30 1103 N 102.161 -4.98589 -2.97303 0
M  V30 1104 H 104.926 -2.94624 0.549265 0
M  V30 1105 H 102.487 -1.55847 0.438565 0
M  V30 1106 H 104.479 -3.5714 -1.9035 0
M  V30 1107 H 103.049 -2.5098 -1.86354 0
M  V30 1108 H 102.269 -3.9383 0.170688 0
M  V30 1109 H 103.557 -5.08197 -0.247619 0
M  V30 1110 H 102.955 -4.53514 -3.38145 0
M  V30 1111 H 101.512 -5.44603 -3.58121 0
M  V30 1112 N 104.945 -0.338344 -1.53925 0
M  V30 1113 C 105.875 0.51328 -2.27789 0
M  V30 1114 C 106.856 1.107 -1.29149 0
M  V30 1115 O 108.041 1.12937 -1.57984 0
M  V30 1116 C 105.171 1.66697 -3.04679 0
M  V30 1117 C 104.125 1.20183 -4.1078 0
M  V30 1118 C 103.451 2.44363 -4.75595 0
M  V30 1119 C 104.751 0.30605 -5.21403 0
M  V30 1120 H 106.445 -0.102883 -2.99223 0
M  V30 1121 H 103.991 -0.0509219 -1.4391 0
M  V30 1122 H 105.944 2.26915 -3.55088 0
M  V30 1123 H 104.668 2.30995 -2.30887 0
M  V30 1124 H 103.327 0.622499 -3.61276 0
M  V30 1125 H 102.975 3.07057 -3.98403 0
M  V30 1126 H 102.675 2.13925 -5.47275 0
M  V30 1127 H 104.199 3.05317 -5.28786 0
M  V30 1128 H 105.613 0.814929 -5.67478 0
M  V30 1129 H 104.01 0.0937929 -6.00027 0
M  V30 1130 H 105.08 -0.65921 -4.80398 0
M  V30 1131 N 106.423 1.57458 -0.0668435 0
M  V30 1132 C 107.671 1.92919 0.602214 0
M  V30 1133 C 107.992 0.947215 1.70449 0
M  V30 1134 O 107.262 -0.00544117 1.95899 0
M  V30 1135 H 105.842 0.71217 0.22544 0
M  V30 1136 H 108.504 1.94508 -0.123535 0
M  V30 1137 H 107.6 2.94589 1.03073 0
M  V30 1138 N 107.901 -0.206675 1.56239 0
M  V30 1139 C 108.811 -1.27686 1.96808 0
M  V30 1140 C 109.827 -1.50455 0.874035 0
M  V30 1141 O 111.003 -1.63295 1.17884 0
M  V30 1142 C 108.068 -2.60358 2.28942 0
M  V30 1143 C 107.129 -2.45762 3.51994 0
M  V30 1144 C 106.362 -3.72108 3.82585 0
M  V30 1145 O 106.585 -4.75776 3.14631 0
M  V30 1146 O 105.519 -3.6833 4.76043 0
M  V30 1147 H 109.345 -0.962593 2.88041 0
M  V30 1148 H 106.93 -0.410746 1.43643 0
M  V30 1149 H 108.812 -3.38687 2.50737 0
M  V30 1150 H 107.487 -2.91435 1.4088 0
M  V30 1151 H 106.394 -1.65584 3.35459 0
M  V30 1152 H 107.727 -2.19621 4.40486 0
M  V30 1153 N 109.379 -1.50304 -0.473955 0
M  V30 1154 C 110.604 -1.65175 -1.25427 0
M  V30 1155 C 111.029 -0.333673 -1.85117 0
M  V30 1156 O 110.387 0.702114 -1.67153 0
M  V30 1157 C 110.435 -2.74295 -2.34082 0
M  V30 1158 O 109.539 -2.35349 -3.38651 0
M  V30 1159 H 108.88 -0.551944 -0.369126 0
M  V30 1160 H 111.41 -1.96662 -0.564364 0
M  V30 1161 H 111.42 -2.97285 -2.79438 0
M  V30 1162 H 110.095 -3.69959 -1.90008 0
M  V30 1163 H 108.672 -2.22794 -2.99027 0
M  V30 1164 N 110.857 0.726932 -1.39834 0
M  V30 1165 C 111.805 1.86235 -1.39353 0
M  V30 1166 C 112.799 1.67144 -0.275555 0
M  V30 1167 O 114.005 1.74387 -0.44601 0
M  V30 1168 H 110.38 0.613174 -0.43534 0
M  V30 1169 H 112.351 1.83756 -2.35109 0
M  V30 1170 C 111.1 3.23995 -1.26185 0
M  V30 1171 H 110.423 3.39285 -2.11484 0
M  V30 1172 H 111.863 4.03609 -1.29907 0
M  V30 1173 C 110.322 3.36888 0.0290018 0
M  V30 1174 O 110.852 3.89152 0.99619 0
M  V30 1175 N 109.058 2.90446 0.0947437 0
M  V30 1176 H 108.605 2.48102 -0.693035 0
M  V30 1177 H 108.563 2.99451 0.957932 0
M  V30 1178 N 112.336 1.25143 0.95797 0
M  V30 1179 C 113.246 1.06968 2.08794 0
M  V30 1180 C 114.262 0.00773911 1.73998 0
M  V30 1181 O 115.438 0.207972 2.00323 0
M  V30 1182 C 112.503 0.68691 3.39827 0
M  V30 1183 C 111.564 1.82641 3.88511 0
M  V30 1184 C 110.797 1.46181 5.1329 0
M  V30 1185 O 111.02 0.355971 5.69288 0
M  V30 1186 O 109.954 2.29085 5.566 0
M  V30 1187 H 113.78 2.01723 2.27027 0
M  V30 1188 H 111.365 1.04051 1.07209 0
M  V30 1189 H 113.247 0.485417 4.18595 0
M  V30 1190 H 111.922 -0.231417 3.22872 0
M  V30 1191 H 110.829 2.08274 3.10762 0
M  V30 1192 H 112.162 2.72386 4.09959 0
M  V30 1193 N 113.814 -1.1601 1.06675 0
M  V30 1194 C 115.091 -1.82679 0.699114 0
M  V30 1195 C 115.471 -1.94559 -0.819137 0
M  V30 1196 O 114.819 -1.49169 -1.73092 0
M  V30 1197 C 115.029 -3.19445 1.40555 0
M  V30 1198 C 116.377 -3.95171 1.55323 0
M  V30 1199 O 117.401 -3.28976 1.36577 0
M  V30 1200 O 116.26 -5.13833 1.86112 0
M  V30 1201 H 113.354 -0.788954 0.247951 0
M  V30 1202 H 115.9 -1.23179 1.16726 0
M  V30 1203 H 114.672 -3.05856 2.44065 0
M  V30 1204 H 114.295 -3.86625 0.927733 0
M  V30 1205 N 115.292 -0.849877 -1.32721 0
M  V30 1206 C 116.255 -0.296122 -2.27279 0
M  V30 1207 C 117.255 0.541458 -1.5141 0
M  V30 1208 O 118.445 0.353658 -1.70572 0
M  V30 1209 C 115.577 0.581579 -3.35902 0
M  V30 1210 H 116.77 -1.13064 -2.77771 0
M  V30 1211 H 114.323 -0.62383 -1.43311 0
M  V30 1212 H 115.058 1.43809 -2.9067 0
M  V30 1213 H 114.843 -0.0178814 -3.92096 0
M  V30 1214 H 116.333 0.961951 -4.0637 0
M  V30 1215 N 116.77 1.45427 -0.607355 0
M  V30 1216 C 118.016 2.0254 -0.102607 0
M  V30 1217 C 118.349 1.47478 1.26348 0
M  V30 1218 O 117.624 0.64939 1.83339 0
M  V30 1219 C 117.907 3.60044 -0.0634347 0
M  V30 1220 C 117.76 4.2544 -1.46017 0
M  V30 1221 C 119.079 4.35646 0.624514 0
M  V30 1222 H 116.198 0.73598 -0.0387607 0
M  V30 1223 H 118.84 1.73284 -0.779282 0
M  V30 1224 H 116.99 3.85101 0.512808 0
M  V30 1225 H 118.662 4.11569 -2.08347 0
M  V30 1226 H 116.905 3.83849 -2.02094 0
M  V30 1227 H 117.576 5.34342 -1.385 0
M  V30 1228 H 120.052 4.15882 0.134723 0
M  V30 1229 H 118.928 5.45376 0.621028 0
M  V30 1230 H 119.189 4.08501 1.69055 0
M  V30 1231 N 118.248 0.346503 1.53744 0
M  V30 1232 C 119.497 -0.250122 2.00143 0
M  V30 1233 C 119.81 -1.51418 1.23822 0
M  V30 1234 O 121.016 -2.18823 1.60713 0
M  V30 1235 C 119.472 -0.496252 3.56462 0
M  V30 1236 C 119.08 0.752077 4.41642 0
M  V30 1237 C 120.824 -1.05157 4.11269 0
M  V30 1238 C 118.731 0.476583 5.89477 0
M  V30 1239 H 117.661 -0.0972409 0.747703 0
M  V30 1240 H 120.312 0.46229 1.77581 0
M  V30 1241 H 118.694 -1.26944 3.75102 0
M  V30 1242 H 119.868 1.5266 4.34778 0
M  V30 1243 H 118.183 1.22925 3.97842 0
M  V30 1244 H 120.78 -1.27269 5.19333 0
M  V30 1245 H 121.123 -2.00799 3.64672 0
M  V30 1246 H 121.656 -0.339019 3.96353 0
M  V30 1247 H 118.395 1.4028 6.40314 0
M  V30 1248 H 117.915 -0.259794 5.99237 0
M  V30 1249 H 119.594 0.0949315 6.4693 0
M  V30 1250 N 119.726 -1.57421 0.075193 0
M  V30 1251 C 121.142 -1.57099 -0.281444 0
M  V30 1252 C 121.342 -1.08486 -1.69803 0
M  V30 1253 O 120.398 -0.752279 -2.41033 0
M  V30 1254 C 121.711 -3.00571 -0.0880041 0
M  V30 1255 C 123.259 -3.12605 -0.157281 0
M  V30 1256 C 123.734 -4.57999 0.0079207 0
M  V30 1257 N 125.225 -4.63176 -0.0475725 0
M  V30 1258 C 125.96 -5.73373 0.0557876 0
M  V30 1259 N 125.456 -6.92473 0.21286 0
M  V30 1260 N 127.249 -5.621 -0.00152098 0
M  V30 1261 H 119.4 -1.87335 1.00098 0
M  V30 1262 H 121.663 -0.86377 0.390646 0
M  V30 1263 H 121.369 -3.40262 0.889629 0
M  V30 1264 H 121.243 -3.67754 -0.838875 0
M  V30 1265 H 123.63 -2.72798 -1.1254 0
M  V30 1266 H 123.711 -2.48053 0.62475 0
M  V30 1267 H 123.355 -4.98496 0.972824 0
M  V30 1268 H 123.285 -5.20586 -0.793556 0
M  V30 1269 H 125.776 -3.7753 -0.167244 0
M  V30 1270 H 126.089 -7.72279 0.283781 0
M  V30 1271 H 124.434 -6.94556 0.248267 0
M  V30 1272 H 127.625 -4.67938 -0.122958 0
M  V30 1273 H 127.798 -6.47948 0.0824844 0
M  V30 1274 N 121.204 0.198386 -1.56346 0
M  V30 1275 C 122.62 0.549085 -1.49857 0
M  V30 1276 C 122.82 1.86016 -0.774611 0
M  V30 1277 O 121.876 2.50416 -0.323776 0
M  V30 1278 C 123.189 0.606868 -2.94512 0
M  V30 1279 C 124.737 0.695925 -3.05165 0
M  V30 1280 C 125.212 0.784848 -4.51225 0
M  V30 1281 N 126.703 0.848463 -4.55363 0
M  V30 1282 C 127.438 0.937378 -5.65686 0
M  V30 1283 N 126.934 0.9888 -6.85707 0
M  V30 1284 N 128.727 0.974312 -5.53592 0
M  V30 1285 H 120.878 -0.661655 -2.01831 0
M  V30 1286 H 123.141 -0.235261 -0.918344 0
M  V30 1287 H 122.847 -0.28732 -3.50524 0
M  V30 1288 H 122.721 1.46268 -3.47686 0
M  V30 1289 H 125.108 1.58055 -2.49204 0
M  V30 1290 H 125.189 -0.186022 -2.55123 0
M  V30 1291 H 124.833 -0.0954072 -5.0781 0
M  V30 1292 H 124.763 1.68255 -4.98997 0
M  V30 1293 H 127.254 0.818103 -3.68938 0
M  V30 1294 H 127.567 1.05707 -7.65536 0
M  V30 1295 H 125.912 0.957534 -6.88372 0
M  V30 1296 H 129.103 0.930954 -4.58749 0
M  V30 1297 H 129.276 1.04015 -6.39597 0
M  V30 1298 N 122.682 1.50554 0.465978 0
M  V30 1299 C 123.922 1.63439 1.22747 0
M  V30 1300 C 124.286 0.329822 1.89146 0
M  V30 1301 O 125.487 0.334161 2.66715 0
M  V30 1302 C 123.758 2.78542 2.2394 0
M  V30 1303 S 125.317 3.11591 3.0896 0
M  V30 1304 H 122.135 0.576113 0.416672 0
M  V30 1305 H 124.737 1.88357 0.523641 0
M  V30 1306 H 123.441 3.71805 1.7375 0
M  V30 1307 H 122.972 2.55726 2.98944 0
M  V30 1308 H 124.987 2.55811 4.25176 0
M  V30 1309 N 124.16 -0.719506 1.40217 0
M  V30 1310 C 125.576 -1.02707 1.22161 0
M  V30 1311 C 125.776 -2.0128 0.0940557 0
M  V30 1312 O 124.832 -2.46452 -0.549318 0
M  V30 1313 C 126.145 -1.57454 2.56181 0
M  V30 1314 C 127.693 -1.69458 2.63159 0
M  V30 1315 C 128.168 -2.27611 3.97438 0
M  V30 1316 N 129.659 -2.35002 3.99159 0
M  V30 1317 C 130.394 -2.80972 4.99842 0
M  V30 1318 N 129.89 -3.26723 6.10921 0
M  V30 1319 N 131.683 -2.80321 4.87213 0
M  V30 1320 H 123.834 -0.0660492 2.12297 0
M  V30 1321 H 126.097 -0.0919077 0.943534 0
M  V30 1322 H 125.803 -0.924873 3.39321 0
M  V30 1323 H 125.677 -2.56036 2.76993 0
M  V30 1324 H 128.064 -2.33543 1.80393 0
M  V30 1325 H 128.145 -0.694867 2.46181 0
M  V30 1326 H 127.789 -1.6415 4.80643 0
M  V30 1327 H 127.719 -3.2829 4.11744 0
M  V30 1328 H 130.21 -2.02685 3.18947 0
M  V30 1329 H 130.523 -3.60355 6.8364 0
M  V30 1330 H 128.868 -3.24692 6.14492 0
M  V30 1331 H 132.059 -2.43912 3.9953 0
M  V30 1332 H 132.232 -3.15831 5.65822 0
M  V30 1333 N 125.638 -1.25649 -0.95132 0
M  V30 1334 C 126.868 -1.13179 -1.72841 0
M  V30 1335 C 127.276 0.316827 -1.86528 0
M  V30 1336 O 126.619 1.22948 -1.3649 0
M  V30 1337 C 126.681 -1.71644 -3.15878 0
M  V30 1338 C 126.345 -3.20667 -3.25609 0
M  V30 1339 C 127.342 -4.17616 -3.09666 0
M  V30 1340 C 125.027 -3.6094 -3.49324 0
M  V30 1341 C 127.021 -5.52817 -3.17289 0
M  V30 1342 C 124.708 -4.96278 -3.56584 0
M  V30 1343 C 125.706 -5.92025 -3.40581 0
M  V30 1344 O 125.394 -7.24899 -3.47528 0
M  V30 1345 H 125.126 -0.395389 -0.54831 0
M  V30 1346 H 127.68 -1.66566 -1.20187 0
M  V30 1347 H 125.91 -1.12707 -3.69911 0
M  V30 1348 H 127.599 -1.54225 -3.75459 0
M  V30 1349 H 128.365 -3.87842 -2.91211 0
M  V30 1350 H 124.244 -2.86907 -3.6084 0
M  V30 1351 H 127.788 -6.2753 -3.04716 0
M  V30 1352 H 123.685 -5.25716 -3.74556 0
M  V30 1353 H 124.453 -7.33039 -3.64138 0
M  V30 1354 N 127.117 1.15442 -1.07289 0
M  V30 1355 C 128.027 2.23786 -0.704057 0
M  V30 1356 C 129.043 1.7166 0.284413 0
M  V30 1357 O 130.219 2.00972 0.131205 0
M  V30 1358 C 127.284 3.46535 -0.106792 0
M  V30 1359 C 126.345 4.13654 -1.14842 0
M  V30 1360 C 125.578 5.30544 -0.57956 0
M  V30 1361 O 125.801 5.67187 0.604585 0
M  V30 1362 O 124.735 5.87154 -1.32414 0
M  V30 1363 H 128.561 2.57664 -1.60757 0
M  V30 1364 H 126.146 1.23152 -0.845803 0
M  V30 1365 H 128.028 4.20804 0.224048 0
M  V30 1366 H 126.703 3.14407 0.770049 0
M  V30 1367 H 125.61 3.4131 -1.5316 0
M  V30 1368 H 126.943 4.49861 -1.99714 0
M  V30 1369 N 128.595 0.856903 1.32268 0
M  V30 1370 C 129.525 0.31858 2.31316 0
M  V30 1371 C 130.506 -0.583487 1.59779 0
M  V30 1372 O 131.691 -0.503259 1.87566 0
M  V30 1373 C 128.821 -0.491979 3.43798 0
M  V30 1374 C 127.775 0.315849 4.26833 0
M  V30 1375 C 127.101 -0.619586 5.31098 0
M  V30 1376 C 128.401 1.54282 4.98993 0
M  V30 1377 H 130.095 1.14621 2.76591 0
M  V30 1378 H 127.641 0.552613 1.32974 0
M  V30 1379 H 129.594 -0.879012 4.1213 0
M  V30 1380 H 128.318 -1.35299 2.97257 0
M  V30 1381 H 126.977 0.684664 3.6015 0
M  V30 1382 H 126.625 -1.47751 4.8081 0
M  V30 1383 H 126.325 -0.0830621 5.87541 0
M  V30 1384 H 127.849 -1.00375 6.02293 0
M  V30 1385 H 129.263 1.22796 5.59995 0
M  V30 1386 H 127.66 2.01745 5.65172 0
M  V30 1387 H 128.73 2.30285 4.26728 0
M  V30 1388 N 130.073 -1.45103 0.615059 0
M  V30 1389 C 131.321 -2.01784 0.112955 0
M  V30 1390 C 131.642 -1.48504 -1.26378 0
M  V30 1391 O 130.912 -0.682245 -1.83636 0
M  V30 1392 H 129.492 -0.745993 0.0387668 0
M  V30 1393 H 132.154 -1.77808 0.798141 0
M  V30 1394 H 131.25 -3.12025 0.0684069 0
M  V30 1395 N 131.551 -0.354651 -1.53558 0
M  V30 1396 C 132.797 0.238797 -2.01389 0
M  V30 1397 C 133.13 1.49309 -1.2418 0
M  V30 1398 O 132.405 1.91638 -0.332457 0
M  V30 1399 C 132.688 0.541771 -3.56001 0
M  V30 1400 C 132.541 -0.725388 -4.43912 0
M  V30 1401 C 133.86 1.34685 -4.18984 0
M  V30 1402 H 130.979 0.0853177 -0.732045 0
M  V30 1403 H 133.621 -0.477384 -1.83905 0
M  V30 1404 H 131.771 1.15189 -3.71031 0
M  V30 1405 H 133.443 -1.36313 -4.407 0
M  V30 1406 H 131.686 -1.34801 -4.12324 0
M  V30 1407 H 132.357 -0.468505 -5.50008 0
M  V30 1408 H 134.833 0.830837 -4.07721 0
M  V30 1409 H 133.709 1.52759 -5.27215 0
M  V30 1410 H 133.97 2.35221 -3.74331 0
M  V30 1411 N 133.029 1.57378 -0.0835403 0
M  V30 1412 C 133.939 2.16897 0.894021 0
M  V30 1413 C 134.955 1.13528 1.31861 0
M  V30 1414 O 136.131 1.45848 1.3889 0
M  V30 1415 C 133.196 2.72831 2.13925 0
M  V30 1416 C 132.257 3.91115 1.76997 0
M  V30 1417 C 131.49 4.44371 2.95584 0
M  V30 1418 O 131.713 3.96596 4.09961 0
M  V30 1419 O 130.647 5.35549 2.74719 0
M  V30 1420 H 134.473 3.00814 0.417679 0
M  V30 1421 H 132.058 1.48741 0.140181 0
M  V30 1422 H 133.94 3.0863 2.86924 0
M  V30 1423 H 132.615 1.91967 2.60635 0
M  V30 1424 H 131.522 3.60148 1.01214 0
M  V30 1425 H 132.855 4.73307 1.3506 0
M  V30 1426 N 134.507 -0.190092 1.56449 0
M  V30 1427 C 135.756 -0.907912 1.80111 0
M  V30 1428 C 136.069 -1.84214 0.657619 0
M  V30 1429 O 137.275 -2.60094 0.778663 0
M  V30 1430 C 135.731 -1.66485 3.19078 0
M  V30 1431 C 135.339 -0.7752 4.41242 0
M  V30 1432 C 137.083 -2.37201 3.52045 0
M  V30 1433 C 134.99 -1.53129 5.71231 0
M  V30 1434 H 133.92 -0.34276 0.671589 0
M  V30 1435 H 136.571 -0.161109 1.82791 0
M  V30 1436 H 134.953 -2.45572 3.10661 0
M  V30 1437 H 136.127 -0.0226298 4.60794 0
M  V30 1438 H 134.442 -0.178627 4.16017 0
M  V30 1439 H 137.039 -2.94329 4.46402 0
M  V30 1440 H 137.382 -3.11632 2.76028 0
M  V30 1441 H 137.915 -1.65075 3.61932 0
M  V30 1442 H 134.654 -0.82967 6.50228 0
M  V30 1443 H 134.174 -2.25767 5.55688 0
M  V30 1444 H 135.853 -2.08377 6.12526 0
M  V30 1445 N 135.985 -1.50799 -0.457987 0
M  V30 1446 C 137.213 -1.66218 -1.23203 0
M  V30 1447 C 137.628 -0.350894 -1.85511 0
M  V30 1448 O 136.985 0.668546 -1.69814 0
M  V30 1449 C 137.036 -2.76291 -2.33121 0
M  V30 1450 O 136.757 -4.02338 -1.73366 0
M  V30 1451 C 138.258 -3.028 -3.2377 0
M  V30 1452 H 135.478 -0.558361 -0.372121 0
M  V30 1453 H 138.022 -1.97099 -0.545179 0
M  V30 1454 H 136.177 -2.48068 -2.97558 0
M  V30 1455 H 136.591 -4.63312 -2.4585 0
M  V30 1456 H 138.065 -3.8345 -3.97077 0
M  V30 1457 H 138.542 -2.14385 -3.83322 0
M  V30 1458 H 139.148 -3.32604 -2.65056 0
M  V30 1459 N 137.463 0.71206 -1.40597 0
M  V30 1460 C 138.874 1.29135 -1.34837 0
M  V30 1461 C 139.225 1.96186 -0.0235395 0
M  V30 1462 O 138.35 1.97768 0.878444 0
M  V30 1463 C 138.945 2.34827 -2.44217 0
M  V30 1464 C 137.504 2.88371 -2.41907 0
M  V30 1465 C 136.651 1.62202 -2.24913 0
M  V30 1466 H 139.602 0.507944 -1.50352 0
M  V30 1467 H 139.623 3.15749 -2.12327 0
M  V30 1468 H 139.135 1.85996 -3.40627 0
M  V30 1469 H 137.236 3.41422 -1.49204 0
M  V30 1470 H 137.349 3.39925 -3.37621 0
M  V30 1471 H 135.713 1.874 -1.72492 0
M  V30 1472 H 136.496 1.15391 -3.23326 0
M  V30 1473 N 138.941 1.26152 0.944643 0
M  V30 1474 C 140.352 1.10454 1.50522 0
M  V30 1475 C 140.703 -0.31635 1.93633 0
M  V30 1476 O 139.828 -1.20746 1.79581 0
M  V30 1477 C 140.423 1.99891 2.73549 0
M  V30 1478 C 138.982 1.88348 3.25886 0
M  V30 1479 C 138.129 1.93447 1.9868 0
M  V30 1480 H 141.08 1.39292 0.760489 0
M  V30 1481 H 141.101 1.54477 3.47732 0
M  V30 1482 H 140.613 3.03297 2.42141 0
M  V30 1483 H 138.714 0.878636 3.62092 0
M  V30 1484 H 138.827 2.73696 3.93227 0
M  V30 1485 H 137.191 1.37456 2.14425 0
M  V30 1486 H 137.974 2.98476 1.69607 0
M  V30 1487 N 140.419 -1.14872 1.07899 0
M  V30 1488 C 141.329 -2.2341 0.715915 0
M  V30 1489 C 142.345 -1.71808 -0.275306 0
M  V30 1490 O 143.521 -2.01039 -0.120545 0
M  V30 1491 C 140.586 -3.46474 0.125168 0
M  V30 1492 C 139.647 -4.13039 1.17034 0
M  V30 1493 C 138.88 -5.30229 0.607688 0
M  V30 1494 O 139.103 -5.675 -0.574497 0
M  V30 1495 O 138.037 -5.86444 1.35526 0
M  V30 1496 H 141.863 -2.56808 1.62121 0
M  V30 1497 H 139.448 -1.22702 0.852322 0
M  V30 1498 H 141.33 -4.20917 -0.201729 0
M  V30 1499 H 140.005 -3.14811 -0.753364 0
M  V30 1500 H 138.912 -3.40493 1.54968 0
M  V30 1501 H 140.245 -4.48796 2.02097 0
M  V30 1502 N 141.898 -0.863906 -1.31812 0
M  V30 1503 C 143.123 -0.48527 -2.01643 0
M  V30 1504 C 143.548 0.913058 -1.64453 0
M  V30 1505 O 142.906 1.6014 -0.849985 0
M  V30 1506 C 142.954 -0.642625 -3.54828 0
M  V30 1507 O 142.058 0.320659 -4.11151 0
M  V30 1508 H 141.399 -0.193793 -0.635091 0
M  V30 1509 H 143.929 -1.16565 -1.68148 0
M  V30 1510 H 143.939 -0.533628 -4.04495 0
M  V30 1511 H 142.614 -1.66227 -3.81237 0
M  V30 1512 H 141.191 0.167126 -3.72525 0
M  V30 1513 N 143.376 1.44774 -0.622745 0
M  V30 1514 C 144.625 2.01334 -0.121397 0
M  V30 1515 C 144.938 1.49505 1.26125 0
M  V30 1516 O 146.144 1.98139 1.85616 0
M  V30 1517 C 144.6 3.59516 -0.166298 0
M  V30 1518 C 144.208 4.20342 -1.54974 0
M  V30 1519 C 145.952 4.23582 0.279021 0
M  V30 1520 C 143.859 5.70721 -1.55021 0
M  V30 1521 H 142.789 0.752851 -0.0416172 0
M  V30 1522 H 145.44 1.66083 -0.780309 0
M  V30 1523 H 143.822 3.92027 0.559557 0
M  V30 1524 H 144.996 3.99381 -2.29851 0
M  V30 1525 H 143.311 3.68529 -1.93843 0
M  V30 1526 H 145.908 5.33868 0.298083 0
M  V30 1527 H 146.251 3.95327 1.30471 0
M  V30 1528 H 146.784 3.95843 -0.394063 0
M  V30 1529 H 143.523 6.03698 -2.55399 0
M  V30 1530 H 143.043 5.93829 -0.844245 0
M  V30 1531 H 144.722 6.34203 -1.28047 0
M  V30 1532 N 144.854 0.36279 1.53368 0
M  V30 1533 C 146.084 -0.228281 2.05335 0
M  V30 1534 C 146.492 -1.43226 1.23625 0
M  V30 1535 O 145.835 -1.81717 0.269206 0
M  V30 1536 C 145.897 -0.688549 3.52845 0
M  V30 1537 C 145.561 0.398362 4.5526 0
M  V30 1538 C 146.558 1.24732 5.04716 0
M  V30 1539 C 144.243 0.557805 4.99193 0
M  V30 1540 C 146.237 2.2411 5.96702 0
M  V30 1541 C 143.924 1.55495 5.90986 0
M  V30 1542 C 144.922 2.39503 6.39631 0
M  V30 1543 O 144.61 3.37517 7.29615 0
M  V30 1544 H 144.342 -0.044395 0.674541 0
M  V30 1545 H 146.896 0.518668 1.98744 0
M  V30 1546 H 145.126 -1.48706 3.56964 0
M  V30 1547 H 146.815 -1.20231 3.87685 0
M  V30 1548 H 147.581 1.13532 4.71525 0
M  V30 1549 H 143.46 -0.0862959 4.60919 0
M  V30 1550 H 147.004 2.89718 6.34594 0
M  V30 1551 H 142.901 1.66744 6.23592 0
M  V30 1552 H 143.669 3.33213 7.47604 0
M  V30 1553 N 146.332 -1.57332 0.0918853 0
M  V30 1554 C 147.743 -1.81496 -0.437739 0
M  V30 1555 C 148.094 -1.00727 -1.6837 0
M  V30 1556 O 147.219 -0.235694 -2.15113 0
M  V30 1557 C 147.814 -3.29197 -0.800939 0
M  V30 1558 C 146.373 -3.54136 -1.27532 0
M  V30 1559 C 145.52 -2.75979 -0.270392 0
M  V30 1560 H 148.471 -1.55494 0.317366 0
M  V30 1561 H 148.492 -3.42344 -1.66074 0
M  V30 1562 H 148.004 -3.87955 0.106078 0
M  V30 1563 H 146.105 -3.00705 -2.20016 0
M  V30 1564 H 146.218 -4.62792 -1.23938 0
M  V30 1565 H 144.582 -2.43349 -0.751872 0
M  V30 1566 H 145.365 -3.37484 0.629248 0
M  V30 1567 N 147.81 0.181792 -1.56548 0
M  V30 1568 C 149.087 0.926765 -1.72251 0
M  V30 1569 C 149.467 2.00831 -0.650386 0
M  V30 1570 O 148.815 2.26008 0.336521 0
M  V30 1571 C 149.025 1.50106 -3.1507 0
M  V30 1572 C 150.373 1.97805 -3.75711 0
M  V30 1573 O 151.397 1.59922 -3.18282 0
M  V30 1574 O 150.256 2.67555 -4.76525 0
M  V30 1575 H 147.35 0.435506 -0.703039 0
M  V30 1576 H 149.896 0.170443 -1.68842 0
M  V30 1577 H 148.668 0.72212 -3.84579 0
M  V30 1578 H 148.291 2.32186 -3.22763 0
M  V30 1579 N 149.288 1.51039 0.449983 0
M  V30 1580 C 150.535 1.63081 1.20045 0
M  V30 1581 C 150.863 0.341024 1.91487 0
M  V30 1582 O 150.118 -0.674276 1.83717 0
M  V30 1583 C 150.417 2.77556 2.25161 0
M  V30 1584 C 150.083 4.17289 1.70823 0
M  V30 1585 C 148.745 4.55305 1.55725 0
M  V30 1586 C 151.097 5.04536 1.3074 0
M  V30 1587 C 148.425 5.78287 0.989999 0
M  V30 1588 C 150.777 6.28085 0.754482 0
M  V30 1589 C 149.441 6.64885 0.590308 0
M  V30 1590 H 148.711 0.596755 0.439277 0
M  V30 1591 H 151.358 1.85037 0.49333 0
M  V30 1592 H 149.663 2.49771 3.01863 0
M  V30 1593 H 151.36 2.84073 2.83026 0
M  V30 1594 H 147.95 3.8731 1.83546 0
M  V30 1595 H 152.134 4.75782 1.41229 0
M  V30 1596 H 147.39 6.05456 0.850451 0
M  V30 1597 H 151.564 6.95038 0.435324 0
M  V30 1598 H 149.191 7.60055 0.14862 0
M  V30 1599 N 150.766 -0.704594 1.40972 0
M  V30 1600 C 152.182 -1.01406 1.23244 0
M  V30 1601 C 152.382 -2.01169 0.115399 0
M  V30 1602 O 151.438 -2.47021 -0.523147 0
M  V30 1603 C 152.751 -1.54728 2.57836 0
M  V30 1604 C 154.299 -1.66658 2.64942 0
M  V30 1605 C 154.774 -2.23383 3.9983 0
M  V30 1606 N 156.265 -2.30756 4.01629 0
M  V30 1607 C 157 -2.75655 5.02794 0
M  V30 1608 N 156.496 -3.20225 6.14352 0
M  V30 1609 N 158.289 -2.75138 4.90159 0
M  V30 1610 H 150.44 -0.0435285 2.12355 0
M  V30 1611 H 152.703 -0.0818951 0.944456 0
M  V30 1612 H 152.409 -0.888832 3.40283 0
M  V30 1613 H 152.283 -2.53084 2.79693 0
M  V30 1614 H 154.67 -2.31617 1.8286 0
M  V30 1615 H 154.751 -0.668717 2.46904 0
M  V30 1616 H 154.395 -1.59043 4.82357 0
M  V30 1617 H 154.325 -3.23904 4.15203 0
M  V30 1618 H 156.816 -1.99291 3.21079 0
M  V30 1619 H 157.129 -3.53084 6.87424 0
M  V30 1620 H 155.474 -3.18156 6.17901 0
M  V30 1621 H 158.665 -2.39661 4.02095 0
M  V30 1622 H 158.838 -3.09812 5.6914 0
M  V30 1623 N 152.244 -1.26651 -0.937939 0
M  V30 1624 C 153.474 -1.15006 -1.71631 0
M  V30 1625 C 153.882 0.297026 -1.86854 0
M  V30 1626 O 153.225 1.21493 -1.37786 0
M  V30 1627 C 153.287 -1.74984 -3.14039 0
M  V30 1628 C 152.951 -3.24103 -3.2219 0
M  V30 1629 C 153.948 -4.20877 -3.05219 0
M  V30 1630 C 151.633 -3.64625 -3.45476 0
M  V30 1631 C 153.627 -5.56151 -3.11408 0
M  V30 1632 C 151.314 -5.00032 -3.513 0
M  V30 1633 C 152.312 -5.95604 -3.34282 0
M  V30 1634 O 152 -7.28545 -3.3982 0
M  V30 1635 H 151.732 -0.401183 -0.544085 0
M  V30 1636 H 154.286 -1.67832 -1.18413 0
M  V30 1637 H 152.516 -1.16624 -3.68695 0
M  V30 1638 H 154.205 -1.58199 -3.73802 0
M  V30 1639 H 154.971 -3.90908 -2.87081 0
M  V30 1640 H 150.85 -2.90718 -3.57777 0
M  V30 1641 H 154.394 -6.30727 -2.98043 0
M  V30 1642 H 150.291 -5.29659 -3.68959 0
M  V30 1643 H 151.059 -7.3686 -3.56343 0
M  V30 1644 N 153.722 1.14298 -1.08507 0
M  V30 1645 C 155.138 1.37347 -0.812901 0
M  V30 1646 C 155.338 1.93052 0.577325 0
M  V30 1647 O 154.394 2.14389 1.33393 0
M  V30 1648 C 155.707 2.33359 -1.89642 0
M  V30 1649 C 157.255 2.46996 -1.92255 0
M  V30 1650 C 157.73 3.46309 -2.99724 0
M  V30 1651 N 159.221 3.53853 -2.98902 0
M  V30 1652 C 159.956 4.3055 -3.787 0
M  V30 1653 N 159.452 5.10482 -4.6838 0
M  V30 1654 N 161.245 4.25757 -3.66998 0
M  V30 1655 H 153.396 0.764867 -1.9815 0
M  V30 1656 H 155.659 0.398966 -0.859959 0
M  V30 1657 H 155.365 1.99565 -2.89597 0
M  V30 1658 H 155.239 3.33274 -1.76659 0
M  V30 1659 H 157.626 2.80081 -0.929445 0
M  V30 1660 H 157.707 1.47039 -2.09316 0
M  V30 1661 H 157.351 3.13957 -3.99241 0
M  V30 1662 H 157.281 4.46049 -2.79907 0
M  V30 1663 H 159.772 2.96812 -2.33904 0
M  V30 1664 H 160.085 5.66284 -5.25873 0
M  V30 1665 H 158.43 5.09747 -4.72422 0
M  V30 1666 H 161.621 3.62383 -2.96304 0
M  V30 1667 H 161.794 4.85279 -4.29427 0
M  V30 1668 N 155.201 0.870884 1.31352 0
M  V30 1669 C 156.164 0.332243 2.26779 0
M  V30 1670 C 157.164 -0.517302 1.52252 0
M  V30 1671 O 158.354 -0.326477 1.71113 0
M  V30 1672 C 155.486 -0.528066 3.36785 0
M  V30 1673 H 156.679 1.17469 2.75937 0
M  V30 1674 H 154.232 0.64655 1.423 0
M  V30 1675 H 154.967 -1.39167 2.92922 0
M  V30 1676 H 154.752 0.0802582 3.92018 0
M  V30 1677 H 156.242 -0.897179 4.07849 0
M  V30 1678 N 156.679 -1.44442 0.630414 0
M  V30 1679 C 157.907 -2.06414 0.141671 0
M  V30 1680 C 158.322 -1.47105 -1.18345 0
M  V30 1681 O 157.679 -0.593662 -1.72574 0
M  V30 1682 C 157.73 -3.61494 0.0199784 0
M  V30 1683 O 157.451 -4.18594 1.29269 0
M  V30 1684 C 158.952 -4.40499 -0.497544 0
M  V30 1685 H 156.172 -0.666292 0.0793452 0
M  V30 1686 H 158.716 -1.85323 0.864614 0
M  V30 1687 H 156.871 -3.8185 -0.653402 0
M  V30 1688 H 157.285 -5.12026 1.13707 0
M  V30 1689 H 158.759 -5.49433 -0.531708 0
M  V30 1690 H 159.236 -4.11895 -1.52445 0
M  V30 1691 H 159.842 -4.25061 0.142562 0
M  V30 1692 N 158.157 -0.370918 -1.53173 0
M  V30 1693 C 159.434 0.273754 -1.93675 0
M  V30 1694 C 159.814 1.65938 -1.3049 0
M  V30 1695 O 159.162 2.23698 -0.465999 0
M  V30 1696 C 159.372 0.318602 -3.47543 0
M  V30 1697 C 160.72 0.556392 -4.20939 0
M  V30 1698 O 161.744 0.399587 -3.53952 0
M  V30 1699 O 160.603 0.862133 -5.39657 0
M  V30 1700 H 157.697 0.165448 -0.810281 0
M  V30 1701 H 160.243 -0.42409 -1.64315 0
M  V30 1702 H 159.015 -0.652687 -3.85818 0
M  V30 1703 H 158.638 1.06212 -3.83151 0
M  V30 1704 N 159.635 1.57281 -0.100228 0
M  V30 1705 C 161.046 1.81725 0.428107 0
M  V30 1706 C 161.397 1.01619 1.67833 0
M  V30 1707 O 160.522 0.247098 2.14985 0
M  V30 1708 C 161.117 3.29617 0.78347 0
M  V30 1709 C 159.676 3.54808 1.25653 0
M  V30 1710 C 158.823 2.76118 0.255752 0
M  V30 1711 H 161.774 1.55324 -0.325608 0
M  V30 1712 H 161.795 3.4322 1.64256 0
M  V30 1713 H 161.307 3.87893 -0.12665 0
M  V30 1714 H 159.408 3.01868 2.18418 0
M  V30 1715 H 159.521 4.63443 1.21482 0
M  V30 1716 H 157.885 2.43745 0.738956 0
M  V30 1717 H 158.668 3.37145 -0.647136 0
M  V30 1718 N 161.113 -0.173488 1.56642 0
M  V30 1719 C 162.338 -0.910149 1.86363 0
M  V30 1720 C 162.763 -1.75132 0.686318 0
M  V30 1721 O 162.121 -1.77595 -0.364643 0
M  V30 1722 C 162.169 -1.76447 3.14482 0
M  V30 1723 O 161.273 -2.86584 2.96553 0
M  V30 1724 H 160.614 -0.255086 0.613047 0
M  V30 1725 H 163.144 -0.172283 2.03873 0
M  V30 1726 H 163.154 -2.16483 3.45831 0
M  V30 1727 H 161.829 -1.14658 3.99783 0
M  V30 1728 H 160.406 -2.50146 2.76553 0
M  V30 1729 N 162.591 -1.51276 -0.441967 0
M  V30 1730 C 163.839 -1.63392 -1.18943 0
M  V30 1731 C 164.16 -0.350159 -1.9183 0
M  V30 1732 O 163.43 0.633784 -1.85364 0
M  V30 1733 H 162.01 -0.602164 -0.442049 0
M  V30 1734 H 164.672 -1.88186 -0.507165 0
M  V30 1735 H 163.768 -2.45934 -1.92154 0
M  V30 1736 N 164.069 0.697108 -1.41344 0
M  V30 1737 C 165.318 1.45279 -1.39918 0
M  V30 1738 C 165.631 1.95597 -0.0109624 0
M  V30 1739 O 166.837 2.71208 0.125919 0
M  V30 1740 C 165.293 2.62695 -2.46007 0
M  V30 1741 C 164.901 2.19169 -3.90729 0
M  V30 1742 C 166.645 3.40336 -2.53715 0
M  V30 1743 C 164.552 3.33535 -4.88373 0
M  V30 1744 H 163.482 0.545692 -0.520323 0
M  V30 1745 H 166.133 0.756929 -1.67161 0
M  V30 1746 H 164.515 3.34541 -2.11892 0
M  V30 1747 H 165.689 1.54623 -4.34083 0
M  V30 1748 H 164.004 1.54525 -3.86666 0
M  V30 1749 H 166.601 4.2547 -3.2385 0
M  V30 1750 H 166.944 3.85418 -1.5735 0
M  V30 1751 H 167.477 2.75546 -2.86913 0
M  V30 1752 H 164.216 2.93468 -5.86137 0
M  V30 1753 H 163.736 3.96936 -4.49668 0
M  V30 1754 H 165.415 3.99335 -5.09059 0
M  V30 1755 N 165.547 1.27147 0.931209 0
M  V30 1756 C 166.793 1.13446 1.68101 0
M  V30 1757 C 167.126 -0.319628 1.91552 0
M  V30 1758 O 166.401 -1.23407 1.50336 0
M  V30 1759 C 166.684 1.91482 3.0497 0
M  V30 1760 C 166.537 3.44855 2.88782 0
M  V30 1761 C 167.856 1.71651 4.05246 0
M  V30 1762 H 164.975 0.413498 0.610072 0
M  V30 1763 H 167.617 1.56261 1.08086 0
M  V30 1764 H 165.767 1.55095 3.56199 0
M  V30 1765 H 167.439 3.9105 2.44698 0
M  V30 1766 H 165.682 3.71373 2.24198 0
M  V30 1767 H 166.353 3.94694 3.85902 0
M  V30 1768 H 168.829 2.0337 3.63015 0
M  V30 1769 H 167.705 2.28651 4.99009 0
M  V30 1770 H 167.966 0.663555 4.37092 0
M  V30 1771 N 167.025 -1.13721 1.09112 0
M  V30 1772 C 167.935 -2.22638 0.73957 0
M  V30 1773 C 168.951 -1.72091 -0.257068 0
M  V30 1774 O 170.127 -2.01155 -0.0992154 0
M  V30 1775 C 167.192 -3.46322 0.16191 0
M  V30 1776 C 166.253 -4.11775 1.21408 0
M  V30 1777 C 165.486 -5.29555 0.663891 0
M  V30 1778 O 165.709 -5.68077 -0.514274 0
M  V30 1779 O 164.643 -5.84973 1.41738 0
M  V30 1780 H 168.469 -2.55074 1.64836 0
M  V30 1781 H 166.054 -1.21791 0.865289 0
M  V30 1782 H 167.936 -4.21107 -0.157073 0
M  V30 1783 H 166.611 -3.15593 -0.719932 0
M  V30 1784 H 165.518 -3.3883 1.58571 0
M  V30 1785 H 166.851 -4.46627 2.06845 0
M  V30 1786 N 168.503 -0.877838 -1.30888 0
M  V30 1787 C 169.451 -0.328662 -2.30266 0
M  V30 1788 C 170.445 0.560496 -1.59859 0
M  V30 1789 O 171.651 0.445722 -1.74394 0
M  V30 1790 H 168.026 -0.0876142 -0.746879 0
M  V30 1791 H 169.997 -1.18061 -2.74051 0
M  V30 1792 C 168.746 0.448071 -3.44801 0
M  V30 1793 H 168.069 -0.226859 -3.99156 0
M  V30 1794 H 169.509 0.797541 -4.16432 0
M  V30 1795 C 167.968 1.64239 -2.94155 0
M  V30 1796 O 168.498 2.74175 -2.93583 0
M  V30 1797 N 166.704 1.47716 -2.50256 0
M  V30 1798 H 166.251 0.582821 -2.5092 0
M  V30 1799 H 166.209 2.27765 -2.16727 0
M  V30 1800 N 169.982 1.44106 -0.638065 0
M  V30 1801 C 170.892 2.34513 0.0637334 0
M  V30 1802 C 171.908 1.53018 0.828346 0
M  V30 1803 O 173.084 1.85723 0.779036 0
M  V30 1804 C 170.149 3.31095 1.02844 0
M  V30 1805 C 169.21 4.28497 0.26244 0
M  V30 1806 C 168.443 5.20465 1.1812 0
M  V30 1807 O 168.666 5.16514 2.42011 0
M  V30 1808 O 167.6 5.98251 0.661774 0
M  V30 1809 H 171.426 2.95989 -0.68003 0
M  V30 1810 H 169.011 1.43994 -0.398252 0
M  V30 1811 H 170.893 3.90526 1.58327 0
M  V30 1812 H 169.568 2.72144 1.7527 0
M  V30 1813 H 168.475 3.72592 -0.335602 0
M  V30 1814 H 169.808 4.90388 -0.421936 0
M  V30 1815 N 171.46 0.379036 1.52974 0
M  V30 1816 C 172.706 -0.206727 2.01744 0
M  V30 1817 C 173.039 -1.47314 1.26539 0
M  V30 1818 O 172.314 -1.91084 0.362903 0
M  V30 1819 C 172.597 -0.485066 3.56818 0
M  V30 1820 C 172.45 0.795919 4.42702 0
M  V30 1821 C 173.769 -1.28003 4.21074 0
M  V30 1822 H 170.888 -0.0736607 0.73331 0
M  V30 1823 H 173.53 0.506581 1.83122 0
M  V30 1824 H 171.68 -1.09272 3.72816 0
M  V30 1825 H 173.352 1.43307 4.38476 0
M  V30 1826 H 171.595 1.41344 4.10127 0
M  V30 1827 H 172.266 0.555947 5.49193 0
M  V30 1828 H 174.742 -0.765867 4.08991 0
M  V30 1829 H 173.618 -1.44352 5.29579 0
M  V30 1830 H 173.879 -2.29236 3.78026 0
M  V30 1831 N 172.938 -1.57226 0.108567 0
M  V30 1832 C 174.178 -1.96717 -0.555155 0
M  V30 1833 C 174.542 -0.990003 -1.64508 0
M  V30 1834 O 175.743 -1.2739 -2.36696 0
M  V30 1835 C 174.014 -3.40575 -1.08367 0
M  V30 1836 S 175.573 -4.02072 -1.75737 0
M  V30 1837 H 172.391 -0.687638 -0.180762 0
M  V30 1838 H 174.993 -1.94563 0.191172 0
M  V30 1839 H 173.697 -4.0945 -0.279092 0
M  V30 1840 H 173.228 -3.46356 -1.86551 0
M  V30 1841 H 175.243 -3.91977 -3.04251 0
M  V30 1842 N 174.416 0.165178 -1.56732 0
M  V30 1843 C 175.827 0.727046 -1.71962 0
M  V30 1844 C 176.178 1.82508 -0.720078 0
M  V30 1845 O 175.303 2.16082 0.117242 0
M  V30 1846 C 175.898 1.32559 -3.11791 0
M  V30 1847 C 174.457 1.83422 -3.28684 0
M  V30 1848 C 173.604 0.715567 -2.67908 0
M  V30 1849 H 176.555 -0.0602896 -1.58585 0
M  V30 1850 H 176.576 2.19533 -3.10782 0
M  V30 1851 H 176.088 0.526195 -3.84516 0
M  V30 1852 H 174.189 2.65986 -2.60926 0
M  V30 1853 H 174.302 1.97543 -4.36478 0
M  V30 1854 H 172.666 1.13758 -2.27884 0
M  V30 1855 H 173.449 -0.0720836 -3.43224 0
M  V30 1856 N 175.894 1.51508 0.433938 0
M  V30 1857 C 177.14 1.64588 1.18484 0
M  V30 1858 C 177.473 0.362666 1.90784 0
M  V30 1859 O 176.748 -0.637892 1.83742 0
M  V30 1860 C 177.031 2.85149 2.19913 0
M  V30 1861 C 176.884 4.23456 1.51674 0
M  V30 1862 C 178.203 3.01227 3.20858 0
M  V30 1863 H 175.322 0.598994 0.429389 0
M  V30 1864 H 177.964 1.84002 0.473647 0
M  V30 1865 H 176.114 2.68729 2.80566 0
M  V30 1866 H 177.786 4.51552 0.943322 0
M  V30 1867 H 176.029 4.25998 0.819035 0
M  V30 1868 H 176.7 5.03812 2.2556 0
M  V30 1869 H 179.176 3.16382 2.70263 0
M  V30 1870 H 178.052 3.87141 3.89118 0
M  V30 1871 H 178.313 2.13447 3.8716 0
M  V30 1872 N 177.372 -0.689602 1.41712 0
M  V30 1873 C 178.619 -1.44966 1.4139 0
M  V30 1874 C 178.947 -1.94484 0.025105 0
M  V30 1875 O 178.202 -1.70307 -0.964048 0
M  V30 1876 C 178.501 -2.67298 2.37247 0
M  V30 1877 C 178.167 -2.36405 3.83958 0
M  V30 1878 C 176.829 -2.27691 4.23923 0
M  V30 1879 C 179.181 -2.11043 4.76561 0
M  V30 1880 C 176.509 -1.91719 5.54492 0
M  V30 1881 C 178.861 -1.76578 6.07456 0
M  V30 1882 C 177.525 -1.66363 6.46436 0
M  V30 1883 H 176.795 -0.53047 0.517381 0
M  V30 1884 H 179.442 -0.787655 1.74552 0
M  V30 1885 H 177.747 -3.38461 1.9736 0
M  V30 1886 H 179.444 -3.25452 2.34269 0
M  V30 1887 H 176.034 -2.44085 3.52308 0
M  V30 1888 H 180.218 -2.16717 4.46483 0
M  V30 1889 H 175.474 -1.82367 5.83568 0
M  V30 1890 H 179.648 -1.55974 6.78708 0
M  V30 1891 H 177.275 -1.38258 7.47522 0
M  V30 1892 N 178.85 -1.27639 -0.924453 0
M  V30 1893 C 179.813 -1.10681 -2.00705 0
M  V30 1894 C 180.813 -0.0497823 -1.60723 0
M  V30 1895 O 182.003 -0.294654 -1.7169 0
M  V30 1896 C 179.135 -0.687164 -3.33902 0
M  V30 1897 H 180.328 -2.06817 -2.17179 0
M  V30 1898 H 177.881 -1.10473 -1.10569 0
M  V30 1899 H 178.616 0.275439 -3.23128 0
M  V30 1900 H 178.401 -1.45061 -3.6428 0
M  V30 1901 H 179.891 -0.590853 -4.13399 0
M  V30 1902 N 180.328 1.1314 -1.09713 0
M  V30 1903 C 181.291 2.16831 -0.742751 0
M  V30 1904 C 182.291 1.59159 0.229129 0
M  V30 1905 O 183.481 1.74199 0.00693237 0
M  V30 1906 C 180.613 3.40756 -0.0989168 0
M  V30 1907 H 181.806 2.49695 -1.66109 0
M  V30 1908 H 179.359 1.2802 -0.896699 0
M  V30 1909 H 180.094 3.13485 0.830514 0
M  V30 1910 H 179.879 3.83888 -0.798265 0
M  V30 1911 H 181.369 4.17386 0.133524 0
M  V30 1912 N 181.806 0.884767 1.30421 0
M  V30 1913 C 183.222 0.57874 1.48737 0
M  V30 1914 C 183.422 -0.883567 1.81095 0
M  V30 1915 O 182.478 -1.6648 1.89844 0
M  V30 1916 C 183.791 1.49171 2.61091 0
M  V30 1917 C 185.339 1.49532 2.74971 0
M  V30 1918 C 185.814 2.39421 3.90438 0
M  V30 1919 N 187.305 2.37383 3.97748 0
M  V30 1920 C 188.04 3.03647 4.86401 0
M  V30 1921 N 187.536 3.79136 5.79852 0
M  V30 1922 N 189.329 2.9288 4.79768 0
M  V30 1923 H 181.48 1.83075 1.0769 0
M  V30 1924 H 183.743 0.783637 0.533495 0
M  V30 1925 H 183.449 2.53291 2.44001 0
M  V30 1926 H 183.323 1.20113 3.57565 0
M  V30 1927 H 185.71 0.46163 2.91467 0
M  V30 1928 H 185.791 1.8262 1.79119 0
M  V30 1929 H 185.435 3.42874 3.74699 0
M  V30 1930 H 185.365 2.03649 4.85628 0
M  V30 1931 H 187.856 1.82525 3.30897 0
M  V30 1932 H 188.169 4.26789 6.4426 0
M  V30 1933 H 186.514 3.83243 5.79784 0
M  V30 1934 H 189.705 2.33433 4.05742 0
M  V30 1935 H 189.878 3.448 5.4865 0
M  V30 1936 N 183.284 -1.43765 0.645699 0
M  V30 1937 C 184.512 -2.06253 0.163556 0
M  V30 1938 C 184.927 -1.48352 -1.16778 0
M  V30 1939 O 184.284 -0.611932 -1.71935 0
M  V30 1940 C 184.335 -3.61453 0.0583186 0
M  V30 1941 O 184.056 -4.172 1.33702 0
M  V30 1942 C 185.557 -4.41002 -0.450795 0
M  V30 1943 H 182.777 -0.665413 0.0864077 0
M  V30 1944 H 185.321 -1.84396 0.884222 0
M  V30 1945 H 183.476 -3.82522 -0.612865 0
M  V30 1946 H 183.89 -5.10791 1.19131 0
M  V30 1947 H 185.364 -5.49966 -0.473403 0
M  V30 1948 H 185.841 -4.13488 -1.48068 0
M  V30 1949 H 186.447 -4.24886 0.187637 0
M  V30 1950 N 184.763 -0.387143 -1.52771 0
M  V30 1951 C 185.991 0.195869 -2.05971 0
M  V30 1952 C 186.406 1.40691 -1.25903 0
M  V30 1953 O 185.763 1.79931 -0.305134 0
M  V30 1954 C 185.814 0.56812 -3.57008 0
M  V30 1955 O 185.535 -0.594803 -4.34043 0
M  V30 1956 C 187.036 1.20723 -4.26545 0
M  V30 1957 H 184.256 0.0300578 -0.670326 0
M  V30 1958 H 186.8 -0.551749 -1.96916 0
M  V30 1959 H 184.955 1.26564 -3.66143 0
M  V30 1960 H 185.369 -0.289322 -5.23701 0
M  V30 1961 H 186.843 1.41807 -5.33474 0
M  V30 1962 H 187.32 2.17395 -3.81623 0
M  V30 1963 H 187.926 0.550535 -4.21722 0
M  V30 1964 N 186.241 1.57166 -0.116904 0
M  V30 1965 C 187.466 1.999 0.55271 0
M  V30 1966 C 187.891 0.996039 1.59564 0
M  V30 1967 O 187.249 -0.032556 1.81271 0
M  V30 1968 C 187.297 3.4152 1.15742 0
M  V30 1969 O 186.401 3.44106 2.27299 0
M  V30 1970 H 185.742 0.649447 0.138258 0
M  V30 1971 H 188.272 2.03573 -0.204759 0
M  V30 1972 H 188.282 3.79684 1.49346 0
M  V30 1973 H 186.957 4.14034 0.393493 0
M  V30 1974 H 185.534 3.17759 1.9515 0
M  V30 1975 N 187.719 -0.156864 1.56817 0
M  V30 1976 C 188.682 -1.17781 1.96622 0
M  V30 1977 C 189.682 -1.36401 0.851555 0
M  V30 1978 O 190.872 -1.33561 1.11836 0
M  V30 1979 C 188.004 -2.54008 2.27361 0
M  V30 1980 H 189.197 -0.836564 2.87996 0
M  V30 1981 H 186.75 -0.39985 1.51099 0
M  V30 1982 H 187.485 -2.9312 1.38748 0
M  V30 1983 H 187.27 -2.41856 3.08623 0
M  V30 1984 H 188.76 -3.27558 2.59029 0
M  V30 1985 N 189.197 -1.51736 -0.425897 0
M  V30 1986 C 190.127 -1.76827 -1.52494 0
M  V30 1987 C 191.108 -0.618524 -1.58456 0
M  V30 1988 O 192.293 -0.862416 -1.74 0
M  V30 1989 C 189.423 -1.90374 -2.90474 0
M  V30 1990 C 188.377 -3.0588 -2.99369 0
M  V30 1991 C 187.703 -3.04625 -4.3944 0
M  V30 1992 C 189.003 -4.45644 -2.72394 0
M  V30 1993 H 190.697 -2.68855 -1.31748 0
M  V30 1994 H 188.243 -1.29372 -0.632362 0
M  V30 1995 H 190.196 -2.0651 -3.6733 0
M  V30 1996 H 188.92 -0.95004 -3.12477 0
M  V30 1997 H 187.579 -2.89467 -2.24954 0
M  V30 1998 H 187.227 -2.0701 -4.58428 0
M  V30 1999 H 186.927 -3.82195 -4.46319 0
M  V30 2000 H 188.451 -3.22869 -5.18255 0
M  V30 2001 H 189.865 -4.62348 -3.38979 0
M  V30 2002 H 188.262 -5.25006 -2.9067 0
M  V30 2003 H 189.332 -4.54893 -1.67929 0
M  V30 2004 N 190.675 0.682077 -1.42076 0
M  V30 2005 C 191.607 1.80755 -1.40926 0
M  V30 2006 C 192.62 1.59833 -0.309398 0
M  V30 2007 O 193.809 1.69087 -0.572014 0
M  V30 2008 C 190.909 3.17744 -1.17865 0
M  V30 2009 C 190.082 3.65578 -2.40149 0
M  V30 2010 C 189.141 4.81277 -2.12742 0
M  V30 2011 O 188.167 4.92197 -2.85887 0
M  V30 2012 N 189.369 5.69474 -1.12602 0
M  V30 2013 H 192.134 1.82229 -2.37935 0
M  V30 2014 H 189.695 0.864903 -1.36861 0
M  V30 2015 H 191.687 3.9279 -0.9746 0
M  V30 2016 H 190.257 3.11214 -0.294068 0
M  V30 2017 H 189.477 2.81291 -2.76169 0
M  V30 2018 H 190.765 3.94278 -3.21593 0
M  V30 2019 H 190.163 5.63297 -0.520899 0
M  V30 2020 H 188.72 6.44363 -0.981842 0
M  V30 2021 N 192.153 1.28127 0.917671 0
M  V30 2022 C 193.402 1.14432 1.66097 0
M  V30 2023 C 193.715 -0.307247 1.93172 0
M  V30 2024 O 194.921 -0.565259 2.65551 0
M  V30 2025 C 193.377 2.00015 2.99202 0
M  V30 2026 C 192.985 3.49889 2.79789 0
M  V30 2027 C 194.729 1.94996 3.77064 0
M  V30 2028 C 192.636 4.27636 4.08511 0
M  V30 2029 H 191.566 0.424662 0.62304 0
M  V30 2030 H 194.217 1.52628 1.01868 0
M  V30 2031 H 192.599 1.54672 3.64544 0
M  V30 2032 H 193.773 4.03162 2.23152 0
M  V30 2033 H 192.088 3.56392 2.15345 0
M  V30 2034 H 194.685 2.50354 4.72469 0
M  V30 2035 H 195.028 0.925819 4.05875 0
M  V30 2036 H 195.561 2.38287 3.18534 0
M  V30 2037 H 192.3 5.30615 3.84874 0
M  V30 2038 H 191.82 3.79137 4.64774 0
M  V30 2039 H 193.499 4.37346 4.76799 0
M  V30 2040 N 193.631 -1.12557 1.10312 0
M  V30 2041 C 194.579 -2.20325 0.745629 0
M  V30 2042 C 195.573 -1.67429 -0.25763 0
M  V30 2043 O 196.779 -1.79612 -0.118132 0
M  V30 2044 H 193.154 -0.718118 0.223182 0
M  V30 2045 H 195.125 -2.47733 1.66346 0
M  V30 2046 C 193.874 -3.47168 0.192262 0
M  V30 2047 H 193.197 -3.88215 0.955475 0
M  V30 2048 H 194.637 -4.23995 -0.0198274 0
M  V30 2049 C 193.096 -3.19298 -1.07472 0
M  V30 2050 O 193.626 -3.3891 -2.15645 0
M  V30 2051 N 191.832 -2.73113 -0.992847 0
M  V30 2052 H 191.379 -2.57354 -0.112474 0
M  V30 2053 H 191.337 -2.54842 -1.84127 0
M  V30 2054 N 195.109 -0.891671 -1.2995 0
M  V30 2055 C 196.386 -0.433307 -1.9074 0
M  V30 2056 C 196.766 1.08646 -1.80995 0
M  V30 2057 O 196.114 1.92476 -1.23147 0
M  V30 2058 C 196.324 -0.938895 -3.36134 0
M  V30 2059 C 197.672 -0.977829 -4.13187 0
M  V30 2060 O 198.696 -0.886015 -3.45005 0
M  V30 2061 O 197.555 -1.11453 -5.35015 0
M  V30 2062 H 194.649 -0.133699 -0.816121 0
M  V30 2063 H 197.195 -0.981011 -1.38471 0
M  V30 2064 H 195.967 -1.98281 -3.37343 0
M  V30 2065 H 195.59 -0.37074 -3.95868 0
M  V30 2066 N 196.587 1.43421 -0.653314 0
M  V30 2067 C 197.864 1.95361 -0.0966581 0
M  V30 2068 C 198.244 1.59461 1.38331 0
M  V30 2069 O 197.592 0.879777 2.10884 0
M  V30 2070 C 197.802 3.47311 -0.342988 0
M  V30 2071 C 199.15 4.23875 -0.24798 0
M  V30 2072 O 200.174 3.55133 -0.275553 0
M  V30 2073 O 199.033 5.4623 -0.171771 0
M  V30 2074 H 196.127 0.826945 0.00956291 0
M  V30 2075 H 198.673 1.5336 -0.726558 0
M  V30 2076 H 197.445 3.66569 -1.36906 0
M  V30 2077 H 197.068 3.9631 0.319975 0
M  V30 2078 N 198.065 0.39524 1.52563 0
M  V30 2079 C 198.975 -0.444232 2.30356 0
M  V30 2080 C 199.991 -1.06615 1.37511 0
M  V30 2081 O 201.167 -1.07067 1.70583 0
M  V30 2082 C 198.232 -1.55315 3.09964 0
M  V30 2083 C 197.293 -0.955734 4.18526 0
M  V30 2084 C 196.526 -2.01181 4.9433 0
M  V30 2085 O 196.749 -3.22781 4.70285 0
M  V30 2086 O 195.683 -1.62579 5.79527 0
M  V30 2087 H 199.509 0.189667 3.03107 0
M  V30 2088 H 197.094 0.1588 1.48554 0
M  V30 2089 H 198.976 -2.19724 3.59582 0
M  V30 2090 H 197.651 -2.17191 2.4002 0
M  V30 2091 H 196.558 -0.274743 3.7309 0
M  V30 2092 H 197.891 -0.381109 4.90722 0
M  V30 2093 N 199.544 -1.57102 0.125237 0
M  V30 2094 C 200.79 -1.95697 -0.532035 0
M  V30 2095 C 201.123 -1.009 -1.6593 0
M  V30 2096 O 200.398 -0.047347 -1.94442 0
M  V30 2097 C 200.681 -3.44181 -1.05884 0
M  V30 2098 C 200.534 -4.49752 0.0654392 0
M  V30 2099 C 201.853 -3.94655 -1.9477 0
M  V30 2100 H 198.972 -0.711571 -0.191925 0
M  V30 2101 H 201.614 -1.88923 0.20206 0
M  V30 2102 H 199.764 -3.50085 -1.68442 0
M  V30 2103 H 201.436 -4.55943 0.700982 0
M  V30 2104 H 199.679 -4.27653 0.727709 0
M  V30 2105 H 200.35 -5.50924 -0.344505 0
M  V30 2106 H 202.826 -3.91094 -1.42074 0
M  V30 2107 H 201.702 -4.99057 -2.28546 0
M  V30 2108 H 201.963 -3.35718 -2.87656 0
M  V30 2109 N 201.022 0.148545 -1.56898 0
M  V30 2110 C 201.955 1.21293 -1.93296 0
M  V30 2111 C 202.933 1.41637 -0.798599 0
M  V30 2112 O 204.117 1.56275 -1.05406 0
M  V30 2113 C 201.244 2.5721 -2.20365 0
M  V30 2114 C 200.29 2.53469 -3.4301 0
M  V30 2115 S 201.123 2.00315 -4.96623 0
M  V30 2116 C 202.279 3.37964 -5.26812 0
M  V30 2117 H 202.512 0.902393 -2.83274 0
M  V30 2118 H 200.045 0.354094 -1.50285 0
M  V30 2119 H 202.003 3.35427 -2.36641 0
M  V30 2120 H 200.664 2.85454 -1.31054 0
M  V30 2121 H 199.857 3.53518 -3.59223 0
M  V30 2122 H 199.459 1.83359 -3.25968 0
M  V30 2123 H 201.751 4.34066 -5.20185 0
M  V30 2124 H 202.694 3.26606 -6.28279 0
M  V30 2125 H 203.102 3.35028 -4.54331 0
M  V30 2126 N 202.5 1.5196 0.417844 0
M  V30 2127 C 203.777 1.56146 1.17803 0
M  V30 2128 C 204.157 0.337275 2.08388 0
M  V30 2129 O 203.505 -0.676447 2.18258 0
M  V30 2130 C 203.715 2.88566 1.96293 0
M  V30 2131 C 205.063 3.41244 2.52662 0
M  V30 2132 O 206.087 2.90247 2.06483 0
M  V30 2133 O 204.946 4.30273 3.36938 0
M  V30 2134 H 202.04 0.628598 0.537395 0
M  V30 2135 H 204.586 1.64283 0.425331 0
M  V30 2136 H 203.358 3.69116 1.2988 0
M  V30 2137 H 202.981 2.83681 2.78587 0
M  V30 2138 N 203.978 -0.674533 1.42435 0
M  V30 2139 C 205.208 -1.46071 1.46105 0
M  V30 2140 C 205.616 -1.89067 0.0709605 0
M  V30 2141 O 204.959 -1.58731 -0.924677 0
M  V30 2142 C 205.021 -2.74145 2.32561 0
M  V30 2143 C 204.685 -2.53224 3.8043 0
M  V30 2144 C 205.682 -2.17809 4.72075 0
M  V30 2145 C 203.367 -2.6821 4.24698 0
M  V30 2146 C 205.361 -1.97648 6.05982 0
M  V30 2147 C 203.048 -2.47665 5.58664 0
M  V30 2148 C 204.046 -2.12437 6.49122 0
M  V30 2149 O 203.734 -1.9209 7.80613 0
M  V30 2150 H 203.466 -0.455959 0.499076 0
M  V30 2151 H 206.02 -0.836193 1.87609 0
M  V30 2152 H 204.25 -3.3908 1.85908 0
M  V30 2153 H 205.939 -3.36028 2.27683 0
M  V30 2154 H 206.705 -2.05826 4.39159 0
M  V30 2155 H 202.584 -2.94609 3.54579 0
M  V30 2156 H 206.128 -1.70075 6.7655 0
M  V30 2157 H 202.025 -2.59244 5.91154 0
M  V30 2158 H 202.793 -2.06686 7.91974 0
M  V30 2159 N 205.456 -1.28612 -0.910864 0
M  V30 2160 C 206.388 -1.08589 -2.01844 0
M  V30 2161 C 207.401 -0.0367419 -1.62759 0
M  V30 2162 O 208.59 -0.280101 -1.76289 0
M  V30 2163 C 205.69 -0.628626 -3.33019 0
M  V30 2164 C 204.863 -1.75382 -4.00699 0
M  V30 2165 C 203.922 -1.28945 -5.10156 0
M  V30 2166 O 202.948 -1.9922 -5.33198 0
M  V30 2167 N 204.15 -0.154224 -5.80295 0
M  V30 2168 H 206.915 -2.03973 -2.19579 0
M  V30 2169 H 204.476 -1.20403 -1.08234 0
M  V30 2170 H 206.468 -0.301508 -4.03575 0
M  V30 2171 H 205.038 0.232451 -3.11735 0
M  V30 2172 H 204.258 -2.25039 -3.23653 0
M  V30 2173 H 205.546 -2.50854 -4.42662 0
M  V30 2174 H 204.944 0.43194 -5.64049 0
M  V30 2175 H 203.501 0.113599 -6.51701 0
M  V30 2176 N 206.934 1.1197 -1.10907 0
M  V30 2177 C 208.18 1.84059 -0.865674 0
M  V30 2178 C 208.535 1.82731 0.602254 0
M  V30 2179 O 207.828 1.26543 1.43866 0
M  V30 2180 C 208.022 3.30749 -1.35425 0
M  V30 2181 C 207.851 3.46363 -2.86815 0
M  V30 2182 C 206.621 3.59712 -3.54874 0
M  V30 2183 C 208.819 3.41116 -3.84895 0
M  V30 2184 N 206.801 3.63741 -4.94536 0
M  V30 2185 C 208.172 3.51698 -5.10596 0
M  V30 2186 C 210.227 3.24612 -3.77533 0
M  V30 2187 C 208.93 3.4748 -6.29802 0
M  V30 2188 C 210.956 3.21708 -4.96244 0
M  V30 2189 C 210.318 3.32856 -6.20795 0
M  V30 2190 H 206.417 0.689015 -0.369841 0
M  V30 2191 H 209.001 1.34016 -1.41237 0
M  V30 2192 H 207.172 3.79322 -0.834814 0
M  V30 2193 H 208.904 3.90718 -1.05458 0
M  V30 2194 H 205.659 3.62038 -3.05329 0
M  V30 2195 H 206.083 3.69408 -5.67333 0
M  V30 2196 H 210.725 3.14883 -2.8215 0
M  V30 2197 H 208.443 3.55978 -7.25469 0
M  V30 2198 H 212.029 3.10113 -4.92261 0
M  V30 2199 H 210.909 3.3059 -7.11112 0
M  V30 2200 N 208.412 0.89855 1.29475 0
M  V30 2201 C 209.652 0.530771 1.97388 0
M  V30 2202 C 210.016 -0.905832 1.69289 0
M  V30 2203 O 211.217 -1.38042 2.30646 0
M  V30 2204 C 209.488 0.81369 3.48014 0
M  V30 2205 S 211.047 0.550048 4.35339 0
M  V30 2206 H 207.865 0.196956 0.683176 0
M  V30 2207 H 210.467 1.16074 1.57312 0
M  V30 2208 H 209.171 1.85749 3.65958 0
M  V30 2209 H 208.702 0.171795 3.93025 0
M  V30 2210 H 210.717 -0.605423 4.92493 0
M  V30 2211 N 209.89 -1.43072 0.660911 0
M  V30 2212 C 211.167 -1.95307 0.107017 0
M  V30 2213 C 211.547 -1.60192 -1.37484 0
M  V30 2214 O 210.895 -0.890949 -2.10415 0
M  V30 2215 C 211.105 -3.47124 0.361402 0
M  V30 2216 C 212.453 -4.23738 0.270455 0
M  V30 2217 O 213.477 -3.54981 0.294382 0
M  V30 2218 O 212.336 -5.46131 0.200737 0
M  V30 2219 H 209.43 -0.826984 -0.00517729 0
M  V30 2220 H 211.976 -1.52972 0.734681 0
M  V30 2221 H 210.748 -3.65837 1.38848 0
M  V30 2222 H 210.371 -3.96475 -0.298953 0
M  V30 2223 N 211.368 -0.403325 -1.52352 0
M  V30 2224 C 212.298 0.416205 -2.29761 0
M  V30 2225 C 213.279 1.05123 -1.33728 0
M  V30 2226 O 214.464 1.06134 -1.62632 0
M  V30 2227 C 211.594 1.53624 -3.11475 0
M  V30 2228 C 210.548 1.02653 -4.15507 0
M  V30 2229 C 209.874 2.23971 -4.85532 0
M  V30 2230 C 211.174 0.08463 -5.22231 0
M  V30 2231 H 212.868 -0.229701 -2.98518 0
M  V30 2232 H 210.414 -0.111913 -1.43564 0
M  V30 2233 H 212.367 2.1165 -3.64393 0
M  V30 2234 H 211.091 2.20994 -2.40477 0
M  V30 2235 H 209.75 0.46871 -3.63591 0
M  V30 2236 H 209.398 2.89883 -4.11068 0
M  V30 2237 H 209.098 1.90521 -5.55856 0
M  V30 2238 H 210.622 2.82614 -5.41259 0
M  V30 2239 H 212.036 0.573509 -5.70424 0
M  V30 2240 H 210.433 -0.160783 -5.99885 0
M  V30 2241 H 211.503 -0.86237 -4.7717 0
M  V30 2242 N 212.846 1.57033 -0.133567 0
M  V30 2243 C 213.809 2.14897 0.796995 0
M  V30 2244 C 214.809 1.0874 1.18458 0
M  V30 2245 O 215.999 1.34446 1.1077 0
M  V30 2246 C 213.131 2.70112 2.07973 0
M  V30 2247 H 214.324 2.98457 0.293873 0
M  V30 2248 H 211.877 1.55871 0.115787 0
M  V30 2249 H 212.612 1.9018 2.62682 0
M  V30 2250 H 212.397 3.47764 1.81115 0
M  V30 2251 H 213.887 3.14738 2.74462 0
M  V30 2252 N 214.325 -0.140222 1.56975 0
M  V30 2253 C 215.602 -0.880769 1.74648 0
M  V30 2254 C 215.982 -1.99036 0.703404 0
M  V30 2255 O 215.33 -2.26821 -0.27648 0
M  V30 2256 C 215.54 -1.417 3.18939 0
M  V30 2257 C 216.888 -1.87774 3.80823 0
M  V30 2258 O 217.912 -1.51427 3.2241 0
M  V30 2259 O 216.771 -2.54827 4.83452 0
M  V30 2260 H 213.865 -0.416713 0.714338 0
M  V30 2261 H 216.411 -0.125618 1.69234 0
M  V30 2262 H 215.183 -0.619902 3.86359 0
M  V30 2263 H 214.806 -2.23546 3.28805 0
M  V30 2264 N 215.803 -1.52179 -0.40978 0
M  V30 2265 C 217.049 -1.66453 -1.15851 0
M  V30 2266 C 217.382 -0.392972 -1.90182 0
M  V30 2267 O 216.657 0.608579 -1.84734 0
M  V30 2268 C 216.94 -2.88612 -2.15349 0
M  V30 2269 C 216.793 -4.25815 -1.44918 0
M  V30 2270 C 218.112 -3.06294 -3.16026 0
M  V30 2271 H 215.231 -0.60575 -0.419805 0
M  V30 2272 H 217.873 -1.84732 -0.444314 0
M  V30 2273 H 216.023 -2.73158 -2.76255 0
M  V30 2274 H 217.695 -4.52995 -0.871365 0
M  V30 2275 H 215.938 -4.27247 -0.751159 0
M  V30 2276 H 216.609 -5.07337 -2.17516 0
M  V30 2277 H 219.085 -3.20641 -2.65195 0
M  V30 2278 H 217.961 -3.93283 -3.8291 0
M  V30 2279 H 218.222 -2.19579 -3.83715 0
M  V30 2280 N 217.281 0.66697 -1.42791 0
M  V30 2281 C 218.211 1.79218 -1.49677 0
M  V30 2282 C 219.192 1.66405 -0.352623 0
M  V30 2283 O 220.377 1.85708 -0.567993 0
M  V30 2284 C 217.507 3.17565 -1.40605 0
M  V30 2285 C 216.461 3.45124 -2.53127 0
M  V30 2286 C 215.787 4.83127 -2.29112 0
M  V30 2287 C 217.087 3.41236 -3.95418 0
M  V30 2288 H 218.781 1.73713 -2.43853 0
M  V30 2289 H 216.327 0.83432 -1.17367 0
M  V30 2290 H 218.28 3.96022 -1.44029 0
M  V30 2291 H 217.004 3.23767 -0.429271 0
M  V30 2292 H 215.663 2.69031 -2.49034 0
M  V30 2293 H 215.311 4.85988 -1.29709 0
M  V30 2294 H 215.011 5.02528 -3.04531 0
M  V30 2295 H 216.535 5.63859 -2.34297 0
M  V30 2296 H 217.949 4.09651 -4.01073 0
M  V30 2297 H 216.346 3.72173 -4.70752 0
M  V30 2298 H 217.416 2.39665 -4.21532 0
M  V30 2299 N 218.759 1.29093 0.90403 0
M  V30 2300 C 219.709 1.10482 1.99443 0
M  V30 2301 C 220.693 0.0255401 1.6088 0
M  V30 2302 O 221.885 0.24677 1.75271 0
M  V30 2303 C 219.014 0.778882 3.34348 0
M  V30 2304 C 218.1 1.89749 3.79284 0
M  V30 2305 N 218.491 3.14045 3.96497 0
M  V30 2306 C 216.789 1.78955 4.08523 0
M  V30 2307 C 217.49 3.86996 4.34292 0
M  V30 2308 N 216.466 3.14909 4.43095 0
M  V30 2309 H 220.268 2.04778 2.10815 0
M  V30 2310 H 217.782 1.20155 1.09255 0
M  V30 2311 H 219.779 0.62661 4.12164 0
M  V30 2312 H 218.439 -0.156205 3.24324 0
M  V30 2313 H 219.45 3.49548 3.82148 0
M  V30 2314 H 216.127 0.926886 4.07081 0
M  V30 2315 H 217.517 4.93941 4.55491 0
M  V30 2316 N 220.237 -1.11381 1.11499 0
M  V30 2317 C 221.485 -1.8277 0.862524 0
M  V30 2318 C 221.806 -1.85097 -0.613534 0
M  V30 2319 O 221.076 -1.32198 -1.4457 0
M  V30 2320 H 219.656 -0.676823 0.316101 0
M  V30 2321 H 222.318 -1.34816 1.4075 0
M  V30 2322 H 221.414 -2.86614 1.23527 0
M  V30 2323 N 221.715 -0.905404 -1.28997 0
M  V30 2324 C 222.964 -0.530191 -1.94607 0
M  V30 2325 C 223.277 0.929185 -1.72121 0
M  V30 2326 O 224.483 1.41218 -2.31883 0
M  V30 2327 C 222.939 -0.897333 -3.48534 0
M  V30 2328 C 222.547 -2.37587 -3.79811 0
M  V30 2329 C 224.291 -0.592304 -4.20347 0
M  V30 2330 C 222.198 -2.68357 -5.27009 0
M  V30 2331 H 221.128 -0.194558 -0.728466 0
M  V30 2332 H 223.779 -1.10318 -1.46636 0
M  V30 2333 H 222.161 -0.253214 -3.9519 0
M  V30 2334 H 223.335 -3.06602 -3.43994 0
M  V30 2335 H 221.65 -2.6505 -3.2115 0
M  V30 2336 H 224.247 -0.798975 -5.28697 0
M  V30 2337 H 224.59 0.469474 -4.13644 0
M  V30 2338 H 225.123 -1.19452 -3.79442 0
M  V30 2339 H 221.862 -3.73355 -5.38782 0
M  V30 2340 H 221.382 -2.03971 -5.64053 0
M  V30 2341 H 223.061 -2.54922 -5.94663 0
M  V30 2342 N 223.193 1.4272 -0.668489 0
M  V30 2343 C 224.47 1.95248 -0.117373 0
M  V30 2344 C 224.85 1.60919 1.36632 0
M  V30 2345 O 224.198 0.902095 2.09939 0
M  V30 2346 C 224.408 3.46927 -0.379806 0
M  V30 2347 C 225.756 4.23588 -0.292923 0
M  V30 2348 O 226.78 3.5482 -0.313204 0
M  V30 2349 O 225.639 5.46017 -0.229697 0
M  V30 2350 H 222.733 0.827 0.00079152 0
M  V30 2351 H 225.279 1.52581 -0.742783 0
M  V30 2352 H 224.051 3.65096 -1.40786 0
M  V30 2353 H 223.674 3.96627 0.277923 0
M  V30 2354 N 224.671 0.411399 1.52136 0
M  V30 2355 C 225.634 -0.401089 2.25663 0
M  V30 2356 C 226.634 -0.971732 1.28117 0
M  V30 2357 O 227.824 -0.850254 1.52041 0
M  V30 2358 C 224.956 -1.56483 3.02863 0
M  V30 2359 H 226.149 0.24295 2.98914 0
M  V30 2360 H 223.702 0.163968 1.55438 0
M  V30 2361 H 224.437 -2.24567 2.33967 0
M  V30 2362 H 224.222 -1.16211 3.74483 0
M  V30 2363 H 225.712 -2.13951 3.58629 0
M  V30 2364 N 226.149 -1.5696 0.141893 0
M  V30 2365 C 227.377 -2.00322 -0.517579 0
M  V30 2366 C 227.792 -1.02193 -1.58752 0
M  V30 2367 O 227.149 -0.0181619 -1.82491 0
M  V30 2368 C 227.2 -3.43618 -1.12289 0
M  V30 2369 O 226.921 -4.37995 -0.0956929 0
M  V30 2370 C 228.422 -4.02231 -1.86347 0
M  V30 2371 H 225.642 -0.657243 -0.135177 0
M  V30 2372 H 228.186 -2.03146 0.234973 0
M  V30 2373 H 226.341 -3.41662 -1.82609 0
M  V30 2374 H 226.755 -5.21729 -0.538469 0
M  V30 2375 H 228.229 -5.04509 -2.23997 0
M  V30 2376 H 228.706 -3.42655 -2.74744 0
M  V30 2377 H 229.312 -4.07802 -1.20737 0
M  V30 2378 N 227.627 0.131896 -1.57047 0
M  V30 2379 C 229.038 0.690407 -1.73465 0
M  V30 2380 C 229.389 1.8094 -0.758629 0
M  V30 2381 O 228.514 2.16282 0.0713813 0
M  V30 2382 C 229.109 1.25916 -3.14532 0
M  V30 2383 C 227.668 1.76409 -3.32501 0
M  V30 2384 C 226.815 0.658579 -2.69366 0
M  V30 2385 H 229.766 -0.0939144 -1.58422 0
M  V30 2386 H 229.787 2.12892 -3.15369 0
M  V30 2387 H 229.299 0.444515 -3.85546 0
M  V30 2388 H 227.4 2.60391 -2.66509 0
M  V30 2389 H 227.513 1.88241 -4.4057 0
M  V30 2390 H 225.877 1.08899 -2.30246 0
M  V30 2391 H 226.66 -0.14487 -3.42994 0
M  V30 2392 N 229.106 1.52395 0.401703 0
M  V30 2393 C 230.352 1.68019 1.14635 0
M  V30 2394 C 230.707 0.408722 1.88009 0
M  V30 2395 O 230 -0.597133 1.82057 0
M  V30 2396 C 230.194 2.84578 2.16217 0
M  V30 2397 C 230.023 4.22938 1.5282 0
M  V30 2398 C 228.793 4.88352 1.29772 0
M  V30 2399 C 230.991 5.04778 0.985094 0
M  V30 2400 N 228.973 6.10726 0.623455 0
M  V30 2401 C 230.344 6.1845 0.438172 0
M  V30 2402 C 232.399 4.90057 0.880275 0
M  V30 2403 C 231.102 7.19013 -0.203306 0
M  V30 2404 C 233.128 5.9086 0.252639 0
M  V30 2405 C 232.49 7.03829 -0.283573 0
M  V30 2406 H 228.589 0.668413 0.405892 0
M  V30 2407 H 231.173 1.89717 0.437674 0
M  V30 2408 H 229.344 2.64483 2.84435 0
M  V30 2409 H 231.076 2.89202 2.83098 0
M  V30 2410 H 227.831 4.46846 1.56926 0
M  V30 2411 H 228.255 6.76323 0.302733 0
M  V30 2412 H 232.897 4.02938 1.28065 0
M  V30 2413 H 230.615 8.05751 -0.615726 0
M  V30 2414 H 234.201 5.81543 0.172954 0
M  V30 2415 H 233.081 7.80493 -0.761575 0
M  V30 2416 N 230.584 -0.659388 1.43143 0
M  V30 2417 C 231.547 -1.75432 1.47501 0
M  V30 2418 C 232.547 -1.56707 0.360512 0
M  V30 2419 O 233.737 -1.62717 0.622002 0
M  V30 2420 C 230.869 -3.14239 1.32162 0
M  V30 2421 H 232.062 -1.7295 2.45006 0
M  V30 2422 H 229.615 -0.870469 1.29817 0
M  V30 2423 H 230.35 -3.22336 0.356401 0
M  V30 2424 H 230.135 -3.29235 2.12948 0
M  V30 2425 H 231.625 -3.94094 1.3813 0
M  V30 2426 N 232.062 -1.29571 -0.897171 0
M  V30 2427 C 233.309 -1.17689 -1.6479 0
M  V30 2428 C 233.637 0.27107 -1.92602 0
M  V30 2429 O 232.892 1.21193 -1.53658 0
M  V30 2430 C 233.191 -1.9382 -3.00281 0
M  V30 2431 C 232.857 -3.43522 -2.92068 0
M  V30 2432 C 231.519 -3.84348 -2.89535 0
M  V30 2433 C 233.871 -4.38906 -2.81089 0
M  V30 2434 C 231.199 -5.18869 -2.73846 0
M  V30 2435 C 233.551 -5.73521 -2.66939 0
M  V30 2436 C 232.215 -6.13601 -2.62774 0
M  V30 2437 H 231.485 -0.430654 -0.603008 0
M  V30 2438 H 234.132 -1.60536 -1.04404 0
M  V30 2439 H 232.437 -1.4357 -3.64547 0
M  V30 2440 H 234.134 -1.82028 -3.57305 0
M  V30 2441 H 230.724 -3.11072 -2.94842 0
M  V30 2442 H 234.908 -4.08315 -2.82121 0
M  V30 2443 H 230.164 -5.4903 -2.69027 0
M  V30 2444 H 234.338 -6.47078 -2.57416 0
M  V30 2445 H 231.965 -7.17786 -2.50375 0
M  V30 2446 N 233.54 1.10788 -1.12088 0
M  V30 2447 C 234.765 1.87002 -0.896949 0
M  V30 2448 C 235.19 1.79933 0.548261 0
M  V30 2449 O 234.548 1.16662 1.38779 0
M  V30 2450 C 234.596 3.3349 -1.37174 0
M  V30 2451 O 233.7 4.08745 -0.547831 0
M  V30 2452 H 233.041 0.580397 -0.322545 0
M  V30 2453 H 235.571 1.39996 -1.49206 0
M  V30 2454 H 235.581 3.84339 -1.36922 0
M  V30 2455 H 234.256 3.37951 -2.42408 0
M  V30 2456 H 232.833 3.6776 -0.617034 0
M  V30 2457 N 235.018 0.912232 1.28515 0
M  V30 2458 C 236.429 0.591352 1.77087 0
M  V30 2459 C 236.78 -0.8933 1.74684 0
M  V30 2460 O 235.905 -1.69876 1.34056 0
M  V30 2461 C 236.5 1.06668 3.2157 0
M  V30 2462 C 235.059 0.79675 3.67871 0
M  V30 2463 C 234.206 1.23427 2.48316 0
M  V30 2464 H 237.157 1.09365 1.15 0
M  V30 2465 H 237.178 0.407455 3.78312 0
M  V30 2466 H 236.69 2.14726 3.23287 0
M  V30 2467 H 234.791 -0.270679 3.71616 0
M  V30 2468 H 234.904 1.40343 4.58084 0
M  V30 2469 H 233.268 0.653036 2.46186 0
M  V30 2470 H 234.051 2.32316 2.52753 0
M  V30 2471 N 236.496 -1.42363 0.676048 0
M  V30 2472 C 237.742 -2.02336 0.207809 0
M  V30 2473 C 238.097 -1.52506 -1.17302 0
M  V30 2474 O 237.39 -0.718048 -1.77636 0
M  V30 2475 C 237.584 -3.56929 0.183431 0
M  V30 2476 C 237.413 -4.21762 1.56036 0
M  V30 2477 C 236.183 -4.56881 2.15842 0
M  V30 2478 C 238.381 -4.49267 2.50327 0
M  V30 2479 N 236.363 -5.069 3.46303 0
M  V30 2480 C 237.734 -5.00851 3.65443 0
M  V30 2481 C 239.789 -4.31257 2.48841 0
M  V30 2482 C 238.492 -5.36317 4.79329 0
M  V30 2483 C 240.518 -4.678 3.61824 0
M  V30 2484 C 239.88 -5.19537 4.75668 0
M  V30 2485 H 235.979 -0.772583 0.120993 0
M  V30 2486 H 238.563 -1.73203 0.889306 0
M  V30 2487 H 236.734 -3.85576 -0.467483 0
M  V30 2488 H 238.466 -4.03603 -0.297808 0
M  V30 2489 H 235.221 -4.4268 1.68319 0
M  V30 2490 H 235.645 -5.36338 4.13123 0
M  V30 2491 H 240.287 -3.90511 1.62051 0
M  V30 2492 H 238.005 -5.75995 5.66794 0
M  V30 2493 H 241.591 -4.55541 3.61903 0
M  V30 2494 H 240.471 -5.47287 5.61646 0
M  V30 2495 N 237.974 -0.419461 -1.51915 0
M  V30 2496 C 238.907 0.445751 -2.23804 0
M  V30 2497 C 239.885 1.03951 -1.25031 0
M  V30 2498 O 241.069 1.08541 -1.54114 0
M  V30 2499 C 238.196 1.61964 -2.97465 0
M  V30 2500 C 237.242 1.14828 -4.10751 0
M  V30 2501 S 238.075 0.104938 -5.35397 0
M  V30 2502 C 239.231 1.28391 -6.1259 0
M  V30 2503 H 239.464 -0.164627 -2.96844 0
M  V30 2504 H 236.997 -0.203833 -1.53049 0
M  V30 2505 H 238.955 2.29271 -3.40507 0
M  V30 2506 H 237.616 2.20139 -2.24048 0
M  V30 2507 H 236.809 2.02561 -4.61503 0
M  V30 2508 H 236.411 0.553712 -3.69878 0
M  V30 2509 H 238.703 2.20563 -6.40592 0
M  V30 2510 H 239.646 0.816724 -7.03374 0
M  V30 2511 H 240.054 1.51439 -5.43807 0
M  V30 2512 N 239.452 1.56882 -0.150215 0
M  V30 2513 C 240.698 1.96518 0.500834 0
M  V30 2514 C 241.031 1.03527 1.64304 0
M  V30 2515 O 240.306 0.0782751 1.94342 0
M  V30 2516 C 240.589 3.45822 1.00395 0
M  V30 2517 C 240.442 4.49591 -0.136983 0
M  V30 2518 C 241.761 3.97704 1.88467 0
M  V30 2519 H 238.88 0.714535 0.18058 0
M  V30 2520 H 241.522 1.88577 -0.232091 0
M  V30 2521 H 239.672 3.5272 1.62851 0
M  V30 2522 H 241.344 4.5477 -0.77343 0
M  V30 2523 H 239.587 4.26441 -0.795652 0
M  V30 2524 H 240.258 5.51402 0.256815 0
M  V30 2525 H 242.734 3.93304 1.35834 0
M  V30 2526 H 241.61 5.0263 2.20578 0
M  V30 2527 H 241.871 3.40252 2.82279 0
M  V30 2528 N 240.93 -0.123565 1.57115 0
M  V30 2529 C 241.863 -1.18202 1.95201 0
M  V30 2530 C 242.841 -1.40349 0.821031 0
M  V30 2531 O 244.025 -1.54578 1.07879 0
M  V30 2532 C 241.152 -2.53671 2.24429 0
M  V30 2533 C 240.198 -2.4798 3.46999 0
M  V30 2534 S 241.031 -1.92389 4.99747 0
M  V30 2535 C 242.187 -3.2954 5.32123 0
M  V30 2536 H 242.42 -0.857212 2.84674 0
M  V30 2537 H 239.953 -0.33014 1.50829 0
M  V30 2538 H 241.911 -3.3162 2.41947 0
M  V30 2539 H 240.572 -2.83332 1.35579 0
M  V30 2540 H 239.765 -3.47758 3.64801 0
M  V30 2541 H 239.367 -1.7815 3.28844 0
M  V30 2542 H 241.659 -4.25736 5.27025 0
M  V30 2543 H 242.602 -3.16569 6.33395 0
M  V30 2544 H 243.01 -3.27758 4.59603 0
M  V30 2545 N 242.408 -1.52605 -0.393616 0
M  V30 2546 C 243.34 -1.73303 -1.49995 0
M  V30 2547 C 244.353 -0.613473 -1.50799 0
M  V30 2548 O 245.542 -0.889049 -1.54784 0
M  V30 2549 C 242.642 -1.77245 -2.88855 0
M  V30 2550 C 241.815 -3.06483 -3.12069 0
M  V30 2551 C 240.874 -3.02033 -4.30886 0
M  V30 2552 O 239.9 -3.75907 -4.27414 0
M  V30 2553 N 241.102 -2.20897 -5.36828 0
M  V30 2554 H 243.867 -2.68756 -1.32629 0
M  V30 2555 H 241.428 -1.51036 -0.583083 0
M  V30 2556 H 243.42 -1.7178 -3.66434 0
M  V30 2557 H 241.99 -0.891993 -2.99603 0
M  V30 2558 H 241.21 -3.25474 -2.22396 0
M  V30 2559 H 242.498 -3.91947 -3.2443 0
M  V30 2560 H 241.896 -1.60336 -5.42502 0
M  V30 2561 H 240.453 -2.21275 -6.13091 0
M  V30 2562 N 243.887 0.651787 -1.4349 0
M  V30 2563 C 244.85 1.74647 -1.48429 0
M  V30 2564 C 245.85 1.56513 -0.368817 0
M  V30 2565 O 247.04 1.62385 -0.630623 0
M  V30 2566 C 244.172 3.13533 -1.33827 0
M  V30 2567 H 245.365 1.71649 -2.4592 0
M  V30 2568 H 242.918 0.863573 -1.30277 0
M  V30 2569 H 243.653 3.22142 -0.37349 0
M  V30 2570 H 243.438 3.28101 -2.14691 0
M  V30 2571 H 244.928 3.93356 -1.40218 0
M  V30 2572 N 245.365 1.30045 0.890287 0
M  V30 2573 C 246.593 1.21472 1.67487 0
M  V30 2574 C 247.008 -0.223241 1.87476 0
M  V30 2575 O 246.365 -1.14828 1.41847 0
M  V30 2576 C 246.416 1.93394 3.05419 0
M  V30 2577 O 246.137 3.31576 2.86337 0
M  V30 2578 C 247.638 1.91414 3.99844 0
M  V30 2579 H 244.858 0.420604 0.522813 0
M  V30 2580 H 247.402 1.7158 1.11268 0
M  V30 2581 H 245.557 1.47099 3.58386 0
M  V30 2582 H 245.971 3.67929 3.73802 0
M  V30 2583 H 247.445 2.46285 4.94012 0
M  V30 2584 H 247.922 0.891833 4.3005 0
M  V30 2585 H 248.528 2.37496 3.52811 0
M  V30 2586 N 246.843 -1.10192 1.12674 0
M  V30 2587 C 247.791 -2.18694 0.792196 0
M  V30 2588 C 248.785 -1.67938 -0.222058 0
M  V30 2589 O 249.991 -1.79822 -0.0800074 0
M  V30 2590 H 246.366 -0.713223 0.238364 0
M  V30 2591 H 248.337 -2.44149 1.71564 0
M  V30 2592 C 247.086 -3.46682 0.265859 0
M  V30 2593 H 246.409 -3.86101 1.03761 0
M  V30 2594 H 247.849 -4.23942 0.0701128 0
M  V30 2595 C 246.308 -3.21506 -1.00675 0
M  V30 2596 O 246.838 -3.43408 -2.08408 0
M  V30 2597 N 245.044 -2.75158 -0.934692 0
M  V30 2598 H 244.591 -2.57535 -0.0578604 0
M  V30 2599 H 244.549 -2.58691 -1.7868 0
M  V30 2600 N 248.321 -0.919034 -1.28029 0
M  V30 2601 C 249.737 -0.617972 -1.4715 0
M  V30 2602 C 249.937 0.835242 -1.83374 0
M  V30 2603 O 248.993 1.61388 -1.94191 0
M  V30 2604 C 250.306 -1.56041 -2.57044 0
M  V30 2605 C 251.854 -1.56769 -2.7091 0
M  V30 2606 C 252.329 -2.49688 -3.83953 0
M  V30 2607 N 253.82 -2.47845 -3.91314 0
M  V30 2608 C 254.555 -3.16437 -4.78179 0
M  V30 2609 N 254.051 -3.94376 -5.69596 0
M  V30 2610 N 255.844 -3.05498 -4.71834 0
M  V30 2611 H 247.995 -1.85866 -1.02798 0
M  V30 2612 H 250.258 -0.797506 -0.512531 0
M  V30 2613 H 249.964 -2.59671 -2.372 0
M  V30 2614 H 249.838 -1.29551 -3.54255 0
M  V30 2615 H 252.225 -0.538745 -2.90141 0
M  V30 2616 H 252.306 -1.87305 -1.74214 0
M  V30 2617 H 251.95 -3.52688 -3.65477 0
M  V30 2618 H 251.88 -2.16453 -4.80058 0
M  V30 2619 H 254.371 -1.91234 -3.25941 0
M  V30 2620 H 254.684 -4.43721 -6.32718 0
M  V30 2621 H 253.029 -3.98481 -5.69419 0
M  V30 2622 H 256.22 -2.44108 -3.99411 0
M  V30 2623 H 256.393 -3.59225 -5.39316 0
M  V30 2624 N 249.799 1.42003 -0.683588 0
M  V30 2625 C 250.709 2.34597 -0.0109075 0
M  V30 2626 C 251.725 1.55576 0.779245 0
M  V30 2627 O 252.901 1.88107 0.719555 0
M  V30 2628 C 249.966 3.34199 0.922588 0
M  V30 2629 C 249.027 4.29115 0.125984 0
M  V30 2630 C 248.26 5.23959 1.01502 0
M  V30 2631 O 248.483 5.23952 2.25456 0
M  V30 2632 O 247.417 6.00053 0.47111 0
M  V30 2633 H 251.243 2.93675 -0.773853 0
M  V30 2634 H 248.828 1.42654 -0.443861 0
M  V30 2635 H 250.71 3.95365 1.45823 0
M  V30 2636 H 249.385 2.77582 1.66523 0
M  V30 2637 H 248.292 3.71335 -0.453969 0
M  V30 2638 H 249.625 4.88798 -0.577736 0
M  V30 2639 N 251.277 0.427512 1.51691 0
M  V30 2640 C 252.24 -0.377132 2.26076 0
M  V30 2641 C 253.24 -0.958089 1.29141 0
M  V30 2642 O 254.43 -0.83408 1.52934 0
M  V30 2643 C 251.562 -1.53262 3.04506 0
M  V30 2644 H 252.755 0.27464 2.9864 0
M  V30 2645 H 250.308 0.180445 1.55255 0
M  V30 2646 H 251.043 -2.22072 2.36335 0
M  V30 2647 H 250.828 -1.12232 3.75694 0
M  V30 2648 H 252.318 -2.10135 3.60878 0
M  V30 2649 N 252.755 -1.56801 0.158532 0
M  V30 2650 C 254.171 -1.5837 -0.197774 0
M  V30 2651 C 254.371 -1.17334 -1.63814 0
M  V30 2652 O 253.427 -0.878988 -2.36707 0
M  V30 2653 C 254.74 -3.00615 0.0714459 0
M  V30 2654 C 256.288 -3.12999 0.00864533 0
M  V30 2655 C 256.763 -4.57313 0.250685 0
M  V30 2656 N 258.254 -4.62777 0.198014 0
M  V30 2657 C 258.989 -5.72271 0.359642 0
M  V30 2658 N 258.485 -6.90371 0.579625 0
M  V30 2659 N 260.278 -5.61318 0.296438 0
M  V30 2660 H 252.429 -1.81765 1.09887 0
M  V30 2661 H 254.692 -0.841849 0.435884 0
M  V30 2662 H 254.398 -3.35068 1.06874 0
M  V30 2663 H 254.272 -3.71683 -0.642757 0
M  V30 2664 H 256.659 -2.7838 -0.979217 0
M  V30 2665 H 256.74 -2.44393 0.755359 0
M  V30 2666 H 256.384 -4.92639 1.2357 0
M  V30 2667 H 256.314 -5.24061 -0.516489 0
M  V30 2668 H 258.805 -3.77885 0.0331115 0
M  V30 2669 H 259.118 -7.69689 0.69275 0
M  V30 2670 H 257.463 -6.92264 0.616087 0
M  V30 2671 H 260.654 -4.67932 0.125258 0
M  V30 2672 H 260.827 -6.46599 0.425831 0
M  V30 2673 N 254.233 0.115231 -1.57178 0
M  V30 2674 C 255.18 1.14115 -2.00615 0
M  V30 2675 C 256.15 1.40939 -0.878941 0
M  V30 2676 O 257.335 1.52741 -1.14345 0
M  V30 2677 C 254.475 2.46156 -2.4187 0
M  V30 2678 C 253.588 2.26236 -3.68024 0
M  V30 2679 C 252.723 3.51534 -3.98243 0
M  V30 2680 C 251.762 3.26787 -5.17568 0
M  V30 2681 N 250.899 4.44298 -5.43639 0
M  V30 2682 H 255.739 0.763743 -2.88047 0
M  V30 2683 H 253.276 0.365615 -1.42484 0
M  V30 2684 H 255.234 3.23189 -2.63827 0
M  V30 2685 H 253.864 2.81783 -1.57475 0
M  V30 2686 H 252.916 1.40102 -3.5366 0
M  V30 2687 H 254.228 2.03929 -4.55208 0
M  V30 2688 H 253.382 4.36984 -4.20868 0
M  V30 2689 H 252.121 3.76876 -3.09541 0
M  V30 2690 H 251.126 2.39729 -4.94783 0
M  V30 2691 H 252.351 3.02812 -6.0785 0
M  V30 2692 H 250.297 4.69754 -4.57895 0
M  V30 2693 H 250.214 4.25109 -6.25154 0
M  V30 2694 H 251.482 5.3087 -5.70786 0
M  V30 2695 N 255.711 1.52812 0.385517 0
M  V30 2696 C 257.127 1.4214 0.725829 0
M  V30 2697 C 257.327 0.544589 1.94001 0
M  V30 2698 O 256.383 0.0193693 2.52493 0
M  V30 2699 C 257.696 2.85042 0.957668 0
M  V30 2700 C 259.244 2.94543 1.05892 0
M  V30 2701 C 259.719 4.38464 1.32337 0
M  V30 2702 N 261.21 4.41804 1.39151 0
M  V30 2703 C 261.945 5.5025 1.61285 0
M  V30 2704 N 261.441 6.68775 1.80866 0
M  V30 2705 N 263.234 5.37798 1.63492 0
M  V30 2706 H 255.385 2.08338 -0.413383 0
M  V30 2707 H 257.648 0.940016 -0.122775 0
M  V30 2708 H 257.354 3.51431 0.137568 0
M  V30 2709 H 257.228 3.27505 1.87137 0
M  V30 2710 H 259.615 2.28321 1.86959 0
M  V30 2711 H 259.696 2.55504 0.123057 0
M  V30 2712 H 259.34 5.05254 0.517793 0
M  V30 2713 H 259.27 4.75059 2.27214 0
M  V30 2714 H 261.761 3.56377 1.25713 0
M  V30 2715 H 262.074 7.47197 1.97271 0
M  V30 2716 H 260.419 6.71797 1.78083 0
M  V30 2717 H 263.61 4.44171 1.47749 0
M  V30 2718 H 263.783 6.22382 1.80402 0
M  V30 2719 N 257.189 -0.644168 1.43834 0
M  V30 2720 C 258.119 -1.76814 1.52509 0
M  V30 2721 C 259.1 -1.65823 0.379052 0
M  V30 2722 O 260.285 -1.84781 0.597466 0
M  V30 2723 C 257.415 -3.15288 1.4564 0
M  V30 2724 C 256.369 -3.41053 2.58586 0
M  V30 2725 C 255.695 -4.79421 2.36769 0
M  V30 2726 C 256.995 -3.34902 4.00797 0
M  V30 2727 H 258.689 -1.69812 2.46586 0
M  V30 2728 H 256.235 -0.815542 1.1868 0
M  V30 2729 H 258.188 -3.93681 1.50311 0
M  V30 2730 H 256.912 -3.23043 0.480725 0
M  V30 2731 H 255.571 -2.65035 2.53282 0
M  V30 2732 H 255.219 -4.83863 1.37424 0
M  V30 2733 H 254.919 -4.9762 3.12487 0
M  V30 2734 H 256.443 -5.6006 2.43238 0
M  V30 2735 H 257.857 -4.03218 4.07539 0
M  V30 2736 H 256.254 -3.64637 4.76613 0
M  V30 2737 H 257.324 -2.32928 4.25291 0
M  V30 2738 N 258.668 -1.30515 -0.883378 0
M  V30 2739 C 259.893 -1.22487 -1.67367 0
M  V30 2740 C 260.318 0.208767 -1.86938 0
M  V30 2741 O 259.676 1.15015 -1.40148 0
M  V30 2742 C 259.724 -1.96041 -3.02655 0
M  V30 2743 O 258.828 -1.28859 -3.91751 0
M  V30 2744 H 258.169 -0.423573 -0.511353 0
M  V30 2745 H 260.699 -1.72362 -1.10239 0
M  V30 2746 H 260.709 -2.05124 -3.52687 0
M  V30 2747 H 259.384 -3.00307 -2.8773 0
M  V30 2748 H 257.961 -1.28141 -3.50192 0
M  V30 2749 N 260.146 1.09593 -1.13257 0
M  V30 2750 C 261.109 2.14359 -0.811358 0
M  V30 2751 C 262.109 1.59808 0.178377 0
M  V30 2752 O 263.299 1.74132 -0.0484911 0
M  V30 2753 C 260.431 3.40269 -0.207276 0
M  V30 2754 H 261.624 2.44284 -1.73969 0
M  V30 2755 H 259.177 1.25102 -0.936973 0
M  V30 2756 H 259.912 3.15969 0.73036 0
M  V30 2757 H 259.697 3.81154 -0.919992 0
M  V30 2758 H 261.187 4.176 0.000667944 0
M  V30 2759 N 261.624 0.925811 1.2754 0
M  V30 2760 C 262.871 0.565255 1.94451 0
M  V30 2761 C 263.199 -0.89316 1.7278 0
M  V30 2762 O 262.454 -1.65213 1.04895 0
M  V30 2763 C 262.753 0.835296 3.47502 0
M  V30 2764 C 262.419 2.27515 3.89291 0
M  V30 2765 C 261.081 2.66879 4.00411 0
M  V30 2766 C 263.433 3.21158 4.10496 0
M  V30 2767 C 260.761 3.99014 4.30122 0
M  V30 2768 C 263.113 4.52871 4.4169 0
M  V30 2769 C 261.777 4.92072 4.51023 0
M  V30 2770 H 261.047 0.206841 0.711546 0
M  V30 2771 H 263.694 1.16942 1.51647 0
M  V30 2772 H 261.999 0.148442 3.91519 0
M  V30 2773 H 263.696 0.535322 3.97411 0
M  V30 2774 H 260.286 1.95976 3.81171 0
M  V30 2775 H 264.47 2.9195 4.01346 0
M  V30 2776 H 259.726 4.2907 4.35556 0
M  V30 2777 H 263.9 5.25436 4.57045 0
M  V30 2778 H 261.527 5.9449 4.738 0
M  V30 2779 N 263.102 -1.41638 0.69111 0
M  V30 2780 C 264.33 -2.05628 0.22909 0
M  V30 2781 C 264.745 -1.51992 -1.11999 0
M  V30 2782 O 264.102 -0.666322 -1.69901 0
M  V30 2783 C 264.153 -3.61084 0.173283 0
M  V30 2784 O 263.874 -4.12735 1.46907 0
M  V30 2785 C 265.375 -4.42213 -0.310266 0
M  V30 2786 H 262.595 -0.662327 0.107534 0
M  V30 2787 H 265.139 -1.81489 0.942438 0
M  V30 2788 H 263.294 -3.84278 -0.490858 0
M  V30 2789 H 263.708 -5.06743 1.35322 0
M  V30 2790 H 265.182 -5.51194 -0.298196 0
M  V30 2791 H 265.659 -4.1799 -1.34838 0
M  V30 2792 H 266.265 -4.24074 0.322716 0
M  V30 2793 N 264.58 -0.43555 -1.51462 0
M  V30 2794 C 265.512 0.41257 -2.25456 0
M  V30 2795 C 266.525 0.987822 -1.29406 0
M  V30 2796 O 267.714 0.882266 -1.55172 0
M  V30 2797 C 264.814 1.58894 -2.99342 0
M  V30 2798 C 263.987 1.13288 -4.22474 0
M  V30 2799 C 263.046 2.17917 -4.78956 0
M  V30 2800 O 262.072 1.77425 -5.40841 0
M  V30 2801 N 263.274 3.50382 -4.62832 0
M  V30 2802 H 266.039 -0.221603 -2.9888 0
M  V30 2803 H 263.6 -0.264342 -1.59727 0
M  V30 2804 H 265.592 2.28508 -3.34015 0
M  V30 2805 H 264.162 2.12849 -2.28941 0
M  V30 2806 H 263.382 0.263881 -3.93316 0
M  V30 2807 H 264.67 0.805542 -5.02383 0
M  V30 2808 H 264.068 3.86013 -4.13534 0
M  V30 2809 H 262.625 4.15895 -5.01871 0
M  V30 2810 N 266.058 1.56714 -0.166846 0
M  V30 2811 C 266.988 2.20754 0.760913 0
M  V30 2812 C 267.969 1.16178 1.24244 0
M  V30 2813 O 269.154 1.44592 1.29641 0
M  V30 2814 C 266.284 2.84478 1.99223 0
M  V30 2815 C 265.238 3.95053 1.64672 0
M  V30 2816 C 264.564 4.45805 2.95232 0
M  V30 2817 C 265.864 5.14865 0.878155 0
M  V30 2818 H 267.558 2.98537 0.22713 0
M  V30 2819 H 265.104 1.43596 0.107805 0
M  V30 2820 H 267.057 3.27951 2.64624 0
M  V30 2821 H 265.781 2.04056 2.55007 0
M  V30 2822 H 264.44 3.52228 1.01641 0
M  V30 2823 H 264.088 3.62181 3.49047 0
M  V30 2824 H 263.788 5.204 2.7287 0
M  V30 2825 H 265.312 4.91962 3.6167 0
M  V30 2826 H 266.726 5.55059 1.43466 0
M  V30 2827 H 265.123 5.95348 0.753738 0
M  V30 2828 H 266.193 4.84735 -0.126377 0
M  V30 2829 N 267.536 -0.106894 1.57237 0
M  V30 2830 C 268.483 -1.13049 2.01217 0
M  V30 2831 C 269.453 -1.40471 0.886403 0
M  V30 2832 O 270.638 -1.52133 1.15153 0
M  V30 2833 C 267.778 -2.4487 2.43172 0
M  V30 2834 C 266.891 -2.24281 3.69218 0
M  V30 2835 C 266.026 -3.49417 4.00101 0
M  V30 2836 C 265.065 -3.24038 5.19294 0
M  V30 2837 N 264.202 -4.41409 5.45988 0
M  V30 2838 H 269.042 -0.748456 2.88448 0
M  V30 2839 H 266.579 -0.358054 1.42676 0
M  V30 2840 H 268.537 -3.21786 2.65537 0
M  V30 2841 H 267.167 -2.80944 1.58967 0
M  V30 2842 H 266.219 -1.38224 3.54398 0
M  V30 2843 H 267.531 -2.01512 4.56283 0
M  V30 2844 H 266.685 -4.34746 4.2318 0
M  V30 2845 H 265.424 -3.75229 3.11535 0
M  V30 2846 H 264.429 -2.37102 4.96047 0
M  V30 2847 H 265.654 -2.99584 6.09447 0
M  V30 2848 H 263.6 -4.67319 4.60379 0
M  V30 2849 H 263.517 -4.21788 6.274 0
M  V30 2850 H 264.785 -5.27836 5.73593 0
M  V30 2851 O 269.053 -1.59537 -0.25105 0
M  V30 2852 H 269.744 -1.71804 -0.894607 0
M  V30 END ATOM
M  V30 BEGIN BOND
M  V30 END BOND
M  V30 END CTAB
M  END
$$$$
