drugbank_target|Q9Y600 Cysteine sulfinic acid decarboxylase (DB00114; DB00151)
 OpenBabel12092119233D

  0  0  0     0  0            999 V3000
M  V30 BEGIN CTAB
M  V30 COUNTS 7732 7810 0 0 0
M  V30 BEGIN ATOM
M  V30 1 H -0.908 1.98254 -0.117106 0
M  V30 2 N 0 1.576 0 0
M  V30 3 C 0.933 2.03868 1.02534 0
M  V30 4 C 1.911 0.928543 1.3348 0
M  V30 5 O 3.095 1.19667 1.45644 0
M  V30 6 C 0.222 2.43627 2.35294 0
M  V30 7 C -0.732 3.65373 2.2001 0
M  V30 8 S 0.101 5.13292 1.52614 0
M  V30 9 C 1.257 5.56322 2.86805 0
M  V30 10 H 1.49 2.90518 0.631377 0
M  V30 11 H -0.977 1.52953 0.210867 0
M  V30 12 H 0.981 2.67203 3.11629 0
M  V30 13 H -0.358 1.57376 2.7183 0
M  V30 14 H -1.165 3.90944 3.18086 0
M  V30 15 H -1.563 3.418 1.51819 0
M  V30 16 H 0.729 5.58782 3.83104 0
M  V30 17 H 1.672 6.56266 2.65933 0
M  V30 18 H 2.08 4.83886 2.90714 0
M  V30 19 N 1.4781 -0.272755 1.55222 0
M  V30 20 C 2.4411 -1.32041 1.87344 0
M  V30 21 C 3.4411 -1.42342 0.74803 0
M  V30 22 O 4.6311 -1.41488 1.0162 0
M  V30 23 C 1.7631 -2.70173 2.07893 0
M  V30 24 H 2.9561 -1.04789 2.80997 0
M  V30 25 H 0.5091 -0.51083 1.47717 0
M  V30 26 H 1.2441 -3.02605 1.16622 0
M  V30 27 H 1.0291 -2.64082 2.89833 0
M  V30 28 H 2.5191 -3.45869 2.34017 0
M  V30 29 N 2.9562 -1.48159 -0.537278 0
M  V30 30 C 4.2332 -1.46291 -1.29839 0
M  V30 31 C 4.6132 -0.170613 -2.10409 0
M  V30 32 O 3.9612 0.847746 -2.12192 0
M  V30 33 C 4.1712 -2.72055 -2.18603 0
M  V30 34 C 5.5192 -3.20087 -2.7898 0
M  V30 35 O 6.5432 -2.72921 -2.28894 0
M  V30 36 O 5.4022 -4.02138 -3.70064 0
M  V30 37 H 2.4962 -0.583906 -0.585647 0
M  V30 38 H 5.0422 -1.60384 -0.554534 0
M  V30 39 H 3.8142 -3.57628 -1.58801 0
M  V30 40 H 3.4372 -2.60646 -3.00249 0
M  V30 41 N 4.4343 0.785586 -1.36625 0
M  V30 42 C 5.6593 1.57963 -1.34397 0
M  V30 43 C 6.0843 1.87964 0.071526 0
M  V30 44 O 5.4423 1.48182 1.0446 0
M  V30 45 C 5.4903 2.87511 -2.17646 0
M  V30 46 O 4.5943 3.81281 -1.57158 0
M  V30 47 H 3.9353 0.479014 -0.459828 0
M  V30 48 H 6.4653 0.973411 -1.79961 0
M  V30 49 H 6.4753 3.36745 -2.30362 0
M  V30 50 H 5.1503 2.65002 -3.20541 0
M  V30 51 H 3.7273 3.39885 -1.53403 0
M  V30 52 N 5.9124 1.20967 1.01018 0
M  V30 53 C 6.8224 0.980157 2.13143 0
M  V30 54 C 7.8384 -0.0660665 1.73875 0
M  V30 55 O 9.0144 0.122821 2.01025 0
M  V30 56 C 6.0794 0.54216 3.42435 0
M  V30 57 C 5.1404 1.65999 3.95908 0
M  V30 58 C 4.3734 1.2428 5.19028 0
M  V30 59 O 4.5964 0.114196 5.70286 0
M  V30 60 O 3.5304 2.05271 5.65816 0
M  V30 61 H 7.3564 1.91913 2.35379 0
M  V30 62 H 4.9414 0.994099 1.11526 0
M  V30 63 H 6.8234 0.30744 4.20277 0
M  V30 64 H 5.4984 -0.36815 3.216 0
M  V30 65 H 4.4054 1.94906 3.19316 0
M  V30 66 H 5.7384 2.54753 4.21143 0
M  V30 67 N 7.3905 -1.2043 1.01659 0
M  V30 68 C 8.3535 -2.21433 0.591616 0
M  V30 69 C 9.3535 -1.57203 -0.338226 0
M  V30 70 O 10.5435 -1.73737 -0.126918 0
M  V30 71 C 7.6755 -3.40628 -0.136058 0
M  V30 72 H 8.8685 -2.60545 1.48514 0
M  V30 73 H 6.4215 -1.33893 0.806379 0
M  V30 74 H 7.1565 -3.07019 -1.04449 0
M  V30 75 H 6.9415 -3.88475 0.531917 0
M  V30 76 H 8.4315 -4.15475 -0.420735 0
M  V30 77 N 8.8686 -0.792821 -1.36206 0
M  V30 78 C 9.7986 -0.207853 -2.32573 0
M  V30 79 C 10.7796 0.659055 -1.56813 0
M  V30 80 O 11.9646 0.592176 -1.84951 0
M  V30 81 C 9.0946 0.655449 -3.41059 0
M  V30 82 C 8.0486 -0.111842 -4.27854 0
M  V30 83 C 7.3746 0.872274 -5.27537 0
M  V30 84 C 8.6746 -1.30299 -5.05786 0
M  V30 85 H 10.3686 -1.01294 -2.81744 0
M  V30 86 H 7.9146 -0.48854 -1.3546 0
M  V30 87 H 9.8676 1.07464 -4.07467 0
M  V30 88 H 8.5916 1.49328 -2.90463 0
M  V30 89 H 7.2506 -0.512053 -3.63006 0
M  V30 90 H 6.8986 1.70523 -4.73214 0
M  V30 91 H 6.5986 0.363291 -5.86476 0
M  V30 92 H 8.1226 1.28996 -5.96818 0
M  V30 93 H 9.5366 -0.959379 -5.65216 0
M  V30 94 H 7.9336 -1.7455 -5.74154 0
M  V30 95 H 9.0036 -2.09663 -4.37229 0
M  V30 96 N 10.3467 1.47872 -0.545128 0
M  V30 97 C 11.7577 1.86384 -0.108581 0
M  V30 98 C 12.1087 1.45309 1.31832 0
M  V30 99 O 11.2337 0.850641 1.9898 0
M  V30 100 C 11.8287 3.38265 -0.190274 0
M  V30 101 C 10.3877 3.75914 0.191164 0
M  V30 102 C 9.5347 2.71926 -0.543273 0
M  V30 103 H 12.4857 1.39561 -0.755537 0
M  V30 104 H 12.5067 3.75831 0.594217 0
M  V30 105 H 12.0187 3.6813 -1.2289 0
M  V30 106 H 10.1197 3.51665 1.23136 0
M  V30 107 H 10.2327 4.78836 -0.158987 0
M  V30 108 H 8.5967 2.54697 0.0122495 0
M  V30 109 H 9.3797 3.04634 -1.58282 0
M  V30 110 N 11.8248 0.280983 1.55075 0
M  V30 111 C 13.0498 -0.340154 2.04592 0
M  V30 112 C 13.4748 -1.48246 1.15779 0
M  V30 113 O 12.8328 -1.80614 0.15761 0
M  V30 114 C 12.8808 -0.793104 3.5177 0
M  V30 115 O 11.9848 -1.89981 3.66034 0
M  V30 116 H 11.3258 -0.0694289 0.66036 0
M  V30 117 H 13.8558 0.416993 2.00306 0
M  V30 118 H 13.8658 -1.08729 3.93245 0
M  V30 119 H 12.5408 0.0426163 4.15878 0
M  V30 120 H 11.1178 -1.60771 3.36463 0
M  V30 121 N 13.3029 -1.57598 0.00835791 0
M  V30 122 C 14.2329 -2.1198 -0.979113 0
M  V30 123 C 15.2139 -1.03091 -1.35301 0
M  V30 124 O 16.3989 -1.30818 -1.43528 0
M  V30 125 C 13.5289 -2.62995 -2.26828 0
M  V30 126 C 12.4829 -3.76485 -2.03576 0
M  V30 127 C 11.8089 -4.13846 -3.38579 0
M  V30 128 C 13.1089 -5.0342 -1.39161 0
M  V30 129 H 14.8029 -2.94738 -0.526281 0
M  V30 130 H 12.3489 -1.41783 -0.251704 0
M  V30 131 H 14.3019 -2.99669 -2.96271 0
M  V30 132 H 13.0259 -1.7737 -2.7424 0
M  V30 133 H 11.6849 -3.40217 -1.36557 0
M  V30 134 H 11.3329 -3.25232 -3.83709 0
M  V30 135 H 11.0329 -4.90312 -3.23834 0
M  V30 136 H 12.5569 -4.53086 -4.09323 0
M  V30 137 H 13.9709 -5.37812 -1.98573 0
M  V30 138 H 12.3679 -5.84746 -1.34878 0
M  V30 139 H 13.4379 -4.83548 -0.361868 0
M  V30 140 N 14.781 0.264519 -1.55364 0
M  V30 141 C 15.744 1.31046 -1.88042 0
M  V30 142 C 16.744 1.41943 -0.755569 0
M  V30 143 O 17.934 1.40947 -1.02369 0
M  V30 144 C 15.066 2.69067 -2.09323 0
M  V30 145 H 16.259 1.03297 -2.81549 0
M  V30 146 H 13.812 0.502989 -1.47986 0
M  V30 147 H 14.547 3.01982 -1.18226 0
M  V30 148 H 14.332 2.62542 -2.91229 0
M  V30 149 H 15.822 3.44623 -2.35848 0
M  V30 150 N 16.2591 1.48442 0.529413 0
M  V30 151 C 17.5071 1.56179 1.28267 0
M  V30 152 C 17.8281 0.237721 1.93546 0
M  V30 153 O 17.0981 -0.740779 1.81354 0
M  V30 154 H 15.6781 0.575367 0.476405 0
M  V30 155 H 18.3401 1.84909 0.61602 0
M  V30 156 H 17.4361 2.34312 2.06165 0
M  V30 157 N 17.7372 -0.778329 1.37039 0
M  V30 158 C 19.0142 -1.52551 1.22424 0
M  V30 159 C 19.3942 -2.10288 -0.184964 0
M  V30 160 O 18.7422 -1.94953 -1.19187 0
M  V30 161 C 18.9522 -2.61164 2.31504 0
M  V30 162 C 20.3002 -3.28746 2.68721 0
M  V30 163 O 21.3242 -2.71455 2.30631 0
M  V30 164 O 20.1832 -4.3231 3.3432 0
M  V30 165 H 17.2772 -0.675343 0.477326 0
M  V30 166 H 19.8232 -0.815859 1.48801 0
M  V30 167 H 18.5952 -2.16574 3.25901 0
M  V30 168 H 18.2182 -3.39737 2.06554 0
M  V30 169 N 19.2153 -1.21501 -1.00376 0
M  V30 170 C 20.6263 -1.03146 -1.55621 0
M  V30 171 C 20.9773 0.408375 -1.91903 0
M  V30 172 O 20.1023 1.29177 -1.73616 0
M  V30 173 C 20.6973 -1.86612 -2.82775 0
M  V30 174 C 19.2563 -1.72586 -3.34501 0
M  V30 175 C 18.4033 -1.83747 -2.07683 0
M  V30 176 H 21.3543 -1.35505 -0.826081 0
M  V30 177 H 21.3753 -1.3771 -3.54706 0
M  V30 178 H 20.8873 -2.91399 -2.56336 0
M  V30 179 H 18.9883 -0.704877 -3.65872 0
M  V30 180 H 19.1013 -2.54623 -4.05837 0
M  V30 181 H 17.4653 -1.27069 -2.20739 0
M  V30 182 H 18.2483 -2.90044 -1.83655 0
M  V30 183 N 20.6934 1.19889 -1.02296 0
M  V30 184 C 21.9394 1.89701 -0.717033 0
M  V30 185 C 22.2724 1.7905 0.751989 0
M  V30 186 O 21.5474 1.17891 1.547 0
M  V30 187 C 21.8304 3.40858 -1.16136 0
M  V30 188 C 21.6834 3.60411 -2.69117 0
M  V30 189 C 23.0024 4.33876 -0.737549 0
M  V30 190 H 20.1214 0.688874 -0.261957 0
M  V30 191 H 22.7634 1.41154 -1.27183 0
M  V30 192 H 20.9134 3.82335 -0.689342 0
M  V30 193 H 22.5854 3.28145 -3.2422 0
M  V30 194 H 20.8284 3.03665 -3.0979 0
M  V30 195 H 21.4994 4.66396 -2.95261 0
M  V30 196 H 23.9754 4.00081 -1.14344 0
M  V30 197 H 22.8514 5.38242 -1.0764 0
M  V30 198 H 23.1124 4.40628 0.360436 0
M  V30 199 N 22.1715 0.800033 1.35784 0
M  V30 200 C 23.1345 0.211565 2.28221 0
M  V30 201 C 24.1345 -0.59728 1.49296 0
M  V30 202 O 25.3245 -0.416721 1.69142 0
M  V30 203 C 22.4565 -0.705846 3.33513 0
M  V30 204 H 23.6495 1.02677 2.81776 0
M  V30 205 H 21.2025 0.570211 1.45528 0
M  V30 206 H 21.9375 -1.54498 2.85133 0
M  V30 207 H 21.7225 -0.127655 3.91892 0
M  V30 208 H 23.2125 -1.11211 4.02519 0
M  V30 209 N 23.6496 -1.47581 0.552962 0
M  V30 210 C 24.8956 -2.02782 0.0273648 0
M  V30 211 C 25.2286 -1.42687 -1.31734 0
M  V30 212 O 24.5036 -0.580897 -1.85623 0
M  V30 213 C 24.7866 -3.60031 -0.0702371 0
M  V30 214 C 24.6396 -4.30566 1.30126 0
M  V30 215 C 25.9586 -4.33028 -0.785771 0
M  V30 216 H 23.0776 -0.736912 0.0114185 0
M  V30 217 H 25.7196 -1.76056 0.714432 0
M  V30 218 H 23.8696 -3.82932 -0.655382 0
M  V30 219 H 25.5416 -4.19018 1.92929 0
M  V30 220 H 23.7846 -3.91086 1.87709 0
M  V30 221 H 24.4556 -5.39114 1.18573 0
M  V30 222 H 26.9316 -4.15095 -0.288982 0
M  V30 223 H 25.8076 -5.42695 -0.823013 0
M  V30 224 H 26.0686 -4.01945 -1.841 0
M  V30 225 N 25.1277 -0.289203 -1.54924 0
M  V30 226 C 26.0377 0.601863 -2.26748 0
M  V30 227 C 27.0537 1.15834 -1.2984 0
M  V30 228 O 28.2297 1.18564 -1.62802 0
M  V30 229 C 25.2947 1.76299 -2.98529 0
M  V30 230 C 24.3557 1.24178 -4.10948 0
M  V30 231 C 23.5887 2.34757 -4.79296 0
M  V30 232 O 23.8117 3.54411 -4.46933 0
M  V30 233 O 22.7457 2.02115 -5.66951 0
M  V30 234 H 26.5717 0.0195879 -3.03694 0
M  V30 235 H 24.1567 -0.0560868 -1.49295 0
M  V30 236 H 26.0387 2.43973 -3.43592 0
M  V30 237 H 24.7137 2.33209 -2.24488 0
M  V30 238 H 23.6207 0.531104 -3.70311 0
M  V30 239 H 24.9537 0.718252 -4.86931 0
M  V30 240 N 26.6058 1.57591 -0.0167156 0
M  V30 241 C 27.5688 2.08393 0.954204 0
M  V30 242 C 28.5688 0.996531 1.26198 0
M  V30 243 O 29.7588 1.25858 1.20438 0
M  V30 244 C 26.8908 2.5394 2.27436 0
M  V30 245 H 28.0838 2.95455 0.514451 0
M  V30 246 H 25.6368 1.54582 0.231089 0
M  V30 247 H 26.3718 1.70171 2.76066 0
M  V30 248 H 26.1568 3.33371 2.06412 0
M  V30 249 H 27.6468 2.93512 2.97053 0
M  V30 250 N 28.0839 -0.256276 1.55502 0
M  V30 251 C 29.0139 -1.32102 1.92539 0
M  V30 252 C 29.9949 -1.50684 0.789194 0
M  V30 253 O 31.1799 -1.63449 1.04872 0
M  V30 254 C 28.3099 -2.67752 2.21192 0
M  V30 255 C 27.2639 -2.63878 3.36975 0
M  V30 256 C 26.5899 -4.03236 3.51147 0
M  V30 257 C 27.8899 -2.21682 4.72921 0
M  V30 258 H 29.5839 -1.01351 2.81724 0
M  V30 259 H 27.1299 -0.486105 1.35547 0
M  V30 260 H 29.0829 -3.42365 2.45691 0
M  V30 261 H 27.8069 -3.0012 1.28824 0
M  V30 262 H 26.4659 -1.91722 3.12471 0
M  V30 263 H 26.1139 -4.32854 2.56216 0
M  V30 264 H 25.8139 -4.01535 4.29003 0
M  V30 265 H 27.3379 -4.79563 3.77957 0
M  V30 266 H 28.7519 -2.86023 4.96854 0
M  V30 267 H 27.1489 -2.3111 5.53812 0
M  V30 268 H 28.2189 -1.16833 4.70615 0
M  V30 269 N 29.562 -1.4872 -0.521534 0
M  V30 270 C 30.492 -1.66771 -1.63431 0
M  V30 271 C 31.473 -0.516499 -1.62069 0
M  V30 272 O 32.658 -0.750013 -1.79132 0
M  V30 273 C 29.788 -1.71515 -3.01993 0
M  V30 274 C 28.742 -2.86222 -3.18216 0
M  V30 275 C 28.068 -2.76061 -4.57924 0
M  V30 276 C 29.368 -4.27419 -3.00184 0
M  V30 277 H 31.062 -2.59932 -1.48579 0
M  V30 278 H 28.608 -1.25089 -0.713358 0
M  V30 279 H 30.561 -1.82731 -3.7972 0
M  V30 280 H 29.285 -0.749393 -3.17886 0
M  V30 281 H 27.944 -2.74575 -2.42908 0
M  V30 282 H 27.592 -1.77437 -4.70665 0
M  V30 283 H 27.292 -3.53037 -4.69722 0
M  V30 284 H 28.816 -2.89256 -5.37739 0
M  V30 285 H 30.23 -4.39855 -3.67697 0
M  V30 286 H 28.627 -5.05458 -3.2347 0
M  V30 287 H 29.697 -4.43293 -1.96518 0
M  V30 288 N 31.0401 0.771051 -1.3745 0
M  V30 289 C 32.4561 1.07171 -1.18265 0
M  V30 290 C 32.6561 2.01491 -0.019287 0
M  V30 291 O 31.7121 2.44244 0.640408 0
M  V30 292 C 33.0251 1.66854 -2.50161 0
M  V30 293 C 34.5731 1.79109 -2.56689 0
M  V30 294 C 35.0481 2.42205 -3.88717 0
M  V30 295 N 36.5391 2.49655 -3.90162 0
M  V30 296 C 37.2741 2.9933 -4.8907 0
M  V30 297 N 36.7701 3.49172 -5.98374 0
M  V30 298 N 38.5631 2.9821 -4.76474 0
M  V30 299 H 30.7141 0.144796 -2.11906 0
M  V30 300 H 32.9771 0.126863 -0.939473 0
M  V30 301 H 32.6831 1.05017 -3.35655 0
M  V30 302 H 32.5571 2.6614 -2.673 0
M  V30 303 H 34.9441 2.40077 -1.71601 0
M  V30 304 H 35.0251 0.785757 -2.43433 0
M  V30 305 H 34.6691 1.81875 -4.74219 0
M  V30 306 H 34.5991 3.43345 -3.99276 0
M  V30 307 H 37.0901 2.14383 -3.11205 0
M  V30 308 H 37.4031 3.8548 -6.69795 0
M  V30 309 H 35.7481 3.47275 -6.02018 0
M  V30 310 H 38.9391 2.58572 -3.90203 0
M  V30 311 H 39.1121 3.36613 -5.53711 0
M  V30 312 N 32.5182 1.22032 0.997298 0
M  V30 313 C 33.4812 0.987909 2.06816 0
M  V30 314 C 34.4812 -0.0440084 1.6074 0
M  V30 315 O 35.6712 0.194053 1.73116 0
M  V30 316 C 32.8032 0.49132 3.37341 0
M  V30 317 H 33.9962 1.93803 2.28868 0
M  V30 318 H 31.5492 1.03838 1.16822 0
M  V30 319 H 32.2842 -0.463364 3.20973 0
M  V30 320 H 32.0692 1.23575 3.72118 0
M  V30 321 H 33.5592 0.348824 4.16141 0
M  V30 322 N 33.9963 -1.19345 1.0293 0
M  V30 323 C 35.2423 -1.89318 0.727083 0
M  V30 324 C 35.5753 -1.79446 -0.742483 0
M  V30 325 O 34.8503 -1.1871 -1.54072 0
M  V30 326 C 35.1333 -3.40238 1.17942 0
M  V30 327 C 34.9863 -3.58979 2.71024 0
M  V30 328 C 36.3053 -4.33479 0.760548 0
M  V30 329 H 33.4243 -0.687475 0.265606 0
M  V30 330 H 36.0663 -1.40477 1.2793 0
M  V30 331 H 34.2163 -3.81964 0.709608 0
M  V30 332 H 35.8883 -3.26421 3.25955 0
M  V30 333 H 34.1313 -3.02018 3.11396 0
M  V30 334 H 34.8023 -4.64823 2.9773 0
M  V30 335 H 37.2783 -3.99469 1.16464 0
M  V30 336 H 36.1543 -5.37664 1.10493 0
M  V30 337 H 36.4153 -4.40813 -0.337063 0
M  V30 338 N 35.4744 -0.807222 -1.35358 0
M  V30 339 C 36.7214 -0.387888 -1.9875 0
M  V30 340 C 37.0494 1.04509 -1.64037 0
M  V30 341 O 36.3044 1.73986 -0.895946 0
M  V30 342 C 36.6034 -0.519036 -3.53611 0
M  V30 343 C 36.2694 -1.91542 -4.08194 0
M  V30 344 C 34.9314 -2.29745 -4.22813 0
M  V30 345 C 37.2834 -2.82896 -4.37744 0
M  V30 346 C 34.6114 -3.58668 -4.643 0
M  V30 347 C 36.9634 -4.11265 -4.8067 0
M  V30 348 C 35.6274 -4.49466 -4.93494 0
M  V30 349 H 34.8974 -0.141938 -0.727279 0
M  V30 350 H 37.5444 -1.02814 -1.6156 0
M  V30 351 H 35.8494 0.204658 -3.91265 0
M  V30 352 H 37.5464 -0.175345 -4.00616 0
M  V30 353 H 34.1364 -1.60862 -3.97268 0
M  V30 354 H 38.3204 -2.54629 -4.26002 0
M  V30 355 H 33.5764 -3.88113 -4.72418 0
M  V30 356 H 37.7504 -4.82153 -5.02496 0
M  V30 357 H 35.3774 -5.49418 -5.25399 0
M  V30 358 N 36.9525 1.47285 -0.560781 0
M  V30 359 C 38.2005 2.02064 -0.0379868 0
M  V30 360 C 38.5215 1.43711 1.31803 0
M  V30 361 O 37.7915 0.61362 1.86042 0
M  V30 362 H 36.3715 0.746918 -0.0110531 0
M  V30 363 H 39.0335 1.80648 -0.731598 0
M  V30 364 H 38.1295 3.12064 0.0474463 0
M  V30 365 N 38.4306 0.297415 1.54768 0
M  V30 366 C 39.6766 -0.313376 2.00364 0
M  V30 367 C 40.0096 -1.53815 1.18553 0
M  V30 368 O 39.2846 -1.92739 0.261103 0
M  V30 369 C 39.5676 -0.673525 3.53745 0
M  V30 370 C 39.4206 0.560133 4.46299 0
M  V30 371 C 40.7396 -1.50143 4.13697 0
M  V30 372 H 37.8586 -0.112428 0.728374 0
M  V30 373 H 40.5006 0.4088 1.8555 0
M  V30 374 H 38.6506 -1.28881 3.665 0
M  V30 375 H 40.3226 1.19863 4.45455 0
M  V30 376 H 38.5656 1.19405 4.17043 0
M  V30 377 H 39.2366 0.26405 5.51368 0
M  V30 378 H 41.7126 -0.981588 4.04356 0
M  V30 379 H 40.5886 -1.72221 5.21182 0
M  V30 380 H 40.8496 -2.48952 3.65343 0
M  V30 381 N 39.9087 -1.5758 0.0250728 0
M  V30 382 C 41.1547 -1.91917 -0.655413 0
M  V30 383 C 41.4877 -0.901433 -1.72011 0
M  V30 384 O 40.7627 0.0764069 -1.9435 0
M  V30 385 C 41.0457 -3.36751 -1.27558 0
M  V30 386 C 40.8987 -4.49258 -0.220719 0
M  V30 387 C 42.2177 -3.81469 -2.19475 0
M  V30 388 H 39.3367 -0.697925 -0.23679 0
M  V30 389 H 41.9787 -1.89825 0.0815036 0
M  V30 390 H 40.1287 -3.38664 -1.90365 0
M  V30 391 H 41.8007 -4.59478 0.409601 0
M  V30 392 H 40.0437 -4.31415 0.454264 0
M  V30 393 H 40.7147 -5.47618 -0.694175 0
M  V30 394 H 43.1907 -3.81266 -1.66659 0
M  V30 395 H 42.0667 -4.83512 -2.59822 0
M  V30 396 H 42.3277 -3.16744 -3.08424 0
M  V30 397 N 41.3868 0.248026 -1.55636 0
M  V30 398 C 42.6328 0.97767 -1.77678 0
M  V30 399 C 42.9658 1.85016 -0.590135 0
M  V30 400 O 42.2408 1.90095 0.411611 0
M  V30 401 C 42.5238 1.83914 -3.09593 0
M  V30 402 C 42.3768 0.99491 -4.38659 0
M  V30 403 C 43.6958 2.82183 -3.37729 0
M  V30 404 H 40.8148 0.354005 -0.646413 0
M  V30 405 H 43.4568 0.248253 -1.88371 0
M  V30 406 H 41.6068 2.46104 -3.00608 0
M  V30 407 H 43.2788 0.391789 -4.59633 0
M  V30 408 H 41.5218 0.299231 -4.32767 0
M  V30 409 H 42.1928 1.63145 -5.2734 0
M  V30 410 H 44.6688 2.30129 -3.4667 0
M  V30 411 H 43.5448 3.39582 -4.31249 0
M  V30 412 H 43.8058 3.58588 -2.58586 0
M  V30 413 N 42.8649 1.48995 0.513639 0
M  V30 414 C 44.1419 1.48338 1.27495 0
M  V30 415 C 44.5219 0.204065 2.10111 0
M  V30 416 O 43.8699 -0.813881 2.13514 0
M  V30 417 C 44.0799 2.75498 2.14247 0
M  V30 418 C 45.4279 3.24484 2.73852 0
M  V30 419 O 46.4519 2.76528 2.24523 0
M  V30 420 O 45.3109 4.07974 3.6362 0
M  V30 421 H 42.4049 0.593149 0.576284 0
M  V30 422 H 44.9509 1.61246 0.528948 0
M  V30 423 H 43.7229 3.60109 1.53092 0
M  V30 424 H 43.3459 2.6539 2.96064 0
M  V30 425 N 44.343 -0.763751 1.37857 0
M  V30 426 C 45.253 -1.90817 1.36478 0
M  V30 427 C 46.269 -1.71997 0.263248 0
M  V30 428 O 47.445 -1.95095 0.499979 0
M  V30 429 C 44.51 -3.2605 1.17864 0
M  V30 430 C 43.571 -3.57467 2.3773 0
M  V30 431 C 42.804 -4.86249 2.19995 0
M  V30 432 O 43.027 -5.57884 1.18836 0
M  V30 433 O 41.961 -5.16911 3.08361 0
M  V30 434 H 45.787 -1.94933 2.32884 0
M  V30 435 H 43.372 -0.907619 1.1867 0
M  V30 436 H 45.254 -4.06924 1.09504 0
M  V30 437 H 43.929 -3.22769 0.245372 0
M  V30 438 H 42.836 -2.76796 2.51664 0
M  V30 439 H 44.169 -3.655 3.29652 0
M  V30 440 N 45.8211 -1.22559 -0.990812 0
M  V30 441 C 46.7841 -0.998863 -2.0629 0
M  V30 442 C 47.7841 0.0354834 -1.60761 0
M  V30 443 O 48.9741 -0.203231 -1.7301 0
M  V30 444 C 46.1061 -0.509203 -3.37076 0
M  V30 445 H 47.2991 -1.95014 -2.27837 0
M  V30 446 H 44.8521 -1.04456 -1.16269 0
M  V30 447 H 45.5871 0.446335 -3.21214 0
M  V30 448 H 45.3721 -1.25547 -3.71457 0
M  V30 449 H 46.8621 -0.370888 -4.1595 0
M  V30 450 N 47.2992 1.18797 -1.03562 0
M  V30 451 C 48.5482 1.87978 -0.731235 0
M  V30 452 C 48.8612 1.80911 0.743671 0
M  V30 453 O 50.0672 2.45407 1.16137 0
M  V30 454 C 48.5232 3.3721 -1.25768 0
M  V30 455 C 48.1312 3.52818 -2.76085 0
M  V30 456 C 49.8752 4.11825 -1.0296 0
M  V30 457 C 47.7822 4.9598 -3.22114 0
M  V30 458 H 46.7122 0.704063 -0.269835 0
M  V30 459 H 49.3632 1.34266 -1.25079 0
M  V30 460 H 47.7452 3.90359 -0.666011 0
M  V30 461 H 48.9192 3.09965 -3.40966 0
M  V30 462 H 47.2342 2.91602 -2.97249 0
M  V30 463 H 49.8312 5.17411 -1.34869 0
M  V30 464 H 50.1742 4.16287 0.0333546 0
M  V30 465 H 50.7072 3.64833 -1.58562 0
M  V30 466 H 47.4462 4.96684 -4.27768 0
M  V30 467 H 46.9662 5.39569 -2.61965 0
M  V30 468 H 48.6452 5.6467 -3.15844 0
M  V30 469 N 48.7773 0.814389 1.34928 0
M  V30 470 C 49.7093 0.187834 2.28429 0
M  V30 471 C 50.7223 -0.617374 1.5064 0
M  V30 472 O 51.9113 -0.448454 1.72775 0
M  V30 473 C 49.0113 -0.755962 3.30361 0
M  V30 474 C 48.1843 0.00456686 4.374 0
M  V30 475 C 47.2433 -0.858876 5.19143 0
M  V30 476 O 46.2693 -0.306968 5.68372 0
M  V30 477 N 47.4713 -2.17988 5.38016 0
M  V30 478 H 50.2363 0.991105 2.82838 0
M  V30 479 H 47.7973 0.670561 1.4736 0
M  V30 480 H 49.7893 -1.338 3.81942 0
M  V30 481 H 48.3593 -1.46001 2.7641 0
M  V30 482 H 47.5793 0.767865 3.86649 0
M  V30 483 H 48.8673 0.528422 5.06049 0
M  V30 484 H 48.2653 -2.65212 4.99679 0
M  V30 485 H 46.8223 -2.71098 5.92747 0
M  V30 486 N 50.2554 -1.46986 0.568584 0
M  V30 487 C 51.2024 -2.30153 -0.172707 0
M  V30 488 C 52.1724 -1.39759 -0.897586 0
M  V30 489 O 53.3574 -1.68716 -0.891044 0
M  V30 490 C 50.4974 -3.23952 -1.1895 0
M  V30 491 C 49.6104 -4.29441 -0.469517 0
M  V30 492 C 48.7454 -5.1038 -1.47259 0
M  V30 493 C 47.7844 -6.07632 -0.738225 0
M  V30 494 N 46.9214 -6.8149 -1.68868 0
M  V30 495 H 51.7614 -2.93019 0.542596 0
M  V30 496 H 49.2984 -1.44422 0.279401 0
M  V30 497 H 51.2564 -3.76767 -1.79173 0
M  V30 498 H 49.8864 -2.62926 -1.87269 0
M  V30 499 H 48.9384 -3.79594 0.247467 0
M  V30 500 H 50.2504 -4.98689 0.105241 0
M  V30 501 H 49.4044 -5.67402 -2.14803 0
M  V30 502 H 48.1434 -4.4106 -2.08128 0
M  V30 503 H 47.1484 -5.49778 -0.0489293 0
M  V30 504 H 48.3734 -6.78966 -0.135129 0
M  V30 505 H 46.3194 -6.14891 -2.28573 0
M  V30 506 H 46.2364 -7.46948 -1.16636 0
M  V30 507 H 47.5044 -7.43078 -2.3549 0
M  V30 508 N 51.7335 -0.305618 -1.54608 0
M  V30 509 C 52.9815 0.301701 -1.99835 0
M  V30 510 C 53.3025 1.54054 -1.19551 0
M  V30 511 O 52.5725 1.93702 -0.292658 0
M  V30 512 H 51.1525 0.114468 -0.738178 0
M  V30 513 H 53.8145 -0.418016 -1.90364 0
M  V30 514 H 52.9105 0.570548 -3.06841 0
M  V30 515 N 53.2116 1.57565 -0.0334293 0
M  V30 516 C 54.4396 1.9628 0.654347 0
M  V30 517 C 54.8546 0.910138 1.65414 0
M  V30 518 O 54.2116 -0.107595 1.82183 0
M  V30 519 C 54.2626 3.35067 1.35693 0
M  V30 520 O 53.9836 4.36296 0.397191 0
M  V30 521 C 55.4846 3.88439 2.13613 0
M  V30 522 H 52.7046 0.646369 0.180132 0
M  V30 523 H 55.2486 2.04282 -0.0944721 0
M  V30 524 H 53.4036 3.2827 2.05712 0
M  V30 525 H 53.8176 5.1678 0.896597 0
M  V30 526 H 55.2916 4.8788 2.58219 0
M  V30 527 H 55.7686 3.22914 2.97696 0
M  V30 528 H 56.3746 3.98516 1.48543 0
M  V30 529 N 54.6897 -0.239769 1.55765 0
M  V30 530 C 55.9147 -0.988373 1.82335 0
M  V30 531 C 56.3397 -1.77886 0.611421 0
M  V30 532 O 55.6977 -1.75889 -0.439639 0
M  V30 533 C 55.7457 -1.89627 3.06715 0
M  V30 534 O 54.8497 -2.98904 2.84131 0
M  V30 535 H 54.1907 -0.280858 0.601677 0
M  V30 536 H 56.7207 -0.258597 2.02959 0
M  V30 537 H 56.7307 -2.30957 3.36338 0
M  V30 538 H 55.4057 -1.31511 3.9456 0
M  V30 539 H 53.9827 -2.61651 2.65694 0
M  V30 540 N 56.1678 -1.49265 -0.50573 0
M  V30 541 C 57.4138 -1.58748 -1.26202 0
M  V30 542 C 57.7468 -0.271227 -1.92297 0
M  V30 543 O 57.0218 0.724831 -1.80489 0
M  V30 544 C 57.3048 -2.74332 -2.33268 0
M  V30 545 C 57.1578 -4.15737 -1.71705 0
M  V30 546 C 58.4768 -2.85576 -3.34865 0
M  V30 547 H 55.5958 -0.577826 -0.457478 0
M  V30 548 H 58.2378 -1.81532 -0.560897 0
M  V30 549 H 56.3878 -2.55036 -2.93068 0
M  V30 550 H 58.0598 -4.46537 -1.15769 0
M  V30 551 H 56.3028 -4.21605 -1.02135 0
M  V30 552 H 56.9738 -4.92477 -2.49341 0
M  V30 553 H 59.4498 -3.03127 -2.8505 0
M  V30 554 H 58.3258 -3.68135 -4.07146 0
M  V30 555 H 58.5868 -1.94732 -3.96903 0
M  V30 556 N 57.6459 0.756429 -1.3826 0
M  V30 557 C 58.8709 1.55077 -1.37717 0
M  V30 558 C 59.2959 1.88073 0.03164 0
M  V30 559 O 58.6539 1.50364 1.01293 0
M  V30 560 C 58.7019 2.8283 -2.23695 0
M  V30 561 O 57.8059 3.77862 -1.6521 0
M  V30 562 H 57.1469 0.469152 -0.469885 0
M  V30 563 H 59.6769 0.935019 -1.81985 0
M  V30 564 H 59.6869 3.31783 -2.37453 0
M  V30 565 H 58.3619 2.58144 -3.2609 0
M  V30 566 H 56.9389 3.36555 -1.60578 0
M  V30 567 N 59.124 1.23083 0.984299 0
M  V30 568 C 60.056 0.96636 2.07832 0
M  V30 569 C 61.069 -0.0582135 1.62696 0
M  V30 570 O 62.258 0.176843 1.77622 0
M  V30 571 C 59.358 0.433397 3.36117 0
M  V30 572 C 58.531 1.51722 4.10243 0
M  V30 573 C 57.59 0.989821 5.16807 0
M  V30 574 O 56.616 1.67794 5.43906 0
M  V30 575 N 57.818 -0.184367 5.80207 0
M  V30 576 H 60.583 1.90824 2.31098 0
M  V30 577 H 58.144 1.13888 1.1507 0
M  V30 578 H 60.136 0.065699 4.04647 0
M  V30 579 H 58.706 -0.413806 3.09849 0
M  V30 580 H 57.926 2.05786 3.36223 0
M  V30 581 H 59.214 2.24619 4.56534 0
M  V30 582 H 58.612 -0.760062 5.60571 0
M  V30 583 H 57.169 -0.493366 6.4993 0
M  V30 584 N 60.6021 -1.18246 1.0419 0
M  V30 585 C 61.5491 -2.2192 0.634037 0
M  V30 586 C 62.5191 -1.62179 -0.358765 0
M  V30 587 O 63.7041 -1.89122 -0.252466 0
M  V30 588 C 60.8441 -3.451 0.00445535 0
M  V30 589 C 59.9571 -4.19174 1.04487 0
M  V30 590 C 59.0921 -5.29813 0.383676 0
M  V30 591 C 58.1311 -5.9566 1.4091 0
M  V30 592 N 57.2681 -6.97834 0.772784 0
M  V30 593 H 62.1081 -2.56164 1.52263 0
M  V30 594 H 59.6451 -1.25843 0.761701 0
M  V30 595 H 61.6031 -4.15485 -0.377919 0
M  V30 596 H 60.2331 -3.11472 -0.847652 0
M  V30 597 H 59.2851 -3.47604 1.54518 0
M  V30 598 H 60.5971 -4.64267 1.82368 0
M  V30 599 H 59.7511 -6.06677 -0.0528366 0
M  V30 600 H 58.4901 -4.85825 -0.427208 0
M  V30 601 H 57.4951 -5.17535 1.85574 0
M  V30 602 H 58.7201 -6.4173 2.22171 0
M  V30 603 H 56.6661 -6.55998 -0.0177708 0
M  V30 604 H 56.5831 -7.41186 1.48928 0
M  V30 605 H 57.8511 -7.78665 0.36071 0
M  V30 606 N 62.0802 -0.821533 -1.34494 0
M  V30 607 C 63.3262 -0.409552 -1.98622 0
M  V30 608 C 63.6592 1.0244 -1.64984 0
M  V30 609 O 62.9342 1.71325 -0.920758 0
M  V30 610 C 63.2172 -0.610458 -3.54888 0
M  V30 611 C 63.0702 -2.09043 -3.98273 0
M  V30 612 C 64.3892 -0.0455379 -4.40076 0
M  V30 613 H 61.5082 -0.15028 -0.721516 0
M  V30 614 H 64.1502 -1.03384 -1.59411 0
M  V30 615 H 62.3002 -0.079044 -3.8842 0
M  V30 616 H 63.9722 -2.68537 -3.75081 0
M  V30 617 H 62.2152 -2.58139 -3.48635 0
M  V30 618 H 62.8862 -2.18182 -5.07051 0
M  V30 619 H 65.3622 -0.499557 -4.1309 0
M  V30 620 H 64.2382 -0.215922 -5.48475 0
M  V30 621 H 64.4992 1.04939 -4.29465 0
M  V30 622 N 63.5583 1.46682 -0.576371 0
M  V30 623 C 64.7983 2.04306 -0.0621356 0
M  V30 624 C 65.1623 1.4389 1.2712 0
M  V30 625 O 66.3633 1.92675 1.87429 0
M  V30 626 C 64.6343 3.57399 0.00927922 0
M  V30 627 S 66.1933 4.36309 0.466859 0
M  V30 628 H 63.0113 0.710167 -0.0344016 0
M  V30 629 H 65.6133 1.79807 -0.767437 0
M  V30 630 H 64.3173 3.98889 -0.965178 0
M  V30 631 H 63.8483 3.86424 0.737547 0
M  V30 632 H 65.8633 4.6533 1.72287 0
M  V30 633 N 65.0364 0.313813 1.54444 0
M  V30 634 C 65.9464 -0.565714 2.27677 0
M  V30 635 C 66.9624 -1.13754 1.31666 0
M  V30 636 O 68.1384 -1.15959 1.64668 0
M  V30 637 C 65.2034 -1.71528 3.01296 0
M  V30 638 C 64.2644 -1.17624 4.12872 0
M  V30 639 C 63.4974 -2.27102 4.8297 0
M  V30 640 O 63.7204 -3.47256 4.52514 0
M  V30 641 O 62.6544 -1.9307 5.70094 0
M  V30 642 H 66.4804 0.0287296 3.03686 0
M  V30 643 H 64.0654 0.0798312 1.49187 0
M  V30 644 H 65.9474 -2.38476 3.4743 0
M  V30 645 H 64.6224 -2.29608 2.2817 0
M  V30 646 H 63.5294 -0.472124 3.71109 0
M  V30 647 H 64.8624 -0.640695 4.88012 0
M  V30 648 N 66.5145 -1.57545 0.0417849 0
M  V30 649 C 67.7605 -1.93424 -0.629168 0
M  V30 650 C 68.1155 -0.919564 -1.69002 0
M  V30 651 O 67.4085 0.0626178 -1.91498 0
M  V30 652 C 67.6025 -3.33794 -1.27735 0
M  V30 653 C 67.4315 -4.48822 -0.280806 0
M  V30 654 C 66.2015 -5.05148 0.123869 0
M  V30 655 C 68.3995 -5.12148 0.470012 0
M  V30 656 N 66.3815 -6.03703 1.11426 0
M  V30 657 C 67.7525 -6.05921 1.31377 0
M  V30 658 C 69.8075 -4.95078 0.529343 0
M  V30 659 C 68.5105 -6.84459 2.21152 0
M  V30 660 C 70.5365 -5.74235 1.41448 0
M  V30 661 C 69.8985 -6.67634 2.24598 0
M  V30 662 H 65.9975 -0.755418 -0.202158 0
M  V30 663 H 68.5815 -1.94378 0.111923 0
M  V30 664 H 66.7525 -3.33635 -1.98852 0
M  V30 665 H 68.4845 -3.56988 -1.90635 0
M  V30 666 H 65.2395 -4.72923 -0.253178 0
M  V30 667 H 65.6635 -6.57674 1.60607 0
M  V30 668 H 70.3055 -4.22683 -0.0992798 0
M  V30 669 H 68.0235 -7.56151 2.85063 0
M  V30 670 H 71.6095 -5.63057 1.46484 0
M  V30 671 H 70.4895 -7.27817 2.9198 0
M  V30 672 N 67.9926 0.231505 -1.5589 0
M  V30 673 C 68.9396 1.28682 -1.91598 0
M  V30 674 C 69.9096 1.47071 -0.771974 0
M  V30 675 O 71.0946 1.60802 -1.027 0
M  V30 676 C 68.2346 2.6342 -2.22944 0
M  V30 677 C 67.3476 2.52912 -3.50228 0
M  V30 678 C 66.4826 3.80106 -3.7107 0
M  V30 679 C 65.5216 3.64279 -4.91902 0
M  V30 680 N 64.6586 4.834 -5.09184 0
M  V30 681 H 69.4986 0.975305 -2.81588 0
M  V30 682 H 67.0356 0.470299 -1.39379 0
M  V30 683 H 68.9936 3.41869 -2.39126 0
M  V30 684 H 67.6236 2.92687 -1.36139 0
M  V30 685 H 66.6756 1.6595 -3.42294 0
M  V30 686 H 67.9876 2.37133 -4.38827 0
M  V30 687 H 67.1416 4.66999 -3.87295 0
M  V30 688 H 65.8806 3.98799 -2.80733 0
M  V30 689 H 64.8856 2.7577 -4.75637 0
M  V30 690 H 66.1106 3.47067 -5.83714 0
M  V30 691 H 64.0566 5.02425 -4.21788 0
M  V30 692 H 63.9736 4.70311 -5.91898 0
M  V30 693 H 65.2416 5.71747 -5.29835 0
M  V30 694 N 69.4707 1.49531 0.497807 0
M  V30 695 C 70.3807 1.69176 1.62532 0
M  V30 696 C 71.3967 0.5744 1.64246 0
M  V30 697 O 72.5727 0.849497 1.82608 0
M  V30 698 C 69.6377 1.75695 2.98885 0
M  V30 699 C 68.6987 2.9929 3.07773 0
M  V30 700 C 67.9317 3.05488 4.37622 0
M  V30 701 O 68.1547 2.19192 5.26603 0
M  V30 702 O 67.0887 3.9798 4.51548 0
M  V30 703 H 70.9147 2.647 1.48887 0
M  V30 704 H 68.4997 1.3331 0.674441 0
M  V30 705 H 70.3817 1.82317 3.79919 0
M  V30 706 H 69.0567 0.8335 3.12785 0
M  V30 707 H 67.9637 2.98183 2.25915 0
M  V30 708 H 69.2967 3.91125 2.98801 0
M  V30 709 N 70.9488 -0.749086 1.3866 0
M  V30 710 C 72.3598 -1.32664 1.31366 0
M  V30 711 C 72.7108 -1.96179 -0.028484 0
M  V30 712 O 71.8358 -1.9537 -0.93057 0
M  V30 713 C 72.4308 -2.41219 2.37905 0
M  V30 714 C 70.9898 -2.94684 2.34176 0
M  V30 715 C 70.1368 -1.68108 2.20533 0
M  V30 716 H 73.0878 -0.547628 1.48952 0
M  V30 717 H 73.1088 -3.21268 2.0388 0
M  V30 718 H 72.6208 -1.94962 3.35576 0
M  V30 719 H 70.7218 -3.45258 1.401 0
M  V30 720 H 70.8348 -3.48757 3.2849 0
M  V30 721 H 69.1988 -1.91907 1.67463 0
M  V30 722 H 69.9818 -1.23923 3.20153 0
M  V30 723 N 72.4269 -1.23603 -0.977757 0
M  V30 724 C 73.3369 -1.03632 -2.1047 0
M  V30 725 C 74.3529 0.0199435 -1.73989 0
M  V30 726 O 75.5289 -0.176076 -2.00629 0
M  V30 727 C 72.5939 -0.63276 -3.40877 0
M  V30 728 C 71.6549 -1.76437 -3.91367 0
M  V30 729 C 70.8879 -1.37997 -5.15551 0
M  V30 730 O 71.1109 -0.265357 -5.69782 0
M  V30 731 O 70.0449 -2.20201 -5.60174 0
M  V30 732 H 73.8709 -1.98086 -2.30208 0
M  V30 733 H 71.4559 -1.02332 -1.08851 0
M  V30 734 H 73.3379 -0.418761 -4.19314 0
M  V30 735 H 72.0129 0.282754 -3.22463 0
M  V30 736 H 70.9199 -2.03304 -3.14036 0
M  V30 737 H 72.2529 -2.6583 -4.14241 0
M  V30 738 N 73.905 1.17692 -1.04816 0
M  V30 739 C 74.815 2.25229 -0.65643 0
M  V30 740 C 75.831 1.71018 0.320761 0
M  V30 741 O 77.007 2.00649 0.173805 0
M  V30 742 C 74.072 3.46684 -0.0332629 0
M  V30 743 C 73.133 4.15997 -1.06042 0
M  V30 744 C 72.366 5.31654 -0.466893 0
M  V30 745 O 72.589 5.65777 0.724758 0
M  V30 746 O 71.523 5.89831 -1.1993 0
M  V30 747 H 75.349 2.61016 -1.55255 0
M  V30 748 H 72.934 1.24919 -0.81949 0
M  V30 749 H 74.816 4.20234 0.313256 0
M  V30 750 H 73.491 3.12703 0.836566 0
M  V30 751 H 72.398 3.44482 -1.45886 0
M  V30 752 H 73.731 4.53996 -1.90127 0
M  V30 753 N 75.3831 0.828654 1.34056 0
M  V30 754 C 76.3131 0.269443 2.3194 0
M  V30 755 C 77.2941 -0.617247 1.58506 0
M  V30 756 O 78.4791 -0.542931 1.86456 0
M  V30 757 C 75.6091 -0.564793 3.42677 0
M  V30 758 C 74.5631 0.225241 4.27407 0
M  V30 759 C 73.8891 -0.7321 5.29664 0
M  V30 760 C 75.1891 1.43663 5.02154 0
M  V30 761 H 76.8831 1.08728 2.7896 0
M  V30 762 H 74.4291 0.524283 1.34117 0
M  V30 763 H 76.3821 -0.966233 4.10173 0
M  V30 764 H 75.1061 -1.41574 2.9432 0
M  V30 765 H 73.7651 0.608117 3.61521 0
M  V30 766 H 73.4131 -1.57916 4.77568 0
M  V30 767 H 73.1131 -0.20767 5.87233 0
M  V30 768 H 74.6371 -1.13128 6.00029 0
M  V30 769 H 76.0511 1.1089 5.62473 0
M  V30 770 H 74.4481 1.89711 5.69324 0
M  V30 771 H 75.5181 2.21181 4.31517 0
M  V30 772 N 76.8612 -1.46375 0.584142 0
M  V30 773 C 77.8082 -2.30323 -0.148286 0
M  V30 774 C 78.7782 -1.40703 -0.882713 0
M  V30 775 O 79.9632 -1.69651 -0.873099 0
M  V30 776 C 77.1032 -3.25196 -1.15507 0
M  V30 777 C 76.2162 -4.29915 -0.423943 0
M  V30 778 C 75.3512 -5.11914 -1.41838 0
M  V30 779 C 74.3902 -6.08381 -0.673736 0
M  V30 780 N 73.5272 -6.83242 -1.6163 0
M  V30 781 H 78.3672 -2.92427 0.573644 0
M  V30 782 H 75.9042 -1.44118 0.294703 0
M  V30 783 H 77.8622 -3.78646 -1.75166 0
M  V30 784 H 76.4922 -2.64898 -1.8447 0
M  V30 785 H 75.5442 -3.7931 0.287714 0
M  V30 786 H 76.8562 -4.98549 0.158128 0
M  V30 787 H 76.0102 -5.69648 -2.08773 0
M  V30 788 H 74.7492 -4.43243 -2.03438 0
M  V30 789 H 73.7542 -5.49799 0.00938483 0
M  V30 790 H 74.9792 -6.79071 -0.0631082 0
M  V30 791 H 72.9252 -6.1728 -2.22038 0
M  V30 792 H 72.8422 -7.48144 -1.08707 0
M  V30 793 H 74.1102 -7.45534 -2.27596 0
M  V30 794 N 78.3393 -0.321999 -1.54275 0
M  V30 795 C 79.2713 0.578671 -2.21775 0
M  V30 796 C 80.2843 1.08109 -1.21722 0
M  V30 797 O 81.4733 0.994938 -1.482 0
M  V30 798 C 78.5733 1.80661 -2.86731 0
M  V30 799 C 77.7463 1.44314 -4.12907 0
M  V30 800 C 76.8053 2.52845 -4.61472 0
M  V30 801 O 75.8313 2.17054 -5.2619 0
M  V30 802 N 77.0333 3.83748 -4.35566 0
M  V30 803 H 79.7983 0.000709447 -2.997 0
M  V30 804 H 77.3593 -0.145132 -1.61248 0
M  V30 805 H 79.3513 2.52655 -3.16145 0
M  V30 806 H 77.9213 2.29245 -2.12521 0
M  V30 807 H 77.1413 0.554906 -3.90275 0
M  V30 808 H 78.4293 1.17598 -4.95023 0
M  V30 809 H 77.8273 4.15625 -3.83761 0
M  V30 810 H 76.3843 4.51977 -4.69638 0
M  V30 811 N 79.8174 1.5752 -0.0501392 0
M  V30 812 C 80.7474 2.14502 0.922566 0
M  V30 813 C 81.7284 1.06642 1.3252 0
M  V30 814 O 82.9134 1.34577 1.4001 0
M  V30 815 C 80.0434 2.68916 2.19776 0
M  V30 816 C 78.9974 3.8175 1.93523 0
M  V30 817 C 78.3234 4.22677 3.27487 0
M  V30 818 C 79.6234 5.06932 1.25765 0
M  V30 819 H 81.3174 2.9603 0.447952 0
M  V30 820 H 78.8634 1.42401 0.214024 0
M  V30 821 H 80.8164 3.07419 2.88222 0
M  V30 822 H 79.5404 1.84578 2.69441 0
M  V30 823 H 78.1994 3.43718 1.27489 0
M  V30 824 H 77.8474 3.35291 3.74952 0
M  V30 825 H 77.5474 4.98725 3.1072 0
M  V30 826 H 79.0714 4.63779 3.97166 0
M  V30 827 H 80.4854 5.42888 1.84244 0
M  V30 828 H 78.8824 5.88116 1.19328 0
M  V30 829 H 79.9524 4.84337 0.233536 0
M  V30 830 N 81.2955 -0.223234 1.56011 0
M  V30 831 C 82.2255 -1.27988 1.95298 0
M  V30 832 C 83.2065 -1.48976 0.820979 0
M  V30 833 O 84.3915 -1.61188 1.08315 0
M  V30 834 C 81.5215 -2.63 2.26822 0
M  V30 835 C 80.4755 -2.56671 3.42497 0
M  V30 836 C 79.8015 -3.95697 3.59622 0
M  V30 837 C 81.1015 -2.11601 4.77517 0
M  V30 838 H 82.7955 -0.953525 2.8381 0
M  V30 839 H 80.3415 -0.457244 1.36548 0
M  V30 840 H 82.2945 -3.37077 2.52898 0
M  V30 841 H 81.0185 -2.9732 1.35161 0
M  V30 842 H 79.6775 -1.85051 3.16467 0
M  V30 843 H 79.3255 -4.27322 2.6534 0
M  V30 844 H 79.0255 -3.92345 4.37424 0
M  V30 845 H 80.5495 -4.71438 3.88044 0
M  V30 846 H 81.9635 -2.7542 5.02809 0
M  V30 847 H 80.3605 -2.19311 5.5859 0
M  V30 848 H 81.4305 -1.06824 4.72987 0
M  V30 849 N 82.7736 -1.49793 -0.48987 0
M  V30 850 C 84.0506 -1.50348 -1.25119 0
M  V30 851 C 84.4306 -0.237466 -2.0976 0
M  V30 852 O 83.7786 0.77981 -2.14782 0
M  V30 853 C 83.9886 -2.78872 -2.09837 0
M  V30 854 C 85.3366 -3.288 -2.68655 0
M  V30 855 O 86.3606 -2.80065 -2.20096 0
M  V30 856 O 85.2196 -4.13707 -3.57083 0
M  V30 857 H 82.3136 -0.602242 -0.566775 0
M  V30 858 H 84.8596 -1.62067 -0.503229 0
M  V30 859 H 83.6316 -3.62499 -1.47343 0
M  V30 860 H 83.2546 -2.70066 -2.91805 0
M  V30 861 N 84.2517 0.741722 -1.39055 0
M  V30 862 C 85.1817 1.869 -1.39966 0
M  V30 863 C 86.1627 1.6804 -0.26392 0
M  V30 864 O 87.3477 1.88458 -0.468755 0
M  V30 865 C 84.4777 3.24572 -1.23574 0
M  V30 866 C 83.4317 3.58056 -2.34477 0
M  V30 867 C 82.7577 4.94593 -2.0318 0
M  V30 868 C 84.0577 3.61716 -3.76774 0
M  V30 869 H 85.7517 1.86395 -2.34302 0
M  V30 870 H 83.2977 0.895361 -1.1278 0
M  V30 871 H 85.2507 4.031 -1.22834 0
M  V30 872 H 83.9747 3.25587 -0.257045 0
M  V30 873 H 82.6337 2.81854 -2.34423 0
M  V30 874 H 82.2817 4.92181 -1.03765 0
M  V30 875 H 81.9817 5.17964 -2.77465 0
M  V30 876 H 83.5057 5.75486 -2.04079 0
M  V30 877 H 84.9197 4.30335 -3.78794 0
M  V30 878 H 83.3167 3.96603 -4.50362 0
M  V30 879 H 84.3867 2.61672 -4.08235 0
M  V30 880 N 85.7298 1.2412 0.971189 0
M  V30 881 C 86.6398 1.04747 2.09917 0
M  V30 882 C 87.6558 -0.0107162 1.73997 0
M  V30 883 O 88.8318 0.186714 2.00533 0
M  V30 884 C 85.8968 0.650828 3.40537 0
M  V30 885 C 84.9578 1.7851 3.90426 0
M  V30 886 C 84.1908 1.40729 5.14812 0
M  V30 887 O 84.4138 0.29557 5.69634 0
M  V30 888 O 83.3478 2.23168 5.58999 0
M  V30 889 H 87.1738 1.99304 2.29154 0
M  V30 890 H 84.7588 1.02908 1.08307 0
M  V30 891 H 86.6408 0.440992 4.19086 0
M  V30 892 H 85.3158 -0.265649 3.22608 0
M  V30 893 H 84.2228 2.04966 3.12953 0
M  V30 894 H 85.5558 2.68023 4.12825 0
M  V30 895 N 87.2079 -1.17134 1.05439 0
M  V30 896 C 88.1379 -2.2342 0.678649 0
M  V30 897 C 89.1189 -1.66971 -0.32476 0
M  V30 898 O 90.3039 -1.93149 -0.201802 0
M  V30 899 C 87.4339 -3.47256 0.0552099 0
M  V30 900 C 86.3879 -4.16543 0.98365 0
M  V30 901 C 85.7139 -5.34231 0.223961 0
M  V30 902 C 87.0139 -4.68495 2.3089 0
M  V30 903 H 88.7079 -2.55105 1.56722 0
M  V30 904 H 86.2539 -1.2262 0.754998 0
M  V30 905 H 88.2069 -4.20828 -0.21946 0
M  V30 906 H 86.9309 -3.14846 -0.868319 0
M  V30 907 H 85.5899 -3.44887 1.24293 0
M  V30 908 H 85.2379 -4.98071 -0.702412 0
M  V30 909 H 84.9379 -5.81527 0.842627 0
M  V30 910 H 86.4619 -6.10585 -0.0433671 0
M  V30 911 H 87.8759 -5.33691 2.09396 0
M  V30 912 H 86.2729 -5.26379 2.88176 0
M  V30 913 H 87.3429 -3.85169 2.94572 0
M  V30 914 N 88.686 -0.835752 -1.33615 0
M  V30 915 C 90.102 -0.523139 -1.50783 0
M  V30 916 C 90.302 0.950171 -1.77691 0
M  V30 917 O 89.358 1.73411 -1.83534 0
M  V30 918 C 90.671 -1.39378 -2.66448 0
M  V30 919 C 92.219 -1.39223 -2.80332 0
M  V30 920 C 92.694 -2.24765 -3.99055 0
M  V30 921 N 94.185 -2.22458 -4.06284 0
M  V30 922 C 94.92 -2.85386 -4.97336 0
M  V30 923 N 94.416 -3.57354 -5.93523 0
M  V30 924 N 96.209 -2.74872 -4.90308 0
M  V30 925 H 88.36 -1.78952 -1.14411 0
M  V30 926 H 90.623 -0.763297 -0.562212 0
M  V30 927 H 90.329 -2.44061 -2.53234 0
M  V30 928 H 90.203 -1.0676 -3.61776 0
M  V30 929 H 92.59 -0.353136 -2.92979 0
M  V30 930 H 92.671 -1.75846 -1.85773 0
M  V30 931 H 92.315 -3.28732 -3.87167 0
M  V30 932 H 92.245 -1.85485 -4.92852 0
M  V30 933 H 94.736 -1.70119 -3.37443 0
M  V30 934 H 95.049 -4.02584 -6.59656 0
M  V30 935 H 93.394 -3.61461 -5.93608 0
M  V30 936 H 96.585 -2.18213 -4.14126 0
M  V30 937 H 96.758 -3.24199 -5.61069 0
M  V30 938 N 90.1641 1.46063 -0.591896 0
M  V30 939 C 91.3891 2.07226 -0.0850314 0
M  V30 940 C 91.8141 1.43625 1.21463 0
M  V30 941 O 91.1721 0.523305 1.73583 0
M  V30 942 C 91.2201 3.60554 0.0576567 0
M  V30 943 O 90.3241 3.97128 1.11188 0
M  V30 944 H 89.6651 0.660615 -0.0669568 0
M  V30 945 H 92.1951 1.8756 -0.81745 0
M  V30 946 H 92.2051 4.07165 0.2609 0
M  V30 947 H 90.8801 4.06235 -0.891416 0
M  V30 948 H 89.4571 3.62213 0.886356 0
M  V30 949 N 91.6422 0.330177 1.54103 0
M  V30 950 C 92.5742 -0.566902 2.22079 0
M  V30 951 C 93.5872 -1.07462 1.22294 0
M  V30 952 O 94.7762 -0.987065 1.48726 0
M  V30 953 C 91.8762 -1.79138 2.87685 0
M  V30 954 C 91.0492 -1.42123 4.13666 0
M  V30 955 C 90.1082 -2.50394 4.62806 0
M  V30 956 O 89.1342 -2.14261 5.27334 0
M  V30 957 N 90.3362 -3.81433 4.37595 0
M  V30 958 H 93.1012 0.0151844 2.99696 0
M  V30 959 H 90.6622 0.153681 1.61169 0
M  V30 960 H 92.6542 -2.50975 3.1748 0
M  V30 961 H 91.2242 -2.28115 2.13734 0
M  V30 962 H 90.4442 -0.534201 3.90564 0
M  V30 963 H 91.7322 -1.14971 4.9564 0
M  V30 964 H 91.1302 -4.13584 3.8596 0
M  V30 965 H 89.6872 -4.4948 4.72029 0
M  V30 966 N 93.1203 -1.57491 0.0584922 0
M  V30 967 C 94.3683 -1.92597 -0.612436 0
M  V30 968 C 94.6893 -0.938162 -1.70949 0
M  V30 969 O 93.9593 0.0158301 -1.95894 0
M  V30 970 H 92.5393 -0.710964 -0.229214 0
M  V30 971 H 95.2013 -1.94571 0.113218 0
M  V30 972 H 94.2973 -2.94038 -1.04633 0
M  V30 973 N 94.5984 0.214957 -1.56127 0
M  V30 974 C 95.5084 1.28727 -1.96129 0
M  V30 975 C 96.5244 1.50916 -0.866044 0
M  V30 976 O 97.7004 1.63918 -1.17016 0
M  V30 977 C 94.7654 2.61569 -2.27558 0
M  V30 978 C 93.8264 2.47625 -3.50685 0
M  V30 979 C 93.0594 3.74132 -3.80606 0
M  V30 980 O 93.2824 4.77438 -3.12104 0
M  V30 981 O 92.2164 3.70849 -4.74083 0
M  V30 982 H 96.0424 0.977855 -2.87527 0
M  V30 983 H 93.6274 0.418358 -1.43423 0
M  V30 984 H 95.5094 3.40012 -2.48938 0
M  V30 985 H 94.1844 2.92178 -1.39332 0
M  V30 986 H 93.0914 1.67361 -3.34576 0
M  V30 987 H 94.4244 2.21954 -4.39315 0
M  V30 988 N 96.0765 1.50051 0.48192 0
M  V30 989 C 97.3015 1.64508 1.26301 0
M  V30 990 C 97.7265 0.323851 1.85291 0
M  V30 991 O 97.0845 -0.710969 1.66778 0
M  V30 992 C 97.1325 2.7305 2.35533 0
M  V30 993 O 96.2365 2.3355 3.39895 0
M  V30 994 H 95.5775 0.549978 0.372048 0
M  V30 995 H 98.1075 1.9636 0.574786 0
M  V30 996 H 98.1175 2.95799 2.8101 0
M  V30 997 H 96.7925 3.68946 1.91967 0
M  V30 998 H 95.3695 2.21205 3.00204 0
M  V30 999 N 97.5546 -0.734337 1.39446 0
M  V30 1000 C 98.4866 -1.85861 1.34121 0
M  V30 1001 C 99.4996 -1.60871 0.249864 0
M  V30 1002 O 100.689 -1.71093 0.508865 0
M  V30 1003 C 97.7886 -3.21899 1.05991 0
M  V30 1004 C 96.9616 -3.74239 2.26415 0
M  V30 1005 C 96.0206 -4.88841 1.94733 0
M  V30 1006 O 95.0466 -5.02468 2.67422 0
M  V30 1007 N 96.2486 -5.73261 0.913884 0
M  V30 1008 H 99.0136 -1.90934 2.31007 0
M  V30 1009 H 96.5746 -0.915102 1.33557 0
M  V30 1010 H 98.5666 -3.96136 0.828147 0
M  V30 1011 H 97.1366 -3.12091 0.178361 0
M  V30 1012 H 96.3566 -2.91347 2.65539 0
M  V30 1013 H 97.6446 -4.05942 3.06738 0
M  V30 1014 H 97.0426 -5.64842 0.311476 0
M  V30 1015 H 95.5996 -6.47563 0.742015 0
M  V30 1016 N 99.0327 -1.24633 -0.964593 0
M  V30 1017 C 99.9797 -1.04144 -2.05968 0
M  V30 1018 C 100.95 0.046262 -1.66036 0
M  V30 1019 O 102.135 -0.108972 -1.90489 0
M  V30 1020 C 99.2747 -0.65563 -3.38815 0
M  V30 1021 C 98.3877 -1.81714 -3.91923 0
M  V30 1022 C 97.5227 -1.37662 -5.13052 0
M  V30 1023 C 96.5617 -2.50788 -5.58365 0
M  V30 1024 N 95.6987 -2.07582 -6.70712 0
M  V30 1025 H 100.539 -1.9787 -2.22827 0
M  V30 1026 H 98.0757 -0.9855 -1.09208 0
M  V30 1027 H 100.034 -0.412954 -4.15151 0
M  V30 1028 H 98.6637 0.244627 -3.21872 0
M  V30 1029 H 97.7157 -2.1734 -3.12198 0
M  V30 1030 H 99.0277 -2.66705 -4.21509 0
M  V30 1031 H 98.1817 -1.093 -5.96773 0
M  V30 1032 H 96.9207 -0.497293 -4.85158 0
M  V30 1033 H 95.9257 -2.79906 -4.73215 0
M  V30 1034 H 97.1507 -3.39283 -5.88272 0
M  V30 1035 H 95.0967 -1.22051 -6.44546 0
M  V30 1036 H 95.0137 -2.86125 -6.99763 0
M  V30 1037 H 96.2817 -1.82369 -7.57867 0
M  V30 1038 N 100.511 1.16574 -1.06058 0
M  V30 1039 C 101.443 2.2045 -0.627239 0
M  V30 1040 C 102.456 1.59752 0.313534 0
M  V30 1041 O 103.645 1.78192 0.104896 0
M  V30 1042 C 100.745 3.3875 0.100974 0
M  V30 1043 C 99.9178 4.29008 -0.852687 0
M  V30 1044 C 98.9768 5.25944 -0.164152 0
M  V30 1045 O 98.0028 5.63535 -0.801047 0
M  V30 1046 N 99.2048 5.70075 1.09518 0
M  V30 1047 H 101.97 2.58249 -1.52077 0
M  V30 1048 H 99.5308 1.3156 -0.943594 0
M  V30 1049 H 101.523 4.00638 0.57194 0
M  V30 1050 H 100.093 2.99476 0.89628 0
M  V30 1051 H 99.3128 3.64419 -1.50308 0
M  V30 1052 H 100.601 4.86195 -1.49972 0
M  V30 1053 H 99.9988 5.41624 1.6328 0
M  V30 1054 H 98.5558 6.34067 1.51006 0
M  V30 1055 N 101.989 0.842826 1.3317 0
M  V30 1056 C 103.238 0.436738 1.96915 0
M  V30 1057 C 103.551 -1.01025 1.67491 0
M  V30 1058 O 104.757 -1.5212 2.24881 0
M  V30 1059 C 103.213 0.730021 3.52418 0
M  V30 1060 C 102.821 2.19195 3.90714 0
M  V30 1061 C 104.565 0.391076 4.22695 0
M  V30 1062 C 102.472 2.42907 5.39212 0
M  V30 1063 H 101.402 0.15958 0.736919 0
M  V30 1064 H 104.053 1.03196 1.51733 0
M  V30 1065 H 102.435 0.0643755 3.95948 0
M  V30 1066 H 103.609 2.8984 3.58231 0
M  V30 1067 H 101.924 2.49425 3.33431 0
M  V30 1068 H 104.521 0.545817 5.31907 0
M  V30 1069 H 104.864 -0.666294 4.10933 0
M  V30 1070 H 105.397 1.01212 3.84709 0
M  V30 1071 H 102.136 3.47224 5.55982 0
M  V30 1072 H 101.656 1.76827 5.73142 0
M  V30 1073 H 103.335 2.2626 6.06148 0
M  V30 1074 N 103.467 -1.45747 0.599634 0
M  V30 1075 C 104.397 -2.33235 -0.111306 0
M  V30 1076 C 105.378 -1.46359 -0.866781 0
M  V30 1077 O 106.563 -1.75146 -0.838904 0
M  V30 1078 C 103.693 -3.28932 -1.11451 0
M  V30 1079 C 102.647 -4.25381 -0.472772 0
M  V30 1080 C 101.973 -5.1071 -1.58365 0
M  V30 1081 C 103.273 -5.18831 0.600948 0
M  V30 1082 H 104.967 -2.92927 0.61919 0
M  V30 1083 H 102.513 -1.40857 0.299215 0
M  V30 1084 H 104.466 -3.89002 -1.62036 0
M  V30 1085 H 103.19 -2.67381 -1.8755 0
M  V30 1086 H 101.849 -3.66598 0.0121472 0
M  V30 1087 H 101.497 -4.45533 -2.33473 0
M  V30 1088 H 101.197 -5.7604 -1.15982 0
M  V30 1089 H 102.721 -5.73647 -2.09194 0
M  V30 1090 H 104.135 -5.73019 0.179491 0
M  V30 1091 H 102.532 -5.92595 0.946076 0
M  V30 1092 H 103.602 -4.6174 1.48068 0
M  V30 1093 N 104.945 -0.338344 -1.53925 0
M  V30 1094 C 105.855 0.529421 -2.28548 0
M  V30 1095 C 106.871 1.11645 -1.3346 0
M  V30 1096 O 108.047 1.13325 -1.66492 0
M  V30 1097 C 105.112 1.66713 -3.03987 0
M  V30 1098 C 104.173 1.11041 -4.14691 0
M  V30 1099 C 103.406 2.19389 -4.86522 0
M  V30 1100 O 103.629 3.40013 -4.57982 0
M  V30 1101 O 102.563 1.83976 -5.73094 0
M  V30 1102 H 106.389 -0.0770399 -3.03602 0
M  V30 1103 H 103.974 -0.103555 -1.49041 0
M  V30 1104 H 105.856 2.32918 -3.5118 0
M  V30 1105 H 104.531 2.25949 -2.31794 0
M  V30 1106 H 103.438 0.413024 -3.71813 0
M  V30 1107 H 104.771 0.562975 -4.8897 0
M  V30 1108 N 106.423 1.57458 -0.0668435 0
M  V30 1109 C 107.839 1.56947 0.289772 0
M  V30 1110 C 108.039 1.07584 1.70376 0
M  V30 1111 O 107.095 0.739486 2.41429 0
M  V30 1112 C 108.408 3.0052 0.103943 0
M  V30 1113 C 109.956 3.12517 0.173857 0
M  V30 1114 C 110.431 4.57997 0.0163682 0
M  V30 1115 N 111.922 4.63144 0.0721352 0
M  V30 1116 C 112.657 5.73394 -0.0253794 0
M  V30 1117 N 112.153 6.92576 -0.176133 0
M  V30 1118 N 113.946 5.62091 0.0313305 0
M  V30 1119 H 106.097 1.87863 -0.991027 0
M  V30 1120 H 108.36 0.86583 -0.38606 0
M  V30 1121 H 108.066 3.40729 -0.871572 0
M  V30 1122 H 107.94 3.67304 0.858366 0
M  V30 1123 H 110.327 2.72197 1.13985 0
M  V30 1124 H 110.408 2.48381 -0.611586 0
M  V30 1125 H 110.052 4.99005 -0.946374 0
M  V30 1126 H 109.982 5.20158 0.821153 0
M  V30 1127 H 112.473 3.77436 0.187263 0
M  V30 1128 H 112.786 7.72418 -0.242821 0
M  V30 1129 H 111.131 6.94678 -0.211429 0
M  V30 1130 H 114.322 4.67867 0.147773 0
M  V30 1131 H 114.495 6.47982 -0.048121 0
M  V30 1132 N 107.901 -0.206675 1.56239 0
M  V30 1133 C 109.141 -0.93574 1.81723 0
M  V30 1134 C 109.505 -1.80927 0.642609 0
M  V30 1135 O 110.706 -2.57323 0.777081 0
M  V30 1136 C 108.977 -1.74012 3.12177 0
M  V30 1137 S 110.536 -2.52279 3.59028 0
M  V30 1138 H 107.354 -0.314065 0.637875 0
M  V30 1139 H 109.956 -0.200071 1.94474 0
M  V30 1140 H 108.66 -1.0888 3.95693 0
M  V30 1141 H 108.191 -2.51782 3.02274 0
M  V30 1142 H 110.206 -3.76209 3.23545 0
M  V30 1143 N 109.379 -1.50304 -0.473955 0
M  V30 1144 C 110.795 -1.37667 -0.807466 0
M  V30 1145 C 110.995 -0.430555 -1.96846 0
M  V30 1146 O 110.051 0.127874 -2.52176 0
M  V30 1147 C 111.364 -2.78974 -1.12223 0
M  V30 1148 C 112.912 -2.87868 -1.22885 0
M  V30 1149 C 113.387 -4.30003 -1.57676 0
M  V30 1150 N 114.878 -4.3294 -1.64673 0
M  V30 1151 C 115.613 -5.3991 -1.93091 0
M  V30 1152 N 115.109 -6.57092 -2.1955 0
M  V30 1153 N 116.902 -5.27351 -1.94569 0
M  V30 1154 H 109.053 -2.10394 0.291212 0
M  V30 1155 H 111.316 -0.945575 0.0677609 0
M  V30 1156 H 111.022 -3.50031 -0.342229 0
M  V30 1157 H 110.896 -3.16038 -2.05913 0
M  V30 1158 H 113.283 -2.17032 -1.99953 0
M  V30 1159 H 113.364 -2.54352 -0.271814 0
M  V30 1160 H 113.008 -5.01375 -0.81149 0
M  V30 1161 H 112.938 -4.61004 -2.54525 0
M  V30 1162 H 115.429 -3.48441 -1.46277 0
M  V30 1163 H 115.742 -7.34425 -2.405 0
M  V30 1164 H 114.087 -6.60272 -2.16948 0
M  V30 1165 H 117.278 -4.34801 -1.73394 0
M  V30 1166 H 117.451 -6.10805 -2.16381 0
M  V30 1167 N 110.857 0.726932 -1.39834 0
M  V30 1168 C 111.82 1.82269 -1.38962 0
M  V30 1169 C 112.82 1.58248 -0.285334 0
M  V30 1170 O 114.01 1.65499 -0.54366 0
M  V30 1171 C 111.142 3.20186 -1.17019 0
M  V30 1172 H 112.335 1.84443 -2.36476 0
M  V30 1173 H 109.888 0.931416 -1.25516 0
M  V30 1174 H 110.623 3.23669 -0.202204 0
M  V30 1175 H 110.408 3.3902 -1.96998 0
M  V30 1176 H 111.898 4.00235 -1.1917 0
M  V30 1177 N 112.336 1.25143 0.95797 0
M  V30 1178 C 113.582 1.09855 1.70469 0
M  V30 1179 C 113.915 -0.360187 1.90831 0
M  V30 1180 O 113.19 -1.26568 1.47685 0
M  V30 1181 C 113.473 1.8497 3.08963 0
M  V30 1182 C 113.326 3.38652 2.96032 0
M  V30 1183 C 114.645 1.63016 4.08795 0
M  V30 1184 H 111.764 0.400465 0.618706 0
M  V30 1185 H 114.406 1.53933 1.11376 0
M  V30 1186 H 112.556 1.47505 3.59409 0
M  V30 1187 H 114.228 3.85772 2.52938 0
M  V30 1188 H 112.471 3.66534 2.32025 0
M  V30 1189 H 113.142 3.8642 3.94187 0
M  V30 1190 H 115.618 1.95625 3.67247 0
M  V30 1191 H 114.494 2.18015 5.03747 0
M  V30 1192 H 114.755 0.570692 4.38401 0
M  V30 1193 N 113.814 -1.1601 1.06675 0
M  V30 1194 C 115.063 -1.85973 0.780818 0
M  V30 1195 C 115.376 -1.82819 -0.695444 0
M  V30 1196 O 116.582 -2.484 -1.09589 0
M  V30 1197 C 115.038 -3.33757 1.34665 0
M  V30 1198 C 114.646 -3.45374 2.85343 0
M  V30 1199 C 116.39 -4.0895 1.13843 0
M  V30 1200 C 114.297 -4.87266 3.35151 0
M  V30 1201 H 113.227 -0.696661 0.288407 0
M  V30 1202 H 115.878 -1.30903 1.28595 0
M  V30 1203 H 114.26 -3.88456 0.769274 0
M  V30 1204 H 115.434 -3.00816 3.49065 0
M  V30 1205 H 113.749 -2.83619 3.04876 0
M  V30 1206 H 116.346 -5.13654 1.4854 0
M  V30 1207 H 116.689 -4.16229 0.0770282 0
M  V30 1208 H 117.222 -3.605 1.68179 0
M  V30 1209 H 113.961 -4.85168 4.40786 0
M  V30 1210 H 113.481 -5.32433 2.76179 0
M  V30 1211 H 115.16 -5.56097 3.30704 0
M  V30 1212 N 115.292 -0.849877 -1.32721 0
M  V30 1213 C 116.708 -0.539102 -1.50219 0
M  V30 1214 C 116.908 0.931271 -1.78689 0
M  V30 1215 O 115.964 1.71455 -1.85363 0
M  V30 1216 C 117.277 -1.42196 -2.64954 0
M  V30 1217 C 118.825 -1.42189 -2.78839 0
M  V30 1218 C 119.3 -2.28985 -3.96648 0
M  V30 1219 N 120.791 -2.26754 -4.03902 0
M  V30 1220 C 121.526 -2.90644 -4.94281 0
M  V30 1221 N 121.022 -3.63629 -5.897 0
M  V30 1222 N 122.815 -2.80057 -4.87365 0
M  V30 1223 H 114.966 -1.80156 -1.12506 0
M  V30 1224 H 117.229 -0.769217 -0.554085 0
M  V30 1225 H 116.935 -2.46733 -2.50631 0
M  V30 1226 H 116.809 -1.10591 -3.60624 0
M  V30 1227 H 119.196 -0.38419 -2.92588 0
M  V30 1228 H 119.277 -1.77807 -1.83898 0
M  V30 1229 H 118.921 -3.32819 -3.83658 0
M  V30 1230 H 118.851 -1.90702 -4.90857 0
M  V30 1231 H 121.342 -1.73688 -3.3562 0
M  V30 1232 H 121.655 -4.09558 -6.55349 0
M  V30 1233 H 120 -3.67737 -5.89741 0
M  V30 1234 H 123.191 -2.22593 -4.11789 0
M  V30 1235 H 123.364 -3.30132 -5.57599 0
M  V30 1236 N 116.77 1.45427 -0.607355 0
M  V30 1237 C 118 2.06314 -0.108656 0
M  V30 1238 C 118.408 1.45269 1.21217 0
M  V30 1239 O 117.751 0.561115 1.74921 0
M  V30 1240 C 117.813 3.59345 0.105618 0
M  V30 1241 C 117.477 4.42723 -1.13337 0
M  V30 1242 C 118.474 4.77715 -2.05145 0
M  V30 1243 C 116.159 4.83478 -1.36213 0
M  V30 1244 C 118.153 5.52317 -3.18158 0
M  V30 1245 C 115.84 5.57835 -2.49527 0
M  V30 1246 C 116.838 5.92171 -3.40327 0
M  V30 1247 O 116.526 6.65019 -4.51669 0
M  V30 1248 H 116.258 0.672782 -0.0658842 0
M  V30 1249 H 118.812 1.87664 -0.834945 0
M  V30 1250 H 117.042 3.76394 0.886796 0
M  V30 1251 H 118.731 4.02076 0.555886 0
M  V30 1252 H 119.497 4.46787 -1.88697 0
M  V30 1253 H 115.376 4.56188 -0.664362 0
M  V30 1254 H 118.92 5.79036 -3.89054 0
M  V30 1255 H 114.817 5.88177 -2.65928 0
M  V30 1256 H 115.585 6.83469 -4.50348 0
M  V30 1257 N 118.248 0.346503 1.53744 0
M  V30 1258 C 119.473 -0.253074 2.0585 0
M  V30 1259 C 119.898 -1.43202 1.21962 0
M  V30 1260 O 119.256 -1.79783 0.234073 0
M  V30 1261 C 119.304 -0.643193 3.54817 0
M  V30 1262 O 118.408 -1.74286 3.73762 0
M  V30 1263 H 117.749 -0.0413583 0.662711 0
M  V30 1264 H 120.279 0.501574 1.98357 0
M  V30 1265 H 120.289 -0.919526 3.97503 0
M  V30 1266 H 118.964 0.218966 4.15323 0
M  V30 1267 H 117.541 -1.46356 3.42979 0
M  V30 1268 N 119.726 -1.57421 0.075193 0
M  V30 1269 C 120.972 -1.93905 -0.594025 0
M  V30 1270 C 121.305 -0.955701 -1.69056 0
M  V30 1271 O 120.58 0.0145373 -1.94495 0
M  V30 1272 C 120.863 -3.40638 -1.1678 0
M  V30 1273 C 120.716 -4.49733 -0.0776792 0
M  V30 1274 C 122.035 -3.88259 -2.07228 0
M  V30 1275 H 119.154 -0.705105 -0.214466 0
M  V30 1276 H 121.796 -1.8947 0.141854 0
M  V30 1277 H 119.946 -3.44549 -1.79494 0
M  V30 1278 H 121.618 -4.57942 0.555573 0
M  V30 1279 H 119.861 -4.29751 0.591286 0
M  V30 1280 H 120.532 -5.49549 -0.519603 0
M  V30 1281 H 123.008 -3.86376 -1.54445 0
M  V30 1282 H 121.884 -4.91533 -2.44308 0
M  V30 1283 H 122.145 -3.26396 -2.98191 0
M  V30 1284 N 121.204 0.198386 -1.56346 0
M  V30 1285 C 122.151 1.24589 -1.94284 0
M  V30 1286 C 123.121 1.454 -0.802997 0
M  V30 1287 O 124.306 1.58588 -1.06087 0
M  V30 1288 C 121.446 2.58631 -2.28482 0
M  V30 1289 C 120.559 2.45426 -3.55514 0
M  V30 1290 C 119.694 3.7215 -3.79049 0
M  V30 1291 C 118.733 3.53763 -4.99518 0
M  V30 1292 N 117.87 4.72491 -5.19323 0
M  V30 1293 H 122.71 0.915356 -2.83593 0
M  V30 1294 H 120.247 0.440629 -1.40346 0
M  V30 1295 H 122.205 3.3672 -2.46324 0
M  V30 1296 H 120.835 2.89734 -1.42317 0
M  V30 1297 H 119.887 1.58652 -3.45737 0
M  V30 1298 H 121.199 2.27772 -4.43758 0
M  V30 1299 H 120.353 4.58679 -3.97113 0
M  V30 1300 H 119.092 3.92754 -2.89129 0
M  V30 1301 H 118.097 2.65619 -4.8138 0
M  V30 1302 H 119.322 3.34607 -5.90944 0
M  V30 1303 H 117.268 4.93365 -4.3235 0
M  V30 1304 H 117.185 4.5765 -6.01741 0
M  V30 1305 H 118.453 5.6038 -5.41843 0
M  V30 1306 N 122.682 1.50554 0.465978 0
M  V30 1307 C 123.91 1.65563 1.24083 0
M  V30 1308 C 124.325 0.341051 1.85694 0
M  V30 1309 O 123.682 -0.677543 1.69457 0
M  V30 1310 C 123.733 2.75051 2.34583 0
M  V30 1311 O 123.454 4.01413 1.75497 0
M  V30 1312 C 124.955 3.01078 3.25372 0
M  V30 1313 H 122.175 0.55638 0.375077 0
M  V30 1314 H 124.719 1.96807 0.555624 0
M  V30 1315 H 122.874 2.46486 2.9887 0
M  V30 1316 H 123.288 4.62002 2.48303 0
M  V30 1317 H 124.762 3.81339 3.99105 0
M  V30 1318 H 125.239 2.12349 3.84453 0
M  V30 1319 H 125.845 3.31194 2.66816 0
M  V30 1320 N 124.16 -0.719506 1.40217 0
M  V30 1321 C 125.408 -1.47641 1.3801 0
M  V30 1322 C 125.729 -1.94992 -0.018145 0
M  V30 1323 O 124.999 -1.70073 -0.972207 0
M  V30 1324 H 123.579 -0.547744 0.507923 0
M  V30 1325 H 126.241 -0.853187 1.75233 0
M  V30 1326 H 125.337 -2.35112 2.05253 0
M  V30 1327 N 125.638 -1.25649 -0.95132 0
M  V30 1328 C 126.588 -1.03004 -2.03406 0
M  V30 1329 C 127.572 0.034187 -1.60864 0
M  V30 1330 O 128.764 -0.181549 -1.76066 0
M  V30 1331 C 125.893 -0.654255 -3.37008 0
M  V30 1332 C 124.979 -1.75542 -3.86065 0
M  V30 1333 N 125.37 -2.99113 -4.07879 0
M  V30 1334 C 123.668 -1.63669 -4.14884 0
M  V30 1335 C 124.369 -3.70611 -4.48356 0
M  V30 1336 N 123.345 -2.98247 -4.54477 0
M  V30 1337 H 127.147 -1.96813 -2.1827 0
M  V30 1338 H 124.661 -1.16017 -1.13639 0
M  V30 1339 H 126.658 -0.473206 -4.14206 0
M  V30 1340 H 125.318 0.276468 -3.23521 0
M  V30 1341 H 126.329 -3.35124 -3.94857 0
M  V30 1342 H 123.006 -0.775161 -4.10241 0
M  V30 1343 H 124.396 -4.76695 -4.73509 0
M  V30 1344 N 127.117 1.15442 -1.07289 0
M  V30 1345 C 128.528 1.67803 -0.818475 0
M  V30 1346 C 128.879 1.8489 0.656507 0
M  V30 1347 O 128.004 1.55176 1.50829 0
M  V30 1348 C 128.599 3.04805 -1.47917 0
M  V30 1349 C 127.158 3.54245 -1.27229 0
M  V30 1350 C 126.305 2.29986 -1.54925 0
M  V30 1351 H 129.256 0.996646 -1.23502 0
M  V30 1352 H 129.277 3.69702 -0.90005 0
M  V30 1353 H 128.789 2.92336 -2.55267 0
M  V30 1354 H 126.89 3.71956 -0.21899 0
M  V30 1355 H 127.003 4.35723 -1.99203 0
M  V30 1356 H 125.367 2.35496 -0.970242 0
M  V30 1357 H 126.15 2.20105 -2.63455 0
M  V30 1358 N 128.595 0.856903 1.32268 0
M  V30 1359 C 130.011 0.547061 1.49931 0
M  V30 1360 C 130.211 -0.921781 1.7918 0
M  V30 1361 O 129.267 -1.70469 1.8627 0
M  V30 1362 C 130.58 1.43599 2.64196 0
M  V30 1363 C 132.128 1.43665 2.78081 0
M  V30 1364 C 132.603 2.31085 3.95428 0
M  V30 1365 N 134.094 2.28893 4.02694 0
M  V30 1366 C 134.829 2.93262 4.92732 0
M  V30 1367 N 134.325 3.66751 5.87763 0
M  V30 1368 N 136.118 2.82638 4.85873 0
M  V30 1369 H 128.269 1.8075 1.11549 0
M  V30 1370 H 130.532 0.772144 0.549997 0
M  V30 1371 H 130.238 2.48058 2.49319 0
M  V30 1372 H 130.112 1.12502 3.60032 0
M  V30 1373 H 132.499 0.399701 2.92381 0
M  V30 1374 H 132.58 1.7878 1.82952 0
M  V30 1375 H 132.224 3.34849 3.81888 0
M  V30 1376 H 132.154 1.93302 4.89839 0
M  V30 1377 H 134.645 1.75466 3.34694 0
M  V30 1378 H 134.958 4.13027 6.53168 0
M  V30 1379 H 133.303 3.70859 5.87783 0
M  V30 1380 H 136.494 2.24774 4.10602 0
M  V30 1381 H 136.667 3.33084 5.55841 0
M  V30 1382 N 130.073 -1.45103 0.615059 0
M  V30 1383 C 131.32 -2.02183 0.113179 0
M  V30 1384 C 131.648 -1.48249 -1.25906 0
M  V30 1385 O 130.903 -0.650265 -1.84581 0
M  V30 1386 C 131.202 -3.57386 0.0318797 0
M  V30 1387 C 130.868 -4.30505 1.34077 0
M  V30 1388 C 129.53 -4.50197 1.69929 0
M  V30 1389 C 131.882 -4.72238 2.20546 0
M  V30 1390 C 129.21 -5.08881 2.91988 0
M  V30 1391 C 131.562 -5.32272 3.41861 0
M  V30 1392 C 130.226 -5.50187 3.77956 0
M  V30 1393 H 129.496 -0.739842 0.0414151 0
M  V30 1394 H 132.143 -1.74073 0.798168 0
M  V30 1395 H 130.448 -3.84817 -0.736409 0
M  V30 1396 H 132.145 -3.99264 -0.372712 0
M  V30 1397 H 128.735 -4.15496 1.05173 0
M  V30 1398 H 132.919 -4.56751 1.94146 0
M  V30 1399 H 128.175 -5.20939 3.2005 0
M  V30 1400 H 132.349 -5.63563 4.09109 0
M  V30 1401 H 129.976 -5.95427 4.72622 0
M  V30 1402 N 131.551 -0.354651 -1.53558 0
M  V30 1403 C 132.798 0.238443 -2.01091 0
M  V30 1404 C 133.126 1.49663 -1.24222 0
M  V30 1405 O 132.381 1.93049 -0.321003 0
M  V30 1406 C 132.68 0.587121 -3.52545 0
M  V30 1407 C 132.346 -0.575472 -4.47213 0
M  V30 1408 C 131.008 -0.894497 -4.72813 0
M  V30 1409 C 133.36 -1.35489 -5.03281 0
M  V30 1410 C 130.688 -1.99511 -5.51736 0
M  V30 1411 C 133.04 -2.44583 -5.83405 0
M  V30 1412 C 131.704 -2.77033 -6.07296 0
M  V30 1413 H 130.974 0.0872526 -0.735845 0
M  V30 1414 H 133.621 -0.484859 -1.8526 0
M  V30 1415 H 131.926 1.39129 -3.66265 0
M  V30 1416 H 133.623 1.05809 -3.86789 0
M  V30 1417 H 130.213 -0.316774 -4.27428 0
M  V30 1418 H 134.397 -1.12167 -4.83459 0
M  V30 1419 H 129.653 -2.25063 -5.68469 0
M  V30 1420 H 133.827 -3.05401 -6.25862 0
M  V30 1421 H 131.454 -3.6244 -6.68237 0
M  V30 1422 N 133.029 1.57378 -0.0835403 0
M  V30 1423 C 133.977 2.14602 0.89714 0
M  V30 1424 C 134.971 1.08589 1.30018 0
M  V30 1425 O 136.177 1.26952 1.27606 0
M  V30 1426 H 132.552 0.686346 0.3073 0
M  V30 1427 H 134.523 2.95845 0.38969 0
M  V30 1428 C 133.272 2.73188 2.15089 0
M  V30 1429 H 132.595 3.54442 1.84962 0
M  V30 1430 H 134.035 3.1681 2.81793 0
M  V30 1431 C 132.494 1.68517 2.91725 0
M  V30 1432 O 133.024 1.11718 3.85852 0
M  V30 1433 N 131.23 1.39277 2.55049 0
M  V30 1434 H 130.777 1.85655 1.78577 0
M  V30 1435 H 130.735 0.694791 3.06627 0
M  V30 1436 N 134.507 -0.190092 1.56449 0
M  V30 1437 C 135.439 -1.25973 1.91477 0
M  V30 1438 C 136.452 -1.41452 0.805931 0
M  V30 1439 O 137.641 -1.41789 1.08435 0
M  V30 1440 C 134.741 -2.63117 2.13594 0
M  V30 1441 C 133.914 -2.69182 3.4476 0
M  V30 1442 C 132.973 -3.87557 3.5593 0
M  V30 1443 O 131.999 -3.74427 4.28711 0
M  V30 1444 N 133.201 -5.03224 2.89388 0
M  V30 1445 H 135.966 -0.962394 2.83828 0
M  V30 1446 H 133.527 -0.379981 1.57378 0
M  V30 1447 H 135.519 -3.40742 2.1835 0
M  V30 1448 H 134.089 -2.85319 1.27719 0
M  V30 1449 H 133.309 -1.77793 3.51828 0
M  V30 1450 H 134.597 -2.70229 4.31107 0
M  V30 1451 H 133.995 -5.16791 2.30094 0
M  V30 1452 H 132.552 -5.78778 2.99764 0
M  V30 1453 N 135.985 -1.50799 -0.457987 0
M  V30 1454 C 136.915 -1.73553 -1.5621 0
M  V30 1455 C 137.896 -0.584774 -1.59732 0
M  V30 1456 O 139.081 -0.825314 -1.7579 0
M  V30 1457 C 136.211 -1.84169 -2.94447 0
M  V30 1458 C 135.165 -2.99461 -3.0579 0
M  V30 1459 C 134.491 -2.95235 -4.45803 0
M  V30 1460 C 135.791 -4.39766 -2.81786 0
M  V30 1461 H 137.485 -2.66 -1.37421 0
M  V30 1462 H 135.031 -1.28002 -0.659662 0
M  V30 1463 H 136.984 -1.98672 -3.71628 0
M  V30 1464 H 135.708 -0.883545 -3.14422 0
M  V30 1465 H 134.367 -2.8463 -2.31044 0
M  V30 1466 H 134.015 -1.97239 -4.62715 0
M  V30 1467 H 133.715 -3.72642 -4.54326 0
M  V30 1468 H 135.239 -3.11803 -5.24987 0
M  V30 1469 H 136.653 -4.55054 -3.4871 0
M  V30 1470 H 135.05 -5.18722 -3.0174 0
M  V30 1471 H 136.12 -4.51229 -1.7754 0
M  V30 1472 N 137.463 0.71206 -1.40597 0
M  V30 1473 C 138.71 1.47197 -1.39065 0
M  V30 1474 C 139.038 1.94499 0.00583891 0
M  V30 1475 O 138.293 1.68752 0.99102 0
M  V30 1476 C 138.592 2.71039 -2.32965 0
M  V30 1477 C 138.258 2.42484 -3.80148 0
M  V30 1478 C 136.92 2.34406 -4.20247 0
M  V30 1479 C 139.272 2.18598 -4.73143 0
M  V30 1480 C 136.6 2.00516 -5.51371 0
M  V30 1481 C 138.952 1.8622 -6.0457 0
M  V30 1482 C 137.616 1.76626 -6.43708 0
M  V30 1483 H 136.886 0.538634 -0.508876 0
M  V30 1484 H 139.533 0.815325 -1.73276 0
M  V30 1485 H 137.838 3.41558 -1.91951 0
M  V30 1486 H 139.535 3.29138 -2.29061 0
M  V30 1487 H 136.125 2.49659 -3.4838 0
M  V30 1488 H 140.309 2.23793 -4.42979 0
M  V30 1489 H 135.565 1.91628 -5.80593 0
M  V30 1490 H 139.739 1.66752 -6.76141 0
M  V30 1491 H 137.366 1.50133 -7.45228 0
M  V30 1492 N 138.941 1.26152 0.944643 0
M  V30 1493 C 140.166 1.14363 1.7302 0
M  V30 1494 C 140.591 -0.29772 1.85729 0
M  V30 1495 O 139.949 -1.2157 1.34501 0
M  V30 1496 C 139.997 1.81378 3.11664 0
M  V30 1497 O 139.101 1.10022 3.97453 0
M  V30 1498 H 138.442 0.398694 0.53098 0
M  V30 1499 H 140.972 1.66906 1.18337 0
M  V30 1500 H 140.982 1.88064 3.62072 0
M  V30 1501 H 139.657 2.86237 3.0173 0
M  V30 1502 H 138.234 1.11287 3.55907 0
M  V30 1503 N 140.419 -1.14872 1.07899 0
M  V30 1504 C 141.667 -1.85422 0.803941 0
M  V30 1505 C 141.988 -1.83051 -0.67211 0
M  V30 1506 O 141.258 -1.27532 -1.48703 0
M  V30 1507 H 139.838 -0.686537 0.294408 0
M  V30 1508 H 142.5 -1.39226 1.3639 0
M  V30 1509 H 141.596 -2.90399 1.14346 0
M  V30 1510 N 141.898 -0.863906 -1.31812 0
M  V30 1511 C 142.828 -0.330843 -2.31144 0
M  V30 1512 C 143.809 0.575005 -1.60087 0
M  V30 1513 O 144.994 0.493304 -1.8783 0
M  V30 1514 C 142.124 0.47374 -3.44054 0
M  V30 1515 C 141.078 -0.338481 -4.26659 0
M  V30 1516 C 140.404 0.591412 -5.31419 0
M  V30 1517 C 141.704 -1.56926 -4.98168 0
M  V30 1518 H 143.398 -1.16086 -2.75979 0
M  V30 1519 H 140.944 -0.559657 -1.32679 0
M  V30 1520 H 142.897 0.857143 -4.12591 0
M  V30 1521 H 141.621 1.33721 -2.9797 0
M  V30 1522 H 140.28 -0.703754 -3.59782 0
M  V30 1523 H 139.928 1.45199 -4.81587 0
M  V30 1524 H 139.628 0.0519022 -5.87577 0
M  V30 1525 H 141.152 0.97179 -6.02817 0
M  V30 1526 H 142.566 -1.25764 -5.59336 0
M  V30 1527 H 140.963 -2.04739 -5.64094 0
M  V30 1528 H 142.033 -2.32544 -4.25501 0
M  V30 1529 N 143.376 1.44774 -0.622745 0
M  V30 1530 C 144.653 1.95522 -0.0551974 0
M  V30 1531 C 145.033 1.5649 1.41683 0
M  V30 1532 O 144.381 0.834848 2.12703 0
M  V30 1533 C 144.591 3.4796 -0.269242 0
M  V30 1534 C 145.939 4.24306 -0.158014 0
M  V30 1535 O 146.963 3.55637 -0.200162 0
M  V30 1536 O 145.822 5.46471 -0.0558693 0
M  V30 1537 H 142.916 0.826556 0.0271015 0
M  V30 1538 H 145.462 1.54866 -0.693864 0
M  V30 1539 H 144.234 3.6939 -1.29099 0
M  V30 1540 H 143.857 3.95543 0.403966 0
M  V30 1541 N 144.854 0.36279 1.53368 0
M  V30 1542 C 146.265 -0.117022 1.86333 0
M  V30 1543 C 146.616 -1.48397 1.28347 0
M  V30 1544 O 145.741 -2.07787 0.604428 0
M  V30 1545 C 146.336 -0.21912 3.38091 0
M  V30 1546 C 144.895 -0.643184 3.70864 0
M  V30 1547 C 144.042 0.211318 2.76494 0
M  V30 1548 H 146.993 0.581687 1.47655 0
M  V30 1549 H 147.014 -1.04319 3.6592 0
M  V30 1550 H 146.526 0.775902 3.80265 0
M  V30 1551 H 144.627 -1.64654 3.34245 0
M  V30 1552 H 144.74 -0.41973 4.77258 0
M  V30 1553 H 143.104 -0.319367 2.5269 0
M  V30 1554 H 143.887 1.20383 3.21501 0
M  V30 1555 N 146.332 -1.57332 0.0918853 0
M  V30 1556 C 147.282 -2.10385 -0.87876 0
M  V30 1557 C 148.266 -1.01814 -1.24591 0
M  V30 1558 O 149.458 -1.28093 -1.22152 0
M  V30 1559 C 146.587 -2.68517 -2.13901 0
M  V30 1560 C 145.673 -3.84126 -1.79744 0
M  V30 1561 N 146.064 -4.92288 -1.1613 0
M  V30 1562 C 144.362 -3.93801 -2.09373 0
M  V30 1563 C 145.063 -5.7295 -1.00513 0
M  V30 1564 N 144.039 -5.21876 -1.5214 0
M  V30 1565 H 147.841 -2.91395 -0.38293 0
M  V30 1566 H 145.355 -1.62017 -0.111423 0
M  V30 1567 H 147.352 -3.04852 -2.84378 0
M  V30 1568 H 146.012 -1.88961 -2.64053 0
M  V30 1569 H 147.023 -5.1123 -0.828504 0
M  V30 1570 H 143.7 -3.25249 -2.61762 0
M  V30 1571 H 145.09 -6.69978 -0.507902 0
M  V30 1572 N 147.81 0.181792 -1.56548 0
M  V30 1573 C 148.773 1.20894 -1.94724 0
M  V30 1574 C 149.773 1.37738 -0.829747 0
M  V30 1575 O 150.963 1.35323 -1.09697 0
M  V30 1576 C 148.095 2.57593 -2.23291 0
M  V30 1577 H 149.288 0.882275 -2.86629 0
M  V30 1578 H 146.841 0.423838 -1.50444 0
M  V30 1579 H 147.576 2.95291 -1.34067 0
M  V30 1580 H 147.361 2.46735 -3.04736 0
M  V30 1581 H 148.851 3.31637 -2.53785 0
M  V30 1582 N 149.288 1.51039 0.449983 0
M  V30 1583 C 150.218 1.74379 1.55288 0
M  V30 1584 C 151.199 0.593236 1.5942 0
M  V30 1585 O 152.384 0.834625 1.7535 0
M  V30 1586 C 149.514 1.85728 2.93466 0
M  V30 1587 C 148.468 3.01078 3.04197 0
M  V30 1588 C 147.794 2.97595 4.44231 0
M  V30 1589 C 149.094 4.41254 2.7945 0
M  V30 1590 H 150.788 2.66725 1.36008 0
M  V30 1591 H 148.334 1.2835 0.652864 0
M  V30 1592 H 150.287 2.0064 3.70569 0
M  V30 1593 H 149.011 0.900207 3.13949 0
M  V30 1594 H 147.67 2.85851 2.29531 0
M  V30 1595 H 147.318 1.99691 4.61663 0
M  V30 1596 H 147.018 3.75046 4.52343 0
M  V30 1597 H 148.542 3.14583 5.23326 0
M  V30 1598 H 149.956 4.56897 3.46292 0
M  V30 1599 H 148.353 5.20315 2.98985 0
M  V30 1600 H 149.423 4.52164 1.75144 0
M  V30 1601 N 150.766 -0.704594 1.40972 0
M  V30 1602 C 151.729 -1.80035 1.41845 0
M  V30 1603 C 152.729 -1.57774 0.310474 0
M  V30 1604 O 153.919 -1.64613 0.56992 0
M  V30 1605 C 151.051 -3.18284 1.22098 0
M  V30 1606 H 152.244 -1.80658 2.3938 0
M  V30 1607 H 149.797 -0.911329 1.26982 0
M  V30 1608 H 150.532 -3.23306 0.253672 0
M  V30 1609 H 150.317 -3.35843 2.02366 0
M  V30 1610 H 151.807 -3.98289 1.25522 0
M  V30 1611 N 152.244 -1.26651 -0.937939 0
M  V30 1612 C 153.492 -1.12165 -1.68118 0
M  V30 1613 C 153.813 0.334983 -1.92101 0
M  V30 1614 O 153.083 1.23583 -1.52 0
M  V30 1615 H 151.663 -0.412093 -0.623048 0
M  V30 1616 H 154.325 -1.59027 -1.12678 0
M  V30 1617 H 153.421 -1.64289 -2.6536 0
M  V30 1618 N 153.722 1.14298 -1.08507 0
M  V30 1619 C 155.138 1.37347 -0.812901 0
M  V30 1620 C 155.338 1.93052 0.577325 0
M  V30 1621 O 154.394 2.14389 1.33393 0
M  V30 1622 C 155.707 2.33359 -1.89642 0
M  V30 1623 C 157.255 2.46996 -1.92255 0
M  V30 1624 C 157.73 3.46309 -2.99724 0
M  V30 1625 N 159.221 3.53853 -2.98902 0
M  V30 1626 C 159.956 4.3055 -3.787 0
M  V30 1627 N 159.452 5.10482 -4.6838 0
M  V30 1628 N 161.245 4.25757 -3.66998 0
M  V30 1629 H 153.396 0.764867 -1.9815 0
M  V30 1630 H 155.659 0.398966 -0.859959 0
M  V30 1631 H 155.365 1.99565 -2.89597 0
M  V30 1632 H 155.239 3.33274 -1.76659 0
M  V30 1633 H 157.626 2.80081 -0.929445 0
M  V30 1634 H 157.707 1.47039 -2.09316 0
M  V30 1635 H 157.351 3.13957 -3.99241 0
M  V30 1636 H 157.281 4.46049 -2.79907 0
M  V30 1637 H 159.772 2.96812 -2.33904 0
M  V30 1638 H 160.085 5.66284 -5.25873 0
M  V30 1639 H 158.43 5.09747 -4.72422 0
M  V30 1640 H 161.621 3.62383 -2.96304 0
M  V30 1641 H 161.794 4.85279 -4.29427 0
M  V30 1642 N 155.201 0.870884 1.31352 0
M  V30 1643 C 156.45 0.478408 1.95944 0
M  V30 1644 C 156.763 -0.974493 1.69597 0
M  V30 1645 O 157.969 -1.47316 2.28058 0
M  V30 1646 C 156.425 0.804609 3.50791 0
M  V30 1647 C 156.033 2.27433 3.85977 0
M  V30 1648 C 157.777 0.480648 4.2177 0
M  V30 1649 C 155.684 2.5429 5.33939 0
M  V30 1650 H 154.614 0.175175 0.733369 0
M  V30 1651 H 157.265 1.06391 1.4951 0
M  V30 1652 H 155.647 0.148347 3.95722 0
M  V30 1653 H 156.821 2.97373 3.52002 0
M  V30 1654 H 155.136 2.56442 3.28065 0
M  V30 1655 H 157.733 0.658519 5.30629 0
M  V30 1656 H 158.076 -0.578979 4.12254 0
M  V30 1657 H 158.609 1.09349 3.82476 0
M  V30 1658 H 155.348 3.58939 5.48491 0
M  V30 1659 H 154.868 1.88945 5.69263 0
M  V30 1660 H 156.547 2.39066 6.01212 0
M  V30 1661 N 156.679 -1.44442 0.630414 0
M  V30 1662 C 157.928 -2.01267 0.132073 0
M  V30 1663 C 158.241 -1.50172 -1.25331 0
M  V30 1664 O 159.447 -1.9912 -1.84562 0
M  V30 1665 C 157.903 -3.59422 0.185362 0
M  V30 1666 C 157.511 -4.19514 1.57201 0
M  V30 1667 C 159.255 -4.23724 -0.256553 0
M  V30 1668 C 157.162 -5.69891 1.58045 0
M  V30 1669 H 156.092 -0.752619 0.0456092 0
M  V30 1670 H 158.743 -1.65666 0.789106 0
M  V30 1671 H 157.125 -3.92318 -0.538759 0
M  V30 1672 H 158.299 -3.98156 2.31966 0
M  V30 1673 H 156.614 -3.67496 1.95795 0
M  V30 1674 H 159.211 -5.34019 -0.269767 0
M  V30 1675 H 159.554 -3.96013 -1.28372 0
M  V30 1676 H 160.087 -3.95629 0.41505 0
M  V30 1677 H 156.826 -6.02336 2.58597 0
M  V30 1678 H 156.346 -5.93373 0.875725 0
M  V30 1679 H 158.025 -6.33515 1.31408 0
M  V30 1680 N 158.157 -0.370918 -1.53173 0
M  V30 1681 C 159.385 0.217704 -2.05751 0
M  V30 1682 C 159.8 1.42018 -1.24404 0
M  V30 1683 O 159.157 1.80245 -0.286033 0
M  V30 1684 C 159.208 0.605954 -3.56385 0
M  V30 1685 O 158.929 -0.548734 -4.3465 0
M  V30 1686 C 160.43 1.2524 -4.25241 0
M  V30 1687 H 157.65 0.0371659 -0.66997 0
M  V30 1688 H 160.194 -0.530832 -1.9749 0
M  V30 1689 H 158.349 1.3044 -3.6478 0
M  V30 1690 H 158.763 -0.23376 -5.23979 0
M  V30 1691 H 160.237 1.47458 -5.3194 0
M  V30 1692 H 160.714 2.2143 -3.79296 0
M  V30 1693 H 161.32 0.595233 -4.21114 0
M  V30 1694 N 159.635 1.57281 -0.100228 0
M  V30 1695 C 160.545 2.17833 0.870965 0
M  V30 1696 C 161.561 1.14921 1.30649 0
M  V30 1697 O 162.737 1.47313 1.37335 0
M  V30 1698 C 159.802 2.75085 2.1102 0
M  V30 1699 C 158.863 3.9297 1.72838 0
M  V30 1700 C 158.096 4.47482 2.90854 0
M  V30 1701 O 158.319 4.00922 4.05731 0
M  V30 1702 O 157.253 5.38433 2.69023 0
M  V30 1703 H 161.079 3.0124 0.38575 0
M  V30 1704 H 158.664 1.48881 0.124397 0
M  V30 1705 H 160.546 3.11656 2.83634 0
M  V30 1706 H 159.221 1.94721 2.58584 0
M  V30 1707 H 158.128 3.61201 0.973883 0
M  V30 1708 H 159.461 4.74713 1.30033 0
M  V30 1709 N 161.113 -0.173488 1.56642 0
M  V30 1710 C 162.338 -0.910149 1.86363 0
M  V30 1711 C 162.763 -1.75132 0.686318 0
M  V30 1712 O 162.121 -1.77595 -0.364643 0
M  V30 1713 C 162.169 -1.76447 3.14482 0
M  V30 1714 O 161.273 -2.86584 2.96553 0
M  V30 1715 H 160.614 -0.255086 0.613047 0
M  V30 1716 H 163.144 -0.172283 2.03873 0
M  V30 1717 H 163.154 -2.16483 3.45831 0
M  V30 1718 H 161.829 -1.14658 3.99783 0
M  V30 1719 H 160.406 -2.50146 2.76553 0
M  V30 1720 N 162.591 -1.51276 -0.441967 0
M  V30 1721 C 163.521 -1.752 -1.54361 0
M  V30 1722 C 164.502 -0.601682 -1.59103 0
M  V30 1723 O 165.687 -0.843913 -1.74905 0
M  V30 1724 C 162.817 -1.87282 -2.92477 0
M  V30 1725 C 161.771 -3.02687 -3.02596 0
M  V30 1726 C 161.097 -2.99947 -4.42647 0
M  V30 1727 C 162.397 -4.4273 -2.77106 0
M  V30 1728 H 164.091 -2.67442 -1.34592 0
M  V30 1729 H 161.637 -1.28694 -0.646048 0
M  V30 1730 H 163.59 -2.02602 -3.695 0
M  V30 1731 H 162.314 -0.916844 -3.13467 0
M  V30 1732 H 160.973 -2.87065 -2.28012 0
M  V30 1733 H 160.621 -2.02136 -4.60597 0
M  V30 1734 H 160.321 -3.77439 -4.50348 0
M  V30 1735 H 161.845 -3.17354 -5.2165 0
M  V30 1736 H 163.259 -4.58727 -3.43864 0
M  V30 1737 H 161.656 -5.21893 -2.96222 0
M  V30 1738 H 162.726 -4.53087 -1.72744 0
M  V30 1739 N 164.069 0.697108 -1.41344 0
M  V30 1740 C 165.017 1.83237 -1.43272 0
M  V30 1741 C 166.011 1.66522 -0.310947 0
M  V30 1742 O 167.217 1.73402 -0.482899 0
M  V30 1743 H 163.592 0.603802 -0.448249 0
M  V30 1744 H 165.563 1.78727 -2.38954 0
M  V30 1745 C 164.312 3.21245 -1.33029 0
M  V30 1746 H 163.635 3.34723 -2.18633 0
M  V30 1747 H 165.075 4.00763 -1.38439 0
M  V30 1748 C 163.534 3.36873 -0.0424635 0
M  V30 1749 O 164.064 3.91177 0.913421 0
M  V30 1750 N 162.27 2.90581 0.0331145 0
M  V30 1751 H 161.817 2.46577 -0.745506 0
M  V30 1752 H 161.775 3.01416 0.894199 0
M  V30 1753 N 165.547 1.27147 0.931209 0
M  V30 1754 C 166.775 1.16082 1.71267 0
M  V30 1755 C 167.19 -0.282772 1.8667 0
M  V30 1756 O 166.547 -1.19283 1.38122 0
M  V30 1757 C 166.598 1.8358 3.11417 0
M  V30 1758 O 166.319 3.22299 2.96741 0
M  V30 1759 C 167.82 1.78597 4.05732 0
M  V30 1760 H 165.04 0.403758 0.535929 0
M  V30 1761 H 167.584 1.67953 1.16671 0
M  V30 1762 H 165.739 1.35623 3.62885 0
M  V30 1763 H 166.153 3.55851 3.85319 0
M  V30 1764 H 167.627 2.30444 5.01597 0
M  V30 1765 H 168.104 0.754564 4.3267 0
M  V30 1766 H 168.71 2.26152 3.60188 0
M  V30 1767 N 167.025 -1.13721 1.09112 0
M  V30 1768 C 168.25 -1.89314 0.847053 0
M  V30 1769 C 168.675 -1.78416 -0.595774 0
M  V30 1770 O 168.033 -1.12942 -1.41823 0
M  V30 1771 C 168.081 -3.3701 1.28284 0
M  V30 1772 O 167.185 -4.10054 0.439267 0
M  V30 1773 H 166.526 -0.588745 0.307044 0
M  V30 1774 H 169.056 -1.43902 1.45442 0
M  V30 1775 H 169.066 -3.87834 1.26683 0
M  V30 1776 H 167.741 -3.4426 2.33363 0
M  V30 1777 H 166.318 -3.69266 0.519312 0
M  V30 1778 N 168.503 -0.877838 -1.30888 0
M  V30 1779 C 169.435 -0.296607 -2.27273 0
M  V30 1780 C 170.448 0.544799 -1.53414 0
M  V30 1781 O 171.637 0.365511 -1.74718 0
M  V30 1782 C 168.737 0.597481 -3.33592 0
M  V30 1783 C 167.91 -0.213251 -4.3688 0
M  V30 1784 C 166.969 0.610208 -5.2265 0
M  V30 1785 O 165.995 0.035441 -5.69189 0
M  V30 1786 N 167.197 1.92071 -5.47804 0
M  V30 1787 H 169.962 -1.12492 -2.77787 0
M  V30 1788 H 167.523 -0.740105 -1.43993 0
M  V30 1789 H 169.515 1.15425 -3.87891 0
M  V30 1790 H 168.085 1.32647 -2.83061 0
M  V30 1791 H 167.305 -0.951466 -3.82545 0
M  V30 1792 H 168.593 -0.769262 -5.02951 0
M  V30 1793 H 167.991 2.4107 -5.11763 0
M  V30 1794 H 166.548 2.42508 -6.05007 0
M  V30 1795 N 169.982 1.44106 -0.638065 0
M  V30 1796 C 171.212 2.06037 -0.152394 0
M  V30 1797 C 171.62 1.47808 1.18108 0
M  V30 1798 O 170.963 0.598092 1.73691 0
M  V30 1799 C 171.025 3.59488 0.0293714 0
M  V30 1800 C 170.689 4.4022 -1.22702 0
M  V30 1801 C 171.686 4.73256 -2.15232 0
M  V30 1802 C 169.371 4.8048 -1.46437 0
M  V30 1803 C 171.365 5.45444 -3.29802 0
M  V30 1804 C 169.052 5.52417 -2.61303 0
M  V30 1805 C 170.05 5.84819 -3.52811 0
M  V30 1806 O 169.738 6.55289 -4.65673 0
M  V30 1807 H 169.47 0.671233 -0.0801401 0
M  V30 1808 H 172.024 1.85851 -0.874563 0
M  V30 1809 H 170.254 3.78191 0.806758 0
M  V30 1810 H 171.943 4.03164 0.470475 0
M  V30 1811 H 172.709 4.42684 -1.98131 0
M  V30 1812 H 168.588 4.54676 -0.760977 0
M  V30 1813 H 172.132 5.70653 -4.01249 0
M  V30 1814 H 168.029 5.82404 -2.78344 0
M  V30 1815 H 168.797 6.73762 -4.64744 0
M  V30 1816 N 171.46 0.379036 1.52974 0
M  V30 1817 C 172.688 -0.20679 2.05864 0
M  V30 1818 C 173.103 -1.41356 1.25155 0
M  V30 1819 O 172.46 -1.8009 0.295588 0
M  V30 1820 C 172.511 -0.587045 3.56702 0
M  V30 1821 O 172.232 0.571776 4.34353 0
M  V30 1822 C 173.733 -1.22983 4.25899 0
M  V30 1823 H 170.953 -0.0336123 0.670158 0
M  V30 1824 H 173.497 0.541298 1.97206 0
M  V30 1825 H 171.652 -1.28504 3.65466 0
M  V30 1826 H 172.066 0.261544 5.23847 0
M  V30 1827 H 173.54 -1.44635 5.32715 0
M  V30 1828 H 174.017 -2.19416 3.80465 0
M  V30 1829 H 174.623 -0.572892 4.21424 0
M  V30 1830 N 172.938 -1.57226 0.108567 0
M  V30 1831 C 174.168 -1.9889 -0.559142 0
M  V30 1832 C 174.576 -0.986889 -1.61422 0
M  V30 1833 O 173.919 0.0298705 -1.83676 0
M  V30 1834 C 173.981 -3.36952 -1.25315 0
M  V30 1835 C 173.645 -4.55679 -0.347248 0
M  V30 1836 C 174.642 -5.18281 0.409996 0
M  V30 1837 C 172.327 -5.0162 -0.261367 0
M  V30 1838 C 174.321 -6.25203 1.24096 0
M  V30 1839 C 172.008 -6.08405 0.573238 0
M  V30 1840 C 173.006 -6.70063 1.32304 0
M  V30 1841 O 172.694 -7.74788 2.14381 0
M  V30 1842 H 172.426 -0.658343 -0.153492 0
M  V30 1843 H 174.98 -2.04532 0.188584 0
M  V30 1844 H 173.21 -3.28032 -2.04773 0
M  V30 1845 H 174.899 -3.62974 -1.81673 0
M  V30 1846 H 175.665 -4.8371 0.353457 0
M  V30 1847 H 171.544 -4.53381 -0.834656 0
M  V30 1848 H 175.088 -6.73259 1.82669 0
M  V30 1849 H 170.985 -6.42406 0.631208 0
M  V30 1850 H 171.753 -7.91837 2.07209 0
M  V30 1851 N 174.416 0.165178 -1.56732 0
M  V30 1852 C 175.326 1.22423 -2.00125 0
M  V30 1853 C 176.342 1.48084 -0.913619 0
M  V30 1854 O 177.518 1.60112 -1.22172 0
M  V30 1855 C 174.583 2.54197 -2.35764 0
M  V30 1856 C 173.644 2.36343 -3.58386 0
M  V30 1857 C 172.877 3.61834 -3.92316 0
M  V30 1858 O 173.1 4.67267 -3.27135 0
M  V30 1859 O 172.034 3.55579 -4.85641 0
M  V30 1860 H 175.86 0.885886 -2.90492 0
M  V30 1861 H 173.445 0.372518 -1.44681 0
M  V30 1862 H 175.327 3.3192 -2.59629 0
M  V30 1863 H 174.002 2.87598 -1.48557 0
M  V30 1864 H 172.909 1.56632 -3.39731 0
M  V30 1865 H 174.242 2.07865 -4.46154 0
M  V30 1866 N 175.894 1.51508 0.433938 0
M  V30 1867 C 177.143 1.63578 1.18005 0
M  V30 1868 C 177.456 0.359514 1.92268 0
M  V30 1869 O 178.662 0.359632 2.69108 0
M  V30 1870 C 177.118 2.88901 2.14626 0
M  V30 1871 C 176.726 4.23544 1.45995 0
M  V30 1872 C 178.47 3.10328 2.89649 0
M  V30 1873 C 176.377 5.40014 2.4112 0
M  V30 1874 H 175.307 0.609277 0.444182 0
M  V30 1875 H 177.958 1.77978 0.446773 0
M  V30 1876 H 176.34 2.68142 2.91403 0
M  V30 1877 H 177.514 4.54696 0.747532 0
M  V30 1878 H 175.829 4.08021 0.831115 0
M  V30 1879 H 178.426 3.94518 3.60915 0
M  V30 1880 H 178.769 2.23544 3.51189 0
M  V30 1881 H 179.302 3.31443 2.19978 0
M  V30 1882 H 176.041 6.29068 1.84264 0
M  V30 1883 H 175.561 5.13233 3.10406 0
M  V30 1884 H 177.24 5.72099 3.02177 0
M  V30 1885 N 177.372 -0.689602 1.41712 0
M  V30 1886 C 178.335 -1.78521 1.43746 0
M  V30 1887 C 179.335 -1.57436 0.327191 0
M  V30 1888 O 180.525 -1.64 0.587348 0
M  V30 1889 C 177.657 -3.16971 1.25467 0
M  V30 1890 H 178.85 -1.78108 2.41283 0
M  V30 1891 H 176.403 -0.89781 1.27942 0
M  V30 1892 H 177.138 -3.23019 0.287948 0
M  V30 1893 H 176.923 -3.33678 2.05917 0
M  V30 1894 H 178.413 -3.96935 1.2974 0
M  V30 1895 N 178.85 -1.27639 -0.924453 0
M  V30 1896 C 180.261 -1.12834 -1.48746 0
M  V30 1897 C 180.612 0.285505 -1.94112 0
M  V30 1898 O 179.737 1.17874 -1.81479 0
M  V30 1899 C 180.332 -2.04217 -2.70334 0
M  V30 1900 C 178.891 -1.93509 -3.22848 0
M  V30 1901 C 178.038 -1.96583 -1.95577 0
M  V30 1902 H 180.989 -1.40484 -0.738233 0
M  V30 1903 H 181.01 -1.59989 -3.4523 0
M  V30 1904 H 180.522 -3.07111 -2.37285 0
M  V30 1905 H 178.623 -0.936131 -3.60649 0
M  V30 1906 H 178.736 -2.79917 -3.88823 0
M  V30 1907 H 177.1 -1.4085 -2.12211 0
M  V30 1908 H 177.883 -3.01137 -1.64837 0
M  V30 1909 N 180.328 1.1314 -1.09713 0
M  V30 1910 C 181.574 1.84757 -0.836224 0
M  V30 1911 C 181.907 1.8347 0.636598 0
M  V30 1912 O 181.182 1.27491 1.46889 0
M  V30 1913 C 181.465 3.32782 -1.37578 0
M  V30 1914 C 181.318 3.42567 -2.91493 0
M  V30 1915 C 182.637 4.28307 -1.01198 0
M  V30 1916 H 179.756 0.67082 -0.305236 0
M  V30 1917 H 182.398 1.3278 -1.35903 0
M  V30 1918 H 180.548 3.77177 -0.931097 0
M  V30 1919 H 182.22 3.06862 -3.44432 0
M  V30 1920 H 180.463 2.83349 -3.28475 0
M  V30 1921 H 181.134 4.46674 -3.24324 0
M  V30 1922 H 183.61 3.91999 -1.39556 0
M  V30 1923 H 182.486 5.30307 -1.41653 0
M  V30 1924 H 182.747 4.42029 0.0794833 0
M  V30 1925 N 181.806 0.884767 1.30421 0
M  V30 1926 C 183.053 0.503105 1.96151 0
M  V30 1927 C 183.381 -0.947676 1.69851 0
M  V30 1928 O 182.636 -1.68467 0.995861 0
M  V30 1929 C 182.935 0.724318 3.49983 0
M  V30 1930 C 182.601 2.15015 3.96332 0
M  V30 1931 C 181.263 2.54005 4.08699 0
M  V30 1932 C 183.615 3.07936 4.20505 0
M  V30 1933 C 180.943 3.85128 4.42599 0
M  V30 1934 C 183.295 4.3859 4.55874 0
M  V30 1935 C 181.959 4.77474 4.66449 0
M  V30 1936 H 181.229 0.184099 0.717766 0
M  V30 1937 H 183.876 1.12058 1.55291 0
M  V30 1938 H 182.181 0.0238086 3.91793 0
M  V30 1939 H 183.878 0.408617 3.98913 0
M  V30 1940 H 180.468 1.8375 3.87213 0
M  V30 1941 H 184.652 2.79033 4.10431 0
M  V30 1942 H 179.908 4.14996 4.48986 0
M  V30 1943 H 184.082 5.10629 4.7353 0
M  V30 1944 H 181.709 5.79115 4.92473 0
M  V30 1945 N 183.284 -1.43765 0.645699 0
M  V30 1946 C 184.53 -2.02197 0.156271 0
M  V30 1947 C 184.863 -1.50776 -1.22393 0
M  V30 1948 O 184.138 -0.697771 -1.81553 0
M  V30 1949 C 184.421 -3.59749 0.158872 0
M  V30 1950 C 184.274 -4.21419 1.57245 0
M  V30 1951 C 185.593 -4.37149 -0.50879 0
M  V30 1952 H 182.712 -0.734694 0.0582602 0
M  V30 1953 H 185.354 -1.71157 0.824951 0
M  V30 1954 H 183.504 -3.86325 -0.410525 0
M  V30 1955 H 185.176 -4.059 2.19186 0
M  V30 1956 H 183.419 -3.78356 2.122 0
M  V30 1957 H 184.09 -5.30482 1.52619 0
M  V30 1958 H 186.566 -4.16093 -0.024412 0
M  V30 1959 H 185.442 -5.4683 -0.476213 0
M  V30 1960 H 185.703 -4.12839 -1.58165 0
M  V30 1961 N 184.763 -0.387143 -1.52771 0
M  V30 1962 C 185.693 0.440551 -2.29306 0
M  V30 1963 C 186.674 1.06535 -1.32606 0
M  V30 1964 O 187.859 1.07853 -1.61497 0
M  V30 1965 C 184.989 1.56919 -3.09829 0
M  V30 1966 C 183.943 1.07054 -4.14395 0
M  V30 1967 C 183.269 2.29109 -4.83129 0
M  V30 1968 C 184.569 0.140015 -5.22112 0
M  V30 1969 H 186.263 -0.198026 -2.98744 0
M  V30 1970 H 183.809 -0.09668 -1.43675 0
M  V30 1971 H 185.762 2.15503 -3.62128 0
M  V30 1972 H 184.486 2.23532 -2.3812 0
M  V30 1973 H 183.145 0.507247 -3.63074 0
M  V30 1974 H 182.793 2.94227 -4.0797 0
M  V30 1975 H 182.493 1.96406 -5.53804 0
M  V30 1976 H 184.017 2.88339 -5.38231 0
M  V30 1977 H 185.431 0.633978 -5.69784 0
M  V30 1978 H 183.828 -0.0971485 -6.00021 0
M  V30 1979 H 184.898 -0.811711 -4.78058 0
M  V30 1980 N 186.241 1.57166 -0.116904 0
M  V30 1981 C 187.174 2.10912 0.871291 0
M  V30 1982 C 188.152 1.025 1.26224 0
M  V30 1983 O 189.336 1.3014 1.36366 0
M  V30 1984 C 186.463 2.6041 2.16574 0
M  V30 1985 C 185.509 3.80687 1.92302 0
M  V30 1986 S 186.342 5.23199 1.14119 0
M  V30 1987 C 187.498 5.76064 2.44748 0
M  V30 1988 H 187.731 2.94401 0.414138 0
M  V30 1989 H 185.264 1.54096 0.096829 0
M  V30 1990 H 187.222 2.89583 2.9095 0
M  V30 1991 H 185.883 1.77106 2.59408 0
M  V30 1992 H 185.076 4.13462 2.8821 0
M  V30 1993 H 184.678 3.5212 1.26047 0
M  V30 1994 H 186.97 5.8566 3.406 0
M  V30 1995 H 187.913 6.74184 2.16521 0
M  V30 1996 H 188.321 5.04117 2.54019 0
M  V30 1997 N 187.719 -0.156864 1.56817 0
M  V30 1998 C 188.629 -1.2136 2.00771 0
M  V30 1999 C 189.645 -1.47598 0.921459 0
M  V30 2000 O 190.821 -1.59462 1.2302 0
M  V30 2001 C 187.886 -2.52943 2.37109 0
M  V30 2002 C 186.947 -2.34439 3.59634 0
M  V30 2003 C 186.18 -3.59748 3.94229 0
M  V30 2004 O 186.403 -4.65526 3.29609 0
M  V30 2005 O 185.337 -3.52998 4.8752 0
M  V30 2006 H 189.163 -0.870468 2.90958 0
M  V30 2007 H 186.748 -0.36484 1.44877 0
M  V30 2008 H 188.63 -3.30538 2.61386 0
M  V30 2009 H 187.305 -2.86806 1.5008 0
M  V30 2010 H 186.212 -1.54828 3.40557 0
M  V30 2011 H 187.545 -2.05496 4.4725 0
M  V30 2012 N 189.197 -1.51736 -0.425897 0
M  V30 2013 C 190.107 -1.76738 -1.54275 0
M  V30 2014 C 191.123 -0.65211 -1.61318 0
M  V30 2015 O 192.299 -0.935654 -1.78346 0
M  V30 2016 C 189.364 -1.89755 -2.90162 0
M  V30 2017 C 188.425 -3.13633 -2.93143 0
M  V30 2018 C 187.658 -3.2602 -4.22548 0
M  V30 2019 O 187.881 -2.44067 -5.15546 0
M  V30 2020 O 186.815 -4.19071 -4.32046 0
M  V30 2021 H 190.641 -2.71502 -1.36089 0
M  V30 2022 H 188.226 -1.36376 -0.610069 0
M  V30 2023 H 190.108 -2.00236 -3.70788 0
M  V30 2024 H 188.783 -0.981785 -3.08452 0
M  V30 2025 H 187.69 -3.08622 -2.11431 0
M  V30 2026 H 189.023 -4.04936 -2.798 0
M  V30 2027 N 190.675 0.682077 -1.42076 0
M  V30 2028 C 191.585 1.82535 -1.47371 0
M  V30 2029 C 192.601 1.7017 -0.363079 0
M  V30 2030 O 193.777 1.91848 -0.612875 0
M  V30 2031 C 190.842 3.18624 -1.36674 0
M  V30 2032 C 189.903 3.42999 -2.58167 0
M  V30 2033 C 189.136 4.72595 -2.4797 0
M  V30 2034 O 189.359 5.50006 -1.5116 0
M  V30 2035 O 188.293 4.98054 -3.37974 0
M  V30 2036 H 192.119 1.81023 -2.43853 0
M  V30 2037 H 189.704 0.836887 -1.2376 0
M  V30 2038 H 191.586 3.99847 -1.33043 0
M  V30 2039 H 190.261 3.20789 -0.433138 0
M  V30 2040 H 189.168 2.61653 -2.67373 0
M  V30 2041 H 190.501 3.45659 -3.50401 0
M  V30 2042 N 192.153 1.28127 0.917671 0
M  V30 2043 C 193.399 1.15223 1.66888 0
M  V30 2044 C 193.732 -0.299293 1.9188 0
M  V30 2045 O 193.007 -1.21805 1.51637 0
M  V30 2046 C 193.29 1.94706 3.02922 0
M  V30 2047 C 193.143 3.47898 2.85109 0
M  V30 2048 C 194.462 1.75939 4.03402 0
M  V30 2049 H 191.581 0.419946 0.605652 0
M  V30 2050 H 194.223 1.57398 1.06423 0
M  V30 2051 H 192.373 1.58864 3.54534 0
M  V30 2052 H 194.045 3.93624 2.40537 0
M  V30 2053 H 192.288 3.7373 2.20246 0
M  V30 2054 H 192.959 3.98765 3.81694 0
M  V30 2055 H 195.435 2.07209 3.60837 0
M  V30 2056 H 194.311 2.33931 4.96556 0
M  V30 2057 H 194.572 0.709877 4.36364 0
M  V30 2058 N 193.631 -1.12557 1.10312 0
M  V30 2059 C 194.561 -2.20341 0.772798 0
M  V30 2060 C 195.542 -1.68198 -0.25365 0
M  V30 2061 O 196.727 -1.93831 -0.119699 0
M  V30 2062 C 193.857 -3.46709 0.202443 0
M  V30 2063 C 192.811 -4.11996 1.15943 0
M  V30 2064 C 192.137 -5.328 0.450345 0
M  V30 2065 C 193.437 -4.5828 2.50552 0
M  V30 2066 H 195.131 -2.48229 1.674 0
M  V30 2067 H 192.677 -1.19308 0.806326 0
M  V30 2068 H 194.63 -4.2138 -0.0407752 0
M  V30 2069 H 193.354 -3.18245 -0.734001 0
M  V30 2070 H 192.013 -3.39305 1.38808 0
M  V30 2071 H 191.661 -5.00602 -0.490531 0
M  V30 2072 H 191.361 -5.7743 1.08851 0
M  V30 2073 H 192.885 -6.10219 0.215642 0
M  V30 2074 H 194.299 -5.2433 2.31843 0
M  V30 2075 H 192.696 -5.13683 3.10242 0
M  V30 2076 H 193.766 -3.72329 3.10643 0
M  V30 2077 N 195.109 -0.891671 -1.2995 0
M  V30 2078 C 196.525 -0.58662 -1.48428 0
M  V30 2079 C 196.725 0.873951 -1.81561 0
M  V30 2080 O 195.781 1.65471 -1.90724 0
M  V30 2081 C 197.094 -1.50553 -2.60296 0
M  V30 2082 C 198.642 -1.50988 -2.74175 0
M  V30 2083 C 199.117 -2.41488 -3.89163 0
M  V30 2084 N 200.608 -2.39489 -3.96483 0
M  V30 2085 C 201.343 -3.06223 -4.84784 0
M  V30 2086 N 200.839 -3.82206 -5.77833 0
M  V30 2087 N 202.632 -2.95421 -4.78208 0
M  V30 2088 H 194.783 -1.83644 -1.06718 0
M  V30 2089 H 197.046 -0.786455 -0.529332 0
M  V30 2090 H 196.752 -2.54581 -2.42654 0
M  V30 2091 H 196.626 -1.22008 -3.56923 0
M  V30 2092 H 199.013 -0.47708 -2.91218 0
M  V30 2093 H 199.094 -1.83567 -1.78148 0
M  V30 2094 H 198.738 -3.44857 -3.72876 0
M  V30 2095 H 198.668 -2.06222 -4.84541 0
M  V30 2096 H 201.159 -1.84278 -3.29924 0
M  V30 2097 H 201.472 -4.302 -6.41988 0
M  V30 2098 H 199.817 -3.86313 -5.77743 0
M  V30 2099 H 203.008 -2.35581 -4.04499 0
M  V30 2100 H 203.181 -3.47704 -5.46814 0
M  V30 2101 N 196.587 1.43421 -0.653314 0
M  V30 2102 C 197.534 2.30768 0.0382271 0
M  V30 2103 C 198.504 1.44755 0.814576 0
M  V30 2104 O 199.689 1.73624 0.791162 0
M  V30 2105 C 196.829 3.30336 0.998599 0
M  V30 2106 C 195.942 4.31448 0.218342 0
M  V30 2107 C 195.077 5.18098 1.17252 0
M  V30 2108 C 194.116 6.10902 0.382702 0
M  V30 2109 N 193.253 6.90176 1.28848 0
M  V30 2110 H 198.093 2.89357 -0.712511 0
M  V30 2111 H 195.63 1.42548 -0.363128 0
M  V30 2112 H 197.588 3.86572 1.56901 0
M  V30 2113 H 196.218 2.73397 1.71621 0
M  V30 2114 H 195.27 3.77506 -0.46836 0
M  V30 2115 H 196.582 4.97227 -0.395812 0
M  V30 2116 H 195.736 5.7896 1.81356 0
M  V30 2117 H 194.475 4.52444 1.82058 0
M  V30 2118 H 193.48 5.49128 -0.27169 0
M  V30 2119 H 194.705 6.78598 -0.260957 0
M  V30 2120 H 192.651 6.27171 1.92334 0
M  V30 2121 H 192.568 7.52478 0.728887 0
M  V30 2122 H 193.836 7.55543 1.91766 0
M  V30 2123 N 198.065 0.39524 1.52563 0
M  V30 2124 C 198.995 -0.428384 2.29537 0
M  V30 2125 C 199.976 -1.05831 1.33169 0
M  V30 2126 O 201.161 -1.06995 1.62067 0
M  V30 2127 C 198.291 -1.55274 3.10656 0
M  V30 2128 C 197.245 -1.04855 4.14957 0
M  V30 2129 C 196.571 -2.26543 4.84337 0
M  V30 2130 C 197.871 -0.112324 5.22179 0
M  V30 2131 H 199.565 0.213867 2.98635 0
M  V30 2132 H 197.111 0.104298 1.43622 0
M  V30 2133 H 199.064 -2.1358 3.63265 0
M  V30 2134 H 197.788 -2.22266 2.39302 0
M  V30 2135 H 196.447 -0.487985 3.63338 0
M  V30 2136 H 196.095 -2.92059 4.09525 0
M  V30 2137 H 195.795 -1.93466 5.54837 0
M  V30 2138 H 197.319 -2.85481 5.39753 0
M  V30 2139 H 198.733 -0.603752 5.70112 0
M  V30 2140 H 197.13 0.128968 5.99961 0
M  V30 2141 H 198.2 0.837052 4.77621 0
M  V30 2142 N 199.544 -1.57102 0.125237 0
M  V30 2143 C 200.96 -1.57915 -0.231322 0
M  V30 2144 C 201.16 -1.13833 -1.66266 0
M  V30 2145 O 200.216 -0.828581 -2.38518 0
M  V30 2146 C 201.529 -3.00699 0.00766489 0
M  V30 2147 C 203.077 -3.12947 -0.0577483 0
M  V30 2148 C 203.552 -4.57742 0.153626 0
M  V30 2149 N 205.043 -4.63092 0.0998073 0
M  V30 2150 C 205.778 -5.72905 0.238174 0
M  V30 2151 N 205.274 -6.91445 0.433057 0
M  V30 2152 N 207.067 -5.6182 0.177308 0
M  V30 2153 H 199.218 -1.84055 1.06007 0
M  V30 2154 H 201.481 -0.850905 0.417929 0
M  V30 2155 H 201.187 -3.3726 0.997431 0
M  V30 2156 H 201.061 -3.70236 -0.721452 0
M  V30 2157 H 203.448 -2.7624 -1.03804 0
M  V30 2158 H 203.529 -2.4594 0.70335 0
M  V30 2159 H 203.173 -4.95149 1.13092 0
M  V30 2160 H 203.103 -5.22848 -0.627534 0
M  V30 2161 H 205.594 -3.77871 -0.047051 0
M  V30 2162 H 205.907 -7.70985 0.529332 0
M  V30 2163 H 204.252 -6.93415 0.469109 0
M  V30 2164 H 207.443 -4.68093 0.0259748 0
M  V30 2165 H 207.616 -6.47357 0.288582 0
M  V30 2166 N 201.022 0.148545 -1.56898 0
M  V30 2167 C 201.985 1.16736 -1.97244 0
M  V30 2168 C 202.985 1.35947 -0.858777 0
M  V30 2169 O 204.175 1.32966 -1.12542 0
M  V30 2170 C 201.307 2.52798 -2.28705 0
M  V30 2171 H 202.5 0.821279 -2.88435 0
M  V30 2172 H 200.053 0.391831 -1.51309 0
M  V30 2173 H 200.788 2.92381 -1.403 0
M  V30 2174 H 200.573 2.40216 -3.09901 0
M  V30 2175 H 202.063 3.26179 -2.60762 0
M  V30 2176 N 202.5 1.5196 0.417844 0
M  V30 2177 C 203.43 1.77634 1.51554 0
M  V30 2178 C 204.411 0.626918 1.58126 0
M  V30 2179 O 205.596 0.871632 1.7354 0
M  V30 2180 C 202.726 1.91911 2.8946 0
M  V30 2181 C 201.68 3.07463 2.97743 0
M  V30 2182 C 201.006 3.06951 4.37819 0
M  V30 2183 C 202.306 4.47082 2.70027 0
M  V30 2184 H 204 2.6955 1.3032 0
M  V30 2185 H 201.546 1.29706 0.625492 0
M  V30 2186 H 203.499 2.08455 3.6623 0
M  V30 2187 H 202.223 0.966598 3.11969 0
M  V30 2188 H 200.882 2.90656 2.23416 0
M  V30 2189 H 200.53 2.09438 4.57323 0
M  V30 2190 H 200.23 3.84556 4.44286 0
M  V30 2191 H 201.754 3.25613 5.16535 0
M  V30 2192 H 203.168 4.6414 3.36522 0
M  V30 2193 H 201.565 5.2654 2.87881 0
M  V30 2194 H 202.635 4.55777 1.65514 0
M  V30 2195 N 203.978 -0.674533 1.42435 0
M  V30 2196 C 205.224 -1.43671 1.43131 0
M  V30 2197 C 205.557 -1.94142 0.0476021 0
M  V30 2198 O 204.832 -1.70924 -0.928188 0
M  V30 2199 C 205.115 -2.63355 2.45594 0
M  V30 2200 C 204.968 -2.18514 3.93156 0
M  V30 2201 C 206.287 -3.65571 2.45043 0
M  V30 2202 H 203.406 -0.521077 0.521198 0
M  V30 2203 H 206.048 -0.766551 1.7385 0
M  V30 2204 H 204.198 -3.2053 2.19528 0
M  V30 2205 H 205.87 -1.66504 4.30202 0
M  V30 2206 H 204.113 -1.50086 4.07009 0
M  V30 2207 H 204.784 -3.04484 4.60428 0
M  V30 2208 H 207.26 -3.18113 2.68223 0
M  V30 2209 H 206.136 -4.46893 3.18713 0
M  V30 2210 H 206.397 -4.16716 1.47649 0
M  V30 2211 N 205.456 -1.28612 -0.910864 0
M  V30 2212 C 206.704 -1.15705 -1.65701 0
M  V30 2213 C 207.025 0.29416 -1.92769 0
M  V30 2214 O 206.295 1.20331 -1.54588 0
M  V30 2215 H 204.875 -0.425216 -0.614167 0
M  V30 2216 H 207.537 -1.61381 -1.0928 0
M  V30 2217 H 206.633 -1.6988 -2.61815 0
M  V30 2218 N 206.934 1.1197 -1.10907 0
M  V30 2219 C 208.18 1.84059 -0.865674 0
M  V30 2220 C 208.535 1.82731 0.602254 0
M  V30 2221 O 207.828 1.26543 1.43866 0
M  V30 2222 C 208.022 3.30749 -1.35425 0
M  V30 2223 C 207.851 3.46363 -2.86815 0
M  V30 2224 C 206.621 3.59712 -3.54874 0
M  V30 2225 C 208.819 3.41116 -3.84895 0
M  V30 2226 N 206.801 3.63741 -4.94536 0
M  V30 2227 C 208.172 3.51698 -5.10596 0
M  V30 2228 C 210.227 3.24612 -3.77533 0
M  V30 2229 C 208.93 3.4748 -6.29802 0
M  V30 2230 C 210.956 3.21708 -4.96244 0
M  V30 2231 C 210.318 3.32856 -6.20795 0
M  V30 2232 H 206.417 0.689015 -0.369841 0
M  V30 2233 H 209.001 1.34016 -1.41237 0
M  V30 2234 H 207.172 3.79322 -0.834814 0
M  V30 2235 H 208.904 3.90718 -1.05458 0
M  V30 2236 H 205.659 3.62038 -3.05329 0
M  V30 2237 H 206.083 3.69408 -5.67333 0
M  V30 2238 H 210.725 3.14883 -2.8215 0
M  V30 2239 H 208.443 3.55978 -7.25469 0
M  V30 2240 H 212.029 3.10113 -4.92261 0
M  V30 2241 H 210.909 3.3059 -7.11112 0
M  V30 2242 N 208.412 0.89855 1.29475 0
M  V30 2243 C 209.637 0.538561 2.00285 0
M  V30 2244 C 210.062 -0.869135 1.66816 0
M  V30 2245 O 209.42 -1.57831 0.892145 0
M  V30 2246 C 209.468 0.736475 3.52999 0
M  V30 2247 O 208.572 -0.211537 4.11857 0
M  V30 2248 H 207.913 0.210563 0.62973 0
M  V30 2249 H 210.443 1.20982 1.64998 0
M  V30 2250 H 210.453 0.640685 4.02938 0
M  V30 2251 H 209.128 1.76276 3.76696 0
M  V30 2252 H 207.705 -0.0682991 3.72837 0
M  V30 2253 N 209.89 -1.43072 0.660911 0
M  V30 2254 C 211.115 -2.06584 0.183805 0
M  V30 2255 C 211.54 -1.49257 -1.14472 0
M  V30 2256 O 210.898 -0.605528 -1.70889 0
M  V30 2257 C 210.946 -3.60418 0.114434 0
M  V30 2258 O 210.05 -4.01981 -0.921137 0
M  V30 2259 H 209.391 -0.656669 0.0983994 0
M  V30 2260 H 211.921 -1.83447 0.906006 0
M  V30 2261 H 211.931 -4.07946 -0.0663394 0
M  V30 2262 H 210.606 -4.01519 1.08422 0
M  V30 2263 H 209.183 -3.66029 -0.71253 0
M  V30 2264 N 211.368 -0.403325 -1.52352 0
M  V30 2265 C 212.616 0.174003 -2.0135 0
M  V30 2266 C 212.937 1.46139 -1.29106 0
M  V30 2267 O 212.207 1.91448 -0.415253 0
M  V30 2268 H 210.787 0.0672911 -0.743963 0
M  V30 2269 H 213.449 -0.538235 -1.87321 0
M  V30 2270 H 212.545 0.374254 -3.09848 0
M  V30 2271 N 212.846 1.57033 -0.133567 0
M  V30 2272 C 214.123 1.87256 0.56522 0
M  V30 2273 C 214.503 1.03726 1.83859 0
M  V30 2274 O 213.851 0.120247 2.28183 0
M  V30 2275 C 214.061 3.3865 0.843636 0
M  V30 2276 C 215.409 4.07574 1.19032 0
M  V30 2277 O 216.433 3.43752 0.933429 0
M  V30 2278 O 215.292 5.20259 1.67312 0
M  V30 2279 H 212.386 0.775678 0.286796 0
M  V30 2280 H 214.932 1.68855 -0.169168 0
M  V30 2281 H 213.704 3.91257 -0.0581149 0
M  V30 2282 H 213.327 3.62532 1.63268 0
M  V30 2283 N 214.325 -0.140222 1.56975 0
M  V30 2284 C 215.573 -0.850005 1.83356 0
M  V30 2285 C 215.894 -1.81399 0.71551 0
M  V30 2286 O 215.164 -1.94136 -0.262294 0
M  V30 2287 H 213.744 -0.316886 0.676456 0
M  V30 2288 H 216.406 -0.132608 1.94448 0
M  V30 2289 H 215.502 -1.40814 2.78528 0
M  V30 2290 N 215.803 -1.52179 -0.40978 0
M  V30 2291 C 217.052 -1.65434 -1.15388 0
M  V30 2292 C 217.365 -0.390056 -1.91671 0
M  V30 2293 O 218.571 -0.402399 -2.68501 0
M  V30 2294 C 217.027 -2.92279 -2.10003 0
M  V30 2295 C 216.635 -4.25813 -1.39239 0
M  V30 2296 C 218.379 -3.14897 -2.84675 0
M  V30 2297 C 216.286 -5.43782 -2.32498 0
M  V30 2298 H 215.216 -0.616267 -0.434432 0
M  V30 2299 H 217.867 -1.78666 -0.418401 0
M  V30 2300 H 216.249 -2.72744 -2.871 0
M  V30 2301 H 217.423 -4.55828 -0.675099 0
M  V30 2302 H 215.738 -4.09292 -0.766097 0
M  V30 2303 H 218.335 -4.0021 -3.54593 0
M  V30 2304 H 218.678 -2.29103 -3.47588 0
M  V30 2305 H 219.211 -3.34901 -2.14677 0
M  V30 2306 H 215.95 -6.3192 -1.74233 0
M  V30 2307 H 215.47 -5.18106 -3.02201 0
M  V30 2308 H 217.149 -5.76834 -2.93038 0
M  V30 2309 N 217.281 0.66697 -1.42791 0
M  V30 2310 C 218.528 1.42699 -1.43678 0
M  V30 2311 C 218.856 1.94419 -0.0560425 0
M  V30 2312 O 218.111 1.7182 0.936831 0
M  V30 2313 C 218.41 2.6349 -2.4147 0
M  V30 2314 C 218.076 2.30267 -3.8767 0
M  V30 2315 C 216.738 2.20918 -4.27491 0
M  V30 2316 C 219.09 2.03435 -4.79858 0
M  V30 2317 C 216.418 1.82873 -5.57471 0
M  V30 2318 C 218.77 1.66892 -6.10188 0
M  V30 2319 C 217.434 1.56058 -6.49001 0
M  V30 2320 H 216.704 0.522171 -0.525755 0
M  V30 2321 H 219.351 0.759785 -1.75783 0
M  V30 2322 H 217.656 3.35279 -2.0272 0
M  V30 2323 H 219.353 3.21684 -2.39417 0
M  V30 2324 H 215.943 2.38449 -3.56146 0
M  V30 2325 H 220.127 2.09586 -4.49875 0
M  V30 2326 H 215.383 1.7306 -5.86396 0
M  V30 2327 H 219.557 1.45157 -6.81104 0
M  V30 2328 H 217.184 1.26348 -7.49627 0
M  V30 2329 N 218.759 1.29093 0.90403 0
M  V30 2330 C 219.999 1.18076 1.66845 0
M  V30 2331 C 220.363 -0.26436 1.90171 0
M  V30 2332 O 221.564 -0.497423 2.64157 0
M  V30 2333 C 219.835 1.96722 2.98388 0
M  V30 2334 S 221.394 2.0219 3.89441 0
M  V30 2335 H 218.212 0.421104 0.572881 0
M  V30 2336 H 220.814 1.63322 1.07453 0
M  V30 2337 H 219.518 3.00866 2.7912 0
M  V30 2338 H 219.049 1.52064 3.62823 0
M  V30 2339 H 221.064 1.13545 4.83034 0
M  V30 2340 N 220.237 -1.11381 1.11499 0
M  V30 2341 C 221.648 -1.6465 0.880191 0
M  V30 2342 C 221.999 -1.87199 -0.587434 0
M  V30 2343 O 221.124 -1.60667 -1.44966 0
M  V30 2344 C 221.719 -2.99105 1.59128 0
M  V30 2345 C 220.278 -3.49279 1.40289 0
M  V30 2346 C 219.425 -2.24077 1.63354 0
M  V30 2347 H 222.376 -0.950123 1.27116 0
M  V30 2348 H 222.397 -3.66107 1.03664 0
M  V30 2349 H 221.909 -2.82661 2.65941 0
M  V30 2350 H 220.01 -3.70887 0.356888 0
M  V30 2351 H 220.123 -4.2803 2.15238 0
M  V30 2352 H 218.487 -2.31733 1.05698 0
M  V30 2353 H 219.27 -2.10175 2.71443 0
M  V30 2354 N 221.715 -0.905404 -1.28997 0
M  V30 2355 C 222.963 -0.533192 -1.9494 0
M  V30 2356 C 223.284 0.924618 -1.71685 0
M  V30 2357 O 222.554 1.65268 -1.05183 0
M  V30 2358 H 221.134 -0.194194 -0.721317 0
M  V30 2359 H 223.796 -1.15294 -1.57141 0
M  V30 2360 H 222.892 -0.72059 -3.03667 0
M  V30 2361 N 223.193 1.4272 -0.668489 0
M  V30 2362 C 224.441 2.01226 -0.187769 0
M  V30 2363 C 224.762 1.53092 1.2078 0
M  V30 2364 O 224.032 0.74993 1.80977 0
M  V30 2365 H 222.612 0.744041 -0.0664272 0
M  V30 2366 H 225.274 1.74723 -0.863583 0
M  V30 2367 H 224.37 3.11556 -0.184166 0
M  V30 2368 N 224.671 0.411399 1.52136 0
M  V30 2369 C 225.896 -0.165538 2.06738 0
M  V30 2370 C 226.321 -1.379 1.27926 0
M  V30 2371 O 225.679 -1.78628 0.310114 0
M  V30 2372 C 225.727 -0.492124 3.57226 0
M  V30 2373 O 224.831 -1.58276 3.80818 0
M  V30 2374 H 224.172 -0.0132132 0.663869 0
M  V30 2375 H 226.702 0.585253 1.96051 0
M  V30 2376 H 226.712 -0.750104 4.01045 0
M  V30 2377 H 225.387 0.394922 4.14021 0
M  V30 2378 H 223.964 -1.31677 3.48877 0
M  V30 2379 N 226.149 -1.5696 0.141893 0
M  V30 2380 C 227.398 -1.95135 -0.510427 0
M  V30 2381 C 227.711 -1.02896 -1.66348 0
M  V30 2382 O 228.917 -1.30629 -2.38009 0
M  V30 2383 C 227.373 -3.46876 -0.959427 0
M  V30 2384 C 226.981 -4.47691 0.166419 0
M  V30 2385 C 228.725 -3.93927 -1.58183 0
M  V30 2386 C 226.632 -5.90636 -0.300565 0
M  V30 2387 H 225.562 -0.728494 -0.194454 0
M  V30 2388 H 228.213 -1.8211 0.22542 0
M  V30 2389 H 226.595 -3.55215 -1.75038 0
M  V30 2390 H 227.769 -4.51043 0.94325 0
M  V30 2391 H 226.084 -4.10527 0.696905 0
M  V30 2392 H 228.681 -4.98158 -1.94275 0
M  V30 2393 H 229.024 -3.3519 -2.46888 0
M  V30 2394 H 229.557 -3.88484 -0.855863 0
M  V30 2395 H 226.296 -6.5318 0.550989 0
M  V30 2396 H 225.816 -5.90655 -1.04338 0
M  V30 2397 H 227.495 -6.42588 -0.754265 0
M  V30 2398 N 227.627 0.131896 -1.57047 0
M  V30 2399 C 228.852 0.860418 -1.8871 0
M  V30 2400 C 229.277 1.73251 -0.73251 0
M  V30 2401 O 228.635 1.785 0.317429 0
M  V30 2402 C 228.683 1.68047 -3.19049 0
M  V30 2403 O 227.787 2.7862 -3.04047 0
M  V30 2404 H 227.128 0.238743 -0.619595 0
M  V30 2405 H 229.658 0.118169 -2.04258 0
M  V30 2406 H 229.668 2.07238 -3.51449 0
M  V30 2407 H 228.343 1.04018 -4.02682 0
M  V30 2408 H 226.92 2.42726 -2.83088 0
M  V30 2409 N 229.106 1.52395 0.401703 0
M  V30 2410 C 230.054 1.7689 1.51039 0
M  V30 2411 C 231.048 0.636298 1.56996 0
M  V30 2412 O 232.254 0.818507 1.60314 0
M  V30 2413 H 228.629 0.559502 0.502456 0
M  V30 2414 H 230.6 2.69757 1.27568 0
M  V30 2415 C 229.349 1.94331 2.88324 0
M  V30 2416 H 228.672 2.80905 2.84486 0
M  V30 2417 H 230.112 2.15466 3.65172 0
M  V30 2418 C 228.571 0.712396 3.29282 0
M  V30 2419 O 229.101 -0.116218 4.01532 0
M  V30 2420 N 227.307 0.546154 2.85422 0
M  V30 2421 H 226.854 1.22156 2.26794 0
M  V30 2422 H 226.812 -0.276113 3.13185 0
M  V30 2423 N 230.584 -0.659388 1.43143 0
M  V30 2424 C 231.517 -1.78425 1.42267 0
M  V30 2425 C 232.495 -1.60085 0.284894 0
M  V30 2426 O 233.679 -1.82351 0.477527 0
M  V30 2427 C 230.806 -3.15642 1.22833 0
M  V30 2428 C 229.852 -3.52698 2.39806 0
M  V30 2429 S 230.685 -3.53372 4.02353 0
M  V30 2430 C 231.841 -4.93256 3.85291 0
M  V30 2431 H 232.074 -1.78897 2.37452 0
M  V30 2432 H 229.607 -0.831469 1.301 0
M  V30 2433 H 231.565 -3.94838 1.12308 0
M  V30 2434 H 230.226 -3.12739 0.29207 0
M  V30 2435 H 229.419 -4.52475 2.21996 0
M  V30 2436 H 229.021 -2.80899 2.46925 0
M  V30 2437 H 231.313 -5.81751 3.47235 0
M  V30 2438 H 232.256 -5.16115 4.84799 0
M  V30 2439 H 232.664 -4.665 3.17865 0
M  V30 2440 N 232.062 -1.29571 -0.897171 0
M  V30 2441 C 233.292 -1.20408 -1.67886 0
M  V30 2442 C 233.7 0.237429 -1.87704 0
M  V30 2443 O 233.043 1.17048 -1.41582 0
M  V30 2444 C 233.105 -1.84887 -3.08314 0
M  V30 2445 C 232.769 -3.34189 -3.11716 0
M  V30 2446 C 233.766 -4.30374 -2.91675 0
M  V30 2447 C 231.451 -3.75431 -3.33701 0
M  V30 2448 C 233.445 -5.65776 -2.93557 0
M  V30 2449 C 231.132 -5.10955 -3.35214 0
M  V30 2450 C 232.13 -6.05938 -3.15164 0
M  V30 2451 O 231.818 -7.38987 -3.1647 0
M  V30 2452 H 231.55 -0.418289 -0.531046 0
M  V30 2453 H 234.104 -1.71514 -1.13014 0
M  V30 2454 H 232.334 -1.28295 -3.64798 0
M  V30 2455 H 234.023 -1.70011 -3.6858 0
M  V30 2456 H 234.789 -3.99844 -2.74499 0
M  V30 2457 H 230.668 -3.01953 -3.48347 0
M  V30 2458 H 234.212 -6.39889 -2.77826 0
M  V30 2459 H 230.109 -5.4113 -3.51922 0
M  V30 2460 H 230.877 -7.47823 -3.3272 0
M  V30 2461 N 233.54 1.10788 -1.12088 0
M  V30 2462 C 234.503 2.15207 -0.788577 0
M  V30 2463 C 235.503 1.59609 0.195317 0
M  V30 2464 O 236.693 1.74174 -0.0300193 0
M  V30 2465 C 233.825 3.4047 -0.171174 0
M  V30 2466 H 235.018 2.46116 -1.71368 0
M  V30 2467 H 232.571 1.26089 -0.923652 0
M  V30 2468 H 233.306 3.15176 0.763832 0
M  V30 2469 H 233.091 3.82109 -0.879514 0
M  V30 2470 H 234.581 4.17576 0.04496 0
M  V30 2471 N 235.018 0.912232 1.28515 0
M  V30 2472 C 236.264 0.545405 1.95328 0
M  V30 2473 C 236.597 -0.908313 1.71649 0
M  V30 2474 O 235.872 -1.64575 1.03659 0
M  V30 2475 C 236.155 0.853483 3.4984 0
M  V30 2476 C 236.008 2.35982 3.82926 0
M  V30 2477 C 237.327 0.348589 4.38717 0
M  V30 2478 H 234.446 0.199626 0.709449 0
M  V30 2479 H 237.088 1.1412 1.5191 0
M  V30 2480 H 235.238 0.34643 3.86952 0
M  V30 2481 H 236.91 2.93738 3.55691 0
M  V30 2482 H 235.153 2.81543 3.30024 0
M  V30 2483 H 235.824 2.52593 4.90816 0
M  V30 2484 H 238.3 0.78294 4.08668 0
M  V30 2485 H 237.176 0.593242 5.45685 0
M  V30 2486 H 237.437 -0.751049 4.35674 0
M  V30 2487 N 236.496 -1.42363 0.676048 0
M  V30 2488 C 237.444 -2.32596 -0.0131507 0
M  V30 2489 C 238.438 -1.49891 -0.789238 0
M  V30 2490 O 239.644 -1.65955 -0.697061 0
M  V30 2491 H 236.019 -0.751647 -0.0230481 0
M  V30 2492 H 237.99 -2.88421 0.765243 0
M  V30 2493 C 236.739 -3.34479 -0.949702 0
M  V30 2494 H 236.062 -3.98158 -0.361938 0
M  V30 2495 H 237.502 -4.00199 -1.4006 0
M  V30 2496 C 235.961 -2.66838 -2.05667 0
M  V30 2497 O 236.491 -2.50124 -3.14326 0
M  V30 2498 N 234.697 -2.25843 -1.82875 0
M  V30 2499 H 234.244 -2.39637 -0.945085 0
M  V30 2500 H 234.202 -1.80918 -2.5713 0
M  V30 2501 N 237.974 -0.419461 -1.51915 0
M  V30 2502 C 238.904 0.391813 -2.30189 0
M  V30 2503 C 239.885 1.03699 -1.34836 0
M  V30 2504 O 241.07 1.04403 -1.63748 0
M  V30 2505 C 238.2 1.50312 -3.13087 0
M  V30 2506 C 237.154 0.9824 -4.16573 0
M  V30 2507 C 236.48 2.18809 -4.8788 0
M  V30 2508 C 237.78 0.0292356 -5.22292 0
M  V30 2509 H 239.474 -0.26135 -2.98257 0
M  V30 2510 H 237.02 -0.127134 -1.43438 0
M  V30 2511 H 238.973 2.07773 -3.66617 0
M  V30 2512 H 237.697 2.18431 -2.42807 0
M  V30 2513 H 236.356 0.430119 -3.64068 0
M  V30 2514 H 236.004 2.85507 -4.14119 0
M  V30 2515 H 235.704 1.84615 -5.57845 0
M  V30 2516 H 237.228 2.76858 -5.44226 0
M  V30 2517 H 238.642 0.512976 -5.71 0
M  V30 2518 H 237.039 -0.2244 -5.9968 0
M  V30 2519 H 238.109 -0.912931 -4.76228 0
M  V30 2520 N 239.452 1.56882 -0.150215 0
M  V30 2521 C 240.415 2.1573 0.774157 0
M  V30 2522 C 241.415 1.0999 1.17298 0
M  V30 2523 O 242.605 1.35613 1.09338 0
M  V30 2524 C 239.737 2.72302 2.05096 0
M  V30 2525 H 240.93 2.98752 0.262201 0
M  V30 2526 H 238.483 1.55985 0.099248 0
M  V30 2527 H 239.218 1.92956 2.6065 0
M  V30 2528 H 239.003 3.49665 1.77416 0
M  V30 2529 H 240.493 3.17632 2.71109 0
M  V30 2530 N 240.93 -0.123565 1.57115 0
M  V30 2531 C 242.346 -0.476961 1.52306 0
M  V30 2532 C 242.546 -1.82109 0.86248 0
M  V30 2533 O 241.602 -2.48586 0.442884 0
M  V30 2534 C 242.915 -0.465661 2.97073 0
M  V30 2535 C 244.463 -0.549534 3.08138 0
M  V30 2536 C 244.938 -0.568669 4.54456 0
M  V30 2537 N 246.429 -0.630237 4.58892 0
M  V30 2538 C 247.164 -0.666415 5.69514 0
M  V30 2539 N 246.66 -0.660514 6.89644 0
M  V30 2540 N 248.453 -0.709077 5.5761 0
M  V30 2541 H 240.604 0.757198 1.98445 0
M  V30 2542 H 242.867 0.278808 0.906074 0
M  V30 2543 H 242.573 0.454232 3.48754 0
M  V30 2544 H 242.447 -1.29513 3.54269 0
M  V30 2545 H 244.834 -1.45985 2.56461 0
M  V30 2546 H 244.915 0.307532 2.53945 0
M  V30 2547 H 244.559 0.337581 5.06777 0
M  V30 2548 H 244.489 -1.44256 5.06456 0
M  V30 2549 H 246.98 -0.641146 3.72421 0
M  V30 2550 H 247.293 -0.690616 7.69708 0
M  V30 2551 H 245.638 -0.628012 6.92157 0
M  V30 2552 H 248.829 -0.711019 4.62668 0
M  V30 2553 H 249.002 -0.733804 6.43832 0
M  V30 2554 N 242.408 -1.52605 -0.393616 0
M  V30 2555 C 243.638 -1.71046 -1.15874 0
M  V30 2556 C 244.046 -0.426483 -1.84331 0
M  V30 2557 O 243.389 0.608513 -1.73329 0
M  V30 2558 C 243.451 -2.80118 -2.25332 0
M  V30 2559 C 243.115 -4.21381 -1.76881 0
M  V30 2560 C 244.112 -5.04697 -1.24808 0
M  V30 2561 C 241.797 -4.67683 -1.83244 0
M  V30 2562 C 243.791 -6.32393 -0.797387 0
M  V30 2563 C 241.478 -5.95364 -1.37787 0
M  V30 2564 C 242.476 -6.77549 -0.861208 0
M  V30 2565 O 242.164 -8.02837 -0.413252 0
M  V30 2566 H 241.896 -0.576155 -0.353583 0
M  V30 2567 H 244.45 -2.00018 -0.467123 0
M  V30 2568 H 242.68 -2.46557 -2.97904 0
M  V30 2569 H 244.369 -2.87006 -2.87023 0
M  V30 2570 H 245.135 -4.70111 -1.19252 0
M  V30 2571 H 241.014 -4.03805 -2.22401 0
M  V30 2572 H 244.558 -6.9649 -0.393437 0
M  V30 2573 H 240.455 -6.29455 -1.43026 0
M  V30 2574 H 241.223 -8.16749 -0.53515 0
M  V30 2575 N 243.887 0.651787 -1.4349 0
M  V30 2576 C 244.819 1.77725 -1.44729 0
M  V30 2577 C 245.832 1.59141 -0.343231 0
M  V30 2578 O 247.021 1.67835 -0.607751 0
M  V30 2579 C 244.121 3.15172 -1.24579 0
M  V30 2580 C 243.294 3.60402 -2.47849 0
M  V30 2581 C 242.353 4.76656 -2.22902 0
M  V30 2582 O 241.379 4.86022 -2.96263 0
M  V30 2583 N 242.581 5.66958 -1.24656 0
M  V30 2584 H 245.346 1.77141 -2.41746 0
M  V30 2585 H 242.907 0.835678 -1.38665 0
M  V30 2586 H 244.899 3.90634 -1.0577 0
M  V30 2587 H 243.469 3.1052 -0.360015 0
M  V30 2588 H 242.689 2.75369 -2.82073 0
M  V30 2589 H 243.977 3.87368 -3.29884 0
M  V30 2590 H 243.375 5.62065 -0.640265 0
M  V30 2591 H 241.932 6.42135 -1.1183 0
M  V30 2592 N 245.365 1.30045 0.890287 0
M  V30 2593 C 246.781 1.08261 1.17268 0
M  V30 2594 C 246.981 -0.160063 2.00863 0
M  V30 2595 O 246.037 -0.855181 2.37577 0
M  V30 2596 C 247.35 2.34323 1.8845 0
M  V30 2597 C 248.898 2.39735 2.01237 0
M  V30 2598 C 249.373 3.65625 2.7583 0
M  V30 2599 N 250.864 3.66402 2.83379 0
M  V30 2600 C 251.599 4.60498 3.41657 0
M  V30 2601 N 251.095 5.64933 4.01026 0
M  V30 2602 N 252.888 4.48051 3.39421 0
M  V30 2603 H 245.039 2.09777 0.332762 0
M  V30 2604 H 247.302 0.92446 0.209948 0
M  V30 2605 H 247.008 3.2498 1.34465 0
M  V30 2606 H 246.882 2.4256 2.88867 0
M  V30 2607 H 249.269 1.4956 2.54393 0
M  V30 2608 H 249.35 2.35476 0.999232 0
M  V30 2609 H 248.994 4.56156 2.23347 0
M  V30 2610 H 248.924 3.67144 3.77509 0
M  V30 2611 H 251.415 2.90896 2.41222 0
M  V30 2612 H 251.728 6.32841 4.43545 0
M  V30 2613 H 250.073 5.68732 3.99461 0
M  V30 2614 H 253.264 3.65649 2.92264 0
M  V30 2615 H 253.437 5.21565 3.84544 0
M  V30 2616 N 246.843 -1.10192 1.12674 0
M  V30 2617 C 248.073 -1.85713 0.905213 0
M  V30 2618 C 248.481 -1.81056 -0.549108 0
M  V30 2619 O 247.824 -1.19927 -1.39151 0
M  V30 2620 C 247.886 -3.34972 1.30516 0
M  V30 2621 C 247.55 -3.63385 2.77129 0
M  V30 2622 C 248.547 -3.59772 3.75313 0
M  V30 2623 C 246.232 -3.91981 3.14096 0
M  V30 2624 C 248.226 -3.84354 5.08479 0
M  V30 2625 C 245.913 -4.16218 4.47443 0
M  V30 2626 C 246.911 -4.12395 5.44444 0
M  V30 2627 O 246.599 -4.36014 6.75387 0
M  V30 2628 H 246.331 -0.593719 0.323223 0
M  V30 2629 H 248.885 -1.40198 1.50112 0
M  V30 2630 H 247.115 -3.81156 0.652463 0
M  V30 2631 H 248.804 -3.91886 1.05736 0
M  V30 2632 H 249.57 -3.37716 3.48099 0
M  V30 2633 H 245.449 -3.94085 2.39202 0
M  V30 2634 H 248.993 -3.81285 5.84181 0
M  V30 2635 H 244.89 -4.37754 4.74386 0
M  V30 2636 H 245.658 -4.53516 6.8137 0
M  V30 2637 N 248.321 -0.919034 -1.28029 0
M  V30 2638 C 249.732 -0.600735 -1.76771 0
M  V30 2639 C 250.083 0.884024 -1.75156 0
M  V30 2640 O 249.208 1.69163 -1.34956 0
M  V30 2641 C 249.803 -1.08372 -3.21 0
M  V30 2642 C 248.362 -0.816248 -3.67443 0
M  V30 2643 C 247.509 -1.24742 -2.47658 0
M  V30 2644 H 250.46 -1.09974 -1.14418 0
M  V30 2645 H 250.481 -0.427512 -3.78091 0
M  V30 2646 H 249.993 -2.16437 -3.22144 0
M  V30 2647 H 248.094 0.250968 -3.71754 0
M  V30 2648 H 248.207 -1.4277 -4.57333 0
M  V30 2649 H 246.571 -0.666083 -2.45836 0
M  V30 2650 H 247.354 -2.33653 -2.51518 0
M  V30 2651 N 249.799 1.42003 -0.683588 0
M  V30 2652 C 251.076 1.95112 -0.138075 0
M  V30 2653 C 251.456 1.62359 1.34918 0
M  V30 2654 O 250.804 0.924311 2.08971 0
M  V30 2655 C 251.014 3.46505 -0.416581 0
M  V30 2656 C 252.362 4.23254 -0.337834 0
M  V30 2657 O 253.386 3.54468 -0.35082 0
M  V30 2658 O 252.245 5.45743 -0.287596 0
M  V30 2659 H 249.339 0.826961 -0.00797996 0
M  V30 2660 H 251.885 1.51784 -0.758924 0
M  V30 2661 H 250.657 3.63582 -1.4465 0
M  V30 2662 H 250.28 3.969 0.235839 0
M  V30 2663 N 251.277 0.427512 1.51691 0
M  V30 2664 C 252.517 -0.141524 2.03909 0
M  V30 2665 C 252.881 -1.40811 1.30523 0
M  V30 2666 O 254.082 -2.05676 1.73063 0
M  V30 2667 C 252.353 -0.364962 3.55532 0
M  V30 2668 S 253.912 -0.898812 4.29496 0
M  V30 2669 H 250.73 -0.0364542 0.710065 0
M  V30 2670 H 253.332 0.584659 1.86553 0
M  V30 2671 H 252.036 0.56336 4.06515 0
M  V30 2672 H 251.567 -1.1185 3.77164 0
M  V30 2673 H 253.582 -2.17747 4.45871 0
M  V30 2674 N 252.755 -1.56801 0.158532 0
M  V30 2675 C 253.702 -2.17337 -0.776729 0
M  V30 2676 C 254.672 -1.1096 -1.23601 0
M  V30 2677 O 255.857 -1.39054 -1.30647 0
M  V30 2678 C 252.997 -2.80822 -2.00582 0
M  V30 2679 C 252.11 -4.01624 -1.59129 0
M  V30 2680 C 251.245 -4.53072 -2.77306 0
M  V30 2681 C 250.284 -5.66314 -2.32282 0
M  V30 2682 N 249.421 -6.12329 -3.43508 0
M  V30 2683 H 254.261 -2.96918 -0.253701 0
M  V30 2684 H 251.798 -1.46661 -0.113504 0
M  V30 2685 H 253.756 -3.15779 -2.72652 0
M  V30 2686 H 252.386 -2.03866 -2.50277 0
M  V30 2687 H 251.438 -3.72571 -0.767806 0
M  V30 2688 H 252.75 -4.83633 -1.2207 0
M  V30 2689 H 251.904 -4.90145 -3.57551 0
M  V30 2690 H 250.643 -3.70095 -3.17617 0
M  V30 2691 H 249.648 -5.28806 -1.5048 0
M  V30 2692 H 250.873 -6.51085 -1.93043 0
M  V30 2693 H 248.819 -5.32284 -3.83418 0
M  V30 2694 H 248.736 -6.89293 -3.105 0
M  V30 2695 H 250.004 -6.5405 -4.24075 0
M  V30 2696 N 254.233 0.115231 -1.57178 0
M  V30 2697 C 255.165 1.16694 -1.97269 0
M  V30 2698 C 256.178 1.37445 -0.872502 0
M  V30 2699 O 257.367 1.36454 -1.15077 0
M  V30 2700 C 254.467 2.52627 -2.25905 0
M  V30 2701 C 253.64 2.52427 -3.57211 0
M  V30 2702 C 252.699 3.70134 -3.74016 0
M  V30 2703 O 251.725 3.53546 -4.46087 0
M  V30 2704 N 252.927 4.88844 -3.13068 0
M  V30 2705 H 255.692 0.82588 -2.88096 0
M  V30 2706 H 253.253 0.304461 -1.59011 0
M  V30 2707 H 255.245 3.29937 -2.34359 0
M  V30 2708 H 253.815 2.789 -1.41186 0
M  V30 2709 H 253.035 1.60805 -3.5991 0
M  V30 2710 H 254.323 2.49353 -4.43509 0
M  V30 2711 H 253.721 5.05225 -2.54489 0
M  V30 2712 H 252.278 5.63817 -3.27037 0
M  V30 2713 N 255.711 1.52812 0.385517 0
M  V30 2714 C 257.127 1.4214 0.725829 0
M  V30 2715 C 257.327 0.544589 1.94001 0
M  V30 2716 O 256.383 0.0193693 2.52493 0
M  V30 2717 C 257.696 2.85042 0.957668 0
M  V30 2718 C 259.244 2.94543 1.05892 0
M  V30 2719 C 259.719 4.38464 1.32337 0
M  V30 2720 N 261.21 4.41804 1.39151 0
M  V30 2721 C 261.945 5.5025 1.61285 0
M  V30 2722 N 261.441 6.68775 1.80866 0
M  V30 2723 N 263.234 5.37798 1.63492 0
M  V30 2724 H 255.385 2.08338 -0.413383 0
M  V30 2725 H 257.648 0.940016 -0.122775 0
M  V30 2726 H 257.354 3.51431 0.137568 0
M  V30 2727 H 257.228 3.27505 1.87137 0
M  V30 2728 H 259.615 2.28321 1.86959 0
M  V30 2729 H 259.696 2.55504 0.123057 0
M  V30 2730 H 259.34 5.05254 0.517793 0
M  V30 2731 H 259.27 4.75059 2.27214 0
M  V30 2732 H 261.761 3.56377 1.25713 0
M  V30 2733 H 262.074 7.47197 1.97271 0
M  V30 2734 H 260.419 6.71797 1.78083 0
M  V30 2735 H 263.61 4.44171 1.47749 0
M  V30 2736 H 263.783 6.22382 1.80402 0
M  V30 2737 N 257.189 -0.644168 1.43834 0
M  V30 2738 C 258.437 -1.40117 1.45642 0
M  V30 2739 C 258.758 -1.94814 0.0852413 0
M  V30 2740 O 258.028 -1.74988 -0.880688 0
M  V30 2741 H 256.608 -0.52005 0.536243 0
M  V30 2742 H 259.27 -0.7591 1.7951 0
M  V30 2743 H 258.366 -2.23902 2.17427 0
M  V30 2744 N 258.668 -1.30515 -0.883378 0
M  V30 2745 C 259.598 -1.19607 -2.00541 0
M  V30 2746 C 260.579 -0.086346 -1.69881 0
M  V30 2747 O 261.764 -0.268654 -1.92333 0
M  V30 2748 C 258.894 -0.888758 -3.35736 0
M  V30 2749 C 257.848 -1.95659 -3.8066 0
M  V30 2750 C 257.174 -1.50224 -5.13164 0
M  V30 2751 C 258.474 -3.36788 -3.99213 0
M  V30 2752 H 260.168 -2.13476 -2.09925 0
M  V30 2753 H 257.714 -1.02775 -1.00863 0
M  V30 2754 H 259.667 -0.799094 -4.13754 0
M  V30 2755 H 258.391 0.0856125 -3.26488 0
M  V30 2756 H 257.05 -2.03591 -3.04871 0
M  V30 2757 H 256.698 -0.516092 -5.00345 0
M  V30 2758 H 256.398 -2.2165 -5.44192 0
M  V30 2759 H 257.922 -1.42639 -5.93706 0
M  V30 2760 H 259.336 -3.31605 -4.67665 0
M  V30 2761 H 257.733 -4.06314 -4.41621 0
M  V30 2762 H 258.803 -3.78561 -3.03017 0
M  V30 2763 N 260.146 1.09593 -1.13257 0
M  V30 2764 C 261.562 1.33775 -0.870423 0
M  V30 2765 C 261.762 1.95327 0.494926 0
M  V30 2766 O 260.818 2.19853 1.2418 0
M  V30 2767 C 262.131 2.25106 -1.99369 0
M  V30 2768 C 263.679 2.3862 -2.02558 0
M  V30 2769 C 264.154 3.33285 -3.14142 0
M  V30 2770 N 265.645 3.40857 -3.13641 0
M  V30 2771 C 266.38 4.14101 -3.96621 0
M  V30 2772 N 265.876 4.90157 -4.8961 0
M  V30 2773 N 267.669 4.09808 -3.84726 0
M  V30 2774 H 259.82 0.680136 -2.01216 0
M  V30 2775 H 262.083 0.362133 -0.876107 0
M  V30 2776 H 261.789 1.87103 -2.97801 0
M  V30 2777 H 261.663 3.25481 -1.90635 0
M  V30 2778 H 264.05 2.75887 -1.0474 0
M  V30 2779 H 264.131 1.38028 -2.15364 0
M  V30 2780 H 263.775 2.96741 -4.12198 0
M  V30 2781 H 263.705 4.33776 -2.98574 0
M  V30 2782 H 266.196 2.86624 -2.46282 0
M  V30 2783 H 266.509 5.4347 -5.49418 0
M  V30 2784 H 264.854 4.89251 -4.93617 0
M  V30 2785 H 268.045 3.4949 -3.11408 0
M  V30 2786 H 268.218 4.66629 -4.49623 0
M  V30 2787 N 261.624 0.925811 1.2754 0
M  V30 2788 C 262.852 0.581509 1.9856 0
M  V30 2789 C 263.267 -0.840041 1.69082 0
M  V30 2790 O 262.624 -1.55805 0.950312 0
M  V30 2791 C 262.675 0.795589 3.52637 0
M  V30 2792 O 262.396 2.16121 3.81082 0
M  V30 2793 C 263.897 0.459744 4.4091 0
M  V30 2794 H 261.117 0.220538 0.633722 0
M  V30 2795 H 263.661 1.24232 1.6244 0
M  V30 2796 H 261.816 0.18161 3.86974 0
M  V30 2797 H 262.23 2.2098 4.75676 0
M  V30 2798 H 263.704 0.660244 5.48037 0
M  V30 2799 H 264.181 -0.604625 4.35018 0
M  V30 2800 H 264.787 1.05178 4.12089 0
M  V30 2801 N 263.102 -1.41638 0.69111 0
M  V30 2802 C 264.032 -2.3347 0.037248 0
M  V30 2803 C 265.013 -1.51575 -0.771947 0
M  V30 2804 O 266.198 -1.80126 -0.72582 0
M  V30 2805 C 263.328 -3.35354 -0.903064 0
M  V30 2806 C 262.282 -4.27526 -0.201288 0
M  V30 2807 C 261.608 -5.19747 -1.25565 0
M  V30 2808 C 262.908 -5.13959 0.929689 0
M  V30 2809 H 264.602 -2.88397 0.804227 0
M  V30 2810 H 262.148 -1.38669 0.388189 0
M  V30 2811 H 264.101 -3.98519 -1.36969 0
M  V30 2812 H 262.825 -2.78767 -1.70166 0
M  V30 2813 H 261.484 -3.65779 0.245265 0
M  V30 2814 H 261.132 -4.59479 -2.04666 0
M  V30 2815 H 260.832 -5.8225 -0.791128 0
M  V30 2816 H 262.356 -5.85789 -1.72288 0
M  V30 2817 H 263.77 -5.70718 0.543546 0
M  V30 2818 H 262.167 -5.85379 1.32103 0
M  V30 2819 H 263.237 -4.51389 1.77133 0
M  V30 2820 N 264.58 -0.43555 -1.51462 0
M  V30 2821 C 265.991 0.0279871 -1.86679 0
M  V30 2822 C 266.342 1.42104 -1.35281 0
M  V30 2823 O 265.467 2.04667 -0.702878 0
M  V30 2824 C 266.062 0.0575626 -3.38751 0
M  V30 2825 C 264.621 0.465507 -3.7351 0
M  V30 2826 C 263.768 -0.342996 -2.75171 0
M  V30 2827 H 266.719 -0.651473 -1.44712 0
M  V30 2828 H 266.74 0.867421 -3.70481 0
M  V30 2829 H 266.252 -0.956448 -3.7613 0
M  V30 2830 H 264.353 1.48519 -3.41721 0
M  V30 2831 H 264.466 0.191546 -4.78717 0
M  V30 2832 H 262.83 0.198442 -2.53926 0
M  V30 2833 H 263.613 -1.35585 -3.15391 0
M  V30 2834 N 266.058 1.56714 -0.166846 0
M  V30 2835 C 267.469 1.83378 0.350646 0
M  V30 2836 C 267.82 1.08646 1.63372 0
M  V30 2837 O 266.945 0.338058 2.13743 0
M  V30 2838 C 267.54 3.32643 0.642963 0
M  V30 2839 C 266.099 3.59818 1.10491 0
M  V30 2840 C 265.246 2.76954 0.138411 0
M  V30 2841 H 268.197 1.53803 -0.391193 0
M  V30 2842 H 268.218 3.49878 1.49551 0
M  V30 2843 H 267.73 3.87007 -0.291055 0
M  V30 2844 H 265.831 3.1086 2.05418 0
M  V30 2845 H 265.944 4.68178 1.01716 0
M  V30 2846 H 264.308 2.4666 0.634911 0
M  V30 2847 H 265.091 3.34097 -0.789549 0
M  V30 2848 N 267.536 -0.106894 1.57237 0
M  V30 2849 C 268.466 -1.13148 2.04254 0
M  V30 2850 C 269.447 -1.42476 0.929224 0
M  V30 2851 O 270.632 -1.52709 1.19973 0
M  V30 2852 C 267.762 -2.4545 2.45706 0
M  V30 2853 C 266.716 -2.30558 3.60592 0
M  V30 2854 C 266.042 -3.67931 3.87983 0
M  V30 2855 C 267.342 -1.75597 4.91897 0
M  V30 2856 H 269.036 -0.740374 2.90101 0
M  V30 2857 H 266.582 -0.354696 1.39563 0
M  V30 2858 H 268.535 -3.17389 2.77205 0
M  V30 2859 H 267.259 -2.86475 1.56843 0
M  V30 2860 H 265.918 -1.61067 3.29322 0
M  V30 2861 H 265.566 -4.06462 2.96306 0
M  V30 2862 H 265.266 -3.58817 4.65322 0
M  V30 2863 H 266.79 -4.41356 4.21945 0
M  V30 2864 H 268.204 -2.37364 5.21854 0
M  V30 2865 H 266.601 -1.77272 5.73319 0
M  V30 2866 H 267.671 -0.714451 4.79608 0
M  V30 2867 N 269.014 -1.53014 -0.377408 0
M  V30 2868 C 269.977 -1.77957 -1.44444 0
M  V30 2869 C 270.977 -0.649763 -1.47087 0
M  V30 2870 O 272.167 -0.917897 -1.48055 0
M  V30 2871 C 269.299 -1.89089 -2.83651 0
M  V30 2872 H 270.492 -2.73243 -1.23606 0
M  V30 2873 H 268.045 -1.43912 -0.609844 0
M  V30 2874 H 268.78 -0.958293 -3.09818 0
M  V30 2875 H 268.565 -2.71254 -2.83132 0
M  V30 2876 H 270.055 -2.1002 -3.60945 0
M  V30 2877 N 270.492 0.636531 -1.44174 0
M  V30 2878 C 271.422 1.76003 -1.53444 0
M  V30 2879 C 272.403 1.65619 -0.387841 0
M  V30 2880 O 273.588 1.84461 -0.607257 0
M  V30 2881 C 270.718 3.14511 -1.4731 0
M  V30 2882 C 269.672 3.39677 -2.60391 0
M  V30 2883 C 268.998 4.78159 -2.39308 0
M  V30 2884 C 270.298 3.32772 -4.02567 0
M  V30 2885 H 271.992 1.68501 -2.47483 0
M  V30 2886 H 269.538 0.809237 -1.19111 0
M  V30 2887 H 271.491 3.92878 -1.52397 0
M  V30 2888 H 270.215 3.22783 -0.49785 0
M  V30 2889 H 268.874 2.63688 -2.54684 0
M  V30 2890 H 268.522 4.83128 -1.39988 0
M  V30 2891 H 268.222 4.95956 -3.15122 0
M  V30 2892 H 269.746 5.58762 -2.46205 0
M  V30 2893 H 271.16 4.01051 -4.09672 0
M  V30 2894 H 269.557 3.62104 -4.7854 0
M  V30 2895 H 270.627 2.30669 -4.2652 0
M  V30 2896 N 271.97 1.30982 0.876444 0
M  V30 2897 C 273.217 1.20296 1.62896 0
M  V30 2898 C 273.545 -0.240395 1.93009 0
M  V30 2899 O 272.8 -1.18733 1.55567 0
M  V30 2900 C 273.099 1.98572 2.9716 0
M  V30 2901 C 272.765 3.48125 2.86566 0
M  V30 2902 C 271.427 3.88905 2.83383 0
M  V30 2903 C 273.779 4.43322 2.74071 0
M  V30 2904 C 271.107 5.2316 2.65556 0
M  V30 2905 C 273.459 5.77695 2.57781 0
M  V30 2906 C 272.123 6.17704 2.52979 0
M  V30 2907 H 271.393 0.440193 0.59608 0
M  V30 2908 H 274.04 1.62177 1.01837 0
M  V30 2909 H 272.345 1.49352 3.62217 0
M  V30 2910 H 274.042 1.8769 3.54364 0
M  V30 2911 H 270.632 3.15723 2.89856 0
M  V30 2912 H 274.816 4.12752 2.75589 0
M  V30 2913 H 270.072 5.53241 2.60259 0
M  V30 2914 H 274.246 6.51091 2.47089 0
M  V30 2915 H 271.873 7.21678 2.38924 0
M  V30 2916 N 273.449 -1.08991 1.13837 0
M  V30 2917 C 274.677 -1.85011 0.926202 0
M  V30 2918 C 275.092 -1.8135 -0.525127 0
M  V30 2919 O 274.449 -1.21287 -1.36366 0
M  V30 2920 C 274.5 -3.32802 1.41155 0
M  V30 2921 O 274.221 -3.36444 2.80601 0
M  V30 2922 C 275.722 -4.25649 1.23847 0
M  V30 2923 H 272.942 -0.584249 0.32999 0
M  V30 2924 H 275.486 -1.37688 1.51202 0
M  V30 2925 H 273.641 -3.77536 0.868631 0
M  V30 2926 H 274.055 -4.28657 3.02248 0
M  V30 2927 H 275.529 -5.27485 1.62675 0
M  V30 2928 H 276.006 -4.38828 0.18065 0
M  V30 2929 H 276.612 -3.86735 1.76964 0
M  V30 2930 N 274.927 -0.932562 -1.27047 0
M  V30 2931 C 276.152 -0.591474 -1.98787 0
M  V30 2932 C 276.577 0.824601 -1.69062 0
M  V30 2933 O 275.935 1.5541 -0.933677 0
M  V30 2934 C 275.983 -0.829808 -3.50922 0
M  V30 2935 O 275.087 0.102266 -4.12273 0
M  V30 2936 H 274.428 -0.227185 -0.623926 0
M  V30 2937 H 276.958 -1.25314 -1.61733 0
M  V30 2938 H 276.968 -0.747292 -4.01098 0
M  V30 2939 H 275.643 -1.86201 -3.7189 0
M  V30 2940 H 274.22 -0.0305761 -3.72887 0
M  V30 2941 N 276.405 1.4127 -0.698611 0
M  V30 2942 C 277.352 2.30773 -0.0352094 0
M  V30 2943 C 278.322 1.47273 0.768111 0
M  V30 2944 O 279.507 1.76053 0.735524 0
M  V30 2945 C 276.647 3.33346 0.893 0
M  V30 2946 C 275.76 4.31924 0.0809695 0
M  V30 2947 C 274.895 5.21566 1.0071 0
M  V30 2948 C 273.934 6.11811 0.188155 0
M  V30 2949 N 273.071 6.93926 1.06825 0
M  V30 2950 H 277.911 2.86943 -0.804207 0
M  V30 2951 H 275.448 1.4132 -0.408294 0
M  V30 2952 H 277.406 3.91368 1.44523 0
M  V30 2953 H 276.036 2.78719 1.62836 0
M  V30 2954 H 275.088 3.75825 -0.588224 0
M  V30 2955 H 276.4 4.95716 -0.553801 0
M  V30 2956 H 275.554 5.84437 1.62845 0
M  V30 2957 H 274.293 4.58008 1.67572 0
M  V30 2958 H 273.298 5.47986 -0.446254 0
M  V30 2959 H 274.523 6.77425 -0.476716 0
M  V30 2960 H 272.469 6.32973 1.72283 0
M  V30 2961 H 272.386 7.54416 0.489123 0
M  V30 2962 H 273.654 7.61262 1.67632 0
M  V30 2963 N 277.883 0.443576 1.51229 0
M  V30 2964 C 278.793 -0.370721 2.31652 0
M  V30 2965 C 279.809 -1.02186 1.40833 0
M  V30 2966 O 280.985 -1.01586 1.73903 0
M  V30 2967 C 278.05 -1.45376 3.14749 0
M  V30 2968 C 277.111 -0.822099 4.21355 0
M  V30 2969 C 276.344 -1.85353 5.0048 0
M  V30 2970 O 276.567 -3.07656 4.80316 0
M  V30 2971 O 275.501 -1.4406 5.84406 0
M  V30 2972 H 279.327 0.286002 3.0235 0
M  V30 2973 H 276.912 0.20598 1.47973 0
M  V30 2974 H 278.794 -2.08173 3.66391 0
M  V30 2975 H 277.469 -2.09445 2.46809 0
M  V30 2976 H 276.376 -0.155909 3.73775 0
M  V30 2977 H 277.709 -0.224797 4.91686 0
M  V30 2978 N 279.361 -1.56624 0.175154 0
M  V30 2979 C 280.601 -1.98894 -0.471221 0
M  V30 2980 C 280.965 -1.05889 -1.60161 0
M  V30 2981 O 282.166 -1.37315 -2.3108 0
M  V30 2982 C 280.437 -3.44865 -0.938241 0
M  V30 2983 S 281.996 -4.09164 -1.58526 0
M  V30 2984 H 278.814 -0.694686 -0.151434 0
M  V30 2985 H 281.416 -1.93577 0.27352 0
M  V30 2986 H 280.12 -4.10265 -0.10518 0
M  V30 2987 H 279.651 -3.53956 -1.71693 0
M  V30 2988 H 281.666 -4.04528 -2.87352 0
M  V30 2989 N 280.839 0.0985539 -1.57292 0
M  V30 2990 C 281.789 1.1261 -1.9825 0
M  V30 2991 C 282.773 1.35961 -0.860426 0
M  V30 2992 O 283.965 1.36711 -1.12424 0
M  V30 2993 C 281.094 2.44727 -2.40757 0
M  V30 2994 C 280.18 2.24764 -3.59642 0
M  V30 2995 N 280.571 1.74661 -4.74687 0
M  V30 2996 C 278.869 2.55344 -3.65672 0
M  V30 2997 C 279.57 1.68887 -5.56644 0
M  V30 2998 N 278.546 2.13976 -4.99715 0
M  V30 2999 H 282.348 0.731604 -2.84648 0
M  V30 3000 H 279.862 0.306029 -1.59491 0
M  V30 3001 H 281.859 3.19072 -2.68326 0
M  V30 3002 H 280.519 2.84917 -1.55733 0
M  V30 3003 H 281.53 1.43908 -4.97505 0
M  V30 3004 H 278.207 2.99081 -2.91302 0
M  V30 3005 H 279.597 1.3123 -6.5896 0
M  V30 3006 N 282.317 1.53212 0.369288 0
M  V30 3007 C 283.547 1.72868 1.13139 0
M  V30 3008 C 283.955 0.455754 1.83629 0
M  V30 3009 O 283.298 -0.580861 1.74275 0
M  V30 3010 C 283.36 2.83667 2.20847 0
M  V30 3011 C 283.024 4.24142 1.70155 0
M  V30 3012 C 284.021 5.06619 1.16763 0
M  V30 3013 C 281.706 4.70539 1.7578 0
M  V30 3014 C 283.7 6.33581 0.696678 0
M  V30 3015 C 281.387 5.97481 1.28297 0
M  V30 3016 C 282.385 6.78833 0.753307 0
M  V30 3017 O 282.073 8.03393 0.285475 0
M  V30 3018 H 281.805 0.581707 0.344373 0
M  V30 3019 H 284.359 2.00736 0.435243 0
M  V30 3020 H 282.589 2.51265 2.93944 0
M  V30 3021 H 284.278 2.91536 2.82421 0
M  V30 3022 H 285.044 4.71948 1.11758 0
M  V30 3023 H 280.923 4.07293 2.15949 0
M  V30 3024 H 284.467 6.97027 0.282581 0
M  V30 3025 H 280.364 6.31651 1.32994 0
M  V30 3026 H 281.132 8.17497 0.405145 0
M  V30 3027 N 283.795 -0.628877 1.44509 0
M  V30 3028 C 285.02 -1.42048 1.5112 0
M  V30 3029 C 285.445 -1.87594 0.137818 0
M  V30 3030 O 284.803 -1.58873 -0.873437 0
M  V30 3031 C 284.851 -2.61541 2.48251 0
M  V30 3032 O 283.955 -3.61453 1.98559 0
M  V30 3033 H 283.296 -0.424942 0.510216 0
M  V30 3034 H 285.826 -0.767374 1.89664 0
M  V30 3035 H 285.836 -3.09057 2.66361 0
M  V30 3036 H 284.511 -2.27736 3.48007 0
M  V30 3037 H 283.088 -3.20731 1.90227 0
M  V30 3038 N 285.273 -1.31445 -0.869486 0
M  V30 3039 C 286.522 -1.20517 -1.61736 0
M  V30 3040 C 286.835 0.235341 -1.94179 0
M  V30 3041 O 288.041 0.466312 -2.67465 0
M  V30 3042 C 286.497 -2.10982 -2.91573 0
M  V30 3043 C 286.105 -3.60032 -2.66611 0
M  V30 3044 C 287.849 -2.08856 -3.69567 0
M  V30 3045 C 285.756 -4.42503 -3.92358 0
M  V30 3046 H 284.686 -0.447493 -0.606849 0
M  V30 3047 H 287.337 -1.56303 -0.96133 0
M  V30 3048 H 285.719 -1.68095 -3.58553 0
M  V30 3049 H 286.893 -4.11167 -2.08035 0
M  V30 3050 H 285.208 -3.64139 -2.0197 0
M  V30 3051 H 287.805 -2.67716 -4.62852 0
M  V30 3052 H 288.148 -1.07582 -4.02159 0
M  V30 3053 H 288.681 -2.49945 -3.09471 0
M  V30 3054 H 285.42 -5.44533 -3.64916 0
M  V30 3055 H 284.94 -3.96125 -4.50383 0
M  V30 3056 H 286.619 -4.54741 -4.60238 0
M  V30 3057 N 286.751 1.08385 -1.14413 0
M  V30 3058 C 287.683 2.1519 -0.789036 0
M  V30 3059 C 288.696 1.61638 0.19417 0
M  V30 3060 O 289.885 1.78479 -0.0275711 0
M  V30 3061 C 286.985 3.38565 -0.15058 0
M  V30 3062 C 286.158 4.21501 -1.16857 0
M  V30 3063 C 285.217 5.23277 -0.553832 0
M  V30 3064 O 284.243 5.56041 -1.21686 0
M  V30 3065 N 285.445 5.76629 0.669296 0
M  V30 3066 H 288.21 2.46257 -1.70814 0
M  V30 3067 H 285.771 1.24198 -1.03858 0
M  V30 3068 H 287.763 4.03777 0.273181 0
M  V30 3069 H 286.333 3.05299 0.671667 0
M  V30 3070 H 285.553 3.52265 -1.76926 0
M  V30 3071 H 286.841 4.73731 -1.85624 0
M  V30 3072 H 286.239 5.52243 1.22654 0
M  V30 3073 H 284.796 6.43521 1.03556 0
M  V30 3074 N 288.23 0.939286 1.26551 0
M  V30 3075 C 289.177 0.446088 2.26448 0
M  V30 3076 C 290.147 -0.493234 1.58608 0
M  V30 3077 O 291.332 -0.409857 1.86346 0
M  V30 3078 C 288.472 -0.284375 3.43926 0
M  V30 3079 C 287.585 0.690399 4.26448 0
M  V30 3080 C 286.72 -0.0610712 5.31165 0
M  V30 3081 C 285.759 0.905649 6.05363 0
M  V30 3082 N 284.896 0.186055 7.01853 0
M  V30 3083 H 289.736 1.30291 2.68008 0
M  V30 3084 H 287.273 0.65371 1.31776 0
M  V30 3085 H 289.231 -0.724313 4.10864 0
M  V30 3086 H 287.861 -1.10535 3.03285 0
M  V30 3087 H 286.913 1.24885 3.59316 0
M  V30 3088 H 288.225 1.42873 4.779 0
M  V30 3089 H 287.379 -0.56038 6.04106 0
M  V30 3090 H 286.118 -0.832297 4.80546 0
M  V30 3091 H 285.123 1.4161 5.3125 0
M  V30 3092 H 286.348 1.67685 6.58072 0
M  V30 3093 H 284.294 -0.566714 6.53548 0
M  V30 3094 H 284.211 0.863752 7.51049 0
M  V30 3095 H 285.479 -0.292221 7.78952 0
M  V30 3096 N 289.708 -1.40897 0.706093 0
M  V30 3097 C 290.956 -2.00657 0.241054 0
M  V30 3098 C 291.277 -1.56241 -1.16678 0
M  V30 3099 O 290.547 -0.79765 -1.78926 0
M  V30 3100 H 289.127 -0.742018 0.0861308 0
M  V30 3101 H 291.789 -1.72372 0.909604 0
M  V30 3102 H 290.885 -3.10958 0.266705 0
M  V30 3103 N 291.186 -0.45159 -1.50991 0
M  V30 3104 C 292.149 0.341117 -2.26647 0
M  V30 3105 C 293.149 0.937422 -1.30649 0
M  V30 3106 O 294.339 0.809644 -1.54241 0
M  V30 3107 C 291.471 1.48398 -3.06905 0
M  V30 3108 H 292.664 -0.322117 -2.98165 0
M  V30 3109 H 290.217 -0.205122 -1.54948 0
M  V30 3110 H 290.952 2.18284 -2.39838 0
M  V30 3111 H 290.737 1.06241 -3.77432 0
M  V30 3112 H 292.227 2.04367 -3.64176 0
M  V30 3113 N 292.664 1.56529 -0.183458 0
M  V30 3114 C 293.627 2.17324 0.728223 0
M  V30 3115 C 294.627 1.12453 1.14939 0
M  V30 3116 O 295.817 1.37902 1.06437 0
M  V30 3117 C 292.949 2.76591 1.99274 0
M  V30 3118 H 294.142 2.99241 0.198772 0
M  V30 3119 H 291.695 1.5616 0.0661391 0
M  V30 3120 H 292.43 1.98441 2.56499 0
M  V30 3121 H 292.215 3.5335 1.69959 0
M  V30 3122 H 293.705 3.23311 2.6431 0
M  V30 3123 N 294.142 -0.090211 1.57342 0
M  V30 3124 C 295.389 -0.792807 1.86335 0
M  V30 3125 C 295.717 -1.78494 0.772662 0
M  V30 3126 O 294.972 -1.94305 -0.233258 0
M  V30 3127 C 295.271 -1.55222 3.21933 0
M  V30 3128 C 294.937 -0.701765 4.45406 0
M  V30 3129 C 293.599 -0.467334 4.78925 0
M  V30 3130 C 295.951 -0.11086 5.21082 0
M  V30 3131 C 293.279 0.367785 5.85546 0
M  V30 3132 C 295.631 0.711609 6.28585 0
M  V30 3133 C 294.295 0.956086 6.60617 0
M  V30 3134 H 293.565 -0.290109 0.681849 0
M  V30 3135 H 296.212 -0.0541332 1.91423 0
M  V30 3136 H 294.517 -2.3626 3.12551 0
M  V30 3137 H 296.214 -2.10032 3.41595 0
M  V30 3138 H 292.804 -0.894598 4.1916 0
M  V30 3139 H 296.988 -0.279129 4.95514 0
M  V30 3140 H 292.244 0.566128 6.08773 0
M  V30 3141 H 296.418 1.17632 6.86393 0
M  V30 3142 H 294.045 1.60499 7.43064 0
M  V30 3143 N 295.62 -1.53406 -0.361157 0
M  V30 3144 C 296.55 -1.83136 -1.44857 0
M  V30 3145 C 297.531 -0.685174 -1.5569 0
M  V30 3146 O 298.716 -0.93544 -1.70186 0
M  V30 3147 C 295.846 -2.02522 -2.82138 0
M  V30 3148 C 294.8 -3.18302 -2.86126 0
M  V30 3149 C 294.126 -3.22989 -4.26125 0
M  V30 3150 C 295.426 -4.56796 -2.53248 0
M  V30 3151 H 297.12 -2.74201 -1.20226 0
M  V30 3152 H 294.666 -1.31938 -0.576922 0
M  V30 3153 H 296.619 -2.21904 -3.58241 0
M  V30 3154 H 295.343 -1.08172 -3.08166 0
M  V30 3155 H 294.002 -2.98747 -2.12475 0
M  V30 3156 H 293.65 -2.26267 -4.49235 0
M  V30 3157 H 293.35 -4.00781 -4.29708 0
M  V30 3158 H 294.874 -3.44559 -5.04094 0
M  V30 3159 H 296.288 -4.7631 -3.19064 0
M  V30 3160 H 294.685 -5.36862 -2.68141 0
M  V30 3161 H 295.755 -4.61606 -1.48484 0
M  V30 3162 N 297.098 0.621204 -1.44841 0
M  V30 3163 C 298.346 1.37783 -1.47852 0
M  V30 3164 C 298.667 1.94653 -0.116224 0
M  V30 3165 O 297.937 1.76367 0.852737 0
M  V30 3166 H 296.517 0.511453 -0.544449 0
M  V30 3167 H 299.179 0.730446 -1.80694 0
M  V30 3168 H 298.275 2.20414 -2.20961 0
M  V30 3169 N 298.576 1.31904 0.862503 0
M  V30 3170 C 299.506 1.22782 1.98612 0
M  V30 3171 C 300.487 0.113362 1.69722 0
M  V30 3172 O 301.672 0.299218 1.91881 0
M  V30 3173 C 298.802 0.942058 3.34279 0
M  V30 3174 C 297.756 2.0169 3.77499 0
M  V30 3175 C 297.082 1.58369 5.10709 0
M  V30 3176 C 298.382 3.43096 3.93805 0
M  V30 3177 H 300.076 2.16788 2.06502 0
M  V30 3178 H 297.622 1.04366 0.992154 0
M  V30 3179 H 299.575 0.864818 4.1243 0
M  V30 3180 H 298.299 -0.0336603 3.26583 0
M  V30 3181 H 296.958 2.08416 3.01593 0
M  V30 3182 H 296.606 0.595628 4.99461 0
M  V30 3183 H 296.306 2.30279 5.40597 0
M  V30 3184 H 297.83 1.52067 5.91361 0
M  V30 3185 H 299.244 3.39003 4.62331 0
M  V30 3186 H 297.641 4.13288 4.35101 0
M  V30 3187 H 298.711 3.83334 2.96957 0
M  V30 3188 N 300.054 -1.07777 1.14986 0
M  V30 3189 C 301.302 -1.79934 0.920235 0
M  V30 3190 C 301.623 -1.86955 -0.554336 0
M  V30 3191 O 300.893 -1.36731 -1.40291 0
M  V30 3192 H 299.473 -0.666424 0.337473 0
M  V30 3193 H 302.135 -1.3027 1.44968 0
M  V30 3194 H 301.231 -2.82539 1.32583 0
M  V30 3195 N 301.532 -0.945985 -1.26051 0
M  V30 3196 C 302.76 -0.613025 -1.9761 0
M  V30 3197 C 303.175 0.813035 -1.70397 0
M  V30 3198 O 302.532 1.54274 -0.974979 0
M  V30 3199 C 302.583 -0.85159 -3.51326 0
M  V30 3200 O 302.304 -2.22157 -3.77595 0
M  V30 3201 C 303.805 -0.529831 -4.40122 0
M  V30 3202 H 301.025 -0.230593 -0.630133 0
M  V30 3203 H 303.569 -1.268 -1.60443 0
M  V30 3204 H 301.724 -0.243151 -3.86636 0
M  V30 3205 H 302.138 -2.2852 -4.721 0
M  V30 3206 H 303.612 -0.747348 -5.46917 0
M  V30 3207 H 304.089 0.535341 -4.35925 0
M  V30 3208 H 304.695 -1.11721 -4.10364 0
M  V30 3209 N 303.011 1.40521 -0.713556 0
M  V30 3210 C 304.288 1.94775 -0.17943 0
M  V30 3211 C 304.668 1.65184 1.31444 0
M  V30 3212 O 304.016 0.968429 2.06963 0
M  V30 3213 C 304.226 3.45543 -0.489986 0
M  V30 3214 C 305.574 4.22442 -0.427536 0
M  V30 3215 O 306.598 3.53644 -0.425929 0
M  V30 3216 O 305.457 5.4501 -0.403292 0
M  V30 3217 H 302.551 0.826606 -0.0255192 0
M  V30 3218 H 305.097 1.5014 -0.790949 0
M  V30 3219 H 303.869 3.60432 -1.5233 0
M  V30 3220 H 303.492 3.97311 0.151598 0
M  V30 3221 N 304.489 0.459591 1.5075 0
M  V30 3222 C 305.714 -0.0996819 2.0716 0
M  V30 3223 C 306.139 -1.33761 1.32249 0
M  V30 3224 O 305.497 -1.77551 0.366786 0
M  V30 3225 C 305.545 -0.378226 3.58611 0
M  V30 3226 O 304.649 -1.46081 3.85661 0
M  V30 3227 H 303.99 0.00791392 0.663953 0
M  V30 3228 H 306.52 0.647329 1.9409 0
M  V30 3229 H 306.53 -0.622135 4.03229 0
M  V30 3230 H 305.205 0.526439 4.12555 0
M  V30 3231 H 303.782 -1.20511 3.5289 0
M  V30 3232 N 305.967 -1.56429 0.191757 0
M  V30 3233 C 307.213 -1.97777 -0.448554 0
M  V30 3234 C 307.546 -1.07847 -1.61501 0
M  V30 3235 O 306.821 -0.129774 -1.94067 0
M  V30 3236 C 307.104 -3.48362 -0.911906 0
M  V30 3237 C 306.957 -4.4907 0.256136 0
M  V30 3238 C 308.276 -4.02561 -1.77857 0
M  V30 3239 H 305.395 -0.719071 -0.161572 0
M  V30 3240 H 308.037 -1.87896 0.282007 0
M  V30 3241 H 306.187 -3.56914 -1.53442 0
M  V30 3242 H 307.859 -4.5256 0.893733 0
M  V30 3243 H 306.102 -4.24181 0.908436 0
M  V30 3244 H 306.773 -5.51889 -0.11053 0
M  V30 3245 H 309.249 -3.96767 -1.25359 0
M  V30 3246 H 308.125 -5.08301 -2.07174 0
M  V30 3247 H 308.386 -3.47616 -2.73158 0
M  V30 3248 N 307.445 0.0818655 -1.57387 0
M  V30 3249 C 308.861 0.436412 -1.53517 0
M  V30 3250 C 309.061 1.79758 -0.910459 0
M  V30 3251 O 308.117 2.47324 -0.508636 0
M  V30 3252 C 309.43 0.386734 -2.98203 0
M  V30 3253 C 310.978 0.467644 -3.09487 0
M  V30 3254 C 311.453 0.447978 -4.55804 0
M  V30 3255 N 312.944 0.508348 -4.60402 0
M  V30 3256 C 313.679 0.515184 -5.71081 0
M  V30 3257 N 313.175 0.477435 -6.91153 0
M  V30 3258 N 314.968 0.560988 -5.59294 0
M  V30 3259 H 307.119 -0.809546 -1.96367 0
M  V30 3260 H 309.382 -0.302733 -0.898363 0
M  V30 3261 H 309.088 -0.546539 -3.47427 0
M  V30 3262 H 308.962 1.20075 -3.57578 0
M  V30 3263 H 311.349 1.39134 -2.60242 0
M  V30 3264 H 311.43 -0.374753 -2.5304 0
M  V30 3265 H 311.074 -0.471826 -5.05704 0
M  V30 3266 H 311.004 1.30777 -5.10103 0
M  V30 3267 H 313.495 0.54218 -3.7399 0
M  V30 3268 H 313.808 0.486299 -7.71268 0
M  V30 3269 H 312.153 0.444278 -6.93579 0
M  V30 3270 H 315.344 0.5881 -4.64391 0
M  V30 3271 H 315.517 0.562846 -6.45551 0
M  V30 3272 N 308.923 1.53595 0.353017 0
M  V30 3273 C 310.169 1.70638 1.09593 0
M  V30 3274 C 310.502 0.463286 1.88593 0
M  V30 3275 O 309.777 -0.539597 1.86865 0
M  V30 3276 C 310.06 2.96406 2.04489 0
M  V30 3277 C 309.913 4.30901 1.29014 0
M  V30 3278 C 311.232 3.17812 3.0444 0
M  V30 3279 H 308.351 0.620913 0.397034 0
M  V30 3280 H 310.993 1.86254 0.375446 0
M  V30 3281 H 309.143 2.83223 2.65927 0
M  V30 3282 H 310.815 4.55917 0.702638 0
M  V30 3283 H 309.058 4.29741 0.592071 0
M  V30 3284 H 309.729 5.1506 1.98537 0
M  V30 3285 H 312.205 3.30263 2.53112 0
M  V30 3286 H 311.081 4.07223 3.6805 0
M  V30 3287 H 311.342 2.33669 3.75301 0
M  V30 3288 N 310.401 -0.613514 1.45168 0
M  V30 3289 C 311.647 -1.37471 1.49096 0
M  V30 3290 C 311.98 -1.93765 0.129901 0
M  V30 3291 O 311.255 -1.74707 -0.854858 0
M  V30 3292 C 311.538 -2.52701 2.56542 0
M  V30 3293 C 311.391 -2.01643 4.0207 0
M  V30 3294 C 312.71 -3.54849 2.60327 0
M  V30 3295 H 309.829 -0.498502 0.54283 0
M  V30 3296 H 312.471 -0.692125 1.76945 0
M  V30 3297 H 310.621 -3.10931 2.32926 0
M  V30 3298 H 312.293 -1.48108 4.36877 0
M  V30 3299 H 310.536 -1.32688 4.13009 0
M  V30 3300 H 311.207 -2.84681 4.72928 0
M  V30 3301 H 313.683 -3.0645 2.81474 0
M  V30 3302 H 312.559 -4.32973 3.37381 0
M  V30 3303 H 312.82 -4.10079 1.6519 0
M  V30 3304 N 311.879 -1.3236 -0.855495 0
M  V30 3305 C 312.826 -1.21225 -1.964 0
M  V30 3306 C 313.796 -0.0946204 -1.6583 0
M  V30 3307 O 314.981 -0.27002 -1.8888 0
M  V30 3308 C 312.121 -0.940419 -3.32039 0
M  V30 3309 C 311.234 -2.14276 -3.75113 0
M  V30 3310 C 310.369 -1.80648 -4.9954 0
M  V30 3311 C 309.408 -2.97208 -5.35102 0
M  V30 3312 N 308.545 -2.63678 -6.50706 0
M  V30 3313 H 313.385 -2.16042 -2.05255 0
M  V30 3314 H 310.922 -1.07451 -1.00463 0
M  V30 3315 H 312.88 -0.763311 -4.10158 0
M  V30 3316 H 311.51 -0.0290413 -3.22787 0
M  V30 3317 H 310.562 -2.43017 -2.92655 0
M  V30 3318 H 311.874 -3.01468 -3.97389 0
M  V30 3319 H 311.028 -1.59484 -5.85363 0
M  V30 3320 H 309.767 -0.906678 -4.79198 0
M  V30 3321 H 308.772 -3.19004 -4.47791 0
M  V30 3322 H 309.997 -3.87918 -5.57401 0
M  V30 3323 H 307.943 -1.76238 -6.31883 0
M  V30 3324 H 307.86 -3.444 -6.72997 0
M  V30 3325 H 309.128 -2.45942 -7.39684 0
M  V30 3326 N 313.357 1.07166 -1.15556 0
M  V30 3327 C 314.32 2.12589 -0.856644 0
M  V30 3328 C 315.32 1.6015 0.14444 0
M  V30 3329 O 316.51 1.7399 -0.0854163 0
M  V30 3330 C 313.642 3.39753 -0.279405 0
M  V30 3331 H 314.835 2.40539 -1.79112 0
M  V30 3332 H 312.388 1.23086 -0.963298 0
M  V30 3333 H 313.123 3.17447 0.663174 0
M  V30 3334 H 312.908 3.79117 -1.00063 0
M  V30 3335 H 314.398 4.17507 -0.0879113 0
M  V30 3336 N 314.835 0.952656 1.25548 0
M  V30 3337 C 316.112 0.523818 1.88456 0
M  V30 3338 C 316.492 -0.998871 1.85973 0
M  V30 3339 O 315.84 -1.86381 1.3219 0
M  V30 3340 C 316.05 1.0982 3.31271 0
M  V30 3341 C 317.398 1.17385 4.08051 0
M  V30 3342 O 318.422 1.04961 3.40384 0
M  V30 3343 O 317.281 1.36852 5.29088 0
M  V30 3344 H 314.375 0.172485 0.808813 0
M  V30 3345 H 316.921 1.04596 1.33633 0
M  V30 3346 H 315.693 2.1415 3.27499 0
M  V30 3347 H 315.316 0.559191 3.93648 0
M  V30 3348 N 316.313 -1.40141 0.720998 0
M  V30 3349 C 317.223 -2.34486 0.0731031 0
M  V30 3350 C 318.239 -1.57587 -0.737723 0
M  V30 3351 O 319.415 -1.89949 -0.669429 0
M  V30 3352 C 316.48 -3.36528 -0.833656 0
M  V30 3353 C 315.541 -4.29298 -0.0121673 0
M  V30 3354 C 314.774 -5.26466 -0.875742 0
M  V30 3355 O 314.997 -5.29745 -2.11485 0
M  V30 3356 O 313.931 -6.01092 -0.31185 0
M  V30 3357 H 317.757 -2.9152 0.851444 0
M  V30 3358 H 315.342 -1.41427 0.481527 0
M  V30 3359 H 317.224 -3.99093 -1.35289 0
M  V30 3360 H 315.899 -2.81899 -1.59105 0
M  V30 3361 H 314.806 -3.70001 0.552262 0
M  V30 3362 H 316.139 -4.87094 0.707129 0
M  V30 3363 N 317.792 -0.46758 -1.50504 0
M  V30 3364 C 319.208 -0.121533 -1.59137 0
M  V30 3365 C 319.408 1.3717 -1.47603 0
M  V30 3366 O 318.464 2.14464 -1.33272 0
M  V30 3367 C 319.777 -0.6686 -2.93173 0
M  V30 3368 C 321.325 -0.631716 -3.06559 0
M  V30 3369 C 321.8 -1.15627 -4.43164 0
M  V30 3370 N 323.291 -1.11553 -4.49567 0
M  V30 3371 C 324.026 -1.49195 -5.5365 0
M  V30 3372 N 323.522 -1.94269 -6.65005 0
M  V30 3373 N 325.315 -1.4082 -5.44175 0
M  V30 3374 H 317.466 -1.4388 -1.56245 0
M  V30 3375 H 319.729 -0.594784 -0.738198 0
M  V30 3376 H 319.435 -1.71453 -3.07078 0
M  V30 3377 H 319.309 -0.11021 -3.77039 0
M  V30 3378 H 321.696 0.405297 -2.92304 0
M  V30 3379 H 321.777 -1.22687 -2.24458 0
M  V30 3380 H 321.421 -2.1919 -4.58168 0
M  V30 3381 H 321.351 -0.537365 -5.23851 0
M  V30 3382 H 323.842 -0.784895 -3.69659 0
M  V30 3383 H 324.155 -2.21148 -7.40482 0
M  V30 3384 H 322.5 -1.98219 -6.66134 0
M  V30 3385 H 325.691 -1.0545 -4.56068 0
M  V30 3386 H 325.864 -1.70481 -6.25172 0
M  V30 3387 N 319.27 1.56325 -0.20005 0
M  V30 3388 C 320.518 1.97329 0.436547 0
M  V30 3389 C 320.839 1.08826 1.61808 0
M  V30 3390 O 320.109 0.160604 1.95241 0
M  V30 3391 H 318.689 0.728714 0.164272 0
M  V30 3392 H 321.351 1.92761 -0.287937 0
M  V30 3393 H 320.447 3.02264 0.777353 0
M  V30 3394 N 320.748 -0.0735177 1.57428 0
M  V30 3395 C 321.695 -1.08756 2.0357 0
M  V30 3396 C 322.665 -1.38559 0.916 0
M  V30 3397 O 323.85 -1.49656 1.18354 0
M  V30 3398 C 320.99 -2.39657 2.48311 0
M  V30 3399 C 320.103 -2.16399 3.73892 0
M  V30 3400 C 319.238 -3.40852 4.07423 0
M  V30 3401 C 318.277 -3.1295 5.2605 0
M  V30 3402 N 317.414 -4.29729 5.55228 0
M  V30 3403 H 322.254 -0.687104 2.8997 0
M  V30 3404 H 319.791 -0.327709 1.43403 0
M  V30 3405 H 321.749 -3.16081 2.72303 0
M  V30 3406 H 320.379 -2.77508 1.64891 0
M  V30 3407 H 319.431 -1.30676 3.57251 0
M  V30 3408 H 320.743 -1.91788 4.60455 0
M  V30 3409 H 319.897 -4.25671 4.32306 0
M  V30 3410 H 318.636 -3.68537 3.19425 0
M  V30 3411 H 317.641 -2.26526 5.00965 0
M  V30 3412 H 318.866 -2.86589 6.15665 0
M  V30 3413 H 316.812 -4.57448 4.70188 0
M  V30 3414 H 316.729 -4.08385 6.36206 0
M  V30 3415 H 317.997 -5.1555 5.84661 0
M  V30 3416 N 322.226 -1.5378 -0.344866 0
M  V30 3417 C 323.159 -1.7649 -1.4466 0
M  V30 3418 C 324.137 -0.613954 -1.50563 0
M  V30 3419 O 325.321 -0.84896 -1.683 0
M  V30 3420 C 322.448 -1.86235 -2.82903 0
M  V30 3421 C 321.494 -3.08375 -2.94631 0
M  V30 3422 S 322.327 -4.67457 -2.61236 0
M  V30 3423 C 323.483 -4.80079 -4.0159 0
M  V30 3424 H 323.716 -2.69661 -1.2518 0
M  V30 3425 H 321.249 -1.44632 -0.540455 0
M  V30 3426 H 323.207 -1.92535 -3.62547 0
M  V30 3427 H 321.868 -0.940786 -2.9968 0
M  V30 3428 H 321.061 -3.11865 -3.95925 0
M  V30 3429 H 320.663 -3.00294 -2.22934 0
M  V30 3430 H 322.955 -4.61407 -4.96094 0
M  V30 3431 H 323.898 -5.82168 -4.03095 0
M  V30 3432 H 324.306 -4.08544 -3.89554 0
M  V30 3433 N 323.704 0.605807 -1.45491 0
M  V30 3434 C 324.95 1.36679 -1.49823 0
M  V30 3435 C 325.283 1.93693 -0.140175 0
M  V30 3436 O 324.558 1.75158 0.845581 0
M  V30 3437 C 324.841 2.51337 -2.57879 0
M  V30 3438 C 324.694 1.99508 -4.03134 0
M  V30 3439 C 326.013 3.53463 -2.62205 0
M  V30 3440 H 323.132 0.495617 -0.545466 0
M  V30 3441 H 325.774 0.682732 -1.7731 0
M  V30 3442 H 323.924 3.09691 -2.34571 0
M  V30 3443 H 325.596 1.45789 -4.37656 0
M  V30 3444 H 323.839 1.30496 -4.13707 0
M  V30 3445 H 324.51 2.82169 -4.74431 0
M  V30 3446 H 326.986 3.04953 -2.83095 0
M  V30 3447 H 325.862 4.31178 -3.39672 0
M  V30 3448 H 326.123 4.09197 -1.67363 0
M  V30 3449 N 325.182 1.32811 0.848464 0
M  V30 3450 C 326.593 1.21315 1.41914 0
M  V30 3451 C 326.944 -0.171847 1.95446 0
M  V30 3452 O 326.069 -1.07093 1.88043 0
M  V30 3453 C 326.664 2.19631 2.57968 0
M  V30 3454 C 325.223 2.12003 3.11017 0
M  V30 3455 C 324.37 2.07651 1.83783 0
M  V30 3456 H 327.321 1.44549 0.655071 0
M  V30 3457 H 327.342 1.79845 3.35315 0
M  V30 3458 H 326.854 3.20423 2.18976 0
M  V30 3459 H 324.955 1.14481 3.54577 0
M  V30 3460 H 325.068 3.02111 3.71841 0
M  V30 3461 H 323.432 1.52983 2.03638 0
M  V30 3462 H 324.215 3.10235 1.47 0
M  V30 3463 N 326.66 -1.06551 1.16123 0
M  V30 3464 C 327.57 -2.17484 0.879662 0
M  V30 3465 C 328.586 -1.73377 -0.147104 0
M  V30 3466 O 329.762 -2.01379 0.0289128 0
M  V30 3467 C 326.827 -3.44591 0.381829 0
M  V30 3468 C 325.888 -4.0322 1.4735 0
M  V30 3469 C 325.121 -5.24261 0.999324 0
M  V30 3470 O 325.344 -5.70198 -0.151957 0
M  V30 3471 O 324.278 -5.74775 1.78653 0
M  V30 3472 H 328.104 -2.44075 1.80724 0
M  V30 3473 H 325.689 -1.16042 0.940992 0
M  V30 3474 H 327.571 -4.21254 0.111053 0
M  V30 3475 H 326.246 -3.19532 -0.51777 0
M  V30 3476 H 325.153 -3.2806 1.79798 0
M  V30 3477 H 326.486 -4.32568 2.34831 0
M  V30 3478 N 328.138 -0.959301 -1.25041 0
M  V30 3479 C 329.415 -0.533805 -1.88175 0
M  V30 3480 C 329.795 0.988994 -1.865 0
M  V30 3481 O 329.143 1.85677 -1.33177 0
M  V30 3482 C 329.353 -1.11575 -3.30684 0
M  V30 3483 C 330.701 -1.19548 -4.07423 0
M  V30 3484 O 331.725 -1.06765 -3.39823 0
M  V30 3485 O 330.584 -1.39656 -5.28354 0
M  V30 3486 H 327.678 -0.176772 -0.807887 0
M  V30 3487 H 330.224 -1.05303 -1.33076 0
M  V30 3488 H 328.996 -2.15884 -3.26358 0
M  V30 3489 H 328.619 -0.580059 -3.93346 0
M  V30 3490 N 329.616 1.39756 -0.72842 0
M  V30 3491 C 330.546 2.33289 -0.0991354 0
M  V30 3492 C 331.527 1.53568 0.731489 0
M  V30 3493 O 332.712 1.81987 0.677807 0
M  V30 3494 C 329.842 3.3763 0.813834 0
M  V30 3495 C 328.796 4.2791 0.0878663 0
M  V30 3496 C 328.122 5.22894 1.11741 0
M  V30 3497 C 329.422 5.11314 -1.06563 0
M  V30 3498 H 331.116 2.86163 -0.880408 0
M  V30 3499 H 328.662 1.37591 -0.424819 0
M  V30 3500 H 330.615 4.0201 1.26355 0
M  V30 3501 H 329.339 2.83181 1.62715 0
M  V30 3502 H 327.998 3.65 -0.342159 0
M  V30 3503 H 327.646 4.64744 1.92412 0
M  V30 3504 H 327.346 5.84143 0.636477 0
M  V30 3505 H 328.87 5.90151 1.56697 0
M  V30 3506 H 330.284 5.69076 -0.694671 0
M  V30 3507 H 328.681 5.81671 -1.47577 0
M  V30 3508 H 329.751 4.46534 -1.89038 0
M  V30 3509 N 331.094 0.475555 1.50254 0
M  V30 3510 C 332.004 -0.321501 2.32387 0
M  V30 3511 C 333.02 -0.991755 1.42969 0
M  V30 3512 O 334.196 -0.978747 1.76018 0
M  V30 3513 C 331.261 -1.38667 3.17762 0
M  V30 3514 C 330.322 -0.732538 4.23004 0
M  V30 3515 C 329.555 -1.74695 5.04299 0
M  V30 3516 O 329.778 -2.97399 4.86734 0
M  V30 3517 O 328.712 -1.31631 5.8733 0
M  V30 3518 H 332.538 0.350071 3.01676 0
M  V30 3519 H 330.123 0.237321 1.47503 0
M  V30 3520 H 332.005 -2.00354 3.70724 0
M  V30 3521 H 330.68 -2.04163 2.51196 0
M  V30 3522 H 329.587 -0.0765902 3.74022 0
M  V30 3523 H 330.92 -0.120452 4.92053 0
M  V30 3524 N 332.573 -1.56217 0.208337 0
M  V30 3525 C 333.989 -1.58919 -0.14729 0
M  V30 3526 C 334.189 -1.22486 -1.59998 0
M  V30 3527 O 333.245 -0.953849 -2.3379 0
M  V30 3528 C 334.558 -3.00236 0.167048 0
M  V30 3529 C 336.106 -3.12813 0.108219 0
M  V30 3530 C 336.581 -4.56284 0.396049 0
M  V30 3531 N 338.072 -4.61912 0.345142 0
M  V30 3532 C 338.807 -5.70837 0.541523 0
M  V30 3533 N 338.303 -6.88178 0.798968 0
M  V30 3534 N 340.096 -5.60091 0.474867 0
M  V30 3535 H 332.247 -1.78177 1.15614 0
M  V30 3536 H 334.51 -0.827555 0.462446 0
M  V30 3537 H 334.216 -3.31499 1.1748 0
M  V30 3538 H 334.09 -3.7354 -0.524184 0
M  V30 3539 H 336.477 -2.81354 -0.890157 0
M  V30 3540 H 336.558 -2.41866 0.832729 0
M  V30 3541 H 336.202 -4.88458 1.3918 0
M  V30 3542 H 336.132 -5.25439 -0.349502 0
M  V30 3543 H 338.623 -3.77589 0.153316 0
M  V30 3544 H 338.936 -7.67095 0.93727 0
M  V30 3545 H 337.281 -6.89953 0.836013 0
M  V30 3546 H 340.472 -4.67297 0.274064 0
M  V30 3547 H 340.645 -6.44917 0.631326 0
M  V30 3548 N 334.051 0.0651679 -1.57465 0
M  V30 3549 C 334.983 1.10359 -2.00882 0
M  V30 3550 C 335.996 1.346 -0.915788 0
M  V30 3551 O 337.185 1.32723 -1.1936 0
M  V30 3552 C 334.285 2.45312 -2.33828 0
M  V30 3553 C 333.458 2.40934 -3.65061 0
M  V30 3554 C 332.517 3.58047 -3.85602 0
M  V30 3555 O 331.543 3.39175 -4.57109 0
M  V30 3556 N 332.745 4.78637 -3.28462 0
M  V30 3557 H 335.51 0.733807 -2.90578 0
M  V30 3558 H 333.071 0.253719 -1.599 0
M  V30 3559 H 335.063 3.22314 -2.44737 0
M  V30 3560 H 333.633 2.74267 -1.49988 0
M  V30 3561 H 332.853 1.49273 -3.64844 0
M  V30 3562 H 334.141 2.35117 -4.51218 0
M  V30 3563 H 333.539 4.96872 -2.70433 0
M  V30 3564 H 332.096 5.53127 -3.44809 0
M  V30 3565 N 335.529 1.53961 0.336706 0
M  V30 3566 C 336.778 1.70751 1.07363 0
M  V30 3567 C 337.091 0.481061 1.89592 0
M  V30 3568 O 338.297 0.530046 2.66276 0
M  V30 3569 C 336.753 3.01965 1.95818 0
M  V30 3570 C 336.361 4.31971 1.18764 0
M  V30 3571 C 338.105 3.28121 2.69327 0
M  V30 3572 C 336.012 5.54255 2.06289 0
M  V30 3573 H 334.942 0.636292 0.404535 0
M  V30 3574 H 337.593 1.80459 0.332681 0
M  V30 3575 H 335.975 2.86132 2.7376 0
M  V30 3576 H 337.149 4.5853 0.456849 0
M  V30 3577 H 335.464 4.12481 0.569946 0
M  V30 3578 H 338.061 4.16673 3.35094 0
M  V30 3579 H 338.404 2.45426 3.36261 0
M  V30 3580 H 338.937 3.44762 1.98454 0
M  V30 3581 H 335.676 6.39513 1.43885 0
M  V30 3582 H 335.196 5.31935 2.77138 0
M  V30 3583 H 336.875 5.90159 2.65182 0
M  V30 3584 N 337.007 -0.598083 1.45811 0
M  V30 3585 C 338.255 -1.35413 1.50026 0
M  V30 3586 C 338.576 -1.94444 0.147177 0
M  V30 3587 O 337.846 -1.77701 -0.824571 0
M  V30 3588 H 336.426 -0.502727 0.552517 0
M  V30 3589 H 339.088 -0.701606 1.81834 0
M  V30 3590 H 338.184 -2.16871 2.2444 0
M  V30 3591 N 338.485 -1.33259 -0.841409 0
M  V30 3592 C 339.418 -1.1764 -1.95541 0
M  V30 3593 C 340.396 -0.072501 -1.62438 0
M  V30 3594 O 341.58 -0.23427 -1.87039 0
M  V30 3595 C 338.707 -0.803794 -3.29024 0
M  V30 3596 C 337.753 -1.91482 -3.81099 0
M  V30 3597 S 338.586 -3.52538 -4.03085 0
M  V30 3598 C 339.742 -3.17279 -5.39523 0
M  V30 3599 H 339.975 -2.11941 -2.08491 0
M  V30 3600 H 337.508 -1.18072 -0.9949 0
M  V30 3601 H 339.466 -0.595592 -4.06156 0
M  V30 3602 H 338.127 0.120574 -3.13868 0
M  V30 3603 H 337.32 -1.60742 -4.7768 0
M  V30 3604 H 336.922 -2.07956 -3.10854 0
M  V30 3605 H 339.214 -2.67946 -6.22263 0
M  V30 3606 H 340.157 -4.1293 -5.75234 0
M  V30 3607 H 340.565 -2.53943 -5.04156 0
M  V30 3608 N 339.963 1.05934 -1.16686 0
M  V30 3609 C 340.926 2.11669 -0.879144 0
M  V30 3610 C 341.926 1.60294 0.127445 0
M  V30 3611 O 343.116 1.7389 -0.103865 0
M  V30 3612 C 340.248 3.39438 -0.315425 0
M  V30 3613 H 341.441 2.38626 -1.81653 0
M  V30 3614 H 338.994 1.22058 -0.976299 0
M  V30 3615 H 339.729 3.18132 0.629468 0
M  V30 3616 H 339.514 3.78034 -1.04079 0
M  V30 3617 H 341.004 4.17391 -0.132189 0
M  V30 3618 N 341.441 0.965919 1.2453 0
M  V30 3619 C 342.351 0.502154 2.29163 0
M  V30 3620 C 343.367 -0.436017 1.68448 0
M  V30 3621 O 344.543 -0.309497 1.99008 0
M  V30 3622 C 341.608 -0.201956 3.46111 0
M  V30 3623 C 340.669 0.775821 4.22232 0
M  V30 3624 C 339.902 0.105217 5.33596 0
M  V30 3625 O 340.125 -1.10683 5.59558 0
M  V30 3626 O 339.059 0.796475 5.96607 0
M  V30 3627 H 342.885 1.37194 2.70946 0
M  V30 3628 H 340.47 0.732875 1.30189 0
M  V30 3629 H 342.352 -0.597564 4.17142 0
M  V30 3630 H 341.027 -1.04673 3.06309 0
M  V30 3631 H 339.934 1.22185 3.53584 0
M  V30 3632 H 341.267 1.58896 4.65846 0
M  V30 3633 N 342.919 -1.39368 0.735821 0
M  V30 3634 C 343.882 -2.2896 0.104874 0
M  V30 3635 C 344.882 -1.46347 -0.666274 0
M  V30 3636 O 346.072 -1.67014 -0.49517 0
M  V30 3637 C 343.204 -3.29857 -0.860656 0
M  V30 3638 H 344.397 -2.86259 0.894205 0
M  V30 3639 H 341.95 -1.48029 0.501704 0
M  V30 3640 H 342.685 -2.77615 -1.67631 0
M  V30 3641 H 342.47 -3.9087 -0.310327 0
M  V30 3642 H 343.96 -3.96893 -1.29867 0
M  V30 3643 N 344.397 -0.483516 -1.5 0
M  V30 3644 C 345.307 0.309172 -2.32554 0
M  V30 3645 C 346.323 0.984159 -1.43493 0
M  V30 3646 O 347.499 0.969399 -1.76535 0
M  V30 3647 C 344.564 1.36979 -3.18493 0
M  V30 3648 C 343.625 0.710095 -4.23387 0
M  V30 3649 C 342.858 1.72018 -5.05218 0
M  V30 3650 O 343.081 2.94813 -4.88305 0
M  V30 3651 O 342.015 1.28515 -5.8802 0
M  V30 3652 H 345.841 -0.366064 -3.01486 0
M  V30 3653 H 343.426 -0.24514 -1.47375 0
M  V30 3654 H 345.308 1.98385 -3.71781 0
M  V30 3655 H 343.983 2.02828 -2.52275 0
M  V30 3656 H 342.89 0.0567539 -3.74057 0
M  V30 3657 H 344.223 0.0943557 -4.9211 0
M  V30 3658 N 345.875 1.56104 -0.216619 0
M  V30 3659 C 347.123 1.97781 0.415593 0
M  V30 3660 C 347.444 1.10536 1.60645 0
M  V30 3661 O 346.714 0.181303 1.95059 0
M  V30 3662 H 345.294 0.730415 0.156534 0
M  V30 3663 H 347.956 1.92445 -0.308366 0
M  V30 3664 H 347.052 3.03072 0.74525 0
M  V30 3665 N 347.353 -0.0568162 1.57498 0
M  V30 3666 C 348.316 -1.05038 2.03715 0
M  V30 3667 C 349.316 -1.30709 0.936577 0
M  V30 3668 O 350.506 -1.26178 1.20103 0
M  V30 3669 C 347.638 -2.39034 2.43055 0
M  V30 3670 H 348.831 -0.651715 2.92733 0
M  V30 3671 H 346.384 -0.302947 1.53336 0
M  V30 3672 H 347.119 -2.83703 1.57108 0
M  V30 3673 H 346.904 -2.21739 3.2338 0
M  V30 3674 H 348.394 -3.10421 2.79336 0
M  V30 3675 N 348.832 -1.54138 -0.328536 0
M  V30 3676 C 350.078 -1.7236 -1.06865 0
M  V30 3677 C 350.411 -0.493231 -1.87832 0
M  V30 3678 O 349.686 0.5098 -1.877 0
M  V30 3679 C 349.969 -2.99621 -1.99747 0
M  V30 3680 C 349.822 -4.32899 -1.22143 0
M  V30 3681 C 351.141 -3.22615 -2.99345 0
M  V30 3682 H 348.26 -0.627151 -0.387105 0
M  V30 3683 H 350.902 -1.86827 -0.345767 0
M  V30 3684 H 349.052 -2.87418 -2.61387 0
M  V30 3685 H 350.724 -4.56978 -0.630017 0
M  V30 3686 H 348.967 -4.30628 -0.523628 0
M  V30 3687 H 349.638 -5.18154 -1.90318 0
M  V30 3688 H 352.114 -3.34248 -2.47826 0
M  V30 3689 H 350.99 -4.13027 -3.61524 0
M  V30 3690 H 351.251 -2.3961 -3.71536 0
M  V30 3691 N 350.31 0.590341 -1.46126 0
M  V30 3692 C 351.721 1.17243 -1.45296 0
M  V30 3693 C 352.072 1.95281 -0.189723 0
M  V30 3694 O 351.197 2.04502 0.707674 0
M  V30 3695 C 351.792 2.13284 -2.6324 0
M  V30 3696 C 350.351 2.66832 -2.65476 0
M  V30 3697 C 349.498 1.42557 -2.3785 0
M  V30 3698 H 352.449 0.378692 -1.54116 0
M  V30 3699 H 352.47 2.96619 -2.38323 0
M  V30 3700 H 351.982 1.56459 -3.55165 0
M  V30 3701 H 350.083 3.27548 -1.77603 0
M  V30 3702 H 350.196 3.10088 -3.65215 0
M  V30 3703 H 348.56 1.72107 -1.87753 0
M  V30 3704 H 349.343 0.875741 -3.31942 0
M  V30 3705 N 351.788 1.33704 0.83433 0
M  V30 3706 C 353.035 1.25417 1.58987 0
M  V30 3707 C 353.363 -0.178869 1.93676 0
M  V30 3708 O 352.618 -1.13723 1.59265 0
M  V30 3709 C 352.917 2.07926 2.90692 0
M  V30 3710 C 352.583 3.57066 2.75345 0
M  V30 3711 C 351.245 3.97724 2.70867 0
M  V30 3712 C 353.597 4.51817 2.59828 0
M  V30 3713 C 350.925 5.31344 2.48778 0
M  V30 3714 C 353.277 5.85604 2.39272 0
M  V30 3715 C 351.941 6.25439 2.33199 0
M  V30 3716 H 351.211 0.458934 0.581774 0
M  V30 3717 H 353.858 1.65335 0.966261 0
M  V30 3718 H 352.163 1.608 3.57282 0
M  V30 3719 H 353.86 1.98868 3.48213 0
M  V30 3720 H 350.45 3.24785 2.79665 0
M  V30 3721 H 354.634 4.21311 2.62319 0
M  V30 3722 H 349.89 5.61241 2.42526 0
M  V30 3723 H 354.064 6.58623 2.2625 0
M  V30 3724 H 351.691 7.28914 2.15843 0
M  V30 3725 N 353.266 -1.05314 1.17247 0
M  V30 3726 C 354.196 -2.1498 0.911362 0
M  V30 3727 C 355.177 -1.69471 -0.146169 0
M  V30 3728 O 356.362 -1.942 0.003812 0
M  V30 3729 C 353.492 -3.4472 0.422528 0
M  V30 3730 C 352.446 -4.03789 1.4191 0
M  V30 3731 C 351.772 -5.28858 0.788274 0
M  V30 3732 C 353.072 -4.41418 2.7919 0
M  V30 3733 H 354.766 -2.3708 1.82848 0
M  V30 3734 H 352.312 -1.13938 0.880569 0
M  V30 3735 H 354.265 -4.20787 0.227289 0
M  V30 3736 H 352.989 -3.22269 -0.530123 0
M  V30 3737 H 351.648 -3.2979 1.60106 0
M  V30 3738 H 351.296 -5.02709 -0.171173 0
M  V30 3739 H 350.996 -5.69338 1.45353 0
M  V30 3740 H 352.52 -6.07612 0.603282 0
M  V30 3741 H 353.934 -5.08524 2.64719 0
M  V30 3742 H 352.331 -4.92913 3.42282 0
M  V30 3743 H 353.401 -3.51819 3.33693 0
M  V30 3744 N 354.744 -0.972509 -1.24016 0
M  V30 3745 C 355.99 -0.637978 -1.92504 0
M  V30 3746 C 356.323 0.825383 -1.75787 0
M  V30 3747 O 355.598 1.59442 -1.11393 0
M  V30 3748 C 355.881 -1.01942 -3.45369 0
M  V30 3749 C 355.734 -2.53983 -3.71231 0
M  V30 3750 C 357.053 -0.55751 -4.36555 0
M  V30 3751 H 354.172 -0.233248 -0.699117 0
M  V30 3752 H 356.814 -1.21238 -1.46292 0
M  V30 3753 H 354.964 -0.530656 -3.84859 0
M  V30 3754 H 356.636 -3.10374 -3.41271 0
M  V30 3755 H 354.879 -2.96968 -3.16216 0
M  V30 3756 H 355.55 -2.75723 -4.78206 0
M  V30 3757 H 358.026 -0.977029 -4.04467 0
M  V30 3758 H 356.902 -0.85292 -5.42233 0
M  V30 3759 H 357.163 0.542328 -4.38761 0
M  V30 3760 N 356.222 1.38976 -0.743202 0
M  V30 3761 C 357.447 2.05161 -0.303936 0
M  V30 3762 C 357.872 1.55677 1.05576 0
M  V30 3763 O 357.23 0.704131 1.67068 0
M  V30 3764 C 357.278 3.59138 -0.324373 0
M  V30 3765 O 356.382 4.06668 0.685204 0
M  V30 3766 H 355.723 0.649815 -0.136518 0
M  V30 3767 H 358.253 1.77852 -1.01142 0
M  V30 3768 H 358.263 4.07639 -0.171618 0
M  V30 3769 H 356.938 3.94515 -1.31647 0
M  V30 3770 H 355.515 3.69561 0.497913 0
M  V30 3771 N 357.7 0.491464 1.49741 0
M  V30 3772 C 358.663 -0.280906 2.27472 0
M  V30 3773 C 359.663 -0.902454 1.33088 0
M  V30 3774 O 360.853 -0.768465 1.56334 0
M  V30 3775 C 357.985 -1.40209 3.10732 0
M  V30 3776 H 359.178 0.401056 2.97206 0
M  V30 3777 H 356.731 0.246131 1.5435 0
M  V30 3778 H 357.466 -2.11849 2.45541 0
M  V30 3779 H 357.251 -0.961969 3.80117 0
M  V30 3780 H 358.741 -1.9464 3.69466 0
M  V30 3781 N 359.178 -1.55987 0.224894 0
M  V30 3782 C 360.406 -2.02784 -0.410665 0
M  V30 3783 C 360.821 -1.10464 -1.53112 0
M  V30 3784 O 360.178 -0.114871 -1.82138 0
M  V30 3785 C 360.229 -3.49087 -0.939165 0
M  V30 3786 O 359.95 -4.37887 0.136614 0
M  V30 3787 C 361.451 -4.11543 -1.64763 0
M  V30 3788 H 358.671 -0.663484 -0.100148 0
M  V30 3789 H 361.215 -2.01614 0.342326 0
M  V30 3790 H 359.37 -3.50861 -1.64242 0
M  V30 3791 H 359.784 -5.23849 -0.261155 0
M  V30 3792 H 361.258 -5.15673 -1.96939 0
M  V30 3793 H 361.735 -3.56736 -2.56195 0
M  V30 3794 H 362.341 -4.13629 -0.989503 0
M  V30 3795 N 360.656 0.0484629 -1.57525 0
M  V30 3796 C 361.881 0.759177 -1.93006 0
M  V30 3797 C 362.306 1.69125 -0.823317 0
M  V30 3798 O 361.664 1.79931 0.222364 0
M  V30 3799 C 361.712 1.50899 -3.27509 0
M  V30 3800 O 360.816 2.62112 -3.18388 0
M  V30 3801 H 360.157 0.205564 -0.631379 0
M  V30 3802 H 362.687 0.00972959 -2.04598 0
M  V30 3803 H 362.697 1.88317 -3.6194 0
M  V30 3804 H 361.372 0.825269 -4.0763 0
M  V30 3805 H 359.949 2.27379 -2.95556 0
M  V30 3806 N 362.134 1.5431 0.320358 0
M  V30 3807 C 363.382 1.72327 1.05583 0
M  V30 3808 C 363.703 0.50149 1.88441 0
M  V30 3809 O 362.973 -0.48448 1.89815 0
M  V30 3810 H 361.553 0.635387 0.3928 0
M  V30 3811 H 364.215 1.91621 0.356019 0
M  V30 3812 H 363.311 2.60426 1.72003 0
M  V30 3813 N 363.613 -0.582584 1.46437 0
M  V30 3814 C 364.841 -1.36682 1.55324 0
M  V30 3815 C 365.256 -1.87796 0.194409 0
M  V30 3816 O 364.613 -1.63623 -0.808318 0
M  V30 3817 C 364.664 -2.55426 2.55812 0
M  V30 3818 O 364.385 -2.0643 3.86417 0
M  V30 3819 C 365.886 -3.47976 2.74641 0
M  V30 3820 H 363.106 -0.417545 0.525259 0
M  V30 3821 H 365.65 -0.708219 1.91845 0
M  V30 3822 H 363.805 -3.17275 2.22295 0
M  V30 3823 H 364.219 -2.83762 4.41111 0
M  V30 3824 H 365.693 -4.27775 3.48874 0
M  V30 3825 H 366.17 -3.99919 1.81553 0
M  V30 3826 H 366.776 -2.91962 3.09255 0
M  V30 3827 N 365.091 -1.34144 -0.827227 0
M  V30 3828 C 366.319 -1.29325 -1.61501 0
M  V30 3829 C 366.734 0.13354 -1.88327 0
M  V30 3830 O 366.091 1.0793 -1.47164 0
M  V30 3831 C 366.142 -2.07746 -2.95844 0
M  V30 3832 O 365.863 -3.4486 -2.70191 0
M  V30 3833 C 367.364 -2.10273 -3.90256 0
M  V30 3834 H 364.584 -0.445069 -0.50215 0
M  V30 3835 H 367.128 -1.76693 -1.02955 0
M  V30 3836 H 365.283 -1.6403 -3.5096 0
M  V30 3837 H 365.697 -3.85345 -3.55822 0
M  V30 3838 H 367.171 -2.69575 -4.81698 0
M  V30 3839 H 367.648 -1.096 -4.25305 0
M  V30 3840 H 368.254 -2.54059 -3.41078 0
M  V30 3841 N 366.569 1.04691 -1.17803 0
M  V30 3842 C 367.815 1.78045 -0.970969 0
M  V30 3843 C 368.148 1.87686 0.498751 0
M  V30 3844 O 367.423 1.38035 1.37027 0
M  V30 3845 C 367.706 3.2166 -1.61884 0
M  V30 3846 C 367.559 3.20001 -3.161 0
M  V30 3847 C 368.878 4.1962 -1.3269 0
M  V30 3848 H 365.997 0.64633 -0.354155 0
M  V30 3849 H 368.639 1.22333 -1.45378 0
M  V30 3850 H 366.789 3.69232 -1.20831 0
M  V30 3851 H 368.461 2.80467 -3.66246 0
M  V30 3852 H 366.704 2.58203 -3.48588 0
M  V30 3853 H 367.375 4.21386 -3.56564 0
M  V30 3854 H 369.851 3.80567 -1.68249 0
M  V30 3855 H 368.727 5.18339 -1.80599 0
M  V30 3856 H 368.988 4.414 -0.248622 0
M  V30 3857 N 368.047 0.979072 1.23499 0
M  V30 3858 C 368.977 0.537606 2.27227 0
M  V30 3859 C 369.958 -0.428539 1.64613 0
M  V30 3860 O 371.143 -0.322191 1.91509 0
M  V30 3861 C 368.273 -0.162052 3.46922 0
M  V30 3862 C 367.227 0.721242 4.21879 0
M  V30 3863 C 366.553 -0.110555 5.34586 0
M  V30 3864 C 367.853 2.01141 4.82016 0
M  V30 3865 H 369.547 1.40462 2.64406 0
M  V30 3866 H 367.093 0.67684 1.27102 0
M  V30 3867 H 369.046 -0.482192 4.18632 0
M  V30 3868 H 367.77 -1.06351 3.08799 0
M  V30 3869 H 366.429 1.02482 3.51984 0
M  V30 3870 H 366.077 -1.0125 4.92704 0
M  V30 3871 H 365.777 0.477325 5.85658 0
M  V30 3872 H 367.301 -0.425107 6.09118 0
M  V30 3873 H 368.715 1.75612 5.45741 0
M  V30 3874 H 367.112 2.54695 5.43369 0
M  V30 3875 H 368.182 2.69909 4.02836 0
M  V30 3876 N 369.525 -1.3858 0.750561 0
M  V30 3877 C 370.773 -1.99789 0.30477 0
M  V30 3878 C 371.094 -1.59874 -1.11649 0
M  V30 3879 O 370.364 -0.85417 -1.76297 0
M  V30 3880 H 368.944 -0.738902 0.109694 0
M  V30 3881 H 371.606 -1.69391 0.963983 0
M  V30 3882 H 370.702 -3.09952 0.365499 0
M  V30 3883 N 371.003 -0.499398 -1.49478 0
M  V30 3884 C 371.966 0.268838 -2.27618 0
M  V30 3885 C 372.966 0.895383 -1.33565 0
M  V30 3886 O 374.156 0.760164 -1.56739 0
M  V30 3887 C 371.288 1.38559 -3.11471 0
M  V30 3888 H 372.481 -0.416812 -2.96989 0
M  V30 3889 H 370.034 -0.254313 -1.54217 0
M  V30 3890 H 370.769 2.10544 -2.46661 0
M  V30 3891 H 370.554 0.941797 -3.80621 0
M  V30 3892 H 372.044 1.92678 -3.70493 0
M  V30 3893 N 372.481 1.55866 -0.233164 0
M  V30 3894 C 373.728 1.98603 0.395374 0
M  V30 3895 C 374.056 1.12105 1.58942 0
M  V30 3896 O 373.311 0.168656 1.94972 0
M  V30 3897 C 373.61 3.46856 0.861724 0
M  V30 3898 C 373.276 4.50348 -0.223066 0
M  V30 3899 C 371.938 4.78371 -0.521038 0
M  V30 3900 C 374.29 5.12355 -0.956124 0
M  V30 3901 C 371.618 5.6568 -1.55638 0
M  V30 3902 C 373.97 6.00786 -1.98089 0
M  V30 3903 C 372.634 6.27148 -2.28565 0
M  V30 3904 H 371.904 0.726739 0.144677 0
M  V30 3905 H 374.551 1.88491 -0.338114 0
M  V30 3906 H 372.856 3.5423 1.67418 0
M  V30 3907 H 374.553 3.77302 1.35809 0
M  V30 3908 H 371.143 4.28596 0.0193234 0
M  V30 3909 H 375.327 4.90765 -0.739166 0
M  V30 3910 H 370.583 5.84365 -1.798 0
M  V30 3911 H 374.757 6.4788 -2.55391 0
M  V30 3912 H 372.384 6.94597 -3.08932 0
M  V30 3913 N 373.959 -0.0401083 1.57549 0
M  V30 3914 C 375.236 -0.767917 1.79896 0
M  V30 3915 C 375.616 -1.9416 0.82856 0
M  V30 3916 O 374.964 -2.2812 -0.131671 0
M  V30 3917 C 375.174 -1.2113 3.27305 0
M  V30 3918 C 376.522 -1.63175 3.91994 0
M  V30 3919 O 377.546 -1.30616 3.31388 0
M  V30 3920 O 376.405 -2.23565 4.98679 0
M  V30 3921 H 373.499 -0.370441 0.739393 0
M  V30 3922 H 376.045 -0.017737 1.69691 0
M  V30 3923 H 374.817 -0.372937 3.89519 0
M  V30 3924 H 374.44 -2.02183 3.42356 0
M  V30 3925 N 375.437 -1.54477 -0.31217 0
M  V30 3926 C 376.848 -1.64344 -0.885891 0
M  V30 3927 C 377.199 -0.54485 -1.88483 0
M  V30 3928 O 376.324 0.320387 -2.14015 0
M  V30 3929 C 376.919 -2.97908 -1.61357 0
M  V30 3930 C 375.478 -3.09933 -2.13585 0
M  V30 3931 C 374.625 -2.59971 -0.964897 0
M  V30 3932 H 377.576 -1.58448 -0.0894528 0
M  V30 3933 H 377.597 -2.88706 -2.47848 0
M  V30 3934 H 377.109 -3.77845 -0.886277 0
M  V30 3935 H 375.21 -2.34694 -2.89395 0
M  V30 3936 H 375.323 -4.15916 -2.37804 0
M  V30 3937 H 373.687 -2.16147 -1.34731 0
M  V30 3938 H 374.47 -3.42376 -0.251742 0
M  V30 3939 N 376.915 0.57481 -1.46744 0
M  V30 3940 C 377.845 1.69337 -1.60771 0
M  V30 3941 C 378.826 1.63825 -0.457736 0
M  V30 3942 O 380.011 1.8172 -0.684947 0
M  V30 3943 C 377.141 3.0798 -1.60517 0
M  V30 3944 C 376.095 3.28327 -2.74564 0
M  V30 3945 C 375.421 4.67578 -2.59373 0
M  V30 3946 C 376.721 3.15398 -4.16319 0
M  V30 3947 H 378.415 1.57853 -2.54407 0
M  V30 3948 H 375.961 0.75799 -1.22436 0
M  V30 3949 H 377.914 3.86061 -1.68923 0
M  V30 3950 H 376.638 3.20381 -0.634305 0
M  V30 3951 H 375.297 2.52649 -2.65639 0
M  V30 3952 H 374.945 4.76755 -1.60353 0
M  V30 3953 H 374.645 4.82144 -3.35873 0
M  V30 3954 H 376.169 5.47817 -2.69682 0
M  V30 3955 H 377.583 3.83315 -4.26313 0
M  V30 3956 H 375.98 3.41482 -4.93468 0
M  V30 3957 H 377.05 2.12372 -4.3592 0
M  V30 3958 N 378.394 1.34581 0.820102 0
M  V30 3959 C 379.304 1.28471 1.96297 0
M  V30 3960 C 380.32 0.191902 1.72939 0
M  V30 3961 O 381.496 0.418879 1.96996 0
M  V30 3962 C 378.561 1.04281 3.30645 0
M  V30 3963 C 377.622 2.22745 3.66992 0
M  V30 3964 C 376.855 1.997 4.9493 0
M  V30 3965 O 377.078 0.956656 5.6232 0
M  V30 3966 O 376.012 2.86723 5.2922 0
M  V30 3967 H 379.838 2.24624 2.04396 0
M  V30 3968 H 377.423 1.14816 0.955913 0
M  V30 3969 H 379.305 0.925841 4.11104 0
M  V30 3970 H 377.98 0.111697 3.23507 0
M  V30 3971 H 376.887 2.40003 2.86966 0
M  V30 3972 H 378.22 3.14257 3.78819 0
M  V30 3973 N 379.872 -1.04064 1.18357 0
M  V30 3974 C 380.835 -2.10243 0.912707 0
M  V30 3975 C 381.835 -1.60477 -0.101928 0
M  V30 3976 O 383.025 -1.73703 0.131517 0
M  V30 3977 C 380.157 -3.38893 0.369387 0
M  V30 3978 H 381.35 -2.35706 1.85426 0
M  V30 3979 H 378.903 -1.20489 0.995594 0
M  V30 3980 H 379.638 -3.19094 -0.578776 0
M  V30 3981 H 379.423 -3.76331 1.1008 0
M  V30 3982 H 380.913 -4.17128 0.198575 0
M  V30 3983 N 381.35 -0.985608 -1.22978 0
M  V30 3984 C 382.599 -0.652881 -1.90841 0
M  V30 3985 C 382.912 0.817842 -1.77681 0
M  V30 3986 O 384.118 1.26185 -2.40395 0
M  V30 3987 C 382.574 -1.11717 -3.42122 0
M  V30 3988 C 382.182 -2.6126 -3.63933 0
M  V30 3989 C 383.926 -0.85843 -4.1573 0
M  V30 3990 C 381.833 -3.0133 -5.08876 0
M  V30 3991 H 380.763 -0.240491 -0.714619 0
M  V30 3992 H 383.414 -1.1942 -1.39324 0
M  V30 3993 H 381.796 -0.504027 -3.92779 0
M  V30 3994 H 382.97 -3.27858 -3.23799 0
M  V30 3995 H 381.285 -2.84937 -3.03644 0
M  V30 3996 H 383.882 -1.13359 -5.22546 0
M  V30 3997 H 384.225 0.205461 -4.15793 0
M  V30 3998 H 384.758 -1.43341 -3.71077 0
M  V30 3999 H 381.497 -4.06864 -5.13947 0
M  V30 4000 H 381.017 -2.3943 -5.49939 0
M  V30 4001 H 382.696 -2.92224 -5.77247 0
M  V30 4002 N 382.828 1.3818 -0.7579 0
M  V30 4003 C 383.791 2.28764 -0.141286 0
M  V30 4004 C 384.791 1.47388 0.642907 0
M  V30 4005 O 385.981 1.67781 0.468536 0
M  V30 4006 C 383.113 3.31184 0.808069 0
M  V30 4007 H 384.306 2.848 -0.939633 0
M  V30 4008 H 381.859 1.47212 -0.525191 0
M  V30 4009 H 382.594 2.80247 1.63193 0
M  V30 4010 H 382.379 3.91314 0.248104 0
M  V30 4011 H 383.869 3.98909 1.23536 0
M  V30 4012 N 384.306 0.507319 1.49211 0
M  V30 4013 C 385.583 -0.0982702 1.95353 0
M  V30 4014 C 385.963 -1.53516 1.449 0
M  V30 4015 O 385.311 -2.18594 0.66551 0
M  V30 4016 C 385.521 -0.00440283 3.49 0
M  V30 4017 C 386.869 -0.175147 4.24239 0
M  V30 4018 O 387.893 -0.0792891 3.56112 0
M  V30 4019 O 386.752 -0.37276 5.45227 0
M  V30 4020 H 383.846 -0.0918236 0.821887 0
M  V30 4021 H 386.392 0.570307 1.5983 0
M  V30 4022 H 385.164 0.997402 3.78375 0
M  V30 4023 H 384.787 -0.712845 3.91158 0
M  V30 4024 N 385.784 -1.5574 0.241426 0
M  V30 4025 C 387.03 -1.99104 -0.385406 0
M  V30 4026 C 387.363 -1.1293 -1.57988 0
M  V30 4027 O 386.638 -0.191449 -1.93555 0
M  V30 4028 C 386.921 -3.51087 -0.800616 0
M  V30 4029 C 386.774 -4.48028 0.398874 0
M  V30 4030 C 388.093 -4.08015 -1.64959 0
M  V30 4031 H 385.212 -0.723848 -0.138614 0
M  V30 4032 H 387.854 -1.86903 0.341642 0
M  V30 4033 H 386.004 -3.61615 -1.4201 0
M  V30 4034 H 387.676 -4.49487 1.03726 0
M  V30 4035 H 385.919 -4.21077 1.04293 0
M  V30 4036 H 386.59 -5.51962 0.0651056 0
M  V30 4037 H 389.066 -4.00555 -1.12672 0
M  V30 4038 H 387.942 -5.14635 -1.90898 0
M  V30 4039 H 388.203 -3.56131 -2.61961 0
M  V30 4040 N 387.262 0.0317525 -1.57568 0
M  V30 4041 C 388.502 0.727979 -1.90997 0
M  V30 4042 C 388.866 1.72664 -0.839708 0
M  V30 4043 O 390.067 2.47092 -1.05825 0
M  V30 4044 C 388.338 1.38239 -3.29583 0
M  V30 4045 S 389.897 2.10814 -3.84841 0
M  V30 4046 H 386.715 0.241226 -0.668828 0
M  V30 4047 H 389.317 -0.0173037 -1.95492 0
M  V30 4048 H 388.021 0.642288 -4.05343 0
M  V30 4049 H 387.552 2.16628 -3.28384 0
M  V30 4050 H 389.567 3.3792 -3.63352 0
M  V30 4051 N 388.74 1.54641 0.303973 0
M  V30 4052 C 389.672 1.81754 1.39636 0
M  V30 4053 C 390.685 0.70035 1.46966 0
M  V30 4054 O 391.874 0.97778 1.49338 0
M  V30 4055 C 388.974 1.93785 2.7803 0
M  V30 4056 C 388.147 3.24156 2.93669 0
M  V30 4057 C 387.206 3.26641 4.12544 0
M  V30 4058 O 386.232 4.00187 4.04771 0
M  V30 4059 N 387.434 2.5182 5.23036 0
M  V30 4060 H 390.199 2.76031 1.16734 0
M  V30 4061 H 387.76 1.54178 0.494033 0
M  V30 4062 H 389.752 1.92852 3.55795 0
M  V30 4063 H 388.322 1.06515 2.93893 0
M  V30 4064 H 387.542 3.37887 2.03042 0
M  V30 4065 H 388.83 4.10195 3.01027 0
M  V30 4066 H 388.228 1.91692 5.32232 0
M  V30 4067 H 386.785 2.56644 5.99147 0
M  V30 4068 N 390.218 -0.567019 1.47046 0
M  V30 4069 C 391.634 -0.891975 1.32348 0
M  V30 4070 C 391.834 -1.99154 0.306616 0
M  V30 4071 O 390.89 -2.50883 -0.28532 0
M  V30 4072 C 392.203 -1.29449 2.7141 0
M  V30 4073 C 393.751 -1.40646 2.79621 0
M  V30 4074 C 394.226 -1.84257 4.19301 0
M  V30 4075 N 395.717 -1.91424 4.21795 0
M  V30 4076 C 396.452 -2.26476 5.26779 0
M  V30 4077 N 395.948 -2.60211 6.42077 0
M  V30 4078 N 397.741 -2.27166 5.14152 0
M  V30 4079 H 389.892 0.159074 2.11803 0
M  V30 4080 H 392.155 0.00849752 0.947962 0
M  V30 4081 H 391.861 -0.560448 3.47206 0
M  V30 4082 H 391.735 -2.25273 3.02542 0
M  V30 4083 H 394.122 -2.13133 2.04104 0
M  V30 4084 H 394.203 -0.430339 2.52154 0
M  V30 4085 H 393.847 -1.12343 4.95319 0
M  V30 4086 H 393.777 -2.82855 4.44185 0
M  V30 4087 H 396.268 -1.6778 3.38612 0
M  V30 4088 H 396.581 -2.85956 7.17948 0
M  V30 4089 H 394.926 -2.57813 6.45413 0
M  V30 4090 H 398.117 -2.00244 4.23107 0
M  V30 4091 H 398.29 -2.54154 5.96079 0
M  V30 4092 N 391.696 -1.35014 -0.812953 0
M  V30 4093 C 392.646 -1.23959 -1.91359 0
M  V30 4094 C 393.63 -0.136306 -1.60322 0
M  V30 4095 O 394.822 -0.366925 -1.73155 0
M  V30 4096 C 391.951 -1.00736 -3.28188 0
M  V30 4097 C 391.037 -2.15426 -3.65311 0
M  V30 4098 N 391.428 -3.40612 -3.73921 0
M  V30 4099 C 389.726 -2.06672 -3.95225 0
M  V30 4100 C 390.427 -4.15994 -4.06601 0
M  V30 4101 N 389.403 -3.44685 -4.20349 0
M  V30 4102 H 393.205 -2.18815 -1.96208 0
M  V30 4103 H 390.719 -1.27395 -1.00718 0
M  V30 4104 H 392.716 -0.909052 -4.06868 0
M  V30 4105 H 391.376 -0.067586 -3.2463 0
M  V30 4106 H 392.387 -3.75043 -3.5716 0
M  V30 4107 H 389.064 -1.20511 -3.99729 0
M  V30 4108 H 390.454 -5.24145 -4.20382 0
M  V30 4109 N 393.175 1.03435 -1.18907 0
M  V30 4110 C 394.423 1.76394 -0.986382 0
M  V30 4111 C 394.744 1.88883 0.484567 0
M  V30 4112 O 394.014 1.41843 1.3512 0
M  V30 4113 H 392.594 0.65344 -0.361975 0
M  V30 4114 H 395.256 1.248 -1.49703 0
M  V30 4115 H 394.352 2.77424 -1.42978 0
M  V30 4116 N 394.653 0.992116 1.22453 0
M  V30 4117 C 395.583 0.561677 2.26644 0
M  V30 4118 C 396.564 -0.411055 1.65059 0
M  V30 4119 O 397.749 -0.301861 1.9184 0
M  V30 4120 C 394.879 -0.125247 3.47074 0
M  V30 4121 C 393.833 0.765948 4.21091 0
M  V30 4122 C 393.159 -0.0538484 5.34673 0
M  V30 4123 C 394.459 2.06242 4.79856 0
M  V30 4124 H 396.153 1.43259 2.62902 0
M  V30 4125 H 393.699 0.690283 1.26377 0
M  V30 4126 H 395.652 -0.437764 4.1912 0
M  V30 4127 H 394.376 -1.03069 3.0991 0
M  V30 4128 H 393.035 1.0621 3.50878 0
M  V30 4129 H 392.683 -0.960188 4.9375 0
M  V30 4130 H 392.383 0.539415 5.85119 0
M  V30 4131 H 393.907 -0.360477 6.09535 0
M  V30 4132 H 395.321 1.8139 5.43848 0
M  V30 4133 H 393.718 2.60444 5.40638 0
M  V30 4134 H 394.788 2.74167 3.99951 0
M  V30 4135 N 396.131 -1.37776 0.765217 0
M  V30 4136 C 397.377 -2.00604 0.336066 0
M  V30 4137 C 397.732 -1.59657 -1.07366 0
M  V30 4138 O 397.025 -0.829565 -1.7271 0
M  V30 4139 C 397.219 -3.5504 0.410053 0
M  V30 4140 C 397.048 -4.10985 1.82542 0
M  V30 4141 C 395.818 -4.42229 2.44461 0
M  V30 4142 C 398.016 -4.32438 2.78392 0
M  V30 4143 N 395.998 -4.8385 3.77839 0
M  V30 4144 C 397.369 -4.76596 3.96556 0
M  V30 4145 C 399.424 -4.14559 2.75764 0
M  V30 4146 C 398.127 -5.04748 5.12466 0
M  V30 4147 C 400.153 -4.43843 3.90842 0
M  V30 4148 C 399.515 -4.88235 5.07746 0
M  V30 4149 H 395.614 -0.763325 0.169881 0
M  V30 4150 H 398.198 -1.67197 0.997656 0
M  V30 4151 H 396.369 -3.87769 -0.221325 0
M  V30 4152 H 398.101 -4.0468 -0.0405285 0
M  V30 4153 H 394.856 -4.31079 1.96131 0
M  V30 4154 H 395.28 -5.08979 4.46396 0
M  V30 4155 H 399.922 -3.79415 1.86558 0
M  V30 4156 H 397.64 -5.38783 6.02277 0
M  V30 4157 H 401.226 -4.31603 3.90141 0
M  V30 4158 H 400.106 -5.10461 5.95315 0
M  V30 4159 N 397.609 -0.515225 -1.4894 0
M  V30 4160 C 398.539 0.244628 -2.32215 0
M  V30 4161 C 399.52 0.949136 -1.41157 0
M  V30 4162 O 400.705 0.937783 -1.70057 0
M  V30 4163 C 397.835 1.30096 -3.22013 0
M  V30 4164 C 396.789 0.715486 -4.21977 0
M  V30 4165 C 396.115 1.87339 -5.00808 0
M  V30 4166 C 397.415 -0.302982 -5.2142 0
M  V30 4167 H 399.109 -0.450501 -2.95991 0
M  V30 4168 H 396.655 -0.218098 -1.42339 0
M  V30 4169 H 398.608 1.84037 -3.79089 0
M  V30 4170 H 397.332 2.02547 -2.56207 0
M  V30 4171 H 395.991 0.197715 -3.66066 0
M  V30 4172 H 395.639 2.58592 -4.31438 0
M  V30 4173 H 395.339 1.48764 -5.68457 0
M  V30 4174 H 396.863 2.41686 -5.60732 0
M  V30 4175 H 398.277 0.148802 -5.73107 0
M  V30 4176 H 396.674 -0.60532 -5.97039 0
M  V30 4177 H 397.744 -1.21395 -4.69459 0
M  V30 4178 N 399.087 1.5561 -0.249682 0
M  V30 4179 C 400.037 2.18157 0.662673 0
M  V30 4180 C 401.021 1.1383 1.13717 0
M  V30 4181 O 402.213 1.39731 1.08648 0
M  V30 4182 C 399.342 2.88672 1.85805 0
M  V30 4183 C 398.428 4.00258 1.40193 0
M  V30 4184 N 398.819 5.01473 0.660213 0
M  V30 4185 C 397.117 4.12864 1.68698 0
M  V30 4186 C 397.818 5.80155 0.423695 0
M  V30 4187 N 396.794 5.34533 0.988721 0
M  V30 4188 H 400.596 2.93769 0.0878688 0
M  V30 4189 H 398.11 1.62316 -0.0521183 0
M  V30 4190 H 400.107 3.31912 2.5227 0
M  V30 4191 H 398.767 2.14564 2.43705 0
M  V30 4192 H 399.778 5.16971 0.310047 0
M  V30 4193 H 396.455 3.4993 2.27717 0
M  V30 4194 H 397.845 6.71688 -0.168616 0
M  V30 4195 N 400.565 -0.0233959 1.57583 0
M  V30 4196 C 401.811 -0.714119 1.89811 0
M  V30 4197 C 402.144 -1.74702 0.848113 0
M  V30 4198 O 401.419 -1.94023 -0.136135 0
M  V30 4199 C 401.702 -1.37853 3.32669 0
M  V30 4200 C 401.555 -0.358764 4.48367 0
M  V30 4201 C 402.874 -2.31101 3.7454 0
M  V30 4202 H 399.993 -0.25814 0.690314 0
M  V30 4203 H 402.635 0.0230927 1.89986 0
M  V30 4204 H 400.785 -2.00689 3.3265 0
M  V30 4205 H 402.457 0.268115 4.6052 0
M  V30 4206 H 400.7 0.321387 4.32608 0
M  V30 4207 H 401.371 -0.862242 5.45224 0
M  V30 4208 H 403.847 -1.78304 3.75961 0
M  V30 4209 H 402.723 -2.74567 4.75294 0
M  V30 4210 H 402.984 -3.18018 3.0711 0
M  V30 4211 N 402.043 -1.548 -0.295768 0
M  V30 4212 C 403.32 -1.65014 -1.05023 0
M  V30 4213 C 403.7 -0.501805 -2.05049 0
M  V30 4214 O 403.048 0.500869 -2.22943 0
M  V30 4215 C 403.258 -3.03252 -1.72741 0
M  V30 4216 C 404.606 -3.60242 -2.24746 0
M  V30 4217 O 405.63 -3.05737 -1.82765 0
M  V30 4218 O 404.489 -4.55687 -3.01681 0
M  V30 4219 H 401.583 -0.669314 -0.485744 0
M  V30 4220 H 404.129 -1.67144 -0.293438 0
M  V30 4221 H 402.901 -3.7827 -1.00138 0
M  V30 4222 H 402.524 -3.04922 -2.55163 0
M  V30 4223 N 403.521 0.559213 -1.47345 0
M  V30 4224 C 404.484 1.64854 -1.59235 0
M  V30 4225 C 405.484 1.53851 -0.467607 0
M  V30 4226 O 406.674 1.58045 -0.732617 0
M  V30 4227 C 403.806 3.04388 -1.53496 0
M  V30 4228 H 404.999 1.55662 -2.56339 0
M  V30 4229 H 402.552 0.778973 -1.35505 0
M  V30 4230 H 403.287 3.19115 -0.577604 0
M  V30 4231 H 403.072 3.13783 -2.35123 0
M  V30 4232 H 404.562 3.83642 -1.6495 0
M  V30 4233 N 404.999 1.35443 0.805782 0
M  V30 4234 C 405.962 1.28301 1.89925 0
M  V30 4235 C 406.962 0.194285 1.59622 0
M  V30 4236 O 408.152 0.448036 1.6834 0
M  V30 4237 C 405.284 0.984997 3.2636 0
M  V30 4238 H 406.477 2.2553 1.97677 0
M  V30 4239 H 404.03 1.19979 1.00173 0
M  V30 4240 H 404.765 0.016603 3.24296 0
M  V30 4241 H 404.55 1.77269 3.4974 0
M  V30 4242 H 406.04 0.960651 4.064 0
M  V30 4243 N 406.477 -1.02803 1.19454 0
M  V30 4244 C 407.723 -1.76598 1.0092 0
M  V30 4245 C 408.078 -1.86939 -0.455142 0
M  V30 4246 O 407.371 -1.37575 -1.33355 0
M  V30 4247 C 407.565 -3.18941 1.6128 0
M  V30 4248 C 407.394 -3.22476 3.13431 0
M  V30 4249 C 406.164 -3.30375 3.82336 0
M  V30 4250 C 408.362 -3.09451 4.10785 0
M  V30 4251 N 406.344 -3.23292 5.21877 0
M  V30 4252 C 407.715 -3.10012 5.36929 0
M  V30 4253 C 409.77 -2.93585 4.02135 0
M  V30 4254 C 408.473 -2.96334 6.55423 0
M  V30 4255 C 410.499 -2.81256 5.20239 0
M  V30 4256 C 409.861 -2.82472 6.45282 0
M  V30 4257 H 405.96 -0.657447 0.423424 0
M  V30 4258 H 408.544 -1.22369 1.5144 0
M  V30 4259 H 406.715 -3.71489 1.1336 0
M  V30 4260 H 408.447 -3.81102 1.36173 0
M  V30 4261 H 405.202 -3.3663 3.33132 0
M  V30 4262 H 405.626 -3.23156 5.94894 0
M  V30 4263 H 410.268 -2.91466 3.0628 0
M  V30 4264 H 407.986 -2.97203 7.51463 0
M  V30 4265 H 411.572 -2.70014 5.15348 0
M  V30 4266 H 410.452 -2.73036 7.35133 0
M  V30 4267 N 407.956 -0.998596 -1.21925 0
M  V30 4268 C 409.204 -0.676325 -1.90448 0
M  V30 4269 C 409.525 0.794719 -1.78071 0
M  V30 4270 O 408.795 1.5701 -1.17152 0
M  V30 4271 H 407.375 -0.247165 -0.704925 0
M  V30 4272 H 410.037 -1.26633 -1.48156 0
M  V30 4273 H 409.133 -0.943858 -2.97486 0
M  V30 4274 N 409.434 1.37368 -0.772513 0
M  V30 4275 C 410.682 1.99279 -0.336516 0
M  V30 4276 C 411.003 1.6163 1.09091 0
M  V30 4277 O 410.273 0.882109 1.74916 0
M  V30 4278 H 408.853 0.737063 -0.121435 0
M  V30 4279 H 411.515 1.67836 -0.990809 0
M  V30 4280 H 410.611 3.09332 -0.414763 0
M  V30 4281 N 410.912 0.523116 1.48665 0
M  V30 4282 C 412.137 -0.0117284 2.07397 0
M  V30 4283 C 412.562 -1.28031 1.37803 0
M  V30 4284 O 411.92 -1.75836 0.441762 0
M  V30 4285 C 411.968 -0.225786 3.59892 0
M  V30 4286 O 411.072 -1.29592 3.91509 0
M  V30 4287 H 410.413 0.0360673 0.66302 0
M  V30 4288 H 412.943 0.729066 1.9117 0
M  V30 4289 H 412.953 -0.450552 4.05505 0
M  V30 4290 H 411.628 0.700944 4.09951 0
M  V30 4291 H 410.205 -1.05436 3.57684 0
M  V30 4292 N 412.39 -1.55475 0.257931 0
M  V30 4293 C 413.636 -1.99502 -0.364266 0
M  V30 4294 C 413.969 -1.146 -1.56782 0
M  V30 4295 O 413.244 -0.211968 -1.93342 0
M  V30 4296 C 413.527 -3.51917 -0.763333 0
M  V30 4297 C 413.38 -4.4758 0.446371 0
M  V30 4298 C 414.699 -4.09742 -1.60623 0
M  V30 4299 H 411.818 -0.725277 -0.130929 0
M  V30 4300 H 414.46 -1.8653 0.361446 0
M  V30 4301 H 412.61 -3.63101 -1.38166 0
M  V30 4302 H 414.282 -4.48362 1.08487 0
M  V30 4303 H 412.525 -4.19947 1.08753 0
M  V30 4304 H 413.196 -5.51862 0.123645 0
M  V30 4305 H 415.672 -4.01727 -1.08418 0
M  V30 4306 H 414.548 -5.16631 -1.85429 0
M  V30 4307 H 414.809 -3.58889 -2.58169 0
M  V30 4308 N 413.868 0.0150385 -1.57593 0
M  V30 4309 C 414.798 1.01047 -2.10503 0
M  V30 4310 C 415.779 1.36816 -1.01071 0
M  V30 4311 O 416.964 1.45455 -1.28672 0
M  V30 4312 C 414.094 2.30708 -2.59598 0
M  V30 4313 C 413.048 2.09142 -3.73421 0
M  V30 4314 C 412.374 3.44685 -4.08774 0
M  V30 4315 C 413.674 1.46619 -5.01298 0
M  V30 4316 H 415.368 0.569978 -2.93925 0
M  V30 4317 H 412.914 0.272724 -1.41394 0
M  V30 4318 H 414.867 3.00687 -2.95238 0
M  V30 4319 H 413.591 2.76843 -1.73279 0
M  V30 4320 H 412.25 1.41592 -3.38153 0
M  V30 4321 H 411.898 3.88495 -3.195 0
M  V30 4322 H 411.598 3.31077 -4.8545 0
M  V30 4323 H 413.122 4.16004 -4.4696 0
M  V30 4324 H 414.536 2.06535 -5.34805 0
M  V30 4325 H 412.933 1.43544 -5.82679 0
M  V30 4326 H 414.003 0.433611 -4.82957 0
M  V30 4327 N 415.346 1.54954 0.287554 0
M  V30 4328 C 416.276 1.89839 1.35954 0
M  V30 4329 C 417.257 0.758675 1.52244 0
M  V30 4330 O 418.442 1.01557 1.65529 0
M  V30 4331 C 415.572 2.15753 2.72154 0
M  V30 4332 C 414.526 3.3159 2.70614 0
M  V30 4333 C 413.852 3.42952 4.10229 0
M  V30 4334 C 415.152 4.68359 2.31165 0
M  V30 4335 H 416.846 2.79625 1.07007 0
M  V30 4336 H 414.392 1.3454 0.513316 0
M  V30 4337 H 416.345 2.38743 3.47246 0
M  V30 4338 H 415.069 1.22752 3.02654 0
M  V30 4339 H 413.728 3.08545 1.97979 0
M  V30 4340 H 413.376 2.47443 4.37928 0
M  V30 4341 H 413.076 4.20826 4.10097 0
M  V30 4342 H 414.6 3.68218 4.87081 0
M  V30 4343 H 416.014 4.9099 2.95976 0
M  V30 4344 H 414.411 5.49044 2.42221 0
M  V30 4345 H 415.481 4.68165 1.26291 0
M  V30 4346 N 416.824 -0.551391 1.4764 0
M  V30 4347 C 418.049 -1.33837 1.58437 0
M  V30 4348 C 418.474 -1.866 0.237063 0
M  V30 4349 O 417.832 -1.6328 -0.787994 0
M  V30 4350 C 417.88 -2.48014 2.61766 0
M  V30 4351 O 416.984 -3.50419 2.1744 0
M  V30 4352 H 416.325 -0.397299 0.532024 0
M  V30 4353 H 418.855 -0.665759 1.93465 0
M  V30 4354 H 418.865 -2.94503 2.82369 0
M  V30 4355 H 417.54 -2.08969 3.5959 0
M  V30 4356 H 416.117 -3.10196 2.06961 0
M  V30 4357 N 418.302 -1.35869 -0.798587 0
M  V30 4358 C 419.234 -1.25305 -1.91915 0
M  V30 4359 C 420.247 -0.174548 -1.61862 0
M  V30 4360 O 421.436 -0.428499 -1.73281 0
M  V30 4361 C 418.536 -0.9086 -3.26493 0
M  V30 4362 C 417.709 -2.08711 -3.84394 0
M  V30 4363 C 416.768 -1.71717 -4.97393 0
M  V30 4364 O 415.794 -2.43692 -5.14396 0
M  V30 4365 N 416.996 -0.645473 -5.769 0
M  V30 4366 H 419.761 -2.21849 -2.01502 0
M  V30 4367 H 417.322 -1.29143 -0.976408 0
M  V30 4368 H 419.314 -0.642455 -3.99568 0
M  V30 4369 H 417.884 -0.0325815 -3.12583 0
M  V30 4370 H 417.104 -2.51659 -3.03416 0
M  V30 4371 H 418.392 -2.87468 -4.19809 0
M  V30 4372 H 417.79 -0.047648 -5.6568 0
M  V30 4373 H 416.347 -0.43913 -6.50319 0
M  V30 4374 N 419.78 1.02168 -1.19998 0
M  V30 4375 C 421.008 1.79296 -1.03249 0
M  V30 4376 C 421.423 1.84103 0.418502 0
M  V30 4377 O 420.78 1.29031 1.29063 0
M  V30 4378 C 420.831 3.24007 -1.60319 0
M  V30 4379 O 420.552 3.19512 -2.99739 0
M  V30 4380 C 422.053 4.17704 -1.48453 0
M  V30 4381 H 419.273 0.564016 -0.363493 0
M  V30 4382 H 421.817 1.28639 -1.58973 0
M  V30 4383 H 419.972 3.7183 -1.08727 0
M  V30 4384 H 420.386 4.10306 -3.26725 0
M  V30 4385 H 421.86 5.17104 -1.93153 0
M  V30 4386 H 422.337 4.37029 -0.436193 0
M  V30 4387 H 422.943 3.7576 -1.99211 0
M  V30 4388 N 421.258 1.00505 1.21394 0
M  V30 4389 C 422.208 0.536503 2.21598 0
M  V30 4390 C 423.192 -0.401914 1.55799 0
M  V30 4391 O 424.384 -0.226757 1.75541 0
M  V30 4392 C 421.513 -0.135446 3.43033 0
M  V30 4393 C 420.599 0.823992 4.16018 0
M  V30 4394 N 420.99 1.97683 4.6557 0
M  V30 4395 C 419.288 0.642387 4.4135 0
M  V30 4396 C 419.989 2.58003 5.21354 0
M  V30 4397 N 418.965 1.86162 5.1073 0
M  V30 4398 H 422.767 1.41557 2.57563 0
M  V30 4399 H 420.281 0.868878 1.37202 0
M  V30 4400 H 422.278 -0.488584 4.14027 0
M  V30 4401 H 420.938 -1.01049 3.08576 0
M  V30 4402 H 421.949 2.3572 4.61147 0
M  V30 4403 H 418.626 -0.185578 4.17087 0
M  V30 4404 H 420.016 3.555 5.70149 0
M  V30 4405 N 422.737 -1.36956 0.779787 0
M  V30 4406 C 424.153 -1.52817 0.460342 0
M  V30 4407 C 424.353 -1.7361 -1.02283 0
M  V30 4408 O 423.409 -1.76207 -1.80852 0
M  V30 4409 C 424.722 -2.71983 1.28241 0
M  V30 4410 C 426.27 -2.85849 1.27512 0
M  V30 4411 C 426.745 -4.08008 2.08072 0
M  V30 4412 N 428.236 -4.15135 2.05467 0
M  V30 4413 C 428.971 -5.08711 2.64577 0
M  V30 4414 N 428.467 -6.07792 3.32506 0
M  V30 4415 N 430.26 -5.01254 2.54363 0
M  V30 4416 H 422.411 -1.21713 1.74068 0
M  V30 4417 H 424.674 -0.593294 0.739396 0
M  V30 4418 H 424.38 -2.63109 2.33381 0
M  V30 4419 H 424.254 -3.65882 0.917088 0
M  V30 4420 H 426.641 -2.94189 0.231686 0
M  V30 4421 H 426.722 -1.92886 1.68014 0
M  V30 4422 H 426.366 -4.00429 3.12441 0
M  V30 4423 H 426.296 -5.001 1.64947 0
M  V30 4424 H 428.787 -3.44189 1.5602 0
M  V30 4425 H 429.1 -6.75739 3.74963 0
M  V30 4426 H 427.445 -6.08047 3.36606 0
M  V30 4427 H 430.636 -4.22795 2.00902 0
M  V30 4428 H 430.809 -5.73995 3.00722 0
M  V30 4429 N 424.215 -0.530993 -1.48385 0
M  V30 4430 C 425.165 0.251092 -2.26613 0
M  V30 4431 C 426.149 0.908977 -1.32765 0
M  V30 4432 O 427.341 0.811616 -1.57295 0
M  V30 4433 C 424.47 1.29677 -3.17866 0
M  V30 4434 C 423.556 0.643627 -4.19188 0
M  V30 4435 N 423.947 -0.271223 -5.05072 0
M  V30 4436 C 422.245 0.900711 -4.3681 0
M  V30 4437 C 422.946 -0.648109 -5.78078 0
M  V30 4438 N 421.922 -0.00895987 -5.43599 0
M  V30 4439 H 425.724 -0.452702 -2.90393 0
M  V30 4440 H 423.238 -0.349091 -1.58604 0
M  V30 4441 H 425.235 1.87079 -3.72568 0
M  V30 4442 H 423.895 2.00193 -2.55642 0
M  V30 4443 H 424.906 -0.643883 -5.13882 0
M  V30 4444 H 421.583 1.59636 -3.85775 0
M  V30 4445 H 422.973 -1.39833 -6.57188 0
M  V30 4446 N 425.693 1.55336 -0.266172 0
M  V30 4447 C 426.623 2.25146 0.618981 0
M  V30 4448 C 427.604 1.23845 1.16604 0
M  V30 4449 O 428.789 1.52544 1.20183 0
M  V30 4450 C 425.919 2.96572 1.80728 0
M  V30 4451 C 424.873 4.04726 1.39215 0
M  V30 4452 C 424.199 4.63678 2.66283 0
M  V30 4453 C 425.499 5.19407 0.548942 0
M  V30 4454 H 427.193 2.99377 0.0368116 0
M  V30 4455 H 424.739 1.43991 0.0162651 0
M  V30 4456 H 426.692 3.44116 2.43232 0
M  V30 4457 H 425.416 2.19861 2.41514 0
M  V30 4458 H 424.075 3.57979 0.790351 0
M  V30 4459 H 423.723 3.83646 3.25308 0
M  V30 4460 H 423.423 5.367 2.39222 0
M  V30 4461 H 424.947 5.13967 3.29651 0
M  V30 4462 H 426.361 5.63059 1.07876 0
M  V30 4463 H 424.758 5.98936 0.373593 0
M  V30 4464 H 425.828 4.8295 -0.434394 0
M  V30 4465 N 427.171 -0.0066808 1.57599 0
M  V30 4466 C 428.101 -0.999296 2.11036 0
M  V30 4467 C 429.082 -1.36278 1.01795 0
M  V30 4468 O 430.267 -1.4477 1.29442 0
M  V30 4469 C 427.397 -2.29328 2.60818 0
M  V30 4470 C 426.351 -2.07159 3.74525 0
M  V30 4471 C 425.677 -3.42512 4.10596 0
M  V30 4472 C 426.977 -1.43959 5.02069 0
M  V30 4473 H 428.671 -0.554382 2.94223 0
M  V30 4474 H 426.217 -0.265221 1.41536 0
M  V30 4475 H 428.17 -2.99117 2.96828 0
M  V30 4476 H 426.894 -2.7592 1.74745 0
M  V30 4477 H 425.553 -1.39797 3.38899 0
M  V30 4478 H 425.201 -3.86795 3.21556 0
M  V30 4479 H 424.901 -3.28498 4.87199 0
M  V30 4480 H 426.425 -4.13628 4.4916 0
M  V30 4481 H 427.839 -2.03696 5.35893 0
M  V30 4482 H 426.236 -1.40452 5.83432 0
M  V30 4483 H 427.306 -0.407992 4.83181 0
M  V30 4484 N 428.649 -1.55105 -0.279332 0
M  V30 4485 C 429.926 -1.66119 -1.03267 0
M  V30 4486 C 430.306 -0.523525 -2.04505 0
M  V30 4487 O 429.654 0.477194 -2.23462 0
M  V30 4488 C 429.864 -3.05067 -1.69515 0
M  V30 4489 C 431.212 -3.62606 -2.20912 0
M  V30 4490 O 432.236 -3.07659 -1.79512 0
M  V30 4491 O 431.095 -4.58861 -2.96831 0
M  V30 4492 H 428.189 -0.674429 -0.478618 0
M  V30 4493 H 430.735 -1.67446 -0.275694 0
M  V30 4494 H 429.507 -3.79311 -0.9612 0
M  V30 4495 H 429.13 -3.07611 -2.51915 0
M  V30 4496 N 430.127 0.543554 -1.4793 0
M  V30 4497 C 431.375 1.29752 -1.54948 0
M  V30 4498 C 431.696 1.93764 -0.219242 0
M  V30 4499 O 430.966 1.80639 0.75805 0
M  V30 4500 H 429.546 0.481874 -0.570795 0
M  V30 4501 H 432.208 0.633636 -1.84312 0
M  V30 4502 H 431.304 2.08392 -2.32334 0
M  V30 4503 N 431.605 1.3629 0.791371 0
M  V30 4504 C 432.854 1.29742 1.54434 0
M  V30 4505 C 433.167 -0.121729 1.95221 0
M  V30 4506 O 434.373 -0.309579 2.69729 0
M  V30 4507 C 432.829 2.27623 2.78776 0
M  V30 4508 C 432.437 3.74963 2.45166 0
M  V30 4509 C 434.181 2.30047 3.56761 0
M  V30 4510 C 432.088 4.64626 3.65891 0
M  V30 4511 H 431.018 0.482113 0.579727 0
M  V30 4512 H 433.669 1.61642 0.868565 0
M  V30 4513 H 432.051 1.88714 3.48142 0
M  V30 4514 H 433.225 4.22596 1.83709 0
M  V30 4515 H 431.54 3.75295 1.80396 0
M  V30 4516 H 434.137 2.94247 4.46456 0
M  V30 4517 H 434.48 1.30846 3.95203 0
M  V30 4518 H 435.013 2.67563 2.94372 0
M  V30 4519 H 431.752 5.64883 3.32547 0
M  V30 4520 H 431.272 4.2171 4.26521 0
M  V30 4521 H 432.951 4.80801 4.32943 0
M  V30 4522 N 433.083 -1.0153 1.20538 0
M  V30 4523 C 434.015 -2.10224 0.913155 0
M  V30 4524 C 435.028 -1.62495 -0.0995998 0
M  V30 4525 O 436.217 -1.78014 0.131582 0
M  V30 4526 C 433.317 -3.37111 0.347717 0
M  V30 4527 C 432.49 -4.13971 1.41233 0
M  V30 4528 C 431.549 -5.19158 0.857976 0
M  V30 4529 O 430.575 -5.48 1.53897 0
M  V30 4530 N 431.777 -5.7955 -0.331966 0
M  V30 4531 H 434.542 -2.35879 1.84881 0
M  V30 4532 H 432.103 -1.17931 1.10923 0
M  V30 4533 H 434.095 -4.04683 -0.0373026 0
M  V30 4534 H 432.665 -3.08696 -0.492527 0
M  V30 4535 H 431.885 -3.41351 1.97163 0
M  V30 4536 H 433.173 -4.62103 2.12928 0
M  V30 4537 H 432.571 -5.58455 -0.902478 0
M  V30 4538 H 431.128 -6.48464 -0.65861 0
M  V30 4539 N 434.561 -1.01147 -1.20859 0
M  V30 4540 C 435.977 -0.725422 -1.42161 0
M  V30 4541 C 436.177 0.696919 -1.89064 0
M  V30 4542 O 435.233 1.46539 -2.05627 0
M  V30 4543 C 436.546 -1.74678 -2.44761 0
M  V30 4544 C 438.094 -1.76433 -2.58535 0
M  V30 4545 C 438.569 -2.77481 -3.64374 0
M  V30 4546 N 440.06 -2.76189 -3.71852 0
M  V30 4547 C 440.795 -3.51035 -4.53389 0
M  V30 4548 N 440.291 -4.35541 -5.38773 0
M  V30 4549 N 442.084 -3.39655 -4.47873 0
M  V30 4550 H 434.235 -1.92979 -0.887282 0
M  V30 4551 H 436.498 -0.833327 -0.451962 0
M  V30 4552 H 436.204 -2.76551 -2.17285 0
M  V30 4553 H 436.078 -1.55472 -3.43669 0
M  V30 4554 H 438.465 -0.75248 -2.85345 0
M  V30 4555 H 438.546 -1.99712 -1.5984 0
M  V30 4556 H 438.19 -3.78827 -3.38308 0
M  V30 4557 H 438.12 -2.51466 -4.6268 0
M  V30 4558 H 440.611 -2.14885 -3.10858 0
M  V30 4559 H 440.924 -4.89432 -5.98061 0
M  V30 4560 H 439.269 -4.39621 -5.38292 0
M  V30 4561 H 442.46 -2.73063 -3.80203 0
M  V30 4562 H 442.633 -3.9824 -5.11184 0
M  V30 4563 N 436.039 1.36541 -0.78704 0
M  V30 4564 C 437.002 2.28413 -0.189778 0
M  V30 4565 C 438.002 1.48719 0.611499 0
M  V30 4566 O 439.192 1.68737 0.432842 0
M  V30 4567 C 436.324 3.32824 0.737638 0
M  V30 4568 H 437.517 2.82743 -0.999831 0
M  V30 4569 H 435.07 1.46065 -0.556298 0
M  V30 4570 H 435.805 2.83646 1.57212 0
M  V30 4571 H 435.59 3.91752 0.165044 0
M  V30 4572 H 437.08 4.0144 1.15047 0
M  V30 4573 N 437.518 0.538854 1.48102 0
M  V30 4574 C 438.795 -0.0568108 1.95517 0
M  V30 4575 C 439.175 -1.50408 1.48124 0
M  V30 4576 O 438.523 -2.17133 0.711727 0
M  V30 4577 C 438.733 0.0696262 3.48931 0
M  V30 4578 C 440.081 -0.0851202 4.24515 0
M  V30 4579 O 441.105 -0.0037347 3.562 0
M  V30 4580 O 439.964 -0.257025 5.45895 0
M  V30 4581 H 437.058 -0.0743695 0.823649 0
M  V30 4582 H 439.604 0.604081 1.58584 0
M  V30 4583 H 438.376 1.07744 3.76174 0
M  V30 4584 H 437.999 -0.629714 3.92582 0
M  V30 4585 N 438.996 -1.55193 0.274407 0
M  V30 4586 C 440.221 -2.04446 -0.348824 0
M  V30 4587 C 440.646 -1.15149 -1.48735 0
M  V30 4588 O 440.004 -0.149952 -1.80679 0
M  V30 4589 C 440.052 -3.51431 -0.808009 0
M  V30 4590 O 439.156 -3.65225 -1.91531 0
M  V30 4591 H 438.497 -0.66006 -0.0722276 0
M  V30 4592 H 441.027 -2.00481 0.408498 0
M  V30 4593 H 441.037 -3.92781 -1.10395 0
M  V30 4594 H 439.712 -4.15892 0.0249865 0
M  V30 4595 H 438.289 -3.35778 -1.62196 0
M  V30 4596 N 440.474 -0.00167713 -1.576 0
M  V30 4597 C 441.72 0.683832 -1.90923 0
M  V30 4598 C 442.053 1.7333 -0.875799 0
M  V30 4599 O 441.328 1.94215 0.10525 0
M  V30 4600 C 441.611 1.32543 -3.3482 0
M  V30 4601 C 441.464 0.287387 -4.48881 0
M  V30 4602 C 442.783 2.25114 -3.78169 0
M  V30 4603 H 439.902 0.247125 -0.694333 0
M  V30 4604 H 442.544 -0.0533149 -1.89925 0
M  V30 4605 H 440.694 1.95372 -3.35801 0
M  V30 4606 H 442.366 -0.341346 -4.60035 0
M  V30 4607 H 440.609 -0.39017 -4.32042 0
M  V30 4608 H 441.28 0.775393 -5.46527 0
M  V30 4609 H 443.756 1.723 -3.7875 0
M  V30 4610 H 442.632 2.66971 -4.79602 0
M  V30 4611 H 442.893 3.13092 -3.12131 0
M  V30 4612 N 441.952 1.55251 0.271103 0
M  V30 4613 C 442.915 1.87484 1.31842 0
M  V30 4614 C 443.915 0.749545 1.42262 0
M  V30 4615 O 445.105 1.01771 1.4138 0
M  V30 4616 C 442.237 2.0818 2.69951 0
M  V30 4617 H 443.43 2.81108 1.0449 0
M  V30 4618 H 440.983 1.47771 0.509258 0
M  V30 4619 H 441.718 1.16944 3.02481 0
M  V30 4620 H 441.503 2.90114 2.63774 0
M  V30 4621 H 442.993 2.34385 3.4562 0
M  V30 4622 N 443.43 -0.535701 1.48216 0
M  V30 4623 C 444.676 -1.2913 1.57153 0
M  V30 4624 C 445.031 -1.90899 0.239823 0
M  V30 4625 O 444.324 -1.76022 -0.756748 0
M  V30 4626 C 444.518 -2.4068 2.64212 0
M  V30 4627 C 444.347 -1.89844 4.07663 0
M  V30 4628 C 443.117 -1.72708 4.74869 0
M  V30 4629 C 445.315 -1.43031 4.94011 0
M  V30 4630 N 443.297 -1.16437 6.02757 0
M  V30 4631 C 444.668 -0.986691 6.12098 0
M  V30 4632 C 446.723 -1.3128 4.80281 0
M  V30 4633 C 445.426 -0.437231 7.1797 0
M  V30 4634 C 447.452 -0.777346 5.86269 0
M  V30 4635 C 446.814 -0.343774 7.03561 0
M  V30 4636 H 442.913 -0.463753 0.629648 0
M  V30 4637 H 445.497 -0.604736 1.8507 0
M  V30 4638 H 443.668 -3.06839 2.38126 0
M  V30 4639 H 445.4 -3.07706 2.62867 0
M  V30 4640 H 442.155 -1.96061 4.31111 0
M  V30 4641 H 442.579 -0.903281 6.70947 0
M  V30 4642 H 447.221 -1.63408 3.89946 0
M  V30 4643 H 444.939 -0.103621 8.08034 0
M  V30 4644 H 448.525 -0.689688 5.77698 0
M  V30 4645 H 447.405 0.0641219 7.84174 0
M  V30 4646 N 444.908 -1.36708 -0.784132 0
M  V30 4647 C 445.856 -1.31533 -1.91838 0
M  V30 4648 C 446.85 -0.206205 -1.6814 0
M  V30 4649 O 448.056 -0.373519 -1.76082 0
M  V30 4650 H 444.431 -0.409613 -0.630651 0
M  V30 4651 H 446.402 -2.2731 -1.9332 0
M  V30 4652 C 445.151 -1.12679 -3.28936 0
M  V30 4653 H 444.474 -1.97274 -3.4774 0
M  V30 4654 H 445.914 -1.13106 -4.08636 0
M  V30 4655 C 444.373 0.168281 -3.36479 0
M  V30 4656 O 444.903 1.15625 -3.84699 0
M  V30 4657 N 443.109 0.214762 -2.89805 0
M  V30 4658 H 442.656 -0.589852 -2.50756 0
M  V30 4659 H 442.614 1.08094 -2.95234 0
M  V30 4660 N 446.386 1.0089 -1.21074 0
M  V30 4661 C 447.797 1.56056 -1.02486 0
M  V30 4662 C 448.148 1.91728 0.416506 0
M  V30 4663 O 447.273 1.73066 1.29912 0
M  V30 4664 C 447.868 2.83563 -1.85411 0
M  V30 4665 C 446.427 3.3523 -1.71166 0
M  V30 4666 C 445.574 2.0846 -1.82865 0
M  V30 4667 H 448.525 0.831818 -1.35154 0
M  V30 4668 H 448.546 3.55286 -1.36205 0
M  V30 4669 H 448.058 2.57569 -2.9031 0
M  V30 4670 H 446.159 3.66167 -0.689361 0
M  V30 4671 H 446.272 4.06913 -2.52901 0
M  V30 4672 H 444.636 2.21275 -1.26132 0
M  V30 4673 H 445.419 1.84883 -2.89263 0
M  V30 4674 N 447.864 1.01787 1.20321 0
M  V30 4675 C 448.814 0.559976 2.21016 0
M  V30 4676 C 449.798 -0.385366 1.56217 0
M  V30 4677 O 450.99 -0.208126 1.75772 0
M  V30 4678 C 448.119 -0.0990553 3.43157 0
M  V30 4679 C 447.205 0.86807 4.15121 0
M  V30 4680 N 447.596 2.0261 4.63447 0
M  V30 4681 C 445.894 0.689162 4.40643 0
M  V30 4682 C 446.595 2.63518 5.18588 0
M  V30 4683 N 445.571 1.91569 5.08726 0
M  V30 4684 H 449.373 1.44281 2.56048 0
M  V30 4685 H 446.887 0.883381 1.36272 0
M  V30 4686 H 448.884 -0.444643 4.14522 0
M  V30 4687 H 447.544 -0.977709 3.0963 0
M  V30 4688 H 448.555 2.40598 4.58621 0
M  V30 4689 H 445.232 -0.14133 4.17261 0
M  V30 4690 H 446.622 3.61527 5.66346 0
M  V30 4691 N 449.342 -1.36122 0.79427 0
M  V30 4692 C 450.289 -2.29982 0.194101 0
M  V30 4693 C 451.259 -1.52214 -0.664833 0
M  V30 4694 O 452.444 -1.80702 -0.612498 0
M  V30 4695 C 449.584 -3.38706 -0.661244 0
M  V30 4696 C 448.697 -4.31456 0.216766 0
M  V30 4697 C 447.832 -5.27265 -0.645411 0
M  V30 4698 C 446.871 -6.11653 0.233756 0
M  V30 4699 N 446.008 -6.99636 -0.587682 0
M  V30 4700 H 450.848 -2.80722 0.999965 0
M  V30 4701 H 448.385 -1.38172 0.504677 0
M  V30 4702 H 450.343 -4.00394 -1.17219 0
M  V30 4703 H 448.973 -2.89274 -1.43249 0
M  V30 4704 H 448.025 -3.7088 0.845724 0
M  V30 4705 H 449.337 -4.90724 0.893973 0
M  V30 4706 H 448.491 -5.94266 -1.22198 0
M  V30 4707 H 447.23 -4.68463 -1.35623 0
M  V30 4708 H 446.235 -5.4361 0.82269 0
M  V30 4709 H 447.46 -6.72531 0.942247 0
M  V30 4710 H 445.406 -6.43337 -1.2827 0
M  V30 4711 H 445.323 -7.55993 0.0317402 0
M  V30 4712 H 446.591 -7.71001 -1.14792 0
M  V30 4713 N 450.82 -0.546701 -1.47814 0
M  V30 4714 C 451.75 0.195317 -2.32682 0
M  V30 4715 C 452.731 0.918981 -1.43139 0
M  V30 4716 O 453.916 0.901501 -1.72008 0
M  V30 4717 C 451.046 1.23237 -3.247 0
M  V30 4718 C 450 0.625818 -4.234 0
M  V30 4719 C 449.326 1.76674 -5.04669 0
M  V30 4720 C 450.626 -0.413515 -5.2066 0
M  V30 4721 H 452.32 -0.513184 -2.94969 0
M  V30 4722 H 449.866 -0.248241 -1.41844 0
M  V30 4723 H 451.819 1.75955 -3.82907 0
M  V30 4724 H 450.543 1.97067 -2.60446 0
M  V30 4725 H 449.202 0.120023 -3.66403 0
M  V30 4726 H 448.85 2.49383 -4.36826 0
M  V30 4727 H 448.55 1.36673 -5.71484 0
M  V30 4728 H 450.074 2.29738 -5.65732 0
M  V30 4729 H 451.488 0.0272042 -5.73294 0
M  V30 4730 H 449.885 -0.731825 -5.95621 0
M  V30 4731 H 450.955 -1.31325 -4.66778 0
M  V30 4732 N 452.299 1.55045 -0.282633 0
M  V30 4733 C 453.229 2.2579 0.595066 0
M  V30 4734 C 454.21 1.25074 1.15284 0
M  V30 4735 O 455.395 1.5381 1.18559 0
M  V30 4736 C 452.525 2.98472 1.77572 0
M  V30 4737 C 451.479 4.0618 1.34914 0
M  V30 4738 C 450.805 4.66477 2.6135 0
M  V30 4739 C 452.105 5.1996 0.493821 0
M  V30 4740 H 453.799 2.994 0.00505653 0
M  V30 4741 H 451.345 1.44 0.000992001 0
M  V30 4742 H 453.298 3.46677 2.39568 0
M  V30 4743 H 452.022 2.2241 2.39168 0
M  V30 4744 H 450.681 3.58797 0.752338 0
M  V30 4745 H 450.329 3.87074 3.2122 0
M  V30 4746 H 450.029 5.39207 2.33516 0
M  V30 4747 H 451.553 5.17435 3.24181 0
M  V30 4748 H 452.967 5.64172 1.01898 0
M  V30 4749 H 451.364 5.99299 0.310047 0
M  V30 4750 H 452.434 4.82462 -0.485593 0
M  V30 4751 N 453.777 0.010035 1.57597 0
M  V30 4752 C 454.74 -0.963029 2.07986 0
M  V30 4753 C 455.74 -1.26619 0.991173 0
M  V30 4754 O 456.93 -1.2097 1.25347 0
M  V30 4755 C 454.062 -2.2851 2.52974 0
M  V30 4756 H 455.255 -0.526971 2.95234 0
M  V30 4757 H 452.808 -0.237639 1.54483 0
M  V30 4758 H 453.543 -2.76784 1.69 0
M  V30 4759 H 453.328 -2.07824 3.32493 0
M  V30 4760 H 454.818 -2.98294 2.9225 0
M  V30 4761 N 455.255 -1.55392 -0.262866 0
M  V30 4762 C 456.218 -1.88181 -1.30846 0
M  V30 4763 C 457.218 -0.757079 -1.41862 0
M  V30 4764 O 458.408 -1.02519 -1.40838 0
M  V30 4765 C 455.54 -2.09609 -2.68844 0
M  V30 4766 H 456.733 -2.81659 -1.02997 0
M  V30 4767 H 454.286 -1.48039 -0.501414 0
M  V30 4768 H 455.021 -1.18547 -3.01856 0
M  V30 4769 H 454.806 -2.91508 -2.62231 0
M  V30 4770 H 456.296 -2.36215 -3.44372 0
M  V30 4771 N 456.733 0.527833 -1.48498 0
M  V30 4772 C 457.981 1.28101 -1.56316 0
M  V30 4773 C 458.302 1.9352 -0.239781 0
M  V30 4774 O 457.572 1.81433 0.738849 0
M  V30 4775 H 456.152 0.475793 -0.575873 0
M  V30 4776 H 458.814 0.614052 -1.84974 0
M  V30 4777 H 457.91 2.05916 -2.34532 0
M  V30 4778 N 458.211 1.37122 0.776871 0
M  V30 4779 C 459.141 1.35164 1.90402 0
M  V30 4780 C 460.122 0.221069 1.68657 0
M  V30 4781 O 461.307 0.420642 1.8959 0
M  V30 4782 C 458.437 1.15274 3.27611 0
M  V30 4783 C 457.391 2.25289 3.63908 0
M  V30 4784 C 456.717 1.90527 4.99603 0
M  V30 4785 C 458.017 3.67446 3.71188 0
M  V30 4786 H 459.711 2.29482 1.92297 0
M  V30 4787 H 457.257 1.10465 0.923773 0
M  V30 4788 H 459.21 1.12536 4.06096 0
M  V30 4789 H 457.934 0.174102 3.26136 0
M  V30 4790 H 456.593 2.27174 2.87728 0
M  V30 4791 H 456.241 0.91206 4.94662 0
M  V30 4792 H 455.941 2.64193 5.24858 0
M  V30 4793 H 457.465 1.89367 5.80493 0
M  V30 4794 H 458.879 3.67719 4.39836 0
M  V30 4795 H 457.276 4.40123 4.07936 0
M  V30 4796 H 458.346 4.01443 2.71977 0
M  V30 4797 N 459.689 -1.00246 1.21608 0
M  V30 4798 C 460.621 -2.09244 0.935401 0
M  V30 4799 C 461.634 -1.62592 -0.0823594 0
M  V30 4800 O 462.823 -1.77865 0.150456 0
M  V30 4801 C 459.923 -3.36724 0.383453 0
M  V30 4802 C 459.096 -4.1245 1.45615 0
M  V30 4803 C 458.155 -5.18219 0.912991 0
M  V30 4804 O 457.181 -5.46337 1.59701 0
M  V30 4805 N 458.383 -5.7987 -0.270478 0
M  V30 4806 H 461.148 -2.33905 1.87373 0
M  V30 4807 H 458.709 -1.16748 1.12167 0
M  V30 4808 H 460.701 -4.047 0.00562157 0
M  V30 4809 H 459.271 -3.09201 -0.459758 0
M  V30 4810 H 458.491 -3.39241 2.00772 0
M  V30 4811 H 459.779 -4.59819 2.17817 0
M  V30 4812 H 459.177 -5.59381 -0.843195 0
M  V30 4813 H 457.734 -6.49126 -0.589794 0
M  V30 4814 N 461.167 -1.02423 -1.1978 0
M  V30 4815 C 462.407 -0.726635 -1.91048 0
M  V30 4816 C 462.771 0.730947 -1.77542 0
M  V30 4817 O 463.972 1.14141 -2.43362 0
M  V30 4818 C 462.243 -1.15964 -3.38064 0
M  V30 4819 S 463.802 -0.985172 -4.27598 0
M  V30 4820 H 460.62 -0.264679 -0.659899 0
M  V30 4821 H 463.222 -1.31309 -1.44838 0
M  V30 4822 H 461.926 -2.21619 -3.45417 0
M  V30 4823 H 461.457 -0.566274 -3.89303 0
M  V30 4824 H 463.472 0.106946 -4.96085 0
M  V30 4825 N 462.645 1.35699 -0.801477 0
M  V30 4826 C 463.87 2.03687 -0.390678 0
M  V30 4827 C 464.295 1.60015 0.988778 0
M  V30 4828 O 463.653 0.774357 1.63931 0
M  V30 4829 C 463.701 3.57439 -0.476404 0
M  V30 4830 O 462.805 4.09208 0.512106 0
M  V30 4831 H 462.146 0.64344 -0.163956 0
M  V30 4832 H 464.676 1.73403 -1.08594 0
M  V30 4833 H 464.686 4.06544 -0.344357 0
M  V30 4834 H 463.361 3.88576 -1.48262 0
M  V30 4835 H 461.938 3.7134 0.340721 0
M  V30 4836 N 464.123 0.554532 1.47522 0
M  V30 4837 C 465.086 -0.184174 2.28459 0
M  V30 4838 C 466.086 -0.845195 1.36796 0
M  V30 4839 O 467.276 -0.701467 1.59452 0
M  V30 4840 C 464.408 -1.26903 3.16399 0
M  V30 4841 H 465.601 0.526751 2.95238 0
M  V30 4842 H 463.154 0.311375 1.53167 0
M  V30 4843 H 463.889 -2.01244 2.54306 0
M  V30 4844 H 463.674 -0.799883 3.83854 0
M  V30 4845 H 465.164 -1.78794 3.77389 0
M  V30 4846 N 465.601 -1.54893 0.290851 0
M  V30 4847 C 466.531 -2.26103 -0.583084 0
M  V30 4848 C 467.512 -1.25684 -1.14619 0
M  V30 4849 O 468.697 -1.54436 -1.17741 0
M  V30 4850 C 465.827 -2.99409 -1.75987 0
M  V30 4851 C 464.781 -4.0689 -1.32758 0
M  V30 4852 C 464.107 -4.67856 -2.58872 0
M  V30 4853 C 465.407 -5.20215 -0.46624 0
M  V30 4854 H 467.101 -2.99398 0.0108214 0
M  V30 4855 H 464.647 -1.43998 0.00664468 0
M  V30 4856 H 466.6 -3.47943 -2.37727 0
M  V30 4857 H 465.324 -2.23675 -2.37985 0
M  V30 4858 H 463.983 -3.59191 -0.733299 0
M  V30 4859 H 463.631 -3.88772 -3.19163 0
M  V30 4860 H 463.331 -5.40438 -2.30653 0
M  V30 4861 H 464.855 -5.19147 -3.21433 0
M  V30 4862 H 466.269 -5.64704 -0.989047 0
M  V30 4863 H 464.666 -5.99455 -0.27826 0
M  V30 4864 H 465.736 -4.82198 0.511173 0
M  V30 4865 N 467.08 -0.0183926 -1.57589 0
M  V30 4866 C 468.01 0.965596 -2.12599 0
M  V30 4867 C 468.991 1.34641 -1.0395 0
M  V30 4868 O 470.176 1.42693 -1.31729 0
M  V30 4869 C 467.306 2.25149 -2.64434 0
M  V30 4870 C 466.26 2.01175 -3.77773 0
M  V30 4871 C 465.586 3.35937 -4.15994 0
M  V30 4872 C 466.886 1.35953 -5.04296 0
M  V30 4873 H 468.58 0.507504 -2.95067 0
M  V30 4874 H 466.126 0.242671 -1.41941 0
M  V30 4875 H 468.079 2.94357 -3.01549 0
M  V30 4876 H 466.803 2.73105 -1.79112 0
M  V30 4877 H 465.462 1.34388 -3.4108 0
M  V30 4878 H 465.11 3.81631 -3.27669 0
M  V30 4879 H 464.81 3.20705 -4.92364 0
M  V30 4880 H 466.334 4.0643 -4.55683 0
M  V30 4881 H 467.748 1.95144 -5.39065 0
M  V30 4882 H 466.145 1.31152 -5.85593 0
M  V30 4883 H 467.215 0.331071 -4.83768 0
M  V30 4884 N 468.558 1.5553 0.254621 0
M  V30 4885 C 469.488 1.9268 1.31897 0
M  V30 4886 C 470.469 0.790797 1.506 0
M  V30 4887 O 471.654 1.05045 1.63337 0
M  V30 4888 C 468.784 2.21477 2.67517 0
M  V30 4889 C 467.738 3.37256 2.63519 0
M  V30 4890 C 467.064 3.51576 4.02862 0
M  V30 4891 C 468.364 4.73157 2.21179 0
M  V30 4892 H 470.058 2.81832 1.01051 0
M  V30 4893 H 467.604 1.35599 0.484662 0
M  V30 4894 H 469.557 2.46055 3.42104 0
M  V30 4895 H 468.281 1.29144 2.99982 0
M  V30 4896 H 466.94 3.12675 1.9139 0
M  V30 4897 H 466.588 2.56676 4.32581 0
M  V30 4898 H 466.288 4.2943 4.01078 0
M  V30 4899 H 467.812 3.78467 4.79161 0
M  V30 4900 H 469.226 4.97158 2.85494 0
M  V30 4901 H 467.623 5.54058 2.30521 0
M  V30 4902 H 468.693 4.70739 1.16332 0
M  V30 4903 N 470.036 -0.519951 1.48776 0
M  V30 4904 C 470.968 -1.63973 1.60142 0
M  V30 4905 C 471.981 -1.55404 0.485117 0
M  V30 4906 O 473.17 -1.61682 0.756391 0
M  V30 4907 C 470.27 -3.02676 1.52449 0
M  V30 4908 C 469.443 -3.36624 2.79291 0
M  V30 4909 C 468.502 -4.54652 2.64912 0
M  V30 4910 O 467.528 -4.57374 3.38818 0
M  V30 4911 N 468.73 -5.53432 1.75195 0
M  V30 4912 H 471.495 -1.54656 2.56713 0
M  V30 4913 H 469.056 -0.707439 1.45626 0
M  V30 4914 H 471.048 -3.79525 1.4051 0
M  V30 4915 H 469.618 -3.06018 0.638125 0
M  V30 4916 H 468.838 -2.48855 3.0572 0
M  V30 4917 H 470.126 -3.56094 3.6342 0
M  V30 4918 H 469.524 -5.54018 1.14371 0
M  V30 4919 H 468.081 -6.29459 1.69189 0
M  V30 4920 N 471.514 -1.37532 -0.769588 0
M  V30 4921 C 472.791 -1.23392 -1.51768 0
M  V30 4922 C 473.171 0.17157 -2.10402 0
M  V30 4923 O 472.519 1.17943 -1.95708 0
M  V30 4924 C 472.729 -2.33163 -2.59685 0
M  V30 4925 C 474.077 -2.70809 -3.27028 0
M  V30 4926 O 475.101 -2.32355 -2.69981 0
M  V30 4927 O 473.96 -3.37066 -4.30173 0
M  V30 4928 H 471.054 -0.481617 -0.67229 0
M  V30 4929 H 473.6 -1.49318 -0.806368 0
M  V30 4930 H 472.372 -3.27273 -2.14494 0
M  V30 4931 H 471.995 -2.08713 -3.38415 0
M  V30 4932 N 472.992 0.995999 -1.22138 0
M  V30 4933 C 474.22 1.77066 -1.07029 0
M  V30 4934 C 474.635 1.8495 0.379357 0
M  V30 4935 O 473.992 1.3174 1.26297 0
M  V30 4936 C 474.043 3.20533 -1.67155 0
M  V30 4937 O 473.764 3.13082 -3.06449 0
M  V30 4938 C 475.265 4.14461 -1.5728 0
M  V30 4939 H 472.485 0.556179 -0.375374 0
M  V30 4940 H 475.029 1.25238 -1.61666 0
M  V30 4941 H 473.184 3.6944 -1.16589 0
M  V30 4942 H 473.598 4.03283 -3.35355 0
M  V30 4943 H 475.072 5.1289 -2.04078 0
M  V30 4944 H 475.549 4.36005 -0.528795 0
M  V30 4945 H 476.155 3.71449 -2.07136 0
M  V30 4946 N 474.47 1.03057 1.19235 0
M  V30 4947 C 475.695 0.74757 1.93458 0
M  V30 4948 C 476.12 -0.687648 1.7508 0
M  V30 4949 O 475.478 -1.47499 1.05422 0
M  V30 4950 C 475.526 1.10604 3.43219 0
M  V30 4951 O 474.63 0.225671 4.11782 0
M  V30 4952 H 473.971 0.276047 0.603899 0
M  V30 4953 H 476.501 1.3777 1.51263 0
M  V30 4954 H 476.511 1.06366 3.93891 0
M  V30 4955 H 475.186 2.15165 3.55917 0
M  V30 4956 H 473.763 0.326795 3.71465 0
M  V30 4957 N 475.948 -1.35272 0.808662 0
M  V30 4958 C 476.896 -2.31663 0.208606 0
M  V30 4959 C 477.89 -1.56731 -0.642778 0
M  V30 4960 O 479.096 -1.71843 -0.53571 0
M  V30 4961 H 475.471 -0.750421 0.0486993 0
M  V30 4962 H 477.442 -2.79814 1.03666 0
M  V30 4963 C 476.191 -3.42008 -0.626573 0
M  V30 4964 H 475.514 -3.99795 0.0192103 0
M  V30 4965 H 476.954 -4.11727 -1.01278 0
M  V30 4966 C 475.413 -2.85226 -1.79298 0
M  V30 4967 O 475.943 -2.78945 -2.89055 0
M  V30 4968 N 474.149 -2.42245 -1.60516 0
M  V30 4969 H 473.696 -2.47554 -0.712375 0
M  V30 4970 H 473.654 -2.04603 -2.38715 0
M  V30 4971 N 477.426 -0.562348 -1.47226 0
M  V30 4972 C 478.356 0.170627 -2.32876 0
M  V30 4973 C 479.337 0.903748 -1.44106 0
M  V30 4974 O 480.522 0.883206 -1.72954 0
M  V30 4975 C 477.652 1.19786 -3.25989 0
M  V30 4976 C 476.606 0.580875 -4.2404 0
M  V30 4977 C 475.932 1.71311 -5.06514 0
M  V30 4978 C 477.232 -0.468714 -5.20193 0
M  V30 4979 H 478.926 -0.544441 -2.94408 0
M  V30 4980 H 476.472 -0.263271 -1.41573 0
M  V30 4981 H 478.425 1.71884 -3.84752 0
M  V30 4982 H 477.149 1.94294 -2.62521 0
M  V30 4983 H 475.808 0.0811538 -3.6651 0
M  V30 4984 H 475.456 2.44736 -4.39447 0
M  V30 4985 H 475.156 1.30604 -5.72902 0
M  V30 4986 H 476.68 2.23725 -5.68137 0
M  V30 4987 H 478.094 -0.0336028 -5.7329 0
M  V30 4988 H 476.491 -0.794957 -5.94811 0
M  V30 4989 H 477.561 -1.36269 -4.65359 0
M  V30 4990 N 478.904 1.54736 -0.299062 0
M  V30 4991 C 479.834 2.26409 0.571085 0
M  V30 4992 C 480.815 1.2629 1.13951 0
M  V30 4993 O 482 1.55059 1.16921 0
M  V30 4994 C 479.13 3.00338 1.74396 0
M  V30 4995 C 478.084 4.07588 1.30599 0
M  V30 4996 C 477.41 4.69222 2.56387 0
M  V30 4997 C 478.71 5.20455 0.438645 0
M  V30 4998 H 480.404 2.99388 -0.0266991 0
M  V30 4999 H 477.95 1.43993 -0.0142812 0
M  V30 5000 H 479.903 3.49198 2.35878 0
M  V30 5001 H 478.627 2.24934 2.36796 0
M  V30 5002 H 477.286 3.59575 0.71424 0
M  V30 5003 H 476.934 3.9046 3.17097 0
M  V30 5004 H 476.634 5.41653 2.27784 0
M  V30 5005 H 478.158 5.20844 3.18675 0
M  V30 5006 H 479.572 5.65221 0.959085 0
M  V30 5007 H 477.969 5.99594 0.246466 0
M  V30 5008 H 479.039 4.8192 -0.536738 0
M  V30 5009 N 480.382 0.0267497 1.57577 0
M  V30 5010 C 481.329 -0.955894 2.10075 0
M  V30 5011 C 482.299 -1.32453 1.00226 0
M  V30 5012 O 483.484 -1.41826 1.27632 0
M  V30 5013 C 480.624 -2.2338 2.6305 0
M  V30 5014 C 479.737 -1.92183 3.86898 0
M  V30 5015 C 478.872 -3.14251 4.28275 0
M  V30 5016 C 477.911 -2.78862 5.44888 0
M  V30 5017 N 477.048 -3.93548 5.81433 0
M  V30 5018 H 481.888 -0.501303 2.93753 0
M  V30 5019 H 479.425 -0.235847 1.45197 0
M  V30 5020 H 481.383 -2.98124 2.91853 0
M  V30 5021 H 480.013 -2.6646 1.82205 0
M  V30 5022 H 479.065 -1.07692 3.64838 0
M  V30 5023 H 480.377 -1.62117 4.7172 0
M  V30 5024 H 479.531 -3.97317 4.58502 0
M  V30 5025 H 478.27 -3.47476 3.42215 0
M  V30 5026 H 477.275 -1.94208 5.14357 0
M  V30 5027 H 478.5 -2.46855 6.32645 0
M  V30 5028 H 476.446 -4.2662 4.98328 0
M  V30 5029 H 476.363 -3.67098 6.6089 0
M  V30 5030 H 477.631 -4.77325 6.16264 0
M  V30 5031 N 481.861 -1.55662 -0.24637 0
M  V30 5032 C 483.277 -1.48098 -0.594907 0
M  V30 5033 C 483.477 -0.717044 -1.8831 0
M  V30 5034 O 482.533 -0.246618 -2.51293 0
M  V30 5035 C 483.846 -2.92507 -0.697146 0
M  V30 5036 C 485.394 -3.02881 -0.789436 0
M  V30 5037 C 485.869 -4.48598 -0.923232 0
M  V30 5038 N 487.36 -4.52538 -0.988088 0
M  V30 5039 C 488.095 -5.62536 -1.11089 0
M  V30 5040 N 487.591 -6.82342 -1.19919 0
M  V30 5041 N 489.384 -5.50334 -1.14408 0
M  V30 5042 H 481.535 -2.0377 0.599278 0
M  V30 5043 H 483.798 -0.925145 0.20691 0
M  V30 5044 H 483.504 -3.51242 0.179396 0
M  V30 5045 H 483.378 -3.43024 -1.5689 0
M  V30 5046 H 485.765 -2.44226 -1.65643 0
M  V30 5047 H 485.846 -2.55574 0.107482 0
M  V30 5048 H 485.49 -5.07864 -0.0607927 0
M  V30 5049 H 485.42 -4.93587 -1.8352 0
M  V30 5050 H 487.911 -3.66248 -0.931167 0
M  V30 5051 H 488.224 -7.61924 -1.29197 0
M  V30 5052 H 486.569 -6.85102 -1.16876 0
M  V30 5053 H 489.76 -4.5567 -1.07158 0
M  V30 5054 H 489.933 -6.36096 -1.23634 0
M  V30 5055 N 483.339 0.512053 -1.4905 0
M  V30 5056 C 484.579 1.27715 -1.59588 0
M  V30 5057 C 484.943 1.90071 -0.271502 0
M  V30 5058 O 486.144 2.67616 -0.251987 0
M  V30 5059 C 484.415 2.32399 -2.71524 0
M  V30 5060 S 485.974 3.18396 -3.01943 0
M  V30 5061 H 482.792 0.43419 -0.563027 0
M  V30 5062 H 485.394 0.581315 -1.86657 0
M  V30 5063 H 484.098 1.85101 -3.66287 0
M  V30 5064 H 483.629 3.06667 -2.46412 0
M  V30 5065 H 485.644 4.32842 -2.42616 0
M  V30 5066 N 484.817 1.37938 0.762283 0
M  V30 5067 C 485.767 1.30976 1.86626 0
M  V30 5068 C 486.751 0.195714 1.59705 0
M  V30 5069 O 487.943 0.430937 1.71674 0
M  V30 5070 C 485.072 1.12847 3.24223 0
M  V30 5071 C 484.158 2.28836 3.57064 0
M  V30 5072 N 484.549 3.54256 3.61022 0
M  V30 5073 C 482.847 2.21198 3.87282 0
M  V30 5074 C 483.548 4.30798 3.90881 0
M  V30 5075 N 482.524 3.60049 4.07266 0
M  V30 5076 H 486.326 2.25946 1.87951 0
M  V30 5077 H 483.84 1.31046 0.959206 0
M  V30 5078 H 485.837 1.05943 4.03214 0
M  V30 5079 H 484.497 0.188024 3.24155 0
M  V30 5080 H 485.508 3.8804 3.42995 0
M  V30 5081 H 482.185 1.35264 3.94981 0
M  V30 5082 H 483.575 5.39386 4.00639 0
M  V30 5083 N 486.295 -0.989507 1.22664 0
M  V30 5084 C 487.543 -1.72612 1.05117 0
M  V30 5085 C 487.864 -1.90552 -0.414131 0
M  V30 5086 O 487.134 -1.4676 -1.29762 0
M  V30 5087 H 485.714 -0.639555 0.385977 0
M  V30 5088 H 488.376 -1.19158 1.54232 0
M  V30 5089 H 487.472 -2.71926 1.53175 0
M  V30 5090 N 487.773 -1.03688 -1.18687 0
M  V30 5091 C 488.998 -0.757819 -1.93059 0
M  V30 5092 C 489.423 0.678353 -1.75442 0
M  V30 5093 O 488.781 1.46938 -1.06203 0
M  V30 5094 C 488.829 -1.12423 -3.42627 0
M  V30 5095 O 487.933 -0.247505 -4.11657 0
M  V30 5096 H 487.274 -0.279245 -0.602427 0
M  V30 5097 H 489.804 -1.3857 -1.5053 0
M  V30 5098 H 489.814 -1.08454 -3.93322 0
M  V30 5099 H 488.489 -2.17049 -3.54771 0
M  V30 5100 H 487.066 -0.34649 -3.71287 0
M  V30 5101 N 489.251 1.34841 -0.815825 0
M  V30 5102 C 490.183 2.28409 -0.190265 0
M  V30 5103 C 491.196 1.50705 0.615771 0
M  V30 5104 O 492.385 1.72822 0.446616 0
M  V30 5105 C 489.485 3.30441 0.752446 0
M  V30 5106 C 488.658 4.37399 -0.00922152 0
M  V30 5107 C 487.717 5.19234 0.853351 0
M  V30 5108 O 486.743 5.68404 0.300919 0
M  V30 5109 N 487.945 5.38248 2.17416 0
M  V30 5110 H 490.71 2.82732 -0.994114 0
M  V30 5111 H 488.271 1.47289 -0.672129 0
M  V30 5112 H 490.263 3.82084 1.33394 0
M  V30 5113 H 488.833 2.76565 1.45707 0
M  V30 5114 H 488.053 3.86567 -0.771979 0
M  V30 5115 H 489.341 5.05992 -0.533807 0
M  V30 5116 H 488.739 4.99961 2.6468 0
M  V30 5117 H 487.296 5.93035 2.70467 0
M  V30 5118 N 490.729 0.570148 1.46925 0
M  V30 5119 C 491.692 -0.159933 2.28641 0
M  V30 5120 C 492.692 -0.830638 1.37685 0
M  V30 5121 O 493.882 -0.684516 1.60187 0
M  V30 5122 C 491.014 -1.2354 3.17727 0
M  V30 5123 H 492.207 0.558035 2.94662 0
M  V30 5124 H 489.76 0.327603 1.52828 0
M  V30 5125 H 490.495 -1.98535 2.56426 0
M  V30 5126 H 490.28 -0.759125 3.84681 0
M  V30 5127 H 491.77 -1.74782 3.79264 0
M  V30 5128 N 492.207 -1.54576 0.307264 0
M  V30 5129 C 493.432 -2.05139 -0.305379 0
M  V30 5130 C 493.857 -1.18278 -1.46259 0
M  V30 5131 O 493.215 -0.188243 -1.8032 0
M  V30 5132 C 493.263 -3.53066 -0.733283 0
M  V30 5133 O 492.367 -3.69206 -1.83741 0
M  V30 5134 H 491.708 -0.661444 -0.0582105 0
M  V30 5135 H 494.238 -1.99569 0.450931 0
M  V30 5136 H 494.248 -3.95034 -1.02039 0
M  V30 5137 H 492.923 -4.15746 0.113198 0
M  V30 5138 H 491.5 -3.39143 -1.55037 0
M  V30 5139 N 493.685 -0.035106 -1.57561 0
M  V30 5140 C 494.915 0.651312 -1.96065 0
M  V30 5141 C 495.323 1.6585 -0.910514 0
M  V30 5142 O 494.666 1.83336 0.11552 0
M  V30 5143 C 494.728 1.40897 -3.30739 0
M  V30 5144 C 494.392 0.559436 -4.53563 0
M  V30 5145 C 495.389 -0.16778 -5.19629 0
M  V30 5146 C 493.074 0.495079 -4.99854 0
M  V30 5147 C 495.068 -0.947963 -6.30311 0
M  V30 5148 C 492.755 -0.288804 -6.10417 0
M  V30 5149 C 493.753 -1.00903 -6.75505 0
M  V30 5150 O 493.441 -1.78005 -7.83945 0
M  V30 5151 H 493.173 0.184036 -0.650467 0
M  V30 5152 H 495.727 -0.0929677 -2.05189 0
M  V30 5153 H 493.957 2.19852 -3.18123 0
M  V30 5154 H 495.646 1.98407 -3.54104 0
M  V30 5155 H 496.412 -0.12743 -4.84833 0
M  V30 5156 H 492.291 1.04524 -4.48994 0
M  V30 5157 H 495.835 -1.51064 -6.81047 0
M  V30 5158 H 491.732 -0.33085 -6.44652 0
M  V30 5159 H 492.5 -1.70046 -8.00641 0
M  V30 5160 N 495.163 1.55791 0.238111 0
M  V30 5161 C 496.093 1.94068 1.29846 0
M  V30 5162 C 497.074 0.806726 1.49753 0
M  V30 5163 O 498.259 1.06772 1.62214 0
M  V30 5164 C 495.389 2.24302 2.65153 0
M  V30 5165 C 494.343 3.40032 2.59927 0
M  V30 5166 C 493.669 3.55829 3.99111 0
M  V30 5167 C 494.969 4.75476 2.16148 0
M  V30 5168 H 496.663 2.82887 0.980563 0
M  V30 5169 H 494.209 1.36105 0.470253 0
M  V30 5170 H 496.162 2.4967 3.39475 0
M  V30 5171 H 494.886 1.32318 2.98596 0
M  V30 5172 H 493.545 3.14687 1.88063 0
M  V30 5173 H 493.193 2.6125 4.29834 0
M  V30 5174 H 492.893 4.3366 3.96501 0
M  V30 5175 H 494.417 3.83528 4.7512 0
M  V30 5176 H 495.831 5.00158 2.80205 0
M  V30 5177 H 494.228 5.56472 2.24631 0
M  V30 5178 H 495.298 4.71946 1.11333 0
M  V30 5179 N 496.642 -0.504142 1.49319 0
M  V30 5180 C 497.889 -1.25846 1.58647 0
M  V30 5181 C 498.217 -1.92592 0.27177 0
M  V30 5182 O 497.472 -1.81167 -0.74007 0
M  V30 5183 C 497.771 -2.35021 2.69258 0
M  V30 5184 C 497.437 -1.85755 4.1086 0
M  V30 5185 C 496.099 -1.72038 4.49395 0
M  V30 5186 C 498.451 -1.48844 4.99495 0
M  V30 5187 C 495.779 -1.19783 5.74342 0
M  V30 5188 C 498.131 -0.980422 6.24956 0
M  V30 5189 C 496.795 -0.829622 6.62324 0
M  V30 5190 H 496.065 -0.460505 0.580531 0
M  V30 5191 H 498.712 -0.559716 1.83138 0
M  V30 5192 H 497.017 -3.10672 2.38726 0
M  V30 5193 H 498.714 -2.93083 2.73685 0
M  V30 5194 H 495.304 -1.9739 3.80441 0
M  V30 5195 H 499.488 -1.5829 4.70381 0
M  V30 5196 H 494.744 -1.06817 6.01997 0
M  V30 5197 H 498.918 -0.685608 6.93017 0
M  V30 5198 H 496.545 -0.42253 7.59025 0
M  V30 5199 N 498.12 -1.38341 -0.754957 0
M  V30 5200 C 499.052 -1.31347 -1.87831 0
M  V30 5201 C 500.065 -0.225955 -1.61224 0
M  V30 5202 O 501.254 -0.48341 -1.7183 0
M  V30 5203 C 498.354 -1.01201 -3.23437 0
M  V30 5204 C 497.527 -2.20834 -3.77559 0
M  V30 5205 C 496.586 -1.87454 -4.91678 0
M  V30 5206 O 495.612 -2.59934 -5.06382 0
M  V30 5207 N 496.814 -0.828682 -5.74555 0
M  V30 5208 H 499.579 -2.28147 -1.94342 0
M  V30 5209 H 497.14 -1.32184 -0.934828 0
M  V30 5210 H 499.132 -0.769249 -3.97322 0
M  V30 5211 H 497.702 -0.132011 -3.12321 0
M  V30 5212 H 496.922 -2.61184 -2.95256 0
M  V30 5213 H 498.21 -3.00678 -4.10451 0
M  V30 5214 H 497.608 -0.227591 -5.65242 0
M  V30 5215 H 496.165 -0.645802 -6.48593 0
M  V30 5216 N 499.598 0.982988 -1.23187 0
M  V30 5217 C 500.53 2.07729 -0.968572 0
M  V30 5218 C 501.543 1.62702 0.0564821 0
M  V30 5219 O 502.732 1.77603 -0.178733 0
M  V30 5220 C 499.832 3.36071 -0.436974 0
M  V30 5221 C 499.005 4.10081 -1.52159 0
M  V30 5222 C 498.064 5.16701 -0.99532 0
M  V30 5223 O 497.09 5.43727 -1.68373 0
M  V30 5224 N 498.292 5.80226 0.178192 0
M  V30 5225 H 501.057 2.30894 -1.9107 0
M  V30 5226 H 498.618 1.14949 -1.1401 0
M  V30 5227 H 500.61 4.04639 -0.0700051 0
M  V30 5228 H 499.18 3.09893 0.410509 0
M  V30 5229 H 498.4 3.36004 -2.06144 0
M  V30 5230 H 499.688 4.56295 -2.25105 0
M  V30 5231 H 499.086 5.60651 0.754096 0
M  V30 5232 H 497.643 6.49982 0.486449 0
M  V30 5233 N 501.076 1.04316 1.18135 0
M  V30 5234 C 502.353 0.662166 1.84051 0
M  V30 5235 C 502.733 -0.858169 1.9287 0
M  V30 5236 O 502.081 -1.76062 1.45652 0
M  V30 5237 C 502.291 1.3409 3.22212 0
M  V30 5238 C 503.639 1.4733 3.9822 0
M  V30 5239 O 504.663 1.29921 3.31661 0
M  V30 5240 O 503.522 1.75722 5.17479 0
M  V30 5241 H 500.616 0.232005 0.79379 0
M  V30 5242 H 503.162 1.1422 1.25506 0
M  V30 5243 H 501.934 2.37853 3.10711 0
M  V30 5244 H 501.557 0.849649 3.88416 0
M  V30 5245 N 502.554 -1.34406 0.822964 0
M  V30 5246 C 503.501 -2.29519 0.24284 0
M  V30 5247 C 504.471 -1.5359 -0.632397 0
M  V30 5248 O 505.656 -1.8196 -0.57403 0
M  V30 5249 C 502.796 -3.40032 -0.58925 0
M  V30 5250 C 501.909 -4.30899 0.308236 0
M  V30 5251 C 501.044 -5.28515 -0.533425 0
M  V30 5252 C 500.083 -6.1102 0.363444 0
M  V30 5253 N 499.22 -7.00725 -0.439147 0
M  V30 5254 H 504.06 -2.78537 1.05929 0
M  V30 5255 H 501.597 -1.3707 0.533872 0
M  V30 5256 H 503.555 -4.0279 -1.087 0
M  V30 5257 H 502.185 -2.92248 -1.37081 0
M  V30 5258 H 501.237 -3.69002 0.924203 0
M  V30 5259 H 502.549 -4.88717 0.997862 0
M  V30 5260 H 501.703 -5.96725 -1.09565 0
M  V30 5261 H 500.442 -4.71235 -1.25656 0
M  V30 5262 H 499.447 -5.41743 0.937812 0
M  V30 5263 H 500.672 -6.70381 1.08469 0
M  V30 5264 H 498.618 -6.45913 -1.14595 0
M  V30 5265 H 498.535 -7.55756 0.19209 0
M  V30 5266 H 499.803 -7.73263 -0.984124 0
M  V30 5267 N 504.032 -0.577932 -1.46621 0
M  V30 5268 C 505.279 -0.0616879 -2.02406 0
M  V30 5269 C 505.607 1.29638 -1.44997 0
M  V30 5270 O 504.862 1.86176 -0.60308 0
M  V30 5271 C 505.161 0.0590832 -3.57351 0
M  V30 5272 C 504.827 -1.23077 -4.33777 0
M  V30 5273 C 503.489 -1.58416 -4.54376 0
M  V30 5274 C 505.841 -2.08457 -4.77698 0
M  V30 5275 C 503.169 -2.78943 -5.16147 0
M  V30 5276 C 505.521 -3.28204 -5.408 0
M  V30 5277 C 504.185 -3.63832 -5.59627 0
M  V30 5278 H 503.455 -0.0225732 -0.740656 0
M  V30 5279 H 506.102 -0.753609 -1.76048 0
M  V30 5280 H 504.407 0.834104 -3.82818 0
M  V30 5281 H 506.104 0.474202 -3.98186 0
M  V30 5282 H 502.694 -0.945652 -4.18038 0
M  V30 5283 H 506.878 -1.82459 -4.61544 0
M  V30 5284 H 502.134 -3.06689 -5.28916 0
M  V30 5285 H 506.308 -3.94634 -5.73792 0
M  V30 5286 H 503.935 -4.57315 -6.07262 0
M  V30 5287 N 505.51 1.54411 -0.315457 0
M  V30 5288 C 506.74 2.04536 0.291315 0
M  V30 5289 C 507.148 1.19162 1.4696 0
M  V30 5290 O 506.491 0.213199 1.82459 0
M  V30 5291 C 506.553 3.5056 0.796725 0
M  V30 5292 C 506.217 4.5627 -0.258178 0
M  V30 5293 C 507.214 5.08312 -1.09153 0
M  V30 5294 C 504.899 5.00672 -0.404036 0
M  V30 5295 C 506.893 6.03312 -2.05655 0
M  V30 5296 C 504.58 5.95488 -1.37248 0
M  V30 5297 C 505.578 6.46693 -2.19721 0
M  V30 5298 O 505.266 7.39648 -3.14921 0
M  V30 5299 H 504.998 0.672856 0.0651165 0
M  V30 5300 H 507.552 2.00244 -0.457308 0
M  V30 5301 H 505.782 3.52223 1.59612 0
M  V30 5302 H 507.471 3.83804 1.32096 0
M  V30 5303 H 508.237 4.74793 -0.98979 0
M  V30 5304 H 504.116 4.60436 0.22799 0
M  V30 5305 H 507.66 6.43203 -2.70067 0
M  V30 5306 H 503.557 6.28424 -1.47489 0
M  V30 5307 H 504.325 7.57496 -3.10067 0
M  V30 5308 N 506.988 0.0434614 1.5754 0
M  V30 5309 C 508.265 -0.671479 1.83713 0
M  V30 5310 C 508.645 -1.89495 0.930315 0
M  V30 5311 O 507.993 -2.28498 -0.0105639 0
M  V30 5312 C 508.203 -1.0361 3.33266 0
M  V30 5313 C 509.551 -1.42167 4.00092 0
M  V30 5314 O 510.575 -1.12866 3.37846 0
M  V30 5315 O 509.434 -1.96817 5.09829 0
M  V30 5316 H 506.528 -0.330726 0.75799 0
M  V30 5317 H 509.074 0.0722373 1.69546 0
M  V30 5318 H 507.846 -0.165938 3.90948 0
M  V30 5319 H 507.469 -1.83751 3.52592 0
M  V30 5320 N 508.466 -1.55915 -0.229846 0
M  V30 5321 C 509.712 -1.78807 -0.956868 0
M  V30 5322 C 510.045 -0.611687 -1.84315 0
M  V30 5323 O 509.32 0.389398 -1.90562 0
M  V30 5324 C 509.603 -3.11718 -1.80288 0
M  V30 5325 C 509.456 -4.3979 -0.943649 0
M  V30 5326 C 510.775 -3.40999 -2.78222 0
M  V30 5327 H 507.894 -0.6505 -0.346437 0
M  V30 5328 H 510.536 -1.88648 -0.226252 0
M  V30 5329 H 508.686 -3.03459 -2.42579 0
M  V30 5330 H 510.358 -4.60059 -0.338121 0
M  V30 5331 H 508.601 -4.33086 -0.248705 0
M  V30 5332 H 509.272 -5.29208 -1.5698 0
M  V30 5333 H 511.748 -3.49332 -2.26067 0
M  V30 5334 H 510.624 -4.35183 -3.34526 0
M  V30 5335 H 510.885 -2.62754 -3.55546 0
M  V30 5336 N 509.944 0.496216 -1.49584 0
M  V30 5337 C 510.907 1.57952 -1.66084 0
M  V30 5338 C 511.907 1.51729 -0.53244 0
M  V30 5339 O 513.097 1.54796 -0.79899 0
M  V30 5340 C 510.229 2.97604 -1.66268 0
M  V30 5341 H 511.422 1.44649 -2.6271 0
M  V30 5342 H 508.975 0.7208 -1.38687 0
M  V30 5343 H 509.71 3.16378 -0.712432 0
M  V30 5344 H 509.495 3.03528 -2.4822 0
M  V30 5345 H 510.985 3.76301 -1.81073 0
M  V30 5346 N 511.423 1.38739 0.74761 0
M  V30 5347 C 512.353 1.39173 1.87492 0
M  V30 5348 C 513.334 0.256794 1.6815 0
M  V30 5349 O 514.519 0.460762 1.88655 0
M  V30 5350 C 511.649 1.22197 3.25093 0
M  V30 5351 C 510.603 2.32957 3.59047 0
M  V30 5352 C 509.929 2.01082 4.95449 0
M  V30 5353 C 511.229 3.75237 3.6331 0
M  V30 5354 H 512.923 2.3351 1.87386 0
M  V30 5355 H 510.469 1.12399 0.900134 0
M  V30 5356 H 512.422 1.21124 4.03617 0
M  V30 5357 H 511.146 0.243241 3.25693 0
M  V30 5358 H 509.805 2.33226 2.82845 0
M  V30 5359 H 509.453 1.01678 4.92616 0
M  V30 5360 H 509.153 2.75267 5.19136 0
M  V30 5361 H 510.677 2.01638 5.76346 0
M  V30 5362 H 512.091 3.76966 4.31937 0
M  V30 5363 H 510.488 4.48677 3.98509 0
M  V30 5364 H 511.558 4.07122 2.634 0
M  V30 5365 N 512.901 -0.976442 1.23707 0
M  V30 5366 C 514.178 -1.69296 0.979699 0
M  V30 5367 C 514.558 -2.0508 -0.500555 0
M  V30 5368 O 513.906 -1.74708 -1.47273 0
M  V30 5369 C 514.116 -2.93143 1.89389 0
M  V30 5370 C 515.464 -3.65572 2.15968 0
M  V30 5371 O 516.488 -3.03184 1.86971 0
M  V30 5372 O 515.347 -4.77859 2.65167 0
M  V30 5373 H 512.441 -0.739708 0.369812 0
M  V30 5374 H 514.987 -1.03131 1.34767 0
M  V30 5375 H 513.759 -2.63327 2.89439 0
M  V30 5376 H 513.382 -3.67044 1.52854 0
M  V30 5377 N 514.379 -1.04941 -1.1758 0
M  V30 5378 C 515.607 -0.778294 -1.91703 0
M  V30 5379 C 516.022 0.665697 -1.76675 0
M  V30 5380 O 515.379 1.45456 -1.10222 0
M  V30 5381 C 515.43 -1.14628 -3.42845 0
M  V30 5382 O 515.151 -2.53359 -3.57409 0
M  V30 5383 C 516.652 -0.900931 -4.34049 0
M  V30 5384 H 513.872 -0.283167 -0.608323 0
M  V30 5385 H 516.416 -1.39942 -1.49119 0
M  V30 5386 H 514.571 -0.569953 -3.83184 0
M  V30 5387 H 514.985 -2.67709 -4.51035 0
M  V30 5388 H 516.459 -1.20817 -5.38616 0
M  V30 5389 H 516.936 0.163966 -4.38894 0
M  V30 5390 H 517.542 -1.46097 -3.99419 0
M  V30 5391 N 515.857 1.33968 -0.830081 0
M  V30 5392 C 517.105 1.97672 -0.420734 0
M  V30 5393 C 517.426 1.66111 1.02138 0
M  V30 5394 O 516.696 0.955503 1.71017 0
M  V30 5395 H 515.276 0.73125 -0.152587 0
M  V30 5396 H 517.938 1.63483 -1.0611 0
M  V30 5397 H 517.034 3.07294 -0.545588 0
M  V30 5398 N 517.335 0.585699 1.46312 0
M  V30 5399 C 518.612 0.00542031 1.95599 0
M  V30 5400 C 518.992 -1.45619 1.52834 0
M  V30 5401 O 518.34 -2.14759 0.780446 0
M  V30 5402 C 518.55 0.180601 3.48532 0
M  V30 5403 C 519.898 0.049979 4.24571 0
M  V30 5404 O 520.922 0.109589 3.56031 0
M  V30 5405 O 519.781 -0.0832226 5.46437 0
M  V30 5406 H 516.875 -0.0481281 0.825598 0
M  V30 5407 H 519.421 0.654227 1.56582 0
M  V30 5408 H 518.193 1.19657 3.72556 0
M  V30 5409 H 517.816 -0.504498 3.94386 0
M  V30 5410 N 518.813 -1.54241 0.323641 0
M  V30 5411 C 519.76 -2.24339 -0.542277 0
M  V30 5412 C 520.73 -1.23421 -1.11159 0
M  V30 5413 O 521.915 -1.52104 -1.15192 0
M  V30 5414 C 519.055 -3.00479 -1.69725 0
M  V30 5415 C 518.168 -4.16214 -1.15716 0
M  V30 5416 C 517.303 -4.79884 -2.27783 0
M  V30 5417 C 516.342 -5.87722 -1.71023 0
M  V30 5418 N 515.479 -6.45254 -2.76752 0
M  V30 5419 H 520.319 -2.97935 0.0620613 0
M  V30 5420 H 517.856 -1.47039 0.0423993 0
M  V30 5421 H 519.814 -3.42869 -2.3769 0
M  V30 5422 H 518.444 -2.29217 -2.27288 0
M  V30 5423 H 517.496 -3.78605 -0.369063 0
M  V30 5424 H 518.808 -4.93838 -0.701832 0
M  V30 5425 H 517.962 -5.25243 -3.03651 0
M  V30 5426 H 516.701 -4.01641 -2.76652 0
M  V30 5427 H 515.706 -5.41765 -0.936518 0
M  V30 5428 H 516.931 -6.67863 -1.2303 0
M  V30 5429 H 514.877 -5.69884 -3.24912 0
M  V30 5430 H 514.794 -7.18292 -2.35782 0
M  V30 5431 H 516.062 -6.95269 -3.5245 0
M  V30 5432 N 520.291 -0.0518155 -1.57515 0
M  V30 5433 C 521.537 0.622745 -1.93002 0
M  V30 5434 C 521.87 1.70456 -0.930499 0
M  V30 5435 O 521.145 1.94452 0.0434086 0
M  V30 5436 C 521.428 1.21824 -3.38867 0
M  V30 5437 C 521.281 0.144434 -4.49568 0
M  V30 5438 C 522.6 2.12968 -3.8514 0
M  V30 5439 H 519.719 0.22491 -0.701844 0
M  V30 5440 H 522.361 -0.113711 -1.89659 0
M  V30 5441 H 520.511 1.8459 -3.41846 0
M  V30 5442 H 522.183 -0.48753 -4.58717 0
M  V30 5443 H 520.426 -0.527424 -4.30582 0
M  V30 5444 H 521.097 0.601127 -5.48717 0
M  V30 5445 H 523.573 1.60163 -3.8404 0
M  V30 5446 H 522.449 2.51578 -4.87852 0
M  V30 5447 H 522.71 3.03004 -3.21934 0
M  V30 5448 N 521.769 1.56035 0.221574 0
M  V30 5449 C 523.015 1.79312 0.947372 0
M  V30 5450 C 523.348 0.621453 1.83988 0
M  V30 5451 O 522.623 -0.379287 1.90766 0
M  V30 5452 C 522.906 3.1267 1.78633 0
M  V30 5453 C 522.759 4.40284 0.920312 0
M  V30 5454 C 524.078 3.4247 2.7641 0
M  V30 5455 H 521.197 0.652328 0.342982 0
M  V30 5456 H 523.839 1.88765 0.216244 0
M  V30 5457 H 521.989 3.04741 2.40967 0
M  V30 5458 H 523.661 4.60232 0.313718 0
M  V30 5459 H 521.904 4.33212 0.225734 0
M  V30 5460 H 522.575 5.30033 1.54171 0
M  V30 5461 H 525.051 3.50526 2.24211 0
M  V30 5462 H 523.927 4.3695 3.32213 0
M  V30 5463 H 524.188 2.64635 3.54148 0
M  V30 5464 N 523.247 -0.488276 1.49845 0
M  V30 5465 C 524.179 -1.60539 1.63584 0
M  V30 5466 C 525.192 -1.5434 0.517972 0
M  V30 5467 O 526.381 -1.60041 0.790516 0
M  V30 5468 C 523.481 -2.99374 1.58835 0
M  V30 5469 C 522.654 -3.30624 2.86368 0
M  V30 5470 C 521.713 -4.4893 2.74496 0
M  V30 5471 O 520.739 -4.50085 3.48443 0
M  V30 5472 N 521.941 -5.49591 1.86894 0
M  V30 5473 H 524.706 -1.49176 2.59936 0
M  V30 5474 H 522.267 -0.67639 1.47094 0
M  V30 5475 H 524.259 -3.76459 1.48529 0
M  V30 5476 H 522.829 -3.04595 0.702892 0
M  V30 5477 H 522.049 -2.42314 3.1093 0
M  V30 5478 H 523.337 -3.48305 3.70892 0
M  V30 5479 H 522.735 -5.51467 1.26097 0
M  V30 5480 H 521.292 -6.25728 1.82503 0
M  V30 5481 N 524.725 -1.39134 -0.740242 0
M  V30 5482 C 525.965 -1.37499 -1.51239 0
M  V30 5483 C 526.329 0.0310084 -1.91975 0
M  V30 5484 O 527.53 0.172319 -2.68247 0
M  V30 5485 C 525.801 -2.31566 -2.72235 0
M  V30 5486 S 527.36 -2.48073 -3.61947 0
M  V30 5487 H 524.178 -0.48768 -0.517387 0
M  V30 5488 H 526.78 -1.75183 -0.867826 0
M  V30 5489 H 525.484 -3.32592 -2.40439 0
M  V30 5490 H 525.015 -1.9508 -3.41625 0
M  V30 5491 H 527.03 -1.71473 -4.6563 0
M  V30 5492 N 526.204 0.969867 -1.24223 0
M  V30 5493 C 527.452 1.70918 -1.0785 0
M  V30 5494 C 527.773 1.91186 0.383763 0
M  V30 5495 O 527.043 1.48806 1.27411 0
M  V30 5496 H 525.623 0.633334 -0.396103 0
M  V30 5497 H 528.285 1.16689 -1.56108 0
M  V30 5498 H 527.381 2.69455 -1.57482 0
M  V30 5499 N 527.682 1.05563 1.17022 0
M  V30 5500 C 529.098 0.777684 1.39371 0
M  V30 5501 C 529.298 -0.626269 1.91521 0
M  V30 5502 O 528.354 -1.38806 2.10924 0
M  V30 5503 C 529.667 1.83642 2.3811 0
M  V30 5504 C 531.215 1.85907 2.51809 0
M  V30 5505 C 531.69 2.90813 3.53824 0
M  V30 5506 N 533.181 2.898 3.61345 0
M  V30 5507 C 533.916 3.6762 4.40049 0
M  V30 5508 N 533.412 4.55237 5.22237 0
M  V30 5509 N 535.205 3.56044 4.34959 0
M  V30 5510 H 527.356 1.9614 0.815047 0
M  V30 5511 H 529.619 0.849527 0.420722 0
M  V30 5512 H 529.325 2.84425 2.06871 0
M  V30 5513 H 529.199 1.6812 3.37662 0
M  V30 5514 H 531.586 0.857865 2.82356 0
M  V30 5515 H 531.667 2.05506 1.52318 0
M  V30 5516 H 531.311 3.91122 3.24015 0
M  V30 5517 H 531.241 2.68465 4.53028 0
M  V30 5518 H 533.732 2.26274 3.02669 0
M  V30 5519 H 534.045 5.11291 5.79484 0
M  V30 5520 H 532.39 4.59296 5.21605 0
M  V30 5521 H 535.581 2.86986 3.69806 0
M  V30 5522 H 535.754 4.16938 4.96051 0
M  V30 5523 N 529.16 -1.33526 0.837174 0
M  V30 5524 C 530.576 -1.50727 0.524743 0
M  V30 5525 C 530.776 -1.77792 -0.948279 0
M  V30 5526 O 529.832 -1.83719 -1.73216 0
M  V30 5527 C 531.145 -2.66299 1.39661 0
M  V30 5528 C 532.693 -2.80183 1.39521 0
M  V30 5529 C 533.168 -3.98815 2.25189 0
M  V30 5530 N 534.659 -4.06047 2.2289 0
M  V30 5531 C 535.394 -4.97032 2.85915 0
M  V30 5532 N 534.89 -5.93143 3.57985 0
M  V30 5533 N 536.683 -4.90015 2.75394 0
M  V30 5534 H 528.834 -1.1422 1.79074 0
M  V30 5535 H 531.097 -0.561399 0.763894 0
M  V30 5536 H 530.803 -2.52974 2.4433 0
M  V30 5537 H 530.677 -3.61663 1.07145 0
M  V30 5538 H 533.064 -2.92942 0.356253 0
M  V30 5539 H 533.145 -1.85586 1.76044 0
M  V30 5540 H 532.789 -3.86817 3.29143 0
M  V30 5541 H 532.719 -4.92654 1.86009 0
M  V30 5542 H 535.21 -3.37262 1.70478 0
M  V30 5543 H 535.523 -6.59227 4.03286 0
M  V30 5544 H 533.868 -5.93223 3.62093 0
M  V30 5545 H 537.059 -4.13894 2.18654 0
M  V30 5546 H 537.232 -5.60724 3.24796 0
M  V30 5547 N 530.638 -0.59345 -1.46 0
M  V30 5548 C 531.884 -0.0832754 -2.02629 0
M  V30 5549 C 532.217 1.27749 -1.46266 0
M  V30 5550 O 531.492 1.8395 -0.631866 0
M  V30 5551 C 531.775 -0.0290756 -3.60088 0
M  V30 5552 C 531.628 -1.41951 -4.26814 0
M  V30 5553 C 532.947 0.666055 -4.35031 0
M  V30 5554 H 530.066 -0.031736 -0.736316 0
M  V30 5555 H 532.708 -0.762711 -1.74019 0
M  V30 5556 H 530.858 0.549532 -3.84594 0
M  V30 5557 H 532.53 -2.04411 -4.13538 0
M  V30 5558 H 530.773 -1.98422 -3.8576 0
M  V30 5559 H 531.444 -1.33395 -5.3564 0
M  V30 5560 H 533.92 0.174401 -4.15734 0
M  V30 5561 H 532.796 0.673041 -5.44758 0
M  V30 5562 H 533.057 1.72946 -4.06869 0
M  V30 5563 N 532.116 1.54067 -0.331816 0
M  V30 5564 C 533.393 1.92915 0.322955 0
M  V30 5565 C 533.773 1.26225 1.69205 0
M  V30 5566 O 533.121 0.408919 2.24811 0
M  V30 5567 C 533.331 3.46619 0.406946 0
M  V30 5568 C 534.679 4.19386 0.663339 0
M  V30 5569 O 535.703 3.5282 0.489536 0
M  V30 5570 O 534.562 5.37288 0.999193 0
M  V30 5571 H 531.656 0.805808 0.186016 0
M  V30 5572 H 534.202 1.65342 -0.382135 0
M  V30 5573 H 532.974 3.87354 -0.554287 0
M  V30 5574 H 532.597 3.80324 1.15929 0
M  V30 5575 N 533.594 0.0601682 1.57485 0
M  V30 5576 C 534.834 -0.615384 1.94916 0
M  V30 5577 C 535.198 -1.67475 0.938948 0
M  V30 5578 O 536.399 -2.40502 1.20051 0
M  V30 5579 C 534.67 -1.18788 3.37082 0
M  V30 5580 S 536.229 -1.88018 3.96478 0
M  V30 5581 H 533.047 -0.201821 0.681754 0
M  V30 5582 H 535.649 0.131252 1.95059 0
M  V30 5583 H 534.353 -0.404869 4.08398 0
M  V30 5584 H 533.884 -1.97114 3.40455 0
M  V30 5585 H 535.899 -3.16161 3.82435 0
M  V30 5586 N 535.072 -1.5615 -0.213296 0
M  V30 5587 C 536.002 -1.96109 -1.26742 0
M  V30 5588 C 536.983 -0.830448 -1.48451 0
M  V30 5589 O 538.168 -1.09339 -1.60495 0
M  V30 5590 C 535.298 -2.28492 -2.61551 0
M  V30 5591 C 534.252 -3.44124 -2.54485 0
M  V30 5592 C 533.578 -3.62134 -3.93399 0
M  V30 5593 C 534.878 -4.78855 -2.08556 0
M  V30 5594 H 536.572 -2.84412 -0.935434 0
M  V30 5595 H 534.118 -1.36836 -0.44854 0
M  V30 5596 H 536.071 -2.55039 -3.3546 0
M  V30 5597 H 534.795 -1.37052 -2.96453 0
M  V30 5598 H 533.454 -3.17639 -1.83033 0
M  V30 5599 H 533.102 -2.68055 -4.25623 0
M  V30 5600 H 532.802 -4.39913 -3.89551 0
M  V30 5601 H 534.326 -3.91038 -4.68958 0
M  V30 5602 H 535.74 -5.04552 -2.72213 0
M  V30 5603 H 534.137 -5.59975 -2.1575 0
M  V30 5604 H 535.207 -4.73657 -1.03811 0
M  V30 5605 N 536.55 0.480323 -1.50102 0
M  V30 5606 C 537.497 1.57946 -1.6829 0
M  V30 5607 C 538.467 1.57611 -0.524223 0
M  V30 5608 O 539.652 1.75282 -0.753709 0
M  V30 5609 C 536.792 2.95978 -1.77457 0
M  V30 5610 C 535.905 3.06173 -3.04766 0
M  V30 5611 C 535.04 4.35063 -3.04784 0
M  V30 5612 C 534.079 4.38966 -4.26586 0
M  V30 5613 N 533.216 5.59314 -4.24396 0
M  V30 5614 H 538.056 1.41743 -2.62131 0
M  V30 5615 H 535.593 0.689304 -1.2995 0
M  V30 5616 H 537.551 3.76011 -1.80752 0
M  V30 5617 H 536.181 3.10837 -0.870637 0
M  V30 5618 H 535.233 2.19071 -3.10986 0
M  V30 5619 H 536.545 3.04916 -3.9475 0
M  V30 5620 H 535.699 5.23436 -3.06757 0
M  V30 5621 H 534.438 4.38915 -2.12614 0
M  V30 5622 H 533.443 3.48992 -4.24835 0
M  V30 5623 H 534.668 4.36813 -5.19972 0
M  V30 5624 H 532.614 5.63969 -3.35074 0
M  V30 5625 H 532.531 5.5976 -5.08138 0
M  V30 5626 H 533.799 6.49837 -4.30502 0
M  V30 5627 N 538.028 1.39524 0.732853 0
M  V30 5628 C 538.958 1.41153 1.86005 0
M  V30 5629 C 539.939 0.274614 1.67869 0
M  V30 5630 O 541.124 0.480745 1.88155 0
M  V30 5631 C 538.254 1.25638 3.23778 0
M  V30 5632 C 537.208 2.36752 3.56556 0
M  V30 5633 C 536.534 2.06326 4.93289 0
M  V30 5634 C 537.834 3.79069 3.5931 0
M  V30 5635 H 539.528 2.35484 1.84899 0
M  V30 5636 H 537.074 1.13348 0.888162 0
M  V30 5637 H 539.027 1.25398 4.0231 0
M  V30 5638 H 537.751 0.277772 3.25417 0
M  V30 5639 H 536.41 2.36213 2.80355 0
M  V30 5640 H 536.058 1.06897 4.9151 0
M  V30 5641 H 535.758 2.80757 5.16187 0
M  V30 5642 H 537.282 2.07739 5.74175 0
M  V30 5643 H 538.696 3.81526 4.27914 0
M  V30 5644 H 537.093 4.52878 3.93728 0
M  V30 5645 H 538.163 4.09893 2.59068 0
M  V30 5646 N 539.506 -0.963266 1.24736 0
M  V30 5647 C 540.752 -1.71 1.10139 0
M  V30 5648 C 541.107 -1.89089 -0.35541 0
M  V30 5649 O 540.4 -1.44451 -1.25875 0
M  V30 5650 C 540.594 -3.09944 1.7796 0
M  V30 5651 C 540.423 -3.05408 3.30085 0
M  V30 5652 C 539.193 -3.09643 3.99311 0
M  V30 5653 C 541.391 -2.87241 4.26611 0
M  V30 5654 N 539.373 -2.95174 5.3828 0
M  V30 5655 C 540.744 -2.81114 5.52607 0
M  V30 5656 C 542.799 -2.71856 4.17132 0
M  V30 5657 C 541.502 -2.61174 6.70209 0
M  V30 5658 C 543.528 -2.53284 5.34417 0
M  V30 5659 C 542.89 -2.4787 6.59348 0
M  V30 5660 H 538.989 -0.634078 0.457678 0
M  V30 5661 H 541.573 -1.14169 1.57713 0
M  V30 5662 H 539.744 -3.64958 1.32893 0
M  V30 5663 H 541.476 -3.73348 1.56183 0
M  V30 5664 H 538.231 -3.18498 3.50508 0
M  V30 5665 H 538.655 -2.91168 6.11188 0
M  V30 5666 H 543.297 -2.74821 3.21299 0
M  V30 5667 H 541.015 -2.56952 7.6616 0
M  V30 5668 H 544.601 -2.42317 5.28936 0
M  V30 5669 H 543.481 -2.33685 7.48573 0
M  V30 5670 N 540.985 -1.06182 -1.16461 0
M  V30 5671 C 541.915 -0.692861 -2.22984 0
M  V30 5672 C 542.896 0.314122 -1.67174 0
M  V30 5673 O 544.081 0.189499 -1.93273 0
M  V30 5674 C 541.211 -0.07732 -3.47214 0
M  V30 5675 C 540.165 -1.01015 -4.15909 0
M  V30 5676 C 539.491 -0.257973 -5.34077 0
M  V30 5677 C 540.791 -2.33868 -4.67015 0
M  V30 5678 H 542.485 -1.58343 -2.54102 0
M  V30 5679 H 540.031 -0.76279 -1.22137 0
M  V30 5680 H 541.984 0.19266 -4.20959 0
M  V30 5681 H 540.708 0.848254 -3.15392 0
M  V30 5682 H 539.367 -1.26486 -3.44088 0
M  V30 5683 H 539.015 0.670684 -4.98509 0
M  V30 5684 H 538.715 -0.879638 -5.80979 0
M  V30 5685 H 540.239 0.00448788 -6.106 0
M  V30 5686 H 541.653 -2.1279 -5.32347 0
M  V30 5687 H 540.05 -2.91522 -5.24533 0
M  V30 5688 H 541.12 -2.97019 -3.83286 0
M  V30 5689 N 542.463 1.3308 -0.844243 0
M  V30 5690 C 543.396 2.27075 -0.226279 0
M  V30 5691 C 544.374 1.49911 0.629716 0
M  V30 5692 O 545.558 1.79068 0.588803 0
M  V30 5693 C 542.685 3.31767 0.681782 0
M  V30 5694 C 541.731 4.26384 -0.0994565 0
M  V30 5695 S 542.564 5.15186 -1.46094 0
M  V30 5696 C 543.72 6.23405 -0.558319 0
M  V30 5697 H 543.953 2.79141 -1.02312 0
M  V30 5698 H 541.486 1.40452 -0.641292 0
M  V30 5699 H 543.444 3.92566 1.20008 0
M  V30 5700 H 542.105 2.78507 1.45234 0
M  V30 5701 H 541.298 5.00514 0.591733 0
M  V30 5702 H 540.9 3.69949 -0.548991 0
M  V30 5703 H 543.192 6.77069 0.241672 0
M  V30 5704 H 544.135 6.96619 -1.26995 0
M  V30 5705 H 544.543 5.64333 -0.13728 0
M  V30 5706 N 543.941 0.601185 1.45683 0
M  V30 5707 C 545.187 0.102425 2.03142 0
M  V30 5708 C 545.542 -1.25066 1.46207 0
M  V30 5709 O 544.835 -1.81126 0.624806 0
M  V30 5710 C 545.029 -0.00222425 3.574 0
M  V30 5711 C 544.858 1.33917 4.29298 0
M  V30 5712 C 543.628 1.91818 4.67476 0
M  V30 5713 C 545.826 2.26652 4.61664 0
M  V30 5714 N 543.808 3.19504 5.24204 0
M  V30 5715 C 545.179 3.38933 5.19157 0
M  V30 5716 C 547.234 2.26103 4.43601 0
M  V30 5717 C 545.937 4.50823 5.60492 0
M  V30 5718 C 547.963 3.37036 4.85964 0
M  V30 5719 C 547.325 4.48039 5.43545 0
M  V30 5720 H 543.424 0.0806974 0.777825 0
M  V30 5721 H 546.008 0.798134 1.77589 0
M  V30 5722 H 544.179 -0.66714 3.82627 0
M  V30 5723 H 545.911 -0.507058 4.01511 0
M  V30 5724 H 542.666 1.45097 4.50826 0
M  V30 5725 H 543.09 3.84705 5.57073 0
M  V30 5726 H 547.732 1.41547 3.98402 0
M  V30 5727 H 545.45 5.36108 6.0466 0
M  V30 5728 H 549.036 3.37752 4.73725 0
M  V30 5729 H 547.916 5.32459 5.75723 0
M  V30 5730 N 545.419 -1.53889 0.339982 0
M  V30 5731 C 546.366 -2.24902 -0.518452 0
M  V30 5732 C 547.336 -1.24593 -1.09844 0
M  V30 5733 O 548.521 -1.53317 -1.13572 0
M  V30 5734 C 545.661 -3.02262 -1.66529 0
M  V30 5735 C 544.774 -4.17418 -1.11295 0
M  V30 5736 C 543.909 -4.82273 -2.2268 0
M  V30 5737 C 542.948 -5.89503 -1.6478 0
M  V30 5738 N 542.085 -6.48153 -2.69893 0
M  V30 5739 H 546.925 -2.97853 0.0936579 0
M  V30 5740 H 544.462 -1.46986 0.0579924 0
M  V30 5741 H 546.42 -3.45371 -2.3404 0
M  V30 5742 H 545.05 -2.31614 -2.24844 0
M  V30 5743 H 544.102 -3.78976 -0.328886 0
M  V30 5744 H 545.414 -4.94554 -0.649414 0
M  V30 5745 H 544.568 -5.28435 -2.98063 0
M  V30 5746 H 543.307 -4.04552 -2.72376 0
M  V30 5747 H 542.312 -5.42728 -0.879004 0
M  V30 5748 H 543.537 -6.6913 -1.1594 0
M  V30 5749 H 541.483 -5.73298 -3.1885 0
M  V30 5750 H 541.4 -7.20752 -2.28151 0
M  V30 5751 H 542.668 -6.98968 -3.45056 0
M  V30 5752 N 546.897 -0.0685191 -1.57451 0
M  V30 5753 C 547.86 0.885173 -2.11417 0
M  V30 5754 C 548.86 1.22853 -1.03748 0
M  V30 5755 O 550.05 1.16235 -1.2975 0
M  V30 5756 C 547.182 2.18964 -2.61281 0
M  V30 5757 H 548.375 0.417034 -2.96986 0
M  V30 5758 H 545.928 0.18014 -1.55258 0
M  V30 5759 H 546.663 2.70321 -1.79156 0
M  V30 5760 H 546.448 1.9534 -3.39977 0
M  V30 5761 H 547.938 2.87242 -3.0312 0
M  V30 5762 N 548.375 1.56261 0.205012 0
M  V30 5763 C 549.307 1.90266 1.27795 0
M  V30 5764 C 550.32 0.792397 1.42214 0
M  V30 5765 O 551.509 1.07077 1.42817 0
M  V30 5766 C 548.609 2.11074 2.65143 0
M  V30 5767 C 547.782 3.42176 2.7246 0
M  V30 5768 C 546.841 3.52216 3.90936 0
M  V30 5769 O 545.867 4.25119 3.78501 0
M  V30 5770 N 547.069 2.84573 5.05963 0
M  V30 5771 H 549.834 2.82896 0.989434 0
M  V30 5772 H 547.395 1.57008 0.394981 0
M  V30 5773 H 549.387 2.15089 3.4281 0
M  V30 5774 H 547.957 1.2499 2.86524 0
M  V30 5775 H 547.177 3.50116 1.81142 0
M  V30 5776 H 548.465 4.28509 2.74331 0
M  V30 5777 H 547.863 2.25152 5.18963 0
M  V30 5778 H 546.42 2.94228 5.81613 0
M  V30 5779 N 549.853 -0.472356 1.50355 0
M  V30 5780 C 551.101 -1.22211 1.60962 0
M  V30 5781 C 551.422 -1.92497 0.311439 0
M  V30 5782 O 550.692 -1.8405 -0.671002 0
M  V30 5783 H 549.272 -0.454092 0.593135 0
M  V30 5784 H 551.934 -0.544977 1.87126 0
M  V30 5785 H 551.03 -1.9707 2.42012 0
M  V30 5786 N 551.331 -1.39911 -0.725443 0
M  V30 5787 C 552.608 -1.28158 -1.47766 0
M  V30 5788 C 552.988 0.104545 -2.10841 0
M  V30 5789 O 552.336 1.11657 -1.99361 0
M  V30 5790 C 552.546 -2.41306 -2.52135 0
M  V30 5791 C 553.894 -2.81076 -3.18247 0
M  V30 5792 O 554.918 -2.40827 -2.62452 0
M  V30 5793 O 553.777 -3.50581 -4.19231 0
M  V30 5794 H 550.871 -0.502761 -0.656628 0
M  V30 5795 H 553.417 -1.51808 -0.758456 0
M  V30 5796 H 552.189 -3.33932 -2.03974 0
M  V30 5797 H 551.812 -2.19374 -3.31603 0
M  V30 5798 N 552.809 0.956637 -1.25245 0
M  V30 5799 C 553.741 2.05628 -1.01242 0
M  V30 5800 C 554.754 1.62785 0.0219579 0
M  V30 5801 O 555.943 1.77184 -0.216365 0
M  V30 5802 C 553.043 3.35069 -0.508161 0
M  V30 5803 C 552.216 4.06761 -1.60823 0
M  V30 5804 C 551.275 5.14473 -1.1047 0
M  V30 5805 O 550.301 5.40033 -1.79868 0
M  V30 5806 N 551.503 5.80474 0.0550773 0
M  V30 5807 H 554.268 2.2679 -1.95925 0
M  V30 5808 H 551.829 1.12505 -1.16423 0
M  V30 5809 H 553.821 4.044 -0.155819 0
M  V30 5810 H 552.391 3.10694 0.344683 0
M  V30 5811 H 551.611 3.31555 -2.13224 0
M  V30 5812 H 552.899 4.51418 -2.34733 0
M  V30 5813 H 552.297 5.62125 0.635004 0
M  V30 5814 H 550.854 6.50868 0.348469 0
M  V30 5815 N 554.287 1.06798 1.15896 0
M  V30 5816 C 555.535 0.786211 1.8618 0
M  V30 5817 C 555.856 -0.689547 1.82401 0
M  V30 5818 O 555.126 -1.49913 1.26107 0
M  V30 5819 H 553.706 0.287843 0.689315 0
M  V30 5820 H 556.368 1.35055 1.40521 0
M  V30 5821 H 555.464 1.1157 2.91477 0
M  V30 5822 N 555.766 -1.3263 0.851289 0
M  V30 5823 C 556.696 -2.31449 0.308771 0
M  V30 5824 C 557.677 -1.59531 -0.590255 0
M  V30 5825 O 558.862 -1.87351 -0.511205 0
M  V30 5826 C 555.992 -3.43586 -0.506548 0
M  V30 5827 C 554.946 -4.26963 0.297753 0
M  V30 5828 C 554.272 -5.30831 -0.642094 0
M  V30 5829 C 555.572 -4.99643 1.52166 0
M  V30 5830 H 557.266 -2.77074 1.13447 0
M  V30 5831 H 554.812 -1.33207 0.546971 0
M  V30 5832 H 556.765 -4.11754 -0.896474 0
M  V30 5833 H 555.489 -2.96681 -1.36558 0
M  V30 5834 H 554.148 -3.60437 0.669391 0
M  V30 5835 H 553.796 -4.8018 -1.49788 0
M  V30 5836 H 553.496 -5.87501 -0.107968 0
M  V30 5837 H 555.02 -6.01862 -1.02927 0
M  V30 5838 H 556.434 -5.6051 1.20421 0
M  V30 5839 H 554.831 -5.66022 1.99347 0
M  V30 5840 H 555.901 -4.27701 2.28474 0
M  V30 5841 N 557.244 -0.608902 -1.45362 0
M  V30 5842 C 558.154 0.110969 -2.34337 0
M  V30 5843 C 559.17 0.859007 -1.51318 0
M  V30 5844 O 560.346 0.816296 -1.84116 0
M  V30 5845 C 557.411 1.09494 -3.28956 0
M  V30 5846 C 556.472 0.348718 -4.27881 0
M  V30 5847 C 555.705 1.28582 -5.17979 0
M  V30 5848 O 555.928 2.52369 -5.11533 0
M  V30 5849 O 554.862 0.782172 -5.96796 0
M  V30 5850 H 558.688 -0.620258 -2.97299 0
M  V30 5851 H 556.273 -0.36916 -1.44767 0
M  V30 5852 H 558.155 1.66163 -3.87257 0
M  V30 5853 H 556.83 1.80717 -2.68557 0
M  V30 5854 H 555.737 -0.260465 -3.73192 0
M  V30 5855 H 557.07 -0.323049 -4.91139 0
M  V30 5856 N 558.722 1.53707 -0.348139 0
M  V30 5857 C 560.138 1.596 0.00361134 0
M  V30 5858 C 560.338 1.36394 1.4832 0
M  V30 5859 O 559.394 1.16046 2.24253 0
M  V30 5860 C 560.707 2.97512 -0.436682 0
M  V30 5861 C 562.255 3.10568 -0.389416 0
M  V30 5862 C 562.73 4.50866 -0.805249 0
M  V30 5863 N 564.221 4.56929 -0.759616 0
M  V30 5864 C 564.956 5.63643 -1.05327 0
M  V30 5865 N 564.452 6.78189 -1.41531 0
M  V30 5866 N 566.245 5.5354 -0.977207 0
M  V30 5867 H 558.396 1.67044 -1.31187 0
M  V30 5868 H 560.659 0.782559 -0.535075 0
M  V30 5869 H 560.365 3.19575 -1.46849 0
M  V30 5870 H 560.239 3.76742 0.185744 0
M  V30 5871 H 562.626 2.88226 0.633228 0
M  V30 5872 H 562.707 2.33387 -1.04711 0
M  V30 5873 H 562.351 4.73943 -1.82593 0
M  V30 5874 H 562.281 5.26452 -0.124989 0
M  V30 5875 H 564.772 3.74675 -0.49265 0
M  V30 5876 H 565.085 7.55541 -1.62411 0
M  V30 5877 H 563.43 6.79624 -1.45381 0
M  V30 5878 H 566.621 4.62932 -0.693675 0
M  V30 5879 H 566.794 6.36614 -1.2094 0
M  V30 5880 N 560.2 0.0768682 1.57412 0
M  V30 5881 C 561.616 -0.279772 1.57129 0
M  V30 5882 C 561.816 -1.69688 1.08666 0
M  V30 5883 O 560.872 -2.40953 0.754843 0
M  V30 5884 C 562.185 -0.0848055 3.0058 0
M  V30 5885 C 563.733 -0.153954 3.12621 0
M  V30 5886 C 564.208 0.0127946 4.57998 0
M  V30 5887 N 565.699 -0.0426435 4.6318 0
M  V30 5888 C 566.434 0.0618892 5.73367 0
M  V30 5889 N 565.93 0.220229 6.9245 0
M  V30 5890 N 567.723 0.00446072 5.621 0
M  V30 5891 H 559.874 1.00297 1.87228 0
M  V30 5892 H 562.137 0.391565 0.863354 0
M  V30 5893 H 561.843 0.89325 3.40168 0
M  V30 5894 H 561.717 -0.834961 3.67843 0
M  V30 5895 H 564.104 -1.1225 2.72917 0
M  V30 5896 H 564.185 0.627389 2.47987 0
M  V30 5897 H 563.829 0.978128 4.98392 0
M  V30 5898 H 563.759 -0.788016 5.20671 0
M  V30 5899 H 566.25 -0.163226 3.77547 0
M  V30 5900 H 566.563 0.291999 7.72248 0
M  V30 5901 H 564.908 0.255658 6.9453 0
M  V30 5902 H 568.099 -0.117979 4.67951 0
M  V30 5903 H 568.272 0.0893796 6.47938 0
M  V30 5904 N 561.678 -1.56367 -0.196722 0
M  V30 5905 C 562.927 -1.79724 -0.915539 0
M  V30 5906 C 563.24 -0.649804 -1.84491 0
M  V30 5907 O 564.446 -0.767631 -2.60422 0
M  V30 5908 C 562.902 -3.18369 -1.67836 0
M  V30 5909 C 562.51 -4.4091 -0.793897 0
M  V30 5910 C 564.254 -3.51037 -2.38691 0
M  V30 5911 C 562.161 -5.70577 -1.55549 0
M  V30 5912 H 561.091 -0.67013 -0.345604 0
M  V30 5913 H 563.742 -1.82721 -0.168856 0
M  V30 5914 H 562.124 -3.09617 -2.46887 0
M  V30 5915 H 563.298 -4.60781 -0.042163 0
M  V30 5916 H 561.613 -4.15937 -0.19626 0
M  V30 5917 H 564.21 -4.4515 -2.96219 0
M  V30 5918 H 564.553 -2.74704 -3.12799 0
M  V30 5919 H 565.086 -3.61229 -1.66608 0
M  V30 5920 H 561.825 -6.49871 -0.857226 0
M  V30 5921 H 561.345 -5.54726 -2.2812 0
M  V30 5922 H 563.024 -6.11637 -2.10971 0
M  V30 5923 N 563.156 0.464375 -1.50603 0
M  V30 5924 C 564.433 1.22549 -1.5245 0
M  V30 5925 C 564.813 2.09327 -0.273035 0
M  V30 5926 O 564.161 2.16074 0.743242 0
M  V30 5927 C 564.371 2.05074 -2.82393 0
M  V30 5928 C 565.719 2.63036 -3.33313 0
M  V30 5929 O 566.743 2.1531 -2.8376 0
M  V30 5930 O 565.602 3.5001 -4.19709 0
M  V30 5931 H 562.696 0.556471 -0.611775 0
M  V30 5932 H 565.242 0.475648 -1.62898 0
M  V30 5933 H 564.014 1.41169 -3.64948 0
M  V30 5934 H 563.637 2.87179 -2.7498 0
M  V30 5935 N 564.634 1.40294 0.718013 0
M  V30 5936 C 565.566 1.36281 1.84283 0
M  V30 5937 C 566.579 0.268621 1.60569 0
M  V30 5938 O 567.768 0.528798 1.70487 0
M  V30 5939 C 564.868 1.09741 3.2064 0
M  V30 5940 C 564.041 2.30767 3.71571 0
M  V30 5941 C 563.1 2.00424 4.86535 0
M  V30 5942 O 562.126 2.73268 4.99313 0
M  V30 5943 N 563.328 0.980724 5.72156 0
M  V30 5944 H 566.093 2.3322 1.88225 0
M  V30 5945 H 563.654 1.34616 0.899453 0
M  V30 5946 H 565.646 0.874322 3.95143 0
M  V30 5947 H 564.216 0.214771 3.11861 0
M  V30 5948 H 563.436 2.68921 2.88228 0
M  V30 5949 H 564.724 3.11455 4.02335 0
M  V30 5950 H 564.122 0.377375 5.6444 0
M  V30 5951 H 562.679 0.817538 6.46653 0
M  V30 5952 N 566.112 -0.949982 1.2575 0
M  V30 5953 C 567.075 -2.02894 1.06615 0
M  V30 5954 C 568.075 -1.60791 0.0173905 0
M  V30 5955 O 569.265 -1.72249 0.260003 0
M  V30 5956 C 566.397 -3.35219 0.619751 0
M  V30 5957 H 567.59 -2.21302 2.02399 0
M  V30 5958 H 565.143 -1.12772 1.08223 0
M  V30 5959 H 565.878 -3.22508 -0.340486 0
M  V30 5960 H 565.663 -3.67129 1.37692 0
M  V30 5961 H 567.153 -4.14505 0.507443 0
M  V30 5962 N 567.59 -1.07411 -1.15328 0
M  V30 5963 C 568.837 -0.797649 -1.86128 0
M  V30 5964 C 569.165 0.676298 -1.82364 0
M  V30 5965 O 568.42 1.51223 -1.24218 0
M  V30 5966 C 568.719 -1.25191 -3.34757 0
M  V30 5967 C 568.385 -2.73191 -3.58716 0
M  V30 5968 C 567.047 -3.13616 -3.64964 0
M  V30 5969 C 569.399 -3.68718 -3.6837 0
M  V30 5970 C 566.727 -4.48383 -3.78377 0
M  V30 5971 C 569.079 -5.03248 -3.83306 0
M  V30 5972 C 567.743 -5.43293 -3.878 0
M  V30 5973 H 567.013 -0.29188 -0.681092 0
M  V30 5974 H 569.66 -1.34524 -1.36292 0
M  V30 5975 H 567.965 -0.623712 -3.86804 0
M  V30 5976 H 569.662 -1.01489 -3.87945 0
M  V30 5977 H 566.252 -2.40898 -3.54494 0
M  V30 5978 H 570.436 -3.38614 -3.62842 0
M  V30 5979 H 565.692 -4.78877 -3.80114 0
M  V30 5980 H 569.866 -5.77142 -3.89718 0
M  V30 5981 H 567.493 -6.47721 -3.97946 0
M  V30 5982 N 569.068 1.32177 -0.85831 0
M  V30 5983 C 570.314 1.97417 -0.46417 0
M  V30 5984 C 570.647 1.67746 0.978514 0
M  V30 5985 O 569.922 0.967654 1.68721 0
M  V30 5986 C 570.205 3.53069 -0.708094 0
M  V30 5987 C 570.058 3.92357 -2.19946 0
M  V30 5988 C 571.377 4.39783 -0.166881 0
M  V30 5989 H 568.496 0.717097 -0.17012 0
M  V30 5990 H 571.138 1.56499 -1.07741 0
M  V30 5991 H 569.288 3.88054 -0.186128 0
M  V30 5992 H 570.96 3.67533 -2.78779 0
M  V30 5993 H 569.203 3.41384 -2.67656 0
M  V30 5994 H 569.874 5.00841 -2.32082 0
M  V30 5995 H 572.35 4.11556 -0.613285 0
M  V30 5996 H 571.226 5.47671 -0.367093 0
M  V30 5997 H 571.487 4.32196 0.930559 0
M  V30 5998 N 570.547 0.616602 1.45037 0
M  V30 5999 C 571.477 -0.0840787 2.33349 0
M  V30 6000 C 572.458 -0.849641 1.4736 0
M  V30 6001 O 573.643 -0.818407 1.76113 0
M  V30 6002 C 570.773 -1.07604 3.3021 0
M  V30 6003 C 569.727 -0.423096 4.25904 0
M  V30 6004 C 569.053 -1.52394 5.12523 0
M  V30 6005 C 570.353 0.661457 5.18095 0
M  V30 6006 H 572.047 0.653333 2.92185 0
M  V30 6007 H 569.593 0.315634 1.40498 0
M  V30 6008 H 571.546 -1.57485 3.90866 0
M  V30 6009 H 570.27 -1.84416 2.69552 0
M  V30 6010 H 568.929 0.05493 3.66559 0
M  V30 6011 H 568.577 -2.28257 4.48227 0
M  V30 6012 H 568.277 -1.09251 5.77354 0
M  V30 6013 H 569.801 -2.02485 5.76049 0
M  V30 6014 H 571.215 0.246353 5.7277 0
M  V30 6015 H 569.612 1.01517 5.91451 0
M  V30 6016 H 570.682 1.53446 4.59981 0
M  V30 6017 N 572.025 -1.5352 0.356285 0
M  V30 6018 C 572.988 -2.24071 -0.482182 0
M  V30 6019 C 573.988 -1.24531 -1.01729 0
M  V30 6020 O 575.178 -1.48876 -0.904513 0
M  V30 6021 C 572.31 -2.97025 -1.67299 0
M  V30 6022 H 573.503 -2.99596 0.135031 0
M  V30 6023 H 571.056 -1.55928 0.107825 0
M  V30 6024 H 571.791 -2.25719 -2.32855 0
M  V30 6025 H 571.576 -3.7005 -1.29636 0
M  V30 6026 H 573.066 -3.50683 -2.26741 0
M  V30 6027 N 573.503 -0.0852151 -1.57369 0
M  V30 6028 C 574.919 0.271436 -1.57275 0
M  V30 6029 C 575.119 1.69109 -1.09565 0
M  V30 6030 O 574.175 2.40549 -0.767611 0
M  V30 6031 C 575.488 0.0688638 -3.00621 0
M  V30 6032 C 577.036 0.137373 -3.12698 0
M  V30 6033 C 577.511 -0.0370832 -4.57985 0
M  V30 6034 N 579.002 0.0180794 -4.63196 0
M  V30 6035 C 579.737 -0.0922953 -5.73326 0
M  V30 6036 N 579.233 -0.256948 -6.92323 0
M  V30 6037 N 581.026 -0.0342702 -5.6209 0
M  V30 6038 H 573.177 -1.01288 -1.86693 0
M  V30 6039 H 575.44 -0.396138 -0.861266 0
M  V30 6040 H 575.146 -0.911277 -3.39689 0
M  V30 6041 H 575.02 0.815442 -3.6828 0
M  V30 6042 H 577.407 1.10801 -2.73509 0
M  V30 6043 H 577.488 -0.640532 -2.47651 0
M  V30 6044 H 577.132 -1.00455 -4.97867 0
M  V30 6045 H 577.062 0.760392 -5.21081 0
M  V30 6046 H 579.553 0.143202 -3.77629 0
M  V30 6047 H 579.866 -0.332949 -7.72082 0
M  V30 6048 H 578.211 -0.292487 -6.94384 0
M  V30 6049 H 581.402 0.0931605 -4.68007 0
M  V30 6050 H 581.575 -0.12374 -6.47882 0
M  V30 6051 N 574.981 1.5647 0.188427 0
M  V30 6052 C 576.211 1.84863 0.922463 0
M  V30 6053 C 576.619 0.666413 1.77075 0
M  V30 6054 O 575.962 -0.374044 1.79852 0
M  V30 6055 C 576.024 3.07447 1.86324 0
M  V30 6056 C 575.688 4.41066 1.19625 0
M  V30 6057 C 576.685 5.16767 0.569946 0
M  V30 6058 C 574.37 4.87802 1.19811 0
M  V30 6059 C 576.364 6.37384 -0.045594 0
M  V30 6060 C 574.051 6.08353 0.57874 0
M  V30 6061 C 575.049 6.82987 -0.0420259 0
M  V30 6062 O 574.737 8.01254 -0.651675 0
M  V30 6063 H 574.469 0.61784 0.274316 0
M  V30 6064 H 577.023 2.04437 0.198613 0
M  V30 6065 H 575.253 2.83774 2.62696 0
M  V30 6066 H 576.942 3.2243 2.46564 0
M  V30 6067 H 577.708 4.81749 0.560601 0
M  V30 6068 H 573.587 4.29662 1.67069 0
M  V30 6069 H 577.131 6.95578 -0.530731 0
M  V30 6070 H 573.028 6.42838 0.58561 0
M  V30 6071 H 573.796 8.16655 -0.549236 0
M  V30 6072 N 576.459 -0.456382 1.50847 0
M  V30 6073 C 577.389 -1.56025 1.73719 0
M  V30 6074 C 578.37 -1.5967 0.586473 0
M  V30 6075 O 579.555 -1.75702 0.827185 0
M  V30 6076 C 576.685 -2.94251 1.84483 0
M  V30 6077 C 575.639 -3.05471 2.99786 0
M  V30 6078 C 574.965 -4.45489 2.95709 0
M  V30 6079 C 576.265 -2.81318 4.40065 0
M  V30 6080 H 577.959 -1.37138 2.66146 0
M  V30 6081 H 575.505 -0.658299 1.28072 0
M  V30 6082 H 577.458 -3.71417 1.99067 0
M  V30 6083 H 576.182 -3.14328 0.886891 0
M  V30 6084 H 574.841 -2.30741 2.84876 0
M  V30 6085 H 574.489 -4.62505 1.97732 0
M  V30 6086 H 574.189 -4.53929 3.73125 0
M  V30 6087 H 575.713 -5.24655 3.12362 0
M  V30 6088 H 577.127 -3.48226 4.55425 0
M  V30 6089 H 575.524 -3.01188 5.19043 0
M  V30 6090 H 576.594 -1.7706 4.51418 0
M  V30 6091 N 577.937 -1.40673 -0.710563 0
M  V30 6092 C 579.183 -1.39428 -1.47267 0
M  V30 6093 C 579.516 0.00182129 -1.942 0
M  V30 6094 O 578.791 0.971387 -1.68506 0
M  V30 6095 C 579.074 -2.38812 -2.6952 0
M  V30 6096 C 578.927 -3.87467 -2.28449 0
M  V30 6097 C 580.246 -2.3566 -3.71689 0
M  V30 6098 H 577.365 -0.507768 -0.534173 0
M  V30 6099 H 580.007 -1.71843 -0.810547 0
M  V30 6100 H 578.157 -2.113 -3.26013 0
M  V30 6101 H 579.829 -4.25825 -1.77399 0
M  V30 6102 H 578.072 -4.03058 -1.60395 0
M  V30 6103 H 578.743 -4.5253 -3.16103 0
M  V30 6104 H 581.219 -2.6004 -3.24836 0
M  V30 6105 H 580.095 -3.07237 -4.54859 0
M  V30 6106 H 580.356 -1.36996 -4.20339 0
M  V30 6107 N 579.415 0.9433 -1.26252 0
M  V30 6108 C 580.325 2.07532 -1.09397 0
M  V30 6109 C 581.341 1.73977 -0.0280449 0
M  V30 6110 O 582.517 2.00067 -0.231337 0
M  V30 6111 C 579.582 3.39002 -0.726523 0
M  V30 6112 C 578.643 3.86353 -1.87163 0
M  V30 6113 C 577.876 5.11549 -1.52162 0
M  V30 6114 O 578.099 5.68834 -0.422385 0
M  V30 6115 O 577.033 5.53889 -2.35565 0
M  V30 6116 H 580.859 2.24658 -2.04359 0
M  V30 6117 H 578.444 1.05988 -1.05295 0
M  V30 6118 H 580.326 4.18 -0.534236 0
M  V30 6119 H 579.001 3.2312 0.193721 0
M  V30 6120 H 577.908 3.0831 -2.11886 0
M  V30 6121 H 579.241 4.06752 -2.77152 0
M  V30 6122 N 580.893 1.08022 1.14757 0
M  V30 6123 C 581.803 0.718292 2.23333 0
M  V30 6124 C 582.819 -0.273477 1.71837 0
M  V30 6125 O 583.995 -0.118406 2.01052 0
M  V30 6126 C 581.06 0.128855 3.4646 0
M  V30 6127 C 580.121 1.17473 4.12915 0
M  V30 6128 C 579.354 0.61333 5.30164 0
M  V30 6129 O 579.577 -0.568458 5.6756 0
M  V30 6130 O 578.511 1.3615 5.86299 0
M  V30 6131 H 582.337 1.62394 2.56636 0
M  V30 6132 H 579.922 0.853628 1.22611 0
M  V30 6133 H 581.804 -0.197249 4.20938 0
M  V30 6134 H 580.479 -0.750014 3.14891 0
M  V30 6135 H 579.386 1.5533 3.40328 0
M  V30 6136 H 580.719 2.02574 4.48581 0
M  V30 6137 N 582.371 -1.3172 0.865308 0
M  V30 6138 C 583.304 -2.26687 0.262376 0
M  V30 6139 C 584.282 -1.50894 -0.605787 0
M  V30 6140 O 585.466 -1.79982 -0.56024 0
M  V30 6141 C 582.593 -3.3281 -0.628915 0
M  V30 6142 C 581.639 -4.26172 0.167278 0
M  V30 6143 S 582.472 -5.12797 1.54272 0
M  V30 6144 C 583.628 -6.22438 0.657427 0
M  V30 6145 H 583.861 -2.77478 1.0674 0
M  V30 6146 H 581.394 -1.39414 0.663555 0
M  V30 6147 H 583.352 -3.94426 -1.13747 0
M  V30 6148 H 582.013 -2.80782 -1.40785 0
M  V30 6149 H 581.206 -5.01392 -0.51203 0
M  V30 6150 H 580.808 -3.69029 0.607777 0
M  V30 6151 H 583.1 -6.77368 -0.133925 0
M  V30 6152 H 584.043 -6.9451 1.38061 0
M  V30 6153 H 584.451 -5.64043 0.227044 0
M  V30 6154 N 583.85 -0.624285 -1.44708 0
M  V30 6155 C 584.797 0.0847135 -2.30644 0
M  V30 6156 C 585.767 0.843575 -1.43084 0
M  V30 6157 O 586.952 0.825982 -1.71995 0
M  V30 6158 C 584.091 1.06495 -3.28257 0
M  V30 6159 C 583.205 0.305224 -4.3092 0
M  V30 6160 C 582.34 1.27667 -5.1563 0
M  V30 6161 C 581.379 0.505706 -6.10007 0
M  V30 6162 N 580.516 1.42727 -6.8744 0
M  V30 6163 H 585.356 -0.654068 -2.90733 0
M  V30 6164 H 582.893 -0.334334 -1.4325 0
M  V30 6165 H 584.851 1.64658 -3.83332 0
M  V30 6166 H 583.481 1.77094 -2.69884 0
M  V30 6167 H 582.533 -0.392207 -3.78373 0
M  V30 6168 H 583.845 -0.295553 -4.97924 0
M  V30 6169 H 582.999 1.92984 -5.75189 0
M  V30 6170 H 581.738 1.91137 -4.48685 0
M  V30 6171 H 580.743 -0.160999 -5.49564 0
M  V30 6172 H 581.968 -0.124183 -6.78986 0
M  V30 6173 H 579.913 2.04931 -6.23169 0
M  V30 6174 H 579.831 0.880345 -7.50857 0
M  V30 6175 H 581.099 2.0695 -7.51526 0
M  V30 6176 N 585.328 1.53329 -0.364422 0
M  V30 6177 C 586.275 2.25698 0.482607 0
M  V30 6178 C 587.245 1.26325 1.07848 0
M  V30 6179 O 588.43 1.55104 1.11119 0
M  V30 6180 C 585.57 3.04873 1.61699 0
M  V30 6181 C 584.683 4.19135 1.0464 0
M  V30 6182 C 583.818 4.85754 2.14979 0
M  V30 6183 C 582.857 5.9205 1.5538 0
M  V30 6184 N 581.994 6.52365 2.59547 0
M  V30 6185 H 586.834 2.97666 -0.141032 0
M  V30 6186 H 584.371 1.46875 -0.0813692 0
M  V30 6187 H 586.329 3.49051 2.28516 0
M  V30 6188 H 584.959 2.35162 2.2113 0
M  V30 6189 H 584.011 3.79451 0.268553 0
M  V30 6190 H 585.323 4.95525 0.570653 0
M  V30 6191 H 584.477 5.3311 2.89619 0
M  V30 6192 H 583.216 4.08834 2.65906 0
M  V30 6193 H 582.221 5.44058 0.792549 0
M  V30 6194 H 583.446 6.7089 1.0528 0
M  V30 6195 H 581.392 5.78298 3.09689 0
M  V30 6196 H 581.309 7.2429 2.16655 0
M  V30 6197 H 582.577 7.0437 3.33892 0
M  V30 6198 N 586.806 0.0935595 1.57322 0
M  V30 6199 C 588.222 -0.263091 1.57417 0
M  V30 6200 C 588.422 -1.68526 1.1046 0
M  V30 6201 O 587.478 -2.40139 0.780357 0
M  V30 6202 C 588.791 -0.0529201 3.00653 0
M  V30 6203 C 590.339 -0.120788 3.12767 0
M  V30 6204 C 590.814 0.0613707 4.57959 0
M  V30 6205 N 592.305 0.00648534 4.632 0
M  V30 6206 C 593.04 0.122699 5.73269 0
M  V30 6207 N 592.536 0.29366 6.92177 0
M  V30 6208 N 594.329 0.0640787 5.62063 0
M  V30 6209 H 586.48 1.02277 1.86154 0
M  V30 6210 H 588.743 0.4007 0.859153 0
M  V30 6211 H 588.449 0.929279 3.39201 0
M  V30 6212 H 588.323 -0.795899 3.68708 0
M  V30 6213 H 590.71 -1.09349 2.74093 0
M  V30 6214 H 590.791 0.653656 2.47307 0
M  V30 6215 H 590.435 1.03093 4.97327 0
M  V30 6216 H 590.365 -0.732748 5.21477 0
M  V30 6217 H 592.856 -0.123173 3.77699 0
M  V30 6218 H 593.169 0.37389 7.71895 0
M  V30 6219 H 591.514 0.329307 6.94219 0
M  V30 6220 H 594.705 -0.0683396 4.6805 0
M  V30 6221 H 594.878 0.158097 6.47807 0
M  V30 6222 N 588.284 -1.56567 -0.180126 0
M  V30 6223 C 589.194 -1.98947 -1.24327 0
M  V30 6224 C 590.21 -0.899446 -1.4895 0
M  V30 6225 O 591.386 -1.20639 -1.61271 0
M  V30 6226 C 588.451 -2.33328 -2.56435 0
M  V30 6227 C 587.512 -3.56114 -2.39752 0
M  V30 6228 C 586.745 -3.88845 -3.65561 0
M  V30 6229 O 586.968 -3.22662 -4.70368 0
M  V30 6230 O 585.902 -4.82226 -3.60197 0
M  V30 6231 H 589.728 -2.89634 -0.913565 0
M  V30 6232 H 587.313 -1.44319 -0.386306 0
M  V30 6233 H 589.195 -2.5645 -3.34382 0
M  V30 6234 H 587.87 -1.45806 -2.89002 0
M  V30 6235 H 586.777 -3.38221 -1.59866 0
M  V30 6236 H 588.11 -4.4415 -2.12113 0
M  V30 6237 N 589.762 0.448376 -1.51087 0
M  V30 6238 C 591.01 1.19635 -1.62886 0
M  V30 6239 C 591.331 1.91977 -0.342024 0
M  V30 6240 O 590.601 1.85094 0.641636 0
M  V30 6241 H 589.181 0.444598 -0.600285 0
M  V30 6242 H 591.843 0.515138 -1.87969 0
M  V30 6243 H 590.939 1.93194 -2.45117 0
M  V30 6244 N 591.24 1.41047 0.703093 0
M  V30 6245 C 592.487 1.4 1.46309 0
M  V30 6246 C 592.815 0.00654574 1.94499 0
M  V30 6247 O 592.07 -0.980255 1.6938 0
M  V30 6248 C 592.369 2.34686 2.6955 0
M  V30 6249 C 592.035 3.81684 2.40058 0
M  V30 6250 C 590.697 4.21731 2.31725 0
M  V30 6251 C 593.049 4.74525 2.15581 0
M  V30 6252 C 590.377 5.52637 1.97001 0
M  V30 6253 C 592.729 6.05744 1.82366 0
M  V30 6254 C 591.393 6.44819 1.72524 0
M  V30 6255 H 590.663 0.512295 0.535382 0
M  V30 6256 H 593.31 1.73792 0.804275 0
M  V30 6257 H 591.615 1.94122 3.40329 0
M  V30 6258 H 593.312 2.31152 3.27673 0
M  V30 6259 H 589.902 3.49963 2.47435 0
M  V30 6260 H 594.086 4.44395 2.20968 0
M  V30 6261 H 589.342 5.81802 1.87928 0
M  V30 6262 H 593.516 6.77189 1.62444 0
M  V30 6263 H 591.143 7.46168 1.45385 0
M  V30 6264 N 592.718 -0.936591 1.26751 0
M  V30 6265 C 593.628 -2.06949 1.10496 0
M  V30 6266 C 594.644 -1.7396 0.037271 0
M  V30 6267 O 595.82 -1.99941 0.241944 0
M  V30 6268 C 592.885 -3.38612 0.744491 0
M  V30 6269 C 591.946 -3.85355 1.89209 0
M  V30 6270 C 591.179 -5.10735 1.54873 0
M  V30 6271 O 591.402 -5.68602 0.452546 0
M  V30 6272 O 590.336 -5.52632 2.38499 0
M  V30 6273 H 594.162 -2.23571 2.05547 0
M  V30 6274 H 591.747 -1.05428 1.05855 0
M  V30 6275 H 593.629 -4.17711 0.556396 0
M  V30 6276 H 592.304 -3.23218 -0.176582 0
M  V30 6277 H 591.211 -3.07182 2.13518 0
M  V30 6278 H 592.544 -4.05277 2.79305 0
M  V30 6279 N 594.196 -1.08629 -1.14182 0
M  V30 6280 C 595.126 -0.740003 -2.21464 0
M  V30 6281 C 596.107 0.278591 -1.67803 0
M  V30 6282 O 597.292 0.148461 -1.93632 0
M  V30 6283 C 594.422 -0.150952 -3.46972 0
M  V30 6284 C 593.376 -1.09815 -4.13672 0
M  V30 6285 C 592.702 -0.3712 -5.3341 0
M  V30 6286 C 594.002 -2.43722 -4.61949 0
M  V30 6287 H 595.696 -1.63697 -2.50686 0
M  V30 6288 H 593.242 -0.788526 -1.20492 0
M  V30 6289 H 595.195 0.103325 -4.21273 0
M  V30 6290 H 593.919 0.781164 -3.1712 0
M  V30 6291 H 592.578 -1.33756 -3.41328 0
M  V30 6292 H 592.226 0.564792 -4.99819 0
M  V30 6293 H 591.926 -1.00267 -5.78982 0
M  V30 6294 H 593.45 -0.12503 -6.10472 0
M  V30 6295 H 594.864 -2.24034 -5.27714 0
M  V30 6296 H 593.261 -3.02582 -5.18232 0
M  V30 6297 H 594.331 -3.05082 -3.76899 0
M  V30 6298 N 595.674 1.31259 -0.872281 0
M  V30 6299 C 596.92 1.96913 -0.485083 0
M  V30 6300 C 597.253 1.68774 0.960667 0
M  V30 6301 O 596.528 0.985495 1.67685 0
M  V30 6302 C 596.811 3.52299 -0.745502 0
M  V30 6303 C 596.664 3.90002 -2.24095 0
M  V30 6304 C 597.983 4.39582 -0.213516 0
M  V30 6305 H 595.102 0.715252 -0.177716 0
M  V30 6306 H 597.744 1.55347 -1.09395 0
M  V30 6307 H 595.894 3.87835 -0.227276 0
M  V30 6308 H 597.566 3.64555 -2.82661 0
M  V30 6309 H 595.809 3.38526 -2.71261 0
M  V30 6310 H 596.48 4.98352 -2.37381 0
M  V30 6311 H 598.956 4.10882 -0.656902 0
M  V30 6312 H 597.832 5.47251 -0.42516 0
M  V30 6313 H 598.093 4.33158 0.884666 0
M  V30 6314 N 597.152 0.631951 1.44375 0
M  V30 6315 C 598.085 -0.121822 2.27875 0
M  V30 6316 C 599.063 -0.850457 1.38586 0
M  V30 6317 O 600.247 -0.854378 1.68026 0
M  V30 6318 C 597.374 -1.17859 3.17533 0
M  V30 6319 C 596.42 -0.550391 4.22934 0
M  V30 6320 S 597.253 0.660145 5.31415 0
M  V30 6321 C 598.409 -0.396613 6.24642 0
M  V30 6322 H 598.642 0.586537 2.91457 0
M  V30 6323 H 596.175 0.420146 1.48574 0
M  V30 6324 H 598.133 -1.78335 3.69739 0
M  V30 6325 H 596.794 -1.85915 2.53169 0
M  V30 6326 H 595.987 -1.34631 4.85685 0
M  V30 6327 H 595.589 -0.0202306 3.73995 0
M  V30 6328 H 597.881 -1.26893 6.65511 0
M  V30 6329 H 598.824 0.195345 7.0783 0
M  V30 6330 H 599.232 -0.72288 5.59852 0
M  V30 6331 N 598.631 -1.53133 0.372548 0
M  V30 6332 C 599.541 -2.29671 -0.478379 0
M  V30 6333 C 600.557 -1.35913 -1.08644 0
M  V30 6334 O 601.733 -1.68975 -1.09588 0
M  V30 6335 C 598.798 -3.07625 -1.599 0
M  V30 6336 C 597.859 -4.17061 -1.01776 0
M  V30 6337 C 597.092 -4.91289 -2.08497 0
M  V30 6338 O 597.315 -4.65442 -3.29727 0
M  V30 6339 O 596.249 -5.7705 -1.71164 0
M  V30 6340 H 600.075 -3.03355 0.144649 0
M  V30 6341 H 597.66 -1.48773 0.136729 0
M  V30 6342 H 599.542 -3.56281 -2.25038 0
M  V30 6343 H 598.217 -2.3677 -2.2073 0
M  V30 6344 H 597.124 -3.72641 -0.330098 0
M  V30 6345 H 598.457 -4.90102 -0.453915 0
M  V30 6346 N 600.109 -0.101901 -1.5727 0
M  V30 6347 C 601.52 0.426173 -1.81771 0
M  V30 6348 C 601.871 1.67725 -1.01797 0
M  V30 6349 O 600.996 2.14958 -0.249386 0
M  V30 6350 C 601.591 0.779962 -3.297 0
M  V30 6351 C 600.15 1.25275 -3.54941 0
M  V30 6352 C 599.297 0.252814 -2.76145 0
M  V30 6353 H 602.248 -0.32726 -1.55289 0
M  V30 6354 H 602.269 1.63891 -3.43395 0
M  V30 6355 H 601.781 -0.130778 -3.8788 0
M  V30 6356 H 599.882 2.18097 -3.021 0
M  V30 6357 H 599.995 1.20988 -4.63572 0
M  V30 6358 H 598.359 0.736362 -2.43823 0
M  V30 6359 H 599.142 -0.650724 -3.37076 0
M  V30 6360 N 601.587 1.56661 0.17182 0
M  V30 6361 C 602.497 1.99604 1.2327 0
M  V30 6362 C 603.513 0.907333 1.4847 0
M  V30 6363 O 604.689 1.21492 1.60629 0
M  V30 6364 C 601.754 2.34685 2.55194 0
M  V30 6365 C 600.815 3.57381 2.3786 0
M  V30 6366 C 600.048 3.90779 3.63494 0
M  V30 6367 O 600.271 3.25152 4.6865 0
M  V30 6368 O 599.205 4.84129 3.57634 0
M  V30 6369 H 603.031 2.90114 0.898192 0
M  V30 6370 H 600.616 1.44522 0.378647 0
M  V30 6371 H 602.498 2.5822 3.33017 0
M  V30 6372 H 601.173 1.47336 2.88225 0
M  V30 6373 H 600.08 3.39064 1.5807 0
M  V30 6374 H 601.413 4.45268 2.09754 0
M  V30 6375 N 603.065 -0.440357 1.51323 0
M  V30 6376 C 604.312 -1.19004 1.63842 0
M  V30 6377 C 604.64 -1.91266 0.35321 0
M  V30 6378 O 603.895 -1.84143 -0.662565 0
M  V30 6379 C 604.194 -2.2339 2.78984 0
M  V30 6380 C 603.86 -1.68162 4.18369 0
M  V30 6381 C 602.522 -1.52823 4.56288 0
M  V30 6382 C 604.874 -1.27524 5.05358 0
M  V30 6383 C 602.202 -0.953157 5.78906 0
M  V30 6384 C 604.554 -0.714474 6.28552 0
M  V30 6385 C 603.218 -0.547961 6.65247 0
M  V30 6386 H 602.488 -0.435468 0.59954 0
M  V30 6387 H 605.135 -0.481538 1.85347 0
M  V30 6388 H 603.44 -3.00267 2.51688 0
M  V30 6389 H 605.137 -2.81211 2.85869 0
M  V30 6390 H 601.727 -1.81077 3.8847 0
M  V30 6391 H 605.911 -1.38197 4.76671 0
M  V30 6392 H 601.167 -0.811882 6.05986 0
M  V30 6393 H 605.341 -0.391059 6.95301 0
M  V30 6394 H 602.968 -0.100222 7.60134 0
M  V30 6395 N 604.543 -1.41418 -0.695603 0
M  V30 6396 C 605.789 -1.40982 -1.4578 0
M  V30 6397 C 606.122 -0.0187763 -1.94191 0
M  V30 6398 O 605.397 0.95346 -1.69527 0
M  V30 6399 C 605.68 -2.41657 -2.66972 0
M  V30 6400 C 605.533 -3.89869 -2.24327 0
M  V30 6401 C 606.852 -2.39589 -3.69168 0
M  V30 6402 H 603.971 -0.513405 -0.528757 0
M  V30 6403 H 606.613 -1.72693 -0.792275 0
M  V30 6404 H 604.763 -2.14746 -3.23754 0
M  V30 6405 H 606.435 -4.27683 -1.72872 0
M  V30 6406 H 604.678 -4.04737 -1.56111 0
M  V30 6407 H 605.349 -4.55857 -3.11285 0
M  V30 6408 H 607.825 -2.63471 -3.2206 0
M  V30 6409 H 606.701 -3.12044 -4.51575 0
M  V30 6410 H 606.962 -1.41447 -4.18862 0
M  V30 6411 N 606.021 0.929856 -1.27246 0
M  V30 6412 C 606.969 2.05151 -1.09616 0
M  V30 6413 C 607.963 1.69388 -0.0198617 0
M  V30 6414 O 609.169 1.79124 -0.177417 0
M  V30 6415 H 605.544 0.671909 -0.337701 0
M  V30 6416 H 607.515 2.17168 -2.04648 0
M  V30 6417 C 606.264 3.3934 -0.757851 0
M  V30 6418 H 605.587 3.67343 -1.57795 0
M  V30 6419 H 607.027 4.18603 -0.674358 0
M  V30 6420 C 605.486 3.32582 0.537658 0
M  V30 6421 O 606.016 3.69633 1.57271 0
M  V30 6422 N 604.222 2.8568 0.532478 0
M  V30 6423 H 603.769 2.55725 -0.310233 0
M  V30 6424 H 603.727 2.81541 1.39936 0
M  V30 6425 N 607.499 1.09233 1.13605 0
M  V30 6426 C 608.745 0.828385 1.8511 0
M  V30 6427 C 609.078 -0.64437 1.83198 0
M  V30 6428 O 608.353 -1.47428 1.26867 0
M  V30 6429 C 608.636 1.36167 3.33363 0
M  V30 6430 C 608.489 2.90038 3.438 0
M  V30 6431 C 609.808 0.993819 4.28732 0
M  V30 6432 H 606.927 0.30239 0.672108 0
M  V30 6433 H 609.569 1.35339 1.33355 0
M  V30 6434 H 607.719 0.9151 3.77569 0
M  V30 6435 H 609.391 3.43128 3.08319 0
M  V30 6436 H 607.634 3.27271 2.84739 0
M  V30 6437 H 608.305 3.22428 4.48045 0
M  V30 6438 H 610.781 1.37893 3.92587 0
M  V30 6439 H 609.657 1.39403 5.30903 0
M  V30 6440 H 609.918 -0.0982206 4.41991 0
M  V30 6441 N 608.977 -1.30795 0.87923 0
M  V30 6442 C 610.217 -1.98155 0.50141 0
M  V30 6443 C 610.581 -1.67925 -0.930863 0
M  V30 6444 O 611.782 -2.28572 -1.41451 0
M  V30 6445 C 610.053 -3.49184 0.761937 0
M  V30 6446 S 611.612 -4.36107 0.485361 0
M  V30 6447 H 608.43 -0.686025 0.186792 0
M  V30 6448 H 611.032 -1.59018 1.13726 0
M  V30 6449 H 609.736 -3.68676 1.80295 0
M  V30 6450 H 609.267 -3.93236 0.113432 0
M  V30 6451 H 611.282 -4.9154 -0.678467 0
M  V30 6452 N 610.455 -0.639598 -1.44038 0
M  V30 6453 C 611.702 -0.14748 -2.01962 0
M  V30 6454 C 612.03 1.23372 -1.50365 0
M  V30 6455 O 611.285 1.8345 -0.681501 0
M  V30 6456 C 611.584 -0.0925348 -3.5728 0
M  V30 6457 C 611.25 -1.41365 -4.28167 0
M  V30 6458 C 609.912 -1.77545 -4.47248 0
M  V30 6459 C 612.264 -2.2853 -4.68427 0
M  V30 6460 C 609.592 -3.00583 -5.03852 0
M  V30 6461 C 611.944 -3.50846 -5.26393 0
M  V30 6462 C 610.608 -3.8724 -5.43692 0
M  V30 6463 H 609.878 -0.0539666 -0.739032 0
M  V30 6464 H 612.525 -0.827599 -1.72694 0
M  V30 6465 H 610.83 0.670987 -3.86012 0
M  V30 6466 H 612.527 0.304891 -3.99839 0
M  V30 6467 H 609.117 -1.1221 -4.13651 0
M  V30 6468 H 613.301 -2.0187 -4.5339 0
M  V30 6469 H 608.557 -3.28846 -5.15432 0
M  V30 6470 H 612.731 -4.18616 -5.56537 0
M  V30 6471 H 610.358 -4.8266 -5.87319 0
M  V30 6472 N 611.933 1.52934 -0.380664 0
M  V30 6473 C 613.179 2.02443 0.197089 0
M  V30 6474 C 613.534 1.26249 1.45186 0
M  V30 6475 O 612.827 0.351964 1.8834 0
M  V30 6476 C 613.021 3.5349 0.527199 0
M  V30 6477 C 612.85 4.44312 -0.694027 0
M  V30 6478 C 611.62 4.90582 -1.21068 0
M  V30 6479 C 613.818 4.8995 -1.56377 0
M  V30 6480 N 611.8 5.65451 -2.39036 0
M  V30 6481 C 613.171 5.63313 -2.58995 0
M  V30 6482 C 615.226 4.72002 -1.58488 0
M  V30 6483 C 613.929 6.20635 -3.63599 0
M  V30 6484 C 615.955 5.30201 -2.61995 0
M  V30 6485 C 615.317 6.03463 -3.63335 0
M  V30 6486 H 611.416 0.781241 0.0344357 0
M  V30 6487 H 614 1.87387 -0.528609 0
M  V30 6488 H 612.171 3.68677 1.22196 0
M  V30 6489 H 613.903 3.89707 1.09135 0
M  V30 6490 H 610.658 4.67249 -0.772995 0
M  V30 6491 H 611.082 6.07541 -2.98701 0
M  V30 6492 H 615.724 4.14873 -0.814891 0
M  V30 6493 H 613.442 6.76852 -4.41472 0
M  V30 6494 H 617.028 5.182 -2.645 0
M  V30 6495 H 615.908 6.47693 -4.42113 0
M  V30 6496 N 613.412 0.11024 1.57214 0
M  V30 6497 C 614.659 -0.54987 1.94891 0
M  V30 6498 C 614.987 -1.67243 0.992984 0
M  V30 6499 O 614.242 -1.95694 0.0152703 0
M  V30 6500 C 614.541 -1.13102 3.39032 0
M  V30 6501 C 614.207 -0.130713 4.5071 0
M  V30 6502 C 612.869 0.14437 4.80983 0
M  V30 6503 C 615.221 0.551472 5.18274 0
M  V30 6504 C 612.549 1.10807 5.76141 0
M  V30 6505 C 614.901 1.50375 6.14467 0
M  V30 6506 C 613.565 1.78691 6.43138 0
M  V30 6507 H 612.835 -0.201212 0.713158 0
M  V30 6508 H 615.482 0.189288 1.90562 0
M  V30 6509 H 613.787 -1.94675 3.40013 0
M  V30 6510 H 615.484 -1.64973 3.65493 0
M  V30 6511 H 612.074 -0.355301 4.27125 0
M  V30 6512 H 616.258 0.35211 4.95049 0
M  V30 6513 H 611.514 1.3343 5.96663 0
M  V30 6514 H 615.688 2.03808 6.65909 0
M  V30 6515 H 613.315 2.53522 7.1668 0
M  V30 6516 N 614.89 -1.56749 -0.16351 0
M  V30 6517 C 616.136 -1.82704 -0.880168 0
M  V30 6518 C 616.469 -0.689311 -1.81555 0
M  V30 6519 O 615.744 0.308224 -1.92042 0
M  V30 6520 C 616.027 -3.19084 -1.66905 0
M  V30 6521 C 615.88 -4.43397 -0.756269 0
M  V30 6522 C 617.199 -3.52493 -2.63509 0
M  V30 6523 H 614.318 -0.664608 -0.318535 0
M  V30 6524 H 616.96 -1.89438 -0.146036 0
M  V30 6525 H 615.11 -3.13475 -2.2949 0
M  V30 6526 H 616.782 -4.61079 -0.14269 0
M  V30 6527 H 615.025 -4.33752 -0.0647944 0
M  V30 6528 H 615.696 -5.3539 -1.34393 0
M  V30 6529 H 618.172 -3.58606 -2.11047 0
M  V30 6530 H 617.048 -4.48979 -3.15767 0
M  V30 6531 H 617.309 -2.77597 -3.44082 0
M  V30 6532 N 616.368 0.432326 -1.51554 0
M  V30 6533 C 617.779 1.01202 -1.56892 0
M  V30 6534 C 618.13 1.92175 -0.395394 0
M  V30 6535 O 617.255 2.10844 0.487198 0
M  V30 6536 C 617.85 1.84217 -2.8434 0
M  V30 6537 C 616.409 2.37228 -2.92233 0
M  V30 6538 C 615.556 1.16576 -2.51606 0
M  V30 6539 H 618.507 0.213407 -1.57259 0
M  V30 6540 H 618.528 2.69721 -2.68385 0
M  V30 6541 H 618.04 1.17979 -3.69733 0
M  V30 6542 H 616.141 3.06905 -2.11282 0
M  V30 6543 H 616.254 2.69682 -3.95991 0
M  V30 6544 H 614.618 1.51263 -2.04919 0
M  V30 6545 H 615.401 0.519404 -3.39348 0
M  V30 6546 N 617.846 1.41785 0.688094 0
M  V30 6547 C 619.257 1.3701 1.26828 0
M  V30 6548 C 619.608 0.056835 1.96118 0
M  V30 6549 O 618.733 -0.84475 1.99231 0
M  V30 6550 C 619.328 2.48168 2.30648 0
M  V30 6551 C 617.887 2.46766 2.84224 0
M  V30 6552 C 617.034 2.27633 1.58361 0
M  V30 6553 H 619.985 1.51192 0.482351 0
M  V30 6554 H 620.006 2.17655 3.121 0
M  V30 6555 H 619.518 3.43735 1.80188 0
M  V30 6556 H 617.619 1.54978 3.3884 0
M  V30 6557 H 617.732 3.43342 3.34145 0
M  V30 6558 H 616.096 1.75648 1.84445 0
M  V30 6559 H 616.879 3.25238 1.09887 0
M  V30 6560 N 619.324 -0.923095 1.27737 0
M  V30 6561 C 620.549 -1.71054 1.17283 0
M  V30 6562 C 620.974 -1.86208 -0.266153 0
M  V30 6563 O 620.332 -1.36545 -1.1927 0
M  V30 6564 C 620.38 -3.0854 1.86642 0
M  V30 6565 O 619.484 -3.95528 1.16752 0
M  V30 6566 H 618.825 -0.524136 0.407649 0
M  V30 6567 H 621.355 -1.15487 1.6889 0
M  V30 6568 H 621.365 -3.58828 1.94182 0
M  V30 6569 H 620.04 -2.96828 2.91317 0
M  V30 6570 H 618.617 -3.53967 1.17312 0
M  V30 6571 N 620.802 -1.09834 -1.13024 0
M  V30 6572 C 621.732 -0.763451 -2.20666 0
M  V30 6573 C 622.713 0.260778 -1.68089 0
M  V30 6574 O 623.898 0.127915 -1.93778 0
M  V30 6575 C 621.028 -0.187744 -3.46792 0
M  V30 6576 C 619.982 -1.14196 -4.12484 0
M  V30 6577 C 619.308 -0.427755 -5.32986 0
M  V30 6578 C 620.608 -2.48607 -4.59338 0
M  V30 6579 H 622.302 -1.66347 -2.48936 0
M  V30 6580 H 619.848 -0.801261 -1.19649 0
M  V30 6581 H 621.801 0.0586375 -4.21359 0
M  V30 6582 H 620.525 0.747485 -3.17931 0
M  V30 6583 H 619.184 -1.37369 -3.3989 0
M  V30 6584 H 618.832 0.511747 -5.0039 0
M  V30 6585 H 618.532 -1.06403 -5.77886 0
M  V30 6586 H 620.056 -0.189772 -6.10305 0
M  V30 6587 H 621.47 -2.29618 -5.25308 0
M  V30 6588 H 619.867 -3.08062 -5.14993 0
M  V30 6589 H 620.937 -3.09062 -3.73642 0
M  V30 6590 N 622.28 1.30327 -0.886154 0
M  V30 6591 C 623.696 1.48676 -0.580323 0
M  V30 6592 C 623.896 1.81189 0.881639 0
M  V30 6593 O 622.952 1.90021 1.66278 0
M  V30 6594 C 624.265 2.60932 -1.49449 0
M  V30 6595 C 625.813 2.74812 -1.49824 0
M  V30 6596 C 626.288 3.90183 -2.39836 0
M  V30 6597 N 627.779 3.97495 -2.37806 0
M  V30 6598 C 628.514 4.86078 -3.04165 0
M  V30 6599 N 628.01 5.79448 -3.79753 0
M  V30 6600 N 629.803 4.79456 -2.93391 0
M  V30 6601 H 621.954 1.07495 -1.8319 0
M  V30 6602 H 624.217 0.532661 -0.784204 0
M  V30 6603 H 623.923 2.43731 -2.5355 0
M  V30 6604 H 623.797 3.57437 -1.20494 0
M  V30 6605 H 626.184 2.91418 -0.464731 0
M  V30 6606 H 626.265 1.78924 -1.82811 0
M  V30 6607 H 625.909 3.74334 -3.43273 0
M  V30 6608 H 625.839 4.85411 -2.04166 0
M  V30 6609 H 628.33 3.30703 -1.82877 0
M  V30 6610 H 628.643 6.43805 -4.27475 0
M  V30 6611 H 626.988 5.79376 -3.8386 0
M  V30 6612 H 630.179 4.05494 -2.33864 0
M  V30 6613 H 630.352 5.48283 -3.45383 0
M  V30 6614 N 623.758 0.647228 1.43697 0
M  V30 6615 C 625.006 0.157876 2.01482 0
M  V30 6616 C 625.327 -1.23039 1.51282 0
M  V30 6617 O 624.597 -1.82071 0.722982 0
M  V30 6618 H 623.177 0.0553745 0.744945 0
M  V30 6619 H 625.839 0.83755 1.75986 0
M  V30 6620 H 624.935 0.137895 3.11795 0
M  V30 6621 N 625.236 -1.5273 0.388769 0
M  V30 6622 C 626.183 -2.26437 -0.446639 0
M  V30 6623 C 627.153 -1.28025 -1.05824 0
M  V30 6624 O 628.338 -1.56852 -1.08637 0
M  V30 6625 C 625.478 -3.07407 -1.56828 0
M  V30 6626 C 624.591 -4.20747 -0.979589 0
M  V30 6627 C 623.726 -4.89113 -2.07224 0
M  V30 6628 C 622.765 -5.94447 -1.45942 0
M  V30 6629 N 621.902 -6.56411 -2.49135 0
M  V30 6630 H 626.742 -2.97404 0.18837 0
M  V30 6631 H 624.279 -1.46727 0.104725 0
M  V30 6632 H 626.237 -3.52642 -2.22934 0
M  V30 6633 H 624.867 -2.3865 -2.17361 0
M  V30 6634 H 623.919 -3.7983 -0.208151 0
M  V30 6635 H 625.231 -4.9637 -0.491747 0
M  V30 6636 H 624.385 -5.3765 -2.81101 0
M  V30 6637 H 623.124 -4.13013 -2.59368 0
M  V30 6638 H 622.129 -5.4525 -0.705894 0
M  V30 6639 H 623.354 -6.7248 -0.945932 0
M  V30 6640 H 621.3 -5.83152 -3.00449 0
M  V30 6641 H 621.217 -7.27645 -2.05105 0
M  V30 6642 H 622.485 -7.09592 -3.22644 0
M  V30 6643 N 626.714 -0.118576 -1.57153 0
M  V30 6644 C 627.646 0.862247 -2.12363 0
M  V30 6645 C 628.659 1.23025 -1.06625 0
M  V30 6646 O 629.848 1.17927 -1.33998 0
M  V30 6647 C 626.948 2.16425 -2.60794 0
M  V30 6648 C 626.121 1.96801 -3.90626 0
M  V30 6649 C 625.18 3.10726 -4.2466 0
M  V30 6650 O 624.206 2.83659 -4.93484 0
M  V30 6651 N 625.408 4.37147 -3.81946 0
M  V30 6652 H 628.173 0.390564 -2.97144 0
M  V30 6653 H 625.734 0.0658591 -1.61766 0
M  V30 6654 H 627.726 2.91633 -2.80593 0
M  V30 6655 H 626.296 2.54943 -1.80895 0
M  V30 6656 H 625.516 1.05787 -3.7974 0
M  V30 6657 H 626.804 1.80993 -4.7552 0
M  V30 6658 H 626.202 4.62014 -3.26435 0
M  V30 6659 H 624.759 5.09229 -4.06853 0
M  V30 6660 N 628.193 1.56834 0.155195 0
M  V30 6661 C 629.103 2.009 1.21146 0
M  V30 6662 C 630.119 0.923029 1.475 0
M  V30 6663 O 631.295 1.23189 1.59331 0
M  V30 6664 C 628.36 2.37378 2.52691 0
M  V30 6665 C 627.421 3.59883 2.34057 0
M  V30 6666 C 626.654 3.94612 3.59329 0
M  V30 6667 O 626.877 3.30104 4.65175 0
M  V30 6668 O 625.811 4.87895 3.52479 0
M  V30 6669 H 629.637 2.9105 0.867371 0
M  V30 6670 H 627.222 1.44916 0.363298 0
M  V30 6671 H 629.104 2.61737 3.3026 0
M  V30 6672 H 627.779 1.50385 2.86646 0
M  V30 6673 H 626.686 3.40722 1.54465 0
M  V30 6674 H 628.019 4.47468 2.0502 0
M  V30 6675 N 629.671 -0.424282 1.51781 0
M  V30 6676 C 630.896 -1.19928 1.6921 0
M  V30 6677 C 631.321 -1.8392 0.394355 0
M  V30 6678 O 630.679 -1.69371 -0.646778 0
M  V30 6679 C 630.727 -2.24937 2.81843 0
M  V30 6680 O 629.831 -3.3073 2.46356 0
M  V30 6681 H 629.172 -0.35078 0.563781 0
M  V30 6682 H 631.702 -0.499401 1.98412 0
M  V30 6683 H 631.712 -2.69512 3.06312 0
M  V30 6684 H 630.387 -1.77742 3.76006 0
M  V30 6685 H 628.964 -2.9154 2.32505 0
M  V30 6686 N 631.149 -1.42148 -0.680565 0
M  V30 6687 C 632.56 -1.3768 -1.26099 0
M  V30 6688 C 632.911 -0.0672348 -1.96085 0
M  V30 6689 O 632.036 0.834172 -1.99676 0
M  V30 6690 C 632.631 -2.49387 -2.29328 0
M  V30 6691 C 631.19 -2.4827 -2.82911 0
M  V30 6692 C 630.337 -2.2847 -1.57152 0
M  V30 6693 H 633.288 -1.51446 -0.474326 0
M  V30 6694 H 633.309 -2.19307 -3.10941 0
M  V30 6695 H 632.821 -3.44686 -1.78363 0
M  V30 6696 H 630.922 -1.56773 -3.38013 0
M  V30 6697 H 631.035 -3.45109 -3.3232 0
M  V30 6698 H 629.399 -1.76623 -1.83511 0
M  V30 6699 H 630.182 -3.25816 -1.0816 0
M  V30 6700 N 632.627 0.916307 -1.28225 0
M  V30 6701 C 633.904 1.64429 -1.05936 0
M  V30 6702 C 634.284 2.07234 0.402139 0
M  V30 6703 O 633.632 1.81535 1.3877 0
M  V30 6704 C 633.842 2.83773 -2.03159 0
M  V30 6705 C 635.19 3.54852 -2.33164 0
M  V30 6706 O 636.214 2.93918 -2.01223 0
M  V30 6707 O 635.073 4.64663 -2.87664 0
M  V30 6708 H 632.167 0.721221 -0.404683 0
M  V30 6709 H 634.713 0.965838 -1.39534 0
M  V30 6710 H 633.485 2.49217 -3.01673 0
M  V30 6711 H 633.108 3.59333 -1.70192 0
M  V30 6712 N 634.105 1.10431 1.1244 0
M  V30 6713 C 635.335 0.867612 1.87499 0
M  V30 6714 C 635.743 -0.585475 1.79913 0
M  V30 6715 O 635.086 -1.41539 1.171 0
M  V30 6716 C 635.148 1.2374 3.37533 0
M  V30 6717 C 634.812 2.69751 3.68895 0
M  V30 6718 C 635.809 3.67988 3.67261 0
M  V30 6719 C 633.494 3.06135 3.98229 0
M  V30 6720 C 635.488 5.00632 3.9452 0
M  V30 6721 C 633.175 4.38967 4.25149 0
M  V30 6722 C 634.173 5.36025 4.23281 0
M  V30 6723 O 633.861 6.66465 4.49533 0
M  V30 6724 H 633.593 0.311196 0.600111 0
M  V30 6725 H 636.147 1.47257 1.43194 0
M  V30 6726 H 634.377 0.575537 3.82393 0
M  V30 6727 H 636.066 0.978187 3.93937 0
M  V30 6728 H 636.832 3.41224 3.44661 0
M  V30 6729 H 632.711 2.31214 3.98825 0
M  V30 6730 H 636.255 5.7638 3.92978 0
M  V30 6731 H 632.152 4.6547 4.47223 0
M  V30 6732 H 632.92 6.72095 4.67152 0
M  V30 6733 N 635.583 -1.29855 0.893053 0
M  V30 6734 C 636.533 -2.25493 0.337211 0
M  V30 6735 C 637.517 -1.51606 -0.53894 0
M  V30 6736 O 638.709 -1.72828 -0.382043 0
M  V30 6737 C 635.838 -3.40467 -0.440117 0
M  V30 6738 C 634.924 -4.217 0.450578 0
M  V30 6739 N 635.315 -4.81312 1.55476 0
M  V30 6740 C 633.613 -4.45315 0.247154 0
M  V30 6741 C 634.314 -5.42241 2.10593 0
M  V30 6742 N 633.29 -5.25267 1.39982 0
M  V30 6743 H 637.092 -2.69137 1.18079 0
M  V30 6744 H 634.606 -1.44388 0.743359 0
M  V30 6745 H 636.603 -4.08038 -0.855021 0
M  V30 6746 H 635.263 -2.98361 -1.28104 0
M  V30 6747 H 636.274 -4.80291 1.93755 0
M  V30 6748 H 632.951 -4.13782 -0.555939 0
M  V30 6749 H 634.341 -5.99517 3.03362 0
M  V30 6750 N 637.061 -0.65484 -1.43351 0
M  V30 6751 C 637.971 0.0363603 -2.34572 0
M  V30 6752 C 638.987 0.810432 -1.53974 0
M  V30 6753 O 640.163 0.757308 -1.86619 0
M  V30 6754 C 637.228 0.989733 -3.32273 0
M  V30 6755 C 636.289 0.212414 -4.28774 0
M  V30 6756 C 635.522 1.12038 -5.21808 0
M  V30 6757 O 635.745 2.35967 -5.19303 0
M  V30 6758 O 634.679 0.59191 -5.98982 0
M  V30 6759 H 638.505 -0.714527 -2.95175 0
M  V30 6760 H 636.09 -0.415029 -1.4352 0
M  V30 6761 H 637.972 1.53759 -3.92347 0
M  V30 6762 H 636.647 1.72082 -2.74171 0
M  V30 6763 H 635.554 -0.379062 -3.72175 0
M  V30 6764 H 636.887 -0.479138 -4.89862 0
M  V30 6765 N 638.539 1.52521 -0.396863 0
M  V30 6766 C 639.955 1.5953 -0.0471659 0
M  V30 6767 C 640.155 1.41044 1.43906 0
M  V30 6768 O 639.211 1.23122 2.20448 0
M  V30 6769 C 640.524 2.95972 -0.531113 0
M  V30 6770 C 642.072 3.09172 -0.488024 0
M  V30 6771 C 642.547 4.48075 -0.948281 0
M  V30 6772 N 644.038 4.54281 -0.9046 0
M  V30 6773 C 644.773 5.60007 -1.23205 0
M  V30 6774 N 644.269 6.73343 -1.63036 0
M  V30 6775 N 646.062 5.50151 -1.15282 0
M  V30 6776 H 638.213 1.62786 -1.36435 0
M  V30 6777 H 640.476 0.76514 -0.559701 0
M  V30 6778 H 640.182 3.14741 -1.56942 0
M  V30 6779 H 640.056 3.77143 0.0657922 0
M  V30 6780 H 642.443 2.90095 0.541211 0
M  V30 6781 H 642.524 2.29937 -1.12083 0
M  V30 6782 H 642.168 4.67894 -1.97578 0
M  V30 6783 H 642.098 5.25788 -0.292412 0
M  V30 6784 H 644.589 3.72918 -0.6116 0
M  V30 6785 H 644.902 7.49992 -1.86365 0
M  V30 6786 H 643.247 6.74655 -1.66929 0
M  V30 6787 H 646.438 4.6049 -0.840602 0
M  V30 6788 H 646.611 6.32444 -1.41133 0
M  V30 6789 N 640.017 0.126909 1.57088 0
M  V30 6790 C 640.947 -0.816847 2.18746 0
M  V30 6791 C 641.928 -1.27161 1.12979 0
M  V30 6792 O 643.113 -1.33279 1.41246 0
M  V30 6793 C 640.243 -2.06398 2.79315 0
M  V30 6794 C 639.197 -1.74673 3.90735 0
M  V30 6795 C 638.523 -3.06482 4.38147 0
M  V30 6796 C 639.823 -1.0089 5.12463 0
M  V30 6797 H 641.517 -0.303032 2.97863 0
M  V30 6798 H 639.063 -0.144314 1.43275 0
M  V30 6799 H 641.016 -2.72885 3.2111 0
M  V30 6800 H 639.74 -2.60118 1.975 0
M  V30 6801 H 638.399 -1.10572 3.49527 0
M  V30 6802 H 638.047 -3.58152 3.5318 0
M  V30 6803 H 637.747 -2.86025 5.13287 0
M  V30 6804 H 639.271 -3.74073 4.82599 0
M  V30 6805 H 640.685 -1.57546 5.51228 0
M  V30 6806 H 639.082 -0.905006 5.93237 0
M  V30 6807 H 640.152 0.00297335 4.849 0
M  V30 6808 N 641.495 -1.56914 -0.146875 0
M  V30 6809 C 642.72 -1.87881 -0.878386 0
M  V30 6810 C 643.145 -0.715945 -1.73942 0
M  V30 6811 O 642.503 0.334447 -1.78189 0
M  V30 6812 C 642.551 -3.17431 -1.71084 0
M  V30 6813 O 641.655 -3.01374 -2.81509 0
M  V30 6814 H 640.996 -0.617289 -0.244644 0
M  V30 6815 H 643.526 -2.04136 -0.137654 0
M  V30 6816 H 643.536 -3.49455 -2.10582 0
M  V30 6817 H 642.211 -4.01671 -1.07856 0
M  V30 6818 H 640.788 -2.80758 -2.45416 0
M  V30 6819 N 642.974 0.416227 -1.52004 0
M  V30 6820 C 643.921 1.50666 -1.74838 0
M  V30 6821 C 644.891 1.55245 -0.590599 0
M  V30 6822 O 646.076 1.71928 -0.827374 0
M  V30 6823 C 643.216 2.88185 -1.89851 0
M  V30 6824 C 642.329 2.92971 -3.17478 0
M  V30 6825 C 641.464 4.21745 -3.22962 0
M  V30 6826 C 640.503 4.20478 -4.4482 0
M  V30 6827 N 639.64 5.40811 -4.47736 0
M  V30 6828 H 644.48 1.30498 -2.67907 0
M  V30 6829 H 642.017 0.633568 -1.32757 0
M  V30 6830 H 643.975 3.68007 -1.96537 0
M  V30 6831 H 642.605 3.06865 -1.00169 0
M  V30 6832 H 641.657 2.05684 -3.19997 0
M  V30 6833 H 642.969 2.87899 -4.07328 0
M  V30 6834 H 642.123 5.09954 -3.28682 0
M  V30 6835 H 640.862 4.29503 -2.31038 0
M  V30 6836 H 639.867 3.30659 -4.39254 0
M  V30 6837 H 641.092 4.14366 -5.38031 0
M  V30 6838 H 639.038 5.4925 -3.58692 0
M  V30 6839 H 638.955 5.37705 -5.31422 0
M  V30 6840 H 640.223 6.30993 -4.57676 0
M  V30 6841 N 644.452 1.42507 0.673017 0
M  V30 6842 C 645.698 1.43284 1.43519 0
M  V30 6843 C 646.031 0.049668 1.94136 0
M  V30 6844 O 645.306 -0.926369 1.71022 0
M  V30 6845 C 645.589 2.45874 2.63093 0
M  V30 6846 C 645.442 3.93388 2.18096 0
M  V30 6847 C 646.761 2.45431 3.6531 0
M  V30 6848 H 643.88 0.521752 0.520522 0
M  V30 6849 H 646.522 1.73932 0.764701 0
M  V30 6850 H 644.672 2.19869 3.20296 0
M  V30 6851 H 646.344 4.30379 1.66046 0
M  V30 6852 H 644.587 4.07169 1.49652 0
M  V30 6853 H 645.258 4.60752 3.03993 0
M  V30 6854 H 647.734 2.68561 3.17827 0
M  V30 6855 H 646.61 3.19189 4.46553 0
M  V30 6856 H 646.871 1.48092 4.16559 0
M  V30 6857 N 645.93 -0.909495 1.28709 0
M  V30 6858 C 646.893 -1.99399 1.13016 0
M  V30 6859 C 647.893 -1.60654 0.068536 0
M  V30 6860 O 649.083 -1.71334 0.314671 0
M  V30 6861 C 646.215 -3.33078 0.726085 0
M  V30 6862 H 647.408 -2.14751 2.09338 0
M  V30 6863 H 644.961 -1.09272 1.11756 0
M  V30 6864 H 645.696 -3.23428 -0.23771 0
M  V30 6865 H 645.481 -3.62562 1.49302 0
M  V30 6866 H 646.971 -4.12681 0.639058 0
M  V30 6867 N 647.408 -1.11026 -1.11852 0
M  V30 6868 C 648.819 -0.873203 -1.65021 0
M  V30 6869 C 649.17 0.595364 -1.86949 0
M  V30 6870 O 648.295 1.45645 -1.60051 0
M  V30 6871 C 648.89 -1.57859 -2.99777 0
M  V30 6872 C 647.449 -1.38807 -3.49871 0
M  V30 6873 C 646.596 -1.62403 -2.24768 0
M  V30 6874 H 649.547 -1.26712 -0.955503 0
M  V30 6875 H 649.568 -1.02111 -3.66543 0
M  V30 6876 H 649.08 -2.6474 -2.83786 0
M  V30 6877 H 647.181 -0.341163 -3.71035 0
M  V30 6878 H 647.294 -2.13421 -4.28938 0
M  V30 6879 H 645.658 -1.04714 -2.32179 0
M  V30 6880 H 646.441 -2.70549 -2.11324 0
M  V30 6881 N 648.886 1.2938 -0.899927 0
M  V30 6882 C 650.132 1.9584 -0.526742 0
M  V30 6883 C 650.465 1.70774 0.924651 0
M  V30 6884 O 649.74 1.02084 1.65557 0
M  V30 6885 C 650.023 3.50638 -0.820062 0
M  V30 6886 C 649.876 3.85161 -2.32317 0
M  V30 6887 C 651.195 4.3903 -0.30671 0
M  V30 6888 H 648.314 0.711322 -0.192848 0
M  V30 6889 H 650.956 1.52992 -1.12665 0
M  V30 6890 H 649.106 3.87265 -0.309491 0
M  V30 6891 H 650.778 3.58477 -2.9033 0
M  V30 6892 H 649.021 3.32696 -2.78381 0
M  V30 6893 H 649.692 4.93204 -2.47898 0
M  V30 6894 H 652.168 4.09396 -0.743908 0
M  V30 6895 H 651.044 5.46226 -0.541144 0
M  V30 6896 H 651.305 4.34937 0.792588 0
M  V30 6897 N 650.364 0.662433 1.43002 0
M  V30 6898 C 651.294 -0.00979809 2.33498 0
M  V30 6899 C 652.275 -0.802329 1.49989 0
M  V30 6900 O 653.46 -0.761964 1.78627 0
M  V30 6901 C 650.59 -0.970446 3.33466 0
M  V30 6902 C 649.544 -0.287383 4.27034 0
M  V30 6903 C 648.87 -1.36012 5.17112 0
M  V30 6904 C 650.17 0.82595 5.15728 0
M  V30 6905 H 651.864 0.745959 2.89958 0
M  V30 6906 H 649.41 0.360172 1.39423 0
M  V30 6907 H 651.363 -1.44971 3.95679 0
M  V30 6908 H 650.087 -1.75748 2.75282 0
M  V30 6909 H 648.746 0.17152 3.66199 0
M  V30 6910 H 648.394 -2.13882 4.55262 0
M  V30 6911 H 648.094 -0.908276 5.80538 0
M  V30 6912 H 649.618 -1.84056 5.82199 0
M  V30 6913 H 651.032 0.42845 5.71697 0
M  V30 6914 H 649.429 1.20282 5.87922 0
M  V30 6915 H 650.499 1.68003 4.54866 0
M  V30 6916 N 651.842 -1.52309 0.404946 0
M  V30 6917 C 652.789 -2.26898 -0.422597 0
M  V30 6918 C 653.759 -1.2914 -1.04461 0
M  V30 6919 O 654.944 -1.57996 -1.06967 0
M  V30 6920 C 652.084 -3.09053 -1.53559 0
M  V30 6921 C 651.197 -4.21762 -0.934908 0
M  V30 6922 C 650.332 -4.91283 -2.02025 0
M  V30 6923 C 649.371 -5.95962 -1.39628 0
M  V30 6924 N 648.508 -6.59017 -2.42159 0
M  V30 6925 H 653.348 -2.97188 0.219903 0
M  V30 6926 H 650.885 -1.46607 0.120282 0
M  V30 6927 H 652.843 -3.54987 -2.19181 0
M  V30 6928 H 651.473 -2.40942 -2.14818 0
M  V30 6929 H 650.525 -3.80029 -0.167854 0
M  V30 6930 H 651.837 -4.96864 -0.439073 0
M  V30 6931 H 650.991 -5.40601 -2.75383 0
M  V30 6932 H 649.73 -4.15741 -2.54973 0
M  V30 6933 H 648.735 -5.45968 -0.648023 0
M  V30 6934 H 649.96 -6.73445 -0.874553 0
M  V30 6935 H 647.906 -5.86306 -2.94247 0
M  V30 6936 H 647.823 -7.2978 -1.97376 0
M  V30 6937 H 649.091 -7.12974 -3.15099 0
M  V30 6938 N 653.32 -0.135238 -1.57019 0
M  V30 6939 C 654.23 0.822226 -2.19719 0
M  V30 6940 C 655.246 1.28057 -1.17802 0
M  V30 6941 O 656.422 1.3402 -1.50335 0
M  V30 6942 C 653.487 2.0484 -2.79717 0
M  V30 6943 C 652.548 1.64042 -3.96723 0
M  V30 6944 C 651.781 2.80814 -4.53849 0
M  V30 6945 O 652.004 3.967 -4.0986 0
M  V30 6946 O 650.938 2.56963 -5.44292 0
M  V30 6947 H 654.764 0.318552 -3.02025 0
M  V30 6948 H 652.349 0.0912021 -1.49121 0
M  V30 6949 H 654.231 2.76622 -3.17897 0
M  V30 6950 H 652.906 2.54182 -2.00432 0
M  V30 6951 H 651.813 0.893182 -3.63281 0
M  V30 6952 H 653.146 1.19426 -4.77492 0
M  V30 6953 N 654.798 1.5699 0.138552 0
M  V30 6954 C 656.214 1.51844 0.491472 0
M  V30 6955 C 656.414 0.845063 1.82923 0
M  V30 6956 O 655.47 0.419143 2.48997 0
M  V30 6957 C 656.783 2.96615 0.493987 0
M  V30 6958 C 658.331 3.076 0.578913 0
M  V30 6959 C 658.806 4.53893 0.612009 0
M  V30 6960 N 660.297 4.5827 0.673997 0
M  V30 6961 C 661.032 5.68852 0.720729 0
M  V30 6962 N 660.528 6.88982 0.726292 0
M  V30 6963 N 662.321 5.56908 0.762253 0
M  V30 6964 H 654.472 1.99158 -0.738228 0
M  V30 6965 H 656.735 0.908693 -0.270149 0
M  V30 6966 H 656.441 3.49172 -0.420933 0
M  V30 6967 H 656.315 3.53017 1.32887 0
M  V30 6968 H 658.702 2.55057 1.48425 0
M  V30 6969 H 658.783 2.54227 -0.283286 0
M  V30 6970 H 658.427 5.07076 -0.289208 0
M  V30 6971 H 658.357 5.05057 1.49082 0
M  V30 6972 H 660.848 3.71793 0.676654 0
M  V30 6973 H 661.161 7.69014 0.764032 0
M  V30 6974 H 659.506 6.91526 0.69403 0
M  V30 6975 H 662.697 4.61969 0.755135 0
M  V30 6976 H 662.87 6.43102 0.795207 0
M  V30 6977 N 656.276 -0.40816 1.52223 0
M  V30 6978 C 657.209 -1.51834 1.70357 0
M  V30 6979 C 658.187 -1.52973 0.551171 0
M  V30 6980 O 659.371 -1.71667 0.778642 0
M  V30 6981 C 656.498 -2.90362 1.74378 0
M  V30 6982 C 655.544 -3.0713 2.95928 0
M  V30 6983 S 656.377 -2.80342 4.56255 0
M  V30 6984 C 657.533 -4.21098 4.63063 0
M  V30 6985 H 657.766 -1.36223 2.64255 0
M  V30 6986 H 655.299 -0.599798 1.42274 0
M  V30 6987 H 657.257 -3.70199 1.77379 0
M  V30 6988 H 655.918 -3.03314 0.816063 0
M  V30 6989 H 655.111 -4.08482 2.95226 0
M  V30 6990 H 654.713 -2.3516 2.90819 0
M  V30 6991 H 657.005 -5.14749 4.40499 0
M  V30 6992 H 657.948 -4.26823 5.65002 0
M  V30 6993 H 658.356 -4.06114 3.92086 0
M  V30 6994 N 657.755 -1.42862 -0.66545 0
M  V30 6995 C 659.001 -1.44043 -1.42757 0
M  V30 6996 C 659.334 -0.0599629 -1.94107 0
M  V30 6997 O 658.609 0.917286 -1.71511 0
M  V30 6998 C 658.892 -2.47266 -2.61786 0
M  V30 6999 C 658.745 -3.94539 -2.16007 0
M  V30 7000 C 660.064 -2.47365 -3.64003 0
M  V30 7001 H 657.183 -0.524506 -0.517748 0
M  V30 7002 H 659.825 -1.74335 -0.755466 0
M  V30 7003 H 657.975 -2.21565 -3.19126 0
M  V30 7004 H 659.647 -4.31254 -1.63762 0
M  V30 7005 H 657.89 -4.07957 -1.47491 0
M  V30 7006 H 658.561 -4.62357 -3.01546 0
M  V30 7007 H 661.037 -2.70243 -3.16399 0
M  V30 7008 H 659.913 -3.21552 -4.44854 0
M  V30 7009 H 660.174 -1.50299 -4.15767 0
M  V30 7010 N 659.233 0.902656 -1.29189 0
M  V30 7011 C 660.18 2.00643 -1.14066 0
M  V30 7012 C 661.15 1.66064 -0.0347756 0
M  V30 7013 O 662.335 1.8973 -0.201752 0
M  V30 7014 C 659.475 3.35214 -0.820104 0
M  V30 7015 C 658.588 3.82594 -2.00614 0
M  V30 7016 C 657.723 5.05727 -1.62522 0
M  V30 7017 C 656.762 5.45469 -2.77724 0
M  V30 7018 N 655.899 6.59789 -2.40048 0
M  V30 7019 H 660.739 2.1291 -2.08502 0
M  V30 7020 H 658.276 1.04271 -1.03759 0
M  V30 7021 H 660.234 4.12643 -0.614949 0
M  V30 7022 H 658.864 3.22682 0.0873452 0
M  V30 7023 H 657.916 3.01226 -2.32308 0
M  V30 7024 H 659.228 4.07999 -2.86946 0
M  V30 7025 H 658.382 5.90732 -1.38277 0
M  V30 7026 H 657.121 4.82155 -0.733333 0
M  V30 7027 H 656.126 4.59 -3.02653 0
M  V30 7028 H 657.351 5.71024 -3.67572 0
M  V30 7029 H 655.297 6.37826 -1.53343 0
M  V30 7030 H 655.214 6.84975 -3.19914 0
M  V30 7031 H 656.482 7.4807 -2.19116 0
M  V30 7032 N 660.711 1.11618 1.11262 0
M  V30 7033 C 661.621 0.78898 2.20935 0
M  V30 7034 C 662.637 -0.21867 1.7262 0
M  V30 7035 O 663.813 -0.0543826 2.01327 0
M  V30 7036 C 660.878 0.239014 3.45875 0
M  V30 7037 C 659.939 1.3055 4.08968 0
M  V30 7038 C 659.172 0.781687 5.27944 0
M  V30 7039 O 659.395 -0.387605 5.69082 0
M  V30 7040 O 658.329 1.54734 5.81671 0
M  V30 7041 H 662.155 1.70477 2.51339 0
M  V30 7042 H 659.74 0.892203 1.19834 0
M  V30 7043 H 661.622 -0.0632312 4.21353 0
M  V30 7044 H 660.297 -0.649454 3.17118 0
M  V30 7045 H 659.204 1.66079 3.35214 0
M  V30 7046 H 660.537 2.16743 4.41909 0
M  V30 7047 N 662.189 -1.289 0.906776 0
M  V30 7048 C 663.437 -1.94883 0.535266 0
M  V30 7049 C 663.758 -1.71784 -0.922791 0
M  V30 7050 O 663.028 -1.05359 -1.65156 0
M  V30 7051 H 661.608 -0.721109 0.194962 0
M  V30 7052 H 664.27 -1.57018 1.15461 0
M  V30 7053 H 663.366 -3.03591 0.723821 0
M  V30 7054 N 663.667 -0.670007 -1.42649 0
M  V30 7055 C 664.892 -0.196955 -2.06463 0
M  V30 7056 C 665.317 1.1352 -1.49983 0
M  V30 7057 O 664.675 1.705 -0.616397 0
M  V30 7058 C 664.723 -0.137381 -3.60338 0
M  V30 7059 O 663.827 0.895523 -4.02559 0
M  V30 7060 H 663.168 -0.102579 -0.656029 0
M  V30 7061 H 665.698 -0.917669 -1.82866 0
M  V30 7062 H 665.708 0.0403625 -4.0798 0
M  V30 7063 H 664.383 -1.10977 -4.0082 0
M  V30 7064 H 662.96 0.689209 -3.66476 0
M  V30 7065 N 665.145 1.52092 -0.413018 0
M  V30 7066 C 666.078 2.23613 0.455234 0
M  V30 7067 C 667.056 1.2459 1.04481 0
M  V30 7068 O 668.24 1.53653 1.09193 0
M  V30 7069 C 665.367 2.96775 1.63224 0
M  V30 7070 C 664.413 4.10261 1.16568 0
M  V30 7071 S 665.246 5.35348 0.127633 0
M  V30 7072 C 666.402 6.1204 1.30987 0
M  V30 7073 H 666.635 2.96911 -0.152042 0
M  V30 7074 H 664.168 1.53134 -0.197343 0
M  V30 7075 H 666.126 3.39532 2.30713 0
M  V30 7076 H 664.787 2.23113 2.21087 0
M  V30 7077 H 663.98 4.6064 2.04515 0
M  V30 7078 H 663.582 3.6964 0.569386 0
M  V30 7079 H 665.874 6.39651 2.23276 0
M  V30 7080 H 666.817 7.03022 0.846533 0
M  V30 7081 H 667.225 5.43161 1.53743 0
M  V30 7082 N 666.623 0.143563 1.56945 0
M  V30 7083 C 667.556 -0.835367 2.1236 0
M  V30 7084 C 668.534 -1.24466 1.04627 0
M  V30 7085 O 669.718 -1.34138 1.32436 0
M  V30 7086 C 666.845 -2.12123 2.64048 0
M  V30 7087 C 665.891 -1.85812 3.83896 0
M  V30 7088 S 666.724 -1.05222 5.25061 0
M  V30 7089 C 667.88 -2.34935 5.80135 0
M  V30 7090 H 668.113 -0.364109 2.95062 0
M  V30 7091 H 665.646 -0.0706601 1.54238 0
M  V30 7092 H 667.604 -2.85993 2.94479 0
M  V30 7093 H 666.265 -2.56364 1.81483 0
M  V30 7094 H 665.458 -2.81151 4.18294 0
M  V30 7095 H 665.06 -1.20052 3.54208 0
M  V30 7096 H 667.352 -3.3061 5.91357 0
M  V30 7097 H 668.295 -2.05046 6.77762 0
M  V30 7098 H 668.703 -2.45426 5.08356 0
M  V30 7099 N 668.101 -1.57061 -0.130224 0
M  V30 7100 C 669.35 -1.83446 -0.838488 0
M  V30 7101 C 669.663 -0.727468 -1.81569 0
M  V30 7102 O 670.869 -0.877394 -2.56932 0
M  V30 7103 C 669.325 -3.25201 -1.54182 0
M  V30 7104 C 668.933 -4.4388 -0.606178 0
M  V30 7105 C 670.677 -3.60844 -2.23588 0
M  V30 7106 C 668.584 -5.76661 -1.31209 0
M  V30 7107 H 667.514 -0.684185 -0.316871 0
M  V30 7108 H 670.165 -1.83273 -0.0912059 0
M  V30 7109 H 668.547 -3.1981 -2.33533 0
M  V30 7110 H 669.721 -4.60545 0.153308 0
M  V30 7111 H 668.036 -4.16395 -0.0196705 0
M  V30 7112 H 670.633 -4.57313 -2.77072 0
M  V30 7113 H 670.976 -2.87724 -3.00867 0
M  V30 7114 H 671.509 -3.67971 -1.51137 0
M  V30 7115 H 668.248 -6.52922 -0.580823 0
M  V30 7116 H 667.768 -5.63902 -2.04387 0
M  V30 7117 H 669.447 -6.20035 -1.8484 0
M  V30 7118 N 669.579 0.400081 -1.52437 0
M  V30 7119 C 670.827 1.14392 -1.6661 0
M  V30 7120 C 671.148 1.90792 -0.402927 0
M  V30 7121 O 670.418 1.87042 0.582425 0
M  V30 7122 H 668.998 0.425275 -0.614125 0
M  V30 7123 H 671.66 0.455076 -1.89513 0
M  V30 7124 H 670.756 1.85298 -2.51139 0
M  V30 7125 N 671.057 1.43213 0.657864 0
M  V30 7126 C 672.287 1.478 1.44356 0
M  V30 7127 C 672.695 0.0930206 1.88971 0
M  V30 7128 O 672.038 -0.906089 1.59799 0
M  V30 7129 C 672.1 2.35745 2.71412 0
M  V30 7130 C 671.764 3.83359 2.48767 0
M  V30 7131 C 672.761 4.74585 2.12285 0
M  V30 7132 C 670.446 4.27799 2.63235 0
M  V30 7133 C 672.44 6.08247 1.90562 0
M  V30 7134 C 670.127 5.61516 2.41128 0
M  V30 7135 C 671.125 6.51557 2.04847 0
M  V30 7136 O 670.813 7.82802 1.82967 0
M  V30 7137 H 670.545 0.504363 0.450104 0
M  V30 7138 H 673.099 1.88572 0.814241 0
M  V30 7139 H 671.329 1.89852 3.36887 0
M  V30 7140 H 673.018 2.31589 3.33348 0
M  V30 7141 H 673.784 4.41531 2.00687 0
M  V30 7142 H 669.663 3.57993 2.90451 0
M  V30 7143 H 673.207 6.78489 1.62168 0
M  V30 7144 H 669.104 5.94139 2.52327 0
M  V30 7145 H 669.872 7.94332 1.97429 0
M  V30 7146 N 672.536 -0.895792 1.29666 0
M  V30 7147 C 673.468 -2.00563 1.10937 0
M  V30 7148 C 674.481 -1.62705 0.055734 0
M  V30 7149 O 675.67 -1.7595 0.300656 0
M  V30 7150 C 672.77 -3.32262 0.667448 0
M  V30 7151 C 671.943 -3.98625 1.80047 0
M  V30 7152 C 671.002 -5.08617 1.3489 0
M  V30 7153 O 670.028 -5.30837 2.05429 0
M  V30 7154 N 671.23 -5.80076 0.221937 0
M  V30 7155 H 673.995 -2.17184 2.06522 0
M  V30 7156 H 671.556 -1.06822 1.21658 0
M  V30 7157 H 673.548 -4.03196 0.348586 0
M  V30 7158 H 672.118 -3.11985 -0.196055 0
M  V30 7159 H 671.338 -3.21005 2.28801 0
M  V30 7160 H 672.626 -4.39704 2.56003 0
M  V30 7161 H 672.024 -5.64514 -0.366084 0
M  V30 7162 H 670.581 -6.51789 -0.0375346 0
M  V30 7163 N 674.014 -1.12206 -1.10668 0
M  V30 7164 C 675.425 -0.890657 -1.64086 0
M  V30 7165 C 675.776 0.575502 -1.8757 0
M  V30 7166 O 674.901 1.4394 -1.61587 0
M  V30 7167 C 675.496 -1.61029 -2.98085 0
M  V30 7168 C 674.055 -1.4251 -3.48379 0
M  V30 7169 C 673.202 -1.64778 -2.23033 0
M  V30 7170 H 676.153 -1.27718 -0.94201 0
M  V30 7171 H 676.174 -1.05993 -3.65439 0
M  V30 7172 H 675.686 -2.67735 -2.80962 0
M  V30 7173 H 673.787 -0.380497 -3.70652 0
M  V30 7174 H 673.9 -2.17959 -4.26651 0
M  V30 7175 H 672.264 -1.07171 -2.31055 0
M  V30 7176 H 673.047 -2.72776 -2.08443 0
M  V30 7177 N 675.492 1.28418 -0.913599 0
M  V30 7178 C 676.442 2.24928 -0.373042 0
M  V30 7179 C 677.426 1.52444 0.514753 0
M  V30 7180 O 678.618 1.73414 0.3545 0
M  V30 7181 C 675.747 3.41124 0.385896 0
M  V30 7182 C 674.833 4.20929 -0.51761 0
M  V30 7183 N 675.224 4.78777 -1.63113 0
M  V30 7184 C 673.522 4.44865 -0.317969 0
M  V30 7185 C 674.223 5.38822 -2.19193 0
M  V30 7186 N 673.199 5.22974 -1.48321 0
M  V30 7187 H 677.001 2.67224 -1.22346 0
M  V30 7188 H 674.515 1.43187 -0.766236 0
M  V30 7189 H 676.512 4.09347 0.789997 0
M  V30 7190 H 675.172 3.00362 1.23341 0
M  V30 7191 H 676.183 4.77148 -2.01372 0
M  V30 7192 H 672.86 4.14614 0.49004 0
M  V30 7193 H 674.25 5.94615 -3.12861 0
M  V30 7194 N 676.97 0.677563 1.42291 0
M  V30 7195 C 678.218 0.200578 2.01102 0
M  V30 7196 C 678.539 -1.19803 1.53858 0
M  V30 7197 O 677.809 -1.80496 0.761439 0
M  V30 7198 H 676.389 0.0711634 0.743603 0
M  V30 7199 H 679.051 0.874691 1.7417 0
M  V30 7200 H 678.147 0.204 3.11433 0
M  V30 7201 N 678.448 -1.51871 0.421078 0
M  V30 7202 C 679.676 -2.06356 -0.14994 0
M  V30 7203 C 680.091 -1.29006 -1.37851 0
M  V30 7204 O 679.448 -0.345139 -1.79207 0
M  V30 7205 C 679.499 -3.58185 -0.488454 0
M  V30 7206 O 679.22 -4.32611 0.691341 0
M  V30 7207 C 680.721 -4.29129 -1.11191 0
M  V30 7208 H 677.941 -0.67083 -0.0151186 0
M  V30 7209 H 680.485 -1.95638 0.595476 0
M  V30 7210 H 678.64 -3.68871 -1.18376 0
M  V30 7211 H 679.054 -5.22927 0.405906 0
M  V30 7212 H 680.528 -5.36501 -1.29889 0
M  V30 7213 H 681.005 -3.86371 -2.0884 0
M  V30 7214 H 681.611 -4.22843 -0.456458 0
M  V30 7215 N 679.926 -0.151884 -1.56866 0
M  V30 7216 C 681.342 0.204486 -1.58285 0
M  V30 7217 C 681.542 1.6431 -1.16639 0
M  V30 7218 O 680.598 2.37077 -0.868946 0
M  V30 7219 C 681.911 -0.0587019 -3.00643 0
M  V30 7220 C 683.459 0.00462303 -3.13 0
M  V30 7221 C 683.934 -0.231297 -4.57416 0
M  V30 7222 N 685.425 -0.178394 -4.62856 0
M  V30 7223 C 686.16 -0.335379 -5.72418 0
M  V30 7224 N 685.656 -0.550355 -6.90611 0
M  V30 7225 N 687.449 -0.272641 -5.61438 0
M  V30 7226 H 679.6 -1.09116 -1.82229 0
M  V30 7227 H 681.863 -0.432311 -0.843689 0
M  V30 7228 H 681.569 -1.05453 -3.35518 0
M  V30 7229 H 681.443 0.658508 -3.71407 0
M  V30 7230 H 683.83 0.991009 -2.77962 0
M  V30 7231 H 683.911 -0.744992 -2.44711 0
M  V30 7232 H 683.555 -1.2148 -4.93158 0
M  V30 7233 H 683.485 0.5387 -5.23837 0
M  V30 7234 H 685.976 -0.0170923 -3.77896 0
M  V30 7235 H 686.289 -0.660116 -7.69976 0
M  V30 7236 H 684.634 -0.586736 -6.92519 0
M  V30 7237 H 687.825 -0.105421 -4.67981 0
M  V30 7238 H 687.998 -0.398418 -6.46774 0
M  V30 7239 N 681.404 1.57128 0.121893 0
M  V30 7240 C 682.652 1.84335 0.828548 0
M  V30 7241 C 682.973 0.736632 1.80551 0
M  V30 7242 O 682.243 -0.23962 1.94429 0
M  V30 7243 H 680.823 0.680108 0.30897 0
M  V30 7244 H 683.485 1.9459 0.109906 0
M  V30 7245 H 682.581 2.80152 1.37554 0
M  V30 7246 N 682.882 -0.391992 1.52647 0
M  V30 7247 C 683.83 -1.4991 1.77848 0
M  V30 7248 C 684.824 -1.56587 0.646282 0
M  V30 7249 O 686.03 -1.59789 0.828698 0
M  V30 7250 H 682.405 -0.498883 0.56269 0
M  V30 7251 H 684.376 -1.25847 2.70564 0
M  V30 7252 C 683.125 -2.87081 1.96163 0
M  V30 7253 H 682.448 -2.82692 2.82711 0
M  V30 7254 H 683.888 -3.63792 2.17787 0
M  V30 7255 C 682.347 -3.28822 0.733348 0
M  V30 7256 O 682.877 -4.01598 -0.0906481 0
M  V30 7257 N 681.083 -2.85068 0.564317 0
M  V30 7258 H 680.63 -2.26012 1.23598 0
M  V30 7259 H 680.588 -3.13355 -0.256166 0
M  V30 7260 N 684.36 -1.4356 -0.65026 0
M  V30 7261 C 685.607 -1.45333 -1.41012 0
M  V30 7262 C 685.935 -0.0787282 -1.94341 0
M  V30 7263 O 685.19 0.916715 -1.72901 0
M  V30 7264 C 685.489 -2.44528 -2.60654 0
M  V30 7265 C 685.155 -3.90331 -2.25727 0
M  V30 7266 C 683.817 -4.3004 -2.15914 0
M  V30 7267 C 686.169 -4.822 -1.97821 0
M  V30 7268 C 683.497 -5.59568 -1.76354 0
M  V30 7269 C 685.849 -6.12095 -1.59759 0
M  V30 7270 C 684.513 -6.50778 -1.48473 0
M  V30 7271 H 683.783 -0.531813 -0.516 0
M  V30 7272 H 686.43 -1.76657 -0.739219 0
M  V30 7273 H 684.735 -2.06619 -3.3289 0
M  V30 7274 H 686.432 -2.43155 -3.18868 0
M  V30 7275 H 683.022 -3.58905 -2.34276 0
M  V30 7276 H 687.206 -4.5229 -2.04322 0
M  V30 7277 H 682.462 -5.88376 -1.66205 0
M  V30 7278 H 686.636 -6.82751 -1.37198 0
M  V30 7279 H 684.263 -7.5105 -1.17591 0
M  V30 7280 N 685.838 0.888903 -1.30139 0
M  V30 7281 C 687.085 1.64037 -1.18736 0
M  V30 7282 C 687.413 1.92771 0.258801 0
M  V30 7283 O 686.668 1.54427 1.20212 0
M  V30 7284 C 686.967 2.99041 -1.95728 0
M  V30 7285 C 686.633 2.89874 -3.45375 0
M  V30 7286 C 685.295 2.87082 -3.86183 0
M  V30 7287 C 687.647 2.78289 -4.40687 0
M  V30 7288 C 684.975 2.70536 -5.20603 0
M  V30 7289 C 687.327 2.63282 -5.75209 0
M  V30 7290 C 685.991 2.58861 -6.15262 0
M  V30 7291 H 685.261 0.600253 -0.434485 0
M  V30 7292 H 687.908 1.0338 -1.61198 0
M  V30 7293 H 686.213 3.63626 -1.45888 0
M  V30 7294 H 687.91 3.56139 -1.843 0
M  V30 7295 H 684.5 2.92856 -3.12943 0
M  V30 7296 H 688.684 2.79516 -4.10103 0
M  V30 7297 H 683.94 2.65526 -5.50732 0
M  V30 7298 H 688.114 2.5329 -6.48704 0
M  V30 7299 H 685.741 2.45799 -7.19366 0
M  V30 7300 N 687.317 1.12792 1.10072 0
M  V30 7301 C 688.733 0.864745 1.34143 0
M  V30 7302 C 688.933 -0.503201 1.95116 0
M  V30 7303 O 687.989 -1.25111 2.19325 0
M  V30 7304 C 689.302 1.98413 2.25949 0
M  V30 7305 C 690.85 2.01545 2.39476 0
M  V30 7306 C 691.325 3.12727 3.34613 0
M  V30 7307 N 692.816 3.12194 3.42183 0
M  V30 7308 C 693.551 3.94862 4.15779 0
M  V30 7309 N 693.047 4.87528 4.92228 0
M  V30 7310 N 694.84 3.82985 4.11435 0
M  V30 7311 H 686.991 2.00926 0.68866 0
M  V30 7312 H 689.254 0.874564 0.365844 0
M  V30 7313 H 688.96 2.97005 1.88364 0
M  V30 7314 H 688.834 1.89254 3.26287 0
M  V30 7315 H 691.221 1.0357 2.76328 0
M  V30 7316 H 691.302 2.14777 1.3894 0
M  V30 7317 H 690.946 4.10936 2.98486 0
M  V30 7318 H 690.876 2.96732 4.35037 0
M  V30 7319 H 693.367 2.45065 2.87666 0
M  V30 7320 H 693.68 5.47109 5.45794 0
M  V30 7321 H 692.025 4.91539 4.9134 0
M  V30 7322 H 695.216 3.09923 3.50807 0
M  V30 7323 H 695.389 4.47641 4.68531 0
M  V30 7324 N 688.795 -1.27931 0.920396 0
M  V30 7325 C 690.041 -1.94977 0.557832 0
M  V30 7326 C 690.374 -1.72224 -0.897365 0
M  V30 7327 O 689.649 -1.04705 -1.63912 0
M  V30 7328 C 689.932 -3.49289 0.875741 0
M  V30 7329 C 689.785 -3.81416 2.38416 0
M  V30 7330 C 691.104 -4.38486 0.376517 0
M  V30 7331 H 688.223 -0.708164 0.20414 0
M  V30 7332 H 690.865 -1.5118 1.15085 0
M  V30 7333 H 689.015 -3.86724 0.371062 0
M  V30 7334 H 690.687 -3.53813 2.95997 0
M  V30 7335 H 688.93 -3.28225 2.83639 0
M  V30 7336 H 689.601 -4.89198 2.55713 0
M  V30 7337 H 692.077 -4.08161 0.808945 0
M  V30 7338 H 690.953 -5.45296 0.627976 0
M  V30 7339 H 691.214 -4.36143 -0.723293 0
M  V30 7340 N 690.273 -0.685099 -1.4193 0
M  V30 7341 C 691.519 -0.211971 -2.01689 0
M  V30 7342 C 691.852 1.18189 -1.54094 0
M  V30 7343 O 691.127 1.79559 -0.747572 0
M  V30 7344 C 691.41 -0.258019 -3.59174 0
M  V30 7345 C 691.263 -1.68807 -4.16922 0
M  V30 7346 C 692.582 0.388044 -4.38386 0
M  V30 7347 H 689.701 -0.0784987 -0.732808 0
M  V30 7348 H 692.343 -0.871837 -1.68816 0
M  V30 7349 H 690.493 0.303832 -3.8731 0
M  V30 7350 H 692.165 -2.30296 -3.99702 0
M  V30 7351 H 690.408 -2.22553 -3.72361 0
M  V30 7352 H 691.079 -1.6719 -5.26072 0
M  V30 7353 H 693.555 -0.0903432 -4.16002 0
M  V30 7354 H 692.431 0.325232 -5.47936 0
M  V30 7355 H 692.692 1.4672 -4.17044 0
M  V30 7356 N 691.751 1.51645 -0.429126 0
M  V30 7357 C 692.997 2.02314 0.140286 0
M  V30 7358 C 693.33 1.31314 1.43074 0
M  V30 7359 O 692.605 0.425531 1.89788 0
M  V30 7360 C 692.888 3.5822 0.36749 0
M  V30 7361 C 692.741 4.39846 -0.941039 0
M  V30 7362 C 694.06 4.25055 1.14089 0
M  V30 7363 H 691.179 0.735335 0.0495112 0
M  V30 7364 H 693.821 1.81358 -0.566514 0
M  V30 7365 H 691.971 3.76207 0.969556 0
M  V30 7366 H 693.643 4.33527 -1.57646 0
M  V30 7367 H 691.886 4.05259 -1.54751 0
M  V30 7368 H 692.557 5.47069 -0.73621 0
M  V30 7369 H 695.033 4.11288 0.630986 0
M  V30 7370 H 693.909 5.34038 1.26863 0
M  V30 7371 H 694.17 3.85358 2.16683 0
M  V30 7372 N 693.229 0.160201 1.56784 0
M  V30 7373 C 694.192 -0.760405 2.16219 0
M  V30 7374 C 695.192 -1.16595 1.10735 0
M  V30 7375 O 696.382 -1.08472 1.36306 0
M  V30 7376 C 693.514 -2.03358 2.73603 0
M  V30 7377 H 694.707 -0.243173 2.98912 0
M  V30 7378 H 692.26 -0.0893139 1.56045 0
M  V30 7379 H 692.995 -2.59416 1.94612 0
M  V30 7380 H 692.78 -1.75186 3.50788 0
M  V30 7381 H 694.27 -2.69081 3.19351 0
M  V30 7382 N 694.707 -1.5719 -0.113559 0
M  V30 7383 C 695.655 -2.01725 -1.158 0
M  V30 7384 C 696.649 -0.915105 -1.42556 0
M  V30 7385 O 697.855 -1.10031 -1.42454 0
M  V30 7386 H 694.23 -0.64262 -0.390569 0
M  V30 7387 H 696.201 -2.88666 -0.755926 0
M  V30 7388 C 694.95 -2.44203 -2.47507 0
M  V30 7389 H 694.273 -3.28582 -2.27758 0
M  V30 7390 H 695.713 -2.79158 -3.19135 0
M  V30 7391 C 694.172 -1.30785 -3.10478 0
M  V30 7392 O 694.702 -0.626807 -3.9678 0
M  V30 7393 N 692.908 -1.06352 -2.7044 0
M  V30 7394 H 692.455 -1.61913 -2.00355 0
M  V30 7395 H 692.413 -0.306614 -3.12901 0
M  V30 7396 N 696.185 0.383891 -1.52853 0
M  V30 7397 C 697.41 1.154 -1.7233 0
M  V30 7398 C 697.835 1.82809 -0.44298 0
M  V30 7399 O 697.193 1.71026 0.601645 0
M  V30 7400 C 697.241 2.17386 -2.87708 0
M  V30 7401 O 696.345 3.24082 -2.55038 0
M  V30 7402 H 695.686 0.335709 -0.572883 0
M  V30 7403 H 698.216 0.44662 -1.99666 0
M  V30 7404 H 698.226 2.61296 -3.1335 0
M  V30 7405 H 696.901 1.6771 -3.80587 0
M  V30 7406 H 695.478 2.85273 -2.40153 0
M  V30 7407 N 697.663 1.43903 0.642637 0
M  V30 7408 C 698.626 1.49538 1.73698 0
M  V30 7409 C 699.626 0.378776 1.56275 0
M  V30 7410 O 700.816 0.64095 1.6198 0
M  V30 7411 C 697.948 1.35821 3.12675 0
M  V30 7412 H 699.141 2.47008 1.70079 0
M  V30 7413 H 696.694 1.30824 0.85526 0
M  V30 7414 H 697.429 0.393994 3.21898 0
M  V30 7415 H 697.214 2.16776 3.26727 0
M  V30 7416 H 698.704 1.4272 3.92455 0
M  V30 7417 N 699.141 -0.881989 1.30609 0
M  V30 7418 C 700.071 -2.00413 1.1982 0
M  V30 7419 C 701.052 -1.69871 0.0881538 0
M  V30 7420 O 702.237 -1.92304 0.2707 0
M  V30 7421 C 699.367 -3.35641 0.89233 0
M  V30 7422 C 698.321 -3.80451 1.96064 0
M  V30 7423 C 697.647 -5.13003 1.5077 0
M  V30 7424 C 698.947 -3.98855 3.37213 0
M  V30 7425 H 700.641 -2.09698 2.13699 0
M  V30 7426 H 698.187 -1.00754 1.02882 0
M  V30 7427 H 700.14 -4.13669 0.803497 0
M  V30 7428 H 698.864 -3.26497 -0.0821381 0
M  V30 7429 H 697.523 -3.04654 2.03916 0
M  V30 7430 H 697.171 -5.0029 0.521417 0
M  V30 7431 H 696.871 -5.43956 2.22229 0
M  V30 7432 H 698.395 -5.93554 1.43271 0
M  V30 7433 H 699.809 -4.67312 3.32103 0
M  V30 7434 H 698.206 -4.41188 4.06784 0
M  V30 7435 H 699.276 -3.02614 3.78883 0
M  V30 7436 N 700.619 -1.13374 -1.09472 0
M  V30 7437 C 701.847 -0.918351 -1.85402 0
M  V30 7438 C 702.262 0.53281 -1.81126 0
M  V30 7439 O 701.619 1.36879 -1.20708 0
M  V30 7440 C 701.67 -1.39743 -3.33398 0
M  V30 7441 O 701.391 -2.79172 -3.37631 0
M  V30 7442 C 702.892 -1.22042 -4.2617 0
M  V30 7443 H 700.112 -0.327511 -0.585643 0
M  V30 7444 H 702.656 -1.50617 -1.38328 0
M  V30 7445 H 700.811 -0.852619 -3.77901 0
M  V30 7446 H 701.225 -3.00428 -4.29934 0
M  V30 7447 H 702.699 -1.60438 -5.2817 0
M  V30 7448 H 703.176 -0.162047 -4.38901 0
M  V30 7449 H 703.782 -1.75323 -3.87482 0
M  V30 7450 N 702.098 1.27442 -0.927168 0
M  V30 7451 C 703.338 1.96157 -0.574608 0
M  V30 7452 C 703.702 1.71265 0.867897 0
M  V30 7453 O 704.903 2.33664 1.3287 0
M  V30 7454 C 703.174 3.46115 -0.891009 0
M  V30 7455 S 704.733 4.34006 -0.646885 0
M  V30 7456 H 701.551 0.678619 -0.212125 0
M  V30 7457 H 704.153 1.54688 -1.19549 0
M  V30 7458 H 702.857 3.6173 -1.93854 0
M  V30 7459 H 702.388 3.92545 -0.259301 0
M  V30 7460 H 704.403 4.93719 0.495568 0
M  V30 7461 N 703.576 0.692616 1.41565 0
M  V30 7462 C 704.539 0.0344174 2.29174 0
M  V30 7463 C 705.539 -0.710961 1.44229 0
M  V30 7464 O 706.729 -0.546293 1.65412 0
M  V30 7465 C 703.861 -0.961682 3.27054 0
M  V30 7466 H 705.054 0.805755 2.88873 0
M  V30 7467 H 702.607 0.455947 1.49502 0
M  V30 7468 H 703.342 -1.76089 2.72329 0
M  V30 7469 H 703.127 -0.430375 3.89731 0
M  V30 7470 H 704.617 -1.4201 3.92712 0
M  V30 7471 N 705.054 -1.51416 0.437162 0
M  V30 7472 C 706.331 -1.94682 -0.189292 0
M  V30 7473 C 706.711 -1.37581 -1.60108 0
M  V30 7474 O 706.059 -0.562815 -2.2146 0
M  V30 7475 C 706.269 -3.48599 -0.167201 0
M  V30 7476 C 707.617 -4.2296 -0.372856 0
M  V30 7477 O 708.641 -3.55354 -0.245323 0
M  V30 7478 O 707.5 -5.42895 -0.626693 0
M  V30 7479 H 704.594 -0.816708 -0.130063 0
M  V30 7480 H 707.14 -1.62316 0.495128 0
M  V30 7481 H 705.912 -3.82616 0.81981 0
M  V30 7482 H 705.535 -3.87406 -0.894537 0
M  V30 7483 N 706.532 -0.168513 -1.56696 0
M  V30 7484 C 707.465 0.801477 -2.13662 0
M  V30 7485 C 708.443 1.22786 -1.06594 0
M  V30 7486 O 709.627 1.32014 -1.34554 0
M  V30 7487 C 706.754 2.07896 -2.6739 0
M  V30 7488 C 705.8 1.79681 -3.86803 0
M  V30 7489 S 706.633 0.968556 -5.26668 0
M  V30 7490 C 707.789 2.25676 -5.83799 0
M  V30 7491 H 708.022 0.317121 -2.95604 0
M  V30 7492 H 705.555 0.0461132 -1.54331 0
M  V30 7493 H 707.513 2.81272 -2.98992 0
M  V30 7494 H 706.174 2.53445 -1.85539 0
M  V30 7495 H 705.367 2.74461 -4.22714 0
M  V30 7496 H 704.969 1.14402 -3.56073 0
M  V30 7497 H 707.261 3.2116 -5.96542 0
M  V30 7498 H 708.204 1.94238 -6.80939 0
M  V30 7499 H 708.612 2.37308 -5.12197 0
M  V30 7500 N 708.01 1.57248 0.105221 0
M  V30 7501 C 709.287 1.76566 0.841647 0
M  V30 7502 C 709.667 0.747566 1.9742 0
M  V30 7503 O 709.015 -0.225886 2.27381 0
M  V30 7504 C 709.225 3.22016 1.3456 0
M  V30 7505 C 710.573 3.84911 1.79244 0
M  V30 7506 O 711.597 3.25703 1.44207 0
M  V30 7507 O 710.456 4.89008 2.43995 0
M  V30 7508 H 707.55 0.723443 0.400698 0
M  V30 7509 H 710.096 1.69472 0.0878893 0
M  V30 7510 H 708.868 3.87644 0.533685 0
M  V30 7511 H 708.491 3.33703 2.16167 0
M  V30 7512 N 709.488 -0.375779 1.53054 0
M  V30 7513 C 710.735 -1.11948 1.68742 0
M  V30 7514 C 711.063 -1.89596 0.434015 0
M  V30 7515 O 710.318 -1.86787 -0.583867 0
M  V30 7516 C 710.617 -2.11356 2.88207 0
M  V30 7517 C 710.283 -1.50266 4.25124 0
M  V30 7518 C 708.945 -1.33333 4.62359 0
M  V30 7519 C 711.297 -1.05976 5.10312 0
M  V30 7520 C 708.625 -0.706765 5.82427 0
M  V30 7521 C 710.977 -0.447241 6.31017 0
M  V30 7522 C 709.641 -0.265314 6.66973 0
M  V30 7523 H 708.911 -0.409648 0.61747 0
M  V30 7524 H 711.558 -0.402492 1.87222 0
M  V30 7525 H 709.863 -2.89322 2.64197 0
M  V30 7526 H 711.56 -2.68833 2.97539 0
M  V30 7527 H 708.15 -1.64437 3.95801 0
M  V30 7528 H 712.334 -1.17855 4.82104 0
M  V30 7529 H 707.59 -0.554132 6.08884 0
M  V30 7530 H 711.764 -0.0958064 6.96334 0
M  V30 7531 H 709.391 0.222267 7.59875 0
M  V30 7532 N 710.966 -1.44241 -0.634997 0
M  V30 7533 C 711.896 -1.53632 -1.7584 0
M  V30 7534 C 712.877 -0.389603 -1.65578 0
M  V30 7535 O 714.062 -0.609219 -1.84397 0
M  V30 7536 C 711.192 -1.47644 -3.14354 0
M  V30 7537 C 710.146 -2.60752 -3.394 0
M  V30 7538 C 709.472 -2.39817 -4.77904 0
M  V30 7539 C 710.772 -4.02921 -3.32343 0
M  V30 7540 H 712.466 -2.47662 -1.68238 0
M  V30 7541 H 710.012 -1.19197 -0.807969 0
M  V30 7542 H 711.965 -1.52815 -3.92716 0
M  V30 7543 H 710.689 -0.501284 -3.2273 0
M  V30 7544 H 709.348 -2.54965 -2.63417 0
M  V30 7545 H 708.996 -1.40502 -4.82978 0
M  V30 7546 H 708.696 -3.15649 -4.9562 0
M  V30 7547 H 710.22 -2.46799 -5.585 0
M  V30 7548 H 711.634 -4.10098 -4.00615 0
M  V30 7549 H 710.031 -4.78925 -3.61595 0
M  V30 7550 H 711.101 -4.26766 -2.30215 0
M  V30 7551 N 712.444 0.87505 -1.31075 0
M  V30 7552 C 713.374 1.99775 -1.20881 0
M  V30 7553 C 714.355 1.69822 -0.0971612 0
M  V30 7554 O 715.54 1.92158 -0.280895 0
M  V30 7555 C 712.67 3.35163 -0.910118 0
M  V30 7556 C 711.624 3.79406 -1.98078 0
M  V30 7557 C 710.95 5.12197 -1.53488 0
M  V30 7558 C 712.25 3.97061 -3.39323 0
M  V30 7559 H 713.944 2.08562 -2.14808 0
M  V30 7560 H 711.49 1.00207 -1.03415 0
M  V30 7561 H 713.443 4.13237 -0.825423 0
M  V30 7562 H 712.167 3.26536 0.064822 0
M  V30 7563 H 710.826 3.03568 -2.05528 0
M  V30 7564 H 710.474 5.00007 -0.547941 0
M  V30 7565 H 710.174 5.4277 -2.2511 0
M  V30 7566 H 711.698 5.92785 -1.46417 0
M  V30 7567 H 713.112 4.65545 -3.34576 0
M  V30 7568 H 711.509 4.39025 -4.09118 0
M  V30 7569 H 712.579 3.00601 -3.80483 0
M  V30 7570 N 713.922 1.13953 1.08869 0
M  V30 7571 C 714.87 0.817664 2.17754 0
M  V30 7572 C 715.864 -0.202444 1.68186 0
M  V30 7573 O 717.07 -0.0590159 1.79903 0
M  V30 7574 H 713.445 0.246671 0.710392 0
M  V30 7575 H 715.416 1.74401 2.4213 0
M  V30 7576 C 714.165 0.3063 3.46348 0
M  V30 7577 H 713.488 1.08259 3.84864 0
M  V30 7578 H 714.928 0.119584 4.23831 0
M  V30 7579 C 713.387 -0.969158 3.22659 0
M  V30 7580 O 713.917 -2.04386 3.45817 0
M  V30 7581 N 712.123 -0.902516 2.7623 0
M  V30 7582 H 711.67 -0.027801 2.57585 0
M  V30 7583 H 711.628 -1.75649 2.60758 0
M  V30 7584 N 715.4 -1.26948 0.933913 0
M  V30 7585 C 716.31 -2.30366 0.443671 0
M  V30 7586 C 717.326 -1.67284 -0.478745 0
M  V30 7587 O 718.502 -1.98156 -0.360043 0
M  V30 7588 C 715.567 -3.45485 -0.289974 0
M  V30 7589 C 714.628 -4.24069 0.668114 0
M  V30 7590 C 713.861 -5.33691 -0.0306138 0
M  V30 7591 O 714.084 -5.5656 -1.24888 0
M  V30 7592 O 713.018 -5.98441 0.644384 0
M  V30 7593 H 716.844 -2.74349 1.30254 0
M  V30 7594 H 714.429 -1.32012 0.699506 0
M  V30 7595 H 716.311 -4.15486 -0.70353 0
M  V30 7596 H 714.986 -3.03546 -1.12435 0
M  V30 7597 H 713.893 -3.56579 1.13147 0
M  V30 7598 H 715.226 -4.69739 1.46989 0
M  V30 7599 N 716.879 -0.700114 -1.41195 0
M  V30 7600 C 717.809 -0.0521132 -2.33442 0
M  V30 7601 C 718.79 0.76228 -1.52063 0
M  V30 7602 O 719.975 0.714336 -1.80585 0
M  V30 7603 C 717.105 0.881693 -3.35922 0
M  V30 7604 C 716.059 0.174062 -4.27646 0
M  V30 7605 C 715.385 1.22254 -5.20536 0
M  V30 7606 C 716.685 -0.962396 -5.13357 0
M  V30 7607 H 718.379 -0.822574 -2.87879 0
M  V30 7608 H 715.925 -0.397011 -1.38419 0
M  V30 7609 H 717.878 1.34429 -3.99383 0
M  V30 7610 H 716.602 1.68387 -2.79845 0
M  V30 7611 H 715.261 -0.268551 -3.65615 0
M  V30 7612 H 714.909 2.01736 -4.60773 0
M  V30 7613 H 714.609 0.754038 -5.82742 0
M  V30 7614 H 716.133 1.68555 -5.86874 0
M  V30 7615 H 717.547 -0.579875 -5.7036 0
M  V30 7616 H 715.944 -1.35828 -5.84526 0
M  V30 7617 H 717.014 -1.80003 -4.50252 0
M  V30 7618 N 718.357 1.51182 -0.445186 0
M  V30 7619 C 719.267 2.31692 0.368255 0
M  V30 7620 C 720.283 1.40942 1.02036 0
M  V30 7621 O 721.459 1.74011 1.01401 0
M  V30 7622 C 718.524 3.14903 1.45041 0
M  V30 7623 C 717.585 4.21442 0.817615 0
M  V30 7624 C 716.818 5.00677 1.8482 0
M  V30 7625 O 717.041 4.80644 3.07145 0
M  V30 7626 O 715.975 5.84559 1.43438 0
M  V30 7627 H 719.801 3.0232 -0.289219 0
M  V30 7628 H 717.386 1.47951 -0.207555 0
M  V30 7629 H 719.268 3.66612 2.07783 0
M  V30 7630 H 717.943 2.47031 2.09182 0
M  V30 7631 H 716.85 3.73791 0.151931 0
M  V30 7632 H 718.183 4.9171 0.219564 0
M  V30 7633 N 719.835 0.176821 1.56605 0
M  V30 7634 C 721.251 -0.179278 1.5859 0
M  V30 7635 C 721.451 -1.62433 1.19238 0
M  V30 7636 O 720.507 -2.35665 0.906552 0
M  V30 7637 C 721.82 0.106524 3.00511 0
M  V30 7638 C 723.368 0.0451731 3.12967 0
M  V30 7639 C 723.843 0.304038 4.5699 0
M  V30 7640 N 725.334 0.252008 4.62514 0
M  V30 7641 C 726.069 0.426404 5.71812 0
M  V30 7642 N 725.565 0.660155 6.89648 0
M  V30 7643 N 727.358 0.361926 5.60934 0
M  V30 7644 H 719.509 1.12001 1.8047 0
M  V30 7645 H 721.772 0.445679 0.836704 0
M  V30 7646 H 721.478 1.10778 3.33798 0
M  V30 7647 H 721.352 -0.599337 3.72408 0
M  V30 7648 H 723.739 -0.946662 2.79504 0
M  V30 7649 H 723.82 0.78383 2.43495 0
M  V30 7650 H 723.464 1.29311 4.91163 0
M  V30 7651 H 723.394 -0.455294 5.24628 0
M  V30 7652 H 725.885 0.0772102 3.77821 0
M  V30 7653 H 726.198 0.782529 7.68828 0
M  V30 7654 H 724.543 0.696835 6.91498 0
M  V30 7655 H 727.734 0.17986 4.67754 0
M  V30 7656 H 727.907 0.501263 6.46058 0
M  V30 7657 N 721.313 -1.57302 -0.09688 0
M  V30 7658 C 722.243 -2.0497 -1.11846 0
M  V30 7659 C 723.224 -0.938278 -1.41882 0
M  V30 7660 O 724.409 -1.20943 -1.51942 0
M  V30 7661 C 721.539 -2.47264 -2.43881 0
M  V30 7662 C 720.493 -3.62053 -2.28257 0
M  V30 7663 C 719.819 -3.90318 -3.65453 0
M  V30 7664 C 721.119 -4.93005 -1.72461 0
M  V30 7665 H 722.813 -2.90567 -0.721888 0
M  V30 7666 H 720.359 -1.39786 -0.345803 0
M  V30 7667 H 722.312 -2.7922 -3.15617 0
M  V30 7668 H 721.036 -1.58664 -2.8547 0
M  V30 7669 H 719.695 -3.30341 -1.58967 0
M  V30 7670 H 719.343 -2.98889 -4.04567 0
M  V30 7671 H 719.043 -4.67597 -3.55846 0
M  V30 7672 H 720.567 -4.24747 -4.3866 0
M  V30 7673 H 721.981 -5.23354 -2.34036 0
M  V30 7674 H 720.378 -5.74436 -1.73618 0
M  V30 7675 H 721.448 -4.80053 -0.683898 0
M  V30 7676 N 722.791 0.367657 -1.53252 0
M  V30 7677 C 724.039 1.10832 -1.68999 0
M  V30 7678 C 724.36 1.89894 -0.443306 0
M  V30 7679 O 723.63 1.88235 0.54262 0
M  V30 7680 H 722.21 0.412153 -0.623008 0
M  V30 7681 H 724.872 0.414775 -1.90435 0
M  V30 7682 H 723.968 1.7993 -2.55013 0
M  V30 7683 N 724.269 1.44576 0.627338 0
M  V30 7684 C 725.201 1.47724 1.75243 0
M  V30 7685 C 726.214 0.370193 1.58535 0
M  V30 7686 O 727.403 0.636151 1.66779 0
M  V30 7687 C 724.503 1.2991 3.13012 0
M  V30 7688 C 723.676 2.5393 3.56143 0
M  V30 7689 C 722.735 2.30961 4.72804 0
M  V30 7690 O 721.761 3.04469 4.80923 0
M  V30 7691 N 722.963 1.34261 5.6476 0
M  V30 7692 H 725.728 2.44718 1.73012 0
M  V30 7693 H 723.289 1.40064 0.812022 0
M  V30 7694 H 725.281 1.12385 3.88782 0
M  V30 7695 H 723.851 0.412668 3.09864 0
M  V30 7696 H 723.071 2.86707 2.70542 0
M  V30 7697 H 724.359 3.36411 3.81713 0
M  V30 7698 H 723.757 0.735573 5.60897 0
M  V30 7699 H 722.314 1.22713 6.40144 0
M  V30 7700 N 725.747 -0.868086 1.31537 0
M  V30 7701 C 727.024 -1.60384 1.11965 0
M  V30 7702 C 727.404 -2.08584 -0.324949 0
M  V30 7703 O 726.752 -1.86561 -1.31937 0
M  V30 7704 C 726.962 -2.76038 2.13551 0
M  V30 7705 C 728.31 -3.45954 2.46173 0
M  V30 7706 O 729.334 -2.86247 2.11993 0
M  V30 7707 O 728.193 -4.53666 3.04711 0
M  V30 7708 H 725.287 -0.705705 0.431172 0
M  V30 7709 H 727.833 -0.913385 1.43022 0
M  V30 7710 H 726.605 -2.37849 3.10714 0
M  V30 7711 H 726.228 -3.52769 1.83411 0
M  V30 7712 N 727.225 -1.14528 -1.08264 0
M  V30 7713 C 728.155 -0.856356 -2.1723 0
M  V30 7714 C 729.136 0.189251 -1.69044 0
M  V30 7715 O 730.321 0.0456119 -1.94146 0
M  V30 7716 C 727.451 -0.334662 -3.45684 0
M  V30 7717 C 726.405 -1.31588 -4.0727 0
M  V30 7718 C 725.731 -0.653428 -5.30692 0
M  V30 7719 C 727.031 -2.67866 -4.48381 0
M  V30 7720 H 728.725 -1.76755 -2.41657 0
M  V30 7721 H 726.271 -0.851287 -1.16143 0
M  V30 7722 H 728.224 -0.120128 -4.21229 0
M  V30 7723 H 726.948 0.611967 -3.20815 0
M  V30 7724 H 725.607 -1.51661 -3.33758 0
M  V30 7725 H 725.255 0.299054 -5.0211 0
M  V30 7726 H 724.955 -1.30817 -5.72853 0
M  V30 7727 H 726.479 -0.448453 -6.08951 0
M  V30 7728 H 727.893 -2.51692 -5.15096 0
M  V30 7729 H 726.29 -3.29627 -5.01464 0
M  V30 7730 H 727.36 -3.24632 -3.60198 0
M  V30 7731 O 728.742 1.2085 -1.07133 0
M  V30 7732 H 729.433 1.78311 -0.756635 0
M  V30 END ATOM
M  V30 BEGIN BOND
M  V30 END BOND
M  V30 END CTAB
M  END
$$$$
