drugbank_target|P0AEJ4 Osmolarity sensor protein EnvZ (DB04395)
 OpenBabel12092120043D

  0  0  0     0  0            999 V3000
M  V30 BEGIN CTAB
M  V30 COUNTS 7129 7203 0 0 0
M  V30 BEGIN ATOM
M  V30 1 H -0.908 1.98254 -0.117106 0
M  V30 2 N 0 1.576 0 0
M  V30 3 C 0.933 2.03868 1.02534 0
M  V30 4 C 1.911 0.928543 1.3348 0
M  V30 5 O 3.095 1.19667 1.45644 0
M  V30 6 C 0.222 2.43627 2.35294 0
M  V30 7 C -0.732 3.65373 2.2001 0
M  V30 8 S 0.101 5.13292 1.52614 0
M  V30 9 C 1.257 5.56322 2.86805 0
M  V30 10 H 1.49 2.90518 0.631377 0
M  V30 11 H -0.977 1.52953 0.210867 0
M  V30 12 H 0.981 2.67203 3.11629 0
M  V30 13 H -0.358 1.57376 2.7183 0
M  V30 14 H -1.165 3.90944 3.18086 0
M  V30 15 H -1.563 3.418 1.51819 0
M  V30 16 H 0.729 5.58782 3.83104 0
M  V30 17 H 1.672 6.56266 2.65933 0
M  V30 18 H 2.08 4.83886 2.90714 0
M  V30 19 N 1.4781 -0.272755 1.55222 0
M  V30 20 C 2.8941 -0.619959 1.47067 0
M  V30 21 C 3.0941 -1.895 0.684978 0
M  V30 22 O 2.1501 -2.51675 0.203931 0
M  V30 23 C 3.4631 -0.746693 2.91282 0
M  V30 24 C 5.0111 -0.840731 3.01497 0
M  V30 25 C 5.4861 -0.99924 4.46967 0
M  V30 26 N 6.9771 -1.06476 4.50796 0
M  V30 27 C 7.7121 -1.20621 5.6057 0
M  V30 28 N 7.2081 -1.31483 6.80209 0
M  V30 29 N 9.0011 -1.23733 5.48312 0
M  V30 30 H 1.1521 0.564606 2.04758 0
M  V30 31 H 3.4151 0.191177 0.928523 0
M  V30 32 H 3.1211 0.119753 3.51496 0
M  V30 33 H 2.9951 -1.6269 3.40311 0
M  V30 34 H 5.3821 -1.69764 2.41379 0
M  V30 35 H 5.4631 0.0640874 2.5572 0
M  V30 36 H 5.1071 -0.146984 5.07687 0
M  V30 37 H 5.0371 -1.91871 4.90401 0
M  V30 38 H 7.5281 -0.993196 3.64615 0
M  V30 39 H 7.8411 -1.42111 7.59621 0
M  V30 40 H 6.1861 -1.28487 6.8302 0
M  V30 41 H 9.3771 -1.14877 4.53785 0
M  V30 42 H 9.5501 -1.34412 6.33906 0
M  V30 43 N 2.9562 -1.48159 -0.537278 0
M  V30 44 C 4.3722 -1.34118 -0.865129 0
M  V30 45 C 4.5722 -0.346678 -1.98495 0
M  V30 46 O 3.6282 0.234715 -2.51407 0
M  V30 47 C 4.9412 -2.73963 -1.23954 0
M  V30 48 C 6.4892 -2.82397 -1.34984 0
M  V30 49 C 6.9642 -4.22928 -1.75772 0
M  V30 50 N 8.4552 -4.25566 -1.82887 0
M  V30 51 C 9.1902 -5.31235 -2.15817 0
M  V30 52 N 8.6862 -6.47189 -2.47222 0
M  V30 53 N 10.4792 -5.18624 -2.16761 0
M  V30 54 H 2.6302 -2.1144 0.201715 0
M  V30 55 H 4.8932 -0.947598 0.0275949 0
M  V30 56 H 4.5992 -3.48264 -0.490381 0
M  V30 57 H 4.4732 -3.0702 -2.19132 0
M  V30 58 H 6.8602 -2.08356 -2.08978 0
M  V30 59 H 6.9412 -2.5297 -0.379448 0
M  V30 60 H 6.5852 -4.97482 -1.02341 0
M  V30 61 H 6.5152 -4.49794 -2.73848 0
M  V30 62 H 9.0062 -3.41924 -1.60924 0
M  V30 63 H 9.3192 -7.23564 -2.71433 0
M  V30 64 H 7.6642 -6.50476 -2.44757 0
M  V30 65 H 10.8552 -4.27056 -1.91679 0
M  V30 66 H 11.0282 -6.01078 -2.42093 0
M  V30 67 N 4.4343 0.785586 -1.36625 0
M  V30 68 C 5.3643 1.91259 -1.33949 0
M  V30 69 C 6.3453 1.68795 -0.210325 0
M  V30 70 O 7.5303 1.89854 -0.408561 0
M  V30 71 C 4.6603 3.28339 -1.13186 0
M  V30 72 C 3.6143 3.65335 -2.22967 0
M  V30 73 C 2.9403 5.00806 -1.87342 0
M  V30 74 C 4.2403 3.7352 -3.65075 0
M  V30 75 H 5.9343 1.93755 -2.28253 0
M  V30 76 H 3.4803 0.930788 -1.09874 0
M  V30 77 H 5.4333 4.06804 -1.09948 0
M  V30 78 H 4.1573 3.2624 -0.153332 0
M  V30 79 H 2.8163 2.89169 -2.25337 0
M  V30 80 H 2.4643 4.95233 -0.880545 0
M  V30 81 H 2.1643 5.26529 -2.60846 0
M  V30 82 H 3.6883 5.81687 -1.85667 0
M  V30 83 H 5.1023 4.42168 -3.64911 0
M  V30 84 H 3.4993 4.10731 -4.37516 0
M  V30 85 H 4.5693 2.74527 -3.99703 0
M  V30 86 N 5.9124 1.20967 1.01018 0
M  V30 87 C 7.3284 0.965905 1.27053 0
M  V30 88 C 7.5284 -0.350785 1.98423 0
M  V30 89 O 6.5844 -1.07773 2.28344 0
M  V30 90 C 7.8974 2.15294 2.09926 0
M  V30 91 C 9.4454 2.19463 2.23171 0
M  V30 92 C 9.9204 3.3767 3.09424 0
M  V30 93 N 11.4114 3.37724 3.17012 0
M  V30 94 C 12.1464 4.25837 3.83993 0
M  V30 95 N 11.6424 5.24138 4.53047 0
M  V30 96 N 13.4354 4.1366 3.80581 0
M  V30 97 H 5.5864 2.0565 0.531194 0
M  V30 98 H 7.8494 0.90024 0.297106 0
M  V30 99 H 7.5554 3.10684 1.64828 0
M  V30 100 H 7.4294 2.13923 3.10672 0
M  V30 101 H 9.8164 1.24632 2.6749 0
M  V30 102 H 9.8974 2.2488 1.21912 0
M  V30 103 H 9.5414 4.32791 2.65808 0
M  V30 104 H 9.4714 3.29491 4.10784 0
M  V30 105 H 11.9624 2.6658 2.6785 0
M  V30 106 H 12.2754 5.87684 5.01844 0
M  V30 107 H 10.6204 5.28068 4.5185 0
M  V30 108 H 13.8114 3.36127 3.25785 0
M  V30 109 H 13.9844 4.82538 4.32505 0
M  V30 110 N 7.3905 -1.2043 1.01659 0
M  V30 111 C 8.6375 -1.89797 0.705917 0
M  V30 112 C 8.9655 -1.78848 -0.764439 0
M  V30 113 O 8.2205 -1.16694 -1.57102 0
M  V30 114 C 8.5195 -3.40464 1.08714 0
M  V30 115 C 8.1855 -3.71614 2.5537 0
M  V30 116 C 6.8475 -3.79826 2.95441 0
M  V30 117 C 9.1995 -3.85915 3.50313 0
M  V30 118 C 6.5275 -3.99797 4.29394 0
M  V30 119 C 8.8795 -4.07396 4.83954 0
M  V30 120 C 7.5435 -4.13837 5.23732 0
M  V30 121 H 6.8135 -0.694518 0.258313 0
M  V30 122 H 9.4605 -1.42691 1.27717 0
M  V30 123 H 7.7655 -3.89385 0.434309 0
M  V30 124 H 9.4625 -3.92433 0.824461 0
M  V30 125 H 6.0525 -3.65822 2.23321 0
M  V30 126 H 10.2365 -3.78926 3.20513 0
M  V30 127 H 5.4925 -4.03018 4.59768 0
M  V30 128 H 9.6665 -4.17404 5.57447 0
M  V30 129 H 7.2935 -4.29064 6.27541 0
M  V30 130 N 8.8686 -0.792821 -1.36206 0
M  V30 131 C 10.0936 -0.377701 -2.03932 0
M  V30 132 C 10.5186 0.998947 -1.59382 0
M  V30 133 O 9.8766 1.64421 -0.763903 0
M  V30 134 C 9.9246 -0.453635 -3.57735 0
M  V30 135 O 9.0286 0.538151 -4.08874 0
M  V30 136 H 8.3696 -0.159855 -0.644471 0
M  V30 137 H 10.8996 -1.07488 -1.7409 0
M  V30 138 H 10.9096 -0.318464 -4.06755 0
M  V30 139 H 9.5846 -1.45784 -3.89512 0
M  V30 140 H 8.1616 0.364359 -3.71116 0
M  V30 141 N 10.3467 1.47872 -0.545128 0
M  V30 142 C 11.7577 1.86384 -0.108581 0
M  V30 143 C 12.1087 1.45309 1.31832 0
M  V30 144 O 11.2337 0.850641 1.9898 0
M  V30 145 C 11.8287 3.38265 -0.190274 0
M  V30 146 C 10.3877 3.75914 0.191164 0
M  V30 147 C 9.5347 2.71926 -0.543273 0
M  V30 148 H 12.4857 1.39561 -0.755537 0
M  V30 149 H 12.5067 3.75831 0.594217 0
M  V30 150 H 12.0187 3.6813 -1.2289 0
M  V30 151 H 10.1197 3.51665 1.23136 0
M  V30 152 H 10.2327 4.78836 -0.158987 0
M  V30 153 H 8.5967 2.54697 0.0122495 0
M  V30 154 H 9.3797 3.04634 -1.58282 0
M  V30 155 N 11.8248 0.280983 1.55075 0
M  V30 156 C 13.2408 -0.0729964 1.59433 0
M  V30 157 C 13.4408 -1.5411 1.29817 0
M  V30 158 O 12.4968 -2.29086 1.06187 0
M  V30 159 C 13.8098 0.306921 2.9913 0
M  V30 160 C 15.3578 0.254023 3.11968 0
M  V30 161 C 15.8328 0.608467 4.5394 0
M  V30 162 N 17.3238 0.560241 4.59799 0
M  V30 163 C 18.0588 0.80722 5.6769 0
M  V30 164 N 17.5548 1.11912 6.83701 0
M  V30 165 N 19.3478 0.735623 5.57266 0
M  V30 166 H 11.4988 1.238 1.7259 0
M  V30 167 H 13.7618 0.500547 0.805082 0
M  V30 168 H 13.4678 1.32816 3.25657 0
M  V30 169 H 13.3418 -0.349363 3.75579 0
M  V30 170 H 15.7288 -0.75794 2.852 0
M  V30 171 H 15.8098 0.944649 2.37718 0
M  V30 172 H 15.4538 1.61814 4.81434 0
M  V30 173 H 15.3838 -0.104013 5.26497 0
M  V30 174 H 17.8748 0.329288 3.76463 0
M  V30 175 H 18.1878 1.29409 7.61888 0
M  V30 176 H 16.5328 1.15695 6.85303 0
M  V30 177 H 19.7238 0.491752 4.6551 0
M  V30 178 H 19.8968 0.931482 6.4127 0
M  V30 179 N 13.3029 -1.57598 0.00835791 0
M  V30 180 C 14.5279 -1.95617 -0.689103 0
M  V30 181 C 14.9529 -0.883753 -1.66046 0
M  V30 182 O 14.3109 0.157352 -1.80616 0
M  V30 183 C 14.3589 -3.32736 -1.38994 0
M  V30 184 O 13.4629 -3.27631 -2.50463 0
M  V30 185 H 12.8039 -0.638379 -0.182668 0
M  V30 186 H 15.3339 -2.045 0.064036 0
M  V30 187 H 15.3439 -3.68494 -1.75147 0
M  V30 188 H 14.0189 -4.1034 -0.677778 0
M  V30 189 H 12.5959 -3.03561 -2.16576 0
M  V30 190 N 14.781 0.264519 -1.55364 0
M  V30 191 C 16.006 1.01726 -1.80739 0
M  V30 192 C 16.431 1.78836 -0.583044 0
M  V30 193 O 15.789 1.75167 0.467566 0
M  V30 194 C 15.837 1.94482 -3.03659 0
M  V30 195 O 14.941 3.03386 -2.7934 0
M  V30 196 H 14.282 0.290395 -0.597132 0
M  V30 197 H 16.812 0.290854 -2.02522 0
M  V30 198 H 16.822 2.36278 -3.32621 0
M  V30 199 H 15.497 1.37772 -3.92418 0
M  V30 200 H 14.074 2.65844 -2.61498 0
M  V30 201 N 16.2591 1.48442 0.529413 0
M  V30 202 C 17.5061 1.56488 1.28521 0
M  V30 203 C 17.8341 0.239042 1.93025 0
M  V30 204 O 17.0891 -0.770713 1.79885 0
M  V30 205 C 17.3881 2.6523 2.39558 0
M  V30 206 C 17.0541 4.07648 1.92702 0
M  V30 207 C 15.7161 4.46411 1.79641 0
M  V30 208 C 18.0681 4.96896 1.573 0
M  V30 209 C 15.3961 5.72226 1.29514 0
M  V30 210 C 17.7481 6.23202 1.08636 0
M  V30 211 C 16.4121 6.60821 0.941919 0
M  V30 212 H 15.6821 0.572631 0.470292 0
M  V30 213 H 18.3291 1.82161 0.59072 0
M  V30 214 H 16.6341 2.33419 3.14679 0
M  V30 215 H 18.3311 2.68671 2.97686 0
M  V30 216 H 14.9211 3.77036 2.03819 0
M  V30 217 H 19.1051 4.67626 1.66251 0
M  V30 218 H 14.3611 6.00097 1.17019 0
M  V30 219 H 18.5351 6.91753 0.803136 0
M  V30 220 H 16.1621 7.58198 0.5513 0
M  V30 221 N 17.7372 -0.778329 1.37039 0
M  V30 222 C 18.7002 -1.87301 1.32102 0
M  V30 223 C 19.7002 -1.59198 0.226405 0
M  V30 224 O 20.8902 -1.67403 0.481861 0
M  V30 225 C 18.0222 -3.24309 1.05055 0
M  V30 226 H 19.2152 -1.93093 2.29467 0
M  V30 227 H 16.7682 -0.977358 1.21973 0
M  V30 228 H 17.5032 -3.24196 0.0819373 0
M  V30 229 H 17.2882 -3.46098 1.84279 0
M  V30 230 H 18.7782 -4.04382 1.04234 0
M  V30 231 N 19.2153 -1.21501 -1.00376 0
M  V30 232 C 20.6313 -0.972629 -1.26539 0
M  V30 233 C 20.8313 0.340257 -1.98606 0
M  V30 234 O 19.8873 1.06561 -2.28913 0
M  V30 235 C 21.2003 -2.16404 -2.08781 0
M  V30 236 C 22.7483 -2.20643 -2.22004 0
M  V30 237 C 23.2233 -3.39306 -3.07629 0
M  V30 238 N 24.7143 -3.39401 -3.15217 0
M  V30 239 C 25.4493 -4.27867 -3.81729 0
M  V30 240 N 24.9453 -5.26533 -4.5026 0
M  V30 241 N 26.7383 -4.15672 -3.78382 0
M  V30 242 H 18.8893 -2.05929 -0.520281 0
M  V30 243 H 21.1523 -0.901803 -0.292328 0
M  V30 244 H 20.8583 -3.11554 -1.63178 0
M  V30 245 H 20.7323 -2.15567 -3.09533 0
M  V30 246 H 23.1193 -1.26048 -2.66825 0
M  V30 247 H 23.2003 -2.25523 -1.20718 0
M  V30 248 H 22.8443 -4.34195 -2.63509 0
M  V30 249 H 22.7743 -3.31665 -4.09031 0
M  V30 250 H 25.2653 -2.67997 -2.66432 0
M  V30 251 H 25.5783 -5.90337 -4.98721 0
M  V30 252 H 23.9233 -5.30457 -4.49044 0
M  V30 253 H 27.1143 -3.3785 -3.23998 0
M  V30 254 H 27.2873 -4.84825 -4.2994 0
M  V30 255 N 20.6934 1.19889 -1.02296 0
M  V30 256 C 21.9214 1.9339 -0.735399 0
M  V30 257 C 22.3364 1.75148 0.704887 0
M  V30 258 O 21.6934 1.06954 1.47875 0
M  V30 259 C 21.7444 3.45313 -1.06962 0
M  V30 260 O 21.4654 3.62964 -2.45334 0
M  V30 261 C 22.9664 4.35948 -0.804021 0
M  V30 262 H 20.1864 0.61448 -0.269546 0
M  V30 263 H 22.7304 1.522 -1.36585 0
M  V30 264 H 20.8854 3.84359 -0.484455 0
M  V30 265 H 21.2994 4.56886 -2.57595 0
M  V30 266 H 22.7734 5.41174 -1.0879 0
M  V30 267 H 23.2504 4.3842 0.261691 0
M  V30 268 H 23.8564 4.02574 -1.37164 0
M  V30 269 N 22.1715 0.800033 1.35784 0
M  V30 270 C 23.1015 0.220184 2.3246 0
M  V30 271 C 24.0825 -0.65073 1.57161 0
M  V30 272 O 25.2675 -0.582359 1.85263 0
M  V30 273 C 22.3975 -0.637353 3.41402 0
M  V30 274 C 21.3515 0.134531 4.27789 0
M  V30 275 C 20.6775 -0.844285 5.27992 0
M  V30 276 C 21.9775 1.32979 5.05088 0
M  V30 277 H 23.6715 1.02787 2.81203 0
M  V30 278 H 21.2175 0.495717 1.35199 0
M  V30 279 H 23.1705 -1.05302 4.08031 0
M  V30 280 H 21.8945 -1.47785 2.91251 0
M  V30 281 H 20.5535 0.531296 3.6273 0
M  V30 282 H 20.2015 -1.68011 4.74111 0
M  V30 283 H 19.9015 -0.332184 5.8666 0
M  V30 284 H 21.4255 -1.2583 5.97494 0
M  V30 285 H 22.8395 0.98934 5.64699 0
M  V30 286 H 21.2365 1.77593 5.7322 0
M  V30 287 H 22.3065 2.11978 4.36111 0
M  V30 288 N 23.6496 -1.47581 0.552962 0
M  V30 289 C 24.5796 -2.32762 -0.185451 0
M  V30 290 C 25.5606 -1.43527 -0.912905 0
M  V30 291 O 26.7456 -1.72388 -0.894201 0
M  V30 292 C 23.8756 -3.25219 -1.21859 0
M  V30 293 C 22.8296 -4.23661 -0.607864 0
M  V30 294 C 22.1556 -5.05413 -1.74533 0
M  V30 295 C 23.4556 -5.20481 0.435582 0
M  V30 296 H 25.1496 -2.94749 0.525684 0
M  V30 297 H 22.6956 -1.41738 0.254251 0
M  V30 298 H 24.6486 -3.8365 -1.7433 0
M  V30 299 H 23.3726 -2.61279 -1.95961 0
M  V30 300 H 22.0316 -3.66451 -0.104489 0
M  V30 301 H 21.6796 -4.3788 -2.47529 0
M  V30 302 H 21.3796 -5.72059 -1.34249 0
M  V30 303 H 22.9036 -5.66701 -2.27338 0
M  V30 304 H 24.3176 -5.733 -0.00290157 0
M  V30 305 H 22.7146 -5.95305 0.757067 0
M  V30 306 H 23.7846 -4.66217 1.33303 0
M  V30 307 N 25.1277 -0.289203 -1.54924 0
M  V30 308 C 26.0577 0.58549 -2.2604 0
M  V30 309 C 27.0387 1.14753 -1.25562 0
M  V30 310 O 28.2237 1.17906 -1.54311 0
M  V30 311 C 25.3537 1.76305 -2.99222 0
M  V30 312 C 24.3077 1.33191 -4.06748 0
M  V30 313 C 23.6337 2.5937 -4.6758 0
M  V30 314 C 24.9337 0.471775 -5.20165 0
M  V30 315 H 26.6277 -0.00763532 -2.99399 0
M  V30 316 H 24.1737 -0.00511229 -1.43999 0
M  V30 317 H 26.1267 2.38097 -3.47689 0
M  V30 318 H 24.8507 2.38223 -2.23422 0
M  V30 319 H 23.5097 0.737121 -3.59113 0
M  V30 320 H 23.1577 3.19576 -3.88433 0
M  V30 321 H 22.8577 2.31228 -5.40192 0
M  V30 322 H 24.3817 3.21985 -5.18804 0
M  V30 323 H 25.7957 0.995056 -5.64599 0
M  V30 324 H 24.1927 0.284639 -5.99425 0
M  V30 325 H 25.2627 -0.506041 -4.82252 0
M  V30 326 N 26.6058 1.57591 -0.0167156 0
M  V30 327 C 27.8548 1.90461 0.663877 0
M  V30 328 C 28.1678 0.893515 1.73999 0
M  V30 329 O 29.3738 1.11302 2.47637 0
M  V30 330 C 27.8298 3.38155 1.23204 0
M  V30 331 C 27.4378 4.47597 0.189866 0
M  V30 332 C 29.1818 3.80111 1.88986 0
M  V30 333 C 27.0888 5.86379 0.768964 0
M  V30 334 H 26.0188 0.710738 0.251729 0
M  V30 335 H 28.6698 1.83326 -0.0799926 0
M  V30 336 H 27.0518 3.40182 2.02712 0
M  V30 337 H 28.2258 4.57112 -0.581846 0
M  V30 338 H 26.5408 4.14766 -0.368475 0
M  V30 339 H 29.1378 4.81145 2.33247 0
M  V30 340 H 29.4808 3.14511 2.72743 0
M  V30 341 H 30.0138 3.80454 1.16187 0
M  V30 342 H 26.7528 6.55493 -0.0301957 0
M  V30 343 H 26.2728 5.80496 1.50945 0
M  V30 344 H 27.9518 6.34563 1.26251 0
M  V30 345 N 28.0839 -0.256276 1.55502 0
M  V30 346 C 29.3299 -0.987079 1.77157 0
M  V30 347 C 29.6629 -1.85327 0.580315 0
M  V30 348 O 28.9379 -1.89874 -0.421686 0
M  V30 349 C 29.2209 -1.85553 3.08613 0
M  V30 350 C 29.0739 -1.01816 4.38125 0
M  V30 351 C 30.3929 -2.8397 3.36228 0
M  V30 352 H 27.5119 -0.357428 0.644526 0
M  V30 353 H 30.1539 -0.258239 1.88237 0
M  V30 354 H 28.3039 -2.47695 2.99298 0
M  V30 355 H 29.9759 -0.416159 4.59419 0
M  V30 356 H 28.2189 -0.322178 4.32602 0
M  V30 357 H 28.8899 -1.65939 5.26468 0
M  V30 358 H 31.3659 -2.31964 3.45445 0
M  V30 359 H 30.2419 -3.41864 4.29442 0
M  V30 360 H 30.5029 -3.59955 2.56681 0
M  V30 361 N 29.562 -1.4872 -0.521534 0
M  V30 362 C 30.79 -1.60843 -1.30142 0
M  V30 363 C 31.205 -0.271897 -1.86832 0
M  V30 364 O 30.562 0.739969 -1.66825 0
M  V30 365 C 30.613 -2.66155 -2.4463 0
M  V30 366 O 30.334 -3.94623 -1.90275 0
M  V30 367 C 31.835 -2.88795 -3.36322 0
M  V30 368 H 29.055 -0.542075 -0.395468 0
M  V30 369 H 31.599 -1.94609 -0.628285 0
M  V30 370 H 29.754 -2.35224 -3.07812 0
M  V30 371 H 30.168 -4.52468 -2.65279 0
M  V30 372 H 31.642 -3.66264 -4.12983 0
M  V30 373 H 32.119 -1.97934 -3.9207 0
M  V30 374 H 32.725 -3.21063 -2.78924 0
M  V30 375 N 31.0401 0.771051 -1.3745 0
M  V30 376 C 31.9701 1.89827 -1.3597 0
M  V30 377 C 32.9511 1.68562 -0.228216 0
M  V30 378 O 34.1361 1.8941 -0.428675 0
M  V30 379 C 31.2661 3.2712 -1.16662 0
M  V30 380 C 30.2201 3.6295 -2.2683 0
M  V30 381 C 29.5461 4.98791 -1.92644 0
M  V30 382 C 30.8461 3.69627 -3.69017 0
M  V30 383 H 32.5401 1.91323 -2.30295 0
M  V30 384 H 30.0861 0.919082 -1.10855 0
M  V30 385 H 32.0391 4.05615 -1.14256 0
M  V30 386 H 30.7631 3.26059 -0.187926 0
M  V30 387 H 29.4221 2.86763 -2.28392 0
M  V30 388 H 29.0701 4.94271 -0.933021 0
M  V30 389 H 28.7701 5.23733 -2.66416 0
M  V30 390 H 30.2941 5.79685 -1.91826 0
M  V30 391 H 31.7081 4.38273 -3.69581 0
M  V30 392 H 30.1051 4.06067 -4.41848 0
M  V30 393 H 31.1751 2.70273 -4.02592 0
M  V30 394 N 32.5182 1.22032 0.997298 0
M  V30 395 C 33.4482 1.01065 2.10495 0
M  V30 396 C 34.4292 -0.0669542 1.69968 0
M  V30 397 O 35.6142 0.0943987 1.9397 0
M  V30 398 C 32.7442 0.582874 3.42374 0
M  V30 399 C 31.6982 1.60592 3.96729 0
M  V30 400 C 31.0242 1.03412 5.24605 0
M  V30 401 C 32.3242 2.99478 4.27914 0
M  V30 402 H 34.0182 1.93708 2.28292 0
M  V30 403 H 31.5642 0.932761 1.09707 0
M  V30 404 H 33.5172 0.423332 4.19268 0
M  V30 405 H 32.2412 -0.379213 3.24391 0
M  V30 406 H 30.9002 1.75316 3.21963 0
M  V30 407 H 30.5482 0.063518 5.0296 0
M  V30 408 H 30.2482 1.71754 5.61938 0
M  V30 409 H 31.7722 0.886066 6.04137 0
M  V30 410 H 33.1862 2.88153 4.95622 0
M  V30 411 H 31.5832 3.64903 4.76409 0
M  V30 412 H 32.6532 3.49742 3.3587 0
M  V30 413 N 33.9963 -1.19345 1.0293 0
M  V30 414 C 35.2433 -1.89038 0.726008 0
M  V30 415 C 35.5713 -1.79649 -0.745427 0
M  V30 416 O 34.8263 -1.18354 -1.55855 0
M  V30 417 C 35.1253 -3.39292 1.12319 0
M  V30 418 C 34.7913 -3.68885 2.59297 0
M  V30 419 C 33.4533 -3.76671 2.99453 0
M  V30 420 C 35.8053 -3.82178 3.54386 0
M  V30 421 C 33.1333 -3.9522 4.33611 0
M  V30 422 C 35.4853 -4.0224 4.88248 0
M  V30 423 C 34.1493 -4.08259 5.28092 0
M  V30 424 H 33.4193 -0.691739 0.265665 0
M  V30 425 H 36.0663 -1.41328 1.29223 0
M  V30 426 H 34.3713 -3.88903 0.475584 0
M  V30 427 H 36.0683 -3.91536 0.866037 0
M  V30 428 H 32.6583 -3.63433 2.27189 0
M  V30 429 H 36.8423 -3.75505 3.24514 0
M  V30 430 H 32.0983 -3.98119 4.64016 0
M  V30 431 H 36.2723 -4.11468 5.61843 0
M  V30 432 H 33.8993 -4.22384 6.32057 0
M  V30 433 N 35.4744 -0.807222 -1.35358 0
M  V30 434 C 36.4374 -0.223665 -2.28106 0
M  V30 435 C 37.4374 0.589354 -1.4961 0
M  V30 436 O 38.6274 0.407745 -1.69361 0
M  V30 437 C 35.7594 0.688149 -3.33882 0
M  V30 438 H 36.9524 -1.04169 -2.81227 0
M  V30 439 H 34.5054 -0.577921 -1.45223 0
M  V30 440 H 35.2404 1.52984 -2.85948 0
M  V30 441 H 35.0254 0.10687 -3.91954 0
M  V30 442 H 36.5154 1.09075 -4.03104 0
M  V30 443 N 36.9525 1.47285 -0.560781 0
M  V30 444 C 38.1775 2.07359 -0.0410566 0
M  V30 445 C 38.6025 1.41017 1.24483 0
M  V30 446 O 37.9605 0.486368 1.74654 0
M  V30 447 C 38.0085 3.6035 0.134123 0
M  V30 448 O 37.1125 3.94681 1.19587 0
M  V30 449 H 36.4535 0.661887 -0.0529291 0
M  V30 450 H 38.9835 1.89252 -0.777482 0
M  V30 451 H 38.9935 4.0652 0.347207 0
M  V30 452 H 37.6685 4.08034 -0.805047 0
M  V30 453 H 36.2455 3.60251 0.962987 0
M  V30 454 N 38.4306 0.297415 1.54768 0
M  V30 455 C 39.3606 -0.573494 2.26348 0
M  V30 456 C 40.3416 -1.14085 1.26169 0
M  V30 457 O 41.5266 -1.17086 1.54934 0
M  V30 458 C 38.6566 -1.74716 3.00153 0
M  V30 459 C 37.6106 -1.31032 4.07449 0
M  V30 460 C 36.9366 -2.56887 4.68949 0
M  V30 461 C 38.2366 -0.444183 5.20408 0
M  V30 462 H 39.9306 0.0235131 2.99391 0
M  V30 463 H 37.4766 0.0127488 1.43994 0
M  V30 464 H 39.4296 -2.3625 3.48947 0
M  V30 465 H 38.1536 -2.37035 2.24682 0
M  V30 466 H 36.8126 -0.718066 3.59499 0
M  V30 467 H 36.4606 -3.17512 3.90122 0
M  V30 468 H 36.1606 -2.2836 5.41411 0
M  V30 469 H 37.6846 -3.19229 5.20505 0
M  V30 470 H 39.0986 -0.9651 5.65118 0
M  V30 471 H 37.4956 -0.252846 5.99567 0
M  V30 472 H 38.5656 0.531609 4.81977 0
M  V30 473 N 39.9087 -1.5758 0.0250728 0
M  V30 474 C 41.1547 -1.91917 -0.655413 0
M  V30 475 C 41.4877 -0.901433 -1.72011 0
M  V30 476 O 40.7627 0.0764069 -1.9435 0
M  V30 477 C 41.0457 -3.36751 -1.27558 0
M  V30 478 C 40.8987 -4.49258 -0.220719 0
M  V30 479 C 42.2177 -3.81469 -2.19475 0
M  V30 480 H 39.3367 -0.697925 -0.23679 0
M  V30 481 H 41.9787 -1.89825 0.0815036 0
M  V30 482 H 40.1287 -3.38664 -1.90365 0
M  V30 483 H 41.8007 -4.59478 0.409601 0
M  V30 484 H 40.0437 -4.31415 0.454264 0
M  V30 485 H 40.7147 -5.47618 -0.694175 0
M  V30 486 H 43.1907 -3.81266 -1.66659 0
M  V30 487 H 42.0667 -4.83512 -2.59822 0
M  V30 488 H 42.3277 -3.16744 -3.08424 0
M  V30 489 N 41.3868 0.248026 -1.55636 0
M  V30 490 C 42.6148 0.993808 -1.81469 0
M  V30 491 C 43.0298 1.78991 -0.60064 0
M  V30 492 O 42.3868 1.77345 0.430682 0
M  V30 493 C 42.4378 1.93258 -3.05506 0
M  V30 494 O 42.1588 1.16869 -4.22224 0
M  V30 495 C 43.6598 2.79444 -3.4413 0
M  V30 496 H 40.8798 0.292486 -0.603898 0
M  V30 497 H 43.4238 0.271253 -2.02693 0
M  V30 498 H 41.5788 2.60943 -2.86335 0
M  V30 499 H 41.9928 1.80359 -4.92515 0
M  V30 500 H 43.4668 3.41066 -4.34026 0
M  V30 501 H 43.9438 3.50499 -2.64665 0
M  V30 502 H 44.5498 2.17214 -3.65648 0
M  V30 503 N 42.8649 1.48995 0.513639 0
M  V30 504 C 44.0929 1.61531 1.29288 0
M  V30 505 C 44.5079 0.281801 1.86685 0
M  V30 506 O 43.8649 -0.731111 1.67215 0
M  V30 507 C 43.9159 2.67449 2.43215 0
M  V30 508 O 43.6369 3.95626 1.88179 0
M  V30 509 C 45.1379 2.90575 3.34785 0
M  V30 510 H 42.3579 0.544165 0.392588 0
M  V30 511 H 44.9019 1.9494 0.617956 0
M  V30 512 H 43.0569 2.36853 3.0656 0
M  V30 513 H 43.4709 4.53868 2.62876 0
M  V30 514 H 44.9449 3.68449 4.11035 0
M  V30 515 H 45.4219 2.00011 3.91015 0
M  V30 516 H 46.0279 3.22538 2.77218 0
M  V30 517 N 44.343 -0.763751 1.37857 0
M  V30 518 C 45.573 -1.55067 1.3652 0
M  V30 519 C 45.981 -1.89135 -0.0494227 0
M  V30 520 O 45.324 -1.52529 -1.02375 0
M  V30 521 C 45.386 -2.8838 2.14656 0
M  V30 522 C 45.05 -2.76905 3.63555 0
M  V30 523 C 46.047 -2.4739 4.57268 0
M  V30 524 C 43.732 -2.94676 4.06781 0
M  V30 525 C 45.726 -2.35786 5.92186 0
M  V30 526 C 43.413 -2.82692 5.41782 0
M  V30 527 C 44.411 -2.53289 6.34298 0
M  V30 528 O 44.099 -2.41345 7.66817 0
M  V30 529 H 43.831 -0.486776 0.469069 0
M  V30 530 H 46.385 -0.953812 1.81911 0
M  V30 531 H 44.615 -3.50217 1.63967 0
M  V30 532 H 46.304 -3.49828 2.05852 0
M  V30 533 H 47.07 -2.33339 4.2518 0
M  V30 534 H 42.949 -3.16563 3.35126 0
M  V30 535 H 46.493 -2.12757 6.64365 0
M  V30 536 H 42.39 -2.96314 5.7347 0
M  V30 537 H 43.158 -2.56634 7.77226 0
M  V30 538 N 45.8211 -1.22559 -0.990812 0
M  V30 539 C 46.7511 -1.0218 -2.09956 0
M  V30 540 C 47.7321 0.0579394 -1.70001 0
M  V30 541 O 48.9171 -0.104684 -1.93918 0
M  V30 542 C 46.0471 -0.601023 -3.4206 0
M  V30 543 C 45.0011 -1.62694 -3.95872 0
M  V30 544 C 44.3271 -1.06193 -5.24049 0
M  V30 545 C 45.6271 -3.01743 -4.2632 0
M  V30 546 H 47.3211 -1.94916 -2.27262 0
M  V30 547 H 44.8671 -0.938566 -1.09211 0
M  V30 548 H 46.8201 -0.445561 -4.19038 0
M  V30 549 H 45.5441 0.362005 -3.24588 0
M  V30 550 H 44.2031 -1.77021 -3.21028 0
M  V30 551 H 43.8511 -0.0901903 -5.02919 0
M  V30 552 H 43.5511 -1.74732 -5.61019 0
M  V30 553 H 45.0751 -0.918092 -6.03658 0
M  V30 554 H 46.4891 -2.90777 -4.94087 0
M  V30 555 H 44.8861 -3.67425 -4.74467 0
M  V30 556 H 45.9561 -3.51518 -3.34011 0
M  V30 557 N 47.2992 1.18797 -1.03562 0
M  V30 558 C 48.5452 1.8893 -0.737113 0
M  V30 559 C 48.8782 1.79837 0.732956 0
M  V30 560 O 48.1532 1.19525 1.5344 0
M  V30 561 C 48.4362 3.39607 -1.19745 0
M  V30 562 C 48.2892 3.57537 -2.72924 0
M  V30 563 C 49.6082 4.33069 -0.783526 0
M  V30 564 H 46.7272 0.686057 -0.269249 0
M  V30 565 H 49.3692 1.39797 -1.28673 0
M  V30 566 H 47.5192 3.81583 -0.729855 0
M  V30 567 H 49.1912 3.24688 -3.27682 0
M  V30 568 H 47.4342 3.00363 -3.12993 0
M  V30 569 H 48.1052 4.63238 -3.00191 0
M  V30 570 H 50.5812 3.98846 -1.18581 0
M  V30 571 H 49.4572 5.3707 -1.13343 0
M  V30 572 H 49.7182 4.40986 0.313681 0
M  V30 573 N 48.7773 0.814389 1.34928 0
M  V30 574 C 50.0233 0.399013 1.98836 0
M  V30 575 C 50.3563 -1.03314 1.64438 0
M  V30 576 O 49.6313 -1.71811 0.911659 0
M  V30 577 C 49.9143 0.591629 3.55207 0
M  V30 578 C 49.7673 2.06928 3.99376 0
M  V30 579 C 51.0863 0.022199 4.40094 0
M  V30 580 H 48.2053 0.146451 0.722303 0
M  V30 581 H 50.8473 1.02537 1.59957 0
M  V30 582 H 48.9973 0.0584441 3.88456 0
M  V30 583 H 50.6693 2.66544 3.76499 0
M  V30 584 H 48.9123 2.56287 3.49999 0
M  V30 585 H 49.5833 2.1549 5.08201 0
M  V30 586 H 52.0593 0.477643 4.13349 0
M  V30 587 H 50.9353 0.186832 5.48582 0
M  V30 588 H 51.1963 -1.07215 4.28902 0
M  V30 589 N 50.2554 -1.46986 0.568584 0
M  V30 590 C 51.1854 -2.32946 -0.160753 0
M  V30 591 C 52.1664 -1.44487 -0.897631 0
M  V30 592 O 53.3514 -1.73327 -0.875867 0
M  V30 593 C 50.4814 -3.26494 -1.18403 0
M  V30 594 C 49.4354 -4.24282 -0.562895 0
M  V30 595 C 48.7614 -5.07236 -1.69163 0
M  V30 596 C 50.0614 -5.19989 0.490761 0
M  V30 597 H 51.7554 -2.94175 0.556916 0
M  V30 598 H 49.3014 -1.4146 0.26927 0
M  V30 599 H 51.2544 -3.85477 -1.70251 0
M  V30 600 H 49.9784 -2.63343 -1.93179 0
M  V30 601 H 48.6374 -3.66541 -0.0656164 0
M  V30 602 H 48.2854 -4.4048 -2.42871 0
M  V30 603 H 47.9854 -5.7345 -1.28174 0
M  V30 604 H 49.5094 -5.6908 -2.21314 0
M  V30 605 H 50.9234 -5.73271 0.0579047 0
M  V30 606 H 49.3204 -5.94469 0.820165 0
M  V30 607 H 50.3904 -4.64777 1.3824 0
M  V30 608 N 51.7335 -0.305618 -1.54608 0
M  V30 609 C 52.6815 0.584119 -2.25146 0
M  V30 610 C 53.6755 1.13326 -1.25911 0
M  V30 611 O 54.8815 1.08337 -1.43747 0
M  V30 612 H 51.2565 0.206983 -0.722954 0
M  V30 613 H 53.2275 -0.033291 -2.98381 0
M  V30 614 C 51.9765 1.74225 -3.009 0
M  V30 615 H 51.2995 1.32892 -3.77067 0
M  V30 616 H 52.7395 2.34077 -3.53531 0
M  V30 617 C 51.1985 2.64914 -2.0814 0
M  V30 618 O 51.7285 3.66137 -1.65246 0
M  V30 619 N 49.9345 2.3275 -1.74 0
M  V30 620 H 49.4815 1.50479 -2.09078 0
M  V30 621 H 49.4395 2.93694 -1.12211 0
M  V30 622 N 53.2116 1.57565 -0.0334293 0
M  V30 623 C 54.4586 1.91978 0.644272 0
M  V30 624 C 54.7866 0.910231 1.71887 0
M  V30 625 O 54.0416 -0.0801961 1.95536 0
M  V30 626 C 54.3406 3.33112 1.29504 0
M  V30 627 C 54.0066 4.49537 0.350388 0
M  V30 628 C 52.6686 4.81115 0.0903974 0
M  V30 629 C 55.0206 5.20347 -0.298032 0
M  V30 630 C 52.3486 5.8086 -0.825746 0
M  V30 631 C 54.7006 6.2107 -1.20226 0
M  V30 632 C 53.3646 6.51088 -1.4711 0
M  V30 633 H 52.6346 0.702496 0.235756 0
M  V30 634 H 55.2816 1.91259 -0.0961176 0
M  V30 635 H 53.5866 3.30113 2.11028 0
M  V30 636 H 55.2836 3.57011 1.82603 0
M  V30 637 H 51.8736 4.24883 0.563205 0
M  V30 638 H 56.0576 4.96178 -0.110234 0
M  V30 639 H 51.3136 6.02461 -1.04169 0
M  V30 640 H 55.4876 6.75057 -1.71086 0
M  V30 641 H 53.1146 7.28193 -2.18264 0
M  V30 642 N 54.6897 -0.239769 1.55765 0
M  V30 643 C 55.6527 -1.28038 1.90103 0
M  V30 644 C 56.6527 -1.40723 0.778055 0
M  V30 645 O 57.8427 -1.39301 1.04599 0
M  V30 646 C 54.9747 -2.65702 2.13577 0
M  V30 647 H 56.1677 -0.988048 2.83157 0
M  V30 648 H 53.7207 -0.479382 1.48767 0
M  V30 649 H 54.4557 -3.00063 1.23015 0
M  V30 650 H 54.2407 -2.57875 2.95369 0
M  V30 651 H 55.7307 -3.40828 2.41301 0
M  V30 652 N 56.1678 -1.49265 -0.50573 0
M  V30 653 C 57.4168 -1.57761 -1.25675 0
M  V30 654 C 57.7298 -0.267371 -1.93764 0
M  V30 655 O 58.9358 -0.230827 -2.70517 0
M  V30 656 C 57.3918 -2.78332 -2.28165 0
M  V30 657 C 56.9998 -4.16096 -1.66037 0
M  V30 658 C 58.7438 -2.96155 -3.04125 0
M  V30 659 C 56.6508 -5.27895 -2.6661 0
M  V30 660 H 55.5808 -0.587391 -0.472745 0
M  V30 661 H 58.2318 -1.75644 -0.53118 0
M  V30 662 H 56.6138 -2.53934 -3.03865 0
M  V30 663 H 57.7878 -4.50612 -0.963622 0
M  V30 664 H 56.1028 -4.03591 -1.02484 0
M  V30 665 H 58.6998 -3.76849 -3.79327 0
M  V30 666 H 59.0428 -2.06534 -3.61455 0
M  V30 667 H 59.5758 -3.2057 -2.35541 0
M  V30 668 H 56.3148 -6.1956 -2.14068 0
M  V30 669 H 55.8348 -4.97839 -3.34539 0
M  V30 670 H 57.5138 -5.57031 -3.29129 0
M  V30 671 N 57.6459 0.756429 -1.3826 0
M  V30 672 C 58.5759 1.88374 -1.37976 0
M  V30 673 C 59.5569 1.68311 -0.246082 0
M  V30 674 O 60.7419 1.88944 -0.44874 0
M  V30 675 C 57.8719 3.25864 -1.20125 0
M  V30 676 C 56.8259 3.60523 -2.30666 0
M  V30 677 C 56.1519 4.9672 -1.97923 0
M  V30 678 C 57.4519 3.65692 -3.72916 0
M  V30 679 H 59.1459 1.88869 -2.32312 0
M  V30 680 H 56.6919 0.907272 -1.11824 0
M  V30 681 H 58.6449 4.0438 -1.18552 0
M  V30 682 H 57.3689 3.25841 -0.222498 0
M  V30 683 H 56.0279 2.84324 -2.3142 0
M  V30 684 H 55.6759 4.93253 -0.985393 0
M  V30 685 H 55.3759 5.20878 -2.71955 0
M  V30 686 H 56.8999 5.77618 -1.97964 0
M  V30 687 H 58.3139 4.34328 -3.74208 0
M  V30 688 H 56.7109 4.01358 -4.4613 0
M  V30 689 H 57.7809 2.65987 -4.05436 0
M  V30 690 N 59.124 1.23083 0.984299 0
M  V30 691 C 60.535 1.05609 1.5396 0
M  V30 692 C 60.886 -0.377793 1.92528 0
M  V30 693 O 60.011 -1.26398 1.75649 0
M  V30 694 C 60.606 1.91087 2.7977 0
M  V30 695 C 59.165 1.77885 3.31713 0
M  V30 696 C 58.312 1.87028 2.04733 0
M  V30 697 H 61.263 1.36802 0.804419 0
M  V30 698 H 61.284 1.43336 3.5247 0
M  V30 699 H 60.796 2.9544 2.51668 0
M  V30 700 H 58.897 0.762995 3.64704 0
M  V30 701 H 59.01 2.61047 4.01735 0
M  V30 702 H 57.374 1.30565 2.18689 0
M  V30 703 H 58.157 2.92929 1.79017 0
M  V30 704 N 60.6021 -1.18246 1.0419 0
M  V30 705 C 61.8271 -1.92736 0.765996 0
M  V30 706 C 62.2521 -1.75728 -0.67091 0
M  V30 707 O 61.6101 -1.06825 -1.46486 0
M  V30 708 C 61.6581 -3.42148 1.13875 0
M  V30 709 O 60.7621 -4.11548 0.264954 0
M  V30 710 H 60.1031 -0.601238 0.281797 0
M  V30 711 H 62.6331 -1.49942 1.39207 0
M  V30 712 H 62.6431 -3.92858 1.1012 0
M  V30 713 H 61.3181 -3.53848 2.18551 0
M  V30 714 H 59.8951 -3.71137 0.362226 0
M  V30 715 N 62.0802 -0.821533 -1.34494 0
M  V30 716 C 63.0102 -0.257138 -2.3208 0
M  V30 717 C 63.9912 0.625645 -1.58176 0
M  V30 718 O 65.1762 0.552811 -1.86166 0
M  V30 719 C 62.3062 0.582958 -3.42372 0
M  V30 720 C 61.2602 -0.202571 -4.2752 0
M  V30 721 C 60.5862 0.760179 -5.29269 0
M  V30 722 C 61.8862 -1.40998 -5.02908 0
M  V30 723 H 63.5802 -1.07247 -2.79532 0
M  V30 724 H 61.1262 -0.517163 -1.34393 0
M  V30 725 H 63.0792 0.987972 -4.09655 0
M  V30 726 H 61.8032 1.43133 -2.93565 0
M  V30 727 H 60.4622 -0.588936 -3.61838 0
M  V30 728 H 60.1102 1.60447 -4.76724 0
M  V30 729 H 59.8102 0.238809 -5.87115 0
M  V30 730 H 61.3342 1.16308 -5.9942 0
M  V30 731 H 62.7482 -1.07905 -5.63054 0
M  V30 732 H 61.1452 -1.86689 -5.70322 0
M  V30 733 H 62.2152 -2.1889 -4.32684 0
M  V30 734 N 63.5583 1.46682 -0.576371 0
M  V30 735 C 64.4903 2.28341 0.198231 0
M  V30 736 C 65.5033 1.38141 0.861453 0
M  V30 737 O 66.6923 1.62797 0.732082 0
M  V30 738 C 63.7923 3.12986 1.29972 0
M  V30 739 C 62.9653 4.31271 0.729639 0
M  V30 740 C 62.0243 4.97363 1.71803 0
M  V30 741 O 61.0503 5.55156 1.25658 0
M  V30 742 N 62.2523 4.93796 3.05198 0
M  V30 743 H 65.0173 2.9546 -0.502324 0
M  V30 744 H 62.5783 1.56525 -0.413715 0
M  V30 745 H 64.5703 3.54066 1.96008 0
M  V30 746 H 63.1403 2.47984 1.90323 0
M  V30 747 H 62.3603 3.94052 -0.108012 0
M  V30 748 H 63.6483 5.07739 0.328438 0
M  V30 749 H 63.0463 4.48077 3.45317 0
M  V30 750 H 61.6033 5.38837 3.6674 0
M  V30 751 N 65.0364 0.313813 1.54444 0
M  V30 752 C 65.9684 -0.590425 2.21465 0
M  V30 753 C 66.9814 -1.08753 1.21147 0
M  V30 754 O 68.1704 -1.00278 1.4767 0
M  V30 755 C 65.2704 -1.82179 2.85769 0
M  V30 756 C 64.4434 -1.46502 4.12136 0
M  V30 757 C 63.5024 -2.55288 4.60124 0
M  V30 758 O 62.5284 -2.19842 5.25032 0
M  V30 759 N 63.7304 -3.86053 4.33525 0
M  V30 760 H 66.4954 -0.0166033 2.99695 0
M  V30 761 H 64.0564 0.136578 1.61323 0
M  V30 762 H 66.0484 -2.54328 3.14801 0
M  V30 763 H 64.6184 -2.30369 2.11303 0
M  V30 764 H 63.8384 -0.575595 3.89975 0
M  V30 765 H 65.1264 -1.20221 4.94393 0
M  V30 766 H 64.5244 -4.17654 3.81552 0
M  V30 767 H 63.0814 -4.54461 4.67235 0
M  V30 768 N 66.5145 -1.57545 0.0417849 0
M  V30 769 C 67.7615 -1.92317 -0.634082 0
M  V30 770 C 68.0895 -0.919334 -1.71402 0
M  V30 771 O 67.3445 0.0698253 -1.95575 0
M  V30 772 C 67.6435 -3.33794 -1.27735 0
M  V30 773 C 67.3095 -4.49716 -0.326543 0
M  V30 774 C 65.9715 -4.81156 -0.0648814 0
M  V30 775 C 68.3235 -5.20182 0.325623 0
M  V30 776 C 65.6515 -5.80414 0.856539 0
M  V30 777 C 68.0035 -6.20424 1.23518 0
M  V30 778 C 66.6675 -6.50298 1.5056 0
M  V30 779 H 65.9375 -0.703736 -0.232027 0
M  V30 780 H 68.5845 -1.91205 0.106259 0
M  V30 781 H 66.8895 -3.31228 -2.09274 0
M  V30 782 H 68.5865 -3.57975 -1.80707 0
M  V30 783 H 65.1765 -4.25176 -0.540665 0
M  V30 784 H 69.3605 -4.96112 0.136546 0
M  V30 785 H 64.6165 -6.019 1.07363 0
M  V30 786 H 68.7905 -6.74141 1.74664 0
M  V30 787 H 66.4175 -7.27025 2.22123 0
M  V30 788 N 67.9926 0.231505 -1.5589 0
M  V30 789 C 68.9406 1.30649 -1.92441 0
M  V30 790 C 69.9346 1.49037 -0.805254 0
M  V30 791 O 71.1406 1.50329 -0.990007 0
M  V30 792 H 67.5156 0.437812 -0.611412 0
M  V30 793 H 69.4866 0.970973 -2.82161 0
M  V30 794 C 68.2356 2.65179 -2.24889 0
M  V30 795 H 67.5586 2.51835 -3.10514 0
M  V30 796 H 68.9986 3.39234 -2.54355 0
M  V30 797 C 67.4576 3.19439 -1.07054 0
M  V30 798 O 67.9876 4.00371 -0.326499 0
M  V30 799 N 66.1936 2.77675 -0.85703 0
M  V30 800 H 65.7406 2.11969 -1.46379 0
M  V30 801 H 65.6986 3.14321 -0.0703223 0
M  V30 802 N 69.4707 1.49531 0.497807 0
M  V30 803 C 70.4177 1.66436 1.59899 0
M  V30 804 C 71.3877 0.505793 1.58212 0
M  V30 805 O 72.5727 0.733202 1.7615 0
M  V30 806 C 69.7127 1.7399 2.98029 0
M  V30 807 C 68.8257 3.01172 3.09708 0
M  V30 808 C 67.9607 2.99686 4.38591 0
M  V30 809 C 66.9997 4.21434 4.43914 0
M  V30 810 N 66.1367 4.1784 5.64229 0
M  V30 811 H 70.9767 2.60459 1.44793 0
M  V30 812 H 68.5137 1.29137 0.704423 0
M  V30 813 H 70.4717 1.76352 3.78095 0
M  V30 814 H 69.1017 0.834301 3.11832 0
M  V30 815 H 68.1537 3.08408 2.22685 0
M  V30 816 H 69.4657 3.91165 3.09502 0
M  V30 817 H 68.6197 3.00628 5.2698 0
M  V30 818 H 67.3587 2.07477 4.41367 0
M  V30 819 H 66.3637 4.20733 3.53926 0
M  V30 820 H 67.5887 5.14839 4.42851 0
M  V30 821 H 65.5347 3.28469 5.67841 0
M  V30 822 H 65.4517 5.01571 5.65652 0
M  V30 823 H 66.7197 4.22889 6.54817 0
M  V30 824 N 70.9488 -0.749086 1.3866 0
M  V30 825 C 72.1948 -1.51056 1.35314 0
M  V30 826 C 72.5278 -1.94121 -0.0553751 0
M  V30 827 O 71.8028 -1.65763 -1.01749 0
M  V30 828 C 72.0858 -2.76003 2.31288 0
M  V30 829 C 71.9388 -2.39047 3.8102 0
M  V30 830 C 73.2578 -3.78046 2.2532 0
M  V30 831 H 70.3768 -0.547972 0.492844 0
M  V30 832 H 73.0188 -0.857628 1.69543 0
M  V30 833 H 71.1688 -3.31716 2.02229 0
M  V30 834 H 72.8408 -1.89074 4.20771 0
M  V30 835 H 71.0838 -1.71449 3.98482 0
M  V30 836 H 71.7548 -3.28462 4.4364 0
M  V30 837 H 74.2308 -3.31884 2.50983 0
M  V30 838 H 73.1068 -4.63159 2.94576 0
M  V30 839 H 73.3678 -4.23957 1.25352 0
M  V30 840 N 72.4269 -1.23603 -0.977757 0
M  V30 841 C 73.3569 -1.04401 -2.0886 0
M  V30 842 C 74.3379 0.0399052 -1.70053 0
M  V30 843 O 75.5229 -0.125246 -1.93796 0
M  V30 844 C 72.6529 -0.637269 -3.41403 0
M  V30 845 C 71.6069 -1.66883 -3.94124 0
M  V30 846 C 70.9329 -1.11745 -5.22893 0
M  V30 847 C 72.2329 -3.06247 -4.23096 0
M  V30 848 H 73.9269 -1.97316 -2.25182 0
M  V30 849 H 71.4729 -0.950096 -1.08209 0
M  V30 850 H 73.4259 -0.48998 -4.18542 0
M  V30 851 H 72.1499 0.327557 -3.24953 0
M  V30 852 H 70.8089 -1.80416 -3.19133 0
M  V30 853 H 70.4569 -0.143527 -5.02795 0
M  V30 854 H 70.1569 -1.80672 -5.59134 0
M  V30 855 H 71.6809 -0.982067 -6.02651 0
M  V30 856 H 73.0949 -2.96001 -4.90975 0
M  V30 857 H 71.4919 -3.72436 -4.70544 0
M  V30 858 H 72.5619 -3.55041 -3.30263 0
M  V30 859 N 73.905 1.17692 -1.04816 0
M  V30 860 C 74.868 2.19787 -0.650117 0
M  V30 861 C 75.868 1.58044 0.296427 0
M  V30 862 O 77.058 1.74012 0.0808097 0
M  V30 863 C 74.19 3.40869 0.0456987 0
M  V30 864 H 75.383 2.56516 -1.5537 0
M  V30 865 H 72.936 1.31708 -0.841594 0
M  V30 866 H 73.671 3.09681 0.962726 0
M  V30 867 H 73.456 3.86928 -0.634727 0
M  V30 868 H 74.946 4.16445 0.310432 0
M  V30 869 N 75.3831 0.828654 1.34056 0
M  V30 870 C 76.6131 0.431993 2.02033 0
M  V30 871 C 77.0211 -0.96844 1.62536 0
M  V30 872 O 76.3641 -1.6391 0.829408 0
M  V30 873 C 76.4261 0.461224 3.56529 0
M  V30 874 C 76.0901 1.81599 4.1937 0
M  V30 875 C 77.0871 2.7777 4.39477 0
M  V30 876 C 74.7721 2.10604 4.56017 0
M  V30 877 C 76.7661 4.01115 4.95364 0
M  V30 878 C 74.4531 3.34207 5.11614 0
M  V30 879 C 75.4511 4.2928 5.31232 0
M  V30 880 O 75.1391 5.50699 5.8565 0
M  V30 881 H 74.8711 0.170943 0.654029 0
M  V30 882 H 77.4251 1.11988 1.72185 0
M  V30 883 H 75.6551 -0.283388 3.8566 0
M  V30 884 H 77.3441 0.0838149 4.05813 0
M  V30 885 H 78.1101 2.56659 4.11523 0
M  V30 886 H 73.9891 1.37402 4.40047 0
M  V30 887 H 77.5331 4.75333 5.10592 0
M  V30 888 H 73.4301 3.55179 5.38997 0
M  V30 889 H 74.1981 5.52298 6.04077 0
M  V30 890 N 76.8612 -1.46375 0.584142 0
M  V30 891 C 77.7712 -2.34115 -0.150728 0
M  V30 892 C 78.7872 -1.49838 -0.884567 0
M  V30 893 O 79.9632 -1.82704 -0.847429 0
M  V30 894 C 77.0282 -3.2705 -1.15062 0
M  V30 895 C 76.0892 -4.27228 -0.421293 0
M  V30 896 C 75.3222 -5.15722 -1.37355 0
M  V30 897 O 75.5452 -5.07176 -2.61014 0
M  V30 898 O 74.4792 -5.95383 -0.883355 0
M  V30 899 H 78.3052 -2.98309 0.569708 0
M  V30 900 H 75.8902 -1.45373 0.344535 0
M  V30 901 H 77.7722 -3.84381 -1.72712 0
M  V30 902 H 76.4472 -2.65451 -1.8525 0
M  V30 903 H 75.3542 -3.7358 0.197085 0
M  V30 904 H 76.6872 -4.91616 0.239641 0
M  V30 905 N 78.3393 -0.321999 -1.54275 0
M  V30 906 C 79.5853 0.281461 -2.00837 0
M  V30 907 C 79.9183 1.51909 -1.20985 0
M  V30 908 O 79.1933 1.923 -0.291733 0
M  V30 909 C 79.4763 0.617162 -3.54772 0
M  V30 910 C 79.3293 -0.631064 -4.45351 0
M  V30 911 C 80.6483 1.43542 -4.16033 0
M  V30 912 H 77.7673 0.100826 -0.730071 0
M  V30 913 H 80.4093 -0.438268 -1.84876 0
M  V30 914 H 78.5593 1.23034 -3.68504 0
M  V30 915 H 80.2313 -1.26934 -4.43492 0
M  V30 916 H 78.4743 -1.26025 -4.15091 0
M  V30 917 H 79.1453 -0.351735 -5.50878 0
M  V30 918 H 81.6213 0.917134 -4.05867 0
M  V30 919 H 80.4973 1.63907 -5.23856 0
M  V30 920 H 80.7583 2.43108 -3.69257 0
M  V30 921 N 79.8174 1.5752 -0.0501392 0
M  V30 922 C 81.2334 1.56631 0.306402 0
M  V30 923 C 81.4334 1.0577 1.71508 0
M  V30 924 O 80.4894 0.713837 2.422 0
M  V30 925 C 81.8024 3.00393 0.135811 0
M  V30 926 C 83.3504 3.12315 0.206993 0
M  V30 927 C 83.8254 4.57954 0.064944 0
M  V30 928 N 85.3164 4.63041 0.121254 0
M  V30 929 C 86.0514 5.73389 0.0354381 0
M  V30 930 N 85.5474 6.92724 -0.102666 0
M  V30 931 N 87.3404 5.62026 0.090946 0
M  V30 932 H 79.4914 1.88903 -0.971046 0
M  V30 933 H 81.7544 0.869876 -0.376855 0
M  V30 934 H 81.4604 3.41635 -0.835384 0
M  V30 935 H 81.3344 3.66373 0.897275 0
M  V30 936 H 83.7214 2.70973 1.16866 0
M  V30 937 H 83.8024 2.49016 -0.585208 0
M  V30 938 H 83.4464 4.99981 -0.893394 0
M  V30 939 H 83.3764 5.19258 0.876277 0
M  V30 940 H 85.8674 3.77216 0.227284 0
M  V30 941 H 86.1804 7.72633 -0.160882 0
M  V30 942 H 84.5254 6.94864 -0.137737 0
M  V30 943 H 87.7164 4.67684 0.197388 0
M  V30 944 H 87.8894 6.47997 0.0206089 0
M  V30 945 N 81.2955 -0.223234 1.56011 0
M  V30 946 C 82.2285 -1.30377 1.87289 0
M  V30 947 C 83.2065 -1.45286 0.730112 0
M  V30 948 O 84.3905 -1.61126 0.978302 0
M  V30 949 C 81.5175 -2.67431 2.07843 0
M  V30 950 C 80.5635 -2.69546 3.30526 0
M  V30 951 S 81.3965 -2.23781 4.865 0
M  V30 952 C 82.5525 -3.62714 5.10088 0
M  V30 953 H 82.7855 -1.03652 2.78646 0
M  V30 954 H 80.3185 -0.425393 1.48424 0
M  V30 955 H 82.2765 -3.46336 2.20368 0
M  V30 956 H 80.9375 -2.91381 1.17285 0
M  V30 957 H 80.1305 -3.70255 3.41947 0
M  V30 958 H 79.7325 -1.98703 3.16849 0
M  V30 959 H 82.0245 -4.58391 4.98883 0
M  V30 960 H 82.9675 -3.5621 6.11981 0
M  V30 961 H 83.3755 -3.56323 4.37829 0
M  V30 962 N 82.7736 -1.49793 -0.48987 0
M  V30 963 C 83.7036 -1.70201 -1.59856 0
M  V30 964 C 84.6846 -0.55076 -1.60937 0
M  V30 965 O 85.8696 -0.787841 -1.77501 0
M  V30 966 C 82.9996 -1.77882 -2.98287 0
M  V30 967 C 81.9536 -2.92907 -3.12073 0
M  V30 968 C 81.2796 -2.85712 -4.51965 0
M  V30 969 C 82.5796 -4.3369 -2.91051 0
M  V30 970 H 84.2736 -2.63025 -1.43032 0
M  V30 971 H 81.8196 -1.26574 -0.686664 0
M  V30 972 H 83.7726 -1.90744 -3.75759 0
M  V30 973 H 82.4966 -0.816653 -3.16225 0
M  V30 974 H 81.1556 -2.79665 -2.37029 0
M  V30 975 H 80.8036 -1.8738 -4.66795 0
M  V30 976 H 80.5036 -3.62921 -4.62128 0
M  V30 977 H 82.0276 -3.00598 -5.31482 0
M  V30 978 H 83.4416 -4.47555 -3.58284 0
M  V30 979 H 81.8386 -5.12205 -3.12675 0
M  V30 980 H 82.9086 -4.47362 -1.87071 0
M  V30 981 N 84.2517 0.741722 -1.39055 0
M  V30 982 C 85.1847 1.86416 -1.31622 0
M  V30 983 C 86.1627 1.61473 -0.191076 0
M  V30 984 O 87.3467 1.84825 -0.370399 0
M  V30 985 C 84.4737 3.22266 -1.04221 0
M  V30 986 C 83.5197 3.66079 -2.18834 0
M  V30 987 S 84.3527 3.7623 -3.81066 0
M  V30 988 C 85.5087 5.14881 -3.55877 0
M  V30 989 H 85.7417 1.92437 -2.26617 0
M  V30 990 H 83.2747 0.905907 -1.25031 0
M  V30 991 H 85.2327 4.00714 -0.890964 0
M  V30 992 H 83.8937 3.1391 -0.109237 0
M  V30 993 H 83.0867 4.64648 -1.95238 0
M  V30 994 H 82.6887 2.94817 -2.30128 0
M  V30 995 H 84.9807 6.01006 -3.12726 0
M  V30 996 H 85.9237 5.43503 -4.53884 0
M  V30 997 H 86.3317 4.84239 -2.90126 0
M  V30 998 N 85.7298 1.2412 0.971189 0
M  V30 999 C 86.9578 1.10575 1.74874 0
M  V30 1000 C 87.3728 -0.342017 1.85676 0
M  V30 1001 O 86.7298 -1.23617 1.34258 0
M  V30 1002 C 86.7808 1.73579 3.171 0
M  V30 1003 O 86.5018 3.12695 3.06844 0
M  V30 1004 C 88.0028 1.65598 4.11208 0
M  V30 1005 H 85.2228 0.386504 0.548503 0
M  V30 1006 H 87.7668 1.64156 1.21955 0
M  V30 1007 H 85.9218 1.24009 3.67016 0
M  V30 1008 H 86.3358 3.43412 3.96445 0
M  V30 1009 H 87.8098 2.1437 5.08674 0
M  V30 1010 H 88.2868 0.616532 4.34851 0
M  V30 1011 H 88.8928 2.14578 3.67201 0
M  V30 1012 N 87.2079 -1.17134 1.05439 0
M  V30 1013 C 88.4849 -1.83411 0.679699 0
M  V30 1014 C 88.8649 -1.9368 -0.839726 0
M  V30 1015 O 88.2129 -1.47325 -1.74664 0
M  V30 1016 C 88.4229 -3.20918 1.37159 0
M  V30 1017 C 89.7709 -3.96796 1.51123 0
M  V30 1018 O 90.7949 -3.30406 1.3308 0
M  V30 1019 O 89.6539 -5.15778 1.80651 0
M  V30 1020 H 86.7479 -0.79154 0.239569 0
M  V30 1021 H 89.2939 -1.24411 1.15413 0
M  V30 1022 H 88.0659 -3.08428 2.40807 0
M  V30 1023 H 87.6889 -3.87587 0.886674 0
M  V30 1024 N 88.686 -0.835752 -1.33615 0
M  V30 1025 C 89.633 -0.26473 -2.29277 0
M  V30 1026 C 90.603 0.617712 -1.54187 0
M  V30 1027 O 91.788 0.556641 -1.825 0
M  V30 1028 C 88.928 0.556777 -3.40579 0
M  V30 1029 C 88.041 -0.349339 -4.30585 0
M  V30 1030 C 87.176 0.482969 -5.29 0
M  V30 1031 C 86.215 -0.421732 -6.10645 0
M  V30 1032 N 85.352 0.372262 -7.01112 0
M  V30 1033 H 90.192 -1.08582 -2.77514 0
M  V30 1034 H 87.729 -0.546927 -1.36554 0
M  V30 1035 H 89.687 1.04852 -4.03809 0
M  V30 1036 H 88.317 1.34286 -2.93542 0
M  V30 1037 H 87.369 -0.959372 -3.68104 0
M  V30 1038 H 88.681 -1.04445 -4.87742 0
M  V30 1039 H 87.835 1.03866 -5.97743 0
M  V30 1040 H 86.574 1.21153 -4.72412 0
M  V30 1041 H 85.579 -0.989464 -5.40823 0
M  V30 1042 H 86.804 -1.14861 -6.69316 0
M  V30 1043 H 84.75 1.08426 -6.46977 0
M  V30 1044 H 84.667 -0.264198 -7.55538 0
M  V30 1045 H 85.935 0.910293 -7.74167 0
M  V30 1046 N 90.1641 1.46063 -0.591896 0
M  V30 1047 C 91.0941 2.33172 0.123673 0
M  V30 1048 C 92.0751 1.45897 0.87453 0
M  V30 1049 O 93.2601 1.74698 0.848181 0
M  V30 1050 C 90.3901 3.28336 1.13194 0
M  V30 1051 C 89.3441 4.25124 0.495324 0
M  V30 1052 C 88.6701 5.09863 1.61071 0
M  V30 1053 C 89.9701 5.19143 -0.573425 0
M  V30 1054 H 91.6641 2.93252 -0.603646 0
M  V30 1055 H 89.2101 1.41014 -0.291741 0
M  V30 1056 H 91.1631 3.88137 1.64097 0
M  V30 1057 H 89.8871 2.66383 1.88965 0
M  V30 1058 H 88.5461 3.66599 0.00729452 0
M  V30 1059 H 88.1941 4.44288 2.35832 0
M  V30 1060 H 87.8941 5.75417 1.19035 0
M  V30 1061 H 89.4181 5.72529 2.12233 0
M  V30 1062 H 90.8321 5.73106 -0.1491 0
M  V30 1063 H 89.2291 5.93089 -0.914636 0
M  V30 1064 H 90.2991 4.62519 -1.45617 0
M  V30 1065 N 91.6422 0.330177 1.54103 0
M  V30 1066 C 92.5742 -0.566902 2.22079 0
M  V30 1067 C 93.5872 -1.07462 1.22294 0
M  V30 1068 O 94.7762 -0.987065 1.48726 0
M  V30 1069 C 91.8762 -1.79138 2.87685 0
M  V30 1070 C 91.0492 -1.42123 4.13666 0
M  V30 1071 C 90.1082 -2.50394 4.62806 0
M  V30 1072 O 89.1342 -2.14261 5.27334 0
M  V30 1073 N 90.3362 -3.81433 4.37595 0
M  V30 1074 H 93.1012 0.0151844 2.99696 0
M  V30 1075 H 90.6622 0.153681 1.61169 0
M  V30 1076 H 92.6542 -2.50975 3.1748 0
M  V30 1077 H 91.2242 -2.28115 2.13734 0
M  V30 1078 H 90.4442 -0.534201 3.90564 0
M  V30 1079 H 91.7322 -1.14971 4.9564 0
M  V30 1080 H 91.1302 -4.13584 3.8596 0
M  V30 1081 H 89.6872 -4.4948 4.72029 0
M  V30 1082 N 93.1203 -1.57491 0.0584922 0
M  V30 1083 C 94.0503 -2.14988 -0.911178 0
M  V30 1084 C 95.0313 -1.07343 -1.31952 0
M  V30 1085 O 96.2163 -1.35318 -1.39294 0
M  V30 1086 C 93.3463 -2.70078 -2.18347 0
M  V30 1087 C 92.3003 -3.82771 -1.91495 0
M  V30 1088 C 91.6263 -4.24408 -3.25241 0
M  V30 1089 C 92.9263 -5.07592 -1.23075 0
M  V30 1090 H 94.6203 -2.96263 -0.432246 0
M  V30 1091 H 92.1663 -1.42512 -0.206469 0
M  V30 1092 H 94.1193 -3.08943 -2.86587 0
M  V30 1093 H 92.8433 -1.86005 -2.68458 0
M  V30 1094 H 91.5023 -3.44389 -1.25664 0
M  V30 1095 H 91.1503 -3.37275 -3.73168 0
M  V30 1096 H 90.8503 -5.00366 -3.08071 0
M  V30 1097 H 92.3743 -4.65879 -3.94701 0
M  V30 1098 H 93.7883 -5.43857 -1.81362 0
M  V30 1099 H 92.1853 -5.88741 -1.16207 0
M  V30 1100 H 93.2553 -4.84454 -0.207847 0
M  V30 1101 N 94.5984 0.214957 -1.56127 0
M  V30 1102 C 95.5084 1.28727 -1.96129 0
M  V30 1103 C 96.5244 1.50916 -0.866044 0
M  V30 1104 O 97.7004 1.63918 -1.17016 0
M  V30 1105 C 94.7654 2.61569 -2.27558 0
M  V30 1106 C 93.8264 2.47625 -3.50685 0
M  V30 1107 C 93.0594 3.74132 -3.80606 0
M  V30 1108 O 93.2824 4.77438 -3.12104 0
M  V30 1109 O 92.2164 3.70849 -4.74083 0
M  V30 1110 H 96.0424 0.977855 -2.87527 0
M  V30 1111 H 93.6274 0.418358 -1.43423 0
M  V30 1112 H 95.5094 3.40012 -2.48938 0
M  V30 1113 H 94.1844 2.92178 -1.39332 0
M  V30 1114 H 93.0914 1.67361 -3.34576 0
M  V30 1115 H 94.4244 2.21954 -4.39315 0
M  V30 1116 N 96.0765 1.50051 0.48192 0
M  V30 1117 C 97.3535 1.51009 1.2432 0
M  V30 1118 C 97.7335 0.248587 2.09631 0
M  V30 1119 O 97.0815 -0.768409 2.15192 0
M  V30 1120 C 97.2915 2.79981 2.08355 0
M  V30 1121 C 98.6395 3.3022 2.66908 0
M  V30 1122 O 99.6635 2.81228 2.18607 0
M  V30 1123 O 98.5225 4.15595 3.54884 0
M  V30 1124 H 95.6165 0.605239 0.563573 0
M  V30 1125 H 98.1625 1.62332 0.494627 0
M  V30 1126 H 96.9345 3.63275 1.45419 0
M  V30 1127 H 96.5575 2.7161 2.90368 0
M  V30 1128 N 97.5546 -0.734337 1.39446 0
M  V30 1129 C 98.8026 -1.49096 1.36436 0
M  V30 1130 C 99.1236 -1.94961 -0.0388255 0
M  V30 1131 O 98.3936 -1.69033 -0.990191 0
M  V30 1132 H 96.9736 -0.5531 0.502085 0
M  V30 1133 H 99.6356 -0.871725 1.74319 0
M  V30 1134 H 98.7316 -2.37276 2.02747 0
M  V30 1135 N 99.0327 -1.24633 -0.964593 0
M  V30 1136 C 100.261 -1.11501 -1.74285 0
M  V30 1137 C 100.676 0.332165 -1.85855 0
M  V30 1138 O 100.033 1.22903 -1.34911 0
M  V30 1139 C 100.084 -1.75258 -3.16175 0
M  V30 1140 O 99.8047 -3.14318 -3.05182 0
M  V30 1141 C 101.306 -1.67776 -4.10324 0
M  V30 1142 H 98.5257 -0.389407 -0.546446 0
M  V30 1143 H 101.07 -1.64801 -1.21083 0
M  V30 1144 H 99.2247 -1.25954 -3.66353 0
M  V30 1145 H 99.6387 -3.4551 -3.94618 0
M  V30 1146 H 101.113 -2.17064 -5.0753 0
M  V30 1147 H 101.59 -0.639584 -4.34518 0
M  V30 1148 H 102.196 -2.16522 -3.66058 0
M  V30 1149 N 100.511 1.16574 -1.06058 0
M  V30 1150 C 101.443 2.2045 -0.627239 0
M  V30 1151 C 102.456 1.59752 0.313534 0
M  V30 1152 O 103.645 1.78192 0.104896 0
M  V30 1153 C 100.745 3.3875 0.100974 0
M  V30 1154 C 99.9178 4.29008 -0.852687 0
M  V30 1155 C 98.9768 5.25944 -0.164152 0
M  V30 1156 O 98.0028 5.63535 -0.801047 0
M  V30 1157 N 99.2048 5.70075 1.09518 0
M  V30 1158 H 101.97 2.58249 -1.52077 0
M  V30 1159 H 99.5308 1.3156 -0.943594 0
M  V30 1160 H 101.523 4.00638 0.57194 0
M  V30 1161 H 100.093 2.99476 0.89628 0
M  V30 1162 H 99.3128 3.64419 -1.50308 0
M  V30 1163 H 100.601 4.86195 -1.49972 0
M  V30 1164 H 99.9988 5.41624 1.6328 0
M  V30 1165 H 98.5558 6.34067 1.51006 0
M  V30 1166 N 101.989 0.842826 1.3317 0
M  V30 1167 C 102.919 0.294028 2.31641 0
M  V30 1168 C 103.9 -0.600401 1.59151 0
M  V30 1169 O 105.085 -0.523124 1.87022 0
M  V30 1170 C 102.215 -0.528416 3.43257 0
M  V30 1171 C 101.169 0.27056 4.27144 0
M  V30 1172 C 100.495 -0.675881 5.30411 0
M  V30 1173 C 101.795 1.48981 5.00602 0
M  V30 1174 H 103.489 1.11681 2.77791 0
M  V30 1175 H 101.035 0.538478 1.33553 0
M  V30 1176 H 102.988 -0.922674 4.11175 0
M  V30 1177 H 101.712 -1.38445 2.95805 0
M  V30 1178 H 100.371 0.646427 3.60856 0
M  V30 1179 H 100.019 -1.52842 4.79216 0
M  V30 1180 H 99.7189 -0.145374 5.8742 0
M  V30 1181 H 101.243 -1.06757 6.01195 0
M  V30 1182 H 102.657 1.16849 5.61266 0
M  V30 1183 H 101.054 1.95739 5.6728 0
M  V30 1184 H 102.124 2.25746 4.29147 0
M  V30 1185 N 103.467 -1.45747 0.599634 0
M  V30 1186 C 104.713 -2.02592 0.0918643 0
M  V30 1187 C 105.046 -1.46806 -1.27128 0
M  V30 1188 O 104.321 -0.639658 -1.83681 0
M  V30 1189 C 104.604 -3.60073 0.0443398 0
M  V30 1190 C 104.457 -4.26208 1.43759 0
M  V30 1191 C 105.776 -4.35309 -0.647608 0
M  V30 1192 H 102.895 -0.736175 0.034857 0
M  V30 1193 H 105.537 -1.73694 0.770081 0
M  V30 1194 H 103.687 -3.84823 -0.533224 0
M  V30 1195 H 105.359 -4.12668 2.06162 0
M  V30 1196 H 103.602 -3.84916 2.00056 0
M  V30 1197 H 104.273 -5.35069 1.35665 0
M  V30 1198 H 106.749 -4.15805 -0.156776 0
M  V30 1199 H 105.625 -5.45038 -0.649942 0
M  V30 1200 H 105.886 -4.07598 -1.71219 0
M  V30 1201 N 104.945 -0.338344 -1.53925 0
M  V30 1202 C 106.191 0.260143 -2.01125 0
M  V30 1203 C 106.524 1.50617 -1.22589 0
M  V30 1204 O 105.799 1.91979 -0.312113 0
M  V30 1205 C 106.082 0.579499 -3.55407 0
M  V30 1206 C 105.935 -0.678264 -4.44657 0
M  V30 1207 C 107.254 1.39122 -4.17532 0
M  V30 1208 H 104.373 0.0930772 -0.731099 0
M  V30 1209 H 107.015 -0.457852 -1.84401 0
M  V30 1210 H 105.165 1.19118 -3.69788 0
M  V30 1211 H 106.837 -1.31631 -4.42121 0
M  V30 1212 H 105.08 -1.3042 -4.13731 0
M  V30 1213 H 105.751 -0.410143 -5.50474 0
M  V30 1214 H 108.227 0.874035 -4.06817 0
M  V30 1215 H 107.103 1.58342 -5.25565 0
M  V30 1216 H 107.364 2.39178 -3.71815 0
M  V30 1217 N 106.423 1.57458 -0.0668435 0
M  V30 1218 C 107.834 1.80776 0.466558 0
M  V30 1219 C 108.185 0.980361 1.69951 0
M  V30 1220 O 107.31 0.201441 2.1546 0
M  V30 1221 C 107.905 3.27881 0.85321 0
M  V30 1222 C 106.464 3.52062 1.3315 0
M  V30 1223 C 105.611 2.75513 0.314264 0
M  V30 1224 H 108.562 1.5598 -0.292588 0
M  V30 1225 H 108.583 3.39659 1.715 0
M  V30 1226 H 108.095 3.88075 -0.0443439 0
M  V30 1227 H 106.196 2.97167 2.24772 0
M  V30 1228 H 106.309 4.60762 1.31285 0
M  V30 1229 H 104.673 2.42123 0.790492 0
M  V30 1230 H 105.456 3.38442 -0.575477 0
M  V30 1231 N 107.901 -0.206675 1.56239 0
M  V30 1232 C 109.312 -0.772383 1.69974 0
M  V30 1233 C 109.663 -1.84353 0.671436 0
M  V30 1234 O 108.788 -2.15695 -0.174491 0
M  V30 1235 C 109.383 -1.40779 3.08167 0
M  V30 1236 C 107.942 -1.92072 3.23706 0
M  V30 1237 C 107.089 -0.786347 2.65917 0
M  V30 1238 H 110.04 0.0182223 1.5869 0
M  V30 1239 H 110.061 -2.27696 3.04852 0
M  V30 1240 H 109.573 -0.627958 3.82986 0
M  V30 1241 H 107.674 -2.7281 2.53782 0
M  V30 1242 H 107.787 -2.09046 4.31087 0
M  V30 1243 H 106.151 -1.1976 2.24788 0
M  V30 1244 H 106.934 -0.0189416 3.43295 0
M  V30 1245 N 109.379 -1.50304 -0.473955 0
M  V30 1246 C 110.342 -1.6841 -1.55469 0
M  V30 1247 C 111.342 -0.554905 -1.50922 0
M  V30 1248 O 112.532 -0.821882 -1.53593 0
M  V30 1249 C 109.664 -1.70667 -2.95102 0
M  V30 1250 H 110.857 -2.64828 -1.40733 0
M  V30 1251 H 108.41 -1.39742 -0.700132 0
M  V30 1252 H 109.145 -0.75932 -3.15285 0
M  V30 1253 H 108.93 -2.52698 -2.9981 0
M  V30 1254 H 110.42 -1.8664 -3.73571 0
M  V30 1255 N 110.857 0.726932 -1.39834 0
M  V30 1256 C 112.104 1.48664 -1.37496 0
M  V30 1257 C 112.432 1.94482 0.0264678 0
M  V30 1258 O 111.687 1.67692 1.00886 0
M  V30 1259 C 111.986 2.73495 -2.30077 0
M  V30 1260 C 111.652 2.46502 -3.77555 0
M  V30 1261 C 110.314 2.3885 -4.17737 0
M  V30 1262 C 112.666 2.23604 -4.70798 0
M  V30 1263 C 109.994 2.06352 -5.49214 0
M  V30 1264 C 112.346 1.92622 -6.02561 0
M  V30 1265 C 111.01 1.83444 -6.41798 0
M  V30 1266 H 110.28 0.544001 -0.503135 0
M  V30 1267 H 112.927 0.833657 -1.72402 0
M  V30 1268 H 111.232 3.43575 -1.88317 0
M  V30 1269 H 112.929 3.31549 -2.25558 0
M  V30 1270 H 109.519 2.5334 -3.45712 0
M  V30 1271 H 113.703 2.28479 -4.40581 0
M  V30 1272 H 108.959 1.97776 -5.78528 0
M  V30 1273 H 113.133 1.73914 -6.74334 0
M  V30 1274 H 110.76 1.58029 -7.43593 0
M  V30 1275 N 112.336 1.25143 0.95797 0
M  V30 1276 C 113.752 1.01892 1.22842 0
M  V30 1277 C 113.952 -0.266311 1.99732 0
M  V30 1278 O 113.008 -0.979913 2.3271 0
M  V30 1279 C 114.321 2.24004 2.00606 0
M  V30 1280 C 115.869 2.28731 2.13662 0
M  V30 1281 C 116.344 3.5049 2.94823 0
M  V30 1282 N 117.835 3.50866 3.02403 0
M  V30 1283 C 118.57 4.4174 3.65586 0
M  V30 1284 N 118.066 5.42882 4.30408 0
M  V30 1285 N 119.859 4.29429 3.62694 0
M  V30 1286 H 112.01 2.07718 0.443493 0
M  V30 1287 H 114.273 0.912031 0.258657 0
M  V30 1288 H 113.979 3.17395 1.51503 0
M  V30 1289 H 113.853 2.26907 3.01319 0
M  V30 1290 H 116.24 1.35865 2.61963 0
M  V30 1291 H 116.321 2.29848 1.12265 0
M  V30 1292 H 115.965 4.43676 2.47213 0
M  V30 1293 H 115.895 3.46617 3.96439 0
M  V30 1294 H 118.386 2.777 2.56302 0
M  V30 1295 H 118.699 6.0844 4.76467 0
M  V30 1296 H 117.044 5.46758 4.29047 0
M  V30 1297 H 120.235 3.49643 3.11236 0
M  V30 1298 H 120.408 5.00448 4.1165 0
M  V30 1299 N 113.814 -1.1601 1.06675 0
M  V30 1300 C 115.23 -1.38622 0.790948 0
M  V30 1301 C 115.43 -1.92109 -0.607965 0
M  V30 1302 O 114.486 -2.12239 -1.36787 0
M  V30 1303 C 115.799 -2.36347 1.85905 0
M  V30 1304 C 117.347 -2.50023 1.88301 0
M  V30 1305 C 117.822 -3.51033 2.94176 0
M  V30 1306 N 119.313 -3.58563 2.93235 0
M  V30 1307 C 120.048 -4.36521 3.71803 0
M  V30 1308 N 119.544 -5.17869 4.602 0
M  V30 1309 N 121.337 -4.31541 3.60178 0
M  V30 1310 H 113.488 -0.796294 1.96908 0
M  V30 1311 H 115.751 -0.412597 0.853503 0
M  V30 1312 H 115.457 -2.04147 2.86386 0
M  V30 1313 H 115.331 -3.36042 1.71334 0
M  V30 1314 H 117.718 -2.81524 0.884769 0
M  V30 1315 H 117.799 -1.5035 2.06951 0
M  V30 1316 H 117.443 -3.20268 3.94196 0
M  V30 1317 H 117.373 -4.50445 2.72776 0
M  V30 1318 H 119.864 -3.00496 2.29152 0
M  V30 1319 H 120.177 -5.74578 5.16797 0
M  V30 1320 H 118.522 -5.17199 4.64253 0
M  V30 1321 H 121.713 -3.67051 2.90502 0
M  V30 1322 H 121.886 -4.9205 4.21653 0
M  V30 1323 N 115.292 -0.849877 -1.32721 0
M  V30 1324 C 116.202 -0.293791 -2.32753 0
M  V30 1325 C 117.218 0.585906 -1.63839 0
M  V30 1326 O 118.394 0.487413 -1.95413 0
M  V30 1327 C 115.459 0.512752 -3.42887 0
M  V30 1328 C 114.52 -0.39252 -4.27502 0
M  V30 1329 C 113.753 0.375625 -5.32377 0
M  V30 1330 O 113.976 1.60613 -5.4732 0
M  V30 1331 O 112.91 -0.256094 -6.01355 0
M  V30 1332 H 116.736 -1.12242 -2.82197 0
M  V30 1333 H 114.321 -0.612685 -1.36259 0
M  V30 1334 H 116.203 0.970704 -4.10067 0
M  V30 1335 H 114.878 1.31826 -2.95641 0
M  V30 1336 H 113.785 -0.898547 -3.63149 0
M  V30 1337 H 115.118 -1.16309 -4.7826 0
M  V30 1338 N 116.77 1.45427 -0.607355 0
M  V30 1339 C 118.019 2.01452 -0.100036 0
M  V30 1340 C 118.332 1.48159 1.27704 0
M  V30 1341 O 119.538 1.96159 1.87707 0
M  V30 1342 C 117.994 3.59672 -0.128158 0
M  V30 1343 C 117.602 4.21962 -1.50507 0
M  V30 1344 C 119.346 4.23262 0.323932 0
M  V30 1345 C 117.253 5.72333 -1.48959 0
M  V30 1346 H 116.183 0.75325 -0.0336299 0
M  V30 1347 H 118.834 1.66901 -0.76265 0
M  V30 1348 H 117.216 3.91411 0.601105 0
M  V30 1349 H 118.39 4.01796 -2.25602 0
M  V30 1350 H 116.705 3.70565 -1.89923 0
M  V30 1351 H 119.302 5.33522 0.354691 0
M  V30 1352 H 119.645 3.93921 1.34656 0
M  V30 1353 H 120.178 3.96239 -0.352056 0
M  V30 1354 H 116.917 6.06373 -2.48981 0
M  V30 1355 H 116.437 5.94691 -0.781214 0
M  V30 1356 H 118.116 6.35525 -1.21313 0
M  V30 1357 N 118.248 0.346503 1.53744 0
M  V30 1358 C 119.478 -0.250047 2.05081 0
M  V30 1359 C 119.886 -1.44529 1.22098 0
M  V30 1360 O 119.229 -1.81992 0.249917 0
M  V30 1361 C 119.291 -0.725934 3.52094 0
M  V30 1362 C 118.955 0.350053 4.55657 0
M  V30 1363 C 119.952 1.19372 5.0601 0
M  V30 1364 C 117.637 0.504827 4.99757 0
M  V30 1365 C 119.631 2.17768 5.99046 0
M  V30 1366 C 117.318 1.49218 5.92602 0
M  V30 1367 C 118.316 2.32706 6.42135 0
M  V30 1368 O 118.004 3.2976 7.33153 0
M  V30 1369 H 117.736 -0.0515469 0.674032 0
M  V30 1370 H 120.29 0.497559 1.99282 0
M  V30 1371 H 118.52 -1.52483 3.55367 0
M  V30 1372 H 120.209 -1.24336 3.86388 0
M  V30 1373 H 120.975 1.08525 4.72702 0
M  V30 1374 H 116.854 -0.135178 4.60802 0
M  V30 1375 H 120.398 2.82971 6.37631 0
M  V30 1376 H 116.295 1.6012 6.25325 0
M  V30 1377 H 117.063 3.25265 7.51096 0
M  V30 1378 N 119.726 -1.57421 0.075193 0
M  V30 1379 C 121.142 -1.57099 -0.281444 0
M  V30 1380 C 121.342 -1.08486 -1.69803 0
M  V30 1381 O 120.398 -0.752279 -2.41033 0
M  V30 1382 C 121.711 -3.00571 -0.0880041 0
M  V30 1383 C 123.259 -3.12605 -0.157281 0
M  V30 1384 C 123.734 -4.57999 0.0079207 0
M  V30 1385 N 125.225 -4.63176 -0.0475725 0
M  V30 1386 C 125.96 -5.73373 0.0557876 0
M  V30 1387 N 125.456 -6.92473 0.21286 0
M  V30 1388 N 127.249 -5.621 -0.00152098 0
M  V30 1389 H 119.4 -1.87335 1.00098 0
M  V30 1390 H 121.663 -0.86377 0.390646 0
M  V30 1391 H 121.369 -3.40262 0.889629 0
M  V30 1392 H 121.243 -3.67754 -0.838875 0
M  V30 1393 H 123.63 -2.72798 -1.1254 0
M  V30 1394 H 123.711 -2.48053 0.62475 0
M  V30 1395 H 123.355 -4.98496 0.972824 0
M  V30 1396 H 123.285 -5.20586 -0.793556 0
M  V30 1397 H 125.776 -3.7753 -0.167244 0
M  V30 1398 H 126.089 -7.72279 0.283781 0
M  V30 1399 H 124.434 -6.94556 0.248267 0
M  V30 1400 H 127.625 -4.67938 -0.122958 0
M  V30 1401 H 127.798 -6.47948 0.0824844 0
M  V30 1402 N 121.204 0.198386 -1.56346 0
M  V30 1403 C 122.114 1.2664 -1.97483 0
M  V30 1404 C 123.13 1.49989 -0.882002 0
M  V30 1405 O 124.306 1.62668 -1.18748 0
M  V30 1406 C 121.371 2.59141 -2.30319 0
M  V30 1407 C 120.432 2.43892 -3.53292 0
M  V30 1408 C 119.665 3.70074 -3.84553 0
M  V30 1409 O 119.888 4.74101 -3.1715 0
M  V30 1410 O 118.822 3.658 -4.7799 0
M  V30 1411 H 122.648 0.947304 -2.88548 0
M  V30 1412 H 120.233 0.403123 -1.43859 0
M  V30 1413 H 122.115 3.37352 -2.5253 0
M  V30 1414 H 120.79 2.90684 -1.42423 0
M  V30 1415 H 119.697 1.63803 -3.36332 0
M  V30 1416 H 121.03 2.17282 -4.41644 0
M  V30 1417 N 122.682 1.50554 0.465978 0
M  V30 1418 C 123.612 1.72722 1.57128 0
M  V30 1419 C 124.593 0.576294 1.6004 0
M  V30 1420 O 125.778 0.81598 1.76225 0
M  V30 1421 C 122.908 1.82605 2.95419 0
M  V30 1422 C 121.862 2.97835 3.07373 0
M  V30 1423 C 121.188 2.92867 4.47363 0
M  V30 1424 C 122.488 4.38265 2.84114 0
M  V30 1425 H 124.182 2.65267 1.38829 0
M  V30 1426 H 121.728 1.2765 0.666441 0
M  V30 1427 H 123.681 1.96698 3.72677 0
M  V30 1428 H 122.405 0.866858 3.14886 0
M  V30 1429 H 121.064 2.83401 2.3255 0
M  V30 1430 H 120.712 1.94783 4.63755 0
M  V30 1431 H 120.412 3.70227 4.56296 0
M  V30 1432 H 121.936 3.09015 5.26633 0
M  V30 1433 H 123.35 4.53198 3.51118 0
M  V30 1434 H 121.747 5.17115 3.04487 0
M  V30 1435 H 122.817 4.50281 1.7993 0
M  V30 1436 N 124.16 -0.719506 1.40217 0
M  V30 1437 C 125.408 -1.47641 1.3801 0
M  V30 1438 C 125.729 -1.94992 -0.018145 0
M  V30 1439 O 124.999 -1.70073 -0.972207 0
M  V30 1440 H 123.579 -0.547744 0.507923 0
M  V30 1441 H 126.241 -0.853187 1.75233 0
M  V30 1442 H 125.337 -2.35112 2.05253 0
M  V30 1443 N 125.638 -1.25649 -0.95132 0
M  V30 1444 C 126.887 -1.09988 -1.69073 0
M  V30 1445 C 127.2 0.358355 -1.92289 0
M  V30 1446 O 128.406 0.635466 -2.63958 0
M  V30 1447 C 126.862 -1.92012 -3.044 0
M  V30 1448 C 126.47 -3.42347 -2.88968 0
M  V30 1449 C 128.214 -1.8493 -3.82101 0
M  V30 1450 C 126.121 -4.16655 -4.19705 0
M  V30 1451 H 125.051 -0.407993 -0.63408 0
M  V30 1452 H 127.702 -1.49873 -1.05879 0
M  V30 1453 H 126.084 -1.44952 -3.68517 0
M  V30 1454 H 127.258 -3.97104 -2.33762 0
M  V30 1455 H 125.573 -3.50557 -2.24719 0
M  V30 1456 H 128.17 -2.37739 -4.78941 0
M  V30 1457 H 128.513 -0.817883 -4.08187 0
M  V30 1458 H 129.046 -2.29758 -3.2474 0
M  V30 1459 H 125.785 -5.20224 -3.98807 0
M  V30 1460 H 125.305 -3.66681 -4.74663 0
M  V30 1461 H 126.984 -4.24551 -4.88227 0
M  V30 1462 N 127.117 1.15442 -1.07289 0
M  V30 1463 C 128.342 1.90638 -0.816828 0
M  V30 1464 C 128.767 1.77445 0.624083 0
M  V30 1465 O 128.125 1.10671 1.43602 0
M  V30 1466 C 128.173 3.39008 -1.22906 0
M  V30 1467 O 127.277 4.10701 -0.373975 0
M  V30 1468 H 126.618 0.593555 -0.297638 0
M  V30 1469 H 129.148 1.46198 -1.43134 0
M  V30 1470 H 129.158 3.89801 -1.20497 0
M  V30 1471 H 127.833 3.47929 -2.27856 0
M  V30 1472 H 126.41 3.70046 -0.460499 0
M  V30 1473 N 128.595 0.856903 1.32268 0
M  V30 1474 C 129.525 0.31858 2.31316 0
M  V30 1475 C 130.506 -0.583487 1.59779 0
M  V30 1476 O 131.691 -0.503259 1.87566 0
M  V30 1477 C 128.821 -0.491979 3.43798 0
M  V30 1478 C 127.775 0.315849 4.26833 0
M  V30 1479 C 127.101 -0.619586 5.31098 0
M  V30 1480 C 128.401 1.54282 4.98993 0
M  V30 1481 H 130.095 1.14621 2.76591 0
M  V30 1482 H 127.641 0.552613 1.32974 0
M  V30 1483 H 129.594 -0.879012 4.1213 0
M  V30 1484 H 128.318 -1.35299 2.97257 0
M  V30 1485 H 126.977 0.684664 3.6015 0
M  V30 1486 H 126.625 -1.47751 4.8081 0
M  V30 1487 H 126.325 -0.0830621 5.87541 0
M  V30 1488 H 127.849 -1.00375 6.02293 0
M  V30 1489 H 129.263 1.22796 5.59995 0
M  V30 1490 H 127.66 2.01745 5.65172 0
M  V30 1491 H 128.73 2.30285 4.26728 0
M  V30 1492 N 130.073 -1.45103 0.615059 0
M  V30 1493 C 131.303 -2.06254 0.119596 0
M  V30 1494 C 131.711 -1.4591 -1.20445 0
M  V30 1495 O 131.054 -0.570384 -1.7462 0
M  V30 1496 C 131.116 -3.59396 -0.0865591 0
M  V30 1497 C 130.78 -4.42116 1.15683 0
M  V30 1498 C 131.777 -4.7662 2.07676 0
M  V30 1499 C 129.462 -4.82749 1.38775 0
M  V30 1500 C 131.456 -5.50622 3.21082 0
M  V30 1501 C 129.143 -5.56504 2.52481 0
M  V30 1502 C 130.141 -5.90358 3.43463 0
M  V30 1503 O 129.829 -6.62615 4.55189 0
M  V30 1504 H 129.561 -0.672423 0.0694512 0
M  V30 1505 H 132.115 -1.87219 0.844885 0
M  V30 1506 H 130.345 -3.76859 -0.866823 0
M  V30 1507 H 132.034 -4.02365 -0.534555 0
M  V30 1508 H 132.8 -4.4578 1.91063 0
M  V30 1509 H 128.679 -4.55829 0.688545 0
M  V30 1510 H 132.223 -5.76965 3.92119 0
M  V30 1511 H 128.12 -5.86759 2.69043 0
M  V30 1512 H 128.888 -6.81071 4.53966 0
M  V30 1513 N 131.551 -0.354651 -1.53558 0
M  V30 1514 C 132.776 0.242153 -2.05981 0
M  V30 1515 C 133.201 1.42553 -1.2272 0
M  V30 1516 O 132.559 1.79656 -0.243604 0
M  V30 1517 C 132.607 0.624367 -3.55154 0
M  V30 1518 O 131.711 1.72301 -3.74681 0
M  V30 1519 H 131.052 0.0378432 -0.662921 0
M  V30 1520 H 133.582 -0.512087 -1.98088 0
M  V30 1521 H 133.592 0.898433 -3.97985 0
M  V30 1522 H 132.267 -0.240989 -4.15201 0
M  V30 1523 H 130.844 1.44535 -3.4375 0
M  V30 1524 N 133.029 1.57378 -0.0835403 0
M  V30 1525 C 133.977 2.14602 0.89714 0
M  V30 1526 C 134.971 1.08589 1.30018 0
M  V30 1527 O 136.177 1.26952 1.27606 0
M  V30 1528 H 132.552 0.686346 0.3073 0
M  V30 1529 H 134.523 2.95845 0.38969 0
M  V30 1530 C 133.272 2.73188 2.15089 0
M  V30 1531 H 132.595 3.54442 1.84962 0
M  V30 1532 H 134.035 3.1681 2.81793 0
M  V30 1533 C 132.494 1.68517 2.91725 0
M  V30 1534 O 133.024 1.11718 3.85852 0
M  V30 1535 N 131.23 1.39277 2.55049 0
M  V30 1536 H 130.777 1.85655 1.78577 0
M  V30 1537 H 130.735 0.694791 3.06627 0
M  V30 1538 N 134.507 -0.190092 1.56449 0
M  V30 1539 C 135.417 -1.25591 1.98152 0
M  V30 1540 C 136.433 -1.49519 0.889944 0
M  V30 1541 O 137.609 -1.62036 1.19609 0
M  V30 1542 C 134.674 -2.57916 2.3169 0
M  V30 1543 C 133.735 -2.42015 3.5458 0
M  V30 1544 C 132.968 -3.6803 3.8651 0
M  V30 1545 O 133.191 -4.72413 3.1966 0
M  V30 1546 O 132.125 -3.6326 4.79923 0
M  V30 1547 H 135.951 -0.931988 2.89046 0
M  V30 1548 H 133.536 -0.395488 1.4407 0
M  V30 1549 H 135.418 -3.36008 2.54316 0
M  V30 1550 H 134.093 -2.89925 1.43963 0
M  V30 1551 H 133 -1.62017 3.37196 0
M  V30 1552 H 134.333 -2.14937 4.4279 0
M  V30 1553 N 135.985 -1.50799 -0.457987 0
M  V30 1554 C 136.948 -1.7005 -1.53674 0
M  V30 1555 C 137.948 -0.570881 -1.50325 0
M  V30 1556 O 139.138 -0.838126 -1.52712 0
M  V30 1557 C 136.27 -1.73788 -2.93276 0
M  V30 1558 H 137.463 -2.66306 -1.37917 0
M  V30 1559 H 135.016 -1.40477 -0.685271 0
M  V30 1560 H 135.751 -0.792717 -3.14462 0
M  V30 1561 H 135.536 -2.55864 -2.97113 0
M  V30 1562 H 137.026 -1.90591 -3.71571 0
M  V30 1563 N 137.463 0.71206 -1.40597 0
M  V30 1564 C 138.426 1.80785 -1.40888 0
M  V30 1565 C 139.426 1.57937 -0.302103 0
M  V30 1566 O 140.616 1.64913 -0.561182 0
M  V30 1567 C 137.748 3.18927 -1.20409 0
M  V30 1568 H 138.941 1.81924 -2.38419 0
M  V30 1569 H 136.494 0.91805 -1.26497 0
M  V30 1570 H 137.229 3.23436 -0.236522 0
M  V30 1571 H 137.014 3.36911 -2.00582 0
M  V30 1572 H 138.504 3.98949 -1.23408 0
M  V30 1573 N 138.941 1.26152 0.944643 0
M  V30 1574 C 139.851 1.09176 2.07648 0
M  V30 1575 C 140.867 0.0261935 1.7398 0
M  V30 1576 O 142.043 0.229208 2.00091 0
M  V30 1577 C 139.108 0.722915 3.39079 0
M  V30 1578 C 138.169 1.86752 3.86552 0
M  V30 1579 C 137.402 1.51617 5.11711 0
M  V30 1580 O 137.625 0.416331 5.68879 0
M  V30 1581 O 136.559 2.34975 5.54139 0
M  V30 1582 H 140.385 2.0412 2.24875 0
M  V30 1583 H 137.97 1.05182 1.061 0
M  V30 1584 H 139.852 0.529787 4.18056 0
M  V30 1585 H 138.527 -0.197159 3.23099 0
M  V30 1586 H 137.434 2.11558 3.08535 0
M  V30 1587 H 138.767 2.76719 4.07047 0
M  V30 1588 N 140.419 -1.14872 1.07899 0
M  V30 1589 C 141.329 -2.2341 0.715915 0
M  V30 1590 C 142.345 -1.71808 -0.275306 0
M  V30 1591 O 143.521 -2.01039 -0.120545 0
M  V30 1592 C 140.586 -3.46474 0.125168 0
M  V30 1593 C 139.647 -4.13039 1.17034 0
M  V30 1594 C 138.88 -5.30229 0.607688 0
M  V30 1595 O 139.103 -5.675 -0.574497 0
M  V30 1596 O 138.037 -5.86444 1.35526 0
M  V30 1597 H 141.863 -2.56808 1.62121 0
M  V30 1598 H 139.448 -1.22702 0.852322 0
M  V30 1599 H 141.33 -4.20917 -0.201729 0
M  V30 1600 H 140.005 -3.14811 -0.753364 0
M  V30 1601 H 138.912 -3.40493 1.54968 0
M  V30 1602 H 140.245 -4.48796 2.02097 0
M  V30 1603 N 141.898 -0.863906 -1.31812 0
M  V30 1604 C 142.861 -0.320212 -2.26952 0
M  V30 1605 C 143.861 0.525369 -1.51975 0
M  V30 1606 O 145.051 0.335547 -1.70938 0
M  V30 1607 C 142.183 0.545919 -3.365 0
M  V30 1608 H 143.376 -1.16004 -2.76556 0
M  V30 1609 H 140.929 -0.638995 -1.42641 0
M  V30 1610 H 141.664 1.40718 -2.92179 0
M  V30 1611 H 141.449 -0.0594674 -3.92055 0
M  V30 1612 H 142.939 0.918796 -4.07367 0
M  V30 1613 N 143.376 1.44774 -0.622745 0
M  V30 1614 C 144.624 2.01721 -0.123655 0
M  V30 1615 C 144.945 1.49172 1.25589 0
M  V30 1616 O 144.215 0.691974 1.83272 0
M  V30 1617 H 142.795 0.745777 -0.0427225 0
M  V30 1618 H 145.457 1.77382 -0.807559 0
M  V30 1619 H 144.553 3.11984 -0.0849534 0
M  V30 1620 N 144.854 0.36279 1.53368 0
M  V30 1621 C 145.784 -0.476976 2.28576 0
M  V30 1622 C 146.765 -1.08631 1.30894 0
M  V30 1623 O 147.95 -1.10409 1.59761 0
M  V30 1624 C 145.08 -1.61828 3.07293 0
M  V30 1625 C 144.034 -1.13633 4.1264 0
M  V30 1626 C 143.36 -2.36766 4.79423 0
M  V30 1627 C 144.66 -0.223061 5.21823 0
M  V30 1628 H 146.354 0.150474 2.99022 0
M  V30 1629 H 143.9 0.0738103 1.43811 0
M  V30 1630 H 145.853 -2.21237 3.58653 0
M  V30 1631 H 144.577 -2.27292 2.34533 0
M  V30 1632 H 143.236 -0.564945 3.62221 0
M  V30 1633 H 142.884 -3.0068 4.03238 0
M  V30 1634 H 142.584 -2.05192 5.50609 0
M  V30 1635 H 144.108 -2.96865 5.33576 0
M  V30 1636 H 145.522 -0.724545 5.68703 0
M  V30 1637 H 143.919 0.001678 6.001 0
M  V30 1638 H 144.989 0.735553 4.79289 0
M  V30 1639 N 146.332 -1.57332 0.0918853 0
M  V30 1640 C 147.748 -1.57389 -0.264766 0
M  V30 1641 C 147.948 -1.10281 -1.68643 0
M  V30 1642 O 147.004 -0.777801 -2.40222 0
M  V30 1643 C 148.317 -3.00648 -0.0561195 0
M  V30 1644 C 149.865 -3.12754 -0.124116 0
M  V30 1645 C 150.34 -4.57965 0.0564972 0
M  V30 1646 N 151.831 -4.632 0.00155611 0
M  V30 1647 C 152.566 -5.73281 0.116598 0
M  V30 1648 N 152.062 -6.92208 0.286294 0
M  V30 1649 N 153.855 -5.6207 0.0580973 0
M  V30 1650 H 146.006 -1.86262 1.02079 0
M  V30 1651 H 148.269 -0.859579 0.399786 0
M  V30 1652 H 147.975 -3.393 0.925669 0
M  V30 1653 H 147.849 -3.68623 -0.799823 0
M  V30 1654 H 150.236 -2.73976 -1.09641 0
M  V30 1655 H 150.317 -2.47377 0.651024 0
M  V30 1656 H 149.961 -4.97436 1.02564 0
M  V30 1657 H 149.891 -5.21399 -0.738297 0
M  V30 1658 H 152.382 -3.77686 -0.127192 0
M  V30 1659 H 152.695 -7.71934 0.365676 0
M  V30 1660 H 151.04 -6.94254 0.32192 0
M  V30 1661 H 154.231 -4.68043 -0.0733204 0
M  V30 1662 H 154.404 -6.47824 0.151203 0
M  V30 1663 N 147.81 0.181792 -1.56548 0
M  V30 1664 C 149.056 0.896803 -1.82562 0
M  V30 1665 C 149.411 1.80324 -0.670908 0
M  V30 1666 O 148.704 1.8868 0.333235 0
M  V30 1667 C 148.898 1.73728 -3.12335 0
M  V30 1668 C 148.727 0.913714 -4.4032 0
M  V30 1669 C 147.497 0.592903 -5.01809 0
M  V30 1670 C 149.695 0.260164 -5.13642 0
M  V30 1671 N 147.677 -0.247901 -6.13399 0
M  V30 1672 C 149.048 -0.442256 -6.18421 0
M  V30 1673 C 151.103 0.177253 -4.97584 0
M  V30 1674 C 149.806 -1.21971 -7.08883 0
M  V30 1675 C 151.832 -0.586839 -5.88481 0
M  V30 1676 C 151.194 -1.27766 -6.92716 0
M  V30 1677 H 147.293 0.307122 -0.719166 0
M  V30 1678 H 149.877 0.164535 -1.94004 0
M  V30 1679 H 148.048 2.44105 -3.02105 0
M  V30 1680 H 149.78 2.39279 -3.26386 0
M  V30 1681 H 146.535 0.920502 -4.64568 0
M  V30 1682 H 146.959 -0.658304 -6.73792 0
M  V30 1683 H 151.601 0.696993 -4.17015 0
M  V30 1684 H 149.319 -1.75083 -7.88905 0
M  V30 1685 H 152.905 -0.652522 -5.78129 0
M  V30 1686 H 151.785 -1.85943 -7.61836 0
M  V30 1687 N 149.288 1.51039 0.449983 0
M  V30 1688 C 150.251 1.70863 1.5277 0
M  V30 1689 C 151.251 0.578846 1.5002 0
M  V30 1690 O 152.441 0.846213 1.52266 0
M  V30 1691 C 149.573 1.75341 2.9235 0
M  V30 1692 H 150.766 2.67034 1.36502 0
M  V30 1693 H 148.319 1.40838 0.677812 0
M  V30 1694 H 149.054 0.809383 3.14037 0
M  V30 1695 H 148.839 2.57436 2.95752 0
M  V30 1696 H 150.329 1.92559 3.70555 0
M  V30 1697 N 150.766 -0.704594 1.40972 0
M  V30 1698 C 151.698 -1.82974 1.38033 0
M  V30 1699 C 152.711 -1.60305 0.283931 0
M  V30 1700 O 153.9 -1.69975 0.545042 0
M  V30 1701 C 151 -3.19578 1.12795 0
M  V30 1702 C 150.173 -3.69352 2.34302 0
M  V30 1703 C 149.232 -4.84601 2.05058 0
M  V30 1704 O 148.258 -4.96682 2.7802 0
M  V30 1705 N 149.46 -5.71194 1.03528 0
M  V30 1706 H 152.225 -1.85991 2.35005 0
M  V30 1707 H 149.786 -0.886567 1.35468 0
M  V30 1708 H 151.778 -3.9429 0.911987 0
M  V30 1709 H 150.348 -3.11642 0.24452 0
M  V30 1710 H 149.568 -2.85649 2.71659 0
M  V30 1711 H 150.856 -3.99345 3.1528 0
M  V30 1712 H 150.254 -5.64054 0.431217 0
M  V30 1713 H 148.811 -6.45843 0.879205 0
M  V30 1714 N 152.244 -1.26651 -0.937939 0
M  V30 1715 C 153.194 -1.05156 -2.02302 0
M  V30 1716 C 154.178 0.0171233 -1.60891 0
M  V30 1717 O 155.37 -0.200213 -1.75864 0
M  V30 1718 C 152.499 -0.689962 -3.36295 0
M  V30 1719 C 151.585 -1.79626 -3.84181 0
M  V30 1720 N 151.976 -3.03422 -4.04684 0
M  V30 1721 C 150.274 -1.6806 -4.13124 0
M  V30 1722 C 150.975 -3.75345 -4.444 0
M  V30 1723 N 149.951 -3.03051 -4.51288 0
M  V30 1724 H 153.753 -1.99117 -2.1617 0
M  V30 1725 H 151.267 -1.17216 -1.12402 0
M  V30 1726 H 153.264 -0.517112 -4.13681 0
M  V30 1727 H 151.924 0.242139 -3.23796 0
M  V30 1728 H 152.935 -3.39293 -3.91281 0
M  V30 1729 H 149.612 -0.818629 -4.09396 0
M  V30 1730 H 151.002 -4.81691 -4.68427 0
M  V30 1731 N 153.722 1.14298 -1.08507 0
M  V30 1732 C 154.952 1.88945 -0.835663 0
M  V30 1733 C 155.36 1.78894 0.615928 0
M  V30 1734 O 154.703 1.1468 1.43506 0
M  V30 1735 C 154.765 3.39585 -1.17994 0
M  V30 1736 C 154.429 3.7342 -2.63451 0
M  V30 1737 C 155.426 3.73454 -3.61702 0
M  V30 1738 C 153.111 4.03368 -2.99332 0
M  V30 1739 C 155.105 4.02961 -4.93864 0
M  V30 1740 C 152.792 4.32538 -4.31687 0
M  V30 1741 C 153.79 4.32318 -5.28763 0
M  V30 1742 O 153.478 4.6078 -6.58739 0
M  V30 1743 H 153.21 0.605307 -0.300965 0
M  V30 1744 H 155.764 1.45673 -1.44806 0
M  V30 1745 H 153.994 3.83315 -0.51055 0
M  V30 1746 H 155.683 3.9554 -0.911182 0
M  V30 1747 H 156.449 3.50403 -3.35325 0
M  V30 1748 H 152.328 4.02692 -2.24411 0
M  V30 1749 H 155.872 4.02704 -5.69627 0
M  V30 1750 H 151.769 4.55059 -4.57812 0
M  V30 1751 H 152.537 4.78492 -6.64069 0
M  V30 1752 N 155.201 0.870884 1.31352 0
M  V30 1753 C 156.111 0.330783 2.32256 0
M  V30 1754 C 157.127 -0.559767 1.6475 0
M  V30 1755 O 158.303 -0.456263 1.96164 0
M  V30 1756 C 155.368 -0.458137 3.4366 0
M  V30 1757 C 154.429 0.460482 4.26823 0
M  V30 1758 C 153.662 -0.290881 5.32907 0
M  V30 1759 O 153.885 -1.51885 5.49806 0
M  V30 1760 O 152.819 0.351732 6.00871 0
M  V30 1761 H 156.645 1.16718 2.80376 0
M  V30 1762 H 154.23 0.634285 1.35267 0
M  V30 1763 H 156.112 -0.905343 4.1156 0
M  V30 1764 H 154.787 -1.27106 2.97701 0
M  V30 1765 H 153.694 0.956207 3.61673 0
M  V30 1766 H 155.027 1.23903 4.7635 0
M  V30 1767 N 156.679 -1.44442 0.630414 0
M  V30 1768 C 157.926 -2.02052 0.134617 0
M  V30 1769 C 158.254 -1.49576 -1.24327 0
M  V30 1770 O 157.509 -0.669806 -1.83881 0
M  V30 1771 C 157.808 -3.57332 0.0697835 0
M  V30 1772 C 157.474 -4.29058 1.38635 0
M  V30 1773 C 156.136 -4.4837 1.74694 0
M  V30 1774 C 158.488 -4.69872 2.25543 0
M  V30 1775 C 155.816 -5.05756 2.97369 0
M  V30 1776 C 158.168 -5.28616 3.47487 0
M  V30 1777 C 156.832 -5.46147 3.8377 0
M  V30 1778 H 156.102 -0.739361 0.0492598 0
M  V30 1779 H 158.749 -1.73217 0.816586 0
M  V30 1780 H 157.054 -3.85577 -0.695553 0
M  V30 1781 H 158.751 -3.99637 -0.330344 0
M  V30 1782 H 155.341 -4.14357 1.09574 0
M  V30 1783 H 159.525 -4.54666 1.98979 0
M  V30 1784 H 154.781 -5.17515 3.25558 0
M  V30 1785 H 158.955 -5.59192 4.15063 0
M  V30 1786 H 156.582 -5.9038 4.7891 0
M  V30 1787 N 158.157 -0.370918 -1.53173 0
M  V30 1788 C 159.087 0.464847 -2.28826 0
M  V30 1789 C 160.068 1.07936 -1.31468 0
M  V30 1790 O 161.253 1.0956 -1.60344 0
M  V30 1791 C 158.383 1.60196 -3.08147 0
M  V30 1792 C 157.337 1.11443 -4.13237 0
M  V30 1793 C 156.663 2.3422 -4.80672 0
M  V30 1794 C 157.963 0.195384 -5.21934 0
M  V30 1795 H 159.657 -0.166329 -2.98938 0
M  V30 1796 H 157.203 -0.0814359 -1.4377 0
M  V30 1797 H 159.156 2.19332 -3.59822 0
M  V30 1798 H 157.88 2.26045 -2.35735 0
M  V30 1799 H 156.539 0.545727 -3.62515 0
M  V30 1800 H 156.187 2.98537 -4.04827 0
M  V30 1801 H 155.887 2.02269 -5.51689 0
M  V30 1802 H 157.411 2.94032 -5.35143 0
M  V30 1803 H 158.825 0.694375 -5.69079 0
M  V30 1804 H 157.222 -0.0335027 -6.00091 0
M  V30 1805 H 158.292 -0.760961 -4.78892 0
M  V30 1806 N 159.635 1.57281 -0.100228 0
M  V30 1807 C 160.86 1.99302 0.573881 0
M  V30 1808 C 161.285 0.979059 1.60611 0
M  V30 1809 O 160.643 -0.0517803 1.81226 0
M  V30 1810 C 160.691 3.40274 1.19358 0
M  V30 1811 O 159.795 3.41676 2.30935 0
M  V30 1812 H 159.136 0.647944 0.145138 0
M  V30 1813 H 161.666 2.03779 -0.183156 0
M  V30 1814 H 161.676 3.78078 1.53365 0
M  V30 1815 H 160.351 4.13594 0.437385 0
M  V30 1816 H 158.928 3.15672 1.98509 0
M  V30 1817 N 161.113 -0.173488 1.56642 0
M  V30 1818 C 162.063 -1.21941 1.92651 0
M  V30 1819 C 163.047 -1.39912 0.794577 0
M  V30 1820 O 164.239 -1.41919 1.05773 0
M  V30 1821 C 161.368 -2.55935 2.28806 0
M  V30 1822 C 160.454 -2.41667 3.48508 0
M  V30 1823 N 160.845 -1.9711 4.65813 0
M  V30 1824 C 159.143 -2.72499 3.53072 0
M  V30 1825 C 159.844 -1.95253 5.47952 0
M  V30 1826 N 158.82 -2.37575 4.88937 0
M  V30 1827 H 162.622 -0.866581 2.80834 0
M  V30 1828 H 160.136 -0.381776 1.57849 0
M  V30 1829 H 162.133 -3.31511 2.52797 0
M  V30 1830 H 160.793 -2.92022 1.41961 0
M  V30 1831 H 161.804 -1.67481 4.90072 0
M  V30 1832 H 158.481 -3.12639 2.767 0
M  V30 1833 H 159.871 -1.6252 6.51948 0
M  V30 1834 N 162.591 -1.51276 -0.441967 0
M  V30 1835 C 163.523 -1.68444 -1.55433 0
M  V30 1836 C 164.536 -0.565187 -1.52674 0
M  V30 1837 O 165.725 -0.839356 -1.57534 0
M  V30 1838 C 162.825 -1.67966 -2.94348 0
M  V30 1839 C 161.998 -2.964 -3.21661 0
M  V30 1840 C 161.057 -2.88171 -4.40277 0
M  V30 1841 O 160.083 -3.62119 -4.39157 0
M  V30 1842 N 161.285 -2.03706 -5.43584 0
M  V30 1843 H 164.05 -2.644 -1.41112 0
M  V30 1844 H 161.611 -1.49104 -0.630838 0
M  V30 1845 H 163.603 -1.60035 -3.71713 0
M  V30 1846 H 162.173 -0.796225 -3.0229 0
M  V30 1847 H 161.393 -3.18234 -2.32638 0
M  V30 1848 H 162.681 -3.81427 -3.36736 0
M  V30 1849 H 162.079 -1.42995 -5.47329 0
M  V30 1850 H 160.636 -2.01658 -6.1982 0
M  V30 1851 N 164.069 0.697108 -1.41344 0
M  V30 1852 C 165.002 1.82134 -1.37486 0
M  V30 1853 C 165.98 1.60784 -0.242351 0
M  V30 1854 O 167.164 1.83553 -0.429012 0
M  V30 1855 C 164.291 3.18788 -1.14421 0
M  V30 1856 C 163.337 3.58932 -2.3037 0
M  V30 1857 S 164.17 3.63916 -3.92843 0
M  V30 1858 C 165.326 5.03298 -3.72078 0
M  V30 1859 H 165.559 1.85129 -2.32625 0
M  V30 1860 H 163.092 0.865671 -1.2785 0
M  V30 1861 H 165.05 3.97677 -1.018 0
M  V30 1862 H 163.711 3.13404 -0.20905 0
M  V30 1863 H 162.904 4.58202 -2.09922 0
M  V30 1864 H 162.506 2.87347 -2.39391 0
M  V30 1865 H 164.798 5.90753 -3.31688 0
M  V30 1866 H 165.741 5.28788 -4.70945 0
M  V30 1867 H 166.149 4.74764 -3.05384 0
M  V30 1868 N 165.547 1.27147 0.931209 0
M  V30 1869 C 166.51 1.09615 2.01289 0
M  V30 1870 C 167.51 0.0412581 1.60747 0
M  V30 1871 O 168.7 0.285545 1.71844 0
M  V30 1872 C 165.832 0.669447 3.34262 0
M  V30 1873 H 167.025 2.05662 2.18273 0
M  V30 1874 H 164.578 1.09885 1.11153 0
M  V30 1875 H 165.313 -0.292572 3.22978 0
M  V30 1876 H 165.098 1.43127 3.65044 0
M  V30 1877 H 166.588 0.568921 4.13706 0
M  V30 1878 N 167.025 -1.13721 1.09112 0
M  V30 1879 C 167.957 -2.1871 0.685467 0
M  V30 1880 C 168.97 -1.60527 -0.271068 0
M  V30 1881 O 170.159 -1.78407 -0.0576148 0
M  V30 1882 C 167.259 -3.38898 -0.0111255 0
M  V30 1883 C 166.432 -4.26597 0.966131 0
M  V30 1884 C 165.491 -5.25324 0.303539 0
M  V30 1885 O 164.517 -5.61213 0.950177 0
M  V30 1886 N 165.719 -5.72779 -0.943651 0
M  V30 1887 H 168.484 -2.54126 1.58871 0
M  V30 1888 H 166.045 -1.29012 0.978143 0
M  V30 1889 H 168.037 -4.02014 -0.465517 0
M  V30 1890 H 166.607 -3.01747 -0.816565 0
M  V30 1891 H 165.827 -3.60306 1.59917 0
M  V30 1892 H 167.115 -4.82048 1.6281 0
M  V30 1893 H 166.513 -5.45762 -1.48862 0
M  V30 1894 H 165.07 -6.37847 -1.34142 0
M  V30 1895 N 168.503 -0.877838 -1.30888 0
M  V30 1896 C 169.435 -0.296607 -2.27273 0
M  V30 1897 C 170.448 0.544799 -1.53414 0
M  V30 1898 O 171.637 0.365511 -1.74718 0
M  V30 1899 C 168.737 0.597481 -3.33592 0
M  V30 1900 C 167.91 -0.213251 -4.3688 0
M  V30 1901 C 166.969 0.610208 -5.2265 0
M  V30 1902 O 165.995 0.035441 -5.69189 0
M  V30 1903 N 167.197 1.92071 -5.47804 0
M  V30 1904 H 169.962 -1.12492 -2.77787 0
M  V30 1905 H 167.523 -0.740105 -1.43993 0
M  V30 1906 H 169.515 1.15425 -3.87891 0
M  V30 1907 H 168.085 1.32647 -2.83061 0
M  V30 1908 H 167.305 -0.951466 -3.82545 0
M  V30 1909 H 168.593 -0.769262 -5.02951 0
M  V30 1910 H 167.991 2.4107 -5.11763 0
M  V30 1911 H 166.548 2.42508 -6.05007 0
M  V30 1912 N 169.982 1.44106 -0.638065 0
M  V30 1913 C 170.912 2.33448 0.0494287 0
M  V30 1914 C 171.893 1.48606 0.827672 0
M  V30 1915 O 173.078 1.77308 0.792173 0
M  V30 1916 C 170.208 3.31771 1.02691 0
M  V30 1917 C 169.162 4.26485 0.359823 0
M  V30 1918 C 168.488 5.14729 1.44769 0
M  V30 1919 C 169.788 5.17056 -0.738296 0
M  V30 1920 H 171.482 2.91183 -0.696636 0
M  V30 1921 H 169.028 1.40014 -0.336456 0
M  V30 1922 H 170.981 3.93161 1.51666 0
M  V30 1923 H 169.705 2.7226 1.80395 0
M  V30 1924 H 168.364 3.66437 -0.10934 0
M  V30 1925 H 168.012 4.51566 2.21578 0
M  V30 1926 H 167.712 5.78913 1.00668 0
M  V30 1927 H 169.236 5.78991 1.93911 0
M  V30 1928 H 170.65 5.72342 -0.331354 0
M  V30 1929 H 169.047 5.89879 -1.10286 0
M  V30 1930 H 170.117 4.57652 -1.60258 0
M  V30 1931 N 171.46 0.379036 1.52974 0
M  V30 1932 C 172.708 -0.206014 2.01047 0
M  V30 1933 C 173.029 -1.48175 1.26765 0
M  V30 1934 O 172.299 -1.92085 0.384743 0
M  V30 1935 H 170.879 -0.0791184 0.742798 0
M  V30 1936 H 173.541 0.508366 1.88153 0
M  V30 1937 H 172.637 -0.423501 3.09213 0
M  V30 1938 N 172.938 -1.57226 0.108567 0
M  V30 1939 C 174.186 -1.94448 -0.550853 0
M  V30 1940 C 174.507 -0.992074 -1.67878 0
M  V30 1941 O 173.777 -0.0465 -1.95845 0
M  V30 1942 H 172.357 -0.717897 -0.206479 0
M  V30 1943 H 175.019 -1.94112 0.175062 0
M  V30 1944 H 174.115 -2.97218 -0.952259 0
M  V30 1945 N 174.416 0.165178 -1.56732 0
M  V30 1946 C 175.827 0.727046 -1.71962 0
M  V30 1947 C 176.178 1.82508 -0.720078 0
M  V30 1948 O 175.303 2.16082 0.117242 0
M  V30 1949 C 175.898 1.32559 -3.11791 0
M  V30 1950 C 174.457 1.83422 -3.28684 0
M  V30 1951 C 173.604 0.715567 -2.67908 0
M  V30 1952 H 176.555 -0.0602896 -1.58585 0
M  V30 1953 H 176.576 2.19533 -3.10782 0
M  V30 1954 H 176.088 0.526195 -3.84516 0
M  V30 1955 H 174.189 2.65986 -2.60926 0
M  V30 1956 H 174.302 1.97543 -4.36478 0
M  V30 1957 H 172.666 1.13758 -2.27884 0
M  V30 1958 H 173.449 -0.0720836 -3.43224 0
M  V30 1959 N 175.894 1.51508 0.433938 0
M  V30 1960 C 177.122 1.68157 1.20543 0
M  V30 1961 C 177.537 0.380362 1.84929 0
M  V30 1962 O 176.894 -0.641446 1.70856 0
M  V30 1963 C 176.945 2.79965 2.28696 0
M  V30 1964 O 176.666 4.05045 1.66943 0
M  V30 1965 C 178.167 3.07912 3.18912 0
M  V30 1966 H 175.387 0.56421 0.363191 0
M  V30 1967 H 177.931 1.97941 0.513754 0
M  V30 1968 H 176.086 2.5277 2.93574 0
M  V30 1969 H 176.5 4.67165 2.38448 0
M  V30 1970 H 177.974 3.89719 3.90926 0
M  V30 1971 H 178.451 2.20456 3.79863 0
M  V30 1972 H 179.057 3.36779 2.59731 0
M  V30 1973 N 177.372 -0.689602 1.41712 0
M  V30 1974 C 178.282 -1.83314 1.46401 0
M  V30 1975 C 179.298 -1.7036 0.35405 0
M  V30 1976 O 180.474 -1.92171 0.602692 0
M  V30 1977 C 177.539 -3.19344 1.34982 0
M  V30 1978 C 176.6 -3.44363 2.56344 0
M  V30 1979 C 175.833 -4.73904 2.45461 0
M  V30 1980 O 176.056 -5.508 1.48241 0
M  V30 1981 O 174.99 -4.99839 3.35328 0
M  V30 1982 H 178.816 -1.82314 2.42889 0
M  V30 1983 H 176.401 -0.843438 1.23315 0
M  V30 1984 H 178.283 -4.00547 1.3092 0
M  V30 1985 H 176.958 -3.21014 0.41612 0
M  V30 1986 H 175.865 -2.63067 2.65982 0
M  V30 1987 H 177.198 -3.47512 3.48563 0
M  V30 1988 N 178.85 -1.27639 -0.924453 0
M  V30 1989 C 180.096 -1.14336 -1.67497 0
M  V30 1990 C 180.429 0.309465 -1.91718 0
M  V30 1991 O 179.704 1.22608 -1.50989 0
M  V30 1992 C 179.987 -1.93096 -3.0395 0
M  V30 1993 C 179.84 -3.46381 -2.8695 0
M  V30 1994 C 181.159 -1.73798 -4.0433 0
M  V30 1995 H 178.278 -0.416728 -0.607871 0
M  V30 1996 H 180.92 -1.56832 -1.07256 0
M  V30 1997 H 179.07 -1.56982 -3.55372 0
M  V30 1998 H 180.742 -3.92343 -2.42621 0
M  V30 1999 H 178.985 -3.72557 -2.22225 0
M  V30 2000 H 179.656 -3.96735 -3.83804 0
M  V30 2001 H 182.132 -2.05293 -3.61931 0
M  V30 2002 H 181.008 -2.31294 -4.97789 0
M  V30 2003 H 181.269 -0.686725 -4.36734 0
M  V30 2004 N 180.328 1.1314 -1.09713 0
M  V30 2005 C 181.744 1.36477 -0.827423 0
M  V30 2006 C 181.944 1.93654 0.556817 0
M  V30 2007 O 181 2.15791 1.31112 0
M  V30 2008 C 182.313 2.31334 -1.92106 0
M  V30 2009 C 183.861 2.44943 -1.94864 0
M  V30 2010 C 184.336 3.4311 -3.0338 0
M  V30 2011 N 185.827 3.50662 -3.02639 0
M  V30 2012 C 186.562 4.2651 -3.83246 0
M  V30 2013 N 186.058 5.05485 -4.73768 0
M  V30 2014 N 187.851 4.2184 -3.71493 0
M  V30 2015 H 180.002 0.743807 -1.9895 0
M  V30 2016 H 182.265 0.389823 -0.864143 0
M  V30 2017 H 181.971 1.96483 -2.91698 0
M  V30 2018 H 181.845 3.31381 -1.80184 0
M  V30 2019 H 184.232 2.79079 -0.959099 0
M  V30 2020 H 184.313 1.4481 -2.10864 0
M  V30 2021 H 183.957 3.09704 -4.02549 0
M  V30 2022 H 183.887 4.43055 -2.84622 0
M  V30 2023 H 186.378 2.94315 -2.37039 0
M  V30 2024 H 186.691 5.60675 -5.3185 0
M  V30 2025 H 185.036 5.04708 -4.77802 0
M  V30 2026 H 188.227 3.5922 -3.00131 0
M  V30 2027 H 188.4 4.80697 -4.3455 0
M  V30 2028 N 181.806 0.884767 1.30421 0
M  V30 2029 C 183.052 0.503851 1.96441 0
M  V30 2030 C 183.385 -0.944518 1.69684 0
M  V30 2031 O 182.66 -1.66737 1.00145 0
M  V30 2032 C 182.943 0.779085 3.51571 0
M  V30 2033 C 182.796 2.27807 3.87846 0
M  V30 2034 C 184.115 0.255452 4.39358 0
M  V30 2035 H 181.234 0.184533 0.713524 0
M  V30 2036 H 183.876 1.10872 1.54297 0
M  V30 2037 H 182.026 0.264274 3.876 0
M  V30 2038 H 183.698 2.86127 3.61841 0
M  V30 2039 H 181.941 2.74479 3.35922 0
M  V30 2040 H 182.612 2.42125 4.96064 0
M  V30 2041 H 185.088 0.696079 4.10236 0
M  V30 2042 H 183.964 0.477361 5.4682 0
M  V30 2043 H 184.225 -0.843293 4.33983 0
M  V30 2044 N 183.284 -1.43765 0.645699 0
M  V30 2045 C 184.194 -2.34544 -0.0512957 0
M  V30 2046 C 185.21 -1.53455 -0.82022 0
M  V30 2047 O 186.386 -1.86133 -0.769176 0
M  V30 2048 C 183.451 -3.31636 -1.01087 0
M  V30 2049 C 182.512 -4.2863 -0.239712 0
M  V30 2050 C 181.745 -5.21084 -1.15358 0
M  V30 2051 O 181.968 -5.1779 -2.39269 0
M  V30 2052 O 180.902 -5.98593 -0.630038 0
M  V30 2053 H 184.728 -2.95624 0.695718 0
M  V30 2054 H 182.313 -1.43781 0.405882 0
M  V30 2055 H 184.195 -3.9136 -1.56254 0
M  V30 2056 H 182.87 -2.73069 -1.73824 0
M  V30 2057 H 181.777 -3.72408 0.355356 0
M  V30 2058 H 183.11 -4.90157 0.447936 0
M  V30 2059 N 184.763 -0.387143 -1.52771 0
M  V30 2060 C 186.009 0.196025 -2.0185 0
M  V30 2061 C 186.342 1.46641 -1.27319 0
M  V30 2062 O 185.617 1.90889 -0.373032 0
M  V30 2063 C 185.9 0.466136 -3.5707 0
M  V30 2064 C 185.753 -0.819385 -4.42274 0
M  V30 2065 C 187.072 1.25768 -4.21747 0
M  V30 2066 H 184.191 0.0697708 -0.73369 0
M  V30 2067 H 186.833 -0.516286 -1.82851 0
M  V30 2068 H 184.983 1.07293 -3.7339 0
M  V30 2069 H 186.655 -1.4563 -4.37709 0
M  V30 2070 H 184.898 -1.43517 -4.09372 0
M  V30 2071 H 185.569 -0.585065 -5.48891 0
M  V30 2072 H 188.045 0.744167 -4.09391 0
M  V30 2073 H 186.921 1.41541 -5.30337 0
M  V30 2074 H 187.182 2.27228 -3.79236 0
M  V30 2075 N 186.241 1.57166 -0.116904 0
M  V30 2076 C 187.189 2.16457 0.851418 0
M  V30 2077 C 188.183 1.11323 1.27686 0
M  V30 2078 O 189.389 1.2963 1.24884 0
M  V30 2079 H 185.764 0.69271 0.292672 0
M  V30 2080 H 187.735 2.96605 0.32685 0
M  V30 2081 C 186.484 2.77689 2.09246 0
M  V30 2082 H 185.807 3.58285 1.77402 0
M  V30 2083 H 187.247 3.22716 2.7501 0
M  V30 2084 C 185.706 1.74667 2.88085 0
M  V30 2085 O 186.236 1.19877 3.83396 0
M  V30 2086 N 184.442 1.44656 2.52038 0
M  V30 2087 H 183.989 1.89402 1.74599 0
M  V30 2088 H 183.947 0.759675 3.05084 0
M  V30 2089 N 187.719 -0.156864 1.56817 0
M  V30 2090 C 188.666 -1.19394 1.97519 0
M  V30 2091 C 189.636 -1.4322 0.841265 0
M  V30 2092 O 190.821 -1.55719 1.10255 0
M  V30 2093 C 187.961 -2.52483 2.35258 0
M  V30 2094 C 187.074 -2.35914 3.61896 0
M  V30 2095 C 186.209 -3.61969 3.88782 0
M  V30 2096 C 185.248 -3.40395 5.08722 0
M  V30 2097 N 184.385 -4.58556 5.31668 0
M  V30 2098 H 189.225 -0.839845 2.85921 0
M  V30 2099 H 186.762 -0.403264 1.41464 0
M  V30 2100 H 188.72 -3.30071 2.55165 0
M  V30 2101 H 187.35 -2.85859 1.49949 0
M  V30 2102 H 186.402 -1.49429 3.49821 0
M  V30 2103 H 187.714 -2.15926 4.49641 0
M  V30 2104 H 186.868 -4.47989 4.09135 0
M  V30 2105 H 185.607 -3.84951 2.9944 0
M  V30 2106 H 184.612 -2.52763 4.88253 0
M  V30 2107 H 185.837 -3.18822 5.99608 0
M  V30 2108 H 183.783 -4.81729 4.45279 0
M  V30 2109 H 183.7 -4.41535 6.13664 0
M  V30 2110 H 184.968 -5.45817 5.5651 0
M  V30 2111 N 189.197 -1.51736 -0.425897 0
M  V30 2112 C 190.422 -1.69082 -1.20108 0
M  V30 2113 C 190.847 -0.392398 -1.83962 0
M  V30 2114 O 190.205 0.64858 -1.69302 0
M  V30 2115 C 190.253 -2.81604 -2.25237 0
M  V30 2116 O 189.357 -2.46004 -3.30992 0
M  V30 2117 H 188.698 -0.563408 -0.35138 0
M  V30 2118 H 191.228 -1.98358 -0.501512 0
M  V30 2119 H 191.238 -3.06025 -2.69838 0
M  V30 2120 H 189.913 -3.75817 -1.78142 0
M  V30 2121 H 188.49 -2.32195 -2.91787 0
M  V30 2122 N 190.675 0.682077 -1.42076 0
M  V30 2123 C 191.9 1.47558 -1.45744 0
M  V30 2124 C 192.325 1.87977 -0.0680981 0
M  V30 2125 O 191.683 1.55522 0.9318 0
M  V30 2126 C 191.731 2.70575 -2.38373 0
M  V30 2127 O 190.835 3.68573 -1.85007 0
M  V30 2128 H 190.176 0.443585 -0.494093 0
M  V30 2129 H 192.706 0.837238 -1.86686 0
M  V30 2130 H 192.716 3.18729 -2.54707 0
M  V30 2131 H 191.391 2.40495 -3.39315 0
M  V30 2132 H 189.968 3.2757 -1.78192 0
M  V30 2133 N 192.153 1.28127 0.917671 0
M  V30 2134 C 193.564 1.13622 1.48145 0
M  V30 2135 C 193.915 -0.275207 1.9426 0
M  V30 2136 O 193.04 -1.1691 1.82102 0
M  V30 2137 C 193.635 2.05648 2.69248 0
M  V30 2138 C 192.194 1.95219 3.21818 0
M  V30 2139 C 191.341 1.97618 1.94532 0
M  V30 2140 H 194.292 1.40874 0.730772 0
M  V30 2141 H 194.313 1.61818 3.44377 0
M  V30 2142 H 193.825 3.08365 2.35653 0
M  V30 2143 H 191.926 0.955244 3.60147 0
M  V30 2144 H 192.039 2.81976 3.87333 0
M  V30 2145 H 190.403 1.41973 2.11461 0
M  V30 2146 H 191.186 3.02007 1.63238 0
M  V30 2147 N 193.631 -1.12557 1.10312 0
M  V30 2148 C 194.877 -1.84311 0.846011 0
M  V30 2149 C 195.21 -1.83805 -0.626859 0
M  V30 2150 O 194.485 -1.28268 -1.46211 0
M  V30 2151 C 194.768 -3.32048 1.39341 0
M  V30 2152 C 194.621 -3.41016 2.93305 0
M  V30 2153 C 195.94 -4.27764 1.03468 0
M  V30 2154 H 193.059 -0.669192 0.30879 0
M  V30 2155 H 195.701 -1.32057 1.36605 0
M  V30 2156 H 193.851 -3.76678 0.951087 0
M  V30 2157 H 195.523 -3.05031 3.46055 0
M  V30 2158 H 193.766 -2.81603 3.29973 0
M  V30 2159 H 194.437 -4.44948 3.26689 0
M  V30 2160 H 196.913 -3.91253 1.41633 0
M  V30 2161 H 195.789 -5.29549 1.44463 0
M  V30 2162 H 196.05 -4.42064 -0.0560404 0
M  V30 2163 N 195.109 -0.891671 -1.2995 0
M  V30 2164 C 196.355 -0.514261 -1.96171 0
M  V30 2165 C 196.688 0.935506 -1.70182 0
M  V30 2166 O 195.963 1.66204 -1.01028 0
M  V30 2167 C 196.246 -0.797719 -3.51153 0
M  V30 2168 C 196.099 -2.2986 -3.86632 0
M  V30 2169 C 197.418 -0.278749 -4.39216 0
M  V30 2170 H 194.537 -0.188314 -0.712535 0
M  V30 2171 H 197.179 -1.11689 -1.53706 0
M  V30 2172 H 195.329 -0.284826 -3.87455 0
M  V30 2173 H 197.001 -2.88042 -3.60319 0
M  V30 2174 H 195.244 -2.76257 -3.34462 0
M  V30 2175 H 195.915 -2.44753 -4.94773 0
M  V30 2176 H 198.391 -0.717825 -4.09862 0
M  V30 2177 H 197.267 -0.506353 -5.46559 0
M  V30 2178 H 197.528 0.820266 -4.34424 0
M  V30 2179 N 196.587 1.43421 -0.653314 0
M  V30 2180 C 197.833 2.02641 -0.175593 0
M  V30 2181 C 198.188 1.5062 1.19713 0
M  V30 2182 O 197.481 0.689697 1.78756 0
M  V30 2183 C 197.675 3.57176 -0.126623 0
M  V30 2184 C 197.504 4.24191 -1.49306 0
M  V30 2185 C 196.274 4.60257 -2.08547 0
M  V30 2186 C 198.472 4.53193 -2.43148 0
M  V30 2187 N 196.454 5.12345 -3.38194 0
M  V30 2188 C 197.825 5.06601 -3.57429 0
M  V30 2189 C 199.88 4.35161 -2.41949 0
M  V30 2190 C 198.583 5.43875 -4.70736 0
M  V30 2191 C 200.609 4.73498 -3.54336 0
M  V30 2192 C 199.971 5.27039 -4.67343 0
M  V30 2193 H 196.07 0.77441 -0.108686 0
M  V30 2194 H 198.654 1.74596 -0.861638 0
M  V30 2195 H 196.825 3.84784 0.528766 0
M  V30 2196 H 198.557 4.03078 0.36198 0
M  V30 2197 H 195.312 4.45302 -1.61255 0
M  V30 2198 H 195.736 5.42842 -4.04538 0
M  V30 2199 H 200.378 3.9304 -1.55818 0
M  V30 2200 H 198.096 5.8494 -5.57558 0
M  V30 2201 H 201.682 4.61241 -3.5461 0
M  V30 2202 H 200.562 5.56153 -5.52868 0
M  V30 2203 N 198.065 0.39524 1.52563 0
M  V30 2204 C 198.995 -0.428384 2.29537 0
M  V30 2205 C 199.976 -1.05831 1.33169 0
M  V30 2206 O 201.161 -1.06995 1.62067 0
M  V30 2207 C 198.291 -1.55274 3.10656 0
M  V30 2208 C 197.245 -1.04855 4.14957 0
M  V30 2209 C 196.571 -2.26543 4.84337 0
M  V30 2210 C 197.871 -0.112324 5.22179 0
M  V30 2211 H 199.565 0.213867 2.98635 0
M  V30 2212 H 197.111 0.104298 1.43622 0
M  V30 2213 H 199.064 -2.1358 3.63265 0
M  V30 2214 H 197.788 -2.22266 2.39302 0
M  V30 2215 H 196.447 -0.487985 3.63338 0
M  V30 2216 H 196.095 -2.92059 4.09525 0
M  V30 2217 H 195.795 -1.93466 5.54837 0
M  V30 2218 H 197.319 -2.85481 5.39753 0
M  V30 2219 H 198.733 -0.603752 5.70112 0
M  V30 2220 H 197.13 0.128968 5.99961 0
M  V30 2221 H 198.2 0.837052 4.77621 0
M  V30 2222 N 199.544 -1.57102 0.125237 0
M  V30 2223 C 200.491 -2.15641 -0.822655 0
M  V30 2224 C 201.461 -1.08313 -1.25927 0
M  V30 2225 O 202.646 -1.36251 -1.33567 0
M  V30 2226 C 199.786 -2.76504 -2.06494 0
M  V30 2227 C 198.899 -3.98158 -1.67612 0
M  V30 2228 C 198.034 -4.47088 -2.86854 0
M  V30 2229 C 197.073 -5.6126 -2.44242 0
M  V30 2230 N 196.21 -6.04905 -3.56419 0
M  V30 2231 H 201.05 -2.96313 -0.316625 0
M  V30 2232 H 198.587 -1.46388 -0.144588 0
M  V30 2233 H 200.545 -3.09925 -2.79289 0
M  V30 2234 H 199.175 -1.98512 -2.54545 0
M  V30 2235 H 198.227 -3.70858 -0.846661 0
M  V30 2236 H 199.539 -4.80934 -1.32301 0
M  V30 2237 H 198.693 -4.82451 -3.67867 0
M  V30 2238 H 197.432 -3.63275 -3.25396 0
M  V30 2239 H 196.437 -5.25495 -1.61663 0
M  V30 2240 H 197.662 -6.46843 -2.0681 0
M  V30 2241 H 195.608 -5.24032 -3.94623 0
M  V30 2242 H 195.525 -6.82552 -3.25051 0
M  V30 2243 H 196.793 -6.44907 -4.37853 0
M  V30 2244 N 201.022 0.148545 -1.56898 0
M  V30 2245 C 202.25 0.876389 -1.87422 0
M  V30 2246 C 202.665 1.74809 -0.713256 0
M  V30 2247 O 202.022 1.79725 0.317025 0
M  V30 2248 C 202.073 1.73438 -3.17178 0
M  V30 2249 O 201.794 0.897809 -4.28802 0
M  V30 2250 C 203.295 2.56993 -3.61205 0
M  V30 2251 H 200.515 0.253489 -0.621277 0
M  V30 2252 H 203.059 0.141798 -2.04008 0
M  V30 2253 H 201.214 2.42205 -3.0235 0
M  V30 2254 H 201.628 1.48672 -5.02988 0
M  V30 2255 H 203.102 3.12773 -4.54838 0
M  V30 2256 H 203.579 3.32958 -2.86419 0
M  V30 2257 H 204.185 1.9352 -3.78722 0
M  V30 2258 N 202.5 1.5196 0.417844 0
M  V30 2259 C 203.746 1.66793 1.16411 0
M  V30 2260 C 204.101 0.388758 1.88432 0
M  V30 2261 O 203.394 -0.616409 1.81414 0
M  V30 2262 C 203.588 2.82269 2.19223 0
M  V30 2263 C 203.417 4.21293 1.57297 0
M  V30 2264 C 202.187 4.86948 1.34944 0
M  V30 2265 C 204.385 5.03704 1.03858 0
M  V30 2266 N 202.367 6.1003 0.688195 0
M  V30 2267 C 203.738 6.1795 0.503742 0
M  V30 2268 C 205.793 4.89095 0.932203 0
M  V30 2269 C 204.496 7.19188 -0.127034 0
M  V30 2270 C 206.522 5.90559 0.315293 0
M  V30 2271 C 205.884 7.0409 -0.208906 0
M  V30 2272 H 201.983 0.66407 0.412959 0
M  V30 2273 H 204.567 1.89242 0.457772 0
M  V30 2274 H 202.738 2.61451 2.87225 0
M  V30 2275 H 204.47 2.86183 2.86149 0
M  V30 2276 H 201.225 4.45156 1.61657 0
M  V30 2277 H 201.649 6.75964 0.374449 0
M  V30 2278 H 206.291 4.01557 1.32332 0
M  V30 2279 H 204.009 8.06359 -0.530231 0
M  V30 2280 H 207.595 5.81327 0.234625 0
M  V30 2281 H 206.475 7.81257 -0.67875 0
M  V30 2282 N 203.978 -0.674533 1.42435 0
M  V30 2283 C 204.908 -1.80009 1.48724 0
M  V30 2284 C 205.889 -1.6659 0.343793 0
M  V30 2285 O 207.074 -1.86007 0.558137 0
M  V30 2286 C 204.204 -3.18306 1.38919 0
M  V30 2287 C 203.158 -3.46461 2.51294 0
M  V30 2288 C 202.484 -4.84335 2.26547 0
M  V30 2289 C 203.784 -3.43328 3.93603 0
M  V30 2290 H 205.478 -1.75004 2.42928 0
M  V30 2291 H 203.024 -0.840533 1.16923 0
M  V30 2292 H 204.977 -3.9678 1.41927 0
M  V30 2293 H 203.701 -3.2399 0.412094 0
M  V30 2294 H 202.36 -2.70348 2.47604 0
M  V30 2295 H 202.008 -4.86669 1.2713 0
M  V30 2296 H 201.708 -5.04136 3.01861 0
M  V30 2297 H 203.232 -5.65094 2.31304 0
M  V30 2298 H 204.646 -4.11772 3.98894 0
M  V30 2299 H 203.043 -3.74664 4.68771 0
M  V30 2300 H 204.113 -2.41897 4.20255 0
M  V30 2301 N 205.456 -1.28612 -0.910864 0
M  V30 2302 C 206.681 -1.1891 -1.69927 0
M  V30 2303 C 207.106 0.248372 -1.86453 0
M  V30 2304 O 206.464 1.17961 -1.37676 0
M  V30 2305 C 206.512 -1.89578 -3.06745 0
M  V30 2306 O 205.616 -1.20521 -3.94396 0
M  V30 2307 H 204.957 -0.412632 -0.520222 0
M  V30 2308 H 207.487 -1.69985 -1.1387 0
M  V30 2309 H 207.497 -1.97597 -3.56958 0
M  V30 2310 H 206.172 -2.94136 -2.94035 0
M  V30 2311 H 204.749 -1.20684 -3.52831 0
M  V30 2312 N 206.934 1.1197 -1.10907 0
M  V30 2313 C 208.345 1.65114 -0.871446 0
M  V30 2314 C 208.696 1.86885 0.597353 0
M  V30 2315 O 207.821 1.59896 1.45816 0
M  V30 2316 C 208.416 2.99944 -1.5754 0
M  V30 2317 C 206.975 3.50018 -1.38435 0
M  V30 2318 C 206.122 2.24941 -1.62164 0
M  V30 2319 H 209.073 0.956851 -1.2661 0
M  V30 2320 H 209.094 3.66651 -1.01721 0
M  V30 2321 H 208.606 2.84067 -2.64438 0
M  V30 2322 H 206.707 3.71071 -0.337214 0
M  V30 2323 H 206.82 4.29165 -2.12965 0
M  V30 2324 H 205.184 2.3229 -1.04467 0
M  V30 2325 H 205.967 2.11612 -2.70324 0
M  V30 2326 N 208.412 0.89855 1.29475 0
M  V30 2327 C 209.36 0.365253 2.29714 0
M  V30 2328 C 210.354 -0.534993 1.6073 0
M  V30 2329 O 211.56 -0.417921 1.75081 0
M  V30 2330 H 207.935 0.0994853 0.74539 0
M  V30 2331 H 209.906 1.22406 2.72138 0
M  V30 2332 C 208.655 -0.393159 3.4547 0
M  V30 2333 H 207.978 0.290332 3.98744 0
M  V30 2334 H 209.418 -0.731189 4.17648 0
M  V30 2335 C 207.877 -1.59539 2.9673 0
M  V30 2336 O 208.407 -2.69469 2.97908 0
M  V30 2337 N 206.613 -1.43716 2.52575 0
M  V30 2338 H 206.16 -0.542828 2.51816 0
M  V30 2339 H 206.118 -2.24288 2.20323 0
M  V30 2340 N 209.89 -1.43072 0.660911 0
M  V30 2341 C 211.139 -2.00942 0.174735 0
M  V30 2342 C 211.452 -1.52797 -1.22117 0
M  V30 2343 O 212.658 -2.02991 -1.80297 0
M  V30 2344 C 211.114 -3.58948 0.261559 0
M  V30 2345 C 210.722 -4.16085 1.66064 0
M  V30 2346 C 212.466 -4.24173 -0.166617 0
M  V30 2347 C 210.373 -5.6641 1.70098 0
M  V30 2348 H 209.303 -0.751483 0.0615631 0
M  V30 2349 H 211.954 -1.63955 0.824069 0
M  V30 2350 H 210.336 -3.93372 -0.455421 0
M  V30 2351 H 211.51 -3.93147 2.40359 0
M  V30 2352 H 209.825 -3.6326 2.03546 0
M  V30 2353 H 212.422 -5.34471 -0.156433 0
M  V30 2354 H 212.765 -3.98647 -1.19943 0
M  V30 2355 H 213.298 -3.94659 0.498875 0
M  V30 2356 H 210.037 -5.96715 2.71315 0
M  V30 2357 H 209.557 -5.91382 1.00139 0
M  V30 2358 H 211.236 -6.30585 1.44816 0
M  V30 2359 N 211.368 -0.403325 -1.52352 0
M  V30 2360 C 212.614 0.167015 -2.02713 0
M  V30 2361 C 212.969 1.43296 -1.28391 0
M  V30 2362 O 212.262 1.87796 -0.379885 0
M  V30 2363 C 212.456 0.474665 -3.54234 0
M  V30 2364 C 212.285 -0.759909 -4.43233 0
M  V30 2365 C 211.055 -1.28338 -4.88731 0
M  V30 2366 C 213.253 -1.63634 -4.87574 0
M  V30 2367 N 211.235 -2.47404 -5.6184 0
M  V30 2368 C 212.606 -2.67329 -5.59406 0
M  V30 2369 C 214.661 -1.65478 -4.69597 0
M  V30 2370 C 213.364 -3.72773 -6.15169 0
M  V30 2371 C 215.39 -2.69837 -5.26253 0
M  V30 2372 C 214.752 -3.72253 -5.98002 0
M  V30 2373 H 210.851 0.0228343 -0.781667 0
M  V30 2374 H 213.435 -0.556368 -1.86581 0
M  V30 2375 H 211.606 1.16709 -3.7045 0
M  V30 2376 H 213.338 1.03338 -3.91284 0
M  V30 2377 H 210.093 -0.842273 -4.6605 0
M  V30 2378 H 210.517 -3.07688 -6.0304 0
M  V30 2379 H 215.159 -0.876389 -4.13617 0
M  V30 2380 H 212.877 -4.51471 -6.70223 0
M  V30 2381 H 216.463 -2.72164 -5.14216 0
M  V30 2382 H 215.343 -4.51679 -6.41058 0
M  V30 2383 N 212.846 1.57033 -0.133567 0
M  V30 2384 C 214.092 1.95976 0.521649 0
M  V30 2385 C 214.425 1.01779 1.65393 0
M  V30 2386 O 213.7 0.0576581 1.94415 0
M  V30 2387 C 213.983 3.44738 1.04057 0
M  V30 2388 C 213.836 4.49711 -0.0892897 0
M  V30 2389 C 215.155 3.95682 1.92675 0
M  V30 2390 H 212.274 0.712579 0.188149 0
M  V30 2391 H 214.916 1.88813 -0.212076 0
M  V30 2392 H 213.066 3.50973 1.66583 0
M  V30 2393 H 214.738 4.55565 -0.725152 0
M  V30 2394 H 212.981 4.27261 -0.750378 0
M  V30 2395 H 213.652 5.51099 0.315284 0
M  V30 2396 H 216.128 3.91841 1.39998 0
M  V30 2397 H 215.004 5.00262 2.25897 0
M  V30 2398 H 215.265 3.37239 2.85872 0
M  V30 2399 N 214.325 -0.140222 1.56975 0
M  V30 2400 C 215.741 -0.493088 1.51792 0
M  V30 2401 C 215.941 -1.83013 0.843116 0
M  V30 2402 O 214.997 -2.49041 0.416493 0
M  V30 2403 C 216.31 -0.497144 2.96562 0
M  V30 2404 C 217.858 -0.582186 3.07538 0
M  V30 2405 C 218.333 -0.616838 4.53827 0
M  V30 2406 N 219.824 -0.678873 4.58198 0
M  V30 2407 C 220.559 -0.726782 5.68775 0
M  V30 2408 N 220.055 -0.733623 6.88905 0
M  V30 2409 N 221.848 -0.768179 5.56826 0
M  V30 2410 H 213.999 0.736108 1.99237 0
M  V30 2411 H 216.262 0.269182 0.90898 0
M  V30 2412 H 215.968 0.417217 3.49217 0
M  V30 2413 H 215.842 -1.33263 3.52875 0
M  V30 2414 H 218.229 -1.48697 2.54899 0
M  V30 2415 H 218.31 0.280581 2.54257 0
M  V30 2416 H 217.954 0.283812 5.07106 0
M  V30 2417 H 217.884 -1.49619 5.04898 0
M  V30 2418 H 220.375 -0.68061 3.7172 0
M  V30 2419 H 220.688 -0.772215 7.68932 0
M  V30 2420 H 219.033 -0.701389 6.91452 0
M  V30 2421 H 222.224 -0.760051 4.61888 0
M  V30 2422 H 222.397 -0.80205 6.43017 0
M  V30 2423 N 215.803 -1.52179 -0.40978 0
M  V30 2424 C 217.049 -1.66453 -1.15851 0
M  V30 2425 C 217.382 -0.392972 -1.90182 0
M  V30 2426 O 216.657 0.608579 -1.84734 0
M  V30 2427 C 216.94 -2.88612 -2.15349 0
M  V30 2428 C 216.793 -4.25815 -1.44918 0
M  V30 2429 C 218.112 -3.06294 -3.16026 0
M  V30 2430 H 215.231 -0.60575 -0.419805 0
M  V30 2431 H 217.873 -1.84732 -0.444314 0
M  V30 2432 H 216.023 -2.73158 -2.76255 0
M  V30 2433 H 217.695 -4.52995 -0.871365 0
M  V30 2434 H 215.938 -4.27247 -0.751159 0
M  V30 2435 H 216.609 -5.07337 -2.17516 0
M  V30 2436 H 219.085 -3.20641 -2.65195 0
M  V30 2437 H 217.961 -3.93283 -3.8291 0
M  V30 2438 H 218.222 -2.19579 -3.83715 0
M  V30 2439 N 217.281 0.66697 -1.42791 0
M  V30 2440 C 218.692 1.2478 -1.38877 0
M  V30 2441 C 219.043 1.96012 -0.0859426 0
M  V30 2442 O 218.168 2.00463 0.815081 0
M  V30 2443 C 218.763 2.26938 -2.51564 0
M  V30 2444 C 217.322 2.80529 -2.50959 0
M  V30 2445 C 216.469 1.54965 -2.29959 0
M  V30 2446 H 219.42 0.459853 -1.51892 0
M  V30 2447 H 219.441 3.08834 -2.22265 0
M  V30 2448 H 218.953 1.75065 -3.46372 0
M  V30 2449 H 217.054 3.36502 -1.59991 0
M  V30 2450 H 217.167 3.29012 -3.48265 0
M  V30 2451 H 215.531 1.81817 -1.78366 0
M  V30 2452 H 216.314 1.05047 -3.26833 0
M  V30 2453 N 218.759 1.29093 0.90403 0
M  V30 2454 C 219.689 1.16401 2.02418 0
M  V30 2455 C 220.67 0.0593085 1.69997 0
M  V30 2456 O 221.855 0.238021 1.92736 0
M  V30 2457 C 218.985 0.835233 3.37107 0
M  V30 2458 C 217.939 1.89578 3.83724 0
M  V30 2459 C 217.265 1.42041 5.15489 0
M  V30 2460 C 218.565 3.30394 4.04521 0
M  V30 2461 H 220.259 2.10109 2.13295 0
M  V30 2462 H 217.805 1.01157 1.02486 0
M  V30 2463 H 219.758 0.733169 4.14973 0
M  V30 2464 H 218.482 -0.137543 3.2631 0
M  V30 2465 H 217.141 1.98715 3.08071 0
M  V30 2466 H 216.789 0.436426 5.01103 0
M  V30 2467 H 216.489 2.12964 5.4765 0
M  V30 2468 H 218.013 1.33176 5.959 0
M  V30 2469 H 219.427 3.24123 4.72882 0
M  V30 2470 H 217.824 3.99237 4.48029 0
M  V30 2471 H 218.894 3.73692 3.09002 0
M  V30 2472 N 220.237 -1.11381 1.11499 0
M  V30 2473 C 221.465 -1.86934 0.88675 0
M  V30 2474 C 221.88 -1.80195 -0.563476 0
M  V30 2475 O 221.237 -1.18367 -1.38908 0
M  V30 2476 C 221.288 -3.35722 1.34064 0
M  V30 2477 O 221.009 -3.4232 2.73401 0
M  V30 2478 C 222.51 -4.2818 1.14791 0
M  V30 2479 H 219.73 -0.591117 0.317523 0
M  V30 2480 H 222.274 -1.40865 1.48248 0
M  V30 2481 H 220.429 -3.79294 0.788355 0
M  V30 2482 H 220.843 -4.34971 2.93087 0
M  V30 2483 H 222.317 -5.30817 1.5145 0
M  V30 2484 H 222.794 -4.39113 0.0875279 0
M  V30 2485 H 223.4 -3.90402 1.68721 0
M  V30 2486 N 221.715 -0.905404 -1.28997 0
M  V30 2487 C 222.625 -0.392246 -2.31298 0
M  V30 2488 C 223.641 0.515889 -1.66176 0
M  V30 2489 O 224.817 0.404093 -1.97304 0
M  V30 2490 C 221.882 0.36686 -3.44754 0
M  V30 2491 C 220.943 -0.573485 -4.25452 0
M  V30 2492 C 220.176 0.149488 -5.33491 0
M  V30 2493 O 220.399 1.37255 -5.5364 0
M  V30 2494 O 219.333 -0.510919 -5.99728 0
M  V30 2495 H 223.159 -1.2411 -2.77183 0
M  V30 2496 H 220.744 -0.669926 -1.33538 0
M  V30 2497 H 222.626 0.795907 -4.13816 0
M  V30 2498 H 221.301 1.19169 -3.00966 0
M  V30 2499 H 220.208 -1.05176 -3.59011 0
M  V30 2500 H 221.541 -1.36489 -4.72897 0
M  V30 2501 N 223.193 1.4272 -0.668489 0
M  V30 2502 C 224.442 2.00846 -0.185389 0
M  V30 2503 C 224.755 1.53442 1.21305 0
M  V30 2504 O 225.961 2.03944 1.79218 0
M  V30 2505 C 224.417 3.58805 -0.280591 0
M  V30 2506 C 224.025 4.15198 -1.68268 0
M  V30 2507 C 225.769 4.24255 0.14412 0
M  V30 2508 C 223.676 5.655 -1.73099 0
M  V30 2509 H 222.606 0.751145 -0.0655475 0
M  V30 2510 H 225.257 1.63516 -0.832752 0
M  V30 2511 H 223.639 3.93608 0.434553 0
M  V30 2512 H 224.813 3.91866 -2.42441 0
M  V30 2513 H 223.128 3.62176 -2.05469 0
M  V30 2514 H 225.725 5.34547 0.128086 0
M  V30 2515 H 226.068 3.99277 1.17827 0
M  V30 2516 H 226.601 3.94389 -0.519798 0
M  V30 2517 H 223.34 5.95268 -2.74475 0
M  V30 2518 H 222.86 5.90842 -1.03274 0
M  V30 2519 H 224.539 6.29808 -1.48158 0
M  V30 2520 N 224.671 0.411399 1.52136 0
M  V30 2521 C 225.621 -0.430376 2.23901 0
M  V30 2522 C 226.605 -1.0116 1.25121 0
M  V30 2523 O 227.797 -0.934044 1.50348 0
M  V30 2524 C 224.926 -1.54527 3.06556 0
M  V30 2525 C 224.012 -0.9747 4.12747 0
M  V30 2526 N 224.403 -0.130991 5.0563 0
M  V30 2527 C 222.701 -1.24497 4.28271 0
M  V30 2528 C 223.402 0.186689 5.814 0
M  V30 2529 N 222.378 -0.42304 5.41951 0
M  V30 2530 H 226.18 0.220509 2.93072 0
M  V30 2531 H 223.694 0.221952 1.60876 0
M  V30 2532 H 225.691 -2.16093 3.56524 0
M  V30 2533 H 224.351 -2.19875 2.38925 0
M  V30 2534 H 225.362 0.23349 5.17373 0
M  V30 2535 H 222.039 -1.89787 3.7187 0
M  V30 2536 H 223.429 0.871673 6.66222 0
M  V30 2537 N 226.149 -1.5696 0.141893 0
M  V30 2538 C 227.081 -2.13619 -0.830627 0
M  V30 2539 C 228.094 -1.08439 -1.21428 0
M  V30 2540 O 229.283 -1.35734 -1.15925 0
M  V30 2541 C 226.383 -2.63978 -2.12529 0
M  V30 2542 C 225.556 -3.93504 -1.9098 0
M  V30 2543 C 224.615 -4.29225 -3.04388 0
M  V30 2544 O 223.641 -4.97641 -2.76302 0
M  V30 2545 N 224.843 -3.88393 -4.31429 0
M  V30 2546 H 227.608 -2.97691 -0.34641 0
M  V30 2547 H 225.169 -1.61846 -0.0418375 0
M  V30 2548 H 227.161 -2.84891 -2.87436 0
M  V30 2549 H 225.731 -1.84659 -2.52229 0
M  V30 2550 H 224.951 -3.81269 -1.00139 0
M  V30 2551 H 226.239 -4.78154 -1.73914 0
M  V30 2552 H 225.637 -3.33257 -4.57117 0
M  V30 2553 H 224.194 -4.14368 -5.03133 0
M  V30 2554 N 227.627 0.131896 -1.57047 0
M  V30 2555 C 228.875 0.840269 -1.83804 0
M  V30 2556 C 229.196 1.81017 -0.72512 0
M  V30 2557 O 228.466 1.94272 0.251995 0
M  V30 2558 H 227.046 0.313294 -0.678127 0
M  V30 2559 H 229.708 0.122294 -1.94516 0
M  V30 2560 H 228.804 1.39335 -2.79271 0
M  V30 2561 N 229.106 1.52395 0.401703 0
M  V30 2562 C 230.383 1.57387 1.16141 0
M  V30 2563 C 230.763 0.359359 2.08019 0
M  V30 2564 O 230.111 -0.65326 2.18963 0
M  V30 2565 C 230.321 2.90631 1.93221 0
M  V30 2566 C 231.669 3.43904 2.49028 0
M  V30 2567 O 232.693 2.92421 2.03393 0
M  V30 2568 O 231.552 4.33823 3.32356 0
M  V30 2569 H 228.646 0.634262 0.530698 0
M  V30 2570 H 231.192 1.64725 0.407883 0
M  V30 2571 H 229.964 3.70473 1.25958 0
M  V30 2572 H 229.587 2.8662 2.75563 0
M  V30 2573 N 230.584 -0.659388 1.43143 0
M  V30 2574 C 231.831 -1.41935 1.44433 0
M  V30 2575 C 232.159 -1.94387 0.0663522 0
M  V30 2576 O 231.414 -1.72314 -0.927706 0
M  V30 2577 C 231.713 -2.62206 2.42864 0
M  V30 2578 C 231.379 -2.28208 3.88886 0
M  V30 2579 C 230.041 -2.18647 4.28657 0
M  V30 2580 C 232.393 -2.00887 4.8093 0
M  V30 2581 C 229.721 -1.79914 5.58433 0
M  V30 2582 C 232.073 -1.63653 6.11065 0
M  V30 2583 C 230.737 -1.52614 6.49819 0
M  V30 2584 H 230.007 -0.519376 0.528517 0
M  V30 2585 H 232.654 -0.750453 1.76183 0
M  V30 2586 H 230.959 -3.34199 2.04495 0
M  V30 2587 H 232.656 -3.2041 2.41119 0
M  V30 2588 H 229.246 -2.36557 3.57406 0
M  V30 2589 H 233.43 -2.07198 4.5098 0
M  V30 2590 H 228.686 -1.69948 5.87305 0
M  V30 2591 H 232.86 -1.41543 6.81864 0
M  V30 2592 H 230.487 -1.22371 7.50286 0
M  V30 2593 N 232.062 -1.29571 -0.897171 0
M  V30 2594 C 233.287 -1.20705 -1.68656 0
M  V30 2595 C 233.712 0.228582 -1.86706 0
M  V30 2596 O 233.07 1.16494 -1.3892 0
M  V30 2597 C 233.118 -1.9282 -3.04717 0
M  V30 2598 O 232.222 -1.24697 -3.93096 0
M  V30 2599 H 231.563 -0.418126 -0.515816 0
M  V30 2600 H 234.093 -1.71183 -1.12061 0
M  V30 2601 H 234.103 -2.01372 -3.54843 0
M  V30 2602 H 232.778 -2.97239 -2.90899 0
M  V30 2603 H 231.355 -1.2442 -3.51531 0
M  V30 2604 N 233.54 1.10788 -1.12088 0
M  V30 2605 C 234.951 1.64181 -0.88891 0
M  V30 2606 C 235.302 1.87508 0.577498 0
M  V30 2607 O 234.427 1.61434 1.44112 0
M  V30 2608 C 235.022 2.98257 -1.60712 0
M  V30 2609 C 233.581 3.4853 -1.42139 0
M  V30 2610 C 232.728 2.23208 -1.6454 0
M  V30 2611 H 235.679 0.943368 -1.27618 0
M  V30 2612 H 235.7 3.65552 -1.05604 0
M  V30 2613 H 235.212 2.81246 -2.67436 0
M  V30 2614 H 233.313 3.70692 -0.376552 0
M  V30 2615 H 233.426 4.26882 -2.17505 0
M  V30 2616 H 231.79 2.31169 -1.06925 0
M  V30 2617 H 232.573 2.08733 -2.72554 0
M  V30 2618 N 235.018 0.912232 1.28515 0
M  V30 2619 C 235.948 0.416403 2.29757 0
M  V30 2620 C 236.929 -0.515194 1.6211 0
M  V30 2621 O 238.114 -0.423253 1.89532 0
M  V30 2622 C 235.244 -0.34572 3.45575 0
M  V30 2623 C 234.198 0.496599 4.25109 0
M  V30 2624 C 233.524 -0.393771 5.33248 0
M  V30 2625 C 234.824 1.75307 4.92001 0
M  V30 2626 H 236.518 1.26249 2.7148 0
M  V30 2627 H 234.064 0.608515 1.30511 0
M  V30 2628 H 236.017 -0.703422 4.15488 0
M  V30 2629 H 234.741 -1.2257 3.02728 0
M  V30 2630 H 233.4 0.8368 3.56922 0
M  V30 2631 H 233.048 -1.27225 4.86644 0
M  V30 2632 H 232.748 0.166209 5.87365 0
M  V30 2633 H 234.272 -0.747389 6.06009 0
M  V30 2634 H 235.686 1.46437 5.54283 0
M  V30 2635 H 234.083 2.25534 5.56106 0
M  V30 2636 H 235.153 2.48176 4.16577 0
M  V30 2637 N 236.496 -1.42363 0.676048 0
M  V30 2638 C 237.743 -2.01522 0.19883 0
M  V30 2639 C 238.071 -1.53456 -1.19505 0
M  V30 2640 O 237.326 -0.727967 -1.81657 0
M  V30 2641 C 237.625 -3.56929 0.183431 0
M  V30 2642 C 237.291 -4.24431 1.52215 0
M  V30 2643 C 235.953 -4.42585 1.8887 0
M  V30 2644 C 238.305 -4.62459 2.40377 0
M  V30 2645 C 235.633 -4.96039 3.13309 0
M  V30 2646 C 237.985 -5.17294 3.64129 0
M  V30 2647 C 236.649 -5.33661 4.00951 0
M  V30 2648 H 235.919 -0.737419 0.0727571 0
M  V30 2649 H 238.566 -1.70531 0.871281 0
M  V30 2650 H 236.871 -3.87594 -0.572532 0
M  V30 2651 H 238.568 -4.00486 -0.203035 0
M  V30 2652 H 235.158 -4.10661 1.22701 0
M  V30 2653 H 239.342 -4.48105 2.13343 0
M  V30 2654 H 234.598 -5.06896 3.41857 0
M  V30 2655 H 238.772 -5.45704 4.32644 0
M  V30 2656 H 236.399 -5.74845 4.9745 0
M  V30 2657 N 237.974 -0.419461 -1.51915 0
M  V30 2658 C 239.39 -0.0708431 -1.59443 0
M  V30 2659 C 239.59 1.41796 -1.43164 0
M  V30 2660 O 238.646 2.18596 -1.26381 0
M  V30 2661 C 239.959 -0.574991 -2.95151 0
M  V30 2662 C 241.507 -0.533867 -3.08413 0
M  V30 2663 C 241.982 -1.01469 -4.46618 0
M  V30 2664 N 243.473 -0.971939 -4.52888 0
M  V30 2665 C 244.208 -1.31505 -5.58116 0
M  V30 2666 N 243.704 -1.73014 -6.70849 0
M  V30 2667 N 245.497 -1.23436 -5.48379 0
M  V30 2668 H 237.648 -1.38836 -1.60743 0
M  V30 2669 H 239.911 -0.570998 -0.756747 0
M  V30 2670 H 239.617 -1.61597 -3.12377 0
M  V30 2671 H 239.491 0.00979777 -3.77199 0
M  V30 2672 H 241.878 0.498086 -2.90866 0
M  V30 2673 H 241.959 -1.15484 -2.28248 0
M  V30 2674 H 241.603 -2.04502 -4.6491 0
M  V30 2675 H 241.533 -0.370433 -5.25295 0
M  V30 2676 H 244.024 -0.666893 -3.71969 0
M  V30 2677 H 244.337 -1.97479 -7.47143 0
M  V30 2678 H 242.682 -1.76926 -6.72103 0
M  V30 2679 H 245.873 -0.908869 -4.59192 0
M  V30 2680 H 246.046 -1.50506 -6.30279 0
M  V30 2681 N 239.452 1.56882 -0.150215 0
M  V30 2682 C 240.682 2.00302 0.506213 0
M  V30 2683 C 241.09 1.02934 1.58749 0
M  V30 2684 O 240.433 0.0188384 1.8369 0
M  V30 2685 C 240.495 3.40156 1.16337 0
M  V30 2686 C 240.159 4.56439 0.226311 0
M  V30 2687 C 241.156 5.17012 -0.547265 0
M  V30 2688 C 238.841 5.02136 0.128279 0
M  V30 2689 C 240.835 6.21693 -1.40629 0
M  V30 2690 C 238.522 6.06672 -0.734345 0
M  V30 2691 C 239.52 6.6632 -1.50023 0
M  V30 2692 O 239.208 7.68831 -2.34848 0
M  V30 2693 H 238.94 0.662182 0.135984 0
M  V30 2694 H 241.494 2.03961 -0.242746 0
M  V30 2695 H 239.724 3.33346 1.96004 0
M  V30 2696 H 241.413 3.67663 1.71985 0
M  V30 2697 H 242.179 4.82603 -0.48158 0
M  V30 2698 H 238.058 4.55435 0.714157 0
M  V30 2699 H 241.602 6.68179 -2.00455 0
M  V30 2700 H 237.499 6.40507 -0.801309 0
M  V30 2701 H 238.267 7.86065 -2.28131 0
M  V30 2702 N 240.93 -0.123565 1.57115 0
M  V30 2703 C 242.158 -0.846461 1.88793 0
M  V30 2704 C 242.573 -1.73652 0.740976 0
M  V30 2705 O 241.93 -1.80207 -0.288393 0
M  V30 2706 C 241.981 -1.6837 3.19897 0
M  V30 2707 O 241.702 -0.829477 4.30176 0
M  V30 2708 C 243.203 -2.51214 3.65248 0
M  V30 2709 H 240.423 -0.243573 0.625231 0
M  V30 2710 H 242.967 -0.109324 2.04208 0
M  V30 2711 H 241.122 -2.37364 3.06165 0
M  V30 2712 H 241.536 -1.40651 5.0529 0
M  V30 2713 H 243.01 -3.05497 4.59756 0
M  V30 2714 H 243.487 -3.28359 2.9168 0
M  V30 2715 H 244.093 -1.8747 3.81752 0
M  V30 2716 N 242.408 -1.52605 -0.393616 0
M  V30 2717 C 243.338 -1.80022 -1.48709 0
M  V30 2718 C 244.319 -0.651995 -1.57108 0
M  V30 2719 O 245.504 -0.89913 -1.72132 0
M  V30 2720 C 242.634 -1.96492 -2.86371 0
M  V30 2721 C 241.588 -3.12161 -2.92813 0
M  V30 2722 C 240.914 -3.13877 -4.3288 0
M  V30 2723 C 242.214 -4.51322 -2.6288 0
M  V30 2724 H 243.908 -2.71589 -1.26015 0
M  V30 2725 H 241.454 -1.30684 -0.604778 0
M  V30 2726 H 243.407 -2.14255 -3.62867 0
M  V30 2727 H 242.131 -1.01611 -3.10391 0
M  V30 2728 H 240.79 -2.94173 -2.18764 0
M  V30 2729 H 240.438 -2.16687 -4.53933 0
M  V30 2730 H 240.138 -3.91576 -4.38112 0
M  V30 2731 H 241.662 -3.33789 -5.1129 0
M  V30 2732 H 243.076 -4.69435 -3.29096 0
M  V30 2733 H 241.473 -5.31053 -2.79468 0
M  V30 2734 H 242.543 -4.58353 -1.58242 0
M  V30 2735 N 243.887 0.651787 -1.4349 0
M  V30 2736 C 244.85 1.74647 -1.48429 0
M  V30 2737 C 245.85 1.56513 -0.368817 0
M  V30 2738 O 247.04 1.62385 -0.630623 0
M  V30 2739 C 244.172 3.13533 -1.33827 0
M  V30 2740 H 245.365 1.71649 -2.4592 0
M  V30 2741 H 242.918 0.863573 -1.30277 0
M  V30 2742 H 243.653 3.22142 -0.37349 0
M  V30 2743 H 243.438 3.28101 -2.14691 0
M  V30 2744 H 244.928 3.93356 -1.40218 0
M  V30 2745 N 245.365 1.30045 0.890287 0
M  V30 2746 C 246.614 1.17929 1.63633 0
M  V30 2747 C 246.927 -0.266204 1.9378 0
M  V30 2748 O 248.133 -0.508804 2.6669 0
M  V30 2749 C 246.589 2.06317 2.94892 0
M  V30 2750 C 246.197 3.55745 2.72305 0
M  V30 2751 C 247.941 2.0295 3.72843 0
M  V30 2752 C 245.848 4.36205 3.99348 0
M  V30 2753 H 244.778 0.437782 0.613892 0
M  V30 2754 H 247.429 1.54754 0.986075 0
M  V30 2755 H 245.811 1.6237 3.61182 0
M  V30 2756 H 246.985 4.07805 2.1455 0
M  V30 2757 H 245.3 3.6088 2.07737 0
M  V30 2758 H 247.897 2.60319 4.67053 0
M  V30 2759 H 248.24 1.0117 4.0382 0
M  V30 2760 H 248.773 2.4499 3.13408 0
M  V30 2761 H 245.512 5.38659 3.73533 0
M  V30 2762 H 245.032 3.8891 4.56628 0
M  V30 2763 H 246.711 4.47362 4.67415 0
M  V30 2764 N 246.843 -1.10192 1.12674 0
M  V30 2765 C 247.776 -2.15847 0.740625 0
M  V30 2766 C 248.754 -1.60352 -0.269421 0
M  V30 2767 O 249.938 -1.87796 -0.16278 0
M  V30 2768 C 247.065 -3.38562 0.096641 0
M  V30 2769 C 246.111 -4.12758 1.07391 0
M  V30 2770 S 246.944 -4.67997 2.60267 0
M  V30 2771 C 248.1 -5.94021 1.97206 0
M  V30 2772 H 248.333 -2.48266 1.63558 0
M  V30 2773 H 245.866 -1.22019 0.946087 0
M  V30 2774 H 247.824 -4.09621 -0.268535 0
M  V30 2775 H 246.485 -3.04377 -0.775462 0
M  V30 2776 H 245.678 -5.00755 0.570997 0
M  V30 2777 H 245.28 -3.47523 1.38216 0
M  V30 2778 H 247.572 -6.64589 1.31634 0
M  V30 2779 H 248.515 -6.48979 2.83253 0
M  V30 2780 H 248.923 -5.46169 1.42686 0
M  V30 2781 N 248.321 -0.919034 -1.28029 0
M  V30 2782 C 249.251 -0.428581 -2.29533 0
M  V30 2783 C 250.232 0.50659 -1.62381 0
M  V30 2784 O 251.417 0.413195 -1.89753 0
M  V30 2785 C 248.547 0.327388 -3.45753 0
M  V30 2786 C 247.501 -0.519137 -4.2484 0
M  V30 2787 C 246.827 0.365486 -5.33449 0
M  V30 2788 C 248.127 -1.77914 -4.91064 0
M  V30 2789 H 249.821 -1.27687 -2.70807 0
M  V30 2790 H 247.367 -0.615428 -1.30186 0
M  V30 2791 H 249.32 0.681378 -4.15855 0
M  V30 2792 H 248.044 1.20963 -3.03374 0
M  V30 2793 H 246.703 -0.855717 -3.56473 0
M  V30 2794 H 246.351 1.24642 -4.87312 0
M  V30 2795 H 246.051 -0.197356 -5.87268 0
M  V30 2796 H 247.575 0.715241 -6.06396 0
M  V30 2797 H 248.989 -1.49374 -5.53498 0
M  V30 2798 H 247.386 -2.2848 -5.54903 0
M  V30 2799 H 248.456 -2.50382 -4.15255 0
M  V30 2800 N 249.799 1.42003 -0.683588 0
M  V30 2801 C 250.729 2.33487 -0.024866 0
M  V30 2802 C 251.71 1.51163 0.779975 0
M  V30 2803 O 252.895 1.79739 0.735362 0
M  V30 2804 C 250.025 3.3487 0.920836 0
M  V30 2805 C 248.979 4.27414 0.223958 0
M  V30 2806 C 248.305 5.19074 1.2832 0
M  V30 2807 C 249.605 5.14445 -0.90242 0
M  V30 2808 H 251.299 2.88819 -0.788921 0
M  V30 2809 H 248.845 1.38873 -0.38083 0
M  V30 2810 H 250.798 3.97787 1.39081 0
M  V30 2811 H 249.522 2.77861 1.71642 0
M  V30 2812 H 248.181 3.65904 -0.225864 0
M  V30 2813 H 247.829 4.58387 2.071 0
M  V30 2814 H 247.529 5.81822 0.821995 0
M  V30 2815 H 249.053 5.84867 1.75392 0
M  V30 2816 H 250.467 5.70998 -0.513272 0
M  V30 2817 H 248.864 5.86072 -1.28997 0
M  V30 2818 H 249.934 4.52322 -1.74737 0
M  V30 2819 N 251.277 0.427512 1.51691 0
M  V30 2820 C 252.24 -0.377132 2.26076 0
M  V30 2821 C 253.24 -0.958089 1.29141 0
M  V30 2822 O 254.43 -0.83408 1.52934 0
M  V30 2823 C 251.562 -1.53262 3.04506 0
M  V30 2824 H 252.755 0.27464 2.9864 0
M  V30 2825 H 250.308 0.180445 1.55255 0
M  V30 2826 H 251.043 -2.22072 2.36335 0
M  V30 2827 H 250.828 -1.12232 3.75694 0
M  V30 2828 H 252.318 -2.10135 3.60878 0
M  V30 2829 N 252.755 -1.56801 0.158532 0
M  V30 2830 C 254.004 -1.95665 -0.489702 0
M  V30 2831 C 254.317 -1.04654 -1.65248 0
M  V30 2832 O 255.523 -1.33146 -2.3661 0
M  V30 2833 C 253.979 -3.47874 -0.922582 0
M  V30 2834 C 253.587 -4.47489 0.213893 0
M  V30 2835 C 255.331 -3.95583 -1.53996 0
M  V30 2836 C 253.238 -5.90921 -0.237903 0
M  V30 2837 H 252.168 -0.730516 -0.186716 0
M  V30 2838 H 254.819 -1.81861 0.244722 0
M  V30 2839 H 253.201 -3.57051 -1.71261 0
M  V30 2840 H 254.375 -4.50017 0.991036 0
M  V30 2841 H 252.69 -4.09764 0.740407 0
M  V30 2842 H 255.287 -5.0019 -1.8898 0
M  V30 2843 H 255.63 -3.37789 -2.43319 0
M  V30 2844 H 256.163 -3.8937 -0.814611 0
M  V30 2845 H 252.902 -6.52559 0.620236 0
M  V30 2846 H 252.422 -5.91729 -0.980676 0
M  V30 2847 H 254.101 -6.43352 -0.686067 0
M  V30 2848 N 254.233 0.115231 -1.57178 0
M  V30 2849 C 255.481 0.820727 -1.84685 0
M  V30 2850 C 255.802 1.80237 -0.744279 0
M  V30 2851 O 255.072 1.94529 0.231375 0
M  V30 2852 H 253.652 0.306084 -0.681411 0
M  V30 2853 H 256.314 0.101656 -1.94635 0
M  V30 2854 H 255.41 1.36366 -2.80733 0
M  V30 2855 N 255.711 1.52812 0.385517 0
M  V30 2856 C 256.959 1.67694 1.12797 0
M  V30 2857 C 257.28 0.421115 1.90399 0
M  V30 2858 O 256.55 -0.564551 1.87589 0
M  V30 2859 H 255.13 0.618155 0.419396 0
M  V30 2860 H 257.792 1.89938 0.436972 0
M  V30 2861 H 256.888 2.52896 1.82894 0
M  V30 2862 N 257.189 -0.644168 1.43834 0
M  V30 2863 C 258.152 -1.73857 1.49353 0
M  V30 2864 C 259.152 -1.56315 0.377112 0
M  V30 2865 O 260.342 -1.62048 0.639226 0
M  V30 2866 C 257.474 -3.12819 1.35488 0
M  V30 2867 H 258.667 -1.70342 2.46827 0
M  V30 2868 H 256.22 -0.856652 1.30733 0
M  V30 2869 H 256.955 -3.2194 0.390569 0
M  V30 2870 H 256.74 -3.26958 2.16428 0
M  V30 2871 H 258.23 -3.92606 1.42302 0
M  V30 2872 N 258.668 -1.30515 -0.883378 0
M  V30 2873 C 259.914 -1.20617 -1.63778 0
M  V30 2874 C 260.269 0.236469 -1.90941 0
M  V30 2875 O 259.562 1.16596 -1.52039 0
M  V30 2876 C 259.756 -1.96994 -2.98209 0
M  V30 2877 C 259.585 -3.48537 -2.84169 0
M  V30 2878 C 258.355 -4.17893 -2.84067 0
M  V30 2879 C 260.553 -4.43738 -2.60001 0
M  V30 2880 N 258.535 -5.55685 -2.60936 0
M  V30 2881 C 259.906 -5.69105 -2.46007 0
M  V30 2882 C 261.961 -4.33316 -2.45239 0
M  V30 2883 C 260.664 -6.8523 -2.18752 0
M  V30 2884 C 262.69 -5.4921 -2.19369 0
M  V30 2885 C 262.052 -6.73558 -2.06153 0
M  V30 2886 H 258.151 -0.496434 -0.604216 0
M  V30 2887 H 260.735 -1.64544 -1.04083 0
M  V30 2888 H 258.906 -1.55455 -3.55933 0
M  V30 2889 H 260.638 -1.79225 -3.62851 0
M  V30 2890 H 257.393 -3.69739 -2.95956 0
M  V30 2891 H 257.817 -6.28199 -2.52378 0
M  V30 2892 H 262.459 -3.37856 -2.54191 0
M  V30 2893 H 260.177 -7.80729 -2.08537 0
M  V30 2894 H 263.763 -5.43054 -2.08766 0
M  V30 2895 H 262.643 -7.61721 -1.86416 0
M  V30 2896 N 260.146 1.09593 -1.13257 0
M  V30 2897 C 261.076 2.18214 -0.830946 0
M  V30 2898 C 262.057 1.68812 0.208966 0
M  V30 2899 O 263.242 1.9408 0.0682666 0
M  V30 2900 C 260.372 3.46051 -0.294296 0
M  V30 2901 C 259.326 4.08778 -1.26826 0
M  V30 2902 C 258.652 5.31419 -0.591449 0
M  V30 2903 C 259.952 4.51476 -2.62615 0
M  V30 2904 H 261.646 2.43703 -1.73923 0
M  V30 2905 H 259.192 1.17128 -0.837675 0
M  V30 2906 H 261.145 4.2134 -0.0709606 0
M  V30 2907 H 259.869 3.20079 0.649366 0
M  V30 2908 H 258.528 3.35505 -1.47756 0
M  V30 2909 H 258.176 5.01727 0.357633 0
M  V30 2910 H 257.876 5.74341 -1.24123 0
M  V30 2911 H 259.4 6.09433 -0.377355 0
M  V30 2912 H 260.814 5.17999 -2.45663 0
M  V30 2913 H 259.211 5.05277 -3.23752 0
M  V30 2914 H 260.281 3.63962 -3.20406 0
M  V30 2915 N 261.624 0.925811 1.2754 0
M  V30 2916 C 262.871 0.565255 1.94451 0
M  V30 2917 C 263.199 -0.89316 1.7278 0
M  V30 2918 O 262.454 -1.65213 1.04895 0
M  V30 2919 C 262.753 0.835296 3.47502 0
M  V30 2920 C 262.419 2.27515 3.89291 0
M  V30 2921 C 261.081 2.66879 4.00411 0
M  V30 2922 C 263.433 3.21158 4.10496 0
M  V30 2923 C 260.761 3.99014 4.30122 0
M  V30 2924 C 263.113 4.52871 4.4169 0
M  V30 2925 C 261.777 4.92072 4.51023 0
M  V30 2926 H 261.047 0.206841 0.711546 0
M  V30 2927 H 263.694 1.16942 1.51647 0
M  V30 2928 H 261.999 0.148442 3.91519 0
M  V30 2929 H 263.696 0.535322 3.97411 0
M  V30 2930 H 260.286 1.95976 3.81171 0
M  V30 2931 H 264.47 2.9195 4.01346 0
M  V30 2932 H 259.726 4.2907 4.35556 0
M  V30 2933 H 263.9 5.25436 4.57045 0
M  V30 2934 H 261.527 5.9449 4.738 0
M  V30 2935 N 263.102 -1.41638 0.69111 0
M  V30 2936 C 264.351 -2.00526 0.217318 0
M  V30 2937 C 264.664 -1.55353 -1.18848 0
M  V30 2938 O 265.87 -2.06769 -1.75951 0
M  V30 2939 C 264.326 -3.58313 0.337639 0
M  V30 2940 C 263.934 -4.12469 1.74852 0
M  V30 2941 C 265.678 -4.24431 -0.0766066 0
M  V30 2942 C 263.585 -5.62675 1.82074 0
M  V30 2943 H 262.515 -0.750008 0.0774893 0
M  V30 2944 H 265.166 -1.6217 0.858661 0
M  V30 2945 H 263.548 -3.9425 -0.371879 0
M  V30 2946 H 264.722 -3.8796 2.48644 0
M  V30 2947 H 263.037 -3.58861 2.11205 0
M  V30 2948 H 265.634 -5.34683 -0.0430284 0
M  V30 2949 H 265.977 -4.01101 -1.1146 0
M  V30 2950 H 266.51 -3.93512 0.582476 0
M  V30 2951 H 263.249 -5.90826 2.83911 0
M  V30 2952 H 262.769 -5.89124 1.12661 0
M  V30 2953 H 264.448 -6.27371 1.58159 0
M  V30 2954 N 264.58 -0.43555 -1.51462 0
M  V30 2955 C 265.996 -0.0877501 -1.59359 0
M  V30 2956 C 266.196 1.4027 -1.4466 0
M  V30 2957 O 265.252 2.17243 -1.28693 0
M  V30 2958 C 266.565 -0.606264 -2.94525 0
M  V30 2959 C 268.113 -0.566548 -3.0783 0
M  V30 2960 C 268.588 -1.06201 -4.45517 0
M  V30 2961 N 270.079 -1.01992 -4.51832 0
M  V30 2962 C 270.814 -1.37417 -5.5669 0
M  V30 2963 N 270.31 -1.80119 -6.68976 0
M  V30 2964 N 272.103 -1.29245 -5.47039 0
M  V30 2965 H 264.254 -1.40533 -1.59261 0
M  V30 2966 H 266.517 -0.578992 -0.750648 0
M  V30 2967 H 266.223 -1.64901 -3.10645 0
M  V30 2968 H 266.097 -0.0302097 -3.77188 0
M  V30 2969 H 268.484 0.467208 -2.91378 0
M  V30 2970 H 268.565 -1.17898 -2.2701 0
M  V30 2971 H 268.209 -2.09422 -4.62715 0
M  V30 2972 H 268.139 -0.426127 -5.24873 0
M  V30 2973 H 270.63 -0.706308 -3.71241 0
M  V30 2974 H 270.943 -2.05392 -7.45006 0
M  V30 2975 H 269.288 -1.84044 -6.70189 0
M  V30 2976 H 272.479 -0.957522 -4.58202 0
M  V30 2977 H 272.652 -1.57182 -6.28648 0
M  V30 2978 N 266.058 1.56714 -0.166846 0
M  V30 2979 C 267.307 1.95922 0.479318 0
M  V30 2980 C 267.62 1.05529 1.6469 0
M  V30 2981 O 268.826 1.34399 2.35901 0
M  V30 2982 C 267.282 3.48359 0.90412 0
M  V30 2983 C 266.89 4.47369 -0.237621 0
M  V30 2984 C 268.634 3.96394 1.51896 0
M  V30 2985 C 266.541 5.91039 0.206561 0
M  V30 2986 H 265.471 0.731495 0.18284 0
M  V30 2987 H 268.122 1.81728 -0.254363 0
M  V30 2988 H 266.504 3.57955 1.69365 0
M  V30 2989 H 267.678 4.49485 -1.01489 0
M  V30 2990 H 265.993 4.09366 -0.762128 0
M  V30 2991 H 268.59 5.01186 1.86325 0
M  V30 2992 H 268.933 3.39075 2.41524 0
M  V30 2993 H 269.466 3.89796 0.79395 0
M  V30 2994 H 266.205 6.52221 -0.654834 0
M  V30 2995 H 265.725 5.9224 0.949282 0
M  V30 2996 H 267.404 6.43707 0.651939 0
M  V30 2997 N 267.536 -0.106894 1.57237 0
M  V30 2998 C 268.468 -1.15646 1.97885 0
M  V30 2999 C 269.481 -1.36981 0.879779 0
M  V30 3000 O 270.67 -1.35841 1.15799 0
M  V30 3001 C 267.77 -2.51425 2.27241 0
M  V30 3002 C 266.943 -2.50529 3.58545 0
M  V30 3003 C 266.002 -3.68145 3.75973 0
M  V30 3004 O 265.028 -3.51176 4.47956 0
M  V30 3005 N 266.23 -4.87177 3.15656 0
M  V30 3006 H 268.995 -0.81059 2.8853 0
M  V30 3007 H 266.556 -0.296024 1.59171 0
M  V30 3008 H 268.548 -3.28689 2.36105 0
M  V30 3009 H 267.118 -2.78147 1.42663 0
M  V30 3010 H 266.338 -1.58894 3.60758 0
M  V30 3011 H 267.626 -2.46997 4.44826 0
M  V30 3012 H 267.024 -5.03868 2.57165 0
M  V30 3013 H 265.581 -5.62075 3.30023 0
M  V30 3014 N 269.014 -1.53014 -0.377408 0
M  V30 3015 C 269.962 -1.7927 -1.48206 0
M  V30 3016 C 270.956 -0.661195 -1.55963 0
M  V30 3017 O 272.162 -0.843908 -1.58991 0
M  V30 3018 H 268.537 -0.567425 -0.493491 0
M  V30 3019 H 270.508 -2.71753 -1.2326 0
M  V30 3020 C 269.257 -1.98894 -2.85196 0
M  V30 3021 H 268.58 -2.85395 -2.79981 0
M  V30 3022 H 270.02 -2.21249 -3.61698 0
M  V30 3023 C 268.479 -0.764691 -3.28107 0
M  V30 3024 O 269.009 0.0523226 -4.01666 0
M  V30 3025 N 267.215 -0.591493 -2.84517 0
M  V30 3026 H 266.762 -1.25749 -2.24822 0
M  V30 3027 H 266.72 0.226253 -3.13585 0
M  V30 3028 N 270.492 0.636531 -1.44174 0
M  V30 3029 C 271.908 0.954104 -1.27941 0
M  V30 3030 C 272.108 2.0039 -0.211248 0
M  V30 3031 O 271.164 2.49236 0.404695 0
M  V30 3032 C 272.477 1.4225 -2.64925 0
M  V30 3033 C 274.025 1.53827 -2.72592 0
M  V30 3034 C 274.5 2.04053 -4.10032 0
M  V30 3035 N 275.991 2.11331 -4.12182 0
M  V30 3036 C 276.726 2.51352 -5.15374 0
M  V30 3037 N 276.222 2.90549 -6.2893 0
M  V30 3038 N 278.015 2.51438 -5.02728 0
M  V30 3039 H 270.166 -0.0578386 -2.12321 0
M  V30 3040 H 272.429 0.0367406 -0.947288 0
M  V30 3041 H 272.135 0.725466 -3.44136 0
M  V30 3042 H 272.009 2.39451 -2.9145 0
M  V30 3043 H 274.396 2.22628 -1.93702 0
M  V30 3044 H 274.477 0.550154 -2.49814 0
M  V30 3045 H 274.121 1.35848 -4.89395 0
M  V30 3046 H 274.051 3.03726 -4.30184 0
M  V30 3047 H 276.542 1.83745 -3.30222 0
M  V30 3048 H 276.855 3.19884 -7.03487 0
M  V30 3049 H 275.2 2.88313 -6.32377 0
M  V30 3050 H 278.391 2.20203 -4.13072 0
M  V30 3051 H 278.564 2.82304 -5.83274 0
M  V30 3052 N 271.97 1.30982 0.876444 0
M  V30 3053 C 273.381 1.18277 1.44456 0
M  V30 3054 C 273.732 -0.213265 1.95037 0
M  V30 3055 O 272.857 -1.11057 1.85729 0
M  V30 3056 C 273.452 2.1411 2.62569 0
M  V30 3057 C 272.011 2.05358 3.15444 0
M  V30 3058 C 271.158 2.03706 1.88146 0
M  V30 3059 H 274.109 1.43127 0.685584 0
M  V30 3060 H 274.13 1.72692 3.39054 0
M  V30 3061 H 273.642 3.15706 2.25724 0
M  V30 3062 H 271.743 1.06934 3.56926 0
M  V30 3063 H 271.856 2.94156 3.78166 0
M  V30 3064 H 270.22 1.48629 2.06837 0
M  V30 3065 H 271.003 3.07047 1.53547 0
M  V30 3066 N 273.449 -1.08991 1.13837 0
M  V30 3067 C 274.379 -2.17771 0.842507 0
M  V30 3068 C 275.36 -1.6892 -0.20001 0
M  V30 3069 O 276.545 -1.94113 -0.0579731 0
M  V30 3070 C 273.675 -3.4589 0.312644 0
M  V30 3071 C 272.629 -4.08099 1.28992 0
M  V30 3072 C 271.955 -5.31098 0.619623 0
M  V30 3073 C 273.255 -4.50077 2.65005 0
M  V30 3074 H 274.949 -2.42777 1.75213 0
M  V30 3075 H 272.495 -1.16682 0.843875 0
M  V30 3076 H 274.448 -4.21297 0.0933043 0
M  V30 3077 H 273.172 -3.20419 -0.632382 0
M  V30 3078 H 271.831 -3.34717 1.49533 0
M  V30 3079 H 271.479 -5.0191 -0.33102 0
M  V30 3080 H 271.179 -5.73674 1.27167 0
M  V30 3081 H 272.703 -6.09224 0.409669 0
M  V30 3082 H 274.117 -5.16688 2.48407 0
M  V30 3083 H 272.514 -5.03553 3.26427 0
M  V30 3084 H 273.584 -3.62257 3.22332 0
M  V30 3085 N 274.927 -0.932562 -1.27047 0
M  V30 3086 C 276.173 -0.576412 -1.94436 0
M  V30 3087 C 276.506 0.880891 -1.73072 0
M  V30 3088 O 275.781 1.62905 -1.06264 0
M  V30 3089 C 276.064 -0.909031 -3.48437 0
M  V30 3090 C 275.917 -2.42044 -3.79123 0
M  V30 3091 C 277.236 -0.418341 -4.38107 0
M  V30 3092 H 274.355 -0.210888 -0.706184 0
M  V30 3093 H 276.997 -1.16522 -1.50075 0
M  V30 3094 H 275.147 -0.407947 -3.86352 0
M  V30 3095 H 276.819 -2.99359 -3.50973 0
M  V30 3096 H 275.062 -2.86758 -3.25503 0
M  V30 3097 H 275.733 -2.6037 -4.86736 0
M  V30 3098 H 278.209 -0.847856 -4.0737 0
M  V30 3099 H 277.085 -0.679981 -5.44672 0
M  V30 3100 H 277.346 0.681642 -4.36814 0
M  V30 3101 N 276.405 1.4127 -0.698611 0
M  V30 3102 C 277.682 1.94955 -0.158762 0
M  V30 3103 C 278.062 1.63781 1.33188 0
M  V30 3104 O 277.41 0.946423 2.07979 0
M  V30 3105 C 277.62 3.46044 -0.453309 0
M  V30 3106 C 278.968 4.22872 -0.382707 0
M  V30 3107 O 279.992 3.54076 -0.388396 0
M  V30 3108 O 278.851 5.45407 -0.345463 0
M  V30 3109 H 275.945 0.82683 -0.0167505 0
M  V30 3110 H 278.491 1.50971 -0.77498 0
M  V30 3111 H 277.263 3.62028 -1.48498 0
M  V30 3112 H 276.886 3.97128 0.19373 0
M  V30 3113 N 277.883 0.443576 1.51229 0
M  V30 3114 C 278.813 -0.355142 2.30783 0
M  V30 3115 C 279.794 -1.0154 1.36468 0
M  V30 3116 O 280.979 -1.01785 1.65389 0
M  V30 3117 C 278.109 -1.45312 3.15439 0
M  V30 3118 C 277.063 -0.916002 4.18083 0
M  V30 3119 C 276.389 -2.1102 4.91299 0
M  V30 3120 C 277.689 0.0538602 5.22272 0
M  V30 3121 H 279.383 0.308767 2.97804 0
M  V30 3122 H 276.929 0.149937 1.43217 0
M  V30 3123 H 278.882 -2.01914 3.69876 0
M  V30 3124 H 277.606 -2.14541 2.46252 0
M  V30 3125 H 276.265 -0.372145 3.64706 0
M  V30 3126 H 275.913 -2.78882 4.18609 0
M  V30 3127 H 275.613 -1.75717 5.60712 0
M  V30 3128 H 277.137 -2.68164 5.48562 0
M  V30 3129 H 278.551 -0.422069 5.71744 0
M  V30 3130 H 276.948 0.319776 5.99247 0
M  V30 3131 H 278.018 0.98858 4.74716 0
M  V30 3132 N 279.361 -1.56624 0.175154 0
M  V30 3133 C 280.271 -2.21741 -0.766042 0
M  V30 3134 C 281.287 -1.21023 -1.25018 0
M  V30 3135 O 282.463 -1.53697 -1.3015 0
M  V30 3136 C 279.528 -2.84839 -1.97655 0
M  V30 3137 C 278.589 -4.00769 -1.53892 0
M  V30 3138 C 277.822 -4.60849 -2.69173 0
M  V30 3139 O 278.045 -4.19823 -3.86141 0
M  V30 3140 O 276.979 -5.50655 -2.43028 0
M  V30 3141 H 280.805 -3.02738 -0.241585 0
M  V30 3142 H 278.39 -1.49305 -0.053222 0
M  V30 3143 H 280.272 -3.24834 -2.68442 0
M  V30 3144 H 278.947 -2.06836 -2.48999 0
M  V30 3145 H 277.854 -3.65436 -0.80044 0
M  V30 3146 H 279.187 -4.80376 -1.07236 0
M  V30 3147 N 280.839 0.0985539 -1.57292 0
M  V30 3148 C 281.789 1.1261 -1.9825 0
M  V30 3149 C 282.773 1.35961 -0.860426 0
M  V30 3150 O 283.965 1.36711 -1.12424 0
M  V30 3151 C 281.094 2.44727 -2.40757 0
M  V30 3152 C 280.18 2.24764 -3.59642 0
M  V30 3153 N 280.571 1.74661 -4.74687 0
M  V30 3154 C 278.869 2.55344 -3.65672 0
M  V30 3155 C 279.57 1.68887 -5.56644 0
M  V30 3156 N 278.546 2.13976 -4.99715 0
M  V30 3157 H 282.348 0.731604 -2.84648 0
M  V30 3158 H 279.862 0.306029 -1.59491 0
M  V30 3159 H 281.859 3.19072 -2.68326 0
M  V30 3160 H 280.519 2.84917 -1.55733 0
M  V30 3161 H 281.53 1.43908 -4.97505 0
M  V30 3162 H 278.207 2.99081 -2.91302 0
M  V30 3163 H 279.597 1.3123 -6.5896 0
M  V30 3164 N 282.317 1.53212 0.369288 0
M  V30 3165 C 283.28 1.7872 1.43498 0
M  V30 3166 C 284.28 0.657554 1.46741 0
M  V30 3167 O 285.47 0.925736 1.47566 0
M  V30 3168 C 282.602 1.90591 2.82645 0
M  V30 3169 H 283.795 2.73894 1.22156 0
M  V30 3170 H 281.348 1.44233 0.602203 0
M  V30 3171 H 282.083 0.974709 3.09306 0
M  V30 3172 H 281.868 2.72751 2.8169 0
M  V30 3173 H 283.358 2.11931 3.59826 0
M  V30 3174 N 283.795 -0.628877 1.44509 0
M  V30 3175 C 284.758 -1.72263 1.51188 0
M  V30 3176 C 285.758 -1.55907 0.39367 0
M  V30 3177 O 286.948 -1.61361 0.656377 0
M  V30 3178 C 284.08 -3.11365 1.38798 0
M  V30 3179 H 285.273 -1.67714 2.4862 0
M  V30 3180 H 282.826 -0.842737 1.31634 0
M  V30 3181 H 283.561 -3.21507 0.424693 0
M  V30 3182 H 283.346 -3.24644 2.19884 0
M  V30 3183 H 284.836 -3.91075 1.46458 0
M  V30 3184 N 285.273 -1.31445 -0.869486 0
M  V30 3185 C 286.203 -1.21727 -1.99261 0
M  V30 3186 C 287.184 -0.104359 -1.6978 0
M  V30 3187 O 288.369 -0.289038 -1.92037 0
M  V30 3188 C 285.499 -0.924317 -3.34774 0
M  V30 3189 C 284.453 -1.99685 -3.78563 0
M  V30 3190 C 283.779 -1.55658 -5.11541 0
M  V30 3191 C 285.079 -3.41003 -3.95619 0
M  V30 3192 H 286.773 -2.1569 -2.07649 0
M  V30 3193 H 284.319 -1.03839 -0.997675 0
M  V30 3194 H 286.272 -0.842934 -4.12883 0
M  V30 3195 H 284.996 0.0509793 -3.2656 0
M  V30 3196 H 283.655 -2.06813 -3.02694 0
M  V30 3197 H 283.303 -0.569132 -4.9977 0
M  V30 3198 H 283.003 -2.27409 -5.41811 0
M  V30 3199 H 284.527 -1.48928 -5.92159 0
M  V30 3200 H 285.941 -3.36547 -4.64122 0
M  V30 3201 H 284.338 -4.10975 -4.37286 0
M  V30 3202 H 285.408 -3.81754 -2.98985 0
M  V30 3203 N 286.751 1.08385 -1.14413 0
M  V30 3204 C 287.683 2.1519 -0.789036 0
M  V30 3205 C 288.696 1.61638 0.19417 0
M  V30 3206 O 289.885 1.78479 -0.0275711 0
M  V30 3207 C 286.985 3.38565 -0.15058 0
M  V30 3208 C 286.158 4.21501 -1.16857 0
M  V30 3209 C 285.217 5.23277 -0.553832 0
M  V30 3210 O 284.243 5.56041 -1.21686 0
M  V30 3211 N 285.445 5.76629 0.669296 0
M  V30 3212 H 288.21 2.46257 -1.70814 0
M  V30 3213 H 285.771 1.24198 -1.03858 0
M  V30 3214 H 287.763 4.03777 0.273181 0
M  V30 3215 H 286.333 3.05299 0.671667 0
M  V30 3216 H 285.553 3.52265 -1.76926 0
M  V30 3217 H 286.841 4.73731 -1.85624 0
M  V30 3218 H 286.239 5.52243 1.22654 0
M  V30 3219 H 284.796 6.43521 1.03556 0
M  V30 3220 N 288.23 0.939286 1.26551 0
M  V30 3221 C 289.476 0.586715 1.94128 0
M  V30 3222 C 289.809 -0.8717 1.73537 0
M  V30 3223 O 289.084 -1.62339 1.07127 0
M  V30 3224 C 289.367 0.927497 3.4795 0
M  V30 3225 C 289.22 2.44052 3.77834 0
M  V30 3226 C 290.539 0.441569 4.37879 0
M  V30 3227 H 287.658 0.21463 0.705055 0
M  V30 3228 H 290.3 1.17316 1.49455 0
M  V30 3229 H 288.45 0.428431 3.8613 0
M  V30 3230 H 290.122 3.01216 3.4938 0
M  V30 3231 H 288.365 2.8848 3.23978 0
M  V30 3232 H 289.036 2.62947 4.85348 0
M  V30 3233 H 291.512 0.869448 4.06915 0
M  V30 3234 H 290.388 0.708856 5.44304 0
M  V30 3235 H 290.649 -0.658467 4.37169 0
M  V30 3236 N 289.708 -1.40897 0.706093 0
M  V30 3237 C 290.956 -2.00657 0.241054 0
M  V30 3238 C 291.277 -1.56241 -1.16678 0
M  V30 3239 O 290.547 -0.79765 -1.78926 0
M  V30 3240 H 289.127 -0.742018 0.0861308 0
M  V30 3241 H 291.789 -1.72372 0.909604 0
M  V30 3242 H 290.885 -3.10958 0.266705 0
M  V30 3243 N 291.186 -0.45159 -1.50991 0
M  V30 3244 C 292.133 0.352625 -2.2809 0
M  V30 3245 C 293.103 1.0044 -1.32291 0
M  V30 3246 O 294.288 1.02058 -1.6121 0
M  V30 3247 C 291.428 1.43983 -3.13629 0
M  V30 3248 C 290.541 0.804772 -4.24438 0
M  V30 3249 C 289.676 1.86822 -4.97263 0
M  V30 3250 C 288.715 1.21236 -5.99973 0
M  V30 3251 N 287.852 2.2178 -6.66152 0
M  V30 3252 H 292.692 -0.311186 -2.96371 0
M  V30 3253 H 290.229 -0.165308 -1.46168 0
M  V30 3254 H 292.187 2.08161 -3.61559 0
M  V30 3255 H 290.817 2.07307 -2.47434 0
M  V30 3256 H 289.869 0.0509129 -3.80366 0
M  V30 3257 H 291.181 0.286076 -4.97979 0
M  V30 3258 H 290.335 2.58628 -5.48813 0
M  V30 3259 H 289.074 2.42068 -4.23385 0
M  V30 3260 H 288.079 0.479828 -5.47702 0
M  V30 3261 H 289.304 0.667051 -6.75816 0
M  V30 3262 H 287.25 2.76079 -5.95077 0
M  V30 3263 H 287.167 1.74841 -7.35504 0
M  V30 3264 H 288.435 2.93026 -7.22327 0
M  V30 3265 N 292.664 1.56529 -0.183458 0
M  V30 3266 C 293.912 1.96855 0.457452 0
M  V30 3267 C 294.233 1.07104 1.62953 0
M  V30 3268 O 293.503 0.139887 1.954 0
M  V30 3269 H 292.083 0.72693 0.171992 0
M  V30 3270 H 294.745 1.93056 -0.267476 0
M  V30 3271 H 293.841 3.01423 0.809368 0
M  V30 3272 N 294.142 -0.090211 1.57342 0
M  V30 3273 C 295.391 -0.791531 1.8552 0
M  V30 3274 C 295.704 -1.79659 0.773441 0
M  V30 3275 O 296.91 -2.54616 0.942497 0
M  V30 3276 C 295.366 -1.45856 3.2902 0
M  V30 3277 C 294.974 -0.493017 4.45279 0
M  V30 3278 C 296.718 -2.14332 3.66418 0
M  V30 3279 C 294.625 -1.16491 5.79814 0
M  V30 3280 H 293.555 -0.299356 0.692027 0
M  V30 3281 H 296.206 -0.0445343 1.83446 0
M  V30 3282 H 294.588 -2.25318 3.2565 0
M  V30 3283 H 295.762 0.270464 4.60006 0
M  V30 3284 H 294.077 0.0863061 4.16311 0
M  V30 3285 H 296.674 -2.65344 4.64216 0
M  V30 3286 H 297.017 -2.93447 2.95287 0
M  V30 3287 H 297.55 -1.41724 3.71698 0
M  V30 3288 H 294.289 -0.41447 6.54188 0
M  V30 3289 H 293.809 -1.8997 5.68921 0
M  V30 3290 H 295.488 -1.69001 6.24538 0
M  V30 3291 N 295.62 -1.53406 -0.361157 0
M  V30 3292 C 296.869 -1.69022 -1.10066 0
M  V30 3293 C 297.182 -0.450838 -1.90333 0
M  V30 3294 O 298.388 -0.487617 -2.67085 0
M  V30 3295 C 296.844 -2.98812 -2.00598 0
M  V30 3296 C 296.452 -4.30027 -1.25621 0
M  V30 3297 C 298.196 -3.23795 -2.74513 0
M  V30 3298 C 296.103 -5.50903 -2.1508 0
M  V30 3299 H 295.033 -0.629776 -0.414606 0
M  V30 3300 H 297.684 -1.79907 -0.361348 0
M  V30 3301 H 296.066 -2.8174 -2.78278 0
M  V30 3302 H 297.24 -4.57745 -0.529739 0
M  V30 3303 H 295.555 -4.11522 -0.635496 0
M  V30 3304 H 298.152 -4.11289 -3.41681 0
M  V30 3305 H 298.495 -2.40045 -3.40123 0
M  V30 3306 H 299.028 -3.41561 -2.03914 0
M  V30 3307 H 295.767 -6.37143 -1.54041 0
M  V30 3308 H 295.287 -5.27459 -2.85565 0
M  V30 3309 H 296.966 -5.85865 -2.74538 0
M  V30 3310 N 297.098 0.621204 -1.44841 0
M  V30 3311 C 298.509 1.20298 -1.42777 0
M  V30 3312 C 298.86 1.95639 -0.148259 0
M  V30 3313 O 297.985 2.02955 0.750892 0
M  V30 3314 C 298.58 2.1882 -2.58657 0
M  V30 3315 C 297.139 2.72403 -2.59756 0
M  V30 3316 C 296.286 1.4757 -2.34773 0
M  V30 3317 H 299.237 0.411297 -1.53278 0
M  V30 3318 H 299.258 3.01607 -2.31977 0
M  V30 3319 H 298.77 1.63957 -3.51766 0
M  V30 3320 H 296.871 3.31242 -1.70615 0
M  V30 3321 H 296.984 3.17765 -3.58556 0
M  V30 3322 H 295.348 1.76051 -1.8406 0
M  V30 3323 H 296.131 0.945954 -3.3001 0
M  V30 3324 N 298.576 1.31904 0.862503 0
M  V30 3325 C 299.987 1.19803 1.43193 0
M  V30 3326 C 300.338 -0.192567 1.95253 0
M  V30 3327 O 299.463 -1.09081 1.86896 0
M  V30 3328 C 300.058 2.16883 2.60283 0
M  V30 3329 C 298.617 2.08692 3.13248 0
M  V30 3330 C 297.764 2.05691 1.85975 0
M  V30 3331 H 300.715 1.43846 0.670365 0
M  V30 3332 H 300.736 1.76278 3.37204 0
M  V30 3333 H 300.248 3.18083 2.22363 0
M  V30 3334 H 298.349 1.10713 3.55771 0
M  V30 3335 H 298.462 2.9815 3.75025 0
M  V30 3336 H 296.826 1.50814 2.05249 0
M  V30 3337 H 297.609 3.08659 1.50282 0
M  V30 3338 N 300.054 -1.07777 1.14986 0
M  V30 3339 C 301.465 -1.61766 0.932127 0
M  V30 3340 C 301.816 -1.88974 -0.527581 0
M  V30 3341 O 300.941 -1.65198 -1.39781 0
M  V30 3342 C 301.536 -2.93891 1.68563 0
M  V30 3343 C 300.095 -3.44639 1.5133 0
M  V30 3344 C 299.242 -2.18767 1.704 0
M  V30 3345 H 302.193 -0.909201 1.30074 0
M  V30 3346 H 302.214 -3.62623 1.15259 0
M  V30 3347 H 301.726 -2.74057 2.74799 0
M  V30 3348 H 299.827 -3.69564 0.474702 0
M  V30 3349 H 299.94 -4.20966 2.28746 0
M  V30 3350 H 298.304 -2.28253 1.13016 0
M  V30 3351 H 299.087 -2.01433 2.77992 0
M  V30 3352 N 301.532 -0.945985 -1.26051 0
M  V30 3353 C 302.462 -0.477172 -2.28572 0
M  V30 3354 C 303.443 0.472032 -1.63419 0
M  V30 3355 O 304.628 0.372853 -1.90587 0
M  V30 3356 C 301.758 0.253975 -3.4637 0
M  V30 3357 C 300.712 -0.609135 -4.23643 0
M  V30 3358 C 300.038 0.252252 -5.34105 0
M  V30 3359 C 301.338 -1.8829 -4.8718 0
M  V30 3360 H 303.032 -1.33402 -2.68038 0
M  V30 3361 H 300.578 -0.642904 -1.28852 0
M  V30 3362 H 302.531 0.593016 -4.17207 0
M  V30 3363 H 301.255 1.145 -3.05871 0
M  V30 3364 H 299.914 -0.931138 -3.54578 0
M  V30 3365 H 299.562 1.14278 -4.89846 0
M  V30 3366 H 299.262 -0.32188 -5.86718 0
M  V30 3367 H 300.786 0.586454 -6.07777 0
M  V30 3368 H 302.2 -1.61081 -5.50205 0
M  V30 3369 H 300.597 -2.40199 -5.49931 0
M  V30 3370 H 301.667 -2.59134 -4.09851 0
M  V30 3371 N 303.011 1.40521 -0.713556 0
M  V30 3372 C 304.427 1.54839 -0.386907 0
M  V30 3373 C 304.627 1.68532 1.1045 0
M  V30 3374 O 303.683 1.67377 1.89053 0
M  V30 3375 C 304.996 2.77792 -1.15118 0
M  V30 3376 C 306.544 2.91607 -1.13729 0
M  V30 3377 C 307.019 4.1747 -1.88368 0
M  V30 3378 N 308.51 4.24466 -1.85427 0
M  V30 3379 C 309.245 5.20755 -2.40004 0
M  V30 3380 N 308.741 6.22965 -3.03129 0
M  V30 3381 N 310.534 5.1282 -2.30158 0
M  V30 3382 H 302.685 1.29879 -1.68063 0
M  V30 3383 H 304.948 0.627896 -0.710247 0
M  V30 3384 H 304.654 2.73944 -2.20561 0
M  V30 3385 H 304.528 3.6984 -0.741477 0
M  V30 3386 H 306.915 2.94959 -0.0910608 0
M  V30 3387 H 306.996 2.00682 -1.5862 0
M  V30 3388 H 306.64 4.1488 -2.9298 0
M  V30 3389 H 306.57 5.074 -1.40898 0
M  V30 3390 H 309.061 3.51241 -1.3942 0
M  V30 3391 H 309.374 6.92859 -3.42295 0
M  V30 3392 H 307.719 6.23415 -3.07212 0
M  V30 3393 H 310.91 4.31899 -1.80501 0
M  V30 3394 H 311.083 5.87689 -2.72993 0
M  V30 3395 N 304.489 0.459591 1.5075 0
M  V30 3396 C 305.399 -0.34613 2.32033 0
M  V30 3397 C 306.415 -1.00686 1.41909 0
M  V30 3398 O 307.591 -0.997361 1.7497 0
M  V30 3399 C 304.656 -1.42029 3.16273 0
M  V30 3400 C 303.717 -0.777362 4.22203 0
M  V30 3401 C 302.95 -1.80034 5.02418 0
M  V30 3402 O 303.173 -3.02544 4.83553 0
M  V30 3403 O 302.107 -1.37853 5.85901 0
M  V30 3404 H 305.933 0.318054 3.0203 0
M  V30 3405 H 303.518 0.221663 1.47746 0
M  V30 3406 H 305.4 -2.04275 3.68578 0
M  V30 3407 H 304.075 -2.06815 2.49016 0
M  V30 3408 H 302.982 -0.116256 3.73919 0
M  V30 3409 H 304.315 -0.172634 4.91897 0
M  V30 3410 N 305.967 -1.56429 0.191757 0
M  V30 3411 C 307.197 -2.01574 -0.452928 0
M  V30 3412 C 307.605 -1.07107 -1.55964 0
M  V30 3413 O 306.948 -0.067534 -1.83576 0
M  V30 3414 C 307.01 -3.43121 -1.07278 0
M  V30 3415 C 306.674 -4.56879 -0.105214 0
M  V30 3416 C 307.671 -5.15379 0.684149 0
M  V30 3417 C 305.356 -5.023 0.00489824 0
M  V30 3418 C 307.35 -6.17746 1.57062 0
M  V30 3419 C 305.037 -6.04511 0.894935 0
M  V30 3420 C 306.035 -6.62108 1.67637 0
M  V30 3421 O 305.723 -7.62335 2.55149 0
M  V30 3422 H 305.455 -0.665554 -0.118379 0
M  V30 3423 H 308.009 -2.03245 0.296737 0
M  V30 3424 H 306.239 -3.38425 -1.87097 0
M  V30 3425 H 307.928 -3.72093 -1.62177 0
M  V30 3426 H 308.694 -4.81157 0.609365 0
M  V30 3427 H 304.573 -4.57168 -0.593156 0
M  V30 3428 H 308.117 -6.6263 2.181 0
M  V30 3429 H 304.014 -6.38157 0.970847 0
M  V30 3430 H 304.782 -7.79741 2.48892 0
M  V30 3431 N 307.445 0.0818655 -1.57387 0
M  V30 3432 C 308.693 0.781368 -1.86384 0
M  V30 3433 C 309.014 1.78618 -0.782342 0
M  V30 3434 O 308.284 1.94976 0.190061 0
M  V30 3435 H 306.864 0.291562 -0.687751 0
M  V30 3436 H 309.526 0.060348 -1.94807 0
M  V30 3437 H 308.622 1.3038 -2.83562 0
M  V30 3438 N 308.923 1.53595 0.353017 0
M  V30 3439 C 309.886 1.80232 1.41594 0
M  V30 3440 C 310.886 0.673081 1.46035 0
M  V30 3441 O 312.076 0.941335 1.46576 0
M  V30 3442 C 309.208 1.93578 2.80607 0
M  V30 3443 H 310.401 2.75174 1.19244 0
M  V30 3444 H 307.954 1.44864 0.586872 0
M  V30 3445 H 308.689 1.00746 3.08254 0
M  V30 3446 H 308.474 2.75724 2.78781 0
M  V30 3447 H 309.964 2.15735 3.57558 0
M  V30 3448 N 310.401 -0.613514 1.45168 0
M  V30 3449 C 311.626 -1.40437 1.52618 0
M  V30 3450 C 312.051 -1.87438 0.157707 0
M  V30 3451 O 311.409 -1.59791 -0.856537 0
M  V30 3452 C 311.457 -2.58894 2.51011 0
M  V30 3453 O 310.561 -3.59326 2.02382 0
M  V30 3454 H 309.902 -0.419506 0.514695 0
M  V30 3455 H 312.432 -0.747215 1.90467 0
M  V30 3456 H 312.442 -3.06214 2.69624 0
M  V30 3457 H 311.117 -2.24032 3.50403 0
M  V30 3458 H 309.694 -3.18695 1.93618 0
M  V30 3459 N 311.879 -1.3236 -0.855495 0
M  V30 3460 C 312.789 -1.23221 -1.99634 0
M  V30 3461 C 313.805 -0.145983 -1.73387 0
M  V30 3462 O 314.981 -0.366502 -1.98037 0
M  V30 3463 C 312.046 -0.954782 -3.33294 0
M  V30 3464 C 311.107 -2.12937 -3.72769 0
M  V30 3465 C 310.34 -1.86508 -5.00051 0
M  V30 3466 O 310.563 -0.807231 -5.64659 0
M  V30 3467 O 309.497 -2.72591 -5.36636 0
M  V30 3468 H 313.323 -2.19126 -2.1028 0
M  V30 3469 H 310.908 -1.12241 -0.986018 0
M  V30 3470 H 312.79 -0.816519 -4.13414 0
M  V30 3471 H 311.465 -0.0258854 -3.2369 0
M  V30 3472 H 310.372 -2.3231 -2.93228 0
M  V30 3473 H 311.705 -3.04102 -3.87018 0
M  V30 3474 N 313.357 1.07166 -1.15556 0
M  V30 3475 C 314.603 1.80065 -0.932984 0
M  V30 3476 C 314.936 1.86586 0.53845 0
M  V30 3477 O 314.211 1.35098 1.39924 0
M  V30 3478 C 314.494 3.25022 -1.55025 0
M  V30 3479 C 314.347 3.26634 -3.09242 0
M  V30 3480 C 315.666 4.22341 -1.2376 0
M  V30 3481 H 312.785 0.653697 -0.340366 0
M  V30 3482 H 315.427 1.25389 -1.4275 0
M  V30 3483 H 313.577 3.71712 -1.12972 0
M  V30 3484 H 315.249 2.88173 -3.60214 0
M  V30 3485 H 313.492 2.65539 -3.43033 0
M  V30 3486 H 314.163 4.28854 -3.47546 0
M  V30 3487 H 316.639 3.8405 -1.60139 0
M  V30 3488 H 315.515 5.22053 -1.69564 0
M  V30 3489 H 315.776 4.41828 -0.154938 0
M  V30 3490 N 314.835 0.952656 1.25548 0
M  V30 3491 C 316.251 0.656769 1.4546 0
M  V30 3492 C 316.451 -0.78633 1.85524 0
M  V30 3493 O 315.507 -1.56183 1.98402 0
M  V30 3494 C 316.82 1.62801 2.52817 0
M  V30 3495 C 318.368 1.63897 2.66659 0
M  V30 3496 C 318.843 2.5978 3.77198 0
M  V30 3497 N 320.334 2.58133 3.84606 0
M  V30 3498 C 321.069 3.29003 4.69621 0
M  V30 3499 N 320.565 4.09339 5.58939 0
M  V30 3500 N 322.358 3.179 4.63569 0
M  V30 3501 H 314.509 1.88526 0.978344 0
M  V30 3502 H 316.772 0.810815 0.491206 0
M  V30 3503 H 316.478 2.65869 2.30232 0
M  V30 3504 H 316.352 1.38898 3.50695 0
M  V30 3505 H 318.739 0.615481 2.8861 0
M  V30 3506 H 318.82 1.91858 1.69187 0
M  V30 3507 H 318.464 3.62254 3.55997 0
M  V30 3508 H 318.394 2.29105 4.7415 0
M  V30 3509 H 320.885 1.99809 3.20757 0
M  V30 3510 H 321.198 4.6034 6.20731 0
M  V30 3511 H 319.543 4.13438 5.58654 0
M  V30 3512 H 322.734 2.54612 3.92798 0
M  V30 3513 H 322.907 3.73398 5.29602 0
M  V30 3514 N 316.313 -1.40141 0.720998 0
M  V30 3515 C 317.538 -2.05618 0.271258 0
M  V30 3516 C 317.963 -1.53978 -1.08039 0
M  V30 3517 O 317.321 -0.677463 -1.68167 0
M  V30 3518 C 317.369 -3.59609 0.267197 0
M  V30 3519 O 316.473 -4.05526 -0.749814 0
M  V30 3520 H 315.814 -0.651904 0.126162 0
M  V30 3521 H 318.344 -1.79439 0.982997 0
M  V30 3522 H 318.354 -4.0786 0.106744 0
M  V30 3523 H 317.029 -3.96559 1.25354 0
M  V30 3524 H 315.606 -3.68722 -0.556644 0
M  V30 3525 N 317.792 -0.46758 -1.50504 0
M  V30 3526 C 319.038 0.0887532 -2.02606 0
M  V30 3527 C 319.371 1.39686 -1.34913 0
M  V30 3528 O 318.646 1.88644 -0.473694 0
M  V30 3529 C 318.929 0.276206 -3.59039 0
M  V30 3530 C 318.782 -1.05267 -4.37309 0
M  V30 3531 C 320.101 1.03235 -4.27821 0
M  V30 3532 H 317.22 0.0307814 -0.736357 0
M  V30 3533 H 319.862 -0.612485 -1.79857 0
M  V30 3534 H 318.012 0.8735 -3.78553 0
M  V30 3535 H 319.684 -1.68628 -4.29374 0
M  V30 3536 H 317.927 -1.65015 -4.01189 0
M  V30 3537 H 318.598 -0.875197 -5.45018 0
M  V30 3538 H 321.074 0.526111 -4.12761 0
M  V30 3539 H 319.95 1.1323 -5.37094 0
M  V30 3540 H 320.211 2.06806 -3.90748 0
M  V30 3541 N 319.27 1.56325 -0.20005 0
M  V30 3542 C 320.498 2.02105 0.442874 0
M  V30 3543 C 320.913 1.08014 1.5485 0
M  V30 3544 O 320.27 0.0858797 1.82298 0
M  V30 3545 C 320.321 3.47549 0.994583 0
M  V30 3546 O 320.042 4.38049 -0.0669322 0
M  V30 3547 C 321.543 4.0887 1.7129 0
M  V30 3548 H 318.763 0.661807 0.110691 0
M  V30 3549 H 321.307 2.02134 -0.310207 0
M  V30 3550 H 319.462 3.48204 1.69803 0
M  V30 3551 H 319.876 5.23368 0.344462 0
M  V30 3552 H 321.35 5.12475 2.05118 0
M  V30 3553 H 321.827 3.52615 2.61838 0
M  V30 3554 H 322.433 4.12002 1.05518 0
M  V30 3555 N 320.748 -0.0735177 1.57428 0
M  V30 3556 C 322.164 -0.428264 1.53747 0
M  V30 3557 C 322.364 -1.79272 0.91998 0
M  V30 3558 O 321.42 -2.47051 0.521745 0
M  V30 3559 C 322.733 -0.370914 2.98404 0
M  V30 3560 C 324.281 -0.451224 3.0973 0
M  V30 3561 C 324.756 -0.4238 4.56035 0
M  V30 3562 N 326.247 -0.483925 4.60665 0
M  V30 3563 C 326.982 -0.484891 5.71346 0
M  V30 3564 N 326.478 -0.440775 6.91396 0
M  V30 3565 N 328.271 -0.531319 5.59583 0
M  V30 3566 H 320.422 0.819949 1.95935 0
M  V30 3567 H 322.685 0.307493 0.896745 0
M  V30 3568 H 322.391 0.564956 3.47133 0
M  V30 3569 H 322.265 -1.18176 3.5821 0
M  V30 3570 H 324.652 -1.37752 2.60976 0
M  V30 3571 H 324.733 0.388167 2.52838 0
M  V30 3572 H 324.377 0.498638 5.05446 0
M  V30 3573 H 324.307 -1.2807 5.10789 0
M  V30 3574 H 326.798 -0.522338 3.74273 0
M  V30 3575 H 327.111 -0.44539 7.71515 0
M  V30 3576 H 325.456 -0.40749 6.93804 0
M  V30 3577 H 328.647 -0.563464 4.64696 0
M  V30 3578 H 328.82 -0.528603 6.4584 0
M  V30 3579 N 322.226 -1.5378 -0.344866 0
M  V30 3580 C 323.189 -1.80981 -1.40637 0
M  V30 3581 C 324.189 -0.680816 -1.45676 0
M  V30 3582 O 325.379 -0.949095 -1.46075 0
M  V30 3583 C 322.511 -1.95063 -2.79577 0
M  V30 3584 H 323.704 -2.75803 -1.17783 0
M  V30 3585 H 321.257 -1.45173 -0.579181 0
M  V30 3586 H 321.992 -1.02379 -3.07716 0
M  V30 3587 H 321.777 -2.77198 -2.77315 0
M  V30 3588 H 323.267 -2.17629 -3.56409 0
M  V30 3589 N 323.704 0.605807 -1.45491 0
M  V30 3590 C 324.951 1.36476 -1.49601 0
M  V30 3591 C 325.279 1.94007 -0.138452 0
M  V30 3592 O 324.534 1.75638 0.863114 0
M  V30 3593 C 324.833 2.53012 -2.52428 0
M  V30 3594 C 324.499 2.13617 -3.97087 0
M  V30 3595 C 323.161 2.02587 -4.36477 0
M  V30 3596 C 325.513 1.82899 -4.88055 0
M  V30 3597 C 322.841 1.59064 -5.64726 0
M  V30 3598 C 325.193 1.40861 -6.16718 0
M  V30 3599 C 323.857 1.28391 -6.55036 0
M  V30 3600 H 323.127 0.499402 -0.547429 0
M  V30 3601 H 325.774 0.684546 -1.78847 0
M  V30 3602 H 324.079 3.26379 -2.16758 0
M  V30 3603 H 325.776 3.1124 -2.52845 0
M  V30 3604 H 322.366 2.23129 -3.65939 0
M  V30 3605 H 326.55 1.90317 -4.58359 0
M  V30 3606 H 321.806 1.48034 -5.93208 0
M  V30 3607 H 325.98 1.16138 -6.86648 0
M  V30 3608 H 323.607 0.944403 -7.54311 0
M  V30 3609 N 325.182 1.32811 0.848464 0
M  V30 3610 C 326.13 1.22231 1.97895 0
M  V30 3611 C 327.124 0.125749 1.68933 0
M  V30 3612 O 328.33 0.289083 1.77663 0
M  V30 3613 H 324.705 0.379058 0.649476 0
M  V30 3614 H 326.676 2.17828 2.03945 0
M  V30 3615 C 325.425 0.968572 3.33937 0
M  V30 3616 H 324.748 1.80458 3.56756 0
M  V30 3617 H 326.188 0.934808 4.13567 0
M  V30 3618 C 324.647 -0.328628 3.35293 0
M  V30 3619 O 325.177 -1.33848 3.78745 0
M  V30 3620 N 323.383 -0.352788 2.88451 0
M  V30 3621 H 322.93 0.469541 2.53285 0
M  V30 3622 H 322.888 -1.22057 2.89741 0
M  V30 3623 N 326.66 -1.06551 1.16123 0
M  V30 3624 C 327.61 -2.12209 0.833736 0
M  V30 3625 C 328.594 -1.59825 -0.185656 0
M  V30 3626 O 329.786 -1.76994 0.0147906 0
M  V30 3627 C 326.915 -3.41674 0.333697 0
M  V30 3628 C 326.001 -4.00892 1.38372 0
M  V30 3629 N 326.392 -4.34256 2.59337 0
M  V30 3630 C 324.69 -4.28463 1.23836 0
M  V30 3631 C 325.391 -4.81291 3.26701 0
M  V30 3632 N 324.367 -4.80565 2.54083 0
M  V30 3633 H 328.169 -2.35849 1.75364 0
M  V30 3634 H 325.683 -1.24068 1.04789 0
M  V30 3635 H 327.68 -4.16822 0.0806918 0
M  V30 3636 H 326.34 -3.19475 -0.58017 0
M  V30 3637 H 327.351 -4.24687 2.96415 0
M  V30 3638 H 324.028 -4.15721 0.38504 0
M  V30 3639 H 325.418 -5.16332 4.29943 0
M  V30 3640 N 328.138 -0.959301 -1.25041 0
M  V30 3641 C 329.071 -0.427418 -2.24161 0
M  V30 3642 C 330.049 0.493837 -1.54919 0
M  V30 3643 O 331.233 0.427144 -1.83597 0
M  V30 3644 C 328.36 0.383893 -3.36517 0
M  V30 3645 C 327.406 -0.478431 -4.23808 0
M  V30 3646 S 328.239 -1.91353 -5.00144 0
M  V30 3647 C 329.395 -1.11077 -6.15965 0
M  V30 3648 H 329.628 -1.26743 -2.6893 0
M  V30 3649 H 327.161 -0.763714 -1.34189 0
M  V30 3650 H 329.119 0.846039 -4.01687 0
M  V30 3651 H 327.78 1.19878 -2.90324 0
M  V30 3652 H 326.973 0.14406 -5.03794 0
M  V30 3653 H 326.575 -0.87597 -3.63597 0
M  V30 3654 H 328.867 -0.361699 -6.76534 0
M  V30 3655 H 329.81 -1.88472 -6.82557 0
M  V30 3656 H 330.218 -0.638843 -5.60873 0
M  V30 3657 N 329.616 1.39756 -0.72842 0
M  V30 3658 C 330.579 2.29012 -0.0927297 0
M  V30 3659 C 331.579 1.45992 0.674025 0
M  V30 3660 O 332.769 1.66749 0.50402 0
M  V30 3661 C 329.901 3.29396 0.878137 0
M  V30 3662 H 331.094 2.86729 -0.879011 0
M  V30 3663 H 328.647 1.48293 -0.493847 0
M  V30 3664 H 329.382 2.76722 1.69101 0
M  V30 3665 H 329.167 3.907 0.331051 0
M  V30 3666 H 330.657 3.96199 1.3197 0
M  V30 3667 N 331.094 0.475555 1.50254 0
M  V30 3668 C 332.057 -0.305016 2.27161 0
M  V30 3669 C 333.057 -0.916519 1.32123 0
M  V30 3670 O 334.247 -0.785003 1.5551 0
M  V30 3671 C 331.379 -1.43496 3.09227 0
M  V30 3672 H 332.572 0.369511 2.97615 0
M  V30 3673 H 330.125 0.229747 1.54602 0
M  V30 3674 H 330.86 -2.14441 2.43281 0
M  V30 3675 H 330.645 -1.00223 3.79075 0
M  V30 3676 H 332.135 -1.98548 3.67381 0
M  V30 3677 N 332.573 -1.56217 0.208337 0
M  V30 3678 C 333.821 -1.97558 -0.426076 0
M  V30 3679 C 334.142 -1.09683 -1.61229 0
M  V30 3680 O 333.412 -0.170956 -1.95153 0
M  V30 3681 H 331.992 -0.729575 -0.160405 0
M  V30 3682 H 334.654 -1.92606 0.298155 0
M  V30 3683 H 333.75 -3.02672 -0.761312 0
M  V30 3684 N 334.051 0.0651679 -1.57465 0
M  V30 3685 C 335.297 0.764193 -1.87851 0
M  V30 3686 C 335.63 1.76889 -0.801495 0
M  V30 3687 O 334.905 1.93594 0.187528 0
M  V30 3688 C 335.188 1.46625 -3.28897 0
M  V30 3689 C 335.041 0.477515 -4.47258 0
M  V30 3690 C 336.36 2.4095 -3.68281 0
M  V30 3691 H 333.479 0.276351 -0.683227 0
M  V30 3692 H 336.121 0.0272868 -1.8998 0
M  V30 3693 H 334.271 2.09438 -3.27212 0
M  V30 3694 H 335.943 -0.145922 -4.61069 0
M  V30 3695 H 334.186 -0.206576 -4.33308 0
M  V30 3696 H 334.857 1.0065 -5.42746 0
M  V30 3697 H 337.333 1.88209 -3.71102 0
M  V30 3698 H 336.209 2.87072 -4.67847 0
M  V30 3699 H 336.47 3.26049 -2.98571 0
M  V30 3700 N 335.529 1.53961 0.336706 0
M  V30 3701 C 336.476 1.82428 1.41381 0
M  V30 3702 C 337.446 0.670444 1.51968 0
M  V30 3703 O 338.631 0.915565 1.67398 0
M  V30 3704 C 335.771 2.04564 2.77934 0
M  V30 3705 C 334.884 3.32267 2.76084 0
M  V30 3706 C 334.019 3.44434 4.04399 0
M  V30 3707 C 333.058 4.66061 3.96804 0
M  V30 3708 N 332.195 4.75224 5.16823 0
M  V30 3709 H 337.035 2.74324 1.16405 0
M  V30 3710 H 334.572 1.35869 0.563752 0
M  V30 3711 H 336.53 2.15388 3.57301 0
M  V30 3712 H 335.16 1.15974 3.01247 0
M  V30 3713 H 334.212 3.3025 1.88784 0
M  V30 3714 H 335.524 4.21733 2.66351 0
M  V30 3715 H 334.678 3.54728 4.92192 0
M  V30 3716 H 333.417 2.53037 4.16921 0
M  V30 3717 H 332.422 4.55838 3.07396 0
M  V30 3718 H 333.647 5.58829 3.85858 0
M  V30 3719 H 331.593 3.86739 5.29876 0
M  V30 3720 H 331.51 5.58636 5.09374 0
M  V30 3721 H 332.778 4.89835 6.06367 0
M  V30 3722 N 337.007 -0.598083 1.45811 0
M  V30 3723 C 337.939 -1.72231 1.51225 0
M  V30 3724 C 338.952 -1.57757 0.402059 0
M  V30 3725 O 340.141 -1.65464 0.669624 0
M  V30 3726 C 337.241 -3.10331 1.3619 0
M  V30 3727 C 336.414 -3.50955 2.61054 0
M  V30 3728 C 335.473 -4.68055 2.40439 0
M  V30 3729 O 334.499 -4.74691 3.14097 0
M  V30 3730 N 335.701 -5.61941 1.45612 0
M  V30 3731 H 338.466 -1.68046 2.48154 0
M  V30 3732 H 336.027 -0.783637 1.41671 0
M  V30 3733 H 338.019 -3.86439 1.20195 0
M  V30 3734 H 336.589 -3.0897 0.475015 0
M  V30 3735 H 335.809 -2.64711 2.92099 0
M  V30 3736 H 337.097 -3.74858 3.44034 0
M  V30 3737 H 336.495 -5.59301 0.848431 0
M  V30 3738 H 335.052 -6.37542 1.35585 0
M  V30 3739 N 338.485 -1.33259 -0.841409 0
M  V30 3740 C 339.415 -1.25926 -1.96634 0
M  V30 3741 C 340.396 -0.140349 -1.6952 0
M  V30 3742 O 341.581 -0.329707 -1.91381 0
M  V30 3743 C 338.711 -0.99512 -3.32738 0
M  V30 3744 C 337.665 -2.0767 -3.74242 0
M  V30 3745 C 336.991 -1.66474 -5.08125 0
M  V30 3746 C 338.291 -3.49318 -3.88297 0
M  V30 3747 H 339.985 -2.20046 -2.03027 0
M  V30 3748 H 337.531 -1.05931 -0.975425 0
M  V30 3749 H 339.484 -0.930323 -4.11002 0
M  V30 3750 H 338.208 -0.0183004 -3.26595 0
M  V30 3751 H 336.867 -2.13187 -2.98239 0
M  V30 3752 H 336.515 -0.675012 -4.9845 0
M  V30 3753 H 336.215 -2.3885 -5.36865 0
M  V30 3754 H 337.739 -1.61455 -5.88867 0
M  V30 3755 H 339.153 -3.46316 -4.56879 0
M  V30 3756 H 337.55 -4.20158 -4.28471 0
M  V30 3757 H 338.62 -3.8801 -2.9082 0
M  V30 3758 N 339.963 1.05934 -1.16686 0
M  V30 3759 C 340.926 2.11669 -0.879144 0
M  V30 3760 C 341.926 1.60294 0.127445 0
M  V30 3761 O 343.116 1.7389 -0.103865 0
M  V30 3762 C 340.248 3.39438 -0.315425 0
M  V30 3763 H 341.441 2.38626 -1.81653 0
M  V30 3764 H 338.994 1.22058 -0.976299 0
M  V30 3765 H 339.729 3.18132 0.629468 0
M  V30 3766 H 339.514 3.78034 -1.04079 0
M  V30 3767 H 341.004 4.17391 -0.132189 0
M  V30 3768 N 341.441 0.965919 1.2453 0
M  V30 3769 C 342.718 0.543777 1.87889 0
M  V30 3770 C 343.098 -0.97909 1.87021 0
M  V30 3771 O 342.446 -1.84969 1.3416 0
M  V30 3772 C 342.656 1.13327 3.30088 0
M  V30 3773 C 344.004 1.21707 4.06783 0
M  V30 3774 O 345.028 1.08566 3.39252 0
M  V30 3775 O 343.887 1.42456 5.27606 0
M  V30 3776 H 340.981 0.181054 0.806938 0
M  V30 3777 H 343.527 1.06007 1.32516 0
M  V30 3778 H 342.299 2.17612 3.25209 0
M  V30 3779 H 341.922 0.600911 3.93033 0
M  V30 3780 N 342.919 -1.39368 0.735821 0
M  V30 3781 C 344.196 -1.94465 0.210395 0
M  V30 3782 C 344.576 -1.67254 -1.28799 0
M  V30 3783 O 343.924 -1.00123 -2.05396 0
M  V30 3784 C 344.134 -3.4472 0.544897 0
M  V30 3785 C 345.482 -4.21708 0.494689 0
M  V30 3786 O 346.506 -3.52922 0.482136 0
M  V30 3787 O 345.365 -5.44299 0.489947 0
M  V30 3788 H 342.459 -0.826096 0.0386666 0
M  V30 3789 H 345.005 -1.48863 0.814735 0
M  V30 3790 H 343.777 -3.57963 1.58045 0
M  V30 3791 H 343.4 -3.97502 -0.08837 0
M  V30 3792 N 344.397 -0.483516 -1.5 0
M  V30 3793 C 345.813 -0.138404 -1.58999 0
M  V30 3794 C 346.013 1.35597 -1.4905 0
M  V30 3795 O 345.069 2.13039 -1.35539 0
M  V30 3796 C 346.382 -0.699658 -2.92447 0
M  V30 3797 C 347.93 -0.664195 -3.05872 0
M  V30 3798 C 348.405 -1.20321 -4.41913 0
M  V30 3799 N 349.896 -1.16315 -4.48358 0
M  V30 3800 C 350.631 -1.55058 -5.52037 0
M  V30 3801 N 350.127 -2.01311 -6.62907 0
M  V30 3802 N 351.92 -1.46584 -5.42651 0
M  V30 3803 H 344.071 -1.45529 -1.5471 0
M  V30 3804 H 346.334 -0.60258 -0.731848 0
M  V30 3805 H 346.04 -1.747 -3.05242 0
M  V30 3806 H 345.914 -0.150194 -3.76901 0
M  V30 3807 H 348.301 0.374272 -2.92717 0
M  V30 3808 H 348.382 -1.25061 -2.23144 0
M  V30 3809 H 348.026 -2.24037 -4.55818 0
M  V30 3810 H 347.956 -0.592896 -5.23252 0
M  V30 3811 H 350.447 -0.824058 -3.68806 0
M  V30 3812 H 350.76 -2.2899 -7.38095 0
M  V30 3813 H 349.105 -2.05273 -6.63994 0
M  V30 3814 H 352.296 -1.10281 -4.54924 0
M  V30 3815 H 352.469 -1.77103 -6.23329 0
M  V30 3816 N 345.875 1.56104 -0.216619 0
M  V30 3817 C 347.103 2.02563 0.421413 0
M  V30 3818 C 347.518 1.0965 1.53695 0
M  V30 3819 O 346.875 0.10521 1.82196 0
M  V30 3820 C 346.926 3.48584 0.957665 0
M  V30 3821 O 346.647 4.37953 -0.113389 0
M  V30 3822 C 348.148 4.10664 1.66943 0
M  V30 3823 H 345.368 0.662944 0.103665 0
M  V30 3824 H 347.912 2.01793 -0.331629 0
M  V30 3825 H 346.067 3.49985 1.661 0
M  V30 3826 H 346.481 5.23704 0.288932 0
M  V30 3827 H 347.955 5.14622 1.99671 0
M  V30 3828 H 348.432 3.55373 2.58083 0
M  V30 3829 H 349.038 4.13098 1.01142 0
M  V30 3830 N 347.353 -0.0568162 1.57498 0
M  V30 3831 C 348.283 -1.06593 2.0775 0
M  V30 3832 C 349.264 -1.39448 0.974082 0
M  V30 3833 O 350.449 -1.48815 1.24771 0
M  V30 3834 C 347.579 -2.37509 2.5339 0
M  V30 3835 C 346.533 -2.1897 3.67745 0
M  V30 3836 C 345.859 -3.55402 3.99492 0
M  V30 3837 C 347.159 -1.59859 4.97235 0
M  V30 3838 H 348.853 -0.647706 2.9231 0
M  V30 3839 H 346.399 -0.310116 1.40621 0
M  V30 3840 H 348.352 -3.08409 2.87162 0
M  V30 3841 H 347.076 -2.8134 1.65878 0
M  V30 3842 H 345.735 -1.50508 3.3428 0
M  V30 3843 H 345.383 -3.9683 3.09088 0
M  V30 3844 H 345.083 -3.43831 4.76502 0
M  V30 3845 H 346.607 -4.27708 4.35773 0
M  V30 3846 H 348.021 -2.20642 5.29141 0
M  V30 3847 H 346.418 -1.58942 5.78669 0
M  V30 3848 H 347.488 -0.561506 4.81638 0
M  V30 3849 N 348.832 -1.54138 -0.328536 0
M  V30 3850 C 349.762 -1.86167 -1.40939 0
M  V30 3851 C 350.743 -0.718044 -1.54202 0
M  V30 3852 O 351.928 -0.971328 -1.68163 0
M  V30 3853 C 349.058 -2.08461 -2.77779 0
M  V30 3854 C 348.012 -3.24299 -2.7931 0
M  V30 3855 C 347.338 -3.31955 -4.19178 0
M  V30 3856 C 348.638 -4.62065 -2.43502 0
M  V30 3857 H 350.332 -2.76689 -1.14383 0
M  V30 3858 H 347.878 -1.33132 -0.548806 0
M  V30 3859 H 349.831 -2.29453 -3.53454 0
M  V30 3860 H 348.555 -1.14684 -3.05802 0
M  V30 3861 H 347.214 -3.03187 -2.0609 0
M  V30 3862 H 346.862 -2.35745 -4.44335 0
M  V30 3863 H 346.562 -4.09805 -4.2111 0
M  V30 3864 H 348.086 -3.55175 -4.96672 0
M  V30 3865 H 349.5 -4.8297 -3.08889 0
M  V30 3866 H 347.897 -5.42429 -2.56693 0
M  V30 3867 H 348.967 -4.64652 -1.38659 0
M  V30 3868 N 350.31 0.590341 -1.46126 0
M  V30 3869 C 351.243 1.71434 -1.50617 0
M  V30 3870 C 352.221 1.58543 -0.360948 0
M  V30 3871 O 353.405 1.79865 -0.563985 0
M  V30 3872 C 350.532 3.09422 -1.37753 0
M  V30 3873 C 349.578 3.40854 -2.5636 0
M  V30 3874 S 350.411 3.33773 -4.18755 0
M  V30 3875 C 351.567 4.74312 -4.08386 0
M  V30 3876 H 351.8 1.67364 -2.45717 0
M  V30 3877 H 349.333 0.76845 -1.33919 0
M  V30 3878 H 351.291 3.8903 -1.31018 0
M  V30 3879 H 349.952 3.10989 -0.440949 0
M  V30 3880 H 349.145 4.41368 -2.43332 0
M  V30 3881 H 348.747 2.68798 -2.60046 0
M  V30 3882 H 351.039 5.64522 -3.74595 0
M  V30 3883 H 351.982 4.92397 -5.08872 0
M  V30 3884 H 352.39 4.50803 -3.3976 0
M  V30 3885 N 351.788 1.33704 0.83433 0
M  V30 3886 C 352.751 1.24244 1.92603 0
M  V30 3887 C 353.751 0.160383 1.59998 0
M  V30 3888 O 354.941 0.412228 1.69252 0
M  V30 3889 C 352.073 0.91555 3.28376 0
M  V30 3890 H 353.266 2.21287 2.02416 0
M  V30 3891 H 350.819 1.17827 1.02696 0
M  V30 3892 H 351.554 -0.0521886 3.24258 0
M  V30 3893 H 351.339 1.69811 3.53422 0
M  V30 3894 H 352.829 0.874231 4.08347 0
M  V30 3895 N 353.266 -1.05314 1.17247 0
M  V30 3896 C 354.514 -1.77941 0.958194 0
M  V30 3897 C 354.835 -1.88089 -0.514556 0
M  V30 3898 O 354.105 -1.39676 -1.37359 0
M  V30 3899 H 352.685 -0.659116 0.351533 0
M  V30 3900 H 355.347 -1.27166 1.47699 0
M  V30 3901 H 354.443 -2.79663 1.38546 0
M  V30 3902 N 354.744 -0.972509 -1.24016 0
M  V30 3903 C 355.99 -0.637978 -1.92504 0
M  V30 3904 C 356.323 0.825383 -1.75787 0
M  V30 3905 O 355.598 1.59442 -1.11393 0
M  V30 3906 C 355.881 -1.01942 -3.45369 0
M  V30 3907 C 355.734 -2.53983 -3.71231 0
M  V30 3908 C 357.053 -0.55751 -4.36555 0
M  V30 3909 H 354.172 -0.233248 -0.699117 0
M  V30 3910 H 356.814 -1.21238 -1.46292 0
M  V30 3911 H 354.964 -0.530656 -3.84859 0
M  V30 3912 H 356.636 -3.10374 -3.41271 0
M  V30 3913 H 354.879 -2.96968 -3.16216 0
M  V30 3914 H 355.55 -2.75723 -4.78206 0
M  V30 3915 H 358.026 -0.977029 -4.04467 0
M  V30 3916 H 356.902 -0.85292 -5.42233 0
M  V30 3917 H 357.163 0.542328 -4.38761 0
M  V30 3918 N 356.222 1.38976 -0.743202 0
M  V30 3919 C 357.447 2.05161 -0.303936 0
M  V30 3920 C 357.872 1.55677 1.05576 0
M  V30 3921 O 357.23 0.704131 1.67068 0
M  V30 3922 C 357.278 3.59138 -0.324373 0
M  V30 3923 O 356.382 4.06668 0.685204 0
M  V30 3924 H 355.723 0.649815 -0.136518 0
M  V30 3925 H 358.253 1.77852 -1.01142 0
M  V30 3926 H 358.263 4.07639 -0.171618 0
M  V30 3927 H 356.938 3.94515 -1.31647 0
M  V30 3928 H 355.515 3.69561 0.497913 0
M  V30 3929 N 357.7 0.491464 1.49741 0
M  V30 3930 C 358.65 -0.311086 2.25868 0
M  V30 3931 C 359.634 -0.943857 1.30308 0
M  V30 3932 O 360.826 -0.853035 1.55088 0
M  V30 3933 C 357.955 -1.38059 3.14316 0
M  V30 3934 C 357.041 -0.754541 4.17334 0
M  V30 3935 N 357.432 0.137216 5.05614 0
M  V30 3936 C 355.73 -1.01621 4.34269 0
M  V30 3937 C 356.431 0.494614 5.79593 0
M  V30 3938 N 355.407 -0.135169 5.43432 0
M  V30 3939 H 359.209 0.37555 2.91491 0
M  V30 3940 H 356.723 0.306917 1.59473 0
M  V30 3941 H 358.72 -1.96891 3.67477 0
M  V30 3942 H 357.38 -2.06901 2.50244 0
M  V30 3943 H 358.391 0.50741 5.15408 0
M  V30 3944 H 355.068 -1.69808 3.81407 0
M  V30 3945 H 356.458 1.2236 6.60665 0
M  V30 3946 N 359.178 -1.55987 0.224894 0
M  V30 3947 C 360.455 -1.90232 -0.455083 0
M  V30 3948 C 360.835 -1.14269 -1.77499 0
M  V30 3949 O 360.183 -0.253079 -2.27094 0
M  V30 3950 C 360.393 -3.42993 -0.644758 0
M  V30 3951 C 361.741 -4.13821 -0.950669 0
M  V30 3952 O 362.765 -3.4861 -0.731423 0
M  V30 3953 O 361.624 -5.29128 -1.36695 0
M  V30 3954 H 358.718 -0.79108 -0.241084 0
M  V30 3955 H 361.264 -1.67581 0.267327 0
M  V30 3956 H 360.036 -3.90252 0.28613 0
M  V30 3957 H 359.659 -3.71434 -1.41853 0
M  V30 3958 N 360.656 0.0484629 -1.57525 0
M  V30 3959 C 361.586 1.0549 -2.08313 0
M  V30 3960 C 362.567 1.38929 -0.981463 0
M  V30 3961 O 363.752 1.48151 -1.25558 0
M  V30 3962 C 360.882 2.36162 -2.54646 0
M  V30 3963 C 359.836 2.17016 -3.68901 0
M  V30 3964 C 359.162 3.53278 -4.01371 0
M  V30 3965 C 360.462 1.57219 -4.98076 0
M  V30 3966 H 362.156 0.632195 -2.92649 0
M  V30 3967 H 359.702 0.302654 -1.40784 0
M  V30 3968 H 361.655 3.06882 -2.88793 0
M  V30 3969 H 360.379 2.80456 -1.67368 0
M  V30 3970 H 359.038 1.48733 -3.35073 0
M  V30 3971 H 358.686 3.95185 -3.11188 0
M  V30 3972 H 358.386 3.41299 -4.78318 0
M  V30 3973 H 359.91 4.25391 -4.38035 0
M  V30 3974 H 361.324 2.17832 -5.30304 0
M  V30 3975 H 359.721 1.55871 -5.79503 0
M  V30 3976 H 360.791 0.535956 -4.81929 0
M  V30 3977 N 362.134 1.5431 0.320358 0
M  V30 3978 C 363.55 1.45091 0.664889 0
M  V30 3979 C 363.75 0.626382 1.91517 0
M  V30 3980 O 362.806 0.126443 2.52183 0
M  V30 3981 C 364.119 2.88848 0.83591 0
M  V30 3982 C 365.667 2.9877 0.933046 0
M  V30 3983 C 366.142 4.43683 1.13621 0
M  V30 3984 N 367.633 4.47309 1.20287 0
M  V30 3985 C 368.368 5.56595 1.37801 0
M  V30 3986 N 367.864 6.75844 1.52338 0
M  V30 3987 N 369.657 5.44248 1.40535 0
M  V30 3988 H 361.808 2.06398 -0.501374 0
M  V30 3989 H 364.071 0.933963 -0.162534 0
M  V30 3990 H 363.777 3.51698 -0.0116092 0
M  V30 3991 H 363.651 3.35148 1.73078 0
M  V30 3992 H 366.038 2.36045 1.77107 0
M  V30 3993 H 366.119 2.55796 0.0145782 0
M  V30 3994 H 365.763 5.06995 0.303032 0
M  V30 3995 H 365.693 4.84269 2.0686 0
M  V30 3996 H 368.184 3.61388 1.10485 0
M  V30 3997 H 368.497 7.54892 1.65403 0
M  V30 3998 H 366.842 6.78746 1.4943 0
M  V30 3999 H 370.033 4.50038 1.28777 0
M  V30 4000 H 370.206 6.29473 1.53842 0
M  V30 4001 N 363.613 -0.582584 1.46437 0
M  V30 4002 C 364.841 -1.36682 1.55324 0
M  V30 4003 C 365.256 -1.87796 0.194409 0
M  V30 4004 O 364.613 -1.63623 -0.808318 0
M  V30 4005 C 364.664 -2.55426 2.55812 0
M  V30 4006 O 364.385 -2.0643 3.86417 0
M  V30 4007 C 365.886 -3.47976 2.74641 0
M  V30 4008 H 363.106 -0.417545 0.525259 0
M  V30 4009 H 365.65 -0.708219 1.91845 0
M  V30 4010 H 363.805 -3.17275 2.22295 0
M  V30 4011 H 364.219 -2.83762 4.41111 0
M  V30 4012 H 365.693 -4.27775 3.48874 0
M  V30 4013 H 366.17 -3.99919 1.81553 0
M  V30 4014 H 366.776 -2.91962 3.09255 0
M  V30 4015 N 365.091 -1.34144 -0.827227 0
M  V30 4016 C 366.502 -1.23557 -1.39966 0
M  V30 4017 C 366.853 0.140731 -1.95695 0
M  V30 4018 O 365.978 1.04087 -1.89723 0
M  V30 4019 C 366.573 -2.23708 -2.54441 0
M  V30 4020 C 365.132 -2.16924 -3.07605 0
M  V30 4021 C 364.279 -2.10549 -1.80456 0
M  V30 4022 H 367.23 -1.45573 -0.631991 0
M  V30 4023 H 367.251 -1.85157 -3.32411 0
M  V30 4024 H 366.763 -3.23866 -2.13851 0
M  V30 4025 H 364.864 -1.20107 -3.52711 0
M  V30 4026 H 364.977 -3.07988 -3.66988 0
M  V30 4027 H 363.341 -1.56203 -2.01178 0
M  V30 4028 H 364.124 -3.12535 -1.42046 0
M  V30 4029 N 366.569 1.04691 -1.17803 0
M  V30 4030 C 367.499 2.14494 -0.92275 0
M  V30 4031 C 368.48 1.69546 0.137179 0
M  V30 4032 O 369.665 1.94195 -0.0141108 0
M  V30 4033 C 366.795 3.44491 -0.440803 0
M  V30 4034 C 365.749 4.03031 -1.4405 0
M  V30 4035 C 365.075 5.28432 -0.81631 0
M  V30 4036 C 366.375 4.39932 -2.81527 0
M  V30 4037 H 368.069 2.36107 -1.84103 0
M  V30 4038 H 365.615 1.1347 -0.886599 0
M  V30 4039 H 367.568 4.2066 -0.249602 0
M  V30 4040 H 366.292 3.22546 0.513025 0
M  V30 4041 H 364.951 3.28937 -1.61853 0
M  V30 4042 H 364.599 5.02792 0.144511 0
M  V30 4043 H 364.299 5.68559 -1.48371 0
M  V30 4044 H 365.823 6.07284 -0.635496 0
M  V30 4045 H 367.237 5.07113 -2.67412 0
M  V30 4046 H 365.634 4.9109 -3.44892 0
M  V30 4047 H 366.704 3.50045 -3.35554 0
M  V30 4048 N 368.047 0.979072 1.23499 0
M  V30 4049 C 369.275 0.665202 1.95915 0
M  V30 4050 C 369.69 -0.767571 1.72493 0
M  V30 4051 O 369.047 -1.51635 1.01554 0
M  V30 4052 C 369.098 0.944438 3.48945 0
M  V30 4053 O 368.819 2.3209 3.71572 0
M  V30 4054 C 370.32 0.646336 4.38563 0
M  V30 4055 H 367.54 0.247218 0.623798 0
M  V30 4056 H 370.084 1.31009 1.57025 0
M  V30 4057 H 368.239 0.345575 3.85856 0
M  V30 4058 H 368.653 2.40957 4.65876 0
M  V30 4059 H 370.127 0.892091 5.44744 0
M  V30 4060 H 370.604 -0.419575 4.37191 0
M  V30 4061 H 371.21 1.22562 4.07258 0
M  V30 4062 N 369.525 -1.3858 0.750561 0
M  V30 4063 C 370.941 -1.53759 0.427824 0
M  V30 4064 C 371.141 -1.71401 -1.05943 0
M  V30 4065 O 370.197 -1.72331 -1.84549 0
M  V30 4066 C 371.51 -2.74642 1.22443 0
M  V30 4067 C 373.058 -2.88489 1.2142 0
M  V30 4068 C 373.533 -4.12329 1.9937 0
M  V30 4069 N 375.024 -4.194 1.96616 0
M  V30 4070 C 375.759 -5.14209 2.53727 0
M  V30 4071 N 375.255 -6.14709 3.19539 0
M  V30 4072 N 377.048 -5.06537 2.43673 0
M  V30 4073 H 369.199 -1.25377 1.71447 0
M  V30 4074 H 371.462 -0.608844 0.726645 0
M  V30 4075 H 371.168 -2.68 2.27747 0
M  V30 4076 H 371.042 -3.67745 0.839273 0
M  V30 4077 H 373.429 -2.94614 0.169232 0
M  V30 4078 H 373.51 -1.96406 1.63885 0
M  V30 4079 H 373.154 -4.06966 3.03877 0
M  V30 4080 H 373.084 -5.03486 1.54302 0
M  V30 4081 H 375.575 -3.47421 1.48684 0
M  V30 4082 H 375.888 -6.8354 3.60545 0
M  V30 4083 H 374.233 -6.1505 3.23633 0
M  V30 4084 H 377.424 -4.26962 1.91889 0
M  V30 4085 H 377.597 -5.80245 2.88479 0
M  V30 4086 N 371.003 -0.499398 -1.49478 0
M  V30 4087 C 372.252 0.0475259 -2.01644 0
M  V30 4088 C 372.565 1.38195 -1.38425 0
M  V30 4089 O 373.771 2.01547 -1.8191 0
M  V30 4090 C 372.227 0.135164 -3.59646 0
M  V30 4091 C 371.835 -1.19252 -4.31837 0
M  V30 4092 C 373.579 0.632538 -4.19761 0
M  V30 4093 C 371.486 -1.06713 -5.81693 0
M  V30 4094 H 370.416 0.0215349 -0.753692 0
M  V30 4095 H 373.067 -0.638577 -1.7203 0
M  V30 4096 H 371.449 0.885681 -3.85969 0
M  V30 4097 H 372.623 -1.9562 -4.17216 0
M  V30 4098 H 370.938 -1.62321 -3.83459 0
M  V30 4099 H 373.535 0.743833 -5.29501 0
M  V30 4100 H 373.878 1.63098 -3.83021 0
M  V30 4101 H 374.411 -0.0613987 -3.97753 0
M  V30 4102 H 371.15 -2.03979 -6.22955 0
M  V30 4103 H 370.67 -0.344307 -5.98811 0
M  V30 4104 H 372.349 -0.745208 -6.42694 0
M  V30 4105 N 372.481 1.55866 -0.233164 0
M  V30 4106 C 373.897 1.59133 0.121988 0
M  V30 4107 C 374.097 1.25016 1.58029 0
M  V30 4108 O 373.153 0.990922 2.32243 0
M  V30 4109 C 374.466 2.99932 -0.214792 0
M  V30 4110 C 376.014 3.12601 -0.157971 0
M  V30 4111 C 376.489 4.55597 -0.46859 0
M  V30 4112 N 377.98 4.61305 -0.418585 0
M  V30 4113 C 378.715 5.69903 -0.63227 0
M  V30 4114 N 378.211 6.86819 -0.90835 0
M  V30 4115 N 380.004 5.59264 -0.563913 0
M  V30 4116 H 372.155 1.76315 -1.18434 0
M  V30 4117 H 374.418 0.820093 -0.475553 0
M  V30 4118 H 374.124 3.29588 -1.22739 0
M  V30 4119 H 373.998 3.74327 0.464691 0
M  V30 4120 H 376.385 2.82735 0.845283 0
M  V30 4121 H 376.466 2.40511 -0.871102 0
M  V30 4122 H 376.11 4.86182 -1.46934 0
M  V30 4123 H 376.04 5.25928 0.265865 0
M  V30 4124 H 378.531 3.77297 -0.213368 0
M  V30 4125 H 378.844 7.65507 -1.05919 0
M  V30 4126 H 377.189 6.88536 -0.945673 0
M  V30 4127 H 380.38 4.66802 -0.348372 0
M  V30 4128 H 380.553 6.43831 -0.733847 0
M  V30 4129 N 373.959 -0.0401083 1.57549 0
M  V30 4130 C 374.889 -1.04384 2.08869 0
M  V30 4131 C 375.87 -1.38407 0.988817 0
M  V30 4132 O 377.055 -1.47483 1.26342 0
M  V30 4133 C 374.185 -2.34808 2.55895 0
M  V30 4134 C 373.139 -2.15057 3.70047 0
M  V30 4135 C 372.465 -3.51145 4.03239 0
M  V30 4136 C 373.765 -1.54576 4.98902 0
M  V30 4137 H 375.459 -0.616666 2.92981 0
M  V30 4138 H 373.005 -0.295184 1.40942 0
M  V30 4139 H 374.958 -3.05346 2.90417 0
M  V30 4140 H 373.682 -2.79565 1.68853 0
M  V30 4141 H 372.341 -1.46954 3.35857 0
M  V30 4142 H 371.989 -3.93529 3.13279 0
M  V30 4143 H 371.689 -3.38758 4.80122 0
M  V30 4144 H 373.213 -4.23062 4.40285 0
M  V30 4145 H 374.627 -2.15017 5.31451 0
M  V30 4146 H 373.024 -1.52796 5.80322 0
M  V30 4147 H 374.094 -0.51039 4.82206 0
M  V30 4148 N 375.437 -1.54477 -0.31217 0
M  V30 4149 C 376.4 -1.83923 -1.36766 0
M  V30 4150 C 377.4 -0.711563 -1.44199 0
M  V30 4151 O 378.59 -0.979866 -1.44029 0
M  V30 4152 C 375.722 -2.0095 -2.75376 0
M  V30 4153 H 376.915 -2.78239 -1.11906 0
M  V30 4154 H 374.468 -1.46369 -0.548257 0
M  V30 4155 H 375.203 -1.08883 -3.05475 0
M  V30 4156 H 374.988 -2.83018 -2.71373 0
M  V30 4157 H 376.478 -2.2514 -3.51713 0
M  V30 4158 N 376.915 0.57481 -1.46744 0
M  V30 4159 C 378.143 1.35856 -1.56047 0
M  V30 4160 C 378.558 1.87691 -0.204365 0
M  V30 4161 O 377.915 1.64049 0.79963 0
M  V30 4162 C 377.966 2.54066 -2.57163 0
M  V30 4163 O 377.687 2.04377 -3.87507 0
M  V30 4164 C 379.188 3.46514 -2.76483 0
M  V30 4165 H 376.408 0.414754 -0.527466 0
M  V30 4166 H 378.952 0.698035 -1.92218 0
M  V30 4167 H 377.107 3.16092 -2.23974 0
M  V30 4168 H 377.521 2.81419 -4.4261 0
M  V30 4169 H 378.995 4.25919 -3.51137 0
M  V30 4170 H 379.472 3.98951 -1.83671 0
M  V30 4171 H 380.078 2.90318 -3.10799 0
M  V30 4172 N 378.394 1.34581 0.820102 0
M  V30 4173 C 379.304 1.28471 1.96297 0
M  V30 4174 C 380.32 0.191902 1.72939 0
M  V30 4175 O 381.496 0.418879 1.96996 0
M  V30 4176 C 378.561 1.04281 3.30645 0
M  V30 4177 C 377.622 2.22745 3.66992 0
M  V30 4178 C 376.855 1.997 4.9493 0
M  V30 4179 O 377.078 0.956656 5.6232 0
M  V30 4180 O 376.012 2.86723 5.2922 0
M  V30 4181 H 379.838 2.24624 2.04396 0
M  V30 4182 H 377.423 1.14816 0.955913 0
M  V30 4183 H 379.305 0.925841 4.11104 0
M  V30 4184 H 377.98 0.111697 3.23507 0
M  V30 4185 H 376.887 2.40003 2.86966 0
M  V30 4186 H 378.22 3.14257 3.78819 0
M  V30 4187 N 379.872 -1.04064 1.18357 0
M  V30 4188 C 380.805 -2.11618 0.854 0
M  V30 4189 C 381.783 -1.61555 -0.184043 0
M  V30 4190 O 382.967 -1.88395 -0.0630048 0
M  V30 4191 C 380.094 -3.37574 0.27597 0
M  V30 4192 C 379.14 -4.06485 1.2912 0
M  V30 4193 S 379.973 -4.53543 2.84709 0
M  V30 4194 C 381.129 -5.82732 2.28417 0
M  V30 4195 H 381.362 -2.39247 1.76488 0
M  V30 4196 H 378.895 -1.16832 1.00944 0
M  V30 4197 H 380.853 -4.10468 -0.051026 0
M  V30 4198 H 379.514 -3.0806 -0.613028 0
M  V30 4199 H 378.707 -4.97024 0.835633 0
M  V30 4200 H 378.309 -3.39708 1.56443 0
M  V30 4201 H 380.601 -6.56677 1.66677 0
M  V30 4202 H 381.544 -6.33052 3.17256 0
M  V30 4203 H 381.952 -5.37838 1.71436 0
M  V30 4204 N 381.35 -0.985608 -1.22978 0
M  V30 4205 C 382.283 -0.47487 -2.23204 0
M  V30 4206 C 383.261 0.460865 -1.55932 0
M  V30 4207 O 384.445 0.388105 -1.84461 0
M  V30 4208 C 381.572 0.312427 -3.37256 0
M  V30 4209 C 380.618 -0.568219 -4.22698 0
M  V30 4210 S 381.451 -2.01919 -4.95973 0
M  V30 4211 C 382.607 -1.24118 -6.1347 0
M  V30 4212 H 382.84 -1.32419 -2.66181 0
M  V30 4213 H 380.373 -0.792005 -1.32539 0
M  V30 4214 H 382.331 0.760645 -4.03391 0
M  V30 4215 H 380.992 1.13693 -2.92801 0
M  V30 4216 H 380.185 0.0371657 -5.03986 0
M  V30 4217 H 379.787 -0.952897 -3.61657 0
M  V30 4218 H 382.079 -0.505121 -6.75614 0
M  V30 4219 H 383.022 -2.02907 -6.78406 0
M  V30 4220 H 383.43 -0.757669 -5.59392 0
M  V30 4221 N 382.828 1.3818 -0.7579 0
M  V30 4222 C 384.053 2.04827 -0.325679 0
M  V30 4223 C 384.478 1.56788 1.03919 0
M  V30 4224 O 383.836 0.721811 1.66312 0
M  V30 4225 C 383.884 3.58774 -0.362447 0
M  V30 4226 O 382.988 4.07372 0.642033 0
M  V30 4227 H 382.329 0.64833 -0.143402 0
M  V30 4228 H 384.859 1.7677 -1.03023 0
M  V30 4229 H 384.869 4.07434 -0.214844 0
M  V30 4230 H 383.544 3.93096 -1.35824 0
M  V30 4231 H 382.121 3.70068 0.458688 0
M  V30 4232 N 384.306 0.507319 1.49211 0
M  V30 4233 C 385.216 -0.272136 2.33016 0
M  V30 4234 C 386.232 -0.961206 1.45041 0
M  V30 4235 O 387.408 -0.941191 1.78055 0
M  V30 4236 C 384.473 -1.31895 3.20631 0
M  V30 4237 C 383.534 -0.642648 4.24463 0
M  V30 4238 C 382.767 -1.63959 5.07891 0
M  V30 4239 O 382.99 -2.87007 4.92933 0
M  V30 4240 O 381.924 -1.19143 5.8999 0
M  V30 4241 H 385.75 0.413982 3.00865 0
M  V30 4242 H 383.335 0.268556 1.46966 0
M  V30 4243 H 385.217 -1.92446 3.7489 0
M  V30 4244 H 383.892 -1.98788 2.5547 0
M  V30 4245 H 382.799 0.00276252 3.741 0
M  V30 4246 H 384.132 -0.0160534 4.92197 0
M  V30 4247 N 385.784 -1.5574 0.241426 0
M  V30 4248 C 386.716 -2.18469 -0.693091 0
M  V30 4249 C 387.729 -1.15942 -1.14286 0
M  V30 4250 O 388.918 -1.42832 -1.07058 0
M  V30 4251 C 386.018 -2.7696 -1.95311 0
M  V30 4252 C 385.191 -4.04853 -1.65568 0
M  V30 4253 C 384.25 -4.47715 -2.76474 0
M  V30 4254 O 383.276 -5.14205 -2.44094 0
M  V30 4255 N 384.478 -4.15044 -4.05855 0
M  V30 4256 H 387.243 -2.99292 -0.156388 0
M  V30 4257 H 384.804 -1.61784 0.0611752 0
M  V30 4258 H 386.796 -3.02594 -2.68736 0
M  V30 4259 H 385.366 -2.00326 -2.39975 0
M  V30 4260 H 384.586 -3.86865 -0.756886 0
M  V30 4261 H 385.874 -4.88246 -1.43153 0
M  V30 4262 H 385.272 -3.61654 -4.34998 0
M  V30 4263 H 383.829 -4.45526 -4.75762 0
M  V30 4264 N 387.262 0.0317525 -1.57568 0
M  V30 4265 C 388.539 0.758366 -1.803 0
M  V30 4266 C 388.919 1.93718 -0.838845 0
M  V30 4267 O 388.267 2.28187 0.119571 0
M  V30 4268 C 388.477 1.19392 -3.27943 0
M  V30 4269 C 389.825 1.61094 -3.92854 0
M  V30 4270 O 390.849 1.28857 -3.32076 0
M  V30 4271 O 389.708 2.20918 -4.99858 0
M  V30 4272 H 386.802 0.366514 -0.741348 0
M  V30 4273 H 389.348 0.00873765 -1.69698 0
M  V30 4274 H 388.12 0.352275 -3.89711 0
M  V30 4275 H 387.743 2.00365 -3.43424 0
M  V30 4276 N 388.74 1.54641 0.303973 0
M  V30 4277 C 389.988 1.73437 1.0375 0
M  V30 4278 C 390.309 0.521449 1.87899 0
M  V30 4279 O 389.579 -0.46432 1.90318 0
M  V30 4280 H 388.159 0.639518 0.386039 0
M  V30 4281 H 390.821 1.91988 0.335675 0
M  V30 4282 H 389.917 2.62235 1.69231 0
M  V30 4283 N 390.218 -0.567019 1.47046 0
M  V30 4284 C 391.448 -1.34831 1.56538 0
M  V30 4285 C 391.856 -1.8802 0.21101 0
M  V30 4286 O 391.199 -1.65152 -0.804387 0
M  V30 4287 C 391.261 -2.56139 2.52256 0
M  V30 4288 C 390.925 -2.24307 3.98165 0
M  V30 4289 C 391.922 -1.82192 4.86931 0
M  V30 4290 C 389.607 -2.35968 4.43423 0
M  V30 4291 C 391.601 -1.52153 6.18973 0
M  V30 4292 C 389.288 -2.05542 5.75496 0
M  V30 4293 C 390.286 -1.63701 6.63092 0
M  V30 4294 O 389.974 -1.33657 7.92711 0
M  V30 4295 H 389.706 -0.417683 0.531523 0
M  V30 4296 H 392.26 -0.694726 1.93294 0
M  V30 4297 H 390.49 -3.24356 2.10548 0
M  V30 4298 H 392.179 -3.18214 2.51982 0
M  V30 4299 H 392.945 -1.72684 4.53217 0
M  V30 4300 H 388.824 -2.67495 3.75456 0
M  V30 4301 H 392.368 -1.19421 6.87302 0
M  V30 4302 H 388.265 -2.14679 6.08755 0
M  V30 4303 H 389.033 -1.4737 8.05124 0
M  V30 4304 N 391.696 -1.35014 -0.812953 0
M  V30 4305 C 392.626 -1.30069 -1.93919 0
M  V30 4306 C 393.607 -0.176275 -1.69184 0
M  V30 4307 O 394.792 -0.370227 -1.90638 0
M  V30 4308 C 391.922 -1.06547 -3.30552 0
M  V30 4309 C 390.876 -2.15561 -3.69753 0
M  V30 4310 C 390.202 -1.77214 -5.04479 0
M  V30 4311 C 391.502 -3.57476 -3.808 0
M  V30 4312 H 393.196 -2.24303 -1.98314 0
M  V30 4313 H 390.742 -1.07977 -0.952736 0
M  V30 4314 H 392.695 -1.01729 -4.08937 0
M  V30 4315 H 391.419 -0.0875719 -3.26483 0
M  V30 4316 H 390.078 -2.19466 -2.9365 0
M  V30 4317 H 389.726 -0.780589 -4.96906 0
M  V30 4318 H 389.426 -2.50184 -5.31678 0
M  V30 4319 H 390.95 -1.7391 -5.8531 0
M  V30 4320 H 392.364 -3.55929 -4.4943 0
M  V30 4321 H 390.761 -4.29152 -4.19462 0
M  V30 4322 H 391.831 -3.94091 -2.82525 0
M  V30 4323 N 393.175 1.03435 -1.18907 0
M  V30 4324 C 394.138 2.09756 -0.923844 0
M  V30 4325 C 395.138 1.60528 0.093416 0
M  V30 4326 O 396.328 1.73631 -0.140727 0
M  V30 4327 C 393.46 3.38692 -0.387354 0
M  V30 4328 H 394.653 2.34719 -1.86674 0
M  V30 4329 H 392.206 1.19959 -1.00197 0
M  V30 4330 H 392.941 3.19396 0.561845 0
M  V30 4331 H 392.726 3.75742 -1.12074 0
M  V30 4332 H 394.216 4.17016 -0.220694 0
M  V30 4333 N 394.653 0.992116 1.22453 0
M  V30 4334 C 395.563 0.55065 2.28046 0
M  V30 4335 C 396.579 -0.400189 1.69335 0
M  V30 4336 O 397.755 -0.267215 1.99619 0
M  V30 4337 C 394.82 -0.128496 3.46462 0
M  V30 4338 C 393.881 0.865208 4.20491 0
M  V30 4339 C 393.114 0.218377 5.33253 0
M  V30 4340 O 393.337 -0.987894 5.6178 0
M  V30 4341 O 392.271 0.922845 5.94783 0
M  V30 4342 H 396.097 1.4291 2.67975 0
M  V30 4343 H 393.682 0.760326 1.28606 0
M  V30 4344 H 395.564 -0.508947 4.18315 0
M  V30 4345 H 394.239 -0.981526 3.0846 0
M  V30 4346 H 393.146 1.29658 3.50913 0
M  V30 4347 H 394.479 1.68741 4.62371 0
M  V30 4348 N 396.131 -1.37776 0.765217 0
M  V30 4349 C 397.356 -2.04651 0.336537 0
M  V30 4350 C 397.781 -1.57337 -1.03086 0
M  V30 4351 O 397.139 -0.730621 -1.65927 0
M  V30 4352 C 397.187 -3.58577 0.381468 0
M  V30 4353 O 396.291 -4.07706 -0.62042 0
M  V30 4354 H 395.632 -0.64756 0.146838 0
M  V30 4355 H 398.162 -1.76221 1.03959 0
M  V30 4356 H 398.172 -4.07314 0.236448 0
M  V30 4357 H 396.847 -3.9237 1.37907 0
M  V30 4358 H 395.424 -3.70306 -0.439056 0
M  V30 4359 N 397.609 -0.515225 -1.4894 0
M  V30 4360 C 398.858 0.0261361 -2.01683 0
M  V30 4361 C 399.171 1.36719 -1.39883 0
M  V30 4362 O 400.377 1.99606 -1.84037 0
M  V30 4363 C 398.833 0.0970111 -3.59769 0
M  V30 4364 C 398.441 -1.23825 -4.30548 0
M  V30 4365 C 400.185 0.587981 -4.20408 0
M  V30 4366 C 398.092 -1.12877 -5.80528 0
M  V30 4367 H 397.022 0.0135398 -0.753878 0
M  V30 4368 H 399.673 -0.656787 -1.71343 0
M  V30 4369 H 398.055 0.844694 -3.86886 0
M  V30 4370 H 399.229 -2.00034 -4.15118 0
M  V30 4371 H 397.544 -1.66379 -3.81716 0
M  V30 4372 H 400.141 0.68763 -5.3026 0
M  V30 4373 H 400.484 1.59026 -3.84729 0
M  V30 4374 H 401.017 -0.103582 -3.97665 0
M  V30 4375 H 397.756 -2.10575 -6.20756 0
M  V30 4376 H 397.276 -0.407799 -5.98412 0
M  V30 4377 H 398.955 -0.813332 -6.41868 0
M  V30 4378 N 399.087 1.5561 -0.249682 0
M  V30 4379 C 400.035 2.22894 0.664906 0
M  V30 4380 C 401.029 1.21743 1.17792 0
M  V30 4381 O 402.235 1.39748 1.13449 0
M  V30 4382 H 398.61 0.715022 0.232912 0
M  V30 4383 H 400.581 2.98307 0.0742998 0
M  V30 4384 C 399.33 2.94424 1.84959 0
M  V30 4385 H 398.653 3.72031 1.46399 0
M  V30 4386 H 400.093 3.44862 2.4667 0
M  V30 4387 C 398.552 1.98454 2.72245 0
M  V30 4388 O 399.082 1.51939 3.71857 0
M  V30 4389 N 397.288 1.65496 2.38871 0
M  V30 4390 H 396.835 2.03517 1.57919 0
M  V30 4391 H 396.793 1.0155 2.97548 0
M  V30 4392 N 400.565 -0.0233959 1.57583 0
M  V30 4393 C 401.512 -1.02224 2.06927 0
M  V30 4394 C 402.482 -1.35575 0.959617 0
M  V30 4395 O 403.667 -1.45815 1.23055 0
M  V30 4396 C 400.807 -2.31636 2.5581 0
M  V30 4397 C 399.92 -2.04394 3.80588 0
M  V30 4398 C 399.055 -3.27717 4.18061 0
M  V30 4399 C 398.094 -2.96056 5.3574 0
M  V30 4400 N 397.231 -4.11847 5.68618 0
M  V30 4401 H 402.071 -0.594504 2.9201 0
M  V30 4402 H 399.608 -0.281921 1.44373 0
M  V30 4403 H 401.566 -3.07258 2.82221 0
M  V30 4404 H 400.196 -2.72122 1.73636 0
M  V30 4405 H 399.248 -1.19244 3.61227 0
M  V30 4406 H 400.56 -1.77042 4.66323 0
M  V30 4407 H 399.714 -4.11702 4.4563 0
M  V30 4408 H 398.453 -3.58188 3.30988 0
M  V30 4409 H 397.458 -2.10474 5.07918 0
M  V30 4410 H 398.683 -2.66857 6.24471 0
M  V30 4411 H 396.629 -4.42258 4.84504 0
M  V30 4412 H 396.546 -3.87938 6.48876 0
M  V30 4413 H 397.814 -4.96689 6.00766 0
M  V30 4414 N 402.043 -1.548 -0.295768 0
M  V30 4415 C 403.32 -1.65014 -1.05023 0
M  V30 4416 C 403.7 -0.501805 -2.05049 0
M  V30 4417 O 403.048 0.500869 -2.22943 0
M  V30 4418 C 403.258 -3.03252 -1.72741 0
M  V30 4419 C 404.606 -3.60242 -2.24746 0
M  V30 4420 O 405.63 -3.05737 -1.82765 0
M  V30 4421 O 404.489 -4.55687 -3.01681 0
M  V30 4422 H 401.583 -0.669314 -0.485744 0
M  V30 4423 H 404.129 -1.67144 -0.293438 0
M  V30 4424 H 402.901 -3.7827 -1.00138 0
M  V30 4425 H 402.524 -3.04922 -2.55163 0
M  V30 4426 N 403.521 0.559213 -1.47345 0
M  V30 4427 C 404.77 1.31281 -1.53128 0
M  V30 4428 C 405.083 1.94602 -0.197344 0
M  V30 4429 O 406.289 2.71173 -0.133154 0
M  V30 4430 C 404.745 2.38051 -2.69925 0
M  V30 4431 C 404.353 1.8093 -4.0984 0
M  V30 4432 C 406.097 3.14604 -2.84999 0
M  V30 4433 C 404.004 2.85468 -5.1794 0
M  V30 4434 H 402.934 0.493614 -0.569966 0
M  V30 4435 H 405.585 0.594155 -1.73615 0
M  V30 4436 H 403.967 3.12822 -2.42814 0
M  V30 4437 H 405.141 1.12544 -4.46845 0
M  V30 4438 H 403.456 1.16967 -3.99634 0
M  V30 4439 H 406.053 3.92666 -3.62929 0
M  V30 4440 H 406.396 3.68665 -1.93369 0
M  V30 4441 H 406.929 2.46945 -3.1187 0
M  V30 4442 H 403.668 2.36264 -6.1144 0
M  V30 4443 H 403.188 3.52269 -4.85455 0
M  V30 4444 H 404.867 3.48996 -5.44803 0
M  V30 4445 N 404.999 1.35443 0.805782 0
M  V30 4446 C 405.909 1.30546 1.94923 0
M  V30 4447 C 406.925 0.210233 1.72725 0
M  V30 4448 O 408.101 0.43975 1.9654 0
M  V30 4449 C 405.166 1.07782 3.29521 0
M  V30 4450 C 404.227 2.26625 3.64609 0
M  V30 4451 C 403.46 2.04938 4.92784 0
M  V30 4452 O 403.683 1.01624 5.61274 0
M  V30 4453 O 402.617 2.9232 5.26149 0
M  V30 4454 H 406.443 2.26779 2.02002 0
M  V30 4455 H 404.028 1.15823 0.943682 0
M  V30 4456 H 405.91 0.969392 4.10098 0
M  V30 4457 H 404.585 0.146003 3.23371 0
M  V30 4458 H 403.492 2.43033 2.84404 0
M  V30 4459 H 404.825 3.18257 3.75464 0
M  V30 4460 N 406.477 -1.02803 1.19454 0
M  V30 4461 C 407.387 -2.14575 0.948408 0
M  V30 4462 C 408.403 -1.73757 -0.091871 0
M  V30 4463 O 409.579 -2.01185 0.0929654 0
M  V30 4464 C 406.644 -3.43202 0.491265 0
M  V30 4465 C 405.705 -3.98328 1.60103 0
M  V30 4466 C 404.938 -5.20816 1.16561 0
M  V30 4467 O 405.161 -5.70392 0.0295238 0
M  V30 4468 O 404.095 -5.68801 1.96849 0
M  V30 4469 H 407.921 -2.38202 1.88397 0
M  V30 4470 H 405.506 -1.12989 0.977433 0
M  V30 4471 H 407.388 -4.20687 0.245015 0
M  V30 4472 H 406.063 -3.21018 -0.415851 0
M  V30 4473 H 404.97 -3.22174 1.90144 0
M  V30 4474 H 406.303 -4.24879 2.48473 0
M  V30 4475 N 407.956 -0.998596 -1.21925 0
M  V30 4476 C 409.196 -0.685948 -1.92546 0
M  V30 4477 C 409.56 0.768441 -1.75952 0
M  V30 4478 O 410.761 1.19277 -2.40887 0
M  V30 4479 C 409.032 -1.08767 -3.40448 0
M  V30 4480 S 410.591 -0.894251 -4.29591 0
M  V30 4481 H 407.409 -0.250622 -0.665364 0
M  V30 4482 H 410.011 -1.28207 -1.47591 0
M  V30 4483 H 408.715 -2.14242 -3.50041 0
M  V30 4484 H 408.246 -0.48357 -3.90417 0
M  V30 4485 H 410.261 0.212149 -4.95746 0
M  V30 4486 N 409.434 1.37368 -0.772513 0
M  V30 4487 C 410.382 2.32134 -0.147111 0
M  V30 4488 C 411.376 1.54972 0.684106 0
M  V30 4489 O 412.582 1.70363 0.581083 0
M  V30 4490 H 408.957 0.751449 -0.028786 0
M  V30 4491 H 410.928 2.82464 -0.962112 0
M  V30 4492 C 409.677 3.40226 0.71703 0
M  V30 4493 H 409 3.99706 0.0867951 0
M  V30 4494 H 410.44 4.08897 1.12159 0
M  V30 4495 C 408.899 2.80372 1.86797 0
M  V30 4496 O 409.429 2.71183 2.96349 0
M  V30 4497 N 407.635 2.37904 1.66883 0
M  V30 4498 H 407.182 2.45578 0.777759 0
M  V30 4499 H 407.14 1.98202 2.44056 0
M  V30 4500 N 410.912 0.523116 1.48665 0
M  V30 4501 C 411.875 -0.232592 2.28017 0
M  V30 4502 C 412.875 -0.874021 1.34972 0
M  V30 4503 O 414.065 -0.735132 1.57929 0
M  V30 4504 C 411.197 -1.33586 3.13636 0
M  V30 4505 H 412.39 0.464008 2.96289 0
M  V30 4506 H 409.943 0.278816 1.53793 0
M  V30 4507 H 410.678 -2.06593 2.4998 0
M  V30 4508 H 410.463 -0.881125 3.82071 0
M  V30 4509 H 411.953 -1.86759 3.73511 0
M  V30 4510 N 412.39 -1.55475 0.257931 0
M  V30 4511 C 413.639 -1.98383 -0.364275 0
M  V30 4512 C 413.952 -1.14952 -1.58258 0
M  V30 4513 O 415.158 -1.47924 -2.27664 0
M  V30 4514 C 413.614 -3.53037 -0.699479 0
M  V30 4515 C 413.222 -4.45223 0.498046 0
M  V30 4516 C 414.966 -4.04575 -1.28526 0
M  V30 4517 C 412.873 -5.91238 0.138383 0
M  V30 4518 H 411.803 -0.740911 -0.13988 0
M  V30 4519 H 414.454 -1.79936 0.359883 0
M  V30 4520 H 412.836 -3.6722 -1.48207 0
M  V30 4521 H 414.01 -4.42803 1.27522 0
M  V30 4522 H 412.325 -4.04226 0.999503 0
M  V30 4523 H 414.922 -5.11196 -1.56788 0
M  V30 4524 H 415.265 -3.5258 -2.21344 0
M  V30 4525 H 415.798 -3.93762 -0.565337 0
M  V30 4526 H 412.537 -6.47294 1.03398 0
M  V30 4527 H 412.057 -5.96768 -0.602374 0
M  V30 4528 H 413.736 -6.46413 -0.27553 0
M  V30 4529 N 413.868 0.0150385 -1.57593 0
M  V30 4530 C 415.117 0.702115 -1.89085 0
M  V30 4531 C 415.43 1.75764 -0.858277 0
M  V30 4532 O 416.636 2.49829 -1.0629 0
M  V30 4533 C 415.092 1.29992 -3.35604 0
M  V30 4534 C 414.7 0.280007 -4.47124 0
M  V30 4535 C 416.444 1.96606 -3.76227 0
M  V30 4536 C 414.351 0.886949 -5.84711 0
M  V30 4537 H 413.281 0.265997 -0.705522 0
M  V30 4538 H 415.932 -0.0430408 -1.8345 0
M  V30 4539 H 414.314 2.09525 -3.36029 0
M  V30 4540 H 415.488 -0.489631 -4.58191 0
M  V30 4541 H 413.803 -0.284835 -4.15425 0
M  V30 4542 H 416.4 2.42893 -4.76347 0
M  V30 4543 H 416.743 2.79024 -3.08952 0
M  V30 4544 H 417.276 1.23828 -3.78036 0
M  V30 4545 H 414.015 0.101876 -6.55421 0
M  V30 4546 H 413.535 1.6261 -5.77337 0
M  V30 4547 H 415.214 1.39011 -6.3189 0
M  V30 4548 N 415.346 1.54954 0.287554 0
M  V30 4549 C 416.256 1.8991 1.37736 0
M  V30 4550 C 417.272 0.794701 1.54792 0
M  V30 4551 O 418.448 1.09243 1.69198 0
M  V30 4552 C 415.513 2.15108 2.71899 0
M  V30 4553 C 414.574 3.38752 2.63715 0
M  V30 4554 C 413.807 3.62739 3.91479 0
M  V30 4555 O 414.03 2.89492 4.91478 0
M  V30 4556 O 412.964 4.56267 3.92561 0
M  V30 4557 H 416.79 2.82652 1.11092 0
M  V30 4558 H 414.375 1.41315 0.484807 0
M  V30 4559 H 416.257 2.32806 3.51254 0
M  V30 4560 H 414.932 1.25551 2.9836 0
M  V30 4561 H 413.839 3.26405 1.82786 0
M  V30 4562 H 415.172 4.28483 2.42205 0
M  V30 4563 N 416.824 -0.551391 1.4764 0
M  V30 4564 C 417.756 -1.67333 1.56628 0
M  V30 4565 C 418.769 -1.56398 0.452045 0
M  V30 4566 O 419.958 -1.6325 0.721926 0
M  V30 4567 C 417.058 -3.05841 1.45994 0
M  V30 4568 C 416.231 -3.42472 2.72088 0
M  V30 4569 C 415.29 -4.60168 2.55209 0
M  V30 4570 O 414.316 -4.64458 3.2904 0
M  V30 4571 N 415.518 -5.57024 1.63416 0
M  V30 4572 H 418.283 -1.60066 2.53375 0
M  V30 4573 H 415.844 -0.738169 1.44093 0
M  V30 4574 H 417.836 -3.8242 1.32428 0
M  V30 4575 H 416.406 -3.07302 0.573071 0
M  V30 4576 H 415.626 -2.55284 3.00373 0
M  V30 4577 H 416.914 -3.63723 3.55785 0
M  V30 4578 H 416.312 -5.56319 1.02594 0
M  V30 4579 H 414.869 -6.32906 1.558 0
M  V30 4580 N 418.302 -1.35869 -0.798587 0
M  V30 4581 C 419.549 -1.29588 -1.55606 0
M  V30 4582 C 419.877 0.127456 -1.94082 0
M  V30 4583 O 419.132 1.09461 -1.62225 0
M  V30 4584 C 419.431 -2.1556 -2.85077 0
M  V30 4585 C 419.097 -3.6424 -2.65781 0
M  V30 4586 C 417.759 -4.04766 -2.60227 0
M  V30 4587 C 420.111 -4.58547 -2.47758 0
M  V30 4588 C 417.439 -5.37753 -2.34603 0
M  V30 4589 C 419.791 -5.91742 -2.23662 0
M  V30 4590 C 418.455 -6.31402 -2.16534 0
M  V30 4591 H 417.725 -0.474197 -0.569402 0
M  V30 4592 H 420.372 -1.67839 -0.922086 0
M  V30 4593 H 418.677 -1.70216 -3.52893 0
M  V30 4594 H 420.374 -2.08031 -3.42818 0
M  V30 4595 H 416.964 -3.32086 -2.70956 0
M  V30 4596 H 421.148 -4.28117 -2.51056 0
M  V30 4597 H 416.404 -5.67474 -2.2756 0
M  V30 4598 H 420.578 -6.6439 -2.08708 0
M  V30 4599 H 418.205 -7.34381 -1.96441 0
M  V30 4600 N 419.78 1.02168 -1.19998 0
M  V30 4601 C 421.029 1.75091 -1.0013 0
M  V30 4602 C 421.342 1.89923 0.467835 0
M  V30 4603 O 422.548 2.59888 0.785515 0
M  V30 4604 C 421.004 3.14892 -1.74273 0
M  V30 4605 C 420.612 3.0809 -3.25245 0
M  V30 4606 C 422.356 3.9206 -1.62755 0
M  V30 4607 C 420.263 4.42867 -3.91948 0
M  V30 4608 H 419.193 0.656394 -0.37103 0
M  V30 4609 H 421.844 1.14284 -1.43567 0
M  V30 4610 H 420.226 3.7621 -1.2362 0
M  V30 4611 H 421.4 2.5611 -3.83072 0
M  V30 4612 H 419.715 2.44416 -3.3712 0
M  V30 4613 H 422.312 4.91764 -2.09934 0
M  V30 4614 H 422.655 4.12199 -0.582894 0
M  V30 4615 H 423.188 3.37359 -2.10793 0
M  V30 4616 H 419.927 4.27931 -4.96543 0
M  V30 4617 H 419.447 4.94874 -3.3891 0
M  V30 4618 H 421.126 5.11728 -3.95909 0
M  V30 4619 N 421.258 1.00505 1.21394 0
M  V30 4620 C 422.535 0.603277 1.86064 0
M  V30 4621 C 422.915 -0.919095 1.90042 0
M  V30 4622 O 422.263 -1.80607 1.39977 0
M  V30 4623 C 422.473 1.23772 3.26315 0
M  V30 4624 C 423.821 1.34586 4.02705 0
M  V30 4625 O 424.845 1.19304 3.35626 0
M  V30 4626 O 423.704 1.59169 5.22807 0
M  V30 4627 H 420.798 0.206634 0.800769 0
M  V30 4628 H 423.344 1.1017 1.29076 0
M  V30 4629 H 422.116 2.27848 3.18121 0
M  V30 4630 H 421.739 0.725648 3.90922 0
M  V30 4631 N 422.737 -1.36956 0.779787 0
M  V30 4632 C 423.967 -2.03459 0.358877 0
M  V30 4633 C 424.375 -1.58939 -1.02641 0
M  V30 4634 O 423.718 -0.769777 -1.66794 0
M  V30 4635 C 423.78 -3.5796 0.332393 0
M  V30 4636 C 423.444 -4.25644 1.66362 0
M  V30 4637 C 424.441 -4.49205 2.61746 0
M  V30 4638 C 422.126 -4.63313 1.94027 0
M  V30 4639 C 424.12 -5.09503 3.82996 0
M  V30 4640 C 421.807 -5.2333 3.15546 0
M  V30 4641 C 422.805 -5.46363 4.0985 0
M  V30 4642 O 422.493 -6.05122 5.29228 0
M  V30 4643 H 422.225 -0.659767 0.147254 0
M  V30 4644 H 424.779 -1.76111 1.05708 0
M  V30 4645 H 423.009 -3.84388 -0.422237 0
M  V30 4646 H 424.698 -4.05852 -0.0625389 0
M  V30 4647 H 425.464 -4.20508 2.41657 0
M  V30 4648 H 421.343 -4.44715 1.21448 0
M  V30 4649 H 424.887 -5.27397 4.56617 0
M  V30 4650 H 420.784 -5.51451 3.35517 0
M  V30 4651 H 421.552 -6.23595 5.30161 0
M  V30 4652 N 424.215 -0.530993 -1.48385 0
M  V30 4653 C 425.145 0.219985 -2.32461 0
M  V30 4654 C 426.126 0.934111 -1.42156 0
M  V30 4655 O 427.311 0.919694 -1.71042 0
M  V30 4656 C 424.441 1.26674 -3.23375 0
M  V30 4657 C 423.395 0.67069 -4.22712 0
M  V30 4658 C 422.721 1.82017 -5.02766 0
M  V30 4659 C 424.021 -0.358268 -5.2107 0
M  V30 4660 H 425.715 -0.48187 -2.95497 0
M  V30 4661 H 423.261 -0.233182 -1.42099 0
M  V30 4662 H 425.214 1.80006 -3.81019 0
M  V30 4663 H 423.938 1.99818 -2.58341 0
M  V30 4664 H 422.597 0.158878 -3.66256 0
M  V30 4665 H 422.245 2.54002 -4.34157 0
M  V30 4666 H 421.945 1.42727 -5.70003 0
M  V30 4667 H 423.469 2.35725 -5.63264 0
M  V30 4668 H 424.883 0.0880081 -5.73232 0
M  V30 4669 H 423.28 -0.66861 -5.96364 0
M  V30 4670 H 424.35 -1.26367 -4.68145 0
M  V30 4671 N 425.693 1.55336 -0.266172 0
M  V30 4672 C 427.109 1.59356 0.0882065 0
M  V30 4673 C 427.309 1.2834 1.55342 0
M  V30 4674 O 426.365 1.03996 2.30089 0
M  V30 4675 C 427.678 2.99409 -0.278364 0
M  V30 4676 C 429.226 3.12196 -0.224243 0
M  V30 4677 C 429.701 4.545 -0.565123 0
M  V30 4678 N 431.192 4.60313 -0.51634 0
M  V30 4679 C 431.927 5.68434 -0.753013 0
M  V30 4680 N 431.423 6.84738 -1.05383 0
M  V30 4681 N 433.216 5.57942 -0.682414 0
M  V30 4682 H 425.367 1.73764 -1.22147 0
M  V30 4683 H 427.63 0.809822 -0.492841 0
M  V30 4684 H 427.336 3.2691 -1.29703 0
M  V30 4685 H 427.21 3.75228 0.385186 0
M  V30 4686 H 429.597 2.84464 0.78512 0
M  V30 4687 H 429.678 2.38609 -0.921922 0
M  V30 4688 H 429.322 4.82956 -1.57213 0
M  V30 4689 H 429.252 5.26374 0.154248 0
M  V30 4690 H 431.743 3.7676 -0.29335 0
M  V30 4691 H 432.056 7.63088 -1.22133 0
M  V30 4692 H 430.401 6.86375 -1.09151 0
M  V30 4693 H 433.592 4.65958 -0.44731 0
M  V30 4694 H 433.765 6.4213 -0.870248 0
M  V30 4695 N 427.171 -0.0066808 1.57599 0
M  V30 4696 C 428.399 -0.704087 1.94551 0
M  V30 4697 C 428.814 -1.67677 0.867746 0
M  V30 4698 O 428.171 -1.8185 -0.153925 0
M  V30 4699 C 428.222 -1.44177 3.31505 0
M  V30 4700 O 427.943 -0.508097 4.35144 0
M  V30 4701 C 429.444 -2.23429 3.82876 0
M  V30 4702 H 426.664 -0.196523 0.641576 0
M  V30 4703 H 429.208 0.042453 2.04456 0
M  V30 4704 H 427.363 -2.13999 3.22929 0
M  V30 4705 H 427.777 -1.02782 5.14331 0
M  V30 4706 H 429.251 -2.70552 4.8115 0
M  V30 4707 H 429.728 -3.05818 3.15233 0
M  V30 4708 H 430.334 -1.58636 3.94607 0
M  V30 4709 N 428.649 -1.55105 -0.279332 0
M  V30 4710 C 429.897 -1.75066 -1.00977 0
M  V30 4711 C 430.218 -0.551276 -1.87045 0
M  V30 4712 O 429.488 0.433984 -1.91032 0
M  V30 4713 H 428.068 -0.645578 -0.375816 0
M  V30 4714 H 430.73 -1.92497 -0.305089 0
M  V30 4715 H 429.826 -2.64894 -1.65038 0
M  V30 4716 N 430.127 0.543554 -1.4793 0
M  V30 4717 C 431.059 1.665 -1.57513 0
M  V30 4718 C 432.072 1.56156 -0.460333 0
M  V30 4719 O 433.261 1.62865 -0.730573 0
M  V30 4720 C 430.361 3.05063 -1.47614 0
M  V30 4721 C 429.534 3.41024 -2.739 0
M  V30 4722 C 428.593 4.58809 -2.57645 0
M  V30 4723 O 427.619 4.62707 -3.31498 0
M  V30 4724 N 428.821 5.56149 -1.66368 0
M  V30 4725 H 431.586 1.5872 -2.5422 0
M  V30 4726 H 429.147 0.730517 -1.44482 0
M  V30 4727 H 431.139 3.81712 -1.34455 0
M  V30 4728 H 429.709 3.06994 -0.589359 0
M  V30 4729 H 428.929 2.53687 -3.01723 0
M  V30 4730 H 430.217 3.61831 -3.57709 0
M  V30 4731 H 429.615 5.55767 -1.05543 0
M  V30 4732 H 428.172 6.32071 -1.59154 0
M  V30 4733 N 431.605 1.3629 0.791371 0
M  V30 4734 C 432.515 1.32606 1.93527 0
M  V30 4735 C 433.531 0.228541 1.72493 0
M  V30 4736 O 434.707 0.460571 1.96063 0
M  V30 4737 C 431.772 1.11271 3.28359 0
M  V30 4738 C 430.833 2.3048 3.62185 0
M  V30 4739 C 430.066 2.10154 4.90583 0
M  V30 4740 O 430.289 1.07572 5.60165 0
M  V30 4741 O 429.223 2.97884 5.23019 0
M  V30 4742 H 433.049 2.28909 1.99585 0
M  V30 4743 H 430.634 1.16818 0.931344 0
M  V30 4744 H 432.516 1.01283 4.09047 0
M  V30 4745 H 431.191 0.180292 3.23198 0
M  V30 4746 H 430.098 2.46036 2.81811 0
M  V30 4747 H 431.431 3.22221 3.72068 0
M  V30 4748 N 433.083 -1.0153 1.20538 0
M  V30 4749 C 434.016 -2.09759 0.898695 0
M  V30 4750 C 434.994 -1.61909 -0.149733 0
M  V30 4751 O 436.178 -1.88486 -0.0230293 0
M  V30 4752 C 433.305 -3.36913 0.347512 0
M  V30 4753 C 432.351 -4.03655 1.37713 0
M  V30 4754 S 433.184 -4.47402 2.94265 0
M  V30 4755 C 434.34 -5.77756 2.40726 0
M  V30 4756 H 434.573 -2.3545 1.81523 0
M  V30 4757 H 432.106 -1.14665 1.03399 0
M  V30 4758 H 434.064 -4.10484 0.0360518 0
M  V30 4759 H 432.725 -3.09291 -0.547546 0
M  V30 4760 H 431.918 -4.9514 0.940872 0
M  V30 4761 H 431.52 -3.36313 1.63614 0
M  V30 4762 H 433.812 -6.52994 1.80569 0
M  V30 4763 H 434.755 -6.2618 3.30612 0
M  V30 4764 H 435.163 -5.34081 1.82806 0
M  V30 4765 N 434.561 -1.01147 -1.20859 0
M  V30 4766 C 435.972 -0.730205 -1.71828 0
M  V30 4767 C 436.323 0.751662 -1.8123 0
M  V30 4768 O 435.448 1.58686 -1.47132 0
M  V30 4769 C 436.043 -1.31885 -3.12077 0
M  V30 4770 C 434.602 -1.08656 -3.60376 0
M  V30 4771 C 433.749 -1.42769 -2.37723 0
M  V30 4772 H 436.7 -1.18158 -1.05945 0
M  V30 4773 H 436.721 -0.706793 -3.73878 0
M  V30 4774 H 436.233 -2.39737 -3.05201 0
M  V30 4775 H 434.334 -0.0254814 -3.72591 0
M  V30 4776 H 434.447 -1.76301 -4.45483 0
M  V30 4777 H 432.811 -0.846603 -2.40218 0
M  V30 4778 H 433.594 -2.51666 -2.33493 0
M  V30 4779 N 436.039 1.36541 -0.78704 0
M  V30 4780 C 436.972 2.27831 -0.129765 0
M  V30 4781 C 437.95 1.47105 0.692732 0
M  V30 4782 O 439.134 1.7641 0.664222 0
M  V30 4783 C 436.261 3.28577 0.821883 0
M  V30 4784 C 435.307 4.26422 0.0814771 0
M  V30 4785 S 436.14 5.20919 -1.24112 0
M  V30 4786 C 437.296 6.25212 -0.293409 0
M  V30 4787 H 437.529 2.83229 -0.903811 0
M  V30 4788 H 435.062 1.43046 -0.581144 0
M  V30 4789 H 437.02 3.87123 1.3655 0
M  V30 4790 H 435.681 2.72096 1.56916 0
M  V30 4791 H 434.874 4.97554 0.803485 0
M  V30 4792 H 434.476 3.71944 -0.391589 0
M  V30 4793 H 436.768 6.75435 0.528622 0
M  V30 4794 H 437.711 7.01378 -0.973344 0
M  V30 4795 H 438.119 5.64407 0.102196 0
M  V30 4796 N 437.518 0.538854 1.48102 0
M  V30 4797 C 438.428 -0.222648 2.33541 0
M  V30 4798 C 439.444 -0.930225 1.47047 0
M  V30 4799 O 440.62 -0.903211 1.80011 0
M  V30 4800 C 437.685 -1.25064 3.23357 0
M  V30 4801 C 436.746 -0.552469 4.2573 0
M  V30 4802 C 435.979 -1.53149 5.11254 0
M  V30 4803 O 436.202 -2.76487 4.9891 0
M  V30 4804 O 435.136 -1.06602 5.92385 0
M  V30 4805 H 438.962 0.477707 2.99919 0
M  V30 4806 H 436.547 0.299669 1.46364 0
M  V30 4807 H 438.429 -1.8445 3.78888 0
M  V30 4808 H 437.104 -1.93325 2.59629 0
M  V30 4809 H 436.011 0.082114 3.7401 0
M  V30 4810 H 437.344 0.0883526 4.92121 0
M  V30 4811 N 438.996 -1.55193 0.274407 0
M  V30 4812 C 439.929 -2.18606 -0.654712 0
M  V30 4813 C 440.907 -1.14677 -1.15273 0
M  V30 4814 O 442.091 -1.43198 -1.22583 0
M  V30 4815 C 439.218 -2.80875 -1.89281 0
M  V30 4816 C 438.264 -3.981 -1.53032 0
M  V30 4817 S 439.097 -5.32025 -0.609107 0
M  V30 4818 C 440.253 -5.97761 -1.85559 0
M  V30 4819 H 440.486 -2.97074 -0.115894 0
M  V30 4820 H 438.019 -1.54288 0.05867 0
M  V30 4821 H 439.977 -3.17381 -2.60345 0
M  V30 4822 H 438.638 -2.02302 -2.40277 0
M  V30 4823 H 437.831 -4.40356 -2.45158 0
M  V30 4824 H 437.433 -3.63013 -0.899874 0
M  V30 4825 H 439.725 -6.16951 -2.7996 0
M  V30 4826 H 440.668 -6.92545 -1.47605 0
M  V30 4827 H 441.076 -5.27113 -2.02021 0
M  V30 4828 N 440.474 -0.00167713 -1.576 0
M  V30 4829 C 441.437 0.974046 -2.07473 0
M  V30 4830 C 442.437 1.27143 -0.984444 0
M  V30 4831 O 443.627 1.21633 -1.24703 0
M  V30 4832 C 440.759 2.29849 -2.51759 0
M  V30 4833 H 441.952 0.54262 -2.9495 0
M  V30 4834 H 439.505 0.245829 -1.54355 0
M  V30 4835 H 440.24 2.77677 -1.67529 0
M  V30 4836 H 440.025 2.09584 -3.31386 0
M  V30 4837 H 441.515 2.9984 -2.90664 0
M  V30 4838 N 441.952 1.55251 0.271103 0
M  V30 4839 C 443.229 1.66664 1.02384 0
M  V30 4840 C 443.609 0.534363 2.04225 0
M  V30 4841 O 442.957 -0.465337 2.23712 0
M  V30 4842 C 443.167 3.05961 1.67895 0
M  V30 4843 C 444.515 3.63772 2.18986 0
M  V30 4844 O 445.539 3.08606 1.77878 0
M  V30 4845 O 444.398 4.60429 2.94393 0
M  V30 4846 H 441.492 0.676957 0.475035 0
M  V30 4847 H 444.038 1.67589 0.26681 0
M  V30 4848 H 442.81 3.79815 0.941071 0
M  V30 4849 H 442.433 3.08943 2.5028 0
M  V30 4850 N 443.43 -0.535701 1.48216 0
M  V30 4851 C 444.36 -1.65014 1.65204 0
M  V30 4852 C 445.341 -1.62554 0.501011 0
M  V30 4853 O 446.526 -1.7984 0.732886 0
M  V30 4854 C 443.656 -3.03616 1.68626 0
M  V30 4855 C 442.61 -3.20932 2.83172 0
M  V30 4856 C 441.936 -4.60537 2.71679 0
M  V30 4857 C 443.236 -3.04249 4.24535 0
M  V30 4858 H 444.93 -1.51053 2.58502 0
M  V30 4859 H 442.476 -0.725262 1.24402 0
M  V30 4860 H 444.429 -3.81446 1.79099 0
M  V30 4861 H 443.153 -3.18587 0.719026 0
M  V30 4862 H 441.812 -2.45517 2.72244 0
M  V30 4863 H 441.46 -4.72336 1.72937 0
M  V30 4864 H 441.16 -4.73069 3.48538 0
M  V30 4865 H 442.684 -5.40475 2.84112 0
M  V30 4866 H 444.098 -3.71877 4.36326 0
M  V30 4867 H 442.495 -3.28278 5.02348 0
M  V30 4868 H 443.565 -2.00739 4.41397 0
M  V30 4869 N 444.908 -1.36708 -0.784132 0
M  V30 4870 C 445.856 -1.31533 -1.91838 0
M  V30 4871 C 446.85 -0.206205 -1.6814 0
M  V30 4872 O 448.056 -0.373519 -1.76082 0
M  V30 4873 H 444.431 -0.409613 -0.630651 0
M  V30 4874 H 446.402 -2.2731 -1.9332 0
M  V30 4875 C 445.151 -1.12679 -3.28936 0
M  V30 4876 H 444.474 -1.97274 -3.4774 0
M  V30 4877 H 445.914 -1.13106 -4.08636 0
M  V30 4878 C 444.373 0.168281 -3.36479 0
M  V30 4879 O 444.903 1.15625 -3.84699 0
M  V30 4880 N 443.109 0.214762 -2.89805 0
M  V30 4881 H 442.656 -0.589852 -2.50756 0
M  V30 4882 H 442.614 1.08094 -2.95234 0
M  V30 4883 N 446.386 1.0089 -1.21074 0
M  V30 4884 C 447.349 2.0775 -0.968129 0
M  V30 4885 C 448.349 1.6069 0.0593445 0
M  V30 4886 O 449.539 1.73293 -0.177525 0
M  V30 4887 C 446.671 3.37794 -0.459108 0
M  V30 4888 H 447.864 2.30707 -1.9161 0
M  V30 4889 H 445.417 1.17807 -1.02719 0
M  V30 4890 H 446.152 3.20516 0.49397 0
M  V30 4891 H 445.937 3.7328 -1.20019 0
M  V30 4892 H 447.427 4.16454 -0.309099 0
M  V30 4893 N 447.864 1.01787 1.20321 0
M  V30 4894 C 449.11 0.708985 1.90003 0
M  V30 4895 C 449.443 -0.759572 1.78729 0
M  V30 4896 O 448.718 -1.55198 1.17234 0
M  V30 4897 C 449.001 1.1469 3.41348 0
M  V30 4898 C 448.854 2.67586 3.61549 0
M  V30 4899 C 450.173 0.71915 4.34185 0
M  V30 4900 H 447.292 0.259034 0.689978 0
M  V30 4901 H 449.934 1.26584 1.41692 0
M  V30 4902 H 448.084 0.673128 3.82624 0
M  V30 4903 H 449.756 3.22826 3.29517 0
M  V30 4904 H 447.999 3.085 3.04976 0
M  V30 4905 H 448.67 2.93281 4.67643 0
M  V30 4906 H 451.146 1.12647 4.00562 0
M  V30 4907 H 450.022 1.05358 5.38694 0
M  V30 4908 H 450.283 -0.379111 4.40472 0
M  V30 4909 N 449.342 -1.36122 0.79427 0
M  V30 4910 C 450.272 -2.32551 0.210328 0
M  V30 4911 C 451.253 -1.56884 -0.657386 0
M  V30 4912 O 452.438 -1.85014 -0.590207 0
M  V30 4913 C 449.568 -3.41128 -0.651819 0
M  V30 4914 C 448.522 -4.27842 0.116395 0
M  V30 4915 C 447.848 -5.2763 -0.86666 0
M  V30 4916 C 449.148 -5.05647 1.30837 0
M  V30 4917 H 450.842 -2.81636 1.01594 0
M  V30 4918 H 448.388 -1.35407 0.489981 0
M  V30 4919 H 450.341 -4.07581 -1.07031 0
M  V30 4920 H 449.065 -2.90622 -1.49019 0
M  V30 4921 H 447.724 -3.62952 0.515915 0
M  V30 4922 H 447.372 -4.73395 -1.70019 0
M  V30 4923 H 447.072 -5.86514 -0.35705 0
M  V30 4924 H 448.596 -5.96955 -1.28361 0
M  V30 4925 H 450.01 -5.65113 0.965393 0
M  V30 4926 H 448.407 -5.73967 1.75161 0
M  V30 4927 H 449.477 -4.37006 2.10128 0
M  V30 4928 N 450.82 -0.546701 -1.47814 0
M  V30 4929 C 452.068 -0.0187037 -2.02091 0
M  V30 4930 C 452.389 1.33168 -1.42447 0
M  V30 4931 O 451.659 1.86619 -0.595839 0
M  V30 4932 H 450.239 -0.00392531 -0.74699 0
M  V30 4933 H 452.901 -0.714327 -1.81338 0
M  V30 4934 H 451.997 0.0772219 -3.12004 0
M  V30 4935 N 452.299 1.55045 -0.282633 0
M  V30 4936 C 453.209 2.26491 0.61147 0
M  V30 4937 C 454.225 1.29348 1.16384 0
M  V30 4938 O 455.401 1.62298 1.19253 0
M  V30 4939 C 452.466 2.97779 1.77563 0
M  V30 4940 C 451.527 4.10418 1.25919 0
M  V30 4941 C 450.76 4.78297 2.36786 0
M  V30 4942 O 450.983 4.45426 3.56303 0
M  V30 4943 O 449.917 5.66089 2.04517 0
M  V30 4944 H 453.743 3.03683 0.0324615 0
M  V30 4945 H 451.328 1.49317 -0.0497576 0
M  V30 4946 H 453.21 3.42554 2.45427 0
M  V30 4947 H 451.885 2.23498 2.34159 0
M  V30 4948 H 450.792 3.70082 0.546797 0
M  V30 4949 H 452.125 4.86622 0.738887 0
M  V30 4950 N 453.777 0.010035 1.57597 0
M  V30 4951 C 455.023 -0.673697 1.91283 0
M  V30 4952 C 455.356 -1.72863 0.884979 0
M  V30 4953 O 454.631 -1.94268 -0.0949487 0
M  V30 4954 C 454.914 -1.30766 3.35518 0
M  V30 4955 C 454.767 -0.263578 4.49027 0
M  V30 4956 C 456.086 -2.23105 3.79358 0
M  V30 4957 H 453.205 -0.243439 0.695634 0
M  V30 4958 H 455.847 0.0633864 1.89894 0
M  V30 4959 H 453.997 -1.93588 3.36832 0
M  V30 4960 H 455.669 0.365738 4.59848 0
M  V30 4961 H 453.912 0.413077 4.31829 0
M  V30 4962 H 454.583 -0.746398 5.4693 0
M  V30 4963 H 457.059 -1.70289 3.79659 0
M  V30 4964 H 455.935 -2.64424 4.81011 0
M  V30 4965 H 456.196 -3.11433 3.13787 0
M  V30 4966 N 455.255 -1.55392 -0.262866 0
M  V30 4967 C 456.504 -1.75679 -0.990943 0
M  V30 4968 C 456.817 -0.57097 -1.87081 0
M  V30 4969 O 458.023 -0.656486 -2.63444 0
M  V30 4970 C 456.479 -3.10964 -1.81188 0
M  V30 4971 C 456.087 -4.37146 -0.980188 0
M  V30 4972 C 457.831 -3.40597 -2.53365 0
M  V30 4973 C 455.738 -5.63466 -1.7961 0
M  V30 4974 H 454.668 -0.654868 -0.373716 0
M  V30 4975 H 457.319 -1.81841 -0.246203 0
M  V30 4976 H 455.701 -2.98867 -2.59797 0
M  V30 4977 H 456.875 -4.60187 -0.237558 0
M  V30 4978 H 455.19 -4.14731 -0.372497 0
M  V30 4979 H 457.787 -4.32186 -3.14833 0
M  V30 4980 H 458.13 -2.6119 -3.24169 0
M  V30 4981 H 458.663 -3.53838 -1.81779 0
M  V30 4982 H 455.402 -6.4565 -1.13209 0
M  V30 4983 H 454.922 -5.44552 -2.51443 0
M  V30 4984 H 456.601 -6.02139 -2.36723 0
M  V30 4985 N 456.733 0.527833 -1.48498 0
M  V30 4986 C 457.696 1.61439 -1.62696 0
M  V30 4987 C 458.696 1.52824 -0.500136 0
M  V30 4988 O 459.886 1.56456 -0.765976 0
M  V30 4989 C 457.018 3.01063 -1.59918 0
M  V30 4990 H 458.211 1.50189 -2.59583 0
M  V30 4991 H 455.764 0.750055 -1.37127 0
M  V30 4992 H 456.499 3.17818 -0.645163 0
M  V30 4993 H 456.284 3.08725 -2.41726 0
M  V30 4994 H 457.774 3.80057 -1.73051 0
M  V30 4995 N 458.211 1.37122 0.776871 0
M  V30 4996 C 459.174 1.32301 1.8716 0
M  V30 4997 C 460.174 0.228099 1.59174 0
M  V30 4998 O 461.364 0.483642 1.67352 0
M  V30 4999 C 458.496 1.054 3.24197 0
M  V30 5000 H 459.689 2.29673 1.92848 0
M  V30 5001 H 457.242 1.22077 0.97606 0
M  V30 5002 H 457.977 0.0853872 3.24188 0
M  V30 5003 H 457.762 1.84648 3.45901 0
M  V30 5004 H 459.252 1.04664 4.04271 0
M  V30 5005 N 459.689 -1.00246 1.21608 0
M  V30 5006 C 460.599 -2.12515 0.993709 0
M  V30 5007 C 461.615 -1.73913 -0.0549939 0
M  V30 5008 O 462.791 -2.00943 0.135619 0
M  V30 5009 C 459.856 -3.42083 0.563953 0
M  V30 5010 C 458.917 -3.94843 1.68516 0
M  V30 5011 C 458.15 -5.18226 1.27582 0
M  V30 5012 O 458.373 -5.70201 0.150506 0
M  V30 5013 O 457.307 -5.64497 2.0887 0
M  V30 5014 H 461.133 -2.34152 1.93407 0
M  V30 5015 H 458.718 -1.10891 1.00118 0
M  V30 5016 H 460.6 -4.20073 0.334194 0
M  V30 5017 H 459.275 -3.21828 -0.347665 0
M  V30 5018 H 458.182 -3.18068 1.96935 0
M  V30 5019 H 459.515 -4.19512 2.5743 0
M  V30 5020 N 461.167 -1.02423 -1.1978 0
M  V30 5021 C 462.392 -0.7373 -1.93852 0
M  V30 5022 C 462.817 0.696923 -1.74713 0
M  V30 5023 O 462.175 1.48056 -1.04638 0
M  V30 5024 C 462.223 -1.08783 -3.438 0
M  V30 5025 O 461.327 -0.20383 -4.11896 0
M  V30 5026 H 460.668 -0.27284 -0.605355 0
M  V30 5027 H 463.198 -1.36966 -1.51992 0
M  V30 5028 H 463.208 -1.04276 -3.9445 0
M  V30 5029 H 461.883 -2.13274 -3.57053 0
M  V30 5030 H 460.46 -0.307091 -3.71633 0
M  V30 5031 N 462.645 1.35699 -0.801477 0
M  V30 5032 C 463.893 1.9852 -0.37871 0
M  V30 5033 C 464.214 1.63907 1.05638 0
M  V30 5034 O 463.484 0.919013 1.73006 0
M  V30 5035 H 462.064 0.734322 -0.137042 0
M  V30 5036 H 464.726 1.65697 -1.02619 0
M  V30 5037 H 463.822 3.08382 -0.480284 0
M  V30 5038 N 464.123 0.554532 1.47522 0
M  V30 5039 C 465.353 0.0342074 2.06572 0
M  V30 5040 C 465.761 -1.26375 1.40805 0
M  V30 5041 O 465.104 -1.7683 0.49769 0
M  V30 5042 C 465.166 -0.235096 3.5873 0
M  V30 5043 C 464.83 0.973024 4.46521 0
M  V30 5044 C 465.827 1.8779 4.848 0
M  V30 5045 C 463.512 1.18694 4.88075 0
M  V30 5046 C 465.506 2.98039 5.63428 0
M  V30 5047 C 463.193 2.29254 5.66468 0
M  V30 5048 C 464.191 3.18757 6.04055 0
M  V30 5049 O 463.879 4.27401 6.8087 0
M  V30 5050 H 463.611 0.041587 0.67472 0
M  V30 5051 H 466.165 0.766748 1.90552 0
M  V30 5052 H 464.395 -1.02191 3.72953 0
M  V30 5053 H 466.084 -0.700477 3.9981 0
M  V30 5054 H 466.85 1.72467 4.53299 0
M  V30 5055 H 462.729 0.49947 4.58286 0
M  V30 5056 H 466.273 3.67926 5.92685 0
M  V30 5057 H 462.17 2.4455 5.97382 0
M  V30 5058 H 462.938 4.25415 6.9926 0
M  V30 5059 N 465.601 -1.54893 0.290851 0
M  V30 5060 C 466.511 -2.26812 -0.59945 0
M  V30 5061 C 467.527 -1.29963 -1.15696 0
M  V30 5062 O 468.703 -1.62928 -1.18391 0
M  V30 5063 C 465.768 -2.98716 -1.75982 0
M  V30 5064 C 464.829 -4.1108 -1.2374 0
M  V30 5065 C 464.062 -4.79546 -2.34246 0
M  V30 5066 O 464.285 -4.47309 -3.53936 0
M  V30 5067 O 463.219 -5.67165 -2.01512 0
M  V30 5068 H 467.045 -3.03696 -0.0163561 0
M  V30 5069 H 464.63 -1.49289 0.0576755 0
M  V30 5070 H 466.512 -3.43851 -2.43607 0
M  V30 5071 H 465.187 -2.24737 -2.3297 0
M  V30 5072 H 464.094 -3.70367 -0.527163 0
M  V30 5073 H 465.427 -4.87007 -0.71307 0
M  V30 5074 N 467.08 -0.0183926 -1.57589 0
M  V30 5075 C 468.496 0.337897 -1.55982 0
M  V30 5076 C 468.696 1.73604 -1.02294 0
M  V30 5077 O 467.752 2.43589 -0.664895 0
M  V30 5078 C 469.065 0.196305 -3.00059 0
M  V30 5079 C 470.613 0.269875 -3.11834 0
M  V30 5080 C 471.088 0.157197 -4.5773 0
M  V30 5081 N 472.579 0.214521 -4.62703 0
M  V30 5082 C 473.314 0.150955 -5.73201 0
M  V30 5083 N 472.81 0.0369212 -6.9279 0
M  V30 5084 N 474.603 0.204162 -5.61729 0
M  V30 5085 H 466.754 -0.93279 -1.90821 0
M  V30 5086 H 469.017 -0.359253 -0.877292 0
M  V30 5087 H 468.723 -0.766383 -3.43248 0
M  V30 5088 H 468.597 0.970908 -3.6449 0
M  V30 5089 H 470.984 1.22302 -2.68563 0
M  V30 5090 H 471.065 -0.534918 -2.50144 0
M  V30 5091 H 470.709 -0.792479 -5.01679 0
M  V30 5092 H 470.639 0.980717 -5.17387 0
M  V30 5093 H 473.13 0.303238 -3.76681 0
M  V30 5094 H 473.443 -0.00518321 -7.728 0
M  V30 5095 H 471.788 0.0022886 -6.95 0
M  V30 5096 H 474.979 0.291575 -4.67191 0
M  V30 5097 H 475.152 0.15116 -6.47824 0
M  V30 5098 N 468.558 1.5553 0.254621 0
M  V30 5099 C 469.468 1.92789 1.33677 0
M  V30 5100 C 470.484 0.827356 1.53071 0
M  V30 5101 O 471.66 1.12807 1.66843 0
M  V30 5102 C 468.725 2.20827 2.67275 0
M  V30 5103 C 467.786 3.4427 2.5647 0
M  V30 5104 C 467.019 3.70961 3.83697 0
M  V30 5105 O 467.242 2.99852 4.85227 0
M  V30 5106 O 466.176 4.64491 3.82794 0
M  V30 5107 H 470.002 2.84945 1.05071 0
M  V30 5108 H 467.587 1.42312 0.454723 0
M  V30 5109 H 469.469 2.40204 3.46237 0
M  V30 5110 H 468.144 1.31851 2.9563 0
M  V30 5111 H 467.051 3.30209 1.75821 0
M  V30 5112 H 468.384 4.33524 2.33062 0
M  V30 5113 N 470.036 -0.519951 1.48776 0
M  V30 5114 C 471.285 -1.27175 1.56555 0
M  V30 5115 C 471.598 -1.9401 0.248869 0
M  V30 5116 O 472.804 -2.70725 0.205004 0
M  V30 5117 C 471.26 -2.30811 2.76142 0
M  V30 5118 C 470.868 -1.7 4.14493 0
M  V30 5119 C 472.612 -3.06937 2.9324 0
M  V30 5120 C 470.519 -2.71635 5.25327 0
M  V30 5121 H 469.449 -0.478329 0.582853 0
M  V30 5122 H 472.1 -0.547916 1.75129 0
M  V30 5123 H 470.482 -3.06274 2.51023 0
M  V30 5124 H 471.656 -1.00658 4.49672 0
M  V30 5125 H 469.971 -1.06331 4.02595 0
M  V30 5126 H 472.568 -3.82905 3.73213 0
M  V30 5127 H 472.911 -3.63409 2.03075 0
M  V30 5128 H 473.444 -2.38589 3.18308 0
M  V30 5129 H 470.183 -2.1997 6.1749 0
M  V30 5130 H 469.703 -3.39275 4.94624 0
M  V30 5131 H 471.382 -3.34429 5.53865 0
M  V30 5132 N 471.514 -1.37532 -0.769588 0
M  V30 5133 C 472.424 -1.35668 -1.91393 0
M  V30 5134 C 473.44 -0.255954 -1.72107 0
M  V30 5135 O 474.616 -0.491704 -1.95305 0
M  V30 5136 C 471.681 -1.16481 -3.26547 0
M  V30 5137 C 470.742 -2.36212 -3.58472 0
M  V30 5138 C 469.975 -2.17932 -4.87177 0
M  V30 5139 O 470.198 -1.1647 -5.58382 0
M  V30 5140 O 469.132 -3.06167 -5.18214 0
M  V30 5141 H 472.958 -2.32055 -1.95918 0
M  V30 5142 H 470.543 -1.18284 -0.912641 0
M  V30 5143 H 472.425 -1.07778 -4.07384 0
M  V30 5144 H 471.1 -0.231687 -3.2287 0
M  V30 5145 H 470.007 -2.50488 -2.77861 0
M  V30 5146 H 471.34 -3.281 -3.66894 0
M  V30 5147 N 472.992 0.995999 -1.22138 0
M  V30 5148 C 474.22 1.77066 -1.07029 0
M  V30 5149 C 474.635 1.8495 0.379357 0
M  V30 5150 O 473.992 1.3174 1.26297 0
M  V30 5151 C 474.043 3.20533 -1.67155 0
M  V30 5152 O 473.764 3.13082 -3.06449 0
M  V30 5153 C 475.265 4.14461 -1.5728 0
M  V30 5154 H 472.485 0.556179 -0.375374 0
M  V30 5155 H 475.029 1.25238 -1.61666 0
M  V30 5156 H 473.184 3.6944 -1.16589 0
M  V30 5157 H 473.598 4.03283 -3.35355 0
M  V30 5158 H 475.072 5.1289 -2.04078 0
M  V30 5159 H 475.549 4.36005 -0.528795 0
M  V30 5160 H 476.155 3.71449 -2.07136 0
M  V30 5161 N 474.47 1.03057 1.19235 0
M  V30 5162 C 475.433 0.617418 2.20727 0
M  V30 5163 C 476.433 -0.319856 1.57587 0
M  V30 5164 O 477.623 -0.106633 1.73873 0
M  V30 5165 C 474.755 -0.096296 3.40764 0
M  V30 5166 H 475.948 1.51544 2.58794 0
M  V30 5167 H 473.501 0.821949 1.32942 0
M  V30 5168 H 474.236 -1.00859 3.08217 0
M  V30 5169 H 474.021 0.577217 3.87828 0
M  V30 5170 H 475.511 -0.372219 4.15938 0
M  V30 5171 N 475.948 -1.35272 0.808662 0
M  V30 5172 C 476.878 -2.32315 0.234981 0
M  V30 5173 C 477.859 -1.57572 -0.64071 0
M  V30 5174 O 479.044 -1.8563 -0.570551 0
M  V30 5175 C 476.174 -3.41801 -0.615601 0
M  V30 5176 C 475.128 -4.27694 0.161767 0
M  V30 5177 C 474.454 -5.28519 -0.810649 0
M  V30 5178 C 475.754 -5.04231 1.36193 0
M  V30 5179 H 477.448 -2.80543 1.04575 0
M  V30 5180 H 474.994 -1.3488 0.504315 0
M  V30 5181 H 476.947 -4.08693 -1.02702 0
M  V30 5182 H 475.671 -2.92186 -1.45928 0
M  V30 5183 H 474.33 -3.62384 0.554382 0
M  V30 5184 H 473.978 -4.75171 -1.64988 0
M  V30 5185 H 473.678 -5.8686 -0.294822 0
M  V30 5186 H 475.202 -5.98283 -1.22023 0
M  V30 5187 H 476.616 -5.64058 1.02528 0
M  V30 5188 H 475.013 -5.72077 1.81239 0
M  V30 5189 H 476.083 -4.34753 2.14751 0
M  V30 5190 N 477.426 -0.562348 -1.47226 0
M  V30 5191 C 478.656 -0.0451619 -2.06551 0
M  V30 5192 C 479.064 1.25626 -1.41473 0
M  V30 5193 O 478.407 1.76563 -0.507061 0
M  V30 5194 C 478.469 0.216068 -3.5885 0
M  V30 5195 C 478.133 -0.996691 -4.45999 0
M  V30 5196 C 479.13 -1.90358 -4.83797 0
M  V30 5197 C 476.815 -1.21281 -4.87438 0
M  V30 5198 C 478.809 -3.01023 -5.6184 0
M  V30 5199 C 476.496 -2.32255 -5.65244 0
M  V30 5200 C 477.494 -3.21956 -6.02356 0
M  V30 5201 O 477.182 -4.31005 -6.78594 0
M  V30 5202 H 476.914 -0.0451646 -0.67449 0
M  V30 5203 H 479.468 -0.776842 -1.90143 0
M  V30 5204 H 477.698 1.00212 -3.7349 0
M  V30 5205 H 479.387 0.679264 -4.00176 0
M  V30 5206 H 480.153 -1.74868 -4.52378 0
M  V30 5207 H 476.032 -0.523767 -4.58015 0
M  V30 5208 H 479.576 -3.71064 -5.90726 0
M  V30 5209 H 475.473 -2.47715 -5.96077 0
M  V30 5210 H 476.241 -4.29118 -6.96994 0
M  V30 5211 N 478.904 1.54736 -0.299062 0
M  V30 5212 C 480.315 1.8569 0.193971 0
M  V30 5213 C 480.666 1.22101 1.53577 0
M  V30 5214 O 479.791 0.51799 2.10109 0
M  V30 5215 C 480.386 3.36895 0.358733 0
M  V30 5216 C 478.945 3.67887 0.795986 0
M  V30 5217 C 478.092 2.77131 -0.096807 0
M  V30 5218 H 481.043 1.49934 -0.520134 0
M  V30 5219 H 481.064 3.61294 1.19361 0
M  V30 5220 H 480.576 3.83148 -0.617998 0
M  V30 5221 H 478.677 3.27151 1.78334 0
M  V30 5222 H 478.79 4.75114 0.616718 0
M  V30 5223 H 477.154 2.51153 0.423581 0
M  V30 5224 H 477.937 3.26204 -1.06986 0
M  V30 5225 N 480.382 0.0267497 1.57577 0
M  V30 5226 C 481.63 -0.651116 1.91324 0
M  V30 5227 C 481.951 -1.72804 0.90353 0
M  V30 5228 O 481.221 -1.95822 -0.0552946 0
M  V30 5229 H 479.801 -0.243491 0.706202 0
M  V30 5230 H 482.463 0.0739935 1.94759 0
M  V30 5231 H 481.559 -1.10536 2.9187 0
M  V30 5232 N 481.861 -1.55662 -0.24637 0
M  V30 5233 C 483.086 -1.81914 -0.996093 0
M  V30 5234 C 483.511 -0.603875 -1.78143 0
M  V30 5235 O 482.869 0.447091 -1.75701 0
M  V30 5236 C 482.917 -3.05908 -1.90925 0
M  V30 5237 O 482.021 -2.82861 -3.00105 0
M  V30 5238 H 481.362 -0.600481 -0.283406 0
M  V30 5239 H 483.892 -2.02848 -0.267199 0
M  V30 5240 H 483.902 -3.35356 -2.3238 0
M  V30 5241 H 482.577 -3.93999 -1.33183 0
M  V30 5242 H 481.154 -2.64583 -2.62775 0
M  V30 5243 N 483.339 0.512053 -1.4905 0
M  V30 5244 C 484.588 1.26343 -1.57227 0
M  V30 5245 C 484.901 1.93876 -0.259155 0
M  V30 5246 O 486.107 2.70612 -0.219358 0
M  V30 5247 C 484.563 2.29343 -2.77362 0
M  V30 5248 C 484.171 1.67799 -4.15388 0
M  V30 5249 C 485.915 3.05378 -2.94864 0
M  V30 5250 C 483.822 2.68845 -5.2676 0
M  V30 5251 H 482.752 0.475231 -0.585382 0
M  V30 5252 H 485.403 0.53862 -1.75417 0
M  V30 5253 H 483.785 3.04938 -2.52643 0
M  V30 5254 H 484.959 0.982715 -4.50199 0
M  V30 5255 H 483.274 1.04194 -4.03153 0
M  V30 5256 H 485.871 3.80921 -3.75238 0
M  V30 5257 H 486.214 3.62327 -2.05 0
M  V30 5258 H 486.747 2.36898 -3.19569 0
M  V30 5259 H 483.486 2.16692 -6.18647 0
M  V30 5260 H 483.006 3.36647 -4.96416 0
M  V30 5261 H 484.685 3.31487 -5.5563 0
M  V30 5262 N 484.817 1.37938 0.762283 0
M  V30 5263 C 485.727 1.36681 1.90671 0
M  V30 5264 C 486.743 0.265078 1.71969 0
M  V30 5265 O 487.919 0.502055 1.95042 0
M  V30 5266 C 484.984 1.18211 3.25925 0
M  V30 5267 C 484.045 2.3811 3.57214 0
M  V30 5268 C 483.278 2.20512 4.86014 0
M  V30 5269 O 483.501 1.19429 5.57757 0
M  V30 5270 O 482.435 3.08911 5.16583 0
M  V30 5271 H 486.261 2.33091 1.94685 0
M  V30 5272 H 483.846 1.18767 0.906356 0
M  V30 5273 H 485.728 1.09937 4.06807 0
M  V30 5274 H 484.403 0.248807 3.22742 0
M  V30 5275 H 483.31 2.51958 2.76529 0
M  V30 5276 H 484.643 3.30041 3.65149 0
M  V30 5277 N 486.295 -0.989507 1.22664 0
M  V30 5278 C 487.541 -1.7321 1.05481 0
M  V30 5279 C 487.874 -1.89852 -0.408635 0
M  V30 5280 O 487.149 -1.44416 -1.30285 0
M  V30 5281 C 487.432 -3.1357 1.77047 0
M  V30 5282 C 487.285 -3.04555 3.31008 0
M  V30 5283 C 488.604 -4.12812 1.5256 0
M  V30 5284 H 485.723 -0.628697 0.384589 0
M  V30 5285 H 488.365 -1.15258 1.51049 0
M  V30 5286 H 486.515 -3.63046 1.3831 0
M  V30 5287 H 488.187 -2.62674 3.7921 0
M  V30 5288 H 486.43 -2.41278 3.6051 0
M  V30 5289 H 487.101 -4.03894 3.76263 0
M  V30 5290 H 489.577 -3.72106 1.86215 0
M  V30 5291 H 488.453 -5.09132 2.05124 0
M  V30 5292 H 488.714 -4.39711 0.458936 0
M  V30 5293 N 487.773 -1.03688 -1.18687 0
M  V30 5294 C 488.72 -0.624624 -2.22187 0
M  V30 5295 C 489.69 0.365636 -1.62026 0
M  V30 5296 O 490.875 0.260481 -1.89014 0
M  V30 5297 C 488.015 0.0101738 -3.45099 0
M  V30 5298 C 487.128 -1.02709 -4.19613 0
M  V30 5299 C 486.263 -0.361213 -5.2997 0
M  V30 5300 C 485.302 -1.38384 -5.96252 0
M  V30 5301 N 484.439 -0.743196 -6.98155 0
M  V30 5302 H 489.279 -1.51176 -2.56807 0
M  V30 5303 H 486.816 -0.75636 -1.26165 0
M  V30 5304 H 488.774 0.395528 -4.15321 0
M  V30 5305 H 487.404 0.860848 -3.1111 0
M  V30 5306 H 486.456 -1.53043 -3.48256 0
M  V30 5307 H 487.768 -1.80398 -4.65036 0
M  V30 5308 H 486.922 0.0785537 -6.06649 0
M  V30 5309 H 485.661 0.447799 -4.8564 0
M  V30 5310 H 484.666 -1.83378 -5.18317 0
M  V30 5311 H 485.891 -2.19448 -6.42666 0
M  V30 5312 H 483.837 0.0455789 -6.55984 0
M  V30 5313 H 483.754 -1.45784 -7.41811 0
M  V30 5314 H 485.022 -0.327698 -7.78811 0
M  V30 5315 N 489.251 1.34841 -0.815825 0
M  V30 5316 C 490.184 2.27504 -0.178062 0
M  V30 5317 C 491.162 1.48542 0.661373 0
M  V30 5318 O 492.346 1.77779 0.626653 0
M  V30 5319 C 489.473 3.30246 0.752002 0
M  V30 5320 C 488.519 4.26499 -0.00899172 0
M  V30 5321 S 489.352 5.18169 -1.35134 0
M  V30 5322 C 490.508 6.24449 -0.42596 0
M  V30 5323 H 490.741 2.81248 -0.963684 0
M  V30 5324 H 488.274 1.41781 -0.611355 0
M  V30 5325 H 490.232 3.89933 1.28308 0
M  V30 5326 H 488.893 2.75363 1.51109 0
M  V30 5327 H 488.086 4.99146 0.697766 0
M  V30 5328 H 487.688 3.7103 -0.470396 0
M  V30 5329 H 489.98 6.76404 0.385234 0
M  V30 5330 H 490.923 6.99156 -1.1219 0
M  V30 5331 H 491.331 5.64497 -0.0175461 0
M  V30 5332 N 490.729 0.570148 1.46925 0
M  V30 5333 C 491.679 -0.190921 2.27199 0
M  V30 5334 C 492.663 -0.873457 1.35128 0
M  V30 5335 O 493.855 -0.769627 1.59392 0
M  V30 5336 C 490.984 -1.21204 3.21192 0
M  V30 5337 C 490.07 -0.532261 4.20747 0
M  V30 5338 N 490.461 0.405038 5.04176 0
M  V30 5339 C 488.759 -0.784582 4.39045 0
M  V30 5340 C 489.46 0.801149 5.76157 0
M  V30 5341 N 488.436 0.153082 5.43384 0
M  V30 5342 H 492.238 0.529535 2.8909 0
M  V30 5343 H 489.752 0.391019 1.57622 0
M  V30 5344 H 491.749 -1.77135 3.77398 0
M  V30 5345 H 490.409 -1.93345 2.6086 0
M  V30 5346 H 491.42 0.779903 5.11994 0
M  V30 5347 H 488.097 -1.49352 3.89872 0
M  V30 5348 H 489.487 1.57208 6.5325 0
M  V30 5349 N 492.207 -1.54576 0.307264 0
M  V30 5350 C 493.618 -1.8579 -0.184121 0
M  V30 5351 C 493.969 -1.22914 -1.52927 0
M  V30 5352 O 493.094 -0.529126 -2.09831 0
M  V30 5353 C 493.689 -3.37081 -0.340862 0
M  V30 5354 C 492.248 -3.68304 -0.776465 0
M  V30 5355 C 491.395 -2.77076 0.111503 0
M  V30 5356 H 494.346 -1.49656 0.528078 0
M  V30 5357 H 494.367 -3.61922 -1.17443 0
M  V30 5358 H 493.879 -3.82815 0.638309 0
M  V30 5359 H 491.98 -3.28092 -1.76596 0
M  V30 5360 H 492.093 -4.75434 -0.591512 0
M  V30 5361 H 490.457 -2.51374 -0.410256 0
M  V30 5362 H 491.24 -3.25632 1.08714 0
M  V30 5363 N 493.685 -0.035106 -1.57561 0
M  V30 5364 C 494.615 0.942993 -2.13612 0
M  V30 5365 C 495.596 1.33531 -1.05373 0
M  V30 5366 O 496.781 1.41287 -1.33235 0
M  V30 5367 C 493.911 2.22332 -2.66807 0
M  V30 5368 C 492.865 1.97156 -3.79886 0
M  V30 5369 C 492.191 3.31506 -4.19533 0
M  V30 5370 C 493.491 1.30596 -5.05709 0
M  V30 5371 H 495.185 0.476179 -2.95589 0
M  V30 5372 H 492.731 0.227602 -1.4219 0
M  V30 5373 H 494.684 2.91142 -3.04654 0
M  V30 5374 H 493.408 2.7119 -1.81999 0
M  V30 5375 H 492.067 1.30763 -3.42486 0
M  V30 5376 H 491.715 3.78134 -3.31698 0
M  V30 5377 H 491.415 3.15465 -4.95738 0
M  V30 5378 H 492.939 4.01574 -4.59968 0
M  V30 5379 H 494.353 1.89416 -5.41105 0
M  V30 5380 H 492.75 1.24934 -5.86951 0
M  V30 5381 H 493.82 0.279742 -4.84092 0
M  V30 5382 N 495.163 1.55791 0.238111 0
M  V30 5383 C 496.388 1.8244 0.986432 0
M  V30 5384 C 496.813 0.613314 1.7782 0
M  V30 5385 O 496.171 -0.437767 1.75935 0
M  V30 5386 C 496.219 3.06917 1.893 0
M  V30 5387 O 495.323 2.84449 2.98601 0
M  V30 5388 H 494.664 0.601975 0.280218 0
M  V30 5389 H 497.194 2.02987 0.256437 0
M  V30 5390 H 497.204 3.36583 2.30598 0
M  V30 5391 H 495.879 3.947 1.31091 0
M  V30 5392 H 494.456 2.65972 2.61368 0
M  V30 5393 N 496.642 -0.504142 1.49319 0
M  V30 5394 C 497.891 -1.25507 1.57895 0
M  V30 5395 C 498.204 -1.93735 0.269433 0
M  V30 5396 O 499.41 -2.70492 0.233706 0
M  V30 5397 C 497.866 -2.27869 2.78574 0
M  V30 5398 C 497.474 -1.65594 4.16272 0
M  V30 5399 C 499.218 -3.0381 2.96479 0
M  V30 5400 C 497.125 -2.66048 5.28178 0
M  V30 5401 H 496.055 -0.47212 0.587894 0
M  V30 5402 H 498.706 -0.52931 1.757 0
M  V30 5403 H 497.088 -3.03594 2.54257 0
M  V30 5404 H 498.262 -0.958826 4.50714 0
M  V30 5405 H 496.577 -1.02055 4.037 0
M  V30 5406 H 499.174 -3.78925 3.77253 0
M  V30 5407 H 499.517 -3.61235 2.06918 0
M  V30 5408 H 500.05 -2.352 3.20821 0
M  V30 5409 H 496.789 -2.13408 6.19788 0
M  V30 5410 H 496.309 -3.34009 4.98195 0
M  V30 5411 H 497.988 -3.28536 5.57381 0
M  V30 5412 N 498.12 -1.38341 -0.754957 0
M  V30 5413 C 499.067 -1.3546 -1.86867 0
M  V30 5414 C 500.037 -0.217369 -1.64672 0
M  V30 5415 O 501.222 -0.409383 -1.86356 0
M  V30 5416 C 498.362 -1.18413 -3.24149 0
M  V30 5417 C 497.475 -2.41511 -3.58185 0
M  V30 5418 C 496.61 -2.17205 -4.84763 0
M  V30 5419 C 495.649 -3.36081 -5.11582 0
M  V30 5420 N 494.786 -3.11219 -6.29354 0
M  V30 5421 H 499.626 -2.30672 -1.88664 0
M  V30 5422 H 497.163 -1.14607 -0.922154 0
M  V30 5423 H 499.121 -1.06545 -4.03366 0
M  V30 5424 H 497.751 -0.268397 -3.21682 0
M  V30 5425 H 496.803 -2.64056 -2.73822 0
M  V30 5426 H 498.115 -3.30115 -3.73932 0
M  V30 5427 H 497.269 -2.02465 -5.7192 0
M  V30 5428 H 496.008 -1.25964 -4.71152 0
M  V30 5429 H 495.013 -3.51341 -4.22894 0
M  V30 5430 H 496.238 -4.28196 -5.27091 0
M  V30 5431 H 494.184 -2.22624 -6.17069 0
M  V30 5432 H 494.101 -3.93373 -6.45596 0
M  V30 5433 H 495.369 -3.00132 -7.19403 0
M  V30 5434 N 499.598 0.982988 -1.23187 0
M  V30 5435 C 501.014 1.2487 -0.993967 0
M  V30 5436 C 501.214 1.99155 0.306498 0
M  V30 5437 O 500.27 2.30688 1.0266 0
M  V30 5438 C 501.583 2.05078 -2.19917 0
M  V30 5439 C 503.131 2.18227 -2.2438 0
M  V30 5440 C 503.606 3.01825 -3.44479 0
M  V30 5441 N 505.097 3.09411 -3.44702 0
M  V30 5442 C 505.832 3.74412 -4.34285 0
M  V30 5443 N 505.328 4.41259 -5.341 0
M  V30 5444 N 507.121 3.71273 -4.22035 0
M  V30 5445 H 499.272 0.485253 -2.06783 0
M  V30 5446 H 501.535 0.276979 -0.906635 0
M  V30 5447 H 501.241 1.57867 -3.14279 0
M  V30 5448 H 501.115 3.05829 -2.2079 0
M  V30 5449 H 503.502 2.64648 -1.30559 0
M  V30 5450 H 503.583 1.16873 -2.2754 0
M  V30 5451 H 503.227 2.56102 -4.38605 0
M  V30 5452 H 503.157 4.03342 -3.38559 0
M  V30 5453 H 505.648 2.61845 -2.7248 0
M  V30 5454 H 505.961 4.88629 -5.98717 0
M  V30 5455 H 504.306 4.39975 -5.38002 0
M  V30 5456 H 507.497 3.18217 -3.43301 0
M  V30 5457 H 507.67 4.21649 -4.92053 0
M  V30 5458 N 501.076 1.04316 1.18135 0
M  V30 5459 C 502.039 0.640794 2.2006 0
M  V30 5460 C 503.039 -0.303124 1.57917 0
M  V30 5461 O 504.229 -0.0881855 1.73977 0
M  V30 5462 C 501.361 -0.060148 3.40847 0
M  V30 5463 H 502.554 1.54281 2.57172 0
M  V30 5464 H 500.107 0.836004 1.32063 0
M  V30 5465 H 500.842 -0.975845 3.0927 0
M  V30 5466 H 500.627 0.618319 3.87194 0
M  V30 5467 H 502.117 -0.328082 4.16309 0
M  V30 5468 N 502.554 -1.34406 0.822964 0
M  V30 5469 C 503.8 -1.98578 0.411666 0
M  V30 5470 C 504.133 -1.65093 -1.02264 0
M  V30 5471 O 503.408 -0.92258 -1.71227 0
M  V30 5472 C 503.691 -3.54823 0.614235 0
M  V30 5473 C 503.544 -3.9805 2.09466 0
M  V30 5474 C 504.863 -4.40071 0.050221 0
M  V30 5475 H 501.982 -0.721355 0.151047 0
M  V30 5476 H 504.624 -1.59301 1.03554 0
M  V30 5477 H 502.774 -3.88411 0.0831774 0
M  V30 5478 H 504.446 -3.74795 2.68936 0
M  V30 5479 H 502.689 -3.4836 2.5851 0
M  V30 5480 H 503.36 -5.06819 2.18721 0
M  V30 5481 H 505.836 -4.13037 0.503953 0
M  V30 5482 H 504.712 -5.48452 0.221759 0
M  V30 5483 H 504.973 -4.29576 -1.04482 0
M  V30 5484 N 504.032 -0.577932 -1.46621 0
M  V30 5485 C 504.995 0.147805 -2.28723 0
M  V30 5486 C 505.995 0.823325 -1.38123 0
M  V30 5487 O 507.185 0.676011 -1.60548 0
M  V30 5488 C 504.317 1.21853 -3.18378 0
M  V30 5489 H 505.51 -0.573654 -2.94362 0
M  V30 5490 H 503.063 -0.335703 -1.52652 0
M  V30 5491 H 503.798 1.97173 -2.57475 0
M  V30 5492 H 503.583 0.738714 -3.85078 0
M  V30 5493 H 505.073 1.72768 -3.80186 0
M  V30 5494 N 505.51 1.54411 -0.315457 0
M  V30 5495 C 506.458 2.25514 0.569771 0
M  V30 5496 C 507.452 1.2663 1.12522 0
M  V30 5497 O 508.658 1.44434 1.07419 0
M  V30 5498 H 505.033 0.724257 0.202376 0
M  V30 5499 H 507.004 2.98354 -0.0522895 0
M  V30 5500 C 505.753 3.02004 1.72305 0
M  V30 5501 H 505.076 3.77906 1.30488 0
M  V30 5502 H 506.516 3.55014 2.31821 0
M  V30 5503 C 504.975 2.09822 2.63583 0
M  V30 5504 O 505.505 1.67574 3.65078 0
M  V30 5505 N 503.711 1.75478 2.31637 0
M  V30 5506 H 503.258 2.10032 1.49145 0
M  V30 5507 H 503.216 1.14079 2.92973 0
M  V30 5508 N 506.988 0.0434614 1.5754 0
M  V30 5509 C 507.921 -0.968729 2.06618 0
M  V30 5510 C 508.899 -1.30868 0.965 0
M  V30 5511 O 510.083 -1.42288 1.23638 0
M  V30 5512 C 507.21 -2.28486 2.50023 0
M  V30 5513 C 506.256 -2.09851 3.71302 0
M  V30 5514 S 507.089 -1.38401 5.17306 0
M  V30 5515 C 508.245 -2.71354 5.64019 0
M  V30 5516 H 508.478 -0.551021 2.92149 0
M  V30 5517 H 506.011 -0.168607 1.53477 0
M  V30 5518 H 507.969 -3.04142 2.75695 0
M  V30 5519 H 506.63 -2.67387 1.64812 0
M  V30 5520 H 505.823 -3.07184 3.99567 0
M  V30 5521 H 505.425 -1.42336 3.45856 0
M  V30 5522 H 507.717 -3.67549 5.69134 0
M  V30 5523 H 508.66 -2.47734 6.6335 0
M  V30 5524 H 509.068 -2.77259 4.91719 0
M  V30 5525 N 508.466 -1.55915 -0.229846 0
M  V30 5526 C 509.712 -1.78807 -0.956868 0
M  V30 5527 C 510.045 -0.611687 -1.84315 0
M  V30 5528 O 509.32 0.389398 -1.90562 0
M  V30 5529 C 509.603 -3.11718 -1.80288 0
M  V30 5530 C 509.456 -4.3979 -0.943649 0
M  V30 5531 C 510.775 -3.40999 -2.78222 0
M  V30 5532 H 507.894 -0.6505 -0.346437 0
M  V30 5533 H 510.536 -1.88648 -0.226252 0
M  V30 5534 H 508.686 -3.03459 -2.42579 0
M  V30 5535 H 510.358 -4.60059 -0.338121 0
M  V30 5536 H 508.601 -4.33086 -0.248705 0
M  V30 5537 H 509.272 -5.29208 -1.5698 0
M  V30 5538 H 511.748 -3.49332 -2.26067 0
M  V30 5539 H 510.624 -4.35183 -3.34526 0
M  V30 5540 H 510.885 -2.62754 -3.55546 0
M  V30 5541 N 509.944 0.496216 -1.49584 0
M  V30 5542 C 511.19 1.25189 -1.59548 0
M  V30 5543 C 511.523 1.9212 -0.283466 0
M  V30 5544 O 510.798 1.80947 0.713324 0
M  V30 5545 C 511.081 2.31516 -2.75812 0
M  V30 5546 C 510.934 1.69054 -4.16822 0
M  V30 5547 C 512.253 3.3304 -2.87702 0
M  V30 5548 H 509.372 0.45379 -0.580727 0
M  V30 5549 H 512.014 0.549327 -1.81886 0
M  V30 5550 H 510.164 2.91438 -2.56897 0
M  V30 5551 H 511.836 1.12923 -4.47265 0
M  V30 5552 H 510.079 0.994485 -4.22247 0
M  V30 5553 H 510.75 2.462 -4.94054 0
M  V30 5554 H 513.226 2.83114 -3.04936 0
M  V30 5555 H 512.102 4.04794 -3.7072 0
M  V30 5556 H 512.363 3.95655 -1.97255 0
M  V30 5557 N 511.423 1.38739 0.74761 0
M  V30 5558 C 512.371 1.36573 1.88283 0
M  V30 5559 C 513.365 0.250712 1.67534 0
M  V30 5560 O 514.571 0.420073 1.7503 0
M  V30 5561 H 510.946 0.42619 0.619569 0
M  V30 5562 H 512.917 2.32356 1.87226 0
M  V30 5563 C 511.666 1.21361 3.25832 0
M  V30 5564 H 510.989 2.06424 3.42388 0
M  V30 5565 H 512.429 1.23901 4.05493 0
M  V30 5566 C 510.888 -0.0790099 3.36807 0
M  V30 5567 O 511.418 -1.05385 3.8763 0
M  V30 5568 N 509.624 -0.13785 2.90273 0
M  V30 5569 H 509.171 0.656128 2.49104 0
M  V30 5570 H 509.129 -1.00228 2.97996 0
M  V30 5571 N 512.901 -0.976442 1.23707 0
M  V30 5572 C 513.864 -2.0511 1.02287 0
M  V30 5573 C 514.864 -1.60791 -0.0167195 0
M  V30 5574 O 516.054 -1.72761 0.223408 0
M  V30 5575 C 513.186 -3.36458 0.548507 0
M  V30 5576 H 514.379 -2.25545 1.9766 0
M  V30 5577 H 511.932 -1.15042 1.05806 0
M  V30 5578 H 512.667 -3.21713 -0.408818 0
M  V30 5579 H 512.452 -3.69967 1.29874 0
M  V30 5580 H 513.942 -4.15489 0.419406 0
M  V30 5581 N 514.379 -1.04941 -1.1758 0
M  V30 5582 C 515.342 -0.652456 -2.19717 0
M  V30 5583 C 516.342 0.294745 -1.58076 0
M  V30 5584 O 517.532 0.0789579 -1.74021 0
M  V30 5585 C 514.664 0.0420712 -3.40874 0
M  V30 5586 H 515.857 -1.55642 -2.5635 0
M  V30 5587 H 513.41 -0.842995 -1.31618 0
M  V30 5588 H 514.145 0.95943 -3.09783 0
M  V30 5589 H 513.93 -0.638844 -3.86861 0
M  V30 5590 H 515.42 0.306 -4.16477 0
M  V30 5591 N 515.857 1.33968 -0.830081 0
M  V30 5592 C 517.273 1.51003 -0.516742 0
M  V30 5593 C 517.473 1.77286 0.957694 0
M  V30 5594 O 516.529 1.82797 1.74188 0
M  V30 5595 C 517.842 2.67036 -1.38247 0
M  V30 5596 C 519.39 2.80919 -1.38034 0
M  V30 5597 C 519.865 4.00004 -2.23071 0
M  V30 5598 N 521.356 4.07224 -2.20733 0
M  V30 5599 C 522.091 4.98541 -2.83275 0
M  V30 5600 N 521.587 5.95033 -3.54835 0
M  V30 5601 N 523.38 4.91469 -2.72791 0
M  V30 5602 H 515.531 1.15168 -1.78466 0
M  V30 5603 H 517.794 0.565443 -0.760906 0
M  V30 5604 H 517.5 2.54266 -2.42985 0
M  V30 5605 H 517.374 3.62226 -1.05225 0
M  V30 5606 H 519.761 2.93127 -0.340713 0
M  V30 5607 H 519.842 1.86517 -1.75057 0
M  V30 5608 H 519.486 3.88557 -3.27087 0
M  V30 5609 H 519.416 4.93634 -1.83394 0
M  V30 5610 H 521.907 3.38162 -1.68687 0
M  V30 5611 H 522.22 6.61357 -3.99784 0
M  V30 5612 H 520.565 5.95135 -3.58942 0
M  V30 5613 H 523.756 4.15048 -2.16456 0
M  V30 5614 H 523.929 5.62439 -3.21818 0
M  V30 5615 N 517.335 0.585699 1.46312 0
M  V30 5616 C 518.565 0.0780166 2.06453 0
M  V30 5617 C 518.973 -1.2336 1.43454 0
M  V30 5618 O 518.316 -1.75734 0.535086 0
M  V30 5619 C 518.378 -0.158951 3.59148 0
M  V30 5620 C 518.042 1.06752 4.44357 0
M  V30 5621 C 519.039 1.98031 4.80708 0
M  V30 5622 C 516.724 1.2902 4.85447 0
M  V30 5623 C 518.718 3.09924 5.5698 0
M  V30 5624 C 516.405 2.41218 5.61478 0
M  V30 5625 C 517.403 3.31499 5.97158 0
M  V30 5626 O 517.091 4.41747 6.71651 0
M  V30 5627 H 516.823 0.0558894 0.673686 0
M  V30 5628 H 519.377 0.806994 1.88883 0
M  V30 5629 H 517.607 -0.942575 3.75037 0
M  V30 5630 H 519.296 -0.615513 4.01206 0
M  V30 5631 H 520.062 1.82043 4.49539 0
M  V30 5632 H 515.941 0.596567 4.57124 0
M  V30 5633 H 519.485 3.80415 5.84748 0
M  V30 5634 H 515.382 2.57167 5.9206 0
M  V30 5635 H 516.15 4.40152 6.90079 0
M  V30 5636 N 518.813 -1.54241 0.323641 0
M  V30 5637 C 520.061 -2.00174 -0.278359 0
M  V30 5638 C 520.382 -1.2134 -1.52648 0
M  V30 5639 O 519.652 -0.315244 -1.93347 0
M  V30 5640 H 518.232 -0.739463 -0.105845 0
M  V30 5641 H 520.894 -1.89864 0.440204 0
M  V30 5642 H 519.99 -3.07486 -0.5347 0
M  V30 5643 N 520.291 -0.0518155 -1.57515 0
M  V30 5644 C 521.239 0.940195 -2.12751 0
M  V30 5645 C 522.233 1.3218 -1.05948 0
M  V30 5646 O 523.439 1.30138 -1.24355 0
M  V30 5647 H 519.814 0.321066 -0.680015 0
M  V30 5648 H 521.785 0.449217 -2.94999 0
M  V30 5649 C 520.534 2.2055 -2.68799 0
M  V30 5650 H 519.857 1.92066 -3.50643 0
M  V30 5651 H 521.297 2.88119 -3.11068 0
M  V30 5652 C 519.756 2.95061 -1.62605 0
M  V30 5653 O 520.286 3.88025 -1.03921 0
M  V30 5654 N 518.492 2.57804 -1.34111 0
M  V30 5655 H 518.039 1.82281 -1.8202 0
M  V30 5656 H 517.997 3.07964 -0.632872 0
M  V30 5657 N 521.769 1.56035 0.221574 0
M  V30 5658 C 523.017 1.78693 0.944102 0
M  V30 5659 C 523.338 0.620317 1.8487 0
M  V30 5660 O 522.608 -0.362784 1.92512 0
M  V30 5661 H 521.188 0.659082 0.351597 0
M  V30 5662 H 523.85 1.93497 0.233435 0
M  V30 5663 H 522.946 2.70837 1.55093 0
M  V30 5664 N 523.247 -0.488276 1.49845 0
M  V30 5665 C 524.493 -1.24065 1.61182 0
M  V30 5666 C 524.848 -1.9004 0.300435 0
M  V30 5667 O 524.141 -1.78341 -0.700365 0
M  V30 5668 C 524.335 -2.32152 2.71735 0
M  V30 5669 C 524.164 -1.76778 4.13497 0
M  V30 5670 C 522.934 -1.57513 4.80123 0
M  V30 5671 C 525.132 -1.27242 4.98311 0
M  V30 5672 N 523.114 -0.972015 6.06156 0
M  V30 5673 C 524.485 -0.791457 6.14928 0
M  V30 5674 C 526.54 -1.15934 4.84214 0
M  V30 5675 C 525.243 -0.208593 7.18997 0
M  V30 5676 C 527.269 -0.590436 5.88445 0
M  V30 5677 C 526.631 -0.119767 7.04298 0
M  V30 5678 H 522.73 -0.443487 0.644083 0
M  V30 5679 H 525.314 -0.545551 1.86901 0
M  V30 5680 H 523.485 -2.99108 2.47768 0
M  V30 5681 H 525.217 -2.99187 2.72523 0
M  V30 5682 H 521.972 -1.82247 4.37131 0
M  V30 5683 H 522.396 -0.689367 6.73481 0
M  V30 5684 H 527.038 -1.5092 3.94947 0
M  V30 5685 H 524.756 0.153501 8.07954 0
M  V30 5686 H 528.342 -0.505548 5.79599 0
M  V30 5687 H 527.222 0.313568 7.83573 0
M  V30 5688 N 524.725 -1.39134 -0.740242 0
M  V30 5689 C 525.974 -1.35384 -1.49512 0
M  V30 5690 C 526.287 0.04919 -1.95538 0
M  V30 5691 O 527.493 0.209257 -2.70692 0
M  V30 5692 C 525.949 -2.37812 -2.70136 0
M  V30 5693 C 525.557 -3.83804 -2.31081 0
M  V30 5694 C 527.301 -2.4313 -3.47977 0
M  V30 5695 C 525.208 -4.77886 -3.48395 0
M  V30 5696 H 524.138 -0.503297 -0.561434 0
M  V30 5697 H 526.789 -1.64754 -0.807974 0
M  V30 5698 H 525.171 -2.01505 -3.40899 0
M  V30 5699 H 526.345 -4.29123 -1.67898 0
M  V30 5700 H 524.66 -3.81732 -1.66343 0
M  V30 5701 H 527.257 -3.10614 -4.35228 0
M  V30 5702 H 527.6 -1.45423 -3.90074 0
M  V30 5703 H 528.133 -2.78304 -2.84239 0
M  V30 5704 H 524.872 -5.76836 -3.11353 0
M  V30 5705 H 524.392 -4.3725 -4.10576 0
M  V30 5706 H 526.071 -4.96538 -4.148 0
M  V30 5707 N 526.204 0.969867 -1.24223 0
M  V30 5708 C 527.151 2.06407 -1.0327 0
M  V30 5709 C 528.121 1.66014 0.0533 0
M  V30 5710 O 529.306 1.90533 -0.100896 0
M  V30 5711 C 526.446 3.3909 -0.641262 0
M  V30 5712 C 525.559 3.9269 -1.80051 0
M  V30 5713 C 524.694 5.13631 -1.35486 0
M  V30 5714 C 523.733 5.59423 -2.48419 0
M  V30 5715 N 522.87 6.71586 -2.04737 0
M  V30 5716 H 527.71 2.23663 -1.96923 0
M  V30 5717 H 525.247 1.09624 -0.980862 0
M  V30 5718 H 527.205 4.15323 -0.395351 0
M  V30 5719 H 525.835 3.21765 0.258269 0
M  V30 5720 H 524.887 3.13116 -2.16014 0
M  V30 5721 H 526.199 4.22636 -2.64916 0
M  V30 5722 H 525.353 5.97231 -1.0677 0
M  V30 5723 H 524.092 4.85364 -0.476722 0
M  V30 5724 H 523.097 4.74398 -2.77897 0
M  V30 5725 H 524.322 5.89705 -3.36786 0
M  V30 5726 H 522.268 6.45058 -1.19318 0
M  V30 5727 H 522.185 7.0097 -2.83156 0
M  V30 5728 H 523.453 7.58633 -1.79154 0
M  V30 5729 N 527.682 1.05563 1.17022 0
M  V30 5730 C 528.928 0.769074 1.87652 0
M  V30 5731 C 529.261 -0.702326 1.81055 0
M  V30 5732 O 528.536 -1.5139 1.22112 0
M  V30 5733 C 528.819 1.25492 3.37526 0
M  V30 5734 C 528.672 2.78953 3.52853 0
M  V30 5735 C 529.991 0.856919 4.31677 0
M  V30 5736 H 527.11 0.280854 0.681388 0
M  V30 5737 H 529.752 1.31027 1.37593 0
M  V30 5738 H 527.902 0.794516 3.80289 0
M  V30 5739 H 529.574 3.33146 3.19079 0
M  V30 5740 H 527.817 3.18046 2.95007 0
M  V30 5741 H 528.488 3.08011 4.58076 0
M  V30 5742 H 530.964 1.25334 3.96775 0
M  V30 5743 H 529.84 1.22443 5.35069 0
M  V30 5744 H 530.101 -0.238787 4.41455 0
M  V30 5745 N 529.16 -1.33526 0.837174 0
M  V30 5746 C 530.385 -2.0258 0.444545 0
M  V30 5747 C 530.81 -1.6258 -0.946006 0
M  V30 5748 O 530.168 -0.817548 -1.6182 0
M  V30 5749 C 530.216 -3.5605 0.571006 0
M  V30 5750 O 529.32 -4.10422 -0.403431 0
M  V30 5751 H 528.661 -0.638866 0.180958 0
M  V30 5752 H 531.191 -1.70462 1.13154 0
M  V30 5753 H 531.201 -4.05488 0.452024 0
M  V30 5754 H 529.876 -3.84509 1.58512 0
M  V30 5755 H 528.453 -3.72113 -0.242147 0
M  V30 5756 N 530.638 -0.59345 -1.46 0
M  V30 5757 C 531.863 -0.0872365 -2.07216 0
M  V30 5758 C 532.288 1.2131 -1.43755 0
M  V30 5759 O 531.646 1.73528 -0.525152 0
M  V30 5760 C 531.694 0.0538197 -3.6056 0
M  V30 5761 O 530.798 1.10765 -3.97247 0
M  V30 5762 H 530.139 -0.0676598 -0.660544 0
M  V30 5763 H 532.669 -0.819445 -1.87473 0
M  V30 5764 H 532.679 0.256567 -4.07193 0
M  V30 5765 H 531.354 -0.895739 -4.0614 0
M  V30 5766 H 529.931 0.882501 -3.62307 0
M  V30 5767 N 532.116 1.54067 -0.331816 0
M  V30 5768 C 533.364 2.00319 0.267739 0
M  V30 5769 C 533.685 1.22148 1.52003 0
M  V30 5770 O 532.955 0.325494 1.93177 0
M  V30 5771 H 531.535 0.740014 0.101922 0
M  V30 5772 H 534.197 1.89628 -0.450267 0
M  V30 5773 H 533.293 3.07765 0.518385 0
M  V30 5774 N 533.594 0.0601682 1.57485 0
M  V30 5775 C 534.822 -0.620937 1.97363 0
M  V30 5776 C 535.237 -1.63846 0.938082 0
M  V30 5777 O 534.594 -1.82339 -0.0766578 0
M  V30 5778 C 534.645 -1.29987 3.37321 0
M  V30 5779 O 534.366 -0.323081 4.36907 0
M  V30 5780 C 535.867 -2.06989 3.92008 0
M  V30 5781 H 533.087 -0.169135 0.649334 0
M  V30 5782 H 535.631 0.129132 2.04092 0
M  V30 5783 H 533.786 -2.0011 3.31715 0
M  V30 5784 H 534.2 -0.808754 5.18227 0
M  V30 5785 H 535.674 -2.49901 4.92192 0
M  V30 5786 H 536.151 -2.92173 3.2792 0
M  V30 5787 H 536.757 -1.41757 4.0098 0
M  V30 5788 N 535.072 -1.5615 -0.213296 0
M  V30 5789 C 535.982 -1.96265 -1.28519 0
M  V30 5790 C 536.998 -0.86765 -1.50824 0
M  V30 5791 O 538.174 -1.17191 -1.63793 0
M  V30 5792 C 535.239 -2.27836 -2.61327 0
M  V30 5793 C 534.3 -3.50949 -2.47252 0
M  V30 5794 C 533.533 -3.81004 -3.73727 0
M  V30 5795 O 533.756 -3.12612 -4.77106 0
M  V30 5796 O 532.69 -4.74477 -3.70344 0
M  V30 5797 H 536.516 -2.87631 -0.974795 0
M  V30 5798 H 534.101 -1.43467 -0.416832 0
M  V30 5799 H 535.983 -2.49299 -3.39747 0
M  V30 5800 H 534.658 -1.39643 -2.9203 0
M  V30 5801 H 533.565 -3.34754 -1.67004 0
M  V30 5802 H 534.898 -4.39551 -2.21486 0
M  V30 5803 N 536.55 0.480323 -1.50102 0
M  V30 5804 C 537.961 1.06142 -1.53593 0
M  V30 5805 C 538.312 1.93335 -0.334055 0
M  V30 5806 O 537.437 2.09188 0.55403 0
M  V30 5807 C 538.032 1.9317 -2.78336 0
M  V30 5808 C 536.591 2.46405 -2.84538 0
M  V30 5809 C 535.738 1.24521 -2.4777 0
M  V30 5810 H 538.689 0.26333 -1.565 0
M  V30 5811 H 538.71 2.78123 -2.59669 0
M  V30 5812 H 538.222 1.29683 -3.65792 0
M  V30 5813 H 536.323 3.13472 -2.01411 0
M  V30 5814 H 536.436 2.82143 -3.87211 0
M  V30 5815 H 534.8 1.57706 -2.00003 0
M  V30 5816 H 535.583 0.627102 -3.37524 0
M  V30 5817 N 538.028 1.39524 0.732853 0
M  V30 5818 C 538.976 1.38563 1.86824 0
M  V30 5819 C 539.97 0.268467 1.67259 0
M  V30 5820 O 541.176 0.438613 1.74574 0
M  V30 5821 H 537.551 0.432737 0.615014 0
M  V30 5822 H 539.522 2.34328 1.84751 0
M  V30 5823 C 538.271 1.2481 3.24527 0
M  V30 5824 H 537.594 2.10044 3.40179 0
M  V30 5825 H 539.034 1.28194 4.04156 0
M  V30 5826 C 537.493 -0.0432825 3.36872 0
M  V30 5827 O 538.023 -1.01268 3.88726 0
M  V30 5828 N 536.229 -0.107055 2.90403 0
M  V30 5829 H 535.776 0.682512 2.48394 0
M  V30 5830 H 535.734 -0.970618 2.99042 0
M  V30 5831 N 539.506 -0.963266 1.24736 0
M  V30 5832 C 540.922 -1.23273 1.01371 0
M  V30 5833 C 541.122 -1.99618 -0.274776 0
M  V30 5834 O 540.178 -2.32293 -0.989769 0
M  V30 5835 C 541.491 -2.01554 2.23152 0
M  V30 5836 C 543.039 -2.14629 2.27823 0
M  V30 5837 C 543.514 -2.96307 3.49237 0
M  V30 5838 N 545.005 -3.03887 3.49581 0
M  V30 5839 C 545.74 -3.67456 4.40186 0
M  V30 5840 N 545.236 -4.32706 5.41052 0
M  V30 5841 N 547.029 -3.64511 4.27888 0
M  V30 5842 H 539.18 -0.452294 2.07528 0
M  V30 5843 H 541.443 -0.262521 0.910926 0
M  V30 5844 H 541.149 -1.52847 3.1675 0
M  V30 5845 H 541.023 -3.02278 2.25628 0
M  V30 5846 H 543.41 -2.62537 1.34753 0
M  V30 5847 H 543.491 -1.13238 2.2937 0
M  V30 5848 H 543.135 -2.49091 4.42624 0
M  V30 5849 H 543.065 -3.97905 3.44933 0
M  V30 5850 H 545.556 -2.57477 2.76611 0
M  V30 5851 H 545.869 -4.79042 6.06415 0
M  V30 5852 H 544.214 -4.31361 5.44934 0
M  V30 5853 H 547.405 -3.12715 3.4832 0
M  V30 5854 H 547.578 -4.13768 4.98698 0
M  V30 5855 N 540.985 -1.06182 -1.16461 0
M  V30 5856 C 541.948 -0.675723 -2.19013 0
M  V30 5857 C 542.948 0.277963 -1.58379 0
M  V30 5858 O 544.138 0.0604962 -1.74095 0
M  V30 5859 C 541.27 0.00591459 -3.40899 0
M  V30 5860 H 542.463 -1.58353 -2.54685 0
M  V30 5861 H 540.016 -0.856908 -1.30716 0
M  V30 5862 H 540.751 0.92652 -3.10783 0
M  V30 5863 H 540.536 -0.67984 -3.86161 0
M  V30 5864 H 542.026 0.26181 -4.16778 0
M  V30 5865 N 542.463 1.3308 -0.844243 0
M  V30 5866 C 543.709 1.98304 -0.452453 0
M  V30 5867 C 544.064 1.65645 0.978746 0
M  V30 5868 O 543.357 0.928849 1.6758 0
M  V30 5869 C 543.551 3.52045 -0.616354 0
M  V30 5870 C 543.38 3.99643 -2.06193 0
M  V30 5871 C 542.15 4.27224 -2.69829 0
M  V30 5872 C 544.348 4.15471 -3.03131 0
M  V30 5873 N 542.33 4.60998 -4.05406 0
M  V30 5874 C 543.701 4.52665 -4.23668 0
M  V30 5875 C 545.756 3.97776 -2.99465 0
M  V30 5876 C 544.459 4.74011 -5.41023 0
M  V30 5877 C 546.485 4.20301 -4.16055 0
M  V30 5878 C 545.847 4.57801 -5.35348 0
M  V30 5879 H 541.946 0.752122 -0.214096 0
M  V30 5880 H 544.53 1.61096 -1.09344 0
M  V30 5881 H 542.701 3.884 -0.00513205 0
M  V30 5882 H 544.433 4.04228 -0.19548 0
M  V30 5883 H 541.188 4.18911 -2.20931 0
M  V30 5884 H 541.612 4.82087 -4.75312 0
M  V30 5885 H 546.254 3.67893 -2.08362 0
M  V30 5886 H 543.972 5.02753 -6.32665 0
M  V30 5887 H 547.558 4.08122 -4.14641 0
M  V30 5888 H 546.438 4.74884 -6.24063 0
M  V30 5889 N 543.941 0.601185 1.45683 0
M  V30 5890 C 545.188 0.0938811 2.02282 0
M  V30 5891 C 545.516 -1.27315 1.47041 0
M  V30 5892 O 544.771 -1.85193 0.632623 0
M  V30 5893 C 545.07 -0.00222425 3.574 0
M  V30 5894 C 544.736 1.29963 4.31764 0
M  V30 5895 C 543.398 1.65625 4.51798 0
M  V30 5896 C 545.75 2.1603 4.74321 0
M  V30 5897 C 543.078 2.87119 5.11644 0
M  V30 5898 C 545.43 3.36766 5.3551 0
M  V30 5899 C 544.094 3.72689 5.53768 0
M  V30 5900 H 543.364 0.0343535 0.740203 0
M  V30 5901 H 546.011 0.781522 1.74827 0
M  V30 5902 H 544.316 -0.773096 3.84097 0
M  V30 5903 H 546.013 -0.410794 3.9889 0
M  V30 5904 H 542.603 1.01204 4.1648 0
M  V30 5905 H 546.787 1.89778 4.58582 0
M  V30 5906 H 542.043 3.15065 5.2397 0
M  V30 5907 H 546.217 4.03713 5.67441 0
M  V30 5908 H 543.844 4.66918 5.99909 0
M  V30 5909 N 545.419 -1.53889 0.339982 0
M  V30 5910 C 546.351 -2.22435 -0.55275 0
M  V30 5911 C 547.364 -1.22975 -1.06681 0
M  V30 5912 O 548.553 -1.49351 -0.977575 0
M  V30 5913 C 545.653 -2.8882 -1.77302 0
M  V30 5914 C 544.826 -4.14563 -1.39486 0
M  V30 5915 C 543.885 -4.64391 -2.47442 0
M  V30 5916 O 542.911 -5.28687 -2.10899 0
M  V30 5917 N 544.113 -4.40015 -3.78639 0
M  V30 5918 H 546.878 -2.9968 0.0342669 0
M  V30 5919 H 544.439 -1.61068 0.16394 0
M  V30 5920 H 546.431 -3.19072 -2.48948 0
M  V30 5921 H 545.001 -2.15182 -2.26749 0
M  V30 5922 H 544.221 -3.90896 -0.509321 0
M  V30 5923 H 545.509 -4.96362 -1.11813 0
M  V30 5924 H 544.907 -3.88586 -4.11118 0
M  V30 5925 H 543.464 -4.74881 -4.46465 0
M  V30 5926 N 546.897 -0.0685191 -1.57451 0
M  V30 5927 C 548.143 0.602239 -1.93652 0
M  V30 5928 C 548.476 1.6946 -0.948526 0
M  V30 5929 O 547.751 1.94487 0.022782 0
M  V30 5930 C 548.034 1.18223 -3.4014 0
M  V30 5931 C 547.887 0.0967431 -4.49696 0
M  V30 5932 C 549.206 2.08872 -3.87377 0
M  V30 5933 H 546.325 0.217453 -0.70419 0
M  V30 5934 H 548.967 -0.133821 -1.89528 0
M  V30 5935 H 547.117 1.80953 -3.43785 0
M  V30 5936 H 548.789 -0.536155 -4.58174 0
M  V30 5937 H 547.032 -0.573063 -4.29998 0
M  V30 5938 H 547.703 0.542894 -5.49324 0
M  V30 5939 H 550.179 1.56081 -3.85717 0
M  V30 5940 H 549.055 2.46389 -4.90493 0
M  V30 5941 H 549.316 2.99572 -3.25129 0
M  V30 5942 N 548.375 1.56261 0.205012 0
M  V30 5943 C 549.285 1.96944 1.27476 0
M  V30 5944 C 550.301 0.875636 1.50362 0
M  V30 5945 O 551.477 1.18058 1.6317 0
M  V30 5946 C 548.542 2.29219 2.60115 0
M  V30 5947 C 547.603 3.52255 2.45387 0
M  V30 5948 C 546.836 3.8298 3.71701 0
M  V30 5949 O 547.059 3.15138 4.75441 0
M  V30 5950 O 545.993 4.76435 3.67823 0
M  V30 5951 H 549.819 2.88144 0.959527 0
M  V30 5952 H 547.404 1.43686 0.409217 0
M  V30 5953 H 549.286 2.51098 3.3842 0
M  V30 5954 H 547.961 1.4119 2.91285 0
M  V30 5955 H 546.868 3.35635 1.65227 0
M  V30 5956 H 548.201 4.40719 2.19152 0
M  V30 5957 N 549.853 -0.472356 1.50355 0
M  V30 5958 C 551.13 -1.23356 1.51798 0
M  V30 5959 C 551.51 -2.09469 0.26193 0
M  V30 5960 O 550.858 -2.15677 -0.754691 0
M  V30 5961 C 551.068 -2.06568 2.81302 0
M  V30 5962 C 552.416 -2.648 3.31913 0
M  V30 5963 O 553.44 -2.16812 2.82614 0
M  V30 5964 O 552.299 -3.52231 4.17846 0
M  V30 5965 H 549.393 -0.559707 0.608816 0
M  V30 5966 H 551.939 -0.48428 1.62643 0
M  V30 5967 H 550.711 -1.43103 3.64194 0
M  V30 5968 H 550.334 -2.88633 2.73454 0
M  V30 5969 N 551.331 -1.39911 -0.725443 0
M  V30 5970 C 552.608 -1.28158 -1.47766 0
M  V30 5971 C 552.988 0.104545 -2.10841 0
M  V30 5972 O 552.336 1.11657 -1.99361 0
M  V30 5973 C 552.546 -2.41306 -2.52135 0
M  V30 5974 C 553.894 -2.81076 -3.18247 0
M  V30 5975 O 554.918 -2.40827 -2.62452 0
M  V30 5976 O 553.777 -3.50581 -4.19231 0
M  V30 5977 H 550.871 -0.502761 -0.656628 0
M  V30 5978 H 553.417 -1.51808 -0.758456 0
M  V30 5979 H 552.189 -3.33932 -2.03974 0
M  V30 5980 H 551.812 -2.19374 -3.31603 0
M  V30 5981 N 552.809 0.956637 -1.25245 0
M  V30 5982 C 554.057 1.69764 -1.09657 0
M  V30 5983 C 554.378 1.91583 0.363464 0
M  V30 5984 O 553.648 1.50149 1.25825 0
M  V30 5985 H 552.228 0.629097 -0.402798 0
M  V30 5986 H 554.89 1.15026 -1.57337 0
M  V30 5987 H 553.986 2.67769 -1.60331 0
M  V30 5988 N 554.287 1.06798 1.15896 0
M  V30 5989 C 555.698 0.811355 1.68149 0
M  V30 5990 C 556.049 -0.664339 1.8461 0
M  V30 5991 O 555.174 -1.51485 1.54535 0
M  V30 5992 C 555.769 1.46624 3.05429 0
M  V30 5993 C 554.328 1.25726 3.54781 0
M  V30 5994 C 553.475 1.53949 2.3064 0
M  V30 5995 H 556.426 1.23078 1.00187 0
M  V30 5996 H 556.447 0.88437 3.7008 0
M  V30 5997 H 555.959 2.54025 2.93416 0
M  V30 5998 H 554.06 0.20322 3.72045 0
M  V30 5999 H 554.173 1.97354 4.36564 0
M  V30 6000 H 552.537 0.96025 2.35905 0
M  V30 6001 H 553.32 2.6252 2.2122 0
M  V30 6002 N 555.766 -1.3263 0.851289 0
M  V30 6003 C 557.014 -1.96978 0.452128 0
M  V30 6004 C 557.335 -1.67715 -0.99482 0
M  V30 6005 O 556.605 -0.98259 -1.69476 0
M  V30 6006 H 555.185 -0.72873 0.164202 0
M  V30 6007 H 557.847 -1.61774 1.08698 0
M  V30 6008 H 556.943 -3.06387 0.594407 0
M  V30 6009 N 557.244 -0.608902 -1.45362 0
M  V30 6010 C 558.493 -0.10218 -2.01441 0
M  V30 6011 C 558.806 1.27546 -1.48295 0
M  V30 6012 O 560.012 1.87498 -1.96359 0
M  V30 6013 C 558.468 -0.131985 -3.59658 0
M  V30 6014 C 558.076 -1.50956 -4.21801 0
M  V30 6015 C 559.82 0.319427 -4.23296 0
M  V30 6016 C 557.727 -1.49568 -5.72174 0
M  V30 6017 H 556.657 -0.0344314 -0.753213 0
M  V30 6018 H 559.308 -0.764426 -1.6682 0
M  V30 6019 H 557.69 0.596939 -3.91475 0
M  V30 6020 H 558.864 -2.26029 -4.01556 0
M  V30 6021 H 557.179 -1.90318 -3.70362 0
M  V30 6022 H 559.776 0.349013 -5.3356 0
M  V30 6023 H 560.119 1.34237 -3.94064 0
M  V30 6024 H 560.652 -0.356273 -3.96201 0
M  V30 6025 H 557.391 -2.49626 -6.06108 0
M  V30 6026 H 556.911 -0.787542 -5.94607 0
M  V30 6027 H 558.59 -1.21989 -6.35396 0
M  V30 6028 N 558.722 1.53707 -0.348139 0
M  V30 6029 C 559.685 2.23812 0.494058 0
M  V30 6030 C 560.685 1.23989 1.02388 0
M  V30 6031 O 561.875 1.48395 0.912396 0
M  V30 6032 C 559.007 2.96133 1.68872 0
M  V30 6033 H 560.2 2.99663 -0.119141 0
M  V30 6034 H 557.753 1.55983 -0.0995539 0
M  V30 6035 H 558.488 2.24481 2.34049 0
M  V30 6036 H 558.273 3.69357 1.31596 0
M  V30 6037 H 559.763 3.49475 2.28597 0
M  V30 6038 N 560.2 0.0768682 1.57412 0
M  V30 6039 C 561.611 -0.455037 1.8107 0
M  V30 6040 C 561.962 -1.69323 0.991162 0
M  V30 6041 O 561.087 -2.15328 0.215156 0
M  V30 6042 C 561.682 -0.832316 3.28417 0
M  V30 6043 C 560.241 -1.30906 3.52903 0
M  V30 6044 C 559.388 -0.296714 2.75708 0
M  V30 6045 H 562.339 0.302514 1.5579 0
M  V30 6046 H 562.36 -1.69333 3.40744 0
M  V30 6047 H 561.872 0.0690532 3.88039 0
M  V30 6048 H 559.973 -2.22875 2.98592 0
M  V30 6049 H 560.086 -1.28348 4.61588 0
M  V30 6050 H 558.45 -0.775059 2.42621 0
M  V30 6051 H 559.233 0.597015 3.38069 0
M  V30 6052 N 561.678 -1.56367 -0.196722 0
M  V30 6053 C 562.588 -1.97617 -1.2643 0
M  V30 6054 C 563.604 -0.883598 -1.49895 0
M  V30 6055 O 564.78 -1.18921 -1.62541 0
M  V30 6056 C 561.845 -2.30595 -2.58895 0
M  V30 6057 C 560.906 -3.53551 -2.43516 0
M  V30 6058 C 560.139 -3.84946 -3.69665 0
M  V30 6059 O 560.362 -3.17655 -4.73763 0
M  V30 6060 O 559.296 -4.78379 -3.65291 0
M  V30 6061 H 563.122 -2.88648 -0.944233 0
M  V30 6062 H 560.707 -1.43901 -0.401592 0
M  V30 6063 H 562.589 -2.52889 -3.37083 0
M  V30 6064 H 561.264 -1.42732 -2.90533 0
M  V30 6065 H 560.171 -3.36507 -1.63445 0
M  V30 6066 H 561.504 -4.41875 -2.16812 0
M  V30 6067 N 563.156 0.464375 -1.50603 0
M  V30 6068 C 564.088 1.57916 -1.66118 0
M  V30 6069 C 565.101 1.53497 -0.54246 0
M  V30 6070 O 566.29 1.58763 -0.815877 0
M  V30 6071 C 563.39 2.96809 -1.63577 0
M  V30 6072 C 562.563 3.26026 -2.91592 0
M  V30 6073 C 561.622 4.44506 -2.81604 0
M  V30 6074 O 560.648 4.44484 -3.55559 0
M  V30 6075 N 561.85 5.46549 -1.95614 0
M  V30 6076 H 564.615 1.45022 -2.62276 0
M  V30 6077 H 562.176 0.652903 -1.48151 0
M  V30 6078 H 564.168 3.74048 -1.54499 0
M  V30 6079 H 562.738 3.03438 -0.751262 0
M  V30 6080 H 561.958 2.37337 -3.14746 0
M  V30 6081 H 563.246 3.42361 -3.76386 0
M  V30 6082 H 562.644 5.49391 -1.34854 0
M  V30 6083 H 561.201 6.22746 -1.92435 0
M  V30 6084 N 564.634 1.40294 0.718013 0
M  V30 6085 C 566.05 1.2227 1.02577 0
M  V30 6086 C 566.25 0.0961976 2.0127 0
M  V30 6087 O 565.306 -0.546695 2.46511 0
M  V30 6088 C 566.619 2.56348 1.57182 0
M  V30 6089 C 568.167 2.6334 1.69178 0
M  V30 6090 C 568.642 3.9768 2.27188 0
M  V30 6091 N 570.133 3.99409 2.34578 0
M  V30 6092 C 570.868 5.00141 2.8044 0
M  V30 6093 N 570.364 6.11268 3.26073 0
M  V30 6094 N 572.157 4.87511 2.79802 0
M  V30 6095 H 564.308 2.12304 0.0637899 0
M  V30 6096 H 566.571 0.943632 0.0909036 0
M  V30 6097 H 566.277 3.3942 0.921262 0
M  V30 6098 H 566.151 2.77266 2.55741 0
M  V30 6099 H 568.538 1.80641 2.33351 0
M  V30 6100 H 568.619 2.46255 0.692247 0
M  V30 6101 H 568.263 4.80817 1.63638 0
M  V30 6102 H 568.193 4.12093 3.27852 0
M  V30 6103 H 570.684 3.19162 2.02346 0
M  V30 6104 H 570.997 6.84023 3.59628 0
M  V30 6105 H 569.342 6.14837 3.24038 0
M  V30 6106 H 572.533 3.9979 2.43487 0
M  V30 6107 H 572.706 5.66158 3.15228 0
M  V30 6108 N 566.112 -0.949982 1.2575 0
M  V30 6109 C 567.059 -2.04738 1.06541 0
M  V30 6110 C 568.029 -1.66078 -0.0268818 0
M  V30 6111 O 569.214 -1.90348 0.131196 0
M  V30 6112 C 566.354 -3.38027 0.695127 0
M  V30 6113 C 565.467 -3.89776 1.86276 0
M  V30 6114 C 564.602 -5.11411 1.4364 0
M  V30 6115 C 563.641 -5.554 2.57287 0
M  V30 6116 N 562.778 -6.68244 2.15395 0
M  V30 6117 H 567.618 -2.20502 2.00457 0
M  V30 6118 H 565.155 -1.0805 0.998178 0
M  V30 6119 H 567.113 -4.14641 0.461375 0
M  V30 6120 H 565.743 -3.22135 -0.207046 0
M  V30 6121 H 564.795 -3.0964 2.20969 0
M  V30 6122 H 566.107 -4.18368 2.71606 0
M  V30 6123 H 565.261 -5.95457 1.16257 0
M  V30 6124 H 564 -4.84545 0.553879 0
M  V30 6125 H 563.005 -4.69916 2.85409 0
M  V30 6126 H 564.23 -5.84272 3.46125 0
M  V30 6127 H 562.176 -6.43078 1.29565 0
M  V30 6128 H 562.093 -6.96377 2.94272 0
M  V30 6129 H 563.361 -7.55687 1.91201 0
M  V30 6130 N 567.59 -1.07411 -1.15328 0
M  V30 6131 C 568.54 -0.664788 -2.18093 0
M  V30 6132 C 569.524 0.310395 -1.57878 0
M  V30 6133 O 570.716 0.124026 -1.76565 0
M  V30 6134 C 567.845 -0.0647822 -3.43239 0
M  V30 6135 C 566.931 -1.06514 -4.10506 0
M  V30 6136 N 567.322 -2.24491 -4.53252 0
M  V30 6137 C 565.62 -0.898613 -4.36853 0
M  V30 6138 C 566.321 -2.8796 -5.05424 0
M  V30 6139 N 565.297 -2.15622 -4.99007 0
M  V30 6140 H 569.099 -1.56333 -2.48872 0
M  V30 6141 H 566.613 -0.947393 -1.31902 0
M  V30 6142 H 568.61 0.246363 -4.16171 0
M  V30 6143 H 567.27 0.828866 -3.13943 0
M  V30 6144 H 568.281 -2.62205 -4.46619 0
M  V30 6145 H 564.958 -0.0579118 -4.1746 0
M  V30 6146 H 566.348 -3.88137 -5.48452 0
M  V30 6147 N 569.068 1.32177 -0.85831 0
M  V30 6148 C 569.998 2.31282 -0.321041 0
M  V30 6149 C 570.979 1.59841 0.581786 0
M  V30 6150 O 572.164 1.87619 0.501262 0
M  V30 6151 C 569.294 3.4385 0.48832 0
M  V30 6152 C 568.248 4.26799 -0.320391 0
M  V30 6153 C 567.574 5.31164 0.613934 0
M  V30 6154 C 568.874 4.98829 -1.54813 0
M  V30 6155 H 570.568 2.76469 -1.14915 0
M  V30 6156 H 568.114 1.32916 -0.554028 0
M  V30 6157 H 570.067 4.12224 0.874626 0
M  V30 6158 H 568.791 2.97401 1.34983 0
M  V30 6159 H 567.45 3.60077 -0.688497 0
M  V30 6160 H 567.098 4.80967 1.47239 0
M  V30 6161 H 566.798 5.8755 0.0768097 0
M  V30 6162 H 568.322 6.024 0.997336 0
M  V30 6163 H 569.736 5.59864 -1.23392 0
M  V30 6164 H 568.133 5.64957 -2.02346 0
M  V30 6165 H 569.203 4.26483 -2.30739 0
M  V30 6166 N 570.547 0.616602 1.45037 0
M  V30 6167 C 571.794 0.115331 2.02171 0
M  V30 6168 C 572.122 -1.25748 1.48383 0
M  V30 6169 O 571.377 -1.84511 0.652229 0
M  V30 6170 C 571.676 0.0356829 3.57382 0
M  V30 6171 C 571.342 1.34535 4.30362 0
M  V30 6172 C 570.004 1.70408 4.50016 0
M  V30 6173 C 572.356 2.21049 4.72003 0
M  V30 6174 C 569.684 2.92529 5.0857 0
M  V30 6175 C 572.036 3.42427 5.31908 0
M  V30 6176 C 570.7 3.78541 5.49784 0
M  V30 6177 H 569.97 0.0422024 0.739797 0
M  V30 6178 H 572.617 0.80002 1.73988 0
M  V30 6179 H 570.922 -0.732314 3.84895 0
M  V30 6180 H 572.619 -0.368463 3.99304 0
M  V30 6181 H 569.209 1.05615 4.15383 0
M  V30 6182 H 573.393 1.94632 4.56544 0
M  V30 6183 H 568.649 3.20605 5.20598 0
M  V30 6184 H 572.823 4.09709 5.63127 0
M  V30 6185 H 570.45 4.73255 5.94923 0
M  V30 6186 N 572.025 -1.5352 0.356285 0
M  V30 6187 C 572.957 -2.23009 -0.529127 0
M  V30 6188 C 573.97 -1.241 -1.05371 0
M  V30 6189 O 575.159 -1.50379 -0.961679 0
M  V30 6190 C 572.259 -2.90685 -1.74229 0
M  V30 6191 C 571.432 -4.16019 -1.35081 0
M  V30 6192 C 570.491 -4.66989 -2.42502 0
M  V30 6193 O 569.517 -5.30895 -2.05279 0
M  V30 6194 N 570.719 -4.44006 -3.7395 0
M  V30 6195 H 573.484 -2.99627 0.0660501 0
M  V30 6196 H 571.045 -1.60885 0.181014 0
M  V30 6197 H 573.037 -3.21695 -2.4555 0
M  V30 6198 H 571.607 -2.17575 -2.24454 0
M  V30 6199 H 570.827 -3.91414 -0.467833 0
M  V30 6200 H 572.115 -4.9752 -1.06542 0
M  V30 6201 H 571.513 -3.92924 -4.06973 0
M  V30 6202 H 570.07 -4.7959 -4.41403 0
M  V30 6203 N 573.503 -0.0852151 -1.57369 0
M  V30 6204 C 574.914 0.445428 -1.81309 0
M  V30 6205 C 575.265 1.68795 -1.00013 0
M  V30 6206 O 574.39 2.15211 -0.226573 0
M  V30 6207 C 574.985 0.814887 -3.28854 0
M  V30 6208 C 573.544 1.29032 -3.53592 0
M  V30 6209 C 572.691 0.282089 -2.75861 0
M  V30 6210 H 575.642 -0.310771 -1.55627 0
M  V30 6211 H 575.663 1.67524 -3.41637 0
M  V30 6212 H 575.175 -0.0896309 -3.87996 0
M  V30 6213 H 573.276 2.21289 -2.9977 0
M  V30 6214 H 573.389 1.25898 -4.62262 0
M  V30 6215 H 571.753 0.762182 -2.43029 0
M  V30 6216 H 572.536 -0.614936 -3.37748 0
M  V30 6217 N 574.981 1.5647 0.188427 0
M  V30 6218 C 576.228 1.81013 0.907779 0
M  V30 6219 C 576.556 0.65953 1.82977 0
M  V30 6220 O 575.811 -0.354308 1.92466 0
M  V30 6221 C 576.11 3.11596 1.7505 0
M  V30 6222 C 575.776 4.40145 0.978922 0
M  V30 6223 C 574.438 4.75066 0.765912 0
M  V30 6224 C 576.79 5.19369 0.436498 0
M  V30 6225 C 574.118 5.867 -0.00089868 0
M  V30 6226 C 576.47 6.31805 -0.317136 0
M  V30 6227 C 575.134 6.65303 -0.541103 0
M  V30 6228 H 574.404 0.662373 0.33218 0
M  V30 6229 H 577.051 1.9071 0.173732 0
M  V30 6230 H 575.356 2.97165 2.55343 0
M  V30 6231 H 577.053 3.27793 2.30983 0
M  V30 6232 H 573.643 4.12745 1.15497 0
M  V30 6233 H 577.827 4.92799 0.588449 0
M  V30 6234 H 573.083 6.11122 -0.184329 0
M  V30 6235 H 577.257 6.92406 -0.744788 0
M  V30 6236 H 574.884 7.51646 -1.13718 0
M  V30 6237 N 576.459 -0.456382 1.50847 0
M  V30 6238 C 577.705 -1.20914 1.62811 0
M  V30 6239 C 578.038 -1.91301 0.334304 0
M  V30 6240 O 577.313 -1.82775 -0.665098 0
M  V30 6241 C 577.596 -2.24122 2.81853 0
M  V30 6242 C 577.449 -1.57944 4.21158 0
M  V30 6243 C 578.768 -3.25295 2.96431 0
M  V30 6244 H 575.887 -0.438233 0.592554 0
M  V30 6245 H 578.529 -0.50091 1.83278 0
M  V30 6246 H 576.679 -2.84524 2.64534 0
M  V30 6247 H 578.351 -1.01025 4.50102 0
M  V30 6248 H 576.594 -0.882185 4.24735 0
M  V30 6249 H 577.265 -2.33014 5.00408 0
M  V30 6250 H 579.741 -2.7493 3.12335 0
M  V30 6251 H 578.617 -3.94822 3.81322 0
M  V30 6252 H 578.878 -3.90286 2.07676 0
M  V30 6253 N 577.937 -1.40673 -0.710563 0
M  V30 6254 C 579.353 -1.22813 -1.01928 0
M  V30 6255 C 579.553 -0.10687 -2.01216 0
M  V30 6256 O 578.609 0.533614 -2.46797 0
M  V30 6257 C 579.922 -2.57178 -1.5582 0
M  V30 6258 C 581.47 -2.64233 -1.67779 0
M  V30 6259 C 581.945 -3.98879 -2.25076 0
M  V30 6260 N 583.436 -4.00647 -2.32456 0
M  V30 6261 C 584.171 -5.01621 -2.77784 0
M  V30 6262 N 583.667 -6.12989 -3.22826 0
M  V30 6263 N 585.46 -4.88988 -2.77213 0
M  V30 6264 H 577.611 -2.12335 -0.05253 0
M  V30 6265 H 579.874 -0.9441 -0.085898 0
M  V30 6266 H 579.58 -3.39903 -0.903249 0
M  V30 6267 H 579.454 -2.78618 -2.54267 0
M  V30 6268 H 581.841 -1.81876 -2.3239 0
M  V30 6269 H 581.922 -2.46619 -0.679178 0
M  V30 6270 H 581.566 -4.81678 -1.61086 0
M  V30 6271 H 581.496 -4.13826 -3.25661 0
M  V30 6272 H 583.987 -3.20231 -2.0065 0
M  V30 6273 H 584.3 -6.85921 -3.55995 0
M  V30 6274 H 582.645 -6.16547 -3.20773 0
M  V30 6275 H 585.836 -4.01075 -2.41363 0
M  V30 6276 H 586.009 -5.67822 -3.12221 0
M  V30 6277 N 579.415 0.9433 -1.26252 0
M  V30 6278 C 580.663 1.68592 -1.11451 0
M  V30 6279 C 580.984 1.91957 0.343123 0
M  V30 6280 O 580.254 1.51475 1.24226 0
M  V30 6281 H 578.834 0.624789 -0.409448 0
M  V30 6282 H 581.496 1.13351 -1.58548 0
M  V30 6283 H 580.592 2.66054 -1.63162 0
M  V30 6284 N 580.893 1.08022 1.14757 0
M  V30 6285 C 582.17 0.720386 1.81851 0
M  V30 6286 C 582.55 -0.796375 1.95502 0
M  V30 6287 O 581.898 -1.71339 1.51179 0
M  V30 6288 C 582.108 1.44273 3.17783 0
M  V30 6289 C 583.456 1.59925 3.93331 0
M  V30 6290 O 584.48 1.40407 3.2736 0
M  V30 6291 O 583.339 1.92096 5.11626 0
M  V30 6292 H 580.433 0.257142 0.786007 0
M  V30 6293 H 582.979 1.18155 1.21809 0
M  V30 6294 H 581.751 2.47618 3.02987 0
M  V30 6295 H 581.374 0.97279 3.85516 0
M  V30 6296 N 582.371 -1.3172 0.865308 0
M  V30 6297 C 583.596 -2.01591 0.487415 0
M  V30 6298 C 584.021 -1.6455 -0.911307 0
M  V30 6299 O 583.379 -0.851689 -1.6005 0
M  V30 6300 C 583.427 -3.54759 0.646401 0
M  V30 6301 O 582.531 -4.11185 -0.316284 0
M  V30 6302 H 581.872 -0.634884 0.194468 0
M  V30 6303 H 584.402 -1.68024 1.16744 0
M  V30 6304 H 584.412 -4.04438 0.537932 0
M  V30 6305 H 583.087 -3.8106 1.66632 0
M  V30 6306 H 581.664 -3.72543 -0.163162 0
M  V30 6307 N 583.85 -0.624285 -1.44708 0
M  V30 6308 C 584.812 0.0749638 -2.29077 0
M  V30 6309 C 585.812 0.778965 -1.40673 0
M  V30 6310 O 587.003 0.624591 -1.62618 0
M  V30 6311 C 584.135 1.11663 -3.22094 0
M  V30 6312 H 585.327 -0.667013 -2.92388 0
M  V30 6313 H 582.88 -0.384098 -1.51507 0
M  V30 6314 H 583.615 1.88881 -2.63618 0
M  V30 6315 H 583.401 0.61583 -3.87234 0
M  V30 6316 H 584.891 1.60585 -3.8549 0
M  V30 6317 N 585.328 1.53329 -0.364422 0
M  V30 6318 C 586.744 1.59594 -0.0133165 0
M  V30 6319 C 586.944 1.37959 1.46865 0
M  V30 6320 O 586 1.18418 2.2301 0
M  V30 6321 C 587.313 2.97032 -0.468213 0
M  V30 6322 C 588.861 3.10138 -0.422334 0
M  V30 6323 C 589.336 4.49986 -0.853024 0
M  V30 6324 N 590.827 4.56098 -0.808037 0
M  V30 6325 C 591.562 5.62495 -1.11299 0
M  V30 6326 N 591.058 6.7665 -1.48717 0
M  V30 6327 N 592.851 5.52473 -1.03586 0
M  V30 6328 H 585.002 1.65644 -1.32951 0
M  V30 6329 H 587.265 0.77684 -0.543345 0
M  V30 6330 H 586.971 3.18 -1.5023 0
M  V30 6331 H 586.845 3.76918 0.145775 0
M  V30 6332 H 589.232 2.88881 0.602622 0
M  V30 6333 H 589.313 2.32263 -1.0718 0
M  V30 6334 H 588.957 4.7198 -1.87609 0
M  V30 6335 H 588.887 5.26289 -0.180819 0
M  V30 6336 H 591.378 3.74131 -0.532361 0
M  V30 6337 H 591.691 7.53776 -1.70415 0
M  V30 6338 H 590.036 6.78044 -1.52581 0
M  V30 6339 H 593.227 4.6217 -0.742736 0
M  V30 6340 H 593.4 6.35295 -1.27686 0
M  V30 6341 N 586.806 0.0935595 1.57322 0
M  V30 6342 C 588.034 -0.578934 1.98635 0
M  V30 6343 C 588.449 -1.61819 0.972626 0
M  V30 6344 O 587.806 -1.82461 -0.0379638 0
M  V30 6345 C 587.857 -1.22802 3.40003 0
M  V30 6346 O 587.578 -0.230334 4.37494 0
M  V30 6347 C 589.079 -1.98627 3.96311 0
M  V30 6348 H 586.299 -0.155324 0.652775 0
M  V30 6349 H 588.843 0.172393 2.03772 0
M  V30 6350 H 586.998 -1.93029 3.35885 0
M  V30 6351 H 587.412 -0.698649 5.19826 0
M  V30 6352 H 588.886 -2.39405 4.97382 0
M  V30 6353 H 589.363 -2.85151 3.34044 0
M  V30 6354 H 589.969 -1.3322 4.03897 0
M  V30 6355 N 588.284 -1.56567 -0.180126 0
M  V30 6356 C 589.533 -1.80685 -0.896426 0
M  V30 6357 C 589.846 -0.669335 -1.83791 0
M  V30 6358 O 591.052 -0.795209 -2.59593 0
M  V30 6359 C 589.508 -3.20132 -1.6445 0
M  V30 6360 C 589.116 -4.41727 -0.747088 0
M  V30 6361 C 590.86 -3.53549 -2.34955 0
M  V30 6362 C 588.767 -5.72195 -1.49489 0
M  V30 6363 H 587.697 -0.673758 -0.338477 0
M  V30 6364 H 590.348 -1.8289 -0.149467 0
M  V30 6365 H 588.73 -3.12218 -2.43589 0
M  V30 6366 H 589.904 -4.608 0.00671129 0
M  V30 6367 H 588.219 -4.16122 -0.152134 0
M  V30 6368 H 590.816 -4.48267 -2.91481 0
M  V30 6369 H 591.159 -2.78006 -3.09868 0
M  V30 6370 H 591.692 -3.62976 -1.62768 0
M  V30 6371 H 588.431 -6.50743 -0.788251 0
M  V30 6372 H 587.951 -5.57115 -2.22224 0
M  V30 6373 H 589.63 -6.1384 -2.04472 0
M  V30 6374 N 589.762 0.448376 -1.51087 0
M  V30 6375 C 590.987 1.22605 -1.6728 0
M  V30 6376 C 591.412 1.84524 -0.365045 0
M  V30 6377 O 590.77 1.6832 0.673642 0
M  V30 6378 C 590.818 2.29393 -2.78229 0
M  V30 6379 O 589.922 3.34608 -2.41063 0
M  V30 6380 H 589.263 0.359705 -0.558129 0
M  V30 6381 H 591.793 0.530903 -1.97592 0
M  V30 6382 H 591.803 2.74352 -3.01986 0
M  V30 6383 H 590.478 1.83701 -3.73131 0
M  V30 6384 H 589.055 2.95202 -2.27838 0
M  V30 6385 N 591.24 1.41047 0.703093 0
M  V30 6386 C 592.488 1.39723 1.4602 0
M  V30 6387 C 592.809 0.00461257 1.94999 0
M  V30 6388 O 592.079 -0.952292 1.71196 0
M  V30 6389 H 590.659 0.514281 0.541779 0
M  V30 6390 H 593.321 1.76217 0.832678 0
M  V30 6391 H 592.417 2.07982 2.32701 0
M  V30 6392 N 592.718 -0.936591 1.26751 0
M  V30 6393 C 593.946 -1.71758 1.15355 0
M  V30 6394 C 594.361 -1.86549 -0.290683 0
M  V30 6395 O 593.718 -1.37616 -1.19868 0
M  V30 6396 C 593.769 -3.12193 1.82258 0
M  V30 6397 O 593.49 -2.98105 3.21038 0
M  V30 6398 C 594.991 -4.06485 1.76875 0
M  V30 6399 H 592.211 -0.537636 0.401483 0
M  V30 6400 H 594.755 -1.17382 1.67457 0
M  V30 6401 H 592.91 -3.63456 1.34083 0
M  V30 6402 H 593.324 -3.86824 3.54214 0
M  V30 6403 H 594.798 -5.02569 2.28316 0
M  V30 6404 H 595.275 -4.32986 0.736216 0
M  V30 6405 H 595.881 -3.61144 2.24623 0
M  V30 6406 N 594.196 -1.08629 -1.14182 0
M  V30 6407 C 595.444 -0.815731 -1.84906 0
M  V30 6408 C 595.765 0.660441 -1.83475 0
M  V30 6409 O 595.035 1.47888 -1.28476 0
M  V30 6410 H 593.615 -0.298773 -0.684648 0
M  V30 6411 H 596.277 -1.37274 -1.38354 0
M  V30 6412 H 595.373 -1.16193 -2.89665 0
M  V30 6413 N 595.674 1.31259 -0.872281 0
M  V30 6414 C 596.604 2.30929 -0.345554 0
M  V30 6415 C 597.585 1.60449 0.5648 0
M  V30 6416 O 598.77 1.8814 0.481335 0
M  V30 6417 C 595.9 3.44348 0.451823 0
M  V30 6418 C 594.854 4.26435 -0.365641 0
M  V30 6419 C 594.18 5.31785 0.557562 0
M  V30 6420 C 595.48 4.97159 -1.60095 0
M  V30 6421 H 597.174 2.75234 -1.17841 0
M  V30 6422 H 594.72 1.3232 -0.568094 0
M  V30 6423 H 596.673 4.13128 0.830854 0
M  V30 6424 H 595.397 2.98816 1.31821 0
M  V30 6425 H 594.056 3.59326 -0.726649 0
M  V30 6426 H 593.704 4.82502 1.4213 0
M  V30 6427 H 593.404 5.87598 0.0144878 0
M  V30 6428 H 594.928 6.03424 0.933387 0
M  V30 6429 H 596.342 5.58523 -1.29323 0
M  V30 6430 H 594.739 5.62779 -2.08327 0
M  V30 6431 H 595.809 4.24012 -2.35249 0
M  V30 6432 N 597.152 0.631951 1.44375 0
M  V30 6433 C 598.4 0.136497 2.01639 0
M  V30 6434 C 598.721 -1.24637 1.49969 0
M  V30 6435 O 597.991 -1.82827 0.70363 0
M  V30 6436 H 596.571 0.0474703 0.74549 0
M  V30 6437 H 599.233 0.818837 1.76865 0
M  V30 6438 H 598.329 0.104817 3.11924 0
M  V30 6439 N 598.631 -1.53133 0.372548 0
M  V30 6440 C 599.561 -2.28876 -0.462412 0
M  V30 6441 C 600.542 -1.31583 -1.07796 0
M  V30 6442 O 601.727 -1.60461 -1.09389 0
M  V30 6443 C 598.857 -3.08317 -1.59868 0
M  V30 6444 C 597.811 -4.13355 -1.11003 0
M  V30 6445 C 597.137 -4.8092 -2.33708 0
M  V30 6446 C 598.437 -5.21955 -0.18983 0
M  V30 6447 H 600.131 -2.9892 0.169511 0
M  V30 6448 H 597.677 -1.43761 0.0829658 0
M  V30 6449 H 599.63 -3.60055 -2.18949 0
M  V30 6450 H 598.354 -2.35976 -2.25794 0
M  V30 6451 H 597.013 -3.62573 -0.541869 0
M  V30 6452 H 596.661 -4.05144 -2.98106 0
M  V30 6453 H 596.361 -5.51904 -2.01682 0
M  V30 6454 H 597.885 -5.35455 -2.93462 0
M  V30 6455 H 599.299 -5.69153 -0.688319 0
M  V30 6456 H 597.696 -6.00087 0.0398887 0
M  V30 6457 H 598.766 -4.78811 0.766057 0
M  V30 6458 N 600.109 -0.101901 -1.5727 0
M  V30 6459 C 601.072 0.840129 -2.13247 0
M  V30 6460 C 602.072 1.20625 -1.06331 0
M  V30 6461 O 603.262 1.13456 -1.32186 0
M  V30 6462 C 600.394 2.13372 -2.65867 0
M  V30 6463 H 601.587 0.353945 -2.97804 0
M  V30 6464 H 599.14 0.147167 -1.55606 0
M  V30 6465 H 599.875 2.66461 -1.84849 0
M  V30 6466 H 599.66 1.88085 -3.44044 0
M  V30 6467 H 601.15 2.80748 -3.09145 0
M  V30 6468 N 601.587 1.56661 0.17182 0
M  V30 6469 C 602.836 1.81158 0.886831 0
M  V30 6470 C 603.149 0.679072 1.83434 0
M  V30 6471 O 604.355 0.808964 2.59168 0
M  V30 6472 C 602.811 3.20999 1.6275 0
M  V30 6473 C 602.419 4.42117 0.723652 0
M  V30 6474 C 604.163 3.5479 2.33076 0
M  V30 6475 C 602.07 5.7298 1.46452 0
M  V30 6476 H 601 0.675543 0.334899 0
M  V30 6477 H 603.651 1.82967 0.139765 0
M  V30 6478 H 602.033 3.13506 2.4193 0
M  V30 6479 H 603.207 4.60789 -0.0311485 0
M  V30 6480 H 601.522 4.16197 0.130063 0
M  V30 6481 H 604.119 4.49806 2.89099 0
M  V30 6482 H 604.462 2.79646 3.08389 0
M  V30 6483 H 604.995 3.63834 1.6084 0
M  V30 6484 H 601.734 6.51152 0.753729 0
M  V30 6485 H 601.254 5.58285 2.19266 0
M  V30 6486 H 602.933 6.14916 2.01214 0
M  V30 6487 N 603.065 -0.440357 1.51323 0
M  V30 6488 C 604.311 -1.19181 1.64085 0
M  V30 6489 C 604.644 -1.90936 0.354575 0
M  V30 6490 O 603.919 -1.8347 -0.645675 0
M  V30 6491 C 604.202 -2.2112 2.84215 0
M  V30 6492 C 604.055 -1.53468 4.22809 0
M  V30 6493 C 605.374 -3.22133 2.99864 0
M  V30 6494 H 602.493 -0.431924 0.597169 0
M  V30 6495 H 605.135 -0.481443 1.83799 0
M  V30 6496 H 603.285 -2.81703 2.67537 0
M  V30 6497 H 604.957 -0.962455 4.51148 0
M  V30 6498 H 603.2 -0.837086 4.25647 0
M  V30 6499 H 603.871 -2.27694 5.02852 0
M  V30 6500 H 606.347 -2.71601 3.15233 0
M  V30 6501 H 605.223 -3.90756 3.85488 0
M  V30 6502 H 605.484 -3.88061 2.11804 0
M  V30 6503 N 604.543 -1.41418 -0.695603 0
M  V30 6504 C 605.475 -1.39195 -1.82092 0
M  V30 6505 C 606.488 -0.294132 -1.60121 0
M  V30 6506 O 607.677 -0.555854 -1.69625 0
M  V30 6507 C 604.777 -1.14828 -3.18854 0
M  V30 6508 C 603.95 -2.36649 -3.67853 0
M  V30 6509 C 603.009 -2.08139 -4.83285 0
M  V30 6510 O 602.035 -2.81177 -4.94902 0
M  V30 6511 N 603.237 -1.07162 -5.70523 0
M  V30 6512 H 606.002 -2.36185 -1.84491 0
M  V30 6513 H 603.563 -1.3603 -0.877923 0
M  V30 6514 H 605.555 -0.937075 -3.93702 0
M  V30 6515 H 604.125 -0.264358 -3.1148 0
M  V30 6516 H 603.345 -2.73472 -2.83913 0
M  V30 6517 H 604.633 -3.17816 -3.97329 0
M  V30 6518 H 604.031 -0.467124 -5.63768 0
M  V30 6519 H 602.588 -0.920311 -6.4527 0
M  V30 6520 N 606.021 0.929856 -1.27246 0
M  V30 6521 C 607.437 1.20542 -1.04603 0
M  V30 6522 C 607.637 2.00276 0.221754 0
M  V30 6523 O 606.693 2.34835 0.927833 0
M  V30 6524 C 608.006 1.95566 -2.28417 0
M  V30 6525 C 609.554 2.08513 -2.33433 0
M  V30 6526 C 610.029 2.86943 -3.5697 0
M  V30 6527 N 611.52 2.94512 -3.57515 0
M  V30 6528 C 612.255 3.55656 -4.49774 0
M  V30 6529 N 611.751 4.18209 -5.52334 0
M  V30 6530 N 613.544 3.53038 -4.37402 0
M  V30 6531 H 605.695 0.397113 -2.08655 0
M  V30 6532 H 607.958 0.238277 -0.917566 0
M  V30 6533 H 607.664 1.44395 -3.20691 0
M  V30 6534 H 607.538 2.9619 -2.33563 0
M  V30 6535 H 609.925 2.58872 -1.41666 0
M  V30 6536 H 610.006 1.07117 -2.32292 0
M  V30 6537 H 609.65 2.37268 -4.49072 0
M  V30 6538 H 609.58 3.8862 -3.55362 0
M  V30 6539 H 612.071 2.50053 -2.83341 0
M  V30 6540 H 612.384 4.62796 -6.18902 0
M  V30 6541 H 610.729 4.16761 -5.56179 0
M  V30 6542 H 613.92 3.0337 -3.56489 0
M  V30 6543 H 614.093 4.004 -5.09493 0
M  V30 6544 N 607.499 1.09233 1.13605 0
M  V30 6545 C 608.748 0.82205 1.84188 0
M  V30 6546 C 609.061 -0.654548 1.84323 0
M  V30 6547 O 610.267 -1.04029 2.50779 0
M  V30 6548 C 608.723 1.42066 3.30674 0
M  V30 6549 C 608.331 2.92965 3.38933 0
M  V30 6550 C 610.075 1.22924 4.06313 0
M  V30 6551 C 607.982 3.45922 4.79679 0
M  V30 6552 H 606.912 0.303854 0.690064 0
M  V30 6553 H 609.563 1.31479 1.28006 0
M  V30 6554 H 607.945 0.855613 3.86646 0
M  V30 6555 H 609.119 3.55679 2.92966 0
M  V30 6556 H 607.434 3.11118 2.76757 0
M  V30 6557 H 610.031 1.59945 5.10217 0
M  V30 6558 H 610.374 0.169726 4.15954 0
M  V30 6559 H 610.907 1.76168 3.56665 0
M  V30 6560 H 607.646 4.51484 4.75229 0
M  V30 6561 H 607.166 2.87971 5.26149 0
M  V30 6562 H 608.845 3.43009 5.48592 0
M  V30 6563 N 608.977 -1.30795 0.87923 0
M  V30 6564 C 610.223 -1.96653 0.495519 0
M  V30 6565 C 610.556 -1.69282 -0.951703 0
M  V30 6566 O 609.831 -0.994374 -1.6716 0
M  V30 6567 C 610.114 -3.51898 0.764174 0
M  V30 6568 C 609.967 -3.88808 2.2616 0
M  V30 6569 C 611.286 -4.39462 0.236825 0
M  V30 6570 H 608.405 -0.7143 0.181507 0
M  V30 6571 H 611.047 -1.54765 1.10217 0
M  V30 6572 H 609.197 -3.87709 0.247841 0
M  V30 6573 H 610.869 -3.63051 2.8459 0
M  V30 6574 H 609.112 -3.37082 2.73053 0
M  V30 6575 H 609.783 -4.97086 2.4002 0
M  V30 6576 H 612.259 -4.10528 0.678683 0
M  V30 6577 H 611.135 -5.47018 0.454176 0
M  V30 6578 H 611.396 -4.33621 -0.861683 0
M  V30 6579 N 610.455 -0.639598 -1.44038 0
M  V30 6580 C 611.732 -0.078012 -1.95444 0
M  V30 6581 C 612.112 1.39847 -1.58133 0
M  V30 6582 O 611.46 2.11714 -0.859614 0
M  V30 6583 C 611.67 -0.309832 -3.47622 0
M  V30 6584 C 613.018 -0.207521 -4.24093 0
M  V30 6585 O 614.042 -0.241653 -3.55379 0
M  V30 6586 O 612.901 -0.119641 -5.46369 0
M  V30 6587 H 609.995 0.0174534 -0.826816 0
M  V30 6588 H 612.541 -0.711891 -1.54046 0
M  V30 6589 H 611.313 -1.33401 -3.67858 0
M  V30 6590 H 610.936 0.357777 -3.95987 0
M  V30 6591 N 611.933 1.52934 -0.380664 0
M  V30 6592 C 612.881 2.27727 0.47361 0
M  V30 6593 C 613.875 1.31288 1.0705 0
M  V30 6594 O 615.081 1.4886 1.01197 0
M  V30 6595 H 611.456 0.732189 0.171475 0
M  V30 6596 H 613.427 2.97864 -0.178785 0
M  V30 6597 C 612.176 3.0904 1.59341 0
M  V30 6598 H 611.499 3.831 1.14343 0
M  V30 6599 H 612.939 3.64527 2.16555 0
M  V30 6600 C 611.398 2.20813 2.54447 0
M  V30 6601 O 611.928 1.82907 3.57642 0
M  V30 6602 N 610.134 1.85145 2.23986 0
M  V30 6603 H 609.681 2.16169 1.40103 0
M  V30 6604 H 609.639 1.26402 2.87871 0
M  V30 6605 N 613.412 0.11024 1.57214 0
M  V30 6606 C 614.362 -0.854147 2.11396 0
M  V30 6607 C 615.346 -1.23394 1.03261 0
M  V30 6608 O 616.538 -1.20649 1.2951 0
M  V30 6609 C 613.667 -2.10752 2.70995 0
M  V30 6610 C 612.753 -1.75249 3.86198 0
M  V30 6611 N 613.144 -1.10377 4.9361 0
M  V30 6612 C 611.442 -2.04763 3.96217 0
M  V30 6613 C 612.143 -0.938199 5.74084 0
M  V30 6614 N 611.119 -1.46039 5.23616 0
M  V30 6615 H 614.921 -0.348897 2.91822 0
M  V30 6616 H 612.435 -0.0925071 1.62136 0
M  V30 6617 H 614.432 -2.80801 3.0815 0
M  V30 6618 H 613.092 -2.61829 1.9203 0
M  V30 6619 H 614.103 -0.768785 5.12162 0
M  V30 6620 H 610.78 -2.57948 3.28282 0
M  V30 6621 H 612.17 -0.429678 6.70525 0
M  V30 6622 N 614.89 -1.56749 -0.16351 0
M  V30 6623 C 615.838 -1.97939 -1.22159 0
M  V30 6624 C 616.832 -0.869288 -1.45395 0
M  V30 6625 O 618.038 -1.05443 -1.45883 0
M  V30 6626 H 614.413 -0.629869 -0.410815 0
M  V30 6627 H 616.384 -2.86115 -0.847381 0
M  V30 6628 C 615.133 -2.36206 -2.55151 0
M  V30 6629 H 614.456 -3.2117 -2.38097 0
M  V30 6630 H 615.896 -2.68863 -3.27854 0
M  V30 6631 C 614.355 -1.20841 -3.14482 0
M  V30 6632 O 614.885 -0.500258 -3.98573 0
M  V30 6633 N 613.091 -0.976943 -2.73686 0
M  V30 6634 H 612.638 -1.55457 -2.05404 0
M  V30 6635 H 612.596 -0.206912 -3.13718 0
M  V30 6636 N 616.368 0.432326 -1.51554 0
M  V30 6637 C 617.616 1.17901 -1.64146 0
M  V30 6638 C 617.937 1.91604 -0.362367 0
M  V30 6639 O 617.207 1.85764 0.621968 0
M  V30 6640 H 615.787 0.438206 -0.604966 0
M  V30 6641 H 618.449 0.495172 -1.88505 0
M  V30 6642 H 617.545 1.90584 -2.47152 0
M  V30 6643 N 617.846 1.41785 0.688094 0
M  V30 6644 C 618.779 1.38643 1.81255 0
M  V30 6645 C 619.757 0.252583 1.60626 0
M  V30 6646 O 620.941 0.440691 1.83276 0
M  V30 6647 C 618.068 1.16449 3.18053 0
M  V30 6648 C 617.114 2.32651 3.57457 0
M  V30 6649 S 617.947 3.95152 3.61407 0
M  V30 6650 C 619.103 3.75275 5.00919 0
M  V30 6651 H 619.336 2.33799 1.83644 0
M  V30 6652 H 616.869 1.28398 0.857513 0
M  V30 6653 H 618.827 1.0433 3.97021 0
M  V30 6654 H 617.488 0.229002 3.13264 0
M  V30 6655 H 616.681 2.12835 4.56856 0
M  V30 6656 H 616.283 2.41215 2.85817 0
M  V30 6657 H 618.575 3.35443 5.88629 0
M  V30 6658 H 619.518 4.74302 5.25778 0
M  V30 6659 H 619.926 3.08401 4.7281 0
M  V30 6660 N 619.324 -0.923095 1.27737 0
M  V30 6661 C 620.254 -2.04124 1.13383 0
M  V30 6662 C 621.235 -1.70066 0.0340658 0
M  V30 6663 O 622.42 -1.93068 0.209383 0
M  V30 6664 C 619.55 -3.3831 0.785097 0
M  V30 6665 C 618.504 -3.86496 1.8386 0
M  V30 6666 C 617.83 -5.1754 1.34373 0
M  V30 6667 C 619.13 -4.09381 3.24353 0
M  V30 6668 H 620.824 -2.1639 2.06919 0
M  V30 6669 H 618.37 -1.03976 0.996243 0
M  V30 6670 H 620.323 -4.16016 0.671485 0
M  V30 6671 H 619.047 -3.2607 -0.185969 0
M  V30 6672 H 617.706 -3.10987 1.9412 0
M  V30 6673 H 617.354 -5.01696 0.361989 0
M  V30 6674 H 617.054 -5.50751 2.04811 0
M  V30 6675 H 618.578 -5.97811 1.24315 0
M  V30 6676 H 619.992 -4.77641 3.17067 0
M  V30 6677 H 618.389 -4.53906 3.92542 0
M  V30 6678 H 619.459 -3.14515 3.69064 0
M  V30 6679 N 620.802 -1.09834 -1.13024 0
M  V30 6680 C 621.712 -0.753731 -2.22162 0
M  V30 6681 C 622.728 0.246105 -1.72251 0
M  V30 6682 O 623.904 0.0864051 -2.01215 0
M  V30 6683 C 620.969 -0.183958 -3.46212 0
M  V30 6684 C 620.03 -1.24028 -4.10993 0
M  V30 6685 C 619.263 -0.697597 -5.29121 0
M  V30 6686 O 619.486 0.478092 -5.68393 0
M  V30 6687 O 618.42 -1.4546 -5.84059 0
M  V30 6688 H 622.246 -1.66456 -2.5402 0
M  V30 6689 H 619.831 -0.873026 -1.21238 0
M  V30 6690 H 621.713 0.130257 -4.21199 0
M  V30 6691 H 620.388 0.699823 -3.16045 0
M  V30 6692 H 619.295 -1.60725 -3.37814 0
M  V30 6693 H 620.628 -2.09685 -4.45301 0
M  V30 6694 N 622.28 1.30327 -0.886154 0
M  V30 6695 C 623.21 2.30549 -0.370028 0
M  V30 6696 C 624.191 1.61039 0.547751 0
M  V30 6697 O 625.376 1.8864 0.461353 0
M  V30 6698 C 622.506 3.44808 0.415275 0
M  V30 6699 C 621.46 4.26024 -0.41085 0
M  V30 6700 C 620.786 5.32347 0.501128 0
M  V30 6701 C 622.086 4.95433 -1.65359 0
M  V30 6702 H 623.78 2.73969 -1.20754 0
M  V30 6703 H 621.326 1.3171 -0.582097 0
M  V30 6704 H 623.279 4.13986 0.78699 0
M  V30 6705 H 622.003 3.00197 1.28644 0
M  V30 6706 H 620.662 3.58535 -0.764719 0
M  V30 6707 H 620.31 4.83982 1.37004 0
M  V30 6708 H 620.01 5.87581 -0.0478356 0
M  V30 6709 H 621.534 6.0438 0.869333 0
M  V30 6710 H 622.948 5.5712 -1.35239 0
M  V30 6711 H 621.345 5.60537 -2.14284 0
M  V30 6712 H 622.415 4.21493 -2.39733 0
M  V30 6713 N 623.758 0.647228 1.43697 0
M  V30 6714 C 625.006 0.157876 2.01482 0
M  V30 6715 C 625.327 -1.23039 1.51282 0
M  V30 6716 O 624.597 -1.82071 0.722982 0
M  V30 6717 H 623.177 0.0553745 0.744945 0
M  V30 6718 H 625.839 0.83755 1.75986 0
M  V30 6719 H 624.935 0.137895 3.11795 0
M  V30 6720 N 625.236 -1.5273 0.388769 0
M  V30 6721 C 626.464 -2.05992 -0.193677 0
M  V30 6722 C 626.879 -1.26053 -1.40557 0
M  V30 6723 O 626.236 -0.307049 -1.79898 0
M  V30 6724 C 626.287 -3.57068 -0.564321 0
M  V30 6725 O 626.008 -4.3398 0.599422 0
M  V30 6726 C 627.509 -4.26674 -1.20269 0
M  V30 6727 H 624.729 -0.670358 -0.0293445 0
M  V30 6728 H 627.273 -1.96857 0.553844 0
M  V30 6729 H 625.428 -3.66277 -1.26174 0
M  V30 6730 H 625.842 -5.2367 0.294895 0
M  V30 6731 H 627.316 -5.33625 -1.4124 0
M  V30 6732 H 627.793 -3.81854 -2.16989 0
M  V30 6733 H 628.399 -4.2178 -0.546047 0
M  V30 6734 N 626.714 -0.118576 -1.57153 0
M  V30 6735 C 627.939 0.550582 -1.99958 0
M  V30 6736 C 628.364 1.59458 -0.997736 0
M  V30 6737 O 627.722 1.81274 0.0306269 0
M  V30 6738 C 627.77 1.15379 -3.41643 0
M  V30 6739 O 626.874 2.26932 -3.44348 0
M  V30 6740 H 626.215 0.137567 -0.649593 0
M  V30 6741 H 628.745 -0.206926 -2.03551 0
M  V30 6742 H 628.755 1.48942 -3.79843 0
M  V30 6743 H 627.43 0.389087 -4.14076 0
M  V30 6744 H 626.007 1.94812 -3.17967 0
M  V30 6745 N 628.193 1.56834 0.155195 0
M  V30 6746 C 629.103 2.009 1.21146 0
M  V30 6747 C 630.119 0.923029 1.475 0
M  V30 6748 O 631.295 1.23189 1.59331 0
M  V30 6749 C 628.36 2.37378 2.52691 0
M  V30 6750 C 627.421 3.59883 2.34057 0
M  V30 6751 C 626.654 3.94612 3.59329 0
M  V30 6752 O 626.877 3.30104 4.65175 0
M  V30 6753 O 625.811 4.87895 3.52479 0
M  V30 6754 H 629.637 2.9105 0.867371 0
M  V30 6755 H 627.222 1.44916 0.363298 0
M  V30 6756 H 629.104 2.61737 3.3026 0
M  V30 6757 H 627.779 1.50385 2.86646 0
M  V30 6758 H 626.686 3.40722 1.54465 0
M  V30 6759 H 628.019 4.47468 2.0502 0
M  V30 6760 N 629.671 -0.424282 1.51781 0
M  V30 6761 C 631.087 -0.761768 1.40247 0
M  V30 6762 C 631.287 -1.95324 0.495041 0
M  V30 6763 O 630.343 -2.5246 -0.0448949 0
M  V30 6764 C 631.656 -1.0299 2.82513 0
M  V30 6765 C 633.204 -1.13354 2.91753 0
M  V30 6766 C 633.679 -1.43453 4.34954 0
M  V30 6767 N 635.17 -1.5035 4.3812 0
M  V30 6768 C 635.905 -1.75236 5.45967 0
M  V30 6769 N 635.401 -1.97827 6.63955 0
M  V30 6770 N 637.194 -1.77126 5.33463 0
M  V30 6771 H 629.345 0.360228 2.09323 0
M  V30 6772 H 631.608 0.0988128 0.942836 0
M  V30 6773 H 631.314 -0.226961 3.50967 0
M  V30 6774 H 631.188 -1.95411 3.22637 0
M  V30 6775 H 633.575 -1.92709 2.23489 0
M  V30 6776 H 633.656 -0.188041 2.55108 0
M  V30 6777 H 633.3 -0.646209 5.03772 0
M  V30 6778 H 633.23 -2.3923 4.69123 0
M  V30 6779 H 635.721 -1.34742 3.53062 0
M  V30 6780 H 636.034 -2.16223 7.41935 0
M  V30 6781 H 634.379 -1.95123 6.67047 0
M  V30 6782 H 637.57 -1.59005 4.40267 0
M  V30 6783 H 637.743 -1.96182 6.17589 0
M  V30 6784 N 631.149 -1.42148 -0.680565 0
M  V30 6785 C 632.397 -1.42029 -1.43779 0
M  V30 6786 C 632.718 -0.0356347 -1.94967 0
M  V30 6787 O 631.988 0.924936 -1.7269 0
M  V30 6788 H 630.568 -0.522835 -0.533529 0
M  V30 6789 H 633.23 -1.7752 -0.804538 0
M  V30 6790 H 632.326 -2.11658 -2.29363 0
M  V30 6791 N 632.627 0.916307 -1.28225 0
M  V30 6792 C 633.875 1.6619 -1.15002 0
M  V30 6793 C 634.196 1.92642 0.302329 0
M  V30 6794 O 633.466 1.54076 1.20985 0
M  V30 6795 H 632.046 0.615964 -0.422608 0
M  V30 6796 H 634.708 1.09963 -1.60917 0
M  V30 6797 H 633.804 2.62533 -1.68769 0
M  V30 6798 N 634.105 1.10431 1.1244 0
M  V30 6799 C 635.035 0.775143 2.20258 0
M  V30 6800 C 636.016 -0.25186 1.68225 0
M  V30 6801 O 637.201 -0.117637 1.93843 0
M  V30 6802 C 634.331 0.206133 3.46688 0
M  V30 6803 C 633.285 1.16382 4.11873 0
M  V30 6804 C 632.611 0.456014 5.32752 0
M  V30 6805 C 633.911 2.5104 4.58013 0
M  V30 6806 H 635.605 1.67665 2.4805 0
M  V30 6807 H 633.151 0.807595 1.19222 0
M  V30 6808 H 635.104 -0.036291 4.21384 0
M  V30 6809 H 633.828 -0.730614 3.18323 0
M  V30 6810 H 632.487 1.39169 3.39157 0
M  V30 6811 H 632.135 -0.485203 5.00654 0
M  V30 6812 H 631.835 1.09466 5.77314 0
M  V30 6813 H 633.359 0.222135 6.10196 0
M  V30 6814 H 634.773 2.32401 5.24083 0
M  V30 6815 H 633.17 3.10789 5.13352 0
M  V30 6816 H 634.24 3.11039 3.71998 0
M  V30 6817 N 635.583 -1.29855 0.893053 0
M  V30 6818 C 636.808 -2.00512 0.530066 0
M  V30 6819 C 637.233 -1.66446 -0.876199 0
M  V30 6820 O 636.591 -0.885446 -1.58207 0
M  V30 6821 C 636.639 -3.53308 0.721505 0
M  V30 6822 O 635.743 -4.11764 -0.228994 0
M  V30 6823 H 635.084 -0.630617 0.207891 0
M  V30 6824 H 637.614 -1.6551 1.20282 0
M  V30 6825 H 637.624 -4.03206 0.623599 0
M  V30 6826 H 636.299 -3.77439 1.74678 0
M  V30 6827 H 634.876 -3.72805 -0.0841034 0
M  V30 6828 N 637.061 -0.65484 -1.43351 0
M  V30 6829 C 638.31 -0.166215 -2.01014 0
M  V30 6830 C 638.623 1.22764 -1.52278 0
M  V30 6831 O 639.829 1.81156 -2.02224 0
M  V30 6832 C 638.285 -0.246341 -3.59056 0
M  V30 6833 C 637.893 -1.64299 -4.16785 0
M  V30 6834 C 639.637 0.184597 -4.24098 0
M  V30 6835 C 637.544 -1.67695 -5.67126 0
M  V30 6836 H 636.474 -0.0583769 -0.751737 0
M  V30 6837 H 639.125 -0.817111 -1.64303 0
M  V30 6838 H 637.507 0.472092 -3.93176 0
M  V30 6839 H 638.681 -2.3869 -3.94162 0
M  V30 6840 H 636.996 -2.02004 -3.6412 0
M  V30 6841 H 639.593 0.179088 -5.344 0
M  V30 6842 H 639.936 1.21632 -3.98135 0
M  V30 6843 H 640.469 -0.482141 -3.94867 0
M  V30 6844 H 637.208 -2.68783 -5.9786 0
M  V30 6845 H 636.728 -0.976313 -5.91801 0
M  V30 6846 H 638.407 -1.42142 -6.31193 0
M  V30 6847 N 638.539 1.52521 -0.396863 0
M  V30 6848 C 639.955 1.5953 -0.0471659 0
M  V30 6849 C 640.155 1.41044 1.43906 0
M  V30 6850 O 639.211 1.23122 2.20448 0
M  V30 6851 C 640.524 2.95972 -0.531113 0
M  V30 6852 C 642.072 3.09172 -0.488024 0
M  V30 6853 C 642.547 4.48075 -0.948281 0
M  V30 6854 N 644.038 4.54281 -0.9046 0
M  V30 6855 C 644.773 5.60007 -1.23205 0
M  V30 6856 N 644.269 6.73343 -1.63036 0
M  V30 6857 N 646.062 5.50151 -1.15282 0
M  V30 6858 H 638.213 1.62786 -1.36435 0
M  V30 6859 H 640.476 0.76514 -0.559701 0
M  V30 6860 H 640.182 3.14741 -1.56942 0
M  V30 6861 H 640.056 3.77143 0.0657922 0
M  V30 6862 H 642.443 2.90095 0.541211 0
M  V30 6863 H 642.524 2.29937 -1.12083 0
M  V30 6864 H 642.168 4.67894 -1.97578 0
M  V30 6865 H 642.098 5.25788 -0.292412 0
M  V30 6866 H 644.589 3.72918 -0.6116 0
M  V30 6867 H 644.902 7.49992 -1.86365 0
M  V30 6868 H 643.247 6.74655 -1.66929 0
M  V30 6869 H 646.438 4.6049 -0.840602 0
M  V30 6870 H 646.611 6.32444 -1.41133 0
M  V30 6871 N 640.017 0.126909 1.57088 0
M  V30 6872 C 640.98 -0.806097 2.14557 0
M  V30 6873 C 641.98 -1.18918 1.08236 0
M  V30 6874 O 643.17 -1.11339 1.33975 0
M  V30 6875 C 640.302 -2.09116 2.69227 0
M  V30 6876 H 641.495 -0.306522 2.98329 0
M  V30 6877 H 639.048 -0.122393 1.5582 0
M  V30 6878 H 639.783 -2.63486 1.89065 0
M  V30 6879 H 639.568 -1.82588 3.46993 0
M  V30 6880 H 641.058 -2.75794 3.13572 0
M  V30 6881 N 641.495 -1.56914 -0.146875 0
M  V30 6882 C 642.741 -1.84515 -0.855914 0
M  V30 6883 C 643.096 -0.710909 -1.78784 0
M  V30 6884 O 642.389 0.291123 -1.89375 0
M  V30 6885 C 642.583 -3.16128 -1.66727 0
M  V30 6886 C 642.412 -4.42246 -0.815405 0
M  V30 6887 C 641.182 -5.03006 -0.480976 0
M  V30 6888 C 643.38 -5.14094 -0.145684 0
M  V30 6889 N 641.362 -6.12695 0.384476 0
M  V30 6890 C 642.733 -6.17282 0.579902 0
M  V30 6891 C 644.788 -4.97856 -0.0663705 0
M  V30 6892 C 643.491 -7.0599 1.37731 0
M  V30 6893 C 645.517 -5.87028 0.71778 0
M  V30 6894 C 644.879 -6.89698 1.43165 0
M  V30 6895 H 640.978 -0.725829 -0.291026 0
M  V30 6896 H 643.562 -1.94322 -0.121279 0
M  V30 6897 H 641.733 -3.07468 -2.37315 0
M  V30 6898 H 643.465 -3.31635 -2.31949 0
M  V30 6899 H 640.22 -4.66504 -0.816789 0
M  V30 6900 H 640.644 -6.72158 0.80823 0
M  V30 6901 H 645.286 -4.18465 -0.603929 0
M  V30 6902 H 643.004 -7.84809 1.92613 0
M  V30 6903 H 646.59 -5.76532 0.781141 0
M  V30 6904 H 645.47 -7.57505 2.02868 0
M  V30 6905 N 642.974 0.416227 -1.52004 0
M  V30 6906 C 643.904 1.51365 -1.77795 0
M  V30 6907 C 644.885 1.58059 -0.628601 0
M  V30 6908 O 646.07 1.73447 -0.873478 0
M  V30 6909 C 643.2 2.89256 -1.92219 0
M  V30 6910 C 642.154 2.97415 -3.0778 0
M  V30 6911 C 641.48 4.37492 -3.07417 0
M  V30 6912 C 642.78 2.69551 -4.47369 0
M  V30 6913 H 644.474 1.30033 -2.69688 0
M  V30 6914 H 642.02 0.624112 -1.29772 0
M  V30 6915 H 643.973 3.66008 -2.08845 0
M  V30 6916 H 642.697 3.11866 -0.969917 0
M  V30 6917 H 641.356 2.23107 -2.90893 0
M  V30 6918 H 641.004 4.571 -2.09925 0
M  V30 6919 H 640.704 4.43877 -3.85029 0
M  V30 6920 H 642.228 5.16188 -3.26162 0
M  V30 6921 H 643.642 3.36028 -4.64497 0
M  V30 6922 H 642.039 2.87321 -5.26846 0
M  V30 6923 H 643.109 1.65029 -4.55953 0
M  V30 6924 N 644.452 1.42507 0.673017 0
M  V30 6925 C 645.863 1.38347 1.25367 0
M  V30 6926 C 646.214 0.0776327 1.96046 0
M  V30 6927 O 645.339 -0.823571 2.00116 0
M  V30 6928 C 645.934 2.506 2.28002 0
M  V30 6929 C 644.493 2.49767 2.81591 0
M  V30 6930 C 643.64 2.293 1.55938 0
M  V30 6931 H 646.591 1.51695 0.466288 0
M  V30 6932 H 646.612 2.20953 3.09774 0
M  V30 6933 H 646.124 3.45627 1.76532 0
M  V30 6934 H 644.225 1.58563 3.37177 0
M  V30 6935 H 644.338 3.46867 3.30485 0
M  V30 6936 H 642.702 1.77594 1.82572 0
M  V30 6937 H 643.485 3.26385 1.06431 0
M  V30 6938 N 645.93 -0.909495 1.28709 0
M  V30 6939 C 647.176 -1.66151 1.16283 0
M  V30 6940 C 647.509 -1.92067 -0.287069 0
M  V30 6941 O 646.784 -1.52409 -1.20837 0
M  V30 6942 C 647.067 -3.01676 1.9663 0
M  V30 6943 C 646.92 -2.82888 3.49707 0
M  V30 6944 C 648.239 -4.02274 1.78504 0
M  V30 6945 H 645.358 -0.602966 0.423793 0
M  V30 6946 H 648 -1.05418 1.58073 0
M  V30 6947 H 646.15 -3.53515 1.61119 0
M  V30 6948 H 647.822 -2.38026 3.95147 0
M  V30 6949 H 646.065 -2.17862 3.75125 0
M  V30 6950 H 646.736 -3.79147 4.01187 0
M  V30 6951 H 649.212 -3.59511 2.09503 0
M  V30 6952 H 648.088 -4.95056 2.37088 0
M  V30 6953 H 648.349 -4.35903 0.737647 0
M  V30 6954 N 647.408 -1.11026 -1.11852 0
M  V30 6955 C 648.819 -0.873203 -1.65021 0
M  V30 6956 C 649.17 0.595364 -1.86949 0
M  V30 6957 O 648.295 1.45645 -1.60051 0
M  V30 6958 C 648.89 -1.57859 -2.99777 0
M  V30 6959 C 647.449 -1.38807 -3.49871 0
M  V30 6960 C 646.596 -1.62403 -2.24768 0
M  V30 6961 H 649.547 -1.26712 -0.955503 0
M  V30 6962 H 649.568 -1.02111 -3.66543 0
M  V30 6963 H 649.08 -2.6474 -2.83786 0
M  V30 6964 H 647.181 -0.341163 -3.71035 0
M  V30 6965 H 647.294 -2.13421 -4.28938 0
M  V30 6966 H 645.658 -1.04714 -2.32179 0
M  V30 6967 H 646.441 -2.70549 -2.11324 0
M  V30 6968 N 648.886 1.2938 -0.899927 0
M  V30 6969 C 650.132 1.9584 -0.526742 0
M  V30 6970 C 650.465 1.70774 0.924651 0
M  V30 6971 O 649.74 1.02084 1.65557 0
M  V30 6972 C 650.023 3.50638 -0.820062 0
M  V30 6973 C 649.876 3.85161 -2.32317 0
M  V30 6974 C 651.195 4.3903 -0.30671 0
M  V30 6975 H 648.314 0.711322 -0.192848 0
M  V30 6976 H 650.956 1.52992 -1.12665 0
M  V30 6977 H 649.106 3.87265 -0.309491 0
M  V30 6978 H 650.778 3.58477 -2.9033 0
M  V30 6979 H 649.021 3.32696 -2.78381 0
M  V30 6980 H 649.692 4.93204 -2.47898 0
M  V30 6981 H 652.168 4.09396 -0.743908 0
M  V30 6982 H 651.044 5.46226 -0.541144 0
M  V30 6983 H 651.305 4.34937 0.792588 0
M  V30 6984 N 650.364 0.662433 1.43002 0
M  V30 6985 C 651.592 0.187615 2.06048 0
M  V30 6986 C 652.007 -1.15039 1.49705 0
M  V30 6987 O 651.364 -1.71209 0.631956 0
M  V30 6988 C 651.415 0.100498 3.6136 0
M  V30 6989 O 651.136 1.38562 4.15611 0
M  V30 6990 C 652.637 -0.399298 4.41498 0
M  V30 6991 H 649.857 0.0941675 0.664359 0
M  V30 6992 H 652.401 0.905681 1.83351 0
M  V30 6993 H 650.556 -0.568181 3.83211 0
M  V30 6994 H 650.97 1.25084 5.09366 0
M  V30 6995 H 652.444 -0.409187 5.50481 0
M  V30 6996 H 652.921 -1.43232 4.15188 0
M  V30 6997 H 653.527 0.23721 4.24638 0
M  V30 6998 N 651.842 -1.52309 0.404946 0
M  V30 6999 C 653.258 -1.59503 0.0556255 0
M  V30 7000 C 653.458 -1.41805 -1.43156 0
M  V30 7001 O 652.514 -1.2429 -2.19792 0
M  V30 7002 C 653.827 -2.95687 0.546801 0
M  V30 7003 C 655.375 -3.08909 0.504413 0
M  V30 7004 C 655.85 -4.47566 0.97203 0
M  V30 7005 N 657.341 -4.53795 0.928679 0
M  V30 7006 C 658.076 -5.59346 1.26174 0
M  V30 7007 N 657.572 -6.72469 1.66604 0
M  V30 7008 N 659.365 -5.49532 1.18198 0
M  V30 7009 H 651.516 -1.6206 1.37296 0
M  V30 7010 H 653.779 -0.762161 0.563751 0
M  V30 7011 H 653.485 -3.13905 1.58609 0
M  V30 7012 H 653.359 -3.77172 -0.0457905 0
M  V30 7013 H 655.746 -2.90378 -0.525819 0
M  V30 7014 H 655.827 -2.2934 1.13301 0
M  V30 7015 H 655.471 -4.6684 2.00057 0
M  V30 7016 H 655.401 -5.25625 0.320292 0
M  V30 7017 H 657.892 -3.72588 0.631369 0
M  V30 7018 H 658.205 -7.48993 1.9034 0
M  V30 7019 H 656.55 -6.73761 1.70504 0
M  V30 7020 H 659.741 -4.60038 0.865011 0
M  V30 7021 H 659.914 -6.31687 1.44485 0
M  V30 7022 N 653.32 -0.135238 -1.57019 0
M  V30 7023 C 654.283 0.794707 -2.14981 0
M  V30 7024 C 655.283 1.18342 -1.08866 0
M  V30 7025 O 656.473 1.10627 -1.34563 0
M  V30 7026 C 653.605 2.07685 -2.70333 0
M  V30 7027 H 654.798 0.290696 -2.98488 0
M  V30 7028 H 652.351 0.114128 -1.55883 0
M  V30 7029 H 653.086 2.6248 -1.9046 0
M  V30 7030 H 652.871 1.80745 -3.47957 0
M  V30 7031 H 654.361 2.74127 -3.1503 0
M  V30 7032 N 654.798 1.5699 0.138552 0
M  V30 7033 C 655.73 1.95515 1.1961 0
M  V30 7034 C 656.743 0.852002 1.38726 0
M  V30 7035 O 657.932 1.13038 1.38147 0
M  V30 7036 C 655.032 2.2213 2.55952 0
M  V30 7037 C 654.205 3.53424 2.57702 0
M  V30 7038 C 653.264 3.6848 3.75645 0
M  V30 7039 O 652.29 4.4079 3.60129 0
M  V30 7040 N 653.492 3.05777 4.93438 0
M  V30 7041 H 656.257 2.86838 0.868557 0
M  V30 7042 H 653.818 1.58542 0.328033 0
M  V30 7043 H 655.81 2.29435 3.33379 0
M  V30 7044 H 654.38 1.3703 2.80965 0
M  V30 7045 H 653.6 3.57484 1.6613 0
M  V30 7046 H 654.888 4.39759 2.55909 0
M  V30 7047 H 654.286 2.46961 5.08947 0
M  V30 7048 H 652.843 3.18631 5.6861 0
M  V30 7049 N 656.276 -0.40816 1.52223 0
M  V30 7050 C 657.524 -1.15274 1.66001 0
M  V30 7051 C 657.845 -1.91003 0.392803 0
M  V30 7052 O 657.115 -1.8673 -0.592336 0
M  V30 7053 H 655.695 -0.428526 0.611861 0
M  V30 7054 H 658.357 -0.46512 1.89269 0
M  V30 7055 H 657.453 -1.86628 2.50153 0
M  V30 7056 N 657.755 -1.42862 -0.66545 0
M  V30 7057 C 658.983 -1.47246 -1.45349 0
M  V30 7058 C 659.398 -0.0865944 -1.88601 0
M  V30 7059 O 658.755 0.900652 -1.58728 0
M  V30 7060 C 658.806 -2.40772 -2.6965 0
M  V30 7061 O 658.527 -3.73968 -2.2821 0
M  V30 7062 C 660.028 -2.54272 -3.63126 0
M  V30 7063 H 657.248 -0.500497 -0.446927 0
M  V30 7064 H 659.792 -1.87477 -0.816871 0
M  V30 7065 H 657.947 -2.0377 -3.29479 0
M  V30 7066 H 658.361 -4.24146 -3.08546 0
M  V30 7067 H 659.835 -3.23815 -4.47043 0
M  V30 7068 H 660.312 -1.58364 -4.09656 0
M  V30 7069 H 660.918 -2.92036 -3.09185 0
M  V30 7070 N 659.233 0.902656 -1.29189 0
M  V30 7071 C 660.461 1.68639 -1.19869 0
M  V30 7072 C 660.876 1.87254 0.241121 0
M  V30 7073 O 660.233 1.40745 1.16177 0
M  V30 7074 C 660.284 3.07251 -1.90471 0
M  V30 7075 O 660.005 2.89488 -3.28829 0
M  V30 7076 C 661.506 4.01653 -1.8759 0
M  V30 7077 H 658.726 0.526802 -0.415596 0
M  V30 7078 H 661.27 1.12901 -1.7051 0
M  V30 7079 H 659.425 3.59774 -1.43672 0
M  V30 7080 H 659.839 3.77296 -3.64346 0
M  V30 7081 H 661.313 4.96339 -2.4156 0
M  V30 7082 H 661.79 4.30881 -0.850756 0
M  V30 7083 H 662.396 3.55061 -2.34119 0
M  V30 7084 N 660.711 1.11618 1.11262 0
M  V30 7085 C 661.658 0.7762 2.17356 0
M  V30 7086 C 662.628 -0.253152 1.6416 0
M  V30 7087 O 663.813 -0.129655 1.90359 0
M  V30 7088 C 660.953 0.227581 3.44349 0
M  V30 7089 C 660.066 1.31372 4.1154 0
M  V30 7090 C 659.201 0.72544 5.26223 0
M  V30 7091 C 658.24 1.7913 5.85302 0
M  V30 7092 N 657.377 1.22237 6.91377 0
M  V30 7093 H 662.217 1.68508 2.45783 0
M  V30 7094 H 659.754 0.841475 1.20655 0
M  V30 7095 H 661.712 -0.108483 4.17059 0
M  V30 7096 H 660.342 -0.644486 3.16301 0
M  V30 7097 H 659.394 1.7667 3.36885 0
M  V30 7098 H 660.706 2.12005 4.51504 0
M  V30 7099 H 659.86 0.339541 6.05749 0
M  V30 7100 H 658.599 -0.112188 4.87571 0
M  V30 7101 H 657.604 2.18648 5.04453 0
M  V30 7102 H 658.829 2.63199 6.26022 0
M  V30 7103 H 656.775 0.406423 6.5474 0
M  V30 7104 H 656.692 1.9654 7.30006 0
M  V30 7105 H 657.96 0.863426 7.74703 0
M  V30 7106 N 662.189 -1.289 0.906776 0
M  V30 7107 C 663.099 -2.31256 0.394707 0
M  V30 7108 C 664.115 -1.66231 -0.514121 0
M  V30 7109 O 665.291 -1.97347 -0.401994 0
M  V30 7110 C 662.356 -3.44792 -0.363191 0
M  V30 7111 C 661.417 -4.25391 0.578012 0
M  V30 7112 C 660.65 -5.33506 -0.143811 0
M  V30 7113 O 660.873 -5.53786 -1.36665 0
M  V30 7114 O 659.807 -5.99673 0.5173 0
M  V30 7115 H 663.633 -2.77051 1.24405 0
M  V30 7116 H 661.218 -1.33466 0.671346 0
M  V30 7117 H 663.1 -4.139 -0.791503 0
M  V30 7118 H 661.775 -3.01093 -1.18848 0
M  V30 7119 H 660.682 -3.58899 1.05558 0
M  V30 7120 H 662.015 -4.72752 1.36992 0
M  V30 7121 N 663.667 -0.670007 -1.42649 0
M  V30 7122 C 664.915 -0.18991 -2.01206 0
M  V30 7123 C 665.236 1.20617 -1.53221 0
M  V30 7124 O 664.506 1.80898 -0.751856 0
M  V30 7125 H 663.086 -0.0672189 -0.743969 0
M  V30 7126 H 665.748 -0.865442 -1.74631 0
M  V30 7127 H 664.844 -0.187481 -3.11536 0
M  V30 7128 O 665.184 1.51659 -0.55515 0
M  V30 7129 H 665.875 1.9363 -0.0521056 0
M  V30 END ATOM
M  V30 BEGIN BOND
M  V30 END BOND
M  V30 END CTAB
M  END
$$$$
