drugbank_target|Q9UI12 V-type proton ATPase subunit H (DB01133)
 OpenBabel12092121233D

  0  0  0     0  0            999 V3000
M  V30 BEGIN CTAB
M  V30 COUNTS 7815 7889 0 0 0
M  V30 BEGIN ATOM
M  V30 1 H -0.908 1.98254 -0.117106 0
M  V30 2 N 0 1.576 0 0
M  V30 3 C 0.933 2.03868 1.02534 0
M  V30 4 C 1.911 0.928543 1.3348 0
M  V30 5 O 3.095 1.19667 1.45644 0
M  V30 6 C 0.222 2.43627 2.35294 0
M  V30 7 C -0.732 3.65373 2.2001 0
M  V30 8 S 0.101 5.13292 1.52614 0
M  V30 9 C 1.257 5.56322 2.86805 0
M  V30 10 H 1.49 2.90518 0.631377 0
M  V30 11 H -0.977 1.52953 0.210867 0
M  V30 12 H 0.981 2.67203 3.11629 0
M  V30 13 H -0.358 1.57376 2.7183 0
M  V30 14 H -1.165 3.90944 3.18086 0
M  V30 15 H -1.563 3.418 1.51819 0
M  V30 16 H 0.729 5.58782 3.83104 0
M  V30 17 H 1.672 6.56266 2.65933 0
M  V30 18 H 2.08 4.83886 2.90714 0
M  V30 19 N 1.4781 -0.272755 1.55222 0
M  V30 20 C 2.7061 -1.02255 1.79865 0
M  V30 21 C 3.1211 -1.79924 0.572088 0
M  V30 22 O 2.4781 -1.76638 -0.458842 0
M  V30 23 C 2.5291 -1.98094 3.02392 0
M  V30 24 O 2.2501 -1.23572 4.20311 0
M  V30 25 C 3.7511 -2.84884 3.39641 0
M  V30 26 H 0.9711 -0.302057 0.599168 0
M  V30 27 H 3.5151 -0.303465 2.02236 0
M  V30 28 H 1.6701 -2.65465 2.82147 0
M  V30 29 H 2.0841 -1.88172 4.89583 0
M  V30 30 H 3.5581 -3.47927 4.28545 0
M  V30 31 H 4.0351 -3.54665 2.59055 0
M  V30 32 H 4.6411 -2.23003 3.62146 0
M  V30 33 N 2.9562 -1.48159 -0.537278 0
M  V30 34 C 3.9032 -1.62138 -1.64256 0
M  V30 35 C 4.8732 -0.463668 -1.59497 0
M  V30 36 O 6.0582 -0.686241 -1.78032 0
M  V30 37 C 3.1982 -1.66028 -3.02537 0
M  V30 38 C 2.3112 -2.92855 -3.17585 0
M  V30 39 C 1.4462 -2.87952 -4.46382 0
M  V30 40 C 0.4852 -4.09516 -4.54932 0
M  V30 41 N -0.3778 -4.02733 -5.75109 0
M  V30 42 H 4.4622 -2.56529 -1.51647 0
M  V30 43 H 1.9992 -1.27224 -0.738414 0
M  V30 44 H 3.9572 -1.66265 -3.82638 0
M  V30 45 H 2.5872 -0.751331 -3.13934 0
M  V30 46 H 1.6392 -3.02395 -2.30784 0
M  V30 47 H 2.9512 -3.82822 -3.19764 0
M  V30 48 H 2.1052 -2.8655 -5.34765 0
M  V30 49 H 0.8442 -1.95702 -4.46712 0
M  V30 50 H -0.1508 -4.11201 -3.64957 0
M  V30 51 H 1.0742 -5.02917 -4.56346 0
M  V30 52 H -0.9798 -3.13299 -5.76351 0
M  V30 53 H -1.0628 -4.86397 -5.78752 0
M  V30 54 H 0.2052 -4.05379 -6.65799 0
M  V30 55 N 4.4343 0.785586 -1.36625 0
M  V30 56 C 5.3673 1.90509 -1.25625 0
M  V30 57 C 6.3453 1.62 -0.139607 0
M  V30 58 O 7.5293 1.8591 -0.31141 0
M  V30 59 C 4.6563 3.25419 -0.939158 0
M  V30 60 C 3.7023 3.72856 -2.07077 0
M  V30 61 S 4.5353 3.88162 -3.68904 0
M  V30 62 C 5.6913 5.25942 -3.39317 0
M  V30 63 H 5.9243 1.99549 -2.20381 0
M  V30 64 H 3.4573 0.945226 -1.22085 0
M  V30 65 H 5.4153 4.03346 -0.763029 0
M  V30 66 H 4.0763 3.14099 -0.00931402 0
M  V30 67 H 3.2693 4.70624 -1.80357 0
M  V30 68 H 2.8713 3.01989 -2.20632 0
M  V30 69 H 5.1633 6.10651 -2.93447 0
M  V30 70 H 6.1063 5.57668 -4.36363 0
M  V30 71 H 6.5143 4.93224 -2.74573 0
M  V30 72 N 5.9124 1.20967 1.01018 0
M  V30 73 C 7.1894 0.93264 1.71934 0
M  V30 74 C 7.5694 -0.55692 2.03621 0
M  V30 75 O 6.9174 -1.52035 1.7058 0
M  V30 76 C 7.1274 1.81233 2.98254 0
M  V30 77 C 8.4754 2.05804 3.71389 0
M  V30 78 O 9.4994 1.78539 3.08225 0
M  V30 79 O 8.3584 2.51888 4.84989 0
M  V30 80 H 5.4524 0.349272 0.749625 0
M  V30 81 H 7.9984 1.31871 1.06808 0
M  V30 82 H 6.7704 2.82067 2.71208 0
M  V30 83 H 6.3934 1.42674 3.7112 0
M  V30 84 N 7.3905 -1.2043 1.01659 0
M  V30 85 C 8.6395 -1.89118 0.701237 0
M  V30 86 C 8.9525 -1.79705 -0.772358 0
M  V30 87 O 10.1585 -2.43528 -1.20026 0
M  V30 88 C 8.6145 -3.39168 1.20388 0
M  V30 89 C 8.2225 -3.57166 2.70438 0
M  V30 90 C 9.9665 -4.1341 0.963953 0
M  V30 91 C 7.8735 -5.01042 3.14183 0
M  V30 92 H 6.8035 -0.708267 0.2586 0
M  V30 93 H 9.4545 -1.36239 1.22927 0
M  V30 94 H 7.8365 -3.91369 0.603824 0
M  V30 95 H 9.0105 -3.15351 3.35992 0
M  V30 96 H 7.3255 -2.96294 2.92572 0
M  V30 97 H 9.9225 -5.19491 1.26621 0
M  V30 98 H 10.2655 -4.16181 -0.099578 0
M  V30 99 H 10.7985 -3.67309 1.52738 0
M  V30 100 H 7.5375 -5.03426 4.19812 0
M  V30 101 H 7.0575 -5.43668 2.53348 0
M  V30 102 H 8.7365 -5.69623 3.0682 0
M  V30 103 N 8.8686 -0.792821 -1.36206 0
M  V30 104 C 10.2846 -0.474903 -1.52371 0
M  V30 105 C 10.4846 1.00622 -1.74578 0
M  V30 106 O 9.5406 1.79162 -1.77924 0
M  V30 107 C 10.8536 -1.3083 -2.70747 0
M  V30 108 C 12.4016 -1.30234 -2.84619 0
M  V30 109 C 12.8766 -2.11956 -4.06004 0
M  V30 110 N 14.3676 -2.09419 -4.13156 0
M  V30 111 C 15.1026 -2.69419 -5.06163 0
M  V30 112 N 14.5986 -3.3829 -6.04592 0
M  V30 113 N 16.3916 -2.59134 -4.98804 0
M  V30 114 H 8.5426 -1.75222 -1.20046 0
M  V30 115 H 10.8056 -0.745024 -0.586211 0
M  V30 116 H 10.5116 -2.35881 -2.6087 0
M  V30 117 H 10.3856 -0.95196 -3.6499 0
M  V30 118 H 12.7726 -0.259748 -2.93955 0
M  V30 119 H 12.8536 -1.69847 -1.91274 0
M  V30 120 H 12.4976 -3.16248 -3.97429 0
M  V30 121 H 12.4276 -1.69711 -4.98503 0
M  V30 122 H 14.9186 -1.59297 -3.42685 0
M  V30 123 H 15.2316 -3.81394 -6.7213 0
M  V30 124 H 13.5766 -3.42393 -6.04807 0
M  V30 125 H 16.7676 -2.04927 -4.20859 0
M  V30 126 H 16.9406 -3.06185 -5.711 0
M  V30 127 N 10.3467 1.47872 -0.545128 0
M  V30 128 C 11.5947 2.02093 -0.016553 0
M  V30 129 C 11.9157 1.42305 1.3332 0
M  V30 130 O 11.1857 0.593853 1.86682 0
M  V30 131 H 9.7657 0.746993 -0.00313038 0
M  V30 132 H 12.4277 1.81414 -0.712397 0
M  V30 133 H 11.5237 3.11996 0.0805422 0
M  V30 134 N 11.8248 0.280983 1.55075 0
M  V30 135 C 12.7878 -0.590896 2.21452 0
M  V30 136 C 13.7878 -1.07682 1.19421 0
M  V30 137 O 14.9778 -0.97605 1.44288 0
M  V30 138 C 12.1098 -1.81587 2.88511 0
M  V30 139 H 13.3028 -0.0112554 2.99898 0
M  V30 140 H 10.8558 0.0316438 1.56268 0
M  V30 141 H 11.5908 -2.43587 2.14093 0
M  V30 142 H 11.3758 -1.4753 3.63287 0
M  V30 143 H 12.8658 -2.43575 3.39206 0
M  V30 144 N 13.3029 -1.57598 0.00835791 0
M  V30 145 C 14.5489 -1.91211 -0.675732 0
M  V30 146 C 14.8819 -0.883139 -1.72958 0
M  V30 147 O 14.1569 0.097016 -1.94258 0
M  V30 148 C 14.4399 -3.35379 -1.31123 0
M  V30 149 C 14.2929 -4.48999 -0.268356 0
M  V30 150 C 15.6119 -3.7912 -2.23508 0
M  V30 151 H 12.7309 -0.695374 -0.244179 0
M  V30 152 H 15.3729 -1.89901 0.0613655 0
M  V30 153 H 13.5229 -3.36626 -1.93946 0
M  V30 154 H 15.1949 -4.59887 0.360844 0
M  V30 155 H 13.4379 -4.31873 0.408482 0
M  V30 156 H 14.1089 -5.46851 -0.752218 0
M  V30 157 H 16.5849 -3.79477 -1.70693 0
M  V30 158 H 15.4609 -4.80729 -2.64936 0
M  V30 159 H 15.7219 -3.13455 -3.11766 0
M  V30 160 N 14.781 0.264519 -1.55364 0
M  V30 161 C 16.058 1.01677 -1.67096 0
M  V30 162 C 16.438 2.03996 -0.543015 0
M  V30 163 O 15.786 2.23907 0.45585 0
M  V30 164 C 15.996 1.66596 -3.0667 0
M  V30 165 C 17.344 2.17442 -3.64697 0
M  V30 166 O 18.368 1.76568 -3.09358 0
M  V30 167 O 17.227 2.92439 -4.61673 0
M  V30 168 H 14.321 0.472161 -0.678965 0
M  V30 169 H 16.867 0.259703 -1.67701 0
M  V30 170 H 15.639 0.924962 -3.80211 0
M  V30 171 H 15.262 2.48968 -3.10001 0
M  V30 172 N 16.2591 1.48442 0.529413 0
M  V30 173 C 17.2221 1.62524 1.61612 0
M  V30 174 C 18.2221 0.498509 1.52877 0
M  V30 175 O 19.4121 0.76431 1.56537 0
M  V30 176 C 16.5441 1.59597 3.01233 0
M  V30 177 H 17.7371 2.59423 1.50465 0
M  V30 178 H 15.2901 1.37047 0.751514 0
M  V30 179 H 16.0251 0.641781 3.17886 0
M  V30 180 H 15.8101 2.41397 3.08982 0
M  V30 181 H 17.3001 1.72646 3.80241 0
M  V30 182 N 17.7372 -0.778329 1.37039 0
M  V30 183 C 18.7002 -1.87301 1.32102 0
M  V30 184 C 19.7002 -1.59198 0.226405 0
M  V30 185 O 20.8902 -1.67403 0.481861 0
M  V30 186 C 18.0222 -3.24309 1.05055 0
M  V30 187 H 19.2152 -1.93093 2.29467 0
M  V30 188 H 16.7682 -0.977358 1.21973 0
M  V30 189 H 17.5032 -3.24196 0.0819373 0
M  V30 190 H 17.2882 -3.46098 1.84279 0
M  V30 191 H 18.7782 -4.04382 1.04234 0
M  V30 192 N 19.2153 -1.21501 -1.00376 0
M  V30 193 C 20.4613 -1.03452 -1.74429 0
M  V30 194 C 20.7943 0.430764 -1.89362 0
M  V30 195 O 20.0693 1.31962 -1.42886 0
M  V30 196 C 20.3523 -1.73375 -3.15615 0
M  V30 197 C 20.2053 -3.27431 -3.08397 0
M  V30 198 C 21.5243 -1.47732 -4.14564 0
M  V30 199 H 18.6433 -0.377226 -0.633143 0
M  V30 200 H 21.2853 -1.49693 -1.17013 0
M  V30 201 H 19.4353 -1.34064 -3.64636 0
M  V30 202 H 21.1073 -3.76119 -2.67081 0
M  V30 203 H 19.3503 -3.5767 -2.45468 0
M  V30 204 H 20.0213 -3.71524 -4.08258 0
M  V30 205 H 22.4973 -1.8186 -3.74254 0
M  V30 206 H 21.3733 -1.99169 -5.11491 0
M  V30 207 H 21.6343 -0.407589 -4.40217 0
M  V30 208 N 20.6934 1.19889 -1.02296 0
M  V30 209 C 22.1044 1.71124 -0.746568 0
M  V30 210 C 22.4554 1.81939 0.734335 0
M  V30 211 O 21.5804 1.48639 1.57275 0
M  V30 212 C 22.1754 3.10804 -1.34857 0
M  V30 213 C 20.7344 3.59323 -1.1209 0
M  V30 214 C 19.8814 2.3635 -1.45031 0
M  V30 215 H 22.8324 1.04813 -1.19163 0
M  V30 216 H 22.8534 3.73186 -0.742437 0
M  V30 217 H 22.3654 3.029 -2.42638 0
M  V30 218 H 20.4664 3.7255 -0.0610337 0
M  V30 219 H 20.5794 4.4378 -1.80544 0
M  V30 220 H 18.9434 2.39399 -0.869487 0
M  V30 221 H 19.7264 2.31081 -2.53883 0
M  V30 222 N 22.1715 0.800033 1.35784 0
M  V30 223 C 23.3995 0.389606 2.03199 0
M  V30 224 C 23.8145 -0.997375 1.60306 0
M  V30 225 O 23.1715 -1.64154 0.797481 0
M  V30 226 C 23.2225 0.455855 3.58614 0
M  V30 227 O 22.9435 1.78815 3.99946 0
M  V30 228 C 24.4445 0.0374032 4.43284 0
M  V30 229 H 21.6645 0.159132 0.651857 0
M  V30 230 H 24.2085 1.08183 1.73541 0
M  V30 231 H 22.3635 -0.188057 3.86943 0
M  V30 232 H 22.7775 1.74636 4.94573 0
M  V30 233 H 24.2515 0.134882 5.51835 0
M  V30 234 H 24.7285 -1.01651 4.27275 0
M  V30 235 H 25.3345 0.654215 4.20238 0
M  V30 236 N 23.6496 -1.47581 0.552962 0
M  V30 237 C 24.5976 -2.31648 -0.21023 0
M  V30 238 C 25.5916 -1.42663 -0.913432 0
M  V30 239 O 26.7976 -1.5945 -0.835201 0
M  V30 240 H 23.1726 -0.746989 -0.0866676 0
M  V30 241 H 25.1436 -2.93869 0.518051 0
M  V30 242 C 23.8926 -3.25226 -1.22976 0
M  V30 243 H 23.2156 -3.93658 -0.698077 0
M  V30 244 H 24.6556 -3.86889 -1.73473 0
M  V30 245 C 23.1146 -2.48448 -2.27542 0
M  V30 246 O 23.6446 -2.22585 -3.34393 0
M  V30 247 N 21.8506 -2.09532 -2.01357 0
M  V30 248 H 21.3976 -2.30765 -1.14478 0
M  V30 249 H 21.3556 -1.58476 -2.71538 0
M  V30 250 N 25.1277 -0.289203 -1.54924 0
M  V30 251 C 26.3767 0.324231 -1.99077 0
M  V30 252 C 26.6897 1.5591 -1.18117 0
M  V30 253 O 27.8957 2.24637 -1.52481 0
M  V30 254 C 26.3517 0.628209 -3.54375 0
M  V30 255 C 25.9597 -0.587647 -4.44129 0
M  V30 256 C 27.7037 1.20349 -4.07083 0
M  V30 257 C 25.6107 -0.257475 -5.90839 0
M  V30 258 H 24.5407 0.124924 -0.743579 0
M  V30 259 H 27.1917 -0.396063 -1.79175 0
M  V30 260 H 25.5737 1.40778 -3.70132 0
M  V30 261 H 26.7477 -1.36418 -4.40144 0
M  V30 262 H 25.0627 -1.08074 -4.0213 0
M  V30 263 H 27.6597 1.46456 -5.14252 0
M  V30 264 H 28.0027 2.14195 -3.56968 0
M  V30 265 H 28.5357 0.485889 -3.94821 0
M  V30 266 H 25.2747 -1.16419 -6.45079 0
M  V30 267 H 24.7947 0.482018 -5.9786 0
M  V30 268 H 26.4737 0.145238 -6.46837 0
M  V30 269 N 26.6058 1.57591 -0.0167156 0
M  V30 270 C 27.8548 1.90461 0.663877 0
M  V30 271 C 28.1678 0.893515 1.73999 0
M  V30 272 O 29.3738 1.11302 2.47637 0
M  V30 273 C 27.8298 3.38155 1.23204 0
M  V30 274 C 27.4378 4.47597 0.189866 0
M  V30 275 C 29.1818 3.80111 1.88986 0
M  V30 276 C 27.0888 5.86379 0.768964 0
M  V30 277 H 26.0188 0.710738 0.251729 0
M  V30 278 H 28.6698 1.83326 -0.0799926 0
M  V30 279 H 27.0518 3.40182 2.02712 0
M  V30 280 H 28.2258 4.57112 -0.581846 0
M  V30 281 H 26.5408 4.14766 -0.368475 0
M  V30 282 H 29.1378 4.81145 2.33247 0
M  V30 283 H 29.4808 3.14511 2.72743 0
M  V30 284 H 30.0138 3.80454 1.16187 0
M  V30 285 H 26.7528 6.55493 -0.0301957 0
M  V30 286 H 26.2728 5.80496 1.50945 0
M  V30 287 H 27.9518 6.34563 1.26251 0
M  V30 288 N 28.0839 -0.256276 1.55502 0
M  V30 289 C 29.0469 -1.30047 1.88734 0
M  V30 290 C 30.0469 -1.4154 0.763086 0
M  V30 291 O 31.2369 -1.40403 1.03115 0
M  V30 292 C 28.3689 -2.67953 2.10747 0
M  V30 293 H 29.5619 -1.01802 2.82093 0
M  V30 294 H 27.1149 -0.495134 1.4825 0
M  V30 295 H 27.8499 -3.01351 1.19825 0
M  V30 296 H 27.6349 -2.60993 2.92617 0
M  V30 297 H 29.1249 -3.43368 2.37673 0
M  V30 298 N 29.562 -1.4872 -0.521534 0
M  V30 299 C 30.525 -1.63379 -1.60748 0
M  V30 300 C 31.525 -0.50661 -1.52611 0
M  V30 301 O 32.715 -0.772601 -1.5613 0
M  V30 302 C 29.847 -1.61192 -3.00383 0
M  V30 303 H 31.04 -2.60217 -1.49087 0
M  V30 304 H 28.593 -1.37444 -0.744235 0
M  V30 305 H 29.328 -0.65863 -3.17541 0
M  V30 306 H 29.113 -2.43032 -3.07698 0
M  V30 307 H 30.603 -1.7466 -3.7932 0
M  V30 308 N 31.0401 0.771051 -1.3745 0
M  V30 309 C 31.9871 1.88435 -1.3327 0
M  V30 310 C 32.9571 1.64914 -0.198136 0
M  V30 311 O 34.1421 1.86821 -0.387606 0
M  V30 312 C 31.2821 3.25509 -1.14622 0
M  V30 313 C 30.3951 3.60979 -2.37314 0
M  V30 314 C 29.5301 4.87265 -2.11533 0
M  V30 315 C 28.5691 5.15469 -3.30088 0
M  V30 316 N 27.7061 6.32944 -3.03853 0
M  V30 317 H 32.5461 1.91344 -2.28455 0
M  V30 318 H 30.0831 0.935466 -1.13523 0
M  V30 319 H 32.0411 4.04582 -1.01831 0
M  V30 320 H 30.6711 3.21974 -0.230837 0
M  V30 321 H 29.7231 2.76885 -2.60842 0
M  V30 322 H 31.0351 3.77759 -3.25729 0
M  V30 323 H 30.1891 5.74244 -1.95777 0
M  V30 324 H 28.9281 4.7259 -1.20457 0
M  V30 325 H 27.9331 4.26966 -3.46382 0
M  V30 326 H 29.1581 5.32052 -4.22016 0
M  V30 327 H 27.1041 6.19625 -2.15407 0
M  V30 328 H 27.0211 6.50143 -3.85812 0
M  V30 329 H 28.2891 7.22857 -2.91716 0
M  V30 330 N 32.5182 1.22032 0.997298 0
M  V30 331 C 33.4812 0.987909 2.06816 0
M  V30 332 C 34.4812 -0.0440084 1.6074 0
M  V30 333 O 35.6712 0.194053 1.73116 0
M  V30 334 C 32.8032 0.49132 3.37341 0
M  V30 335 H 33.9962 1.93803 2.28868 0
M  V30 336 H 31.5492 1.03838 1.16822 0
M  V30 337 H 32.2842 -0.463364 3.20973 0
M  V30 338 H 32.0692 1.23575 3.72118 0
M  V30 339 H 33.5592 0.348824 4.16141 0
M  V30 340 N 33.9963 -1.19345 1.0293 0
M  V30 341 C 34.9593 -2.20793 0.615069 0
M  V30 342 C 35.9593 -1.57553 -0.321533 0
M  V30 343 O 37.1493 -1.73862 -0.108483 0
M  V30 344 C 34.2813 -3.40754 -0.0999222 0
M  V30 345 H 35.4743 -2.58955 1.51269 0
M  V30 346 H 33.0273 -1.3303 0.820534 0
M  V30 347 H 33.7623 -3.0811 -1.01187 0
M  V30 348 H 33.5473 -3.87889 0.57309 0
M  V30 349 H 35.0373 -4.15898 -0.376645 0
M  V30 350 N 35.4744 -0.807222 -1.35358 0
M  V30 351 C 36.3844 -0.219594 -2.3357 0
M  V30 352 C 37.4004 0.637734 -1.61892 0
M  V30 353 O 38.5764 0.549336 -1.93763 0
M  V30 354 C 35.6414 0.62158 -3.41083 0
M  V30 355 C 34.7024 -0.256315 -4.28534 0
M  V30 356 C 33.9354 0.544807 -5.30912 0
M  V30 357 O 34.1584 1.77944 -5.41934 0
M  V30 358 O 33.0924 -0.0646478 -6.01865 0
M  V30 359 H 36.9184 -1.03208 -2.85625 0
M  V30 360 H 34.5034 -0.569025 -1.38139 0
M  V30 361 H 36.3854 1.10067 -4.06772 0
M  V30 362 H 35.0604 1.41165 -2.91297 0
M  V30 363 H 33.9674 -0.782559 -3.65823 0
M  V30 364 H 35.3004 -1.01034 -4.81719 0
M  V30 365 N 36.9525 1.47285 -0.560781 0
M  V30 366 C 38.1985 2.02764 -0.0381184 0
M  V30 367 C 38.5315 1.43384 1.30976 0
M  V30 368 O 37.8065 0.590733 1.85312 0
M  V30 369 C 38.0895 3.60064 0.0511427 0
M  V30 370 C 37.9425 4.2987 -1.32408 0
M  V30 371 C 39.2615 4.33439 0.762795 0
M  V30 372 H 36.3805 0.736841 -0.0153264 0
M  V30 373 H 39.0225 1.75675 -0.723759 0
M  V30 374 H 37.1725 3.83274 0.635065 0
M  V30 375 H 38.8445 4.17989 -1.95148 0
M  V30 376 H 37.0875 3.90085 -1.8978 0
M  V30 377 H 37.7585 5.38478 -1.21431 0
M  V30 378 H 40.2345 4.15243 0.266965 0
M  V30 379 H 39.1105 5.43124 0.794221 0
M  V30 380 H 39.3715 4.02915 1.81966 0
M  V30 381 N 38.4306 0.297415 1.54768 0
M  V30 382 C 39.8466 -0.0560823 1.59501 0
M  V30 383 C 40.0466 -1.52725 1.31444 0
M  V30 384 O 39.1026 -2.27947 1.08611 0
M  V30 385 C 40.4156 0.338631 2.98787 0
M  V30 386 C 41.9636 0.287097 3.11681 0
M  V30 387 C 42.4386 0.656579 4.53269 0
M  V30 388 N 43.9296 0.608977 4.59179 0
M  V30 389 C 44.6646 0.867385 5.66802 0
M  V30 390 N 44.1606 1.19157 6.82476 0
M  V30 391 N 45.9536 0.794687 5.56454 0
M  V30 392 H 38.1046 1.25624 1.71267 0
M  V30 393 H 40.3676 0.509057 0.799728 0
M  V30 394 H 40.0736 1.36263 3.2423 0
M  V30 395 H 39.9476 -0.309508 3.75928 0
M  V30 396 H 42.3346 -0.727649 2.85988 0
M  V30 397 H 42.4156 0.969809 2.36703 0
M  V30 398 H 42.0596 1.66912 4.7969 0
M  V30 399 H 41.9896 -0.0481649 5.26578 0
M  V30 400 H 44.4806 0.369198 3.76092 0
M  V30 401 H 44.7936 1.37482 7.60473 0
M  V30 402 H 43.1386 1.22958 6.84037 0
M  V30 403 H 46.3296 0.541098 4.64962 0
M  V30 404 H 46.5026 0.999445 6.40246 0
M  V30 405 N 39.9087 -1.5758 0.0250728 0
M  V30 406 C 40.8717 -2.08896 -0.943139 0
M  V30 407 C 41.8717 -1.00321 -1.25668 0
M  V30 408 O 43.0617 -1.26495 -1.19769 0
M  V30 409 C 40.1937 -2.55143 -2.26086 0
M  V30 410 H 41.3867 -2.95723 -0.498775 0
M  V30 411 H 38.9397 -1.54703 -0.222888 0
M  V30 412 H 39.6747 -1.71633 -2.75159 0
M  V30 413 H 39.4597 -3.34461 -2.04641 0
M  V30 414 H 40.9497 -2.95083 -2.95492 0
M  V30 415 N 41.3868 0.248026 -1.55636 0
M  V30 416 C 42.3348 1.32683 -1.91045 0
M  V30 417 C 43.3288 1.49883 -0.789401 0
M  V30 418 O 44.5348 1.51371 -0.974007 0
M  V30 419 H 40.9098 0.444272 -0.606734 0
M  V30 420 H 42.8808 1.00085 -2.81115 0
M  V30 421 C 41.6298 2.6755 -2.22064 0
M  V30 422 H 40.9528 2.55114 -3.07826 0
M  V30 423 H 42.3928 3.41912 -2.50743 0
M  V30 424 C 40.8518 3.20556 -1.0366 0
M  V30 425 O 41.3818 4.00695 -0.284016 0
M  V30 426 N 39.5878 2.78568 -0.82753 0
M  V30 427 H 39.1348 2.1351 -1.44123 0
M  V30 428 H 39.0928 3.14378 -0.0369803 0
M  V30 429 N 42.8649 1.48995 0.513639 0
M  V30 430 C 43.8119 1.6473 1.61656 0
M  V30 431 C 44.7819 0.488984 1.58739 0
M  V30 432 O 45.9669 0.714478 1.76918 0
M  V30 433 C 43.1069 1.7082 2.99858 0
M  V30 434 C 42.2199 2.9787 3.12885 0
M  V30 435 C 41.3549 2.95017 4.41744 0
M  V30 436 C 40.3939 4.16702 4.48359 0
M  V30 437 N 39.5309 4.11832 5.68629 0
M  V30 438 H 44.3709 2.58909 1.47547 0
M  V30 439 H 41.9079 1.28382 0.71808 0
M  V30 440 H 43.8659 1.72331 3.79944 0
M  V30 441 H 42.4959 0.801181 3.12699 0
M  V30 442 H 41.5479 3.06029 2.25944 0
M  V30 443 H 42.8599 3.8786 3.13633 0
M  V30 444 H 42.0139 2.95021 5.30139 0
M  V30 445 H 40.7529 2.02784 4.43542 0
M  V30 446 H 39.7579 4.16955 3.58369 0
M  V30 447 H 40.9829 5.10113 4.48287 0
M  V30 448 H 38.9289 3.22428 5.71293 0
M  V30 449 H 38.8459 4.95543 5.7094 0
M  V30 450 H 40.1139 4.1592 6.59266 0
M  V30 451 N 44.343 -0.763751 1.37857 0
M  V30 452 C 45.589 -1.52483 1.33704 0
M  V30 453 C 45.922 -1.94051 -0.0759612 0
M  V30 454 O 45.197 -1.64675 -1.03501 0
M  V30 455 C 45.48 -2.78441 2.28348 0
M  V30 456 C 45.333 -2.43075 3.78463 0
M  V30 457 C 46.652 -3.80415 2.21298 0
M  V30 458 H 43.771 -0.553169 0.487005 0
M  V30 459 H 46.413 -0.875562 1.68624 0
M  V30 460 H 44.563 -3.33842 1.987 0
M  V30 461 H 46.235 -1.93527 4.18742 0
M  V30 462 H 44.478 -1.75666 3.96641 0
M  V30 463 H 45.149 -3.33149 4.40132 0
M  V30 464 H 47.625 -3.34527 2.47449 0
M  V30 465 H 46.501 -4.66257 2.89647 0
M  V30 466 H 46.762 -4.25262 1.20849 0
M  V30 467 N 45.8211 -1.22559 -0.990812 0
M  V30 468 C 46.7691 -0.994798 -2.10253 0
M  V30 469 C 47.7631 0.0627798 -1.69284 0
M  V30 470 O 48.9691 -0.0898392 -1.79776 0
M  V30 471 H 45.3441 -0.304527 -0.687581 0
M  V30 472 H 47.3151 -1.93812 -2.26891 0
M  V30 473 C 46.0641 -0.591439 -3.42633 0
M  V30 474 H 45.3871 -1.3969 -3.74602 0
M  V30 475 H 46.8271 -0.469385 -4.21394 0
M  V30 476 C 45.2861 0.699232 -3.29564 0
M  V30 477 O 45.8161 1.75112 -3.61523 0
M  V30 478 N 44.0221 0.671182 -2.82743 0
M  V30 479 H 43.5691 -0.185136 -2.56934 0
M  V30 480 H 43.5271 1.53502 -2.7438 0
M  V30 481 N 47.2992 1.18797 -1.03562 0
M  V30 482 C 48.5452 1.89192 -0.746867 0
M  V30 483 C 48.9002 1.78531 0.717245 0
M  V30 484 O 48.1932 1.17137 1.51622 0
M  V30 485 C 48.3872 3.38692 -1.14117 0
M  V30 486 C 48.2162 3.63902 -2.64207 0
M  V30 487 C 46.9862 3.81553 -3.31279 0
M  V30 488 C 49.1842 3.64903 -3.62423 0
M  V30 489 N 47.1662 3.94455 -4.70402 0
M  V30 490 C 48.5372 3.83458 -4.87196 0
M  V30 491 C 50.5922 3.47965 -3.56125 0
M  V30 492 C 49.2952 3.86829 -6.06429 0
M  V30 493 C 51.3212 3.52616 -4.7478 0
M  V30 494 C 50.6832 3.71663 -5.9837 0
M  V30 495 H 46.7822 0.711141 -0.325273 0
M  V30 496 H 49.3662 1.42727 -1.32428 0
M  V30 497 H 47.5372 3.83864 -0.591889 0
M  V30 498 H 49.2692 3.96634 -0.803966 0
M  V30 499 H 46.0242 3.80723 -2.81686 0
M  V30 500 H 46.4482 4.0474 -5.42692 0
M  V30 501 H 51.0902 3.32189 -2.61553 0
M  V30 502 H 48.8082 4.01395 -7.01362 0
M  V30 503 H 52.3942 3.40791 -4.71543 0
M  V30 504 H 51.2742 3.75145 -6.88648 0
M  V30 505 N 48.7773 0.814389 1.34928 0
M  V30 506 C 49.7093 0.187834 2.28429 0
M  V30 507 C 50.7223 -0.617374 1.5064 0
M  V30 508 O 51.9113 -0.448454 1.72775 0
M  V30 509 C 49.0113 -0.755962 3.30361 0
M  V30 510 C 48.1843 0.00456686 4.374 0
M  V30 511 C 47.2433 -0.858876 5.19143 0
M  V30 512 O 46.2693 -0.306968 5.68372 0
M  V30 513 N 47.4713 -2.17988 5.38016 0
M  V30 514 H 50.2363 0.991105 2.82838 0
M  V30 515 H 47.7973 0.670561 1.4736 0
M  V30 516 H 49.7893 -1.338 3.81942 0
M  V30 517 H 48.3593 -1.46001 2.7641 0
M  V30 518 H 47.5793 0.767865 3.86649 0
M  V30 519 H 48.8673 0.528422 5.06049 0
M  V30 520 H 48.2653 -2.65212 4.99679 0
M  V30 521 H 46.8223 -2.71098 5.92747 0
M  V30 522 N 50.2554 -1.46986 0.568584 0
M  V30 523 C 51.4804 -2.07335 0.0520528 0
M  V30 524 C 51.9054 -1.41675 -1.23733 0
M  V30 525 O 51.2634 -0.495623 -1.74394 0
M  V30 526 C 51.3114 -3.60417 -0.11501 0
M  V30 527 O 50.4154 -3.95309 -1.17492 0
M  V30 528 H 49.7564 -0.661597 0.0564385 0
M  V30 529 H 52.2864 -1.88837 0.787507 0
M  V30 530 H 52.2964 -4.06698 -0.325644 0
M  V30 531 H 50.9714 -4.07601 0.826675 0
M  V30 532 H 49.5484 -3.60757 -0.943869 0
M  V30 533 N 51.7335 -0.305618 -1.54608 0
M  V30 534 C 52.9635 0.304333 -2.04346 0
M  V30 535 C 53.3715 1.47715 -1.18224 0
M  V30 536 O 52.7145 1.82591 -0.201577 0
M  V30 537 C 52.7765 0.819031 -3.50046 0
M  V30 538 C 52.4405 -0.22912 -4.56425 0
M  V30 539 C 53.4375 -1.05914 -5.08997 0
M  V30 540 C 51.1225 -0.372148 -5.0092 0
M  V30 541 C 53.1165 -2.01809 -6.04609 0
M  V30 542 C 50.8035 -1.33454 -5.9635 0
M  V30 543 C 51.8015 -2.15599 -6.48079 0
M  V30 544 O 51.4895 -3.10205 -7.41639 0
M  V30 545 H 51.2215 0.0693996 -0.672428 0
M  V30 546 H 53.7755 -0.444548 -2.00532 0
M  V30 547 H 52.0055 1.61852 -3.51199 0
M  V30 548 H 53.6945 1.34537 -3.82955 0
M  V30 549 H 54.4605 -0.959538 -4.75413 0
M  V30 550 H 50.3395 0.257304 -4.60281 0
M  V30 551 H 53.8835 -2.65966 -6.44909 0
M  V30 552 H 49.7805 -1.43485 -6.29351 0
M  V30 553 H 50.5485 -3.05237 -7.59455 0
M  V30 554 N 53.2116 1.57565 -0.0334293 0
M  V30 555 C 54.1416 2.13511 0.945265 0
M  V30 556 C 55.1226 1.05231 1.33643 0
M  V30 557 O 56.3076 1.33084 1.41429 0
M  V30 558 C 53.4376 2.6657 2.22616 0
M  V30 559 C 52.3916 3.79676 1.97561 0
M  V30 560 C 51.7176 4.1918 3.31952 0
M  V30 561 C 53.0176 5.0557 1.31135 0
M  V30 562 H 54.7116 2.95538 0.479325 0
M  V30 563 H 52.2576 1.42166 0.229115 0
M  V30 564 H 54.2106 3.04344 2.91466 0
M  V30 565 H 52.9346 1.8171 2.71384 0
M  V30 566 H 51.5936 3.42347 1.31127 0
M  V30 567 H 51.2416 3.31296 3.78487 0
M  V30 568 H 50.9416 4.95402 3.15992 0
M  V30 569 H 52.4656 4.59541 4.02063 0
M  V30 570 H 53.8796 5.40903 1.89992 0
M  V30 571 H 52.2766 5.86818 1.25559 0
M  V30 572 H 53.3466 4.84062 0.284894 0
M  V30 573 N 54.6897 -0.239769 1.55765 0
M  V30 574 C 55.6217 -1.32001 1.87372 0
M  V30 575 C 56.6347 -1.43944 0.760522 0
M  V30 576 O 57.8237 -1.45167 1.0387 0
M  V30 577 C 54.9237 -2.69779 2.05115 0
M  V30 578 C 54.0967 -2.80014 3.36022 0
M  V30 579 C 53.1557 -3.98684 3.4342 0
M  V30 580 O 52.1817 -3.87877 4.16582 0
M  V30 581 N 53.3837 -5.12176 2.73232 0
M  V30 582 H 56.1487 -1.0522 2.80622 0
M  V30 583 H 53.7097 -0.429857 1.56089 0
M  V30 584 H 55.7017 -3.47517 2.07399 0
M  V30 585 H 54.2717 -2.89237 1.18577 0
M  V30 586 H 53.4917 -1.88896 3.45994 0
M  V30 587 H 54.7797 -2.83808 4.22292 0
M  V30 588 H 54.1777 -5.2385 2.13536 0
M  V30 589 H 52.7347 -5.88022 2.81199 0
M  V30 590 N 56.1678 -1.49265 -0.50573 0
M  V30 591 C 57.4158 -1.582 -1.25766 0
M  V30 592 C 57.7368 -0.268482 -1.93143 0
M  V30 593 O 57.0068 0.711833 -1.8251 0
M  V30 594 H 55.5868 -0.582873 -0.467191 0
M  V30 595 H 58.2488 -1.85865 -0.586525 0
M  V30 596 H 57.3448 -2.37563 -2.02412 0
M  V30 597 N 57.6459 0.756429 -1.3826 0
M  V30 598 C 58.5779 1.87971 -1.31147 0
M  V30 599 C 59.5909 1.61248 -0.224239 0
M  V30 600 O 60.7799 1.71881 -0.481581 0
M  V30 601 C 57.8799 3.23545 -1.00857 0
M  V30 602 C 57.0529 3.77794 -2.20432 0
M  V30 603 C 56.1119 4.91877 -1.86931 0
M  V30 604 O 55.1379 5.06659 -2.59395 0
M  V30 605 N 56.3399 5.74643 -0.822568 0
M  V30 606 H 59.1049 1.94585 -2.2794 0
M  V30 607 H 56.6659 0.936234 -1.32084 0
M  V30 608 H 58.6579 3.97403 -0.765021 0
M  V30 609 H 57.2279 3.12335 -0.128687 0
M  V30 610 H 56.4479 2.95534 -2.6087 0
M  V30 611 H 57.7359 4.10771 -3.00241 0
M  V30 612 H 57.1339 5.65266 -0.221575 0
M  V30 613 H 55.6909 6.48661 -0.638899 0
M  V30 614 N 59.124 1.23083 0.984299 0
M  V30 615 C 60.057 0.951786 2.07404 0
M  V30 616 C 61.035 -0.10848 1.62238 0
M  V30 617 O 62.219 0.0249467 1.88483 0
M  V30 618 C 59.346 0.433142 3.35919 0
M  V30 619 C 58.392 1.47941 4.0002 0
M  V30 620 S 59.225 3.05556 4.39768 0
M  V30 621 C 60.381 2.55351 5.71442 0
M  V30 622 H 60.614 1.87456 2.30754 0
M  V30 623 H 58.147 1.06284 1.11996 0
M  V30 624 H 60.105 0.140506 4.10259 0
M  V30 625 H 58.766 -0.468656 3.10584 0
M  V30 626 H 57.959 1.06658 4.92585 0
M  V30 627 H 57.561 1.7212 3.3204 0
M  V30 628 H 59.853 1.97128 6.48187 0
M  V30 629 H 60.796 3.46441 6.17563 0
M  V30 630 H 61.204 1.96339 5.29255 0
M  V30 631 N 60.6021 -1.18246 1.0419 0
M  V30 632 C 61.8511 -1.87588 0.741194 0
M  V30 633 C 62.1641 -1.81303 -0.734066 0
M  V30 634 O 63.3701 -2.46019 -1.14834 0
M  V30 635 C 61.8261 -3.36538 1.27555 0
M  V30 636 C 61.4341 -3.51349 2.77953 0
M  V30 637 C 63.1781 -4.11273 1.05143 0
M  V30 638 C 61.0851 -4.94265 3.2474 0
M  V30 639 H 60.0151 -0.702622 0.273565 0
M  V30 640 H 62.6661 -1.33601 1.25789 0
M  V30 641 H 61.0481 -3.9 0.686703 0
M  V30 642 H 62.2221 -3.08153 3.42605 0
M  V30 643 H 60.5371 -2.90022 2.98791 0
M  V30 644 H 63.1341 -5.16689 1.37611 0
M  V30 645 H 63.4771 -4.16298 -0.0112774 0
M  V30 646 H 64.0101 -3.63987 1.60495 0
M  V30 647 H 60.7491 -4.94408 4.30396 0
M  V30 648 H 60.2691 -5.38172 2.64823 0
M  V30 649 H 61.9481 -5.62987 3.18834 0
M  V30 650 N 62.0802 -0.821533 -1.34494 0
M  V30 651 C 63.3052 -0.420873 -2.03085 0
M  V30 652 C 63.7302 0.964915 -1.61465 0
M  V30 653 O 63.0882 1.62763 -0.798607 0
M  V30 654 C 63.1362 -0.529414 -3.56693 0
M  V30 655 O 62.2402 0.451302 -4.09923 0
M  V30 656 H 61.5812 -0.173489 -0.640935 0
M  V30 657 H 64.1112 -1.11157 -1.71771 0
M  V30 658 H 64.1212 -0.404671 -4.05988 0
M  V30 659 H 62.7962 -1.54014 -3.86332 0
M  V30 660 H 61.3732 0.285558 -3.71805 0
M  V30 661 N 63.5583 1.46682 -0.576371 0
M  V30 662 C 64.5213 2.28707 0.150239 0
M  V30 663 C 65.5213 1.38035 0.824794 0
M  V30 664 O 66.7113 1.60476 0.677719 0
M  V30 665 C 63.8433 3.18248 1.22192 0
M  V30 666 H 65.0363 2.94423 -0.570521 0
M  V30 667 H 62.5893 1.52688 -0.334078 0
M  V30 668 H 63.3243 2.57265 1.97447 0
M  V30 669 H 63.1093 3.85 0.742812 0
M  V30 670 H 64.5993 3.80001 1.73172 0
M  V30 671 N 65.0364 0.313813 1.54444 0
M  V30 672 C 65.9464 -0.565714 2.27677 0
M  V30 673 C 66.9624 -1.13754 1.31666 0
M  V30 674 O 68.1384 -1.15959 1.64668 0
M  V30 675 C 65.2034 -1.71528 3.01296 0
M  V30 676 C 64.2644 -1.17624 4.12872 0
M  V30 677 C 63.4974 -2.27102 4.8297 0
M  V30 678 O 63.7204 -3.47256 4.52514 0
M  V30 679 O 62.6544 -1.9307 5.70094 0
M  V30 680 H 66.4804 0.0287296 3.03686 0
M  V30 681 H 64.0654 0.0798312 1.49187 0
M  V30 682 H 65.9474 -2.38476 3.4743 0
M  V30 683 H 64.6224 -2.29608 2.2817 0
M  V30 684 H 63.5294 -0.472124 3.71109 0
M  V30 685 H 64.8624 -0.640695 4.88012 0
M  V30 686 N 66.5145 -1.57545 0.0417849 0
M  V30 687 C 67.7915 -1.83642 -0.673433 0
M  V30 688 C 68.1715 -0.928298 -1.89594 0
M  V30 689 O 67.5195 0.0129955 -2.28496 0
M  V30 690 C 67.7295 -3.33155 -1.03964 0
M  V30 691 C 69.0775 -3.99941 -1.42592 0
M  V30 692 O 70.1015 -3.37725 -1.13226 0
M  V30 693 O 68.9605 -5.09619 -1.9736 0
M  V30 694 H 66.0545 -0.757638 -0.331533 0
M  V30 695 H 68.6005 -1.69554 0.070433 0
M  V30 696 H 67.3725 -3.9093 -0.170098 0
M  V30 697 H 66.9955 -3.52396 -1.84126 0
M  V30 698 N 67.9926 0.231505 -1.5589 0
M  V30 699 C 69.2326 0.964533 -1.80211 0
M  V30 700 C 69.5966 1.81926 -0.613744 0
M  V30 701 O 70.7976 2.58526 -0.736045 0
M  V30 702 C 69.0686 1.78956 -3.09369 0
M  V30 703 S 70.6276 2.57959 -3.54969 0
M  V30 704 H 67.4456 0.324173 -0.632798 0
M  V30 705 H 70.0476 0.230985 -1.94131 0
M  V30 706 H 68.7516 1.15161 -3.93911 0
M  V30 707 H 68.2826 2.56559 -2.9823 0
M  V30 708 H 70.2976 3.81309 -3.17519 0
M  V30 709 N 69.4707 1.49531 0.497807 0
M  V30 710 C 70.3807 1.69176 1.62532 0
M  V30 711 C 71.3967 0.5744 1.64246 0
M  V30 712 O 72.5727 0.849497 1.82608 0
M  V30 713 C 69.6377 1.75695 2.98885 0
M  V30 714 C 68.6987 2.9929 3.07773 0
M  V30 715 C 67.9317 3.05488 4.37622 0
M  V30 716 O 68.1547 2.19192 5.26603 0
M  V30 717 O 67.0887 3.9798 4.51548 0
M  V30 718 H 70.9147 2.647 1.48887 0
M  V30 719 H 68.4997 1.3331 0.674441 0
M  V30 720 H 70.3817 1.82317 3.79919 0
M  V30 721 H 69.0567 0.8335 3.12785 0
M  V30 722 H 67.9637 2.98183 2.25915 0
M  V30 723 H 69.2967 3.91125 2.98801 0
M  V30 724 N 70.9488 -0.749086 1.3866 0
M  V30 725 C 72.1958 -1.50833 1.35114 0
M  V30 726 C 72.5238 -1.94415 -0.0574049 0
M  V30 727 O 71.7788 -1.66065 -1.03541 0
M  V30 728 C 72.0778 -2.7712 2.25697 0
M  V30 729 C 71.7438 -2.52477 3.73585 0
M  V30 730 C 70.4058 -2.45466 4.13884 0
M  V30 731 C 72.7578 -2.31066 4.67181 0
M  V30 732 C 70.0858 -2.15064 5.45861 0
M  V30 733 C 72.4378 -2.02183 5.9942 0
M  V30 734 C 71.1018 -1.93631 6.38798 0
M  V30 735 H 70.3718 -0.551936 0.494416 0
M  V30 736 H 73.0188 -0.860979 1.71054 0
M  V30 737 H 71.3238 -3.46528 1.82827 0
M  V30 738 H 73.0208 -3.35096 2.20254 0
M  V30 739 H 69.6108 -2.58807 3.41638 0
M  V30 740 H 73.7948 -2.35459 4.3689 0
M  V30 741 H 69.0508 -2.06954 5.75308 0
M  V30 742 H 73.2248 -1.8462 6.71482 0
M  V30 743 H 70.8518 -1.69839 7.40985 0
M  V30 744 N 72.4269 -1.23603 -0.977757 0
M  V30 745 C 73.6759 -1.06377 -1.71368 0
M  V30 746 C 73.9889 0.399062 -1.91486 0
M  V30 747 O 75.1949 0.691312 -2.62551 0
M  V30 748 C 73.6509 -1.85512 -3.08404 0
M  V30 749 C 73.2589 -3.36141 -2.96164 0
M  V30 750 C 75.0029 -1.76783 -3.85938 0
M  V30 751 C 72.9099 -4.07659 -4.28449 0
M  V30 752 H 71.8399 -0.394452 -0.642591 0
M  V30 753 H 74.4909 -1.47594 -1.09034 0
M  V30 754 H 72.8729 -1.37103 -3.71509 0
M  V30 755 H 74.0469 -3.92056 -2.42133 0
M  V30 756 H 72.3619 -3.45712 -2.32104 0
M  V30 757 H 74.9589 -2.27526 -4.83876 0
M  V30 758 H 75.3019 -0.731116 -4.0983 0
M  V30 759 H 75.8349 -2.22818 -3.2954 0
M  V30 760 H 72.5739 -5.11648 -4.09752 0
M  V30 761 H 72.0939 -3.5653 -4.82334 0
M  V30 762 H 73.7729 -4.141 -4.97122 0
M  V30 763 N 73.905 1.17692 -1.04816 0
M  V30 764 C 74.837 2.21103 -0.603822 0
M  V30 765 C 75.85 1.59411 0.33046 0
M  V30 766 O 77.039 1.7807 0.12379 0
M  V30 767 C 74.139 3.38623 0.136898 0
M  V30 768 C 73.312 4.29888 -0.807137 0
M  V30 769 C 72.371 5.26088 -0.10836 0
M  V30 770 O 71.397 5.64353 -0.741232 0
M  V30 771 N 72.599 5.68882 1.15558 0
M  V30 772 H 75.364 2.59848 -1.49329 0
M  V30 773 H 72.925 1.32553 -0.929587 0
M  V30 774 H 74.917 4.00009 0.614401 0
M  V30 775 H 73.487 2.98508 0.927993 0
M  V30 776 H 72.707 3.65993 -1.46434 0
M  V30 777 H 73.995 4.87759 -1.44807 0
M  V30 778 H 73.393 5.39861 1.69015 0
M  V30 779 H 71.95 6.32429 1.57722 0
M  V30 780 N 75.3831 0.828654 1.34056 0
M  V30 781 C 76.7991 0.515135 1.51058 0
M  V30 782 C 76.9991 -0.959581 1.77184 0
M  V30 783 O 76.0551 -1.74382 1.82612 0
M  V30 784 C 77.3681 1.37963 2.67183 0
M  V30 785 C 78.9161 1.37735 2.81066 0
M  V30 786 C 79.3911 2.22645 4.00241 0
M  V30 787 N 80.8821 2.203 4.07458 0
M  V30 788 C 81.6171 2.82744 4.98842 0
M  V30 789 N 81.1131 3.54201 5.9541 0
M  V30 790 N 82.9061 2.72268 4.91759 0
M  V30 791 H 75.0571 1.78343 1.15358 0
M  V30 792 H 77.3201 0.760304 0.566252 0
M  V30 793 H 77.0261 2.42714 2.54525 0
M  V30 794 H 76.9001 1.0484 3.62338 0
M  V30 795 H 79.2871 0.337593 2.93163 0
M  V30 796 H 79.3681 1.74859 1.86703 0
M  V30 797 H 79.0121 3.26674 3.88905 0
M  V30 798 H 78.9421 1.82869 4.93829 0
M  V30 799 H 81.4331 1.68327 3.38341 0
M  V30 800 H 81.7461 3.9908 6.61782 0
M  V30 801 H 80.0911 3.58308 5.95517 0
M  V30 802 H 83.2821 2.16014 4.15278 0
M  V30 803 H 83.4551 3.21219 5.62781 0
M  V30 804 N 76.8612 -1.46375 0.584142 0
M  V30 805 C 78.1082 -2.02378 0.0702675 0
M  V30 806 C 78.4362 -1.45545 -1.29023 0
M  V30 807 O 77.6912 -0.610967 -1.85918 0
M  V30 808 C 77.9902 -3.57373 -0.0439342 0
M  V30 809 C 77.6562 -4.33252 1.24915 0
M  V30 810 C 76.3182 -4.53701 1.60341 0
M  V30 811 C 78.6702 -4.7681 2.1048 0
M  V30 812 C 75.9982 -5.1496 2.81128 0
M  V30 813 C 78.3502 -5.39404 3.30494 0
M  V30 814 C 77.0142 -5.5808 3.66201 0
M  V30 815 H 76.2842 -0.740554 0.0257127 0
M  V30 816 H 78.9312 -1.75727 0.761065 0
M  V30 817 H 77.2362 -3.83169 -0.817869 0
M  V30 818 H 78.9332 -3.98384 -0.457318 0
M  V30 819 H 75.5232 -4.17633 0.963364 0
M  V30 820 H 79.7072 -4.60766 1.84414 0
M  V30 821 H 74.9632 -5.27611 3.08928 0
M  V30 822 H 79.1372 -5.72114 3.97063 0
M  V30 823 H 76.7642 -6.05318 4.59885 0
M  V30 824 N 78.3393 -0.321999 -1.54275 0
M  V30 825 C 79.2493 0.553631 -2.27974 0
M  V30 826 C 80.2653 1.13054 -1.32268 0
M  V30 827 O 81.4413 1.15084 -1.6528 0
M  V30 828 C 78.5063 1.69927 -3.02201 0
M  V30 829 C 77.5673 1.15433 -4.1349 0
M  V30 830 C 76.8003 2.24537 -4.84168 0
M  V30 831 O 77.0233 3.44852 -4.5435 0
M  V30 832 O 75.9573 1.90044 -5.7111 0
M  V30 833 H 79.7833 -0.0448345 -3.03667 0
M  V30 834 H 77.3683 -0.0877418 -1.49142 0
M  V30 835 H 79.2503 2.3663 -3.48689 0
M  V30 836 H 77.9253 2.28395 -2.29385 0
M  V30 837 H 76.8323 0.452436 -3.71354 0
M  V30 838 H 78.1653 0.614805 -4.88345 0
M  V30 839 N 79.8174 1.5752 -0.0501392 0
M  V30 840 C 80.7504 2.07026 0.959962 0
M  V30 841 C 81.7284 0.970539 1.30458 0
M  V30 842 O 82.9124 1.2424 1.41763 0
M  V30 843 C 80.0394 2.5099 2.27424 0
M  V30 844 C 79.0854 3.72188 2.08275 0
M  V30 845 S 79.9184 5.17888 1.36207 0
M  V30 846 C 81.0744 5.65165 2.6896 0
M  V30 847 H 81.3074 2.9238 0.538631 0
M  V30 848 H 78.8404 1.53547 0.162099 0
M  V30 849 H 80.7984 2.76982 3.02971 0
M  V30 850 H 79.4594 1.65944 2.66686 0
M  V30 851 H 78.6524 4.00866 3.05487 0
M  V30 852 H 78.2544 3.46457 1.40868 0
M  V30 853 H 80.5464 5.70687 3.65133 0
M  V30 854 H 81.4894 6.64394 2.4492 0
M  V30 855 H 81.8974 4.9289 2.75172 0
M  V30 856 N 81.2955 -0.223234 1.56011 0
M  V30 857 C 82.2425 -1.27664 1.92277 0
M  V30 858 C 83.2125 -1.46659 0.779763 0
M  V30 859 O 84.3975 -1.60256 1.03551 0
M  V30 860 C 81.5375 -2.62234 2.24338 0
M  V30 861 C 80.6505 -2.51051 3.51564 0
M  V30 862 C 79.7855 -3.78133 3.7308 0
M  V30 863 C 78.8245 -3.61665 4.93827 0
M  V30 864 N 77.9615 -4.80693 5.11741 0
M  V30 865 H 82.8015 -0.960358 2.82101 0
M  V30 866 H 80.3385 -0.462901 1.39627 0
M  V30 867 H 82.2965 -3.40596 2.40936 0
M  V30 868 H 80.9265 -2.91961 1.3769 0
M  V30 869 H 79.9785 -1.64132 3.43169 0
M  V30 870 H 81.2905 -2.34803 4.40079 0
M  V30 871 H 80.4445 -4.64938 3.89766 0
M  V30 872 H 79.1835 -3.97304 2.82844 0
M  V30 873 H 78.1885 -2.73244 4.77093 0
M  V30 874 H 79.4135 -3.43966 5.85546 0
M  V30 875 H 77.3595 -5.00181 4.24446 0
M  V30 876 H 77.2765 -4.67165 5.94384 0
M  V30 877 H 78.5445 -5.6893 5.3286 0
M  V30 878 N 82.7736 -1.49793 -0.48987 0
M  V30 879 C 84.1896 -1.36803 -0.822022 0
M  V30 880 C 84.3896 -0.409652 -1.97292 0
M  V30 881 O 83.4456 0.154614 -2.52026 0
M  V30 882 C 84.7586 -2.77768 -1.15175 0
M  V30 883 C 86.3066 -2.86549 -1.25931 0
M  V30 884 C 86.7816 -4.28306 -1.62228 0
M  V30 885 N 88.2726 -4.31169 -1.69256 0
M  V30 886 C 89.0076 -5.37832 -1.98807 0
M  V30 887 N 88.5036 -6.54726 -2.26507 0
M  V30 888 N 90.2966 -5.25258 -2.00152 0
M  V30 889 H 82.4476 -2.10691 0.268881 0
M  V30 890 H 84.7106 -0.946241 0.057728 0
M  V30 891 H 84.4166 -3.49648 -0.379335 0
M  V30 892 H 84.2906 -3.13836 -2.09253 0
M  V30 893 H 86.6776 -2.14899 -2.02243 0
M  V30 894 H 86.7586 -2.54049 -0.298776 0
M  V30 895 H 86.4026 -5.00486 -0.864622 0
M  V30 896 H 86.3326 -4.58279 -2.594 0
M  V30 897 H 88.8236 -3.4687 -1.49965 0
M  V30 898 H 89.1366 -7.31833 -2.48276 0
M  V30 899 H 87.4816 -6.57933 -2.23939 0
M  V30 900 H 90.6726 -4.32938 -1.77996 0
M  V30 901 H 90.8456 -6.08476 -2.22848 0
M  V30 902 N 84.2517 0.741722 -1.39055 0
M  V30 903 C 85.4767 1.53607 -1.39354 0
M  V30 904 C 85.9017 1.88096 0.0116905 0
M  V30 905 O 85.2597 1.5143 0.996924 0
M  V30 906 C 85.3077 2.80441 -2.26682 0
M  V30 907 O 84.4117 3.76088 -1.69208 0
M  V30 908 H 83.7527 0.464142 -0.474835 0
M  V30 909 H 86.2827 0.915665 -1.82967 0
M  V30 910 H 86.2927 3.29246 -2.40959 0
M  V30 911 H 84.9677 2.5467 -3.2881 0
M  V30 912 H 83.5447 3.34833 -1.64138 0
M  V30 913 N 85.7298 1.2412 0.971189 0
M  V30 914 C 87.1408 1.07236 1.52831 0
M  V30 915 C 87.4918 -0.357352 1.92918 0
M  V30 916 O 86.6168 -1.24528 1.76979 0
M  V30 917 C 87.2118 1.94043 2.77728 0
M  V30 918 C 85.7708 1.81394 3.29808 0
M  V30 919 C 84.9178 1.89189 2.02738 0
M  V30 920 H 87.8688 1.37648 0.789864 0
M  V30 921 H 87.8898 1.47066 3.5093 0
M  V30 922 H 87.4018 2.98093 2.4852 0
M  V30 923 H 85.5028 0.801634 3.63874 0
M  V30 924 H 85.6158 2.65294 3.98944 0
M  V30 925 H 83.9798 1.32877 2.17292 0
M  V30 926 H 84.7628 2.94812 1.759 0
M  V30 927 N 87.2079 -1.17134 1.05439 0
M  V30 928 C 88.1179 -2.24878 0.668365 0
M  V30 929 C 89.1339 -1.71186 -0.311687 0
M  V30 930 O 90.3099 -2.00738 -0.163161 0
M  V30 931 C 87.3749 -3.46662 0.051648 0
M  V30 932 C 86.4359 -4.15429 1.08246 0
M  V30 933 C 85.6689 -5.31399 0.495082 0
M  V30 934 O 85.8919 -5.66153 -0.694743 0
M  V30 935 O 84.8259 -5.89187 1.23056 0
M  V30 936 H 88.6519 -2.60189 1.56637 0
M  V30 937 H 86.2369 -1.24482 0.826104 0
M  V30 938 H 88.1189 -4.20394 -0.290966 0
M  V30 939 H 86.7939 -3.13142 -0.819971 0
M  V30 940 H 85.7009 -3.43704 1.47711 0
M  V30 941 H 87.0339 -4.52982 1.92532 0
M  V30 942 N 88.686 -0.835752 -1.33615 0
M  V30 943 C 89.596 -0.269088 -2.33052 0
M  V30 944 C 90.612 0.603251 -1.63208 0
M  V30 945 O 91.788 0.508112 -1.94885 0
M  V30 946 C 88.853 0.549091 -3.42324 0
M  V30 947 C 87.914 -0.347156 -4.27894 0
M  V30 948 C 87.147 0.43207 -5.31948 0
M  V30 949 O 87.37 1.66409 -5.45586 0
M  V30 950 O 86.304 -0.192298 -6.01593 0
M  V30 951 H 90.13 -1.09243 -2.83372 0
M  V30 952 H 87.715 -0.598198 -1.36901 0
M  V30 953 H 89.597 1.01414 -4.09015 0
M  V30 954 H 88.272 1.34955 -2.94226 0
M  V30 955 H 87.179 -0.859979 -3.64081 0
M  V30 956 H 88.512 -1.1123 -4.79467 0
M  V30 957 N 90.1641 1.46063 -0.591896 0
M  V30 958 C 91.1111 2.30399 0.136069 0
M  V30 959 C 92.0811 1.41169 0.875238 0
M  V30 960 O 93.2661 1.70112 0.86409 0
M  V30 961 C 90.4061 3.25804 1.13781 0
M  V30 962 C 89.5191 4.30134 0.401137 0
M  V30 963 C 88.6541 5.12659 1.39121 0
M  V30 964 C 87.6931 6.0873 0.641462 0
M  V30 965 N 86.8301 6.8409 1.58004 0
M  V30 966 H 91.6701 2.92118 -0.589144 0
M  V30 967 H 89.2071 1.43959 -0.302342 0
M  V30 968 H 91.1651 3.79569 1.73156 0
M  V30 969 H 89.7951 2.65872 1.83062 0
M  V30 970 H 88.8471 3.79152 -0.307826 0
M  V30 971 H 90.1591 4.98458 -0.184565 0
M  V30 972 H 89.3131 5.70747 2.05749 0
M  V30 973 H 88.0521 4.44316 2.01084 0
M  V30 974 H 87.0571 5.49786 -0.0385419 0
M  V30 975 H 88.2821 6.79095 0.0270945 0
M  V30 976 H 86.2281 6.18449 2.18761 0
M  V30 977 H 86.1451 7.48709 1.04738 0
M  V30 978 H 87.4131 7.4673 2.23639 0
M  V30 979 N 91.6422 0.330177 1.54103 0
M  V30 980 C 92.5742 -0.566902 2.22079 0
M  V30 981 C 93.5872 -1.07462 1.22294 0
M  V30 982 O 94.7762 -0.987065 1.48726 0
M  V30 983 C 91.8762 -1.79138 2.87685 0
M  V30 984 C 91.0492 -1.42123 4.13666 0
M  V30 985 C 90.1082 -2.50394 4.62806 0
M  V30 986 O 89.1342 -2.14261 5.27334 0
M  V30 987 N 90.3362 -3.81433 4.37595 0
M  V30 988 H 93.1012 0.0151844 2.99696 0
M  V30 989 H 90.6622 0.153681 1.61169 0
M  V30 990 H 92.6542 -2.50975 3.1748 0
M  V30 991 H 91.2242 -2.28115 2.13734 0
M  V30 992 H 90.4442 -0.534201 3.90564 0
M  V30 993 H 91.7322 -1.14971 4.9564 0
M  V30 994 H 91.1302 -4.13584 3.8596 0
M  V30 995 H 89.6872 -4.4948 4.72029 0
M  V30 996 N 93.1203 -1.57491 0.0584922 0
M  V30 997 C 94.0303 -2.15448 -0.928414 0
M  V30 998 C 95.0463 -1.11416 -1.3365 0
M  V30 999 O 96.2223 -1.4362 -1.41193 0
M  V30 1000 C 93.2873 -2.69393 -2.18239 0
M  V30 1001 C 92.3483 -3.88249 -1.83196 0
M  V30 1002 C 91.5813 -4.39613 -3.02616 0
M  V30 1003 O 91.8043 -3.90023 -4.16219 0
M  V30 1004 O 90.7383 -5.31111 -2.83204 0
M  V30 1005 H 94.5643 -3.00112 -0.465483 0
M  V30 1006 H 92.1493 -1.48499 -0.163826 0
M  V30 1007 H 94.0313 -3.04026 -2.91798 0
M  V30 1008 H 92.7063 -1.87796 -2.63656 0
M  V30 1009 H 91.6133 -3.58492 -1.06931 0
M  V30 1010 H 92.9463 -4.71098 -1.42573 0
M  V30 1011 N 94.5984 0.214957 -1.56127 0
M  V30 1012 C 95.5314 1.29382 -1.87977 0
M  V30 1013 C 96.5094 1.44897 -0.737807 0
M  V30 1014 O 97.6934 1.60605 -0.986833 0
M  V30 1015 C 94.8204 2.66325 -2.09258 0
M  V30 1016 C 93.8664 2.67789 -3.31951 0
M  V30 1017 S 94.6994 2.21198 -4.8768 0
M  V30 1018 C 95.8554 3.60003 -5.12004 0
M  V30 1019 H 96.0884 1.02173 -2.79192 0
M  V30 1020 H 93.6214 0.417516 -1.48648 0
M  V30 1021 H 95.5794 3.45162 -2.22201 0
M  V30 1022 H 94.2404 2.90755 -1.18829 0
M  V30 1023 H 93.4334 3.68436 -3.43906 0
M  V30 1024 H 93.0354 1.9702 -3.17898 0
M  V30 1025 H 95.3274 4.55739 -5.01307 0
M  V30 1026 H 96.2704 3.52959 -6.13861 0
M  V30 1027 H 96.6784 3.53996 -4.39712 0
M  V30 1028 N 96.0765 1.50051 0.48192 0
M  V30 1029 C 97.0065 1.71046 1.58951 0
M  V30 1030 C 97.9875 0.559288 1.60642 0
M  V30 1031 O 99.1725 0.797243 1.77081 0
M  V30 1032 C 96.3025 1.79462 2.97339 0
M  V30 1033 C 95.2565 2.94558 3.10515 0
M  V30 1034 C 94.5825 2.88105 4.50444 0
M  V30 1035 C 95.8825 4.35227 2.88747 0
M  V30 1036 H 97.5765 2.6378 1.41635 0
M  V30 1037 H 95.1225 1.26936 0.679942 0
M  V30 1038 H 97.0755 1.92734 3.74742 0
M  V30 1039 H 95.7995 0.833412 3.15788 0
M  V30 1040 H 94.4585 2.80918 2.35543 0
M  V30 1041 H 94.1065 1.89853 4.65795 0
M  V30 1042 H 93.8065 3.65366 4.60197 0
M  V30 1043 H 95.3305 3.03412 5.29881 0
M  V30 1044 H 96.7445 4.49449 3.55905 0
M  V30 1045 H 95.1415 5.13856 3.09955 0
M  V30 1046 H 96.2115 4.48347 1.84696 0
M  V30 1047 N 97.5546 -0.734337 1.39446 0
M  V30 1048 C 98.4866 -1.85861 1.34121 0
M  V30 1049 C 99.4996 -1.60871 0.249864 0
M  V30 1050 O 100.689 -1.71093 0.508865 0
M  V30 1051 C 97.7886 -3.21899 1.05991 0
M  V30 1052 C 96.9616 -3.74239 2.26415 0
M  V30 1053 C 96.0206 -4.88841 1.94733 0
M  V30 1054 O 95.0466 -5.02468 2.67422 0
M  V30 1055 N 96.2486 -5.73261 0.913884 0
M  V30 1056 H 99.0136 -1.90934 2.31007 0
M  V30 1057 H 96.5746 -0.915102 1.33557 0
M  V30 1058 H 98.5666 -3.96136 0.828147 0
M  V30 1059 H 97.1366 -3.12091 0.178361 0
M  V30 1060 H 96.3566 -2.91347 2.65539 0
M  V30 1061 H 97.6446 -4.05942 3.06738 0
M  V30 1062 H 97.0426 -5.64842 0.311476 0
M  V30 1063 H 95.5996 -6.47563 0.742015 0
M  V30 1064 N 99.0327 -1.24633 -0.964593 0
M  V30 1065 C 100.261 -1.11501 -1.74285 0
M  V30 1066 C 100.676 0.332165 -1.85855 0
M  V30 1067 O 100.033 1.22903 -1.34911 0
M  V30 1068 C 100.084 -1.75258 -3.16175 0
M  V30 1069 O 99.8047 -3.14318 -3.05182 0
M  V30 1070 C 101.306 -1.67776 -4.10324 0
M  V30 1071 H 98.5257 -0.389407 -0.546446 0
M  V30 1072 H 101.07 -1.64801 -1.21083 0
M  V30 1073 H 99.2247 -1.25954 -3.66353 0
M  V30 1074 H 99.6387 -3.4551 -3.94618 0
M  V30 1075 H 101.113 -2.17064 -5.0753 0
M  V30 1076 H 101.59 -0.639584 -4.34518 0
M  V30 1077 H 102.196 -2.16522 -3.66058 0
M  V30 1078 N 100.511 1.16574 -1.06058 0
M  V30 1079 C 101.421 2.2452 -0.680282 0
M  V30 1080 C 102.437 1.71348 0.302604 0
M  V30 1081 O 103.613 2.00822 0.152513 0
M  V30 1082 C 100.678 3.46629 -0.0700315 0
M  V30 1083 C 99.7388 4.14849 -1.10448 0
M  V30 1084 C 98.9718 5.31129 -0.523256 0
M  V30 1085 O 99.1948 5.66514 0.664709 0
M  V30 1086 O 98.1288 5.88526 -1.26179 0
M  V30 1087 H 101.955 2.59355 -1.58015 0
M  V30 1088 H 99.5398 1.24043 -0.832694 0
M  V30 1089 H 101.422 4.20543 0.268667 0
M  V30 1090 H 100.097 3.13573 0.803353 0
M  V30 1091 H 99.0038 3.42916 -1.49532 0
M  V30 1092 H 100.337 4.51954 -1.94931 0
M  V30 1093 N 101.989 0.842826 1.3317 0
M  V30 1094 C 103.237 0.439577 1.97262 0
M  V30 1095 C 103.558 -1.00548 1.67078 0
M  V30 1096 O 102.828 -1.70098 0.971779 0
M  V30 1097 H 101.408 0.159558 0.72976 0
M  V30 1098 H 104.07 1.07665 1.62463 0
M  V30 1099 H 103.166 0.574886 3.0676 0
M  V30 1100 N 103.467 -1.45747 0.599634 0
M  V30 1101 C 104.692 -2.07178 0.0960198 0
M  V30 1102 C 105.117 -1.44268 -1.207 0
M  V30 1103 O 104.475 -0.532503 -1.73303 0
M  V30 1104 C 104.523 -3.60579 -0.0385348 0
M  V30 1105 O 103.627 -3.97713 -1.0908 0
M  V30 1106 H 102.968 -0.660251 0.0704593 0
M  V30 1107 H 105.498 -1.87124 0.827385 0
M  V30 1108 H 105.508 -4.07298 -0.239304 0
M  V30 1109 H 104.183 -4.05756 0.912947 0
M  V30 1110 H 102.76 -3.62678 -0.867135 0
M  V30 1111 N 104.945 -0.338344 -1.53925 0
M  V30 1112 C 105.877 0.555117 -2.22376 0
M  V30 1113 C 106.89 1.06812 -1.22862 0
M  V30 1114 O 108.079 0.979163 -1.49247 0
M  V30 1115 C 105.179 1.77609 -2.88631 0
M  V30 1116 C 104.352 1.39927 -4.14414 0
M  V30 1117 C 103.411 2.47936 -4.64127 0
M  V30 1118 O 102.437 2.11461 -5.28463 0
M  V30 1119 N 103.639 3.79107 -4.39612 0
M  V30 1120 H 106.404 -0.0310778 -2.99684 0
M  V30 1121 H 103.965 -0.162226 -1.61085 0
M  V30 1122 H 105.957 2.49287 -3.18807 0
M  V30 1123 H 104.527 2.26978 -2.14941 0
M  V30 1124 H 103.747 0.513481 -3.90841 0
M  V30 1125 H 105.035 1.12341 -4.96243 0
M  V30 1126 H 104.433 4.11531 -3.88148 0
M  V30 1127 H 102.99 4.4697 -4.74406 0
M  V30 1128 N 106.423 1.57458 -0.0668435 0
M  V30 1129 C 107.663 1.95175 0.607116 0
M  V30 1130 C 108.027 0.946039 1.67075 0
M  V30 1131 O 109.228 1.2107 2.39991 0
M  V30 1132 C 107.499 3.37582 1.17358 0
M  V30 1133 S 109.058 3.97271 1.86336 0
M  V30 1134 H 105.876 0.682604 0.19893 0
M  V30 1135 H 108.478 1.95002 -0.139519 0
M  V30 1136 H 107.182 4.08566 0.387553 0
M  V30 1137 H 106.713 3.41288 1.95669 0
M  V30 1138 H 108.728 3.83772 3.14537 0
M  V30 1139 N 107.901 -0.206675 1.56239 0
M  V30 1140 C 108.864 -1.23976 1.92776 0
M  V30 1141 C 109.864 -1.39041 0.807729 0
M  V30 1142 O 111.054 -1.37051 1.0753 0
M  V30 1143 C 108.186 -2.61112 2.19165 0
M  V30 1144 H 109.379 -0.927764 2.85189 0
M  V30 1145 H 106.932 -0.447718 1.4975 0
M  V30 1146 H 107.667 -2.97386 1.29352 0
M  V30 1147 H 107.452 -2.51552 3.00772 0
M  V30 1148 H 108.942 -3.35633 2.48476 0
M  V30 1149 N 109.379 -1.50304 -0.473955 0
M  V30 1150 C 110.326 -1.68959 -1.57231 0
M  V30 1151 C 111.296 -0.530899 -1.57387 0
M  V30 1152 O 112.481 -0.761133 -1.74961 0
M  V30 1153 C 109.621 -1.7871 -2.95223 0
M  V30 1154 C 108.734 -3.06061 -3.04878 0
M  V30 1155 C 107.869 -3.06626 -4.33767 0
M  V30 1156 C 106.908 -4.28443 -4.37154 0
M  V30 1157 N 106.045 -4.26763 -5.5751 0
M  V30 1158 H 110.885 -2.6273 -1.40631 0
M  V30 1159 H 108.422 -1.30241 -0.683789 0
M  V30 1160 H 110.38 -1.82344 -3.75242 0
M  V30 1161 H 109.01 -0.883806 -3.10465 0
M  V30 1162 H 108.062 -3.11911 -2.17751 0
M  V30 1163 H 109.374 -3.96039 -3.0324 0
M  V30 1164 H 108.528 -3.08973 -5.22131 0
M  V30 1165 H 107.267 -2.14473 -4.3801 0
M  V30 1166 H 106.272 -4.2631 -3.47188 0
M  V30 1167 H 107.497 -5.2182 -4.34605 0
M  V30 1168 H 105.443 -3.37462 -5.62544 0
M  V30 1169 H 105.36 -5.10507 -5.57601 0
M  V30 1170 H 106.628 -4.33253 -6.48006 0
M  V30 1171 N 110.857 0.726932 -1.39834 0
M  V30 1172 C 112.085 1.51613 -1.40787 0
M  V30 1173 C 112.5 1.88799 -0.00451505 0
M  V30 1174 O 111.857 1.54662 0.968809 0
M  V30 1175 C 111.908 2.79863 -2.28821 0
M  V30 1176 O 111.629 2.44253 -3.63692 0
M  V30 1177 C 113.13 3.73837 -2.38245 0
M  V30 1178 H 110.35 0.468264 -0.480593 0
M  V30 1179 H 112.894 0.897607 -1.83748 0
M  V30 1180 H 111.049 3.38027 -1.89252 0
M  V30 1181 H 111.463 3.26695 -4.1033 0
M  V30 1182 H 112.937 4.60699 -3.04073 0
M  V30 1183 H 113.414 4.16153 -1.40403 0
M  V30 1184 H 114.02 3.21589 -2.78317 0
M  V30 1185 N 112.336 1.25143 0.95797 0
M  V30 1186 C 113.583 1.09692 1.70217 0
M  V30 1187 C 113.911 -0.362654 1.91089 0
M  V30 1188 O 113.166 -1.28386 1.47701 0
M  V30 1189 C 113.465 1.79272 3.09187 0
M  V30 1190 C 113.131 3.29196 3.08125 0
M  V30 1191 C 111.793 3.70096 3.07543 0
M  V30 1192 C 114.145 4.24995 3.0171 0
M  V30 1193 C 111.473 5.05213 2.9829 0
M  V30 1194 C 113.825 5.60132 2.93999 0
M  V30 1195 C 112.489 6.00365 2.9175 0
M  V30 1196 H 111.759 0.401393 0.622868 0
M  V30 1197 H 114.406 1.55372 1.11945 0
M  V30 1198 H 112.711 1.26014 3.70982 0
M  V30 1199 H 114.408 1.64773 3.65583 0
M  V30 1200 H 110.998 2.96651 3.09348 0
M  V30 1201 H 115.182 3.9439 3.01281 0
M  V30 1202 H 110.438 5.35569 2.94916 0
M  V30 1203 H 114.612 6.3406 2.87996 0
M  V30 1204 H 112.239 7.05023 2.84336 0
M  V30 1205 N 113.814 -1.1601 1.06675 0
M  V30 1206 C 115.063 -1.85973 0.780818 0
M  V30 1207 C 115.376 -1.82819 -0.695444 0
M  V30 1208 O 116.582 -2.484 -1.09589 0
M  V30 1209 C 115.038 -3.33757 1.34665 0
M  V30 1210 C 114.646 -3.45374 2.85343 0
M  V30 1211 C 116.39 -4.0895 1.13843 0
M  V30 1212 C 114.297 -4.87266 3.35151 0
M  V30 1213 H 113.227 -0.696661 0.288407 0
M  V30 1214 H 115.878 -1.30903 1.28595 0
M  V30 1215 H 114.26 -3.88456 0.769274 0
M  V30 1216 H 115.434 -3.00816 3.49065 0
M  V30 1217 H 113.749 -2.83619 3.04876 0
M  V30 1218 H 116.346 -5.13654 1.4854 0
M  V30 1219 H 116.689 -4.16229 0.0770282 0
M  V30 1220 H 117.222 -3.605 1.68179 0
M  V30 1221 H 113.961 -4.85168 4.40786 0
M  V30 1222 H 113.481 -5.32433 2.76179 0
M  V30 1223 H 115.16 -5.56097 3.30704 0
M  V30 1224 N 115.292 -0.849877 -1.32721 0
M  V30 1225 C 116.24 -0.279745 -2.30912 0
M  V30 1226 C 117.234 0.594278 -1.58634 0
M  V30 1227 O 118.44 0.482613 -1.73409 0
M  V30 1228 H 114.815 -0.0717521 -0.748569 0
M  V30 1229 H 116.786 -1.12222 -2.76494 0
M  V30 1230 C 115.535 0.521108 -3.43773 0
M  V30 1231 H 114.858 -0.142141 -3.99547 0
M  V30 1232 H 116.298 0.885693 -4.14646 0
M  V30 1233 C 114.757 1.70442 -2.90605 0
M  V30 1234 O 115.287 2.8034 -2.87702 0
M  V30 1235 N 113.493 1.52991 -2.47067 0
M  V30 1236 H 113.04 0.635914 -2.49628 0
M  V30 1237 H 112.998 2.32311 -2.11847 0
M  V30 1238 N 116.77 1.45427 -0.607355 0
M  V30 1239 C 117.7 2.3329 0.0989352 0
M  V30 1240 C 118.681 1.46816 0.859007 0
M  V30 1241 O 119.866 1.75588 0.829604 0
M  V30 1242 C 116.996 3.29518 1.09705 0
M  V30 1243 C 115.95 4.25626 0.450206 0
M  V30 1244 C 115.276 5.11542 1.55655 0
M  V30 1245 C 116.576 5.18505 -0.628455 0
M  V30 1246 H 118.27 2.92595 -0.634716 0
M  V30 1247 H 115.816 1.40696 -0.306681 0
M  V30 1248 H 117.769 3.89855 1.59971 0
M  V30 1249 H 116.493 2.68372 1.86129 0
M  V30 1250 H 115.152 3.66586 -0.0315886 0
M  V30 1251 H 114.8 4.46765 2.31107 0
M  V30 1252 H 114.5 5.76647 1.12925 0
M  V30 1253 H 116.024 5.74748 2.06148 0
M  V30 1254 H 117.438 5.72916 -0.209877 0
M  V30 1255 H 115.835 5.92085 -0.977489 0
M  V30 1256 H 116.905 4.60948 -1.50514 0
M  V30 1257 N 118.248 0.346503 1.53744 0
M  V30 1258 C 119.181 -0.552023 2.21423 0
M  V30 1259 C 120.159 -1.09798 1.19929 0
M  V30 1260 O 121.343 -1.1577 1.4876 0
M  V30 1261 C 118.47 -1.75972 2.89398 0
M  V30 1262 C 117.516 -1.34295 4.04805 0
M  V30 1263 S 118.349 -0.360263 5.34287 0
M  V30 1264 C 119.505 -1.57473 6.05767 0
M  V30 1265 H 119.738 0.0228119 2.97291 0
M  V30 1266 H 117.271 0.130579 1.53847 0
M  V30 1267 H 119.229 -2.45256 3.2918 0
M  V30 1268 H 117.89 -2.30578 2.1329 0
M  V30 1269 H 117.083 -2.24349 4.51313 0
M  V30 1270 H 116.685 -0.729555 3.66815 0
M  V30 1271 H 118.977 -2.50875 6.29339 0
M  V30 1272 H 119.92 -1.15138 6.98676 0
M  V30 1273 H 120.328 -1.77212 5.35963 0
M  V30 1274 N 119.726 -1.57421 0.075193 0
M  V30 1275 C 120.954 -1.97946 -0.602076 0
M  V30 1276 C 121.369 -0.953674 -1.62943 0
M  V30 1277 O 120.726 0.0592551 -1.82404 0
M  V30 1278 C 120.777 -3.38546 -1.26762 0
M  V30 1279 O 120.498 -4.37195 -0.281376 0
M  V30 1280 C 121.999 -3.93966 -2.03239 0
M  V30 1281 H 119.219 -0.650918 -0.162931 0
M  V30 1282 H 121.763 -2.03959 0.148601 0
M  V30 1283 H 119.918 -3.33609 -1.96936 0
M  V30 1284 H 120.332 -5.18975 -0.759267 0
M  V30 1285 H 121.806 -4.94555 -2.45193 0
M  V30 1286 H 122.283 -3.30693 -2.8903 0
M  V30 1287 H 122.889 -4.02315 -1.37924 0
M  V30 1288 N 121.204 0.198386 -1.56346 0
M  V30 1289 C 122.154 1.2499 -1.90687 0
M  V30 1290 C 123.138 1.41158 -0.772217 0
M  V30 1291 O 124.33 1.43584 -1.03502 0
M  V30 1292 C 121.459 2.59542 -2.24706 0
M  V30 1293 C 120.545 2.47181 -3.44619 0
M  V30 1294 N 120.936 2.04495 -4.62618 0
M  V30 1295 C 119.234 2.78082 -3.48692 0
M  V30 1296 C 119.935 2.03945 -5.44776 0
M  V30 1297 N 118.911 2.45323 -4.85095 0
M  V30 1298 H 122.713 0.911149 -2.7942 0
M  V30 1299 H 120.227 0.40684 -1.57221 0
M  V30 1300 H 122.224 3.3549 -2.47491 0
M  V30 1301 H 120.884 2.94244 -1.37298 0
M  V30 1302 H 121.895 1.75256 -4.87345 0
M  V30 1303 H 118.572 3.17002 -2.71691 0
M  V30 1304 H 119.962 1.72872 -6.4928 0
M  V30 1305 N 122.682 1.50554 0.465978 0
M  V30 1306 C 123.931 1.61038 1.21448 0
M  V30 1307 C 124.244 0.31865 1.92987 0
M  V30 1308 O 125.45 0.302469 2.6981 0
M  V30 1309 C 123.906 2.84283 2.20706 0
M  V30 1310 C 123.514 4.20352 1.54946 0
M  V30 1311 C 125.258 3.04115 2.96166 0
M  V30 1312 C 123.165 5.34778 2.5252 0
M  V30 1313 H 122.095 0.599718 0.457005 0
M  V30 1314 H 124.746 1.7699 0.484424 0
M  V30 1315 H 123.128 2.61901 2.97025 0
M  V30 1316 H 124.302 4.53008 0.843811 0
M  V30 1317 H 122.617 4.06167 0.917475 0
M  V30 1318 H 125.214 3.86774 3.69202 0
M  V30 1319 H 125.557 2.16045 3.55852 0
M  V30 1320 H 126.09 3.26702 2.26959 0
M  V30 1321 H 122.829 6.25018 1.97566 0
M  V30 1322 H 122.349 5.06534 3.21222 0
M  V30 1323 H 124.028 5.65561 3.14245 0
M  V30 1324 N 124.16 -0.719506 1.40217 0
M  V30 1325 C 125.4 -1.49181 1.39729 0
M  V30 1326 C 125.764 -1.92 -0.00250614 0
M  V30 1327 O 126.965 -2.68473 -0.132479 0
M  V30 1328 C 125.236 -2.68767 2.35582 0
M  V30 1329 S 126.795 -3.58224 2.53418 0
M  V30 1330 H 123.613 -0.510091 0.495307 0
M  V30 1331 H 126.215 -0.841724 1.76452 0
M  V30 1332 H 124.919 -2.35475 3.36124 0
M  V30 1333 H 124.45 -3.38691 2.0013 0
M  V30 1334 H 126.465 -4.63033 1.78367 0
M  V30 1335 N 125.638 -1.25649 -0.95132 0
M  V30 1336 C 126.585 -1.06323 -2.04851 0
M  V30 1337 C 127.555 0.0286491 -1.66075 0
M  V30 1338 O 128.74 -0.12917 -1.90362 0
M  V30 1339 C 125.88 -0.691529 -3.381 0
M  V30 1340 C 124.993 -1.85861 -3.89974 0
M  V30 1341 C 124.128 -1.43096 -5.11563 0
M  V30 1342 C 123.167 -2.56696 -5.55674 0
M  V30 1343 N 122.304 -2.14684 -6.68472 0
M  V30 1344 H 127.144 -2.00222 -2.20715 0
M  V30 1345 H 124.681 -0.997027 -1.08156 0
M  V30 1346 H 126.639 -0.456963 -4.1469 0
M  V30 1347 H 125.269 0.210474 -3.22113 0
M  V30 1348 H 124.321 -2.20639 -3.09875 0
M  V30 1349 H 125.633 -2.71161 -4.18657 0
M  V30 1350 H 124.787 -1.15624 -5.9558 0
M  V30 1351 H 123.526 -0.548722 -4.84603 0
M  V30 1352 H 122.531 -2.84909 -4.7022 0
M  V30 1353 H 123.756 -3.45503 -5.8464 0
M  V30 1354 H 121.702 -1.28881 -6.43215 0
M  V30 1355 H 121.619 -2.9353 -6.96689 0
M  V30 1356 H 122.887 -1.90397 -7.5589 0
M  V30 1357 N 127.117 1.15442 -1.07289 0
M  V30 1358 C 128.027 2.23786 -0.704057 0
M  V30 1359 C 129.043 1.7166 0.284413 0
M  V30 1360 O 130.219 2.00972 0.131205 0
M  V30 1361 C 127.284 3.46535 -0.106792 0
M  V30 1362 C 126.345 4.13654 -1.14842 0
M  V30 1363 C 125.578 5.30544 -0.57956 0
M  V30 1364 O 125.801 5.67187 0.604585 0
M  V30 1365 O 124.735 5.87154 -1.32414 0
M  V30 1366 H 128.561 2.57664 -1.60757 0
M  V30 1367 H 126.146 1.23152 -0.845803 0
M  V30 1368 H 128.028 4.20804 0.224048 0
M  V30 1369 H 126.703 3.14407 0.770049 0
M  V30 1370 H 125.61 3.4131 -1.5316 0
M  V30 1371 H 126.943 4.49861 -1.99714 0
M  V30 1372 N 128.595 0.856903 1.32268 0
M  V30 1373 C 129.527 0.260412 2.27716 0
M  V30 1374 C 130.54 -0.569137 1.52528 0
M  V30 1375 O 131.729 -0.39326 1.74114 0
M  V30 1376 C 128.829 -0.650477 3.32599 0
M  V30 1377 C 128.002 0.14372 4.37164 0
M  V30 1378 C 127.061 -0.69328 5.21613 0
M  V30 1379 O 126.087 -0.12599 5.69061 0
M  V30 1380 N 127.289 -2.00761 5.44679 0
M  V30 1381 H 130.054 1.08059 2.79541 0
M  V30 1382 H 127.615 0.717103 1.45152 0
M  V30 1383 H 129.607 -1.21581 3.86005 0
M  V30 1384 H 128.177 -1.37133 2.80915 0
M  V30 1385 H 127.397 0.890486 3.8401 0
M  V30 1386 H 128.685 0.68915 5.04111 0
M  V30 1387 H 128.083 -2.49181 5.07863 0
M  V30 1388 H 126.64 -2.52103 6.01072 0
M  V30 1389 N 130.073 -1.45103 0.615059 0
M  V30 1390 C 131.301 -2.06553 0.11977 0
M  V30 1391 C 131.716 -1.45842 -1.19898 0
M  V30 1392 O 131.073 -0.575325 -1.73194 0
M  V30 1393 C 131.124 -3.61495 -0.018364 0
M  V30 1394 O 130.845 -4.19942 1.24822 0
M  V30 1395 C 132.346 -4.39947 -0.544237 0
M  V30 1396 H 129.566 -0.667096 0.0722739 0
M  V30 1397 H 132.11 -1.8623 0.84491 0
M  V30 1398 H 130.265 -3.81135 -0.693865 0
M  V30 1399 H 130.679 -5.13204 1.0827 0
M  V30 1400 H 132.153 -5.48838 -0.589953 0
M  V30 1401 H 132.63 -4.10255 -1.56805 0
M  V30 1402 H 133.236 -4.25188 0.0974703 0
M  V30 1403 N 131.551 -0.354651 -1.53558 0
M  V30 1404 C 132.797 0.238797 -2.01389 0
M  V30 1405 C 133.13 1.49309 -1.2418 0
M  V30 1406 O 132.405 1.91638 -0.332457 0
M  V30 1407 C 132.688 0.541771 -3.56001 0
M  V30 1408 C 132.541 -0.725388 -4.43912 0
M  V30 1409 C 133.86 1.34685 -4.18984 0
M  V30 1410 H 130.979 0.0853177 -0.732045 0
M  V30 1411 H 133.621 -0.477384 -1.83905 0
M  V30 1412 H 131.771 1.15189 -3.71031 0
M  V30 1413 H 133.443 -1.36313 -4.407 0
M  V30 1414 H 131.686 -1.34801 -4.12324 0
M  V30 1415 H 132.357 -0.468505 -5.50008 0
M  V30 1416 H 134.833 0.830837 -4.07721 0
M  V30 1417 H 133.709 1.52759 -5.27215 0
M  V30 1418 H 133.97 2.35221 -3.74331 0
M  V30 1419 N 133.029 1.57378 -0.0835403 0
M  V30 1420 C 133.961 2.10389 0.909338 0
M  V30 1421 C 134.974 1.03858 1.25369 0
M  V30 1422 O 136.163 1.31338 1.20882 0
M  V30 1423 C 133.263 2.55908 2.2218 0
M  V30 1424 C 132.436 3.86145 2.05453 0
M  V30 1425 C 131.495 4.17633 3.20108 0
M  V30 1426 O 130.521 4.87043 2.94581 0
M  V30 1427 N 131.723 3.72113 4.45547 0
M  V30 1428 H 134.488 2.962 0.456657 0
M  V30 1429 H 132.049 1.61579 0.101877 0
M  V30 1430 H 134.041 2.74027 2.97811 0
M  V30 1431 H 132.611 1.75171 2.58909 0
M  V30 1432 H 131.831 3.7729 1.1422 0
M  V30 1433 H 133.119 4.7137 1.91541 0
M  V30 1434 H 132.517 3.16062 4.69171 0
M  V30 1435 H 131.074 3.95409 5.18165 0
M  V30 1436 N 134.507 -0.190092 1.56449 0
M  V30 1437 C 135.737 -0.92443 1.84764 0
M  V30 1438 C 136.145 -1.77146 0.664529 0
M  V30 1439 O 135.488 -1.79812 -0.375957 0
M  V30 1440 C 135.55 -1.86651 3.07248 0
M  V30 1441 C 135.214 -1.20094 4.40938 0
M  V30 1442 C 136.211 -0.575445 5.16706 0
M  V30 1443 C 133.896 -1.2033 4.87674 0
M  V30 1444 C 135.89 0.0388111 6.37388 0
M  V30 1445 C 133.577 -0.585214 6.08291 0
M  V30 1446 C 134.575 0.0347578 6.82991 0
M  V30 1447 O 134.263 0.643147 8.01323 0
M  V30 1448 H 133.995 -0.274974 0.617548 0
M  V30 1449 H 136.549 -0.200788 2.04416 0
M  V30 1450 H 134.779 -2.62998 2.83494 0
M  V30 1451 H 136.468 -2.46907 3.22167 0
M  V30 1452 H 137.234 -0.565728 4.81689 0
M  V30 1453 H 133.113 -1.67526 4.29484 0
M  V30 1454 H 136.657 0.523329 6.95634 0
M  V30 1455 H 132.554 -0.592451 6.42775 0
M  V30 1456 H 133.322 0.540545 8.16713 0
M  V30 1457 N 135.985 -1.50799 -0.457987 0
M  V30 1458 C 137.234 -1.6168 -1.20593 0
M  V30 1459 C 137.547 -0.32888 -1.92815 0
M  V30 1460 O 138.753 -0.316773 -2.69646 0
M  V30 1461 C 137.209 -2.8545 -2.19195 0
M  V30 1462 C 136.817 -4.21168 -1.52715 0
M  V30 1463 C 138.561 -3.05681 -2.94549 0
M  V30 1464 C 136.468 -5.3611 -2.4968 0
M  V30 1465 H 135.398 -0.602134 -0.453818 0
M  V30 1466 H 138.049 -1.77245 -0.475031 0
M  V30 1467 H 136.431 -2.63472 -2.95632 0
M  V30 1468 H 137.605 -4.53449 -0.819775 0
M  V30 1469 H 135.92 -4.06648 -0.895922 0
M  V30 1470 H 138.517 -3.88727 -3.67145 0
M  V30 1471 H 138.86 -2.17929 -3.54701 0
M  V30 1472 H 139.393 -3.27901 -2.25223 0
M  V30 1473 H 136.132 -6.26057 -1.94249 0
M  V30 1474 H 135.652 -5.0823 -3.18532 0
M  V30 1475 H 137.331 -5.6722 -3.11241 0
M  V30 1476 N 137.463 0.71206 -1.40597 0
M  V30 1477 C 138.393 1.83889 -1.43899 0
M  V30 1478 C 139.374 1.67442 -0.299504 0
M  V30 1479 O 140.559 1.87421 -0.508624 0
M  V30 1480 C 137.689 3.21877 -1.30431 0
M  V30 1481 C 136.643 3.53002 -2.42019 0
M  V30 1482 C 135.969 4.90172 -2.13626 0
M  V30 1483 C 137.269 3.53643 -3.84362 0
M  V30 1484 H 138.963 1.81383 -2.38203 0
M  V30 1485 H 136.509 0.871237 -1.14654 0
M  V30 1486 H 138.462 4.00404 -1.31357 0
M  V30 1487 H 137.186 3.24968 -0.326049 0
M  V30 1488 H 135.845 2.76818 -2.40349 0
M  V30 1489 H 135.493 4.89869 -1.14182 0
M  V30 1490 H 135.193 5.11962 -2.88389 0
M  V30 1491 H 136.717 5.71028 -2.1624 0
M  V30 1492 H 138.131 4.22203 -3.87837 0
M  V30 1493 H 136.528 3.86961 -4.58673 0
M  V30 1494 H 137.598 2.52954 -4.13693 0
M  V30 1495 N 138.941 1.26152 0.944643 0
M  V30 1496 C 140.169 1.14259 1.72489 0
M  V30 1497 C 140.584 -0.302555 1.8636 0
M  V30 1498 O 139.941 -1.20741 1.36849 0
M  V30 1499 C 139.992 1.80266 3.13347 0
M  V30 1500 O 139.713 3.19133 3.00143 0
M  V30 1501 C 141.214 1.74283 4.07603 0
M  V30 1502 H 138.434 0.398051 0.540181 0
M  V30 1503 H 140.978 1.66706 1.18446 0
M  V30 1504 H 139.133 1.31766 3.64303 0
M  V30 1505 H 139.547 3.51744 3.89071 0
M  V30 1506 H 141.021 2.25111 5.04013 0
M  V30 1507 H 141.498 0.708631 4.33446 0
M  V30 1508 H 142.104 2.22319 3.62567 0
M  V30 1509 N 140.419 -1.14872 1.07899 0
M  V30 1510 C 141.352 -2.18794 0.64841 0
M  V30 1511 C 142.33 -1.59065 -0.337189 0
M  V30 1512 O 143.514 -1.86936 -0.242284 0
M  V30 1513 C 140.641 -3.38667 -0.0470417 0
M  V30 1514 C 139.687 -4.16942 0.897884 0
M  V30 1515 S 140.52 -4.78615 2.40183 0
M  V30 1516 C 141.676 -6.0185 1.71834 0
M  V30 1517 H 141.909 -2.5498 1.52881 0
M  V30 1518 H 139.442 -1.25922 0.893484 0
M  V30 1519 H 141.4 -4.08113 -0.442027 0
M  V30 1520 H 140.061 -3.00814 -0.903861 0
M  V30 1521 H 139.254 -5.02726 0.358096 0
M  V30 1522 H 138.856 -3.53073 1.23352 0
M  V30 1523 H 141.148 -6.69574 1.03328 0
M  V30 1524 H 142.091 -6.60408 2.55473 0
M  V30 1525 H 142.499 -5.5173 1.19392 0
M  V30 1526 N 141.898 -0.863906 -1.31812 0
M  V30 1527 C 143.144 -0.472535 -1.97218 0
M  V30 1528 C 143.477 0.971394 -1.68159 0
M  V30 1529 O 142.752 1.68309 -0.974798 0
M  V30 1530 C 143.035 -0.723054 -3.52766 0
M  V30 1531 C 142.888 -2.21608 -3.91421 0
M  V30 1532 C 144.207 -0.185522 -4.39709 0
M  V30 1533 H 141.326 -0.173158 -0.71637 0
M  V30 1534 H 143.968 -1.08403 -1.56041 0
M  V30 1535 H 142.118 -0.202577 -3.87971 0
M  V30 1536 H 143.79 -2.80334 -3.66347 0
M  V30 1537 H 142.033 -2.691 -3.40246 0
M  V30 1538 H 142.704 -2.34203 -4.99853 0
M  V30 1539 H 145.18 -0.630726 -4.11292 0
M  V30 1540 H 144.056 -0.390306 -5.47511 0
M  V30 1541 H 144.317 0.912229 -4.32586 0
M  V30 1542 N 143.376 1.44774 -0.622745 0
M  V30 1543 C 144.653 1.95522 -0.0551974 0
M  V30 1544 C 145.033 1.5649 1.41683 0
M  V30 1545 O 144.381 0.834848 2.12703 0
M  V30 1546 C 144.591 3.4796 -0.269242 0
M  V30 1547 C 145.939 4.24306 -0.158014 0
M  V30 1548 O 146.963 3.55637 -0.200162 0
M  V30 1549 O 145.822 5.46471 -0.0558693 0
M  V30 1550 H 142.916 0.826556 0.0271015 0
M  V30 1551 H 145.462 1.54866 -0.693864 0
M  V30 1552 H 144.234 3.6939 -1.29099 0
M  V30 1553 H 143.857 3.95543 0.403966 0
M  V30 1554 N 144.854 0.36279 1.53368 0
M  V30 1555 C 146.131 -0.284021 1.93527 0
M  V30 1556 C 146.511 -1.66628 1.29608 0
M  V30 1557 O 145.859 -2.23942 0.45413 0
M  V30 1558 C 146.069 -0.337028 3.47369 0
M  V30 1559 C 147.417 -0.578708 4.20638 0
M  V30 1560 O 148.441 -0.418352 3.53735 0
M  V30 1561 O 147.3 -0.89074 5.39192 0
M  V30 1562 H 144.394 -0.169743 0.809393 0
M  V30 1563 H 146.94 0.41537 1.64538 0
M  V30 1564 H 145.712 0.632217 3.86159 0
M  V30 1565 H 145.335 -1.08243 3.82582 0
M  V30 1566 N 146.332 -1.57332 0.0918853 0
M  V30 1567 C 147.265 -2.09499 -0.904735 0
M  V30 1568 C 148.243 -1.00479 -1.27839 0
M  V30 1569 O 149.427 -1.27954 -1.38419 0
M  V30 1570 C 146.554 -2.56931 -2.2069 0
M  V30 1571 C 145.6 -3.77579 -1.98334 0
M  V30 1572 S 146.433 -5.21317 -1.22428 0
M  V30 1573 C 147.589 -5.72097 -2.53882 0
M  V30 1574 H 147.822 -2.93705 -0.460922 0
M  V30 1575 H 145.355 -1.53923 -0.121332 0
M  V30 1576 H 147.313 -2.84917 -2.95521 0
M  V30 1577 H 145.974 -1.72956 -2.62192 0
M  V30 1578 H 145.167 -4.08824 -2.94752 0
M  V30 1579 H 144.769 -3.5007 -1.31633 0
M  V30 1580 H 147.061 -5.80168 -3.49874 0
M  V30 1581 H 148.004 -6.70654 -2.27219 0
M  V30 1582 H 148.412 -5.00012 -2.62007 0
M  V30 1583 N 147.81 0.181792 -1.56548 0
M  V30 1584 C 148.74 1.22765 -1.98623 0
M  V30 1585 C 149.721 1.46747 -0.860189 0
M  V30 1586 O 150.906 1.58259 -1.12551 0
M  V30 1587 C 148.036 2.56894 -2.33715 0
M  V30 1588 C 146.99 2.475 -3.49182 0
M  V30 1589 C 146.316 3.86023 -3.69986 0
M  V30 1590 C 147.616 1.98866 -4.82959 0
M  V30 1591 H 149.31 0.877942 -2.86239 0
M  V30 1592 H 146.856 0.42088 -1.37712 0
M  V30 1593 H 148.809 3.30253 -2.61746 0
M  V30 1594 H 147.533 2.93632 -1.42997 0
M  V30 1595 H 146.192 1.76596 -3.21262 0
M  V30 1596 H 145.84 4.20136 -2.76576 0
M  V30 1597 H 145.54 3.80609 -4.47672 0
M  V30 1598 H 147.064 4.60984 -4.00407 0
M  V30 1599 H 148.478 2.61992 -5.09934 0
M  V30 1600 H 146.875 2.04424 -5.64208 0
M  V30 1601 H 147.945 0.942465 -4.75653 0
M  V30 1602 N 149.288 1.51039 0.449983 0
M  V30 1603 C 150.22 1.67617 1.56324 0
M  V30 1604 C 151.233 0.557083 1.52972 0
M  V30 1605 O 152.422 0.830989 1.57977 0
M  V30 1606 C 149.522 1.66402 2.95235 0
M  V30 1607 C 148.695 2.9469 3.23229 0
M  V30 1608 C 147.754 2.85832 4.41799 0
M  V30 1609 O 146.78 3.59785 4.41071 0
M  V30 1610 N 147.982 2.00821 5.44657 0
M  V30 1611 H 150.747 2.63648 1.42512 0
M  V30 1612 H 148.308 1.48767 0.638737 0
M  V30 1613 H 150.3 1.58062 3.72557 0
M  V30 1614 H 148.87 0.780182 3.02708 0
M  V30 1615 H 148.09 3.16996 2.34323 0
M  V30 1616 H 149.378 3.79636 3.38754 0
M  V30 1617 H 148.776 1.40091 5.48079 0
M  V30 1618 H 147.333 1.98368 6.20881 0
M  V30 1619 N 150.766 -0.704594 1.40972 0
M  V30 1620 C 151.676 -1.84856 1.44448 0
M  V30 1621 C 152.692 -1.70726 0.335961 0
M  V30 1622 O 153.868 -1.92799 0.582276 0
M  V30 1623 C 150.933 -3.20758 1.31587 0
M  V30 1624 C 149.994 -3.47063 2.52677 0
M  V30 1625 C 149.227 -4.76481 2.4042 0
M  V30 1626 O 149.45 -5.52341 1.42391 0
M  V30 1627 O 148.384 -5.03367 3.30007 0
M  V30 1628 H 152.21 -1.8488 2.40942 0
M  V30 1629 H 149.795 -0.85647 1.22413 0
M  V30 1630 H 151.677 -4.01913 1.26665 0
M  V30 1631 H 150.352 -3.21438 0.382049 0
M  V30 1632 H 149.259 -2.65873 2.63177 0
M  V30 1633 H 150.592 -3.5119 3.44858 0
M  V30 1634 N 152.244 -1.26651 -0.937939 0
M  V30 1635 C 153.192 -1.08308 -2.05845 0
M  V30 1636 C 154.186 -0.0090757 -1.69398 0
M  V30 1637 O 155.392 -0.166007 -1.79233 0
M  V30 1638 H 151.767 -0.333416 -0.674046 0
M  V30 1639 H 153.738 -2.03261 -2.18467 0
M  V30 1640 C 152.487 -0.736229 -3.39816 0
M  V30 1641 H 151.81 -1.55453 -3.6834 0
M  V30 1642 H 153.25 -0.64769 -4.19024 0
M  V30 1643 C 151.709 0.558824 -3.32233 0
M  V30 1644 O 152.239 1.59621 -3.68624 0
M  V30 1645 N 150.445 0.550657 -2.85335 0
M  V30 1646 H 149.992 -0.293943 -2.55917 0
M  V30 1647 H 149.95 1.41726 -2.80644 0
M  V30 1648 N 153.722 1.14298 -1.08507 0
M  V30 1649 C 154.672 2.17449 -0.685569 0
M  V30 1650 C 155.656 1.58167 0.295315 0
M  V30 1651 O 156.848 1.76675 0.107172 0
M  V30 1652 C 153.977 3.43161 -0.0975318 0
M  V30 1653 C 153.063 4.09471 -1.10426 0
M  V30 1654 N 153.454 4.51089 -2.28806 0
M  V30 1655 C 151.752 4.35976 -0.940258 0
M  V30 1656 C 152.453 5.02654 -2.9277 0
M  V30 1657 N 151.429 4.96927 -2.20374 0
M  V30 1658 H 155.231 2.47369 -1.587 0
M  V30 1659 H 152.745 1.30992 -0.959936 0
M  V30 1660 H 154.742 4.16388 0.20664 0
M  V30 1661 H 153.402 3.14719 0.798872 0
M  V30 1662 H 154.413 4.44097 -2.66455 0
M  V30 1663 H 151.09 4.17386 -0.0977441 0
M  V30 1664 H 152.48 5.44723 -3.93352 0
M  V30 1665 N 155.201 0.870884 1.31352 0
M  V30 1666 C 156.133 0.28455 2.27427 0
M  V30 1667 C 157.146 -0.552927 1.53123 0
M  V30 1668 O 158.335 -0.374771 1.74521 0
M  V30 1669 C 155.435 -0.615164 3.3327 0
M  V30 1670 C 154.608 0.190079 4.36987 0
M  V30 1671 C 153.667 -0.637917 5.22319 0
M  V30 1672 O 152.693 -0.065626 5.69162 0
M  V30 1673 N 153.895 -1.94973 5.46778 0
M  V30 1674 H 156.66 1.11017 2.7838 0
M  V30 1675 H 154.221 0.732458 1.44384 0
M  V30 1676 H 156.213 -1.1748 3.87273 0
M  V30 1677 H 154.783 -1.34146 2.82354 0
M  V30 1678 H 154.003 0.931165 3.83044 0
M  V30 1679 H 155.291 0.742579 5.03352 0
M  V30 1680 H 154.689 -2.4378 5.10478 0
M  V30 1681 H 153.246 -2.45713 6.03712 0
M  V30 1682 N 156.679 -1.44442 0.630414 0
M  V30 1683 C 158.095 -1.56832 0.295973 0
M  V30 1684 C 158.295 -1.61806 -1.20088 0
M  V30 1685 O 157.351 -1.5607 -1.9849 0
M  V30 1686 C 158.664 -2.84031 0.987264 0
M  V30 1687 C 160.212 -2.97742 0.96534 0
M  V30 1688 C 160.687 -4.27743 1.63708 0
M  V30 1689 N 162.178 -4.34555 1.60364 0
M  V30 1690 C 162.913 -5.33862 2.09234 0
M  V30 1691 N 162.409 -6.39578 2.66292 0
M  V30 1692 N 164.202 -5.25366 1.99867 0
M  V30 1693 H 156.353 -1.39457 1.60205 0
M  V30 1694 H 158.616 -0.668237 0.672431 0
M  V30 1695 H 158.322 -2.86338 2.04215 0
M  V30 1696 H 158.196 -3.73534 0.524588 0
M  V30 1697 H 160.583 -2.94989 -0.0810639 0
M  V30 1698 H 160.664 -2.09589 1.4665 0
M  V30 1699 H 160.308 -4.31255 2.68293 0
M  V30 1700 H 160.238 -5.14752 1.11076 0
M  V30 1701 H 162.729 -3.58772 1.18705 0
M  V30 1702 H 163.042 -7.11637 3.01317 0
M  V30 1703 H 161.387 -6.40265 2.70343 0
M  V30 1704 H 164.578 -4.41688 1.55013 0
M  V30 1705 H 164.751 -6.02606 2.38265 0
M  V30 1706 N 158.157 -0.370918 -1.53173 0
M  V30 1707 C 159.403 0.217423 -2.01631 0
M  V30 1708 C 159.736 1.47983 -1.25756 0
M  V30 1709 O 159.011 1.91274 -0.352764 0
M  V30 1710 C 159.294 0.503982 -3.56556 0
M  V30 1711 C 159.147 -0.77243 -4.43118 0
M  V30 1712 C 160.466 1.30234 -4.20389 0
M  V30 1713 H 157.585 0.0775486 -0.732909 0
M  V30 1714 H 160.227 -0.496863 -1.83388 0
M  V30 1715 H 158.377 1.11248 -3.72231 0
M  V30 1716 H 160.049 -1.4098 -4.39229 0
M  V30 1717 H 158.292 -1.39167 -4.10871 0
M  V30 1718 H 158.963 -0.526815 -5.4948 0
M  V30 1719 H 161.439 0.787546 -4.08579 0
M  V30 1720 H 160.315 1.47158 -5.28806 0
M  V30 1721 H 160.576 2.31237 -3.76805 0
M  V30 1722 N 159.635 1.57281 -0.100228 0
M  V30 1723 C 160.86 1.99302 0.573881 0
M  V30 1724 C 161.285 0.979059 1.60611 0
M  V30 1725 O 160.643 -0.0517803 1.81226 0
M  V30 1726 C 160.691 3.40274 1.19358 0
M  V30 1727 O 159.795 3.41676 2.30935 0
M  V30 1728 H 159.136 0.647944 0.145138 0
M  V30 1729 H 161.666 2.03779 -0.183156 0
M  V30 1730 H 161.676 3.78078 1.53365 0
M  V30 1731 H 160.351 4.13594 0.437385 0
M  V30 1732 H 158.928 3.15672 1.98509 0
M  V30 1733 N 161.113 -0.173488 1.56642 0
M  V30 1734 C 162.362 -0.888758 1.81063 0
M  V30 1735 C 162.675 -1.83506 0.67712 0
M  V30 1736 O 163.881 -2.59254 0.806206 0
M  V30 1737 C 162.337 -1.63091 3.20826 0
M  V30 1738 C 161.945 -0.728357 4.4204 0
M  V30 1739 C 163.689 -2.33454 3.54541 0
M  V30 1740 C 161.596 -1.47062 5.72823 0
M  V30 1741 H 160.526 -0.335618 0.675186 0
M  V30 1742 H 163.177 -0.141712 1.82952 0
M  V30 1743 H 161.559 -2.42263 3.13248 0
M  V30 1744 H 162.733 0.0262449 4.60793 0
M  V30 1745 H 161.048 -0.134492 4.16183 0
M  V30 1746 H 163.645 -2.89578 4.49498 0
M  V30 1747 H 163.988 -3.08687 2.79317 0
M  V30 1748 H 164.521 -1.61227 3.63663 0
M  V30 1749 H 161.26 -0.760658 6.51072 0
M  V30 1750 H 160.78 -2.1986 5.58052 0
M  V30 1751 H 162.459 -2.01868 6.14702 0
M  V30 1752 N 162.591 -1.51276 -0.441967 0
M  V30 1753 C 163.838 -1.63715 -1.19179 0
M  V30 1754 C 164.166 -0.351175 -1.91303 0
M  V30 1755 O 163.421 0.664524 -1.84072 0
M  V30 1756 C 163.72 -2.78746 -2.23686 0
M  V30 1757 C 163.386 -4.18189 -1.68607 0
M  V30 1758 C 162.048 -4.56125 -1.53308 0
M  V30 1759 C 164.4 -5.05222 -1.28062 0
M  V30 1760 C 161.728 -5.78804 -0.959317 0
M  V30 1761 C 164.08 -6.28476 -0.721162 0
M  V30 1762 C 162.744 -6.65188 -0.55504 0
M  V30 1763 H 162.014 -0.599076 -0.436106 0
M  V30 1764 H 164.661 -1.85296 -0.48351 0
M  V30 1765 H 162.966 -2.51369 -3.00535 0
M  V30 1766 H 164.663 -2.8557 -2.81515 0
M  V30 1767 H 161.253 -3.88277 -1.8149 0
M  V30 1768 H 165.437 -4.76524 -1.38704 0
M  V30 1769 H 160.693 -6.05899 -0.81833 0
M  V30 1770 H 164.867 -6.95259 -0.398458 0
M  V30 1771 H 162.494 -7.60123 -0.108311 0
M  V30 1772 N 164.069 0.697108 -1.41344 0
M  V30 1773 C 165.316 1.45714 -1.40619 0
M  V30 1774 C 165.644 1.94494 -0.0147907 0
M  V30 1775 O 164.899 1.69794 0.973066 0
M  V30 1776 C 165.198 2.68553 -2.35826 0
M  V30 1777 C 164.864 2.38438 -3.82698 0
M  V30 1778 C 163.526 2.29936 -4.22709 0
M  V30 1779 C 165.878 2.13567 -4.75435 0
M  V30 1780 C 163.206 1.94656 -5.53467 0
M  V30 1781 C 165.558 1.79797 -6.06511 0
M  V30 1782 C 164.222 1.69789 -6.45545 0
M  V30 1783 H 163.492 0.533206 -0.51456 0
M  V30 1784 H 166.139 0.796901 -1.74131 0
M  V30 1785 H 164.444 3.39503 -1.95563 0
M  V30 1786 H 166.141 3.2669 -2.32539 0
M  V30 1787 H 162.731 2.4595 -3.51008 0
M  V30 1788 H 166.915 2.19082 -4.45328 0
M  V30 1789 H 162.171 1.8546 -5.82593 0
M  V30 1790 H 166.345 1.59572 -6.77872 0
M  V30 1791 H 163.972 1.4222 -7.46778 0
M  V30 1792 N 165.547 1.27147 0.931209 0
M  V30 1793 C 166.824 1.0401 1.65654 0
M  V30 1794 C 167.204 -0.426297 2.06751 0
M  V30 1795 O 166.552 -1.40879 1.79904 0
M  V30 1796 C 166.762 1.99834 2.86125 0
M  V30 1797 C 168.11 2.29007 3.57549 0
M  V30 1798 O 169.134 1.97779 2.96246 0
M  V30 1799 O 167.993 2.82222 4.67989 0
M  V30 1800 H 165.087 0.396239 0.725895 0
M  V30 1801 H 167.633 1.38397 0.982056 0
M  V30 1802 H 166.405 2.98744 2.52721 0
M  V30 1803 H 166.028 1.65987 3.61295 0
M  V30 1804 N 167.025 -1.13721 1.09112 0
M  V30 1805 C 168.255 -1.88499 0.845671 0
M  V30 1806 C 168.663 -1.79218 -0.606432 0
M  V30 1807 O 168.006 -1.1544 -1.42896 0
M  V30 1808 C 168.068 -3.38954 1.19793 0
M  V30 1809 C 167.732 -3.72018 2.65428 0
M  V30 1810 C 168.729 -3.7153 3.63677 0
M  V30 1811 C 166.414 -4.01775 3.01467 0
M  V30 1812 C 168.408 -4.00336 4.95994 0
M  V30 1813 C 166.095 -4.30243 4.33975 0
M  V30 1814 C 167.093 -4.29508 5.31048 0
M  V30 1815 O 166.781 -4.5728 6.61173 0
M  V30 1816 H 166.513 -0.603702 0.304171 0
M  V30 1817 H 169.067 -1.44903 1.45576 0
M  V30 1818 H 167.297 -3.83039 0.530871 0
M  V30 1819 H 168.986 -3.95052 0.932146 0
M  V30 1820 H 169.752 -3.4862 3.37179 0
M  V30 1821 H 165.631 -4.01496 2.26544 0
M  V30 1822 H 169.175 -3.99678 5.71755 0
M  V30 1823 H 165.072 -4.52625 4.60219 0
M  V30 1824 H 165.84 -4.74964 6.66597 0
M  V30 1825 N 168.503 -0.877838 -1.30888 0
M  V30 1826 C 169.466 -0.344265 -2.266 0
M  V30 1827 C 170.466 0.50922 -1.52524 0
M  V30 1828 O 171.656 0.317398 -1.71284 0
M  V30 1829 C 168.788 0.510198 -3.37061 0
M  V30 1830 H 169.981 -1.1893 -2.7531 0
M  V30 1831 H 167.534 -0.654088 -1.41956 0
M  V30 1832 H 168.269 1.37612 -2.93655 0
M  V30 1833 H 168.054 -0.101047 -3.9197 0
M  V30 1834 H 169.544 0.875537 -4.08319 0
M  V30 1835 N 169.982 1.44106 -0.638065 0
M  V30 1836 C 171.398 1.56672 -0.304286 0
M  V30 1837 C 171.598 1.6244 1.19228 0
M  V30 1838 O 170.654 1.57121 1.9766 0
M  V30 1839 C 171.967 2.83503 -1.00231 0
M  V30 1840 C 173.515 2.97226 -0.981116 0
M  V30 1841 C 173.99 4.26868 -1.65974 0
M  V30 1842 N 175.481 4.33698 -1.62666 0
M  V30 1843 C 176.216 5.32745 -2.12063 0
M  V30 1844 N 175.712 6.38157 -2.6968 0
M  V30 1845 N 177.505 5.24299 -2.02651 0
M  V30 1846 H 169.656 1.38605 -1.60942 0
M  V30 1847 H 171.919 0.664661 -0.675965 0
M  V30 1848 H 171.625 2.85251 -2.0573 0
M  V30 1849 H 171.499 3.73251 -0.54439 0
M  V30 1850 H 173.886 2.95027 0.0654188 0
M  V30 1851 H 173.967 2.08808 -1.47759 0
M  V30 1852 H 173.611 4.29826 -2.70576 0
M  V30 1853 H 173.541 5.14156 -1.13804 0
M  V30 1854 H 176.032 3.58138 -1.20606 0
M  V30 1855 H 176.345 7.10029 -3.05087 0
M  V30 1856 H 174.69 6.38823 -2.73734 0
M  V30 1857 H 177.881 4.4086 -1.57353 0
M  V30 1858 H 178.054 6.01334 -2.41457 0
M  V30 1859 N 171.46 0.379036 1.52974 0
M  V30 1860 C 172.7 -0.206325 2.03356 0
M  V30 1861 C 173.064 -1.44892 1.25977 0
M  V30 1862 O 174.265 -2.11078 1.66432 0
M  V30 1863 C 172.536 -0.477887 3.54191 0
M  V30 1864 S 174.095 -1.035 4.26419 0
M  V30 1865 H 170.913 -0.0590259 0.708546 0
M  V30 1866 H 173.515 0.525013 1.88319 0
M  V30 1867 H 172.219 0.433745 4.08101 0
M  V30 1868 H 171.75 -1.23793 3.73415 0
M  V30 1869 H 173.765 -2.31821 4.38718 0
M  V30 1870 N 172.938 -1.57226 0.108567 0
M  V30 1871 C 174.163 -1.99604 -0.563303 0
M  V30 1872 C 174.588 -0.987563 -1.6009 0
M  V30 1873 O 173.946 0.0421687 -1.81251 0
M  V30 1874 C 173.994 -3.40902 -1.17552 0
M  V30 1875 O 173.098 -3.42896 -2.2912 0
M  V30 1876 H 172.439 -0.648704 -0.1417 0
M  V30 1877 H 174.969 -2.03679 0.193961 0
M  V30 1878 H 174.979 -3.78886 -1.51357 0
M  V30 1879 H 173.654 -4.1382 -0.415445 0
M  V30 1880 H 172.231 -3.1672 -1.96832 0
M  V30 1881 N 174.416 0.165178 -1.56732 0
M  V30 1882 C 175.363 1.2044 -1.96883 0
M  V30 1883 C 176.333 1.43664 -0.833657 0
M  V30 1884 O 177.518 1.56302 -1.09427 0
M  V30 1885 C 174.658 2.53727 -2.33916 0
M  V30 1886 C 173.771 2.3783 -3.6064 0
M  V30 1887 C 172.906 3.64026 -3.86857 0
M  V30 1888 C 171.945 3.43088 -5.06909 0
M  V30 1889 N 171.082 4.61369 -5.29229 0
M  V30 1890 H 175.922 0.854996 -2.85471 0
M  V30 1891 H 173.459 0.41076 -1.41249 0
M  V30 1892 H 175.417 3.31419 -2.53411 0
M  V30 1893 H 174.047 2.8665 -1.48431 0
M  V30 1894 H 173.099 1.51282 -3.49024 0
M  V30 1895 H 174.411 2.18308 -4.4849 0
M  V30 1896 H 173.565 4.50152 -4.06753 0
M  V30 1897 H 172.304 3.86533 -2.97394 0
M  V30 1898 H 171.309 2.55349 -4.86906 0
M  V30 1899 H 172.534 3.21997 -5.97909 0
M  V30 1900 H 170.48 4.84084 -4.42718 0
M  V30 1901 H 170.397 4.44783 -6.11313 0
M  V30 1902 H 171.665 5.48761 -5.53608 0
M  V30 1903 N 175.894 1.51508 0.433938 0
M  V30 1904 C 176.842 1.73646 1.54757 0
M  V30 1905 C 177.836 0.602854 1.5831 0
M  V30 1906 O 179.042 0.784318 1.62014 0
M  V30 1907 H 175.417 0.548718 0.51421 0
M  V30 1908 H 177.388 2.66991 1.33261 0
M  V30 1909 C 176.137 1.88172 2.92381 0
M  V30 1910 H 175.46 2.74808 2.90381 0
M  V30 1911 H 176.9 2.07672 3.6966 0
M  V30 1912 C 175.359 0.64239 3.30719 0
M  V30 1913 O 175.889 -0.201362 4.01195 0
M  V30 1914 N 174.095 0.485489 2.86516 0
M  V30 1915 H 173.642 1.17318 2.29334 0
M  V30 1916 H 173.6 -0.342482 3.12529 0
M  V30 1917 N 177.372 -0.689602 1.41712 0
M  V30 1918 C 178.6 -1.47827 1.44758 0
M  V30 1919 C 179.015 -1.88721 0.0545703 0
M  V30 1920 O 178.372 -1.57176 -0.927463 0
M  V30 1921 C 178.423 -2.73698 2.3616 0
M  V30 1922 O 178.144 -2.34524 3.7004 0
M  V30 1923 C 179.645 -3.67389 2.48072 0
M  V30 1924 H 176.865 -0.455357 0.49284 0
M  V30 1925 H 179.409 -0.848574 1.86063 0
M  V30 1926 H 177.564 -3.32891 1.98148 0
M  V30 1927 H 177.978 -3.15701 4.18847 0
M  V30 1928 H 179.452 -4.52475 3.16181 0
M  V30 1929 H 179.929 -4.12284 1.51388 0
M  V30 1930 H 180.535 -3.14097 2.86746 0
M  V30 1931 N 178.85 -1.27639 -0.924453 0
M  V30 1932 C 179.813 -1.10681 -2.00705 0
M  V30 1933 C 180.813 -0.0497823 -1.60723 0
M  V30 1934 O 182.003 -0.294654 -1.7169 0
M  V30 1935 C 179.135 -0.687164 -3.33902 0
M  V30 1936 H 180.328 -2.06817 -2.17179 0
M  V30 1937 H 177.881 -1.10473 -1.10569 0
M  V30 1938 H 178.616 0.275439 -3.23128 0
M  V30 1939 H 178.401 -1.45061 -3.6428 0
M  V30 1940 H 179.891 -0.590853 -4.13399 0
M  V30 1941 N 180.328 1.1314 -1.09713 0
M  V30 1942 C 181.574 1.84967 -0.846104 0
M  V30 1943 C 181.929 1.82082 0.621601 0
M  V30 1944 O 181.222 1.2501 1.452 0
M  V30 1945 C 181.416 3.32167 -1.3191 0
M  V30 1946 C 181.245 3.49386 -2.83125 0
M  V30 1947 C 180.015 3.63456 -3.51038 0
M  V30 1948 C 182.213 3.45179 -3.81256 0
M  V30 1949 N 180.195 3.68966 -4.9065 0
M  V30 1950 C 181.566 3.57094 -5.06837 0
M  V30 1951 C 183.621 3.28598 -3.74069 0
M  V30 1952 C 182.324 3.5414 -6.26081 0
M  V30 1953 C 184.35 3.26953 -4.92804 0
M  V30 1954 C 183.712 3.39422 -6.17229 0
M  V30 1955 H 179.811 0.692899 -0.362512 0
M  V30 1956 H 182.395 1.35506 -1.39808 0
M  V30 1957 H 180.566 3.80186 -0.794535 0
M  V30 1958 H 182.298 3.91815 -1.01308 0
M  V30 1959 H 179.053 3.65256 -3.01471 0
M  V30 1960 H 179.477 3.75404 -5.63383 0
M  V30 1961 H 184.119 3.17858 -2.78794 0
M  V30 1962 H 181.837 3.63653 -7.21653 0
M  V30 1963 H 185.423 3.15316 -4.88945 0
M  V30 1964 H 184.303 3.38114 -7.07565 0
M  V30 1965 N 181.806 0.884767 1.30421 0
M  V30 1966 C 183.217 0.553656 1.78302 0
M  V30 1967 C 183.568 -0.930153 1.7275 0
M  V30 1968 O 182.693 -1.72681 1.30423 0
M  V30 1969 C 183.288 0.998234 3.2376 0
M  V30 1970 C 181.847 0.71854 3.69478 0
M  V30 1971 C 180.994 1.18132 2.50879 0
M  V30 1972 H 183.945 1.06901 1.17294 0
M  V30 1973 H 183.966 0.327118 3.79091 0
M  V30 1974 H 183.478 2.0782 3.27769 0
M  V30 1975 H 181.579 -0.349444 3.70958 0
M  V30 1976 H 181.692 1.30595 4.60958 0
M  V30 1977 H 180.056 0.600669 2.47516 0
M  V30 1978 H 180.839 2.26902 2.57624 0
M  V30 1979 N 183.284 -1.43765 0.645699 0
M  V30 1980 C 184.514 -2.05953 0.163318 0
M  V30 1981 C 184.922 -1.48432 -1.17322 0
M  V30 1982 O 184.265 -0.607295 -1.73371 0
M  V30 1983 C 184.327 -3.59499 -0.0103065 0
M  V30 1984 C 183.991 -4.39563 1.25035 0
M  V30 1985 C 184.988 -4.72108 2.17739 0
M  V30 1986 C 182.673 -4.79697 1.48983 0
M  V30 1987 C 184.667 -5.43688 3.3269 0
M  V30 1988 C 182.354 -5.51023 2.64229 0
M  V30 1989 C 183.352 -5.8294 3.55908 0
M  V30 1990 O 183.04 -6.5281 4.69142 0
M  V30 1991 H 182.772 -0.670798 0.0836986 0
M  V30 1992 H 185.326 -1.85384 0.884407 0
M  V30 1993 H 183.556 -3.78613 -0.78669 0
M  V30 1994 H 185.245 -4.03408 -0.449087 0
M  V30 1995 H 186.011 -4.41627 2.00476 0
M  V30 1996 H 181.89 -4.54266 0.785078 0
M  V30 1997 H 185.434 -5.68517 4.04269 0
M  V30 1998 H 181.331 -5.8092 2.81429 0
M  V30 1999 H 182.099 -6.71288 4.6831 0
M  V30 2000 N 184.763 -0.387143 -1.52771 0
M  V30 2001 C 186.01 0.195735 -2.01552 0
M  V30 2002 C 186.338 1.46995 -1.27369 0
M  V30 2003 O 185.593 1.92325 -0.361879 0
M  V30 2004 C 185.892 0.512209 -3.53711 0
M  V30 2005 C 185.558 -0.670202 -4.45891 0
M  V30 2006 C 184.22 -0.994586 -4.70809 0
M  V30 2007 C 186.572 -1.46134 -5.00294 0
M  V30 2008 C 183.9 -2.11169 -5.4738 0
M  V30 2009 C 186.252 -2.56903 -5.78086 0
M  V30 2010 C 184.916 -2.89852 -6.01284 0
M  V30 2011 H 184.186 0.0716246 -0.73753 0
M  V30 2012 H 186.833 -0.524046 -1.8419 0
M  V30 2013 H 185.138 1.31329 -3.69134 0
M  V30 2014 H 186.835 0.975804 -3.88946 0
M  V30 2015 H 183.425 -0.407366 -4.2666 0
M  V30 2016 H 187.609 -1.22397 -4.80971 0
M  V30 2017 H 182.865 -2.3707 -5.63567 0
M  V30 2018 H 187.039 -3.18608 -6.19243 0
M  V30 2019 H 184.666 -3.76533 -6.60399 0
M  V30 2020 N 186.241 1.57166 -0.116904 0
M  V30 2021 C 187.171 2.18222 0.830759 0
M  V30 2022 C 188.152 1.12167 1.27877 0
M  V30 2023 O 189.337 1.40394 1.34176 0
M  V30 2024 C 186.467 2.77996 2.08172 0
M  V30 2025 C 185.421 3.89614 1.77157 0
M  V30 2026 C 184.747 4.36187 3.09265 0
M  V30 2027 C 186.047 5.1181 1.04151 0
M  V30 2028 H 187.741 2.97664 0.321992 0
M  V30 2029 H 185.287 1.4318 0.153434 0
M  V30 2030 H 187.24 3.19366 2.74924 0
M  V30 2031 H 185.964 1.9584 2.6137 0
M  V30 2032 H 184.623 3.48816 1.12796 0
M  V30 2033 H 184.271 3.50893 3.60393 0
M  V30 2034 H 183.971 5.11455 2.89288 0
M  V30 2035 H 185.495 4.80207 3.77139 0
M  V30 2036 H 186.909 5.50214 1.61052 0
M  V30 2037 H 185.306 5.92648 0.942762 0
M  V30 2038 H 186.376 4.84892 0.0279022 0
M  V30 2039 N 187.719 -0.156864 1.56817 0
M  V30 2040 C 189.13 -0.717916 1.72345 0
M  V30 2041 C 189.481 -1.82124 0.729747 0
M  V30 2042 O 188.606 -2.16141 -0.105781 0
M  V30 2043 C 189.201 -1.30904 3.12489 0
M  V30 2044 C 187.76 -1.81676 3.29653 0
M  V30 2045 C 186.907 -0.701349 2.68284 0
M  V30 2046 H 189.858 0.0686989 1.58551 0
M  V30 2047 H 189.879 -2.17882 3.11942 0
M  V30 2048 H 189.391 -0.505796 3.8479 0
M  V30 2049 H 187.492 -2.64598 2.62333 0
M  V30 2050 H 187.605 -1.95226 4.3752 0
M  V30 2051 H 185.969 -1.12548 2.28484 0
M  V30 2052 H 186.752 0.0902846 3.43181 0
M  V30 2053 N 189.197 -1.51736 -0.425897 0
M  V30 2054 C 190.13 -1.68574 -1.53812 0
M  V30 2055 C 191.108 -0.53328 -1.53606 0
M  V30 2056 O 192.292 -0.758555 -1.72564 0
M  V30 2057 C 189.419 -1.70977 -2.92377 0
M  V30 2058 C 188.465 -2.92324 -3.10563 0
M  V30 2059 S 189.298 -4.52952 -2.85648 0
M  V30 2060 C 190.454 -4.58117 -4.26474 0
M  V30 2061 H 190.687 -2.62647 -1.39298 0
M  V30 2062 H 188.22 -1.41564 -0.616361 0
M  V30 2063 H 190.178 -1.73047 -3.72243 0
M  V30 2064 H 188.839 -0.78061 -3.04245 0
M  V30 2065 H 188.032 -2.90439 -4.11899 0
M  V30 2066 H 187.634 -2.88055 -2.38538 0
M  V30 2067 H 189.926 -4.34462 -5.19855 0
M  V30 2068 H 190.869 -5.59983 -4.33388 0
M  V30 2069 H 191.277 -3.8732 -4.10662 0
M  V30 2070 N 190.675 0.682077 -1.42076 0
M  V30 2071 C 191.605 1.80796 -1.47767 0
M  V30 2072 C 192.586 1.6677 -0.334954 0
M  V30 2073 O 193.771 1.863 -0.548264 0
M  V30 2074 C 190.901 3.19038 -1.37229 0
M  V30 2075 C 189.855 3.47789 -2.49453 0
M  V30 2076 C 189.181 4.8553 -2.23975 0
M  V30 2077 C 190.481 3.45411 -3.91776 0
M  V30 2078 H 192.175 1.7629 -2.41997 0
M  V30 2079 H 189.721 0.846721 -1.16476 0
M  V30 2080 H 191.674 3.97528 -1.39821 0
M  V30 2081 H 190.398 3.24204 -0.394907 0
M  V30 2082 H 189.057 2.71657 -2.46166 0
M  V30 2083 H 188.705 4.87337 -1.24547 0
M  V30 2084 H 188.405 5.0573 -2.99184 0
M  V30 2085 H 189.929 5.66312 -2.28304 0
M  V30 2086 H 191.343 4.13882 -3.96705 0
M  V30 2087 H 189.74 3.77145 -4.66778 0
M  V30 2088 H 190.81 2.44122 -4.18966 0
M  V30 2089 N 192.153 1.28127 0.917671 0
M  V30 2090 C 193.101 1.11569 2.04096 0
M  V30 2091 C 194.095 0.0360242 1.69362 0
M  V30 2092 O 195.301 0.194501 1.78946 0
M  V30 2093 H 191.676 0.344097 0.668656 0
M  V30 2094 H 193.647 2.06711 2.15205 0
M  V30 2095 C 192.396 0.790197 3.38602 0
M  V30 2096 H 191.719 1.61293 3.6582 0
M  V30 2097 H 193.159 0.714271 4.1794 0
M  V30 2098 C 191.618 -0.505897 3.3308 0
M  V30 2099 O 192.148 -1.53736 3.71117 0
M  V30 2100 N 190.354 -0.505193 2.86175 0
M  V30 2101 H 189.901 0.334621 2.55417 0
M  V30 2102 H 189.859 -1.37243 2.82863 0
M  V30 2103 N 193.631 -1.12557 1.10312 0
M  V30 2104 C 195.047 -1.36036 0.834649 0
M  V30 2105 C 195.247 -1.93946 -0.546539 0
M  V30 2106 O 194.303 -2.16484 -1.29966 0
M  V30 2107 C 195.616 -2.30312 1.9333 0
M  V30 2108 C 197.164 -2.43906 1.9616 0
M  V30 2109 C 197.639 -3.41496 3.05195 0
M  V30 2110 N 199.13 -3.49053 3.04494 0
M  V30 2111 C 199.865 -4.24471 3.85502 0
M  V30 2112 N 199.361 -5.02966 4.76442 0
M  V30 2113 N 201.154 -4.19864 3.73725 0
M  V30 2114 H 193.305 -0.733246 1.99342 0
M  V30 2115 H 195.568 -0.385234 0.866198 0
M  V30 2116 H 195.274 -1.94933 2.92735 0
M  V30 2117 H 195.148 -3.30421 1.81939 0
M  V30 2118 H 197.535 -2.78567 0.973886 0
M  V30 2119 H 197.616 -1.4369 2.11629 0
M  V30 2120 H 197.26 -3.07565 4.04186 0
M  V30 2121 H 197.19 -4.41539 2.86968 0
M  V30 2122 H 199.681 -2.93053 2.38596 0
M  V30 2123 H 199.994 -5.57846 5.34815 0
M  V30 2124 H 198.339 -5.02167 4.80472 0
M  V30 2125 H 201.53 -3.57623 3.02032 0
M  V30 2126 H 201.703 -4.78386 4.37093 0
M  V30 2127 N 195.109 -0.891671 -1.2995 0
M  V30 2128 C 196.041 -0.320695 -2.26945 0
M  V30 2129 C 197.054 0.528497 -1.53983 0
M  V30 2130 O 198.243 0.346959 -1.75096 0
M  V30 2131 C 195.343 0.562066 -3.34207 0
M  V30 2132 C 194.516 -0.259576 -4.36629 0
M  V30 2133 C 193.575 0.554739 -5.23268 0
M  V30 2134 O 192.601 -0.0249311 -5.69195 0
M  V30 2135 N 193.803 1.8625 -5.4981 0
M  V30 2136 H 196.568 -1.15432 -2.76578 0
M  V30 2137 H 194.129 -0.755336 -1.432 0
M  V30 2138 H 196.121 1.11304 -3.89093 0
M  V30 2139 H 194.691 1.29637 -2.84452 0
M  V30 2140 H 193.911 -0.991986 -3.81514 0
M  V30 2141 H 195.199 -0.822564 -5.02107 0
M  V30 2142 H 194.597 2.35628 -5.14292 0
M  V30 2143 H 193.154 2.36078 -6.07545 0
M  V30 2144 N 196.587 1.43421 -0.653314 0
M  V30 2145 C 197.864 1.95361 -0.0966581 0
M  V30 2146 C 198.244 1.59461 1.38331 0
M  V30 2147 O 197.592 0.879777 2.10884 0
M  V30 2148 C 197.802 3.47311 -0.342988 0
M  V30 2149 C 199.15 4.23875 -0.24798 0
M  V30 2150 O 200.174 3.55133 -0.275553 0
M  V30 2151 O 199.033 5.4623 -0.171771 0
M  V30 2152 H 196.127 0.826945 0.00956291 0
M  V30 2153 H 198.673 1.5336 -0.726558 0
M  V30 2154 H 197.445 3.66569 -1.36906 0
M  V30 2155 H 197.068 3.9631 0.319975 0
M  V30 2156 N 198.065 0.39524 1.52563 0
M  V30 2157 C 199.476 -0.0774719 1.86539 0
M  V30 2158 C 199.827 -1.45641 1.31466 0
M  V30 2159 O 198.952 -2.06459 0.648367 0
M  V30 2160 C 199.547 -0.147356 3.38479 0
M  V30 2161 C 198.106 -0.564373 3.72145 0
M  V30 2162 C 197.253 0.269919 2.75983 0
M  V30 2163 H 200.204 0.612876 1.46388 0
M  V30 2164 H 200.225 -0.965343 3.68051 0
M  V30 2165 H 199.737 0.856387 3.78534 0
M  V30 2166 H 197.838 -1.57527 3.37663 0
M  V30 2167 H 197.951 -0.318402 4.78041 0
M  V30 2168 H 196.315 -0.265696 2.5331 0
M  V30 2169 H 197.098 1.27175 3.18875 0
M  V30 2170 N 199.544 -1.57102 0.125237 0
M  V30 2171 C 200.791 -1.95407 -0.531248 0
M  V30 2172 C 201.119 -1.0089 -1.66287 0
M  V30 2173 O 200.374 -0.0339431 -1.95671 0
M  V30 2174 C 200.673 -3.40096 -1.09862 0
M  V30 2175 C 200.339 -4.50815 -0.0876989 0
M  V30 2176 C 199.001 -4.80824 0.19026 0
M  V30 2177 C 201.353 -5.17724 0.600902 0
M  V30 2178 C 198.681 -5.75058 1.163 0
M  V30 2179 C 201.033 -6.13005 1.56231 0
M  V30 2180 C 199.697 -6.41403 1.8482 0
M  V30 2181 H 198.967 -0.715046 -0.194397 0
M  V30 2182 H 201.614 -1.90373 0.207463 0
M  V30 2183 H 199.919 -3.41855 -1.91422 0
M  V30 2184 H 201.616 -3.6705 -1.61478 0
M  V30 2185 H 198.206 -4.27444 -0.314528 0
M  V30 2186 H 202.39 -4.94691 0.399333 0
M  V30 2187 H 197.646 -5.95362 1.39117 0
M  V30 2188 H 201.82 -6.63934 2.10153 0
M  V30 2189 H 199.447 -7.14229 2.60349 0
M  V30 2190 N 201.022 0.148545 -1.56898 0
M  V30 2191 C 202.25 0.876389 -1.87422 0
M  V30 2192 C 202.665 1.74809 -0.713256 0
M  V30 2193 O 202.022 1.79725 0.317025 0
M  V30 2194 C 202.073 1.73438 -3.17178 0
M  V30 2195 O 201.794 0.897809 -4.28802 0
M  V30 2196 C 203.295 2.56993 -3.61205 0
M  V30 2197 H 200.515 0.253489 -0.621277 0
M  V30 2198 H 203.059 0.141798 -2.04008 0
M  V30 2199 H 201.214 2.42205 -3.0235 0
M  V30 2200 H 201.628 1.48672 -5.02988 0
M  V30 2201 H 203.102 3.12773 -4.54838 0
M  V30 2202 H 203.579 3.32958 -2.86419 0
M  V30 2203 H 204.185 1.9352 -3.78722 0
M  V30 2204 N 202.5 1.5196 0.417844 0
M  V30 2205 C 203.746 1.65836 1.16732 0
M  V30 2206 C 204.079 0.382881 1.90388 0
M  V30 2207 O 203.354 -0.618368 1.84408 0
M  V30 2208 C 203.637 2.87466 2.16876 0
M  V30 2209 C 203.49 4.25041 1.47174 0
M  V30 2210 C 204.809 3.04613 3.17646 0
M  V30 2211 H 201.928 0.603515 0.423011 0
M  V30 2212 H 204.57 1.84494 0.454105 0
M  V30 2213 H 202.72 2.71689 2.777 0
M  V30 2214 H 204.392 4.52527 0.895376 0
M  V30 2215 H 202.635 4.26843 0.773806 0
M  V30 2216 H 203.306 5.06176 2.20204 0
M  V30 2217 H 205.782 3.1923 2.66892 0
M  V30 2218 H 204.658 3.91247 3.8499 0
M  V30 2219 H 204.919 2.17541 3.84874 0
M  V30 2220 N 203.978 -0.674533 1.42435 0
M  V30 2221 C 204.928 -1.7807 1.4239 0
M  V30 2222 C 205.912 -1.58169 0.295202 0
M  V30 2223 O 207.104 -1.68643 0.537449 0
M  V30 2224 C 204.233 -3.16532 1.32901 0
M  V30 2225 C 203.319 -3.42055 2.50717 0
M  V30 2226 N 203.71 -3.38162 3.76139 0
M  V30 2227 C 202.008 -3.72692 2.44983 0
M  V30 2228 C 202.709 -3.63177 4.54398 0
M  V30 2229 N 201.685 -3.83954 3.84812 0
M  V30 2230 H 205.487 -1.73454 2.37257 0
M  V30 2231 H 203.001 -0.875381 1.36788 0
M  V30 2232 H 204.998 -3.958 1.30951 0
M  V30 2233 H 203.658 -3.22345 0.390363 0
M  V30 2234 H 204.669 -3.18057 4.0873 0
M  V30 2235 H 201.346 -3.85749 1.59699 0
M  V30 2236 H 202.736 -3.66125 5.63384 0
M  V30 2237 N 205.456 -1.28612 -0.910864 0
M  V30 2238 C 206.389 -1.07109 -2.01502 0
M  V30 2239 C 207.367 0.013706 -1.62594 0
M  V30 2240 O 208.551 -0.134796 -1.88017 0
M  V30 2241 C 205.678 -0.628255 -3.32822 0
M  V30 2242 C 204.724 -1.71012 -3.90714 0
M  V30 2243 S 205.557 -3.30676 -4.21205 0
M  V30 2244 C 206.713 -2.88234 -5.55583 0
M  V30 2245 H 206.946 -2.00591 -2.19432 0
M  V30 2246 H 204.479 -1.12633 -1.05609 0
M  V30 2247 H 206.437 -0.37946 -4.08742 0
M  V30 2248 H 205.098 0.28678 -3.12788 0
M  V30 2249 H 204.291 -1.35195 -4.85529 0
M  V30 2250 H 203.893 -1.91186 -3.21441 0
M  V30 2251 H 206.185 -2.34584 -6.35591 0
M  V30 2252 H 207.128 -3.81857 -5.96314 0
M  V30 2253 H 207.536 -2.26862 -5.16908 0
M  V30 2254 N 206.934 1.1197 -1.10907 0
M  V30 2255 C 207.897 2.16031 -0.765707 0
M  V30 2256 C 208.897 1.59393 0.212235 0
M  V30 2257 O 210.087 1.74196 -0.0115441 0
M  V30 2258 C 207.219 3.40632 -0.135053 0
M  V30 2259 H 208.412 2.47919 -1.68748 0
M  V30 2260 H 205.965 1.27061 -0.910226 0
M  V30 2261 H 206.7 3.14348 0.797218 0
M  V30 2262 H 206.485 3.8302 -0.838937 0
M  V30 2263 H 207.975 4.17505 0.0892469 0
M  V30 2264 N 208.412 0.89855 1.29475 0
M  V30 2265 C 209.375 0.380272 2.26023 0
M  V30 2266 C 210.375 -0.484891 1.53315 0
M  V30 2267 O 211.565 -0.290108 1.71767 0
M  V30 2268 C 208.697 -0.45651 3.3783 0
M  V30 2269 H 209.89 1.23295 2.73383 0
M  V30 2270 H 207.443 0.676589 1.40897 0
M  V30 2271 H 208.178 -1.32922 2.95808 0
M  V30 2272 H 207.963 0.163393 3.91759 0
M  V30 2273 H 209.453 -0.810466 4.0966 0
M  V30 2274 N 209.89 -1.43072 0.660911 0
M  V30 2275 C 211.306 -1.56169 0.329173 0
M  V30 2276 C 211.506 -1.64317 -1.16629 0
M  V30 2277 O 210.562 -1.60245 -1.95135 0
M  V30 2278 C 211.875 -2.81873 1.04729 0
M  V30 2279 C 213.423 -2.95627 1.02828 0
M  V30 2280 C 213.898 -4.24174 1.72744 0
M  V30 2281 N 215.389 -4.31055 1.69545 0
M  V30 2282 C 216.124 -5.29304 2.20511 0
M  V30 2283 N 215.62 -6.33786 2.79799 0
M  V30 2284 N 217.413 -5.21008 2.10966 0
M  V30 2285 H 209.564 -1.36027 1.63127 0
M  V30 2286 H 211.827 -0.653823 0.686454 0
M  V30 2287 H 211.533 -2.81942 2.10242 0
M  V30 2288 H 211.407 -3.72338 0.603702 0
M  V30 2289 H 213.794 -2.95094 -0.0184742 0
M  V30 2290 H 213.875 -2.06431 1.51063 0
M  V30 2291 H 213.519 -4.25467 2.7738 0
M  V30 2292 H 213.449 -5.1228 1.2197 0
M  V30 2293 H 215.94 -3.56174 1.26288 0
M  V30 2294 H 216.253 -7.05086 3.16344 0
M  V30 2295 H 214.598 -6.34387 2.83863 0
M  V30 2296 H 217.789 -4.38301 1.64347 0
M  V30 2297 H 217.962 -5.97416 2.50993 0
M  V30 2298 N 211.368 -0.403325 -1.52352 0
M  V30 2299 C 212.617 0.175668 -2.00934 0
M  V30 2300 C 212.93 1.46718 -1.29356 0
M  V30 2301 O 214.136 2.12708 -1.68724 0
M  V30 2302 C 212.592 0.363612 -3.58058 0
M  V30 2303 C 212.2 -0.915472 -4.38547 0
M  V30 2304 C 213.944 0.89821 -4.14888 0
M  V30 2305 C 211.851 -0.695035 -5.87302 0
M  V30 2306 H 210.781 0.0694234 -0.750797 0
M  V30 2307 H 213.432 -0.527879 -1.75743 0
M  V30 2308 H 211.814 1.12935 -3.79555 0
M  V30 2309 H 212.988 -1.68691 -4.28812 0
M  V30 2310 H 211.303 -1.37606 -3.93006 0
M  V30 2311 H 213.9 1.07907 -5.23699 0
M  V30 2312 H 214.243 1.87126 -3.71873 0
M  V30 2313 H 214.776 0.191681 -3.97338 0
M  V30 2314 H 211.515 -1.63948 -6.34666 0
M  V30 2315 H 211.035 0.0372116 -5.99788 0
M  V30 2316 H 212.714 -0.33497 -6.46132 0
M  V30 2317 N 212.846 1.57033 -0.133567 0
M  V30 2318 C 214.095 1.94861 0.520768 0
M  V30 2319 C 214.408 1.02012 1.66892 0
M  V30 2320 O 215.614 1.29365 2.38699 0
M  V30 2321 C 214.07 3.46362 0.977809 0
M  V30 2322 C 213.678 4.47773 -0.142674 0
M  V30 2323 C 215.422 3.93083 1.60269 0
M  V30 2324 C 213.329 5.90468 0.331883 0
M  V30 2325 H 212.259 0.727453 0.198315 0
M  V30 2326 H 214.91 1.82227 -0.215759 0
M  V30 2327 H 213.292 3.54282 1.7692 0
M  V30 2328 H 214.466 4.51536 -0.919317 0
M  V30 2329 H 212.781 4.10891 -0.675124 0
M  V30 2330 H 215.378 4.97121 1.96914 0
M  V30 2331 H 215.721 3.33876 2.48662 0
M  V30 2332 H 216.254 3.88025 0.876453 0
M  V30 2333 H 212.993 6.53463 -0.516341 0
M  V30 2334 H 212.513 5.90094 1.07469 0
M  V30 2335 H 214.192 6.42179 0.788332 0
M  V30 2336 N 214.325 -0.140222 1.56975 0
M  V30 2337 C 215.288 -1.15689 1.97861 0
M  V30 2338 C 216.288 -1.3549 0.865974 0
M  V30 2339 O 217.478 -1.32367 1.13246 0
M  V30 2340 C 214.61 -2.51582 2.30042 0
M  V30 2341 H 215.803 -0.805971 2.88867 0
M  V30 2342 H 213.356 -0.383801 1.51515 0
M  V30 2343 H 214.091 -2.91632 1.41849 0
M  V30 2344 H 213.876 -2.38569 3.11171 0
M  V30 2345 H 215.366 -3.24792 2.62488 0
M  V30 2346 N 215.803 -1.52179 -0.40978 0
M  V30 2347 C 216.75 -1.75475 -1.49924 0
M  V30 2348 C 217.72 -0.597175 -1.54994 0
M  V30 2349 O 218.905 -0.834655 -1.71575 0
M  V30 2350 C 216.045 -1.9107 -2.87378 0
M  V30 2351 C 215.158 -3.18717 -2.91622 0
M  V30 2352 C 214.293 -3.24747 -4.20372 0
M  V30 2353 C 213.332 -4.46598 -4.18588 0
M  V30 2354 N 212.469 -4.50025 -5.38908 0
M  V30 2355 H 217.309 -2.68458 -1.29361 0
M  V30 2356 H 214.846 -1.33024 -0.627934 0
M  V30 2357 H 216.804 -1.98096 -3.6717 0
M  V30 2358 H 215.434 -1.01469 -3.06437 0
M  V30 2359 H 214.486 -3.20866 -2.04326 0
M  V30 2360 H 215.798 -4.08544 -2.86169 0
M  V30 2361 H 214.952 -3.30841 -5.08556 0
M  V30 2362 H 213.691 -2.32857 -4.28519 0
M  V30 2363 H 212.696 -4.40652 -3.28794 0
M  V30 2364 H 213.921 -5.39783 -4.12081 0
M  V30 2365 H 211.867 -3.61017 -5.47725 0
M  V30 2366 H 211.784 -5.33697 -5.35447 0
M  V30 2367 H 213.052 -4.60347 -6.29048 0
M  V30 2368 N 217.281 0.66697 -1.42791 0
M  V30 2369 C 218.211 1.79218 -1.49677 0
M  V30 2370 C 219.192 1.66405 -0.352623 0
M  V30 2371 O 220.377 1.85708 -0.567993 0
M  V30 2372 C 217.507 3.17565 -1.40605 0
M  V30 2373 C 216.461 3.45124 -2.53127 0
M  V30 2374 C 215.787 4.83127 -2.29112 0
M  V30 2375 C 217.087 3.41236 -3.95418 0
M  V30 2376 H 218.781 1.73713 -2.43853 0
M  V30 2377 H 216.327 0.83432 -1.17367 0
M  V30 2378 H 218.28 3.96022 -1.44029 0
M  V30 2379 H 217.004 3.23767 -0.429271 0
M  V30 2380 H 215.663 2.69031 -2.49034 0
M  V30 2381 H 215.311 4.85988 -1.29709 0
M  V30 2382 H 215.011 5.02528 -3.04531 0
M  V30 2383 H 216.535 5.63859 -2.34297 0
M  V30 2384 H 217.949 4.09651 -4.01073 0
M  V30 2385 H 216.346 3.72173 -4.70752 0
M  V30 2386 H 217.416 2.39665 -4.21532 0
M  V30 2387 N 218.759 1.29093 0.90403 0
M  V30 2388 C 219.722 1.1386 1.98919 0
M  V30 2389 C 220.722 0.0753457 1.60623 0
M  V30 2390 O 221.912 0.321931 1.71199 0
M  V30 2391 C 219.044 0.740198 3.32767 0
M  V30 2392 H 220.237 2.10246 2.13861 0
M  V30 2393 H 217.79 1.12218 1.08797 0
M  V30 2394 H 218.525 -0.223997 3.23525 0
M  V30 2395 H 218.31 1.50838 3.61926 0
M  V30 2396 H 219.8 0.656546 4.12407 0
M  V30 2397 N 220.237 -1.11381 1.11499 0
M  V30 2398 C 221.2 -2.15622 0.777153 0
M  V30 2399 C 222.2 -1.59504 -0.203779 0
M  V30 2400 O 223.39 -1.74188 0.020782 0
M  V30 2401 C 220.522 -3.40556 0.153116 0
M  V30 2402 H 221.715 -2.47021 1.70061 0
M  V30 2403 H 219.268 -1.26577 0.916952 0
M  V30 2404 H 220.003 -3.14767 -0.780536 0
M  V30 2405 H 219.788 -3.8257 0.859238 0
M  V30 2406 H 221.278 -4.17546 -0.0671044 0
M  V30 2407 N 221.715 -0.905404 -1.28997 0
M  V30 2408 C 222.961 -0.544465 -1.95977 0
M  V30 2409 C 223.316 0.90041 -1.70031 0
M  V30 2410 O 222.609 1.63064 -1.00601 0
M  V30 2411 C 222.803 -0.779906 -3.48787 0
M  V30 2412 C 222.632 -2.24612 -3.89589 0
M  V30 2413 C 221.402 -2.89464 -4.14172 0
M  V30 2414 C 223.6 -3.22182 -4.00878 0
M  V30 2415 N 221.582 -4.26469 -4.41585 0
M  V30 2416 C 222.953 -4.44323 -4.32409 0
M  V30 2417 C 225.008 -3.17694 -3.83373 0
M  V30 2418 C 223.711 -5.62546 -4.48258 0
M  V30 2419 C 225.737 -4.35208 -4.00435 0
M  V30 2420 C 225.099 -5.56121 -4.3233 0
M  V30 2421 H 221.198 -0.248948 -0.741316 0
M  V30 2422 H 223.782 -1.1674 -1.5582 0
M  V30 2423 H 221.953 -0.186308 -3.87953 0
M  V30 2424 H 223.685 -0.383833 -4.02876 0
M  V30 2425 H 220.44 -2.40232 -4.08149 0
M  V30 2426 H 220.864 -4.97283 -4.5939 0
M  V30 2427 H 225.506 -2.25297 -3.57773 0
M  V30 2428 H 223.224 -6.55429 -4.72692 0
M  V30 2429 H 226.81 -4.33228 -3.88336 0
M  V30 2430 H 225.69 -6.45537 -4.45255 0
M  V30 2431 N 223.193 1.4272 -0.668489 0
M  V30 2432 C 224.441 2.01226 -0.187769 0
M  V30 2433 C 224.762 1.53092 1.2078 0
M  V30 2434 O 224.032 0.74993 1.80977 0
M  V30 2435 H 222.612 0.744041 -0.0664272 0
M  V30 2436 H 225.274 1.74723 -0.863583 0
M  V30 2437 H 224.37 3.11556 -0.184166 0
M  V30 2438 N 224.671 0.411399 1.52136 0
M  V30 2439 C 225.618 -0.412975 2.27075 0
M  V30 2440 C 226.588 -1.03912 1.29582 0
M  V30 2441 O 227.773 -1.06296 1.58448 0
M  V30 2442 C 224.913 -1.52247 3.09701 0
M  V30 2443 C 224.026 -0.917021 4.22155 0
M  V30 2444 C 223.161 -1.9994 4.92135 0
M  V30 2445 C 222.2 -1.37101 5.96548 0
M  V30 2446 N 221.337 -2.39364 6.60038 0
M  V30 2447 H 226.177 0.232499 2.97092 0
M  V30 2448 H 223.714 0.126496 1.46555 0
M  V30 2449 H 225.672 -2.17674 3.55913 0
M  V30 2450 H 224.302 -2.13794 2.41851 0
M  V30 2451 H 223.354 -0.151742 3.80097 0
M  V30 2452 H 224.666 -0.418006 4.97045 0
M  V30 2453 H 223.82 -2.73088 5.41763 0
M  V30 2454 H 222.559 -2.53208 4.16818 0
M  V30 2455 H 221.564 -0.624873 5.46237 0
M  V30 2456 H 222.789 -0.845998 6.7381 0
M  V30 2457 H 220.735 -2.91759 5.87548 0
M  V30 2458 H 220.652 -1.9428 7.3061 0
M  V30 2459 H 221.92 -3.12074 7.14304 0
M  V30 2460 N 226.149 -1.5696 0.141893 0
M  V30 2461 C 227.059 -2.20066 -0.812905 0
M  V30 2462 C 228.075 -1.18344 -1.27557 0
M  V30 2463 O 229.251 -1.50902 -1.33381 0
M  V30 2464 C 226.316 -2.80583 -2.03652 0
M  V30 2465 C 225.377 -3.97414 -1.62359 0
M  V30 2466 C 224.61 -4.55036 -2.78887 0
M  V30 2467 O 224.833 -4.11538 -3.94959 0
M  V30 2468 O 223.767 -5.45376 -2.54653 0
M  V30 2469 H 227.593 -3.02157 -0.305746 0
M  V30 2470 H 225.178 -1.49159 -0.0848799 0
M  V30 2471 H 227.06 -3.19067 -2.75272 0
M  V30 2472 H 225.735 -2.01508 -2.5333 0
M  V30 2473 H 224.642 -3.63656 -0.877775 0
M  V30 2474 H 225.975 -4.77994 -1.17401 0
M  V30 2475 N 227.627 0.131896 -1.57047 0
M  V30 2476 C 228.557 1.16384 -2.02428 0
M  V30 2477 C 229.538 1.43936 -0.90644 0
M  V30 2478 O 230.723 1.54599 -1.17528 0
M  V30 2479 C 227.853 2.49328 -2.4177 0
M  V30 2480 C 226.807 2.36266 -3.56879 0
M  V30 2481 C 226.133 3.74057 -3.8208 0
M  V30 2482 C 227.433 1.834 -4.89042 0
M  V30 2483 H 229.127 0.786433 -2.88887 0
M  V30 2484 H 226.673 0.376855 -1.38981 0
M  V30 2485 H 228.626 3.21759 -2.7212 0
M  V30 2486 H 227.35 2.88934 -1.52266 0
M  V30 2487 H 226.009 1.66286 -3.26718 0
M  V30 2488 H 225.657 4.11125 -2.89803 0
M  V30 2489 H 225.357 3.66174 -4.59554 0
M  V30 2490 H 226.881 4.48012 -4.1487 0
M  V30 2491 H 228.295 2.45636 -5.18011 0
M  V30 2492 H 226.692 1.8637 -5.70426 0
M  V30 2493 H 227.762 0.790662 -4.7841 0
M  V30 2494 N 229.106 1.52395 0.401703 0
M  V30 2495 C 230.039 1.70999 1.51111 0
M  V30 2496 C 231.017 0.55765 1.52738 0
M  V30 2497 O 232.201 0.785912 1.71335 0
M  V30 2498 C 229.328 1.75607 2.8962 0
M  V30 2499 C 228.374 2.97227 3.05873 0
M  V30 2500 S 229.207 4.57439 2.78405 0
M  V30 2501 C 230.363 4.64844 4.19131 0
M  V30 2502 H 230.596 2.6483 1.35102 0
M  V30 2503 H 228.129 1.42527 0.593762 0
M  V30 2504 H 230.087 1.78947 3.69443 0
M  V30 2505 H 228.748 0.828914 3.02965 0
M  V30 2506 H 227.941 2.96955 4.07227 0
M  V30 2507 H 227.543 2.91813 2.33925 0
M  V30 2508 H 229.835 4.42677 5.12877 0
M  V30 2509 H 230.778 5.66807 4.24424 0
M  V30 2510 H 231.186 3.93804 4.04448 0
M  V30 2511 N 230.584 -0.659388 1.43143 0
M  V30 2512 C 231.494 -1.80167 1.50256 0
M  V30 2513 C 232.51 -1.69571 0.390106 0
M  V30 2514 O 233.686 -1.90849 0.643319 0
M  V30 2515 C 230.751 -3.16409 1.41725 0
M  V30 2516 C 229.812 -3.38848 2.63591 0
M  V30 2517 C 229.045 -4.68591 2.55458 0
M  V30 2518 O 229.268 -5.47532 1.59891 0
M  V30 2519 O 228.202 -4.92614 3.45854 0
M  V30 2520 H 232.028 -1.77121 2.46702 0
M  V30 2521 H 229.613 -0.817092 1.25076 0
M  V30 2522 H 231.495 -3.9768 1.39387 0
M  V30 2523 H 230.17 -3.20059 0.484118 0
M  V30 2524 H 229.077 -2.57366 2.71502 0
M  V30 2525 H 230.41 -3.4004 3.55856 0
M  V30 2526 N 232.062 -1.29571 -0.897171 0
M  V30 2527 C 233.31 -1.17456 -1.64464 0
M  V30 2528 C 233.631 0.273698 -1.9307 0
M  V30 2529 O 232.901 1.18684 -1.55855 0
M  V30 2530 H 231.481 -0.431706 -0.609622 0
M  V30 2531 H 234.143 -1.62531 -1.07562 0
M  V30 2532 H 233.239 -1.72648 -2.59998 0
M  V30 2533 N 233.54 1.10788 -1.12088 0
M  V30 2534 C 234.765 1.87002 -0.896949 0
M  V30 2535 C 235.19 1.79933 0.548261 0
M  V30 2536 O 234.548 1.16662 1.38779 0
M  V30 2537 C 234.596 3.3349 -1.37174 0
M  V30 2538 O 233.7 4.08745 -0.547831 0
M  V30 2539 H 233.041 0.580397 -0.322545 0
M  V30 2540 H 235.571 1.39996 -1.49206 0
M  V30 2541 H 235.581 3.84339 -1.36922 0
M  V30 2542 H 234.256 3.37951 -2.42408 0
M  V30 2543 H 232.833 3.6776 -0.617034 0
M  V30 2544 N 235.018 0.912232 1.28515 0
M  V30 2545 C 236.295 0.463597 1.90027 0
M  V30 2546 C 236.675 -1.05753 1.82701 0
M  V30 2547 O 236.023 -1.90492 1.26194 0
M  V30 2548 C 236.233 0.992253 3.34597 0
M  V30 2549 C 237.581 1.04344 4.11579 0
M  V30 2550 O 238.605 0.94079 3.43551 0
M  V30 2551 O 237.464 1.1995 5.33174 0
M  V30 2552 H 234.558 0.146666 0.813891 0
M  V30 2553 H 237.104 1.00292 1.36893 0
M  V30 2554 H 235.876 2.03623 3.34146 0
M  V30 2555 H 235.499 0.433672 3.95228 0
M  V30 2556 N 236.496 -1.42363 0.676048 0
M  V30 2557 C 237.426 -2.33497 0.0124832 0
M  V30 2558 C 238.407 -1.50748 -0.787981 0
M  V30 2559 O 239.592 -1.79346 -0.744884 0
M  V30 2560 C 236.722 -3.34377 -0.938582 0
M  V30 2561 C 235.676 -4.27289 -0.246622 0
M  V30 2562 C 235.002 -5.18386 -1.31071 0
M  V30 2563 C 236.302 -5.14916 0.875125 0
M  V30 2564 H 237.996 -2.89233 0.773593 0
M  V30 2565 H 235.542 -1.39073 0.37346 0
M  V30 2566 H 237.495 -3.97044 -1.41188 0
M  V30 2567 H 236.219 -2.76947 -1.73113 0
M  V30 2568 H 234.878 -3.66018 0.206456 0
M  V30 2569 H 234.526 -4.57282 -2.09528 0
M  V30 2570 H 234.226 -5.81378 -0.852839 0
M  V30 2571 H 235.75 -5.83929 -1.78492 0
M  V30 2572 H 237.164 -5.71262 0.482983 0
M  V30 2573 H 235.561 -5.86747 1.25887 0
M  V30 2574 H 236.631 -4.53242 1.72335 0
M  V30 2575 N 237.974 -0.419461 -1.51915 0
M  V30 2576 C 238.922 0.415502 -2.28859 0
M  V30 2577 C 239.916 1.03674 -1.3397 0
M  V30 2578 O 241.122 0.973757 -1.51387 0
M  V30 2579 H 237.497 0.152786 -0.736315 0
M  V30 2580 H 239.468 -0.254531 -2.97312 0
M  V30 2581 C 238.217 1.51425 -3.12995 0
M  V30 2582 H 237.54 1.04556 -3.85886 0
M  V30 2583 H 238.98 2.07208 -3.6992 0
M  V30 2584 C 237.439 2.48745 -2.27217 0
M  V30 2585 O 237.969 3.52871 -1.9195 0
M  V30 2586 N 236.175 2.19202 -1.90785 0
M  V30 2587 H 235.722 1.34556 -2.19664 0
M  V30 2588 H 235.68 2.84561 -1.33687 0
M  V30 2589 N 239.452 1.56882 -0.150215 0
M  V30 2590 C 240.682 2.00302 0.506213 0
M  V30 2591 C 241.09 1.02934 1.58749 0
M  V30 2592 O 240.433 0.0188384 1.8369 0
M  V30 2593 C 240.495 3.40156 1.16337 0
M  V30 2594 C 240.159 4.56439 0.226311 0
M  V30 2595 C 241.156 5.17012 -0.547265 0
M  V30 2596 C 238.841 5.02136 0.128279 0
M  V30 2597 C 240.835 6.21693 -1.40629 0
M  V30 2598 C 238.522 6.06672 -0.734345 0
M  V30 2599 C 239.52 6.6632 -1.50023 0
M  V30 2600 O 239.208 7.68831 -2.34848 0
M  V30 2601 H 238.94 0.662182 0.135984 0
M  V30 2602 H 241.494 2.03961 -0.242746 0
M  V30 2603 H 239.724 3.33346 1.96004 0
M  V30 2604 H 241.413 3.67663 1.71985 0
M  V30 2605 H 242.179 4.82603 -0.48158 0
M  V30 2606 H 238.058 4.55435 0.714157 0
M  V30 2607 H 241.602 6.68179 -2.00455 0
M  V30 2608 H 237.499 6.40507 -0.801309 0
M  V30 2609 H 238.267 7.86065 -2.28131 0
M  V30 2610 N 240.93 -0.123565 1.57115 0
M  V30 2611 C 242.16 -0.845233 1.88519 0
M  V30 2612 C 242.568 -1.74168 0.739064 0
M  V30 2613 O 241.911 -1.81244 -0.299355 0
M  V30 2614 C 241.973 -1.73452 3.14888 0
M  V30 2615 C 241.637 -1.01285 4.45635 0
M  V30 2616 C 242.634 -0.355774 5.18681 0
M  V30 2617 C 240.319 -0.99538 4.92339 0
M  V30 2618 C 242.313 0.309114 6.3665 0
M  V30 2619 C 240 -0.32669 6.10226 0
M  V30 2620 C 240.998 0.324406 6.82229 0
M  V30 2621 O 240.686 0.982437 7.97874 0
M  V30 2622 H 240.418 -0.248534 0.628655 0
M  V30 2623 H 242.972 -0.113907 2.05084 0
M  V30 2624 H 241.202 -2.50737 2.94394 0
M  V30 2625 H 242.891 -2.33021 3.32349 0
M  V30 2626 H 243.657 -0.360918 4.83655 0
M  V30 2627 H 239.536 -1.49159 4.36202 0
M  V30 2628 H 243.08 0.8179 6.92789 0
M  V30 2629 H 238.977 -0.319294 6.4471 0
M  V30 2630 H 239.745 0.886454 8.13686 0
M  V30 2631 N 242.408 -1.52605 -0.393616 0
M  V30 2632 C 243.655 -1.67424 -1.1391 0
M  V30 2633 C 243.983 -0.411859 -1.90089 0
M  V30 2634 O 243.238 0.605626 -1.86093 0
M  V30 2635 C 243.537 -2.85721 -2.14705 0
M  V30 2636 C 243.203 -4.23342 -1.55218 0
M  V30 2637 C 241.865 -4.60771 -1.3872 0
M  V30 2638 C 244.217 -5.09041 -1.11924 0
M  V30 2639 C 241.545 -5.81563 -0.774689 0
M  V30 2640 C 243.897 -6.30452 -0.520853 0
M  V30 2641 C 242.561 -6.66617 -0.343134 0
M  V30 2642 H 241.831 -0.612648 -0.416826 0
M  V30 2643 H 244.478 -1.8674 -0.424315 0
M  V30 2644 H 242.783 -2.60803 -2.92385 0
M  V30 2645 H 244.48 -2.94382 -2.72288 0
M  V30 2646 H 241.07 -3.93855 -1.69045 0
M  V30 2647 H 245.254 -4.80695 -1.23473 0
M  V30 2648 H 240.51 -6.08196 -0.625154 0
M  V30 2649 H 244.684 -6.96175 -0.177065 0
M  V30 2650 H 242.311 -7.60083 0.133571 0
M  V30 2651 N 243.887 0.651787 -1.4349 0
M  V30 2652 C 244.835 1.78586 -1.49029 0
M  V30 2653 C 245.829 1.65448 -0.363767 0
M  V30 2654 O 247.035 1.71777 -0.537821 0
M  V30 2655 H 243.41 0.589236 -0.467231 0
M  V30 2656 H 245.381 1.71035 -2.44519 0
M  V30 2657 C 244.13 3.16851 -1.43181 0
M  V30 2658 H 243.453 3.27598 -2.29171 0
M  V30 2659 H 244.893 3.96156 -1.51118 0
M  V30 2660 C 243.352 3.36568 -0.149616 0
M  V30 2661 O 243.882 3.93885 0.788509 0
M  V30 2662 N 242.088 2.90539 -0.0593484 0
M  V30 2663 H 241.635 2.4408 -0.823575 0
M  V30 2664 H 241.593 3.04108 0.797853 0
M  V30 2665 N 245.365 1.30045 0.890287 0
M  V30 2666 C 246.611 1.19747 1.64415 0
M  V30 2667 C 246.966 -0.246591 1.90813 0
M  V30 2668 O 246.259 -1.174 1.51419 0
M  V30 2669 C 246.453 1.95409 2.99249 0
M  V30 2670 C 246.282 3.47025 2.86013 0
M  V30 2671 C 245.052 4.1638 2.86279 0
M  V30 2672 C 247.25 4.42353 2.62351 0
M  V30 2673 N 245.232 5.54293 2.63879 0
M  V30 2674 C 246.603 5.67792 2.49022 0
M  V30 2675 C 248.658 4.32009 2.47533 0
M  V30 2676 C 247.361 6.8406 2.22383 0
M  V30 2677 C 249.387 5.48038 2.22279 0
M  V30 2678 C 248.749 6.72455 2.09722 0
M  V30 2679 H 244.848 0.493223 0.60684 0
M  V30 2680 H 247.432 1.6399 1.04954 0
M  V30 2681 H 245.603 1.53565 3.56752 0
M  V30 2682 H 247.335 1.77298 3.63796 0
M  V30 2683 H 244.09 3.68164 2.97913 0
M  V30 2684 H 244.514 6.26852 2.55706 0
M  V30 2685 H 249.156 3.36503 2.55979 0
M  V30 2686 H 246.874 7.79612 2.12675 0
M  V30 2687 H 250.46 5.41939 2.11643 0
M  V30 2688 H 249.34 7.60722 1.90453 0
M  V30 2689 N 246.843 -1.10192 1.12674 0
M  V30 2690 C 248.092 -1.81573 0.8783 0
M  V30 2691 C 248.405 -1.86249 -0.597557 0
M  V30 2692 O 249.611 -2.5386 -0.962681 0
M  V30 2693 C 248.067 -3.26149 1.52167 0
M  V30 2694 C 247.675 -3.29763 3.03249 0
M  V30 2695 C 249.419 -4.0234 1.3536 0
M  V30 2696 C 247.326 -4.68815 3.60508 0
M  V30 2697 H 246.256 -0.680394 0.324931 0
M  V30 2698 H 248.907 -1.23902 1.35353 0
M  V30 2699 H 247.289 -3.83832 0.974104 0
M  V30 2700 H 248.463 -2.8189 3.6452 0
M  V30 2701 H 246.778 -2.67059 3.19481 0
M  V30 2702 H 249.375 -5.05058 1.75559 0
M  V30 2703 H 249.718 -4.15235 0.297554 0
M  V30 2704 H 250.251 -3.51079 1.87052 0
M  V30 2705 H 246.99 -4.61121 4.65884 0
M  V30 2706 H 246.51 -5.17045 3.04014 0
M  V30 2707 H 248.189 -5.37785 3.59717 0
M  V30 2708 N 248.321 -0.919034 -1.28029 0
M  V30 2709 C 249.268 -0.410005 -2.27129 0
M  V30 2710 C 250.238 0.518405 -1.57803 0
M  V30 2711 O 251.423 0.439451 -1.8567 0
M  V30 2712 C 248.563 0.339054 -3.4343 0
M  V30 2713 C 247.676 -0.622468 -4.27492 0
M  V30 2714 C 246.811 0.145567 -5.31001 0
M  V30 2715 C 245.85 -0.809226 -6.06727 0
M  V30 2716 N 244.987 -0.0743728 -7.02061 0
M  V30 2717 H 249.827 -1.26011 -2.70047 0
M  V30 2718 H 247.364 -0.632663 -1.328 0
M  V30 2719 H 249.322 0.789586 -4.0966 0
M  V30 2720 H 247.952 1.15346 -3.01488 0
M  V30 2721 H 247.004 -1.19153 -3.61257 0
M  V30 2722 H 248.316 -1.35252 -4.80113 0
M  V30 2723 H 247.47 0.656417 -6.03139 0
M  V30 2724 H 246.209 0.908643 -4.79161 0
M  V30 2725 H 245.214 -1.3314 -5.33436 0
M  V30 2726 H 246.439 -1.57194 -6.60656 0
M  V30 2727 H 244.385 0.670616 -6.52563 0
M  V30 2728 H 244.302 -0.744157 -7.52329 0
M  V30 2729 H 245.57 0.416109 -7.78389 0
M  V30 2730 N 249.799 1.42003 -0.683588 0
M  V30 2731 C 251.027 2.05746 -0.218182 0
M  V30 2732 C 251.442 1.51396 1.12804 0
M  V30 2733 O 250.799 0.657303 1.70252 0
M  V30 2734 C 250.85 3.61171 -0.154131 0
M  V30 2735 O 250.571 4.13508 -1.44716 0
M  V30 2736 C 252.072 4.42042 0.333713 0
M  V30 2737 H 249.292 0.662888 -0.10402 0
M  V30 2738 H 251.836 1.81987 -0.9328 0
M  V30 2739 H 249.991 3.84012 0.511231 0
M  V30 2740 H 250.405 5.07453 -1.32632 0
M  V30 2741 H 251.879 5.51028 0.327423 0
M  V30 2742 H 252.356 4.17269 1.37053 0
M  V30 2743 H 252.962 4.24239 -0.300222 0
M  V30 2744 N 251.277 0.427512 1.51691 0
M  V30 2745 C 252.209 -0.424521 2.25234 0
M  V30 2746 C 253.222 -0.994671 1.2888 0
M  V30 2747 O 254.411 -0.890483 1.54702 0
M  V30 2748 C 251.511 -1.60479 2.98496 0
M  V30 2749 C 250.684 -1.15527 4.21868 0
M  V30 2750 C 249.743 -2.20454 4.77793 0
M  V30 2751 O 248.769 -1.8029 5.39893 0
M  V30 2752 N 249.971 -3.52831 4.60967 0
M  V30 2753 H 252.736 0.205749 2.98993 0
M  V30 2754 H 250.297 0.255867 1.59865 0
M  V30 2755 H 252.289 -2.30276 3.32799 0
M  V30 2756 H 250.859 -2.14061 2.27809 0
M  V30 2757 H 250.079 -0.284736 3.9317 0
M  V30 2758 H 251.367 -0.832173 5.01949 0
M  V30 2759 H 250.765 -3.88201 4.11481 0
M  V30 2760 H 249.322 -4.18551 4.99658 0
M  V30 2761 N 252.755 -1.56801 0.158532 0
M  V30 2762 C 253.685 -2.20347 -0.772609 0
M  V30 2763 C 254.666 -1.15518 -1.24859 0
M  V30 2764 O 255.851 -1.43902 -1.30406 0
M  V30 2765 C 252.981 -2.83417 -2.00729 0
M  V30 2766 C 251.935 -3.94174 -1.66765 0
M  V30 2767 C 251.261 -4.44233 -2.97592 0
M  V30 2768 C 252.561 -5.14392 -0.905447 0
M  V30 2769 H 254.255 -2.98413 -0.242959 0
M  V30 2770 H 251.801 -1.43537 -0.115419 0
M  V30 2771 H 253.754 -3.26543 -2.6636 0
M  V30 2772 H 252.478 -2.02701 -2.56086 0
M  V30 2773 H 251.137 -3.51684 -1.03508 0
M  V30 2774 H 250.785 -3.60325 -3.50963 0
M  V30 2775 H 250.485 -5.18945 -2.75626 0
M  V30 2776 H 252.009 -4.90037 -3.64274 0
M  V30 2777 H 253.423 -5.5429 -1.46408 0
M  V30 2778 H 251.82 -5.9494 -0.7853 0
M  V30 2779 H 252.89 -4.84795 0.100668 0
M  V30 2780 N 254.233 0.115231 -1.57178 0
M  V30 2781 C 255.458 0.840354 -1.89612 0
M  V30 2782 C 255.883 1.72464 -0.750845 0
M  V30 2783 O 255.241 1.78826 0.298478 0
M  V30 2784 C 255.289 1.64654 -3.20814 0
M  V30 2785 O 254.393 2.7538 -3.06985 0
M  V30 2786 H 253.734 0.232158 -0.622092 0
M  V30 2787 H 256.264 0.0964977 -2.04372 0
M  V30 2788 H 256.274 2.03499 -3.53627 0
M  V30 2789 H 254.949 0.997416 -4.03763 0
M  V30 2790 H 253.526 2.3971 -2.85646 0
M  V30 2791 N 255.711 1.52812 0.385517 0
M  V30 2792 C 256.936 1.72207 1.15583 0
M  V30 2793 C 257.361 0.441034 1.82857 0
M  V30 2794 O 256.719 -0.603465 1.70962 0
M  V30 2795 C 256.767 2.87476 2.17692 0
M  V30 2796 O 255.871 2.54693 3.24354 0
M  V30 2797 H 255.212 0.572526 0.336319 0
M  V30 2798 H 257.742 1.99618 0.448744 0
M  V30 2799 H 257.752 3.13072 2.6163 0
M  V30 2800 H 256.427 3.80408 1.68115 0
M  V30 2801 H 255.004 2.3985 2.85529 0
M  V30 2802 N 257.189 -0.644168 1.43834 0
M  V30 2803 C 258.121 -1.76955 1.45669 0
M  V30 2804 C 259.134 -1.58956 0.351666 0
M  V30 2805 O 260.323 -1.6751 0.616644 0
M  V30 2806 C 257.423 -3.14507 1.26248 0
M  V30 2807 C 256.596 -3.59083 2.49757 0
M  V30 2808 C 255.655 -4.75467 2.25427 0
M  V30 2809 O 254.681 -4.84444 2.98836 0
M  V30 2810 N 255.883 -5.66289 1.27661 0
M  V30 2811 H 258.648 -1.75856 2.42682 0
M  V30 2812 H 256.209 -0.828312 1.39106 0
M  V30 2813 H 258.201 -3.90067 1.0784 0
M  V30 2814 H 256.771 -3.10325 0.376478 0
M  V30 2815 H 255.991 -2.7387 2.8353 0
M  V30 2816 H 257.279 -3.85613 3.31934 0
M  V30 2817 H 256.677 -5.61718 0.670064 0
M  V30 2818 H 255.234 -6.41533 1.15234 0
M  V30 2819 N 258.668 -1.30515 -0.883378 0
M  V30 2820 C 259.615 -1.17032 -1.98927 0
M  V30 2821 C 260.585 -0.0594241 -1.65994 0
M  V30 2822 O 261.77 -0.229895 -1.8941 0
M  V30 2823 C 258.91 -0.869777 -3.33959 0
M  V30 2824 C 258.023 -2.06271 -3.79574 0
M  V30 2825 C 257.158 -1.70011 -5.03259 0
M  V30 2826 C 256.197 -2.8579 -5.41286 0
M  V30 2827 N 255.334 -2.49816 -6.56153 0
M  V30 2828 H 260.174 -2.1164 -2.09792 0
M  V30 2829 H 257.711 -1.05296 -1.02719 0
M  V30 2830 H 259.669 -0.676138 -4.11685 0
M  V30 2831 H 258.299 0.0394332 -3.22776 0
M  V30 2832 H 257.351 -2.36755 -2.97744 0
M  V30 2833 H 258.663 -2.92971 -4.03694 0
M  V30 2834 H 257.817 -1.47032 -5.88614 0
M  V30 2835 H 256.556 -0.804829 -4.81013 0
M  V30 2836 H 255.561 -3.09434 -4.54456 0
M  V30 2837 H 256.786 -3.76008 -5.65504 0
M  V30 2838 H 254.732 -1.62795 -6.35479 0
M  V30 2839 H 254.649 -3.30048 -6.8015 0
M  V30 2840 H 255.917 -2.30197 -7.44735 0
M  V30 2841 N 260.146 1.09593 -1.13257 0
M  V30 2842 C 261.076 2.18214 -0.830946 0
M  V30 2843 C 262.057 1.68812 0.208966 0
M  V30 2844 O 263.242 1.9408 0.0682666 0
M  V30 2845 C 260.372 3.46051 -0.294296 0
M  V30 2846 C 259.326 4.08778 -1.26826 0
M  V30 2847 C 258.652 5.31419 -0.591449 0
M  V30 2848 C 259.952 4.51476 -2.62615 0
M  V30 2849 H 261.646 2.43703 -1.73923 0
M  V30 2850 H 259.192 1.17128 -0.837675 0
M  V30 2851 H 261.145 4.2134 -0.0709606 0
M  V30 2852 H 259.869 3.20079 0.649366 0
M  V30 2853 H 258.528 3.35505 -1.47756 0
M  V30 2854 H 258.176 5.01727 0.357633 0
M  V30 2855 H 257.876 5.74341 -1.24123 0
M  V30 2856 H 259.4 6.09433 -0.377355 0
M  V30 2857 H 260.814 5.17999 -2.45663 0
M  V30 2858 H 259.211 5.05277 -3.23752 0
M  V30 2859 H 260.281 3.63962 -3.20406 0
M  V30 2860 N 261.624 0.925811 1.2754 0
M  V30 2861 C 263.04 0.625767 1.46821 0
M  V30 2862 C 263.24 -0.825506 1.83814 0
M  V30 2863 O 262.296 -1.60356 1.95044 0
M  V30 2864 C 263.609 1.57402 2.56213 0
M  V30 2865 C 265.157 1.58204 2.70075 0
M  V30 2866 C 265.632 2.51721 3.82623 0
M  V30 2867 N 267.123 2.49917 3.89994 0
M  V30 2868 C 267.858 3.18968 4.76494 0
M  V30 2869 N 267.354 3.97391 5.67496 0
M  V30 2870 N 269.147 3.07996 4.70208 0
M  V30 2871 H 261.298 1.86409 1.01811 0
M  V30 2872 H 263.561 0.800213 0.508295 0
M  V30 2873 H 263.267 2.60925 2.35819 0
M  V30 2874 H 263.141 1.31428 3.53563 0
M  V30 2875 H 265.528 0.554124 2.89851 0
M  V30 2876 H 265.609 1.88226 1.73218 0
M  V30 2877 H 265.253 3.54622 3.63601 0
M  V30 2878 H 265.183 2.18996 4.78903 0
M  V30 2879 H 267.674 1.9296 3.24923 0
M  V30 2880 H 267.987 4.4707 6.30356 0
M  V30 2881 H 266.332 4.01495 5.67298 0
M  V30 2882 H 269.523 2.46223 3.9811 0
M  V30 2883 H 269.696 3.6208 5.37403 0
M  V30 2884 N 263.102 -1.41638 0.69111 0
M  V30 2885 C 264.35 -2.00902 0.219758 0
M  V30 2886 C 264.671 -1.54994 -1.18329 0
M  V30 2887 O 263.941 -0.778628 -1.79762 0
M  V30 2888 H 262.521 -0.74289 0.0782558 0
M  V30 2889 H 265.183 -1.73327 0.891271 0
M  V30 2890 H 264.279 -3.11224 0.233708 0
M  V30 2891 N 264.58 -0.43555 -1.51462 0
M  V30 2892 C 265.805 0.132627 -2.06976 0
M  V30 2893 C 266.23 1.35848 -1.30104 0
M  V30 2894 O 265.588 1.78112 -0.338493 0
M  V30 2895 C 265.636 0.43523 -3.57964 0
M  V30 2896 O 264.74 1.52198 -3.83288 0
M  V30 2897 H 264.081 0.00265 -0.663995 0
M  V30 2898 H 266.611 -0.616369 -1.95095 0
M  V30 2899 H 266.621 0.686206 -4.02188 0
M  V30 2900 H 265.296 -0.460739 -4.1334 0
M  V30 2901 H 263.873 1.2611 -3.50928 0
M  V30 2902 N 266.058 1.56714 -0.166846 0
M  V30 2903 C 267.306 1.96358 0.478305 0
M  V30 2904 C 267.627 1.0537 1.6408 0
M  V30 2905 O 266.897 0.119154 1.95537 0
M  V30 2906 H 265.477 0.725065 0.179692 0
M  V30 2907 H 268.139 1.93329 -0.246985 0
M  V30 2908 H 267.235 3.00547 0.841292 0
M  V30 2909 N 267.536 -0.106894 1.57237 0
M  V30 2910 C 268.782 -0.81373 1.85759 0
M  V30 2911 C 269.115 -1.78952 0.754315 0
M  V30 2912 O 268.39 -1.93029 -0.23879 0
M  V30 2913 C 268.673 -1.55293 3.24894 0
M  V30 2914 C 268.526 -0.595929 4.45835 0
M  V30 2915 C 269.845 -2.5063 3.61763 0
M  V30 2916 H 266.964 -0.294369 0.67566 0
M  V30 2917 H 269.606 -0.0776472 1.89841 0
M  V30 2918 H 267.756 -2.1804 3.21544 0
M  V30 2919 H 269.428 0.0236262 4.61294 0
M  V30 2920 H 267.671 0.0916191 4.33703 0
M  V30 2921 H 268.342 -1.15004 5.39887 0
M  V30 2922 H 270.818 -1.97982 3.65981 0
M  V30 2923 H 269.694 -2.99376 4.60071 0
M  V30 2924 H 269.955 -3.3385 2.89821 0
M  V30 2925 N 269.014 -1.53014 -0.377408 0
M  V30 2926 C 269.977 -1.77957 -1.44444 0
M  V30 2927 C 270.977 -0.649763 -1.47087 0
M  V30 2928 O 272.167 -0.917897 -1.48055 0
M  V30 2929 C 269.299 -1.89089 -2.83651 0
M  V30 2930 H 270.492 -2.73243 -1.23606 0
M  V30 2931 H 268.045 -1.43912 -0.609844 0
M  V30 2932 H 268.78 -0.958293 -3.09818 0
M  V30 2933 H 268.565 -2.71254 -2.83132 0
M  V30 2934 H 270.055 -2.1002 -3.60945 0
M  V30 2935 N 270.492 0.636531 -1.44174 0
M  V30 2936 C 271.738 1.39826 -1.4689 0
M  V30 2937 C 272.071 1.93947 -0.0990585 0
M  V30 2938 O 271.346 1.73325 0.882544 0
M  V30 2939 C 271.629 2.56751 -2.5249 0
M  V30 2940 C 271.482 2.08014 -3.98811 0
M  V30 2941 C 272.801 3.58946 -2.54649 0
M  V30 2942 H 269.92 0.507075 -0.53483 0
M  V30 2943 H 272.562 0.720188 -1.75822 0
M  V30 2944 H 270.712 3.14597 -2.2795 0
M  V30 2945 H 272.384 1.5504 -4.34466 0
M  V30 2946 H 270.627 1.39242 -4.10846 0
M  V30 2947 H 271.298 2.92169 -4.68339 0
M  V30 2948 H 273.774 3.1089 -2.76563 0
M  V30 2949 H 272.65 4.38286 -3.3045 0
M  V30 2950 H 272.911 4.12655 -1.58646 0
M  V30 2951 N 271.97 1.30982 0.876444 0
M  V30 2952 C 272.88 1.2003 2.01569 0
M  V30 2953 C 273.896 0.11838 1.73597 0
M  V30 2954 O 275.072 0.33495 1.98595 0
M  V30 2955 C 272.137 0.901637 3.34771 0
M  V30 2956 C 271.198 2.06979 3.76109 0
M  V30 2957 C 270.431 1.78529 5.02954 0
M  V30 2958 O 270.654 0.717296 5.65872 0
M  V30 2959 O 269.588 2.64019 5.40905 0
M  V30 2960 H 273.414 2.15753 2.13739 0
M  V30 2961 H 270.999 1.10658 1.00375 0
M  V30 2962 H 272.881 0.750645 4.1466 0
M  V30 2963 H 271.556 -0.0256141 3.2369 0
M  V30 2964 H 270.463 2.27616 2.96887 0
M  V30 2965 H 271.796 2.97907 3.91807 0
M  V30 2966 N 273.449 -1.08991 1.13837 0
M  V30 2967 C 274.677 -1.85011 0.926202 0
M  V30 2968 C 275.092 -1.8135 -0.525127 0
M  V30 2969 O 274.449 -1.21287 -1.36366 0
M  V30 2970 C 274.5 -3.32802 1.41155 0
M  V30 2971 O 274.221 -3.36444 2.80601 0
M  V30 2972 C 275.722 -4.25649 1.23847 0
M  V30 2973 H 272.942 -0.584249 0.32999 0
M  V30 2974 H 275.486 -1.37688 1.51202 0
M  V30 2975 H 273.641 -3.77536 0.868631 0
M  V30 2976 H 274.055 -4.28657 3.02248 0
M  V30 2977 H 275.529 -5.27485 1.62675 0
M  V30 2978 H 276.006 -4.38828 0.18065 0
M  V30 2979 H 276.612 -3.86735 1.76964 0
M  V30 2980 N 274.927 -0.932562 -1.27047 0
M  V30 2981 C 276.175 -0.574422 -1.93765 0
M  V30 2982 C 276.496 0.887993 -1.73608 0
M  V30 2983 O 275.766 1.62999 -1.08665 0
M  V30 2984 H 274.346 -0.209451 -0.717035 0
M  V30 2985 H 277.008 -1.18601 -1.5466 0
M  V30 2986 H 276.104 -0.784841 -3.02071 0
M  V30 2987 N 276.405 1.4127 -0.698611 0
M  V30 2988 C 277.633 2.05503 -0.239992 0
M  V30 2989 C 278.048 1.52584 1.11191 0
M  V30 2990 O 277.405 0.675323 1.69545 0
M  V30 2991 C 277.456 3.60987 -0.192429 0
M  V30 2992 O 277.177 4.1195 -1.49094 0
M  V30 2993 C 278.678 4.42371 0.28681 0
M  V30 2994 H 275.898 0.661748 -0.111045 0
M  V30 2995 H 278.442 1.80987 -0.95205 0
M  V30 2996 H 276.597 3.84533 0.470472 0
M  V30 2997 H 277.011 5.06018 -1.38007 0
M  V30 2998 H 278.485 5.51344 0.26896 0
M  V30 2999 H 278.962 4.18699 1.32619 0
M  V30 3000 H 279.568 4.23897 -0.345201 0
M  V30 3001 N 277.883 0.443576 1.51229 0
M  V30 3002 C 279.129 -0.120975 2.02439 0
M  V30 3003 C 279.462 -1.41815 1.32674 0
M  V30 3004 O 278.737 -1.89373 0.443622 0
M  V30 3005 C 279.02 -0.333291 3.58554 0
M  V30 3006 C 278.873 0.982968 4.38928 0
M  V30 3007 C 280.192 -1.10028 4.26124 0
M  V30 3008 H 277.311 -0.0424923 0.735774 0
M  V30 3009 H 279.953 0.583794 1.80809 0
M  V30 3010 H 278.103 -0.933614 3.77115 0
M  V30 3011 H 279.775 1.61775 4.32003 0
M  V30 3012 H 278.018 1.58611 4.03763 0
M  V30 3013 H 278.689 0.788379 5.46341 0
M  V30 3014 H 281.165 -0.591711 4.11871 0
M  V30 3015 H 280.041 -1.21761 5.35225 0
M  V30 3016 H 280.302 -2.12996 3.87408 0
M  V30 3017 N 279.361 -1.56624 0.175154 0
M  V30 3018 C 280.586 -2.01813 -0.478137 0
M  V30 3019 C 281.011 -1.05457 -1.55757 0
M  V30 3020 O 280.369 -0.0347439 -1.81267 0
M  V30 3021 C 280.417 -3.45581 -1.02987 0
M  V30 3022 O 279.521 -3.52305 -2.14371 0
M  V30 3023 H 278.862 -0.65413 -0.114059 0
M  V30 3024 H 281.392 -2.02673 0.280173 0
M  V30 3025 H 281.402 -3.84965 -1.35151 0
M  V30 3026 H 280.077 -4.1521 -0.239556 0
M  V30 3027 H 278.654 -3.24783 -1.83222 0
M  V30 3028 N 280.839 0.0985539 -1.57292 0
M  V30 3029 C 282.064 0.820196 -1.90493 0
M  V30 3030 C 282.489 1.71658 -0.769094 0
M  V30 3031 O 281.847 1.79133 0.279495 0
M  V30 3032 C 281.895 1.61242 -3.22542 0
M  V30 3033 O 280.999 2.72108 -3.09888 0
M  V30 3034 H 280.34 0.225547 -0.62452 0
M  V30 3035 H 282.87 0.0748159 -2.04463 0
M  V30 3036 H 282.88 1.99737 -3.55766 0
M  V30 3037 H 281.555 0.954535 -4.04798 0
M  V30 3038 H 280.132 2.36667 -2.88172 0
M  V30 3039 N 282.317 1.53212 0.369288 0
M  V30 3040 C 283.542 1.73423 1.1375 0
M  V30 3041 C 283.967 0.460404 1.82378 0
M  V30 3042 O 283.325 -0.585298 1.71592 0
M  V30 3043 C 283.373 2.89769 2.1463 0
M  V30 3044 O 282.477 2.58119 3.21634 0
M  V30 3045 H 281.818 0.576061 0.330227 0
M  V30 3046 H 284.348 2.00083 0.427547 0
M  V30 3047 H 284.358 3.15829 2.58294 0
M  V30 3048 H 283.033 3.8217 1.64071 0
M  V30 3049 H 281.61 2.42864 2.82969 0
M  V30 3050 N 283.795 -0.628877 1.44509 0
M  V30 3051 C 285.072 -1.38733 1.37886 0
M  V30 3052 C 285.452 -2.11065 0.0387008 0
M  V30 3053 O 284.8 -2.06476 -0.97878 0
M  V30 3054 C 285.01 -2.35188 2.57852 0
M  V30 3055 C 286.358 -2.9845 3.02014 0
M  V30 3056 O 287.382 -2.45513 2.58073 0
M  V30 3057 O 286.241 -3.94487 3.78209 0
M  V30 3058 H 283.335 -0.621015 0.54614 0
M  V30 3059 H 285.881 -0.653744 1.56602 0
M  V30 3060 H 284.653 -1.80855 3.46998 0
M  V30 3061 H 284.276 -3.1596 2.4136 0
M  V30 3062 N 285.273 -1.31445 -0.869486 0
M  V30 3063 C 286.498 -1.24256 -1.66058 0
M  V30 3064 C 286.923 0.188928 -1.87149 0
M  V30 3065 O 286.281 1.13522 -1.4136 0
M  V30 3066 C 286.329 -1.9924 -3.00559 0
M  V30 3067 O 285.433 -1.33007 -3.90362 0
M  V30 3068 H 284.774 -0.428973 -0.506831 0
M  V30 3069 H 287.304 -1.73521 -1.08404 0
M  V30 3070 H 287.314 -2.08854 -3.50491 0
M  V30 3071 H 285.989 -3.03342 -2.84528 0
M  V30 3072 H 284.566 -1.31848 -3.48813 0
M  V30 3073 N 286.751 1.08385 -1.14413 0
M  V30 3074 C 287.976 1.85057 -0.936413 0
M  V30 3075 C 288.401 1.81055 0.509971 0
M  V30 3076 O 287.759 1.1958 1.36273 0
M  V30 3077 C 287.807 3.30505 -1.44217 0
M  V30 3078 O 286.911 4.07491 -0.634409 0
M  V30 3079 H 286.252 0.573425 -0.334784 0
M  V30 3080 H 288.782 1.36799 -1.52142 0
M  V30 3081 H 288.792 3.81348 -1.45043 0
M  V30 3082 H 287.467 3.32734 -2.49522 0
M  V30 3083 H 286.044 3.66368 -0.694902 0
M  V30 3084 N 288.23 0.939286 1.26551 0
M  V30 3085 C 289.162 0.404704 2.25599 0
M  V30 3086 C 290.175 -0.470983 1.55838 0
M  V30 3087 O 291.364 -0.281734 1.76263 0
M  V30 3088 C 288.464 -0.43764 3.36062 0
M  V30 3089 C 287.637 0.421449 4.35365 0
M  V30 3090 C 286.696 -0.36015 5.24966 0
M  V30 3091 O 285.722 0.236167 5.6871 0
M  V30 3092 N 286.924 -1.65715 5.56344 0
M  V30 3093 H 289.689 1.25618 2.72103 0
M  V30 3094 H 287.25 0.807963 1.40298 0
M  V30 3095 H 289.242 -0.967866 3.92956 0
M  V30 3096 H 287.812 -1.18991 2.89067 0
M  V30 3097 H 287.032 1.1329 3.7757 0
M  V30 3098 H 288.32 1.00835 4.98708 0
M  V30 3099 H 287.718 -2.16378 5.22682 0
M  V30 3100 H 286.275 -2.13366 6.15888 0
M  V30 3101 N 289.708 -1.40897 0.706093 0
M  V30 3102 C 290.938 -2.05075 0.250523 0
M  V30 3103 C 291.346 -1.53275 -1.10921 0
M  V30 3104 O 290.689 -0.680281 -1.7064 0
M  V30 3105 C 290.751 -3.59219 0.142178 0
M  V30 3106 C 290.415 -4.33864 1.43566 0
M  V30 3107 C 291.412 -4.62448 2.37566 0
M  V30 3108 C 289.097 -4.72946 1.69195 0
M  V30 3109 C 291.091 -5.29088 3.5545 0
M  V30 3110 C 288.778 -5.3932 2.87362 0
M  V30 3111 C 289.776 -5.6732 3.80312 0
M  V30 3112 O 289.464 -6.32325 4.96408 0
M  V30 3113 H 289.196 -0.666645 0.112074 0
M  V30 3114 H 291.75 -1.81467 0.962239 0
M  V30 3115 H 289.98 -3.81609 -0.6254 0
M  V30 3116 H 291.669 -4.0495 -0.277584 0
M  V30 3117 H 292.435 -4.32727 2.19027 0
M  V30 3118 H 288.314 -4.50527 0.977042 0
M  V30 3119 H 291.858 -5.50859 4.28018 0
M  V30 3120 H 287.755 -5.68461 3.05814 0
M  V30 3121 H 288.523 -6.50821 4.9636 0
M  V30 3122 N 291.186 -0.45159 -1.50991 0
M  V30 3123 C 292.432 0.110237 -2.025 0
M  V30 3124 C 292.765 1.41109 -1.33424 0
M  V30 3125 O 292.04 1.89135 -0.453659 0
M  V30 3126 C 292.323 0.314271 -3.58726 0
M  V30 3127 C 292.176 -1.00623 -4.38401 0
M  V30 3128 C 293.495 1.07767 -4.26702 0
M  V30 3129 H 290.614 0.0385897 -0.735989 0
M  V30 3130 H 293.256 -0.593374 -1.80497 0
M  V30 3131 H 291.406 0.913601 -3.77605 0
M  V30 3132 H 293.078 -1.64064 -4.31139 0
M  V30 3133 H 291.321 -1.6075 -4.02917 0
M  V30 3134 H 291.992 -0.817341 -5.45915 0
M  V30 3135 H 294.468 0.56986 -4.12179 0
M  V30 3136 H 293.344 1.18921 -5.35863 0
M  V30 3137 H 293.605 2.10939 -3.88532 0
M  V30 3138 N 292.664 1.56529 -0.183458 0
M  V30 3139 C 293.596 2.15747 0.773697 0
M  V30 3140 C 294.609 1.1162 1.1851 0
M  V30 3141 O 295.798 1.3876 1.12285 0
M  V30 3142 C 292.898 2.6952 2.05456 0
M  V30 3143 C 292.071 3.98429 1.8048 0
M  V30 3144 C 291.13 4.37145 2.92901 0
M  V30 3145 O 290.156 5.04791 2.6301 0
M  V30 3146 N 291.358 3.99695 4.2098 0
M  V30 3147 H 294.123 2.98505 0.26736 0
M  V30 3148 H 291.684 1.619 -0.0010878 0
M  V30 3149 H 293.676 2.92412 2.79781 0
M  V30 3150 H 292.246 1.91282 2.47245 0
M  V30 3151 H 291.466 3.8379 0.899947 0
M  V30 3152 H 292.754 4.82597 1.61175 0
M  V30 3153 H 292.152 3.4526 4.48121 0
M  V30 3154 H 290.709 4.27562 4.9197 0
M  V30 3155 N 294.142 -0.090211 1.57342 0
M  V30 3156 C 295.382 -0.798365 1.88163 0
M  V30 3157 C 295.746 -1.75662 0.775046 0
M  V30 3158 O 296.947 -2.50849 0.965816 0
M  V30 3159 C 295.218 -1.50376 3.24225 0
M  V30 3160 S 296.777 -2.24952 3.76752 0
M  V30 3161 H 293.595 -0.265883 0.659414 0
M  V30 3162 H 296.197 -0.055264 1.95422 0
M  V30 3163 H 294.901 -0.792286 4.0268 0
M  V30 3164 H 294.432 -2.28666 3.20118 0
M  V30 3165 H 296.447 -3.51173 3.5056 0
M  V30 3166 N 295.62 -1.53406 -0.361157 0
M  V30 3167 C 296.866 -1.70054 -1.10496 0
M  V30 3168 C 297.199 -0.453278 -1.88836 0
M  V30 3169 O 296.474 0.5495 -1.86576 0
M  V30 3170 C 296.757 -2.95317 -2.06058 0
M  V30 3171 C 296.61 -4.3021 -1.31298 0
M  V30 3172 C 297.929 -3.16193 -3.06121 0
M  V30 3173 H 295.048 -0.618799 -0.400321 0
M  V30 3174 H 297.69 -1.86052 -0.385318 0
M  V30 3175 H 295.84 -2.81809 -2.67425 0
M  V30 3176 H 297.512 -4.55538 -0.726807 0
M  V30 3177 H 295.755 -4.29421 -0.614853 0
M  V30 3178 H 296.426 -5.14 -2.01265 0
M  V30 3179 H 298.902 -3.28916 -2.5486 0
M  V30 3180 H 297.778 -4.05266 -3.70204 0
M  V30 3181 H 298.039 -2.31676 -3.76535 0
M  V30 3182 N 297.098 0.621204 -1.44841 0
M  V30 3183 C 298.061 1.71459 -1.521 0
M  V30 3184 C 299.061 1.55696 -0.401933 0
M  V30 3185 O 300.251 1.61011 -0.664925 0
M  V30 3186 C 297.383 3.10624 -1.40447 0
M  V30 3187 H 298.576 1.66394 -2.49506 0
M  V30 3188 H 296.129 0.835745 -1.3208 0
M  V30 3189 H 296.864 3.21277 -0.441737 0
M  V30 3190 H 296.649 3.23473 -2.21602 0
M  V30 3191 H 298.139 3.90293 -1.4853 0
M  V30 3192 N 298.576 1.31904 0.862503 0
M  V30 3193 C 299.824 1.21776 1.61292 0
M  V30 3194 C 300.145 -0.222413 1.93727 0
M  V30 3195 O 299.415 -1.1451 1.58947 0
M  V30 3196 H 297.995 0.447717 0.597962 0
M  V30 3197 H 300.657 1.65326 1.03215 0
M  V30 3198 H 299.753 1.7948 2.5533 0
M  V30 3199 N 300.054 -1.07777 1.14986 0
M  V30 3200 C 301.294 -1.81888 0.932527 0
M  V30 3201 C 301.658 -1.84509 -0.531064 0
M  V30 3202 O 302.859 -2.54448 -0.866577 0
M  V30 3203 C 301.13 -3.23244 1.52473 0
M  V30 3204 S 302.689 -4.14154 1.44989 0
M  V30 3205 H 299.507 -0.626752 0.335712 0
M  V30 3206 H 302.109 -1.29503 1.46455 0
M  V30 3207 H 300.813 -3.18922 2.58296 0
M  V30 3208 H 300.344 -3.80704 0.991381 0
M  V30 3209 H 302.359 -4.94247 0.439799 0
M  V30 3210 N 301.532 -0.945985 -1.26051 0
M  V30 3211 C 302.462 -0.477172 -2.28572 0
M  V30 3212 C 303.443 0.472032 -1.63419 0
M  V30 3213 O 304.628 0.372853 -1.90587 0
M  V30 3214 C 301.758 0.253975 -3.4637 0
M  V30 3215 C 300.712 -0.609135 -4.23643 0
M  V30 3216 C 300.038 0.252252 -5.34105 0
M  V30 3217 C 301.338 -1.8829 -4.8718 0
M  V30 3218 H 303.032 -1.33402 -2.68038 0
M  V30 3219 H 300.578 -0.642904 -1.28852 0
M  V30 3220 H 302.531 0.593016 -4.17207 0
M  V30 3221 H 301.255 1.145 -3.05871 0
M  V30 3222 H 299.914 -0.931138 -3.54578 0
M  V30 3223 H 299.562 1.14278 -4.89846 0
M  V30 3224 H 299.262 -0.32188 -5.86718 0
M  V30 3225 H 300.786 0.586454 -6.07777 0
M  V30 3226 H 302.2 -1.61081 -5.50205 0
M  V30 3227 H 300.597 -2.40199 -5.49931 0
M  V30 3228 H 301.667 -2.59134 -4.09851 0
M  V30 3229 N 303.011 1.40521 -0.713556 0
M  V30 3230 C 303.943 2.29191 -0.0203126 0
M  V30 3231 C 304.956 1.45723 0.725864 0
M  V30 3232 O 306.145 1.69033 0.573581 0
M  V30 3233 C 303.245 3.2395 0.995486 0
M  V30 3234 C 302.418 4.36262 0.315256 0
M  V30 3235 C 301.477 5.11474 1.23616 0
M  V30 3236 O 300.503 5.64606 0.721719 0
M  V30 3237 N 301.705 5.20638 2.56743 0
M  V30 3238 H 304.47 2.89327 -0.781652 0
M  V30 3239 H 302.031 1.51869 -0.561022 0
M  V30 3240 H 304.023 3.71137 1.61368 0
M  V30 3241 H 302.593 2.64995 1.6582 0
M  V30 3242 H 301.813 3.91228 -0.483106 0
M  V30 3243 H 303.101 5.08558 -0.157004 0
M  V30 3244 H 302.499 4.7895 3.01037 0
M  V30 3245 H 301.056 5.71339 3.13712 0
M  V30 3246 N 304.489 0.459591 1.5075 0
M  V30 3247 C 305.419 -0.330644 2.31147 0
M  V30 3248 C 306.4 -1.00087 1.37538 0
M  V30 3249 O 307.585 -1.00025 1.66459 0
M  V30 3250 C 304.715 -1.41958 3.16962 0
M  V30 3251 C 303.669 -0.871608 4.19031 0
M  V30 3252 C 302.995 -2.05797 4.9351 0
M  V30 3253 C 304.295 0.109251 5.22186 0
M  V30 3254 H 305.989 0.340336 2.97459 0
M  V30 3255 H 303.535 0.165119 1.4305 0
M  V30 3256 H 305.488 -1.9798 3.71997 0
M  V30 3257 H 304.212 -2.11917 2.48513 0
M  V30 3258 H 302.871 -0.333442 3.6508 0
M  V30 3259 H 302.519 -2.74427 4.21544 0
M  V30 3260 H 302.219 -1.6976 5.62544 0
M  V30 3261 H 303.743 -2.62331 5.51375 0
M  V30 3262 H 305.157 -0.361405 5.7216 0
M  V30 3263 H 303.554 0.383316 5.98875 0
M  V30 3264 H 304.624 1.03887 4.73641 0
M  V30 3265 N 305.967 -1.56429 0.191757 0
M  V30 3266 C 306.9 -2.14829 -0.76967 0
M  V30 3267 C 307.878 -1.08405 -1.2119 0
M  V30 3268 O 309.062 -1.36498 -1.30002 0
M  V30 3269 C 306.189 -2.70446 -2.03903 0
M  V30 3270 C 305.235 -3.89428 -1.7392 0
M  V30 3271 S 306.068 -5.28048 -0.890265 0
M  V30 3272 C 307.224 -5.87085 -2.16984 0
M  V30 3273 H 307.457 -2.96042 -0.273204 0
M  V30 3274 H 304.99 -1.54383 -0.0231975 0
M  V30 3275 H 306.948 -3.03134 -2.76803 0
M  V30 3276 H 305.609 -1.89281 -2.50662 0
M  V30 3277 H 304.802 -4.26742 -2.68155 0
M  V30 3278 H 304.404 -3.57732 -1.09103 0
M  V30 3279 H 306.696 -6.01244 -3.12269 0
M  V30 3280 H 307.639 -6.83747 -1.84108 0
M  V30 3281 H 308.047 -5.15663 -2.29678 0
M  V30 3282 N 307.445 0.0818655 -1.57387 0
M  V30 3283 C 308.375 1.09885 -2.06028 0
M  V30 3284 C 309.356 1.4098 -0.951774 0
M  V30 3285 O 310.541 1.50781 -1.22387 0
M  V30 3286 C 307.671 2.4151 -2.4958 0
M  V30 3287 C 306.625 2.24792 -3.64215 0
M  V30 3288 C 305.951 3.61712 -3.93787 0
M  V30 3289 C 307.251 1.67749 -4.94629 0
M  V30 3290 H 308.945 0.694128 -2.91243 0
M  V30 3291 H 306.491 0.332448 -1.4011 0
M  V30 3292 H 308.444 3.12939 -2.82219 0
M  V30 3293 H 307.168 2.83943 -1.61381 0
M  V30 3294 H 305.827 1.55807 -3.31843 0
M  V30 3295 H 305.475 4.01697 -3.02735 0
M  V30 3296 H 305.175 3.51368 -4.70971 0
M  V30 3297 H 306.699 4.34587 -4.28913 0
M  V30 3298 H 308.113 2.29032 -5.25564 0
M  V30 3299 H 306.51 1.68128 -5.76067 0
M  V30 3300 H 307.58 0.638059 -4.80684 0
M  V30 3301 N 308.923 1.53595 0.353017 0
M  V30 3302 C 310.339 1.43648 0.695516 0
M  V30 3303 C 310.539 0.585617 1.92802 0
M  V30 3304 O 309.595 0.0729223 2.52395 0
M  V30 3305 C 310.908 2.8701 0.896991 0
M  V30 3306 C 312.456 2.96723 0.996209 0
M  V30 3307 C 312.931 4.41173 1.23007 0
M  V30 3308 N 314.422 4.44657 1.29749 0
M  V30 3309 C 315.157 5.53547 1.49577 0
M  V30 3310 N 314.653 6.72461 1.66639 0
M  V30 3311 N 316.446 5.41145 1.52048 0
M  V30 3312 H 308.597 2.07415 -0.457481 0
M  V30 3313 H 310.86 0.9372 -0.142687 0
M  V30 3314 H 310.566 3.51644 0.0629938 0
M  V30 3315 H 310.44 3.31401 1.80148 0
M  V30 3316 H 312.827 2.32235 1.82074 0
M  V30 3317 H 312.908 2.55707 0.0688331 0
M  V30 3318 H 312.552 5.06238 0.410505 0
M  V30 3319 H 312.482 4.79772 2.17086 0
M  V30 3320 H 314.973 3.58963 1.18126 0
M  V30 3321 H 315.286 7.51214 1.81378 0
M  V30 3322 H 313.631 6.75423 1.63794 0
M  V30 3323 H 316.822 4.47205 1.38294 0
M  V30 3324 H 316.995 6.26068 1.67159 0
M  V30 3325 N 310.401 -0.613514 1.45168 0
M  V30 3326 C 311.647 -1.37471 1.49096 0
M  V30 3327 C 311.98 -1.93765 0.129901 0
M  V30 3328 O 311.255 -1.74707 -0.854858 0
M  V30 3329 C 311.538 -2.52701 2.56542 0
M  V30 3330 C 311.391 -2.01643 4.0207 0
M  V30 3331 C 312.71 -3.54849 2.60327 0
M  V30 3332 H 309.829 -0.498502 0.54283 0
M  V30 3333 H 312.471 -0.692125 1.76945 0
M  V30 3334 H 310.621 -3.10931 2.32926 0
M  V30 3335 H 312.293 -1.48108 4.36877 0
M  V30 3336 H 310.536 -1.32688 4.13009 0
M  V30 3337 H 311.207 -2.84681 4.72928 0
M  V30 3338 H 313.683 -3.0645 2.81474 0
M  V30 3339 H 312.559 -4.32973 3.37381 0
M  V30 3340 H 312.82 -4.10079 1.6519 0
M  V30 3341 N 311.879 -1.3236 -0.855495 0
M  V30 3342 C 312.827 -1.2118 -1.9854 0
M  V30 3343 C 313.821 -0.116788 -1.68997 0
M  V30 3344 O 315.027 -0.279657 -1.77814 0
M  V30 3345 H 311.402 -0.375608 -0.651477 0
M  V30 3346 H 313.373 -2.16743 -2.05098 0
M  V30 3347 C 312.122 -0.950849 -3.34446 0
M  V30 3348 H 311.445 -1.78563 -3.57708 0
M  V30 3349 H 312.885 -0.912863 -4.14057 0
M  V30 3350 C 311.344 0.346404 -3.35114 0
M  V30 3351 O 311.874 1.35855 -3.7803 0
M  V30 3352 N 310.08 0.36808 -2.88259 0
M  V30 3353 H 309.627 -0.456102 -2.5353 0
M  V30 3354 H 309.585 1.23591 -2.89089 0
M  V30 3355 N 313.357 1.07166 -1.15556 0
M  V30 3356 C 314.267 2.17947 -0.868116 0
M  V30 3357 C 315.283 1.73297 0.156297 0
M  V30 3358 O 316.459 2.01392 -0.0182327 0
M  V30 3359 C 313.524 3.44789 -0.36355 0
M  V30 3360 C 312.585 4.03996 -1.45209 0
M  V30 3361 C 311.818 5.24783 -0.971508 0
M  V30 3362 O 312.041 5.70109 0.182194 0
M  V30 3363 O 310.975 5.75715 -1.75603 0
M  V30 3364 H 314.801 2.4503 -1.79427 0
M  V30 3365 H 312.386 1.16539 -0.934824 0
M  V30 3366 H 314.268 4.21307 -0.0887113 0
M  V30 3367 H 312.943 3.19253 0.534708 0
M  V30 3368 H 311.85 3.29009 -1.78056 0
M  V30 3369 H 313.183 4.33808 -2.32533 0
M  V30 3370 N 314.835 0.952656 1.25548 0
M  V30 3371 C 316.065 0.622592 1.96996 0
M  V30 3372 C 316.473 -0.809112 1.71026 0
M  V30 3373 O 315.816 -1.55258 0.981861 0
M  V30 3374 C 315.878 0.798946 3.5051 0
M  V30 3375 C 315.542 2.20744 4.00151 0
M  V30 3376 C 316.539 3.18394 4.11001 0
M  V30 3377 C 314.224 2.5311 4.33867 0
M  V30 3378 C 316.218 4.46504 4.54877 0
M  V30 3379 C 313.905 3.8145 4.7743 0
M  V30 3380 C 314.903 4.77959 4.87897 0
M  V30 3381 O 314.591 6.04012 5.30494 0
M  V30 3382 H 314.323 0.232503 0.634758 0
M  V30 3383 H 316.877 1.2789 1.60728 0
M  V30 3384 H 315.107 0.0854903 3.86605 0
M  V30 3385 H 316.796 0.47023 4.03167 0
M  V30 3386 H 317.562 2.94715 3.85186 0
M  V30 3387 H 313.441 1.78719 4.24948 0
M  V30 3388 H 316.985 5.21835 4.62962 0
M  V30 3389 H 312.882 4.04936 5.0269 0
M  V30 3390 H 313.65 6.0736 5.48685 0
M  V30 3391 N 316.313 -1.40141 0.720998 0
M  V30 3392 C 317.729 -1.54632 0.395113 0
M  V30 3393 C 317.929 -1.69115 -1.09555 0
M  V30 3394 O 316.985 -1.68377 -1.88163 0
M  V30 3395 C 318.298 -2.77177 1.1659 0
M  V30 3396 C 319.846 -2.91 1.15274 0
M  V30 3397 C 320.321 -4.16465 1.90579 0
M  V30 3398 N 321.812 -4.23476 1.87675 0
M  V30 3399 C 322.547 -5.19475 2.42762 0
M  V30 3400 N 322.043 -6.21348 3.06428 0
M  V30 3401 N 323.836 -5.11592 2.32874 0
M  V30 3402 H 315.987 -1.28986 1.68749 0
M  V30 3403 H 318.25 -0.62412 0.713567 0
M  V30 3404 H 317.956 -2.72771 2.22011 0
M  V30 3405 H 317.83 -3.69442 0.76108 0
M  V30 3406 H 320.217 -2.94907 0.106702 0
M  V30 3407 H 320.298 -1.99838 1.59682 0
M  V30 3408 H 319.942 -4.1332 2.95176 0
M  V30 3409 H 319.872 -5.06646 1.43587 0
M  V30 3410 H 322.363 -3.50497 1.41281 0
M  V30 3411 H 322.676 -6.91034 3.45965 0
M  V30 3412 H 321.021 -6.21777 3.10514 0
M  V30 3413 H 324.212 -4.30936 1.82789 0
M  V30 3414 H 324.385 -5.86233 2.76106 0
M  V30 3415 N 317.792 -0.46758 -1.50504 0
M  V30 3416 C 319.039 0.0886219 -2.02306 0
M  V30 3417 C 319.367 1.40037 -1.34981 0
M  V30 3418 O 318.622 1.90136 -0.463318 0
M  V30 3419 C 318.921 0.323995 -3.55928 0
M  V30 3420 C 318.587 -0.905618 -4.41712 0
M  V30 3421 C 317.249 -1.24275 -4.64875 0
M  V30 3422 C 319.601 -1.72448 -4.91845 0
M  V30 3423 C 316.929 -2.39888 -5.35417 0
M  V30 3424 C 319.281 -2.87185 -5.63656 0
M  V30 3425 C 317.945 -3.21317 -5.85074 0
M  V30 3426 H 317.215 0.0324291 -0.74029 0
M  V30 3427 H 319.862 -0.620945 -1.81153 0
M  V30 3428 H 318.167 1.11577 -3.75577 0
M  V30 3429 H 319.864 0.76826 -3.93572 0
M  V30 3430 H 316.454 -0.632956 -4.239 0
M  V30 3431 H 320.638 -1.4772 -4.73806 0
M  V30 3432 H 315.894 -2.66611 -5.50208 0
M  V30 3433 H 320.068 -3.50985 -6.01484 0
M  V30 3434 H 317.695 -4.1101 -6.39511 0
M  V30 3435 N 319.27 1.56325 -0.20005 0
M  V30 3436 C 320.233 2.18084 0.705132 0
M  V30 3437 C 321.233 1.13666 1.1374 0
M  V30 3438 O 322.423 1.39023 1.04968 0
M  V30 3439 C 319.555 2.78689 1.96329 0
M  V30 3440 H 320.748 2.99435 0.167023 0
M  V30 3441 H 318.301 1.56221 0.0495725 0
M  V30 3442 H 319.036 2.0115 2.5438 0
M  V30 3443 H 318.821 3.55133 1.66202 0
M  V30 3444 H 320.311 3.26096 2.60866 0
M  V30 3445 N 320.748 -0.0735177 1.57428 0
M  V30 3446 C 321.994 -0.768909 1.88307 0
M  V30 3447 C 322.349 -1.75273 0.793535 0
M  V30 3448 O 321.642 -1.90527 -0.202466 0
M  V30 3449 C 321.836 -1.51799 3.23561 0
M  V30 3450 C 321.665 -0.608217 4.45568 0
M  V30 3451 C 320.435 -0.245808 5.04702 0
M  V30 3452 C 322.633 0.0942904 5.14214 0
M  V30 3453 N 320.615 0.66987 6.10234 0
M  V30 3454 C 321.986 0.867222 6.13905 0
M  V30 3455 C 324.041 0.165943 4.97623 0
M  V30 3456 C 322.744 1.70515 6.98797 0
M  V30 3457 C 324.77 0.990837 5.83041 0
M  V30 3458 C 324.132 1.75182 6.82269 0
M  V30 3459 H 320.231 -0.25685 0.738615 0
M  V30 3460 H 322.815 -0.030499 1.94676 0
M  V30 3461 H 320.986 -2.22713 3.18203 0
M  V30 3462 H 322.718 -2.16226 3.42094 0
M  V30 3463 H 319.473 -0.598284 4.69806 0
M  V30 3464 H 319.897 1.1209 6.67656 0
M  V30 3465 H 324.539 -0.408064 4.20826 0
M  V30 3466 H 322.257 2.29013 7.7497 0
M  V30 3467 H 325.843 1.04923 5.72261 0
M  V30 3468 H 324.723 2.37983 7.47217 0
M  V30 3469 N 322.226 -1.5378 -0.344866 0
M  V30 3470 C 323.472 -1.71216 -1.08687 0
M  V30 3471 C 323.805 -0.473281 -1.88345 0
M  V30 3472 O 323.08 0.52968 -1.87149 0
M  V30 3473 C 323.363 -2.97486 -2.02914 0
M  V30 3474 C 323.216 -4.31579 -1.26727 0
M  V30 3475 C 324.535 -3.19422 -3.0275 0
M  V30 3476 H 321.654 -0.62301 -0.393735 0
M  V30 3477 H 324.296 -1.8645 -0.365563 0
M  V30 3478 H 322.446 -2.84629 -2.64421 0
M  V30 3479 H 324.118 -4.56284 -0.67845 0
M  V30 3480 H 322.361 -4.30049 -0.569273 0
M  V30 3481 H 323.032 -5.16106 -1.95803 0
M  V30 3482 H 325.508 -3.316 -2.51357 0
M  V30 3483 H 324.384 -4.09169 -3.65885 0
M  V30 3484 H 324.645 -2.35656 -3.74057 0
M  V30 3485 N 323.704 0.605807 -1.45491 0
M  V30 3486 C 324.614 1.74466 -1.56839 0
M  V30 3487 C 325.63 1.68006 -0.452772 0
M  V30 3488 O 326.806 1.8833 -0.713708 0
M  V30 3489 C 323.871 3.10931 -1.53371 0
M  V30 3490 C 322.932 3.28832 -2.75986 0
M  V30 3491 C 322.165 4.58787 -2.72673 0
M  V30 3492 O 322.388 5.4122 -1.80102 0
M  V30 3493 O 321.322 4.79438 -3.63899 0
M  V30 3494 H 325.148 1.67843 -2.53106 0
M  V30 3495 H 322.733 0.770108 -1.28022 0
M  V30 3496 H 324.615 3.92233 -1.54051 0
M  V30 3497 H 323.29 3.18042 -0.602572 0
M  V30 3498 H 322.197 2.47112 -2.80867 0
M  V30 3499 H 323.53 3.26599 -3.68231 0
M  V30 3500 N 325.182 1.32811 0.848464 0
M  V30 3501 C 326.145 1.22194 1.9391 0
M  V30 3502 C 327.145 0.143404 1.60159 0
M  V30 3503 O 328.335 0.394253 1.6968 0
M  V30 3504 C 325.467 0.88067 3.29328 0
M  V30 3505 H 326.66 2.19127 2.04752 0
M  V30 3506 H 324.213 1.16731 1.0394 0
M  V30 3507 H 324.948 -0.0865776 3.24184 0
M  V30 3508 H 324.733 1.66052 3.55203 0
M  V30 3509 H 326.223 0.830871 4.09251 0
M  V30 3510 N 326.66 -1.06551 1.16123 0
M  V30 3511 C 327.937 -1.76097 0.85142 0
M  V30 3512 C 328.317 -2.00802 -0.6513 0
M  V30 3513 O 327.665 -1.63302 -1.59827 0
M  V30 3514 C 327.875 -3.06384 1.67122 0
M  V30 3515 C 329.223 -3.80585 1.88255 0
M  V30 3516 O 330.247 -3.16218 1.63966 0
M  V30 3517 O 329.106 -4.96212 2.2899 0
M  V30 3518 H 326.2 -0.765102 0.313923 0
M  V30 3519 H 328.746 -1.12844 1.26745 0
M  V30 3520 H 327.518 -2.84071 2.69108 0
M  V30 3521 H 327.141 -3.77371 1.25206 0
M  V30 3522 N 328.138 -0.959301 -1.25041 0
M  V30 3523 C 329.386 -0.615393 -1.92503 0
M  V30 3524 C 329.707 0.850969 -1.75452 0
M  V30 3525 O 328.977 1.60658 -1.12098 0
M  V30 3526 H 327.557 -0.224613 -0.712431 0
M  V30 3527 H 330.219 -1.21855 -1.5211 0
M  V30 3528 H 329.315 -0.848738 -3.00338 0
M  V30 3529 N 329.616 1.39756 -0.72842 0
M  V30 3530 C 330.862 2.00942 -0.273892 0
M  V30 3531 C 331.195 1.57656 1.13394 0
M  V30 3532 O 330.47 0.802434 1.77176 0
M  V30 3533 C 330.753 3.58211 -0.368346 0
M  V30 3534 C 330.606 4.11534 -1.81548 0
M  V30 3535 C 331.925 4.39372 0.253054 0
M  V30 3536 H 329.044 0.730047 -0.100996 0
M  V30 3537 H 331.686 1.66056 -0.923337 0
M  V30 3538 H 329.836 3.88061 0.184588 0
M  V30 3539 H 331.508 3.92431 -2.42478 0
M  V30 3540 H 329.751 3.65341 -2.33898 0
M  V30 3541 H 330.422 5.20682 -1.83288 0
M  V30 3542 H 332.898 4.15527 -0.218224 0
M  V30 3543 H 331.774 5.48677 0.156585 0
M  V30 3544 H 332.035 4.21358 1.33826 0
M  V30 3545 N 331.094 0.475555 1.50254 0
M  V30 3546 C 332.042 -0.330276 2.30243 0
M  V30 3547 C 333.036 -0.986306 1.37726 0
M  V30 3548 O 334.242 -0.9169 1.54897 0
M  V30 3549 H 330.617 -0.125353 0.741479 0
M  V30 3550 H 332.588 0.364702 2.96163 0
M  V30 3551 C 331.337 -1.39704 3.18399 0
M  V30 3552 H 330.66 -0.901621 3.89501 0
M  V30 3553 H 332.1 -1.93336 3.77355 0
M  V30 3554 C 330.559 -2.4014 2.36293 0
M  V30 3555 O 331.089 -3.45504 2.04914 0
M  V30 3556 N 329.295 -2.1197 1.98789 0
M  V30 3557 H 328.842 -1.2631 2.24507 0
M  V30 3558 H 328.8 -2.79403 1.44157 0
M  V30 3559 N 332.573 -1.56217 0.208337 0
M  V30 3560 C 333.813 -1.99849 -0.428927 0
M  V30 3561 C 334.177 -1.09262 -1.57879 0
M  V30 3562 O 335.378 -1.42185 -2.28116 0
M  V30 3563 C 333.649 -3.46777 -0.864879 0
M  V30 3564 S 335.208 -4.12434 -1.49811 0
M  V30 3565 H 332.026 -0.697742 -0.136665 0
M  V30 3566 H 334.628 -1.92953 0.314519 0
M  V30 3567 H 333.332 -4.10396 -0.0181326 0
M  V30 3568 H 332.863 -3.57518 -1.64147 0
M  V30 3569 H 334.878 -4.10532 -2.78707 0
M  V30 3570 N 334.051 0.0651679 -1.57465 0
M  V30 3571 C 335.3 0.761916 -1.86756 0
M  V30 3572 C 335.613 1.78406 -0.801925 0
M  V30 3573 O 336.819 2.53084 -0.982885 0
M  V30 3574 C 335.275 1.40603 -3.31299 0
M  V30 3575 C 334.883 0.422115 -4.46007 0
M  V30 3576 C 336.627 2.08476 -3.69781 0
M  V30 3577 C 334.534 1.07252 -5.81593 0
M  V30 3578 H 333.464 0.288308 -0.696702 0
M  V30 3579 H 336.115 0.015344 -1.83494 0
M  V30 3580 H 334.497 2.20109 -3.29193 0
M  V30 3581 H 335.671 -0.343613 -4.59517 0
M  V30 3582 H 333.986 -0.152527 -4.16121 0
M  V30 3583 H 336.583 2.57925 -4.68379 0
M  V30 3584 H 336.926 2.88712 -2.99919 0
M  V30 3585 H 337.459 1.35792 -3.73905 0
M  V30 3586 H 334.198 0.310342 -6.54765 0
M  V30 3587 H 333.718 1.80895 -5.71872 0
M  V30 3588 H 335.397 1.59043 -6.27148 0
M  V30 3589 N 335.529 1.53961 0.336706 0
M  V30 3590 C 336.462 1.77255 1.43722 0
M  V30 3591 C 337.44 0.62193 1.50236 0
M  V30 3592 O 338.624 0.857874 1.67847 0
M  V30 3593 C 335.751 1.87733 2.81912 0
M  V30 3594 C 334.797 3.09933 2.92991 0
M  V30 3595 S 335.63 4.68836 2.58753 0
M  V30 3596 C 336.786 4.82202 3.99039 0
M  V30 3597 H 337.019 2.70322 1.23748 0
M  V30 3598 H 334.552 1.44917 0.532777 0
M  V30 3599 H 336.51 1.94455 3.61521 0
M  V30 3600 H 335.171 0.956666 2.99177 0
M  V30 3601 H 334.364 3.1396 3.94265 0
M  V30 3602 H 333.966 3.01472 2.21338 0
M  V30 3603 H 336.258 4.64032 4.9364 0
M  V30 3604 H 337.201 5.84298 4.00002 0
M  V30 3605 H 337.609 4.10604 3.87382 0
M  V30 3606 N 337.007 -0.598083 1.45811 0
M  V30 3607 C 338.255 -1.35413 1.50026 0
M  V30 3608 C 338.576 -1.94444 0.147177 0
M  V30 3609 O 337.846 -1.77701 -0.824571 0
M  V30 3610 H 336.426 -0.502727 0.552517 0
M  V30 3611 H 339.088 -0.701606 1.81834 0
M  V30 3612 H 338.184 -2.16871 2.2444 0
M  V30 3613 N 338.485 -1.33259 -0.841409 0
M  V30 3614 C 339.731 -1.24757 -1.59886 0
M  V30 3615 C 340.064 0.186913 -1.93298 0
M  V30 3616 O 339.339 1.12757 -1.5848 0
M  V30 3617 C 339.622 -2.12036 -2.91055 0
M  V30 3618 C 339.475 -3.63929 -2.6434 0
M  V30 3619 C 340.794 -1.9916 -3.92458 0
M  V30 3620 H 337.913 -0.454542 -0.580138 0
M  V30 3621 H 340.555 -1.63335 -0.970647 0
M  V30 3622 H 338.705 -1.79265 -3.44669 0
M  V30 3623 H 340.377 -4.06978 -2.17178 0
M  V30 3624 H 338.62 -3.85935 -1.98082 0
M  V30 3625 H 339.291 -4.20341 -3.57796 0
M  V30 3626 H 341.767 -2.27895 -3.48143 0
M  V30 3627 H 340.643 -2.62484 -4.82072 0
M  V30 3628 H 340.904 -0.963082 -4.31482 0
M  V30 3629 N 339.963 1.05934 -1.16686 0
M  V30 3630 C 340.893 2.1546 -0.899949 0
M  V30 3631 C 341.874 1.69391 0.155154 0
M  V30 3632 O 343.059 1.94199 0.00648693 0
M  V30 3633 C 340.189 3.44939 -0.404241 0
M  V30 3634 C 339.143 4.04536 -1.39767 0
M  V30 3635 C 338.469 5.29268 -0.760216 0
M  V30 3636 C 339.769 4.42893 -2.76845 0
M  V30 3637 H 341.463 2.38046 -1.81588 0
M  V30 3638 H 339.009 1.14404 -0.874514 0
M  V30 3639 H 340.962 4.20901 -0.204971 0
M  V30 3640 H 339.686 3.21983 0.547206 0
M  V30 3641 H 338.345 3.30635 -1.58355 0
M  V30 3642 H 337.993 5.02611 0.197831 0
M  V30 3643 H 337.693 5.70101 -1.42332 0
M  V30 3644 H 339.217 6.07924 -0.57105 0
M  V30 3645 H 340.631 5.09921 -2.62019 0
M  V30 3646 H 339.028 4.94721 -3.39663 0
M  V30 3647 H 340.098 3.53584 -3.31823 0
M  V30 3648 N 341.441 0.965919 1.2453 0
M  V30 3649 C 342.666 0.643971 1.97149 0
M  V30 3650 C 343.091 -0.779487 1.71189 0
M  V30 3651 O 342.449 -1.5288 0.974553 0
M  V30 3652 C 342.497 0.922557 3.48599 0
M  V30 3653 O 341.601 0.00707672 4.12399 0
M  V30 3654 H 340.942 0.243647 0.617683 0
M  V30 3655 H 343.472 1.29558 1.58353 0
M  V30 3656 H 343.482 0.853373 3.98976 0
M  V30 3657 H 342.157 1.95996 3.66822 0
M  V30 3658 H 340.734 0.12943 3.72675 0
M  V30 3659 N 342.919 -1.39368 0.735821 0
M  V30 3660 C 343.867 -2.32443 0.0855131 0
M  V30 3661 C 344.861 -1.53104 -0.724954 0
M  V30 3662 O 346.067 -1.68762 -0.626047 0
M  V30 3663 H 342.442 -0.751948 0.00885257 0
M  V30 3664 H 344.413 -2.84916 0.886883 0
M  V30 3665 C 343.162 -3.38206 -0.806983 0
M  V30 3666 H 342.485 -3.99335 -0.19274 0
M  V30 3667 H 343.925 -4.05779 -1.2296 0
M  V30 3668 C 342.384 -2.75321 -1.94165 0
M  V30 3669 O 342.914 -2.63231 -3.03435 0
M  V30 3670 N 341.12 -2.33396 -1.73132 0
M  V30 3671 H 340.667 -2.4343 -0.842596 0
M  V30 3672 H 340.625 -1.91661 -2.49225 0
M  V30 3673 N 344.397 -0.483516 -1.5 0
M  V30 3674 C 345.344 0.304164 -2.28787 0
M  V30 3675 C 346.314 0.976114 -1.34392 0
M  V30 3676 O 347.499 0.986156 -1.63339 0
M  V30 3677 C 344.639 1.37298 -3.16612 0
M  V30 3678 C 343.752 0.714561 -4.26049 0
M  V30 3679 C 342.887 1.76232 -5.01114 0
M  V30 3680 C 341.926 1.08483 -6.0241 0
M  V30 3681 N 341.063 2.076 -6.70706 0
M  V30 3682 H 345.903 -0.373981 -2.95644 0
M  V30 3683 H 343.44 -0.196275 -1.45785 0
M  V30 3684 H 345.398 2.00445 -3.65893 0
M  V30 3685 H 344.028 2.02012 -2.51776 0
M  V30 3686 H 343.08 -0.0297798 -3.80388 0
M  V30 3687 H 344.392 0.180383 -4.98474 0
M  V30 3688 H 343.546 2.46929 -5.54176 0
M  V30 3689 H 342.285 2.33033 -4.28424 0
M  V30 3690 H 341.29 0.363545 -5.48597 0
M  V30 3691 H 342.515 0.523551 -6.77079 0
M  V30 3692 H 340.461 2.63394 -6.00799 0
M  V30 3693 H 340.378 1.59201 -7.39047 0
M  V30 3694 H 341.646 2.77639 -7.2838 0
M  V30 3695 N 345.875 1.56104 -0.216619 0
M  V30 3696 C 347.115 2.00074 0.418322 0
M  V30 3697 C 347.479 1.10098 1.57297 0
M  V30 3698 O 348.68 1.43393 2.27359 0
M  V30 3699 C 346.951 3.47231 0.846477 0
M  V30 3700 S 348.51 4.13223 1.47622 0
M  V30 3701 H 345.328 0.698457 0.132962 0
M  V30 3702 H 347.93 1.92784 -0.324748 0
M  V30 3703 H 346.634 4.104 -0.0036319 0
M  V30 3704 H 346.165 3.58384 1.62248 0
M  V30 3705 H 348.18 4.12005 2.76526 0
M  V30 3706 N 347.353 -0.0568162 1.57498 0
M  V30 3707 C 348.601 -0.751617 1.87604 0
M  V30 3708 C 348.922 -1.77351 0.81066 0
M  V30 3709 O 348.192 -1.95254 -0.159018 0
M  V30 3710 H 346.772 -0.280583 0.692302 0
M  V30 3711 H 349.434 -0.0293483 1.94878 0
M  V30 3712 H 348.53 -1.25852 2.856 0
M  V30 3713 N 348.832 -1.54138 -0.328536 0
M  V30 3714 C 350.079 -1.72105 -1.06706 0
M  V30 3715 C 350.407 -0.492111 -1.88171 0
M  V30 3716 O 349.662 0.526153 -1.88494 0
M  V30 3717 C 349.961 -2.9457 -2.02393 0
M  V30 3718 C 349.627 -4.29544 -1.37122 0
M  V30 3719 C 348.289 -4.6624 -1.19052 0
M  V30 3720 C 350.641 -5.1333 -0.902331 0
M  V30 3721 C 347.969 -5.84325 -0.527331 0
M  V30 3722 C 350.321 -6.32094 -0.252988 0
M  V30 3723 C 348.985 -6.67473 -0.0600901 0
M  V30 3724 H 348.255 -0.629775 -0.390466 0
M  V30 3725 H 350.902 -1.88372 -0.34473 0
M  V30 3726 H 349.207 -2.72969 -2.81061 0
M  V30 3727 H 350.904 -3.05665 -2.59557 0
M  V30 3728 H 347.494 -4.0067 -1.52188 0
M  V30 3729 H 351.678 -4.855 -1.02974 0
M  V30 3730 H 346.934 -6.103 -0.366634 0
M  V30 3731 H 351.108 -6.96299 0.118366 0
M  V30 3732 H 348.735 -7.58832 0.455828 0
M  V30 3733 N 350.31 0.590341 -1.46126 0
M  V30 3734 C 351.242 1.71427 -1.52136 0
M  V30 3735 C 352.255 1.57542 -0.41042 0
M  V30 3736 O 353.444 1.65106 -0.678389 0
M  V30 3737 C 350.544 3.09605 -1.37834 0
M  V30 3738 C 349.717 3.49566 -2.62912 0
M  V30 3739 C 348.776 4.66773 -2.42918 0
M  V30 3740 O 347.802 4.73019 -3.1661 0
M  V30 3741 N 349.004 5.61161 -1.4859 0
M  V30 3742 H 351.769 1.66728 -2.49042 0
M  V30 3743 H 349.33 0.776113 -1.42085 0
M  V30 3744 H 351.322 3.85796 -1.22243 0
M  V30 3745 H 349.892 3.08714 -0.491393 0
M  V30 3746 H 349.112 2.63158 -2.93499 0
M  V30 3747 H 350.4 3.73028 -3.46017 0
M  V30 3748 H 349.798 5.58844 -0.87808 0
M  V30 3749 H 348.355 6.36814 -1.38965 0
M  V30 3750 N 351.788 1.33704 0.83433 0
M  V30 3751 C 352.718 1.26967 1.95963 0
M  V30 3752 C 353.699 0.149337 1.69443 0
M  V30 3753 O 354.884 0.339852 1.91203 0
M  V30 3754 C 352.014 1.01275 3.32206 0
M  V30 3755 C 350.968 2.09652 3.73136 0
M  V30 3756 C 350.294 1.69166 5.07235 0
M  V30 3757 C 351.594 3.51372 3.86439 0
M  V30 3758 H 353.288 2.2112 2.01857 0
M  V30 3759 H 350.834 1.06447 0.969793 0
M  V30 3760 H 352.787 0.952106 4.10503 0
M  V30 3761 H 351.511 0.0356203 3.26581 0
M  V30 3762 H 350.17 2.14766 2.97104 0
M  V30 3763 H 349.818 0.701437 4.98085 0
M  V30 3764 H 349.518 2.41694 5.35591 0
M  V30 3765 H 351.042 1.64576 5.88003 0
M  V30 3766 H 352.456 3.48734 4.55036 0
M  V30 3767 H 350.853 4.22425 4.26236 0
M  V30 3768 H 351.923 3.89546 2.88759 0
M  V30 3769 N 353.266 -1.05314 1.17247 0
M  V30 3770 C 354.198 -2.13023 0.845812 0
M  V30 3771 C 355.211 -1.62096 -0.151246 0
M  V30 3772 O 356.4 -1.78343 0.0748818 0
M  V30 3773 C 353.5 -3.38047 0.240292 0
M  V30 3774 C 352.673 -4.18255 1.27991 0
M  V30 3775 C 351.732 -5.21625 0.692375 0
M  V30 3776 O 350.758 -5.52619 1.36385 0
M  V30 3777 N 351.96 -5.78201 -0.516178 0
M  V30 3778 H 354.725 -2.41642 1.77283 0
M  V30 3779 H 352.286 -1.21401 1.07115 0
M  V30 3780 H 354.278 -4.04359 -0.16603 0
M  V30 3781 H 352.848 -3.06972 -0.590487 0
M  V30 3782 H 352.068 -3.47451 1.86203 0
M  V30 3783 H 353.356 -4.68643 1.98119 0
M  V30 3784 H 352.754 -5.55301 -1.07969 0
M  V30 3785 H 351.311 -6.4604 -0.86458 0
M  V30 3786 N 354.744 -0.972509 -1.24016 0
M  V30 3787 C 355.974 -0.653853 -1.9598 0
M  V30 3788 C 356.382 0.781801 -1.72292 0
M  V30 3789 O 355.725 1.53677 -1.00644 0
M  V30 3790 C 355.787 -0.854608 -3.49194 0
M  V30 3791 C 355.451 -2.27082 -3.96589 0
M  V30 3792 C 356.448 -3.24892 -4.05883 0
M  V30 3793 C 354.133 -2.5998 -4.29786 0
M  V30 3794 C 356.127 -4.53684 -4.47716 0
M  V30 3795 C 353.814 -3.88997 -4.71301 0
M  V30 3796 C 354.812 -4.85661 -4.80232 0
M  V30 3797 O 354.5 -6.12376 -5.20818 0
M  V30 3798 H 354.232 -0.242572 -0.630979 0
M  V30 3799 H 356.786 -1.30431 -1.58673 0
M  V30 3800 H 355.016 -0.146985 -3.86421 0
M  V30 3801 H 356.705 -0.534311 -4.02368 0
M  V30 3802 H 357.471 -3.00805 -3.80449 0
M  V30 3803 H 353.35 -1.85457 -4.22051 0
M  V30 3804 H 356.894 -5.29135 -4.54601 0
M  V30 3805 H 352.791 -4.12882 -4.96184 0
M  V30 3806 H 353.559 -6.16013 -5.38953 0
M  V30 3807 N 356.222 1.38976 -0.743202 0
M  V30 3808 C 357.154 2.29096 -0.0689228 0
M  V30 3809 C 358.167 1.47229 0.694791 0
M  V30 3810 O 359.356 1.70212 0.537597 0
M  V30 3811 C 356.456 3.25988 0.926548 0
M  V30 3812 C 355.629 4.36833 0.222647 0
M  V30 3813 C 354.688 5.13981 1.12739 0
M  V30 3814 O 353.714 5.6601 0.601795 0
M  V30 3815 N 354.916 5.25966 2.45641 0
M  V30 3816 H 357.681 2.87604 -0.842846 0
M  V30 3817 H 355.242 1.50645 -0.593109 0
M  V30 3818 H 357.234 3.74476 1.5346 0
M  V30 3819 H 355.804 2.68453 1.60162 0
M  V30 3820 H 355.024 3.90116 -0.565983 0
M  V30 3821 H 356.312 5.0811 -0.264841 0
M  V30 3822 H 355.71 4.85228 2.9081 0
M  V30 3823 H 354.267 5.77865 3.01522 0
M  V30 3824 N 357.7 0.491464 1.49741 0
M  V30 3825 C 358.633 -0.338464 2.25676 0
M  V30 3826 C 359.611 -0.978676 1.29849 0
M  V30 3827 O 360.795 -1.01064 1.59117 0
M  V30 3828 C 357.922 -1.47588 3.04853 0
M  V30 3829 C 356.968 -0.951 4.15762 0
M  V30 3830 S 357.801 0.150626 5.35288 0
M  V30 3831 C 358.957 -0.990178 6.18018 0
M  V30 3832 H 359.19 0.306068 2.9572 0
M  V30 3833 H 356.723 0.276622 1.51902 0
M  V30 3834 H 358.681 -2.12764 3.51058 0
M  V30 3835 H 357.342 -2.09199 2.34296 0
M  V30 3836 H 356.535 -1.80311 4.70642 0
M  V30 3837 H 356.137 -0.376607 3.72099 0
M  V30 3838 H 358.429 -1.89748 6.50386 0
M  V30 3839 H 359.372 -0.480205 7.0647 0
M  V30 3840 H 359.78 -1.25321 5.50413 0
M  V30 3841 N 359.178 -1.55987 0.224894 0
M  V30 3842 C 360.427 -1.97566 -0.406273 0
M  V30 3843 C 360.74 -1.11569 -1.6066 0
M  V30 3844 O 361.946 -1.43062 -2.3075 0
M  V30 3845 C 360.402 -3.51474 -0.774207 0
M  V30 3846 C 360.01 -4.46179 0.403496 0
M  V30 3847 C 361.754 -4.01758 -1.37079 0
M  V30 3848 C 359.661 -5.91399 0.0129412 0
M  V30 3849 H 358.591 -0.737777 -0.155565 0
M  V30 3850 H 361.242 -1.80659 0.321635 0
M  V30 3851 H 359.624 -3.63994 -1.55963 0
M  V30 3852 H 360.798 -4.45409 1.18101 0
M  V30 3853 H 359.113 -4.06255 0.913536 0
M  V30 3854 H 361.71 -5.07756 -1.67596 0
M  V30 3855 H 362.053 -3.47805 -2.28773 0
M  V30 3856 H 362.586 -3.92475 -0.648733 0
M  V30 3857 H 359.325 -6.49341 0.896451 0
M  V30 3858 H 358.845 -5.95356 -0.728821 0
M  V30 3859 H 360.524 -6.45683 -0.412582 0
M  V30 3860 N 360.656 0.0484629 -1.57525 0
M  V30 3861 C 361.903 0.743125 -1.88372 0
M  V30 3862 C 362.231 1.76383 -0.819715 0
M  V30 3863 O 361.486 1.94855 0.181659 0
M  V30 3864 C 361.785 1.46632 -3.25935 0
M  V30 3865 C 361.451 0.583427 -4.4711 0
M  V30 3866 C 360.113 0.340191 -4.79996 0
M  V30 3867 C 362.465 -0.0273345 -5.21193 0
M  V30 3868 C 359.793 -0.522903 -5.84365 0
M  V30 3869 C 362.145 -0.878017 -6.26477 0
M  V30 3870 C 360.809 -1.1309 -6.5785 0
M  V30 3871 H 360.079 0.271929 -0.689301 0
M  V30 3872 H 362.726 0.00336166 -1.915 0
M  V30 3873 H 361.031 2.2789 -3.18706 0
M  V30 3874 H 362.728 2.00902 -3.47044 0
M  V30 3875 H 359.318 0.783151 -4.21384 0
M  V30 3876 H 363.502 0.147654 -4.9608 0
M  V30 3877 H 358.758 -0.727335 -6.07058 0
M  V30 3878 H 362.932 -1.35789 -6.83033 0
M  V30 3879 H 360.559 -1.80144 -7.38547 0
M  V30 3880 N 362.134 1.5431 0.320358 0
M  V30 3881 C 363.359 1.76954 1.08175 0
M  V30 3882 C 363.784 0.518193 1.80821 0
M  V30 3883 O 363.142 -0.530411 1.73368 0
M  V30 3884 C 363.19 2.96451 2.05303 0
M  V30 3885 O 362.294 2.68221 3.13259 0
M  V30 3886 H 361.635 0.586275 0.311733 0
M  V30 3887 H 364.165 2.01342 0.363676 0
M  V30 3888 H 364.175 3.23887 2.48116 0
M  V30 3889 H 362.85 3.87196 1.51829 0
M  V30 3890 H 361.427 2.51744 2.75099 0
M  V30 3891 N 363.613 -0.582584 1.46437 0
M  V30 3892 C 364.862 -1.337 1.5102 0
M  V30 3893 C 365.175 -1.94891 0.166359 0
M  V30 3894 O 366.381 -2.71351 0.0899954 0
M  V30 3895 C 364.837 -2.42315 2.66104 0
M  V30 3896 C 364.445 -1.87427 4.06909 0
M  V30 3897 C 366.189 -3.19099 2.79958 0
M  V30 3898 C 364.096 -2.93672 5.13333 0
M  V30 3899 H 363.026 -0.502619 0.562041 0
M  V30 3900 H 365.677 -0.621701 1.72647 0
M  V30 3901 H 364.059 -3.16645 2.37807 0
M  V30 3902 H 365.233 -1.19639 4.44998 0
M  V30 3903 H 363.548 -1.2331 3.97723 0
M  V30 3904 H 366.145 -3.9839 3.56636 0
M  V30 3905 H 366.488 -3.71695 1.87479 0
M  V30 3906 H 367.021 -2.51875 3.07902 0
M  V30 3907 H 363.76 -2.45962 6.07604 0
M  V30 3908 H 363.28 -3.59948 4.79789 0
M  V30 3909 H 364.959 -3.5762 5.39182 0
M  V30 3910 N 365.091 -1.34144 -0.827227 0
M  V30 3911 C 366.337 -1.27455 -1.58515 0
M  V30 3912 C 366.692 0.155271 -1.91772 0
M  V30 3913 O 365.985 1.10042 -1.56848 0
M  V30 3914 C 366.179 -2.09464 -2.89585 0
M  V30 3915 C 366.008 -3.60276 -2.69131 0
M  V30 3916 C 364.778 -4.29565 -2.66087 0
M  V30 3917 C 366.976 -4.54367 -2.40947 0
M  V30 3918 N 364.958 -5.66252 -2.37132 0
M  V30 3919 C 366.329 -5.79027 -2.21648 0
M  V30 3920 C 368.384 -4.43327 -2.26639 0
M  V30 3921 C 367.087 -6.93891 -1.89492 0
M  V30 3922 C 369.113 -5.58019 -1.95878 0
M  V30 3923 C 368.475 -6.81695 -1.774 0
M  V30 3924 H 364.574 -0.521614 -0.582617 0
M  V30 3925 H 367.158 -1.68811 -0.970105 0
M  V30 3926 H 365.329 -1.70411 -3.49019 0
M  V30 3927 H 367.061 -1.94453 -3.54923 0
M  V30 3928 H 363.816 -3.81959 -2.80008 0
M  V30 3929 H 364.24 -6.38338 -2.25507 0
M  V30 3930 H 368.882 -3.48333 -2.39633 0
M  V30 3931 H 366.6 -7.88871 -1.75236 0
M  V30 3932 H 370.186 -5.5142 -1.85546 0
M  V30 3933 H 369.066 -7.68942 -1.53941 0
M  V30 3934 N 366.569 1.04691 -1.17803 0
M  V30 3935 C 367.499 2.14494 -0.92275 0
M  V30 3936 C 368.48 1.69546 0.137179 0
M  V30 3937 O 369.665 1.94195 -0.0141108 0
M  V30 3938 C 366.795 3.44491 -0.440803 0
M  V30 3939 C 365.749 4.03031 -1.4405 0
M  V30 3940 C 365.075 5.28432 -0.81631 0
M  V30 3941 C 366.375 4.39932 -2.81527 0
M  V30 3942 H 368.069 2.36107 -1.84103 0
M  V30 3943 H 365.615 1.1347 -0.886599 0
M  V30 3944 H 367.568 4.2066 -0.249602 0
M  V30 3945 H 366.292 3.22546 0.513025 0
M  V30 3946 H 364.951 3.28937 -1.61853 0
M  V30 3947 H 364.599 5.02792 0.144511 0
M  V30 3948 H 364.299 5.68559 -1.48371 0
M  V30 3949 H 365.823 6.07284 -0.635496 0
M  V30 3950 H 367.237 5.07113 -2.67412 0
M  V30 3951 H 365.634 4.9109 -3.44892 0
M  V30 3952 H 366.704 3.50045 -3.35554 0
M  V30 3953 N 368.047 0.979072 1.23499 0
M  V30 3954 C 368.977 0.537606 2.27227 0
M  V30 3955 C 369.958 -0.428539 1.64613 0
M  V30 3956 O 371.143 -0.322191 1.91509 0
M  V30 3957 C 368.273 -0.162052 3.46922 0
M  V30 3958 C 367.227 0.721242 4.21879 0
M  V30 3959 C 366.553 -0.110555 5.34586 0
M  V30 3960 C 367.853 2.01141 4.82016 0
M  V30 3961 H 369.547 1.40462 2.64406 0
M  V30 3962 H 367.093 0.67684 1.27102 0
M  V30 3963 H 369.046 -0.482192 4.18632 0
M  V30 3964 H 367.77 -1.06351 3.08799 0
M  V30 3965 H 366.429 1.02482 3.51984 0
M  V30 3966 H 366.077 -1.0125 4.92704 0
M  V30 3967 H 365.777 0.477325 5.85658 0
M  V30 3968 H 367.301 -0.425107 6.09118 0
M  V30 3969 H 368.715 1.75612 5.45741 0
M  V30 3970 H 367.112 2.54695 5.43369 0
M  V30 3971 H 368.182 2.69909 4.02836 0
M  V30 3972 N 369.525 -1.3858 0.750561 0
M  V30 3973 C 370.488 -2.28836 0.129152 0
M  V30 3974 C 371.488 -1.47045 -0.650714 0
M  V30 3975 O 372.678 -1.6753 -0.477428 0
M  V30 3976 C 369.81 -3.30751 -0.825622 0
M  V30 3977 H 371.003 -2.85294 0.924516 0
M  V30 3978 H 368.556 -1.47489 0.517376 0
M  V30 3979 H 369.291 -2.79378 -1.64677 0
M  V30 3980 H 369.076 -3.91177 -0.268852 0
M  V30 3981 H 370.566 -3.98249 -1.2565 0
M  V30 3982 N 371.003 -0.499398 -1.49478 0
M  V30 3983 C 372.25 0.0456899 -2.02448 0
M  V30 3984 C 372.578 1.37142 -1.37921 0
M  V30 3985 O 371.833 1.89111 -0.503544 0
M  V30 3986 C 372.132 0.248424 -3.56536 0
M  V30 3987 C 371.798 -0.999107 -4.39692 0
M  V30 3988 C 370.46 -1.34108 -4.62135 0
M  V30 3989 C 372.812 -1.82842 -4.88076 0
M  V30 3990 C 370.14 -2.51191 -5.30208 0
M  V30 3991 C 372.492 -2.99076 -5.57437 0
M  V30 3992 C 371.156 -3.33655 -5.78127 0
M  V30 3993 H 370.426 0.0167191 -0.740811 0
M  V30 3994 H 373.073 -0.65923 -1.79795 0
M  V30 3995 H 371.378 1.03586 -3.77859 0
M  V30 3996 H 373.075 0.684605 -3.95113 0
M  V30 3997 H 369.665 -0.722729 -4.22463 0
M  V30 3998 H 373.849 -1.57737 -4.70566 0
M  V30 3999 H 369.105 -2.78221 -5.44429 0
M  V30 4000 H 373.279 -3.63664 -5.93904 0
M  V30 4001 H 370.906 -4.24483 -6.30649 0
M  V30 4002 N 372.481 1.55866 -0.233164 0
M  V30 4003 C 373.706 2.03449 0.402906 0
M  V30 4004 C 374.131 1.11166 1.51736 0
M  V30 4005 O 373.489 0.101996 1.81013 0
M  V30 4006 C 373.537 3.49165 0.9009 0
M  V30 4007 O 372.641 3.60019 2.01147 0
M  V30 4008 H 371.982 0.657913 0.0897025 0
M  V30 4009 H 374.512 2.01493 -0.355201 0
M  V30 4010 H 374.522 3.89716 1.2077 0
M  V30 4011 H 373.197 4.15813 0.0852889 0
M  V30 4012 H 371.774 3.3136 1.71042 0
M  V30 4013 N 373.959 -0.0401083 1.57549 0
M  V30 4014 C 375.37 -0.588097 1.77196 0
M  V30 4015 C 375.721 -1.76209 0.862832 0
M  V30 4016 O 374.846 -2.16331 0.0548389 0
M  V30 4017 C 375.441 -1.07363 3.21339 0
M  V30 4018 C 374 -1.56723 3.42221 0
M  V30 4019 C 373.147 -0.50041 2.72747 0
M  V30 4020 H 376.098 0.186119 1.57605 0
M  V30 4021 H 376.119 -1.94143 3.27244 0
M  V30 4022 H 375.631 -0.218975 3.87482 0
M  V30 4023 H 373.732 -2.4441 2.81237 0
M  V30 4024 H 373.845 -1.62234 4.50796 0
M  V30 4025 H 372.209 -0.952894 2.36203 0
M  V30 4026 H 372.992 0.344599 3.41566 0
M  V30 4027 N 375.437 -1.54477 -0.31217 0
M  V30 4028 C 376.369 -1.81011 -1.40598 0
M  V30 4029 C 377.382 -0.692546 -1.47335 0
M  V30 4030 O 378.571 -0.969847 -1.49854 0
M  V30 4031 C 375.671 -1.92307 -2.79054 0
M  V30 4032 C 374.844 -3.22594 -2.95384 0
M  V30 4033 C 373.903 -3.24448 -4.1427 0
M  V30 4034 O 372.929 -3.98035 -4.06887 0
M  V30 4035 N 374.131 -2.49042 -5.24365 0
M  V30 4036 H 376.896 -2.75408 -1.18196 0
M  V30 4037 H 374.457 -1.53914 -0.502202 0
M  V30 4038 H 376.449 -1.90962 -3.56813 0
M  V30 4039 H 375.019 -1.04955 -2.94454 0
M  V30 4040 H 374.239 -3.36806 -2.04831 0
M  V30 4041 H 375.527 -4.08593 -3.03198 0
M  V30 4042 H 374.925 -1.88867 -5.33241 0
M  V30 4043 H 373.482 -2.53463 -6.005 0
M  V30 4044 N 376.915 0.57481 -1.46744 0
M  V30 4045 C 377.848 1.69827 -1.52427 0
M  V30 4046 C 378.826 1.58151 -0.377744 0
M  V30 4047 O 380.01 1.79257 -0.58303 0
M  V30 4048 C 377.137 3.07943 -1.41027 0
M  V30 4049 C 376.183 3.38116 -2.59961 0
M  V30 4050 S 377.016 3.29313 -4.22272 0
M  V30 4051 C 378.172 4.69953 -4.13394 0
M  V30 4052 H 378.405 1.64748 -2.47478 0
M  V30 4053 H 375.938 0.754203 -1.34726 0
M  V30 4054 H 377.896 3.87619 -1.35137 0
M  V30 4055 H 376.557 3.10504 -0.473909 0
M  V30 4056 H 375.75 4.38762 -2.47999 0
M  V30 4057 H 375.352 2.66024 -2.62882 0
M  V30 4058 H 377.644 5.60517 -3.80562 0
M  V30 4059 H 378.587 4.86972 -5.14066 0
M  V30 4060 H 378.995 4.47174 -3.44522 0
M  V30 4061 N 378.394 1.34581 0.820102 0
M  V30 4062 C 379.634 1.28448 1.58998 0
M  V30 4063 C 379.998 -0.142883 1.91468 0
M  V30 4064 O 381.199 -0.328422 2.66786 0
M  V30 4065 C 379.47 2.153 2.85273 0
M  V30 4066 S 381.029 2.26548 3.75794 0
M  V30 4067 H 377.847 0.456685 0.54494 0
M  V30 4068 H 380.449 1.69825 0.968487 0
M  V30 4069 H 379.153 3.18008 2.59421 0
M  V30 4070 H 378.684 1.7483 3.52417 0
M  V30 4071 H 380.699 1.44034 4.74835 0
M  V30 4072 N 379.872 -1.04064 1.18357 0
M  V30 4073 C 380.782 -2.15569 0.925596 0
M  V30 4074 C 381.798 -1.7365 -0.110295 0
M  V30 4075 O 382.974 -2.01273 0.0716218 0
M  V30 4076 C 380.039 -3.43704 0.454836 0
M  V30 4077 C 379.1 -4.00004 1.55869 0
M  V30 4078 C 378.333 -5.22023 1.1103 0
M  V30 4079 O 378.556 -5.70392 -0.0309756 0
M  V30 4080 O 377.49 -5.70856 1.90805 0
M  V30 4081 H 381.316 -2.40187 1.8586 0
M  V30 4082 H 378.901 -1.1402 0.965394 0
M  V30 4083 H 380.783 -4.20923 0.200382 0
M  V30 4084 H 379.458 -3.20559 -0.449876 0
M  V30 4085 H 378.365 -3.24172 1.86716 0
M  V30 4086 H 379.698 -4.2749 2.43953 0
M  V30 4087 N 381.35 -0.985608 -1.22978 0
M  V30 4088 C 382.3 -0.50118 -2.22423 0
M  V30 4089 C 383.284 0.426649 -1.5514 0
M  V30 4090 O 384.476 0.254656 -1.75159 0
M  V30 4091 C 381.605 0.190003 -3.42774 0
M  V30 4092 C 380.691 -0.757703 -4.17276 0
M  V30 4093 N 381.082 -1.90251 -4.68656 0
M  V30 4094 C 379.38 -0.57209 -4.42316 0
M  V30 4095 C 380.081 -2.49676 -5.25392 0
M  V30 4096 N 379.057 -1.78013 -5.13627 0
M  V30 4097 H 382.859 -1.37441 -2.59783 0
M  V30 4098 H 380.373 -0.846941 -1.38567 0
M  V30 4099 H 382.37 0.55439 -4.13197 0
M  V30 4100 H 381.03 1.05946 -3.06929 0
M  V30 4101 H 382.041 -2.28354 -4.64839 0
M  V30 4102 H 378.718 0.251909 -4.16739 0
M  V30 4103 H 380.108 -3.46384 -5.75732 0
M  V30 4104 N 382.828 1.3818 -0.7579 0
M  V30 4105 C 383.758 2.33027 -0.148597 0
M  V30 4106 C 384.739 1.55085 0.69875 0
M  V30 4107 O 385.924 1.83384 0.639053 0
M  V30 4108 C 383.054 3.3928 0.742034 0
M  V30 4109 C 382.008 4.28 -0.00291946 0
M  V30 4110 C 381.334 5.25146 1.00625 0
M  V30 4111 C 382.634 5.08938 -1.17385 0
M  V30 4112 H 384.328 2.84231 -0.940909 0
M  V30 4113 H 381.874 1.36659 -0.453908 0
M  V30 4114 H 383.827 4.046 1.17799 0
M  V30 4115 H 382.551 2.86569 1.56671 0
M  V30 4116 H 381.21 3.64192 -0.419504 0
M  V30 4117 H 380.858 4.68721 1.8251 0
M  V30 4118 H 380.558 5.85361 0.512428 0
M  V30 4119 H 382.082 5.93342 1.44143 0
M  V30 4120 H 383.496 5.67474 -0.815224 0
M  V30 4121 H 381.893 5.7841 -1.59882 0
M  V30 4122 H 382.963 4.42424 -1.98468 0
M  V30 4123 N 384.306 0.507319 1.49211 0
M  V30 4124 C 385.722 0.163682 1.58758 0
M  V30 4125 C 385.922 -1.33208 1.51188 0
M  V30 4126 O 384.978 -2.10855 1.38911 0
M  V30 4127 C 386.291 0.746095 2.91297 0
M  V30 4128 C 387.839 0.712773 3.04776 0
M  V30 4129 C 388.314 1.27336 4.39943 0
M  V30 4130 N 389.805 1.23433 4.46451 0
M  V30 4131 C 390.54 1.63821 5.495 0
M  V30 4132 N 390.036 2.11832 6.5962 0
M  V30 4133 N 391.829 1.55198 5.4025 0
M  V30 4134 H 383.98 1.47972 1.52375 0
M  V30 4135 H 386.243 0.614147 0.722168 0
M  V30 4136 H 385.949 1.79534 3.02424 0
M  V30 4137 H 385.823 0.210137 3.76614 0
M  V30 4138 H 388.21 -0.327656 2.93275 0
M  V30 4139 H 388.291 1.28595 2.21127 0
M  V30 4140 H 387.935 2.3126 4.52196 0
M  V30 4141 H 387.865 0.676066 5.22242 0
M  V30 4142 H 390.356 0.882627 3.67448 0
M  V30 4143 H 390.669 2.40703 7.34358 0
M  V30 4144 H 389.014 2.1581 6.60644 0
M  V30 4145 H 392.205 1.17505 4.53112 0
M  V30 4146 H 392.378 1.86997 6.20432 0
M  V30 4147 N 385.784 -1.5574 0.241426 0
M  V30 4148 C 387.2 -1.59196 -0.113548 0
M  V30 4149 C 387.4 -1.25852 -1.57364 0
M  V30 4150 O 386.456 -1.00322 -2.31715 0
M  V30 4151 C 387.769 -2.99814 0.230695 0
M  V30 4152 C 389.317 -3.12513 0.174547 0
M  V30 4153 C 389.792 -4.55342 0.492744 0
M  V30 4154 N 391.283 -4.61076 0.443043 0
M  V30 4155 C 392.018 -5.6956 0.662484 0
M  V30 4156 N 391.514 -6.86328 0.944761 0
M  V30 4157 N 393.307 -5.58957 0.593564 0
M  V30 4158 H 385.458 -1.75685 1.19368 0
M  V30 4159 H 387.721 -0.81756 0.479896 0
M  V30 4160 H 387.427 -3.28932 1.24485 0
M  V30 4161 H 387.301 -3.74568 -0.444833 0
M  V30 4162 H 389.688 -2.83179 -0.830277 0
M  V30 4163 H 389.769 -2.40045 0.883845 0
M  V30 4164 H 389.413 -4.85396 1.4951 0
M  V30 4165 H 389.343 -5.26062 -0.23797 0
M  V30 4166 H 391.834 -3.77179 0.233374 0
M  V30 4167 H 392.147 -7.64935 1.09977 0
M  V30 4168 H 390.492 -6.88025 0.982175 0
M  V30 4169 H 393.683 -4.66611 0.373123 0
M  V30 4170 H 393.856 -6.43433 0.767981 0
M  V30 4171 N 387.262 0.0317525 -1.57568 0
M  V30 4172 C 388.492 0.733884 -1.93126 0
M  V30 4173 C 388.9 1.69563 -0.839352 0
M  V30 4174 O 388.243 1.82681 0.193175 0
M  V30 4175 C 388.305 1.54798 -3.24465 0
M  V30 4176 C 387.969 0.751304 -4.50782 0
M  V30 4177 C 388.966 0.0527632 -5.19873 0
M  V30 4178 C 386.651 0.706639 -4.97305 0
M  V30 4179 C 388.645 -0.679774 -6.33765 0
M  V30 4180 C 386.332 -0.0296449 -6.11093 0
M  V30 4181 C 387.33 -0.721614 -6.79177 0
M  V30 4182 O 387.018 -1.44595 -7.90789 0
M  V30 4183 H 386.75 0.211459 -0.642076 0
M  V30 4184 H 389.304 -0.00585615 -2.05399 0
M  V30 4185 H 387.534 2.33147 -3.08512 0
M  V30 4186 H 389.223 2.13247 -3.4537 0
M  V30 4187 H 389.989 0.0783188 -4.84937 0
M  V30 4188 H 385.868 1.23474 -4.44157 0
M  V30 4189 H 389.412 -1.22042 -6.86842 0
M  V30 4190 H 385.309 -0.0571331 -6.45475 0
M  V30 4191 H 386.077 -1.35935 -8.07133 0
M  V30 4192 N 388.74 1.54641 0.303973 0
M  V30 4193 C 389.688 1.86137 1.39484 0
M  V30 4194 C 390.682 0.734854 1.52631 0
M  V30 4195 O 391.888 0.918803 1.54784 0
M  V30 4196 H 388.263 0.590324 0.465856 0
M  V30 4197 H 390.234 2.77324 1.10154 0
M  V30 4198 C 388.983 2.12274 2.75382 0
M  V30 4199 H 388.306 2.98429 2.66046 0
M  V30 4200 H 389.746 2.38254 3.5073 0
M  V30 4201 C 388.205 0.920365 3.24085 0
M  V30 4202 O 388.735 0.139377 4.01458 0
M  V30 4203 N 386.941 0.726566 2.81371 0
M  V30 4204 H 386.488 1.36332 2.18567 0
M  V30 4205 H 386.446 -0.0763799 3.14307 0
M  V30 4206 N 390.218 -0.567019 1.47046 0
M  V30 4207 C 391.467 -1.32091 1.5243 0
M  V30 4208 C 391.78 -1.94704 0.187021 0
M  V30 4209 O 392.986 -2.7124 0.118771 0
M  V30 4210 C 391.442 -2.39479 2.68659 0
M  V30 4211 C 391.05 -1.831 4.08874 0
M  V30 4212 C 392.794 -3.16111 2.83327 0
M  V30 4213 C 390.701 -2.8821 5.16419 0
M  V30 4214 H 389.631 -0.496629 0.56734 0
M  V30 4215 H 392.282 -0.603354 1.73297 0
M  V30 4216 H 390.664 -3.14105 2.41152 0
M  V30 4217 H 391.838 -1.14913 4.46242 0
M  V30 4218 H 390.153 -1.19085 3.99008 0
M  V30 4219 H 392.75 -3.94585 3.60842 0
M  V30 4220 H 393.093 -3.69686 1.91411 0
M  V30 4221 H 393.626 -2.48595 3.10556 0
M  V30 4222 H 390.365 -2.39504 6.10179 0
M  V30 4223 H 389.885 -3.54839 4.8358 0
M  V30 4224 H 391.564 -3.51881 5.42945 0
M  V30 4225 N 391.696 -1.35014 -0.812953 0
M  V30 4226 C 392.945 -1.27269 -1.56479 0
M  V30 4227 C 393.258 0.152771 -1.95002 0
M  V30 4228 O 394.464 0.352451 -2.69203 0
M  V30 4229 C 392.92 -2.23159 -2.82362 0
M  V30 4230 C 392.528 -3.71016 -2.511 0
M  V30 4231 C 394.272 -2.24342 -3.60376 0
M  V30 4232 C 392.179 -4.58746 -3.73237 0
M  V30 4233 H 391.109 -0.472829 -0.587324 0
M  V30 4234 H 393.76 -1.6024 -0.894171 0
M  V30 4235 H 392.142 -1.83151 -3.51101 0
M  V30 4236 H 393.316 -4.1962 -1.90409 0
M  V30 4237 H 391.631 -3.72378 -1.86343 0
M  V30 4238 H 394.228 -2.87107 -4.51081 0
M  V30 4239 H 394.571 -1.24542 -3.97234 0
M  V30 4240 H 395.104 -2.62846 -2.98591 0
M  V30 4241 H 391.843 -5.59521 -3.41492 0
M  V30 4242 H 391.363 -4.14871 -4.33176 0
M  V30 4243 H 393.042 -4.73852 -4.40537 0
M  V30 4244 N 393.175 1.03435 -1.18907 0
M  V30 4245 C 394.586 1.58195 -0.991523 0
M  V30 4246 C 394.937 1.90801 0.457081 0
M  V30 4247 O 394.062 1.70272 1.33553 0
M  V30 4248 C 394.657 2.87432 -1.79355 0
M  V30 4249 C 393.216 3.38785 -1.64017 0
M  V30 4250 C 392.363 2.12292 -1.78402 0
M  V30 4251 H 395.314 0.860299 -1.33359 0
M  V30 4252 H 395.335 3.58096 -1.28638 0
M  V30 4253 H 394.847 2.63669 -2.84781 0
M  V30 4254 H 392.948 3.67547 -0.611536 0
M  V30 4255 H 393.061 4.12186 -2.44212 0
M  V30 4256 H 391.425 2.23901 -1.2141 0
M  V30 4257 H 392.208 1.90977 -2.85277 0
M  V30 4258 N 394.653 0.992116 1.22453 0
M  V30 4259 C 395.899 0.668523 1.91464 0
M  V30 4260 C 396.232 -0.797313 1.77078 0
M  V30 4261 O 395.507 -1.5765 1.13916 0
M  V30 4262 C 395.79 1.07424 3.43703 0
M  V30 4263 C 395.643 2.59857 3.67143 0
M  V30 4264 C 396.962 0.626891 4.35612 0
M  V30 4265 H 394.081 0.244341 0.695318 0
M  V30 4266 H 396.723 1.2355 1.44345 0
M  V30 4267 H 394.873 0.591816 3.83966 0
M  V30 4268 H 396.545 3.15764 3.3629 0
M  V30 4269 H 394.788 3.01961 3.11451 0
M  V30 4270 H 395.459 2.83296 4.73759 0
M  V30 4271 H 397.935 1.04125 4.02861 0
M  V30 4272 H 396.811 0.939076 5.40807 0
M  V30 4273 H 397.072 -0.472457 4.39568 0
M  V30 4274 N 396.131 -1.37776 0.765217 0
M  V30 4275 C 397.061 -2.32945 0.160953 0
M  V30 4276 C 398.042 -1.55454 -0.690516 0
M  V30 4277 O 399.227 -1.83721 -0.629318 0
M  V30 4278 C 396.357 -3.39669 -0.724031 0
M  V30 4279 C 395.311 -4.27992 0.0256173 0
M  V30 4280 C 394.637 -5.25673 -0.978383 0
M  V30 4281 C 395.937 -5.08309 1.20082 0
M  V30 4282 H 397.631 -2.83728 0.955969 0
M  V30 4283 H 395.177 -1.36416 0.461149 0
M  V30 4284 H 397.13 -4.05219 -1.15652 0
M  V30 4285 H 395.854 -2.87396 -1.5515 0
M  V30 4286 H 394.513 -3.63964 0.438812 0
M  V30 4287 H 394.161 -4.69682 -1.80022 0
M  V30 4288 H 393.861 -5.85625 -0.481378 0
M  V30 4289 H 395.385 -5.94098 -1.40995 0
M  V30 4290 H 396.799 -5.67034 0.845307 0
M  V30 4291 H 395.196 -5.77554 1.62947 0
M  V30 4292 H 396.266 -4.41365 2.00811 0
M  V30 4293 N 397.609 -0.515225 -1.4894 0
M  V30 4294 C 398.834 0.022727 -2.07388 0
M  V30 4295 C 399.259 1.2876 -1.37122 0
M  V30 4296 O 398.617 1.76067 -0.432431 0
M  V30 4297 C 398.665 0.244869 -3.59768 0
M  V30 4298 O 397.769 1.31667 -3.90817 0
M  V30 4299 H 397.11 -0.0325506 -0.663202 0
M  V30 4300 H 399.64 -0.718918 -1.91553 0
M  V30 4301 H 399.65 0.47205 -4.0526 0
M  V30 4302 H 398.325 -0.679194 -4.10317 0
M  V30 4303 H 396.902 1.07331 -3.5712 0
M  V30 4304 N 399.087 1.5561 -0.249682 0
M  V30 4305 C 400.364 1.90932 0.424761 0
M  V30 4306 C 400.744 1.17078 1.75658 0
M  V30 4307 O 400.092 0.289176 2.26663 0
M  V30 4308 C 400.302 3.43975 0.590109 0
M  V30 4309 C 401.65 4.15281 0.884714 0
M  V30 4310 O 402.674 3.49729 0.67587 0
M  V30 4311 O 401.533 5.31236 1.28259 0
M  V30 4312 H 398.627 0.794815 0.228468 0
M  V30 4313 H 401.173 1.67135 -0.293954 0
M  V30 4314 H 399.945 3.89748 -0.34818 0
M  V30 4315 H 399.568 3.73644 1.35926 0
M  V30 4316 N 400.565 -0.0233959 1.57583 0
M  V30 4317 C 401.814 -0.712133 1.8871 0
M  V30 4318 C 402.127 -1.76217 0.848944 0
M  V30 4319 O 403.333 -2.50389 1.04964 0
M  V30 4320 C 401.789 -1.3177 3.3491 0
M  V30 4321 C 401.397 -0.303715 4.46969 0
M  V30 4322 C 403.141 -1.98598 3.75179 0
M  V30 4323 C 401.048 -0.917945 5.84233 0
M  V30 4324 H 399.978 -0.269735 0.704101 0
M  V30 4325 H 402.629 0.0333114 1.8347 0
M  V30 4326 H 401.011 -2.11304 3.34913 0
M  V30 4327 H 402.185 0.465325 4.58445 0
M  V30 4328 H 400.5 0.2628 4.1557 0
M  V30 4329 H 403.097 -2.45416 4.75053 0
M  V30 4330 H 403.44 -2.80659 3.07468 0
M  V30 4331 H 403.973 -1.25831 3.77374 0
M  V30 4332 H 400.712 -0.136633 6.55358 0
M  V30 4333 H 400.232 -1.65669 5.76467 0
M  V30 4334 H 401.911 -1.4236 6.31144 0
M  V30 4335 N 402.043 -1.548 -0.295768 0
M  V30 4336 C 402.973 -1.89115 -1.36959 0
M  V30 4337 C 403.954 -0.75059 -1.52644 0
M  V30 4338 O 405.139 -1.00678 -1.66065 0
M  V30 4339 C 402.269 -2.14307 -2.73295 0
M  V30 4340 C 401.223 -3.30151 -2.72368 0
M  V30 4341 C 400.549 -3.40772 -4.12042 0
M  V30 4342 C 401.849 -4.67126 -2.33646 0
M  V30 4343 H 403.543 -2.79053 -1.08488 0
M  V30 4344 H 401.089 -1.34266 -0.520443 0
M  V30 4345 H 403.042 -2.36898 -3.48507 0
M  V30 4346 H 401.766 -1.21145 -3.03301 0
M  V30 4347 H 400.425 -3.0749 -1.99613 0
M  V30 4348 H 400.073 -2.45117 -4.39234 0
M  V30 4349 H 399.773 -4.18645 -4.12322 0
M  V30 4350 H 401.297 -3.6563 -4.89027 0
M  V30 4351 H 402.711 -4.89414 -2.98575 0
M  V30 4352 H 401.108 -5.47751 -2.45129 0
M  V30 4353 H 402.178 -4.67489 -1.28772 0
M  V30 4354 N 403.521 0.559213 -1.47345 0
M  V30 4355 C 404.453 1.68161 -1.55738 0
M  V30 4356 C 405.466 1.56636 -0.443744 0
M  V30 4357 O 406.655 1.6363 -0.713258 0
M  V30 4358 C 403.755 3.06611 -1.4437 0
M  V30 4359 C 402.928 3.4391 -2.70268 0
M  V30 4360 C 401.987 4.61515 -2.52765 0
M  V30 4361 O 401.013 4.66197 -3.26572 0
M  V30 4362 N 402.215 5.57883 -1.6046 0
M  V30 4363 H 404.98 1.61408 -2.52522 0
M  V30 4364 H 402.541 0.7458 -1.43699 0
M  V30 4365 H 404.533 3.83117 -1.30398 0
M  V30 4366 H 403.103 3.07602 -0.556766 0
M  V30 4367 H 402.323 2.56873 -2.99015 0
M  V30 4368 H 403.611 3.65605 -3.53851 0
M  V30 4369 H 403.009 5.56855 -0.996422 0
M  V30 4370 H 401.566 6.33723 -1.52441 0
M  V30 4371 N 404.999 1.35443 0.805782 0
M  V30 4372 C 405.909 1.30546 1.94923 0
M  V30 4373 C 406.925 0.210233 1.72725 0
M  V30 4374 O 408.101 0.43975 1.9654 0
M  V30 4375 C 405.166 1.07782 3.29521 0
M  V30 4376 C 404.227 2.26625 3.64609 0
M  V30 4377 C 403.46 2.04938 4.92784 0
M  V30 4378 O 403.683 1.01624 5.61274 0
M  V30 4379 O 402.617 2.9232 5.26149 0
M  V30 4380 H 406.443 2.26779 2.02002 0
M  V30 4381 H 404.028 1.15823 0.943682 0
M  V30 4382 H 405.91 0.969392 4.10098 0
M  V30 4383 H 404.585 0.146003 3.23371 0
M  V30 4384 H 403.492 2.43033 2.84404 0
M  V30 4385 H 404.825 3.18257 3.75464 0
M  V30 4386 N 406.477 -1.02803 1.19454 0
M  V30 4387 C 407.702 -1.80378 1.02364 0
M  V30 4388 C 408.127 -1.83282 -0.423007 0
M  V30 4389 O 407.485 -1.25945 -1.30413 0
M  V30 4390 C 407.533 -3.23248 1.59821 0
M  V30 4391 O 406.637 -4.04 0.828105 0
M  V30 4392 H 405.978 -0.556799 0.361761 0
M  V30 4393 H 408.508 -1.29385 1.58495 0
M  V30 4394 H 408.518 -3.73994 1.63073 0
M  V30 4395 H 407.193 -3.2045 2.65113 0
M  V30 4396 H 405.77 -3.62635 0.86891 0
M  V30 4397 N 407.956 -0.998596 -1.21925 0
M  V30 4398 C 409.202 -0.678667 -1.91107 0
M  V30 4399 C 409.535 0.78791 -1.77498 0
M  V30 4400 O 408.81 1.57043 -1.1475 0
M  V30 4401 C 409.093 -1.09245 -3.43129 0
M  V30 4402 C 408.946 -2.61801 -3.6576 0
M  V30 4403 C 410.265 -0.649984 -4.35274 0
M  V30 4404 H 407.384 -0.248025 -0.694012 0
M  V30 4405 H 410.026 -1.24314 -1.43688 0
M  V30 4406 H 408.176 -0.612171 -3.83647 0
M  V30 4407 H 409.848 -3.17543 -3.34611 0
M  V30 4408 H 408.091 -3.03609 -3.09845 0
M  V30 4409 H 408.762 -2.85804 -4.7225 0
M  V30 4410 H 411.238 -1.0626 -4.02303 0
M  V30 4411 H 410.114 -0.967743 -5.40302 0
M  V30 4412 H 410.375 0.449139 -4.39813 0
M  V30 4413 N 409.434 1.37368 -0.772513 0
M  V30 4414 C 410.381 2.30262 -0.157488 0
M  V30 4415 C 411.351 1.51137 0.688965 0
M  V30 4416 O 412.536 1.79704 0.641168 0
M  V30 4417 C 409.676 3.37611 0.715045 0
M  V30 4418 C 408.789 4.31746 -0.148098 0
M  V30 4419 C 407.924 5.26171 0.729213 0
M  V30 4420 C 406.963 6.11948 -0.136418 0
M  V30 4421 N 406.1 6.98613 0.698914 0
M  V30 4422 H 410.94 2.82277 -0.955179 0
M  V30 4423 H 408.477 1.38957 -0.482631 0
M  V30 4424 H 410.435 3.98479 1.23575 0
M  V30 4425 H 409.065 2.86959 1.47833 0
M  V30 4426 H 408.117 3.72178 -0.786613 0
M  V30 4427 H 409.429 4.92084 -0.81579 0
M  V30 4428 H 408.583 5.92247 1.31637 0
M  V30 4429 H 407.322 4.66246 1.43059 0
M  V30 4430 H 406.327 5.4485 -0.736102 0
M  V30 4431 H 407.552 6.73945 -0.835134 0
M  V30 4432 H 405.498 6.41215 1.38489 0
M  V30 4433 H 405.415 7.55948 0.0885358 0
M  V30 4434 H 406.683 7.69077 1.27044 0
M  V30 4435 N 410.912 0.523116 1.48665 0
M  V30 4436 C 411.822 -0.247406 2.33292 0
M  V30 4437 C 412.838 -0.945769 1.46052 0
M  V30 4438 O 414.014 -0.922253 1.79043 0
M  V30 4439 C 411.079 -1.28487 3.22012 0
M  V30 4440 C 410.14 -0.597592 4.2512 0
M  V30 4441 C 409.373 -1.58563 5.09601 0
M  V30 4442 O 409.596 -2.81763 4.95949 0
M  V30 4443 O 408.53 -1.12879 5.91221 0
M  V30 4444 H 412.356 0.445869 3.00409 0
M  V30 4445 H 409.941 0.284128 1.46673 0
M  V30 4446 H 411.823 -1.88459 3.7691 0
M  V30 4447 H 410.498 -1.96068 2.57564 0
M  V30 4448 H 409.405 0.0424407 3.74076 0
M  V30 4449 H 410.738 0.0361517 4.92187 0
M  V30 4450 N 412.39 -1.55475 0.257931 0
M  V30 4451 C 413.337 -2.21837 -0.636939 0
M  V30 4452 C 414.307 -1.18596 -1.16294 0
M  V30 4453 O 415.492 -1.47081 -1.21539 0
M  V30 4454 C 412.632 -2.9301 -1.82317 0
M  V30 4455 C 411.745 -4.10931 -1.33265 0
M  V30 4456 C 410.88 -4.69791 -2.47931 0
M  V30 4457 C 409.919 -5.7994 -1.95796 0
M  V30 4458 N 409.056 -6.32935 -3.0387 0
M  V30 4459 H 413.896 -2.9793 -0.0643591 0
M  V30 4460 H 411.433 -1.47086 -0.0200031 0
M  V30 4461 H 413.391 -3.3248 -2.52018 0
M  V30 4462 H 412.021 -2.1937 -2.36805 0
M  V30 4463 H 411.073 -3.76699 -0.52931 0
M  V30 4464 H 412.385 -4.90417 -0.910654 0
M  V30 4465 H 411.539 -5.11892 -3.25656 0
M  V30 4466 H 410.278 -3.89545 -2.93438 0
M  V30 4467 H 409.283 -5.37305 -1.16546 0
M  V30 4468 H 410.508 -6.62043 -1.51246 0
M  V30 4469 H 408.454 -5.55591 -3.48791 0
M  V30 4470 H 408.371 -7.07645 -2.66035 0
M  V30 4471 H 409.639 -6.79695 -3.81621 0
M  V30 4472 N 413.868 0.0150385 -1.57593 0
M  V30 4473 C 415.114 0.704043 -1.90187 0
M  V30 4474 C 415.447 1.74249 -0.857366 0
M  V30 4475 O 414.722 1.94092 0.125843 0
M  V30 4476 C 415.005 1.36087 -3.33395 0
M  V30 4477 C 414.858 0.334981 -4.48551 0
M  V30 4478 C 416.177 2.29112 -3.7576 0
M  V30 4479 H 413.296 0.254475 -0.691673 0
M  V30 4480 H 415.938 -0.0331678 -1.89971 0
M  V30 4481 H 414.088 1.98922 -3.3371 0
M  V30 4482 H 415.76 -0.292534 -4.60372 0
M  V30 4483 H 414.003 -0.344325 -4.32431 0
M  V30 4484 H 414.674 0.833316 -5.45674 0
M  V30 4485 H 417.15 1.76308 -3.76902 0
M  V30 4486 H 416.026 2.72043 -4.76743 0
M  V30 4487 H 416.287 3.16385 -3.08793 0
M  V30 4488 N 415.346 1.54954 0.287554 0
M  V30 4489 C 416.574 1.78881 1.03967 0
M  V30 4490 C 416.989 0.554894 1.80462 0
M  V30 4491 O 416.346 -0.475676 1.76192 0
M  V30 4492 C 416.397 3.00488 2.0097 0
M  V30 4493 O 416.118 4.19113 1.27577 0
M  V30 4494 C 417.619 3.36907 2.88112 0
M  V30 4495 H 414.839 0.596259 0.307761 0
M  V30 4496 H 417.383 2.01937 0.322749 0
M  V30 4497 H 415.538 2.79601 2.68145 0
M  V30 4498 H 415.952 4.87765 1.92835 0
M  V30 4499 H 417.426 4.25205 3.52001 0
M  V30 4500 H 417.903 2.55659 3.57121 0
M  V30 4501 H 418.509 3.60001 2.26449 0
M  V30 4502 N 416.824 -0.551391 1.4764 0
M  V30 4503 C 418.24 -0.877887 1.33287 0
M  V30 4504 C 418.44 -1.98817 0.327721 0
M  V30 4505 O 417.496 -2.51171 -0.258695 0
M  V30 4506 C 418.809 -1.26563 2.72768 0
M  V30 4507 C 420.357 -1.37673 2.81097 0
M  V30 4508 C 420.832 -1.79799 4.21232 0
M  V30 4509 N 422.323 -1.8694 4.23802 0
M  V30 4510 C 423.058 -2.20876 5.29151 0
M  V30 4511 N 422.554 -2.53386 6.448 0
M  V30 4512 N 424.347 -2.217 5.16532 0
M  V30 4513 H 416.498 0.18153 2.11623 0
M  V30 4514 H 418.761 0.0185514 0.947818 0
M  V30 4515 H 418.467 -0.523591 3.47781 0
M  V30 4516 H 418.341 -2.22052 3.04915 0
M  V30 4517 H 420.728 -2.10956 2.06353 0
M  V30 4518 H 420.809 -0.40357 2.52596 0
M  V30 4519 H 420.453 -1.07083 4.96483 0
M  V30 4520 H 420.383 -2.78128 4.4716 0
M  V30 4521 H 422.874 -1.64179 3.40373 0
M  V30 4522 H 423.187 -2.78325 7.20941 0
M  V30 4523 H 421.532 -2.50953 6.48111 0
M  V30 4524 H 424.723 -1.95745 4.25207 0
M  V30 4525 H 424.896 -2.47818 5.98741 0
M  V30 4526 N 418.302 -1.35869 -0.798587 0
M  V30 4527 C 419.551 -1.28921 -1.5512 0
M  V30 4528 C 419.864 0.13208 -1.95154 0
M  V30 4529 O 421.07 0.323879 -2.69561 0
M  V30 4530 C 419.526 -2.26141 -2.79979 0
M  V30 4531 C 419.134 -3.73658 -2.47151 0
M  V30 4532 C 420.878 -2.28152 -3.57976 0
M  V30 4533 C 418.785 -4.62679 -3.6835 0
M  V30 4534 H 417.715 -0.479031 -0.582276 0
M  V30 4535 H 420.366 -1.61179 -0.877125 0
M  V30 4536 H 418.748 -1.86865 -3.49138 0
M  V30 4537 H 419.922 -4.21616 -1.85947 0
M  V30 4538 H 418.237 -3.74333 -1.82383 0
M  V30 4539 H 420.834 -2.91875 -4.4801 0
M  V30 4540 H 421.177 -1.28748 -3.95891 0
M  V30 4541 H 421.71 -2.65998 -2.95787 0
M  V30 4542 H 418.449 -5.63111 -3.35538 0
M  V30 4543 H 417.969 -4.19442 -4.28752 0
M  V30 4544 H 419.648 -4.78498 -4.35487 0
M  V30 4545 N 419.78 1.02168 -1.19998 0
M  V30 4546 C 421.029 1.75091 -1.0013 0
M  V30 4547 C 421.342 1.89923 0.467835 0
M  V30 4548 O 422.548 2.59888 0.785515 0
M  V30 4549 C 421.004 3.14892 -1.74273 0
M  V30 4550 C 420.612 3.0809 -3.25245 0
M  V30 4551 C 422.356 3.9206 -1.62755 0
M  V30 4552 C 420.263 4.42867 -3.91948 0
M  V30 4553 H 419.193 0.656394 -0.37103 0
M  V30 4554 H 421.844 1.14284 -1.43567 0
M  V30 4555 H 420.226 3.7621 -1.2362 0
M  V30 4556 H 421.4 2.5611 -3.83072 0
M  V30 4557 H 419.715 2.44416 -3.3712 0
M  V30 4558 H 422.312 4.91764 -2.09934 0
M  V30 4559 H 422.655 4.12199 -0.582894 0
M  V30 4560 H 423.188 3.37359 -2.10793 0
M  V30 4561 H 419.927 4.27931 -4.96543 0
M  V30 4562 H 419.447 4.94874 -3.3891 0
M  V30 4563 H 421.126 5.11728 -3.95909 0
M  V30 4564 N 421.258 1.00505 1.21394 0
M  V30 4565 C 422.188 0.585684 2.26035 0
M  V30 4566 C 423.169 -0.393525 1.65485 0
M  V30 4567 O 424.354 -0.281497 1.92149 0
M  V30 4568 C 421.484 -0.0884283 3.47187 0
M  V30 4569 C 420.438 0.810567 4.20254 0
M  V30 4570 C 419.764 0.00286382 5.347 0
M  V30 4571 C 421.064 2.1132 4.77641 0
M  V30 4572 H 422.758 1.46039 2.61368 0
M  V30 4573 H 420.304 0.703648 1.25638 0
M  V30 4574 H 422.257 -0.393286 4.19561 0
M  V30 4575 H 420.981 -0.997766 3.10986 0
M  V30 4576 H 419.64 1.09925 3.49731 0
M  V30 4577 H 419.288 -0.907765 4.94741 0
M  V30 4578 H 418.988 0.601444 5.84514 0
M  V30 4579 H 420.512 -0.295808 6.09883 0
M  V30 4580 H 421.926 1.87148 5.41893 0
M  V30 4581 H 420.323 2.66164 5.37845 0
M  V30 4582 H 421.393 2.78393 3.9702 0
M  V30 4583 N 422.737 -1.36956 0.779787 0
M  V30 4584 C 423.7 -2.2851 0.177662 0
M  V30 4585 C 424.7 -1.48393 -0.619377 0
M  V30 4586 O 425.89 -1.68505 -0.441785 0
M  V30 4587 C 423.022 -3.32428 -0.755279 0
M  V30 4588 H 424.215 -2.83269 0.984823 0
M  V30 4589 H 421.768 -1.46358 0.548544 0
M  V30 4590 H 422.503 -2.82808 -1.58714 0
M  V30 4591 H 422.288 -3.91659 -0.185817 0
M  V30 4592 H 423.778 -4.00824 -1.17174 0
M  V30 4593 N 424.215 -0.530993 -1.48385 0
M  V30 4594 C 425.178 0.220497 -2.28137 0
M  V30 4595 C 426.178 0.866851 -1.35434 0
M  V30 4596 O 427.368 0.726746 -1.58316 0
M  V30 4597 C 424.5 1.31921 -3.1434 0
M  V30 4598 H 425.693 -0.479714 -2.96038 0
M  V30 4599 H 423.246 -0.286968 -1.53643 0
M  V30 4600 H 423.981 2.05264 -2.51072 0
M  V30 4601 H 423.766 0.86085 -3.82533 0
M  V30 4602 H 425.256 1.84776 -3.74497 0
M  V30 4603 N 425.693 1.55336 -0.266172 0
M  V30 4604 C 426.94 1.99397 0.353158 0
M  V30 4605 C 427.268 1.15451 1.56529 0
M  V30 4606 O 426.523 0.209974 1.9457 0
M  V30 4607 C 426.822 3.48606 0.787957 0
M  V30 4608 C 426.488 4.49773 -0.318541 0
M  V30 4609 C 425.15 4.77158 -0.62239 0
M  V30 4610 C 427.502 5.10212 -1.06459 0
M  V30 4611 C 424.83 5.62251 -1.67602 0
M  V30 4612 C 427.182 5.96449 -2.10788 0
M  V30 4613 C 425.846 6.22158 -2.41817 0
M  V30 4614 H 425.116 0.729644 0.12923 0
M  V30 4615 H 427.763 1.87732 -0.37802 0
M  V30 4616 H 426.068 3.57701 1.59866 0
M  V30 4617 H 427.765 3.80098 1.27775 0
M  V30 4618 H 424.355 4.2854 -0.0715925 0
M  V30 4619 H 428.539 4.89086 -0.843098 0
M  V30 4620 H 423.795 5.80419 -1.92155 0
M  V30 4621 H 427.969 6.42317 -2.69076 0
M  V30 4622 H 425.596 6.87888 -3.23596 0
M  V30 4623 N 427.171 -0.0066808 1.57599 0
M  V30 4624 C 428.587 -0.36267 1.55425 0
M  V30 4625 C 428.787 -1.75209 0.995187 0
M  V30 4626 O 427.843 -2.44616 0.626058 0
M  V30 4627 C 429.156 -0.244017 2.99708 0
M  V30 4628 C 430.704 -0.319451 3.11366 0
M  V30 4629 C 431.179 -0.229998 4.57422 0
M  V30 4630 N 432.67 -0.288105 4.62303 0
M  V30 4631 C 433.405 -0.242127 5.72889 0
M  V30 4632 N 432.901 -0.147133 6.92644 0
M  V30 4633 N 434.694 -0.293502 5.61333 0
M  V30 4634 H 426.845 0.902314 1.92281 0
M  V30 4635 H 429.108 0.34525 0.882896 0
M  V30 4636 H 428.814 0.711678 3.44424 0
M  V30 4637 H 428.688 -1.02877 3.629 0
M  V30 4638 H 431.075 -1.26559 2.66584 0
M  V30 4639 H 431.156 0.495055 2.50964 0
M  V30 4640 H 430.8 0.712566 5.02877 0
M  V30 4641 H 430.73 -1.0629 5.15761 0
M  V30 4642 H 433.221 -0.363126 3.76151 0
M  V30 4643 H 433.534 -0.117763 7.7271 0
M  V30 4644 H 431.879 -0.112857 6.94908 0
M  V30 4645 H 435.07 -0.365864 4.66668 0
M  V30 4646 H 435.243 -0.254204 6.47501 0
M  V30 4647 N 428.649 -1.55105 -0.279332 0
M  V30 4648 C 429.597 -1.88333 -1.36505 0
M  V30 4649 C 430.591 -0.759043 -1.51443 0
M  V30 4650 O 431.797 -0.943312 -1.53302 0
M  V30 4651 H 428.172 -0.59766 -0.456406 0
M  V30 4652 H 430.143 -2.79041 -1.05728 0
M  V30 4653 C 428.892 -2.16628 -2.7197 0
M  V30 4654 H 428.215 -3.02624 -2.61264 0
M  V30 4655 H 429.655 -2.43803 -3.46895 0
M  V30 4656 C 428.114 -0.971807 -3.22579 0
M  V30 4657 O 428.644 -0.203228 -4.01186 0
M  V30 4658 N 426.85 -0.771238 -2.80179 0
M  V30 4659 H 426.397 -1.39792 -2.1637 0
M  V30 4660 H 426.355 0.0263667 -3.14389 0
M  V30 4661 N 430.127 0.543554 -1.4793 0
M  V30 4662 C 431.374 1.30008 -1.55255 0
M  V30 4663 C 431.702 1.93245 -0.220612 0
M  V30 4664 O 430.957 1.79141 0.787843 0
M  V30 4665 C 431.256 2.42078 -2.62932 0
M  V30 4666 C 430.922 1.96583 -4.0579 0
M  V30 4667 C 429.584 1.83893 -4.44676 0
M  V30 4668 C 431.936 1.62034 -4.95373 0
M  V30 4669 C 429.264 1.34969 -5.70964 0
M  V30 4670 C 431.616 1.14577 -6.22137 0
M  V30 4671 C 430.28 1.00493 -6.59892 0
M  V30 4672 H 429.55 0.475735 -0.568117 0
M  V30 4673 H 432.197 0.608075 -1.81589 0
M  V30 4674 H 430.502 3.16892 -2.30406 0
M  V30 4675 H 432.199 3.00236 -2.65818 0
M  V30 4676 H 428.789 2.07407 -3.75074 0
M  V30 4677 H 432.973 1.70705 -4.66019 0
M  V30 4678 H 428.229 1.2274 -5.98953 0
M  V30 4679 H 432.403 0.869109 -6.90955 0
M  V30 4680 H 430.03 0.623624 -7.57638 0
M  V30 4681 N 431.605 1.3629 0.791371 0
M  V30 4682 C 432.535 1.33137 1.91825 0
M  V30 4683 C 433.516 0.203168 1.68882 0
M  V30 4684 O 434.701 0.400509 1.90025 0
M  V30 4685 C 431.831 1.11793 3.28816 0
M  V30 4686 C 430.785 2.21417 3.66277 0
M  V30 4687 C 430.111 1.85218 5.01596 0
M  V30 4688 C 431.411 3.63489 3.75064 0
M  V30 4689 H 433.105 2.2743 1.9472 0
M  V30 4690 H 430.651 1.09479 0.935437 0
M  V30 4691 H 432.604 1.08222 4.07266 0
M  V30 4692 H 431.328 0.139501 3.26302 0
M  V30 4693 H 429.987 2.2411 2.90121 0
M  V30 4694 H 429.635 0.859544 4.95602 0
M  V30 4695 H 429.335 2.58611 5.27631 0
M  V30 4696 H 430.859 1.832 5.82469 0
M  V30 4697 H 432.273 3.63034 4.43711 0
M  V30 4698 H 430.67 4.35771 4.12582 0
M  V30 4699 H 431.74 3.98536 2.76219 0
M  V30 4700 N 433.083 -1.0153 1.20538 0
M  V30 4701 C 433.993 -2.13557 0.971113 0
M  V30 4702 C 435.009 -1.73845 -0.0734366 0
M  V30 4703 O 436.185 -2.01075 0.114299 0
M  V30 4704 C 433.25 -3.42661 0.527639 0
M  V30 4705 C 432.311 -3.96608 1.64319 0
M  V30 4706 C 431.544 -5.1955 1.22078 0
M  V30 4707 O 431.767 -5.70329 0.0900198 0
M  V30 4708 O 430.701 -5.66681 2.02871 0
M  V30 4709 H 434.527 -2.3619 1.90913 0
M  V30 4710 H 432.112 -1.11946 0.989362 0
M  V30 4711 H 433.994 -4.20404 0.289621 0
M  V30 4712 H 432.669 -3.21441 -0.381779 0
M  V30 4713 H 431.576 -3.20139 1.93551 0
M  V30 4714 H 432.909 -4.22219 2.52966 0
M  V30 4715 N 434.561 -1.01147 -1.20859 0
M  V30 4716 C 435.508 -0.577354 -2.23462 0
M  V30 4717 C 436.478 0.399922 -1.61214 0
M  V30 4718 O 437.663 0.300515 -1.88419 0
M  V30 4719 C 434.803 0.083372 -3.44999 0
M  V30 4720 C 433.916 -0.937856 -4.21697 0
M  V30 4721 C 433.051 -0.248717 -5.30617 0
M  V30 4722 C 432.09 -1.25705 -5.99053 0
M  V30 4723 N 431.227 -0.594939 -6.99575 0
M  V30 4724 H 436.067 -1.45695 -2.59956 0
M  V30 4725 H 433.604 -0.729428 -1.27741 0
M  V30 4726 H 435.562 0.483535 -4.14388 0
M  V30 4727 H 434.192 0.926645 -3.09214 0
M  V30 4728 H 433.244 -1.45622 -3.51423 0
M  V30 4729 H 434.556 -1.70493 -4.68757 0
M  V30 4730 H 433.71 0.207215 -6.06346 0
M  V30 4731 H 432.449 0.55071 -4.84581 0
M  V30 4732 H 431.454 -1.72343 -5.2209 0
M  V30 4733 H 432.679 -2.05767 -6.47176 0
M  V30 4734 H 430.625 0.184713 -6.5574 0
M  V30 4735 H 430.542 -1.30017 -7.44736 0
M  V30 4736 H 431.81 -0.162427 -7.79331 0
M  V30 4737 N 436.039 1.36541 -0.78704 0
M  V30 4738 C 437.264 2.0409 -0.369053 0
M  V30 4739 C 437.689 1.58957 1.00569 0
M  V30 4740 O 437.047 0.756926 1.64743 0
M  V30 4741 C 437.095 3.57924 -0.438466 0
M  V30 4742 O 436.199 4.08642 0.555479 0
M  V30 4743 H 435.54 0.645142 -0.157122 0
M  V30 4744 H 438.07 1.74545 -1.06749 0
M  V30 4745 H 438.08 4.06887 -0.301218 0
M  V30 4746 H 436.755 3.90127 -1.44132 0
M  V30 4747 H 435.332 3.70958 0.380088 0
M  V30 4748 N 437.518 0.538854 1.48102 0
M  V30 4749 C 438.746 0.0123136 2.06896 0
M  V30 4750 C 439.161 -1.27312 1.39417 0
M  V30 4751 O 438.518 -1.75949 0.484582 0
M  V30 4752 C 438.569 -0.206118 3.60912 0
M  V30 4753 O 438.29 1.0284 4.25859 0
M  V30 4754 C 439.791 -0.772033 4.36526 0
M  V30 4755 H 437.011 0.0375239 0.66995 0
M  V30 4756 H 439.555 0.747032 1.90367 0
M  V30 4757 H 437.71 -0.89091 3.77017 0
M  V30 4758 H 438.124 0.814654 5.18135 0
M  V30 4759 H 439.598 -0.874251 5.45033 0
M  V30 4760 H 440.075 -1.77904 4.01555 0
M  V30 4761 H 440.681 -0.123526 4.25121 0
M  V30 4762 N 438.996 -1.55193 0.274407 0
M  V30 4763 C 439.906 -2.26164 -0.623473 0
M  V30 4764 C 440.922 -1.28729 -1.17068 0
M  V30 4765 O 442.098 -1.61663 -1.20112 0
M  V30 4766 C 439.163 -2.96833 -1.7914 0
M  V30 4767 C 438.224 -4.09745 -1.28093 0
M  V30 4768 C 437.457 -4.77034 -2.3932 0
M  V30 4769 O 437.68 -4.4353 -3.5866 0
M  V30 4770 O 436.614 -5.64996 -2.07516 0
M  V30 4771 H 440.44 -3.03661 -0.0485661 0
M  V30 4772 H 438.025 -1.49341 0.0418382 0
M  V30 4773 H 439.907 -3.41248 -2.4724 0
M  V30 4774 H 438.582 -2.22253 -2.35341 0
M  V30 4775 H 437.489 -3.69787 -0.566416 0
M  V30 4776 H 438.822 -4.86224 -0.764683 0
M  V30 4777 N 440.474 -0.00167713 -1.576 0
M  V30 4778 C 441.89 0.354422 -1.55615 0
M  V30 4779 C 442.09 1.74679 -1.00447 0
M  V30 4780 O 441.146 2.4428 -0.639022 0
M  V30 4781 C 442.459 0.22812 -2.99833 0
M  V30 4782 C 444.007 0.302934 -3.11531 0
M  V30 4783 C 444.482 0.205737 -4.57538 0
M  V30 4784 N 445.973 0.263584 -4.62449 0
M  V30 4785 C 446.708 0.211742 -5.73009 0
M  V30 4786 N 446.204 0.110399 -6.92712 0
M  V30 4787 N 447.997 0.263729 -5.61481 0
M  V30 4788 H 440.148 -0.912498 -1.918 0
M  V30 4789 H 442.411 -0.349928 -0.881053 0
M  V30 4790 H 442.117 -0.729934 -3.44042 0
M  V30 4791 H 441.991 1.00951 -3.6344 0
M  V30 4792 H 444.378 1.25143 -2.67251 0
M  V30 4793 H 444.459 -0.508357 -2.50698 0
M  V30 4794 H 444.103 -0.739225 -5.02492 0
M  V30 4795 H 444.033 1.03554 -5.16318 0
M  V30 4796 H 446.524 0.343173 -3.76339 0
M  V30 4797 H 446.837 0.0767828 -7.72762 0
M  V30 4798 H 445.182 0.0760025 -6.94958 0
M  V30 4799 H 448.373 0.34111 -4.66855 0
M  V30 4800 H 448.546 0.219862 -6.47627 0
M  V30 4801 N 441.952 1.55251 0.271103 0
M  V30 4802 C 442.862 1.9136 1.35714 0
M  V30 4803 C 443.878 0.811075 1.5394 0
M  V30 4804 O 445.054 1.11031 1.6803 0
M  V30 4805 C 442.119 2.1798 2.69603 0
M  V30 4806 C 441.18 3.4153 2.60107 0
M  V30 4807 C 440.413 3.66871 3.8761 0
M  V30 4808 O 440.636 2.94689 4.8838 0
M  V30 4809 O 439.57 4.60405 3.87699 0
M  V30 4810 H 443.396 2.83815 1.08088 0
M  V30 4811 H 440.981 1.41821 0.469792 0
M  V30 4812 H 442.863 2.36518 3.48765 0
M  V30 4813 H 441.538 1.28708 2.97012 0
M  V30 4814 H 440.445 3.28325 1.79314 0
M  V30 4815 H 441.778 4.31027 2.37647 0
M  V30 4816 N 443.43 -0.535701 1.48216 0
M  V30 4817 C 444.658 -1.31671 1.59594 0
M  V30 4818 C 445.073 -1.87083 0.254056 0
M  V30 4819 O 444.43 -1.66112 -0.755854 0
M  V30 4820 C 444.481 -2.47158 2.63809 0
M  V30 4821 O 444.202 -1.94032 3.92789 0
M  V30 4822 C 445.703 -3.39062 2.85573 0
M  V30 4823 H 442.923 -0.400623 0.538277 0
M  V30 4824 H 445.467 -0.646827 1.94001 0
M  V30 4825 H 443.622 -3.10043 2.32276 0
M  V30 4826 H 444.036 -2.69585 4.49916 0
M  V30 4827 H 445.51 -4.16459 3.62306 0
M  V30 4828 H 445.987 -3.93941 1.94184 0
M  V30 4829 H 446.593 -2.81975 3.18387 0
M  V30 4830 N 444.908 -1.36708 -0.784132 0
M  V30 4831 C 446.324 -1.17237 -1.08294 0
M  V30 4832 C 446.524 -5.93947e-05 -2.015 0
M  V30 4833 O 445.58 0.663686 -2.43622 0
M  V30 4834 C 446.893 -2.48557 -1.69233 0
M  V30 4835 C 448.441 -2.54968 -1.8155 0
M  V30 4836 C 448.916 -3.86388 -2.45904 0
M  V30 4837 N 450.407 -3.87762 -2.53367 0
M  V30 4838 C 451.142 -4.86191 -3.03983 0
M  V30 4839 N 450.638 -5.95015 -3.54866 0
M  V30 4840 N 452.431 -4.73606 -3.02743 0
M  V30 4841 H 444.582 -2.11758 -0.16501 0
M  V30 4842 H 446.845 -0.93822 -0.135822 0
M  V30 4843 H 446.551 -3.34638 -1.08215 0
M  V30 4844 H 446.425 -2.64748 -2.68679 0
M  V30 4845 H 448.812 -1.69302 -2.41704 0
M  V30 4846 H 448.893 -2.42672 -0.80895 0
M  V30 4847 H 448.537 -4.72462 -1.86392 0
M  V30 4848 H 448.467 -3.95982 -3.4714 0
M  V30 4849 H 450.958 -3.09145 -2.17343 0
M  V30 4850 H 451.271 -6.66086 -3.91854 0
M  V30 4851 H 449.616 -5.98676 -3.53003 0
M  V30 4852 H 452.807 -3.87717 -2.62284 0
M  V30 4853 H 452.98 -5.50473 -3.41881 0
M  V30 4854 N 446.386 1.0089 -1.21074 0
M  V30 4855 C 447.318 2.09737 -0.924291 0
M  V30 4856 C 448.331 1.62546 0.0909809 0
M  V30 4857 O 449.52 1.77942 -0.141021 0
M  V30 4858 C 446.62 3.36922 -0.36559 0
M  V30 4859 C 445.793 4.13216 -1.43426 0
M  V30 4860 C 444.852 5.18696 -0.885496 0
M  V30 4861 O 443.878 5.47176 -1.56801 0
M  V30 4862 N 445.08 5.79718 0.301227 0
M  V30 4863 H 447.845 2.34895 -1.8613 0
M  V30 4864 H 445.406 1.17341 -1.11546 0
M  V30 4865 H 447.398 4.04697 0.0158407 0
M  V30 4866 H 445.968 3.08952 0.476149 0
M  V30 4867 H 445.188 3.40301 -1.9897 0
M  V30 4868 H 446.476 4.60967 -2.15376 0
M  V30 4869 H 445.874 5.58926 0.872849 0
M  V30 4870 H 444.431 6.48804 0.624211 0
M  V30 4871 N 447.864 1.01787 1.20321 0
M  V30 4872 C 448.774 0.598898 2.26827 0
M  V30 4873 C 449.79 -0.36418 1.70146 0
M  V30 4874 O 450.966 -0.224812 2.00141 0
M  V30 4875 C 448.031 -0.0549769 3.46656 0
M  V30 4876 C 447.092 0.954205 4.18561 0
M  V30 4877 C 446.325 0.331439 5.3267 0
M  V30 4878 O 446.548 -0.86851 5.63749 0
M  V30 4879 O 445.482 1.0488 5.92692 0
M  V30 4880 H 449.308 1.48562 2.64883 0
M  V30 4881 H 446.893 0.787434 1.26964 0
M  V30 4882 H 448.775 -0.420102 4.19301 0
M  V30 4883 H 447.45 -0.915876 3.10473 0
M  V30 4884 H 446.357 1.37072 3.48083 0
M  V30 4885 H 447.69 1.78511 4.58688 0
M  V30 4886 N 449.342 -1.36122 0.79427 0
M  V30 4887 C 450.572 -2.03067 0.380437 0
M  V30 4888 C 450.98 -1.60018 -1.00949 0
M  V30 4889 O 450.323 -0.787425 -1.65968 0
M  V30 4890 C 450.385 -3.57587 0.37034 0
M  V30 4891 C 450.049 -4.23855 1.70867 0
M  V30 4892 C 451.046 -4.46404 2.66496 0
M  V30 4893 C 448.731 -4.61229 1.9893 0
M  V30 4894 C 450.725 -5.05412 3.88378 0
M  V30 4895 C 448.412 -5.19953 3.21079 0
M  V30 4896 C 449.41 -5.41985 4.15621 0
M  V30 4897 O 449.098 -5.99475 5.35616 0
M  V30 4898 H 448.83 -0.658168 0.154243 0
M  V30 4899 H 451.384 -1.7498 1.0757 0
M  V30 4900 H 449.614 -3.84814 -0.381444 0
M  V30 4901 H 451.303 -4.05895 -0.0194894 0
M  V30 4902 H 452.069 -4.17921 2.46103 0
M  V30 4903 H 447.948 -4.43402 1.26158 0
M  V30 4904 H 451.492 -5.22524 4.62185 0
M  V30 4905 H 447.389 -5.47862 3.41347 0
M  V30 4906 H 448.157 -6.17937 5.36745 0
M  V30 4907 N 450.82 -0.546701 -1.47814 0
M  V30 4908 C 451.783 0.196287 -2.28358 0
M  V30 4909 C 452.783 0.852437 -1.36346 0
M  V30 4910 O 453.973 0.709913 -1.59078 0
M  V30 4911 C 451.105 1.28579 -3.15722 0
M  V30 4912 H 452.298 -0.511086 -2.95513 0
M  V30 4913 H 449.851 -0.303248 -1.5333 0
M  V30 4914 H 450.586 2.0259 -2.53235 0
M  V30 4915 H 450.371 0.820229 -3.83425 0
M  V30 4916 H 451.861 1.80793 -3.76435 0
M  V30 4917 N 452.299 1.55045 -0.282633 0
M  V30 4918 C 453.229 2.2579 0.595066 0
M  V30 4919 C 454.21 1.25074 1.15284 0
M  V30 4920 O 455.395 1.5381 1.18559 0
M  V30 4921 C 452.525 2.98472 1.77572 0
M  V30 4922 C 451.479 4.0618 1.34914 0
M  V30 4923 C 450.805 4.66477 2.6135 0
M  V30 4924 C 452.105 5.1996 0.493821 0
M  V30 4925 H 453.799 2.994 0.00505653 0
M  V30 4926 H 451.345 1.44 0.000992001 0
M  V30 4927 H 453.298 3.46677 2.39568 0
M  V30 4928 H 452.022 2.2241 2.39168 0
M  V30 4929 H 450.681 3.58797 0.752338 0
M  V30 4930 H 450.329 3.87074 3.2122 0
M  V30 4931 H 450.029 5.39207 2.33516 0
M  V30 4932 H 451.553 5.17435 3.24181 0
M  V30 4933 H 452.967 5.64172 1.01898 0
M  V30 4934 H 451.364 5.99299 0.310047 0
M  V30 4935 H 452.434 4.82462 -0.485593 0
M  V30 4936 N 453.777 0.010035 1.57597 0
M  V30 4937 C 454.74 -0.963029 2.07986 0
M  V30 4938 C 455.74 -1.26619 0.991173 0
M  V30 4939 O 456.93 -1.2097 1.25347 0
M  V30 4940 C 454.062 -2.2851 2.52974 0
M  V30 4941 H 455.255 -0.526971 2.95234 0
M  V30 4942 H 452.808 -0.237639 1.54483 0
M  V30 4943 H 453.543 -2.76784 1.69 0
M  V30 4944 H 453.328 -2.07824 3.32493 0
M  V30 4945 H 454.818 -2.98294 2.9225 0
M  V30 4946 N 455.255 -1.55392 -0.262866 0
M  V30 4947 C 456.188 -1.8391 -1.35101 0
M  V30 4948 C 457.166 -0.692901 -1.47097 0
M  V30 4949 O 458.35 -0.936979 -1.63563 0
M  V30 4950 C 455.477 -2.00969 -2.72634 0
M  V30 4951 C 454.523 -3.23559 -2.7787 0
M  V30 4952 S 455.356 -4.80647 -2.3609 0
M  V30 4953 C 456.512 -5.00692 -3.75578 0
M  V30 4954 H 456.745 -2.75918 -1.1071 0
M  V30 4955 H 454.278 -1.47294 -0.463029 0
M  V30 4956 H 456.236 -2.11482 -3.51832 0
M  V30 4957 H 454.897 -1.09832 -2.94272 0
M  V30 4958 H 454.09 -3.32413 -3.78837 0
M  V30 4959 H 453.692 -3.11689 -2.06702 0
M  V30 4960 H 455.984 -4.87055 -4.70939 0
M  V30 4961 H 456.927 -6.02717 -3.71669 0
M  V30 4962 H 457.335 -4.28619 -3.6735 0
M  V30 4963 N 456.733 0.527833 -1.48498 0
M  V30 4964 C 457.982 1.28003 -1.55878 0
M  V30 4965 C 458.295 1.9414 -0.238577 0
M  V30 4966 O 459.501 2.7083 -0.190643 0
M  V30 4967 C 457.957 2.32272 -2.74914 0
M  V30 4968 C 457.565 1.72196 -4.13585 0
M  V30 4969 C 459.309 3.08488 -2.91608 0
M  V30 4970 C 457.216 2.74417 -5.23879 0
M  V30 4971 H 456.146 0.481413 -0.580308 0
M  V30 4972 H 458.797 0.557195 -1.74836 0
M  V30 4973 H 457.179 3.07601 -2.49395 0
M  V30 4974 H 458.353 1.03041 -4.49132 0
M  V30 4975 H 456.668 1.08464 -4.02025 0
M  V30 4976 H 459.265 3.84879 -3.71177 0
M  V30 4977 H 459.608 3.64481 -2.01145 0
M  V30 4978 H 460.141 2.40274 -3.17038 0
M  V30 4979 H 456.88 2.23242 -6.16314 0
M  V30 4980 H 456.4 3.41893 -4.92818 0
M  V30 4981 H 458.079 3.37362 -5.52083 0
M  V30 4982 N 458.211 1.37122 0.776871 0
M  V30 4983 C 459.143 1.28342 1.89897 0
M  V30 4984 C 460.156 0.200277 1.61563 0
M  V30 4985 O 461.345 0.456012 1.72577 0
M  V30 4986 C 458.445 0.960427 3.25006 0
M  V30 4987 C 457.618 2.148 3.81025 0
M  V30 4988 C 456.677 1.79608 4.94598 0
M  V30 4989 O 455.703 2.51845 5.10454 0
M  V30 4990 N 456.905 0.737171 5.758 0
M  V30 4991 H 459.67 2.25027 1.97947 0
M  V30 4992 H 457.231 1.3068 0.955739 0
M  V30 4993 H 459.223 0.705942 3.98495 0
M  V30 4994 H 457.793 0.0823066 3.12492 0
M  V30 4995 H 457.013 2.56454 2.99374 0
M  V30 4996 H 458.301 2.9411 4.15183 0
M  V30 4997 H 457.699 0.137637 5.65533 0
M  V30 4998 H 456.256 0.542534 6.49538 0
M  V30 4999 N 459.689 -1.00246 1.21608 0
M  V30 5000 C 460.929 -1.75589 1.04631 0
M  V30 5001 C 461.293 -1.87513 -0.412648 0
M  V30 5002 O 462.494 -2.59444 -0.703003 0
M  V30 5003 C 460.765 -3.12893 1.72722 0
M  V30 5004 S 462.324 -4.04095 1.71034 0
M  V30 5005 H 459.142 -0.604133 0.374892 0
M  V30 5006 H 461.744 -1.19927 1.54395 0
M  V30 5007 H 460.448 -3.0185 2.78055 0
M  V30 5008 H 459.979 -3.73628 1.23149 0
M  V30 5009 H 461.994 -4.9045 0.753231 0
M  V30 5010 N 461.167 -1.02423 -1.1978 0
M  V30 5011 C 462.114 -0.601023 -2.22837 0
M  V30 5012 C 463.084 0.382801 -1.61629 0
M  V30 5013 O 464.269 0.280514 -1.88727 0
M  V30 5014 C 461.409 0.0467755 -3.45068 0
M  V30 5015 C 460.522 -0.98253 -4.20678 0
M  V30 5016 C 459.657 -0.304982 -5.30324 0
M  V30 5017 C 458.696 -1.32052 -5.97686 0
M  V30 5018 N 457.833 -0.669105 -6.98904 0
M  V30 5019 H 462.673 -1.48444 -2.58396 0
M  V30 5020 H 460.21 -0.742936 -1.2696 0
M  V30 5021 H 462.168 0.439556 -4.14878 0
M  V30 5022 H 460.798 0.893796 -3.10179 0
M  V30 5023 H 459.85 -1.49341 -3.49859 0
M  V30 5024 H 461.162 -1.75455 -4.66923 0
M  V30 5025 H 460.316 0.142893 -6.06532 0
M  V30 5026 H 459.055 0.499283 -4.85138 0
M  V30 5027 H 458.06 -1.7787 -5.20233 0
M  V30 5028 H 459.285 -2.1262 -6.44957 0
M  V30 5029 H 457.231 0.115152 -6.55899 0
M  V30 5030 H 457.148 -1.37908 -7.43315 0
M  V30 5031 H 458.416 -0.245076 -7.79115 0
M  V30 5032 N 462.645 1.35699 -0.801477 0
M  V30 5033 C 463.891 1.99208 -0.380022 0
M  V30 5034 C 464.224 1.63445 1.04878 0
M  V30 5035 O 463.499 0.895223 1.72673 0
M  V30 5036 C 463.782 3.55755 -0.557708 0
M  V30 5037 C 463.635 4.01332 -2.03107 0
M  V30 5038 C 464.954 4.40096 0.0197968 0
M  V30 5039 H 462.073 0.723667 -0.139552 0
M  V30 5040 H 464.715 1.60928 -1.01006 0
M  V30 5041 H 462.865 3.88494 -0.0213741 0
M  V30 5042 H 464.537 3.79026 -2.62939 0
M  V30 5043 H 462.78 3.52429 -2.52936 0
M  V30 5044 H 463.451 5.10234 -2.1063 0
M  V30 5045 H 465.927 4.13786 -0.438179 0
M  V30 5046 H 464.803 5.48735 -0.134477 0
M  V30 5047 H 465.064 4.2786 1.11303 0
M  V30 5048 N 464.123 0.554532 1.47522 0
M  V30 5049 C 465.053 -0.182974 2.32782 0
M  V30 5050 C 466.034 -0.911377 1.43624 0
M  V30 5051 O 467.219 -0.892366 1.72483 0
M  V30 5052 C 464.349 -1.21513 3.25349 0
M  V30 5053 C 463.303 -0.603355 4.23726 0
M  V30 5054 C 462.629 -1.73995 5.05598 0
M  V30 5055 C 463.929 0.441121 5.20434 0
M  V30 5056 H 465.623 0.52882 2.94693 0
M  V30 5057 H 463.169 0.255759 1.41711 0
M  V30 5058 H 465.122 -1.73922 3.83835 0
M  V30 5059 H 463.846 -1.95683 2.61487 0
M  V30 5060 H 462.505 -0.10059 3.66462 0
M  V30 5061 H 462.153 -2.47063 4.38143 0
M  V30 5062 H 461.853 -1.3364 5.72201 0
M  V30 5063 H 463.377 -2.26735 5.66942 0
M  V30 5064 H 464.791 0.00319931 5.733 0
M  V30 5065 H 463.188 0.763402 5.95224 0
M  V30 5066 H 464.258 1.33799 4.66075 0
M  V30 5067 N 465.601 -1.54893 0.290851 0
M  V30 5068 C 466.548 -2.23138 -0.58974 0
M  V30 5069 C 467.518 -1.21036 -1.13752 0
M  V30 5070 O 468.703 -1.49626 -1.18392 0
M  V30 5071 C 465.843 -2.96811 -1.76061 0
M  V30 5072 C 464.956 -4.13665 -1.24519 0
M  V30 5073 C 464.091 -4.74944 -2.3791 0
M  V30 5074 C 463.13 -5.83963 -1.83451 0
M  V30 5075 N 462.267 -6.39239 -2.90376 0
M  V30 5076 H 467.107 -2.98 -0.00114915 0
M  V30 5077 H 464.644 -1.47096 0.0112006 0
M  V30 5078 H 466.602 -3.37751 -2.44909 0
M  V30 5079 H 465.232 -2.24344 -2.32098 0
M  V30 5080 H 464.284 -3.77737 -0.449288 0
M  V30 5081 H 465.596 -4.92238 -0.806424 0
M  V30 5082 H 464.75 -5.18684 -3.14724 0
M  V30 5083 H 463.489 -3.95682 -2.85109 0
M  V30 5084 H 462.494 -5.39657 -1.05122 0
M  V30 5085 H 463.719 -6.65103 -1.37169 0
M  V30 5086 H 461.665 -5.62864 -3.36927 0
M  V30 5087 H 461.582 -7.13129 -2.50965 0
M  V30 5088 H 462.85 -6.87637 -3.67118 0
M  V30 5089 N 467.08 -0.0183926 -1.57589 0
M  V30 5090 C 468.012 0.995557 -2.06449 0
M  V30 5091 C 469.025 1.29556 -0.985849 0
M  V30 5092 O 470.214 1.2621 -1.26227 0
M  V30 5093 C 467.314 2.32572 -2.46502 0
M  V30 5094 C 466.487 2.21245 -3.77319 0
M  V30 5095 C 465.546 3.37104 -4.04039 0
M  V30 5096 O 464.572 3.14468 -4.74445 0
M  V30 5097 N 465.774 4.60553 -3.53372 0
M  V30 5098 H 468.539 0.578746 -2.94059 0
M  V30 5099 H 466.1 0.168603 -1.6102 0
M  V30 5100 H 468.092 3.08887 -2.61478 0
M  V30 5101 H 466.662 2.65931 -1.64315 0
M  V30 5102 H 465.882 1.29723 -3.72244 0
M  V30 5103 H 467.17 2.10868 -4.63047 0
M  V30 5104 H 466.568 4.81839 -2.96391 0
M  V30 5105 H 465.125 5.34072 -3.73644 0
M  V30 5106 N 468.558 1.5553 0.254621 0
M  V30 5107 C 469.488 1.9268 1.31897 0
M  V30 5108 C 470.469 0.790797 1.506 0
M  V30 5109 O 471.654 1.05045 1.63337 0
M  V30 5110 C 468.784 2.21477 2.67517 0
M  V30 5111 C 467.738 3.37256 2.63519 0
M  V30 5112 C 467.064 3.51576 4.02862 0
M  V30 5113 C 468.364 4.73157 2.21179 0
M  V30 5114 H 470.058 2.81832 1.01051 0
M  V30 5115 H 467.604 1.35599 0.484662 0
M  V30 5116 H 469.557 2.46055 3.42104 0
M  V30 5117 H 468.281 1.29144 2.99982 0
M  V30 5118 H 466.94 3.12675 1.9139 0
M  V30 5119 H 466.588 2.56676 4.32581 0
M  V30 5120 H 466.288 4.2943 4.01078 0
M  V30 5121 H 467.812 3.78467 4.79161 0
M  V30 5122 H 469.226 4.97158 2.85494 0
M  V30 5123 H 467.623 5.54058 2.30521 0
M  V30 5124 H 468.693 4.70739 1.16332 0
M  V30 5125 N 470.036 -0.519951 1.48776 0
M  V30 5126 C 470.946 -1.65025 1.66745 0
M  V30 5127 C 471.962 -1.6508 0.549954 0
M  V30 5128 O 473.138 -1.83848 0.822295 0
M  V30 5129 C 470.203 -3.0146 1.71238 0
M  V30 5130 C 469.264 -3.12182 2.94688 0
M  V30 5131 C 468.497 -4.42109 2.98958 0
M  V30 5132 O 468.72 -5.29799 2.1135 0
M  V30 5133 O 467.654 -4.57406 3.91233 0
M  V30 5134 H 471.48 -1.52801 2.62461 0
M  V30 5135 H 469.065 -0.694157 1.32294 0
M  V30 5136 H 470.947 -3.82584 1.76657 0
M  V30 5137 H 469.622 -3.13988 0.786975 0
M  V30 5138 H 468.529 -2.30316 2.94797 0
M  V30 5139 H 469.862 -3.04574 3.86646 0
M  V30 5140 N 471.514 -1.37532 -0.769588 0
M  V30 5141 C 472.462 -1.33561 -1.90432 0
M  V30 5142 C 473.456 -0.224027 -1.67912 0
M  V30 5143 O 474.662 -0.392174 -1.75676 0
M  V30 5144 H 471.037 -0.416279 -0.626271 0
M  V30 5145 H 473.008 -2.29348 -1.90899 0
M  V30 5146 C 471.757 -1.16162 -3.27722 0
M  V30 5147 H 471.08 -2.00951 -3.45628 0
M  V30 5148 H 472.52 -1.17434 -4.07413 0
M  V30 5149 C 470.979 0.132583 -3.36639 0
M  V30 5150 O 471.509 1.11539 -3.85904 0
M  V30 5151 N 469.715 0.184013 -2.90017 0
M  V30 5152 H 469.262 -0.616415 -2.50116 0
M  V30 5153 H 469.22 1.04956 -2.96364 0
M  V30 5154 N 472.992 0.995999 -1.22138 0
M  V30 5155 C 473.922 2.10387 -1.01289 0
M  V30 5156 C 474.903 1.69975 0.0651454 0
M  V30 5157 O 476.088 1.9396 -0.0964628 0
M  V30 5158 C 473.218 3.42312 -0.586517 0
M  V30 5159 C 472.172 3.96558 -1.61014 0
M  V30 5160 C 471.498 5.24494 -1.0397 0
M  V30 5161 C 472.798 4.27595 -2.99933 0
M  V30 5162 H 474.492 2.28086 -1.93951 0
M  V30 5163 H 472.038 1.09607 -0.933928 0
M  V30 5164 H 473.991 4.19223 -0.427793 0
M  V30 5165 H 472.715 3.24431 0.375761 0
M  V30 5166 H 471.374 3.21776 -1.75658 0
M  V30 5167 H 471.022 5.02953 -0.0688703 0
M  V30 5168 H 470.722 5.61755 -1.72352 0
M  V30 5169 H 472.246 6.04042 -0.892494 0
M  V30 5170 H 473.66 4.95315 -2.8868 0
M  V30 5171 H 472.057 4.76021 -3.6541 0
M  V30 5172 H 473.127 3.35498 -3.50099 0
M  V30 5173 N 474.47 1.03057 1.19235 0
M  V30 5174 C 475.38 0.622922 2.26179 0
M  V30 5175 C 476.396 -0.346113 1.70523 0
M  V30 5176 O 477.572 -0.203572 2.00369 0
M  V30 5177 C 474.637 -0.0182063 3.46695 0
M  V30 5178 C 473.698 0.998546 4.17526 0
M  V30 5179 C 472.931 0.387917 5.32288 0
M  V30 5180 O 473.154 -0.808668 5.64639 0
M  V30 5181 O 472.088 1.1116 5.91546 0
M  V30 5182 H 475.914 1.51363 2.63292 0
M  V30 5183 H 473.499 0.800856 1.26122 0
M  V30 5184 H 475.381 -0.375606 4.19723 0
M  V30 5185 H 474.056 -0.882895 3.11427 0
M  V30 5186 H 472.963 1.40756 3.4661 0
M  V30 5187 H 474.296 1.83366 4.56769 0
M  V30 5188 N 475.948 -1.35272 0.808662 0
M  V30 5189 C 476.88 -2.28507 0.178149 0
M  V30 5190 C 477.893 -1.50377 -0.623754 0
M  V30 5191 O 479.082 -1.72583 -0.455774 0
M  V30 5192 C 476.182 -3.30038 -0.769959 0
M  V30 5193 C 475.355 -4.37398 -0.0139749 0
M  V30 5194 C 474.414 -5.18775 -0.880875 0
M  V30 5195 O 473.44 -5.68236 -0.331059 0
M  V30 5196 N 474.642 -5.37087 -2.20267 0
M  V30 5197 H 477.407 -2.83255 0.979106 0
M  V30 5198 H 474.968 -1.47643 0.664308 0
M  V30 5199 H 476.96 -3.81371 -1.35418 0
M  V30 5200 H 475.53 -2.75789 -1.47171 0
M  V30 5201 H 474.75 -3.86971 0.751468 0
M  V30 5202 H 476.038 -5.06268 0.506965 0
M  V30 5203 H 475.436 -4.9855 -2.67328 0
M  V30 5204 H 473.993 -5.91593 -2.73608 0
M  V30 5205 N 477.426 -0.562348 -1.47226 0
M  V30 5206 C 478.358 0.220011 -2.28142 0
M  V30 5207 C 479.371 0.874596 -1.37312 0
M  V30 5208 O 480.56 0.747583 -1.62091 0
M  V30 5209 C 477.66 1.32953 -3.11732 0
M  V30 5210 C 476.833 0.770759 -4.30556 0
M  V30 5211 C 475.892 1.76541 -4.95701 0
M  V30 5212 O 474.918 1.3095 -5.53932 0
M  V30 5213 N 476.12 3.09896 -4.90861 0
M  V30 5214 H 478.885 -0.474107 -2.95926 0
M  V30 5215 H 476.446 -0.398761 -1.56912 0
M  V30 5216 H 478.438 1.99378 -3.5218 0
M  V30 5217 H 477.008 1.92681 -2.46156 0
M  V30 5218 H 476.228 -0.0704056 -3.94137 0
M  V30 5219 H 477.516 0.376872 -5.07402 0
M  V30 5220 H 476.914 3.49577 -4.44761 0
M  V30 5221 H 475.471 3.71865 -5.35313 0
M  V30 5222 N 478.904 1.54736 -0.299062 0
M  V30 5223 C 479.851 2.23448 0.577899 0
M  V30 5224 C 480.821 1.21637 1.13109 0
M  V30 5225 O 482.006 1.50252 1.17597 0
M  V30 5226 C 479.146 2.9774 1.74484 0
M  V30 5227 C 478.259 4.1432 1.22323 0
M  V30 5228 C 477.394 4.76199 2.35388 0
M  V30 5229 C 476.433 5.84927 1.80351 0
M  V30 5230 N 475.57 6.4077 2.86982 0
M  V30 5231 H 480.41 2.97996 -0.0146545 0
M  V30 5232 H 477.947 1.47088 -0.0190013 0
M  V30 5233 H 479.905 3.39045 2.43114 0
M  V30 5234 H 478.535 2.25572 2.30905 0
M  V30 5235 H 477.587 3.7797 0.429249 0
M  V30 5236 H 478.899 4.92659 0.780309 0
M  V30 5237 H 478.053 5.20346 3.11969 0
M  V30 5238 H 476.792 3.97188 2.83006 0
M  V30 5239 H 475.797 5.40207 1.02259 0
M  V30 5240 H 477.022 6.65821 1.3364 0
M  V30 5241 H 474.968 5.64643 3.33938 0
M  V30 5242 H 474.885 7.1445 2.4718 0
M  V30 5243 H 476.153 6.89574 3.63466 0
M  V30 5244 N 480.382 0.0267497 1.57577 0
M  V30 5245 C 481.612 -0.6617 1.95717 0
M  V30 5246 C 482.02 -1.66331 0.901706 0
M  V30 5247 O 481.363 -1.83273 -0.125241 0
M  V30 5248 C 481.425 -1.42649 3.29987 0
M  V30 5249 C 481.089 -0.583482 4.5326 0
M  V30 5250 C 482.086 0.140221 5.19711 0
M  V30 5251 C 479.771 -0.521581 4.99585 0
M  V30 5252 C 481.765 0.914523 6.30805 0
M  V30 5253 C 479.452 0.256428 6.10562 0
M  V30 5254 C 480.45 0.973189 6.76031 0
M  V30 5255 O 480.138 1.73845 7.84878 0
M  V30 5256 H 479.87 -0.187483 0.649481 0
M  V30 5257 H 482.424 0.0820847 2.05236 0
M  V30 5258 H 480.654 -2.21536 3.16952 0
M  V30 5259 H 482.343 -2.00282 3.53047 0
M  V30 5260 H 483.109 0.101716 4.84893 0
M  V30 5261 H 478.988 -1.06904 4.48433 0
M  V30 5262 H 482.532 1.4745 6.81839 0
M  V30 5263 H 478.429 0.296657 6.44818 0
M  V30 5264 H 479.197 1.65797 8.01532 0
M  V30 5265 N 481.861 -1.55662 -0.24637 0
M  V30 5266 C 483.138 -1.68272 -0.997198 0
M  V30 5267 C 483.518 -0.566785 -2.03349 0
M  V30 5268 O 482.866 0.429688 -2.24424 0
M  V30 5269 C 483.076 -3.08594 -1.63006 0
M  V30 5270 C 484.424 -3.6721 -2.13171 0
M  V30 5271 O 485.448 -3.11397 -1.72946 0
M  V30 5272 O 484.307 -4.65054 -2.87031 0
M  V30 5273 H 481.401 -0.684429 -0.464205 0
M  V30 5274 H 483.947 -1.67993 -0.240114 0
M  V30 5275 H 482.719 -3.81264 -0.880527 0
M  V30 5276 H 482.342 -3.12886 -2.45333 0
M  V30 5277 N 483.339 0.512053 -1.4905 0
M  V30 5278 C 484.616 1.27337 -1.48474 0
M  V30 5279 C 484.996 2.1009 -0.206301 0
M  V30 5280 O 484.344 2.136 0.811609 0
M  V30 5281 C 484.554 2.13954 -2.75726 0
M  V30 5282 C 485.902 2.73507 -3.24776 0
M  V30 5283 O 486.926 2.24229 -2.76767 0
M  V30 5284 O 485.785 3.63186 -4.08361 0
M  V30 5285 H 482.879 0.575652 -0.593762 0
M  V30 5286 H 485.425 0.527232 -1.61302 0
M  V30 5287 H 484.197 1.52709 -3.60272 0
M  V30 5288 H 483.82 2.95782 -2.65705 0
M  V30 5289 N 484.817 1.37938 0.762283 0
M  V30 5290 C 485.727 1.36681 1.90671 0
M  V30 5291 C 486.743 0.265078 1.71969 0
M  V30 5292 O 487.919 0.502055 1.95042 0
M  V30 5293 C 484.984 1.18211 3.25925 0
M  V30 5294 C 484.045 2.3811 3.57214 0
M  V30 5295 C 483.278 2.20512 4.86014 0
M  V30 5296 O 483.501 1.19429 5.57757 0
M  V30 5297 O 482.435 3.08911 5.16583 0
M  V30 5298 H 486.261 2.33091 1.94685 0
M  V30 5299 H 483.846 1.18767 0.906356 0
M  V30 5300 H 485.728 1.09937 4.06807 0
M  V30 5301 H 484.403 0.248807 3.22742 0
M  V30 5302 H 483.31 2.51958 2.76529 0
M  V30 5303 H 484.643 3.30041 3.65149 0
M  V30 5304 N 486.295 -0.989507 1.22664 0
M  V30 5305 C 487.572 -1.70326 0.961688 0
M  V30 5306 C 487.952 -2.04537 -0.522279 0
M  V30 5307 O 487.3 -1.73136 -1.49118 0
M  V30 5308 C 487.51 -2.95135 1.86269 0
M  V30 5309 C 488.858 -3.67842 2.12078 0
M  V30 5310 O 489.882 -3.0515 1.83745 0
M  V30 5311 O 488.741 -4.80644 2.60083 0
M  V30 5312 H 485.835 -0.743589 0.361946 0
M  V30 5313 H 488.381 -1.04555 1.33665 0
M  V30 5314 H 487.153 -2.66382 2.8663 0
M  V30 5315 H 486.776 -3.68645 1.48952 0
M  V30 5316 N 487.773 -1.03688 -1.18687 0
M  V30 5317 C 489.022 -0.733235 -1.879 0
M  V30 5318 C 489.335 0.741745 -1.8099 0
M  V30 5319 O 490.541 1.15875 -2.4553 0
M  V30 5320 C 488.997 -1.26127 -3.37076 0
M  V30 5321 C 488.605 -2.76461 -3.52524 0
M  V30 5322 C 490.349 -1.03398 -4.11715 0
M  V30 5323 C 488.256 -3.22642 -4.95637 0
M  V30 5324 H 487.186 -0.270584 -0.703776 0
M  V30 5325 H 489.837 -1.25222 -1.34133 0
M  V30 5326 H 488.219 -0.670165 -3.90288 0
M  V30 5327 H 489.393 -3.41296 -3.09602 0
M  V30 5328 H 487.708 -2.97559 -2.91286 0
M  V30 5329 H 490.305 -1.3542 -5.17267 0
M  V30 5330 H 490.648 0.0289246 -4.1629 0
M  V30 5331 H 491.181 -1.5895 -3.64664 0
M  V30 5332 H 487.92 -4.28296 -4.96228 0
M  V30 5333 H 487.44 -2.62539 -5.39289 0
M  V30 5334 H 489.119 -3.16444 -5.64333 0
M  V30 5335 N 489.251 1.34841 -0.815825 0
M  V30 5336 C 490.476 2.03261 -0.41226 0
M  V30 5337 C 490.901 1.61055 0.971751 0
M  V30 5338 O 490.259 0.7917 1.63101 0
M  V30 5339 C 490.307 3.56914 -0.514289 0
M  V30 5340 O 489.411 4.09728 0.468675 0
M  V30 5341 H 488.752 0.641664 -0.170771 0
M  V30 5342 H 491.282 1.72241 -1.10427 0
M  V30 5343 H 491.292 4.06156 -0.387457 0
M  V30 5344 H 489.967 3.86982 -1.52375 0
M  V30 5345 H 488.544 3.71681 0.301316 0
M  V30 5346 N 490.729 0.570148 1.46925 0
M  V30 5347 C 491.639 -0.173061 2.33961 0
M  V30 5348 C 492.655 -0.898825 1.48987 0
M  V30 5349 O 493.831 -0.864825 1.81887 0
M  V30 5350 C 490.896 -1.18177 3.25937 0
M  V30 5351 C 489.957 -0.462041 4.26806 0
M  V30 5352 C 489.19 -1.4227 5.14388 0
M  V30 5353 O 489.413 -2.65842 5.04662 0
M  V30 5354 O 488.347 -0.940127 5.94513 0
M  V30 5355 H 492.173 0.541216 2.98839 0
M  V30 5356 H 489.758 0.330647 1.45695 0
M  V30 5357 H 491.64 -1.76372 3.82715 0
M  V30 5358 H 490.315 -1.87774 2.63671 0
M  V30 5359 H 489.222 0.161429 3.73752 0
M  V30 5360 H 490.555 0.192719 4.91823 0
M  V30 5361 N 492.207 -1.54576 0.307264 0
M  V30 5362 C 493.484 -1.92377 -0.353605 0
M  V30 5363 C 493.864 -1.23517 -1.71192 0
M  V30 5364 O 493.212 -0.373101 -2.25433 0
M  V30 5365 C 493.422 -3.45928 -0.462039 0
M  V30 5366 C 494.77 -4.18278 -0.729975 0
M  V30 5367 O 495.794 -3.51997 -0.545605 0
M  V30 5368 O 494.653 -5.3563 -1.08454 0
M  V30 5369 H 491.747 -0.802747 -0.198812 0
M  V30 5370 H 494.293 -1.65929 0.355783 0
M  V30 5371 H 493.065 -3.88187 0.492592 0
M  V30 5372 H 492.688 -3.78431 -1.21965 0
M  V30 5373 N 493.685 -0.035106 -1.57561 0
M  V30 5374 C 494.934 0.641604 -1.91223 0
M  V30 5375 C 495.247 1.72944 -0.913761 0
M  V30 5376 O 496.453 2.46321 -1.14185 0
M  V30 5377 C 494.909 1.19249 -3.3957 0
M  V30 5378 C 494.517 0.137616 -4.47789 0
M  V30 5379 C 496.261 1.84537 -3.82291 0
M  V30 5380 C 494.168 0.700478 -5.87237 0
M  V30 5381 H 493.098 0.243417 -0.713627 0
M  V30 5382 H 495.749 -0.101382 -1.8322 0
M  V30 5383 H 494.131 1.98728 -3.42525 0
M  V30 5384 H 495.305 -0.635153 -4.56402 0
M  V30 5385 H 493.62 -0.416855 -4.14308 0
M  V30 5386 H 496.217 2.27616 -4.83834 0
M  V30 5387 H 496.56 2.69054 -3.17672 0
M  V30 5388 H 497.093 1.11739 -3.81784 0
M  V30 5389 H 493.832 -0.106693 -6.55413 0
M  V30 5390 H 493.352 1.4416 -5.82218 0
M  V30 5391 H 495.031 1.18837 -6.35993 0
M  V30 5392 N 495.163 1.55791 0.238111 0
M  V30 5393 C 496.11 1.9105 1.29493 0
M  V30 5394 C 497.08 0.765733 1.47397 0
M  V30 5395 O 498.265 1.02017 1.61236 0
M  V30 5396 C 495.405 2.21826 2.64362 0
M  V30 5397 C 494.518 3.49153 2.54394 0
M  V30 5398 C 493.653 3.69455 3.81676 0
M  V30 5399 C 492.692 4.90353 3.66361 0
M  V30 5400 N 491.829 5.07131 4.85554 0
M  V30 5401 H 496.669 2.81172 0.987233 0
M  V30 5402 H 494.206 1.39179 0.476203 0
M  V30 5403 H 496.164 2.37675 3.4288 0
M  V30 5404 H 494.794 1.34897 2.93262 0
M  V30 5405 H 493.846 3.41587 1.67399 0
M  V30 5406 H 495.158 4.37818 2.38991 0
M  V30 5407 H 494.312 3.85311 4.68636 0
M  V30 5408 H 493.051 2.7904 3.99985 0
M  V30 5409 H 492.056 4.74464 2.77784 0
M  V30 5410 H 493.281 5.82237 3.49538 0
M  V30 5411 H 491.227 4.19654 5.04209 0
M  V30 5412 H 491.144 5.89899 4.72816 0
M  V30 5413 H 492.412 5.27407 5.73988 0
M  V30 5414 N 496.642 -0.504142 1.49319 0
M  V30 5415 C 497.889 -1.25846 1.58647 0
M  V30 5416 C 498.217 -1.92592 0.27177 0
M  V30 5417 O 497.472 -1.81167 -0.74007 0
M  V30 5418 C 497.771 -2.35021 2.69258 0
M  V30 5419 C 497.437 -1.85755 4.1086 0
M  V30 5420 C 496.099 -1.72038 4.49395 0
M  V30 5421 C 498.451 -1.48844 4.99495 0
M  V30 5422 C 495.779 -1.19783 5.74342 0
M  V30 5423 C 498.131 -0.980422 6.24956 0
M  V30 5424 C 496.795 -0.829622 6.62324 0
M  V30 5425 H 496.065 -0.460505 0.580531 0
M  V30 5426 H 498.712 -0.559716 1.83138 0
M  V30 5427 H 497.017 -3.10672 2.38726 0
M  V30 5428 H 498.714 -2.93083 2.73685 0
M  V30 5429 H 495.304 -1.9739 3.80441 0
M  V30 5430 H 499.488 -1.5829 4.70381 0
M  V30 5431 H 494.744 -1.06817 6.01997 0
M  V30 5432 H 498.918 -0.685608 6.93017 0
M  V30 5433 H 496.545 -0.42253 7.59025 0
M  V30 5434 N 498.12 -1.38341 -0.754957 0
M  V30 5435 C 499.05 -1.38176 -1.88227 0
M  V30 5436 C 500.031 -0.247873 -1.68284 0
M  V30 5437 O 501.216 -0.45075 -1.88896 0
M  V30 5438 C 498.346 -1.20471 -3.25736 0
M  V30 5439 C 497.3 -2.3105 -3.60278 0
M  V30 5440 C 496.626 -1.98452 -4.96509 0
M  V30 5441 C 497.926 -3.73305 -3.65295 0
M  V30 5442 H 499.62 -2.32512 -1.88622 0
M  V30 5443 H 497.166 -1.1192 -0.906082 0
M  V30 5444 H 499.119 -1.18982 -4.04254 0
M  V30 5445 H 497.843 -0.225965 -3.25817 0
M  V30 5446 H 496.502 -2.31723 -2.84078 0
M  V30 5447 H 496.15 -0.990641 -4.93148 0
M  V30 5448 H 495.85 -2.7251 -5.20588 0
M  V30 5449 H 497.374 -1.98578 -5.77407 0
M  V30 5450 H 498.788 -3.7467 -4.3393 0
M  V30 5451 H 497.185 -4.46557 -4.00883 0
M  V30 5452 H 498.255 -4.05719 -2.65556 0
M  V30 5453 N 499.598 0.982988 -1.23187 0
M  V30 5454 C 500.528 2.09301 -1.03515 0
M  V30 5455 C 501.509 1.70035 0.0471136 0
M  V30 5456 O 502.694 1.93847 -0.117029 0
M  V30 5457 C 499.824 3.4167 -0.622791 0
M  V30 5458 C 498.778 3.94828 -1.65211 0
M  V30 5459 C 498.104 5.23362 -1.09527 0
M  V30 5460 C 499.404 4.2439 -3.04451 0
M  V30 5461 H 501.098 2.26016 -1.96359 0
M  V30 5462 H 498.644 1.08611 -0.945501 0
M  V30 5463 H 500.597 4.18746 -0.472233 0
M  V30 5464 H 499.321 3.24811 0.341329 0
M  V30 5465 H 497.98 3.19895 -1.79061 0
M  V30 5466 H 497.628 5.02852 -0.122211 0
M  V30 5467 H 497.328 5.59895 -1.783 0
M  V30 5468 H 498.852 6.03062 -0.956511 0
M  V30 5469 H 500.266 4.92225 -2.93917 0
M  V30 5470 H 498.663 4.72118 -3.70438 0
M  V30 5471 H 499.733 3.31765 -3.53638 0
M  V30 5472 N 501.076 1.04316 1.18135 0
M  V30 5473 C 501.986 0.646876 2.25505 0
M  V30 5474 C 503.002 -0.328008 1.7088 0
M  V30 5475 O 504.178 -0.182309 2.00573 0
M  V30 5476 C 501.243 0.0185664 3.46695 0
M  V30 5477 C 500.304 1.04277 4.16443 0
M  V30 5478 C 499.537 0.444352 5.31847 0
M  V30 5479 O 499.76 -0.748735 5.65465 0
M  V30 5480 O 498.694 1.17428 5.90334 0
M  V30 5481 H 502.52 1.54147 2.61672 0
M  V30 5482 H 500.105 0.814188 1.25265 0
M  V30 5483 H 501.987 -0.331068 4.20097 0
M  V30 5484 H 500.662 -0.849814 3.12346 0
M  V30 5485 H 499.569 1.44425 3.45098 0
M  V30 5486 H 500.902 1.882 4.54798 0
M  V30 5487 N 502.554 -1.34406 0.822964 0
M  V30 5488 C 503.501 -2.29519 0.24284 0
M  V30 5489 C 504.471 -1.5359 -0.632397 0
M  V30 5490 O 505.656 -1.8196 -0.57403 0
M  V30 5491 C 502.796 -3.40032 -0.58925 0
M  V30 5492 C 501.909 -4.30899 0.308236 0
M  V30 5493 C 501.044 -5.28515 -0.533425 0
M  V30 5494 C 500.083 -6.1102 0.363444 0
M  V30 5495 N 499.22 -7.00725 -0.439147 0
M  V30 5496 H 504.06 -2.78537 1.05929 0
M  V30 5497 H 501.597 -1.3707 0.533872 0
M  V30 5498 H 503.555 -4.0279 -1.087 0
M  V30 5499 H 502.185 -2.92248 -1.37081 0
M  V30 5500 H 501.237 -3.69002 0.924203 0
M  V30 5501 H 502.549 -4.88717 0.997862 0
M  V30 5502 H 501.703 -5.96725 -1.09565 0
M  V30 5503 H 500.442 -4.71235 -1.25656 0
M  V30 5504 H 499.447 -5.41743 0.937812 0
M  V30 5505 H 500.672 -6.70381 1.08469 0
M  V30 5506 H 498.618 -6.45913 -1.14595 0
M  V30 5507 H 498.535 -7.55756 0.19209 0
M  V30 5508 H 499.803 -7.73263 -0.984124 0
M  V30 5509 N 504.032 -0.577932 -1.46621 0
M  V30 5510 C 504.962 0.145917 -2.33044 0
M  V30 5511 C 505.943 0.888412 -1.45056 0
M  V30 5512 O 507.128 0.864812 -1.73881 0
M  V30 5513 C 504.258 1.16322 -3.27241 0
M  V30 5514 C 503.212 0.535868 -4.24632 0
M  V30 5515 C 502.538 1.65929 -5.08303 0
M  V30 5516 C 503.838 -0.523861 -5.19666 0
M  V30 5517 H 505.532 -0.575636 -2.93814 0
M  V30 5518 H 503.078 -0.278272 -1.41286 0
M  V30 5519 H 505.031 1.67793 -3.86553 0
M  V30 5520 H 503.755 1.91498 -2.64567 0
M  V30 5521 H 502.414 0.0422759 -3.66576 0
M  V30 5522 H 502.062 2.40061 -4.42018 0
M  V30 5523 H 501.762 1.2452 -5.74255 0
M  V30 5524 H 503.286 2.17686 -5.70478 0
M  V30 5525 H 504.7 -0.0944059 -5.73222 0
M  V30 5526 H 503.097 -0.858 -5.93935 0
M  V30 5527 H 504.167 -1.41197 -4.63887 0
M  V30 5528 N 505.51 1.54411 -0.315457 0
M  V30 5529 C 506.758 2.00023 0.288971 0
M  V30 5530 C 507.079 1.20529 1.5329 0
M  V30 5531 O 506.349 0.304986 1.93511 0
M  V30 5532 H 504.929 0.738891 0.109766 0
M  V30 5533 H 507.591 1.90094 -0.430129 0
M  V30 5534 H 506.687 3.07198 0.550999 0
M  V30 5535 N 506.988 0.0434614 1.5754 0
M  V30 5536 C 507.898 -0.94893 2.14552 0
M  V30 5537 C 508.914 -1.34707 1.10136 0
M  V30 5538 O 510.09 -1.42557 1.42266 0
M  V30 5539 C 507.155 -2.208 2.67298 0
M  V30 5540 C 506.216 -1.86893 3.86484 0
M  V30 5541 C 505.449 -3.06797 4.36705 0
M  V30 5542 O 505.672 -4.19921 3.86034 0
M  V30 5543 O 504.606 -2.8826 5.28384 0
M  V30 5544 H 508.432 -0.494099 2.99654 0
M  V30 5545 H 506.017 -0.177989 1.48336 0
M  V30 5546 H 507.899 -2.94686 3.01228 0
M  V30 5547 H 506.574 -2.65436 1.85272 0
M  V30 5548 H 505.481 -1.10347 3.57455 0
M  V30 5549 H 506.814 -1.47062 4.69716 0
M  V30 5550 N 508.466 -1.55915 -0.229846 0
M  V30 5551 C 509.691 -1.8296 -0.976743 0
M  V30 5552 C 510.116 -0.622735 -1.77493 0
M  V30 5553 O 509.474 0.428431 -1.76165 0
M  V30 5554 C 509.522 -3.07916 -1.8767 0
M  V30 5555 O 508.626 -2.86028 -2.97088 0
M  V30 5556 H 507.967 -0.603453 -0.277021 0
M  V30 5557 H 510.497 -2.0312 -0.245669 0
M  V30 5558 H 510.507 -3.37802 -2.2881 0
M  V30 5559 H 509.182 -3.95389 -1.28996 0
M  V30 5560 H 507.759 -2.67355 -2.59954 0
M  V30 5561 N 509.944 0.496216 -1.49584 0
M  V30 5562 C 511.19 1.25189 -1.59548 0
M  V30 5563 C 511.523 1.9212 -0.283466 0
M  V30 5564 O 510.798 1.80947 0.713324 0
M  V30 5565 C 511.081 2.31516 -2.75812 0
M  V30 5566 C 510.934 1.69054 -4.16822 0
M  V30 5567 C 512.253 3.3304 -2.87702 0
M  V30 5568 H 509.372 0.45379 -0.580727 0
M  V30 5569 H 512.014 0.549327 -1.81886 0
M  V30 5570 H 510.164 2.91438 -2.56897 0
M  V30 5571 H 511.836 1.12923 -4.47265 0
M  V30 5572 H 510.079 0.994485 -4.22247 0
M  V30 5573 H 510.75 2.462 -4.94054 0
M  V30 5574 H 513.226 2.83114 -3.04936 0
M  V30 5575 H 512.102 4.04794 -3.7072 0
M  V30 5576 H 512.363 3.95655 -1.97255 0
M  V30 5577 N 511.423 1.38739 0.74761 0
M  V30 5578 C 512.355 1.32341 1.87132 0
M  V30 5579 C 513.368 0.234502 1.61102 0
M  V30 5580 O 514.557 0.492516 1.71571 0
M  V30 5581 C 511.657 1.02915 3.22896 0
M  V30 5582 C 510.83 2.22834 3.76383 0
M  V30 5583 C 509.889 1.90059 4.90677 0
M  V30 5584 O 508.915 2.62615 5.04997 0
M  V30 5585 N 510.117 0.859141 5.74107 0
M  V30 5586 H 512.882 2.29175 1.93129 0
M  V30 5587 H 510.443 1.32678 0.927805 0
M  V30 5588 H 512.435 0.79031 3.96908 0
M  V30 5589 H 511.005 0.148572 3.12247 0
M  V30 5590 H 510.225 2.62747 2.93867 0
M  V30 5591 H 511.513 3.02851 4.08851 0
M  V30 5592 H 510.911 0.257564 5.65113 0
M  V30 5593 H 509.468 0.680189 6.48241 0
M  V30 5594 N 512.901 -0.976442 1.23707 0
M  V30 5595 C 514.178 -1.69296 0.979699 0
M  V30 5596 C 514.558 -2.0508 -0.500555 0
M  V30 5597 O 513.906 -1.74708 -1.47273 0
M  V30 5598 C 514.116 -2.93143 1.89389 0
M  V30 5599 C 515.464 -3.65572 2.15968 0
M  V30 5600 O 516.488 -3.03184 1.86971 0
M  V30 5601 O 515.347 -4.77859 2.65167 0
M  V30 5602 H 512.441 -0.739708 0.369812 0
M  V30 5603 H 514.987 -1.03131 1.34767 0
M  V30 5604 H 513.759 -2.63327 2.89439 0
M  V30 5605 H 513.382 -3.67044 1.52854 0
M  V30 5606 N 514.379 -1.04941 -1.1758 0
M  V30 5607 C 515.309 -0.669172 -2.23706 0
M  V30 5608 C 516.29 0.331835 -1.66832 0
M  V30 5609 O 517.475 0.209988 -1.93061 0
M  V30 5610 C 514.605 -0.0404889 -3.47276 0
M  V30 5611 C 513.559 -0.965983 -4.16957 0
M  V30 5612 C 512.885 -0.201312 -5.34321 0
M  V30 5613 C 514.185 -2.28902 -4.69469 0
M  V30 5614 H 515.879 -1.55639 -2.55767 0
M  V30 5615 H 513.425 -0.749793 -1.22939 0
M  V30 5616 H 515.378 0.237298 -4.20731 0
M  V30 5617 H 514.102 0.881658 -3.14475 0
M  V30 5618 H 512.761 -1.22829 -3.45411 0
M  V30 5619 H 512.409 0.723519 -4.97769 0
M  V30 5620 H 512.109 -0.817968 -5.81879 0
M  V30 5621 H 513.633 0.0692499 -6.10561 0
M  V30 5622 H 515.047 -2.07132 -5.34574 0
M  V30 5623 H 513.444 -2.85942 -5.27596 0
M  V30 5624 H 514.514 -2.92937 -3.86414 0
M  V30 5625 N 515.857 1.33968 -0.830081 0
M  V30 5626 C 517.082 2.02813 -0.433796 0
M  V30 5627 C 517.507 1.62076 0.954614 0
M  V30 5628 O 516.865 0.808955 1.62252 0
M  V30 5629 C 516.913 3.56348 -0.552115 0
M  V30 5630 O 516.017 4.10202 0.425191 0
M  V30 5631 H 515.358 0.639817 -0.177567 0
M  V30 5632 H 517.888 1.7106 -1.12248 0
M  V30 5633 H 517.898 4.05722 -0.430513 0
M  V30 5634 H 516.573 3.85344 -1.56471 0
M  V30 5635 H 515.15 3.71979 0.261878 0
M  V30 5636 N 517.335 0.585699 1.46312 0
M  V30 5637 C 518.56 0.0762461 2.0726 0
M  V30 5638 C 518.985 -1.22071 1.43109 0
M  V30 5639 O 518.343 -1.73804 0.515942 0
M  V30 5640 C 518.391 -0.0729404 3.60526 0
M  V30 5641 O 517.495 -1.1287 3.96654 0
M  V30 5642 H 516.836 0.0641558 0.660893 0
M  V30 5643 H 519.366 0.809492 1.87905 0
M  V30 5644 H 519.376 -0.278158 4.07051 0
M  V30 5645 H 518.051 0.874188 4.06609 0
M  V30 5646 H 516.628 -0.901703 3.61834 0
M  V30 5647 N 518.813 -1.54241 0.323641 0
M  V30 5648 C 520.06 -2.0057 -0.27891 0
M  V30 5649 C 520.388 -1.21181 -1.52136 0
M  V30 5650 O 519.643 -0.282043 -1.93657 0
M  V30 5651 C 519.942 -3.5129 -0.658031 0
M  V30 5652 C 519.608 -4.48281 0.485252 0
M  V30 5653 C 518.27 -4.74519 0.799055 0
M  V30 5654 C 520.622 -5.05909 1.25322 0
M  V30 5655 C 517.95 -5.55643 1.88354 0
M  V30 5656 C 520.302 -5.88215 2.32779 0
M  V30 5657 C 518.966 -6.12755 2.64741 0
M  V30 5658 H 518.236 -0.733938 -0.10206 0
M  V30 5659 H 520.883 -1.862 0.447435 0
M  V30 5660 H 519.188 -3.63388 -1.4648 0
M  V30 5661 H 520.885 -3.84578 -1.1358 0
M  V30 5662 H 517.475 -4.27979 0.230593 0
M  V30 5663 H 521.659 -4.8562 1.02404 0
M  V30 5664 H 516.915 -5.72888 2.13564 0
M  V30 5665 H 521.089 -6.31888 2.92729 0
M  V30 5666 H 518.716 -6.75404 3.48904 0
M  V30 5667 N 520.291 -0.0518155 -1.57515 0
M  V30 5668 C 521.568 0.661727 -1.84067 0
M  V30 5669 C 521.948 1.88999 -0.940351 0
M  V30 5670 O 521.296 2.285 -0.00155404 0
M  V30 5671 C 521.506 1.01841 -3.3381 0
M  V30 5672 C 522.854 1.40043 -4.00841 0
M  V30 5673 O 523.878 1.11073 -3.38439 0
M  V30 5674 O 522.737 1.94111 -5.10865 0
M  V30 5675 H 519.831 0.326702 -0.759733 0
M  V30 5676 H 522.377 -0.0812277 -1.69505 0
M  V30 5677 H 521.149 0.145202 -3.91031 0
M  V30 5678 H 520.772 1.81879 -3.53562 0
M  V30 5679 N 521.769 1.56035 0.221574 0
M  V30 5680 C 522.679 1.95581 1.29558 0
M  V30 5681 C 523.695 0.859639 1.51282 0
M  V30 5682 O 524.871 1.16321 1.64413 0
M  V30 5683 C 521.936 2.26447 2.62531 0
M  V30 5684 C 520.997 3.49632 2.4911 0
M  V30 5685 C 520.23 3.79017 3.75742 0
M  V30 5686 O 520.453 3.10077 4.78757 0
M  V30 5687 O 519.387 4.72507 3.72855 0
M  V30 5688 H 523.213 2.8711 0.990035 0
M  V30 5689 H 520.798 1.43244 0.424434 0
M  V30 5690 H 522.68 2.47494 3.41064 0
M  V30 5691 H 521.355 1.38092 2.92766 0
M  V30 5692 H 520.262 3.33864 1.68777 0
M  V30 5693 H 521.595 4.3837 2.23814 0
M  V30 5694 N 523.247 -0.488276 1.49845 0
M  V30 5695 C 524.477 -1.26344 1.63465 0
M  V30 5696 C 524.885 -1.86637 0.310379 0
M  V30 5697 O 524.228 -1.69184 -0.715712 0
M  V30 5698 C 524.29 -2.42407 2.65479 0
M  V30 5699 C 523.954 -2.02886 4.09495 0
M  V30 5700 C 524.951 -1.56124 4.95904 0
M  V30 5701 C 522.636 -2.12131 4.55308 0
M  V30 5702 C 524.63 -1.19129 6.26169 0
M  V30 5703 C 522.317 -1.74747 5.85582 0
M  V30 5704 C 523.315 -1.28322 6.70837 0
M  V30 5705 O 523.003 -0.914491 7.98682 0
M  V30 5706 H 522.735 -0.388921 0.552916 0
M  V30 5707 H 525.289 -0.591288 1.96705 0
M  V30 5708 H 523.519 -3.12739 2.27445 0
M  V30 5709 H 525.208 -3.04409 2.68495 0
M  V30 5710 H 525.974 -1.48417 4.61733 0
M  V30 5711 H 521.853 -2.47217 3.89107 0
M  V30 5712 H 525.397 -0.828211 6.92666 0
M  V30 5713 H 521.294 -1.82109 6.19279 0
M  V30 5714 H 522.062 -1.04485 8.11804 0
M  V30 5715 N 524.725 -1.39134 -0.740242 0
M  V30 5716 C 525.95 -1.39518 -1.53459 0
M  V30 5717 C 526.375 0.00968883 -1.88098 0
M  V30 5718 O 525.733 0.995312 -1.51536 0
M  V30 5719 C 525.781 -2.26981 -2.802 0
M  V30 5720 O 524.885 -1.69609 -3.75908 0
M  V30 5721 H 524.226 -0.475328 -0.463637 0
M  V30 5722 H 526.756 -1.83064 -0.913717 0
M  V30 5723 H 526.766 -2.41309 -3.28989 0
M  V30 5724 H 525.441 -3.29081 -2.5432 0
M  V30 5725 H 524.018 -1.64495 -3.34658 0
M  V30 5726 N 526.204 0.969867 -1.24223 0
M  V30 5727 C 527.429 1.75289 -1.10853 0
M  V30 5728 C 527.854 1.85091 0.335079 0
M  V30 5729 O 527.212 1.32024 1.24255 0
M  V30 5730 C 527.26 3.15255 -1.75062 0
M  V30 5731 O 526.364 3.99589 -1.01992 0
M  V30 5732 H 525.705 0.538904 -0.387915 0
M  V30 5733 H 528.235 1.21675 -1.64488 0
M  V30 5734 H 528.245 3.65787 -1.80731 0
M  V30 5735 H 526.92 3.07436 -2.801 0
M  V30 5736 H 525.497 3.58077 -1.04094 0
M  V30 5737 N 527.682 1.05563 1.17022 0
M  V30 5738 C 528.592 0.670758 2.24807 0
M  V30 5739 C 529.608 -0.309865 1.71219 0
M  V30 5740 O 530.784 -0.161025 2.00755 0
M  V30 5741 C 527.849 0.055337 3.46656 0
M  V30 5742 C 526.91 1.08688 4.15314 0
M  V30 5743 C 526.143 0.500736 5.31346 0
M  V30 5744 O 526.366 -0.688718 5.66227 0
M  V30 5745 O 525.3 1.23683 5.89055 0
M  V30 5746 H 529.126 1.56914 2.60023 0
M  V30 5747 H 526.711 0.827428 1.24395 0
M  V30 5748 H 528.593 -0.286492 4.20425 0
M  V30 5749 H 527.268 -0.816638 3.13229 0
M  V30 5750 H 526.175 1.48077 3.43546 0
M  V30 5751 H 527.508 1.93014 4.52777 0
M  V30 5752 N 529.16 -1.33526 0.837174 0
M  V30 5753 C 530.09 -2.31764 0.284206 0
M  V30 5754 C 531.071 -1.58896 -0.607142 0
M  V30 5755 O 532.256 -1.86798 -0.531047 0
M  V30 5756 C 529.386 -3.43029 -0.542962 0
M  V30 5757 C 528.34 -4.27255 0.252451 0
M  V30 5758 C 527.666 -5.3012 -0.69836 0
M  V30 5759 C 528.966 -5.01229 1.46858 0
M  V30 5760 H 530.66 -2.78262 1.10502 0
M  V30 5761 H 528.206 -1.3378 0.532812 0
M  V30 5762 H 530.159 -4.1078 -0.940096 0
M  V30 5763 H 528.883 -2.95216 -1.39697 0
M  V30 5764 H 527.542 -3.61127 0.631124 0
M  V30 5765 H 527.19 -4.78564 -1.54872 0
M  V30 5766 H 526.89 -5.87353 -0.170274 0
M  V30 5767 H 528.414 -6.00737 -1.09305 0
M  V30 5768 H 529.828 -5.61756 1.14469 0
M  V30 5769 H 528.225 -5.68104 1.93333 0
M  V30 5770 H 529.295 -4.301 2.23924 0
M  V30 5771 N 530.638 -0.59345 -1.46 0
M  V30 5772 C 531.585 0.133618 -2.30413 0
M  V30 5773 C 532.555 0.873736 -1.41262 0
M  V30 5774 O 533.74 0.862279 -1.70204 0
M  V30 5775 C 530.88 1.13434 -3.25924 0
M  V30 5776 C 529.993 0.39656 -4.30176 0
M  V30 5777 C 529.128 1.38575 -5.12806 0
M  V30 5778 C 528.167 0.634984 -6.08797 0
M  V30 5779 N 527.304 1.57276 -6.84258 0
M  V30 5780 H 532.144 -0.592252 -2.92055 0
M  V30 5781 H 529.681 -0.303874 -1.43927 0
M  V30 5782 H 531.639 1.72752 -3.79753 0
M  V30 5783 H 530.269 1.82779 -2.66067 0
M  V30 5784 H 529.321 -0.311861 -3.79119 0
M  V30 5785 H 530.633 -0.189869 -4.98438 0
M  V30 5786 H 529.787 2.05141 -5.70966 0
M  V30 5787 H 528.526 2.00611 -4.44529 0
M  V30 5788 H 527.531 -0.0443925 -5.49782 0
M  V30 5789 H 528.756 0.0198678 -6.79097 0
M  V30 5790 H 526.702 2.18103 -6.18682 0
M  V30 5791 H 526.619 1.03941 -7.48821 0
M  V30 5792 H 527.887 2.22844 -7.46968 0
M  V30 5793 N 532.116 1.54067 -0.331816 0
M  V30 5794 C 533.341 2.05599 0.272705 0
M  V30 5795 C 533.766 1.2059 1.44359 0
M  V30 5796 O 533.124 0.216907 1.79998 0
M  V30 5797 C 533.172 3.54188 0.677021 0
M  V30 5798 O 532.276 3.72082 1.77844 0
M  V30 5799 H 531.617 0.662286 0.0476801 0
M  V30 5800 H 534.147 1.98826 -0.482624 0
M  V30 5801 H 534.157 3.96608 0.957415 0
M  V30 5802 H 532.832 4.15513 -0.179325 0
M  V30 5803 H 531.409 3.41566 1.49622 0
M  V30 5804 N 533.594 0.0601682 1.57485 0
M  V30 5805 C 534.842 -0.610386 1.92662 0
M  V30 5806 C 535.163 -1.70849 0.939981 0
M  V30 5807 O 534.433 -1.95895 -0.0137455 0
M  V30 5808 H 533.013 -0.228457 0.711208 0
M  V30 5809 H 535.675 0.115288 1.94559 0
M  V30 5810 H 534.771 -1.0432 2.94149 0
M  V30 5811 N 535.072 -1.5615 -0.213296 0
M  V30 5812 C 536.488 -1.49327 -0.56336 0
M  V30 5813 C 536.688 -0.756826 -1.86747 0
M  V30 5814 O 535.744 -0.299866 -2.50713 0
M  V30 5815 C 537.057 -2.9392 -0.634944 0
M  V30 5816 C 538.605 -3.04487 -0.725013 0
M  V30 5817 C 539.08 -4.50456 -0.82787 0
M  V30 5818 N 540.571 -4.54533 -0.891876 0
M  V30 5819 C 541.306 -5.64766 -0.991315 0
M  V30 5820 N 540.802 -6.84733 -1.05419 0
M  V30 5821 N 542.595 -5.52637 -1.02709 0
M  V30 5822 H 534.746 -2.02453 0.642366 0
M  V30 5823 H 537.009 -0.920548 0.226487 0
M  V30 5824 H 536.715 -3.50783 0.253859 0
M  V30 5825 H 536.589 -3.46274 -1.49579 0
M  V30 5826 H 538.976 -2.47685 -1.60425 0
M  V30 5827 H 539.057 -2.55289 0.161669 0
M  V30 5828 H 538.701 -5.07878 0.0469464 0
M  V30 5829 H 538.631 -4.97369 -1.73009 0
M  V30 5830 H 541.122 -3.68141 -0.85327 0
M  V30 5831 H 541.435 -7.64493 -1.13007 0
M  V30 5832 H 539.78 -6.87427 -1.02318 0
M  V30 5833 H 542.971 -4.5784 -0.974687 0
M  V30 5834 H 543.144 -6.38576 -1.10113 0
M  V30 5835 N 536.55 0.480323 -1.50102 0
M  V30 5836 C 537.48 1.58769 -1.71215 0
M  V30 5837 C 538.461 1.60583 -0.560997 0
M  V30 5838 O 539.646 1.76996 -0.799127 0
M  V30 5839 C 536.776 2.97148 -1.79778 0
M  V30 5840 C 535.73 3.10201 -2.94888 0
M  V30 5841 C 535.056 4.50137 -2.88584 0
M  V30 5842 C 536.356 2.88283 -4.35534 0
M  V30 5843 H 538.05 1.41354 -2.6393 0
M  V30 5844 H 535.596 0.678591 -1.27008 0
M  V30 5845 H 537.549 3.74536 -1.93133 0
M  V30 5846 H 536.273 3.15699 -0.836772 0
M  V30 5847 H 534.932 2.35244 -2.81169 0
M  V30 5848 H 534.58 4.65593 -1.90349 0
M  V30 5849 H 534.28 4.59808 -3.65856 0
M  V30 5850 H 535.804 5.29558 -3.03976 0
M  V30 5851 H 537.218 3.55427 -4.49827 0
M  V30 5852 H 535.615 3.09408 -5.14186 0
M  V30 5853 H 536.685 1.84219 -4.48544 0
M  V30 5854 N 538.028 1.39524 0.732853 0
M  V30 5855 C 538.938 1.40695 1.87729 0
M  V30 5856 C 539.954 0.301496 1.71368 0
M  V30 5857 O 541.13 0.543313 1.93933 0
M  V30 5858 C 538.195 1.25098 3.23344 0
M  V30 5859 C 537.256 2.45634 3.52083 0
M  V30 5860 C 536.489 2.30772 4.81228 0
M  V30 5861 O 536.712 1.31233 5.55098 0
M  V30 5862 O 535.646 3.19799 5.09914 0
M  V30 5863 H 539.472 2.37168 1.89697 0
M  V30 5864 H 537.057 1.20663 0.880959 0
M  V30 5865 H 538.939 1.18541 4.04383 0
M  V30 5866 H 537.614 0.317209 3.22142 0
M  V30 5867 H 536.521 2.57767 2.71122 0
M  V30 5868 H 537.854 3.37712 3.58066 0
M  V30 5869 N 539.506 -0.963266 1.24736 0
M  V30 5870 C 540.752 -1.71 1.10139 0
M  V30 5871 C 541.107 -1.89089 -0.35541 0
M  V30 5872 O 540.4 -1.44451 -1.25875 0
M  V30 5873 C 540.594 -3.09944 1.7796 0
M  V30 5874 C 540.423 -3.05408 3.30085 0
M  V30 5875 C 539.193 -3.09643 3.99311 0
M  V30 5876 C 541.391 -2.87241 4.26611 0
M  V30 5877 N 539.373 -2.95174 5.3828 0
M  V30 5878 C 540.744 -2.81114 5.52607 0
M  V30 5879 C 542.799 -2.71856 4.17132 0
M  V30 5880 C 541.502 -2.61174 6.70209 0
M  V30 5881 C 543.528 -2.53284 5.34417 0
M  V30 5882 C 542.89 -2.4787 6.59348 0
M  V30 5883 H 538.989 -0.634078 0.457678 0
M  V30 5884 H 541.573 -1.14169 1.57713 0
M  V30 5885 H 539.744 -3.64958 1.32893 0
M  V30 5886 H 541.476 -3.73348 1.56183 0
M  V30 5887 H 538.231 -3.18498 3.50508 0
M  V30 5888 H 538.655 -2.91168 6.11188 0
M  V30 5889 H 543.297 -2.74821 3.21299 0
M  V30 5890 H 541.015 -2.56952 7.6616 0
M  V30 5891 H 544.601 -2.42317 5.28936 0
M  V30 5892 H 543.481 -2.33685 7.48573 0
M  V30 5893 N 540.985 -1.06182 -1.16461 0
M  V30 5894 C 542.21 -0.798599 -1.91408 0
M  V30 5895 C 542.635 0.640987 -1.76842 0
M  V30 5896 O 541.993 1.44652 -1.09296 0
M  V30 5897 C 542.041 -1.19665 -3.40165 0
M  V30 5898 O 541.145 -0.334768 -4.11039 0
M  V30 5899 H 540.486 -0.291961 -0.596368 0
M  V30 5900 H 543.016 -1.41732 -1.47557 0
M  V30 5901 H 543.026 -1.16772 -3.90933 0
M  V30 5902 H 541.701 -2.24526 -3.50087 0
M  V30 5903 H 540.278 -0.425168 -3.70468 0
M  V30 5904 N 542.463 1.3308 -0.844243 0
M  V30 5905 C 543.874 1.7992 -0.498566 0
M  V30 5906 C 544.225 1.69808 0.982834 0
M  V30 5907 O 543.35 1.25051 1.7661 0
M  V30 5908 C 543.945 3.26677 -0.898204 0
M  V30 5909 C 542.504 3.71513 -0.604583 0
M  V30 5910 C 541.651 2.54393 -1.10362 0
M  V30 5911 H 544.602 1.20526 -1.03244 0
M  V30 5912 H 544.623 3.79918 -0.21039 0
M  V30 5913 H 544.135 3.34004 -1.97643 0
M  V30 5914 H 542.236 3.69708 0.46335 0
M  V30 5915 H 542.349 4.64755 -1.16358 0
M  V30 5916 H 540.713 2.49246 -0.524273 0
M  V30 5917 H 541.496 2.6448 -2.18873 0
M  V30 5918 N 543.941 0.601185 1.45683 0
M  V30 5919 C 545.187 0.0940202 2.02582 0
M  V30 5920 C 545.52 -1.26972 1.46941 0
M  V30 5921 O 544.795 -1.83613 0.641612 0
M  V30 5922 C 545.078 0.0481715 3.60068 0
M  V30 5923 C 544.931 1.44212 4.26055 0
M  V30 5924 C 546.25 -0.642975 4.35378 0
M  V30 5925 H 543.369 0.0356404 0.736138 0
M  V30 5926 H 546.011 0.771929 1.73612 0
M  V30 5927 H 544.161 -0.529128 3.8488 0
M  V30 5928 H 545.833 2.06601 4.12449 0
M  V30 5929 H 544.076 2.00465 3.84703 0
M  V30 5930 H 544.747 1.36234 5.34925 0
M  V30 5931 H 547.223 -0.152351 4.15821 0
M  V30 5932 H 546.099 -0.644141 5.45107 0
M  V30 5933 H 546.36 -1.70785 4.0778 0
M  V30 5934 N 545.419 -1.53889 0.339982 0
M  V30 5935 C 546.369 -2.2165 -0.534354 0
M  V30 5936 C 547.353 -1.20266 -1.06887 0
M  V30 5937 O 548.545 -1.45827 -1.00316 0
M  V30 5938 C 545.674 -2.99014 -1.68659 0
M  V30 5939 C 544.76 -4.07751 -1.16618 0
M  V30 5940 N 545.151 -5.04469 -0.366717 0
M  V30 5941 C 543.449 -4.21998 -1.4434 0
M  V30 5942 C 544.15 -5.81638 -0.0847275 0
M  V30 5943 N 543.126 -5.39388 -0.675391 0
M  V30 5944 H 546.928 -2.93781 0.0835562 0
M  V30 5945 H 544.442 -1.61736 0.146665 0
M  V30 5946 H 546.439 -3.46056 -2.32489 0
M  V30 5947 H 545.099 -2.28408 -2.30781 0
M  V30 5948 H 546.11 -5.17899 -0.00811038 0
M  V30 5949 H 542.787 -3.62612 -2.06928 0
M  V30 5950 H 544.177 -6.69563 0.559943 0
M  V30 5951 N 546.897 -0.0685191 -1.57451 0
M  V30 5952 C 547.844 0.899861 -2.12535 0
M  V30 5953 C 548.814 1.29749 -1.03703 0
M  V30 5954 O 549.999 1.38392 -1.31348 0
M  V30 5955 C 547.139 2.16328 -2.6888 0
M  V30 5956 C 546.252 1.81857 -3.91857 0
M  V30 5957 C 545.387 3.02786 -4.36457 0
M  V30 5958 C 544.426 2.64317 -5.5209 0
M  V30 5959 N 543.563 3.77994 -5.91663 0
M  V30 5960 H 548.403 0.423243 -2.94979 0
M  V30 5961 H 545.94 0.197268 -1.45771 0
M  V30 5962 H 547.898 2.90281 -2.99655 0
M  V30 5963 H 546.528 2.61536 -1.89206 0
M  V30 5964 H 545.58 0.979808 -3.67565 0
M  V30 5965 H 546.892 1.49553 -4.75852 0
M  V30 5966 H 546.046 3.85021 -4.68875 0
M  V30 5967 H 544.785 3.38281 -3.51308 0
M  V30 5968 H 543.79 1.80503 -5.19325 0
M  V30 5969 H 545.015 2.29995 -6.38967 0
M  V30 5970 H 542.961 4.13258 -5.09464 0
M  V30 5971 H 542.878 3.49447 -6.7039 0
M  V30 5972 H 544.146 4.60818 -6.28703 0
M  V30 5973 N 548.375 1.56261 0.205012 0
M  V30 5974 C 549.6 1.84491 0.947512 0
M  V30 5975 C 550.025 0.650894 1.76479 0
M  V30 5976 O 549.383 -0.40035 1.76824 0
M  V30 5977 C 549.431 3.10863 1.82747 0
M  V30 5978 O 548.535 2.90719 2.925 0
M  V30 5979 H 547.876 0.607783 0.267386 0
M  V30 5980 H 550.406 2.03485 0.213323 0
M  V30 5981 H 550.416 3.41399 2.23407 0
M  V30 5982 H 549.091 3.97392 1.2269 0
M  V30 5983 H 547.668 2.71457 2.55667 0
M  V30 5984 N 549.853 -0.472356 1.50355 0
M  V30 5985 C 550.763 -1.59637 1.7191 0
M  V30 5986 C 551.779 -1.63247 0.602195 0
M  V30 5987 O 552.955 -1.81139 0.880369 0
M  V30 5988 C 550.02 -2.9586 1.80742 0
M  V30 5989 C 549.081 -3.02649 3.04471 0
M  V30 5990 C 548.314 -4.32374 3.12872 0
M  V30 5991 O 548.537 -5.22807 2.28099 0
M  V30 5992 O 547.471 -4.44728 4.05587 0
M  V30 5993 H 551.297 -1.44373 2.67189 0
M  V30 5994 H 548.882 -0.651717 1.34436 0
M  V30 5995 H 550.764 -3.7677 1.88739 0
M  V30 5996 H 549.439 -3.11325 0.88647 0
M  V30 5997 H 548.346 -2.20821 3.01975 0
M  V30 5998 H 549.679 -2.92119 3.9614 0
M  V30 5999 N 551.331 -1.39911 -0.725443 0
M  V30 6000 C 552.278 -1.39393 -1.83952 0
M  V30 6001 C 553.248 -0.252249 -1.64173 0
M  V30 6002 O 554.433 -0.44882 -1.85446 0
M  V30 6003 C 551.573 -1.25262 -3.21564 0
M  V30 6004 C 550.686 -2.49054 -3.52982 0
M  V30 6005 C 549.821 -2.27439 -4.80047 0
M  V30 6006 C 548.86 -3.46857 -5.04338 0
M  V30 6007 N 547.997 -3.24499 -6.22611 0
M  V30 6008 H 552.837 -2.34622 -1.83729 0
M  V30 6009 H 550.374 -1.16537 -0.897636 0
M  V30 6010 H 552.332 -1.15077 -4.01015 0
M  V30 6011 H 550.962 -0.33657 -3.21041 0
M  V30 6012 H 550.014 -2.69805 -2.6816 0
M  V30 6013 H 551.326 -3.37973 -3.66846 0
M  V30 6014 H 550.48 -2.14551 -5.67497 0
M  V30 6015 H 549.219 -1.35929 -4.68374 0
M  V30 6016 H 548.224 -3.60232 -4.15346 0
M  V30 6017 H 549.449 -4.3928 -5.17889 0
M  V30 6018 H 547.395 -2.35663 -6.12208 0
M  V30 6019 H 547.312 -4.06978 -6.37106 0
M  V30 6020 H 548.58 -3.15325 -7.12875 0
M  V30 6021 N 552.809 0.956637 -1.25245 0
M  V30 6022 C 554.056 1.701 -1.09874 0
M  V30 6023 C 554.384 1.91128 0.36062 0
M  V30 6024 O 553.639 1.47837 1.28229 0
M  V30 6025 C 553.938 3.08996 -1.79601 0
M  V30 6026 C 553.604 3.07774 -3.29523 0
M  V30 6027 C 552.266 3.07149 -3.70423 0
M  V30 6028 C 554.618 3.01257 -4.25316 0
M  V30 6029 C 551.946 2.97752 -5.0553 0
M  V30 6030 C 554.298 2.93403 -5.60444 0
M  V30 6031 C 552.962 2.91111 -6.00675 0
M  V30 6032 H 552.232 0.62244 -0.402056 0
M  V30 6033 H 554.879 1.1178 -1.55491 0
M  V30 6034 H 553.184 3.70848 -1.26408 0
M  V30 6035 H 554.881 3.65407 -1.65162 0
M  V30 6036 H 551.471 3.09032 -2.9698 0
M  V30 6037 H 555.655 3.00861 -3.9471 0
M  V30 6038 H 550.911 2.94346 -5.35883 0
M  V30 6039 H 555.085 2.87321 -6.34366 0
M  V30 6040 H 552.712 2.83586 -7.05325 0
M  V30 6041 N 554.287 1.06798 1.15896 0
M  V30 6042 C 555.533 0.798757 1.8706 0
M  V30 6043 C 555.888 -0.667739 1.80441 0
M  V30 6044 O 555.181 -1.48334 1.21274 0
M  V30 6045 C 555.375 1.23414 3.35416 0
M  V30 6046 C 555.204 2.74142 3.56478 0
M  V30 6047 C 553.974 3.41675 3.72272 0
M  V30 6048 C 556.172 3.72348 3.5477 0
M  V30 6049 N 554.154 4.81101 3.81333 0
M  V30 6050 C 555.525 4.97585 3.69877 0
M  V30 6051 C 557.58 3.65585 3.38011 0
M  V30 6052 C 556.283 6.16866 3.69959 0
M  V30 6053 C 558.309 4.84323 3.39389 0
M  V30 6054 C 557.671 6.08391 3.5502 0
M  V30 6055 H 553.77 0.344761 0.7019 0
M  V30 6056 H 556.354 1.36314 1.3902 0
M  V30 6057 H 554.525 0.697522 3.82085 0
M  V30 6058 H 556.257 0.91304 3.94266 0
M  V30 6059 H 553.012 2.92078 3.7281 0
M  V30 6060 H 553.436 5.53647 3.8962 0
M  V30 6061 H 558.078 2.70615 3.2485 0
M  V30 6062 H 555.796 7.12164 3.819 0
M  V30 6063 H 559.382 4.80762 3.27658 0
M  V30 6064 H 558.262 6.98731 3.56012 0
M  V30 6065 N 555.766 -1.3263 0.851289 0
M  V30 6066 C 557.182 -1.50162 0.5407 0
M  V30 6067 C 557.382 -1.78788 -0.929369 0
M  V30 6068 O 556.438 -1.85545 -1.71258 0
M  V30 6069 C 557.751 -2.64803 1.42478 0
M  V30 6070 C 559.299 -2.78688 1.42485 0
M  V30 6071 C 559.774 -3.96405 2.29407 0
M  V30 6072 N 561.265 -4.0366 2.27184 0
M  V30 6073 C 562 -4.93971 2.9117 0
M  V30 6074 N 561.496 -5.89313 3.64256 0
M  V30 6075 N 563.289 -4.87066 2.80576 0
M  V30 6076 H 555.44 -1.12315 1.80275 0
M  V30 6077 H 557.703 -0.553266 0.769806 0
M  V30 6078 H 557.409 -2.50368 2.46999 0
M  V30 6079 H 557.283 -3.60506 1.10974 0
M  V30 6080 H 559.67 -2.92547 0.387304 0
M  V30 6081 H 559.751 -1.83708 1.78002 0
M  V30 6082 H 559.395 -3.83304 3.33228 0
M  V30 6083 H 559.325 -4.90654 1.91224 0
M  V30 6084 H 561.816 -3.35435 1.74045 0
M  V30 6085 H 562.129 -6.54913 4.10255 0
M  V30 6086 H 560.474 -5.8935 3.68364 0
M  V30 6087 H 563.665 -4.11552 2.23031 0
M  V30 6088 H 563.838 -5.57248 3.30725 0
M  V30 6089 N 557.244 -0.608902 -1.45362 0
M  V30 6090 C 558.154 0.110969 -2.34337 0
M  V30 6091 C 559.17 0.859007 -1.51318 0
M  V30 6092 O 560.346 0.816296 -1.84116 0
M  V30 6093 C 557.411 1.09494 -3.28956 0
M  V30 6094 C 556.472 0.348718 -4.27881 0
M  V30 6095 C 555.705 1.28582 -5.17979 0
M  V30 6096 O 555.928 2.52369 -5.11533 0
M  V30 6097 O 554.862 0.782172 -5.96796 0
M  V30 6098 H 558.688 -0.620258 -2.97299 0
M  V30 6099 H 556.273 -0.36916 -1.44767 0
M  V30 6100 H 558.155 1.66163 -3.87257 0
M  V30 6101 H 556.83 1.80717 -2.68557 0
M  V30 6102 H 555.737 -0.260465 -3.73192 0
M  V30 6103 H 557.07 -0.323049 -4.91139 0
M  V30 6104 N 558.722 1.53707 -0.348139 0
M  V30 6105 C 559.67 2.26671 0.521808 0
M  V30 6106 C 560.664 1.28988 1.09811 0
M  V30 6107 O 561.87 1.4668 1.04332 0
M  V30 6108 H 558.245 0.728387 0.186968 0
M  V30 6109 H 560.216 2.98176 -0.115563 0
M  V30 6110 C 558.965 3.05591 1.6586 0
M  V30 6111 H 558.288 3.80589 1.22443 0
M  V30 6112 H 559.728 3.59851 2.24239 0
M  V30 6113 C 558.187 2.15366 2.59073 0
M  V30 6114 O 558.717 1.7528 3.61441 0
M  V30 6115 N 556.923 1.80352 2.27863 0
M  V30 6116 H 556.47 2.13149 1.44656 0
M  V30 6117 H 556.428 1.20268 2.90488 0
M  V30 6118 N 560.2 0.0768682 1.57412 0
M  V30 6119 C 561.163 -0.873949 2.11884 0
M  V30 6120 C 562.163 -1.22301 1.04398 0
M  V30 6121 O 563.353 -1.15545 1.30365 0
M  V30 6122 C 560.485 -2.17575 2.62438 0
M  V30 6123 H 561.678 -0.401278 2.97203 0
M  V30 6124 H 559.231 -0.171904 1.55352 0
M  V30 6125 H 559.966 -2.69368 1.80587 0
M  V30 6126 H 559.751 -1.93534 3.41009 0
M  V30 6127 H 561.241 -2.85631 3.04639 0
M  V30 6128 N 561.678 -1.56367 -0.196722 0
M  V30 6129 C 562.924 -1.80796 -0.918725 0
M  V30 6130 C 563.257 -0.650645 -1.82976 0
M  V30 6131 O 562.532 0.348889 -1.91345 0
M  V30 6132 C 562.815 -3.15472 -1.73636 0
M  V30 6133 C 562.668 -4.41693 -0.85015 0
M  V30 6134 C 563.987 -3.46824 -2.70927 0
M  V30 6135 H 561.106 -0.657702 -0.332561 0
M  V30 6136 H 563.748 -1.89086 -0.186186 0
M  V30 6137 H 561.898 -3.08536 -2.36088 0
M  V30 6138 H 563.57 -4.60673 -0.240459 0
M  V30 6139 H 561.813 -4.33517 -0.156785 0
M  V30 6140 H 562.484 -5.32419 -1.45719 0
M  V30 6141 H 564.96 -3.54049 -2.18607 0
M  V30 6142 H 563.836 -4.4218 -3.25219 0
M  V30 6143 H 564.097 -2.70236 -3.49893 0
M  V30 6144 N 563.156 0.464375 -1.50603 0
M  V30 6145 C 564.572 0.798684 -1.38178 0
M  V30 6146 C 564.772 1.96568 -0.44308 0
M  V30 6147 O 563.828 2.52252 0.111814 0
M  V30 6148 C 565.141 1.10444 -2.79683 0
M  V30 6149 C 566.689 1.2105 -2.88645 0
M  V30 6150 C 567.164 1.54934 -4.30998 0
M  V30 6151 N 568.655 1.61913 -4.3398 0
M  V30 6152 C 569.39 1.8965 -5.41129 0
M  V30 6153 N 568.886 2.15361 -6.58477 0
M  V30 6154 N 570.679 1.91207 -5.28579 0
M  V30 6155 H 562.83 -0.304603 -2.10204 0
M  V30 6156 H 565.093 -0.0737804 -0.945125 0
M  V30 6157 H 564.799 0.319934 -3.50242 0
M  V30 6158 H 564.673 2.03896 -3.17342 0
M  V30 6159 H 567.06 1.98567 -2.18301 0
M  V30 6160 H 567.141 0.255613 -2.5452 0
M  V30 6161 H 566.785 0.779549 -5.01882 0
M  V30 6162 H 566.715 2.51584 -4.62615 0
M  V30 6163 H 569.206 1.44055 -3.49366 0
M  V30 6164 H 569.519 2.35818 -7.35941 0
M  V30 6165 H 567.864 2.1274 -6.6164 0
M  V30 6166 H 571.055 1.70622 -4.35897 0
M  V30 6167 H 571.228 2.12488 -6.12171 0
M  V30 6168 N 564.634 1.40294 0.718013 0
M  V30 6169 C 565.564 1.43118 1.84498 0
M  V30 6170 C 566.545 0.292403 1.67568 0
M  V30 6171 O 567.73 0.500675 1.87635 0
M  V30 6172 C 564.86 1.29065 3.22427 0
M  V30 6173 C 563.814 2.40521 3.54025 0
M  V30 6174 C 563.14 2.11546 4.91073 0
M  V30 6175 C 564.44 3.82859 3.55269 0
M  V30 6176 H 566.134 2.37432 1.82391 0
M  V30 6177 H 563.68 1.14283 0.87609 0
M  V30 6178 H 565.633 1.29658 4.00957 0
M  V30 6179 H 564.357 0.312271 3.25104 0
M  V30 6180 H 563.016 2.39173 2.77834 0
M  V30 6181 H 562.664 1.12104 4.90348 0
M  V30 6182 H 562.364 2.86216 5.1318 0
M  V30 6183 H 563.888 2.13817 5.71939 0
M  V30 6184 H 565.302 3.86044 4.23843 0
M  V30 6185 H 563.699 4.57029 3.88902 0
M  V30 6186 H 564.769 4.12617 2.54706 0
M  V30 6187 N 566.112 -0.949982 1.2575 0
M  V30 6188 C 567.06 -2.06869 1.06339 0
M  V30 6189 C 568.054 -1.69399 -0.00708901 0
M  V30 6190 O 569.26 -1.79383 0.148897 0
M  V30 6191 H 565.635 -0.677197 0.326969 0
M  V30 6192 H 567.606 -2.20396 2.01167 0
M  V30 6193 C 566.355 -3.40503 0.703769 0
M  V30 6194 H 565.678 -3.69807 1.51931 0
M  V30 6195 H 567.118 -4.19623 0.607677 0
M  V30 6196 C 565.577 -3.31685 -0.5905 0
M  V30 6197 O 566.107 -3.67085 -1.63131 0
M  V30 6198 N 564.313 -2.84797 -0.577859 0
M  V30 6199 H 563.86 -2.56186 0.26951 0
M  V30 6200 H 563.818 -2.79279 -1.44398 0
M  V30 6201 N 567.59 -1.07411 -1.15328 0
M  V30 6202 C 568.5 -0.706438 -2.23711 0
M  V30 6203 C 569.516 0.282586 -1.7169 0
M  V30 6204 O 570.692 0.129066 -2.00986 0
M  V30 6205 C 567.757 -0.11048 -3.46524 0
M  V30 6206 C 566.818 -1.15282 -4.13532 0
M  V30 6207 C 566.051 -0.585205 -5.30482 0
M  V30 6208 O 566.274 0.598549 -5.67251 0
M  V30 6209 O 565.208 -1.33039 -5.87013 0
M  V30 6210 H 569.034 -1.61031 -2.57493 0
M  V30 6211 H 566.619 -0.847113 -1.23062 0
M  V30 6212 H 568.501 0.21957 -4.20828 0
M  V30 6213 H 567.176 0.766703 -3.14489 0
M  V30 6214 H 566.083 -1.53523 -3.41147 0
M  V30 6215 H 567.416 -2.00192 -4.49649 0
M  V30 6216 N 569.068 1.32177 -0.85831 0
M  V30 6217 C 570.015 2.28794 -0.303607 0
M  V30 6218 C 570.985 1.55213 0.591453 0
M  V30 6219 O 572.17 1.83418 0.525585 0
M  V30 6220 C 569.31 3.41475 0.49889 0
M  V30 6221 C 568.423 4.2993 -0.422373 0
M  V30 6222 C 567.558 5.29743 0.393111 0
M  V30 6223 C 566.597 6.09842 -0.525317 0
M  V30 6224 N 565.734 7.01643 0.253208 0
M  V30 6225 H 570.574 2.75631 -1.13276 0
M  V30 6226 H 568.111 1.35606 -0.570026 0
M  V30 6227 H 570.069 4.05531 0.979826 0
M  V30 6228 H 568.699 2.95779 1.29284 0
M  V30 6229 H 567.751 3.66422 -1.02171 0
M  V30 6230 H 569.063 4.85899 -1.12709 0
M  V30 6231 H 568.217 5.9942 0.937056 0
M  V30 6232 H 566.956 4.744 1.13117 0
M  V30 6233 H 565.961 5.39066 -1.08112 0
M  V30 6234 H 567.186 6.6727 -1.26205 0
M  V30 6235 H 565.132 6.48725 0.974295 0
M  V30 6236 H 565.049 7.54981 -0.392398 0
M  V30 6237 H 566.317 7.756 0.778761 0
M  V30 6238 N 570.547 0.616602 1.45037 0
M  V30 6239 C 571.495 -0.109318 2.32343 0
M  V30 6240 C 572.489 -0.850543 1.465 0
M  V30 6241 O 573.695 -0.765088 1.62931 0
M  V30 6242 H 570.07 -0.0541091 0.750051 0
M  V30 6243 H 572.041 0.645326 2.91338 0
M  V30 6244 C 570.79 -1.0872 3.30266 0
M  V30 6245 H 570.113 -0.526267 3.96321 0
M  V30 6246 H 571.553 -1.56489 3.94065 0
M  V30 6247 C 570.012 -2.16525 2.58105 0
M  V30 6248 O 570.542 -3.244 2.36913 0
M  V30 6249 N 568.748 -1.92057 2.18088 0
M  V30 6250 H 568.295 -1.04337 2.35524 0
M  V30 6251 H 568.253 -2.64391 1.70131 0
M  V30 6252 N 572.025 -1.5352 0.356285 0
M  V30 6253 C 573.255 -2.05236 -0.236983 0
M  V30 6254 C 573.663 -1.23016 -1.43749 0
M  V30 6255 O 573.006 -0.2615 -1.81829 0
M  V30 6256 C 573.068 -3.52549 -0.7035 0
M  V30 6257 C 572.732 -4.55425 0.379059 0
M  V30 6258 C 573.729 -5.0524 1.22592 0
M  V30 6259 C 571.414 -4.99425 0.536638 0
M  V30 6260 C 573.408 -5.97647 2.21578 0
M  V30 6261 C 571.095 -5.9164 1.52988 0
M  V30 6262 C 572.093 -6.4064 2.3679 0
M  V30 6263 O 571.781 -7.31039 3.34421 0
M  V30 6264 H 571.513 -0.674346 -0.047254 0
M  V30 6265 H 574.067 -1.98962 0.510238 0
M  V30 6266 H 572.297 -3.56331 -1.50217 0
M  V30 6267 H 573.986 -3.87171 -1.21873 0
M  V30 6268 H 574.752 -4.72002 1.11532 0
M  V30 6269 H 570.631 -4.60879 -0.105834 0
M  V30 6270 H 574.175 -6.35816 2.87025 0
M  V30 6271 H 570.072 -6.24293 1.64099 0
M  V30 6272 H 570.84 -7.49009 3.30041 0
M  V30 6273 N 573.503 -0.0852151 -1.57369 0
M  V30 6274 C 574.413 0.891712 -2.16992 0
M  V30 6275 C 575.429 1.3174 -1.13669 0
M  V30 6276 O 576.605 1.38735 -1.45995 0
M  V30 6277 C 573.67 2.13635 -2.73059 0
M  V30 6278 C 572.731 1.7658 -3.91303 0
M  V30 6279 C 571.964 2.95111 -4.44686 0
M  V30 6280 O 572.187 4.09539 -3.97032 0
M  V30 6281 O 571.121 2.74149 -5.35841 0
M  V30 6282 H 574.947 0.414477 -3.00858 0
M  V30 6283 H 572.532 0.138598 -1.48756 0
M  V30 6284 H 574.414 2.86595 -3.08935 0
M  V30 6285 H 573.089 2.6043 -1.92244 0
M  V30 6286 H 571.996 1.00831 -3.60255 0
M  V30 6287 H 573.329 1.34557 -4.7345 0
M  V30 6288 N 574.981 1.5647 0.188427 0
M  V30 6289 C 575.911 1.98101 1.23606 0
M  V30 6290 C 576.892 0.853961 1.47111 0
M  V30 6291 O 578.077 1.11879 1.58735 0
M  V30 6292 C 575.207 2.32624 2.57882 0
M  V30 6293 C 574.161 3.48129 2.48978 0
M  V30 6294 C 573.487 3.68347 3.87588 0
M  V30 6295 C 574.787 4.82112 2.00911 0
M  V30 6296 H 576.481 2.85864 0.890068 0
M  V30 6297 H 574.027 1.37532 0.426714 0
M  V30 6298 H 575.98 2.60343 3.3136 0
M  V30 6299 H 574.704 1.41751 2.94235 0
M  V30 6300 H 573.363 3.20511 1.77956 0
M  V30 6301 H 573.011 2.74793 4.21305 0
M  V30 6302 H 572.711 4.46055 3.82503 0
M  V30 6303 H 574.235 3.98449 4.62678 0
M  V30 6304 H 575.649 5.08819 2.64151 0
M  V30 6305 H 574.046 5.63337 2.06814 0
M  V30 6306 H 575.116 4.75249 0.96262 0
M  V30 6307 N 576.459 -0.456382 1.50847 0
M  V30 6308 C 577.389 -1.56025 1.73719 0
M  V30 6309 C 578.37 -1.5967 0.586473 0
M  V30 6310 O 579.555 -1.75702 0.827185 0
M  V30 6311 C 576.685 -2.94251 1.84483 0
M  V30 6312 C 575.639 -3.05471 2.99786 0
M  V30 6313 C 574.965 -4.45489 2.95709 0
M  V30 6314 C 576.265 -2.81318 4.40065 0
M  V30 6315 H 577.959 -1.37138 2.66146 0
M  V30 6316 H 575.505 -0.658299 1.28072 0
M  V30 6317 H 577.458 -3.71417 1.99067 0
M  V30 6318 H 576.182 -3.14328 0.886891 0
M  V30 6319 H 574.841 -2.30741 2.84876 0
M  V30 6320 H 574.489 -4.62505 1.97732 0
M  V30 6321 H 574.189 -4.53929 3.73125 0
M  V30 6322 H 575.713 -5.24655 3.12362 0
M  V30 6323 H 577.127 -3.48226 4.55425 0
M  V30 6324 H 575.524 -3.01188 5.19043 0
M  V30 6325 H 576.594 -1.7706 4.51418 0
M  V30 6326 N 577.937 -1.40673 -0.710563 0
M  V30 6327 C 578.884 -1.41336 -1.82463 0
M  V30 6328 C 579.854 -0.269648 -1.63897 0
M  V30 6329 O 581.039 -0.468463 -1.8496 0
M  V30 6330 C 578.179 -1.28665 -3.20218 0
M  V30 6331 C 577.292 -2.52784 -3.5032 0
M  V30 6332 C 576.427 -2.32517 -4.77608 0
M  V30 6333 C 575.466 -3.52187 -5.0063 0
M  V30 6334 N 574.603 -3.31084 -6.19135 0
M  V30 6335 H 579.443 -2.36558 -1.8123 0
M  V30 6336 H 576.98 -1.17483 -0.885226 0
M  V30 6337 H 578.938 -1.19324 -3.99772 0
M  V30 6338 H 577.568 -0.370602 -3.20666 0
M  V30 6339 H 576.62 -2.72634 -2.65283 0
M  V30 6340 H 577.932 -3.41845 -3.63241 0
M  V30 6341 H 577.086 -2.20558 -5.65189 0
M  V30 6342 H 575.825 -1.40889 -4.66906 0
M  V30 6343 H 574.83 -3.64617 -4.11502 0
M  V30 6344 H 576.055 -4.44749 -5.13201 0
M  V30 6345 H 574.001 -2.42143 -6.09674 0
M  V30 6346 H 573.918 -4.13713 -6.32754 0
M  V30 6347 H 575.186 -3.22868 -7.0949 0
M  V30 6348 N 579.415 0.9433 -1.26252 0
M  V30 6349 C 580.664 1.68369 -1.11062 0
M  V30 6350 C 580.977 1.92514 0.346104 0
M  V30 6351 O 582.183 2.64358 0.618646 0
M  V30 6352 C 580.639 3.03171 -1.93946 0
M  V30 6353 C 580.247 2.86782 -3.4418 0
M  V30 6354 C 581.991 3.80916 -1.87359 0
M  V30 6355 C 579.898 4.17044 -4.19319 0
M  V30 6356 H 578.828 0.631469 -0.412023 0
M  V30 6357 H 581.479 1.04922 -1.50544 0
M  V30 6358 H 579.861 3.67587 -1.47296 0
M  V30 6359 H 581.035 2.31229 -3.98585 0
M  V30 6360 H 579.35 2.22482 -3.51981 0
M  V30 6361 H 581.947 4.77417 -2.40784 0
M  V30 6362 H 582.29 4.07658 -0.843857 0
M  V30 6363 H 582.823 3.2327 -2.31821 0
M  V30 6364 H 579.562 3.95487 -5.22753 0
M  V30 6365 H 579.082 4.72319 -3.69696 0
M  V30 6366 H 580.761 4.85513 -4.27651 0
M  V30 6367 N 580.893 1.08022 1.14757 0
M  V30 6368 C 581.823 0.728248 2.21853 0
M  V30 6369 C 582.804 -0.287486 1.67653 0
M  V30 6370 O 583.989 -0.158727 1.9355 0
M  V30 6371 C 581.119 0.132549 3.47047 0
M  V30 6372 C 580.073 1.07619 4.14249 0
M  V30 6373 C 579.399 0.342907 5.33599 0
M  V30 6374 C 580.699 2.41268 4.63235 0
M  V30 6375 H 582.393 1.62365 2.51551 0
M  V30 6376 H 579.939 0.782125 1.20908 0
M  V30 6377 H 581.892 -0.125665 4.21213 0
M  V30 6378 H 580.616 -0.797971 3.16702 0
M  V30 6379 H 579.275 1.31944 3.42033 0
M  V30 6380 H 578.923 -0.59129 4.99513 0
M  V30 6381 H 578.623 0.971955 5.79506 0
M  V30 6382 H 580.147 0.0926538 6.1053 0
M  V30 6383 H 581.561 2.21232 5.28894 0
M  V30 6384 H 579.958 2.9983 5.19829 0
M  V30 6385 H 581.028 3.03079 3.78512 0
M  V30 6386 N 582.371 -1.3172 0.865308 0
M  V30 6387 C 583.599 -2.01057 0.488251 0
M  V30 6388 C 584.014 -1.64979 -0.918 0
M  V30 6389 O 583.371 -0.876597 -1.60069 0
M  V30 6390 C 583.422 -3.55964 0.630224 0
M  V30 6391 O 583.143 -3.90749 1.98109 0
M  V30 6392 C 584.644 -4.42574 0.253567 0
M  V30 6393 H 581.864 -0.64332 0.190736 0
M  V30 6394 H 584.408 -1.68058 1.16519 0
M  V30 6395 H 582.563 -3.874 0.000895422 0
M  V30 6396 H 582.977 -4.85467 1.9855 0
M  V30 6397 H 584.451 -5.50521 0.403875 0
M  V30 6398 H 584.928 -4.31724 -0.806895 0
M  V30 6399 H 585.534 -4.16547 0.858404 0
M  V30 6400 N 583.85 -0.624285 -1.44708 0
M  V30 6401 C 584.797 0.0847135 -2.30644 0
M  V30 6402 C 585.767 0.843575 -1.43084 0
M  V30 6403 O 586.952 0.825982 -1.71995 0
M  V30 6404 C 584.091 1.06495 -3.28257 0
M  V30 6405 C 583.205 0.305224 -4.3092 0
M  V30 6406 C 582.34 1.27667 -5.1563 0
M  V30 6407 C 581.379 0.505706 -6.10007 0
M  V30 6408 N 580.516 1.42727 -6.8744 0
M  V30 6409 H 585.356 -0.654068 -2.90733 0
M  V30 6410 H 582.893 -0.334334 -1.4325 0
M  V30 6411 H 584.851 1.64658 -3.83332 0
M  V30 6412 H 583.481 1.77094 -2.69884 0
M  V30 6413 H 582.533 -0.392207 -3.78373 0
M  V30 6414 H 583.845 -0.295553 -4.97924 0
M  V30 6415 H 582.999 1.92984 -5.75189 0
M  V30 6416 H 581.738 1.91137 -4.48685 0
M  V30 6417 H 580.743 -0.160999 -5.49564 0
M  V30 6418 H 581.968 -0.124183 -6.78986 0
M  V30 6419 H 579.913 2.04931 -6.23169 0
M  V30 6420 H 579.831 0.880345 -7.50857 0
M  V30 6421 H 581.099 2.0695 -7.51526 0
M  V30 6422 N 585.328 1.53329 -0.364422 0
M  V30 6423 C 586.258 2.28627 0.474543 0
M  V30 6424 C 587.239 1.31009 1.08492 0
M  V30 6425 O 588.424 1.59878 1.10239 0
M  V30 6426 C 585.554 3.07465 1.61501 0
M  V30 6427 C 584.508 4.1276 1.13194 0
M  V30 6428 C 583.834 4.79674 2.36255 0
M  V30 6429 C 585.134 5.21847 0.217507 0
M  V30 6430 H 586.828 2.99005 -0.153656 0
M  V30 6431 H 584.374 1.43803 -0.0753406 0
M  V30 6432 H 586.327 3.58889 2.20855 0
M  V30 6433 H 585.051 2.34775 2.27042 0
M  V30 6434 H 583.71 3.62281 0.56109 0
M  V30 6435 H 583.358 4.03557 3.00251 0
M  V30 6436 H 583.058 5.50827 2.04606 0
M  V30 6437 H 584.582 5.33892 2.96297 0
M  V30 6438 H 585.996 5.6878 0.718493 0
M  V30 6439 H 584.393 6.00099 -0.00806408 0
M  V30 6440 H 585.463 4.7921 -0.740653 0
M  V30 6441 N 586.806 0.0935595 1.57322 0
M  V30 6442 C 587.736 -0.863062 2.16964 0
M  V30 6443 C 588.717 -1.29528 1.10256 0
M  V30 6444 O 589.902 -1.36245 1.38387 0
M  V30 6445 C 587.032 -2.12276 2.74875 0
M  V30 6446 C 585.986 -1.82921 3.86942 0
M  V30 6447 C 585.312 -3.15707 4.31548 0
M  V30 6448 C 586.612 -1.11737 5.10208 0
M  V30 6449 H 588.306 -0.366145 2.97153 0
M  V30 6450 H 585.852 -0.174673 1.42937 0
M  V30 6451 H 587.805 -2.79634 3.1525 0
M  V30 6452 H 586.529 -2.64248 1.91938 0
M  V30 6453 H 585.188 -1.17961 3.47103 0
M  V30 6454 H 584.836 -3.65563 3.45504 0
M  V30 6455 H 584.536 -2.96849 5.07104 0
M  V30 6456 H 586.06 -3.84226 4.74555 0
M  V30 6457 H 587.474 -1.69203 5.47762 0
M  V30 6458 H 585.871 -1.03064 5.91183 0
M  V30 6459 H 586.941 -0.0998818 4.84797 0
M  V30 6460 N 588.284 -1.56567 -0.180126 0
M  V30 6461 C 589.194 -1.98947 -1.24327 0
M  V30 6462 C 590.21 -0.899446 -1.4895 0
M  V30 6463 O 591.386 -1.20639 -1.61271 0
M  V30 6464 C 588.451 -2.33328 -2.56435 0
M  V30 6465 C 587.512 -3.56114 -2.39752 0
M  V30 6466 C 586.745 -3.88845 -3.65561 0
M  V30 6467 O 586.968 -3.22662 -4.70368 0
M  V30 6468 O 585.902 -4.82226 -3.60197 0
M  V30 6469 H 589.728 -2.89634 -0.913565 0
M  V30 6470 H 587.313 -1.44319 -0.386306 0
M  V30 6471 H 589.195 -2.5645 -3.34382 0
M  V30 6472 H 587.87 -1.45806 -2.89002 0
M  V30 6473 H 586.777 -3.38221 -1.59866 0
M  V30 6474 H 588.11 -4.4415 -2.12113 0
M  V30 6475 N 589.762 0.448376 -1.51087 0
M  V30 6476 C 591.008 1.20049 -1.6345 0
M  V30 6477 C 591.341 1.91121 -0.344444 0
M  V30 6478 O 590.616 1.83125 0.655396 0
M  V30 6479 C 590.899 2.22624 -2.83038 0
M  V30 6480 C 590.752 1.55708 -4.21989 0
M  V30 6481 C 592.071 3.23718 -2.98152 0
M  V30 6482 H 589.19 0.435085 -0.59487 0
M  V30 6483 H 591.832 0.491183 -1.83541 0
M  V30 6484 H 589.982 2.83117 -2.66039 0
M  V30 6485 H 591.654 0.986367 -4.50631 0
M  V30 6486 H 589.897 0.859647 -4.25197 0
M  V30 6487 H 590.568 2.30357 -5.01637 0
M  V30 6488 H 593.044 2.73269 -3.13788 0
M  V30 6489 H 591.92 3.92795 -3.83411 0
M  V30 6490 H 592.181 3.89179 -2.09743 0
M  V30 6491 N 591.24 1.41047 0.703093 0
M  V30 6492 C 592.465 1.43537 1.49706 0
M  V30 6493 C 592.89 0.0401853 1.88057 0
M  V30 6494 O 592.248 -0.954785 1.54122 0
M  V30 6495 C 592.296 2.3433 2.74084 0
M  V30 6496 O 591.4 1.79515 3.71279 0
M  V30 6497 H 590.741 0.487454 0.450871 0
M  V30 6498 H 593.271 1.85422 0.86486 0
M  V30 6499 H 593.281 2.49947 3.22476 0
M  V30 6500 H 591.956 3.35708 2.45506 0
M  V30 6501 H 590.533 1.7331 3.30179 0
M  V30 6502 N 592.718 -0.936591 1.26751 0
M  V30 6503 C 593.995 -1.66094 1.03306 0
M  V30 6504 C 594.375 -2.06568 -0.435058 0
M  V30 6505 O 593.723 -1.79305 -1.41641 0
M  V30 6506 C 593.933 -2.86969 1.98619 0
M  V30 6507 C 595.281 -3.58516 2.27489 0
M  V30 6508 O 596.305 -2.97082 1.96522 0
M  V30 6509 O 595.164 -4.69181 2.80235 0
M  V30 6510 H 592.258 -0.727568 0.393158 0
M  V30 6511 H 594.804 -0.987914 1.3798 0
M  V30 6512 H 593.576 -2.53985 2.9767 0
M  V30 6513 H 593.199 -3.61996 1.64454 0
M  V30 6514 N 594.196 -1.08629 -1.14182 0
M  V30 6515 C 595.473 -0.73002 -1.81466 0
M  V30 6516 C 595.853 0.785996 -1.95922 0
M  V30 6517 O 595.201 1.70535 -1.52086 0
M  V30 6518 C 595.411 -1.45957 -3.17014 0
M  V30 6519 C 596.759 -1.62008 -3.92477 0
M  V30 6520 O 597.783 -1.42141 -3.26611 0
M  V30 6521 O 596.642 -1.94806 -5.106 0
M  V30 6522 H 593.736 -0.261307 -0.784632 0
M  V30 6523 H 596.282 -1.188 -1.2118 0
M  V30 6524 H 595.054 -2.49221 -3.01669 0
M  V30 6525 H 594.677 -0.993222 -3.84995 0
M  V30 6526 N 595.674 1.31259 -0.872281 0
M  V30 6527 C 597.085 1.78822 -0.536617 0
M  V30 6528 C 597.436 1.71855 0.946594 0
M  V30 6529 O 596.561 1.28769 1.73918 0
M  V30 6530 C 597.156 3.24698 -0.967294 0
M  V30 6531 C 595.715 3.70147 -0.683251 0
M  V30 6532 C 594.862 2.51994 -1.15733 0
M  V30 6533 H 597.813 1.18308 -1.05777 0
M  V30 6534 H 597.834 3.79386 -0.290929 0
M  V30 6535 H 597.346 3.29737 -2.04683 0
M  V30 6536 H 595.447 3.70607 0.384825 0
M  V30 6537 H 595.56 4.62183 -1.2619 0
M  V30 6538 H 593.924 2.48078 -0.577024 0
M  V30 6539 H 594.707 2.59778 -2.24434 0
M  V30 6540 N 597.152 0.631951 1.44375 0
M  V30 6541 C 598.084 -0.110911 2.28931 0
M  V30 6542 C 599.097 -0.808086 1.41329 0
M  V30 6543 O 600.286 -0.669396 1.65473 0
M  V30 6544 C 597.386 -1.17928 3.1772 0
M  V30 6545 C 596.559 -0.564458 4.33743 0
M  V30 6546 C 595.618 -1.5269 5.0356 0
M  V30 6547 O 594.644 -1.04372 5.59549 0
M  V30 6548 N 595.846 -2.86123 5.05088 0
M  V30 6549 H 598.611 0.614758 2.93327 0
M  V30 6550 H 596.172 0.473171 1.54831 0
M  V30 6551 H 598.164 -1.82348 3.61291 0
M  V30 6552 H 596.734 -1.80717 2.55069 0
M  V30 6553 H 595.954 0.258373 3.93352 0
M  V30 6554 H 597.242 -0.134355 5.08623 0
M  V30 6555 H 596.64 -3.27959 4.60933 0
M  V30 6556 H 595.197 -3.45901 5.52445 0
M  V30 6557 N 598.631 -1.53133 0.372548 0
M  V30 6558 C 599.877 -2.01654 -0.215277 0
M  V30 6559 C 600.21 -1.25914 -1.47849 0
M  V30 6560 O 599.485 -0.3548 -1.91237 0
M  V30 6561 C 599.768 -3.56609 -0.500187 0
M  V30 6562 C 599.621 -4.43036 0.777145 0
M  V30 6563 C 600.94 -4.20528 -1.29786 0
M  V30 6564 H 598.059 -0.732991 -0.0767686 0
M  V30 6565 H 600.701 -1.83335 0.498814 0
M  V30 6566 H 598.851 -3.7235 -1.10852 0
M  V30 6567 H 600.523 -4.39079 1.41447 0
M  V30 6568 H 598.766 -4.10723 1.39604 0
M  V30 6569 H 599.437 -5.49424 0.532662 0
M  V30 6570 H 601.913 -4.08663 -0.783198 0
M  V30 6571 H 600.789 -5.28962 -1.46596 0
M  V30 6572 H 601.05 -3.77051 -2.30836 0
M  V30 6573 N 600.109 -0.101901 -1.5727 0
M  V30 6574 C 601.039 0.851544 -2.17419 0
M  V30 6575 C 602.02 1.28942 -1.10941 0
M  V30 6576 O 603.205 1.35509 -1.39107 0
M  V30 6577 C 600.335 2.10816 -2.75996 0
M  V30 6578 C 599.289 1.80867 -3.87906 0
M  V30 6579 C 598.615 3.13413 -4.33216 0
M  V30 6580 C 599.915 1.0903 -5.10793 0
M  V30 6581 H 601.609 0.350381 -2.97343 0
M  V30 6582 H 599.155 0.16709 -1.43027 0
M  V30 6583 H 601.108 2.77959 -3.16729 0
M  V30 6584 H 599.832 2.63227 -1.93337 0
M  V30 6585 H 598.491 1.16119 -3.47724 0
M  V30 6586 H 598.139 3.63725 -3.47438 0
M  V30 6587 H 597.839 2.94155 -5.08671 0
M  V30 6588 H 599.363 3.81704 -4.76586 0
M  V30 6589 H 600.777 1.66295 -5.48652 0
M  V30 6590 H 599.174 0.99927 -5.91722 0
M  V30 6591 H 600.244 0.0741704 -4.84843 0
M  V30 6592 N 601.587 1.56661 0.17182 0
M  V30 6593 C 602.55 1.9549 1.19651 0
M  V30 6594 C 603.55 0.838501 1.37207 0
M  V30 6595 O 604.74 1.10556 1.34622 0
M  V30 6596 C 601.872 2.24927 2.56166 0
M  V30 6597 H 603.065 2.87184 0.864007 0
M  V30 6598 H 600.618 1.50711 0.41425 0
M  V30 6599 H 601.353 1.35944 2.94431 0
M  V30 6600 H 601.138 3.06301 2.4479 0
M  V30 6601 H 602.628 2.55891 3.30014 0
M  V30 6602 N 603.065 -0.440357 1.51323 0
M  V30 6603 C 604.311 -1.19181 1.64085 0
M  V30 6604 C 604.644 -1.90936 0.354575 0
M  V30 6605 O 603.919 -1.8347 -0.645675 0
M  V30 6606 C 604.202 -2.2112 2.84215 0
M  V30 6607 C 604.055 -1.53468 4.22809 0
M  V30 6608 C 605.374 -3.22133 2.99864 0
M  V30 6609 H 602.493 -0.431924 0.597169 0
M  V30 6610 H 605.135 -0.481443 1.83799 0
M  V30 6611 H 603.285 -2.81703 2.67537 0
M  V30 6612 H 604.957 -0.962455 4.51148 0
M  V30 6613 H 603.2 -0.837086 4.25647 0
M  V30 6614 H 603.871 -2.27694 5.02852 0
M  V30 6615 H 606.347 -2.71601 3.15233 0
M  V30 6616 H 605.223 -3.90756 3.85488 0
M  V30 6617 H 605.484 -3.88061 2.11804 0
M  V30 6618 N 604.543 -1.41418 -0.695603 0
M  V30 6619 C 605.506 -1.42988 -1.79129 0
M  V30 6620 C 606.506 -0.320514 -1.57573 0
M  V30 6621 O 607.696 -0.58039 -1.64247 0
M  V30 6622 C 604.828 -1.24122 -3.175 0
M  V30 6623 H 606.021 -2.40526 -1.7913 0
M  V30 6624 H 603.574 -1.2756 -0.903225 0
M  V30 6625 H 604.309 -0.274253 -3.23138 0
M  V30 6626 H 604.094 -2.045 -3.34547 0
M  V30 6627 H 605.584 -1.28056 -3.97481 0
M  V30 6628 N 606.021 0.929856 -1.27246 0
M  V30 6629 C 606.984 2.01172 -1.09829 0
M  V30 6630 C 607.984 1.60743 -0.0429687 0
M  V30 6631 O 609.174 1.71813 -0.287373 0
M  V30 6632 C 606.306 3.34191 -0.673003 0
M  V30 6633 H 607.499 2.18054 -2.05895 0
M  V30 6634 H 605.052 1.11036 -1.10003 0
M  V30 6635 H 605.787 3.23009 0.289134 0
M  V30 6636 H 605.572 3.64892 -1.43515 0
M  V30 6637 H 607.062 4.13646 -0.573323 0
M  V30 6638 N 607.499 1.09233 1.13605 0
M  V30 6639 C 608.449 0.6994 2.17008 0
M  V30 6640 C 609.433 -0.285238 1.58352 0
M  V30 6641 O 610.625 -0.09592 1.7674 0
M  V30 6642 C 607.754 0.11938 3.43092 0
M  V30 6643 C 606.84 1.13031 4.0876 0
M  V30 6644 N 607.231 2.31673 4.49623 0
M  V30 6645 C 605.529 0.967999 4.35369 0
M  V30 6646 C 606.23 2.95964 5.00779 0
M  V30 6647 N 605.206 2.23534 4.95513 0
M  V30 6648 H 609.008 1.60272 2.46354 0
M  V30 6649 H 606.522 0.968257 1.30378 0
M  V30 6650 H 608.519 -0.180122 4.16511 0
M  V30 6651 H 607.179 -0.778816 3.15221 0
M  V30 6652 H 608.19 2.69277 4.42391 0
M  V30 6653 H 604.867 0.124319 4.17315 0
M  V30 6654 H 606.257 3.96813 5.42208 0
M  V30 6655 N 608.977 -1.30795 0.87923 0
M  V30 6656 C 610.254 -1.91145 0.415086 0
M  V30 6657 C 610.634 -1.7995 -1.10368 0
M  V30 6658 O 609.982 -1.21305 -1.93642 0
M  V30 6659 C 610.192 -3.37014 0.906778 0
M  V30 6660 C 611.54 -4.14101 0.938358 0
M  V30 6661 O 612.564 -3.45834 0.853053 0
M  V30 6662 O 611.423 -5.36054 1.06342 0
M  V30 6663 H 608.517 -0.81736 0.125905 0
M  V30 6664 H 611.063 -1.39401 0.967753 0
M  V30 6665 H 609.835 -3.3922 1.95053 0
M  V30 6666 H 609.458 -3.96204 0.332948 0
M  V30 6667 N 610.455 -0.639598 -1.44038 0
M  V30 6668 C 611.701 -0.147698 -2.02261 0
M  V30 6669 C 612.034 1.23031 -1.50256 0
M  V30 6670 O 611.309 1.81847 -0.690068 0
M  V30 6671 C 611.592 -0.14362 -3.59813 0
M  V30 6672 C 611.445 -1.55458 -4.22082 0
M  V30 6673 C 612.764 0.527317 -4.36929 0
M  V30 6674 H 609.883 -0.0551453 -0.734934 0
M  V30 6675 H 612.525 -0.817688 -1.71505 0
M  V30 6676 H 610.675 0.426898 -3.86147 0
M  V30 6677 H 612.347 -2.17464 -4.06826 0
M  V30 6678 H 610.59 -2.10594 -3.79253 0
M  V30 6679 H 611.261 -1.50369 -5.31124 0
M  V30 6680 H 613.737 0.0420504 -4.16079 0
M  V30 6681 H 612.613 0.499389 -5.46624 0
M  V30 6682 H 612.874 1.59914 -4.12165 0
M  V30 6683 N 611.933 1.52934 -0.380664 0
M  V30 6684 C 613.181 2.01069 0.203874 0
M  V30 6685 C 613.502 1.26922 1.4804 0
M  V30 6686 O 612.772 0.386787 1.92044 0
M  V30 6687 H 611.352 0.742882 0.0783279 0
M  V30 6688 H 614.014 1.88099 -0.510368 0
M  V30 6689 H 613.11 3.09258 0.42021 0
M  V30 6690 N 613.412 0.11024 1.57214 0
M  V30 6691 C 614.322 -0.857077 2.18383 0
M  V30 6692 C 615.338 -1.29915 1.1575 0
M  V30 6693 O 616.514 -1.36394 1.48184 0
M  V30 6694 C 613.579 -2.09264 2.76423 0
M  V30 6695 C 612.64 -1.70333 3.94063 0
M  V30 6696 C 611.873 -2.87999 4.49324 0
M  V30 6697 O 612.096 -4.0317 4.03497 0
M  V30 6698 O 611.03 -2.6559 5.40135 0
M  V30 6699 H 614.856 -0.366561 3.0148 0
M  V30 6700 H 612.441 -0.114914 1.48957 0
M  V30 6701 H 614.323 -2.81644 3.13456 0
M  V30 6702 H 612.998 -2.57339 1.96363 0
M  V30 6703 H 611.905 -0.950864 3.61814 0
M  V30 6704 H 613.238 -1.27007 4.75531 0
M  V30 6705 N 614.89 -1.56749 -0.16351 0
M  V30 6706 C 616.12 -1.86307 -0.892936 0
M  V30 6707 C 616.528 -0.6945 -1.75992 0
M  V30 6708 O 615.871 0.345384 -1.80424 0
M  V30 6709 C 615.933 -3.10372 -1.81409 0
M  V30 6710 C 615.597 -4.42913 -1.12593 0
M  V30 6711 C 616.594 -5.17608 -0.487661 0
M  V30 6712 C 614.279 -4.89646 -1.12035 0
M  V30 6713 C 616.273 -6.3723 0.14699 0
M  V30 6714 C 613.96 -6.09197 -0.481883 0
M  V30 6715 C 614.958 -6.82834 0.150678 0
M  V30 6716 O 614.646 -8.00116 0.779065 0
M  V30 6717 H 614.378 -0.622126 -0.264452 0
M  V30 6718 H 616.932 -2.04728 -0.166063 0
M  V30 6719 H 615.162 -2.87917 -2.58148 0
M  V30 6720 H 616.851 -3.26312 -2.41403 0
M  V30 6721 H 617.617 -4.8258 -0.483888 0
M  V30 6722 H 613.496 -4.32265 -1.60212 0
M  V30 6723 H 617.04 -6.94646 0.641325 0
M  V30 6724 H 612.937 -6.43688 -0.483266 0
M  V30 6725 H 613.705 -8.15678 0.679089 0
M  V30 6726 N 616.368 0.432326 -1.51554 0
M  V30 6727 C 617.614 1.18309 -1.64714 0
M  V30 6728 C 617.947 1.90745 -0.364696 0
M  V30 6729 O 617.222 1.8381 0.635936 0
M  V30 6730 C 617.505 2.1961 -2.85383 0
M  V30 6731 C 617.358 1.51223 -4.23617 0
M  V30 6732 C 618.677 3.20538 -3.01569 0
M  V30 6733 H 615.796 0.428751 -0.599451 0
M  V30 6734 H 618.438 0.471689 -1.84052 0
M  V30 6735 H 616.588 2.8028 -2.69027 0
M  V30 6736 H 618.26 0.938516 -4.51652 0
M  V30 6737 H 616.503 0.814501 -4.26085 0
M  V30 6738 H 617.174 2.25024 -5.04052 0
M  V30 6739 H 619.65 2.69926 -3.16669 0
M  V30 6740 H 618.526 3.88706 -3.87555 0
M  V30 6741 H 618.787 3.86933 -2.13859 0
M  V30 6742 N 617.846 1.41785 0.688094 0
M  V30 6743 C 619.262 1.24419 0.999608 0
M  V30 6744 C 619.462 0.138868 2.01021 0
M  V30 6745 O 618.518 -0.494283 2.47615 0
M  V30 6746 C 619.831 2.59625 1.51709 0
M  V30 6747 C 621.379 2.66869 1.63554 0
M  V30 6748 C 621.854 4.0241 2.18702 0
M  V30 6749 N 623.345 4.04295 2.26053 0
M  V30 6750 C 624.08 5.05977 2.69768 0
M  V30 6751 N 623.576 6.18047 3.13033 0
M  V30 6752 N 625.369 4.93336 2.69398 0
M  V30 6753 H 617.52 2.12392 0.0187427 0
M  V30 6754 H 619.783 0.945347 0.0708673 0
M  V30 6755 H 619.489 3.41297 0.849059 0
M  V30 6756 H 619.363 2.82628 2.49803 0
M  V30 6757 H 621.75 1.8555 2.29467 0
M  V30 6758 H 621.831 2.47668 0.639857 0
M  V30 6759 H 621.475 4.8418 1.53402 0
M  V30 6760 H 621.405 4.18955 3.19037 0
M  V30 6761 H 623.896 3.23383 1.9553 0
M  V30 6762 H 624.209 6.91498 3.45038 0
M  V30 6763 H 622.554 6.21572 3.10923 0
M  V30 6764 H 625.745 4.04865 2.34952 0
M  V30 6765 H 625.918 5.72717 3.03148 0
M  V30 6766 N 619.324 -0.923095 1.27737 0
M  V30 6767 C 620.274 -2.01061 1.0751 0
M  V30 6768 C 621.258 -1.609 0.00165451 0
M  V30 6769 O 622.45 -1.75618 0.220724 0
M  V30 6770 C 619.579 -3.35467 0.729162 0
M  V30 6771 C 618.665 -3.82059 1.84098 0
M  V30 6772 N 619.056 -4.01115 3.08124 0
M  V30 6773 C 617.354 -4.11135 1.7287 0
M  V30 6774 C 618.055 -4.39989 3.80506 0
M  V30 6775 N 617.031 -4.47721 3.08297 0
M  V30 6776 H 620.833 -2.13832 2.01626 0
M  V30 6777 H 618.347 -1.11027 1.18519 0
M  V30 6778 H 620.344 -4.13049 0.565355 0
M  V30 6779 H 619.004 -3.24056 -0.204334 0
M  V30 6780 H 620.015 -3.87294 3.43836 0
M  V30 6781 H 616.692 -4.08412 0.866352 0
M  V30 6782 H 618.082 -4.62773 4.87125 0
M  V30 6783 N 620.802 -1.09834 -1.13024 0
M  V30 6784 C 622.032 -0.857657 -1.87957 0
M  V30 6785 C 622.44 0.595008 -1.796 0
M  V30 6786 O 621.783 1.42158 -1.16347 0
M  V30 6787 C 621.845 -1.21949 -3.38185 0
M  V30 6788 C 621.509 -2.67791 -3.7032 0
M  V30 6789 C 622.506 -3.66036 -3.69207 0
M  V30 6790 C 620.191 -3.04019 -3.99847 0
M  V30 6791 C 622.185 -4.98533 -3.9717 0
M  V30 6792 C 619.872 -4.36706 -4.27471 0
M  V30 6793 C 620.87 -5.33772 -4.26118 0
M  V30 6794 O 620.558 -6.64072 -4.53061 0
M  V30 6795 H 620.29 -0.308009 -0.601753 0
M  V30 6796 H 622.844 -1.46496 -1.43973 0
M  V30 6797 H 621.074 -0.555249 -3.82693 0
M  V30 6798 H 622.763 -0.957281 -3.9445 0
M  V30 6799 H 623.529 -3.39392 -3.46465 0
M  V30 6800 H 619.408 -2.29096 -4.00045 0
M  V30 6801 H 622.952 -5.74288 -3.96029 0
M  V30 6802 H 618.849 -4.63091 -4.49685 0
M  V30 6803 H 619.617 -6.69608 -4.7071 0
M  V30 6804 N 622.28 1.30327 -0.886154 0
M  V30 6805 C 623.691 1.78243 -0.555554 0
M  V30 6806 C 624.042 1.72849 0.928314 0
M  V30 6807 O 623.167 1.30607 1.72542 0
M  V30 6808 C 623.762 3.23654 -1.00168 0
M  V30 6809 C 622.321 3.69401 -0.722471 0
M  V30 6810 C 621.468 2.50753 -1.18399 0
M  V30 6811 H 624.419 1.1718 -1.07026 0
M  V30 6812 H 624.44 3.79056 -0.331152 0
M  V30 6813 H 623.952 3.27548 -2.08169 0
M  V30 6814 H 622.053 3.70995 0.345496 0
M  V30 6815 H 622.166 4.60818 -1.31085 0
M  V30 6816 H 620.53 2.47452 -0.603303 0
M  V30 6817 H 621.313 2.57383 -2.27176 0
M  V30 6818 N 623.758 0.647228 1.43697 0
M  V30 6819 C 625.174 0.314256 1.56476 0
M  V30 6820 C 625.374 -1.18191 1.63196 0
M  V30 6821 O 624.43 -1.96655 1.58376 0
M  V30 6822 C 625.743 1.02034 2.82859 0
M  V30 6823 C 627.291 1.00002 2.96595 0
M  V30 6824 C 627.766 1.68689 4.25803 0
M  V30 6825 N 629.257 1.65424 4.32654 0
M  V30 6826 C 629.992 2.1545 5.31384 0
M  V30 6827 N 629.488 2.73738 6.36427 0
M  V30 6828 N 631.281 2.05985 5.22998 0
M  V30 6829 H 623.432 1.61821 1.37578 0
M  V30 6830 H 625.695 0.680184 0.660344 0
M  V30 6831 H 625.401 2.07542 2.83935 0
M  V30 6832 H 625.275 0.568146 3.72897 0
M  V30 6833 H 627.662 -0.0466319 2.95063 0
M  V30 6834 H 627.743 1.49086 2.07863 0
M  V30 6835 H 627.387 2.73308 4.28095 0
M  V30 6836 H 627.317 1.17076 5.13421 0
M  V30 6837 H 629.808 1.22884 3.57363 0
M  V30 6838 H 630.121 3.09602 7.08072 0
M  V30 6839 H 628.466 2.77796 6.37067 0
M  V30 6840 H 631.657 1.60157 4.39849 0
M  V30 6841 H 631.83 2.45281 5.99784 0
M  V30 6842 N 625.236 -1.5273 0.388769 0
M  V30 6843 C 626.484 -2.01174 -0.193208 0
M  V30 6844 C 626.805 -1.27705 -1.47365 0
M  V30 6845 O 626.075 -0.396966 -1.91836 0
M  V30 6846 H 624.655 -0.743287 -0.0743871 0
M  V30 6847 H 627.317 -1.87826 0.520336 0
M  V30 6848 H 626.413 -3.09477 -0.403803 0
M  V30 6849 N 626.714 -0.118576 -1.57153 0
M  V30 6850 C 627.661 0.831789 -2.1529 0
M  V30 6851 C 628.631 1.26385 -1.07778 0
M  V30 6852 O 629.816 1.34144 -1.35684 0
M  V30 6853 C 626.956 2.07664 -2.75626 0
M  V30 6854 C 626.069 1.69298 -3.97444 0
M  V30 6855 C 625.204 2.88747 -4.45868 0
M  V30 6856 C 624.243 2.46619 -5.60219 0
M  V30 6857 N 623.38 3.5898 -6.03389 0
M  V30 6858 H 628.22 0.329183 -2.96176 0
M  V30 6859 H 625.757 0.150792 -1.46325 0
M  V30 6860 H 627.715 2.80601 -3.08738 0
M  V30 6861 H 626.345 2.55384 -1.97431 0
M  V30 6862 H 625.397 0.862374 -3.70496 0
M  V30 6863 H 626.709 1.34338 -4.80369 0
M  V30 6864 H 625.863 3.69909 -4.80887 0
M  V30 6865 H 624.602 3.26933 -3.61892 0
M  V30 6866 H 623.607 1.63889 -5.24805 0
M  V30 6867 H 624.832 2.0955 -6.45961 0
M  V30 6868 H 622.778 3.9684 -5.22354 0
M  V30 6869 H 622.695 3.27942 -6.81168 0
M  V30 6870 H 623.963 4.40583 -6.43045 0
M  V30 6871 N 628.193 1.56834 0.155195 0
M  V30 6872 C 629.609 1.51315 0.50755 0
M  V30 6873 C 629.809 0.825614 1.83809 0
M  V30 6874 O 628.865 0.39271 2.49427 0
M  V30 6875 C 630.178 2.96074 0.52542 0
M  V30 6876 C 631.726 3.06968 0.611505 0
M  V30 6877 C 632.201 4.53218 0.660115 0
M  V30 6878 N 633.692 4.5753 0.722564 0
M  V30 6879 C 634.427 5.68056 0.781023 0
M  V30 6880 N 633.923 6.88173 0.799327 0
M  V30 6881 N 635.716 5.56068 0.821278 0
M  V30 6882 H 627.867 1.9993 -0.717063 0
M  V30 6883 H 630.13 0.911507 -0.260496 0
M  V30 6884 H 629.836 3.49599 -0.383875 0
M  V30 6885 H 629.71 3.51587 1.36624 0
M  V30 6886 H 632.097 2.53468 1.51122 0
M  V30 6887 H 632.178 2.54513 -0.256306 0
M  V30 6888 H 631.822 5.07354 -0.23541 0
M  V30 6889 H 631.752 5.03447 1.5443 0
M  V30 6890 H 634.243 3.71054 0.716049 0
M  V30 6891 H 634.556 7.6816 0.845553 0
M  V30 6892 H 632.901 6.90751 0.767337 0
M  V30 6893 H 636.092 4.61142 0.804091 0
M  V30 6894 H 636.265 6.42223 0.863372 0
M  V30 6895 N 629.671 -0.424282 1.51781 0
M  V30 6896 C 630.917 -1.17434 1.6534 0
M  V30 6897 C 631.25 -1.90549 0.374806 0
M  V30 6898 O 630.525 -1.84145 -0.626179 0
M  V30 6899 C 630.808 -2.18093 2.86544 0
M  V30 6900 C 630.661 -1.48975 4.24413 0
M  V30 6901 C 631.98 -3.18934 3.03264 0
M  V30 6902 H 629.099 -0.425566 0.601716 0
M  V30 6903 H 631.741 -0.461921 1.84299 0
M  V30 6904 H 629.891 -2.78849 2.7051 0
M  V30 6905 H 631.563 -0.914551 4.52143 0
M  V30 6906 H 629.806 -0.791893 4.26511 0
M  V30 6907 H 630.477 -2.22347 5.05238 0
M  V30 6908 H 632.953 -2.68243 3.18096 0
M  V30 6909 H 631.829 -3.86645 3.89611 0
M  V30 6910 H 632.09 -3.85793 2.15908 0
M  V30 6911 N 631.149 -1.42148 -0.680565 0
M  V30 6912 C 632.398 -1.41604 -1.43636 0
M  V30 6913 C 632.711 -0.0337887 -1.95571 0
M  V30 6914 O 633.917 0.0942588 -2.71336 0
M  V30 6915 C 632.373 -2.49056 -2.59806 0
M  V30 6916 C 631.981 -3.9326 -2.14594 0
M  V30 6917 C 633.725 -2.5767 -3.37352 0
M  V30 6918 C 631.632 -4.92232 -3.27813 0
M  V30 6919 H 630.562 -0.526656 -0.539583 0
M  V30 6920 H 633.213 -1.68033 -0.737369 0
M  V30 6921 H 631.595 -2.15782 -3.32045 0
M  V30 6922 H 632.769 -4.35858 -1.49546 0
M  V30 6923 H 631.084 -3.88443 -1.50002 0
M  V30 6924 H 633.681 -3.28794 -4.21662 0
M  V30 6925 H 634.024 -1.61837 -3.83555 0
M  V30 6926 H 634.557 -2.90109 -2.72179 0
M  V30 6927 H 631.296 -5.89522 -2.86607 0
M  V30 6928 H 630.816 -4.5427 -3.91661 0
M  V30 6929 H 632.495 -5.13684 -3.93367 0
M  V30 6930 N 632.627 0.916307 -1.28225 0
M  V30 6931 C 633.537 2.05165 -1.13775 0
M  V30 6932 C 634.553 1.73879 -0.0649418 0
M  V30 6933 O 635.729 1.99531 -0.273722 0
M  V30 6934 C 632.794 3.37385 -0.798267 0
M  V30 6935 C 631.855 3.82296 -1.95316 0
M  V30 6936 C 631.088 5.08206 -1.62978 0
M  V30 6937 O 631.311 5.6781 -0.542948 0
M  V30 6938 O 630.245 5.48768 -2.47261 0
M  V30 6939 H 634.071 2.20273 -2.09078 0
M  V30 6940 H 631.656 1.0373 -1.07519 0
M  V30 6941 H 633.538 4.16773 -0.62278 0
M  V30 6942 H 632.213 3.23458 0.125139 0
M  V30 6943 H 631.12 3.03746 -2.18378 0
M  V30 6944 H 632.453 4.00782 -2.85718 0
M  V30 6945 N 634.105 1.10431 1.1244 0
M  V30 6946 C 635.037 0.710945 2.17895 0
M  V30 6947 C 636.05 -0.252315 1.60833 0
M  V30 6948 O 637.239 -0.03679 1.78462 0
M  V30 6949 C 634.339 0.0284262 3.38888 0
M  V30 6950 C 633.512 1.01585 4.2544 0
M  V30 6951 C 632.571 0.364826 5.24934 0
M  V30 6952 O 631.597 1.01561 5.60066 0
M  V30 6953 N 632.799 -0.87674 5.73841 0
M  V30 6954 H 635.564 1.61826 2.52255 0
M  V30 6955 H 633.125 0.993132 1.27861 0
M  V30 6956 H 635.117 -0.418568 4.0253 0
M  V30 6957 H 633.687 -0.781294 3.02679 0
M  V30 6958 H 632.907 1.64111 3.58415 0
M  V30 6959 H 634.195 1.68425 4.80115 0
M  V30 6960 H 633.593 -1.42483 5.47462 0
M  V30 6961 H 632.15 -1.26688 6.39369 0
M  V30 6962 N 635.583 -1.29855 0.893053 0
M  V30 6963 C 636.513 -2.3035 0.382249 0
M  V30 6964 C 637.494 -1.61328 -0.539203 0
M  V30 6965 O 638.679 -1.88882 -0.451342 0
M  V30 6966 C 635.809 -3.45024 -0.396983 0
M  V30 6967 C 634.763 -4.258 0.433437 0
M  V30 6968 C 634.089 -5.32605 -0.472889 0
M  V30 6969 C 635.389 -4.94549 1.67984 0
M  V30 6970 H 637.083 -2.73325 1.22205 0
M  V30 6971 H 634.629 -1.314 0.589073 0
M  V30 6972 H 636.582 -4.14398 -0.765024 0
M  V30 6973 H 635.306 -3.00875 -1.2705 0
M  V30 6974 H 633.965 -3.58125 0.783723 0
M  V30 6975 H 633.613 -4.84702 -1.34435 0
M  V30 6976 H 633.313 -5.87547 0.0789958 0
M  V30 6977 H 634.837 -6.04832 -0.837269 0
M  V30 6978 H 636.251 -5.56395 1.38192 0
M  V30 6979 H 634.648 -5.59393 2.17254 0
M  V30 6980 H 635.718 -4.20215 2.41965 0
M  V30 6981 N 637.061 -0.65484 -1.43351 0
M  V30 6982 C 638.309 -0.168559 -2.01396 0
M  V30 6983 C 638.63 1.22235 -1.51933 0
M  V30 6984 O 637.9 1.81685 -0.732627 0
M  V30 6985 H 636.48 -0.0593244 -0.744641 0
M  V30 6986 H 639.142 -0.846871 -1.75539 0
M  V30 6987 H 638.238 -0.154428 -3.11718 0
M  V30 6988 N 638.539 1.52521 -0.396863 0
M  V30 6989 C 639.787 2.01274 0.182536 0
M  V30 6990 C 640.108 1.28485 1.46685 0
M  V30 6991 O 639.378 0.407134 1.91623 0
M  V30 6992 H 637.958 0.743671 0.0704442 0
M  V30 6993 H 640.62 1.87547 -0.530289 0
M  V30 6994 H 639.716 3.09687 0.387385 0
M  V30 6995 N 640.017 0.126909 1.57088 0
M  V30 6996 C 640.964 -0.82036 2.15728 0
M  V30 6997 C 641.934 -1.25811 1.08447 0
M  V30 6998 O 643.119 -1.33422 1.36393 0
M  V30 6999 C 640.259 -2.06199 2.76724 0
M  V30 7000 C 639.372 -1.67188 3.98337 0
M  V30 7001 C 638.507 -2.86378 4.47393 0
M  V30 7002 C 637.546 -2.43644 5.61519 0
M  V30 7003 N 636.683 -3.55775 6.05284 0
M  V30 7004 H 641.523 -0.313472 2.96347 0
M  V30 7005 H 639.06 -0.14303 1.46403 0
M  V30 7006 H 641.018 -2.78959 3.10222 0
M  V30 7007 H 639.648 -2.54333 1.98782 0
M  V30 7008 H 638.7 -0.842714 3.70948 0
M  V30 7009 H 640.012 -1.31789 4.81075 0
M  V30 7010 H 639.166 -3.67353 4.82842 0
M  V30 7011 H 637.905 -3.25009 3.63621 0
M  V30 7012 H 636.91 -1.61104 5.25667 0
M  V30 7013 H 638.135 -2.06122 6.47063 0
M  V30 7014 H 636.081 -3.94065 5.24451 0
M  V30 7015 H 635.998 -3.24325 6.82898 0
M  V30 7016 H 637.266 -4.37166 6.45373 0
M  V30 7017 N 641.495 -1.56914 -0.146875 0
M  V30 7018 C 642.427 -1.94878 -1.20645 0
M  V30 7019 C 643.44 -0.844633 -1.39175 0
M  V30 7020 O 644.629 -1.12304 -1.38744 0
M  V30 7021 C 641.729 -2.20769 -2.57127 0
M  V30 7022 C 640.902 -3.52053 -2.59572 0
M  V30 7023 C 639.961 -3.66482 -3.77594 0
M  V30 7024 O 638.987 -4.38873 -3.62462 0
M  V30 7025 N 640.189 -3.03156 -4.95052 0
M  V30 7026 H 642.954 -2.86374 -0.883757 0
M  V30 7027 H 640.515 -1.58366 -0.336436 0
M  V30 7028 H 642.507 -2.27664 -3.34591 0
M  V30 7029 H 641.077 -1.35538 -2.81688 0
M  V30 7030 H 640.297 -3.56598 -1.68023 0
M  V30 7031 H 641.585 -4.38396 -2.58238 0
M  V30 7032 H 640.983 -2.44258 -5.10249 0
M  V30 7033 H 639.54 -3.15611 -5.70292 0
M  V30 7034 N 642.974 0.416227 -1.52004 0
M  V30 7035 C 643.904 1.51365 -1.77795 0
M  V30 7036 C 644.885 1.58059 -0.628601 0
M  V30 7037 O 646.07 1.73447 -0.873478 0
M  V30 7038 C 643.2 2.89256 -1.92219 0
M  V30 7039 C 642.154 2.97415 -3.0778 0
M  V30 7040 C 641.48 4.37492 -3.07417 0
M  V30 7041 C 642.78 2.69551 -4.47369 0
M  V30 7042 H 644.474 1.30033 -2.69688 0
M  V30 7043 H 642.02 0.624112 -1.29772 0
M  V30 7044 H 643.973 3.66008 -2.08845 0
M  V30 7045 H 642.697 3.11866 -0.969917 0
M  V30 7046 H 641.356 2.23107 -2.90893 0
M  V30 7047 H 641.004 4.571 -2.09925 0
M  V30 7048 H 640.704 4.43877 -3.85029 0
M  V30 7049 H 642.228 5.16188 -3.26162 0
M  V30 7050 H 643.642 3.36028 -4.64497 0
M  V30 7051 H 642.039 2.87321 -5.26846 0
M  V30 7052 H 643.109 1.65029 -4.55953 0
M  V30 7053 N 644.452 1.42507 0.673017 0
M  V30 7054 C 645.698 1.43284 1.43519 0
M  V30 7055 C 646.031 0.049668 1.94136 0
M  V30 7056 O 645.306 -0.926369 1.71022 0
M  V30 7057 C 645.589 2.45874 2.63093 0
M  V30 7058 C 645.442 3.93388 2.18096 0
M  V30 7059 C 646.761 2.45431 3.6531 0
M  V30 7060 H 643.88 0.521752 0.520522 0
M  V30 7061 H 646.522 1.73932 0.764701 0
M  V30 7062 H 644.672 2.19869 3.20296 0
M  V30 7063 H 646.344 4.30379 1.66046 0
M  V30 7064 H 644.587 4.07169 1.49652 0
M  V30 7065 H 645.258 4.60752 3.03993 0
M  V30 7066 H 647.734 2.68561 3.17827 0
M  V30 7067 H 646.61 3.19189 4.46553 0
M  V30 7068 H 646.871 1.48092 4.16559 0
M  V30 7069 N 645.93 -0.909495 1.28709 0
M  V30 7070 C 646.863 -2.01388 1.07323 0
M  V30 7071 C 647.841 -1.62596 -0.0119757 0
M  V30 7072 O 649.025 -1.88003 0.136796 0
M  V30 7073 C 646.152 -3.32755 0.631797 0
M  V30 7074 C 645.198 -3.90532 1.71428 0
M  V30 7075 S 646.031 -4.20853 3.31124 0
M  V30 7076 C 647.187 -5.55276 2.88825 0
M  V30 7077 H 647.42 -2.19219 2.00824 0
M  V30 7078 H 644.953 -1.05489 1.12745 0
M  V30 7079 H 646.911 -4.08702 0.38381 0
M  V30 7080 H 645.572 -3.12818 -0.283451 0
M  V30 7081 H 644.765 -4.85385 1.35712 0
M  V30 7082 H 644.367 -3.21237 1.91528 0
M  V30 7083 H 646.659 -6.35341 2.3526 0
M  V30 7084 H 647.602 -5.95907 3.82492 0
M  V30 7085 H 648.01 -5.16666 2.27412 0
M  V30 7086 N 647.408 -1.11026 -1.11852 0
M  V30 7087 C 648.356 -0.759643 -2.19846 0
M  V30 7088 C 649.35 0.246964 -1.6759 0
M  V30 7089 O 650.556 0.106693 -1.79684 0
M  V30 7090 H 646.931 -0.22775 -0.716683 0
M  V30 7091 H 648.902 -1.6792 -2.46669 0
M  V30 7092 C 647.651 -0.214364 -3.47039 0
M  V30 7093 H 646.974 -0.980175 -3.87599 0
M  V30 7094 H 648.414 -0.00717047 -4.23999 0
M  V30 7095 C 646.873 1.05436 -3.19976 0
M  V30 7096 O 647.403 2.13483 -3.40276 0
M  V30 7097 N 645.609 0.975436 -2.7374 0
M  V30 7098 H 645.156 0.0960853 -2.57421 0
M  V30 7099 H 645.114 1.82501 -2.5601 0
M  V30 7100 N 648.886 1.2938 -0.899927 0
M  V30 7101 C 649.836 2.25311 -0.349165 0
M  V30 7102 C 650.82 1.51889 0.530892 0
M  V30 7103 O 652.012 1.73028 0.372872 0
M  V30 7104 C 649.141 3.40696 0.422055 0
M  V30 7105 C 648.227 4.21455 -0.472935 0
M  V30 7106 N 648.618 4.8048 -1.58026 0
M  V30 7107 C 646.916 4.45177 -0.270767 0
M  V30 7108 C 647.617 5.41117 -2.13465 0
M  V30 7109 N 646.593 5.24518 -1.42766 0
M  V30 7110 H 650.395 2.68507 -1.19505 0
M  V30 7111 H 647.909 1.43992 -0.751006 0
M  V30 7112 H 649.906 4.08486 0.833369 0
M  V30 7113 H 648.566 2.99037 1.2652 0
M  V30 7114 H 649.577 4.79257 -1.96299 0
M  V30 7115 H 646.254 4.14071 0.533988 0
M  V30 7116 H 647.644 5.979 -3.06537 0
M  V30 7117 N 650.364 0.662433 1.43002 0
M  V30 7118 C 651.297 -0.073459 2.28082 0
M  V30 7119 C 652.275 -0.820869 1.40358 0
M  V30 7120 O 653.459 -0.818545 1.698 0
M  V30 7121 C 650.586 -1.11097 3.19961 0
M  V30 7122 C 649.632 -0.460557 4.24006 0
M  V30 7123 S 650.465 0.772717 5.29896 0
M  V30 7124 C 651.621 -0.264028 6.25343 0
M  V30 7125 H 651.854 0.648227 2.90147 0
M  V30 7126 H 649.387 0.451566 1.47649 0
M  V30 7127 H 651.345 -1.70452 3.73439 0
M  V30 7128 H 650.006 -1.80503 2.57056 0
M  V30 7129 H 649.199 -1.24299 4.88432 0
M  V30 7130 H 648.801 0.0591038 3.73953 0
M  V30 7131 H 651.093 -1.12748 6.68052 0
M  V30 7132 H 652.036 0.345443 7.07257 0
M  V30 7133 H 652.444 -0.603964 5.6126 0
M  V30 7134 N 651.842 -1.52309 0.404946 0
M  V30 7135 C 652.792 -2.23717 -0.439864 0
M  V30 7136 C 653.776 -1.24692 -1.0169 0
M  V30 7137 O 654.968 -1.49951 -0.940409 0
M  V30 7138 C 652.097 -3.05898 -1.55825 0
M  V30 7139 C 651.183 -4.12331 -0.992188 0
M  V30 7140 N 651.574 -5.0557 -0.152424 0
M  V30 7141 C 649.872 -4.2774 -1.26312 0
M  V30 7142 C 650.573 -5.81474 0.162041 0
M  V30 7143 N 649.549 -5.41767 -0.44601 0
M  V30 7144 H 653.351 -2.93162 0.208084 0
M  V30 7145 H 650.865 -1.60969 0.215131 0
M  V30 7146 H 652.862 -3.55605 -2.17603 0
M  V30 7147 H 651.522 -2.37991 -2.20886 0
M  V30 7148 H 652.533 -5.17468 0.211556 0
M  V30 7149 H 649.21 -3.71062 -1.91362 0
M  V30 7150 H 650.6 -6.66585 0.843423 0
M  V30 7151 N 653.32 -0.135238 -1.57019 0
M  V30 7152 C 654.27 0.820408 -2.12728 0
M  V30 7153 C 655.254 1.21735 -1.05211 0
M  V30 7154 O 656.446 1.18574 -1.31413 0
M  V30 7155 C 653.575 2.06414 -2.74314 0
M  V30 7156 C 652.661 1.69083 -3.88937 0
M  V30 7157 N 653.052 1.0251 -4.95303 0
M  V30 7158 C 651.35 1.98434 -3.99425 0
M  V30 7159 C 652.051 0.846749 -5.75504 0
M  V30 7160 N 651.027 1.3769 -5.25873 0
M  V30 7161 H 654.829 0.302426 -2.9234 0
M  V30 7162 H 652.343 0.0667009 -1.62263 0
M  V30 7163 H 654.34 2.75863 -3.12579 0
M  V30 7164 H 653 2.58741 -1.96171 0
M  V30 7165 H 654.011 0.687207 -5.1332 0
M  V30 7166 H 650.688 2.52693 -3.32344 0
M  V30 7167 H 652.078 0.322949 -6.71123 0
M  V30 7168 N 654.798 1.5699 0.138552 0
M  V30 7169 C 655.708 2.02174 1.19008 0
M  V30 7170 C 656.724 0.938622 1.46512 0
M  V30 7171 O 657.9 1.24872 1.58016 0
M  V30 7172 C 654.965 2.40045 2.50159 0
M  V30 7173 C 654.026 3.62346 2.30226 0
M  V30 7174 C 653.259 3.98401 3.55123 0
M  V30 7175 O 653.482 3.35019 4.61647 0
M  V30 7176 O 652.416 4.91606 3.47285 0
M  V30 7177 H 656.242 2.91954 0.836452 0
M  V30 7178 H 653.827 1.45293 0.347907 0
M  V30 7179 H 655.709 2.65225 3.27465 0
M  V30 7180 H 654.384 1.53417 2.85035 0
M  V30 7181 H 653.291 3.42341 1.50843 0
M  V30 7182 H 654.624 4.49617 2.00262 0
M  V30 7183 N 656.276 -0.40816 1.52223 0
M  V30 7184 C 657.553 -1.16807 1.56893 0
M  V30 7185 C 657.933 -2.08169 0.350537 0
M  V30 7186 O 657.281 -2.18684 -0.662536 0
M  V30 7187 C 657.491 -1.94451 2.8981 0
M  V30 7188 C 658.839 -2.50484 3.42845 0
M  V30 7189 O 659.863 -2.0463 2.91556 0
M  V30 7190 O 658.722 -3.34192 4.3241 0
M  V30 7191 H 655.816 -0.533382 0.632007 0
M  V30 7192 H 658.362 -0.414862 1.64551 0
M  V30 7193 H 657.134 -1.27527 3.69936 0
M  V30 7194 H 656.757 -2.76775 2.85449 0
M  V30 7195 N 657.755 -1.42862 -0.66545 0
M  V30 7196 C 658.687 -1.43026 -1.79098 0
M  V30 7197 C 659.7 -0.32803 -1.59461 0
M  V30 7198 O 660.889 -0.591709 -1.68407 0
M  V30 7199 C 657.989 -1.21566 -3.16346 0
M  V30 7200 C 657.162 -2.44399 -3.62751 0
M  V30 7201 C 656.221 -2.18344 -4.78761 0
M  V30 7202 O 655.247 -2.91611 -4.88827 0
M  V30 7203 N 656.449 -1.1924 -5.68122 0
M  V30 7204 H 659.214 -2.40045 -1.79439 0
M  V30 7205 H 656.775 -1.37861 -0.848872 0
M  V30 7206 H 658.767 -1.02037 -3.91625 0
M  V30 7207 H 657.337 -0.330368 -3.10849 0
M  V30 7208 H 656.557 -2.79433 -2.78048 0
M  V30 7209 H 657.845 -3.26173 -3.90498 0
M  V30 7210 H 657.243 -0.586603 -5.6265 0
M  V30 7211 H 655.8 -1.05698 -6.43173 0
M  V30 7212 N 659.233 0.902656 -1.29189 0
M  V30 7213 C 660.165 2.01149 -1.09872 0
M  V30 7214 C 661.178 1.62732 -0.0471046 0
M  V30 7215 O 662.367 1.76107 -0.29132 0
M  V30 7216 C 659.467 3.32612 -0.649818 0
M  V30 7217 C 658.64 3.99574 -1.7793 0
M  V30 7218 C 657.699 5.09325 -1.32191 0
M  V30 7219 O 656.725 5.31919 -2.02611 0
M  V30 7220 N 657.927 5.80185 -0.191171 0
M  V30 7221 H 660.692 2.18276 -2.05368 0
M  V30 7222 H 658.253 1.07466 -1.2109 0
M  V30 7223 H 660.245 4.03375 -0.327199 0
M  V30 7224 H 658.815 3.11876 0.212597 0
M  V30 7225 H 658.035 3.22213 -2.27095 0
M  V30 7226 H 659.323 4.41056 -2.53668 0
M  V30 7227 H 658.721 5.64312 0.396016 0
M  V30 7228 H 657.278 6.5176 0.0721001 0
M  V30 7229 N 660.711 1.11618 1.11262 0
M  V30 7230 C 661.957 0.867463 1.83311 0
M  V30 7231 C 662.29 -0.605366 1.84524 0
M  V30 7232 O 661.565 -1.44704 1.29965 0
M  V30 7233 C 661.848 1.43207 3.30399 0
M  V30 7234 C 661.701 2.97265 3.3757 0
M  V30 7235 C 663.02 1.08454 4.26528 0
M  V30 7236 H 660.139 0.316578 0.665543 0
M  V30 7237 H 662.781 1.38137 1.30454 0
M  V30 7238 H 660.931 0.994982 3.75543 0
M  V30 7239 H 662.603 3.49591 3.00971 0
M  V30 7240 H 660.846 3.33237 2.77733 0
M  V30 7241 H 661.517 3.31859 4.41105 0
M  V30 7242 H 663.993 1.4619 3.89574 0
M  V30 7243 H 662.869 1.50633 5.27826 0
M  V30 7244 H 663.13 -0.00444568 4.421 0
M  V30 7245 N 662.189 -1.289 0.906776 0
M  V30 7246 C 663.605 -1.47733 0.603902 0
M  V30 7247 C 663.805 -1.82568 -0.852702 0
M  V30 7248 O 662.861 -1.92642 -1.63234 0
M  V30 7249 C 664.174 -2.58522 1.53581 0
M  V30 7250 C 665.722 -2.72394 1.54177 0
M  V30 7251 C 666.197 -3.86318 2.46013 0
M  V30 7252 N 667.688 -3.93661 2.441 0
M  V30 7253 C 668.423 -4.81177 3.11859 0
M  V30 7254 N 667.919 -5.73333 3.88923 0
M  V30 7255 N 669.712 -4.74728 3.00981 0
M  V30 7256 H 661.863 -1.04567 1.84877 0
M  V30 7257 H 664.126 -0.520118 0.792579 0
M  V30 7258 H 663.832 -2.39667 2.57396 0
M  V30 7259 H 663.706 -3.55475 1.26165 0
M  V30 7260 H 666.093 -2.90641 0.511034 0
M  V30 7261 H 666.174 -1.75993 1.85634 0
M  V30 7262 H 665.818 -3.68826 3.49185 0
M  V30 7263 H 665.748 -4.82102 2.11862 0
M  V30 7264 H 668.239 -3.27751 1.88115 0
M  V30 7265 H 668.552 -6.36923 4.37663 0
M  V30 7266 H 666.897 -5.73196 3.93029 0
M  V30 7267 H 670.088 -4.01722 2.40286 0
M  V30 7268 H 670.261 -5.42719 3.54062 0
M  V30 7269 N 663.667 -0.670007 -1.42649 0
M  V30 7270 C 664.897 -0.198252 -2.05647 0
M  V30 7271 C 665.305 1.14786 -1.50402 0
M  V30 7272 O 664.648 1.72316 -0.636634 0
M  V30 7273 C 664.71 -0.0507132 -3.59464 0
M  V30 7274 C 664.374 -1.32478 -4.37377 0
M  V30 7275 C 665.371 -2.2572 -4.68344 0
M  V30 7276 C 663.056 -1.57104 -4.77099 0
M  V30 7277 C 665.05 -3.4187 -5.37963 0
M  V30 7278 C 662.737 -2.73543 -5.46459 0
M  V30 7279 C 663.735 -3.65751 -5.76815 0
M  V30 7280 O 663.423 -4.80154 -6.44753 0
M  V30 7281 H 663.155 -0.0950721 -0.669281 0
M  V30 7282 H 665.709 -0.915745 -1.83857 0
M  V30 7283 H 663.939 0.722314 -3.79894 0
M  V30 7284 H 665.628 0.380552 -4.04112 0
M  V30 7285 H 666.394 -2.07943 -4.38161 0
M  V30 7286 H 662.273 -0.862069 -4.52868 0
M  V30 7287 H 665.817 -4.13861 -5.61574 0
M  V30 7288 H 661.714 -2.91248 -5.7606 0
M  V30 7289 H 662.482 -4.79637 -6.63243 0
M  V30 7290 N 665.145 1.52092 -0.413018 0
M  V30 7291 C 666.093 2.28681 0.425199 0
M  V30 7292 C 667.087 1.3353 1.04241 0
M  V30 7293 O 668.293 1.50973 0.980166 0
M  V30 7294 H 664.668 0.735661 0.155906 0
M  V30 7295 H 666.639 2.97418 -0.241926 0
M  V30 7296 C 665.388 3.1235 1.5275 0
M  V30 7297 H 664.711 3.85439 1.06191 0
M  V30 7298 H 666.151 3.69038 2.08774 0
M  V30 7299 C 664.61 2.26161 2.49706 0
M  V30 7300 O 665.14 1.90452 3.53682 0
M  V30 7301 N 663.346 1.89854 2.20008 0
M  V30 7302 H 662.893 2.19092 1.35486 0
M  V30 7303 H 662.851 1.3248 2.85125 0
M  V30 7304 N 666.623 0.143563 1.56945 0
M  V30 7305 C 667.586 -0.783295 2.154 0
M  V30 7306 C 668.586 -1.17763 1.09492 0
M  V30 7307 O 669.776 -1.09912 1.35148 0
M  V30 7308 C 666.908 -2.06248 2.7143 0
M  V30 7309 H 668.101 -0.274863 2.98638 0
M  V30 7310 H 665.654 -0.105859 1.55941 0
M  V30 7311 H 666.389 -2.61466 1.91849 0
M  V30 7312 H 666.174 -1.78897 3.4891 0
M  V30 7313 H 667.664 -2.72453 3.16479 0
M  V30 7314 N 668.101 -1.57061 -0.130224 0
M  V30 7315 C 669.031 -2.02552 -1.16168 0
M  V30 7316 C 670.012 -0.907971 -1.4384 0
M  V30 7317 O 671.197 -1.17693 -1.54473 0
M  V30 7318 C 668.327 -2.42035 -2.49071 0
M  V30 7319 C 667.281 -3.5713 -2.35886 0
M  V30 7320 C 666.607 -3.82478 -3.7365 0
M  V30 7321 C 667.907 -4.89236 -1.8288 0
M  V30 7322 H 669.601 -2.8897 -0.783359 0
M  V30 7323 H 667.147 -1.39021 -0.375376 0
M  V30 7324 H 669.1 -2.72462 -3.21469 0
M  V30 7325 H 667.824 -1.52573 -2.88771 0
M  V30 7326 H 666.483 -3.26895 -1.65938 0
M  V30 7327 H 666.131 -2.9024 -4.10816 0
M  V30 7328 H 665.831 -4.59944 -3.65685 0
M  V30 7329 H 667.355 -4.15347 -4.47571 0
M  V30 7330 H 668.769 -5.18272 -2.45085 0
M  V30 7331 H 667.166 -5.70624 -1.85763 0
M  V30 7332 H 668.236 -4.78494 -0.785571 0
M  V30 7333 N 669.579 0.400081 -1.52437 0
M  V30 7334 C 670.509 1.4947 -1.7939 0
M  V30 7335 C 671.49 1.57383 -0.645329 0
M  V30 7336 O 672.675 1.72511 -0.891826 0
M  V30 7337 C 669.805 2.87201 -1.95276 0
M  V30 7338 C 668.759 2.94134 -3.10917 0
M  V30 7339 C 668.085 4.34207 -3.1204 0
M  V30 7340 C 669.385 2.64791 -4.50203 0
M  V30 7341 H 671.079 1.27165 -2.71052 0
M  V30 7342 H 668.625 0.610312 -1.30427 0
M  V30 7343 H 670.578 3.63772 -2.12715 0
M  V30 7344 H 669.302 3.10819 -1.00294 0
M  V30 7345 H 667.961 2.20009 -2.93243 0
M  V30 7346 H 667.609 4.54848 -2.14761 0
M  V30 7347 H 667.309 4.39768 -3.89715 0
M  V30 7348 H 668.833 5.127 -3.31619 0
M  V30 7349 H 670.247 3.31083 -4.68035 0
M  V30 7350 H 668.644 2.81717 -5.29864 0
M  V30 7351 H 669.714 1.60184 -4.57678 0
M  V30 7352 N 671.057 1.43213 0.657864 0
M  V30 7353 C 672.02 1.47687 1.75275 0
M  V30 7354 C 673.02 0.362179 1.56668 0
M  V30 7355 O 674.21 0.623734 1.62651 0
M  V30 7356 C 671.342 1.32497 3.14098 0
M  V30 7357 H 672.535 2.4519 1.7269 0
M  V30 7358 H 670.088 1.2991 0.869087 0
M  V30 7359 H 670.823 0.359831 3.22298 0
M  V30 7360 H 670.608 2.13299 3.29008 0
M  V30 7361 H 672.098 1.38549 3.93946 0
M  V30 7362 N 672.536 -0.895792 1.29666 0
M  V30 7363 C 673.782 -1.64908 1.18039 0
M  V30 7364 C 674.115 -1.9236 -0.266682 0
M  V30 7365 O 673.39 -1.53682 -1.19214 0
M  V30 7366 C 673.673 -2.99574 1.99819 0
M  V30 7367 C 673.526 -2.79163 3.52687 0
M  V30 7368 C 674.845 -4.00358 1.82761 0
M  V30 7369 H 671.964 -0.598437 0.430165 0
M  V30 7370 H 674.606 -1.03736 1.59182 0
M  V30 7371 H 672.756 -3.51786 1.64859 0
M  V30 7372 H 674.428 -2.33821 3.9765 0
M  V30 7373 H 672.671 -2.13871 3.77414 0
M  V30 7374 H 673.342 -3.74871 4.05186 0
M  V30 7375 H 675.818 -3.57268 2.13304 0
M  V30 7376 H 674.694 -4.92514 2.42325 0
M  V30 7377 H 674.955 -4.35096 0.783839 0
M  V30 7378 N 674.014 -1.12206 -1.10668 0
M  V30 7379 C 674.946 -0.74552 -2.16736 0
M  V30 7380 C 675.959 0.226696 -1.61214 0
M  V30 7381 O 677.148 0.0083936 -1.78498 0
M  V30 7382 C 674.248 -0.0823368 -3.388 0
M  V30 7383 C 673.421 -1.08341 -4.2377 0
M  V30 7384 C 672.48 -0.448292 -5.24287 0
M  V30 7385 O 671.506 -1.10458 -5.58379 0
M  V30 7386 N 672.708 0.785336 -5.75163 0
M  V30 7387 H 675.473 -1.65818 -2.49649 0
M  V30 7388 H 673.034 -1.01335 -1.26265 0
M  V30 7389 H 675.026 0.354476 -4.03145 0
M  V30 7390 H 673.596 0.733041 -3.03884 0
M  V30 7391 H 672.816 -1.69792 -3.55759 0
M  V30 7392 H 674.104 -1.76042 -4.77375 0
M  V30 7393 H 673.502 1.33755 -5.4966 0
M  V30 7394 H 672.059 1.16501 -6.41304 0
M  V30 7395 N 675.492 1.28418 -0.913599 0
M  V30 7396 C 676.439 2.27301 -0.400373 0
M  V30 7397 C 677.409 1.57582 0.52509 0
M  V30 7398 O 678.594 1.85482 0.447318 0
M  V30 7399 C 675.734 3.43284 0.35361 0
M  V30 7400 C 674.847 4.27752 -0.604341 0
M  V30 7401 C 673.982 5.30934 0.168075 0
M  V30 7402 C 673.021 6.07065 -0.783499 0
M  V30 7403 N 672.158 7.02086 -0.0446112 0
M  V30 7404 H 676.998 2.70579 -1.24865 0
M  V30 7405 H 674.535 1.33067 -0.627028 0
M  V30 7406 H 676.493 4.09322 0.806945 0
M  V30 7407 H 675.123 3.00997 1.16623 0
M  V30 7408 H 674.175 3.61759 -1.17621 0
M  V30 7409 H 675.487 4.80682 -1.33216 0
M  V30 7410 H 674.641 6.02855 0.681979 0
M  V30 7411 H 673.38 4.78771 0.928947 0
M  V30 7412 H 672.385 5.33995 -1.30878 0
M  V30 7413 H 673.61 6.61317 -1.54392 0
M  V30 7414 H 671.556 6.52273 0.698272 0
M  V30 7415 H 671.473 7.52637 -0.712258 0
M  V30 7416 H 672.741 7.78205 0.449102 0
M  V30 7417 N 676.97 0.677563 1.42291 0
M  V30 7418 C 677.9 0.014968 2.33495 0
M  V30 7419 C 678.881 -0.786376 1.50831 0
M  V30 7420 O 680.066 -0.742975 1.79426 0
M  V30 7421 C 677.196 -0.935023 3.34477 0
M  V30 7422 C 676.15 -0.242074 4.27315 0
M  V30 7423 C 675.476 -1.30519 5.18526 0
M  V30 7424 C 676.776 0.880604 5.14823 0
M  V30 7425 H 678.47 0.776671 2.89151 0
M  V30 7426 H 676.016 0.37494 1.39033 0
M  V30 7427 H 677.969 -1.40766 3.97194 0
M  V30 7428 H 676.693 -1.72818 2.77131 0
M  V30 7429 H 675.352 0.210351 3.65996 0
M  V30 7430 H 675 -2.09041 4.57505 0
M  V30 7431 H 674.7 -0.846652 5.81468 0
M  V30 7432 H 676.224 -1.7787 5.84119 0
M  V30 7433 H 677.638 0.489062 5.7121 0
M  V30 7434 H 676.035 1.26511 5.86613 0
M  V30 7435 H 677.105 1.72818 4.53059 0
M  V30 7436 N 678.448 -1.51871 0.421078 0
M  V30 7437 C 679.381 -2.23851 -0.443369 0
M  V30 7438 C 680.359 -1.25142 -1.03818 0
M  V30 7439 O 681.543 -1.5423 -1.08377 0
M  V30 7440 C 678.67 -2.97637 -1.61648 0
M  V30 7441 C 677.716 -4.10873 -1.14391 0
M  V30 7442 S 678.549 -5.35408 -0.0992403 0
M  V30 7443 C 679.705 -6.12726 -1.27739 0
M  V30 7444 H 679.938 -2.96826 0.167786 0
M  V30 7445 H 677.471 -1.53027 0.205461 0
M  V30 7446 H 679.429 -3.40751 -2.28909 0
M  V30 7447 H 678.09 -2.24282 -2.199 0
M  V30 7448 H 677.283 -4.61718 -2.02069 0
M  V30 7449 H 676.885 -3.69937 -0.549775 0
M  V30 7450 H 679.177 -6.40827 -2.19881 0
M  V30 7451 H 680.12 -7.03461 -0.809239 0
M  V30 7452 H 680.528 -5.43968 -1.5086 0
M  V30 7453 N 679.926 -0.151884 -1.56866 0
M  V30 7454 C 681.172 0.498742 -1.96572 0
M  V30 7455 C 681.505 1.64194 -1.03702 0
M  V30 7456 O 680.78 1.94334 -0.0803432 0
M  V30 7457 C 681.063 1.00027 -3.45929 0
M  V30 7458 C 680.916 -0.141767 -4.49577 0
M  V30 7459 C 682.235 1.88044 -3.97904 0
M  V30 7460 H 679.354 0.17982 -0.714726 0
M  V30 7461 H 681.996 -0.234097 -1.88552 0
M  V30 7462 H 680.146 1.62476 -3.52894 0
M  V30 7463 H 681.818 -0.778269 -4.54687 0
M  V30 7464 H 680.061 -0.80019 -4.26356 0
M  V30 7465 H 680.732 0.250947 -5.51429 0
M  V30 7466 H 683.208 1.35416 -3.93449 0
M  V30 7467 H 682.084 2.20043 -5.02864 0
M  V30 7468 H 682.345 2.81916 -3.40552 0
M  V30 7469 N 681.404 1.57128 0.121893 0
M  V30 7470 C 682.354 1.96556 1.15541 0
M  V30 7471 C 683.338 0.840147 1.37224 0
M  V30 7472 O 684.53 1.10382 1.38365 0
M  V30 7473 C 681.659 2.37097 2.48274 0
M  V30 7474 C 680.745 3.56265 2.30078 0
M  V30 7475 N 681.136 4.72041 1.81688 0
M  V30 7476 C 679.434 3.61841 2.60744 0
M  V30 7477 C 680.135 5.54075 1.77132 0
M  V30 7478 N 679.111 4.96483 2.21371 0
M  V30 7479 H 682.913 2.83531 0.77378 0
M  V30 7480 H 680.427 1.59019 0.329672 0
M  V30 7481 H 682.424 2.6356 3.2302 0
M  V30 7482 H 681.084 1.51486 2.87197 0
M  V30 7483 H 682.095 4.95313 1.51278 0
M  V30 7484 H 678.772 2.8683 3.03373 0
M  V30 7485 H 680.162 6.56939 1.40998 0
M  V30 7486 N 682.882 -0.391992 1.52647 0
M  V30 7487 C 683.83 -1.4991 1.77848 0
M  V30 7488 C 684.824 -1.56587 0.646282 0
M  V30 7489 O 686.03 -1.59789 0.828698 0
M  V30 7490 H 682.405 -0.498883 0.56269 0
M  V30 7491 H 684.376 -1.25847 2.70564 0
M  V30 7492 C 683.125 -2.87081 1.96163 0
M  V30 7493 H 682.448 -2.82692 2.82711 0
M  V30 7494 H 683.888 -3.63792 2.17787 0
M  V30 7495 C 682.347 -3.28822 0.733348 0
M  V30 7496 O 682.877 -4.01598 -0.0906481 0
M  V30 7497 N 681.083 -2.85068 0.564317 0
M  V30 7498 H 680.63 -2.26012 1.23598 0
M  V30 7499 H 680.588 -3.13355 -0.256166 0
M  V30 7500 N 684.36 -1.4356 -0.65026 0
M  V30 7501 C 685.606 -1.46545 -1.41054 0
M  V30 7502 C 685.961 -0.0894113 -1.92192 0
M  V30 7503 O 685.254 0.892427 -1.69547 0
M  V30 7504 C 685.448 -2.44528 -2.60654 0
M  V30 7505 C 685.277 -3.91524 -2.21222 0
M  V30 7506 C 684.047 -4.59866 -2.09408 0
M  V30 7507 C 686.245 -4.81276 -1.81323 0
M  V30 7508 N 684.227 -5.91772 -1.63337 0
M  V30 7509 C 685.598 -6.02478 -1.46356 0
M  V30 7510 C 687.653 -4.6851 -1.68532 0
M  V30 7511 C 686.356 -7.12332 -0.998805 0
M  V30 7512 C 688.382 -5.78369 -1.23461 0
M  V30 7513 C 687.744 -6.98699 -0.894337 0
M  V30 7514 H 683.843 -0.59135 -0.511693 0
M  V30 7515 H 686.427 -1.79759 -0.747978 0
M  V30 7516 H 684.598 -2.13336 -3.24565 0
M  V30 7517 H 686.33 -2.37932 -3.27369 0
M  V30 7518 H 683.085 -4.14412 -2.29259 0
M  V30 7519 H 683.509 -6.61799 -1.42655 0
M  V30 7520 H 688.151 -3.75933 -1.93479 0
M  V30 7521 H 685.869 -8.04734 -0.736835 0
M  V30 7522 H 689.455 -5.70512 -1.1405 0
M  V30 7523 H 688.335 -7.82263 -0.550901 0
M  V30 7524 N 685.838 0.888903 -1.30139 0
M  V30 7525 C 686.748 2.02705 -1.18101 0
M  V30 7526 C 687.764 1.73702 -0.101809 0
M  V30 7527 O 688.94 1.98906 -0.315984 0
M  V30 7528 C 686.005 3.35616 -0.869651 0
M  V30 7529 C 685.066 3.78067 -2.03381 0
M  V30 7530 C 684.299 5.04635 -1.73721 0
M  V30 7531 O 684.522 5.66531 -0.663267 0
M  V30 7532 O 683.456 5.43399 -2.58845 0
M  V30 7533 H 687.282 2.15788 -2.13704 0
M  V30 7534 H 684.867 1.01426 -1.09695 0
M  V30 7535 H 686.749 4.15358 -0.711043 0
M  V30 7536 H 685.424 3.23651 0.0565002 0
M  V30 7537 H 684.331 2.99046 -2.24772 0
M  V30 7538 H 685.664 3.94631 -2.94155 0
M  V30 7539 N 687.317 1.12792 1.10072 0
M  V30 7540 C 688.547 0.907189 1.85617 0
M  V30 7541 C 688.955 -0.547181 1.81115 0
M  V30 7542 O 688.298 -1.39024 1.20075 0
M  V30 7543 C 688.36 1.30872 3.34832 0
M  V30 7544 C 688.024 2.77516 3.6309 0
M  V30 7545 C 689.021 3.75696 3.59373 0
M  V30 7546 C 686.706 3.14513 3.91646 0
M  V30 7547 C 688.7 5.08888 3.83812 0
M  V30 7548 C 686.387 4.47886 4.15742 0
M  V30 7549 C 687.385 5.44882 4.11816 0
M  V30 7550 O 687.073 6.7585 4.35295 0
M  V30 7551 H 686.805 0.323855 0.593375 0
M  V30 7552 H 689.359 1.50262 1.40038 0
M  V30 7553 H 687.589 0.656518 3.81086 0
M  V30 7554 H 689.278 1.06153 3.91773 0
M  V30 7555 H 690.044 3.48458 3.37345 0
M  V30 7556 H 685.923 2.39622 3.93831 0
M  V30 7557 H 689.467 5.84586 3.80663 0
M  V30 7558 H 685.364 4.74851 4.37249 0
M  V30 7559 H 686.132 6.81853 4.52791 0
M  V30 7560 N 688.795 -1.27931 0.920396 0
M  V30 7561 C 689.725 -2.29487 0.431024 0
M  V30 7562 C 690.706 -1.62435 -0.504861 0
M  V30 7563 O 691.891 -1.89797 -0.411176 0
M  V30 7564 C 689.021 -3.45788 -0.323709 0
M  V30 7565 C 687.975 -4.24784 0.523658 0
M  V30 7566 C 687.301 -5.33488 -0.359809 0
M  V30 7567 C 688.601 -4.90874 1.78437 0
M  V30 7568 H 690.295 -2.70671 1.27975 0
M  V30 7569 H 687.841 -1.30121 0.616813 0
M  V30 7570 H 689.794 -4.15927 -0.676952 0
M  V30 7571 H 688.518 -3.03502 -1.2064 0
M  V30 7572 H 687.177 -3.56382 0.85951 0
M  V30 7573 H 686.825 -4.87445 -1.24124 0
M  V30 7574 H 686.525 -5.87247 0.203605 0
M  V30 7575 H 688.049 -6.06472 -0.708787 0
M  V30 7576 H 689.463 -5.53339 1.49963 0
M  V30 7577 H 687.86 -5.54659 2.29071 0
M  V30 7578 H 688.93 -4.14988 2.50824 0
M  V30 7579 N 690.273 -0.685099 -1.4193 0
M  V30 7580 C 691.521 -0.21124 -2.00993 0
M  V30 7581 C 691.842 1.18985 -1.54491 0
M  V30 7582 O 691.112 1.8009 -0.771 0
M  V30 7583 H 689.692 -0.0751059 -0.743215 0
M  V30 7584 H 692.354 -0.883915 -1.73704 0
M  V30 7585 H 691.45 -0.220513 -3.1132 0
M  V30 7586 N 691.751 1.51645 -0.429126 0
M  V30 7587 C 692.698 2.27542 0.386446 0
M  V30 7588 C 693.668 1.30786 1.02393 0
M  V30 7589 O 694.853 1.59678 1.0444 0
M  V30 7590 C 691.993 3.11457 1.48623 0
M  V30 7591 C 691.106 4.23196 0.867691 0
M  V30 7592 C 690.241 4.94435 1.94183 0
M  V30 7593 C 689.28 5.98108 1.30129 0
M  V30 7594 N 688.417 6.62786 2.31644 0
M  V30 7595 H 693.257 2.968 -0.267155 0
M  V30 7596 H 690.794 1.46397 -0.143591 0
M  V30 7597 H 692.752 3.58429 2.13506 0
M  V30 7598 H 691.382 2.44329 2.10957 0
M  V30 7599 H 690.434 3.80248 0.107373 0
M  V30 7600 H 691.746 4.97499 0.35997 0
M  V30 7601 H 690.9 5.44914 2.66747 0
M  V30 7602 H 689.639 4.19744 2.48326 0
M  V30 7603 H 688.644 5.4693 0.561082 0
M  V30 7604 H 689.869 6.74751 0.767303 0
M  V30 7605 H 687.815 5.90913 2.84883 0
M  V30 7606 H 687.732 7.32828 1.85741 0
M  V30 7607 H 689 7.17897 3.03717 0
M  V30 7608 N 693.229 0.160201 1.56784 0
M  V30 7609 C 694.161 -0.80564 2.14574 0
M  V30 7610 C 695.174 -1.20154 1.09849 0
M  V30 7611 O 696.363 -1.14333 1.37078 0
M  V30 7612 C 693.463 -2.09434 2.6644 0
M  V30 7613 C 692.636 -1.86375 3.95706 0
M  V30 7614 C 691.695 -2.99358 4.32749 0
M  V30 7615 O 690.721 -2.70475 5.00831 0
M  V30 7616 N 691.923 -4.26867 3.93402 0
M  V30 7617 H 694.688 -0.311644 2.98075 0
M  V30 7618 H 692.249 -0.0229465 1.61884 0
M  V30 7619 H 694.241 -2.84091 2.88226 0
M  V30 7620 H 692.811 -2.50057 1.8759 0
M  V30 7621 H 692.031 -0.956821 3.82412 0
M  V30 7622 H 693.319 -1.68322 4.80151 0
M  V30 7623 H 692.717 -4.53197 3.38569 0
M  V30 7624 H 691.274 -4.98263 4.20211 0
M  V30 7625 N 694.707 -1.5719 -0.113559 0
M  V30 7626 C 695.637 -2.03772 -1.14013 0
M  V30 7627 C 696.618 -0.923176 -1.42869 0
M  V30 7628 O 697.803 -1.19325 -1.53216 0
M  V30 7629 C 694.933 -2.44663 -2.4649 0
M  V30 7630 C 693.887 -3.59612 -2.32085 0
M  V30 7631 C 693.213 -3.8642 -3.69573 0
M  V30 7632 C 694.513 -4.91149 -1.7768 0
M  V30 7633 H 696.207 -2.89785 -0.752665 0
M  V30 7634 H 693.753 -1.39412 -0.360609 0
M  V30 7635 H 695.706 -2.75857 -3.18561 0
M  V30 7636 H 694.43 -1.55628 -2.87137 0
M  V30 7637 H 693.089 -3.28636 -1.62461 0
M  V30 7638 H 692.737 -2.94581 -4.07715 0
M  V30 7639 H 692.437 -4.63797 -3.60786 0
M  V30 7640 H 693.961 -4.2007 -4.4314 0
M  V30 7641 H 695.375 -5.20843 -2.39574 0
M  V30 7642 H 693.772 -5.72562 -1.79701 0
M  V30 7643 H 694.842 -4.79301 -0.734776 0
M  V30 7644 N 696.185 0.383891 -1.52853 0
M  V30 7645 C 697.117 1.48889 -1.74255 0
M  V30 7646 C 698.13 1.50405 -0.623063 0
M  V30 7647 O 699.319 1.54215 -0.898887 0
M  V30 7648 C 696.419 2.87721 -1.79081 0
M  V30 7649 C 695.592 3.10111 -3.08464 0
M  V30 7650 C 694.651 4.28954 -3.0477 0
M  V30 7651 O 693.677 4.25012 -3.78621 0
M  V30 7652 N 694.879 5.35411 -2.24311 0
M  V30 7653 H 697.644 1.30915 -2.69595 0
M  V30 7654 H 695.205 0.573454 -1.51404 0
M  V30 7655 H 697.197 3.65333 -1.7411 0
M  V30 7656 H 695.767 2.99029 -0.911052 0
M  V30 7657 H 694.987 2.20319 -3.26884 0
M  V30 7658 H 696.275 3.21928 -3.94005 0
M  V30 7659 H 695.673 5.41471 -1.63787 0
M  V30 7660 H 694.23 6.1167 -2.25175 0
M  V30 7661 N 697.663 1.43903 0.642637 0
M  V30 7662 C 698.888 1.49758 1.43483 0
M  V30 7663 C 699.313 0.119911 1.87717 0
M  V30 7664 O 698.671 -0.888558 1.58033 0
M  V30 7665 C 698.719 2.45744 2.63898 0
M  V30 7666 O 697.823 1.95101 3.63331 0
M  V30 7667 H 697.164 0.506138 0.429791 0
M  V30 7668 H 699.694 1.88923 0.785438 0
M  V30 7669 H 699.704 2.63399 3.11584 0
M  V30 7670 H 698.379 3.45818 2.31046 0
M  V30 7671 H 696.956 1.87158 3.22531 0
M  V30 7672 N 699.141 -0.881989 1.30609 0
M  V30 7673 C 700.051 -2.02076 1.19174 0
M  V30 7674 C 701.067 -1.73645 0.11102 0
M  V30 7675 O 702.243 -1.98735 0.326528 0
M  V30 7676 C 699.308 -3.3515 0.887438 0
M  V30 7677 C 698.369 -3.76983 2.05383 0
M  V30 7678 C 697.602 -5.03707 1.76395 0
M  V30 7679 O 697.825 -5.66171 0.693302 0
M  V30 7680 O 696.759 -5.42019 2.61723 0
M  V30 7681 H 700.585 -2.14652 2.14845 0
M  V30 7682 H 698.17 -1.00843 1.10232 0
M  V30 7683 H 700.052 -4.14975 0.73306 0
M  V30 7684 H 698.727 -3.23676 -0.0393354 0
M  V30 7685 H 697.634 -2.97849 2.26355 0
M  V30 7686 H 698.967 -3.93066 2.96243 0
M  V30 7687 N 700.619 -1.13374 -1.09472 0
M  V30 7688 C 701.551 -0.768466 -2.15933 0
M  V30 7689 C 702.564 0.209585 -1.61445 0
M  V30 7690 O 703.753 -0.010539 -1.78497 0
M  V30 7691 C 700.853 -0.118266 -3.38694 0
M  V30 7692 C 700.026 -1.12829 -4.22597 0
M  V30 7693 C 699.085 -0.503875 -5.23782 0
M  V30 7694 O 698.111 -1.16374 -5.57177 0
M  V30 7695 N 699.313 0.724288 -5.75964 0
M  V30 7696 H 702.078 -1.68457 -2.47876 0
M  V30 7697 H 699.639 -1.02668 -1.25183 0
M  V30 7698 H 701.631 0.311698 -4.03498 0
M  V30 7699 H 700.201 0.700769 -3.04644 0
M  V30 7700 H 699.421 -1.73556 -3.53938 0
M  V30 7701 H 700.709 -1.81095 -4.75481 0
M  V30 7702 H 700.107 1.27918 -5.51048 0
M  V30 7703 H 698.664 1.09692 -6.42504 0
M  V30 7704 N 702.098 1.27442 -0.927168 0
M  V30 7705 C 703.509 1.76385 -0.611979 0
M  V30 7706 C 703.86 1.75715 0.872853 0
M  V30 7707 O 702.985 1.3603 1.683 0
M  V30 7708 C 703.58 3.20303 -1.10414 0
M  V30 7709 C 702.139 3.66916 -0.839628 0
M  V30 7710 C 701.286 2.46859 -1.26317 0
M  V30 7711 H 704.237 1.13716 -1.107 0
M  V30 7712 H 704.258 3.77811 -0.451578 0
M  V30 7713 H 703.77 3.20759 -2.18484 0
M  V30 7714 H 701.871 3.71906 0.227292 0
M  V30 7715 H 701.984 4.56415 -1.45679 0
M  V30 7716 H 700.348 2.45407 -0.681723 0
M  V30 7717 H 701.131 2.50025 -2.3525 0
M  V30 7718 N 703.576 0.692616 1.41565 0
M  V30 7719 C 704.508 -0.0137132 2.29196 0
M  V30 7720 C 705.521 -0.747417 1.44629 0
M  V30 7721 O 706.71 -0.598611 1.68163 0
M  V30 7722 C 703.81 -1.04347 3.22436 0
M  V30 7723 C 702.983 -0.379985 4.35746 0
M  V30 7724 C 702.042 -1.31195 5.09583 0
M  V30 7725 O 701.068 -0.805455 5.63472 0
M  V30 7726 N 702.27 -2.64443 5.16769 0
M  V30 7727 H 705.035 0.738614 2.90456 0
M  V30 7728 H 702.596 0.538415 1.52685 0
M  V30 7729 H 704.588 -1.6686 3.687 0
M  V30 7730 H 703.158 -1.69736 2.62504 0
M  V30 7731 H 702.378 0.424975 3.91903 0
M  V30 7732 H 703.666 0.0814904 5.08735 0
M  V30 7733 H 703.064 -3.08114 4.74428 0
M  V30 7734 H 701.621 -3.22159 5.66619 0
M  V30 7735 N 705.054 -1.51416 0.437162 0
M  V30 7736 C 706.282 -2.06503 -0.128045 0
M  V30 7737 C 706.697 -1.30461 -1.36475 0
M  V30 7738 O 706.054 -0.364127 -1.78831 0
M  V30 7739 C 706.105 -3.58683 -0.450437 0
M  V30 7740 O 705.826 -4.31853 0.737186 0
M  V30 7741 C 707.327 -4.30284 -1.06633 0
M  V30 7742 H 704.547 -0.670952 -0.00800269 0
M  V30 7743 H 707.091 -1.94996 0.616193 0
M  V30 7744 H 705.246 -3.70106 -1.14457 0
M  V30 7745 H 705.66 -5.22467 0.461347 0
M  V30 7746 H 707.134 -5.37848 -1.24191 0
M  V30 7747 H 707.611 -3.88564 -2.0473 0
M  V30 7748 H 708.217 -4.23304 -0.411585 0
M  V30 7749 N 706.532 -0.168513 -1.56696 0
M  V30 7750 C 707.495 0.748928 -2.16619 0
M  V30 7751 C 708.495 1.16007 -1.11351 0
M  V30 7752 O 709.685 1.07748 -1.3688 0
M  V30 7753 C 706.817 2.01904 -2.74677 0
M  V30 7754 H 708.01 0.227317 -2.99037 0
M  V30 7755 H 705.563 0.0810372 -1.5609 0
M  V30 7756 H 706.298 2.58381 -1.95985 0
M  V30 7757 H 706.083 1.73323 -3.51712 0
M  V30 7758 H 707.573 2.67383 -3.20774 0
M  V30 7759 N 708.01 1.57248 0.105221 0
M  V30 7760 C 708.973 2.00388 1.11252 0
M  V30 7761 C 709.973 0.89594 1.33527 0
M  V30 7762 O 711.163 1.16166 1.29811 0
M  V30 7763 C 708.295 2.35589 2.46395 0
M  V30 7764 H 709.488 2.90591 0.741424 0
M  V30 7765 H 707.041 1.52332 0.349956 0
M  V30 7766 H 707.776 1.4831 2.884 0
M  V30 7767 H 707.561 3.16408 2.31578 0
M  V30 7768 H 709.051 2.69658 3.18864 0
M  V30 7769 N 709.488 -0.375779 1.53054 0
M  V30 7770 C 710.451 -1.44254 1.7811 0
M  V30 7771 C 711.451 -1.47018 0.651328 0
M  V30 7772 O 712.641 -1.47957 0.919472 0
M  V30 7773 C 709.773 -2.8345 1.89391 0
M  V30 7774 H 710.966 -1.23316 2.73374 0
M  V30 7775 H 708.519 -0.608312 1.43977 0
M  V30 7776 H 709.254 -3.09716 0.961589 0
M  V30 7777 H 709.039 -2.82844 2.71555 0
M  V30 7778 H 710.529 -3.60722 2.10404 0
M  V30 7779 N 710.966 -1.44241 -0.634997 0
M  V30 7780 C 712.382 -1.28043 -0.952742 0
M  V30 7781 C 712.582 -0.21338 -2.00367 0
M  V30 7782 O 711.638 0.402042 -2.49279 0
M  V30 7783 C 712.951 -2.65076 -1.41968 0
M  V30 7784 C 714.499 -2.72755 -1.53537 0
M  V30 7785 C 714.974 -4.10249 -2.03616 0
M  V30 7786 N 716.465 -4.12406 -2.10892 0
M  V30 7787 C 717.2 -5.15641 -2.50803 0
M  V30 7788 N 716.696 -6.29239 -2.89879 0
M  V30 7789 N 718.489 -5.02995 -2.50903 0
M  V30 7790 H 710.64 -2.12315 0.060098 0
M  V30 7791 H 712.903 -0.947326 -0.0357325 0
M  V30 7792 H 712.609 -3.44213 -0.721804 0
M  V30 7793 H 712.483 -2.91704 -2.39141 0
M  V30 7794 H 714.87 -1.93939 -2.22422 0
M  V30 7795 H 714.951 -2.49872 -0.547496 0
M  V30 7796 H 714.595 -4.8954 -1.35327 0
M  V30 7797 H 714.525 -4.30507 -3.03268 0
M  V30 7798 H 717.016 -3.30417 -1.83393 0
M  V30 7799 H 717.329 -7.03827 -3.19135 0
M  V30 7800 H 715.674 -6.32683 -2.8764 0
M  V30 7801 H 718.865 -4.13306 -2.19763 0
M  V30 7802 H 719.038 -5.83574 -2.81683 0
M  V30 7803 N 712.444 0.87505 -1.31075 0
M  V30 7804 C 713.669 1.66583 -1.23551 0
M  V30 7805 C 714.094 1.87067 0.19686 0
M  V30 7806 O 713.452 1.40877 1.1412 0
M  V30 7807 C 713.5 3.01401 -1.97965 0
M  V30 7808 O 712.604 3.90923 -1.31351 0
M  V30 7809 H 711.945 0.508645 -0.426821 0
M  V30 7810 H 714.475 1.09139 -1.7306 0
M  V30 7811 H 714.485 3.51374 -2.07366 0
M  V30 7812 H 713.16 2.85812 -3.02133 0
M  V30 7813 H 711.737 3.49369 -1.30368 0
M  V30 7814 O 713.961 1.25897 1.01154 0
M  V30 7815 H 714.652 1.04518 1.63082 0
M  V30 END ATOM
M  V30 BEGIN BOND
M  V30 END BOND
M  V30 END CTAB
M  END
$$$$
