drugbank_target|P0AE67 Chemotaxis protein CheY (DB02461; DB03487; DB04156)
 OpenBabel12092120033D

  0  0  0     0  0            999 V3000
M  V30 BEGIN CTAB
M  V30 COUNTS 1998 2010 0 0 0
M  V30 BEGIN ATOM
M  V30 1 H -0.908 1.98254 -0.117106 0
M  V30 2 N 0 1.576 0 0
M  V30 3 C 0.933 2.03868 1.02534 0
M  V30 4 C 1.911 0.928543 1.3348 0
M  V30 5 O 3.095 1.19667 1.45644 0
M  V30 6 C 0.222 2.43627 2.35294 0
M  V30 7 C -0.732 3.65373 2.2001 0
M  V30 8 S 0.101 5.13292 1.52614 0
M  V30 9 C 1.257 5.56322 2.86805 0
M  V30 10 H 1.49 2.90518 0.631377 0
M  V30 11 H -0.977 1.52953 0.210867 0
M  V30 12 H 0.981 2.67203 3.11629 0
M  V30 13 H -0.358 1.57376 2.7183 0
M  V30 14 H -1.165 3.90944 3.18086 0
M  V30 15 H -1.563 3.418 1.51819 0
M  V30 16 H 0.729 5.58782 3.83104 0
M  V30 17 H 1.672 6.56266 2.65933 0
M  V30 18 H 2.08 4.83886 2.90714 0
M  V30 19 N 1.4781 -0.272755 1.55222 0
M  V30 20 C 2.4411 -1.32041 1.87344 0
M  V30 21 C 3.4411 -1.42342 0.74803 0
M  V30 22 O 4.6311 -1.41488 1.0162 0
M  V30 23 C 1.7631 -2.70173 2.07893 0
M  V30 24 H 2.9561 -1.04789 2.80997 0
M  V30 25 H 0.5091 -0.51083 1.47717 0
M  V30 26 H 1.2441 -3.02605 1.16622 0
M  V30 27 H 1.0291 -2.64082 2.89833 0
M  V30 28 H 2.5191 -3.45869 2.34017 0
M  V30 29 N 2.9562 -1.48159 -0.537278 0
M  V30 30 C 4.2332 -1.46291 -1.29839 0
M  V30 31 C 4.6132 -0.170613 -2.10409 0
M  V30 32 O 3.9612 0.847746 -2.12192 0
M  V30 33 C 4.1712 -2.72055 -2.18603 0
M  V30 34 C 5.5192 -3.20087 -2.7898 0
M  V30 35 O 6.5432 -2.72921 -2.28894 0
M  V30 36 O 5.4022 -4.02138 -3.70064 0
M  V30 37 H 2.4962 -0.583906 -0.585647 0
M  V30 38 H 5.0422 -1.60384 -0.554534 0
M  V30 39 H 3.8142 -3.57628 -1.58801 0
M  V30 40 H 3.4372 -2.60646 -3.00249 0
M  V30 41 N 4.4343 0.785586 -1.36625 0
M  V30 42 C 5.3813 1.89838 -1.31264 0
M  V30 43 C 6.3513 1.65115 -0.180633 0
M  V30 44 O 7.5363 1.87222 -0.36777 0
M  V30 45 C 4.6763 3.26706 -1.11163 0
M  V30 46 C 3.7893 3.63476 -2.33472 0
M  V30 47 C 2.9243 4.89481 -2.06353 0
M  V30 48 C 1.9633 5.18941 -3.24602 0
M  V30 49 N 1.1003 6.36131 -2.97123 0
M  V30 50 H 5.9403 1.93756 -2.26413 0
M  V30 51 H 3.4773 0.947454 -1.12524 0
M  V30 52 H 5.4353 4.05639 -0.975337 0
M  V30 53 H 4.0653 3.222 -0.196674 0
M  V30 54 H 3.1173 2.79636 -2.57891 0
M  V30 55 H 4.4293 3.81193 -3.21704 0
M  V30 56 H 3.5833 5.76288 -1.89675 0
M  V30 57 H 2.3223 4.73841 -1.15437 0
M  V30 58 H 1.3273 4.30615 -3.41834 0
M  V30 59 H 2.5523 5.36498 -4.16349 0
M  V30 60 H 0.4983 6.21875 -2.08823 0
M  V30 61 H 0.4153 6.54198 -3.78894 0
M  V30 62 H 1.6833 7.2591 -2.84033 0
M  V30 63 N 5.9124 1.20967 1.01018 0
M  V30 64 C 6.8224 0.980157 2.13143 0
M  V30 65 C 7.8384 -0.0660665 1.73875 0
M  V30 66 O 9.0144 0.122821 2.01025 0
M  V30 67 C 6.0794 0.54216 3.42435 0
M  V30 68 C 5.1404 1.65999 3.95908 0
M  V30 69 C 4.3734 1.2428 5.19028 0
M  V30 70 O 4.5964 0.114196 5.70286 0
M  V30 71 O 3.5304 2.05271 5.65816 0
M  V30 72 H 7.3564 1.91913 2.35379 0
M  V30 73 H 4.9414 0.994099 1.11526 0
M  V30 74 H 6.8234 0.30744 4.20277 0
M  V30 75 H 5.4984 -0.36815 3.216 0
M  V30 76 H 4.4054 1.94906 3.19316 0
M  V30 77 H 5.7384 2.54753 4.21143 0
M  V30 78 N 7.3905 -1.2043 1.01659 0
M  V30 79 C 8.3205 -2.25466 0.607226 0
M  V30 80 C 9.3015 -1.65853 -0.377716 0
M  V30 81 O 10.4865 -1.92409 -0.263149 0
M  V30 82 C 7.6165 -3.47256 -0.0552949 0
M  V30 83 C 6.5705 -4.19462 0.850632 0
M  V30 84 C 5.8965 -5.34673 0.0538859 0
M  V30 85 C 7.1965 -4.75603 2.15868 0
M  V30 86 H 8.8905 -2.59962 1.48526 0
M  V30 87 H 6.4365 -1.2496 0.715605 0
M  V30 88 H 8.3895 -4.19917 -0.353233 0
M  V30 89 H 7.1135 -3.11924 -0.968045 0
M  V30 90 H 5.7725 -3.48667 1.13257 0
M  V30 91 H 5.4205 -4.95585 -0.860514 0
M  V30 92 H 5.1205 -5.83913 0.657192 0
M  V30 93 H 6.6445 -6.10138 -0.237598 0
M  V30 94 H 8.0585 -5.40083 1.92311 0
M  V30 95 H 6.4555 -5.3528 2.71284 0
M  V30 96 H 7.5255 -3.94346 2.82169 0
M  V30 97 N 8.8686 -0.792821 -1.36206 0
M  V30 98 C 9.8156 -0.191653 -2.30003 0
M  V30 99 C 10.7856 0.666453 -1.52143 0
M  V30 100 O 11.9706 0.61442 -1.80636 0
M  V30 101 C 9.1106 0.664848 -3.38635 0
M  V30 102 C 8.2236 -0.212175 -4.31479 0
M  V30 103 C 7.3586 0.651022 -5.27196 0
M  V30 104 C 6.3976 -0.227247 -6.11678 0
M  V30 105 N 5.5346 0.595127 -6.99573 0
M  V30 106 H 10.3746 -0.996978 -2.80828 0
M  V30 107 H 7.9116 -0.503206 -1.38225 0
M  V30 108 H 9.8696 1.17645 -4.00269 0
M  V30 109 H 8.4996 1.43557 -2.89122 0
M  V30 110 H 7.5516 -0.841777 -3.70969 0
M  V30 111 H 8.8636 -0.888751 -4.90818 0
M  V30 112 H 8.0176 1.2283 -5.94136 0
M  V30 113 H 6.7566 1.36121 -4.68319 0
M  V30 114 H 5.7616 -0.816904 -5.43697 0
M  V30 115 H 6.9866 -0.93509 -6.72631 0
M  V30 116 H 4.9326 1.28955 -6.432 0
M  V30 117 H 4.8496 -0.0236952 -7.55996 0
M  V30 118 H 6.1176 1.15613 -7.70879 0
M  V30 119 N 10.3467 1.47872 -0.545128 0
M  V30 120 C 11.5937 2.02493 -0.0165858 0
M  V30 121 C 11.9217 1.42073 1.32836 0
M  V30 122 O 11.1767 0.561459 1.87473 0
M  V30 123 C 11.4757 3.57131 0.13867 0
M  V30 124 C 11.1417 4.36411 -1.13384 0
M  V30 125 C 9.8037 4.57792 -1.48256 0
M  V30 126 C 12.1557 4.82223 -1.97764 0
M  V30 127 C 9.4837 5.22233 -2.67376 0
M  V30 128 C 11.8357 5.47977 -3.16076 0
M  V30 129 C 10.4997 5.67593 -3.51275 0
M  V30 130 H 9.7697 0.740975 -0.00606918 0
M  V30 131 H 12.4167 1.77683 -0.714207 0
M  V30 132 H 10.7217 3.80865 0.919172 0
M  V30 133 H 12.4187 3.97031 0.562782 0
M  V30 134 H 9.0087 4.2004 -0.852297 0
M  V30 135 H 13.1927 4.65493 -1.72132 0
M  V30 136 H 8.4487 5.35616 -2.94831 0
M  V30 137 H 12.6227 5.8244 -3.81755 0
M  V30 138 H 10.2497 6.17298 -4.43675 0
M  V30 139 N 11.8248 0.280983 1.55075 0
M  V30 140 C 12.7548 -0.597469 2.25727 0
M  V30 141 C 13.7358 -1.15417 1.24952 0
M  V30 142 O 14.9208 -1.18722 1.53684 0
M  V30 143 C 12.0508 -1.7789 2.98283 0
M  V30 144 C 11.0048 -1.35347 4.06036 0
M  V30 145 C 10.3308 -2.61846 4.66198 0
M  V30 146 C 11.6308 -0.499354 5.19907 0
M  V30 147 H 13.3248 -0.00824265 2.99399 0
M  V30 148 H 10.8708 -0.0025244 1.44 0
M  V30 149 H 12.8238 -2.39937 3.46422 0
M  V30 150 H 11.5478 -2.39405 2.22155 0
M  V30 151 H 10.2068 -0.756156 3.58717 0
M  V30 152 H 9.8548 -3.21632 3.86732 0
M  V30 153 H 9.5548 -2.3409 5.38958 0
M  V30 154 H 11.0788 -3.24732 5.1709 0
M  V30 155 H 12.4928 -1.02498 5.64063 0
M  V30 156 H 10.8898 -0.316424 5.99265 0
M  V30 157 H 11.9598 0.480459 4.82514 0
M  V30 158 N 13.3029 -1.57598 0.00835791 0
M  V30 159 C 14.5489 -1.91211 -0.675732 0
M  V30 160 C 14.8819 -0.883139 -1.72958 0
M  V30 161 O 14.1569 0.097016 -1.94258 0
M  V30 162 C 14.4399 -3.35379 -1.31123 0
M  V30 163 C 14.2929 -4.48999 -0.268356 0
M  V30 164 C 15.6119 -3.7912 -2.23508 0
M  V30 165 H 12.7309 -0.695374 -0.244179 0
M  V30 166 H 15.3729 -1.89901 0.0613655 0
M  V30 167 H 13.5229 -3.36626 -1.93946 0
M  V30 168 H 15.1949 -4.59887 0.360844 0
M  V30 169 H 13.4379 -4.31873 0.408482 0
M  V30 170 H 14.1089 -5.46851 -0.752218 0
M  V30 171 H 16.5849 -3.79477 -1.70693 0
M  V30 172 H 15.4609 -4.80729 -2.64936 0
M  V30 173 H 15.7219 -3.13455 -3.11766 0
M  V30 174 N 14.781 0.264519 -1.55364 0
M  V30 175 C 16.027 0.99646 -1.76631 0
M  V30 176 C 16.36 1.85632 -0.570478 0
M  V30 177 O 15.635 1.89647 0.43175 0
M  V30 178 C 15.918 1.87187 -3.07625 0
M  V30 179 C 15.771 1.04138 -4.37579 0
M  V30 180 C 17.09 2.85749 -3.34717 0
M  V30 181 H 14.209 0.360841 -0.642622 0
M  V30 182 H 16.851 0.268218 -1.88097 0
M  V30 183 H 15.001 2.49279 -2.9798 0
M  V30 184 H 16.673 0.440517 -4.59192 0
M  V30 185 H 14.916 0.345115 -4.32425 0
M  V30 186 H 15.587 1.68729 -5.2558 0
M  V30 187 H 18.063 2.33793 -3.4421 0
M  V30 188 H 16.939 3.44136 -4.27623 0
M  V30 189 H 17.2 3.61311 -2.54768 0
M  V30 190 N 16.2591 1.48442 0.529413 0
M  V30 191 C 17.5361 1.46978 1.29062 0
M  V30 192 C 17.9161 0.181769 2.10316 0
M  V30 193 O 17.2641 -0.836481 2.12639 0
M  V30 194 C 17.4741 2.7321 2.17157 0
M  V30 195 C 18.8221 3.21562 2.77278 0
M  V30 196 O 19.8461 2.74131 2.27444 0
M  V30 197 O 18.7051 4.04094 3.67927 0
M  V30 198 H 15.7991 0.587003 0.582543 0
M  V30 199 H 18.3451 1.60676 0.546021 0
M  V30 200 H 17.1171 3.58465 1.56903 0
M  V30 201 H 16.7401 2.62235 2.98862 0
M  V30 202 N 17.7372 -0.778329 1.37039 0
M  V30 203 C 19.0142 -1.52551 1.22424 0
M  V30 204 C 19.3942 -2.10288 -0.184964 0
M  V30 205 O 18.7422 -1.94953 -1.19187 0
M  V30 206 C 18.9522 -2.61164 2.31504 0
M  V30 207 C 20.3002 -3.28746 2.68721 0
M  V30 208 O 21.3242 -2.71455 2.30631 0
M  V30 209 O 20.1832 -4.3231 3.3432 0
M  V30 210 H 17.2772 -0.675343 0.477326 0
M  V30 211 H 19.8232 -0.815859 1.48801 0
M  V30 212 H 18.5952 -2.16574 3.25901 0
M  V30 213 H 18.2182 -3.39737 2.06554 0
M  V30 214 N 19.2153 -1.21501 -1.00376 0
M  V30 215 C 20.4623 -1.03299 -1.74171 0
M  V30 216 C 20.7903 0.433326 -1.89612 0
M  V30 217 O 20.0453 1.33779 -1.42834 0
M  V30 218 C 20.3443 -1.67673 -3.15627 0
M  V30 219 C 20.0103 -3.17533 -3.2013 0
M  V30 220 C 18.6723 -3.58427 -3.21067 0
M  V30 221 C 21.0243 -4.13504 -3.17275 0
M  V30 222 C 18.3523 -4.93794 -3.16835 0
M  V30 223 C 20.7043 -5.48834 -3.14585 0
M  V30 224 C 19.3683 -5.89123 -3.13831 0
M  V30 225 H 18.6383 -0.377999 -0.637336 0
M  V30 226 H 21.2853 -1.51111 -1.17634 0
M  V30 227 H 19.5903 -1.12158 -3.75404 0
M  V30 228 H 21.2873 -1.51091 -3.71446 0
M  V30 229 H 17.8773 -2.84965 -3.20145 0
M  V30 230 H 22.0613 -3.82936 -3.15711 0
M  V30 231 H 17.3173 -5.24255 -3.1459 0
M  V30 232 H 21.4913 -6.22934 -3.1133 0
M  V30 233 H 19.1183 -6.93984 -3.10307 0
M  V30 234 N 20.6934 1.19889 -1.02296 0
M  V30 235 C 21.9184 1.9393 -0.735237 0
M  V30 236 C 22.3434 1.74639 0.698782 0
M  V30 237 O 21.7014 1.04481 1.48167 0
M  V30 238 C 21.7494 3.43916 -1.08417 0
M  V30 239 O 20.8534 4.11917 -0.199446 0
M  V30 240 H 20.1944 0.605645 -0.272196 0
M  V30 241 H 22.7244 1.52137 -1.36804 0
M  V30 242 H 22.7344 3.9456 -1.03856 0
M  V30 243 H 21.4094 3.5728 -2.12894 0
M  V30 244 H 19.9864 3.71666 -0.303136 0
M  V30 245 N 22.1715 0.800033 1.35784 0
M  V30 246 C 23.3995 0.389606 2.03199 0
M  V30 247 C 23.8145 -0.997375 1.60306 0
M  V30 248 O 23.1715 -1.64154 0.797481 0
M  V30 249 C 23.2225 0.455855 3.58614 0
M  V30 250 O 22.9435 1.78815 3.99946 0
M  V30 251 C 24.4445 0.0374032 4.43284 0
M  V30 252 H 21.6645 0.159132 0.651857 0
M  V30 253 H 24.2085 1.08183 1.73541 0
M  V30 254 H 22.3635 -0.188057 3.86943 0
M  V30 255 H 22.7775 1.74636 4.94573 0
M  V30 256 H 24.2515 0.134882 5.51835 0
M  V30 257 H 24.7285 -1.01651 4.27275 0
M  V30 258 H 25.3345 0.654215 4.20238 0
M  V30 259 N 23.6496 -1.47581 0.552962 0
M  V30 260 C 24.5826 -2.26883 -0.244857 0
M  V30 261 C 25.5606 -1.33784 -0.924147 0
M  V30 262 O 26.7446 -1.6316 -0.943981 0
M  V30 263 C 23.8716 -3.10695 -1.34856 0
M  V30 264 C 22.9176 -4.19339 -0.778268 0
M  V30 265 S 23.7506 -5.34207 0.37184 0
M  V30 266 C 24.9066 -6.21584 -0.733779 0
M  V30 267 H 25.1396 -2.94202 0.428087 0
M  V30 268 H 22.6726 -1.50628 0.339197 0
M  V30 269 H 24.6306 -3.59555 -1.98066 0
M  V30 270 H 23.2916 -2.42746 -1.99332 0
M  V30 271 H 22.4846 -4.77695 -1.60696 0
M  V30 272 H 22.0866 -3.73338 -0.222422 0
M  V30 273 H 24.3786 -6.57676 -1.62692 0
M  V30 274 H 25.3216 -7.07851 -0.187668 0
M  V30 275 H 25.7296 -5.55125 -1.02454 0
M  V30 276 N 25.1277 -0.289203 -1.54924 0
M  V30 277 C 26.5437 0.0645403 -1.59469 0
M  V30 278 C 26.7437 1.53419 -1.30632 0
M  V30 279 O 25.7997 2.2852 -1.074 0
M  V30 280 C 27.1127 -0.32278 -2.98963 0
M  V30 281 C 28.6607 -0.270564 -3.11828 0
M  V30 282 C 29.1357 -0.632532 -4.53611 0
M  V30 283 N 30.6267 -0.584617 -4.59496 0
M  V30 284 C 31.3617 -0.837314 -5.67254 0
M  V30 285 N 30.8577 -1.15536 -6.83098 0
M  V30 286 N 32.6507 -0.765166 -5.56868 0
M  V30 287 H 24.8017 -1.24714 -1.71931 0
M  V30 288 H 27.0647 -0.504809 -0.802416 0
M  V30 289 H 26.7707 -1.34541 -3.24948 0
M  V30 290 H 26.6447 0.32944 -3.75759 0
M  V30 291 H 29.0317 0.742805 -2.85598 0
M  V30 292 H 29.1127 -0.957242 -2.37214 0
M  V30 293 H 28.7567 -1.64365 -4.80569 0
M  V30 294 H 28.6867 0.07609 -5.26545 0
M  V30 295 H 31.1777 -0.349248 -3.76283 0
M  V30 296 H 31.4907 -1.33447 -7.61191 0
M  V30 297 H 29.8357 -1.19328 -6.84679 0
M  V30 298 H 33.0267 -0.516432 -4.65243 0
M  V30 299 H 33.1997 -0.965477 -6.40767 0
M  V30 300 N 26.6058 1.57591 -0.0167156 0
M  V30 301 C 28.0218 1.55946 0.339557 0
M  V30 302 C 28.2218 1.02109 1.73713 0
M  V30 303 O 27.2778 0.662303 2.43659 0
M  V30 304 C 28.5908 3.00037 0.199499 0
M  V30 305 C 30.1388 3.11805 0.273193 0
M  V30 306 C 30.6138 4.57713 0.162068 0
M  V30 307 N 32.1048 4.6268 0.219444 0
M  V30 308 C 32.8398 5.73185 0.157054 0
M  V30 309 N 32.3358 6.92786 0.0442936 0
M  V30 310 N 34.1288 5.61707 0.21014 0
M  V30 311 H 26.2798 1.90921 -0.930758 0
M  V30 312 H 28.5428 0.877674 -0.358319 0
M  V30 313 H 28.2488 3.4333 -0.76273 0
M  V30 314 H 28.1228 3.64387 0.974786 0
M  V30 315 H 30.5098 2.68433 1.22587 0
M  V30 316 H 30.5908 2.50201 -0.532256 0
M  V30 317 H 30.2348 5.01763 -0.78714 0
M  V30 318 H 30.1648 5.17283 0.986222 0
M  V30 319 H 32.6558 3.76649 0.307246 0
M  V30 320 H 32.9688 7.728 0.00304069 0
M  V30 321 H 31.3138 6.94999 0.00968457 0
M  V30 322 H 34.5048 4.6716 0.296546 0
M  V30 323 H 34.6778 6.47807 0.158054 0
M  V30 324 N 28.0839 -0.256276 1.55502 0
M  V30 325 C 29.3329 -0.983486 1.76098 0
M  V30 326 C 29.6459 -1.86837 0.578896 0
M  V30 327 O 30.8519 -2.63163 0.667648 0
M  V30 328 C 29.3079 -1.79868 3.1173 0
M  V30 329 C 28.9159 -0.961648 4.37557 0
M  V30 330 C 30.6599 -2.51919 3.41668 0
M  V30 331 C 28.5669 -1.77219 5.64223 0
M  V30 332 H 27.4969 -0.370936 0.656447 0
M  V30 333 H 30.1479 -0.238492 1.81944 0
M  V30 334 H 28.5299 -2.58527 2.99966 0
M  V30 335 H 29.7039 -0.218048 4.60284 0
M  V30 336 H 28.0189 -0.354913 4.14885 0
M  V30 337 H 30.6159 -3.12998 4.33516 0
M  V30 338 H 30.9589 -3.23059 2.62562 0
M  V30 339 H 31.4919 -1.80278 3.54605 0
M  V30 340 H 28.2309 -1.10471 6.46124 0
M  V30 341 H 27.7509 -2.49132 5.45613 0
M  V30 342 H 29.4299 -2.34169 6.03137 0
M  V30 343 N 29.562 -1.4872 -0.521534 0
M  V30 344 C 30.808 -1.574 -1.27879 0
M  V30 345 C 31.141 -0.250817 -1.92573 0
M  V30 346 O 30.416 0.743934 -1.79711 0
M  V30 347 C 30.699 -2.71843 -2.36164 0
M  V30 348 C 30.552 -4.13893 -1.76105 0
M  V30 349 C 31.871 -2.82008 -3.37875 0
M  V30 350 H 28.99 -0.572941 -0.463581 0
M  V30 351 H 31.632 -1.80927 -0.580119 0
M  V30 352 H 29.782 -2.51914 -2.95756 0
M  V30 353 H 31.454 -4.45284 -1.20499 0
M  V30 354 H 29.697 -4.20498 -1.06601 0
M  V30 355 H 30.368 -4.89804 -2.5455 0
M  V30 356 H 32.844 -3.00086 -2.88249 0
M  V30 357 H 31.72 -3.63796 -4.11028 0
M  V30 358 H 31.981 -1.90511 -3.98946 0
M  V30 359 N 31.0401 0.771051 -1.3745 0
M  V30 360 C 32.4561 1.07171 -1.18265 0
M  V30 361 C 32.6561 2.01491 -0.019287 0
M  V30 362 O 31.7121 2.44244 0.640408 0
M  V30 363 C 33.0251 1.66854 -2.50161 0
M  V30 364 C 34.5731 1.79109 -2.56689 0
M  V30 365 C 35.0481 2.42205 -3.88717 0
M  V30 366 N 36.5391 2.49655 -3.90162 0
M  V30 367 C 37.2741 2.9933 -4.8907 0
M  V30 368 N 36.7701 3.49172 -5.98374 0
M  V30 369 N 38.5631 2.9821 -4.76474 0
M  V30 370 H 30.7141 0.144796 -2.11906 0
M  V30 371 H 32.9771 0.126863 -0.939473 0
M  V30 372 H 32.6831 1.05017 -3.35655 0
M  V30 373 H 32.5571 2.6614 -2.673 0
M  V30 374 H 34.9441 2.40077 -1.71601 0
M  V30 375 H 35.0251 0.785757 -2.43433 0
M  V30 376 H 34.6691 1.81875 -4.74219 0
M  V30 377 H 34.5991 3.43345 -3.99276 0
M  V30 378 H 37.0901 2.14383 -3.11205 0
M  V30 379 H 37.4031 3.8548 -6.69795 0
M  V30 380 H 35.7481 3.47275 -6.02018 0
M  V30 381 H 38.9391 2.58572 -3.90203 0
M  V30 382 H 39.1121 3.36613 -5.53711 0
M  V30 383 N 32.5182 1.22032 0.997298 0
M  V30 384 C 33.4662 0.983634 2.10778 0
M  V30 385 C 34.4602 -0.0717564 1.69248 0
M  V30 386 O 35.6662 0.080304 1.79821 0
M  V30 387 H 32.0412 0.300877 0.689186 0
M  V30 388 H 34.0122 1.92606 2.27916 0
M  V30 389 C 32.7612 0.57326 3.42942 0
M  V30 390 H 32.0842 1.37702 3.75338 0
M  V30 391 H 33.5242 0.447031 4.21637 0
M  V30 392 C 31.9832 -0.7167 3.29188 0
M  V30 393 O 32.5132 -1.77027 3.60589 0
M  V30 394 N 30.7192 -0.686167 2.82383 0
M  V30 395 H 30.2662 0.171507 2.57028 0
M  V30 396 H 30.2242 -1.54955 2.73562 0
M  V30 397 N 33.9963 -1.19345 1.0293 0
M  V30 398 C 34.9263 -2.2481 0.631105 0
M  V30 399 C 35.9073 -1.66245 -0.360104 0
M  V30 400 O 37.0923 -1.92677 -0.242726 0
M  V30 401 C 34.2223 -3.47295 -0.0184607 0
M  V30 402 C 33.1763 -4.18536 0.895073 0
M  V30 403 C 32.5023 -5.34586 0.110592 0
M  V30 404 C 33.8023 -4.73287 2.209 0
M  V30 405 H 35.4963 -2.58372 1.51275 0
M  V30 406 H 33.0423 -1.24194 0.728818 0
M  V30 407 H 34.9953 -4.20268 -0.308675 0
M  V30 408 H 33.7193 -3.12933 -0.934907 0
M  V30 409 H 32.3783 -3.47446 1.16949 0
M  V30 410 H 32.0263 -4.96469 -0.807902 0
M  V30 411 H 31.7263 -5.83183 0.719087 0
M  V30 412 H 33.2503 -6.10355 -0.172871 0
M  V30 413 H 34.6643 -5.38013 1.98028 0
M  V30 414 H 33.0613 -5.32373 2.76946 0
M  V30 415 H 34.1313 -3.91331 2.86336 0
M  V30 416 N 35.4744 -0.807222 -1.35358 0
M  V30 417 C 36.4044 -0.232509 -2.3234 0
M  V30 418 C 37.3854 0.642386 -1.57504 0
M  V30 419 O 38.5704 0.572526 -1.85569 0
M  V30 420 C 35.7004 0.619238 -3.41735 0
M  V30 421 C 34.6544 -0.157215 -4.27711 0
M  V30 422 C 33.9804 0.816273 -5.28433 0
M  V30 423 C 35.2804 -1.35656 -5.04376 0
M  V30 424 H 36.9744 -1.04276 -2.80654 0
M  V30 425 H 34.5204 -0.50288 -1.34934 0
M  V30 426 H 36.4734 1.03137 -4.08584 0
M  V30 427 H 35.1974 1.46239 -2.92031 0
M  V30 428 H 33.8564 -0.550525 -3.62443 0
M  V30 429 H 33.5044 1.65494 -4.74996 0
M  V30 430 H 33.2044 0.301067 -5.86828 0
M  V30 431 H 34.7284 1.22659 -5.98153 0
M  V30 432 H 36.1424 -1.01927 -5.64166 0
M  V30 433 H 34.5394 -1.8063 -5.7227 0
M  V30 434 H 35.6094 -2.14288 -4.34981 0
M  V30 435 N 36.9525 1.47285 -0.560781 0
M  V30 436 C 37.8995 2.30058 0.18491 0
M  V30 437 C 38.8695 1.39281 0.904986 0
M  V30 438 O 40.0545 1.68241 0.899979 0
M  V30 439 C 37.1945 3.23317 1.20666 0
M  V30 440 C 36.3075 4.29186 0.492285 0
M  V30 441 C 35.4425 5.09592 1.49964 0
M  V30 442 C 34.4815 6.07232 0.770439 0
M  V30 443 N 33.6185 6.80584 1.72479 0
M  V30 444 H 38.4585 2.93302 -0.527048 0
M  V30 445 H 35.9955 1.44568 -0.271738 0
M  V30 446 H 37.9535 3.75811 1.81168 0
M  V30 447 H 36.5835 2.61929 1.88661 0
M  V30 448 H 35.6355 3.7972 -0.227333 0
M  V30 449 H 36.9475 4.98738 -0.0787929 0
M  V30 450 H 36.1015 5.66254 2.17809 0
M  V30 451 H 34.8405 4.3995 2.10464 0
M  V30 452 H 33.8455 5.49745 0.0780846 0
M  V30 453 H 35.0705 6.78884 0.171134 0
M  V30 454 H 33.0165 6.1367 2.3183 0
M  V30 455 H 32.9335 7.46319 1.20596 0
M  V30 456 H 34.2015 7.41818 2.39428 0
M  V30 457 N 38.4306 0.297415 1.54768 0
M  V30 458 C 39.3406 -0.58983 2.27064 0
M  V30 459 C 40.3566 -1.15144 1.30453 0
M  V30 460 O 41.5326 -1.17699 1.63428 0
M  V30 461 C 38.5976 -1.74714 2.9946 0
M  V30 462 C 37.6586 -1.21997 4.11601 0
M  V30 463 C 36.8916 -2.32212 4.80535 0
M  V30 464 O 37.1146 -3.52036 4.48806 0
M  V30 465 O 36.0486 -1.99106 5.68014 0
M  V30 466 H 39.8746 -0.00348199 3.037 0
M  V30 467 H 37.4596 0.0640035 1.49263 0
M  V30 468 H 39.3416 -2.42147 3.44881 0
M  V30 469 H 38.0166 -2.32016 2.25722 0
M  V30 470 H 36.9236 -0.511458 3.70587 0
M  V30 471 H 38.2566 -0.692419 4.87305 0
M  V30 472 N 39.9087 -1.5758 0.0250728 0
M  V30 473 C 40.8387 -2.13007 -0.956575 0
M  V30 474 C 41.8197 -1.0452 -1.342 0
M  V30 475 O 43.0047 -1.32332 -1.42133 0
M  V30 476 C 40.1347 -2.65386 -2.24026 0
M  V30 477 C 39.0887 -3.78623 -1.99571 0
M  V30 478 C 38.4147 -4.17414 -3.3417 0
M  V30 479 C 39.7147 -5.04867 -1.33814 0
M  V30 480 H 41.4087 -2.9528 -0.494991 0
M  V30 481 H 38.9547 -1.42042 -0.236651 0
M  V30 482 H 40.9077 -3.02794 -2.93076 0
M  V30 483 H 39.6317 -1.80268 -2.72343 0
M  V30 484 H 38.2907 -3.41646 -1.32941 0
M  V30 485 H 37.9387 -3.29284 -3.80238 0
M  V30 486 H 37.6387 -4.93719 -3.18615 0
M  V30 487 H 39.1627 -4.57402 -4.04495 0
M  V30 488 H 40.5767 -5.39888 -1.92857 0
M  V30 489 H 38.9737 -5.86144 -1.28669 0
M  V30 490 H 40.0437 -4.83904 -0.310561 0
M  V30 491 N 41.3868 0.248026 -1.55636 0
M  V30 492 C 42.6348 0.974295 -1.77065 0
M  V30 493 C 42.9558 1.85897 -0.588849 0
M  V30 494 O 42.2258 1.91868 0.395407 0
M  V30 495 H 40.8058 0.362733 -0.653019 0
M  V30 496 H 43.4678 0.266244 -1.93073 0
M  V30 497 H 42.5638 1.59667 -2.68166 0
M  V30 498 N 42.8649 1.48995 0.513639 0
M  V30 499 C 44.1119 1.57843 1.26854 0
M  V30 500 C 44.4399 0.259501 1.92761 0
M  V30 501 O 43.6949 -0.75159 1.80692 0
M  V30 502 C 43.9939 2.67756 2.36731 0
M  V30 503 C 43.6599 4.09669 1.88368 0
M  V30 504 C 42.3219 4.48291 1.74896 0
M  V30 505 C 44.6739 4.98537 1.52021 0
M  V30 506 C 42.0019 5.73568 1.23438 0
M  V30 507 C 44.3539 6.24319 1.0202 0
M  V30 508 C 43.0179 6.61783 0.871778 0
M  V30 509 H 42.2879 0.577587 0.464192 0
M  V30 510 H 44.9349 1.82778 0.571366 0
M  V30 511 H 43.2399 2.36743 3.12185 0
M  V30 512 H 44.9369 2.71813 2.9482 0
M  V30 513 H 41.5269 3.79176 1.99808 0
M  V30 514 H 45.7109 4.69363 1.61281 0
M  V30 515 H 40.9669 6.01304 1.10648 0
M  V30 516 H 45.1409 6.92566 0.729722 0
M  V30 517 H 42.7679 7.5874 0.470852 0
M  V30 518 N 44.343 -0.763751 1.37857 0
M  V30 519 C 45.291 -1.89864 1.34367 0
M  V30 520 C 46.285 -1.67816 0.231143 0
M  V30 521 O 47.491 -1.75508 0.399617 0
M  V30 522 H 43.866 -0.624501 0.41893 0
M  V30 523 H 45.837 -1.89925 2.30155 0
M  V30 524 C 44.586 -3.27227 1.1755 0
M  V30 525 H 43.909 -3.44773 2.02414 0
M  V30 526 H 45.349 -4.06911 1.1916 0
M  V30 527 C 43.808 -3.36692 -0.118311 0
M  V30 528 O 44.338 -3.86374 -1.09902 0
M  V30 529 N 42.544 -2.90092 -0.171717 0
M  V30 530 H 42.091 -2.49853 0.627012 0
M  V30 531 H 42.049 -2.96806 -1.03699 0
M  V30 532 N 45.8211 -1.22559 -0.990812 0
M  V30 533 C 46.7691 -0.994798 -2.10253 0
M  V30 534 C 47.7631 0.0627798 -1.69284 0
M  V30 535 O 48.9691 -0.0898392 -1.79776 0
M  V30 536 H 45.3441 -0.304527 -0.687581 0
M  V30 537 H 47.3151 -1.93812 -2.26891 0
M  V30 538 C 46.0641 -0.591439 -3.42633 0
M  V30 539 H 45.3871 -1.3969 -3.74602 0
M  V30 540 H 46.8271 -0.469385 -4.21394 0
M  V30 541 C 45.2861 0.699232 -3.29564 0
M  V30 542 O 45.8161 1.75112 -3.61523 0
M  V30 543 N 44.0221 0.671182 -2.82743 0
M  V30 544 H 43.5691 -0.185136 -2.56934 0
M  V30 545 H 43.5271 1.53502 -2.7438 0
M  V30 546 N 47.2992 1.18797 -1.03562 0
M  V30 547 C 48.5452 1.8893 -0.737113 0
M  V30 548 C 48.8782 1.79837 0.732956 0
M  V30 549 O 48.1532 1.19525 1.5344 0
M  V30 550 C 48.4362 3.39607 -1.19745 0
M  V30 551 C 48.2892 3.57537 -2.72924 0
M  V30 552 C 49.6082 4.33069 -0.783526 0
M  V30 553 H 46.7272 0.686057 -0.269249 0
M  V30 554 H 49.3692 1.39797 -1.28673 0
M  V30 555 H 47.5192 3.81583 -0.729855 0
M  V30 556 H 49.1912 3.24688 -3.27682 0
M  V30 557 H 47.4342 3.00363 -3.12993 0
M  V30 558 H 48.1052 4.63238 -3.00191 0
M  V30 559 H 50.5812 3.98846 -1.18581 0
M  V30 560 H 49.4572 5.3707 -1.13343 0
M  V30 561 H 49.7182 4.40986 0.313681 0
M  V30 562 N 48.7773 0.814389 1.34928 0
M  V30 563 C 49.6873 0.231978 2.3345 0
M  V30 564 C 50.7033 -0.629139 1.62228 0
M  V30 565 O 51.8793 -0.539052 1.94052 0
M  V30 566 C 48.9443 -0.603482 3.41407 0
M  V30 567 C 48.0053 0.279037 4.28392 0
M  V30 568 C 47.2383 -0.516643 5.31193 0
M  V30 569 O 47.4613 -1.75068 5.4287 0
M  V30 570 O 46.3953 0.0965652 6.01823 0
M  V30 571 H 50.2213 1.04721 2.85074 0
M  V30 572 H 47.8063 0.576343 1.37836 0
M  V30 573 H 49.6883 -1.07908 4.0735 0
M  V30 574 H 48.3633 -1.39618 2.92042 0
M  V30 575 H 47.2703 0.801948 3.65403 0
M  V30 576 H 48.6033 1.03588 4.81176 0
M  V30 577 N 50.2554 -1.46986 0.568584 0
M  V30 578 C 51.1654 -2.33942 -0.17555 0
M  V30 579 C 52.1814 -1.48891 -0.90041 0
M  V30 580 O 53.3574 -1.81794 -0.86676 0
M  V30 581 C 50.4224 -3.25811 -1.18524 0
M  V30 582 C 49.4834 -4.26757 -0.466582 0
M  V30 583 C 48.7164 -5.14236 -1.42817 0
M  V30 584 O 48.9394 -5.04379 -2.66379 0
M  V30 585 O 47.8734 -5.94412 -0.946453 0
M  V30 586 H 51.6994 -2.98896 0.538036 0
M  V30 587 H 49.2844 -1.4573 0.329097 0
M  V30 588 H 51.1664 -3.82527 -1.76779 0
M  V30 589 H 49.8414 -2.63471 -1.88055 0
M  V30 590 H 48.7484 -3.73769 0.157451 0
M  V30 591 H 50.0814 -4.91843 0.187485 0
M  V30 592 N 51.7335 -0.305618 -1.54608 0
M  V30 593 C 52.6965 0.555591 -2.22364 0
M  V30 594 C 53.6965 1.05768 -1.21119 0
M  V30 595 O 54.8865 0.952972 -1.45822 0
M  V30 596 C 52.0185 1.76974 -2.91364 0
M  V30 597 H 53.2115 -0.0364572 -2.99878 0
M  V30 598 H 50.7645 -0.0565007 -1.56198 0
M  V30 599 H 51.4995 2.40151 -2.17941 0
M  V30 600 H 51.2845 1.41732 -3.65588 0
M  V30 601 H 52.7745 2.38148 -3.43038 0
M  V30 602 N 53.2116 1.57565 -0.0334293 0
M  V30 603 C 54.1216 2.13943 0.962572 0
M  V30 604 C 55.1376 1.09276 1.35406 0
M  V30 605 O 56.3136 1.41355 1.4346 0
M  V30 606 C 53.3786 2.65887 2.22497 0
M  V30 607 C 52.4396 3.85286 1.8935 0
M  V30 608 C 51.6726 4.34743 3.09571 0
M  V30 609 O 51.8956 3.83352 4.22371 0
M  V30 610 O 50.8296 5.26538 2.91618 0
M  V30 611 H 54.6556 2.99333 0.513169 0
M  V30 612 H 52.2406 1.4822 0.18743 0
M  V30 613 H 54.1226 2.99346 2.96598 0
M  V30 614 H 52.7976 1.83578 2.6661 0
M  V30 615 H 51.7046 3.56746 1.1262 0
M  V30 616 H 53.0376 4.68771 1.5005 0
M  V30 617 N 54.6897 -0.239769 1.55765 0
M  V30 618 C 55.9667 -0.990056 1.68693 0
M  V30 619 C 56.3467 -2.03107 0.5754 0
M  V30 620 O 55.6947 -2.24604 -0.42017 0
M  V30 621 C 55.9047 -1.61696 3.09282 0
M  V30 622 C 57.2527 -2.11613 3.6811 0
M  V30 623 O 58.2767 -1.71624 3.12127 0
M  V30 624 O 57.1357 -2.85057 4.66267 0
M  V30 625 H 54.2297 -0.461299 0.686391 0
M  V30 626 H 56.7757 -0.232991 1.68093 0
M  V30 627 H 55.5477 -0.864357 3.81634 0
M  V30 628 H 55.1707 -2.44005 3.13923 0
M  V30 629 N 56.1678 -1.49265 -0.50573 0
M  V30 630 C 57.4158 -1.582 -1.25766 0
M  V30 631 C 57.7368 -0.268482 -1.93143 0
M  V30 632 O 57.0068 0.711833 -1.8251 0
M  V30 633 H 55.5868 -0.582873 -0.467191 0
M  V30 634 H 58.2488 -1.85865 -0.586525 0
M  V30 635 H 57.3448 -2.37563 -2.02412 0
M  V30 636 N 57.6459 0.756429 -1.3826 0
M  V30 637 C 58.8919 1.51772 -1.34511 0
M  V30 638 C 59.2249 1.94089 0.0656691 0
M  V30 639 O 58.4999 1.65221 1.02626 0
M  V30 640 C 58.7829 2.77226 -2.29821 0
M  V30 641 C 58.6359 2.41065 -3.79747 0
M  V30 642 C 59.9549 3.79236 -2.23312 0
M  V30 643 H 57.0739 0.550578 -0.489931 0
M  V30 644 H 59.7159 0.866607 -1.69086 0
M  V30 645 H 57.8659 3.32784 -2.00467 0
M  V30 646 H 59.5379 1.91303 -4.19763 0
M  V30 647 H 57.7809 1.7356 -3.97567 0
M  V30 648 H 58.4519 3.3081 -4.41892 0
M  V30 649 H 60.9279 3.3321 -2.49219 0
M  V30 650 H 59.8039 4.64714 -2.92116 0
M  V30 651 H 60.0649 4.24615 -1.23102 0
M  V30 652 N 59.124 1.23083 0.984299 0
M  V30 653 C 60.401 0.9689 1.69917 0
M  V30 654 C 60.781 -0.513604 2.04757 0
M  V30 655 O 60.129 -1.48383 1.73767 0
M  V30 656 C 60.339 1.87518 2.94343 0
M  V30 657 C 61.687 2.13636 3.6694 0
M  V30 658 O 62.711 1.85036 3.04368 0
M  V30 659 O 61.57 2.62119 4.79537 0
M  V30 660 H 58.664 0.365095 0.742048 0
M  V30 661 H 61.21 1.34107 1.03987 0
M  V30 662 H 59.982 2.87756 2.65164 0
M  V30 663 H 59.605 1.50514 3.6801 0
M  V30 664 N 60.6021 -1.18246 1.0419 0
M  V30 665 C 61.5651 -2.20128 0.638452 0
M  V30 666 C 62.5651 -1.57885 -0.304805 0
M  V30 667 O 63.7551 -1.73967 -0.0900369 0
M  V30 668 C 60.8871 -3.4084 -0.0637751 0
M  V30 669 H 62.0801 -2.57336 1.54007 0
M  V30 670 H 59.6331 -1.32152 0.834598 0
M  V30 671 H 60.3681 -3.09166 -0.979136 0
M  V30 672 H 60.1531 -3.8726 0.614198 0
M  V30 673 H 61.6431 -4.16274 -0.332512 0
M  V30 674 N 62.0802 -0.821533 -1.34494 0
M  V30 675 C 63.0102 -0.257138 -2.3208 0
M  V30 676 C 63.9912 0.625645 -1.58176 0
M  V30 677 O 65.1762 0.552811 -1.86166 0
M  V30 678 C 62.3062 0.582958 -3.42372 0
M  V30 679 C 61.2602 -0.202571 -4.2752 0
M  V30 680 C 60.5862 0.760179 -5.29269 0
M  V30 681 C 61.8862 -1.40998 -5.02908 0
M  V30 682 H 63.5802 -1.07247 -2.79532 0
M  V30 683 H 61.1262 -0.517163 -1.34393 0
M  V30 684 H 63.0792 0.987972 -4.09655 0
M  V30 685 H 61.8032 1.43133 -2.93565 0
M  V30 686 H 60.4622 -0.588936 -3.61838 0
M  V30 687 H 60.1102 1.60447 -4.76724 0
M  V30 688 H 59.8102 0.238809 -5.87115 0
M  V30 689 H 61.3342 1.16308 -5.9942 0
M  V30 690 H 62.7482 -1.07905 -5.63054 0
M  V30 691 H 61.1452 -1.86689 -5.70322 0
M  V30 692 H 62.2152 -2.1889 -4.32684 0
M  V30 693 N 63.5583 1.46682 -0.576371 0
M  V30 694 C 64.5063 2.31953 0.17335 0
M  V30 695 C 65.5003 1.44098 0.89062 0
M  V30 696 O 66.7063 1.60759 0.809728 0
M  V30 697 H 63.0813 0.748273 0.0747727 0
M  V30 698 H 65.0523 2.93007 -0.564738 0
M  V30 699 C 63.8013 3.27142 1.17786 0
M  V30 700 H 63.1243 3.94719 0.635361 0
M  V30 701 H 64.5643 3.896 1.67296 0
M  V30 702 C 63.0233 2.52036 2.23561 0
M  V30 703 O 63.5533 2.27877 3.3081 0
M  V30 704 N 61.7593 2.12709 1.97998 0
M  V30 705 H 61.3063 2.32557 1.10792 0
M  V30 706 H 61.2643 1.62776 2.68982 0
M  V30 707 N 65.0364 0.313813 1.54444 0
M  V30 708 C 65.9834 -0.55655 2.23989 0
M  V30 709 C 66.9534 -1.11943 1.22711 0
M  V30 710 O 68.1384 -1.16158 1.51367 0
M  V30 711 C 65.2784 -1.71635 2.99392 0
M  V30 712 C 64.3914 -1.18364 4.15468 0
M  V30 713 C 63.5264 -2.30834 4.78424 0
M  V30 714 C 62.5654 -1.74762 5.86622 0
M  V30 715 N 61.7024 -2.80855 6.43479 0
M  V30 716 H 66.5424 0.0430893 2.97969 0
M  V30 717 H 64.0794 0.0330359 1.47063 0
M  V30 718 H 66.0374 -2.39868 3.41349 0
M  V30 719 H 64.6674 -2.28742 2.27765 0
M  V30 720 H 63.7194 -0.393163 3.78363 0
M  V30 721 H 65.0314 -0.733262 4.93381 0
M  V30 722 H 64.1854 -3.0699 5.23299 0
M  V30 723 H 62.9244 -2.79204 3.99871 0
M  V30 724 H 61.9294 -0.970995 5.41158 0
M  V30 725 H 63.1544 -1.2728 6.67066 0
M  V30 726 H 61.1004 -3.28535 5.67804 0
M  V30 727 H 61.0174 -2.40351 7.16776 0
M  V30 728 H 62.2854 -3.5687 6.93011 0
M  V30 729 N 66.5145 -1.57545 0.0417849 0
M  V30 730 C 67.4445 -2.14009 -0.933929 0
M  V30 731 C 68.4255 -1.05938 -1.33083 0
M  V30 732 O 69.6105 -1.33833 -1.40721 0
M  V30 733 C 66.7405 -2.67747 -2.21199 0
M  V30 734 C 65.6945 -3.80718 -1.95544 0
M  V30 735 C 65.0205 -4.20935 -3.29724 0
M  V30 736 C 66.3205 -5.06258 -1.28452 0
M  V30 737 H 68.0145 -2.95788 -0.463645 0
M  V30 738 H 65.5605 -1.42285 -0.221573 0
M  V30 739 H 67.5135 -3.05886 -2.89848 0
M  V30 740 H 66.2375 -1.83147 -2.70416 0
M  V30 741 H 64.8965 -3.43037 -1.2931 0
M  V30 742 H 64.5445 -3.33298 -3.76724 0
M  V30 743 H 64.2445 -4.9707 -3.13361 0
M  V30 744 H 65.7685 -4.61666 -3.9962 0
M  V30 745 H 67.1825 -5.41903 -1.8712 0
M  V30 746 H 65.5795 -5.87475 -1.22445 0
M  V30 747 H 66.6495 -4.84207 -0.259219 0
M  V30 748 N 67.9926 0.231505 -1.5589 0
M  V30 749 C 68.9246 1.31006 -1.8807 0
M  V30 750 C 69.9376 1.43539 -0.768145 0
M  V30 751 O 71.1266 1.44614 -1.04638 0
M  V30 752 C 68.2266 2.68688 -2.06543 0
M  V30 753 C 67.3996 2.78228 -3.37502 0
M  V30 754 C 66.4586 3.96857 -3.4553 0
M  V30 755 O 65.4846 3.85662 -4.18633 0
M  V30 756 N 66.6866 5.1072 -2.75944 0
M  V30 757 H 69.4516 1.03731 -2.81176 0
M  V30 758 H 67.0126 0.421573 -1.56315 0
M  V30 759 H 69.0046 3.46412 -2.09239 0
M  V30 760 H 67.5746 2.88605 -1.20109 0
M  V30 761 H 66.7946 1.87059 -3.46991 0
M  V30 762 H 68.0826 2.81564 -4.23791 0
M  V30 763 H 67.4806 5.2271 -2.16311 0
M  V30 764 H 66.0376 5.86523 -2.84314 0
M  V30 765 N 69.4707 1.49531 0.497807 0
M  V30 766 C 70.4337 1.65916 1.58128 0
M  V30 767 C 71.4337 0.530825 1.51786 0
M  V30 768 O 72.6237 0.797342 1.54881 0
M  V30 769 C 69.7557 1.65951 2.9778 0
M  V30 770 H 70.9487 2.62556 1.44929 0
M  V30 771 H 68.5017 1.38611 0.722275 0
M  V30 772 H 69.2367 0.709065 3.16453 0
M  V30 773 H 69.0217 2.47897 3.03792 0
M  V30 774 H 70.5117 1.80673 3.76493 0
M  V30 775 N 70.9488 -0.749086 1.3866 0
M  V30 776 C 72.1968 -1.50535 1.34847 0
M  V30 777 C 72.5178 -1.94909 -0.0595016 0
M  V30 778 O 71.7878 -1.67973 -1.00806 0
M  V30 779 H 70.3678 -0.558395 0.49619 0
M  V30 780 H 73.0298 -0.890165 1.73384 0
M  V30 781 H 72.1258 -2.39413 2.00219 0
M  V30 782 N 72.4269 -1.23603 -0.977757 0
M  V30 783 C 73.6749 -1.06759 -1.71601 0
M  V30 784 C 73.9959 0.395929 -1.90938 0
M  V30 785 O 73.2659 1.28356 -1.47992 0
M  V30 786 H 71.8459 -0.392062 -0.635843 0
M  V30 787 H 74.5079 -1.55362 -1.1768 0
M  V30 788 H 73.6039 -1.55763 -2.70452 0
M  V30 789 N 73.905 1.17692 -1.04816 0
M  V30 790 C 75.135 1.91508 -0.775128 0
M  V30 791 C 75.543 1.76844 0.67253 0
M  V30 792 O 74.886 1.10057 1.47082 0
M  V30 793 C 74.948 3.43167 -1.0713 0
M  V30 794 C 74.612 3.81612 -2.51438 0
M  V30 795 C 75.609 3.84772 -3.49638 0
M  V30 796 C 73.294 4.12687 -2.86348 0
M  V30 797 C 75.288 4.18469 -4.80794 0
M  V30 798 C 72.975 4.46053 -4.17708 0
M  V30 799 C 73.973 4.48921 -5.14741 0
M  V30 800 O 73.661 4.81504 -6.43746 0
M  V30 801 H 73.393 0.614575 -0.281555 0
M  V30 802 H 75.947 1.50206 -1.40098 0
M  V30 803 H 74.177 3.84745 -0.388342 0
M  V30 804 H 75.866 3.98239 -0.784883 0
M  V30 805 H 76.632 3.60893 -3.24008 0
M  V30 806 H 72.511 4.09627 -2.11486 0
M  V30 807 H 76.055 4.20623 -5.56527 0
M  V30 808 H 71.952 4.69393 -4.43103 0
M  V30 809 H 72.72 4.99377 -6.4851 0
M  V30 810 N 75.3831 0.828654 1.34056 0
M  V30 811 C 76.6311 0.41863 1.97717 0
M  V30 812 C 76.9521 -1.02314 1.66002 0
M  V30 813 O 76.2221 -1.71119 0.953683 0
M  V30 814 H 74.8021 0.151809 0.731412 0
M  V30 815 H 77.4641 1.05936 1.63596 0
M  V30 816 H 76.5601 0.542318 3.07352 0
M  V30 817 N 76.8612 -1.46375 0.584142 0
M  V30 818 C 78.1082 -2.02378 0.0702675 0
M  V30 819 C 78.4362 -1.45545 -1.29023 0
M  V30 820 O 77.6912 -0.610967 -1.85918 0
M  V30 821 C 77.9902 -3.57373 -0.0439342 0
M  V30 822 C 77.6562 -4.33252 1.24915 0
M  V30 823 C 76.3182 -4.53701 1.60341 0
M  V30 824 C 78.6702 -4.7681 2.1048 0
M  V30 825 C 75.9982 -5.1496 2.81128 0
M  V30 826 C 78.3502 -5.39404 3.30494 0
M  V30 827 C 77.0142 -5.5808 3.66201 0
M  V30 828 H 76.2842 -0.740554 0.0257127 0
M  V30 829 H 78.9312 -1.75727 0.761065 0
M  V30 830 H 77.2362 -3.83169 -0.817869 0
M  V30 831 H 78.9332 -3.98384 -0.457318 0
M  V30 832 H 75.5232 -4.17633 0.963364 0
M  V30 833 H 79.7072 -4.60766 1.84414 0
M  V30 834 H 74.9632 -5.27611 3.08928 0
M  V30 835 H 79.1372 -5.72114 3.97063 0
M  V30 836 H 76.7642 -6.05318 4.59885 0
M  V30 837 N 78.3393 -0.321999 -1.54275 0
M  V30 838 C 79.5853 0.281461 -2.00837 0
M  V30 839 C 79.9183 1.51909 -1.20985 0
M  V30 840 O 79.1933 1.923 -0.291733 0
M  V30 841 C 79.4763 0.617162 -3.54772 0
M  V30 842 C 79.3293 -0.631064 -4.45351 0
M  V30 843 C 80.6483 1.43542 -4.16033 0
M  V30 844 H 77.7673 0.100826 -0.730071 0
M  V30 845 H 80.4093 -0.438268 -1.84876 0
M  V30 846 H 78.5593 1.23034 -3.68504 0
M  V30 847 H 80.2313 -1.26934 -4.43492 0
M  V30 848 H 78.4743 -1.26025 -4.15091 0
M  V30 849 H 79.1453 -0.351735 -5.50878 0
M  V30 850 H 81.6213 0.917134 -4.05867 0
M  V30 851 H 80.4973 1.63907 -5.23856 0
M  V30 852 H 80.7583 2.43108 -3.69257 0
M  V30 853 N 79.8174 1.5752 -0.0501392 0
M  V30 854 C 81.0664 1.91827 0.623328 0
M  V30 855 C 81.3794 0.930222 1.72065 0
M  V30 856 O 82.5854 1.1653 2.4522 0
M  V30 857 C 81.0414 3.40692 1.16003 0
M  V30 858 C 80.6494 4.479 0.0948811 0
M  V30 859 C 82.3934 3.84034 1.80881 0
M  V30 860 C 80.3004 5.87879 0.644411 0
M  V30 861 H 79.2304 0.715918 0.236596 0
M  V30 862 H 81.8814 1.83115 -0.118861 0
M  V30 863 H 80.2634 3.44405 1.9545 0
M  V30 864 H 81.4374 4.55775 -0.678675 0
M  V30 865 H 79.7524 4.13892 -0.45637 0
M  V30 866 H 82.3494 4.85984 2.22988 0
M  V30 867 H 82.6924 3.20225 2.6601 0
M  V30 868 H 83.2254 3.82833 1.0809 0
M  V30 869 H 79.9644 6.55282 -0.169229 0
M  V30 870 H 79.4844 5.83567 1.38598 0
M  V30 871 H 81.1634 6.37098 1.12763 0
M  V30 872 N 81.2955 -0.223234 1.56011 0
M  V30 873 C 82.5205 -0.968978 1.83373 0
M  V30 874 C 82.9455 -1.77227 0.630254 0
M  V30 875 O 82.3035 -1.76345 -0.420959 0
M  V30 876 C 82.3515 -1.86363 3.08709 0
M  V30 877 O 81.4555 -2.95873 2.87285 0
M  V30 878 H 80.7965 -0.274461 0.604622 0
M  V30 879 H 83.3265 -0.237056 2.03222 0
M  V30 880 H 83.3365 -2.27376 3.38768 0
M  V30 881 H 82.0115 -1.27319 3.95933 0
M  V30 882 H 80.5885 -2.58818 2.68454 0
M  V30 883 N 82.7736 -1.49793 -0.48987 0
M  V30 884 C 84.0506 -1.50348 -1.25119 0
M  V30 885 C 84.4306 -0.237466 -2.0976 0
M  V30 886 O 83.7786 0.77981 -2.14782 0
M  V30 887 C 83.9886 -2.78872 -2.09837 0
M  V30 888 C 85.3366 -3.288 -2.68655 0
M  V30 889 O 86.3606 -2.80065 -2.20096 0
M  V30 890 O 85.2196 -4.13707 -3.57083 0
M  V30 891 H 82.3136 -0.602242 -0.566775 0
M  V30 892 H 84.8596 -1.62067 -0.503229 0
M  V30 893 H 83.6316 -3.62499 -1.47343 0
M  V30 894 H 83.2546 -2.70066 -2.91805 0
M  V30 895 N 84.2517 0.741722 -1.39055 0
M  V30 896 C 85.4977 1.50234 -1.37118 0
M  V30 897 C 85.8527 1.92368 0.0350439 0
M  V30 898 O 85.1457 1.63422 1.00019 0
M  V30 899 C 85.3397 2.7592 -2.27163 0
M  V30 900 C 85.1687 2.46074 -3.76401 0
M  V30 901 C 83.9387 2.38704 -4.45364 0
M  V30 902 C 86.1367 2.12062 -4.68545 0
M  V30 903 N 84.1187 2.01258 -5.79973 0
M  V30 904 C 85.4897 1.85005 -5.91754 0
M  V30 905 C 87.5447 1.98473 -4.56632 0
M  V30 906 C 86.2477 1.4573 -7.04383 0
M  V30 907 C 88.2737 1.60599 -5.69176 0
M  V30 908 C 87.6357 1.34423 -6.91455 0
M  V30 909 H 83.7347 0.548858 -0.557027 0
M  V30 910 H 86.3187 0.862642 -1.74547 0
M  V30 911 H 84.4897 3.3768 -1.91904 0
M  V30 912 H 86.2217 3.42068 -2.16267 0
M  V30 913 H 82.9767 2.55574 -3.98721 0
M  V30 914 H 83.4007 1.85147 -6.51191 0
M  V30 915 H 88.0427 2.17381 -3.62637 0
M  V30 916 H 85.7607 1.25562 -7.98286 0
M  V30 917 H 89.3467 1.507 -5.61944 0
M  V30 918 H 88.2267 1.05555 -7.77064 0
M  V30 919 N 85.7298 1.2412 0.971189 0
M  V30 920 C 86.6778 1.02812 2.08644 0
M  V30 921 C 87.6718 -0.0358403 1.69362 0
M  V30 922 O 88.8778 0.118429 1.7961 0
M  V30 923 H 85.2528 0.315428 0.682649 0
M  V30 924 H 87.2238 1.97397 2.23779 0
M  V30 925 C 85.9728 0.645874 3.41649 0
M  V30 926 H 85.2958 1.45632 3.72332 0
M  V30 927 H 86.7358 0.536366 4.20594 0
M  V30 928 C 85.1948 -0.646713 3.30635 0
M  V30 929 O 85.7248 -1.69338 3.64263 0
M  V30 930 N 83.9308 -0.626115 2.83775 0
M  V30 931 H 83.4778 0.225988 2.56607 0
M  V30 932 H 83.4358 -1.49117 2.76788 0
M  V30 933 N 87.2079 -1.17134 1.05439 0
M  V30 934 C 88.1409 -2.2012 0.601855 0
M  V30 935 C 89.1189 -1.58314 -0.370854 0
M  V30 936 O 90.3029 -1.8638 -0.281882 0
M  V30 937 C 87.4299 -3.38491 -0.118868 0
M  V30 938 C 86.4759 -4.18752 0.809242 0
M  V30 939 S 87.3089 -4.83602 2.29977 0
M  V30 940 C 88.4649 -6.0536 1.59029 0
M  V30 941 H 88.6979 -2.58165 1.47438 0
M  V30 942 H 86.2309 -1.27788 0.866573 0
M  V30 943 H 88.1889 -4.07084 -0.528495 0
M  V30 944 H 86.8499 -2.98829 -0.967465 0
M  V30 945 H 86.0429 -5.03373 0.251379 0
M  V30 946 H 85.6449 -3.5561 1.15835 0
M  V30 947 H 87.9369 -6.71615 0.891017 0
M  V30 948 H 88.8799 -6.65679 2.41407 0
M  V30 949 H 89.2879 -5.54138 1.07663 0
M  V30 950 N 88.686 -0.835752 -1.33615 0
M  V30 951 C 90.097 -0.487099 -1.80234 0
M  V30 952 C 90.448 0.993627 -1.69179 0
M  V30 953 O 89.573 1.77403 -1.23924 0
M  V30 954 C 90.168 -0.877385 -3.27242 0
M  V30 955 C 88.727 -0.580915 -3.7189 0
M  V30 956 C 87.874 -1.0874 -2.5509 0
M  V30 957 H 90.825 -1.02474 -1.2118 0
M  V30 958 H 90.846 -0.186195 -3.80044 0
M  V30 959 H 90.358 -1.95512 -3.35256 0
M  V30 960 H 88.459 0.486881 -3.69405 0
M  V30 961 H 88.572 -1.13396 -4.65487 0
M  V30 962 H 86.936 -0.508392 -2.49575 0
M  V30 963 H 87.719 -2.17184 -2.65868 0
M  V30 964 N 90.1641 1.46063 -0.591896 0
M  V30 965 C 91.1121 2.32124 0.148739 0
M  V30 966 C 92.1061 1.45035 0.875286 0
M  V30 967 O 93.3121 1.61609 0.792632 0
M  V30 968 H 89.6871 0.749024 0.066832 0
M  V30 969 H 91.6581 2.92392 -0.595783 0
M  V30 970 C 90.4071 3.28373 1.1431 0
M  V30 971 H 89.7301 3.95371 0.59346 0
M  V30 972 H 91.1701 3.91352 1.63155 0
M  V30 973 C 89.6291 2.54393 2.20875 0
M  V30 974 O 90.1591 2.31373 3.28374 0
M  V30 975 N 88.3651 2.14797 1.95731 0
M  V30 976 H 87.9121 2.33719 1.08319 0
M  V30 977 H 87.8701 1.65619 2.67241 0
M  V30 978 N 91.6422 0.330177 1.54103 0
M  V30 979 C 92.5752 -0.575477 2.20825 0
M  V30 980 C 93.5532 -1.11064 1.18758 0
M  V30 981 O 94.7372 -1.17341 1.47524 0
M  V30 982 C 91.8642 -1.79032 2.87516 0
M  V30 983 C 90.9102 -1.38581 4.03358 0
M  V30 984 S 91.7432 -0.416911 5.33875 0
M  V30 985 C 92.8992 -1.63889 6.04062 0
M  V30 986 H 93.1322 -0.00872114 2.97299 0
M  V30 987 H 90.6652 0.114254 1.53977 0
M  V30 988 H 92.6232 -2.48734 3.2656 0
M  V30 989 H 91.2842 -2.32827 2.10832 0
M  V30 990 H 90.4772 -2.29123 4.48908 0
M  V30 991 H 90.0792 -0.768419 3.66021 0
M  V30 992 H 92.3712 -2.57536 6.26643 0
M  V30 993 H 93.3142 -1.22542 6.97416 0
M  V30 994 H 93.7222 -1.82887 5.34053 0
M  V30 995 N 93.1203 -1.57491 0.0584922 0
M  V30 996 C 94.3973 -1.84346 -0.653918 0
M  V30 997 C 94.7773 -0.948355 -1.88599 0
M  V30 998 O 94.1253 -0.0112403 -2.28497 0
M  V30 999 C 94.3353 -3.34239 -1.00425 0
M  V30 1000 C 95.6833 -4.01431 -1.38342 0
M  V30 1001 O 96.7073 -3.38907 -1.09637 0
M  V30 1002 O 95.5663 -5.11683 -1.91943 0
M  V30 1003 H 92.6603 -0.761112 -0.323478 0
M  V30 1004 H 95.2063 -1.6947 0.0884125 0
M  V30 1005 H 93.9783 -3.91089 -0.128625 0
M  V30 1006 H 93.6013 -3.54329 -1.80378 0
M  V30 1007 N 94.5984 0.214957 -1.56127 0
M  V30 1008 C 95.8464 0.936518 -1.79091 0
M  V30 1009 C 96.1674 1.84606 -0.628148 0
M  V30 1010 O 95.4374 1.92664 0.35462 0
M  V30 1011 H 94.0174 0.3488 -0.660566 0
M  V30 1012 H 96.6794 0.22523 -1.93594 0
M  V30 1013 H 95.7754 1.53943 -2.71492 0
M  V30 1014 N 96.0765 1.50051 0.48192 0
M  V30 1015 C 97.0065 1.71046 1.58951 0
M  V30 1016 C 97.9875 0.559288 1.60642 0
M  V30 1017 O 99.1725 0.797243 1.77081 0
M  V30 1018 C 96.3025 1.79462 2.97339 0
M  V30 1019 C 95.2565 2.94558 3.10515 0
M  V30 1020 C 94.5825 2.88105 4.50444 0
M  V30 1021 C 95.8825 4.35227 2.88747 0
M  V30 1022 H 97.5765 2.6378 1.41635 0
M  V30 1023 H 95.1225 1.26936 0.679942 0
M  V30 1024 H 97.0755 1.92734 3.74742 0
M  V30 1025 H 95.7995 0.833412 3.15788 0
M  V30 1026 H 94.4585 2.80918 2.35543 0
M  V30 1027 H 94.1065 1.89853 4.65795 0
M  V30 1028 H 93.8065 3.65366 4.60197 0
M  V30 1029 H 95.3305 3.03412 5.29881 0
M  V30 1030 H 96.7445 4.49449 3.55905 0
M  V30 1031 H 95.1415 5.13856 3.09955 0
M  V30 1032 H 96.2115 4.48347 1.84696 0
M  V30 1033 N 97.5546 -0.734337 1.39446 0
M  V30 1034 C 98.4646 -1.87879 1.40495 0
M  V30 1035 C 99.4806 -1.714 0.299672 0
M  V30 1036 O 100.657 -1.93991 0.541249 0
M  V30 1037 C 97.7216 -3.23477 1.24754 0
M  V30 1038 C 96.7826 -3.52344 2.45259 0
M  V30 1039 C 96.0156 -4.81473 2.30259 0
M  V30 1040 O 96.2386 -5.55237 1.30643 0
M  V30 1041 O 95.1726 -5.10254 3.19256 0
M  V30 1042 H 98.9986 -1.89949 2.36966 0
M  V30 1043 H 96.5836 -0.882243 1.20569 0
M  V30 1044 H 98.4656 -4.04509 1.18111 0
M  V30 1045 H 97.1406 -3.22176 0.313781 0
M  V30 1046 H 96.0476 -2.71396 2.57478 0
M  V30 1047 H 97.3806 -3.58426 3.37331 0
M  V30 1048 N 99.0327 -1.24633 -0.964593 0
M  V30 1049 C 99.9627 -1.06611 -2.07741 0
M  V30 1050 C 100.944 0.0218666 -1.70086 0
M  V30 1051 O 102.129 -0.145793 -1.93652 0
M  V30 1052 C 99.2587 -0.673444 -3.40708 0
M  V30 1053 C 98.2127 -1.71054 -3.92332 0
M  V30 1054 C 97.5387 -1.17285 -5.21678 0
M  V30 1055 C 98.8387 -3.10718 -4.19824 0
M  V30 1056 H 100.533 -1.99693 -2.23076 0
M  V30 1057 H 98.0787 -0.96152 -1.07195 0
M  V30 1058 H 100.032 -0.534345 -4.17998 0
M  V30 1059 H 98.7557 0.293073 -3.25282 0
M  V30 1060 H 97.4147 -1.83791 -3.17201 0
M  V30 1061 H 97.0627 -0.196847 -5.02615 0
M  V30 1062 H 96.7627 -1.86592 -5.57187 0
M  V30 1063 H 98.2867 -1.04593 -6.01575 0
M  V30 1064 H 99.7007 -3.01192 -4.87808 0
M  V30 1065 H 98.0977 -3.77406 -4.66567 0
M  V30 1066 H 99.1677 -3.58524 -3.26479 0
M  V30 1067 N 100.511 1.16574 -1.06058 0
M  V30 1068 C 101.441 2.23057 -0.690488 0
M  V30 1069 C 102.422 1.67141 0.315901 0
M  V30 1070 O 103.607 1.93253 0.191556 0
M  V30 1071 C 100.737 3.47222 -0.073625 0
M  V30 1072 C 99.6908 4.16016 -1.00573 0
M  V30 1073 C 99.0168 5.34104 -0.252289 0
M  V30 1074 C 100.317 4.67264 -2.33371 0
M  V30 1075 H 102.011 2.54271 -1.58072 0
M  V30 1076 H 99.5568 1.22218 -0.76149 0
M  V30 1077 H 101.51 4.20939 0.19714 0
M  V30 1078 H 100.234 3.15302 0.85161 0
M  V30 1079 H 98.8928 3.44223 -1.2612 0
M  V30 1080 H 98.5408 4.98437 0.675988 0
M  V30 1081 H 98.2408 5.81072 -0.873455 0
M  V30 1082 H 99.7648 6.10599 0.0109857 0
M  V30 1083 H 101.179 5.32573 -2.12223 0
M  V30 1084 H 99.5758 5.24843 -2.90963 0
M  V30 1085 H 100.646 3.83602 -2.96611 0
M  V30 1086 N 101.989 0.842826 1.3317 0
M  V30 1087 C 102.936 0.276885 2.29133 0
M  V30 1088 C 103.906 -0.609527 1.54512 0
M  V30 1089 O 105.091 -0.546955 1.82792 0
M  V30 1090 C 102.231 -0.538707 3.40869 0
M  V30 1091 C 101.344 0.372169 4.30394 0
M  V30 1092 C 100.479 -0.454908 5.29249 0
M  V30 1093 C 99.5179 0.45411 6.10413 0
M  V30 1094 N 98.6549 -0.335075 7.013 0
M  V30 1095 H 103.495 1.10052 2.76934 0
M  V30 1096 H 101.032 0.554161 1.36262 0
M  V30 1097 H 102.99 -1.02709 4.0436 0
M  V30 1098 H 101.62 -1.32727 2.9425 0
M  V30 1099 H 100.672 0.97888 3.6759 0
M  V30 1100 H 101.984 1.0703 4.87182 0
M  V30 1101 H 101.138 -1.00695 5.98285 0
M  V30 1102 H 99.8769 -1.18646 4.73048 0
M  V30 1103 H 98.8819 1.01813 5.40291 0
M  V30 1104 H 100.107 1.18409 6.68697 0
M  V30 1105 H 98.0529 -1.04994 6.47543 0
M  V30 1106 H 97.9699 0.304262 7.55387 0
M  V30 1107 H 99.2379 -0.869224 7.74638 0
M  V30 1108 N 103.467 -1.45747 0.599634 0
M  V30 1109 C 104.695 -2.06668 0.0978551 0
M  V30 1110 C 105.11 -1.44562 -1.21439 0
M  V30 1111 O 104.467 -0.556923 -1.73795 0
M  V30 1112 C 104.518 -3.61456 -0.0567044 0
M  V30 1113 O 104.239 -4.21242 1.20361 0
M  V30 1114 C 105.74 -4.39345 -0.590869 0
M  V30 1115 H 102.96 -0.667825 0.0651943 0
M  V30 1116 H 105.504 -1.87115 0.82511 0
M  V30 1117 H 103.659 -3.80378 -0.734251 0
M  V30 1118 H 104.073 -5.14323 1.02821 0
M  V30 1119 H 105.547 -5.48182 -0.648131 0
M  V30 1120 H 106.024 -4.08568 -1.61147 0
M  V30 1121 H 106.63 -4.25268 0.0523679 0
M  V30 1122 N 104.945 -0.338344 -1.53925 0
M  V30 1123 C 106.194 0.260732 -2.00008 0
M  V30 1124 C 106.507 1.52073 -1.23017 0
M  V30 1125 O 107.713 2.19672 -1.5955 0
M  V30 1126 C 106.169 0.51515 -3.56194 0
M  V30 1127 C 105.777 -0.728645 -4.42035 0
M  V30 1128 C 107.521 1.07337 -4.10706 0
M  V30 1129 C 105.428 -0.445315 -5.89721 0
M  V30 1130 H 104.358 0.101205 -0.747177 0
M  V30 1131 H 107.009 -0.452866 -1.77824 0
M  V30 1132 H 105.391 1.28932 -3.74423 0
M  V30 1133 H 106.565 -1.50352 -4.35581 0
M  V30 1134 H 104.88 -1.20813 -3.98489 0
M  V30 1135 H 107.477 1.30022 -5.18651 0
M  V30 1136 H 107.82 2.0273 -3.63602 0
M  V30 1137 H 108.353 0.360034 -3.96167 0
M  V30 1138 H 105.092 -1.36883 -6.41049 0
M  V30 1139 H 104.612 0.291569 -5.99091 0
M  V30 1140 H 106.291 -0.0606218 -6.46972 0
M  V30 1141 N 106.423 1.57458 -0.0668435 0
M  V30 1142 C 107.839 1.56947 0.289772 0
M  V30 1143 C 108.039 1.07584 1.70376 0
M  V30 1144 O 107.095 0.739486 2.41429 0
M  V30 1145 C 108.408 3.0052 0.103943 0
M  V30 1146 C 109.956 3.12517 0.173857 0
M  V30 1147 C 110.431 4.57997 0.0163682 0
M  V30 1148 N 111.922 4.63144 0.0721352 0
M  V30 1149 C 112.657 5.73394 -0.0253794 0
M  V30 1150 N 112.153 6.92576 -0.176133 0
M  V30 1151 N 113.946 5.62091 0.0313305 0
M  V30 1152 H 106.097 1.87863 -0.991027 0
M  V30 1153 H 108.36 0.86583 -0.38606 0
M  V30 1154 H 108.066 3.40729 -0.871572 0
M  V30 1155 H 107.94 3.67304 0.858366 0
M  V30 1156 H 110.327 2.72197 1.13985 0
M  V30 1157 H 110.408 2.48381 -0.611586 0
M  V30 1158 H 110.052 4.99005 -0.946374 0
M  V30 1159 H 109.982 5.20158 0.821153 0
M  V30 1160 H 112.473 3.77436 0.187263 0
M  V30 1161 H 112.786 7.72418 -0.242821 0
M  V30 1162 H 111.131 6.94678 -0.211429 0
M  V30 1163 H 114.322 4.67867 0.147773 0
M  V30 1164 H 114.495 6.47982 -0.048121 0
M  V30 1165 N 107.901 -0.206675 1.56239 0
M  V30 1166 C 108.864 -1.23976 1.92776 0
M  V30 1167 C 109.864 -1.39041 0.807729 0
M  V30 1168 O 111.054 -1.37051 1.0753 0
M  V30 1169 C 108.186 -2.61112 2.19165 0
M  V30 1170 H 109.379 -0.927764 2.85189 0
M  V30 1171 H 106.932 -0.447718 1.4975 0
M  V30 1172 H 107.667 -2.97386 1.29352 0
M  V30 1173 H 107.452 -2.51552 3.00772 0
M  V30 1174 H 108.942 -3.35633 2.48476 0
M  V30 1175 N 109.379 -1.50304 -0.473955 0
M  V30 1176 C 110.656 -1.51667 -1.23518 0
M  V30 1177 C 111.036 -0.259701 -2.09496 0
M  V30 1178 O 110.384 0.756986 -2.15597 0
M  V30 1179 C 110.594 -2.81082 -2.06868 0
M  V30 1180 C 111.942 -3.31631 -2.65153 0
M  V30 1181 O 112.966 -2.82384 -2.17113 0
M  V30 1182 O 111.825 -4.17471 -3.52675 0
M  V30 1183 H 108.919 -0.60822 -0.560355 0
M  V30 1184 H 111.465 -1.62592 -0.486011 0
M  V30 1185 H 110.237 -3.64041 -1.4349 0
M  V30 1186 H 109.86 -2.73146 -2.88924 0
M  V30 1187 N 110.857 0.726932 -1.39834 0
M  V30 1188 C 112.105 1.4837 -1.37225 0
M  V30 1189 C 112.426 1.94979 0.0284857 0
M  V30 1190 O 111.696 1.69555 0.981213 0
M  V30 1191 H 110.276 0.55043 -0.505011 0
M  V30 1192 H 112.938 0.862468 -1.74778 0
M  V30 1193 H 112.034 2.36198 -2.04003 0
M  V30 1194 N 112.336 1.25143 0.95797 0
M  V30 1195 C 113.299 1.05321 2.03569 0
M  V30 1196 C 114.299 0.007152 1.60798 0
M  V30 1197 O 115.489 0.24903 1.72411 0
M  V30 1198 C 112.621 0.598394 3.35607 0
M  V30 1199 H 113.814 2.00986 2.22586 0
M  V30 1200 H 111.367 1.07502 1.13459 0
M  V30 1201 H 112.102 -0.361014 3.22284 0
M  V30 1202 H 111.887 1.35351 3.67998 0
M  V30 1203 H 113.377 0.48104 4.1482 0
M  V30 1204 N 113.814 -1.1601 1.06675 0
M  V30 1205 C 114.747 -2.1947 0.625168 0
M  V30 1206 C 115.725 -1.58699 -0.354041 0
M  V30 1207 O 116.909 -1.86669 -0.262098 0
M  V30 1208 C 114.036 -3.38598 -0.0829593 0
M  V30 1209 C 113.082 -4.1787 0.853611 0
M  V30 1210 S 113.915 -4.81135 2.35094 0
M  V30 1211 C 115.071 -6.03639 1.65441 0
M  V30 1212 H 115.304 -2.56587 1.50168 0
M  V30 1213 H 112.837 -1.26862 0.880078 0
M  V30 1214 H 114.795 -4.07621 -0.485288 0
M  V30 1215 H 113.456 -2.99839 -0.935716 0
M  V30 1216 H 112.649 -5.03078 0.304755 0
M  V30 1217 H 112.251 -3.54361 1.196 0
M  V30 1218 H 114.543 -6.70632 0.962201 0
M  V30 1219 H 115.486 -6.63081 2.48454 0
M  V30 1220 H 115.894 -5.52965 1.13534 0
M  V30 1221 N 115.292 -0.849877 -1.32721 0
M  V30 1222 C 116.517 -0.463856 -2.02146 0
M  V30 1223 C 116.942 0.930449 -1.63476 0
M  V30 1224 O 116.3 1.61033 -0.832952 0
M  V30 1225 C 116.348 -0.604955 -3.55489 0
M  V30 1226 O 115.452 0.36425 -4.10788 0
M  V30 1227 H 114.793 -0.187046 -0.637111 0
M  V30 1228 H 117.323 -1.14775 -1.69375 0
M  V30 1229 H 117.333 -0.490696 -4.05038 0
M  V30 1230 H 116.008 -1.62174 -3.82978 0
M  V30 1231 H 114.585 0.206628 -3.72327 0
M  V30 1232 N 116.77 1.45427 -0.607355 0
M  V30 1233 C 117.733 2.28974 0.101693 0
M  V30 1234 C 118.733 1.39754 0.795329 0
M  V30 1235 O 119.923 1.61878 0.643527 0
M  V30 1236 C 117.055 3.20768 1.15414 0
M  V30 1237 H 118.248 2.93147 -0.632844 0
M  V30 1238 H 115.801 1.51945 -0.366391 0
M  V30 1239 H 116.536 2.61395 1.91945 0
M  V30 1240 H 116.321 3.86489 0.66098 0
M  V30 1241 H 117.811 3.83589 1.65073 0
M  V30 1242 N 118.248 0.346503 1.53744 0
M  V30 1243 C 119.178 -0.501193 2.28058 0
M  V30 1244 C 120.159 -1.10014 1.29734 0
M  V30 1245 O 121.344 -1.12097 1.58581 0
M  V30 1246 C 118.474 -1.65078 3.05559 0
M  V30 1247 C 117.428 -1.18003 4.11411 0
M  V30 1248 C 116.754 -2.41837 4.76884 0
M  V30 1249 C 118.054 -0.278394 5.21558 0
M  V30 1250 H 119.748 0.11875 2.99164 0
M  V30 1251 H 117.294 0.0585531 1.43881 0
M  V30 1252 H 119.247 -2.25028 3.56287 0
M  V30 1253 H 117.971 -2.29767 2.32109 0
M  V30 1254 H 116.63 -0.603331 3.61601 0
M  V30 1255 H 116.278 -3.0494 4.00026 0
M  V30 1256 H 115.978 -2.1102 5.48402 0
M  V30 1257 H 117.502 -3.02508 5.30397 0
M  V30 1258 H 118.916 -0.784823 5.67903 0
M  V30 1259 H 117.313 -0.0619707 6.00068 0
M  V30 1260 H 118.383 0.684677 4.80042 0
M  V30 1261 N 119.726 -1.57421 0.075193 0
M  V30 1262 C 121.137 -1.81021 -0.456964 0
M  V30 1263 C 121.488 -0.98936 -1.69429 0
M  V30 1264 O 120.613 -0.212865 -2.15351 0
M  V30 1265 C 121.208 -3.28329 -0.83581 0
M  V30 1266 C 119.767 -3.52764 -1.31281 0
M  V30 1267 C 118.914 -2.75676 -0.299648 0
M  V30 1268 H 121.865 -1.55822 0.300856 0
M  V30 1269 H 121.886 -3.40564 -1.69696 0
M  V30 1270 H 121.398 -3.88046 0.0649238 0
M  V30 1271 H 119.499 -2.98355 -2.23193 0
M  V30 1272 H 119.612 -4.61451 -1.28839 0
M  V30 1273 H 117.976 -2.42538 -0.777641 0
M  V30 1274 H 118.759 -3.38132 0.593417 0
M  V30 1275 N 121.204 0.198386 -1.56346 0
M  V30 1276 C 122.45 0.920648 -1.80698 0
M  V30 1277 C 122.783 1.83045 -0.648697 0
M  V30 1278 O 122.058 1.91308 0.350925 0
M  V30 1279 C 122.341 1.73971 -3.15287 0
M  V30 1280 C 122.194 0.85485 -4.41602 0
M  V30 1281 C 123.513 2.71296 -3.46535 0
M  V30 1282 H 120.632 0.333261 -0.657348 0
M  V30 1283 H 123.274 0.188198 -1.89066 0
M  V30 1284 H 121.424 2.36416 -3.08285 0
M  V30 1285 H 123.096 0.245362 -4.60647 0
M  V30 1286 H 121.339 0.161398 -4.335 0
M  V30 1287 H 122.01 1.46286 -5.32264 0
M  V30 1288 H 124.486 2.18983 -3.53816 0
M  V30 1289 H 123.362 3.2569 -4.41834 0
M  V30 1290 H 123.623 3.5018 -2.69864 0
M  V30 1291 N 122.682 1.50554 0.465978 0
M  V30 1292 C 123.612 1.72722 1.57128 0
M  V30 1293 C 124.593 0.576294 1.6004 0
M  V30 1294 O 125.778 0.81598 1.76225 0
M  V30 1295 C 122.908 1.82605 2.95419 0
M  V30 1296 C 121.862 2.97835 3.07373 0
M  V30 1297 C 121.188 2.92867 4.47363 0
M  V30 1298 C 122.488 4.38265 2.84114 0
M  V30 1299 H 124.182 2.65267 1.38829 0
M  V30 1300 H 121.728 1.2765 0.666441 0
M  V30 1301 H 123.681 1.96698 3.72677 0
M  V30 1302 H 122.405 0.866858 3.14886 0
M  V30 1303 H 121.064 2.83401 2.3255 0
M  V30 1304 H 120.712 1.94783 4.63755 0
M  V30 1305 H 120.412 3.70227 4.56296 0
M  V30 1306 H 121.936 3.09015 5.26633 0
M  V30 1307 H 123.35 4.53198 3.51118 0
M  V30 1308 H 121.747 5.17115 3.04487 0
M  V30 1309 H 122.817 4.50281 1.7993 0
M  V30 1310 N 124.16 -0.719506 1.40217 0
M  V30 1311 C 125.093 -1.84298 1.34571 0
M  V30 1312 C 126.071 -1.61149 0.216741 0
M  V30 1313 O 127.255 -1.84212 0.399756 0
M  V30 1314 C 124.382 -3.20568 1.09335 0
M  V30 1315 C 123.428 -3.62551 2.24631 0
M  V30 1316 S 124.261 -3.7012 3.87004 0
M  V30 1317 C 125.417 -5.09154 3.64024 0
M  V30 1318 H 125.65 -1.88807 2.2965 0
M  V30 1319 H 123.183 -0.885901 1.26456 0
M  V30 1320 H 125.141 -3.99246 0.954602 0
M  V30 1321 H 123.802 -3.13696 0.159164 0
M  V30 1322 H 122.995 -4.61483 2.02606 0
M  V30 1323 H 122.597 -2.91119 2.34789 0
M  V30 1324 H 124.889 -5.95955 3.22248 0
M  V30 1325 H 125.832 -5.36213 4.62473 0
M  V30 1326 H 126.24 -4.79562 2.97793 0
M  V30 1327 N 125.638 -1.25649 -0.95132 0
M  V30 1328 C 126.884 -1.10757 -1.69884 0
M  V30 1329 C 127.217 0.350061 -1.91019 0
M  V30 1330 O 126.492 1.25783 -1.48354 0
M  V30 1331 C 126.775 -1.86606 -3.07978 0
M  V30 1332 C 126.628 -3.40217 -2.94232 0
M  V30 1333 C 127.947 -1.65182 -4.07925 0
M  V30 1334 H 125.066 -0.40374 -0.616574 0
M  V30 1335 H 127.708 -1.54521 -1.10558 0
M  V30 1336 H 125.858 -1.49409 -3.58621 0
M  V30 1337 H 127.53 -3.87108 -2.50889 0
M  V30 1338 H 125.773 -3.67759 -2.30078 0
M  V30 1339 H 126.444 -3.88505 -3.92133 0
M  V30 1340 H 128.92 -1.9757 -3.66204 0
M  V30 1341 H 127.796 -2.20683 -5.02583 0
M  V30 1342 H 128.057 -0.593933 -4.38092 0
M  V30 1343 N 127.117 1.15442 -1.07289 0
M  V30 1344 C 128.345 1.90096 -0.81676 0
M  V30 1345 C 128.76 1.7798 0.629966 0
M  V30 1346 O 128.117 1.1313 1.43206 0
M  V30 1347 C 128.168 3.40466 -1.21512 0
M  V30 1348 O 127.889 3.52232 -2.60508 0
M  V30 1349 C 129.39 4.32145 -0.988198 0
M  V30 1350 H 126.61 0.602495 -0.295366 0
M  V30 1351 H 129.154 1.4627 -1.42918 0
M  V30 1352 H 127.309 3.81958 -0.647039 0
M  V30 1353 H 127.723 4.45549 -2.76742 0
M  V30 1354 H 129.197 5.36072 -1.31645 0
M  V30 1355 H 129.674 4.39135 0.0755063 0
M  V30 1356 H 130.28 3.96395 -1.54115 0
M  V30 1357 N 128.595 0.856903 1.32268 0
M  V30 1358 C 129.558 0.308171 2.27119 0
M  V30 1359 C 130.558 -0.533421 1.51695 0
M  V30 1360 O 131.748 -0.344607 1.70757 0
M  V30 1361 C 128.88 -0.563757 3.36206 0
M  V30 1362 H 130.073 1.14535 2.77167 0
M  V30 1363 H 127.626 0.631421 1.42978 0
M  V30 1364 H 128.361 -1.42266 2.91429 0
M  V30 1365 H 128.146 0.0386749 3.92081 0
M  V30 1366 H 129.636 -0.940386 4.06874 0
M  V30 1367 N 130.073 -1.45103 0.615059 0
M  V30 1368 C 130.983 -2.34382 -0.101034 0
M  V30 1369 C 131.999 -1.51681 -0.852585 0
M  V30 1370 O 133.175 -1.8446 -0.808484 0
M  V30 1371 C 130.24 -3.29417 -1.08099 0
M  V30 1372 C 129.301 -4.28025 -0.330577 0
M  V30 1373 C 128.534 -5.1852 -1.26385 0
M  V30 1374 O 128.757 -5.12598 -2.50198 0
M  V30 1375 O 127.691 -5.97122 -0.756866 0
M  V30 1376 H 131.517 -2.97033 0.632855 0
M  V30 1377 H 129.102 -1.4461 0.375293 0
M  V30 1378 H 130.984 -3.87958 -1.6452 0
M  V30 1379 H 129.659 -2.69321 -1.79577 0
M  V30 1380 H 128.566 -3.73078 0.276283 0
M  V30 1381 H 129.899 -4.90997 0.343866 0
M  V30 1382 N 131.551 -0.354651 -1.53558 0
M  V30 1383 C 132.514 0.484566 -2.24019 0
M  V30 1384 C 133.514 1.01861 -1.24422 0
M  V30 1385 O 134.704 0.906097 -1.4878 0
M  V30 1386 C 131.836 1.67615 -2.96847 0
M  V30 1387 H 133.029 -0.131843 -2.9961 0
M  V30 1388 H 130.582 -0.106165 -1.55939 0
M  V30 1389 H 131.317 2.33095 -2.25471 0
M  V30 1390 H 131.102 1.30029 -3.69912 0
M  V30 1391 H 132.592 2.27114 -3.50441 0
M  V30 1392 N 133.029 1.57378 -0.0835403 0
M  V30 1393 C 133.976 2.13384 0.879539 0
M  V30 1394 C 134.946 1.04936 1.28754 0
M  V30 1395 O 136.131 1.32662 1.37133 0
M  V30 1396 C 133.271 2.70932 2.13752 0
M  V30 1397 C 132.384 3.93575 1.7811 0
M  V30 1398 C 131.519 4.39326 2.98607 0
M  V30 1399 C 130.558 5.54587 2.59037 0
M  V30 1400 N 129.695 5.95243 3.72331 0
M  V30 1401 H 134.535 2.9537 0.395076 0
M  V30 1402 H 132.072 1.45953 0.183349 0
M  V30 1403 H 134.03 3.02411 2.87408 0
M  V30 1404 H 132.66 1.91693 2.59718 0
M  V30 1405 H 131.712 3.68483 0.94469 0
M  V30 1406 H 133.024 4.77258 1.45005 0
M  V30 1407 H 132.178 4.72528 3.80529 0
M  V30 1408 H 130.917 3.5452 3.34913 0
M  V30 1409 H 129.922 5.21024 1.75539 0
M  V30 1410 H 131.147 6.41133 2.23887 0
M  V30 1411 H 129.093 5.13385 4.08378 0
M  V30 1412 H 129.01 6.73694 3.43034 0
M  V30 1413 H 130.278 6.33072 4.54797 0
M  V30 1414 N 134.507 -0.190092 1.56449 0
M  V30 1415 C 135.454 -1.23557 1.94942 0
M  V30 1416 C 136.424 -1.44972 0.810696 0
M  V30 1417 O 137.609 -1.58023 1.06927 0
M  V30 1418 C 134.749 -2.57416 2.2985 0
M  V30 1419 C 133.862 -2.43537 3.5681 0
M  V30 1420 C 132.997 -3.70134 3.81017 0
M  V30 1421 C 132.036 -3.51109 5.01387 0
M  V30 1422 N 131.173 -4.6973 5.21822 0
M  V30 1423 H 136.013 -0.900304 2.84075 0
M  V30 1424 H 133.55 -0.43318 1.40577 0
M  V30 1425 H 135.508 -3.35409 2.48106 0
M  V30 1426 H 134.138 -2.88975 1.43852 0
M  V30 1427 H 133.19 -1.56816 3.46573 0
M  V30 1428 H 134.502 -2.25415 4.4496 0
M  V30 1429 H 133.656 -4.56566 3.9954 0
M  V30 1430 H 132.395 -3.91215 2.91207 0
M  V30 1431 H 131.4 -2.63063 4.82782 0
M  V30 1432 H 132.625 -3.31468 5.9271 0
M  V30 1433 H 130.571 -4.91065 4.34961 0
M  V30 1434 H 130.488 -4.54452 6.0416 0
M  V30 1435 H 131.756 -5.57499 5.44808 0
M  V30 1436 N 135.985 -1.50799 -0.457987 0
M  V30 1437 C 136.895 -1.73426 -1.57989 0
M  V30 1438 C 137.911 -0.617745 -1.62665 0
M  V30 1439 O 139.087 -0.897614 -1.80291 0
M  V30 1440 C 136.152 -1.83557 -2.94122 0
M  V30 1441 C 135.213 -3.07345 -2.99729 0
M  V30 1442 C 134.446 -3.16983 -4.29368 0
M  V30 1443 O 134.669 -2.33077 -5.20607 0
M  V30 1444 O 133.603 -4.09812 -4.40837 0
M  V30 1445 H 137.429 -2.68555 -1.41817 0
M  V30 1446 H 135.014 -1.35052 -0.638859 0
M  V30 1447 H 136.896 -1.92326 -3.74952 0
M  V30 1448 H 135.571 -0.916137 -3.10465 0
M  V30 1449 H 134.478 -3.04068 -2.1793 0
M  V30 1450 H 135.811 -3.9891 -2.88326 0
M  V30 1451 N 137.463 0.71206 -1.40597 0
M  V30 1452 C 138.411 1.84746 -1.41321 0
M  V30 1453 C 139.405 1.66842 -0.293268 0
M  V30 1454 O 140.611 1.73904 -0.464481 0
M  V30 1455 H 136.986 0.608522 -0.441819 0
M  V30 1456 H 138.957 1.81252 -2.37045 0
M  V30 1457 C 137.706 3.22638 -1.29614 0
M  V30 1458 H 137.029 3.37023 -2.15071 0
M  V30 1459 H 138.469 4.02209 -1.3418 0
M  V30 1460 C 136.928 3.36899 -0.00673121 0
M  V30 1461 O 137.458 3.90186 0.954859 0
M  V30 1462 N 135.664 2.9053 0.0639327 0
M  V30 1463 H 135.211 2.47353 -0.719311 0
M  V30 1464 H 135.169 3.0045 0.926118 0
M  V30 1465 N 138.941 1.26152 0.944643 0
M  V30 1466 C 140.19 1.10883 1.68487 0
M  V30 1467 C 140.503 -0.348153 1.92477 0
M  V30 1468 O 141.709 -0.621459 2.64292 0
M  V30 1469 C 140.165 1.93624 3.03377 0
M  V30 1470 C 139.773 3.43875 2.87148 0
M  V30 1471 C 141.517 1.86954 3.81115 0
M  V30 1472 C 139.424 4.18875 4.1749 0
M  V30 1473 H 138.354 0.41135 0.631907 0
M  V30 1474 H 141.005 1.50433 1.05082 0
M  V30 1475 H 139.387 1.46904 3.67743 0
M  V30 1476 H 140.561 3.98338 2.31653 0
M  V30 1477 H 138.876 3.51744 2.22856 0
M  V30 1478 H 141.473 2.40275 4.77673 0
M  V30 1479 H 141.816 0.839518 4.07747 0
M  V30 1480 H 142.349 2.31477 3.23517 0
M  V30 1481 H 139.088 5.22332 3.96043 0
M  V30 1482 H 138.608 3.69193 4.72712 0
M  V30 1483 H 140.287 4.27134 4.85968 0
M  V30 1484 N 140.419 -1.14872 1.07899 0
M  V30 1485 C 141.668 -1.85135 0.800499 0
M  V30 1486 C 141.981 -1.83547 -0.676014 0
M  V30 1487 O 143.187 -2.49548 -1.06948 0
M  V30 1488 C 141.643 -3.3231 1.38197 0
M  V30 1489 C 141.251 -3.42329 2.8899 0
M  V30 1490 C 142.995 -4.0772 1.18174 0
M  V30 1491 C 140.902 -4.83684 3.403 0
M  V30 1492 H 139.832 -0.693563 0.29578 0
M  V30 1493 H 142.483 -1.29532 1.29976 0
M  V30 1494 H 140.865 -3.87618 0.810431 0
M  V30 1495 H 142.039 -2.97097 3.52236 0
M  V30 1496 H 140.354 -2.80369 3.07867 0
M  V30 1497 H 142.951 -5.12049 1.5398 0
M  V30 1498 H 143.294 -4.16124 0.12117 0
M  V30 1499 H 143.827 -3.58696 1.71994 0
M  V30 1500 H 140.566 -4.80465 4.45907 0
M  V30 1501 H 140.086 -5.29474 2.81811 0
M  V30 1502 H 141.765 -5.52558 3.36584 0
M  V30 1503 N 141.898 -0.863906 -1.31812 0
M  V30 1504 C 142.861 -0.320212 -2.26952 0
M  V30 1505 C 143.861 0.525369 -1.51975 0
M  V30 1506 O 145.051 0.335547 -1.70938 0
M  V30 1507 C 142.183 0.545919 -3.365 0
M  V30 1508 H 143.376 -1.16004 -2.76556 0
M  V30 1509 H 140.929 -0.638995 -1.42641 0
M  V30 1510 H 141.664 1.40718 -2.92179 0
M  V30 1511 H 141.449 -0.0594674 -3.92055 0
M  V30 1512 H 142.939 0.918796 -4.07367 0
M  V30 1513 N 143.376 1.44774 -0.622745 0
M  V30 1514 C 144.339 2.29069 0.0774015 0
M  V30 1515 C 145.339 1.4059 0.780461 0
M  V30 1516 O 146.529 1.62551 0.626322 0
M  V30 1517 C 143.661 3.21974 1.12006 0
M  V30 1518 H 144.854 2.92459 -0.663901 0
M  V30 1519 H 142.407 1.51548 -0.382486 0
M  V30 1520 H 143.142 2.63417 1.89162 0
M  V30 1521 H 142.927 3.87168 0.619951 0
M  V30 1522 H 144.417 3.85318 1.60995 0
M  V30 1523 N 144.854 0.36279 1.53368 0
M  V30 1524 C 145.817 -0.472679 2.24273 0
M  V30 1525 C 146.817 -1.012 1.24961 0
M  V30 1526 O 148.007 -0.898194 1.49259 0
M  V30 1527 C 145.139 -1.66039 2.97731 0
M  V30 1528 H 146.332 0.14773 2.99536 0
M  V30 1529 H 143.885 0.114434 1.55881 0
M  V30 1530 H 144.62 -2.31896 2.26704 0
M  V30 1531 H 144.405 -1.28066 3.70596 0
M  V30 1532 H 145.895 -2.25252 3.51641 0
M  V30 1533 N 146.332 -1.57332 0.0918853 0
M  V30 1534 C 147.264 -2.10869 -0.898168 0
M  V30 1535 C 148.277 -1.04521 -1.24817 0
M  V30 1536 O 149.466 -1.31977 -1.20184 0
M  V30 1537 C 146.566 -2.57083 -2.2082 0
M  V30 1538 C 145.739 -3.87229 -2.03402 0
M  V30 1539 C 144.798 -4.19324 -3.17889 0
M  V30 1540 O 143.824 -4.88598 -2.91994 0
M  V30 1541 N 145.026 -3.74471 -4.43567 0
M  V30 1542 H 147.791 -2.96439 -0.440943 0
M  V30 1543 H 145.352 -1.61631 -0.0933064 0
M  V30 1544 H 147.344 -2.75602 -2.96354 0
M  V30 1545 H 145.914 -1.76541 -2.57977 0
M  V30 1546 H 145.134 -3.7789 -1.12218 0
M  V30 1547 H 146.422 -4.72379 -1.89038 0
M  V30 1548 H 145.82 -3.18546 -4.67488 0
M  V30 1549 H 144.377 -3.98151 -5.16061 0
M  V30 1550 N 147.81 0.181792 -1.56548 0
M  V30 1551 C 148.773 1.20894 -1.94724 0
M  V30 1552 C 149.773 1.37738 -0.829747 0
M  V30 1553 O 150.963 1.35323 -1.09697 0
M  V30 1554 C 148.095 2.57593 -2.23291 0
M  V30 1555 H 149.288 0.882275 -2.86629 0
M  V30 1556 H 146.841 0.423838 -1.50444 0
M  V30 1557 H 147.576 2.95291 -1.34067 0
M  V30 1558 H 147.361 2.46735 -3.04736 0
M  V30 1559 H 148.851 3.31637 -2.53785 0
M  V30 1560 N 149.288 1.51039 0.449983 0
M  V30 1561 C 150.536 1.62759 1.19808 0
M  V30 1562 C 150.857 0.339981 1.92013 0
M  V30 1563 O 150.127 -0.643606 1.85026 0
M  V30 1564 H 148.707 0.599811 0.445237 0
M  V30 1565 H 151.369 1.87914 0.517138 0
M  V30 1566 H 150.465 2.44911 1.93455 0
M  V30 1567 N 150.766 -0.704594 1.40972 0
M  V30 1568 C 151.729 -1.80035 1.41845 0
M  V30 1569 C 152.729 -1.57774 0.310474 0
M  V30 1570 O 153.919 -1.64613 0.56992 0
M  V30 1571 C 151.051 -3.18284 1.22098 0
M  V30 1572 H 152.244 -1.80658 2.3938 0
M  V30 1573 H 149.797 -0.911329 1.26982 0
M  V30 1574 H 150.532 -3.23306 0.253672 0
M  V30 1575 H 150.317 -3.35843 2.02366 0
M  V30 1576 H 151.807 -3.98289 1.25522 0
M  V30 1577 N 152.244 -1.26651 -0.937939 0
M  V30 1578 C 153.469 -1.15279 -1.72411 0
M  V30 1579 C 153.894 0.287866 -1.85884 0
M  V30 1580 O 153.252 1.20855 -1.35143 0
M  V30 1581 C 153.3 -1.83028 -3.10698 0
M  V30 1582 O 152.404 -1.12128 -3.96864 0
M  V30 1583 H 151.745 -0.401504 -0.528858 0
M  V30 1584 H 154.275 -1.67531 -1.1745 0
M  V30 1585 H 154.285 -1.89981 -3.6107 0
M  V30 1586 H 152.96 -2.87833 -3.00208 0
M  V30 1587 H 151.537 -1.13173 -3.55312 0
M  V30 1588 N 153.722 1.14298 -1.08507 0
M  V30 1589 C 154.97 1.84993 -0.813763 0
M  V30 1590 C 155.291 1.83405 0.662393 0
M  V30 1591 O 154.561 1.28319 1.48024 0
M  V30 1592 H 153.141 0.684966 -0.298045 0
M  V30 1593 H 155.803 1.385 -1.37126 0
M  V30 1594 H 154.899 2.89788 -1.15884 0
M  V30 1595 N 155.201 0.870884 1.31352 0
M  V30 1596 C 156.431 0.496049 2.00557 0
M  V30 1597 C 156.839 -0.916241 1.65534 0
M  V30 1598 O 156.182 -1.61188 0.881134 0
M  V30 1599 C 156.244 0.574418 3.54881 0
M  V30 1600 C 155.908 1.94849 4.1338 0
M  V30 1601 C 156.905 2.91611 4.30417 0
M  V30 1602 C 154.59 2.25005 4.49086 0
M  V30 1603 C 156.584 4.16672 4.82352 0
M  V30 1604 C 154.271 3.50315 5.00722 0
M  V30 1605 C 155.269 4.45964 5.17306 0
M  V30 1606 O 154.957 5.69052 5.67833 0
M  V30 1607 H 154.689 0.191664 0.64826 0
M  V30 1608 H 157.243 1.17409 1.68536 0
M  V30 1609 H 155.473 -0.160549 3.86367 0
M  V30 1610 H 157.162 0.212879 4.05341 0
M  V30 1611 H 157.928 2.69622 4.03149 0
M  V30 1612 H 153.807 1.51332 4.35453 0
M  V30 1613 H 157.351 4.91336 4.95211 0
M  V30 1614 H 153.248 3.72147 5.27424 0
M  V30 1615 H 154.016 5.71236 5.86201 0
M  V30 1616 N 156.679 -1.44442 0.630414 0
M  V30 1617 C 157.925 -2.02351 0.134816 0
M  V30 1618 C 158.258 -1.4947 -1.23986 0
M  V30 1619 O 157.533 -0.678475 -1.82283 0
M  V30 1620 C 157.816 -3.59898 0.120707 0
M  V30 1621 C 157.669 -4.23063 1.52767 0
M  V30 1622 C 158.988 -4.36585 -0.555127 0
M  V30 1623 H 156.107 -0.73527 0.0504646 0
M  V30 1624 H 158.749 -1.72022 0.806751 0
M  V30 1625 H 156.899 -3.85868 -0.451477 0
M  V30 1626 H 158.571 -4.08202 2.14869 0
M  V30 1627 H 156.814 -3.80586 2.08175 0
M  V30 1628 H 157.485 -5.32071 1.46984 0
M  V30 1629 H 159.961 -4.16044 -0.0685429 0
M  V30 1630 H 158.837 -5.46294 -0.534185 0
M  V30 1631 H 159.098 -4.11138 -1.62535 0
M  V30 1632 N 158.157 -0.370918 -1.53173 0
M  V30 1633 C 159.403 0.217423 -2.01631 0
M  V30 1634 C 159.736 1.47983 -1.25756 0
M  V30 1635 O 159.011 1.91274 -0.352764 0
M  V30 1636 C 159.294 0.503982 -3.56556 0
M  V30 1637 C 159.147 -0.77243 -4.43118 0
M  V30 1638 C 160.466 1.30234 -4.20389 0
M  V30 1639 H 157.585 0.0775486 -0.732909 0
M  V30 1640 H 160.227 -0.496863 -1.83388 0
M  V30 1641 H 158.377 1.11248 -3.72231 0
M  V30 1642 H 160.049 -1.4098 -4.39229 0
M  V30 1643 H 158.292 -1.39167 -4.10871 0
M  V30 1644 H 158.963 -0.526815 -5.4948 0
M  V30 1645 H 161.439 0.787546 -4.08579 0
M  V30 1646 H 160.315 1.47158 -5.28806 0
M  V30 1647 H 160.576 2.31237 -3.76805 0
M  V30 1648 N 159.635 1.57281 -0.100228 0
M  V30 1649 C 160.582 2.14305 0.856858 0
M  V30 1650 C 161.552 1.06296 1.27634 0
M  V30 1651 O 162.737 1.34109 1.35718 0
M  V30 1652 C 159.877 2.73184 2.10866 0
M  V30 1653 C 158.99 3.95442 1.73925 0
M  V30 1654 C 158.125 4.42468 2.93931 0
M  V30 1655 C 157.164 5.57303 2.5314 0
M  V30 1656 N 156.301 5.99158 3.65997 0
M  V30 1657 H 161.141 2.95772 0.363726 0
M  V30 1658 H 158.678 1.46139 0.167858 0
M  V30 1659 H 160.636 3.05442 2.84185 0
M  V30 1660 H 159.266 1.94437 2.57671 0
M  V30 1661 H 158.318 3.69464 0.905554 0
M  V30 1662 H 159.63 4.78769 1.39935 0
M  V30 1663 H 158.784 4.76537 3.75496 0
M  V30 1664 H 157.523 3.58052 3.31134 0
M  V30 1665 H 156.528 5.22857 1.70003 0
M  V30 1666 H 157.753 6.43471 2.17075 0
M  V30 1667 H 155.699 5.17687 4.02909 0
M  V30 1668 H 155.616 6.77295 3.35869 0
M  V30 1669 H 156.884 6.3786 4.48057 0
M  V30 1670 N 161.113 -0.173488 1.56642 0
M  V30 1671 C 162.524 -0.736155 1.71574 0
M  V30 1672 C 162.875 -1.82888 0.710389 0
M  V30 1673 O 162 -2.16017 -0.1287 0
M  V30 1674 C 162.595 -1.34211 3.11083 0
M  V30 1675 C 161.154 -1.85162 3.27707 0
M  V30 1676 C 160.301 -0.729765 2.67525 0
M  V30 1677 H 163.252 0.0518786 1.58615 0
M  V30 1678 H 163.273 -2.21178 3.09613 0
M  V30 1679 H 162.785 -0.546579 3.84232 0
M  V30 1680 H 160.886 -2.67366 2.59512 0
M  V30 1681 H 160.999 -1.99855 4.35425 0
M  V30 1682 H 159.363 -1.14965 2.27278 0
M  V30 1683 H 160.146 0.0538806 3.43258 0
M  V30 1684 N 162.591 -1.51276 -0.441967 0
M  V30 1685 C 163.838 -1.63715 -1.19179 0
M  V30 1686 C 164.166 -0.351175 -1.91303 0
M  V30 1687 O 163.421 0.664524 -1.84072 0
M  V30 1688 C 163.72 -2.78746 -2.23686 0
M  V30 1689 C 163.386 -4.18189 -1.68607 0
M  V30 1690 C 162.048 -4.56125 -1.53308 0
M  V30 1691 C 164.4 -5.05222 -1.28062 0
M  V30 1692 C 161.728 -5.78804 -0.959317 0
M  V30 1693 C 164.08 -6.28476 -0.721162 0
M  V30 1694 C 162.744 -6.65188 -0.55504 0
M  V30 1695 H 162.014 -0.599076 -0.436106 0
M  V30 1696 H 164.661 -1.85296 -0.48351 0
M  V30 1697 H 162.966 -2.51369 -3.00535 0
M  V30 1698 H 164.663 -2.8557 -2.81515 0
M  V30 1699 H 161.253 -3.88277 -1.8149 0
M  V30 1700 H 165.437 -4.76524 -1.38704 0
M  V30 1701 H 160.693 -6.05899 -0.81833 0
M  V30 1702 H 164.867 -6.95259 -0.398458 0
M  V30 1703 H 162.494 -7.60123 -0.108311 0
M  V30 1704 N 164.069 0.697108 -1.41344 0
M  V30 1705 C 165.297 1.48593 -1.43972 0
M  V30 1706 C 165.712 1.88747 -0.0445612 0
M  V30 1707 O 165.069 1.56682 0.935785 0
M  V30 1708 C 165.12 2.74946 -2.34706 0
M  V30 1709 O 164.841 2.36484 -3.68791 0
M  V30 1710 C 166.342 3.687 -2.46121 0
M  V30 1711 H 163.562 0.457964 -0.490418 0
M  V30 1712 H 166.106 0.858429 -1.8561 0
M  V30 1713 H 164.261 3.33937 -1.9638 0
M  V30 1714 H 164.675 3.17918 -4.17167 0
M  V30 1715 H 166.149 4.54145 -3.13777 0
M  V30 1716 H 166.626 4.13081 -1.49199 0
M  V30 1717 H 167.232 3.15613 -2.85076 0
M  V30 1718 N 165.547 1.27147 0.931209 0
M  V30 1719 C 166.51 1.09615 2.01289 0
M  V30 1720 C 167.51 0.0412581 1.60747 0
M  V30 1721 O 168.7 0.285545 1.71844 0
M  V30 1722 C 165.832 0.669447 3.34262 0
M  V30 1723 H 167.025 2.05662 2.18273 0
M  V30 1724 H 164.578 1.09885 1.11153 0
M  V30 1725 H 165.313 -0.292572 3.22978 0
M  V30 1726 H 165.098 1.43127 3.65044 0
M  V30 1727 H 166.588 0.568921 4.13706 0
M  V30 1728 N 167.025 -1.13721 1.09112 0
M  V30 1729 C 167.988 -2.17222 0.731241 0
M  V30 1730 C 168.988 -1.59035 -0.237566 0
M  V30 1731 O 170.178 -1.74192 -0.0161704 0
M  V30 1732 C 167.31 -3.40804 0.0808443 0
M  V30 1733 H 168.503 -2.50573 1.64783 0
M  V30 1734 H 166.056 -1.28493 0.889897 0
M  V30 1735 H 166.791 -3.1304 -0.847127 0
M  V30 1736 H 166.576 -3.84306 0.777896 0
M  V30 1737 H 168.066 -4.1731 -0.155657 0
M  V30 1738 N 168.503 -0.877838 -1.30888 0
M  V30 1739 C 169.731 -0.507414 -2.00581 0
M  V30 1740 C 170.146 0.902216 -1.65848 0
M  V30 1741 O 169.503 1.59225 -0.891831 0
M  V30 1742 C 169.554 -0.664162 -3.55347 0
M  V30 1743 O 169.275 -2.01829 -3.8884 0
M  V30 1744 C 170.776 -0.295787 -4.42312 0
M  V30 1745 H 167.996 -0.196866 -0.641471 0
M  V30 1746 H 170.54 -1.18117 -1.66939 0
M  V30 1747 H 168.695 -0.0378619 -3.87381 0
M  V30 1748 H 169.109 -2.03174 -4.8355 0
M  V30 1749 H 170.583 -0.456388 -5.5011 0
M  V30 1750 H 171.06 0.765663 -4.32475 0
M  V30 1751 H 171.666 -0.898113 -4.15709 0
M  V30 1752 N 169.982 1.44106 -0.638065 0
M  V30 1753 C 170.912 2.33448 0.0494287 0
M  V30 1754 C 171.893 1.48606 0.827672 0
M  V30 1755 O 173.078 1.77308 0.792173 0
M  V30 1756 C 170.208 3.31771 1.02691 0
M  V30 1757 C 169.162 4.26485 0.359823 0
M  V30 1758 C 168.488 5.14729 1.44769 0
M  V30 1759 C 169.788 5.17056 -0.738296 0
M  V30 1760 H 171.482 2.91183 -0.696636 0
M  V30 1761 H 169.028 1.40014 -0.336456 0
M  V30 1762 H 170.981 3.93161 1.51666 0
M  V30 1763 H 169.705 2.7226 1.80395 0
M  V30 1764 H 168.364 3.66437 -0.10934 0
M  V30 1765 H 168.012 4.51566 2.21578 0
M  V30 1766 H 167.712 5.78913 1.00668 0
M  V30 1767 H 169.236 5.78991 1.93911 0
M  V30 1768 H 170.65 5.72342 -0.331354 0
M  V30 1769 H 169.047 5.89879 -1.10286 0
M  V30 1770 H 170.117 4.57652 -1.60258 0
M  V30 1771 N 171.46 0.379036 1.52974 0
M  V30 1772 C 172.37 -0.468639 2.29872 0
M  V30 1773 C 173.386 -1.08067 1.36373 0
M  V30 1774 O 174.562 -1.08871 1.69438 0
M  V30 1775 C 171.627 -1.58594 3.083 0
M  V30 1776 C 170.688 -1.00007 4.17489 0
M  V30 1777 C 169.921 -2.06413 4.92168 0
M  V30 1778 O 170.144 -3.27751 4.66835 0
M  V30 1779 O 169.078 -1.68717 5.7777 0
M  V30 1780 H 172.904 0.157508 3.03291 0
M  V30 1781 H 170.489 0.143035 1.48714 0
M  V30 1782 H 172.371 -2.23525 3.57232 0
M  V30 1783 H 171.046 -2.19724 2.37703 0
M  V30 1784 H 169.953 -0.314299 3.72777 0
M  V30 1785 H 171.286 -0.433135 4.90291 0
M  V30 1786 N 172.938 -1.57226 0.108567 0
M  V30 1787 C 173.848 -2.18292 -0.859401 0
M  V30 1788 C 174.864 -1.15612 -1.30038 0
M  V30 1789 O 176.04 -1.48039 -1.36552 0
M  V30 1790 C 173.105 -2.762 -2.09558 0
M  V30 1791 C 172.166 -3.93881 -1.70752 0
M  V30 1792 C 171.399 -4.49018 -2.88477 0
M  V30 1793 O 171.622 -4.03068 -4.036 0
M  V30 1794 O 170.556 -5.39852 -2.66164 0
M  V30 1795 H 174.382 -3.01441 -0.369769 0
M  V30 1796 H 171.967 -1.48945 -0.1165 0
M  V30 1797 H 173.849 -3.13156 -2.81978 0
M  V30 1798 H 172.524 -1.96089 -2.57548 0
M  V30 1799 H 171.431 -3.61713 -0.954714 0
M  V30 1800 H 172.764 -4.75396 -1.27513 0
M  V30 1801 N 174.416 0.165178 -1.56732 0
M  V30 1802 C 175.363 1.2044 -1.96883 0
M  V30 1803 C 176.333 1.43664 -0.833657 0
M  V30 1804 O 177.518 1.56302 -1.09427 0
M  V30 1805 C 174.658 2.53727 -2.33916 0
M  V30 1806 C 173.771 2.3783 -3.6064 0
M  V30 1807 C 172.906 3.64026 -3.86857 0
M  V30 1808 C 171.945 3.43088 -5.06909 0
M  V30 1809 N 171.082 4.61369 -5.29229 0
M  V30 1810 H 175.922 0.854996 -2.85471 0
M  V30 1811 H 173.459 0.41076 -1.41249 0
M  V30 1812 H 175.417 3.31419 -2.53411 0
M  V30 1813 H 174.047 2.8665 -1.48431 0
M  V30 1814 H 173.099 1.51282 -3.49024 0
M  V30 1815 H 174.411 2.18308 -4.4849 0
M  V30 1816 H 173.565 4.50152 -4.06753 0
M  V30 1817 H 172.304 3.86533 -2.97394 0
M  V30 1818 H 171.309 2.55349 -4.86906 0
M  V30 1819 H 172.534 3.21997 -5.97909 0
M  V30 1820 H 170.48 4.84084 -4.42718 0
M  V30 1821 H 170.397 4.44783 -6.11313 0
M  V30 1822 H 171.665 5.48761 -5.53608 0
M  V30 1823 N 175.894 1.51508 0.433938 0
M  V30 1824 C 176.824 1.76016 1.53429 0
M  V30 1825 C 177.805 0.610112 1.58782 0
M  V30 1826 O 178.99 0.853177 1.74455 0
M  V30 1827 C 176.12 1.88831 2.9148 0
M  V30 1828 C 175.074 3.04288 3.00987 0
M  V30 1829 C 174.4 3.0229 4.4105 0
M  V30 1830 C 175.7 4.44193 2.74754 0
M  V30 1831 H 177.394 2.68152 1.33171 0
M  V30 1832 H 174.94 1.29035 0.639214 0
M  V30 1833 H 176.893 2.04559 3.6842 0
M  V30 1834 H 175.617 0.933455 3.12976 0
M  V30 1835 H 174.276 2.8827 2.26486 0
M  V30 1836 H 173.924 2.04576 4.59519 0
M  V30 1837 H 173.624 3.79822 4.4834 0
M  V30 1838 H 175.148 3.20116 5.1996 0
M  V30 1839 H 176.562 4.60544 3.41426 0
M  V30 1840 H 174.959 5.23457 2.9345 0
M  V30 1841 H 176.029 4.53996 1.70339 0
M  V30 1842 N 177.372 -0.689602 1.41712 0
M  V30 1843 C 178.32 -1.82475 1.44242 0
M  V30 1844 C 179.314 -1.66354 0.319774 0
M  V30 1845 O 180.52 -1.73143 0.492089 0
M  V30 1846 H 176.895 -0.601416 0.451445 0
M  V30 1847 H 178.866 -1.77458 2.39899 0
M  V30 1848 C 177.615 -3.20535 1.3473 0
M  V30 1849 H 176.938 -3.33559 2.20405 0
M  V30 1850 H 178.378 -4.00023 1.40562 0
M  V30 1851 C 176.837 -3.36846 0.0603281 0
M  V30 1852 O 177.367 -3.91656 -0.892663 0
M  V30 1853 N 175.573 -2.90595 -0.0177039 0
M  V30 1854 H 175.12 -2.46178 0.758572 0
M  V30 1855 H 175.078 -3.01886 -0.878201 0
M  V30 1856 N 178.85 -1.27639 -0.924453 0
M  V30 1857 C 179.797 -1.10644 -2.0255 0
M  V30 1858 C 180.767 -0.00658438 -1.66099 0
M  V30 1859 O 181.952 -0.16952 -1.90045 0
M  V30 1860 C 179.092 -0.76309 -3.36557 0
M  V30 1861 C 178.205 -1.94091 -3.85944 0
M  V30 1862 C 177.34 -1.53914 -5.08413 0
M  V30 1863 C 176.379 -2.68425 -5.50104 0
M  V30 1864 N 175.516 -2.28815 -6.63768 0
M  V30 1865 H 180.356 -2.04858 -2.16419 0
M  V30 1866 H 177.893 -1.01974 -1.06017 0
M  V30 1867 H 179.851 -0.544822 -4.13627 0
M  V30 1868 H 178.481 0.142102 -3.22487 0
M  V30 1869 H 177.533 -2.27162 -3.05125 0
M  V30 1870 H 178.845 -2.7998 -4.12811 0
M  V30 1871 H 177.999 -1.28231 -5.92994 0
M  V30 1872 H 176.738 -0.651391 -4.8333 0
M  V30 1873 H 175.743 -2.94819 -4.64071 0
M  V30 1874 H 176.968 -3.57826 -5.7718 0
M  V30 1875 H 174.914 -1.42495 -6.40337 0
M  V30 1876 H 174.831 -3.08242 -6.90306 0
M  V30 1877 H 176.099 -2.06387 -7.51681 0
M  V30 1878 N 180.328 1.1314 -1.09713 0
M  V30 1879 C 181.577 1.83838 -0.829851 0
M  V30 1880 C 181.89 1.84599 0.646728 0
M  V30 1881 O 183.096 2.51218 1.02965 0
M  V30 1882 C 181.552 3.30069 -1.43466 0
M  V30 1883 C 181.16 3.37688 -2.94399 0
M  V30 1884 C 182.904 4.05788 -1.24645 0
M  V30 1885 C 180.811 4.78209 -3.47952 0
M  V30 1886 H 179.741 0.68877 -0.306777 0
M  V30 1887 H 182.392 1.27448 -1.3202 0
M  V30 1888 H 180.774 3.8628 -0.871996 0
M  V30 1889 H 181.948 2.91456 -3.56918 0
M  V30 1890 H 180.263 2.75436 -3.12289 0
M  V30 1891 H 182.86 5.09535 -1.62107 0
M  V30 1892 H 183.203 4.15878 -0.187357 0
M  V30 1893 H 183.736 3.55915 -1.77678 0
M  V30 1894 H 180.475 4.73311 -4.53495 0
M  V30 1895 H 179.995 5.24924 -2.90198 0
M  V30 1896 H 181.674 5.47133 -3.45332 0
M  V30 1897 N 181.806 0.884767 1.30421 0
M  V30 1898 C 183.053 0.503105 1.96151 0
M  V30 1899 C 183.381 -0.947676 1.69851 0
M  V30 1900 O 182.636 -1.68467 0.995861 0
M  V30 1901 C 182.935 0.724318 3.49983 0
M  V30 1902 C 182.601 2.15015 3.96332 0
M  V30 1903 C 181.263 2.54005 4.08699 0
M  V30 1904 C 183.615 3.07936 4.20505 0
M  V30 1905 C 180.943 3.85128 4.42599 0
M  V30 1906 C 183.295 4.3859 4.55874 0
M  V30 1907 C 181.959 4.77474 4.66449 0
M  V30 1908 H 181.229 0.184099 0.717766 0
M  V30 1909 H 183.876 1.12058 1.55291 0
M  V30 1910 H 182.181 0.0238086 3.91793 0
M  V30 1911 H 183.878 0.408617 3.98913 0
M  V30 1912 H 180.468 1.8375 3.87213 0
M  V30 1913 H 184.652 2.79033 4.10431 0
M  V30 1914 H 179.908 4.14996 4.48986 0
M  V30 1915 H 184.082 5.10629 4.7353 0
M  V30 1916 H 181.709 5.79115 4.92473 0
M  V30 1917 N 183.284 -1.43765 0.645699 0
M  V30 1918 C 184.194 -2.34544 -0.0512957 0
M  V30 1919 C 185.21 -1.53455 -0.82022 0
M  V30 1920 O 186.386 -1.86133 -0.769176 0
M  V30 1921 C 183.451 -3.31636 -1.01087 0
M  V30 1922 C 182.512 -4.2863 -0.239712 0
M  V30 1923 C 181.745 -5.21084 -1.15358 0
M  V30 1924 O 181.968 -5.1779 -2.39269 0
M  V30 1925 O 180.902 -5.98593 -0.630038 0
M  V30 1926 H 184.728 -2.95624 0.695718 0
M  V30 1927 H 182.313 -1.43781 0.405882 0
M  V30 1928 H 184.195 -3.9136 -1.56254 0
M  V30 1929 H 182.87 -2.73069 -1.73824 0
M  V30 1930 H 181.777 -3.72408 0.355356 0
M  V30 1931 H 183.11 -4.90157 0.447936 0
M  V30 1932 N 184.763 -0.387143 -1.52771 0
M  V30 1933 C 185.71 0.449048 -2.26389 0
M  V30 1934 C 186.68 1.05961 -1.27912 0
M  V30 1935 O 187.865 1.08804 -1.56737 0
M  V30 1936 C 185.005 1.57155 -3.0724 0
M  V30 1937 C 184.118 0.984066 -4.20643 0
M  V30 1938 C 183.253 2.07745 -4.88892 0
M  V30 1939 C 182.292 1.46574 -5.94292 0
M  V30 1940 N 181.429 2.49834 -6.56146 0
M  V30 1941 H 186.269 -0.185205 -2.97424 0
M  V30 1942 H 183.806 -0.103164 -1.46738 0
M  V30 1943 H 185.764 2.23309 -3.52405 0
M  V30 1944 H 184.394 2.17615 -2.38419 0
M  V30 1945 H 183.446 0.212193 -3.79808 0
M  V30 1946 H 184.758 0.497029 -4.96318 0
M  V30 1947 H 183.912 2.81673 -5.3735 0
M  V30 1948 H 182.651 2.59807 -4.12737 0
M  V30 1949 H 181.656 0.711696 -5.45174 0
M  V30 1950 H 182.881 0.953088 -6.72379 0
M  V30 1951 H 180.827 3.0107 -5.82832 0
M  V30 1952 H 180.744 2.05879 -7.27427 0
M  V30 1953 H 182.012 3.23399 -7.09249 0
M  V30 1954 N 186.241 1.57166 -0.116904 0
M  V30 1955 C 187.171 2.18222 0.830759 0
M  V30 1956 C 188.152 1.12167 1.27877 0
M  V30 1957 O 189.337 1.40394 1.34176 0
M  V30 1958 C 186.467 2.77996 2.08172 0
M  V30 1959 C 185.421 3.89614 1.77157 0
M  V30 1960 C 184.747 4.36187 3.09265 0
M  V30 1961 C 186.047 5.1181 1.04151 0
M  V30 1962 H 187.741 2.97664 0.321992 0
M  V30 1963 H 185.287 1.4318 0.153434 0
M  V30 1964 H 187.24 3.19366 2.74924 0
M  V30 1965 H 185.964 1.9584 2.6137 0
M  V30 1966 H 184.623 3.48816 1.12796 0
M  V30 1967 H 184.271 3.50893 3.60393 0
M  V30 1968 H 183.971 5.11455 2.89288 0
M  V30 1969 H 185.495 4.80207 3.77139 0
M  V30 1970 H 186.909 5.50214 1.61052 0
M  V30 1971 H 185.306 5.92648 0.942762 0
M  V30 1972 H 186.376 4.84892 0.0279022 0
M  V30 1973 N 187.719 -0.156864 1.56817 0
M  V30 1974 C 188.967 -0.869404 1.82444 0
M  V30 1975 C 189.288 -1.82147 0.69623 0
M  V30 1976 O 188.558 -1.93847 -0.28287 0
M  V30 1977 H 187.138 -0.324043 0.673056 0
M  V30 1978 H 189.8 -0.153224 1.94297 0
M  V30 1979 H 188.896 -1.43761 2.77019 0
M  V30 1980 N 189.197 -1.51736 -0.425897 0
M  V30 1981 C 190.13 -1.68574 -1.53812 0
M  V30 1982 C 191.108 -0.53328 -1.53606 0
M  V30 1983 O 192.292 -0.758555 -1.72564 0
M  V30 1984 C 189.419 -1.70977 -2.92377 0
M  V30 1985 C 188.465 -2.92324 -3.10563 0
M  V30 1986 S 189.298 -4.52952 -2.85648 0
M  V30 1987 C 190.454 -4.58117 -4.26474 0
M  V30 1988 H 190.687 -2.62647 -1.39298 0
M  V30 1989 H 188.22 -1.41564 -0.616361 0
M  V30 1990 H 190.178 -1.73047 -3.72243 0
M  V30 1991 H 188.839 -0.78061 -3.04245 0
M  V30 1992 H 188.032 -2.90439 -4.11899 0
M  V30 1993 H 187.634 -2.88055 -2.38538 0
M  V30 1994 H 189.926 -4.34462 -5.19855 0
M  V30 1995 H 190.869 -5.59983 -4.33388 0
M  V30 1996 H 191.277 -3.8732 -4.10662 0
M  V30 1997 O 190.714 0.571711 -1.51042 0
M  V30 1998 H 191.405 1.22676 -1.49901 0
M  V30 END ATOM
M  V30 BEGIN BOND
M  V30 END BOND
M  V30 END CTAB
M  END
$$$$
