drugbank_target|P10930 Short tail fiber protein gp12 (DB04272)
 OpenBabel12092120293D

  0  0  0     0  0            999 V3000
M  V30 BEGIN CTAB
M  V30 COUNTS 7793 7864 0 0 0
M  V30 BEGIN ATOM
M  V30 1 H -0.908 1.98254 -0.117106 0
M  V30 2 N 0 1.576 0 0
M  V30 3 C 0.933 2.03868 1.02534 0
M  V30 4 C 1.911 0.928543 1.3348 0
M  V30 5 O 3.095 1.19667 1.45644 0
M  V30 6 C 0.222 2.43627 2.35294 0
M  V30 7 C -0.732 3.65373 2.2001 0
M  V30 8 S 0.101 5.13292 1.52614 0
M  V30 9 C 1.257 5.56322 2.86805 0
M  V30 10 H 1.49 2.90518 0.631377 0
M  V30 11 H -0.977 1.52953 0.210867 0
M  V30 12 H 0.981 2.67203 3.11629 0
M  V30 13 H -0.358 1.57376 2.7183 0
M  V30 14 H -1.165 3.90944 3.18086 0
M  V30 15 H -1.563 3.418 1.51819 0
M  V30 16 H 0.729 5.58782 3.83104 0
M  V30 17 H 1.672 6.56266 2.65933 0
M  V30 18 H 2.08 4.83886 2.90714 0
M  V30 19 N 1.4781 -0.272755 1.55222 0
M  V30 20 C 2.7031 -1.02683 1.80197 0
M  V30 21 C 3.1281 -1.79142 0.573551 0
M  V30 22 O 2.4861 -1.74917 -0.476849 0
M  V30 23 C 2.5341 -1.9609 3.02624 0
M  V30 24 O 1.6381 -3.04863 2.77727 0
M  V30 25 H 0.9791 -0.293557 0.595584 0
M  V30 26 H 3.5091 -0.30159 2.02365 0
M  V30 27 H 3.5191 -2.38039 3.31363 0
M  V30 28 H 2.1941 -1.39851 3.91682 0
M  V30 29 H 0.7711 -2.67228 2.60084 0
M  V30 30 N 2.9562 -1.48159 -0.537278 0
M  V30 31 C 3.9042 -1.62573 -1.66352 0
M  V30 32 C 4.8982 -0.492366 -1.62087 0
M  V30 33 O 6.1042 -0.670847 -1.67032 0
M  V30 34 H 2.4792 -0.511992 -0.550789 0
M  V30 35 H 4.4502 -2.57176 -1.51337 0
M  V30 36 C 3.1992 -1.67583 -3.04649 0
M  V30 37 H 2.5222 -2.54151 -3.08622 0
M  V30 38 H 3.9622 -1.81713 -3.83088 0
M  V30 39 C 2.4212 -0.413039 -3.34358 0
M  V30 40 O 2.9512 0.477259 -3.98855 0
M  V30 41 N 1.1572 -0.286961 -2.8918 0
M  V30 42 H 0.7042 -1.01241 -2.36871 0
M  V30 43 H 0.6622 0.556963 -3.09427 0
M  V30 44 N 4.4343 0.785586 -1.36625 0
M  V30 45 C 5.3823 1.91978 -1.31329 0
M  V30 46 C 6.3763 1.68162 -0.204416 0
M  V30 47 O 7.5823 1.76122 -0.371645 0
M  V30 48 H 3.9573 0.631087 -0.408942 0
M  V30 49 H 5.9283 1.93562 -2.27104 0
M  V30 50 C 4.6773 3.29055 -1.12329 0
M  V30 51 H 4.0003 3.4795 -1.96903 0
M  V30 52 H 5.4403 4.08756 -1.12671 0
M  V30 53 C 3.8993 3.36461 0.171861 0
M  V30 54 O 4.4293 3.84576 1.16035 0
M  V30 55 N 2.6353 2.89782 0.217846 0
M  V30 56 H 2.1823 2.50819 -0.587183 0
M  V30 57 H 2.1403 2.95119 1.08408 0
M  V30 58 N 5.9124 1.20967 1.01018 0
M  V30 59 C 7.1404 1.04956 1.78303 0
M  V30 60 C 7.5554 -0.400915 1.84494 0
M  V30 61 O 6.9124 -1.27826 1.30257 0
M  V30 62 C 6.9634 1.63403 3.22462 0
M  V30 63 O 6.6844 3.02775 3.16637 0
M  V30 64 C 8.1854 1.52432 4.16268 0
M  V30 65 H 5.4054 0.368858 0.560522 0
M  V30 66 H 7.9494 1.60193 1.27116 0
M  V30 67 H 6.1044 1.1227 3.70775 0
M  V30 68 H 6.5184 3.30626 4.07169 0
M  V30 69 H 7.9924 1.98078 5.15237 0
M  V30 70 H 8.4694 0.477875 4.36592 0
M  V30 71 H 9.0754 2.02787 3.73841 0
M  V30 72 N 7.3905 -1.2043 1.01659 0
M  V30 73 C 8.6205 -1.93496 0.724081 0
M  V30 74 C 9.0285 -1.74998 -0.71918 0
M  V30 75 O 8.3715 -1.06118 -1.49949 0
M  V30 76 C 8.4335 -3.45886 0.97994 0
M  V30 77 C 8.0975 -3.88145 2.41232 0
M  V30 78 C 9.0945 -3.93907 3.39313 0
M  V30 79 C 6.7795 -4.20134 2.75305 0
M  V30 80 C 8.7735 -4.31069 4.6953 0
M  V30 81 C 6.4605 -4.56971 4.05735 0
M  V30 82 C 7.4585 -4.62411 5.02658 0
M  V30 83 O 7.1465 -4.98403 6.30754 0
M  V30 84 H 6.8785 -0.621824 0.265162 0
M  V30 85 H 9.4325 -1.53867 1.36066 0
M  V30 86 H 7.6625 -3.85639 0.286198 0
M  V30 87 H 9.3515 -4.0018 0.679021 0
M  V30 88 H 10.1175 -3.69357 3.14325 0
M  V30 89 H 5.9965 -4.1509 2.00551 0
M  V30 90 H 9.5405 -4.3523 5.45179 0
M  V30 91 H 5.4375 -4.80977 4.30502 0
M  V30 92 H 6.2055 -5.16395 6.35042 0
M  V30 93 N 8.8686 -0.792821 -1.36206 0
M  V30 94 C 9.8006 -0.151469 -2.28699 0
M  V30 95 C 10.8136 0.641262 -1.49638 0
M  V30 96 O 12.0026 0.475885 -1.72039 0
M  V30 97 C 9.1026 0.808424 -3.29117 0
M  V30 98 C 8.2756 0.0650202 -4.37352 0
M  V30 99 C 7.3346 0.941358 -5.17711 0
M  V30 100 O 6.3606 0.397352 -5.67811 0
M  V30 101 N 7.5626 2.2652 -5.3448 0
M  V30 102 H 10.3276 -0.945982 -2.84379 0
M  V30 103 H 7.8886 -0.647032 -1.48409 0
M  V30 104 H 9.8806 1.3986 -3.79765 0
M  V30 105 H 8.4506 1.5038 -2.74052 0
M  V30 106 H 7.6706 -0.706255 -3.87822 0
M  V30 107 H 8.9586 -0.447847 -5.06825 0
M  V30 108 H 8.3566 2.73128 -4.95396 0
M  V30 109 H 6.9136 2.80493 -5.88359 0
M  V30 110 N 10.3467 1.47872 -0.545128 0
M  V30 111 C 11.2967 2.26842 0.229456 0
M  V30 112 C 12.2807 1.33626 0.896267 0
M  V30 113 O 13.4727 1.58063 0.79657 0
M  V30 114 C 10.6017 3.19089 1.26638 0
M  V30 115 C 9.6877 4.19783 0.603598 0
M  V30 116 N 10.0787 5.0479 -0.319405 0
M  V30 117 C 8.3767 4.3765 0.858989 0
M  V30 118 C 9.0777 5.77433 -0.703241 0
M  V30 119 N 8.0537 5.43566 -0.0608309 0
M  V30 120 H 11.8557 2.89947 -0.480391 0
M  V30 121 H 9.3697 1.58263 -0.364209 0
M  V30 122 H 11.3667 3.74337 1.83515 0
M  V30 123 H 10.0267 2.5754 1.97745 0
M  V30 124 H 11.0377 5.13244 -0.692889 0
M  V30 125 H 7.7147 3.87281 1.55948 0
M  V30 126 H 9.1047 6.55824 -1.46098 0
M  V30 127 N 11.8248 0.280983 1.55075 0
M  V30 128 C 13.0708 -0.33461 2.00021 0
M  V30 129 C 13.4038 -1.55063 1.16915 0
M  V30 130 O 12.6788 -1.93006 0.240646 0
M  V30 131 C 12.9618 -0.711007 3.53011 0
M  V30 132 C 12.8148 0.512766 4.46868 0
M  V30 133 C 14.1338 -1.54522 4.12081 0
M  V30 134 H 11.2528 -0.120147 0.727141 0
M  V30 135 H 13.8948 0.389097 1.85973 0
M  V30 136 H 12.0448 -1.32761 3.65112 0
M  V30 137 H 13.7168 1.15131 4.46702 0
M  V30 138 H 11.9598 1.14975 4.18286 0
M  V30 139 H 12.6308 0.205556 5.51617 0
M  V30 140 H 15.1068 -1.02442 4.03293 0
M  V30 141 H 13.9828 -1.77739 5.19327 0
M  V30 142 H 14.2438 -2.52813 3.62682 0
M  V30 143 N 13.3029 -1.57598 0.00835791 0
M  V30 144 C 14.5279 -1.95617 -0.689103 0
M  V30 145 C 14.9529 -0.883753 -1.66046 0
M  V30 146 O 14.3109 0.157352 -1.80616 0
M  V30 147 C 14.3589 -3.32736 -1.38994 0
M  V30 148 O 13.4629 -3.27631 -2.50463 0
M  V30 149 H 12.8039 -0.638379 -0.182668 0
M  V30 150 H 15.3339 -2.045 0.064036 0
M  V30 151 H 15.3439 -3.68494 -1.75147 0
M  V30 152 H 14.0189 -4.1034 -0.677778 0
M  V30 153 H 12.5959 -3.03561 -2.16576 0
M  V30 154 N 14.781 0.264519 -1.55364 0
M  V30 155 C 15.729 1.34702 -1.89626 0
M  V30 156 C 16.723 1.50712 -0.773459 0
M  V30 157 O 17.929 1.52395 -0.957897 0
M  V30 158 H 14.304 0.450682 -0.601988 0
M  V30 159 H 16.275 1.0306 -2.80038 0
M  V30 160 C 15.024 2.6989 -2.19214 0
M  V30 161 H 14.347 2.58365 -3.05103 0
M  V30 162 H 15.787 3.44553 -2.47102 0
M  V30 163 C 14.246 3.21637 -1.00254 0
M  V30 164 O 14.776 4.00973 -0.241501 0
M  V30 165 N 12.982 2.7943 -0.797938 0
M  V30 166 H 12.529 2.15026 -1.4185 0
M  V30 167 H 12.487 3.144 -0.00363422 0
M  V30 168 N 16.2591 1.48442 0.529413 0
M  V30 169 C 17.1691 1.6569 1.66084 0
M  V30 170 C 18.1851 0.539432 1.65427 0
M  V30 171 O 19.3611 0.810572 1.84368 0
M  V30 172 C 16.4261 1.69315 3.02545 0
M  V30 173 C 15.4871 2.92694 3.14052 0
M  V30 174 C 14.7201 2.96137 4.44003 0
M  V30 175 O 14.9431 2.07973 5.31134 0
M  V30 176 O 13.8771 3.88312 4.59888 0
M  V30 177 H 17.7031 2.61483 1.54469 0
M  V30 178 H 15.2881 1.3185 0.702567 0
M  V30 179 H 17.1701 1.74217 3.83701 0
M  V30 180 H 15.8451 0.766966 3.14483 0
M  V30 181 H 14.7521 2.93324 2.32189 0
M  V30 182 H 16.0851 3.84699 3.0703 0
M  V30 183 N 17.7372 -0.778329 1.37039 0
M  V30 184 C 18.9622 -1.57248 1.35233 0
M  V30 185 C 19.3872 -1.87999 -0.0615568 0
M  V30 186 O 18.7452 -1.48734 -1.03672 0
M  V30 187 C 18.7932 -2.86353 2.19167 0
M  V30 188 O 17.8972 -3.80442 1.59178 0
M  V30 189 H 17.2382 -0.476569 0.462362 0
M  V30 190 H 19.7682 -0.963853 1.80474 0
M  V30 191 H 19.7782 -3.35519 2.32145 0
M  V30 192 H 18.4532 -2.63299 3.21942 0
M  V30 193 H 17.0302 -3.39067 1.55203 0
M  V30 194 N 19.2153 -1.21501 -1.00376 0
M  V30 195 C 20.6313 -0.972629 -1.26539 0
M  V30 196 C 20.8313 0.340257 -1.98606 0
M  V30 197 O 19.8873 1.06561 -2.28913 0
M  V30 198 C 21.2003 -2.16404 -2.08781 0
M  V30 199 C 22.7483 -2.20643 -2.22004 0
M  V30 200 C 23.2233 -3.39306 -3.07629 0
M  V30 201 N 24.7143 -3.39401 -3.15217 0
M  V30 202 C 25.4493 -4.27867 -3.81729 0
M  V30 203 N 24.9453 -5.26533 -4.5026 0
M  V30 204 N 26.7383 -4.15672 -3.78382 0
M  V30 205 H 18.8893 -2.05929 -0.520281 0
M  V30 206 H 21.1523 -0.901803 -0.292328 0
M  V30 207 H 20.8583 -3.11554 -1.63178 0
M  V30 208 H 20.7323 -2.15567 -3.09533 0
M  V30 209 H 23.1193 -1.26048 -2.66825 0
M  V30 210 H 23.2003 -2.25523 -1.20718 0
M  V30 211 H 22.8443 -4.34195 -2.63509 0
M  V30 212 H 22.7743 -3.31665 -4.09031 0
M  V30 213 H 25.2653 -2.67997 -2.66432 0
M  V30 214 H 25.5783 -5.90337 -4.98721 0
M  V30 215 H 23.9233 -5.30457 -4.49044 0
M  V30 216 H 27.1143 -3.3785 -3.23998 0
M  V30 217 H 27.2873 -4.84825 -4.2994 0
M  V30 218 N 20.6934 1.19889 -1.02296 0
M  V30 219 C 21.9234 1.93109 -0.734332 0
M  V30 220 C 22.3314 1.75377 0.709889 0
M  V30 221 O 21.6744 1.06912 1.49384 0
M  V30 222 C 21.7364 3.45362 -0.99827 0
M  V30 223 C 21.4004 3.8686 -2.43287 0
M  V30 224 C 22.3974 3.92102 -3.41397 0
M  V30 225 C 20.0824 4.18668 -2.77529 0
M  V30 226 C 22.0764 4.28573 -4.71809 0
M  V30 227 C 19.7634 4.54813 -4.08153 0
M  V30 228 C 20.7614 4.59739 -5.05103 0
M  V30 229 O 20.4494 4.95051 -6.33388 0
M  V30 230 H 20.1814 0.620409 -0.268456 0
M  V30 231 H 22.7354 1.53144 -1.3688 0
M  V30 232 H 20.9654 3.85482 -0.306645 0
M  V30 233 H 22.6544 3.99814 -0.700234 0
M  V30 234 H 23.4204 3.67685 -3.1628 0
M  V30 235 H 19.2994 4.14021 -2.0275 0
M  V30 236 H 22.8434 4.32333 -5.4748 0
M  V30 237 H 18.7404 4.78687 -4.33047 0
M  V30 238 H 19.5084 5.1302 -6.37772 0
M  V30 239 N 22.1715 0.800033 1.35784 0
M  V30 240 C 23.4175 0.377901 1.99248 0
M  V30 241 C 23.7505 -1.05052 1.63333 0
M  V30 242 O 23.0255 -1.72768 0.893385 0
M  V30 243 C 23.3085 0.553922 3.55814 0
M  V30 244 C 23.1615 2.0268 4.01548 0
M  V30 245 C 24.4805 -0.0244802 4.40093 0
M  V30 246 H 21.5995 0.138782 0.723815 0
M  V30 247 H 24.2415 1.00835 1.61035 0
M  V30 248 H 22.3915 0.0172398 3.88496 0
M  V30 249 H 24.0635 2.62536 3.79305 0
M  V30 250 H 22.3065 2.5256 3.52698 0
M  V30 251 H 22.9775 2.10087 5.10458 0
M  V30 252 H 25.4535 0.433775 4.13833 0
M  V30 253 H 24.3295 0.128637 5.48749 0
M  V30 254 H 24.5905 -1.11758 4.27741 0
M  V30 255 N 23.6496 -1.47581 0.552962 0
M  V30 256 C 24.5966 -2.29957 -0.197108 0
M  V30 257 C 25.5666 -1.38799 -0.912359 0
M  V30 258 O 26.7516 -1.67761 -0.908888 0
M  V30 259 C 23.8916 -3.22672 -1.22379 0
M  V30 260 C 23.0046 -4.28919 -0.515038 0
M  V30 261 C 22.1396 -5.0879 -1.52664 0
M  V30 262 C 21.1786 -6.06815 -0.802631 0
M  V30 263 N 20.3156 -6.7966 -1.76086 0
M  V30 264 H 25.1556 -2.93578 0.511486 0
M  V30 265 H 22.6926 -1.4471 0.264067 0
M  V30 266 H 24.6506 -3.74845 -1.83159 0
M  V30 267 H 23.2806 -2.60925 -1.90047 0
M  V30 268 H 22.3326 -3.79835 0.207192 0
M  V30 269 H 23.6446 -4.98773 0.0523425 0
M  V30 270 H 22.7986 -5.65091 -2.20809 0
M  V30 271 H 21.5376 -4.38828 -2.12794 0
M  V30 272 H 20.5426 -5.49695 -0.107238 0
M  V30 273 H 21.7676 -6.78784 -0.207135 0
M  V30 274 H 19.7136 -6.12432 -2.35081 0
M  V30 275 H 19.6306 -7.45669 -1.24552 0
M  V30 276 H 20.8986 -7.40538 -2.43359 0
M  V30 277 N 25.1277 -0.289203 -1.54924 0
M  V30 278 C 26.3747 0.323519 -1.99899 0
M  V30 279 C 26.7027 1.54797 -1.17762 0
M  V30 280 O 25.9577 1.94237 -0.238835 0
M  V30 281 C 26.2567 0.736119 -3.49737 0
M  V30 282 C 25.9227 -0.385276 -4.49251 0
M  V30 283 C 24.5847 -0.693156 -4.76181 0
M  V30 284 C 26.9367 -1.14021 -5.08575 0
M  V30 285 C 24.2647 -1.7593 -5.59701 0
M  V30 286 C 26.6167 -2.19619 -5.93254 0
M  V30 287 C 25.2807 -2.51026 -6.185 0
M  V30 288 H 24.5507 0.118384 -0.731482 0
M  V30 289 H 27.1977 -0.405847 -1.8715 0
M  V30 290 H 25.5027 1.54539 -3.60035 0
M  V30 291 H 27.1997 1.22118 -3.81953 0
M  V30 292 H 23.7897 -0.135202 -4.28387 0
M  V30 293 H 27.9737 -0.915611 -4.87781 0
M  V30 294 H 23.2297 -2.0075 -5.77503 0
M  V30 295 H 27.4037 -2.78581 -6.38252 0
M  V30 296 H 25.0307 -3.33772 -6.83008 0
M  V30 297 N 26.6058 1.57591 -0.0167156 0
M  V30 298 C 27.8828 1.82547 0.702564 0
M  V30 299 C 28.2628 0.898018 1.91047 0
M  V30 300 O 27.6108 -0.0493456 2.28447 0
M  V30 301 C 27.8208 3.31459 1.09251 0
M  V30 302 C 29.1688 3.97622 1.48937 0
M  V30 303 O 30.1928 3.35881 1.18584 0
M  V30 304 O 29.0518 5.06415 2.05442 0
M  V30 305 H 26.1458 0.752268 0.343544 0
M  V30 306 H 28.6918 1.69644 -0.0434495 0
M  V30 307 H 27.4638 3.9061 0.23227 0
M  V30 308 H 27.0868 3.49422 1.89709 0
M  V30 309 N 28.0839 -0.256276 1.55502 0
M  V30 310 C 29.4949 -0.826068 1.67431 0
M  V30 311 C 29.8459 -1.86396 0.612446 0
M  V30 312 O 28.9709 -2.15031 -0.243025 0
M  V30 313 C 29.5659 -1.50512 3.03532 0
M  V30 314 C 28.1249 -2.02273 3.17431 0
M  V30 315 C 27.2719 -0.870548 2.63281 0
M  V30 316 H 30.2229 -0.0322728 1.58667 0
M  V30 317 H 30.2439 -2.37279 2.97454 0
M  V30 318 H 29.7559 -0.749484 3.80794 0
M  V30 319 H 27.8569 -2.80746 2.44974 0
M  V30 320 H 27.9699 -2.22655 4.24219 0
M  V30 321 H 26.3339 -1.26851 2.20864 0
M  V30 322 H 27.1169 -0.128149 3.43061 0
M  V30 323 N 29.562 -1.4872 -0.521534 0
M  V30 324 C 30.79 -1.60843 -1.30142 0
M  V30 325 C 31.205 -0.271897 -1.86832 0
M  V30 326 O 30.562 0.739969 -1.66825 0
M  V30 327 C 30.613 -2.66155 -2.4463 0
M  V30 328 O 30.334 -3.94623 -1.90275 0
M  V30 329 C 31.835 -2.88795 -3.36322 0
M  V30 330 H 29.055 -0.542075 -0.395468 0
M  V30 331 H 31.599 -1.94609 -0.628285 0
M  V30 332 H 29.754 -2.35224 -3.07812 0
M  V30 333 H 30.168 -4.52468 -2.65279 0
M  V30 334 H 31.642 -3.66264 -4.12983 0
M  V30 335 H 32.119 -1.97934 -3.9207 0
M  V30 336 H 32.725 -3.21063 -2.78924 0
M  V30 337 N 31.0401 0.771051 -1.3745 0
M  V30 338 C 32.3171 1.519 -1.23231 0
M  V30 339 C 32.6971 2.10383 0.173809 0
M  V30 340 O 32.0451 1.95583 1.18151 0
M  V30 341 C 32.2551 2.59933 -2.32886 0
M  V30 342 C 33.6031 3.27316 -2.70461 0
M  V30 343 O 34.6271 2.70228 -2.32068 0
M  V30 344 O 33.4861 4.30531 -3.36608 0
M  V30 345 H 30.5801 0.672803 -0.480901 0
M  V30 346 H 33.1261 0.807957 -1.49232 0
M  V30 347 H 31.8981 2.14842 -3.27045 0
M  V30 348 H 31.5211 3.38637 -2.08353 0
M  V30 349 N 32.5182 1.22032 0.997298 0
M  V30 350 C 33.7462 1.06841 1.7718 0
M  V30 351 C 34.1612 -0.381325 1.84909 0
M  V30 352 O 33.5182 -1.26437 1.31605 0
M  V30 353 C 33.5692 1.66814 3.20711 0
M  V30 354 O 33.2902 3.06116 3.13408 0
M  V30 355 C 34.7912 1.56838 4.14628 0
M  V30 356 H 32.0112 0.374782 0.556578 0
M  V30 357 H 34.5552 1.61532 1.2541 0
M  V30 358 H 32.7102 1.16196 3.69564 0
M  V30 359 H 33.1242 3.34926 4.0364 0
M  V30 360 H 34.5982 2.03532 5.13107 0
M  V30 361 H 35.0752 0.524155 4.36061 0
M  V30 362 H 35.6812 2.06741 3.7167 0
M  V30 363 N 33.9963 -1.19345 1.0293 0
M  V30 364 C 34.9443 -2.24621 0.604001 0
M  V30 365 C 35.9383 -1.65452 -0.363587 0
M  V30 366 O 37.1443 -1.78497 -0.23212 0
M  V30 367 H 33.5193 -0.730858 0.177061 0
M  V30 368 H 35.4903 -2.5781 1.50255 0
M  V30 369 C 34.2393 -3.47688 -0.0289127 0
M  V30 370 H 33.5623 -3.93505 0.706651 0
M  V30 371 H 35.0023 -4.23011 -0.289432 0
M  V30 372 C 33.4613 -3.11817 -1.2756 0
M  V30 373 O 33.9913 -3.2451 -2.36762 0
M  V30 374 N 32.1973 -2.66246 -1.16453 0
M  V30 375 H 31.7443 -2.56118 -0.275914 0
M  V30 376 H 31.7023 -2.42617 -1.99961 0
M  V30 377 N 35.4744 -0.807222 -1.35358 0
M  V30 378 C 36.7214 -0.387888 -1.9875 0
M  V30 379 C 37.0494 1.04509 -1.64037 0
M  V30 380 O 36.3044 1.73986 -0.895946 0
M  V30 381 C 36.6034 -0.519036 -3.53611 0
M  V30 382 C 36.2694 -1.91542 -4.08194 0
M  V30 383 C 34.9314 -2.29745 -4.22813 0
M  V30 384 C 37.2834 -2.82896 -4.37744 0
M  V30 385 C 34.6114 -3.58668 -4.643 0
M  V30 386 C 36.9634 -4.11265 -4.8067 0
M  V30 387 C 35.6274 -4.49466 -4.93494 0
M  V30 388 H 34.8974 -0.141938 -0.727279 0
M  V30 389 H 37.5444 -1.02814 -1.6156 0
M  V30 390 H 35.8494 0.204658 -3.91265 0
M  V30 391 H 37.5464 -0.175345 -4.00616 0
M  V30 392 H 34.1364 -1.60862 -3.97268 0
M  V30 393 H 38.3204 -2.54629 -4.26002 0
M  V30 394 H 33.5764 -3.88113 -4.72418 0
M  V30 395 H 37.7504 -4.82153 -5.02496 0
M  V30 396 H 35.3774 -5.49418 -5.25399 0
M  V30 397 N 36.9525 1.47285 -0.560781 0
M  V30 398 C 38.3635 1.86258 -0.128343 0
M  V30 399 C 38.7145 1.46699 1.30284 0
M  V30 400 O 37.8395 0.871698 1.98067 0
M  V30 401 C 38.4345 3.38044 -0.22614 0
M  V30 402 C 36.9935 3.76096 0.151283 0
M  V30 403 C 36.1405 2.71335 -0.572084 0
M  V30 404 H 39.0915 1.38752 -0.770297 0
M  V30 405 H 39.1125 3.76441 0.554322 0
M  V30 406 H 38.6245 3.66806 -1.26788 0
M  V30 407 H 36.7255 3.52951 1.19399 0
M  V30 408 H 36.8385 4.78641 -0.209765 0
M  V30 409 H 35.2025 2.54696 -0.0147653 0
M  V30 410 H 35.9855 3.02938 -1.61504 0
M  V30 411 N 38.4306 0.297415 1.54768 0
M  V30 412 C 39.8416 -0.195947 1.85669 0
M  V30 413 C 40.1926 -1.53707 1.21937 0
M  V30 414 O 39.3176 -2.10164 0.515754 0
M  V30 415 C 39.9126 -0.362318 3.36857 0
M  V30 416 C 38.4716 -0.799901 3.67802 0
M  V30 417 C 37.6186 0.0938578 2.77141 0
M  V30 418 H 40.5696 0.518538 1.4999 0
M  V30 419 H 40.5906 -1.19745 3.61167 0
M  V30 420 H 40.1026 0.613921 3.83214 0
M  V30 421 H 38.2036 -1.78682 3.26961 0
M  V30 422 H 38.3166 -0.621773 4.75048 0
M  V30 423 H 36.6806 -0.426254 2.51108 0
M  V30 424 H 37.4636 1.06639 3.26318 0
M  V30 425 N 39.9087 -1.5758 0.0250728 0
M  V30 426 C 40.8187 -2.1343 -0.973905 0
M  V30 427 C 41.8347 -1.08556 -1.35984 0
M  V30 428 O 43.0107 -1.40592 -1.44207 0
M  V30 429 C 40.0757 -2.64703 -2.23904 0
M  V30 430 C 39.1367 -3.84276 -1.91391 0
M  V30 431 C 38.3697 -4.33095 -3.11873 0
M  V30 432 O 38.5927 -3.81107 -4.24398 0
M  V30 433 O 37.5267 -5.24984 -2.94406 0
M  V30 434 H 41.3527 -2.99057 -0.529036 0
M  V30 435 H 38.9377 -1.48118 -0.195288 0
M  V30 436 H 40.8197 -2.97769 -2.98181 0
M  V30 437 H 39.4947 -1.82161 -2.6758 0
M  V30 438 H 38.4017 -3.56143 -1.14511 0
M  V30 439 H 39.7347 -4.67968 -1.52534 0
M  V30 440 N 41.3868 0.248026 -1.55636 0
M  V30 441 C 42.6358 0.974134 -1.76617 0
M  V30 442 C 42.9488 1.86528 -0.588796 0
M  V30 443 O 44.1548 2.62805 -0.681594 0
M  V30 444 C 42.6108 1.78213 -3.12679 0
M  V30 445 C 42.2188 0.93843 -4.38061 0
M  V30 446 C 43.9628 2.50104 -3.42999 0
M  V30 447 C 41.8698 1.74225 -5.65155 0
M  V30 448 H 40.7998 0.36745 -0.658405 0
M  V30 449 H 43.4508 0.22884 -1.82067 0
M  V30 450 H 41.8328 2.56933 -3.01333 0
M  V30 451 H 43.0068 0.193635 -4.60393 0
M  V30 452 H 41.3218 0.332905 -4.15067 0
M  V30 453 H 43.9188 3.10694 -4.3517 0
M  V30 454 H 44.2618 3.21662 -2.64271 0
M  V30 455 H 44.7948 1.78395 -3.55556 0
M  V30 456 H 41.5338 1.07043 -6.46701 0
M  V30 457 H 41.0538 2.46235 -5.46926 0
M  V30 458 H 42.7328 2.30967 -6.0437 0
M  V30 459 N 42.8649 1.48995 0.513639 0
M  V30 460 C 44.0929 1.61531 1.29288 0
M  V30 461 C 44.5079 0.281801 1.86685 0
M  V30 462 O 43.8649 -0.731111 1.67215 0
M  V30 463 C 43.9159 2.67449 2.43215 0
M  V30 464 O 43.6369 3.95626 1.88179 0
M  V30 465 C 45.1379 2.90575 3.34785 0
M  V30 466 H 42.3579 0.544165 0.392588 0
M  V30 467 H 44.9019 1.9494 0.617956 0
M  V30 468 H 43.0569 2.36853 3.0656 0
M  V30 469 H 43.4709 4.53868 2.62876 0
M  V30 470 H 44.9449 3.68449 4.11035 0
M  V30 471 H 45.4219 2.00011 3.91015 0
M  V30 472 H 46.0279 3.22538 2.77218 0
M  V30 473 N 44.343 -0.763751 1.37857 0
M  V30 474 C 45.62 -1.51244 1.24035 0
M  V30 475 C 46 -2.10472 -0.162649 0
M  V30 476 O 45.348 -1.96206 -1.17112 0
M  V30 477 C 45.558 -2.58694 2.34261 0
M  V30 478 C 46.906 -3.25878 2.72193 0
M  V30 479 O 47.93 -2.68993 2.33497 0
M  V30 480 O 46.789 -4.2874 3.38887 0
M  V30 481 H 43.883 -0.670243 0.484462 0
M  V30 482 H 46.429 -0.800031 1.49658 0
M  V30 483 H 45.201 -2.13105 3.2818 0
M  V30 484 H 44.824 -3.37527 2.10146 0
M  V30 485 N 45.8211 -1.22559 -0.990812 0
M  V30 486 C 47.0671 -1.05297 -1.73322 0
M  V30 487 C 47.4001 0.410655 -1.89808 0
M  V30 488 O 46.6751 1.30439 -1.44277 0
M  V30 489 C 46.9581 -1.76713 -3.13759 0
M  V30 490 C 46.8111 -3.30684 -3.04907 0
M  V30 491 C 48.1301 -1.52121 -4.12974 0
M  V30 492 H 45.2491 -0.38392 -0.629106 0
M  V30 493 H 47.8911 -1.50926 -1.15418 0
M  V30 494 H 46.0411 -1.37924 -3.63193 0
M  V30 495 H 47.7131 -3.7893 -2.63077 0
M  V30 496 H 45.9561 -3.60253 -2.41661 0
M  V30 497 H 46.6271 -3.75833 -4.04294 0
M  V30 498 H 49.1031 -1.85819 -3.72304 0
M  V30 499 H 47.9791 -2.04582 -5.0935 0
M  V30 500 H 48.2401 -0.454257 -4.3976 0
M  V30 501 N 47.2992 1.18797 -1.03562 0
M  V30 502 C 48.2312 2.21731 -0.580337 0
M  V30 503 C 49.2442 1.59051 0.347349 0
M  V30 504 O 50.4332 1.77929 0.142669 0
M  V30 505 C 47.5332 3.38459 0.172805 0
M  V30 506 C 46.7062 4.3072 -0.761496 0
M  V30 507 C 45.7652 5.26174 -0.0525547 0
M  V30 508 O 44.7912 5.65108 -0.681333 0
M  V30 509 N 45.9932 5.67624 1.21586 0
M  V30 510 H 48.7582 2.61417 -1.46565 0
M  V30 511 H 46.3192 1.33531 -0.915476 0
M  V30 512 H 48.3112 3.99335 0.656793 0
M  V30 513 H 46.8812 2.97507 0.959602 0
M  V30 514 H 46.1012 3.67525 -1.42544 0
M  V30 515 H 47.3892 4.89267 -1.39626 0
M  V30 516 H 46.7872 5.38038 1.74732 0
M  V30 517 H 45.3442 6.30721 1.64421 0
M  V30 518 N 48.7773 0.814389 1.34928 0
M  V30 519 C 49.7403 0.235759 2.27984 0
M  V30 520 C 50.7403 -0.581412 1.49921 0
M  V30 521 O 51.9303 -0.398758 1.69575 0
M  V30 522 C 49.0623 -0.670433 3.34242 0
M  V30 523 H 50.2553 1.05659 2.80671 0
M  V30 524 H 47.8083 0.585614 1.44915 0
M  V30 525 H 48.5433 -1.51466 2.86755 0
M  V30 526 H 48.3283 -0.0860822 3.92005 0
M  V30 527 H 49.8183 -1.06935 4.03676 0
M  V30 528 N 50.2554 -1.46986 0.568584 0
M  V30 529 C 51.2184 -2.28624 -0.162366 0
M  V30 530 C 52.2184 -1.37596 -0.832103 0
M  V30 531 O 53.4084 -1.60115 -0.68622 0
M  V30 532 C 50.5404 -3.17596 -1.23878 0
M  V30 533 H 51.7334 -2.94722 0.554899 0
M  V30 534 H 49.2864 -1.52863 0.325976 0
M  V30 535 H 50.0214 -2.56214 -1.98808 0
M  V30 536 H 49.8064 -3.846 -0.763219 0
M  V30 537 H 51.2964 -3.79078 -1.75185 0
M  V30 538 N 51.7335 -0.305618 -1.54608 0
M  V30 539 C 52.9825 0.303098 -1.9941 0
M  V30 540 C 53.2955 1.54648 -1.19764 0
M  V30 541 O 54.5015 2.23007 -1.54855 0
M  V30 542 C 52.9575 0.590588 -3.55021 0
M  V30 543 C 52.5655 -0.634719 -4.43481 0
M  V30 544 C 54.3095 1.16025 -4.08336 0
M  V30 545 C 52.2165 -0.320126 -5.90533 0
M  V30 546 H 51.1465 0.117031 -0.744862 0
M  V30 547 H 53.7975 -0.415045 -1.78745 0
M  V30 548 H 52.1795 1.36845 -3.71604 0
M  V30 549 H 53.3535 -1.41079 -4.38672 0
M  V30 550 H 51.6685 -1.12333 -4.00962 0
M  V30 551 H 54.2655 1.40994 -5.15776 0
M  V30 552 H 54.6085 2.10397 -3.5922 0
M  V30 553 H 55.1415 0.443985 -3.95315 0
M  V30 554 H 51.8805 -1.23254 -6.43808 0
M  V30 555 H 51.4005 0.418579 -5.98338 0
M  V30 556 H 53.0795 0.0766241 -6.46955 0
M  V30 557 N 53.2116 1.57565 -0.0334293 0
M  V30 558 C 54.1746 2.09393 0.932048 0
M  V30 559 C 55.1746 1.00986 1.25134 0
M  V30 560 O 56.3646 1.27129 1.19096 0
M  V30 561 C 53.4966 2.56338 2.2473 0
M  V30 562 H 54.6896 2.95984 0.483085 0
M  V30 563 H 52.2426 1.54819 0.21468 0
M  V30 564 H 52.9776 1.7309 2.74245 0
M  V30 565 H 52.7626 3.35542 2.02865 0
M  V30 566 H 54.2526 2.96646 2.93923 0
M  V30 567 N 54.6897 -0.239769 1.55765 0
M  V30 568 C 55.6527 -1.28038 1.90103 0
M  V30 569 C 56.6527 -1.40723 0.778055 0
M  V30 570 O 57.8427 -1.39301 1.04599 0
M  V30 571 C 54.9747 -2.65702 2.13577 0
M  V30 572 H 56.1677 -0.988048 2.83157 0
M  V30 573 H 53.7207 -0.479382 1.48767 0
M  V30 574 H 54.4557 -3.00063 1.23015 0
M  V30 575 H 54.2407 -2.57875 2.95369 0
M  V30 576 H 55.7307 -3.40828 2.41301 0
M  V30 577 N 56.1678 -1.49265 -0.50573 0
M  V30 578 C 57.4168 -1.57761 -1.25675 0
M  V30 579 C 57.7298 -0.267371 -1.93764 0
M  V30 580 O 58.9358 -0.230827 -2.70517 0
M  V30 581 C 57.3918 -2.78332 -2.28165 0
M  V30 582 C 56.9998 -4.16096 -1.66037 0
M  V30 583 C 58.7438 -2.96155 -3.04125 0
M  V30 584 C 56.6508 -5.27895 -2.6661 0
M  V30 585 H 55.5808 -0.587391 -0.472745 0
M  V30 586 H 58.2318 -1.75644 -0.53118 0
M  V30 587 H 56.6138 -2.53934 -3.03865 0
M  V30 588 H 57.7878 -4.50612 -0.963622 0
M  V30 589 H 56.1028 -4.03591 -1.02484 0
M  V30 590 H 58.6998 -3.76849 -3.79327 0
M  V30 591 H 59.0428 -2.06534 -3.61455 0
M  V30 592 H 59.5758 -3.2057 -2.35541 0
M  V30 593 H 56.3148 -6.1956 -2.14068 0
M  V30 594 H 55.8348 -4.97839 -3.34539 0
M  V30 595 H 57.5138 -5.57031 -3.29129 0
M  V30 596 N 57.6459 0.756429 -1.3826 0
M  V30 597 C 58.8709 1.55077 -1.37717 0
M  V30 598 C 59.2959 1.88073 0.03164 0
M  V30 599 O 58.6539 1.50364 1.01293 0
M  V30 600 C 58.7019 2.8283 -2.23695 0
M  V30 601 O 57.8059 3.77862 -1.6521 0
M  V30 602 H 57.1469 0.469152 -0.469885 0
M  V30 603 H 59.6769 0.935019 -1.81985 0
M  V30 604 H 59.6869 3.31783 -2.37453 0
M  V30 605 H 58.3619 2.58144 -3.2609 0
M  V30 606 H 56.9389 3.36555 -1.60578 0
M  V30 607 N 59.124 1.23083 0.984299 0
M  V30 608 C 60.535 1.05609 1.5396 0
M  V30 609 C 60.886 -0.377793 1.92528 0
M  V30 610 O 60.011 -1.26398 1.75649 0
M  V30 611 C 60.606 1.91087 2.7977 0
M  V30 612 C 59.165 1.77885 3.31713 0
M  V30 613 C 58.312 1.87028 2.04733 0
M  V30 614 H 61.263 1.36802 0.804419 0
M  V30 615 H 61.284 1.43336 3.5247 0
M  V30 616 H 60.796 2.9544 2.51668 0
M  V30 617 H 58.897 0.762995 3.64704 0
M  V30 618 H 59.01 2.61047 4.01735 0
M  V30 619 H 57.374 1.30565 2.18689 0
M  V30 620 H 58.157 2.92929 1.79017 0
M  V30 621 N 60.6021 -1.18246 1.0419 0
M  V30 622 C 61.5651 -2.20128 0.638452 0
M  V30 623 C 62.5651 -1.57885 -0.304805 0
M  V30 624 O 63.7551 -1.73967 -0.0900369 0
M  V30 625 C 60.8871 -3.4084 -0.0637751 0
M  V30 626 H 62.0801 -2.57336 1.54007 0
M  V30 627 H 59.6331 -1.32152 0.834598 0
M  V30 628 H 60.3681 -3.09166 -0.979136 0
M  V30 629 H 60.1531 -3.8726 0.614198 0
M  V30 630 H 61.6431 -4.16274 -0.332512 0
M  V30 631 N 62.0802 -0.821533 -1.34494 0
M  V30 632 C 63.3282 -0.408139 -1.97936 0
M  V30 633 C 63.6492 1.03193 -1.65457 0
M  V30 634 O 62.9192 1.71622 -0.944595 0
M  V30 635 H 61.4992 -0.147928 -0.732206 0
M  V30 636 H 64.1612 -1.05067 -1.64155 0
M  V30 637 H 63.2572 -0.52601 -3.07635 0
M  V30 638 N 63.5583 1.46682 -0.576371 0
M  V30 639 C 64.8043 2.02712 -0.0596221 0
M  V30 640 C 65.1373 1.44765 1.29448 0
M  V30 641 O 64.4123 0.610355 1.84675 0
M  V30 642 C 64.6953 3.60098 0.0129503 0
M  V30 643 C 64.5483 4.28441 -1.3696 0
M  V30 644 C 65.8673 4.34224 0.71678 0
M  V30 645 H 62.9863 0.736637 -0.0231407 0
M  V30 646 H 65.6283 1.74898 -0.742351 0
M  V30 647 H 63.7783 3.83926 0.594378 0
M  V30 648 H 65.4503 4.15896 -1.9957 0
M  V30 649 H 63.6933 3.8805 -1.93907 0
M  V30 650 H 64.3643 5.3716 -1.27135 0
M  V30 651 H 66.8403 4.15503 0.222908 0
M  V30 652 H 65.7163 5.43936 0.73657 0
M  V30 653 H 65.9773 4.04823 1.77682 0
M  V30 654 N 65.0364 0.313813 1.54444 0
M  V30 655 C 65.9844 -0.572171 2.25453 0
M  V30 656 C 66.9784 -1.12657 1.2651 0
M  V30 657 O 68.1844 -1.07573 1.44319 0
M  V30 658 H 64.5594 -0.203146 0.724041 0
M  V30 659 H 66.5304 0.0491145 2.9836 0
M  V30 660 C 65.2794 -1.72626 3.0182 0
M  V30 661 H 64.6024 -1.30891 3.77767 0
M  V30 662 H 66.0424 -2.32199 3.54767 0
M  V30 663 C 64.5014 -2.63806 2.09542 0
M  V30 664 O 65.0314 -3.65256 1.67185 0
M  V30 665 N 63.2374 -2.31824 1.75232 0
M  V30 666 H 62.7844 -1.49368 2.09873 0
M  V30 667 H 62.7424 -2.93095 1.13767 0
M  V30 668 N 66.5145 -1.57545 0.0417849 0
M  V30 669 C 67.7625 -1.91937 -0.632829 0
M  V30 670 C 68.0835 -0.919978 -1.71934 0
M  V30 671 O 67.3535 0.0366064 -1.95866 0
M  V30 672 H 65.9335 -0.708493 -0.236742 0
M  V30 673 H 68.5955 -1.9468 0.0925745 0
M  V30 674 H 67.6915 -2.92912 -1.07746 0
M  V30 675 N 67.9926 0.231505 -1.5589 0
M  V30 676 C 69.2386 0.95877 -1.78705 0
M  V30 677 C 69.5716 1.8438 -0.609725 0
M  V30 678 O 68.8466 1.90521 0.391426 0
M  V30 679 C 69.1296 1.8062 -3.11526 0
M  V30 680 C 68.9826 0.948328 -4.39689 0
M  V30 681 C 70.3016 2.78585 -3.40703 0
M  V30 682 H 67.4206 0.347129 -0.650131 0
M  V30 683 H 70.0626 0.228259 -1.88624 0
M  V30 684 H 68.2126 2.42902 -3.03201 0
M  V30 685 H 69.8846 0.343016 -4.60023 0
M  V30 686 H 68.1276 0.253314 -4.3306 0
M  V30 687 H 68.7986 1.57543 -5.29041 0
M  V30 688 H 71.2746 2.26439 -3.49091 0
M  V30 689 H 70.1506 3.34988 -4.34826 0
M  V30 690 H 70.4116 3.55825 -2.62375 0
M  V30 691 N 69.4707 1.49531 0.497807 0
M  V30 692 C 70.8817 1.52344 1.07927 0
M  V30 693 C 71.2327 0.311469 1.93712 0
M  V30 694 O 70.3577 -0.578405 2.08527 0
M  V30 695 C 70.9527 2.76062 1.96405 0
M  V30 696 C 69.5117 2.81643 2.49709 0
M  V30 697 C 68.6587 2.46299 1.27404 0
M  V30 698 H 71.6097 1.56182 0.281576 0
M  V30 699 H 71.6307 2.56405 2.81135 0
M  V30 700 H 71.1427 3.64254 1.33943 0
M  V30 701 H 69.2437 1.97739 3.15801 0
M  V30 702 H 69.3567 3.83891 2.86643 0
M  V30 703 H 67.7207 1.98148 1.60029 0
M  V30 704 H 68.5037 3.36769 0.66645 0
M  V30 705 N 70.9488 -0.749086 1.3866 0
M  V30 706 C 72.2258 -1.4992 1.25632 0
M  V30 707 C 72.6058 -2.10633 -0.140317 0
M  V30 708 O 71.9538 -1.97437 -1.15025 0
M  V30 709 C 72.1638 -2.56195 2.36992 0
M  V30 710 C 73.5118 -3.22972 2.75634 0
M  V30 711 O 74.5358 -2.66502 2.36337 0
M  V30 712 O 73.3948 -4.25122 3.43415 0
M  V30 713 H 70.4888 -0.665067 0.491544 0
M  V30 714 H 73.0348 -0.784113 1.50498 0
M  V30 715 H 71.8068 -2.09612 3.30422 0
M  V30 716 H 71.4298 -3.35279 2.13714 0
M  V30 717 N 72.4269 -1.23603 -0.977757 0
M  V30 718 C 73.3899 -1.02069 -2.05218 0
M  V30 719 C 74.3899 0.0184305 -1.60789 0
M  V30 720 O 75.5799 -0.221569 -1.72785 0
M  V30 721 C 72.7119 -0.544926 -3.36517 0
M  V30 722 H 73.9049 -1.9742 -2.25755 0
M  V30 723 H 71.4579 -1.05684 -1.15155 0
M  V30 724 H 72.1929 0.412241 -3.21669 0
M  V30 725 H 71.9779 -1.2948 -3.70105 0
M  V30 726 H 73.4679 -0.414985 -4.15533 0
M  V30 727 N 73.905 1.17692 -1.04816 0
M  V30 728 C 75.13 1.92327 -0.776207 0
M  V30 729 C 75.555 1.76082 0.661581 0
M  V30 730 O 74.913 1.076 1.45917 0
M  V30 731 C 74.961 3.41539 -1.15687 0
M  V30 732 O 74.065 4.11402 -0.286775 0
M  V30 733 H 73.406 0.599735 -0.284981 0
M  V30 734 H 75.936 1.49201 -1.4 0
M  V30 735 H 75.946 3.92269 -1.12202 0
M  V30 736 H 74.621 3.52684 -2.20425 0
M  V30 737 H 73.198 3.70939 -0.381903 0
M  V30 738 N 75.3831 0.828654 1.34056 0
M  V30 739 C 76.6081 0.431637 2.02859 0
M  V30 740 C 77.0331 -0.956339 1.61975 0
M  V30 741 O 76.3911 -1.62338 0.807228 0
M  V30 742 C 76.4391 0.548323 3.56407 0
M  V30 743 O 75.5431 -0.429556 4.10157 0
M  V30 744 H 74.8841 0.176886 0.640006 0
M  V30 745 H 77.4141 1.12066 1.71179 0
M  V30 746 H 77.4241 0.426196 4.05768 0
M  V30 747 H 76.0991 1.5606 3.8551 0
M  V30 748 H 74.6761 -0.265836 3.71951 0
M  V30 749 N 76.8612 -1.46375 0.584142 0
M  V30 750 C 78.0892 -2.06761 0.0759296 0
M  V30 751 C 78.5042 -1.43266 -1.22965 0
M  V30 752 O 77.8612 -0.538458 -1.74376 0
M  V30 753 C 77.9122 -3.61375 -0.0950384 0
M  V30 754 O 77.6332 -4.22495 1.15887 0
M  V30 755 C 79.1342 -4.38693 -0.637434 0
M  V30 756 H 76.3542 -0.668479 0.0581075 0
M  V30 757 H 78.8982 -1.8798 0.805218 0
M  V30 758 H 77.0532 -3.79578 -0.774554 0
M  V30 759 H 77.4672 -5.15385 0.973598 0
M  V30 760 H 78.9412 -5.47464 -0.706237 0
M  V30 761 H 79.4182 -4.06836 -1.65472 0
M  V30 762 H 80.0242 -4.25299 0.00725967 0
M  V30 763 N 78.3393 -0.321999 -1.54275 0
M  V30 764 C 79.5673 0.283052 -2.04955 0
M  V30 765 C 79.9823 1.45904 -1.19823 0
M  V30 766 O 79.3393 1.81063 -0.228545 0
M  V30 767 C 79.3903 0.719028 -3.54277 0
M  V30 768 O 79.1113 -0.410175 -4.36176 0
M  V30 769 C 80.6123 1.38705 -4.21041 0
M  V30 770 H 77.8323 0.0584616 -0.668448 0
M  V30 771 H 80.3763 -0.467734 -1.99079 0
M  V30 772 H 78.5313 1.41979 -3.60445 0
M  V30 773 H 78.9453 -0.0669416 -5.24457 0
M  V30 774 H 80.4193 1.64306 -5.2698 0
M  V30 775 H 80.8963 2.33385 -3.72059 0
M  V30 776 H 81.5023 0.728906 -4.19007 0
M  V30 777 N 79.8174 1.5752 -0.0501392 0
M  V30 778 C 80.7644 2.1147 0.924603 0
M  V30 779 C 81.7344 1.02182 1.30951 0
M  V30 780 O 82.9194 1.29723 1.39916 0
M  V30 781 C 80.0594 2.66337 2.19451 0
M  V30 782 C 79.1724 3.89708 1.86418 0
M  V30 783 C 78.3074 4.32893 3.07859 0
M  V30 784 C 77.3464 5.48967 2.70742 0
M  V30 785 N 76.4834 5.87211 3.84874 0
M  V30 786 H 81.3234 2.94465 0.457639 0
M  V30 787 H 78.8604 1.45531 0.214266 0
M  V30 788 H 80.8184 2.96247 2.93758 0
M  V30 789 H 79.4484 1.86141 2.63726 0
M  V30 790 H 78.5004 3.66396 1.02264 0
M  V30 791 H 79.8124 4.74074 1.55096 0
M  V30 792 H 78.9664 4.6435 3.90466 0
M  V30 793 H 77.7054 3.47336 3.42358 0
M  V30 794 H 76.7104 5.17183 1.86551 0
M  V30 795 H 77.9354 6.3624 2.37436 0
M  V30 796 H 75.8814 5.04607 4.19175 0
M  V30 797 H 75.7984 6.66266 3.57247 0
M  V30 798 H 77.0664 6.23282 4.68123 0
M  V30 799 N 81.2955 -0.223234 1.56011 0
M  V30 800 C 82.5435 -0.946003 1.78592 0
M  V30 801 C 82.8645 -1.84936 0.618349 0
M  V30 802 O 82.1345 -1.92473 -0.364833 0
M  V30 803 H 80.7145 -0.352298 0.658707 0
M  V30 804 H 83.3765 -0.235494 1.93472 0
M  V30 805 H 82.4725 -1.55381 2.70672 0
M  V30 806 N 82.7736 -1.49793 -0.48987 0
M  V30 807 C 84.0226 -1.59085 -1.23995 0
M  V30 808 C 84.3356 -0.287907 -1.9347 0
M  V30 809 O 85.5416 -0.259506 -2.70257 0
M  V30 810 C 83.9976 -2.80736 -2.252 0
M  V30 811 C 83.6056 -4.17833 -1.61614 0
M  V30 812 C 85.3496 -2.99364 -3.00967 0
M  V30 813 C 83.2566 -5.30693 -2.60996 0
M  V30 814 H 82.1866 -0.592372 -0.466488 0
M  V30 815 H 84.8376 -1.76197 -0.51252 0
M  V30 816 H 83.2196 -2.57142 -3.01154 0
M  V30 817 H 84.3936 -4.51608 -0.915774 0
M  V30 818 H 82.7086 -4.04656 -0.981977 0
M  V30 819 H 85.3056 -3.80851 -3.75308 0
M  V30 820 H 85.6486 -2.10356 -3.59244 0
M  V30 821 H 86.1816 -3.2305 -2.32128 0
M  V30 822 H 82.9206 -6.21796 -2.07485 0
M  V30 823 H 82.4406 -5.01359 -3.2924 0
M  V30 824 H 84.1196 -5.6049 -3.23202 0
M  V30 825 N 84.2517 0.741722 -1.39055 0
M  V30 826 C 85.1817 1.869 -1.39966 0
M  V30 827 C 86.1627 1.6804 -0.26392 0
M  V30 828 O 87.3477 1.88458 -0.468755 0
M  V30 829 C 84.4777 3.24572 -1.23574 0
M  V30 830 C 83.4317 3.58056 -2.34477 0
M  V30 831 C 82.7577 4.94593 -2.0318 0
M  V30 832 C 84.0577 3.61716 -3.76774 0
M  V30 833 H 85.7517 1.86395 -2.34302 0
M  V30 834 H 83.2977 0.895361 -1.1278 0
M  V30 835 H 85.2507 4.031 -1.22834 0
M  V30 836 H 83.9747 3.25587 -0.257045 0
M  V30 837 H 82.6337 2.81854 -2.34423 0
M  V30 838 H 82.2817 4.92181 -1.03765 0
M  V30 839 H 81.9817 5.17964 -2.77465 0
M  V30 840 H 83.5057 5.75486 -2.04079 0
M  V30 841 H 84.9197 4.30335 -3.78794 0
M  V30 842 H 83.3167 3.96603 -4.50362 0
M  V30 843 H 84.3867 2.61672 -4.08235 0
M  V30 844 N 85.7298 1.2412 0.971189 0
M  V30 845 C 86.9768 1.07881 1.71371 0
M  V30 846 C 87.3048 -0.382901 1.90694 0
M  V30 847 O 86.5598 -1.29945 1.46331 0
M  V30 848 C 86.8588 1.75983 3.11071 0
M  V30 849 C 86.5248 3.25909 3.11599 0
M  V30 850 C 85.1868 3.66813 3.11451 0
M  V30 851 C 87.5388 4.21771 3.062 0
M  V30 852 C 84.8668 5.02021 3.03631 0
M  V30 853 C 87.2188 5.56982 2.99923 0
M  V30 854 C 85.8828 5.97237 2.98102 0
M  V30 855 H 85.1528 0.394764 0.62709 0
M  V30 856 H 87.7998 1.54176 1.13587 0
M  V30 857 H 86.1048 1.22072 3.72298 0
M  V30 858 H 87.8018 1.60887 3.6731 0
M  V30 859 H 84.3918 2.93353 3.12477 0
M  V30 860 H 88.5758 3.91172 3.05447 0
M  V30 861 H 83.8318 5.32411 3.0058 0
M  V30 862 H 88.0058 6.30969 2.94704 0
M  V30 863 H 85.6328 7.01967 2.91798 0
M  V30 864 N 87.2079 -1.17134 1.05439 0
M  V30 865 C 88.4569 -1.86791 0.761049 0
M  V30 866 C 88.7699 -1.82072 -0.714795 0
M  V30 867 O 89.9759 -2.47223 -1.12218 0
M  V30 868 C 88.4319 -3.35166 1.31117 0
M  V30 869 C 88.0399 -3.48381 2.81664 0
M  V30 870 C 89.7839 -4.10134 1.09499 0
M  V30 871 C 87.6909 -4.90793 3.29964 0
M  V30 872 H 86.6209 -0.699681 0.281002 0
M  V30 873 H 89.2719 -1.3226 1.27199 0
M  V30 874 H 87.6539 -3.8925 0.72803 0
M  V30 875 H 88.8279 -3.04502 3.45855 0
M  V30 876 H 87.1429 -2.86836 3.01851 0
M  V30 877 H 89.7399 -5.152 1.43084 0
M  V30 878 H 90.0829 -4.16287 0.0328772 0
M  V30 879 H 90.6159 -3.62264 1.64346 0
M  V30 880 H 87.3549 -4.89816 4.35616 0
M  V30 881 H 86.8749 -5.35333 2.70516 0
M  V30 882 H 88.5539 -5.59573 3.24787 0
M  V30 883 N 88.686 -0.835752 -1.33615 0
M  V30 884 C 90.097 -0.487099 -1.80234 0
M  V30 885 C 90.448 0.993627 -1.69179 0
M  V30 886 O 89.573 1.77403 -1.23924 0
M  V30 887 C 90.168 -0.877385 -3.27242 0
M  V30 888 C 88.727 -0.580915 -3.7189 0
M  V30 889 C 87.874 -1.0874 -2.5509 0
M  V30 890 H 90.825 -1.02474 -1.2118 0
M  V30 891 H 90.846 -0.186195 -3.80044 0
M  V30 892 H 90.358 -1.95512 -3.35256 0
M  V30 893 H 88.459 0.486881 -3.69405 0
M  V30 894 H 88.572 -1.13396 -4.65487 0
M  V30 895 H 86.936 -0.508392 -2.49575 0
M  V30 896 H 87.719 -2.17184 -2.65868 0
M  V30 897 N 90.1641 1.46063 -0.591896 0
M  V30 898 C 91.3921 2.06717 -0.0868936 0
M  V30 899 C 91.8071 1.43916 1.22203 0
M  V30 900 O 91.1641 0.547698 1.74088 0
M  V30 901 C 91.2151 3.6142 0.0758725 0
M  V30 902 O 90.9361 4.21874 -1.18126 0
M  V30 903 C 92.4371 4.39025 0.61416 0
M  V30 904 H 89.6571 0.668162 -0.0616518 0
M  V30 905 H 92.2011 1.8755 -0.815175 0
M  V30 906 H 90.3561 3.79983 0.754413 0
M  V30 907 H 90.7701 5.14861 -1.00092 0
M  V30 908 H 92.2441 5.4783 0.677193 0
M  V30 909 H 92.7211 4.07708 1.63312 0
M  V30 910 H 93.3271 4.2529 -0.0298142 0
M  V30 911 N 91.6422 0.330177 1.54103 0
M  V30 912 C 92.5522 -0.541534 2.28264 0
M  V30 913 C 93.5682 -1.12351 1.32866 0
M  V30 914 O 94.7442 -1.14206 1.65888 0
M  V30 915 C 91.8092 -1.68322 3.03098 0
M  V30 916 C 90.8702 -1.13238 4.14096 0
M  V30 917 C 90.1032 -2.21966 4.85352 0
M  V30 918 O 90.3262 -3.42437 4.56172 0
M  V30 919 O 89.2602 -1.87013 5.7211 0
M  V30 920 H 93.0862 0.060938 3.03639 0
M  V30 921 H 90.6712 0.09565 1.49093 0
M  V30 922 H 92.5532 -2.34777 3.49939 0
M  V30 923 H 91.2282 -2.27176 2.30593 0
M  V30 924 H 90.1352 -0.432736 3.71589 0
M  V30 925 H 91.4682 -0.588898 4.88664 0
M  V30 926 N 93.1203 -1.57491 0.0584922 0
M  V30 927 C 94.0523 -2.08916 -0.942694 0
M  V30 928 C 95.0653 -1.0185 -1.27006 0
M  V30 929 O 96.2543 -1.29398 -1.22957 0
M  V30 930 C 93.3543 -2.52341 -2.26224 0
M  V30 931 C 92.5273 -3.82827 -2.1157 0
M  V30 932 C 91.5863 -4.12487 -3.26712 0
M  V30 933 O 90.6123 -4.82295 -3.02292 0
M  V30 934 N 91.8143 -3.64978 -4.5141 0
M  V30 935 H 94.5793 -2.95437 -0.503722 0
M  V30 936 H 92.1403 -1.61397 -0.12757 0
M  V30 937 H 94.1323 -2.69254 -3.02133 0
M  V30 938 H 92.7023 -1.7103 -2.61663 0
M  V30 939 H 91.9223 -3.75425 -1.20208 0
M  V30 940 H 93.2103 -4.68263 -1.99015 0
M  V30 941 H 92.6083 -3.08558 -4.7414 0
M  V30 942 H 91.1653 -3.87115 -5.2439 0
M  V30 943 N 94.5984 0.214957 -1.56127 0
M  V30 944 C 95.5084 1.28727 -1.96129 0
M  V30 945 C 96.5244 1.50916 -0.866044 0
M  V30 946 O 97.7004 1.63918 -1.17016 0
M  V30 947 C 94.7654 2.61569 -2.27558 0
M  V30 948 C 93.8264 2.47625 -3.50685 0
M  V30 949 C 93.0594 3.74132 -3.80606 0
M  V30 950 O 93.2824 4.77438 -3.12104 0
M  V30 951 O 92.2164 3.70849 -4.74083 0
M  V30 952 H 96.0424 0.977855 -2.87527 0
M  V30 953 H 93.6274 0.418358 -1.43423 0
M  V30 954 H 95.5094 3.40012 -2.48938 0
M  V30 955 H 94.1844 2.92178 -1.39332 0
M  V30 956 H 93.0914 1.67361 -3.34576 0
M  V30 957 H 94.4244 2.21954 -4.39315 0
M  V30 958 N 96.0765 1.50051 0.48192 0
M  V30 959 C 97.3225 1.60736 1.2366 0
M  V30 960 C 97.6555 0.301786 1.91841 0
M  V30 961 O 96.9305 -0.696025 1.8162 0
M  V30 962 C 97.2135 2.78009 2.28874 0
M  V30 963 C 97.0665 4.18416 1.65069 0
M  V30 964 C 98.3855 2.90867 3.30279 0
M  V30 965 H 95.5045 0.585031 0.448228 0
M  V30 966 H 98.1465 1.82402 0.531946 0
M  V30 967 H 96.2965 2.59667 2.88973 0
M  V30 968 H 97.9685 4.48322 1.0865 0
M  V30 969 H 96.2115 4.23177 0.954148 0
M  V30 970 H 96.8825 4.96381 2.41474 0
M  V30 971 H 99.3585 3.07623 2.80191 0
M  V30 972 H 98.2345 3.74566 4.01238 0
M  V30 973 H 98.4955 2.01021 3.93755 0
M  V30 974 N 97.5546 -0.734337 1.39446 0
M  V30 975 C 98.8036 -1.48937 1.36017 0
M  V30 976 C 99.1166 -1.95557 -0.0409005 0
M  V30 977 O 100.323 -2.70779 -0.19778 0
M  V30 978 C 98.7786 -2.69125 2.38955 0
M  V30 979 C 98.3866 -2.29452 3.8478 0
M  V30 980 C 100.131 -3.46944 2.44603 0
M  V30 981 C 98.0376 -3.46366 4.79358 0
M  V30 982 H 96.9676 -0.559296 0.505672 0
M  V30 983 H 99.6186 -0.800983 1.65095 0
M  V30 984 H 98.0006 -3.40041 2.02948 0
M  V30 985 H 99.1746 -1.66077 4.29831 0
M  V30 986 H 97.4896 -1.64723 3.82433 0
M  V30 987 H 100.087 -4.33907 3.12456 0
M  V30 988 H 100.43 -3.89454 1.47076 0
M  V30 989 H 100.963 -2.83056 2.79507 0
M  V30 990 H 97.7016 -3.08905 5.78151 0
M  V30 991 H 97.2216 -4.08719 4.38986 0
M  V30 992 H 98.9006 -4.12691 4.98292 0
M  V30 993 N 99.0327 -1.24633 -0.964593 0
M  V30 994 C 100.31 -0.995809 -1.68354 0
M  V30 995 C 100.69 0.480964 -2.05548 0
M  V30 996 O 100.038 1.45599 -1.76105 0
M  V30 997 C 100.248 -1.92177 -2.91323 0
M  V30 998 C 101.596 -2.19446 -3.63495 0
M  V30 999 O 102.62 -1.89855 -3.01386 0
M  V30 1000 O 101.479 -2.69714 -4.75307 0
M  V30 1001 H 98.5727 -0.376854 -0.736146 0
M  V30 1002 H 101.119 -1.35745 -1.0184 0
M  V30 1003 H 99.8907 -2.91938 -2.60553 0
M  V30 1004 H 99.5137 -1.56349 -3.65569 0
M  V30 1005 N 100.511 1.16574 -1.06058 0
M  V30 1006 C 101.759 1.86677 -0.77434 0
M  V30 1007 C 102.08 1.81959 0.701147 0
M  V30 1008 O 101.35 1.2515 1.50713 0
M  V30 1009 H 99.9298 0.691134 -0.283449 0
M  V30 1010 H 102.592 1.41378 -1.34158 0
M  V30 1011 H 101.688 2.92181 -1.09711 0
M  V30 1012 N 101.989 0.842826 1.3317 0
M  V30 1013 C 103.217 0.454055 2.01856 0
M  V30 1014 C 103.632 -0.94587 1.63397 0
M  V30 1015 O 102.989 -1.61534 0.849302 0
M  V30 1016 C 103.04 0.569715 3.56982 0
M  V30 1017 O 102.761 1.91448 3.94055 0
M  V30 1018 C 104.262 0.178412 4.42941 0
M  V30 1019 H 101.482 0.17979 0.646465 0
M  V30 1020 H 104.026 1.1365 1.70012 0
M  V30 1021 H 102.181 -0.0648587 3.87346 0
M  V30 1022 H 102.595 1.90282 4.88767 0
M  V30 1023 H 104.069 0.310376 5.51127 0
M  V30 1024 H 104.546 -0.880056 4.30293 0
M  V30 1025 H 105.152 0.787579 4.17944 0
M  V30 1026 N 103.467 -1.45747 0.599634 0
M  V30 1027 C 104.415 -2.322 -0.136426 0
M  V30 1028 C 105.409 -1.45497 -0.867583 0
M  V30 1029 O 106.615 -1.62027 -0.78405 0
M  V30 1030 H 102.99 -0.749368 -0.0628588 0
M  V30 1031 H 104.961 -2.92072 0.611281 0
M  V30 1032 C 103.71 -3.28974 -1.12567 0
M  V30 1033 H 103.033 -3.9568 -0.572484 0
M  V30 1034 H 104.473 -3.92212 -1.61077 0
M  V30 1035 C 102.932 -2.55561 -2.19523 0
M  V30 1036 O 103.462 -2.33111 -3.27143 0
M  V30 1037 N 101.668 -2.15832 -1.94589 0
M  V30 1038 H 101.215 -2.3429 -1.07078 0
M  V30 1039 H 101.173 -1.67034 -2.66359 0
M  V30 1040 N 104.945 -0.338344 -1.53925 0
M  V30 1041 C 105.893 0.536231 -2.26335 0
M  V30 1042 C 106.887 1.1063 -1.28286 0
M  V30 1043 O 108.093 1.05264 -1.46012 0
M  V30 1044 H 104.468 0.191602 -0.727181 0
M  V30 1045 H 106.439 -0.0965747 -2.98244 0
M  V30 1046 C 105.188 1.67803 -3.04528 0
M  V30 1047 H 104.511 1.24864 -3.79801 0
M  V30 1048 H 105.951 2.26526 -3.58416 0
M  V30 1049 C 104.41 2.60439 -2.13712 0
M  V30 1050 O 104.94 3.6255 -1.72975 0
M  V30 1051 N 103.146 2.29006 -1.78898 0
M  V30 1052 H 102.693 1.46011 -2.12223 0
M  V30 1053 H 102.651 2.91248 -1.18416 0
M  V30 1054 N 106.423 1.57458 -0.0668435 0
M  V30 1055 C 107.651 1.97624 0.612565 0
M  V30 1056 C 108.066 0.94502 1.63447 0
M  V30 1057 O 107.423 -0.0689276 1.8237 0
M  V30 1058 C 107.474 3.37869 1.28555 0
M  V30 1059 O 107.195 4.3704 0.304557 0
M  V30 1060 C 108.696 3.92882 2.05325 0
M  V30 1061 H 105.916 0.650045 0.166381 0
M  V30 1062 H 108.46 2.04035 -0.137782 0
M  V30 1063 H 106.615 3.3256 1.98702 0
M  V30 1064 H 107.029 5.18565 0.786779 0
M  V30 1065 H 108.503 4.93247 2.47812 0
M  V30 1066 H 108.98 3.29156 2.9078 0
M  V30 1067 H 109.586 4.01577 1.40056 0
M  V30 1068 N 107.901 -0.206675 1.56239 0
M  V30 1069 C 108.848 -1.25617 1.93621 0
M  V30 1070 C 109.818 -1.45824 0.795274 0
M  V30 1071 O 111.003 -1.59148 1.05245 0
M  V30 1072 C 108.143 -2.59839 2.27107 0
M  V30 1073 C 107.256 -2.47308 3.54207 0
M  V30 1074 C 106.391 -3.74155 3.7707 0
M  V30 1075 C 105.43 -3.56407 4.97635 0
M  V30 1076 N 104.567 -4.75238 5.1681 0
M  V30 1077 H 109.407 -0.930383 2.83104 0
M  V30 1078 H 106.944 -0.448065 1.4011 0
M  V30 1079 H 108.902 -3.38021 2.44535 0
M  V30 1080 H 107.532 -2.90485 1.40778 0
M  V30 1081 H 106.584 -1.60483 3.4489 0
M  V30 1082 H 107.896 -2.30122 4.42544 0
M  V30 1083 H 107.05 -4.60778 3.94675 0
M  V30 1084 H 105.789 -3.94282 2.87042 0
M  V30 1085 H 104.794 -2.68168 4.79964 0
M  V30 1086 H 106.019 -3.37736 5.89161 0
M  V30 1087 H 103.965 -4.95651 4.29728 0
M  V30 1088 H 103.882 -4.60835 5.99306 0
M  V30 1089 H 105.15 -5.63246 5.38864 0
M  V30 1090 N 109.379 -1.50304 -0.473955 0
M  V30 1091 C 110.342 -1.6841 -1.55469 0
M  V30 1092 C 111.342 -0.554905 -1.50922 0
M  V30 1093 O 112.532 -0.821882 -1.53593 0
M  V30 1094 C 109.664 -1.70667 -2.95102 0
M  V30 1095 H 110.857 -2.64828 -1.40733 0
M  V30 1096 H 108.41 -1.39742 -0.700132 0
M  V30 1097 H 109.145 -0.75932 -3.15285 0
M  V30 1098 H 108.93 -2.52698 -2.9981 0
M  V30 1099 H 110.42 -1.8664 -3.73571 0
M  V30 1100 N 110.857 0.726932 -1.39834 0
M  V30 1101 C 112.103 1.48884 -1.377 0
M  V30 1102 C 112.436 1.94185 0.0244852 0
M  V30 1103 O 111.711 1.67361 0.990986 0
M  V30 1104 C 111.994 2.72288 -2.3565 0
M  V30 1105 C 111.847 2.32956 -3.84775 0
M  V30 1106 C 113.166 3.74414 -2.31306 0
M  V30 1107 H 110.285 0.540062 -0.5015 0
M  V30 1108 H 112.927 0.830547 -1.70886 0
M  V30 1109 H 111.077 3.28457 -2.07481 0
M  V30 1110 H 112.749 1.82356 -4.23726 0
M  V30 1111 H 110.992 1.65088 -4.01159 0
M  V30 1112 H 111.663 3.21362 -4.4881 0
M  V30 1113 H 114.139 3.27849 -2.56231 0
M  V30 1114 H 113.015 4.58414 -3.01907 0
M  V30 1115 H 113.276 4.21909 -1.32081 0
M  V30 1116 N 112.336 1.25143 0.95797 0
M  V30 1117 C 113.564 1.12424 1.73691 0
M  V30 1118 C 113.979 -0.322304 1.86029 0
M  V30 1119 O 113.336 -1.22186 1.35561 0
M  V30 1120 C 113.387 1.76933 3.15241 0
M  V30 1121 O 113.108 3.15932 3.03511 0
M  V30 1122 C 114.609 1.6995 4.09429 0
M  V30 1123 H 111.829 0.3923 0.544373 0
M  V30 1124 H 114.373 1.6544 1.20207 0
M  V30 1125 H 112.528 1.27895 3.6568 0
M  V30 1126 H 112.942 3.47598 3.9278 0
M  V30 1127 H 114.416 2.19753 5.06372 0
M  V30 1128 H 114.893 0.662619 4.34173 0
M  V30 1129 H 115.499 2.18461 3.64904 0
M  V30 1130 N 113.814 -1.1601 1.06675 0
M  V30 1131 C 115.225 -1.68235 0.809565 0
M  V30 1132 C 115.576 -1.8454 -0.666303 0
M  V30 1133 O 114.701 -1.54374 -1.5165 0
M  V30 1134 C 115.296 -3.05585 1.46299 0
M  V30 1135 C 113.855 -3.54915 1.25349 0
M  V30 1136 C 113.002 -2.30804 1.53703 0
M  V30 1137 H 115.953 -1.00318 1.22971 0
M  V30 1138 H 115.974 -3.70174 0.880431 0
M  V30 1139 H 115.486 -2.93686 2.53713 0
M  V30 1140 H 113.587 -3.72067 0.199261 0
M  V30 1141 H 113.7 -4.36774 1.9689 0
M  V30 1142 H 112.064 -2.36007 0.957739 0
M  V30 1143 H 112.847 -2.21499 2.62284 0
M  V30 1144 N 115.292 -0.849877 -1.32721 0
M  V30 1145 C 116.255 -0.296122 -2.27279 0
M  V30 1146 C 117.255 0.541458 -1.5141 0
M  V30 1147 O 118.445 0.353658 -1.70572 0
M  V30 1148 C 115.577 0.581579 -3.35902 0
M  V30 1149 H 116.77 -1.13064 -2.77771 0
M  V30 1150 H 114.323 -0.62383 -1.43311 0
M  V30 1151 H 115.058 1.43809 -2.9067 0
M  V30 1152 H 114.843 -0.0178814 -3.92096 0
M  V30 1153 H 116.333 0.961951 -4.0637 0
M  V30 1154 N 116.77 1.45427 -0.607355 0
M  V30 1155 C 117.998 2.06614 -0.108814 0
M  V30 1156 C 118.413 1.45204 1.2067 0
M  V30 1157 O 117.77 0.566132 1.73497 0
M  V30 1158 C 117.821 3.61481 0.0375347 0
M  V30 1159 O 117.542 4.20598 -1.22593 0
M  V30 1160 C 119.043 4.39652 0.567561 0
M  V30 1161 H 116.263 0.66747 -0.0687351 0
M  V30 1162 H 118.807 1.86675 -0.835022 0
M  V30 1163 H 116.962 3.80762 0.714068 0
M  V30 1164 H 117.376 5.1377 -1.05547 0
M  V30 1165 H 118.85 5.48518 0.61905 0
M  V30 1166 H 119.327 4.09417 1.58978 0
M  V30 1167 H 119.933 4.25234 -0.0749202 0
M  V30 1168 N 118.248 0.346503 1.53744 0
M  V30 1169 C 119.178 -0.501193 2.28058 0
M  V30 1170 C 120.159 -1.10014 1.29734 0
M  V30 1171 O 121.344 -1.12097 1.58581 0
M  V30 1172 C 118.474 -1.65078 3.05559 0
M  V30 1173 C 117.428 -1.18003 4.11411 0
M  V30 1174 C 116.754 -2.41837 4.76884 0
M  V30 1175 C 118.054 -0.278394 5.21558 0
M  V30 1176 H 119.748 0.11875 2.99164 0
M  V30 1177 H 117.294 0.0585531 1.43881 0
M  V30 1178 H 119.247 -2.25028 3.56287 0
M  V30 1179 H 117.971 -2.29767 2.32109 0
M  V30 1180 H 116.63 -0.603331 3.61601 0
M  V30 1181 H 116.278 -3.0494 4.00026 0
M  V30 1182 H 115.978 -2.1102 5.48402 0
M  V30 1183 H 117.502 -3.02508 5.30397 0
M  V30 1184 H 118.916 -0.784823 5.67903 0
M  V30 1185 H 117.313 -0.0619707 6.00068 0
M  V30 1186 H 118.383 0.684677 4.80042 0
M  V30 1187 N 119.726 -1.57421 0.075193 0
M  V30 1188 C 120.689 -2.11791 -0.876203 0
M  V30 1189 C 121.689 -1.04268 -1.22412 0
M  V30 1190 O 122.879 -1.30242 -1.15684 0
M  V30 1191 C 120.011 -2.62207 -2.17854 0
M  V30 1192 H 121.204 -2.9716 -0.40444 0
M  V30 1193 H 118.757 -1.55333 -0.173557 0
M  V30 1194 H 119.492 -1.803 -2.6956 0
M  V30 1195 H 119.277 -3.40802 -1.93897 0
M  V30 1196 H 120.767 -3.04335 -2.85955 0
M  V30 1197 N 121.204 0.198386 -1.56346 0
M  V30 1198 C 122.432 0.935572 -1.84539 0
M  V30 1199 C 122.847 1.76989 -0.657281 0
M  V30 1200 O 122.204 1.78626 0.374043 0
M  V30 1201 C 122.255 1.8344 -3.11499 0
M  V30 1202 O 121.976 1.03377 -4.25728 0
M  V30 1203 C 123.477 2.68355 -3.52846 0
M  V30 1204 H 120.697 0.273126 -0.612897 0
M  V30 1205 H 123.241 0.20663 -2.03453 0
M  V30 1206 H 121.396 2.51701 -2.94492 0
M  V30 1207 H 121.81 1.64599 -4.98003 0
M  V30 1208 H 123.284 3.27085 -4.44657 0
M  V30 1209 H 123.761 3.41901 -2.75681 0
M  V30 1210 H 124.367 2.05471 -3.72373 0
M  V30 1211 N 122.682 1.50554 0.465978 0
M  V30 1212 C 124.098 1.38093 0.800154 0
M  V30 1213 C 124.298 0.440988 1.96615 0
M  V30 1214 O 123.354 -0.114499 2.5224 0
M  V30 1215 C 124.667 2.79565 1.10742 0
M  V30 1216 C 126.215 2.88516 1.21357 0
M  V30 1217 C 126.69 4.30833 1.55393 0
M  V30 1218 N 128.181 4.33807 1.62375 0
M  V30 1219 C 128.916 5.40927 1.90225 0
M  V30 1220 N 128.412 6.58247 2.16062 0
M  V30 1221 N 130.205 5.28376 1.9177 0
M  V30 1222 H 122.356 2.10237 -0.302366 0
M  V30 1223 H 124.619 0.945203 -0.0727746 0
M  V30 1224 H 124.325 3.50208 0.323661 0
M  V30 1225 H 124.199 3.17125 2.04234 0
M  V30 1226 H 126.586 2.1809 1.98799 0
M  V30 1227 H 126.667 2.54492 0.258321 0
M  V30 1228 H 126.311 5.01799 0.784889 0
M  V30 1229 H 126.241 4.62347 2.52076 0
M  V30 1230 H 128.732 3.49212 1.44427 0
M  V30 1231 H 129.045 7.3569 2.36601 0
M  V30 1232 H 127.39 6.61413 2.13444 0
M  V30 1233 H 130.581 4.35715 1.71085 0
M  V30 1234 H 130.754 6.11944 2.13139 0
M  V30 1235 N 124.16 -0.719506 1.40217 0
M  V30 1236 C 125.09 -1.8465 1.42922 0
M  V30 1237 C 126.071 -1.67599 0.29062 0
M  V30 1238 O 127.256 -1.87688 0.498677 0
M  V30 1239 C 124.386 -3.22565 1.28722 0
M  V30 1240 C 123.34 -3.54281 2.40144 0
M  V30 1241 C 122.666 -4.91298 2.11023 0
M  V30 1242 C 123.966 -3.55676 3.82481 0
M  V30 1243 H 125.66 -1.82644 2.37237 0
M  V30 1244 H 123.206 -0.877305 1.1419 0
M  V30 1245 H 125.159 -4.01095 1.29232 0
M  V30 1246 H 123.883 -3.25137 0.308811 0
M  V30 1247 H 122.542 -2.78088 2.38877 0
M  V30 1248 H 122.19 -4.90468 1.11582 0
M  V30 1249 H 121.89 -5.13485 2.8567 0
M  V30 1250 H 123.414 -5.72166 2.13209 0
M  V30 1251 H 124.828 -4.24254 3.85592 0
M  V30 1252 H 123.225 -3.89388 4.56614 0
M  V30 1253 H 124.295 -2.55144 4.12346 0
M  V30 1254 N 125.638 -1.25649 -0.95132 0
M  V30 1255 C 126.863 -1.13443 -1.73624 0
M  V30 1256 C 127.288 0.307565 -1.85568 0
M  V30 1257 O 126.646 1.22282 -1.33854 0
M  V30 1258 C 126.694 -1.79723 -3.12621 0
M  V30 1259 O 125.798 -1.07912 -3.98031 0
M  V30 1260 H 125.139 -0.395872 -0.533086 0
M  V30 1261 H 127.669 -1.66276 -1.1922 0
M  V30 1262 H 127.679 -1.86141 -3.63064 0
M  V30 1263 H 126.354 -2.84633 -3.03244 0
M  V30 1264 H 124.931 -1.09398 -3.56492 0
M  V30 1265 N 127.117 1.15442 -1.07289 0
M  V30 1266 C 128.347 1.89821 -0.815576 0
M  V30 1267 C 128.755 1.7823 0.634867 0
M  V30 1268 O 128.098 1.13152 1.44715 0
M  V30 1269 C 128.16 3.40817 -1.14385 0
M  V30 1270 C 127.824 3.76193 -2.59476 0
M  V30 1271 C 128.821 3.77269 -3.57721 0
M  V30 1272 C 126.506 4.0652 -2.95037 0
M  V30 1273 C 128.5 4.08176 -4.89562 0
M  V30 1274 C 126.187 4.37092 -4.27076 0
M  V30 1275 C 127.185 4.37902 -5.24148 0
M  V30 1276 O 126.873 4.67741 -6.53815 0
M  V30 1277 H 126.605 0.608465 -0.294528 0
M  V30 1278 H 129.159 1.472 -1.43252 0
M  V30 1279 H 127.389 3.83835 -0.469865 0
M  V30 1280 H 129.078 3.96485 -0.869179 0
M  V30 1281 H 129.844 3.5394 -3.3159 0
M  V30 1282 H 125.723 4.05049 -2.20128 0
M  V30 1283 H 129.267 4.08723 -5.65324 0
M  V30 1284 H 125.164 4.59889 -4.5296 0
M  V30 1285 H 125.932 4.85509 -6.58957 0
M  V30 1286 N 128.595 0.856903 1.32268 0
M  V30 1287 C 130.006 0.515711 1.79436 0
M  V30 1288 C 130.357 -0.966586 1.70738 0
M  V30 1289 O 129.482 -1.75409 1.26731 0
M  V30 1290 C 130.077 0.929335 3.25805 0
M  V30 1291 C 128.636 0.640006 3.70919 0
M  V30 1292 C 127.783 1.12784 2.53328 0
M  V30 1293 H 130.734 1.04389 1.19535 0
M  V30 1294 H 130.755 0.246633 3.797 0
M  V30 1295 H 130.267 2.00821 3.32103 0
M  V30 1296 H 128.368 -0.428051 3.70133 0
M  V30 1297 H 128.481 1.20788 4.63624 0
M  V30 1298 H 126.845 0.548033 2.48734 0
M  V30 1299 H 127.628 2.21387 2.62379 0
M  V30 1300 N 130.073 -1.45103 0.615059 0
M  V30 1301 C 131.021 -2.32331 -0.111791 0
M  V30 1302 C 132.015 -1.46409 -0.852102 0
M  V30 1303 O 133.221 -1.62849 -0.766821 0
M  V30 1304 H 129.596 -0.749993 -0.0549072 0
M  V30 1305 H 131.567 -2.91407 0.642225 0
M  V30 1306 C 130.316 -3.3015 -1.09071 0
M  V30 1307 H 129.639 -3.96265 -0.530485 0
M  V30 1308 H 131.079 -3.93898 -1.56908 0
M  V30 1309 C 129.538 -2.57875 -2.168 0
M  V30 1310 O 130.068 -2.36567 -3.24652 0
M  V30 1311 N 128.274 -2.17884 -1.92289 0
M  V30 1312 H 127.821 -2.35413 -1.04587 0
M  V30 1313 H 127.779 -1.6985 -2.64572 0
M  V30 1314 N 131.551 -0.354651 -1.53558 0
M  V30 1315 C 132.514 0.484566 -2.24019 0
M  V30 1316 C 133.514 1.01861 -1.24422 0
M  V30 1317 O 134.704 0.906097 -1.4878 0
M  V30 1318 C 131.836 1.67615 -2.96847 0
M  V30 1319 H 133.029 -0.131843 -2.9961 0
M  V30 1320 H 130.582 -0.106165 -1.55939 0
M  V30 1321 H 131.317 2.33095 -2.25471 0
M  V30 1322 H 131.102 1.30029 -3.69912 0
M  V30 1323 H 132.592 2.27114 -3.50441 0
M  V30 1324 N 133.029 1.57378 -0.0835403 0
M  V30 1325 C 134.257 1.98263 0.59157 0
M  V30 1326 C 134.672 0.962302 1.62435 0
M  V30 1327 O 134.029 -0.049581 1.82433 0
M  V30 1328 C 134.08 3.39214 1.24965 0
M  V30 1329 O 133.801 4.37339 0.258186 0
M  V30 1330 C 135.302 3.95038 2.01147 0
M  V30 1331 H 132.522 0.651773 0.159477 0
M  V30 1332 H 135.066 2.03878 -0.159415 0
M  V30 1333 H 133.221 3.34649 1.95164 0
M  V30 1334 H 133.635 5.19371 0.731734 0
M  V30 1335 H 135.109 4.95848 2.42567 0
M  V30 1336 H 135.586 3.32222 2.87272 0
M  V30 1337 H 136.192 4.0304 1.35789 0
M  V30 1338 N 134.507 -0.190092 1.56449 0
M  V30 1339 C 135.417 -1.25591 1.98152 0
M  V30 1340 C 136.433 -1.49519 0.889944 0
M  V30 1341 O 137.609 -1.62036 1.19609 0
M  V30 1342 C 134.674 -2.57916 2.3169 0
M  V30 1343 C 133.735 -2.42015 3.5458 0
M  V30 1344 C 132.968 -3.6803 3.8651 0
M  V30 1345 O 133.191 -4.72413 3.1966 0
M  V30 1346 O 132.125 -3.6326 4.79923 0
M  V30 1347 H 135.951 -0.931988 2.89046 0
M  V30 1348 H 133.536 -0.395488 1.4407 0
M  V30 1349 H 135.418 -3.36008 2.54316 0
M  V30 1350 H 134.093 -2.89925 1.43963 0
M  V30 1351 H 133 -1.62017 3.37196 0
M  V30 1352 H 134.333 -2.14937 4.4279 0
M  V30 1353 N 135.985 -1.50799 -0.457987 0
M  V30 1354 C 137.213 -1.66218 -1.23203 0
M  V30 1355 C 137.628 -0.350894 -1.85511 0
M  V30 1356 O 136.985 0.668546 -1.69814 0
M  V30 1357 C 137.036 -2.76291 -2.33121 0
M  V30 1358 O 136.757 -4.02338 -1.73366 0
M  V30 1359 C 138.258 -3.028 -3.2377 0
M  V30 1360 H 135.478 -0.558361 -0.372121 0
M  V30 1361 H 138.022 -1.97099 -0.545179 0
M  V30 1362 H 136.177 -2.48068 -2.97558 0
M  V30 1363 H 136.591 -4.63312 -2.4585 0
M  V30 1364 H 138.065 -3.8345 -3.97077 0
M  V30 1365 H 138.542 -2.14385 -3.83322 0
M  V30 1366 H 139.148 -3.32604 -2.65056 0
M  V30 1367 N 137.463 0.71206 -1.40597 0
M  V30 1368 C 138.709 1.47416 -1.39271 0
M  V30 1369 C 139.042 1.942 0.00388791 0
M  V30 1370 O 138.317 1.68403 0.973179 0
M  V30 1371 C 138.6 2.69774 -2.38525 0
M  V30 1372 C 138.453 2.28861 -3.87224 0
M  V30 1373 C 139.772 3.71939 -2.35264 0
M  V30 1374 H 136.891 0.534713 -0.5072 0
M  V30 1375 H 139.533 0.812375 -1.71757 0
M  V30 1376 H 137.683 3.26238 -2.10953 0
M  V30 1377 H 139.355 1.77852 -4.25636 0
M  V30 1378 H 137.598 1.60824 -4.02887 0
M  V30 1379 H 138.269 3.16584 -4.52193 0
M  V30 1380 H 140.745 3.25113 -2.59694 0
M  V30 1381 H 139.621 4.55186 -3.06753 0
M  V30 1382 H 139.882 4.20484 -1.36549 0
M  V30 1383 N 138.941 1.26152 0.944643 0
M  V30 1384 C 140.171 1.14094 1.72239 0
M  V30 1385 C 140.579 -0.306931 1.86694 0
M  V30 1386 O 139.922 -1.22222 1.3714 0
M  V30 1387 C 139.984 1.73316 3.14963 0
M  V30 1388 C 139.648 3.2239 3.23904 0
M  V30 1389 C 140.645 4.19252 3.07447 0
M  V30 1390 C 138.33 3.62788 3.47405 0
M  V30 1391 C 140.324 5.54491 3.14353 0
M  V30 1392 C 138.011 4.98162 3.53947 0
M  V30 1393 C 139.009 5.93823 3.37436 0
M  V30 1394 O 138.697 7.26732 3.43679 0
M  V30 1395 H 138.429 0.398292 0.546205 0
M  V30 1396 H 140.983 1.67201 1.19301 0
M  V30 1397 H 139.213 1.14667 3.69308 0
M  V30 1398 H 140.902 1.56214 3.74636 0
M  V30 1399 H 141.668 3.8938 2.8915 0
M  V30 1400 H 137.547 2.88816 3.59313 0
M  V30 1401 H 141.091 6.29137 3.01384 0
M  V30 1402 H 136.988 5.27695 3.71763 0
M  V30 1403 H 137.756 7.3496 3.60245 0
M  V30 1404 N 140.419 -1.14872 1.07899 0
M  V30 1405 C 141.667 -1.85422 0.803941 0
M  V30 1406 C 141.988 -1.83051 -0.67211 0
M  V30 1407 O 141.258 -1.27532 -1.48703 0
M  V30 1408 H 139.838 -0.686537 0.294408 0
M  V30 1409 H 142.5 -1.39226 1.3639 0
M  V30 1410 H 141.596 -2.90399 1.14346 0
M  V30 1411 N 141.898 -0.863906 -1.31812 0
M  V30 1412 C 142.828 -0.330843 -2.31144 0
M  V30 1413 C 143.809 0.575005 -1.60087 0
M  V30 1414 O 144.994 0.493304 -1.8783 0
M  V30 1415 C 142.124 0.47374 -3.44054 0
M  V30 1416 C 141.078 -0.338481 -4.26659 0
M  V30 1417 C 140.404 0.591412 -5.31419 0
M  V30 1418 C 141.704 -1.56926 -4.98168 0
M  V30 1419 H 143.398 -1.16086 -2.75979 0
M  V30 1420 H 140.944 -0.559657 -1.32679 0
M  V30 1421 H 142.897 0.857143 -4.12591 0
M  V30 1422 H 141.621 1.33721 -2.9797 0
M  V30 1423 H 140.28 -0.703754 -3.59782 0
M  V30 1424 H 139.928 1.45199 -4.81587 0
M  V30 1425 H 139.628 0.0519022 -5.87577 0
M  V30 1426 H 141.152 0.97179 -6.02817 0
M  V30 1427 H 142.566 -1.25764 -5.59336 0
M  V30 1428 H 140.963 -2.04739 -5.64094 0
M  V30 1429 H 142.033 -2.32544 -4.25501 0
M  V30 1430 N 143.376 1.44774 -0.622745 0
M  V30 1431 C 144.604 2.06487 -0.130722 0
M  V30 1432 C 145.019 1.46476 1.19123 0
M  V30 1433 O 144.376 0.584502 1.72887 0
M  V30 1434 C 144.427 3.615 -0.000807207 0
M  V30 1435 O 144.148 4.19274 -1.27048 0
M  V30 1436 C 145.649 4.40229 0.520898 0
M  V30 1437 H 142.869 0.666704 -0.0758106 0
M  V30 1438 H 145.413 1.85779 -0.854774 0
M  V30 1439 H 143.568 3.81498 0.673643 0
M  V30 1440 H 143.982 5.12622 -1.1099 0
M  V30 1441 H 145.456 5.49144 0.560838 0
M  V30 1442 H 145.933 4.1108 1.54627 0
M  V30 1443 H 146.539 4.25131 -0.120018 0
M  V30 1444 N 144.854 0.36279 1.53368 0
M  V30 1445 C 146.27 0.0116182 1.59596 0
M  V30 1446 C 146.47 -1.47012 1.37803 0
M  V30 1447 O 145.526 -2.23136 1.18181 0
M  V30 1448 C 146.839 0.465052 2.97082 0
M  V30 1449 C 148.387 0.419033 3.10182 0
M  V30 1450 C 148.862 0.848235 4.50077 0
M  V30 1451 N 150.353 0.803183 4.56183 0
M  V30 1452 C 151.088 1.107 5.62613 0
M  V30 1453 N 150.584 1.47996 6.76808 0
M  V30 1454 N 152.377 1.02998 5.52583 0
M  V30 1455 H 144.528 1.32775 1.65785 0
M  V30 1456 H 146.791 0.542518 0.777417 0
M  V30 1457 H 146.497 1.49892 3.18159 0
M  V30 1458 H 146.371 -0.149786 3.76902 0
M  V30 1459 H 148.758 -0.605696 2.88817 0
M  V30 1460 H 148.839 1.06933 2.32377 0
M  V30 1461 H 148.483 1.87107 4.7218 0
M  V30 1462 H 148.413 0.175218 5.26308 0
M  V30 1463 H 150.904 0.52838 3.74188 0
M  V30 1464 H 151.217 1.69613 7.53957 0
M  V30 1465 H 149.562 1.51859 6.78206 0
M  V30 1466 H 152.753 0.737817 4.62249 0
M  V30 1467 H 152.926 1.2701 6.35431 0
M  V30 1468 N 146.332 -1.57332 0.0918853 0
M  V30 1469 C 147.562 -1.98286 -0.580205 0
M  V30 1470 C 147.97 -0.969713 -1.6246 0
M  V30 1471 O 147.313 0.0493501 -1.83634 0
M  V30 1472 C 147.375 -3.35603 -1.28882 0
M  V30 1473 C 147.039 -4.55285 -0.395559 0
M  V30 1474 C 148.036 -5.18687 0.355002 0
M  V30 1475 C 145.721 -5.01314 -0.314556 0
M  V30 1476 C 147.715 -6.26484 1.17458 0
M  V30 1477 C 145.402 -6.08979 0.508677 0
M  V30 1478 C 146.4 -6.71429 1.2519 0
M  V30 1479 O 146.088 -7.77018 2.06151 0
M  V30 1480 H 145.82 -0.656678 -0.160466 0
M  V30 1481 H 148.374 -2.04721 0.16688 0
M  V30 1482 H 146.604 -3.25842 -2.08241 0
M  V30 1483 H 148.293 -3.61026 -1.85512 0
M  V30 1484 H 149.059 -4.84058 0.302134 0
M  V30 1485 H 144.938 -4.5247 -0.882697 0
M  V30 1486 H 148.482 -6.75159 1.75518 0
M  V30 1487 H 144.379 -6.4304 0.563037 0
M  V30 1488 H 145.147 -7.93991 1.98799 0
M  V30 1489 N 147.81 0.181792 -1.56548 0
M  V30 1490 C 149.035 0.920019 -1.85877 0
M  V30 1491 C 149.46 1.75494 -0.677021 0
M  V30 1492 O 148.818 1.77399 0.374056 0
M  V30 1493 C 148.866 1.78112 -3.13542 0
M  V30 1494 O 147.97 2.88152 -2.95029 0
M  V30 1495 H 147.311 0.258334 -0.611686 0
M  V30 1496 H 149.841 0.183092 -2.03779 0
M  V30 1497 H 149.851 2.18314 -3.44678 0
M  V30 1498 H 148.526 1.16777 -3.99169 0
M  V30 1499 H 147.103 2.51609 -2.75222 0
M  V30 1500 N 149.288 1.51039 0.449983 0
M  V30 1501 C 150.516 1.66869 1.2232 0
M  V30 1502 C 150.931 0.360727 1.85322 0
M  V30 1503 O 150.288 -0.659531 1.70166 0
M  V30 1504 C 150.339 2.77524 2.31652 0
M  V30 1505 O 150.06 4.03252 1.7123 0
M  V30 1506 C 151.561 3.04512 3.2216 0
M  V30 1507 H 148.781 0.560326 0.369155 0
M  V30 1508 H 151.325 1.97385 0.534719 0
M  V30 1509 H 149.48 2.49642 2.96239 0
M  V30 1510 H 149.894 4.64609 2.43389 0
M  V30 1511 H 151.368 3.85551 3.95038 0
M  V30 1512 H 151.845 2.16415 3.8218 0
M  V30 1513 H 152.451 3.34005 2.63288 0
M  V30 1514 N 150.766 -0.704594 1.40972 0
M  V30 1515 C 151.714 -1.83994 1.42299 0
M  V30 1516 C 152.708 -1.66684 0.302111 0
M  V30 1517 O 153.914 -1.73655 0.473697 0
M  V30 1518 H 150.289 -0.606171 0.44504 0
M  V30 1519 H 152.26 -1.79992 2.38003 0
M  V30 1520 C 151.009 -3.21946 1.31323 0
M  V30 1521 H 150.332 -3.35878 2.16855 0
M  V30 1522 H 151.772 -4.01491 1.36311 0
M  V30 1523 C 150.231 -3.36891 0.0245977 0
M  V30 1524 O 150.761 -3.90687 -0.934153 0
M  V30 1525 N 148.967 -2.90559 -0.0485243 0
M  V30 1526 H 148.514 -2.46968 0.732419 0
M  V30 1527 H 148.472 -3.00937 -0.910171 0
M  V30 1528 N 152.244 -1.26651 -0.937939 0
M  V30 1529 C 153.521 -1.0313 -1.66204 0
M  V30 1530 C 153.901 0.437256 -2.06522 0
M  V30 1531 O 153.249 1.41831 -1.79154 0
M  V30 1532 C 153.459 -1.98314 -2.87181 0
M  V30 1533 C 154.807 -2.27107 -3.58758 0
M  V30 1534 O 155.831 -1.96205 -2.97291 0
M  V30 1535 O 154.69 -2.79736 -4.69479 0
M  V30 1536 H 151.784 -0.392384 -0.727986 0
M  V30 1537 H 154.33 -1.37874 -0.989382 0
M  V30 1538 H 153.102 -2.97399 -2.54302 0
M  V30 1539 H 152.725 -1.64068 -3.6217 0
M  V30 1540 N 153.722 1.14298 -1.08507 0
M  V30 1541 C 154.632 2.23027 -0.727753 0
M  V30 1542 C 155.648 1.71952 0.26619 0
M  V30 1543 O 156.824 2.011 0.109882 0
M  V30 1544 C 153.889 3.46403 -0.143541 0
M  V30 1545 C 152.95 4.12413 -1.19223 0
M  V30 1546 C 152.183 5.29899 -0.635798 0
M  V30 1547 O 152.406 5.67796 0.544393 0
M  V30 1548 O 151.34 5.85717 -1.38634 0
M  V30 1549 H 155.166 2.55945 -1.63481 0
M  V30 1550 H 152.751 1.22248 -0.858817 0
M  V30 1551 H 154.633 4.21018 0.179404 0
M  V30 1552 H 153.308 3.15206 0.736659 0
M  V30 1553 H 152.215 3.39667 -1.56772 0
M  V30 1554 H 153.548 4.47718 -2.04474 0
M  V30 1555 N 155.201 0.870884 1.31352 0
M  V30 1556 C 156.164 0.332243 2.26779 0
M  V30 1557 C 157.164 -0.517302 1.52252 0
M  V30 1558 O 158.354 -0.326477 1.71113 0
M  V30 1559 C 155.486 -0.528066 3.36785 0
M  V30 1560 H 156.679 1.17469 2.75937 0
M  V30 1561 H 154.232 0.64655 1.423 0
M  V30 1562 H 154.967 -1.39167 2.92922 0
M  V30 1563 H 154.752 0.0802582 3.92018 0
M  V30 1564 H 156.242 -0.897179 4.07849 0
M  V30 1565 N 156.679 -1.44442 0.630414 0
M  V30 1566 C 157.928 -2.01267 0.132073 0
M  V30 1567 C 158.241 -1.50172 -1.25331 0
M  V30 1568 O 159.447 -1.9912 -1.84562 0
M  V30 1569 C 157.903 -3.59422 0.185362 0
M  V30 1570 C 157.511 -4.19514 1.57201 0
M  V30 1571 C 159.255 -4.23724 -0.256553 0
M  V30 1572 C 157.162 -5.69891 1.58045 0
M  V30 1573 H 156.092 -0.752619 0.0456092 0
M  V30 1574 H 158.743 -1.65666 0.789106 0
M  V30 1575 H 157.125 -3.92318 -0.538759 0
M  V30 1576 H 158.299 -3.98156 2.31966 0
M  V30 1577 H 156.614 -3.67496 1.95795 0
M  V30 1578 H 159.211 -5.34019 -0.269767 0
M  V30 1579 H 159.554 -3.96013 -1.28372 0
M  V30 1580 H 160.087 -3.95629 0.41505 0
M  V30 1581 H 156.826 -6.02336 2.58597 0
M  V30 1582 H 156.346 -5.93373 0.875725 0
M  V30 1583 H 158.025 -6.33515 1.31408 0
M  V30 1584 N 158.157 -0.370918 -1.53173 0
M  V30 1585 C 159.12 0.460778 -2.24521 0
M  V30 1586 C 160.12 1.00536 -1.25496 0
M  V30 1587 O 161.31 0.890266 -1.49733 0
M  V30 1588 C 158.442 1.64457 -2.98608 0
M  V30 1589 H 159.635 -0.163613 -2.99453 0
M  V30 1590 H 157.188 -0.122699 -1.55818 0
M  V30 1591 H 157.923 2.30691 -2.2793 0
M  V30 1592 H 157.708 1.26099 -3.7127 0
M  V30 1593 H 159.198 2.23384 -3.5283 0
M  V30 1594 N 159.635 1.57281 -0.100228 0
M  V30 1595 C 160.883 1.94153 0.561157 0
M  V30 1596 C 161.204 0.983157 1.68401 0
M  V30 1597 O 160.474 0.0361132 1.95867 0
M  V30 1598 H 159.054 0.716791 0.210283 0
M  V30 1599 H 161.716 1.94202 -0.164765 0
M  V30 1600 H 160.812 2.96709 0.968008 0
M  V30 1601 N 161.113 -0.173488 1.56642 0
M  V30 1602 C 162.359 -0.891784 1.8214 0
M  V30 1603 C 162.692 -1.8199 0.677736 0
M  V30 1604 O 161.967 -1.91842 -0.320446 0
M  V30 1605 C 162.25 -1.68933 3.18015 0
M  V30 1606 C 162.103 -0.784487 4.42906 0
M  V30 1607 C 163.422 -2.65748 3.50808 0
M  V30 1608 H 160.541 -0.322761 0.662567 0
M  V30 1609 H 163.183 -0.158095 1.89341 0
M  V30 1610 H 161.333 -2.31482 3.12007 0
M  V30 1611 H 163.005 -0.172046 4.60979 0
M  V30 1612 H 161.248 -0.0924117 4.33702 0
M  V30 1613 H 161.919 -1.37799 5.34524 0
M  V30 1614 H 164.395 -2.13327 3.57255 0
M  V30 1615 H 163.271 -3.18619 4.4696 0
M  V30 1616 H 163.532 -3.45842 2.75401 0
M  V30 1617 N 162.591 -1.51276 -0.441967 0
M  V30 1618 C 163.539 -1.72823 -1.55676 0
M  V30 1619 C 164.533 -0.59445 -1.58627 0
M  V30 1620 O 165.739 -0.775715 -1.62427 0
M  V30 1621 H 162.114 -0.545983 -0.517113 0
M  V30 1622 H 164.085 -2.6628 -1.34675 0
M  V30 1623 C 162.834 -1.86619 -2.93375 0
M  V30 1624 H 162.157 -2.73264 -2.91834 0
M  V30 1625 H 163.597 -2.05709 -3.70756 0
M  V30 1626 C 162.056 -0.624842 -3.31055 0
M  V30 1627 O 162.586 0.222636 -4.01083 0
M  V30 1628 N 160.792 -0.470288 -2.86769 0
M  V30 1629 H 160.339 -1.161 -2.29953 0
M  V30 1630 H 160.297 0.359051 -3.12343 0
M  V30 1631 N 164.069 0.697108 -1.41344 0
M  V30 1632 C 165.017 1.83237 -1.43272 0
M  V30 1633 C 166.011 1.66522 -0.310947 0
M  V30 1634 O 167.217 1.73402 -0.482899 0
M  V30 1635 H 163.592 0.603802 -0.448249 0
M  V30 1636 H 165.563 1.78727 -2.38954 0
M  V30 1637 C 164.312 3.21245 -1.33029 0
M  V30 1638 H 163.635 3.34723 -2.18633 0
M  V30 1639 H 165.075 4.00763 -1.38439 0
M  V30 1640 C 163.534 3.36873 -0.0424635 0
M  V30 1641 O 164.064 3.91177 0.913421 0
M  V30 1642 N 162.27 2.90581 0.0331145 0
M  V30 1643 H 161.817 2.46577 -0.745506 0
M  V30 1644 H 161.775 3.01416 0.894199 0
M  V30 1645 N 165.547 1.27147 0.931209 0
M  V30 1646 C 166.457 1.11372 2.06478 0
M  V30 1647 C 167.473 0.044645 1.73943 0
M  V30 1648 O 168.649 0.250417 1.99837 0
M  V30 1649 C 165.714 0.758838 3.38294 0
M  V30 1650 C 164.775 1.90841 3.84549 0
M  V30 1651 C 164.008 1.57036 5.10074 0
M  V30 1652 O 164.231 0.476645 5.68405 0
M  V30 1653 O 163.165 2.40839 5.51616 0
M  V30 1654 H 166.991 2.06493 2.22698 0
M  V30 1655 H 164.576 1.06301 1.04978 0
M  V30 1656 H 166.458 0.574098 4.17471 0
M  V30 1657 H 165.133 -0.162879 3.2329 0
M  V30 1658 H 164.04 2.14819 3.06274 0
M  V30 1659 H 165.373 2.81021 4.04089 0
M  V30 1660 N 167.025 -1.13721 1.09112 0
M  V30 1661 C 168.25 -1.89314 0.847053 0
M  V30 1662 C 168.675 -1.78416 -0.595774 0
M  V30 1663 O 168.033 -1.12942 -1.41823 0
M  V30 1664 C 168.081 -3.3701 1.28284 0
M  V30 1665 O 167.185 -4.10054 0.439267 0
M  V30 1666 H 166.526 -0.588745 0.307044 0
M  V30 1667 H 169.056 -1.43902 1.45442 0
M  V30 1668 H 169.066 -3.87834 1.26683 0
M  V30 1669 H 167.741 -3.4426 2.33363 0
M  V30 1670 H 166.318 -3.69266 0.519312 0
M  V30 1671 N 168.503 -0.877838 -1.30888 0
M  V30 1672 C 169.728 -0.506629 -2.01117 0
M  V30 1673 C 170.153 0.895564 -1.65412 0
M  V30 1674 O 169.511 1.5923 -0.866922 0
M  V30 1675 C 169.559 -0.680223 -3.54126 0
M  V30 1676 O 168.663 0.277033 -4.11468 0
M  V30 1677 H 168.004 -0.200518 -0.633 0
M  V30 1678 H 170.534 -1.18342 -1.66902 0
M  V30 1679 H 170.544 -0.5765 -4.03907 0
M  V30 1680 H 169.219 -1.70261 -3.79452 0
M  V30 1681 H 167.796 0.127606 -3.72682 0
M  V30 1682 N 169.982 1.44106 -0.638065 0
M  V30 1683 C 171.231 2.01194 -0.142744 0
M  V30 1684 C 171.544 1.50835 1.24532 0
M  V30 1685 O 172.75 2.00096 1.83504 0
M  V30 1686 C 171.206 3.59319 -0.20442 0
M  V30 1687 C 170.814 4.18674 -1.59423 0
M  V30 1688 C 172.558 4.23854 0.234079 0
M  V30 1689 C 170.465 5.69045 -1.61065 0
M  V30 1690 H 169.395 0.752367 -0.0495998 0
M  V30 1691 H 172.046 1.65246 -0.797881 0
M  V30 1692 H 170.428 3.92598 0.517946 0
M  V30 1693 H 171.602 3.96921 -2.34074 0
M  V30 1694 H 169.917 3.66453 -1.97741 0
M  V30 1695 H 172.514 5.34155 0.241443 0
M  V30 1696 H 172.857 3.96688 1.2627 0
M  V30 1697 H 173.39 3.95403 -0.436025 0
M  V30 1698 H 170.129 6.00956 -2.61787 0
M  V30 1699 H 169.649 5.929 -0.90718 0
M  V30 1700 H 171.328 6.32809 -1.34766 0
M  V30 1701 N 171.46 0.379036 1.52974 0
M  V30 1702 C 172.688 -0.20679 2.05864 0
M  V30 1703 C 173.103 -1.41356 1.25155 0
M  V30 1704 O 172.46 -1.8009 0.295588 0
M  V30 1705 C 172.511 -0.587045 3.56702 0
M  V30 1706 O 172.232 0.571776 4.34353 0
M  V30 1707 C 173.733 -1.22983 4.25899 0
M  V30 1708 H 170.953 -0.0336123 0.670158 0
M  V30 1709 H 173.497 0.541298 1.97206 0
M  V30 1710 H 171.652 -1.28504 3.65466 0
M  V30 1711 H 172.066 0.261544 5.23847 0
M  V30 1712 H 173.54 -1.44635 5.32715 0
M  V30 1713 H 174.017 -2.19416 3.80465 0
M  V30 1714 H 174.623 -0.572892 4.21424 0
M  V30 1715 N 172.938 -1.57226 0.108567 0
M  V30 1716 C 174.349 -1.8195 -0.418464 0
M  V30 1717 C 174.7 -1.02508 -1.67292 0
M  V30 1718 O 173.825 -0.258496 -2.14851 0
M  V30 1719 C 174.42 -3.30028 -0.765979 0
M  V30 1720 C 172.979 -3.55469 -1.23769 0
M  V30 1721 C 172.126 -2.7625 -0.241106 0
M  V30 1722 H 175.077 -1.55149 0.33384 0
M  V30 1723 H 175.098 -3.44086 -1.62434 0
M  V30 1724 H 174.61 -3.87821 0.147219 0
M  V30 1725 H 172.711 -3.03022 -2.16814 0
M  V30 1726 H 172.824 -4.6408 -1.19022 0
M  V30 1727 H 171.188 -2.44133 -0.72602 0
M  V30 1728 H 171.971 -3.36797 0.665007 0
M  V30 1729 N 174.416 0.165178 -1.56732 0
M  V30 1730 C 175.379 1.18822 -1.95995 0
M  V30 1731 C 176.379 1.3685 -0.84431 0
M  V30 1732 O 177.569 1.34152 -1.11126 0
M  V30 1733 C 174.701 2.5521 -2.26011 0
M  V30 1734 H 175.894 0.851825 -2.87548 0
M  V30 1735 H 173.447 0.407857 -1.50885 0
M  V30 1736 H 174.182 2.93852 -1.37191 0
M  V30 1737 H 173.967 2.43489 -3.07336 0
M  V30 1738 H 175.457 3.28927 -2.57288 0
M  V30 1739 N 175.894 1.51508 0.433938 0
M  V30 1740 C 176.841 1.73068 1.52696 0
M  V30 1741 C 177.811 0.572441 1.55924 0
M  V30 1742 O 178.996 0.807253 1.72882 0
M  V30 1743 C 176.136 1.86474 2.90381 0
M  V30 1744 C 175.249 3.14037 2.96656 0
M  V30 1745 C 174.384 3.18019 4.25485 0
M  V30 1746 C 173.423 4.39882 4.2564 0
M  V30 1747 N 172.56 4.41394 5.45999 0
M  V30 1748 H 177.4 2.66366 1.33615 0
M  V30 1749 H 174.937 1.32008 0.649018 0
M  V30 1750 H 176.895 1.92229 3.70275 0
M  V30 1751 H 175.525 0.965809 3.08013 0
M  V30 1752 H 174.577 3.17575 2.09404 0
M  V30 1753 H 175.889 4.0394 2.92633 0
M  V30 1754 H 175.043 3.22708 5.13755 0
M  V30 1755 H 173.782 2.2601 4.3217 0
M  V30 1756 H 172.787 4.35366 3.35763 0
M  V30 1757 H 174.012 5.33159 4.20617 0
M  V30 1758 H 171.958 3.52258 5.53399 0
M  V30 1759 H 171.875 5.25111 5.4387 0
M  V30 1760 H 173.143 4.50281 6.36292 0
M  V30 1761 N 177.372 -0.689602 1.41712 0
M  V30 1762 C 178.619 -1.44966 1.4139 0
M  V30 1763 C 178.947 -1.94484 0.025105 0
M  V30 1764 O 178.202 -1.70307 -0.964048 0
M  V30 1765 C 178.501 -2.67298 2.37247 0
M  V30 1766 C 178.167 -2.36405 3.83958 0
M  V30 1767 C 176.829 -2.27691 4.23923 0
M  V30 1768 C 179.181 -2.11043 4.76561 0
M  V30 1769 C 176.509 -1.91719 5.54492 0
M  V30 1770 C 178.861 -1.76578 6.07456 0
M  V30 1771 C 177.525 -1.66363 6.46436 0
M  V30 1772 H 176.795 -0.53047 0.517381 0
M  V30 1773 H 179.442 -0.787655 1.74552 0
M  V30 1774 H 177.747 -3.38461 1.9736 0
M  V30 1775 H 179.444 -3.25452 2.34269 0
M  V30 1776 H 176.034 -2.44085 3.52308 0
M  V30 1777 H 180.218 -2.16717 4.46483 0
M  V30 1778 H 175.474 -1.82367 5.83568 0
M  V30 1779 H 179.648 -1.55974 6.78708 0
M  V30 1780 H 177.275 -1.38258 7.47522 0
M  V30 1781 N 178.85 -1.27639 -0.924453 0
M  V30 1782 C 180.078 -1.16989 -1.70649 0
M  V30 1783 C 180.493 0.272869 -1.86818 0
M  V30 1784 O 179.85 1.18549 -1.38753 0
M  V30 1785 C 179.901 -1.85229 -3.10439 0
M  V30 1786 O 179.622 -3.23868 -2.95028 0
M  V30 1787 C 181.123 -1.80746 -4.04779 0
M  V30 1788 H 178.343 -0.406595 -0.53378 0
M  V30 1789 H 180.887 -1.68569 -1.15778 0
M  V30 1790 H 179.042 -1.37545 -3.6216 0
M  V30 1791 H 179.456 -3.57889 -3.83426 0
M  V30 1792 H 180.93 -2.33101 -5.00368 0
M  V30 1793 H 181.407 -0.777499 -4.32263 0
M  V30 1794 H 182.013 -2.28059 -3.58984 0
M  V30 1795 N 180.328 1.1314 -1.09713 0
M  V30 1796 C 181.574 1.84757 -0.836224 0
M  V30 1797 C 181.907 1.8347 0.636598 0
M  V30 1798 O 181.182 1.27491 1.46889 0
M  V30 1799 C 181.465 3.32782 -1.37578 0
M  V30 1800 C 181.318 3.42567 -2.91493 0
M  V30 1801 C 182.637 4.28307 -1.01198 0
M  V30 1802 H 179.756 0.67082 -0.305236 0
M  V30 1803 H 182.398 1.3278 -1.35903 0
M  V30 1804 H 180.548 3.77177 -0.931097 0
M  V30 1805 H 182.22 3.06862 -3.44432 0
M  V30 1806 H 180.463 2.83349 -3.28475 0
M  V30 1807 H 181.134 4.46674 -3.24324 0
M  V30 1808 H 183.61 3.91999 -1.39556 0
M  V30 1809 H 182.486 5.30307 -1.41653 0
M  V30 1810 H 182.747 4.42029 0.0794833 0
M  V30 1811 N 181.806 0.884767 1.30421 0
M  V30 1812 C 182.769 0.356277 2.26414 0
M  V30 1813 C 183.769 -0.501124 1.52792 0
M  V30 1814 O 184.959 -0.30831 1.7145 0
M  V30 1815 C 182.091 -0.492316 3.37326 0
M  V30 1816 H 183.284 1.20389 2.74675 0
M  V30 1817 H 180.837 0.661607 1.41607 0
M  V30 1818 H 181.572 -1.36052 2.94381 0
M  V30 1819 H 181.357 0.121832 3.91911 0
M  V30 1820 H 182.847 -0.853871 4.08777 0
M  V30 1821 N 183.284 -1.43765 0.645699 0
M  V30 1822 C 184.214 -2.33471 -0.0370477 0
M  V30 1823 C 185.195 -1.49042 -0.819779 0
M  V30 1824 O 186.38 -1.77726 -0.782758 0
M  V30 1825 C 183.51 -3.32311 -1.0093 0
M  V30 1826 C 182.464 -4.2667 -0.337201 0
M  V30 1827 C 181.79 -5.1549 -1.42037 0
M  V30 1828 C 183.09 -5.16657 0.765706 0
M  V30 1829 H 184.784 -2.90809 0.712069 0
M  V30 1830 H 182.33 -1.39834 0.343876 0
M  V30 1831 H 184.283 -3.9396 -1.49578 0
M  V30 1832 H 183.007 -2.73213 -1.78948 0
M  V30 1833 H 181.666 -3.66374 0.128771 0
M  V30 1834 H 181.314 -4.52735 -2.1918 0
M  V30 1835 H 181.014 -5.79438 -0.975966 0
M  V30 1836 H 182.538 -5.80012 -1.90838 0
M  V30 1837 H 183.952 -5.72158 0.361702 0
M  V30 1838 H 182.349 -5.89286 1.13413 0
M  V30 1839 H 183.419 -4.56796 1.62683 0
M  V30 1840 N 184.763 -0.387143 -1.52771 0
M  V30 1841 C 185.711 0.463953 -2.27926 0
M  V30 1842 C 186.705 1.06493 -1.31741 0
M  V30 1843 O 187.911 1.00565 -1.49287 0
M  V30 1844 H 184.286 0.16837 -0.732909 0
M  V30 1845 H 186.257 -0.19141 -2.97785 0
M  V30 1846 C 185.006 1.5803 -3.09713 0
M  V30 1847 H 184.329 1.12718 -3.83581 0
M  V30 1848 H 185.769 2.15008 -3.65442 0
M  V30 1849 C 184.228 2.53509 -2.2189 0
M  V30 1850 O 184.758 3.56863 -1.84422 0
M  V30 1851 N 182.964 2.23199 -1.86093 0
M  V30 1852 H 182.511 1.39185 -2.16761 0
M  V30 1853 H 182.469 2.87333 -1.27621 0
M  V30 1854 N 186.241 1.57166 -0.116904 0
M  V30 1855 C 187.189 2.16457 0.851418 0
M  V30 1856 C 188.183 1.11323 1.27686 0
M  V30 1857 O 189.389 1.2963 1.24884 0
M  V30 1858 H 185.764 0.69271 0.292672 0
M  V30 1859 H 187.735 2.96605 0.32685 0
M  V30 1860 C 186.484 2.77689 2.09246 0
M  V30 1861 H 185.807 3.58285 1.77402 0
M  V30 1862 H 187.247 3.22716 2.7501 0
M  V30 1863 C 185.706 1.74667 2.88085 0
M  V30 1864 O 186.236 1.19877 3.83396 0
M  V30 1865 N 184.442 1.44656 2.52038 0
M  V30 1866 H 183.989 1.89402 1.74599 0
M  V30 1867 H 183.947 0.759675 3.05084 0
M  V30 1868 N 187.719 -0.156864 1.56817 0
M  V30 1869 C 188.682 -1.17781 1.96622 0
M  V30 1870 C 189.682 -1.36401 0.851555 0
M  V30 1871 O 190.872 -1.33561 1.11836 0
M  V30 1872 C 188.004 -2.54008 2.27361 0
M  V30 1873 H 189.197 -0.836564 2.87996 0
M  V30 1874 H 186.75 -0.39985 1.51099 0
M  V30 1875 H 187.485 -2.9312 1.38748 0
M  V30 1876 H 187.27 -2.41856 3.08623 0
M  V30 1877 H 188.76 -3.27558 2.59029 0
M  V30 1878 N 189.197 -1.51736 -0.425897 0
M  V30 1879 C 190.444 -1.6497 -1.17436 0
M  V30 1880 C 190.772 -0.371445 -1.9092 0
M  V30 1881 O 190.027 0.644963 -1.84767 0
M  V30 1882 C 190.326 -2.81103 -2.20717 0
M  V30 1883 C 189.992 -4.19954 -1.64162 0
M  V30 1884 C 188.654 -4.57725 -1.48462 0
M  V30 1885 C 191.006 -5.06552 -1.22696 0
M  V30 1886 C 188.334 -5.79789 -0.897873 0
M  V30 1887 C 190.686 -6.29205 -0.654464 0
M  V30 1888 C 189.35 -6.6574 -0.484456 0
M  V30 1889 H 188.62 -0.603668 -0.429727 0
M  V30 1890 H 191.267 -1.85798 -0.463829 0
M  V30 1891 H 189.572 -2.54542 -2.97852 0
M  V30 1892 H 191.269 -2.8854 -2.78471 0
M  V30 1893 H 187.859 -3.90181 -1.77361 0
M  V30 1894 H 192.043 -4.77968 -1.33642 0
M  V30 1895 H 187.299 -6.06733 -0.75402 0
M  V30 1896 H 191.473 -6.95643 -0.324694 0
M  V30 1897 H 189.1 -7.60195 -0.0276833 0
M  V30 1898 N 190.675 0.682077 -1.42076 0
M  V30 1899 C 191.585 1.82535 -1.47371 0
M  V30 1900 C 192.601 1.7017 -0.363079 0
M  V30 1901 O 193.777 1.91848 -0.612875 0
M  V30 1902 C 190.842 3.18624 -1.36674 0
M  V30 1903 C 189.903 3.42999 -2.58167 0
M  V30 1904 C 189.136 4.72595 -2.4797 0
M  V30 1905 O 189.359 5.50006 -1.5116 0
M  V30 1906 O 188.293 4.98054 -3.37974 0
M  V30 1907 H 192.119 1.81023 -2.43853 0
M  V30 1908 H 189.704 0.836887 -1.2376 0
M  V30 1909 H 191.586 3.99847 -1.33043 0
M  V30 1910 H 190.261 3.20789 -0.433138 0
M  V30 1911 H 189.168 2.61653 -2.67373 0
M  V30 1912 H 190.501 3.45659 -3.50401 0
M  V30 1913 N 192.153 1.28127 0.917671 0
M  V30 1914 C 193.381 1.17892 1.70026 0
M  V30 1915 C 193.796 -0.262958 1.8696 0
M  V30 1916 O 193.153 -1.17811 1.3938 0
M  V30 1917 C 193.204 1.86872 3.09453 0
M  V30 1918 O 192.925 3.25428 2.93306 0
M  V30 1919 C 194.426 1.8289 4.03815 0
M  V30 1920 H 191.646 0.40942 0.531617 0
M  V30 1921 H 194.19 1.69181 1.14883 0
M  V30 1922 H 192.345 1.39464 3.61426 0
M  V30 1923 H 192.759 3.59918 3.81523 0
M  V30 1924 H 194.233 2.35751 4.99125 0
M  V30 1925 H 194.71 0.800412 4.31845 0
M  V30 1926 H 195.316 2.29959 3.57769 0
M  V30 1927 N 193.631 -1.12557 1.10312 0
M  V30 1928 C 195.047 -1.36036 0.834649 0
M  V30 1929 C 195.247 -1.93946 -0.546539 0
M  V30 1930 O 194.303 -2.16484 -1.29966 0
M  V30 1931 C 195.616 -2.30312 1.9333 0
M  V30 1932 C 197.164 -2.43906 1.9616 0
M  V30 1933 C 197.639 -3.41496 3.05195 0
M  V30 1934 N 199.13 -3.49053 3.04494 0
M  V30 1935 C 199.865 -4.24471 3.85502 0
M  V30 1936 N 199.361 -5.02966 4.76442 0
M  V30 1937 N 201.154 -4.19864 3.73725 0
M  V30 1938 H 193.305 -0.733246 1.99342 0
M  V30 1939 H 195.568 -0.385234 0.866198 0
M  V30 1940 H 195.274 -1.94933 2.92735 0
M  V30 1941 H 195.148 -3.30421 1.81939 0
M  V30 1942 H 197.535 -2.78567 0.973886 0
M  V30 1943 H 197.616 -1.4369 2.11629 0
M  V30 1944 H 197.26 -3.07565 4.04186 0
M  V30 1945 H 197.19 -4.41539 2.86968 0
M  V30 1946 H 199.681 -2.93053 2.38596 0
M  V30 1947 H 199.994 -5.57846 5.34815 0
M  V30 1948 H 198.339 -5.02167 4.80472 0
M  V30 1949 H 201.53 -3.57623 3.02032 0
M  V30 1950 H 201.703 -4.78386 4.37093 0
M  V30 1951 N 195.109 -0.891671 -1.2995 0
M  V30 1952 C 196.355 -0.514261 -1.96171 0
M  V30 1953 C 196.688 0.935506 -1.70182 0
M  V30 1954 O 195.963 1.66204 -1.01028 0
M  V30 1955 C 196.246 -0.797719 -3.51153 0
M  V30 1956 C 196.099 -2.2986 -3.86632 0
M  V30 1957 C 197.418 -0.278749 -4.39216 0
M  V30 1958 H 194.537 -0.188314 -0.712535 0
M  V30 1959 H 197.179 -1.11689 -1.53706 0
M  V30 1960 H 195.329 -0.284826 -3.87455 0
M  V30 1961 H 197.001 -2.88042 -3.60319 0
M  V30 1962 H 195.244 -2.76257 -3.34462 0
M  V30 1963 H 195.915 -2.44753 -4.94773 0
M  V30 1964 H 198.391 -0.717825 -4.09862 0
M  V30 1965 H 197.267 -0.506353 -5.46559 0
M  V30 1966 H 197.528 0.820266 -4.34424 0
M  V30 1967 N 196.587 1.43421 -0.653314 0
M  V30 1968 C 197.812 2.06678 -0.172846 0
M  V30 1969 C 198.237 1.48648 1.15262 0
M  V30 1970 O 197.595 0.596457 1.71208 0
M  V30 1971 C 197.643 3.60474 -0.0953184 0
M  V30 1972 O 196.747 4.01487 0.942442 0
M  V30 1973 H 196.088 0.657181 -0.0949155 0
M  V30 1974 H 198.618 1.83925 -0.896265 0
M  V30 1975 H 198.628 4.07905 0.0879728 0
M  V30 1976 H 197.303 4.02088 -1.06291 0
M  V30 1977 H 195.88 3.65646 0.731932 0
M  V30 1978 N 198.065 0.39524 1.52563 0
M  V30 1979 C 199.293 -0.184943 2.06072 0
M  V30 1980 C 199.708 -1.40021 1.26647 0
M  V30 1981 O 199.065 -1.79767 0.314672 0
M  V30 1982 C 199.116 -0.549179 3.57304 0
M  V30 1983 O 198.837 0.617813 4.33722 0
M  V30 1984 C 200.338 -1.18459 4.2718 0
M  V30 1985 H 197.558 -0.0265025 0.670476 0
M  V30 1986 H 200.102 0.562184 1.96621 0
M  V30 1987 H 198.257 -1.2462 3.66809 0
M  V30 1988 H 198.671 0.317091 5.23541 0
M  V30 1989 H 200.145 -1.38976 5.34219 0
M  V30 1990 H 200.622 -2.15368 3.82771 0
M  V30 1991 H 201.228 -0.528163 4.22008 0
M  V30 1992 N 199.544 -1.57102 0.125237 0
M  V30 1993 C 200.454 -2.19191 -0.8362 0
M  V30 1994 C 201.47 -1.16985 -1.28805 0
M  V30 1995 O 202.646 -1.49479 -1.34974 0
M  V30 1996 C 199.711 -2.78407 -2.06617 0
M  V30 1997 C 198.772 -3.9567 -1.66565 0
M  V30 1998 C 198.005 -4.52052 -2.83698 0
M  V30 1999 O 198.228 -4.07326 -3.99302 0
M  V30 2000 O 197.162 -5.42645 -2.60423 0
M  V30 2001 H 200.988 -3.01816 -0.337776 0
M  V30 2002 H 198.573 -1.4906 -0.100695 0
M  V30 2003 H 200.455 -3.16129 -2.7864 0
M  V30 2004 H 199.13 -1.9881 -2.55453 0
M  V30 2005 H 198.037 -3.62705 -0.916296 0
M  V30 2006 H 199.37 -4.76722 -1.22464 0
M  V30 2007 N 201.022 0.148545 -1.56898 0
M  V30 2008 C 202.247 0.880385 -1.87787 0
M  V30 2009 C 202.672 1.74018 -0.714093 0
M  V30 2010 O 202.03 1.78153 0.336343 0
M  V30 2011 C 202.078 1.71422 -3.17249 0
M  V30 2012 O 201.182 2.8183 -3.01074 0
M  V30 2013 H 200.523 0.245301 -0.617028 0
M  V30 2014 H 203.053 0.139826 -2.04122 0
M  V30 2015 H 203.063 2.10954 -3.49231 0
M  V30 2016 H 201.738 1.08284 -4.01556 0
M  V30 2017 H 200.315 2.45715 -2.80497 0
M  V30 2018 N 202.5 1.5196 0.417844 0
M  V30 2019 C 203.725 1.69717 1.1921 0
M  V30 2020 C 204.15 0.402148 1.83751 0
M  V30 2021 O 203.508 -0.639593 1.69643 0
M  V30 2022 C 203.556 2.82794 2.2374 0
M  V30 2023 O 202.66 2.47756 3.29683 0
M  V30 2024 H 202.001 0.565263 0.348387 0
M  V30 2025 H 204.531 1.98621 0.490985 0
M  V30 2026 H 204.541 3.07452 2.68212 0
M  V30 2027 H 203.216 3.76756 1.76146 0
M  V30 2028 H 201.793 2.33739 2.90552 0
M  V30 2029 N 203.978 -0.674533 1.42435 0
M  V30 2030 C 204.926 -1.80934 1.46169 0
M  V30 2031 C 205.92 -1.66006 0.3374 0
M  V30 2032 O 207.126 -1.72611 0.510425 0
M  V30 2033 H 203.501 -0.596594 0.457798 0
M  V30 2034 H 205.472 -1.74903 2.41767 0
M  V30 2035 C 204.221 -3.19088 1.38123 0
M  V30 2036 H 203.544 -3.31203 2.23931 0
M  V30 2037 H 204.984 -3.9851 1.44797 0
M  V30 2038 C 203.443 -3.36763 0.0960517 0
M  V30 2039 O 203.973 -3.92581 -0.851073 0
M  V30 2040 N 202.179 -2.90597 0.0131186 0
M  V30 2041 H 201.726 -2.45359 0.784639 0
M  V30 2042 H 201.684 -3.028 -0.846133 0
M  V30 2043 N 205.456 -1.28612 -0.910864 0
M  V30 2044 C 206.704 -1.15705 -1.65701 0
M  V30 2045 C 207.025 0.29416 -1.92769 0
M  V30 2046 O 206.295 1.20331 -1.54588 0
M  V30 2047 H 204.875 -0.425216 -0.614167 0
M  V30 2048 H 207.537 -1.61381 -1.0928 0
M  V30 2049 H 206.633 -1.6988 -2.61815 0
M  V30 2050 N 206.934 1.1197 -1.10907 0
M  V30 2051 C 208.18 1.8386 -0.855773 0
M  V30 2052 C 208.513 1.84134 0.617103 0
M  V30 2053 O 207.788 1.29041 1.45529 0
M  V30 2054 C 208.071 3.31305 -1.411 0
M  V30 2055 C 207.924 3.39456 -2.9511 0
M  V30 2056 C 209.243 4.2721 -1.05736 0
M  V30 2057 H 206.362 0.667545 -0.312334 0
M  V30 2058 H 209.004 1.31331 -1.37303 0
M  V30 2059 H 207.154 3.76169 -0.97105 0
M  V30 2060 H 208.826 3.03191 -3.47668 0
M  V30 2061 H 207.069 2.79849 -3.31462 0
M  V30 2062 H 207.74 4.43209 -3.29044 0
M  V30 2063 H 210.216 3.90497 -1.43706 0
M  V30 2064 H 209.092 5.28775 -1.47269 0
M  V30 2065 H 209.353 4.42088 0.0325958 0
M  V30 2066 N 208.412 0.89855 1.29475 0
M  V30 2067 C 209.661 0.519863 1.94885 0
M  V30 2068 C 209.974 -0.9383 1.71625 0
M  V30 2069 O 211.18 -1.42445 2.31131 0
M  V30 2070 C 209.636 0.878836 3.49005 0
M  V30 2071 C 209.244 2.35569 3.81066 0
M  V30 2072 C 210.988 0.570004 4.20656 0
M  V30 2073 C 208.895 2.65558 5.28425 0
M  V30 2074 H 207.825 0.190692 0.729488 0
M  V30 2075 H 210.476 1.09539 1.47219 0
M  V30 2076 H 208.858 0.232253 3.95318 0
M  V30 2077 H 210.032 3.04773 3.45616 0
M  V30 2078 H 208.347 2.63343 3.22552 0
M  V30 2079 H 210.944 0.770925 5.29113 0
M  V30 2080 H 211.287 -0.491404 4.1339 0
M  V30 2081 H 211.82 1.17438 3.8007 0
M  V30 2082 H 208.559 3.70493 5.40754 0
M  V30 2083 H 208.079 2.00977 5.65127 0
M  V30 2084 H 209.758 2.51765 5.96006 0
M  V30 2085 N 209.89 -1.43072 0.660911 0
M  V30 2086 C 210.837 -2.30785 -0.0259884 0
M  V30 2087 C 211.807 -1.45184 -0.806888 0
M  V30 2088 O 212.992 -1.74041 -0.781943 0
M  V30 2089 C 210.132 -3.30861 -0.981067 0
M  V30 2090 C 209.245 -4.31558 -0.195458 0
M  V30 2091 C 208.38 -5.18712 -1.14503 0
M  V30 2092 C 207.419 -6.11097 -0.350299 0
M  V30 2093 N 206.556 -6.90849 -1.25186 0
M  V30 2094 H 211.396 -2.88975 0.727846 0
M  V30 2095 H 208.933 -1.42353 0.370682 0
M  V30 2096 H 210.891 -3.87399 -1.54849 0
M  V30 2097 H 209.521 -2.74304 -1.70169 0
M  V30 2098 H 208.573 -3.77252 0.488374 0
M  V30 2099 H 209.885 -4.9701 0.422176 0
M  V30 2100 H 209.039 -5.79914 -1.78284 0
M  V30 2101 H 207.778 -4.53404 -1.79656 0
M  V30 2102 H 206.783 -5.48976 0.300808 0
M  V30 2103 H 208.008 -6.7845 0.296941 0
M  V30 2104 H 205.954 -6.28182 -1.89005 0
M  V30 2105 H 205.871 -7.52854 -0.688971 0
M  V30 2106 H 207.139 -7.5655 -1.87757 0
M  V30 2107 N 211.368 -0.403325 -1.52352 0
M  V30 2108 C 212.617 0.175668 -2.00934 0
M  V30 2109 C 212.93 1.46718 -1.29356 0
M  V30 2110 O 214.136 2.12708 -1.68724 0
M  V30 2111 C 212.592 0.363612 -3.58058 0
M  V30 2112 C 212.2 -0.915472 -4.38547 0
M  V30 2113 C 213.944 0.89821 -4.14888 0
M  V30 2114 C 211.851 -0.695035 -5.87302 0
M  V30 2115 H 210.781 0.0694234 -0.750797 0
M  V30 2116 H 213.432 -0.527879 -1.75743 0
M  V30 2117 H 211.814 1.12935 -3.79555 0
M  V30 2118 H 212.988 -1.68691 -4.28812 0
M  V30 2119 H 211.303 -1.37606 -3.93006 0
M  V30 2120 H 213.9 1.07907 -5.23699 0
M  V30 2121 H 214.243 1.87126 -3.71873 0
M  V30 2122 H 214.776 0.191681 -3.97338 0
M  V30 2123 H 211.515 -1.63948 -6.34666 0
M  V30 2124 H 211.035 0.0372116 -5.99788 0
M  V30 2125 H 212.714 -0.33497 -6.46132 0
M  V30 2126 N 212.846 1.57033 -0.133567 0
M  V30 2127 C 214.071 2.00475 0.531477 0
M  V30 2128 C 214.496 1.01291 1.58499 0
M  V30 2129 O 213.854 -0.0133279 1.81295 0
M  V30 2130 C 213.902 3.42729 1.12113 0
M  V30 2131 O 213.006 3.46498 2.23636 0
M  V30 2132 H 212.347 0.650876 0.131362 0
M  V30 2133 H 214.877 2.03344 -0.22634 0
M  V30 2134 H 214.887 3.81246 1.4531 0
M  V30 2135 H 213.562 4.14428 0.349557 0
M  V30 2136 H 212.139 3.19811 1.91769 0
M  V30 2137 N 214.325 -0.140222 1.56975 0
M  V30 2138 C 215.55 -0.870414 1.88251 0
M  V30 2139 C 215.975 -1.73637 0.723312 0
M  V30 2140 O 215.333 -1.78329 -0.32689 0
M  V30 2141 C 215.381 -1.69737 3.18154 0
M  V30 2142 O 214.485 -2.80229 3.02565 0
M  V30 2143 H 213.826 -0.242025 0.61832 0
M  V30 2144 H 216.356 -0.128999 2.04193 0
M  V30 2145 H 216.366 -2.09099 3.50345 0
M  V30 2146 H 215.041 -1.06152 4.02125 0
M  V30 2147 H 213.618 -2.44224 2.81796 0
M  V30 2148 N 215.803 -1.52179 -0.40978 0
M  V30 2149 C 216.733 -1.78435 -1.5061 0
M  V30 2150 C 217.714 -0.635295 -1.57791 0
M  V30 2151 O 218.899 -0.880823 -1.73076 0
M  V30 2152 C 216.029 -1.93444 -2.88439 0
M  V30 2153 C 214.983 -3.09038 -2.96108 0
M  V30 2154 C 214.309 -3.09268 -4.36185 0
M  V30 2155 C 215.609 -4.48508 -2.67652 0
M  V30 2156 H 217.303 -2.70237 -1.28889 0
M  V30 2157 H 214.849 -1.30036 -0.618605 0
M  V30 2158 H 216.802 -2.10394 -3.65119 0
M  V30 2159 H 215.526 -0.983129 -3.11452 0
M  V30 2160 H 214.185 -2.91837 -2.21872 0
M  V30 2161 H 213.833 -2.11861 -4.56206 0
M  V30 2162 H 213.533 -3.86907 -4.42241 0
M  V30 2163 H 215.057 -3.28348 -5.14801 0
M  V30 2164 H 216.471 -4.65918 -3.34056 0
M  V30 2165 H 214.868 -5.28059 -2.85085 0
M  V30 2166 H 215.938 -4.56649 -1.63095 0
M  V30 2167 N 217.281 0.66697 -1.42791 0
M  V30 2168 C 218.692 1.2478 -1.38877 0
M  V30 2169 C 219.043 1.96012 -0.0859426 0
M  V30 2170 O 218.168 2.00463 0.815081 0
M  V30 2171 C 218.763 2.26938 -2.51564 0
M  V30 2172 C 217.322 2.80529 -2.50959 0
M  V30 2173 C 216.469 1.54965 -2.29959 0
M  V30 2174 H 219.42 0.459853 -1.51892 0
M  V30 2175 H 219.441 3.08834 -2.22265 0
M  V30 2176 H 218.953 1.75065 -3.46372 0
M  V30 2177 H 217.054 3.36502 -1.59991 0
M  V30 2178 H 217.167 3.29012 -3.48265 0
M  V30 2179 H 215.531 1.81817 -1.78366 0
M  V30 2180 H 216.314 1.05047 -3.26833 0
M  V30 2181 N 218.759 1.29093 0.90403 0
M  V30 2182 C 219.691 1.09658 2.01266 0
M  V30 2183 C 220.704 0.0453729 1.62737 0
M  V30 2184 O 221.893 0.289446 1.76138 0
M  V30 2185 C 218.993 0.646278 3.32681 0
M  V30 2186 C 218.166 1.77505 3.99763 0
M  V30 2187 C 217.225 1.31649 5.09465 0
M  V30 2188 O 216.251 2.02045 5.32134 0
M  V30 2189 N 217.453 0.184997 5.80205 0
M  V30 2190 H 220.218 2.05135 2.18494 0
M  V30 2191 H 217.779 1.20975 1.07594 0
M  V30 2192 H 219.771 0.322906 4.0341 0
M  V30 2193 H 218.341 -0.215916 3.11853 0
M  V30 2194 H 217.561 2.26752 3.22455 0
M  V30 2195 H 218.849 2.53198 4.41325 0
M  V30 2196 H 218.247 -0.402021 5.6427 0
M  V30 2197 H 216.804 -0.0790358 6.51752 0
M  V30 2198 N 220.237 -1.11381 1.11499 0
M  V30 2199 C 221.2 -2.15622 0.777153 0
M  V30 2200 C 222.2 -1.59504 -0.203779 0
M  V30 2201 O 223.39 -1.74188 0.020782 0
M  V30 2202 C 220.522 -3.40556 0.153116 0
M  V30 2203 H 221.715 -2.47021 1.70061 0
M  V30 2204 H 219.268 -1.26577 0.916952 0
M  V30 2205 H 220.003 -3.14767 -0.780536 0
M  V30 2206 H 219.788 -3.8257 0.859238 0
M  V30 2207 H 221.278 -4.17546 -0.0671044 0
M  V30 2208 N 221.715 -0.905404 -1.28997 0
M  V30 2209 C 222.645 -0.404212 -2.29975 0
M  V30 2210 C 223.626 0.523784 -1.61835 0
M  V30 2211 O 224.811 0.433298 -1.89304 0
M  V30 2212 C 221.941 0.364042 -3.45387 0
M  V30 2213 C 220.895 -0.474048 -4.25367 0
M  V30 2214 C 220.221 0.422045 -5.33032 0
M  V30 2215 C 221.521 -1.72696 -4.92923 0
M  V30 2216 H 223.215 -1.24807 -2.72146 0
M  V30 2217 H 220.761 -0.601585 -1.30832 0
M  V30 2218 H 222.714 0.725447 -4.15109 0
M  V30 2219 H 221.438 1.24174 -3.02074 0
M  V30 2220 H 220.097 -0.81786 -3.57361 0
M  V30 2221 H 219.745 1.29804 -4.85963 0
M  V30 2222 H 219.445 -0.135057 -5.87445 0
M  V30 2223 H 220.969 0.779517 -6.05604 0
M  V30 2224 H 222.383 -1.43495 -5.55051 0
M  V30 2225 H 220.78 -2.22582 -5.57295 0
M  V30 2226 H 221.85 -2.45964 -4.17887 0
M  V30 2227 N 223.193 1.4272 -0.668489 0
M  V30 2228 C 224.156 2.292 0.00448567 0
M  V30 2229 C 225.156 1.43001 0.735339 0
M  V30 2230 O 226.346 1.64461 0.57429 0
M  V30 2231 C 223.478 3.25375 1.01705 0
M  V30 2232 H 224.671 2.90199 -0.756608 0
M  V30 2233 H 222.224 1.50254 -0.430506 0
M  V30 2234 H 222.959 2.69301 1.80686 0
M  V30 2235 H 222.744 3.88944 0.496463 0
M  V30 2236 H 224.234 3.90245 1.48655 0
M  V30 2237 N 224.671 0.411399 1.52136 0
M  V30 2238 C 225.919 -0.163322 2.01439 0
M  V30 2239 C 226.24 -1.45453 1.29879 0
M  V30 2240 O 225.51 -1.91225 0.4254 0
M  V30 2241 H 224.09 -0.0633447 0.744309 0
M  V30 2242 H 226.752 0.548161 1.87033 0
M  V30 2243 H 225.848 -0.357817 3.10042 0
M  V30 2244 N 226.149 -1.5696 0.141893 0
M  V30 2245 C 227.112 -2.15316 -0.785587 0
M  V30 2246 C 228.112 -1.09366 -1.1788 0
M  V30 2247 O 229.302 -1.35031 -1.10056 0
M  V30 2248 C 226.434 -2.71211 -2.06537 0
M  V30 2249 H 227.627 -2.98608 -0.278041 0
M  V30 2250 H 225.18 -1.5593 -0.107519 0
M  V30 2251 H 225.915 -1.91571 -2.6167 0
M  V30 2252 H 225.7 -3.4872 -1.79268 0
M  V30 2253 H 227.19 -3.16189 -2.72789 0
M  V30 2254 N 227.627 0.131896 -1.57047 0
M  V30 2255 C 228.904 0.871495 -1.75112 0
M  V30 2256 C 229.284 1.9866 -0.713949 0
M  V30 2257 O 228.632 2.26965 0.264447 0
M  V30 2258 C 228.842 1.40007 -3.19686 0
M  V30 2259 C 230.19 1.85752 -3.81813 0
M  V30 2260 O 231.214 1.49715 -3.23209 0
M  V30 2261 O 230.073 2.5226 -4.84796 0
M  V30 2262 H 227.167 0.412919 -0.716538 0
M  V30 2263 H 229.713 0.116641 -1.69299 0
M  V30 2264 H 228.485 0.599404 -3.86682 0
M  V30 2265 H 228.108 2.218 -3.29986 0
M  V30 2266 N 229.106 1.52395 0.401703 0
M  V30 2267 C 230.383 1.57387 1.16141 0
M  V30 2268 C 230.763 0.359359 2.08019 0
M  V30 2269 O 230.111 -0.65326 2.18963 0
M  V30 2270 C 230.321 2.90631 1.93221 0
M  V30 2271 C 231.669 3.43904 2.49028 0
M  V30 2272 O 232.693 2.92421 2.03393 0
M  V30 2273 O 231.552 4.33823 3.32356 0
M  V30 2274 H 228.646 0.634262 0.530698 0
M  V30 2275 H 231.192 1.64725 0.407883 0
M  V30 2276 H 229.964 3.70473 1.25958 0
M  V30 2277 H 229.587 2.8662 2.75563 0
M  V30 2278 N 230.584 -0.659388 1.43143 0
M  V30 2279 C 231.812 -1.44723 1.47861 0
M  V30 2280 C 232.227 -1.88563 0.0945886 0
M  V30 2281 O 231.584 -1.59108 -0.893915 0
M  V30 2282 C 231.635 -2.68627 2.41913 0
M  V30 2283 O 231.356 -2.26623 3.74932 0
M  V30 2284 C 232.857 -3.62045 2.55809 0
M  V30 2285 H 230.077 -0.444801 0.502387 0
M  V30 2286 H 232.621 -0.808916 1.87821 0
M  V30 2287 H 230.776 -3.28613 2.05164 0
M  V30 2288 H 231.19 -3.06745 4.2545 0
M  V30 2289 H 232.664 -4.45666 3.25708 0
M  V30 2290 H 233.141 -4.08981 1.60099 0
M  V30 2291 H 233.747 -3.07944 2.93344 0
M  V30 2292 N 232.062 -1.29571 -0.897171 0
M  V30 2293 C 233.29 -1.20583 -1.68129 0
M  V30 2294 C 233.705 0.233181 -1.87354 0
M  V30 2295 O 233.062 1.15579 -1.41236 0
M  V30 2296 C 233.113 -1.91772 -3.06441 0
M  V30 2297 O 232.834 -3.30053 -2.88091 0
M  V30 2298 C 234.335 -1.89291 -4.00854 0
M  V30 2299 H 231.555 -0.417826 -0.525036 0
M  V30 2300 H 234.099 -1.70987 -1.12177 0
M  V30 2301 H 232.254 -1.45196 -3.59161 0
M  V30 2302 H 232.668 -3.65942 -3.75748 0
M  V30 2303 H 234.142 -2.43662 -4.95311 0
M  V30 2304 H 234.619 -0.869014 -4.30517 0
M  V30 2305 H 235.225 -2.35622 -3.54066 0
M  V30 2306 N 233.54 1.10788 -1.12088 0
M  V30 2307 C 234.503 2.15207 -0.788577 0
M  V30 2308 C 235.503 1.59609 0.195317 0
M  V30 2309 O 236.693 1.74174 -0.0300193 0
M  V30 2310 C 233.825 3.4047 -0.171174 0
M  V30 2311 H 235.018 2.46116 -1.71368 0
M  V30 2312 H 232.571 1.26089 -0.923652 0
M  V30 2313 H 233.306 3.15176 0.763832 0
M  V30 2314 H 233.091 3.82109 -0.879514 0
M  V30 2315 H 234.581 4.17576 0.04496 0
M  V30 2316 N 235.018 0.912232 1.28515 0
M  V30 2317 C 235.951 0.343928 2.25593 0
M  V30 2318 C 236.929 -0.550994 1.5298 0
M  V30 2319 O 238.113 -0.494991 1.81885 0
M  V30 2320 C 235.24 -0.508525 3.34861 0
M  V30 2321 C 234.286 0.320808 4.25292 0
M  V30 2322 S 235.119 1.72658 5.06902 0
M  V30 2323 C 236.275 0.881394 6.19663 0
M  V30 2324 H 236.508 1.16674 2.73449 0
M  V30 2325 H 234.041 0.713384 1.36931 0
M  V30 2326 H 235.999 -0.994539 3.9827 0
M  V30 2327 H 234.66 -1.30571 2.85675 0
M  V30 2328 H 233.853 -0.330941 5.02912 0
M  V30 2329 H 233.455 0.74042 3.66598 0
M  V30 2330 H 235.747 0.110359 6.7741 0
M  V30 2331 H 236.69 1.63009 6.89082 0
M  V30 2332 H 237.098 0.430239 5.62858 0
M  V30 2333 N 236.496 -1.42363 0.676048 0
M  V30 2334 C 237.724 -2.05859 0.207268 0
M  V30 2335 C 238.139 -1.50796 -1.13605 0
M  V30 2336 O 237.496 -0.648265 -1.70598 0
M  V30 2337 C 237.547 -3.61248 0.134975 0
M  V30 2338 O 237.268 -4.1427 1.42521 0
M  V30 2339 C 238.769 -4.41859 -0.357151 0
M  V30 2340 H 235.989 -0.663431 0.100503 0
M  V30 2341 H 238.533 -1.82479 0.923136 0
M  V30 2342 H 236.688 -3.83735 -0.531588 0
M  V30 2343 H 237.102 -5.0815 1.29939 0
M  V30 2344 H 238.576 -5.50847 -0.356641 0
M  V30 2345 H 239.053 -4.16536 -1.39264 0
M  V30 2346 H 239.659 -4.24392 0.27772 0
M  V30 2347 N 237.974 -0.419461 -1.51915 0
M  V30 2348 C 239.385 0.0477853 -1.86639 0
M  V30 2349 C 239.736 1.43531 -1.33766 0
M  V30 2350 O 238.861 2.05401 -0.68113 0
M  V30 2351 C 239.456 0.0934885 -3.38671 0
M  V30 2352 C 238.015 0.505097 -3.72996 0
M  V30 2353 C 237.162 -0.313792 -2.75519 0
M  V30 2354 H 240.113 -0.636088 -1.45395 0
M  V30 2355 H 240.134 0.906667 -3.6954 0
M  V30 2356 H 239.646 -0.916501 -3.77123 0
M  V30 2357 H 237.747 1.52135 -3.40126 0
M  V30 2358 H 237.86 0.242309 -4.78487 0
M  V30 2359 H 236.224 0.225363 -2.53701 0
M  V30 2360 H 237.007 -1.32232 -3.16812 0
M  V30 2361 N 239.452 1.56882 -0.150215 0
M  V30 2362 C 240.382 2.19935 0.784284 0
M  V30 2363 C 241.363 1.14854 1.25469 0
M  V30 2364 O 242.548 1.43209 1.31168 0
M  V30 2365 C 239.678 2.82349 2.02229 0
M  V30 2366 C 238.632 3.93285 1.68853 0
M  V30 2367 C 237.958 4.42649 2.99944 0
M  V30 2368 C 239.258 5.13904 0.932714 0
M  V30 2369 H 240.952 2.9828 0.258781 0
M  V30 2370 H 238.498 1.43473 0.123029 0
M  V30 2371 H 240.451 3.25126 2.68088 0
M  V30 2372 H 239.175 2.0134 2.57157 0
M  V30 2373 H 237.834 3.5113 1.05371 0
M  V30 2374 H 237.482 3.58458 3.52869 0
M  V30 2375 H 237.182 5.17476 2.78374 0
M  V30 2376 H 238.706 4.88099 3.66868 0
M  V30 2377 H 240.12 5.53506 1.49345 0
M  V30 2378 H 238.517 5.94515 0.81684 0
M  V30 2379 H 239.587 4.84842 -0.0749568 0
M  V30 2380 N 240.93 -0.123565 1.57115 0
M  V30 2381 C 241.877 -1.15177 2.00007 0
M  V30 2382 C 242.847 -1.41403 0.871454 0
M  V30 2383 O 244.032 -1.53346 1.13533 0
M  V30 2384 C 241.172 -2.47436 2.40561 0
M  V30 2385 C 240.285 -2.28184 3.66819 0
M  V30 2386 C 239.42 -3.53641 3.96373 0
M  V30 2387 C 238.459 -3.29528 5.15827 0
M  V30 2388 N 237.596 -4.47175 5.41275 0
M  V30 2389 H 242.436 -0.779008 2.87638 0
M  V30 2390 H 239.973 -0.373166 1.42288 0
M  V30 2391 H 241.931 -3.24584 2.62109 0
M  V30 2392 H 240.561 -2.82614 1.55978 0
M  V30 2393 H 239.613 -1.41976 3.52912 0
M  V30 2394 H 240.925 -2.0634 4.5412 0
M  V30 2395 H 240.079 -4.39209 4.18545 0
M  V30 2396 H 238.818 -3.78512 3.07538 0
M  V30 2397 H 237.823 -2.42349 4.93505 0
M  V30 2398 H 239.048 -3.06031 6.06236 0
M  V30 2399 H 236.994 -4.72175 4.55397 0
M  V30 2400 H 236.911 -4.28419 6.22891 0
M  V30 2401 H 238.179 -5.3389 5.67963 0
M  V30 2402 N 242.408 -1.52605 -0.393616 0
M  V30 2403 C 243.636 -1.71294 -1.16043 0
M  V30 2404 C 244.051 -0.429259 -1.83855 0
M  V30 2405 O 243.408 0.595921 -1.72496 0
M  V30 2406 C 243.459 -2.8593 -2.21193 0
M  V30 2407 O 243.18 -4.09329 -1.56146 0
M  V30 2408 C 244.681 -3.16259 -3.10636 0
M  V30 2409 H 241.901 -0.573641 -0.348104 0
M  V30 2410 H 244.445 -1.99234 -0.461092 0
M  V30 2411 H 242.6 -2.60465 -2.86769 0
M  V30 2412 H 243.014 -4.73323 -2.25978 0
M  V30 2413 H 244.488 -3.99946 -3.80456 0
M  V30 2414 H 244.965 -2.3045 -3.73884 0
M  V30 2415 H 245.571 -3.43547 -2.50711 0
M  V30 2416 N 243.887 0.651787 -1.4349 0
M  V30 2417 C 244.819 1.77725 -1.44729 0
M  V30 2418 C 245.832 1.59141 -0.343231 0
M  V30 2419 O 247.021 1.67835 -0.607751 0
M  V30 2420 C 244.121 3.15172 -1.24579 0
M  V30 2421 C 243.294 3.60402 -2.47849 0
M  V30 2422 C 242.353 4.76656 -2.22902 0
M  V30 2423 O 241.379 4.86022 -2.96263 0
M  V30 2424 N 242.581 5.66958 -1.24656 0
M  V30 2425 H 245.346 1.77141 -2.41746 0
M  V30 2426 H 242.907 0.835678 -1.38665 0
M  V30 2427 H 244.899 3.90634 -1.0577 0
M  V30 2428 H 243.469 3.1052 -0.360015 0
M  V30 2429 H 242.689 2.75369 -2.82073 0
M  V30 2430 H 243.977 3.87368 -3.29884 0
M  V30 2431 H 243.375 5.62065 -0.640265 0
M  V30 2432 H 241.932 6.42135 -1.1183 0
M  V30 2433 N 245.365 1.30045 0.890287 0
M  V30 2434 C 246.297 1.11786 2.00091 0
M  V30 2435 C 247.31 0.0626307 1.62679 0
M  V30 2436 O 248.499 0.308112 1.75821 0
M  V30 2437 C 245.599 0.681527 3.31977 0
M  V30 2438 C 244.772 1.81735 3.97858 0
M  V30 2439 C 243.831 1.37045 5.08041 0
M  V30 2440 O 242.857 2.07677 5.29961 0
M  V30 2441 N 244.059 0.246525 5.79976 0
M  V30 2442 H 246.824 2.07441 2.16306 0
M  V30 2443 H 244.385 1.2211 1.06305 0
M  V30 2444 H 246.377 0.365675 4.03045 0
M  V30 2445 H 244.947 -0.182828 3.12065 0
M  V30 2446 H 244.167 2.30159 3.20032 0
M  V30 2447 H 245.455 2.57865 4.38615 0
M  V30 2448 H 244.853 -0.34215 5.64664 0
M  V30 2449 H 243.41 -0.00990438 6.51799 0
M  V30 2450 N 246.843 -1.10192 1.12674 0
M  V30 2451 C 247.773 -2.18652 0.819362 0
M  V30 2452 C 248.754 -1.68698 -0.217915 0
M  V30 2453 O 249.939 -1.94041 -0.0785581 0
M  V30 2454 C 247.069 -3.46202 0.27594 0
M  V30 2455 C 246.023 -4.09444 1.24656 0
M  V30 2456 C 245.349 -5.31725 0.563258 0
M  V30 2457 C 246.649 -4.52863 2.60217 0
M  V30 2458 H 248.343 -2.44622 1.72628 0
M  V30 2459 H 245.889 -1.17571 0.831451 0
M  V30 2460 H 247.842 -4.21372 0.0486149 0
M  V30 2461 H 246.566 -3.1973 -0.666331 0
M  V30 2462 H 245.225 -3.36284 1.45974 0
M  V30 2463 H 244.873 -5.0153 -0.384235 0
M  V30 2464 H 244.573 -5.74991 1.21075 0
M  V30 2465 H 246.097 -6.09624 0.34503 0
M  V30 2466 H 247.511 -5.19294 2.42913 0
M  V30 2467 H 245.908 -5.06986 3.21068 0
M  V30 2468 H 246.978 -3.65656 3.18471 0
M  V30 2469 N 248.321 -0.919034 -1.28029 0
M  V30 2470 C 249.284 -0.416182 -2.2539 0
M  V30 2471 C 250.284 0.460438 -1.54067 0
M  V30 2472 O 251.474 0.262744 -1.72207 0
M  V30 2473 C 248.606 0.402707 -3.38513 0
M  V30 2474 H 249.799 -1.27629 -2.71387 0
M  V30 2475 H 247.352 -0.698919 -1.39803 0
M  V30 2476 H 248.087 1.282 -2.97885 0
M  V30 2477 H 247.872 -0.225698 -3.9145 0
M  V30 2478 H 249.362 0.745191 -4.10897 0
M  V30 2479 N 249.799 1.42003 -0.683588 0
M  V30 2480 C 251.048 2.00638 -0.206681 0
M  V30 2481 C 251.361 1.5472 1.19671 0
M  V30 2482 O 252.567 2.05833 1.77045 0
M  V30 2483 C 251.023 3.58487 -0.318632 0
M  V30 2484 C 250.631 4.1339 -1.72663 0
M  V30 2485 C 252.375 4.24384 0.0991141 0
M  V30 2486 C 250.282 5.63633 -1.79087 0
M  V30 2487 H 249.212 0.750408 -0.0735107 0
M  V30 2488 H 251.863 1.62624 -0.850048 0
M  V30 2489 H 250.245 3.94047 0.392781 0
M  V30 2490 H 251.419 3.89273 -2.46583 0
M  V30 2491 H 249.734 3.59976 -2.09299 0
M  V30 2492 H 252.331 5.34652 0.0713833 0
M  V30 2493 H 252.674 4.00505 1.13586 0
M  V30 2494 H 253.207 3.93816 -0.561599 0
M  V30 2495 H 249.946 5.92323 -2.80774 0
M  V30 2496 H 249.466 5.89714 -1.09535 0
M  V30 2497 H 251.145 6.28201 -1.5483 0
M  V30 2498 N 251.277 0.427512 1.51691 0
M  V30 2499 C 252.224 -0.388867 2.275 0
M  V30 2500 C 253.194 -1.02532 1.30677 0
M  V30 2501 O 254.379 -1.0461 1.59566 0
M  V30 2502 C 251.519 -1.48954 3.11298 0
M  V30 2503 C 250.632 -0.872194 4.23104 0
M  V30 2504 C 249.767 -1.94709 4.94228 0
M  V30 2505 C 248.806 -1.30766 5.97969 0
M  V30 2506 N 247.943 -2.32349 6.62539 0
M  V30 2507 H 252.783 0.263997 2.96828 0
M  V30 2508 H 250.32 0.142033 1.46413 0
M  V30 2509 H 252.278 -2.13887 3.58201 0
M  V30 2510 H 250.908 -2.11217 2.44105 0
M  V30 2511 H 249.96 -0.111419 3.80237 0
M  V30 2512 H 251.272 -0.365264 4.97461 0
M  V30 2513 H 250.426 -2.67327 5.44629 0
M  V30 2514 H 249.165 -2.48773 4.1948 0
M  V30 2515 H 248.17 -0.566902 5.4687 0
M  V30 2516 H 249.395 -0.774483 6.74669 0
M  V30 2517 H 247.341 -2.85511 5.90609 0
M  V30 2518 H 247.258 -1.8652 7.3263 0
M  V30 2519 H 248.526 -3.04481 7.17574 0
M  V30 2520 N 252.755 -1.56801 0.158532 0
M  V30 2521 C 253.685 -2.20347 -0.772609 0
M  V30 2522 C 254.666 -1.15518 -1.24859 0
M  V30 2523 O 255.851 -1.43902 -1.30406 0
M  V30 2524 C 252.981 -2.83417 -2.00729 0
M  V30 2525 C 251.935 -3.94174 -1.66765 0
M  V30 2526 C 251.261 -4.44233 -2.97592 0
M  V30 2527 C 252.561 -5.14392 -0.905447 0
M  V30 2528 H 254.255 -2.98413 -0.242959 0
M  V30 2529 H 251.801 -1.43537 -0.115419 0
M  V30 2530 H 253.754 -3.26543 -2.6636 0
M  V30 2531 H 252.478 -2.02701 -2.56086 0
M  V30 2532 H 251.137 -3.51684 -1.03508 0
M  V30 2533 H 250.785 -3.60325 -3.50963 0
M  V30 2534 H 250.485 -5.18945 -2.75626 0
M  V30 2535 H 252.009 -4.90037 -3.64274 0
M  V30 2536 H 253.423 -5.5429 -1.46408 0
M  V30 2537 H 251.82 -5.9494 -0.7853 0
M  V30 2538 H 252.89 -4.84795 0.100668 0
M  V30 2539 N 254.233 0.115231 -1.57178 0
M  V30 2540 C 255.482 0.820945 -1.84237 0
M  V30 2541 C 255.795 1.80866 -0.744761 0
M  V30 2542 O 257.001 2.56083 -0.901871 0
M  V30 2543 C 255.457 1.51072 -3.26658 0
M  V30 2544 C 255.065 0.563795 -4.44438 0
M  V30 2545 C 256.809 2.20134 -3.62962 0
M  V30 2546 C 254.716 1.25701 -5.77887 0
M  V30 2547 H 253.646 0.310328 -0.687177 0
M  V30 2548 H 256.297 0.0737134 -1.83352 0
M  V30 2549 H 254.679 2.30471 -3.22024 0
M  V30 2550 H 255.853 -0.197247 -4.60378 0
M  V30 2551 H 254.168 -0.0200638 -4.16395 0
M  V30 2552 H 256.765 2.72696 -4.59936 0
M  V30 2553 H 257.108 2.98107 -2.90582 0
M  V30 2554 H 257.641 1.47619 -3.69396 0
M  V30 2555 H 254.38 0.518493 -6.53446 0
M  V30 2556 H 253.9 1.98997 -5.65827 0
M  V30 2557 H 255.579 1.78915 -6.2177 0
M  V30 2558 N 255.711 1.52812 0.385517 0
M  V30 2559 C 256.674 1.77188 1.45386 0
M  V30 2560 C 257.674 0.641953 1.4743 0
M  V30 2561 O 258.864 0.910033 1.4854 0
M  V30 2562 C 255.996 1.87582 2.8465 0
M  V30 2563 H 257.189 2.72583 1.25054 0
M  V30 2564 H 254.742 1.43586 0.617467 0
M  V30 2565 H 255.477 0.941849 3.10322 0
M  V30 2566 H 255.262 2.69748 2.84567 0
M  V30 2567 H 256.752 2.08102 3.62054 0
M  V30 2568 N 257.189 -0.644168 1.43834 0
M  V30 2569 C 258.121 -1.76955 1.45669 0
M  V30 2570 C 259.134 -1.58956 0.351666 0
M  V30 2571 O 260.323 -1.6751 0.616644 0
M  V30 2572 C 257.423 -3.14507 1.26248 0
M  V30 2573 C 256.596 -3.59083 2.49757 0
M  V30 2574 C 255.655 -4.75467 2.25427 0
M  V30 2575 O 254.681 -4.84444 2.98836 0
M  V30 2576 N 255.883 -5.66289 1.27661 0
M  V30 2577 H 258.648 -1.75856 2.42682 0
M  V30 2578 H 256.209 -0.828312 1.39106 0
M  V30 2579 H 258.201 -3.90067 1.0784 0
M  V30 2580 H 256.771 -3.10325 0.376478 0
M  V30 2581 H 255.991 -2.7387 2.8353 0
M  V30 2582 H 257.279 -3.85613 3.31934 0
M  V30 2583 H 256.677 -5.61718 0.670064 0
M  V30 2584 H 255.234 -6.41533 1.15234 0
M  V30 2585 N 258.668 -1.30515 -0.883378 0
M  V30 2586 C 259.917 -1.18795 -1.63005 0
M  V30 2587 C 260.23 0.255923 -1.93919 0
M  V30 2588 O 261.436 0.494654 -2.66956 0
M  V30 2589 C 259.892 -2.07878 -2.93794 0
M  V30 2590 C 259.5 -3.57184 -2.70414 0
M  V30 2591 C 261.244 -2.04924 -3.71761 0
M  V30 2592 C 259.151 -4.38317 -3.97029 0
M  V30 2593 H 258.081 -0.441031 -0.611562 0
M  V30 2594 H 260.732 -1.55275 -0.977854 0
M  V30 2595 H 259.114 -1.64283 -3.60315 0
M  V30 2596 H 260.288 -4.08937 -2.12384 0
M  V30 2597 H 258.603 -3.61976 -2.0582 0
M  V30 2598 H 261.2 -2.62792 -4.65665 0
M  V30 2599 H 261.543 -1.0331 -4.03277 0
M  V30 2600 H 262.076 -2.46649 -3.12104 0
M  V30 2601 H 258.815 -5.40632 -3.70671 0
M  V30 2602 H 258.335 -3.91326 -4.54559 0
M  V30 2603 H 260.014 -4.49834 -4.65036 0
M  V30 2604 N 260.146 1.09593 -1.13257 0
M  V30 2605 C 261.109 2.14359 -0.811358 0
M  V30 2606 C 262.109 1.59808 0.178377 0
M  V30 2607 O 263.299 1.74132 -0.0484911 0
M  V30 2608 C 260.431 3.40269 -0.207276 0
M  V30 2609 H 261.624 2.44284 -1.73969 0
M  V30 2610 H 259.177 1.25102 -0.936973 0
M  V30 2611 H 259.912 3.15969 0.73036 0
M  V30 2612 H 259.697 3.81154 -0.919992 0
M  V30 2613 H 261.187 4.176 0.000667944 0
M  V30 2614 N 261.624 0.925811 1.2754 0
M  V30 2615 C 263.035 0.610102 1.7645 0
M  V30 2616 C 263.386 -0.874723 1.75622 0
M  V30 2617 O 262.511 -1.68444 1.35851 0
M  V30 2618 C 263.106 1.10073 3.20421 0
M  V30 2619 C 261.665 0.835723 3.67005 0
M  V30 2620 C 260.812 1.26054 2.46993 0
M  V30 2621 H 263.763 1.10579 1.13833 0
M  V30 2622 H 263.784 0.447557 3.77859 0
M  V30 2623 H 263.296 2.18143 3.20991 0
M  V30 2624 H 261.397 -0.231249 3.71882 0
M  V30 2625 H 261.51 1.45193 4.56569 0
M  V30 2626 H 259.874 0.679111 2.45479 0
M  V30 2627 H 260.657 2.34984 2.50275 0
M  V30 2628 N 263.102 -1.41638 0.69111 0
M  V30 2629 C 264.327 -2.06148 0.227583 0
M  V30 2630 C 264.752 -1.51652 -1.11281 0
M  V30 2631 O 264.11 -0.64164 -1.69566 0
M  V30 2632 C 264.158 -3.60095 0.190858 0
M  V30 2633 O 263.262 -4.03845 -0.835664 0
M  V30 2634 H 262.603 -0.654434 0.112306 0
M  V30 2635 H 265.133 -1.81484 0.944714 0
M  V30 2636 H 265.143 -4.07995 0.020207 0
M  V30 2637 H 263.818 -3.99129 1.16915 0
M  V30 2638 H 262.395 -3.67458 -0.63473 0
M  V30 2639 N 264.58 -0.43555 -1.51462 0
M  V30 2640 C 265.49 0.383001 -2.31453 0
M  V30 2641 C 266.506 1.02931 -1.4029 0
M  V30 2642 O 267.682 1.02507 -1.73362 0
M  V30 2643 C 264.747 1.47043 -3.13973 0
M  V30 2644 C 263.808 0.844433 -4.20913 0
M  V30 2645 C 263.041 1.88004 -4.9949 0
M  V30 2646 O 263.264 3.10199 -4.78678 0
M  V30 2647 O 262.198 1.47157 -5.83634 0
M  V30 2648 H 266.024 -0.269964 -3.02498 0
M  V30 2649 H 263.609 -0.19813 -1.4808 0
M  V30 2650 H 265.491 2.10113 -3.65281 0
M  V30 2651 H 264.166 2.10751 -2.45695 0
M  V30 2652 H 263.073 0.175729 -3.73687 0
M  V30 2653 H 264.406 0.250869 -4.9156 0
M  V30 2654 N 266.058 1.56714 -0.166846 0
M  V30 2655 C 267.286 2.0112 0.485644 0
M  V30 2656 C 267.701 1.04705 1.57106 0
M  V30 2657 O 267.058 0.0471923 1.82439 0
M  V30 2658 C 267.109 3.45361 1.06808 0
M  V30 2659 O 266.83 4.38092 0.0259995 0
M  V30 2660 C 268.331 4.05145 1.79924 0
M  V30 2661 H 265.551 0.65931 0.124704 0
M  V30 2662 H 268.095 2.02746 -0.267262 0
M  V30 2663 H 266.25 3.44524 1.7715 0
M  V30 2664 H 266.664 5.22519 0.455398 0
M  V30 2665 H 268.138 5.08009 2.15942 0
M  V30 2666 H 268.615 3.46982 2.69258 0
M  V30 2667 H 269.221 4.09672 1.14234 0
M  V30 2668 N 267.536 -0.106894 1.57237 0
M  V30 2669 C 268.764 -0.826389 1.8968 0
M  V30 2670 C 269.179 -1.72856 0.759353 0
M  V30 2671 O 268.536 -1.80503 -0.269263 0
M  V30 2672 C 268.587 -1.64967 3.21665 0
M  V30 2673 O 268.308 -0.783804 4.31031 0
M  V30 2674 C 269.809 -2.47326 3.67892 0
M  V30 2675 H 267.029 -0.236927 0.627779 0
M  V30 2676 H 269.573 -0.0876593 2.04312 0
M  V30 2677 H 267.728 -2.34103 3.08666 0
M  V30 2678 H 268.142 -1.35284 5.06753 0
M  V30 2679 H 269.616 -3.00604 4.6297 0
M  V30 2680 H 270.093 -3.25247 2.95146 0
M  V30 2681 H 270.699 -1.83411 3.83719 0
M  V30 2682 N 269.014 -1.53014 -0.377408 0
M  V30 2683 C 269.977 -1.77957 -1.44444 0
M  V30 2684 C 270.977 -0.649763 -1.47087 0
M  V30 2685 O 272.167 -0.917897 -1.48055 0
M  V30 2686 C 269.299 -1.89089 -2.83651 0
M  V30 2687 H 270.492 -2.73243 -1.23606 0
M  V30 2688 H 268.045 -1.43912 -0.609844 0
M  V30 2689 H 268.78 -0.958293 -3.09818 0
M  V30 2690 H 268.565 -2.71254 -2.83132 0
M  V30 2691 H 270.055 -2.1002 -3.60945 0
M  V30 2692 N 270.492 0.636531 -1.44174 0
M  V30 2693 C 271.72 1.42353 -1.50144 0
M  V30 2694 C 272.135 1.88389 -0.124575 0
M  V30 2695 O 271.492 1.6051 0.868489 0
M  V30 2696 C 271.543 2.64744 -2.46156 0
M  V30 2697 O 271.264 2.20629 -3.7849 0
M  V30 2698 C 272.765 3.57929 -2.61537 0
M  V30 2699 H 269.985 0.436752 -0.5094 0
M  V30 2700 H 272.529 0.778933 -1.89084 0
M  V30 2701 H 270.684 3.25307 -2.10366 0
M  V30 2702 H 271.098 2.99938 -4.30276 0
M  V30 2703 H 272.572 4.40428 -3.32757 0
M  V30 2704 H 273.049 4.06382 -1.66585 0
M  V30 2705 H 273.655 3.03238 -2.98206 0
M  V30 2706 N 271.97 1.30982 0.876444 0
M  V30 2707 C 272.88 1.2003 2.01569 0
M  V30 2708 C 273.896 0.11838 1.73597 0
M  V30 2709 O 275.072 0.33495 1.98595 0
M  V30 2710 C 272.137 0.901637 3.34771 0
M  V30 2711 C 271.198 2.06979 3.76109 0
M  V30 2712 C 270.431 1.78529 5.02954 0
M  V30 2713 O 270.654 0.717296 5.65872 0
M  V30 2714 O 269.588 2.64019 5.40905 0
M  V30 2715 H 273.414 2.15753 2.13739 0
M  V30 2716 H 270.999 1.10658 1.00375 0
M  V30 2717 H 272.881 0.750645 4.1466 0
M  V30 2718 H 271.556 -0.0256141 3.2369 0
M  V30 2719 H 270.463 2.27616 2.96887 0
M  V30 2720 H 271.796 2.97907 3.91807 0
M  V30 2721 N 273.449 -1.08991 1.13837 0
M  V30 2722 C 274.674 -1.85551 0.926585 0
M  V30 2723 C 275.099 -1.80782 -0.519566 0
M  V30 2724 O 274.457 -1.18855 -1.36906 0
M  V30 2725 C 274.505 -3.31266 1.42462 0
M  V30 2726 O 273.609 -4.07822 0.612789 0
M  V30 2727 H 272.95 -0.575192 0.331738 0
M  V30 2728 H 275.48 -1.37604 1.51414 0
M  V30 2729 H 275.49 -3.82112 1.43019 0
M  V30 2730 H 274.165 -3.34052 2.47754 0
M  V30 2731 H 272.742 -3.66731 0.675463 0
M  V30 2732 N 274.927 -0.932562 -1.27047 0
M  V30 2733 C 276.204 -0.49377 -1.89265 0
M  V30 2734 C 276.584 1.02833 -1.8436 0
M  V30 2735 O 275.932 1.88461 -1.29209 0
M  V30 2736 C 276.142 -1.04536 -3.32976 0
M  V30 2737 C 277.49 -1.10879 -4.09867 0
M  V30 2738 O 278.514 -0.995327 -3.42011 0
M  V30 2739 O 277.373 -1.28417 -5.31198 0
M  V30 2740 H 274.467 -0.159596 -0.811454 0
M  V30 2741 H 277.013 -1.02457 -1.3528 0
M  V30 2742 H 275.785 -2.08913 -3.30864 0
M  V30 2743 H 275.408 -0.496494 -3.94488 0
M  V30 2744 N 276.405 1.4127 -0.698611 0
M  V30 2745 C 277.337 2.292 0.00399731 0
M  V30 2746 C 278.35 1.44944 0.741279 0
M  V30 2747 O 279.539 1.68416 0.591477 0
M  V30 2748 C 276.639 3.22875 1.02979 0
M  V30 2749 C 275.812 4.35904 0.36151 0
M  V30 2750 C 274.871 5.10134 1.29033 0
M  V30 2751 O 273.897 5.63809 0.781562 0
M  V30 2752 N 275.099 5.17885 2.6225 0
M  V30 2753 H 277.864 2.9014 -0.750921 0
M  V30 2754 H 275.425 1.52455 -0.544882 0
M  V30 2755 H 277.417 3.69404 1.65296 0
M  V30 2756 H 275.987 2.63221 1.68622 0
M  V30 2757 H 275.207 3.91719 -0.441584 0
M  V30 2758 H 276.495 5.08696 -0.103055 0
M  V30 2759 H 275.893 4.7573 3.061 0
M  V30 2760 H 274.45 5.6798 3.19754 0
M  V30 2761 N 277.883 0.443576 1.51229 0
M  V30 2762 C 279.131 -0.120557 2.0174 0
M  V30 2763 C 279.452 -1.42665 1.32935 0
M  V30 2764 O 278.722 -1.9028 0.465866 0
M  V30 2765 H 277.302 -0.0475426 0.745486 0
M  V30 2766 H 279.964 0.587711 1.85828 0
M  V30 2767 H 279.06 -0.291972 3.10731 0
M  V30 2768 N 279.361 -1.56624 0.175154 0
M  V30 2769 C 280.607 -1.9729 -0.469506 0
M  V30 2770 C 280.94 -1.06128 -1.62636 0
M  V30 2771 O 280.215 -0.109183 -1.94193 0
M  V30 2772 C 280.498 -3.47375 -0.948804 0
M  V30 2773 C 280.351 -4.49317 0.208491 0
M  V30 2774 C 281.67 -4.00652 -1.82116 0
M  V30 2775 H 278.789 -0.717317 -0.16919 0
M  V30 2776 H 281.431 -1.88184 0.262062 0
M  V30 2777 H 279.581 -3.55267 -1.57219 0
M  V30 2778 H 281.253 -4.53482 0.845682 0
M  V30 2779 H 279.496 -4.25121 0.863395 0
M  V30 2780 H 280.167 -5.51741 -0.169059 0
M  V30 2781 H 282.643 -3.95416 -1.2956 0
M  V30 2782 H 281.519 -5.06075 -2.12554 0
M  V30 2783 H 281.78 -3.44699 -2.7683 0
M  V30 2784 N 280.839 0.0985539 -1.57292 0
M  V30 2785 C 282.085 0.803867 -1.86188 0
M  V30 2786 C 282.418 1.78549 -0.763794 0
M  V30 2787 O 281.693 1.93153 0.22855 0
M  V30 2788 C 281.976 1.53568 -3.25713 0
M  V30 2789 C 281.829 0.572277 -4.46145 0
M  V30 2790 C 283.148 2.48708 -3.63087 0
M  V30 2791 H 280.267 0.290781 -0.677211 0
M  V30 2792 H 282.909 0.0675783 -1.8988 0
M  V30 2793 H 281.059 2.16332 -3.22696 0
M  V30 2794 H 282.731 -0.0480894 -4.61275 0
M  V30 2795 H 280.974 -0.114618 -4.33649 0
M  V30 2796 H 281.645 1.12139 -5.40489 0
M  V30 2797 H 284.121 1.96039 -3.67026 0
M  V30 2798 H 282.997 2.96932 -4.61652 0
M  V30 2799 H 283.258 3.32309 -2.91588 0
M  V30 2800 N 282.317 1.53212 0.369288 0
M  V30 2801 C 283.249 1.75668 1.47219 0
M  V30 2802 C 284.262 0.637387 1.49804 0
M  V30 2803 O 285.451 0.913561 1.5335 0
M  V30 2804 C 282.551 1.81818 2.85999 0
M  V30 2805 C 281.724 3.11409 3.07153 0
M  V30 2806 C 280.783 3.08849 4.26026 0
M  V30 2807 O 279.809 3.82659 4.2138 0
M  V30 2808 N 281.011 2.29409 5.33246 0
M  V30 2809 H 283.776 2.70832 1.28337 0
M  V30 2810 H 281.337 1.51944 0.55898 0
M  V30 2811 H 283.329 1.77588 3.63655 0
M  V30 2812 H 281.899 0.939544 2.98146 0
M  V30 2813 H 281.119 3.28971 2.1719 0
M  V30 2814 H 282.407 3.97059 3.18154 0
M  V30 2815 H 281.805 1.68946 5.39883 0
M  V30 2816 H 280.362 2.31001 6.09493 0
M  V30 2817 N 283.795 -0.628877 1.44509 0
M  V30 2818 C 284.725 -1.75187 1.54376 0
M  V30 2819 C 285.706 -1.65411 0.396618 0
M  V30 2820 O 286.891 -1.84137 0.617031 0
M  V30 2821 C 284.021 -3.13725 1.48976 0
M  V30 2822 C 282.975 -3.38291 2.62189 0
M  V30 2823 C 282.301 -4.76883 2.41841 0
M  V30 2824 C 283.601 -3.30632 4.04326 0
M  V30 2825 H 285.295 -1.67187 2.48373 0
M  V30 2826 H 282.841 -0.802909 1.19538 0
M  V30 2827 H 284.794 -3.92064 1.54478 0
M  V30 2828 H 283.518 -3.22515 0.514961 0
M  V30 2829 H 282.177 -2.62334 2.56079 0
M  V30 2830 H 281.825 -4.82378 1.42548 0
M  V30 2831 H 281.525 -4.94278 3.17747 0
M  V30 2832 H 283.049 -5.57449 2.49165 0
M  V30 2833 H 284.463 -3.98873 4.11793 0
M  V30 2834 H 282.86 -3.59561 4.80454 0
M  V30 2835 H 283.93 -2.28404 4.27738 0
M  V30 2836 N 285.273 -1.31445 -0.869486 0
M  V30 2837 C 286.236 -1.19094 -1.9583 0
M  V30 2838 C 287.236 -0.117906 -1.60367 0
M  V30 2839 O 288.426 -0.367208 -1.70286 0
M  V30 2840 C 285.558 -0.828165 -3.30688 0
M  V30 2841 H 286.751 -2.15842 -2.08212 0
M  V30 2842 H 284.304 -1.15063 -1.05784 0
M  V30 2843 H 285.039 0.138142 -3.24006 0
M  V30 2844 H 284.824 -1.6038 -3.578 0
M  V30 2845 H 286.314 -0.765658 -4.10521 0
M  V30 2846 N 286.751 1.08385 -1.14413 0
M  V30 2847 C 287.979 1.84517 -0.936001 0
M  V30 2848 C 288.394 1.81626 0.515503 0
M  V30 2849 O 287.751 1.22008 1.35721 0
M  V30 2850 C 287.802 3.32049 -1.42918 0
M  V30 2851 O 287.523 3.34951 -2.82381 0
M  V30 2852 C 289.024 4.24986 -1.26103 0
M  V30 2853 H 286.244 0.582491 -0.333084 0
M  V30 2854 H 288.788 1.36885 -1.5193 0
M  V30 2855 H 286.943 3.7707 -0.888641 0
M  V30 2856 H 287.357 4.27048 -3.04517 0
M  V30 2857 H 288.831 5.26615 -1.6547 0
M  V30 2858 H 289.308 4.38726 -0.20392 0
M  V30 2859 H 289.914 3.85791 -1.79012 0
M  V30 2860 N 288.23 0.939286 1.26551 0
M  V30 2861 C 289.476 0.586715 1.94128 0
M  V30 2862 C 289.809 -0.8717 1.73537 0
M  V30 2863 O 289.084 -1.62339 1.07127 0
M  V30 2864 C 289.367 0.927497 3.4795 0
M  V30 2865 C 289.22 2.44052 3.77834 0
M  V30 2866 C 290.539 0.441569 4.37879 0
M  V30 2867 H 287.658 0.21463 0.705055 0
M  V30 2868 H 290.3 1.17316 1.49455 0
M  V30 2869 H 288.45 0.428431 3.8613 0
M  V30 2870 H 290.122 3.01216 3.4938 0
M  V30 2871 H 288.365 2.8848 3.23978 0
M  V30 2872 H 289.036 2.62947 4.85348 0
M  V30 2873 H 291.512 0.869448 4.06915 0
M  V30 2874 H 290.388 0.708856 5.44304 0
M  V30 2875 H 290.649 -0.658467 4.37169 0
M  V30 2876 N 289.708 -1.40897 0.706093 0
M  V30 2877 C 290.671 -2.29131 0.0562841 0
M  V30 2878 C 291.671 -1.44901 -0.697166 0
M  V30 2879 O 292.861 -1.65926 -0.530484 0
M  V30 2880 C 289.993 -3.27957 -0.93043 0
M  V30 2881 H 291.186 -2.88091 0.833284 0
M  V30 2882 H 288.739 -1.4906 0.470192 0
M  V30 2883 H 289.474 -2.73997 -1.73482 0
M  V30 2884 H 289.259 -3.90124 -0.393166 0
M  V30 2885 H 290.749 -3.94049 -1.38256 0
M  V30 2886 N 291.186 -0.45159 -1.50991 0
M  V30 2887 C 292.118 0.388634 -2.25881 0
M  V30 2888 C 293.131 0.974041 -1.30446 0
M  V30 2889 O 294.32 0.865758 -1.56099 0
M  V30 2890 C 291.42 1.5571 -3.01011 0
M  V30 2891 C 290.593 1.08801 -4.23652 0
M  V30 2892 C 289.652 2.12825 -4.8124 0
M  V30 2893 O 288.678 1.71678 -5.42693 0
M  V30 2894 N 289.88 3.45453 -4.66522 0
M  V30 2895 H 292.645 -0.25329 -2.98628 0
M  V30 2896 H 290.206 -0.281268 -1.59438 0
M  V30 2897 H 292.198 2.24952 -3.3642 0
M  V30 2898 H 290.768 2.10409 -2.31186 0
M  V30 2899 H 289.988 0.22215 -3.93574 0
M  V30 2900 H 291.276 0.752213 -5.03209 0
M  V30 2901 H 290.674 3.81605 -4.17605 0
M  V30 2902 H 289.231 4.10549 -5.06254 0
M  V30 2903 N 292.664 1.56529 -0.183458 0
M  V30 2904 C 293.91 1.97537 0.459036 0
M  V30 2905 C 294.243 1.06989 1.62071 0
M  V30 2906 O 293.518 0.11948 1.94133 0
M  V30 2907 C 293.801 3.47874 0.930368 0
M  V30 2908 C 293.654 4.492 -0.232317 0
M  V30 2909 C 294.973 4.01612 1.79989 0
M  V30 2910 H 292.092 0.718204 0.165383 0
M  V30 2911 H 294.734 1.88042 -0.272038 0
M  V30 2912 H 292.884 3.56095 1.55333 0
M  V30 2913 H 294.556 4.53027 -0.86972 0
M  V30 2914 H 292.799 4.24657 -0.885928 0
M  V30 2915 H 293.47 5.51823 0.139796 0
M  V30 2916 H 295.946 3.96097 1.27461 0
M  V30 2917 H 294.822 5.07195 2.09867 0
M  V30 2918 H 295.083 3.46163 2.74998 0
M  V30 2919 N 294.142 -0.090211 1.57342 0
M  V30 2920 C 295.558 -0.444547 1.53284 0
M  V30 2921 C 295.758 -1.80238 0.900914 0
M  V30 2922 O 294.814 -2.4759 0.495513 0
M  V30 2923 C 296.127 -0.402543 2.97993 0
M  V30 2924 C 297.675 -0.48405 3.09234 0
M  V30 2925 C 298.15 -0.472144 4.5556 0
M  V30 2926 N 299.641 -0.532757 4.60126 0
M  V30 2927 C 300.376 -0.545462 5.708 0
M  V30 2928 N 299.872 -0.514082 6.9089 0
M  V30 2929 N 301.665 -0.59064 5.58988 0
M  V30 2930 H 293.816 0.799121 1.96794 0
M  V30 2931 H 296.079 0.297965 0.899956 0
M  V30 2932 H 295.785 0.528106 3.47712 0
M  V30 2933 H 295.659 -1.21969 3.56936 0
M  V30 2934 H 298.046 -1.40512 2.595 0
M  V30 2935 H 298.127 0.361328 2.53235 0
M  V30 2936 H 297.771 0.445 5.05947 0
M  V30 2937 H 297.701 -1.3348 5.09402 0
M  V30 2938 H 300.192 -0.562006 3.73698 0
M  V30 2939 H 300.505 -0.527195 7.71 0
M  V30 2940 H 298.85 -0.481054 6.93333 0
M  V30 2941 H 302.041 -0.61272 4.64073 0
M  V30 2942 H 302.214 -0.597073 6.45243 0
M  V30 2943 N 295.62 -1.53406 -0.361157 0
M  V30 2944 C 296.552 -1.76446 -1.46286 0
M  V30 2945 C 297.565 -0.645322 -1.49464 0
M  V30 2946 O 298.754 -0.921681 -1.52864 0
M  V30 2947 C 295.854 -1.83332 -2.85031 0
M  V30 2948 C 295.027 -3.13033 -3.05498 0
M  V30 2949 C 294.086 -3.11104 -4.24383 0
M  V30 2950 O 293.112 -3.84888 -4.19344 0
M  V30 2951 N 294.314 -2.32234 -5.32022 0
M  V30 2952 H 297.079 -2.71508 -1.26899 0
M  V30 2953 H 294.64 -1.52238 -0.550915 0
M  V30 2954 H 296.632 -1.79514 -3.62708 0
M  V30 2955 H 295.202 -0.955342 -2.97644 0
M  V30 2956 H 294.422 -3.30119 -2.15442 0
M  V30 2957 H 295.71 -3.9874 -3.16044 0
M  V30 2958 H 295.108 -1.71807 -5.38979 0
M  V30 2959 H 293.665 -2.3423 -6.08259 0
M  V30 2960 N 297.098 0.621204 -1.44841 0
M  V30 2961 C 298.346 1.37783 -1.47852 0
M  V30 2962 C 298.667 1.94653 -0.116224 0
M  V30 2963 O 297.937 1.76367 0.852737 0
M  V30 2964 H 296.517 0.511453 -0.544449 0
M  V30 2965 H 299.179 0.730446 -1.80694 0
M  V30 2966 H 298.275 2.20414 -2.20961 0
M  V30 2967 N 298.576 1.31904 0.862503 0
M  V30 2968 C 299.804 1.24998 1.64873 0
M  V30 2969 C 300.219 -0.183425 1.87907 0
M  V30 2970 O 299.576 -1.11794 1.44251 0
M  V30 2971 C 299.627 1.99829 3.01248 0
M  V30 2972 O 299.348 3.37575 2.79239 0
M  V30 2973 C 300.849 1.99852 3.95694 0
M  V30 2974 H 298.069 0.431599 0.513773 0
M  V30 2975 H 300.613 1.73901 1.07604 0
M  V30 2976 H 298.768 1.54668 3.55185 0
M  V30 2977 H 299.182 3.75776 3.65914 0
M  V30 2978 H 300.656 2.56709 4.88676 0
M  V30 2979 H 301.133 0.982852 4.28062 0
M  V30 2980 H 301.739 2.44926 3.47694 0
M  V30 2981 N 300.054 -1.07777 1.14986 0
M  V30 2982 C 300.984 -2.16865 0.865557 0
M  V30 2983 C 301.965 -1.69123 -0.182083 0
M  V30 2984 O 303.15 -1.94164 -0.0373815 0
M  V30 2985 C 300.28 -3.45539 0.349313 0
M  V30 2986 C 299.234 -4.06708 1.33313 0
M  V30 2987 C 298.56 -5.30411 0.675918 0
M  V30 2988 C 299.86 -4.47241 2.69764 0
M  V30 2989 H 301.554 -2.40905 1.77778 0
M  V30 2990 H 299.1 -1.15781 0.856203 0
M  V30 2991 H 301.053 -4.21174 0.137983 0
M  V30 2992 H 299.777 -3.21072 -0.598362 0
M  V30 2993 H 298.436 -3.33112 1.53075 0
M  V30 2994 H 298.084 -5.02232 -0.277767 0
M  V30 2995 H 297.784 -5.72293 1.33244 0
M  V30 2996 H 299.308 -6.08755 0.474262 0
M  V30 2997 H 300.722 -5.14025 2.53873 0
M  V30 2998 H 299.119 -5.00062 3.3175 0
M  V30 2999 H 300.189 -3.58818 3.26156 0
M  V30 3000 N 301.532 -0.945985 -1.26051 0
M  V30 3001 C 302.948 -0.649045 -1.45807 0
M  V30 3002 C 303.148 0.796158 -1.85104 0
M  V30 3003 O 302.204 1.57233 -1.97571 0
M  V30 3004 C 303.517 -1.61458 -2.53677 0
M  V30 3005 C 305.065 -1.62481 -2.67524 0
M  V30 3006 C 305.54 -2.57776 -3.7857 0
M  V30 3007 N 307.031 -2.5609 -3.85969 0
M  V30 3008 C 307.766 -3.26508 -4.7136 0
M  V30 3009 N 307.262 -4.0637 -5.61102 0
M  V30 3010 N 309.055 -3.15437 -4.65248 0
M  V30 3011 H 301.206 -1.88005 -0.988328 0
M  V30 3012 H 303.469 -0.808198 -0.4955 0
M  V30 3013 H 303.175 -2.64644 -2.31638 0
M  V30 3014 H 303.049 -1.37036 -3.51427 0
M  V30 3015 H 305.436 -0.600167 -2.88933 0
M  V30 3016 H 305.517 -1.90958 -1.70202 0
M  V30 3017 H 305.161 -3.60361 -3.57913 0
M  V30 3018 H 305.091 -2.26587 -4.75359 0
M  V30 3019 H 307.582 -1.98105 -3.21812 0
M  V30 3020 H 307.895 -4.57042 -6.23164 0
M  V30 3021 H 306.24 -4.10469 -5.60839 0
M  V30 3022 H 309.431 -2.52525 -3.94143 0
M  V30 3023 H 309.604 -3.70584 -5.31575 0
M  V30 3024 N 303.011 1.40521 -0.713556 0
M  V30 3025 C 303.921 2.34522 -0.0606667 0
M  V30 3026 C 304.937 1.57193 0.74607 0
M  V30 3027 O 306.113 1.89591 0.679493 0
M  V30 3028 C 303.178 3.36081 0.851491 0
M  V30 3029 C 302.239 4.29286 0.0349339 0
M  V30 3030 C 301.472 5.25994 0.903649 0
M  V30 3031 O 301.695 5.28616 2.14292 0
M  V30 3032 O 300.629 6.00918 0.343723 0
M  V30 3033 H 304.455 2.91968 -0.835972 0
M  V30 3034 H 302.04 1.41681 -0.47402 0
M  V30 3035 H 303.922 3.98369 1.37404 0
M  V30 3036 H 302.597 2.81052 1.60598 0
M  V30 3037 H 301.504 3.70289 -0.532633 0
M  V30 3038 H 302.837 4.87462 -0.681287 0
M  V30 3039 N 304.489 0.459591 1.5075 0
M  V30 3040 C 305.737 -0.0991532 2.01857 0
M  V30 3041 C 306.058 -1.41247 1.34441 0
M  V30 3042 O 305.328 -1.89775 0.486022 0
M  V30 3043 H 303.908 -0.039633 0.745948 0
M  V30 3044 H 306.57 0.607387 1.85194 0
M  V30 3045 H 305.666 -0.258998 3.11023 0
M  V30 3046 N 305.967 -1.56429 0.191757 0
M  V30 3047 C 307.197 -2.01574 -0.452928 0
M  V30 3048 C 307.605 -1.07107 -1.55964 0
M  V30 3049 O 306.948 -0.067534 -1.83576 0
M  V30 3050 C 307.01 -3.43121 -1.07278 0
M  V30 3051 C 306.674 -4.56879 -0.105214 0
M  V30 3052 C 307.671 -5.15379 0.684149 0
M  V30 3053 C 305.356 -5.023 0.00489824 0
M  V30 3054 C 307.35 -6.17746 1.57062 0
M  V30 3055 C 305.037 -6.04511 0.894935 0
M  V30 3056 C 306.035 -6.62108 1.67637 0
M  V30 3057 O 305.723 -7.62335 2.55149 0
M  V30 3058 H 305.455 -0.665554 -0.118379 0
M  V30 3059 H 308.009 -2.03245 0.296737 0
M  V30 3060 H 306.239 -3.38425 -1.87097 0
M  V30 3061 H 307.928 -3.72093 -1.62177 0
M  V30 3062 H 308.694 -4.81157 0.609365 0
M  V30 3063 H 304.573 -4.57168 -0.593156 0
M  V30 3064 H 308.117 -6.6263 2.181 0
M  V30 3065 H 304.014 -6.38157 0.970847 0
M  V30 3066 H 304.782 -7.79741 2.48892 0
M  V30 3067 N 307.445 0.0818655 -1.57387 0
M  V30 3068 C 308.408 1.08265 -2.02018 0
M  V30 3069 C 309.408 1.32183 -0.915664 0
M  V30 3070 O 310.598 1.28073 -1.18081 0
M  V30 3071 C 307.73 2.42871 -2.39221 0
M  V30 3072 H 308.923 0.698204 -2.91659 0
M  V30 3073 H 306.476 0.327303 -1.52835 0
M  V30 3074 H 307.211 2.86167 -1.52575 0
M  V30 3075 H 306.996 2.26855 -3.19811 0
M  V30 3076 H 308.486 3.14826 -2.74362 0
M  V30 3077 N 308.923 1.53595 0.353017 0
M  V30 3078 C 310.172 1.69603 1.09168 0
M  V30 3079 C 310.485 0.460925 1.90092 0
M  V30 3080 O 311.691 0.501774 2.66823 0
M  V30 3081 C 310.147 2.99872 1.9901 0
M  V30 3082 C 309.755 4.30687 1.23339 0
M  V30 3083 C 311.499 3.25246 2.72792 0
M  V30 3084 C 309.406 5.52036 2.12156 0
M  V30 3085 H 308.336 0.631966 0.411261 0
M  V30 3086 H 310.987 1.80096 0.351802 0
M  V30 3087 H 309.369 2.83212 2.7678 0
M  V30 3088 H 310.543 4.58019 0.505456 0
M  V30 3089 H 308.858 4.11853 0.613663 0
M  V30 3090 H 311.455 4.13095 3.39495 0
M  V30 3091 H 311.798 2.41846 3.38846 0
M  V30 3092 H 312.331 3.42638 2.021 0
M  V30 3093 H 309.07 6.37951 1.50659 0
M  V30 3094 H 308.59 5.28966 2.82764 0
M  V30 3095 H 310.269 5.87313 2.71427 0
M  V30 3096 N 310.401 -0.613514 1.45168 0
M  V30 3097 C 311.626 -1.40437 1.52618 0
M  V30 3098 C 312.051 -1.87438 0.157707 0
M  V30 3099 O 311.409 -1.59791 -0.856537 0
M  V30 3100 C 311.457 -2.58894 2.51011 0
M  V30 3101 O 310.561 -3.59326 2.02382 0
M  V30 3102 H 309.902 -0.419506 0.514695 0
M  V30 3103 H 312.432 -0.747215 1.90467 0
M  V30 3104 H 312.442 -3.06214 2.69624 0
M  V30 3105 H 311.117 -2.24032 3.50403 0
M  V30 3106 H 309.694 -3.18695 1.93618 0
M  V30 3107 N 311.879 -1.3236 -0.855495 0
M  V30 3108 C 313.29 -1.2056 -1.42556 0
M  V30 3109 C 313.641 0.182209 -1.95352 0
M  V30 3110 O 312.766 1.08088 -1.87472 0
M  V30 3111 C 313.361 -2.1826 -2.59129 0
M  V30 3112 C 311.92 -2.10351 -3.12137 0
M  V30 3113 C 311.067 -2.06674 -1.84882 0
M  V30 3114 H 314.018 -1.442 -0.662727 0
M  V30 3115 H 314.039 -1.78064 -3.36264 0
M  V30 3116 H 313.551 -3.19257 -2.20673 0
M  V30 3117 H 311.652 -1.12599 -3.55179 0
M  V30 3118 H 311.765 -3.00135 -3.73438 0
M  V30 3119 H 310.129 -1.51901 -2.04446 0
M  V30 3120 H 310.912 -3.09451 -1.48643 0
M  V30 3121 N 313.357 1.07166 -1.15556 0
M  V30 3122 C 314.587 1.83248 -0.954133 0
M  V30 3123 C 314.995 1.82449 0.500911 0
M  V30 3124 O 314.338 1.23575 1.35923 0
M  V30 3125 C 314.4 3.31393 -1.39351 0
M  V30 3126 C 314.064 3.5591 -2.86666 0
M  V30 3127 C 315.061 3.49695 -3.8472 0
M  V30 3128 C 312.746 3.83515 -3.24379 0
M  V30 3129 C 314.74 3.70737 -5.18491 0
M  V30 3130 C 312.427 4.04209 -4.58321 0
M  V30 3131 C 313.425 3.97815 -5.55186 0
M  V30 3132 O 313.113 4.17954 -6.86709 0
M  V30 3133 H 312.845 0.584941 -0.338851 0
M  V30 3134 H 315.399 1.36169 -1.53777 0
M  V30 3135 H 313.629 3.79292 -0.75329 0
M  V30 3136 H 315.318 3.88945 -1.16089 0
M  V30 3137 H 316.084 3.28368 -3.56931 0
M  V30 3138 H 311.963 3.87605 -2.49567 0
M  V30 3139 H 315.507 3.65663 -5.94085 0
M  V30 3140 H 311.404 4.25023 -4.85825 0
M  V30 3141 H 312.172 4.35291 -6.93155 0
M  V30 3142 N 314.835 0.952656 1.25548 0
M  V30 3143 C 316.063 0.623496 1.97282 0
M  V30 3144 C 316.478 -0.803987 1.70826 0
M  V30 3145 O 315.835 -1.53755 0.983147 0
M  V30 3146 C 315.886 0.870209 3.5087 0
M  V30 3147 O 315.607 2.24156 3.76412 0
M  V30 3148 C 317.108 0.553164 4.39835 0
M  V30 3149 H 314.328 0.233931 0.628902 0
M  V30 3150 H 316.872 1.27649 1.59768 0
M  V30 3151 H 315.027 0.263652 3.86502 0
M  V30 3152 H 315.441 2.31021 4.70882 0
M  V30 3153 H 316.915 0.776342 5.46513 0
M  V30 3154 H 317.392 -0.512215 4.36203 0
M  V30 3155 H 317.998 1.13896 4.09766 0
M  V30 3156 N 316.313 -1.40141 0.720998 0
M  V30 3157 C 317.56 -2.00787 0.262842 0
M  V30 3158 C 317.888 -1.5718 -1.14563 0
M  V30 3159 O 317.143 -0.785391 -1.79249 0
M  V30 3160 C 317.442 -3.56165 0.296892 0
M  V30 3161 C 317.108 -4.19373 1.65641 0
M  V30 3162 C 315.77 -4.36352 2.02855 0
M  V30 3163 C 318.122 -4.54578 2.54968 0
M  V30 3164 C 315.45 -4.8582 3.28931 0
M  V30 3165 C 317.802 -5.05447 3.80402 0
M  V30 3166 C 316.466 -5.20635 4.17726 0
M  V30 3167 H 315.736 -0.734731 0.0961807 0
M  V30 3168 H 318.383 -1.67673 0.925093 0
M  V30 3169 H 316.688 -3.8922 -0.448932 0
M  V30 3170 H 318.385 -4.00929 -0.0755208 0
M  V30 3171 H 314.975 -4.06549 1.35704 0
M  V30 3172 H 319.159 -4.41091 2.27491 0
M  V30 3173 H 314.415 -4.95764 3.57811 0
M  V30 3174 H 318.589 -5.31663 4.49786 0
M  V30 3175 H 316.216 -5.58728 5.15487 0
M  V30 3176 N 317.792 -0.46758 -1.50504 0
M  V30 3177 C 318.725 0.374324 -2.25109 0
M  V30 3178 C 319.703 0.99921 -1.28275 0
M  V30 3179 O 320.887 1.03583 -1.57489 0
M  V30 3180 C 318.014 1.52419 -3.02467 0
M  V30 3181 C 317.06 1.01702 -4.14197 0
M  V30 3182 S 317.893 -0.0654477 -5.3546 0
M  V30 3183 C 319.049 1.08837 -6.16365 0
M  V30 3184 H 319.282 -0.258983 -2.9617 0
M  V30 3185 H 316.815 -0.252421 -1.52323 0
M  V30 3186 H 318.773 2.18322 -3.47628 0
M  V30 3187 H 317.434 2.129 -2.30938 0
M  V30 3188 H 316.627 1.87776 -4.67714 0
M  V30 3189 H 316.229 0.435757 -3.71453 0
M  V30 3190 H 318.521 2.00071 -6.47285 0
M  V30 3191 H 319.464 0.592538 -7.05616 0
M  V30 3192 H 319.872 1.34061 -5.4835 0
M  V30 3193 N 319.27 1.56325 -0.20005 0
M  V30 3194 C 320.218 2.20666 0.735482 0
M  V30 3195 C 321.212 1.17934 1.21605 0
M  V30 3196 O 322.418 1.36068 1.17837 0
M  V30 3197 H 318.793 0.70725 0.255542 0
M  V30 3198 H 320.764 2.9792 0.169166 0
M  V30 3199 C 319.513 2.88391 1.94232 0
M  V30 3200 H 318.836 3.67185 1.58161 0
M  V30 3201 H 320.276 3.3684 2.57517 0
M  V30 3202 C 318.735 1.89692 2.78421 0
M  V30 3203 O 319.265 1.40032 3.76502 0
M  V30 3204 N 317.471 1.57813 2.44015 0
M  V30 3205 H 317.018 1.9839 1.64314 0
M  V30 3206 H 316.976 0.920325 3.00628 0
M  V30 3207 N 320.748 -0.0735177 1.57428 0
M  V30 3208 C 321.973 -0.789787 1.91774 0
M  V30 3209 C 322.398 -1.70413 0.796306 0
M  V30 3210 O 321.756 -1.79555 -0.250961 0
M  V30 3211 C 321.804 -1.5609 3.25067 0
M  V30 3212 O 320.908 -2.67144 3.14178 0
M  V30 3213 H 320.249 -0.215582 0.628029 0
M  V30 3214 H 322.779 -0.0422781 2.04556 0
M  V30 3215 H 322.789 -1.94052 3.58898 0
M  V30 3216 H 321.464 -0.890015 4.06265 0
M  V30 3217 H 320.041 -2.32052 2.91901 0
M  V30 3218 N 322.226 -1.5378 -0.344866 0
M  V30 3219 C 323.451 -1.75211 -1.10977 0
M  V30 3220 C 323.876 -0.48936 -1.81623 0
M  V30 3221 O 323.234 0.557925 -1.72502 0
M  V30 3222 C 323.282 -2.93147 -2.09993 0
M  V30 3223 O 322.386 -2.63203 -3.17487 0
M  V30 3224 H 321.727 -0.581241 -0.321021 0
M  V30 3225 H 324.257 -2.00738 -0.395661 0
M  V30 3226 H 324.267 -3.19898 -2.53237 0
M  V30 3227 H 322.942 -3.84731 -1.5797 0
M  V30 3228 H 321.519 -2.47336 -2.79069 0
M  V30 3229 N 323.704 0.605807 -1.45491 0
M  V30 3230 C 324.929 1.39625 -1.53361 0
M  V30 3231 C 325.354 1.87351 -0.167645 0
M  V30 3232 O 324.712 1.60243 0.848051 0
M  V30 3233 C 324.76 2.57559 -2.5238 0
M  V30 3234 O 323.864 3.58248 -2.04285 0
M  V30 3235 H 323.205 0.416771 -0.516912 0
M  V30 3236 H 325.735 0.737103 -1.90861 0
M  V30 3237 H 325.745 3.0478 -2.71244 0
M  V30 3238 H 324.42 2.22171 -3.51586 0
M  V30 3239 H 322.997 3.17664 -1.95305 0
M  V30 3240 N 325.182 1.32811 0.848464 0
M  V30 3241 C 326.41 1.26739 1.63538 0
M  V30 3242 C 326.825 -0.163484 1.88091 0
M  V30 3243 O 326.182 -1.10258 1.45429 0
M  V30 3244 C 326.233 2.03013 2.99112 0
M  V30 3245 O 325.954 3.40518 2.75643 0
M  V30 3246 C 327.455 2.04038 3.93552 0
M  V30 3247 H 324.675 0.437024 0.509167 0
M  V30 3248 H 327.219 1.75033 1.05753 0
M  V30 3249 H 325.374 1.58426 3.53525 0
M  V30 3250 H 325.788 3.79635 3.61908 0
M  V30 3251 H 327.262 2.61877 4.85926 0
M  V30 3252 H 327.739 1.0282 4.26995 0
M  V30 3253 H 328.345 2.486 3.45077 0
M  V30 3254 N 326.66 -1.06551 1.16123 0
M  V30 3255 C 327.57 -2.17484 0.879662 0
M  V30 3256 C 328.586 -1.73377 -0.147104 0
M  V30 3257 O 329.762 -2.01379 0.0289128 0
M  V30 3258 C 326.827 -3.44591 0.381829 0
M  V30 3259 C 325.888 -4.0322 1.4735 0
M  V30 3260 C 325.121 -5.24261 0.999324 0
M  V30 3261 O 325.344 -5.70198 -0.151957 0
M  V30 3262 O 324.278 -5.74775 1.78653 0
M  V30 3263 H 328.104 -2.44075 1.80724 0
M  V30 3264 H 325.689 -1.16042 0.940992 0
M  V30 3265 H 327.571 -4.21254 0.111053 0
M  V30 3266 H 326.246 -3.19532 -0.51777 0
M  V30 3267 H 325.153 -3.2806 1.79798 0
M  V30 3268 H 326.486 -4.32568 2.34831 0
M  V30 3269 N 328.138 -0.959301 -1.25041 0
M  V30 3270 C 329.048 -0.489994 -2.29426 0
M  V30 3271 C 330.064 0.444944 -1.68215 0
M  V30 3272 O 331.24 0.320046 -1.98841 0
M  V30 3273 C 328.305 0.220309 -3.45999 0
M  V30 3274 C 327.366 -0.753418 -4.22637 0
M  V30 3275 C 326.599 -0.076918 -5.33645 0
M  V30 3276 O 326.822 1.13649 -5.58963 0
M  V30 3277 O 325.756 -0.764824 -5.97021 0
M  V30 3278 H 329.582 -1.35755 -2.71669 0
M  V30 3279 H 327.167 -0.725961 -1.30576 0
M  V30 3280 H 329.049 0.619677 -4.16819 0
M  V30 3281 H 327.724 1.06296 -3.0575 0
M  V30 3282 H 326.631 -1.20308 -3.54227 0
M  V30 3283 H 327.964 -1.56423 -4.66683 0
M  V30 3284 N 329.616 1.39756 -0.72842 0
M  V30 3285 C 330.846 2.04651 -0.283117 0
M  V30 3286 C 331.254 1.5502 1.08469 0
M  V30 3287 O 330.597 0.707343 1.69536 0
M  V30 3288 C 330.659 3.58947 -0.199309 0
M  V30 3289 C 330.323 4.31525 -1.5045 0
M  V30 3290 C 331.32 4.5861 -2.44894 0
M  V30 3291 C 329.005 4.70195 -1.76698 0
M  V30 3292 C 330.999 5.23366 -3.63822 0
M  V30 3293 C 328.686 5.3468 -2.95906 0
M  V30 3294 C 329.684 5.61198 -3.89289 0
M  V30 3295 O 329.372 6.24347 -5.06404 0
M  V30 3296 H 329.104 0.664777 -0.122666 0
M  V30 3297 H 331.658 1.79913 -0.990987 0
M  V30 3298 H 329.888 3.82556 0.56461 0
M  V30 3299 H 331.577 4.0534 0.213125 0
M  V30 3300 H 332.343 4.29187 -2.25883 0
M  V30 3301 H 328.222 4.48916 -1.04859 0
M  V30 3302 H 331.766 5.4398 -4.36728 0
M  V30 3303 H 327.663 5.63524 -3.14819 0
M  V30 3304 H 328.431 6.42842 -5.06652 0
M  V30 3305 N 331.094 0.475555 1.50254 0
M  V30 3306 C 332.041 -0.316293 2.28622 0
M  V30 3307 C 333.011 -0.983227 1.33873 0
M  V30 3308 O 334.196 -0.994805 1.62814 0
M  V30 3309 C 331.336 -1.38975 3.1588 0
M  V30 3310 C 330.449 -0.737146 4.25664 0
M  V30 3311 C 329.584 -1.78887 5.00173 0
M  V30 3312 C 328.623 -1.11676 6.01826 0
M  V30 3313 N 327.76 -2.11154 6.69596 0
M  V30 3314 H 332.6 0.358297 2.95838 0
M  V30 3315 H 330.137 0.188541 1.45887 0
M  V30 3316 H 332.095 -2.02383 3.64825 0
M  V30 3317 H 330.725 -2.03344 2.50701 0
M  V30 3318 H 329.777 0.0096065 3.80399 0
M  V30 3319 H 331.089 -0.206816 4.98371 0
M  V30 3320 H 330.243 -2.49865 5.52859 0
M  V30 3321 H 328.982 -2.35302 4.27182 0
M  V30 3322 H 327.987 -0.392633 5.48396 0
M  V30 3323 H 329.212 -0.55945 6.76792 0
M  V30 3324 H 327.158 -2.66577 5.99394 0
M  V30 3325 H 327.075 -1.63118 7.38193 0
M  V30 3326 H 328.343 -2.81497 7.26897 0
M  V30 3327 N 332.573 -1.56217 0.208337 0
M  V30 3328 C 333.821 -1.97558 -0.426076 0
M  V30 3329 C 334.142 -1.09683 -1.61229 0
M  V30 3330 O 333.412 -0.170956 -1.95153 0
M  V30 3331 H 331.992 -0.729575 -0.160405 0
M  V30 3332 H 334.654 -1.92606 0.298155 0
M  V30 3333 H 333.75 -3.02672 -0.761312 0
M  V30 3334 N 334.051 0.0651679 -1.57465 0
M  V30 3335 C 335.297 0.764193 -1.87851 0
M  V30 3336 C 335.63 1.76889 -0.801495 0
M  V30 3337 O 334.905 1.93594 0.187528 0
M  V30 3338 C 335.188 1.46625 -3.28897 0
M  V30 3339 C 335.041 0.477515 -4.47258 0
M  V30 3340 C 336.36 2.4095 -3.68281 0
M  V30 3341 H 333.479 0.276351 -0.683227 0
M  V30 3342 H 336.121 0.0272868 -1.8998 0
M  V30 3343 H 334.271 2.09438 -3.27212 0
M  V30 3344 H 335.943 -0.145922 -4.61069 0
M  V30 3345 H 334.186 -0.206576 -4.33308 0
M  V30 3346 H 334.857 1.0065 -5.42746 0
M  V30 3347 H 337.333 1.88209 -3.71102 0
M  V30 3348 H 336.209 2.87072 -4.67847 0
M  V30 3349 H 336.47 3.26049 -2.98571 0
M  V30 3350 N 335.529 1.53961 0.336706 0
M  V30 3351 C 336.778 1.70751 1.07363 0
M  V30 3352 C 337.091 0.481061 1.89592 0
M  V30 3353 O 338.297 0.530046 2.66276 0
M  V30 3354 C 336.753 3.01965 1.95818 0
M  V30 3355 C 336.361 4.31971 1.18764 0
M  V30 3356 C 338.105 3.28121 2.69327 0
M  V30 3357 C 336.012 5.54255 2.06289 0
M  V30 3358 H 334.942 0.636292 0.404535 0
M  V30 3359 H 337.593 1.80459 0.332681 0
M  V30 3360 H 335.975 2.86132 2.7376 0
M  V30 3361 H 337.149 4.5853 0.456849 0
M  V30 3362 H 335.464 4.12481 0.569946 0
M  V30 3363 H 338.061 4.16673 3.35094 0
M  V30 3364 H 338.404 2.45426 3.36261 0
M  V30 3365 H 338.937 3.44762 1.98454 0
M  V30 3366 H 335.676 6.39513 1.43885 0
M  V30 3367 H 335.196 5.31935 2.77138 0
M  V30 3368 H 336.875 5.90159 2.65182 0
M  V30 3369 N 337.007 -0.598083 1.45811 0
M  V30 3370 C 337.954 -1.7082 1.55207 0
M  V30 3371 C 338.924 -1.61278 0.39732 0
M  V30 3372 O 340.109 -1.80717 0.612038 0
M  V30 3373 C 337.249 -3.09144 1.53376 0
M  V30 3374 C 336.362 -3.29423 2.79472 0
M  V30 3375 C 335.497 -4.57907 2.69248 0
M  V30 3376 C 334.536 -4.71476 3.90354 0
M  V30 3377 N 333.673 -5.9127 3.78608 0
M  V30 3378 H 338.513 -1.62125 2.50039 0
M  V30 3379 H 336.05 -0.790389 1.24062 0
M  V30 3380 H 338.008 -3.89186 1.50301 0
M  V30 3381 H 336.638 -3.16773 0.620876 0
M  V30 3382 H 335.69 -2.43091 2.92594 0
M  V30 3383 H 337.002 -3.3532 3.69272 0
M  V30 3384 H 336.156 -5.46157 2.64192 0
M  V30 3385 H 334.895 -4.54423 1.77063 0
M  V30 3386 H 333.9 -3.81648 3.95759 0
M  V30 3387 H 335.125 -4.76751 4.83617 0
M  V30 3388 H 333.071 -5.88813 2.89199 0
M  V30 3389 H 332.988 -5.98369 4.6205 0
M  V30 3390 H 334.256 -6.81992 3.77501 0
M  V30 3391 N 338.485 -1.33259 -0.841409 0
M  V30 3392 C 339.415 -1.25926 -1.96634 0
M  V30 3393 C 340.396 -0.140349 -1.6952 0
M  V30 3394 O 341.581 -0.329707 -1.91381 0
M  V30 3395 C 338.711 -0.99512 -3.32738 0
M  V30 3396 C 337.665 -2.0767 -3.74242 0
M  V30 3397 C 336.991 -1.66474 -5.08125 0
M  V30 3398 C 338.291 -3.49318 -3.88297 0
M  V30 3399 H 339.985 -2.20046 -2.03027 0
M  V30 3400 H 337.531 -1.05931 -0.975425 0
M  V30 3401 H 339.484 -0.930323 -4.11002 0
M  V30 3402 H 338.208 -0.0183004 -3.26595 0
M  V30 3403 H 336.867 -2.13187 -2.98239 0
M  V30 3404 H 336.515 -0.675012 -4.9845 0
M  V30 3405 H 336.215 -2.3885 -5.36865 0
M  V30 3406 H 337.739 -1.61455 -5.88867 0
M  V30 3407 H 339.153 -3.46316 -4.56879 0
M  V30 3408 H 337.55 -4.20158 -4.28471 0
M  V30 3409 H 338.62 -3.8801 -2.9082 0
M  V30 3410 N 339.963 1.05934 -1.16686 0
M  V30 3411 C 341.211 1.78447 -0.948744 0
M  V30 3412 C 341.532 1.87813 0.524523 0
M  V30 3413 O 340.802 1.38945 1.38098 0
M  V30 3414 H 339.382 0.660971 -0.348033 0
M  V30 3415 H 342.044 1.27947 -1.47022 0
M  V30 3416 H 341.14 2.80394 -1.37061 0
M  V30 3417 N 341.441 0.965919 1.2453 0
M  V30 3418 C 342.669 0.644385 1.96609 0
M  V30 3419 C 343.084 -0.785823 1.71669 0
M  V30 3420 O 342.441 -1.52703 0.999399 0
M  V30 3421 C 342.492 0.907375 3.49927 0
M  V30 3422 O 342.213 2.28136 3.74013 0
M  V30 3423 C 343.714 0.599784 4.39224 0
M  V30 3424 H 340.934 0.240588 0.626385 0
M  V30 3425 H 343.478 1.29337 1.58405 0
M  V30 3426 H 341.633 0.304631 3.862 0
M  V30 3427 H 342.047 2.36002 4.68405 0
M  V30 3428 H 343.521 0.834263 5.45659 0
M  V30 3429 H 343.998 -0.465921 4.36722 0
M  V30 3430 H 344.604 1.18235 4.08535 0
M  V30 3431 N 342.919 -1.39368 0.735821 0
M  V30 3432 C 343.851 -2.2913 0.0567723 0
M  V30 3433 C 344.864 -1.46859 -0.702589 0
M  V30 3434 O 346.053 -1.69925 -0.546616 0
M  V30 3435 C 343.153 -3.25492 -0.943823 0
M  V30 3436 C 342.326 -4.36709 -0.24581 0
M  V30 3437 C 341.385 -5.13376 -1.15463 0
M  V30 3438 O 340.411 -5.65683 -0.631803 0
M  V30 3439 N 341.613 -5.24656 -2.48427 0
M  V30 3440 H 344.378 -2.88047 0.827582 0
M  V30 3441 H 341.939 -1.50957 0.585112 0
M  V30 3442 H 343.931 -3.73657 -1.55443 0
M  V30 3443 H 342.501 -2.676 -1.61583 0
M  V30 3444 H 341.721 -3.9041 0.545286 0
M  V30 3445 H 343.009 -5.08244 0.237891 0
M  V30 3446 H 342.407 -4.83679 -2.93379 0
M  V30 3447 H 340.964 -5.76258 -3.04582 0
M  V30 3448 N 344.397 -0.483516 -1.5 0
M  V30 3449 C 345.622 0.0667119 -2.07293 0
M  V30 3450 C 346.047 1.3164 -1.3436 0
M  V30 3451 O 345.405 1.76945 -0.394987 0
M  V30 3452 C 345.453 0.321126 -3.59167 0
M  V30 3453 O 344.557 1.39927 -3.87936 0
M  V30 3454 H 343.898 -0.0184758 -0.663743 0
M  V30 3455 H 346.428 -0.678125 -1.93035 0
M  V30 3456 H 346.438 0.557906 -4.04168 0
M  V30 3457 H 345.113 -0.592007 -4.11665 0
M  V30 3458 H 343.69 1.14882 -3.54763 0
M  V30 3459 N 345.875 1.56104 -0.216619 0
M  V30 3460 C 346.785 2.23694 0.706982 0
M  V30 3461 C 347.801 1.24295 1.21765 0
M  V30 3462 O 348.977 1.57094 1.2603 0
M  V30 3463 C 346.042 2.8998 1.90033 0
M  V30 3464 C 345.103 4.04708 1.43213 0
M  V30 3465 C 344.336 4.67824 2.56859 0
M  V30 3466 O 344.559 4.29913 3.74874 0
M  V30 3467 O 343.493 5.56905 2.28343 0
M  V30 3468 H 347.319 3.03272 0.161235 0
M  V30 3469 H 344.904 1.49394 0.0136177 0
M  V30 3470 H 346.786 3.31837 2.59735 0
M  V30 3471 H 345.461 2.13365 2.43428 0
M  V30 3472 H 344.368 3.6743 0.70327 0
M  V30 3473 H 345.701 4.83051 0.944615 0
M  V30 3474 N 347.353 -0.0568162 1.57498 0
M  V30 3475 C 348.599 -0.75422 1.88253 0
M  V30 3476 C 348.932 -1.76461 0.810865 0
M  V30 3477 O 348.207 -1.93691 -0.177259 0
M  V30 3478 C 348.49 -1.44878 3.2967 0
M  V30 3479 C 348.343 -0.453789 4.47505 0
M  V30 3480 C 349.662 -2.38994 3.69554 0
M  V30 3481 H 346.781 -0.272724 0.684683 0
M  V30 3482 H 349.423 -0.0172113 1.89992 0
M  V30 3483 H 347.573 -2.077 3.28318 0
M  V30 3484 H 349.245 0.170371 4.60985 0
M  V30 3485 H 347.488 0.229552 4.33192 0
M  V30 3486 H 348.159 -0.977699 5.43273 0
M  V30 3487 H 350.635 -1.86239 3.72095 0
M  V30 3488 H 349.511 -2.84587 4.69363 0
M  V30 3489 H 349.772 -3.24461 3.00296 0
M  V30 3490 N 348.832 -1.54138 -0.328536 0
M  V30 3491 C 349.78 -1.83894 -1.42428 0
M  V30 3492 C 350.774 -0.710478 -1.53781 0
M  V30 3493 O 351.98 -0.894062 -1.56226 0
M  V30 3494 H 348.355 -0.582837 -0.475189 0
M  V30 3495 H 350.326 -2.75537 -1.14552 0
M  V30 3496 C 349.075 -2.07866 -2.78724 0
M  V30 3497 H 348.398 -2.94158 -2.7076 0
M  V30 3498 H 349.838 -2.32644 -3.54476 0
M  V30 3499 C 348.297 -0.868689 -3.25508 0
M  V30 3500 O 348.827 -0.0754908 -4.01629 0
M  V30 3501 N 347.033 -0.681711 -2.82491 0
M  V30 3502 H 346.58 -1.32838 -2.20708 0
M  V30 3503 H 346.538 0.126374 -3.14146 0
M  V30 3504 N 350.31 0.590341 -1.46126 0
M  V30 3505 C 351.535 1.37991 -1.54833 0
M  V30 3506 C 351.96 1.87163 -0.187506 0
M  V30 3507 O 351.318 1.61133 0.831008 0
M  V30 3508 C 351.366 2.54867 -2.55098 0
M  V30 3509 O 350.47 3.56061 -2.08073 0
M  V30 3510 H 349.811 0.411265 -0.521303 0
M  V30 3511 H 352.341 0.716819 -1.91632 0
M  V30 3512 H 352.351 3.01886 -2.74461 0
M  V30 3513 H 351.026 2.18429 -3.53923 0
M  V30 3514 H 349.603 3.15574 -1.98664 0
M  V30 3515 N 351.788 1.33704 0.83433 0
M  V30 3516 C 352.736 1.24323 1.96587 0
M  V30 3517 C 353.73 0.143659 1.6879 0
M  V30 3518 O 354.936 0.30791 1.77347 0
M  V30 3519 H 351.311 0.385925 0.645419 0
M  V30 3520 H 353.282 2.19978 2.01624 0
M  V30 3521 C 352.031 1.00394 3.32891 0
M  V30 3522 H 351.354 1.84231 3.54822 0
M  V30 3523 H 352.794 0.97862 4.12552 0
M  V30 3524 C 351.253 -0.293047 3.35623 0
M  V30 3525 O 351.783 -1.29823 3.80143 0
M  V30 3526 N 349.989 -0.322174 2.88809 0
M  V30 3527 H 349.536 0.496379 2.52772 0
M  V30 3528 H 349.494 -1.18977 2.91019 0
M  V30 3529 N 353.266 -1.05314 1.17247 0
M  V30 3530 C 354.214 -2.15137 0.884238 0
M  V30 3531 C 355.208 -1.68729 -0.15063 0
M  V30 3532 O 356.414 -1.8 -0.00366673 0
M  V30 3533 H 352.789 -0.702471 0.2684 0
M  V30 3534 H 354.76 -2.36652 1.81764 0
M  V30 3535 C 353.509 -3.45243 0.412659 0
M  V30 3536 H 352.832 -3.81352 1.20043 0
M  V30 3537 H 354.272 -4.23263 0.249858 0
M  V30 3538 C 352.731 -3.25487 -0.86948 0
M  V30 3539 O 353.261 -3.51938 -1.93655 0
M  V30 3540 N 351.467 -2.78875 -0.817147 0
M  V30 3541 H 351.014 -2.57549 0.0514211 0
M  V30 3542 H 350.972 -2.66036 -1.67547 0
M  V30 3543 N 354.744 -0.972509 -1.24016 0
M  V30 3544 C 355.707 -0.511403 -2.23422 0
M  V30 3545 C 356.707 0.394679 -1.55881 0
M  V30 3546 O 357.897 0.189469 -1.73167 0
M  V30 3547 C 355.029 0.258769 -3.39916 0
M  V30 3548 H 356.222 -1.39024 -2.6573 0
M  V30 3549 H 353.775 -0.757585 -1.36713 0
M  V30 3550 H 354.51 1.1545 -3.03054 0
M  V30 3551 H 354.295 -0.391522 -3.9014 0
M  V30 3552 H 355.785 0.570244 -4.13688 0
M  V30 3553 N 356.222 1.38976 -0.743202 0
M  V30 3554 C 357.447 2.05161 -0.303936 0
M  V30 3555 C 357.872 1.55677 1.05576 0
M  V30 3556 O 357.23 0.704131 1.67068 0
M  V30 3557 C 357.278 3.59138 -0.324373 0
M  V30 3558 O 356.382 4.06668 0.685204 0
M  V30 3559 H 355.723 0.649815 -0.136518 0
M  V30 3560 H 358.253 1.77852 -1.01142 0
M  V30 3561 H 358.263 4.07639 -0.171618 0
M  V30 3562 H 356.938 3.94515 -1.31647 0
M  V30 3563 H 355.515 3.69561 0.497913 0
M  V30 3564 N 357.7 0.491464 1.49741 0
M  V30 3565 C 358.946 -0.0565092 2.02721 0
M  V30 3566 C 359.279 -1.37522 1.37118 0
M  V30 3567 O 358.554 -1.87866 0.503645 0
M  V30 3568 C 358.837 -0.219051 3.59433 0
M  V30 3569 C 358.69 1.12211 4.35579 0
M  V30 3570 C 360.009 -0.964157 4.29409 0
M  V30 3571 H 357.128 -0.0190627 0.736753 0
M  V30 3572 H 359.77 0.641021 1.7886 0
M  V30 3573 H 357.92 -0.813165 3.79895 0
M  V30 3574 H 359.592 1.75437 4.26637 0
M  V30 3575 H 357.835 1.71377 3.98513 0
M  V30 3576 H 358.506 0.961794 5.43556 0
M  V30 3577 H 360.982 -0.460378 4.13545 0
M  V30 3578 H 359.858 -1.04671 5.38828 0
M  V30 3579 H 360.119 -2.00563 3.93988 0
M  V30 3580 N 359.178 -1.55987 0.224894 0
M  V30 3581 C 360.141 -2.19178 -0.670348 0
M  V30 3582 C 361.141 -1.15461 -1.11917 0
M  V30 3583 O 362.331 -1.40675 -1.02743 0
M  V30 3584 C 359.463 -2.81777 -1.9187 0
M  V30 3585 H 360.656 -2.99662 -0.119364 0
M  V30 3586 H 358.209 -1.5628 -0.0247128 0
M  V30 3587 H 358.944 -2.05172 -2.51147 0
M  V30 3588 H 358.729 -3.57732 -1.60531 0
M  V30 3589 H 360.219 -3.30205 -2.55645 0
M  V30 3590 N 360.656 0.0484629 -1.57525 0
M  V30 3591 C 361.902 0.744226 -1.88651 0
M  V30 3592 C 362.235 1.76029 -0.820212 0
M  V30 3593 O 361.51 1.93782 0.166985 0
M  V30 3594 C 361.793 1.43128 -3.30434 0
M  V30 3595 C 361.646 0.43005 -4.47739 0
M  V30 3596 C 362.965 2.37031 -3.70816 0
M  V30 3597 H 360.084 0.269089 -0.68612 0
M  V30 3598 H 362.726 0.00713532 -1.89999 0
M  V30 3599 H 360.876 2.05956 -3.29415 0
M  V30 3600 H 362.548 -0.194816 -4.60888 0
M  V30 3601 H 360.791 -0.252522 -4.33064 0
M  V30 3602 H 361.462 0.948874 -5.43783 0
M  V30 3603 H 363.938 1.84263 -3.73077 0
M  V30 3604 H 362.814 2.82094 -4.70865 0
M  V30 3605 H 363.075 3.22864 -3.02012 0
M  V30 3606 N 362.134 1.5431 0.320358 0
M  V30 3607 C 363.362 1.76636 1.07738 0
M  V30 3608 C 363.777 0.51649 1.81598 0
M  V30 3609 O 363.134 -0.512942 1.75143 0
M  V30 3610 C 363.185 2.96158 2.07299 0
M  V30 3611 O 362.906 4.16313 1.36438 0
M  V30 3612 C 364.407 3.3072 2.95193 0
M  V30 3613 H 361.627 0.589597 0.320339 0
M  V30 3614 H 364.171 2.01207 0.36551 0
M  V30 3615 H 362.326 2.73851 2.74016 0
M  V30 3616 H 362.74 4.83565 2.03138 0
M  V30 3617 H 364.214 4.17643 3.60941 0
M  V30 3618 H 364.691 2.48026 3.62463 0
M  V30 3619 H 365.297 3.55117 2.34034 0
M  V30 3620 N 363.613 -0.582584 1.46437 0
M  V30 3621 C 364.861 -1.33814 1.51453 0
M  V30 3622 C 365.182 -1.94277 0.167792 0
M  V30 3623 O 364.452 -1.78566 -0.805677 0
M  V30 3624 H 363.032 -0.496838 0.557818 0
M  V30 3625 H 365.694 -0.682281 1.82568 0
M  V30 3626 H 364.79 -2.14479 2.26728 0
M  V30 3627 N 365.091 -1.34144 -0.827227 0
M  V30 3628 C 366.054 -1.25264 -1.91942 0
M  V30 3629 C 367.054 -0.168866 -1.59911 0
M  V30 3630 O 368.244 -0.421198 -1.69031 0
M  V30 3631 C 365.376 -0.932952 -3.27885 0
M  V30 3632 H 366.569 -2.22357 -2.0124 0
M  V30 3633 H 364.122 -1.1837 -1.0207 0
M  V30 3634 H 364.857 0.0349917 -3.24281 0
M  V30 3635 H 364.642 -1.71682 -3.52516 0
M  V30 3636 H 366.132 -0.895874 -4.07877 0
M  V30 3637 N 366.569 1.04691 -1.17803 0
M  V30 3638 C 367.797 1.81446 -0.99423 0
M  V30 3639 C 368.212 1.83174 0.457459 0
M  V30 3640 O 367.569 1.26265 1.31771 0
M  V30 3641 C 367.62 3.27334 -1.5341 0
M  V30 3642 O 367.341 3.25798 -2.92895 0
M  V30 3643 C 368.842 4.20759 -1.39559 0
M  V30 3644 H 366.062 0.571599 -0.351447 0
M  V30 3645 H 368.606 1.31982 -1.56208 0
M  V30 3646 H 366.761 3.74052 -1.00815 0
M  V30 3647 H 367.175 4.17144 -3.17949 0
M  V30 3648 H 368.649 5.21084 -1.82141 0
M  V30 3649 H 369.126 4.37856 -0.343394 0
M  V30 3650 H 369.732 3.79901 -1.91195 0
M  V30 3651 N 368.047 0.979072 1.23499 0
M  V30 3652 C 368.977 0.537606 2.27227 0
M  V30 3653 C 369.958 -0.428539 1.64613 0
M  V30 3654 O 371.143 -0.322191 1.91509 0
M  V30 3655 C 368.273 -0.162052 3.46922 0
M  V30 3656 C 367.227 0.721242 4.21879 0
M  V30 3657 C 366.553 -0.110555 5.34586 0
M  V30 3658 C 367.853 2.01141 4.82016 0
M  V30 3659 H 369.547 1.40462 2.64406 0
M  V30 3660 H 367.093 0.67684 1.27102 0
M  V30 3661 H 369.046 -0.482192 4.18632 0
M  V30 3662 H 367.77 -1.06351 3.08799 0
M  V30 3663 H 366.429 1.02482 3.51984 0
M  V30 3664 H 366.077 -1.0125 4.92704 0
M  V30 3665 H 365.777 0.477325 5.85658 0
M  V30 3666 H 367.301 -0.425107 6.09118 0
M  V30 3667 H 368.715 1.75612 5.45741 0
M  V30 3668 H 367.112 2.54695 5.43369 0
M  V30 3669 H 368.182 2.69909 4.02836 0
M  V30 3670 N 369.525 -1.3858 0.750561 0
M  V30 3671 C 370.473 -2.32339 0.110162 0
M  V30 3672 C 371.467 -1.53864 -0.708674 0
M  V30 3673 O 372.673 -1.69417 -0.608112 0
M  V30 3674 H 369.048 -0.751812 0.0168275 0
M  V30 3675 H 371.019 -2.83959 0.917053 0
M  V30 3676 C 369.768 -3.39043 -0.771067 0
M  V30 3677 H 369.091 -3.99517 -0.150374 0
M  V30 3678 H 370.531 -4.07061 -1.1865 0
M  V30 3679 C 368.99 -2.77365 -1.91234 0
M  V30 3680 O 369.52 -2.66434 -3.00626 0
M  V30 3681 N 367.726 -2.35219 -1.70646 0
M  V30 3682 H 367.273 -2.4431 -0.81673 0
M  V30 3683 H 367.231 -1.94294 -2.47178 0
M  V30 3684 N 371.003 -0.499398 -1.49478 0
M  V30 3685 C 372.251 0.0455996 -2.02049 0
M  V30 3686 C 372.572 1.37633 -1.38138 0
M  V30 3687 O 371.842 1.8842 -0.536166 0
M  V30 3688 H 370.422 0.0198416 -0.746736 0
M  V30 3689 H 373.084 -0.656274 -1.83519 0
M  V30 3690 H 372.18 0.176445 -3.11601 0
M  V30 3691 N 372.481 1.55866 -0.233164 0
M  V30 3692 C 373.897 1.59133 0.121988 0
M  V30 3693 C 374.097 1.25016 1.58029 0
M  V30 3694 O 373.153 0.990922 2.32243 0
M  V30 3695 C 374.466 2.99932 -0.214792 0
M  V30 3696 C 376.014 3.12601 -0.157971 0
M  V30 3697 C 376.489 4.55597 -0.46859 0
M  V30 3698 N 377.98 4.61305 -0.418585 0
M  V30 3699 C 378.715 5.69903 -0.63227 0
M  V30 3700 N 378.211 6.86819 -0.90835 0
M  V30 3701 N 380.004 5.59264 -0.563913 0
M  V30 3702 H 372.155 1.76315 -1.18434 0
M  V30 3703 H 374.418 0.820093 -0.475553 0
M  V30 3704 H 374.124 3.29588 -1.22739 0
M  V30 3705 H 373.998 3.74327 0.464691 0
M  V30 3706 H 376.385 2.82735 0.845283 0
M  V30 3707 H 376.466 2.40511 -0.871102 0
M  V30 3708 H 376.11 4.86182 -1.46934 0
M  V30 3709 H 376.04 5.25928 0.265865 0
M  V30 3710 H 378.531 3.77297 -0.213368 0
M  V30 3711 H 378.844 7.65507 -1.05919 0
M  V30 3712 H 377.189 6.88536 -0.945673 0
M  V30 3713 H 380.38 4.66802 -0.348372 0
M  V30 3714 H 380.553 6.43831 -0.733847 0
M  V30 3715 N 373.959 -0.0401083 1.57549 0
M  V30 3716 C 375.207 -0.731677 1.8839 0
M  V30 3717 C 375.528 -1.76481 0.829425 0
M  V30 3718 O 374.798 -1.95411 -0.1383 0
M  V30 3719 H 373.378 -0.273225 0.695239 0
M  V30 3720 H 376.04 -0.00867725 1.94898 0
M  V30 3721 H 375.136 -1.22816 2.86919 0
M  V30 3722 N 375.437 -1.54477 -0.31217 0
M  V30 3723 C 376.662 -1.77526 -1.07235 0
M  V30 3724 C 377.087 -0.527775 -1.80544 0
M  V30 3725 O 376.445 0.52121 -1.73646 0
M  V30 3726 C 376.493 -2.97535 -2.03728 0
M  V30 3727 O 375.597 -2.69878 -3.11833 0
M  V30 3728 H 374.938 -0.58792 -0.30862 0
M  V30 3729 H 377.468 -2.01532 -0.352993 0
M  V30 3730 H 377.478 -3.25198 -2.46395 0
M  V30 3731 H 376.153 -3.87996 -1.49774 0
M  V30 3732 H 374.73 -2.53199 -2.7376 0
M  V30 3733 N 376.915 0.57481 -1.46744 0
M  V30 3734 C 378.143 1.35856 -1.56047 0
M  V30 3735 C 378.558 1.87691 -0.204365 0
M  V30 3736 O 377.915 1.64049 0.79963 0
M  V30 3737 C 377.966 2.54066 -2.57163 0
M  V30 3738 O 377.687 2.04377 -3.87507 0
M  V30 3739 C 379.188 3.46514 -2.76483 0
M  V30 3740 H 376.408 0.414754 -0.527466 0
M  V30 3741 H 378.952 0.698035 -1.92218 0
M  V30 3742 H 377.107 3.16092 -2.23974 0
M  V30 3743 H 377.521 2.81419 -4.4261 0
M  V30 3744 H 378.995 4.25919 -3.51137 0
M  V30 3745 H 379.472 3.98951 -1.83671 0
M  V30 3746 H 380.078 2.90318 -3.10799 0
M  V30 3747 N 378.394 1.34581 0.820102 0
M  V30 3748 C 379.622 1.3018 1.60813 0
M  V30 3749 C 380.037 -0.123551 1.88395 0
M  V30 3750 O 379.394 -1.07148 1.47735 0
M  V30 3751 C 379.445 2.09312 2.94739 0
M  V30 3752 O 379.166 3.46288 2.68358 0
M  V30 3753 C 380.667 2.1234 3.89136 0
M  V30 3754 H 377.887 0.447726 0.499782 0
M  V30 3755 H 380.431 1.77237 1.02017 0
M  V30 3756 H 378.586 1.65889 3.50085 0
M  V30 3757 H 379 3.87227 3.53774 0
M  V30 3758 H 380.474 2.72126 4.80262 0
M  V30 3759 H 380.951 1.11854 4.24718 0
M  V30 3760 H 381.557 2.55864 3.39726 0
M  V30 3761 N 379.872 -1.04064 1.18357 0
M  V30 3762 C 381.097 -1.81454 1.00445 0
M  V30 3763 C 381.522 -1.82823 -0.442423 0
M  V30 3764 O 380.88 -1.24555 -1.31741 0
M  V30 3765 C 380.928 -3.24925 1.56384 0
M  V30 3766 O 380.032 -4.04856 0.785209 0
M  V30 3767 H 379.373 -0.560604 0.355835 0
M  V30 3768 H 381.903 -1.31059 1.57114 0
M  V30 3769 H 381.913 -3.75702 1.59097 0
M  V30 3770 H 380.588 -3.23244 2.61699 0
M  V30 3771 H 379.165 -3.63537 0.830399 0
M  V30 3772 N 381.35 -0.985608 -1.22978 0
M  V30 3773 C 382.283 -0.47487 -2.23204 0
M  V30 3774 C 383.261 0.460865 -1.55932 0
M  V30 3775 O 384.445 0.388105 -1.84461 0
M  V30 3776 C 381.572 0.312427 -3.37256 0
M  V30 3777 C 380.618 -0.568219 -4.22698 0
M  V30 3778 S 381.451 -2.01919 -4.95973 0
M  V30 3779 C 382.607 -1.24118 -6.1347 0
M  V30 3780 H 382.84 -1.32419 -2.66181 0
M  V30 3781 H 380.373 -0.792005 -1.32539 0
M  V30 3782 H 382.331 0.760645 -4.03391 0
M  V30 3783 H 380.992 1.13693 -2.92801 0
M  V30 3784 H 380.185 0.0371657 -5.03986 0
M  V30 3785 H 379.787 -0.952897 -3.61657 0
M  V30 3786 H 382.079 -0.505121 -6.75614 0
M  V30 3787 H 383.022 -2.02907 -6.78406 0
M  V30 3788 H 383.43 -0.757669 -5.59392 0
M  V30 3789 N 382.828 1.3818 -0.7579 0
M  V30 3790 C 384.244 1.5353 -0.435972 0
M  V30 3791 C 384.444 1.71961 1.05032 0
M  V30 3792 O 383.5 1.73307 1.83633 0
M  V30 3793 C 384.813 2.73989 -1.23898 0
M  V30 3794 C 386.361 2.87841 -1.22949 0
M  V30 3795 C 386.836 4.11266 -2.01554 0
M  V30 3796 N 388.327 4.18352 -1.98837 0
M  V30 3797 C 389.062 5.12856 -2.5645 0
M  V30 3798 N 388.558 6.13005 -3.22794 0
M  V30 3799 N 390.351 5.05238 -2.46356 0
M  V30 3800 H 382.502 1.24467 -1.7211 0
M  V30 3801 H 384.765 0.604982 -0.729864 0
M  V30 3802 H 384.471 2.66789 -2.29165 0
M  V30 3803 H 384.345 3.67294 -0.858764 0
M  V30 3804 H 386.732 2.9452 -0.184854 0
M  V30 3805 H 386.813 1.95534 -1.64924 0
M  V30 3806 H 386.457 4.05349 -3.06031 0
M  V30 3807 H 386.387 5.02661 -1.5697 0
M  V30 3808 H 388.878 3.46628 -1.50524 0
M  V30 3809 H 389.191 6.81619 -3.64165 0
M  V30 3810 H 387.536 6.13325 -3.2689 0
M  V30 3811 H 390.727 4.25938 -1.9415 0
M  V30 3812 H 390.9 5.78707 -2.91552 0
M  V30 3813 N 384.306 0.507319 1.49211 0
M  V30 3814 C 385.554 -0.0348839 2.0207 0
M  V30 3815 C 385.875 -1.36898 1.38866 0
M  V30 3816 O 385.145 -1.88133 0.546151 0
M  V30 3817 H 383.725 -0.0158812 0.746831 0
M  V30 3818 H 386.387 0.665998 1.83168 0
M  V30 3819 H 385.483 -0.159917 3.1169 0
M  V30 3820 N 385.784 -1.5574 0.241426 0
M  V30 3821 C 387.03 -1.99104 -0.385406 0
M  V30 3822 C 387.363 -1.1293 -1.57988 0
M  V30 3823 O 386.638 -0.191449 -1.93555 0
M  V30 3824 C 386.921 -3.51087 -0.800616 0
M  V30 3825 C 386.774 -4.48028 0.398874 0
M  V30 3826 C 388.093 -4.08015 -1.64959 0
M  V30 3827 H 385.212 -0.723848 -0.138614 0
M  V30 3828 H 387.854 -1.86903 0.341642 0
M  V30 3829 H 386.004 -3.61615 -1.4201 0
M  V30 3830 H 387.676 -4.49487 1.03726 0
M  V30 3831 H 385.919 -4.21077 1.04293 0
M  V30 3832 H 386.59 -5.51962 0.0651056 0
M  V30 3833 H 389.066 -4.00555 -1.12672 0
M  V30 3834 H 387.942 -5.14635 -1.90898 0
M  V30 3835 H 388.203 -3.56131 -2.61961 0
M  V30 3836 N 387.262 0.0317525 -1.57568 0
M  V30 3837 C 388.508 0.724175 -1.8943 0
M  V30 3838 C 388.841 1.75149 -0.838836 0
M  V30 3839 O 388.116 1.93948 0.146422 0
M  V30 3840 C 388.399 1.39615 -3.31933 0
M  V30 3841 C 388.252 0.382537 -4.4817 0
M  V30 3842 C 389.571 2.33084 -3.73309 0
M  V30 3843 H 386.69 0.261797 -0.688935 0
M  V30 3844 H 389.332 -0.013017 -1.89996 0
M  V30 3845 H 387.482 2.02451 -3.31581 0
M  V30 3846 H 389.154 -0.243689 -4.60656 0
M  V30 3847 H 387.397 -0.29844 -4.32772 0
M  V30 3848 H 388.068 0.891145 -5.44759 0
M  V30 3849 H 390.544 1.80295 -3.7501 0
M  V30 3850 H 389.42 2.77084 -4.73831 0
M  V30 3851 H 389.681 3.19643 -3.05419 0
M  V30 3852 N 388.74 1.54641 0.303973 0
M  V30 3853 C 389.687 1.85386 1.37479 0
M  V30 3854 C 390.657 0.702528 1.50512 0
M  V30 3855 O 391.842 0.950867 1.65418 0
M  V30 3856 C 388.982 2.10413 2.73533 0
M  V30 3857 C 388.095 3.38049 2.68974 0
M  V30 3858 C 387.23 3.52934 3.97002 0
M  V30 3859 C 386.269 4.74373 3.86829 0
M  V30 3860 N 385.406 4.8608 5.06627 0
M  V30 3861 H 390.246 2.76732 1.1056 0
M  V30 3862 H 387.783 1.37034 0.534805 0
M  V30 3863 H 389.741 2.22919 3.52652 0
M  V30 3864 H 388.371 1.22338 2.98719 0
M  V30 3865 H 387.423 3.3418 1.81736 0
M  V30 3866 H 388.735 4.27288 2.57346 0
M  V30 3867 H 387.889 3.65088 4.84557 0
M  V30 3868 H 386.628 2.61824 4.1146 0
M  V30 3869 H 385.633 4.62255 2.97658 0
M  V30 3870 H 386.858 5.66888 3.73918 0
M  V30 3871 H 384.804 3.97891 5.21554 0
M  V30 3872 H 384.721 5.69315 4.9741 0
M  V30 3873 H 385.989 5.02587 5.95841 0
M  V30 3874 N 390.218 -0.567019 1.47046 0
M  V30 3875 C 391.148 -1.68482 1.61667 0
M  V30 3876 C 392.129 -1.6358 0.466418 0
M  V30 3877 O 393.314 -1.81354 0.694574 0
M  V30 3878 C 390.444 -3.07124 1.62148 0
M  V30 3879 C 389.398 -3.26867 2.76301 0
M  V30 3880 C 388.724 -4.66196 2.61849 0
M  V30 3881 C 390.024 -3.13186 4.17986 0
M  V30 3882 H 391.718 -1.56502 2.5524 0
M  V30 3883 H 389.264 -0.751486 1.22836 0
M  V30 3884 H 391.217 -3.8516 1.70968 0
M  V30 3885 H 389.941 -3.2004 0.651287 0
M  V30 3886 H 388.6 -2.51237 2.66975 0
M  V30 3887 H 388.248 -4.75898 1.62879 0
M  V30 3888 H 387.948 -4.80356 3.38425 0
M  V30 3889 H 389.472 -5.46379 2.72584 0
M  V30 3890 H 390.886 -3.81049 4.2834 0
M  V30 3891 H 389.283 -3.3886 4.95272 0
M  V30 3892 H 390.353 -2.10057 4.3704 0
M  V30 3893 N 391.696 -1.35014 -0.812953 0
M  V30 3894 C 392.924 -1.31031 -1.6012 0
M  V30 3895 C 393.339 0.113558 -1.88458 0
M  V30 3896 O 392.696 1.06363 -1.48301 0
M  V30 3897 C 392.747 -2.10872 -2.93624 0
M  V30 3898 O 392.468 -3.47706 -2.66518 0
M  V30 3899 C 393.969 -2.14401 -3.88004 0
M  V30 3900 H 391.189 -0.45037 -0.497401 0
M  V30 3901 H 393.733 -1.77775 -1.01076 0
M  V30 3902 H 391.888 -1.67744 -3.492 0
M  V30 3903 H 392.302 -3.89097 -3.51715 0
M  V30 3904 H 393.776 -2.74669 -4.78812 0
M  V30 3905 H 394.253 -1.14105 -4.24119 0
M  V30 3906 H 394.859 -2.57662 -3.38364 0
M  V30 3907 N 393.175 1.03435 -1.18907 0
M  V30 3908 C 394.403 1.80381 -1.01342 0
M  V30 3909 C 394.818 1.83649 0.438005 0
M  V30 3910 O 394.175 1.27655 1.30424 0
M  V30 3911 C 394.226 3.25689 -1.56873 0
M  V30 3912 O 393.947 3.22673 -2.96334 0
M  V30 3913 C 395.448 4.19255 -1.44014 0
M  V30 3914 H 392.668 0.56784 -0.35749 0
M  V30 3915 H 395.212 1.30317 -1.576 0
M  V30 3916 H 393.367 3.72962 -1.04777 0
M  V30 3917 H 393.781 4.13748 -3.22355 0
M  V30 3918 H 395.255 5.19123 -1.87657 0
M  V30 3919 H 395.732 4.37467 -0.389815 0
M  V30 3920 H 396.338 3.77851 -1.95214 0
M  V30 3921 N 394.653 0.992116 1.22453 0
M  V30 3922 C 395.881 0.685944 1.95198 0
M  V30 3923 C 396.296 -0.749233 1.73297 0
M  V30 3924 O 395.653 -1.50549 1.03156 0
M  V30 3925 C 395.704 0.981395 3.47924 0
M  V30 3926 O 395.425 2.36018 3.6909 0
M  V30 3927 C 396.926 0.692815 4.37853 0
M  V30 3928 H 394.146 0.253821 0.621141 0
M  V30 3929 H 396.69 1.32668 1.55626 0
M  V30 3930 H 394.845 0.386481 3.85467 0
M  V30 3931 H 395.259 2.45884 4.63294 0
M  V30 3932 H 396.733 0.949818 5.43767 0
M  V30 3933 H 397.21 -0.373181 4.37612 0
M  V30 3934 H 397.816 1.26874 4.05935 0
M  V30 3935 N 396.131 -1.37776 0.765217 0
M  V30 3936 C 397.094 -2.28686 0.153416 0
M  V30 3937 C 398.094 -1.47727 -0.635081 0
M  V30 3938 O 399.284 -1.68027 -0.459632 0
M  V30 3939 C 396.416 -3.31608 -0.790495 0
M  V30 3940 H 397.609 -2.84297 0.954723 0
M  V30 3941 H 395.162 -1.46932 0.53299 0
M  V30 3942 H 395.897 -2.81109 -1.61705 0
M  V30 3943 H 395.682 -3.9144 -0.227348 0
M  V30 3944 H 397.172 -3.99559 -1.21419 0
M  V30 3945 N 397.609 -0.515225 -1.4894 0
M  V30 3946 C 398.857 0.0241671 -2.02086 0
M  V30 3947 C 399.178 1.3616 -1.3959 0
M  V30 3948 O 398.448 1.87841 -0.556121 0
M  V30 3949 H 397.028 0.0119203 -0.746905 0
M  V30 3950 H 399.69 -0.675702 -1.82812 0
M  V30 3951 H 398.786 0.143385 -3.1177 0
M  V30 3952 N 399.087 1.5561 -0.249682 0
M  V30 3953 C 400.312 2.03865 0.381305 0
M  V30 3954 C 400.737 1.12769 1.50548 0
M  V30 3955 O 400.095 0.121189 1.80895 0
M  V30 3956 C 400.143 3.50101 0.863816 0
M  V30 3957 O 399.247 3.62132 1.97318 0
M  V30 3958 H 398.588 0.658827 0.0827194 0
M  V30 3959 H 401.118 2.01105 -0.376552 0
M  V30 3960 H 401.128 3.90975 1.1663 0
M  V30 3961 H 399.803 4.1588 0.0411816 0
M  V30 3962 H 398.38 3.33155 1.67517 0
M  V30 3963 N 400.565 -0.0233959 1.57583 0
M  V30 3964 C 401.497 -1.04994 2.03737 0
M  V30 3965 C 402.51 -1.32125 0.951152 0
M  V30 3966 O 403.699 -1.29512 1.22837 0
M  V30 3967 C 400.799 -2.39026 2.40249 0
M  V30 3968 C 399.972 -2.31171 3.7132 0
M  V30 3969 C 399.031 -3.47698 3.94959 0
M  V30 3970 O 398.057 -3.26937 4.65941 0
M  V30 3971 N 399.259 -4.6976 3.41037 0
M  V30 3972 H 402.024 -0.656507 2.92421 0
M  V30 3973 H 399.585 -0.211235 1.60516 0
M  V30 3974 H 401.577 -3.15712 2.53196 0
M  V30 3975 H 400.147 -2.70194 1.57207 0
M  V30 3976 H 399.367 -1.39547 3.68674 0
M  V30 3977 H 400.655 -2.23071 4.57293 0
M  V30 3978 H 400.053 -4.89528 2.83512 0
M  V30 3979 H 398.61 -5.43791 3.59353 0
M  V30 3980 N 402.043 -1.548 -0.295768 0
M  V30 3981 C 403.268 -1.78653 -1.05346 0
M  V30 3982 C 403.693 -0.546894 -1.79974 0
M  V30 3983 O 403.051 0.502763 -1.7419 0
M  V30 3984 C 403.099 -2.99679 -2.00561 0
M  V30 3985 O 402.203 -2.7317 -3.08953 0
M  V30 3986 H 401.544 -0.59116 -0.302367 0
M  V30 3987 H 404.074 -2.01895 -0.331598 0
M  V30 3988 H 404.084 -3.27793 -2.42932 0
M  V30 3989 H 402.759 -3.89562 -1.4565 0
M  V30 3990 H 401.336 -2.56089 -2.71059 0
M  V30 3991 N 403.521 0.559213 -1.47345 0
M  V30 3992 C 404.769 1.31388 -1.53563 0
M  V30 3993 C 405.09 1.93985 -0.198678 0
M  V30 3994 O 404.36 1.79825 0.777167 0
M  V30 3995 H 402.94 0.487901 -0.565652 0
M  V30 3996 H 405.602 0.65315 -1.8363 0
M  V30 3997 H 404.698 2.10844 -2.30111 0
M  V30 3998 N 404.999 1.35443 0.805782 0
M  V30 3999 C 406.247 1.28507 1.55982 0
M  V30 4000 C 406.568 -0.140046 1.94496 0
M  V30 4001 O 405.838 -1.07666 1.63661 0
M  V30 4002 H 404.418 0.472676 0.578434 0
M  V30 4003 H 407.08 1.69555 0.961098 0
M  V30 4004 H 406.176 1.90148 2.47488 0
M  V30 4005 N 406.477 -1.02803 1.19454 0
M  V30 4006 C 407.754 -1.73299 0.907013 0
M  V30 4007 C 408.134 -2.02772 -0.587086 0
M  V30 4008 O 407.482 -1.68304 -1.54551 0
M  V30 4009 C 407.692 -3.00912 1.76785 0
M  V30 4010 C 409.04 -3.74403 2.00268 0
M  V30 4011 O 410.064 -3.10841 1.73943 0
M  V30 4012 O 408.923 -4.88675 2.4466 0
M  V30 4013 H 406.017 -0.754727 0.338106 0
M  V30 4014 H 408.563 -1.08754 1.30271 0
M  V30 4015 H 407.335 -2.75366 2.7801 0
M  V30 4016 H 406.958 -3.73197 1.37149 0
M  V30 4017 N 407.956 -0.998596 -1.21925 0
M  V30 4018 C 408.919 -0.558679 -2.22287 0
M  V30 4019 C 409.919 0.361525 -1.56683 0
M  V30 4020 O 411.109 0.152695 -1.73529 0
M  V30 4021 C 408.241 0.18661 -3.40389 0
M  V30 4022 H 409.434 -1.4463 -2.62721 0
M  V30 4023 H 406.987 -0.786413 -1.35075 0
M  V30 4024 H 407.722 1.08996 -3.05435 0
M  V30 4025 H 407.507 -0.474188 -3.89222 0
M  V30 4026 H 408.997 0.482367 -4.14805 0
M  V30 4027 N 409.434 1.37368 -0.772513 0
M  V30 4028 C 410.659 2.0447 -0.347386 0
M  V30 4029 C 411.084 1.57882 1.0225 0
M  V30 4030 O 410.442 0.73941 1.65537 0
M  V30 4031 C 410.49 3.58369 -0.400479 0
M  V30 4032 O 409.594 4.0803 0.598789 0
M  V30 4033 H 408.935 0.646773 -0.15027 0
M  V30 4034 H 411.465 1.75667 -1.04892 0
M  V30 4035 H 411.475 4.07183 -0.258045 0
M  V30 4036 H 410.15 3.91633 -1.39986 0
M  V30 4037 H 408.727 3.70534 0.419411 0
M  V30 4038 N 410.912 0.523116 1.48665 0
M  V30 4039 C 412.137 -0.0117284 2.07397 0
M  V30 4040 C 412.562 -1.28031 1.37803 0
M  V30 4041 O 411.92 -1.75836 0.441762 0
M  V30 4042 C 411.968 -0.225786 3.59892 0
M  V30 4043 O 411.072 -1.29592 3.91509 0
M  V30 4044 H 410.413 0.0360673 0.66302 0
M  V30 4045 H 412.943 0.729066 1.9117 0
M  V30 4046 H 412.953 -0.450552 4.05505 0
M  V30 4047 H 411.628 0.700944 4.09951 0
M  V30 4048 H 410.205 -1.05436 3.57684 0
M  V30 4049 N 412.39 -1.55475 0.257931 0
M  V30 4050 C 413.353 -2.20551 -0.623706 0
M  V30 4051 C 414.353 -1.17809 -1.09443 0
M  V30 4052 O 415.543 -1.42823 -0.997362 0
M  V30 4053 C 412.675 -2.85784 -1.8585 0
M  V30 4054 H 413.868 -2.99848 -0.0557743 0
M  V30 4055 H 411.421 -1.56298 0.0084422 0
M  V30 4056 H 412.156 -2.10453 -2.46739 0
M  V30 4057 H 411.941 -3.61057 -1.52907 0
M  V30 4058 H 413.431 -3.35553 -2.48584 0
M  V30 4059 N 413.868 0.0150385 -1.57593 0
M  V30 4060 C 414.798 1.01047 -2.10503 0
M  V30 4061 C 415.779 1.36816 -1.01071 0
M  V30 4062 O 416.964 1.45455 -1.28672 0
M  V30 4063 C 414.094 2.30708 -2.59598 0
M  V30 4064 C 413.048 2.09142 -3.73421 0
M  V30 4065 C 412.374 3.44685 -4.08774 0
M  V30 4066 C 413.674 1.46619 -5.01298 0
M  V30 4067 H 415.368 0.569978 -2.93925 0
M  V30 4068 H 412.914 0.272724 -1.41394 0
M  V30 4069 H 414.867 3.00687 -2.95238 0
M  V30 4070 H 413.591 2.76843 -1.73279 0
M  V30 4071 H 412.25 1.41592 -3.38153 0
M  V30 4072 H 411.898 3.88495 -3.195 0
M  V30 4073 H 411.598 3.31077 -4.8545 0
M  V30 4074 H 413.122 4.16004 -4.4696 0
M  V30 4075 H 414.536 2.06535 -5.34805 0
M  V30 4076 H 412.933 1.43544 -5.82679 0
M  V30 4077 H 414.003 0.433611 -4.82957 0
M  V30 4078 N 415.346 1.54954 0.287554 0
M  V30 4079 C 416.309 1.86076 1.33823 0
M  V30 4080 C 417.309 0.734414 1.43049 0
M  V30 4081 O 418.499 1.00266 1.42452 0
M  V30 4082 C 415.631 2.05305 2.72144 0
M  V30 4083 H 416.824 2.79984 1.07465 0
M  V30 4084 H 414.377 1.47223 0.524902 0
M  V30 4085 H 415.112 1.1373 3.03704 0
M  V30 4086 H 414.897 2.873 2.66836 0
M  V30 4087 H 416.387 2.30706 3.48087 0
M  V30 4088 N 416.824 -0.551391 1.4764 0
M  V30 4089 C 418.07 -1.30789 1.55774 0
M  V30 4090 C 418.425 -1.91143 0.219562 0
M  V30 4091 O 417.718 -1.7521 -0.775375 0
M  V30 4092 C 417.912 -2.43469 2.61644 0
M  V30 4093 C 417.741 -1.94157 4.05627 0
M  V30 4094 C 416.511 -1.77734 4.7301 0
M  V30 4095 C 418.709 -1.48262 4.92466 0
M  V30 4096 N 416.691 -1.22823 6.01488 0
M  V30 4097 C 418.062 -1.05156 6.11017 0
M  V30 4098 C 420.117 -1.36367 4.78862 0
M  V30 4099 C 418.82 -0.513357 7.17466 0
M  V30 4100 C 420.846 -0.839484 5.85411 0
M  V30 4101 C 420.208 -0.418377 7.03156 0
M  V30 4102 H 416.307 -0.470406 0.624694 0
M  V30 4103 H 418.891 -0.624331 1.84419 0
M  V30 4104 H 417.062 -3.09348 2.34859 0
M  V30 4105 H 418.794 -3.10477 2.59589 0
M  V30 4106 H 415.549 -2.00623 4.29007 0
M  V30 4107 H 415.973 -0.974393 6.69951 0
M  V30 4108 H 420.615 -1.67535 3.88191 0
M  V30 4109 H 418.333 -0.189318 8.07878 0
M  V30 4110 H 421.919 -0.750921 5.76934 0
M  V30 4111 H 420.799 -0.0190538 7.84198 0
M  V30 4112 N 418.302 -1.35869 -0.798587 0
M  V30 4113 C 419.25 -1.29491 -1.93222 0
M  V30 4114 C 420.244 -0.18836 -1.6835 0
M  V30 4115 O 421.45 -0.354822 -1.76468 0
M  V30 4116 H 417.825 -0.402901 -0.63496 0
M  V30 4117 H 419.796 -2.25247 -1.9572 0
M  V30 4118 C 418.545 -1.09184 -3.30112 0
M  V30 4119 H 417.868 -1.93574 -3.49813 0
M  V30 4120 H 419.308 -1.08766 -4.09812 0
M  V30 4121 C 417.767 0.203959 -3.36282 0
M  V30 4122 O 418.297 1.19699 -3.83451 0
M  V30 4123 N 416.503 0.245488 -2.89561 0
M  V30 4124 H 416.05 -0.563223 -2.51367 0
M  V30 4125 H 416.008 1.11219 -2.94071 0
M  V30 4126 N 419.78 1.02168 -1.19998 0
M  V30 4127 C 420.743 2.08765 -0.94604 0
M  V30 4128 C 421.743 1.60618 0.0763846 0
M  V30 4129 O 422.933 1.73472 -0.159135 0
M  V30 4130 C 420.065 3.38262 -0.423255 0
M  V30 4131 H 421.258 2.32726 -1.89153 0
M  V30 4132 H 418.811 1.1889 -1.01464 0
M  V30 4133 H 419.546 3.19974 0.527938 0
M  V30 4134 H 419.331 3.74532 -1.16053 0
M  V30 4135 H 420.821 4.16759 -0.264911 0
M  V30 4136 N 421.258 1.00505 1.21394 0
M  V30 4137 C 422.535 0.603277 1.86064 0
M  V30 4138 C 422.915 -0.919095 1.90042 0
M  V30 4139 O 422.263 -1.80607 1.39977 0
M  V30 4140 C 422.473 1.23772 3.26315 0
M  V30 4141 C 423.821 1.34586 4.02705 0
M  V30 4142 O 424.845 1.19304 3.35626 0
M  V30 4143 O 423.704 1.59169 5.22807 0
M  V30 4144 H 420.798 0.206634 0.800769 0
M  V30 4145 H 423.344 1.1017 1.29076 0
M  V30 4146 H 422.116 2.27848 3.18121 0
M  V30 4147 H 421.739 0.725648 3.90922 0
M  V30 4148 N 422.737 -1.36956 0.779787 0
M  V30 4149 C 423.983 -1.99787 0.348281 0
M  V30 4150 C 424.316 -1.61756 -1.07465 0
M  V30 4151 O 423.591 -0.867639 -1.74075 0
M  V30 4152 C 423.874 -3.56597 0.50104 0
M  V30 4153 C 423.727 -4.04513 1.96697 0
M  V30 4154 C 425.046 -4.40008 -0.0898097 0
M  V30 4155 H 422.165 -0.725796 0.128022 0
M  V30 4156 H 424.807 -1.62514 0.984331 0
M  V30 4157 H 422.957 -3.88479 -0.0404347 0
M  V30 4158 H 424.629 -3.83161 2.56876 0
M  V30 4159 H 422.872 -3.56408 2.47297 0
M  V30 4160 H 423.543 -5.1352 2.02486 0
M  V30 4161 H 426.019 -4.14431 0.372293 0
M  V30 4162 H 424.895 -5.4888 0.0471605 0
M  V30 4163 H 425.156 -4.26035 -1.18096 0
M  V30 4164 N 424.215 -0.530993 -1.48385 0
M  V30 4165 C 425.464 0.00474348 -2.01699 0
M  V30 4166 C 425.777 1.35227 -1.41325 0
M  V30 4167 O 426.983 1.97643 -1.86144 0
M  V30 4168 C 425.439 0.0588473 -3.59852 0
M  V30 4169 C 425.047 -1.28385 -4.2921 0
M  V30 4170 C 426.791 0.543358 -4.21008 0
M  V30 4171 C 424.698 -1.19028 -5.79298 0
M  V30 4172 H 423.628 0.00554317 -0.75398 0
M  V30 4173 H 426.279 -0.674924 -1.70637 0
M  V30 4174 H 424.661 0.803612 -3.8776 0
M  V30 4175 H 425.835 -2.04426 -4.12973 0
M  V30 4176 H 424.15 -1.70418 -3.7993 0
M  V30 4177 H 426.747 0.631351 -5.3096 0
M  V30 4178 H 427.09 1.54937 -3.86394 0
M  V30 4179 H 427.623 -0.145754 -3.97533 0
M  V30 4180 H 424.362 -2.17147 -6.18488 0
M  V30 4181 H 423.882 -0.471246 -5.97946 0
M  V30 4182 H 425.561 -0.881365 -6.40969 0
M  V30 4183 N 425.693 1.55336 -0.266172 0
M  V30 4184 C 426.625 2.19544 0.658247 0
M  V30 4185 C 427.638 1.17746 1.12427 0
M  V30 4186 O 428.827 1.44517 1.04772 0
M  V30 4187 C 425.927 2.80032 1.9088 0
M  V30 4188 C 425.1 4.07436 1.59106 0
M  V30 4189 C 424.159 4.52056 2.69317 0
M  V30 4190 O 423.185 5.18023 2.35883 0
M  V30 4191 N 424.387 4.21448 3.99201 0
M  V30 4192 H 427.152 2.99503 0.108754 0
M  V30 4193 H 424.713 1.61667 -0.0869059 0
M  V30 4194 H 426.705 3.06831 2.63888 0
M  V30 4195 H 425.275 2.04119 2.36758 0
M  V30 4196 H 424.495 3.88021 0.695243 0
M  V30 4197 H 425.783 4.90462 1.35367 0
M  V30 4198 H 425.181 3.68528 4.29189 0
M  V30 4199 H 423.738 4.53039 4.68614 0
M  V30 4200 N 427.171 -0.0066808 1.57599 0
M  V30 4201 C 428.103 -1.02827 2.04839 0
M  V30 4202 C 429.116 -1.31108 0.965113 0
M  V30 4203 O 430.305 -1.28202 1.24203 0
M  V30 4204 C 427.405 -2.36464 2.42771 0
M  V30 4205 C 426.578 -2.27219 3.73751 0
M  V30 4206 C 425.637 -3.43489 3.98625 0
M  V30 4207 O 424.663 -3.21976 4.69382 0
M  V30 4208 N 425.865 -4.66116 3.46 0
M  V30 4209 H 428.63 -0.625455 2.93101 0
M  V30 4210 H 426.191 -0.194198 1.60731 0
M  V30 4211 H 428.183 -3.13008 2.56531 0
M  V30 4212 H 426.753 -2.68512 1.60063 0
M  V30 4213 H 425.973 -1.35629 3.70133 0
M  V30 4214 H 427.261 -2.18208 4.59633 0
M  V30 4215 H 426.659 -4.86493 2.88688 0
M  V30 4216 H 425.216 -5.39949 3.65101 0
M  V30 4217 N 428.649 -1.55105 -0.279332 0
M  V30 4218 C 430.065 -1.46803 -0.626187 0
M  V30 4219 C 430.265 -0.676939 -1.89789 0
M  V30 4220 O 429.321 -0.19326 -2.51759 0
M  V30 4221 C 430.634 -2.90962 -0.759034 0
M  V30 4222 C 432.182 -3.01138 -0.853504 0
M  V30 4223 C 432.657 -4.46539 -1.01818 0
M  V30 4224 N 434.148 -4.50341 -1.08386 0
M  V30 4225 C 434.883 -5.60053 -1.22996 0
M  V30 4226 N 434.379 -6.79645 -1.34366 0
M  V30 4227 N 436.172 -5.47783 -1.26056 0
M  V30 4228 H 428.323 -2.04996 0.555921 0
M  V30 4229 H 430.586 -0.929325 0.187239 0
M  V30 4230 H 430.292 -3.51544 0.104852 0
M  V30 4231 H 430.166 -3.39619 -1.64131 0
M  V30 4232 H 432.553 -2.40658 -1.70786 0
M  V30 4233 H 432.634 -2.55745 0.0532466 0
M  V30 4234 H 432.278 -5.0762 -0.168504 0
M  V30 4235 H 432.208 -4.89583 -1.93948 0
M  V30 4236 H 434.699 -3.64191 -1.00864 0
M  V30 4237 H 435.012 -7.59012 -1.4533 0
M  V30 4238 H 433.357 -6.82469 -1.31382 0
M  V30 4239 H 436.548 -4.53294 -1.168 0
M  V30 4240 H 436.721 -6.33331 -1.37098 0
M  V30 4241 N 430.127 0.543554 -1.4793 0
M  V30 4242 C 431.375 1.29752 -1.54948 0
M  V30 4243 C 431.696 1.93764 -0.219242 0
M  V30 4244 O 430.966 1.80639 0.75805 0
M  V30 4245 H 429.546 0.481874 -0.570795 0
M  V30 4246 H 432.208 0.633636 -1.84312 0
M  V30 4247 H 431.304 2.08392 -2.32334 0
M  V30 4248 N 431.605 1.3629 0.791371 0
M  V30 4249 C 432.853 1.30154 1.5461 0
M  V30 4250 C 433.174 -0.119409 1.94634 0
M  V30 4251 O 432.444 -1.05924 1.64794 0
M  V30 4252 H 431.024 0.478784 0.573389 0
M  V30 4253 H 433.686 1.70565 0.94306 0
M  V30 4254 H 432.782 1.92762 2.45457 0
M  V30 4255 N 433.083 -1.0153 1.20538 0
M  V30 4256 C 434.015 -2.10224 0.913155 0
M  V30 4257 C 435.028 -1.62495 -0.0995998 0
M  V30 4258 O 436.217 -1.78014 0.131582 0
M  V30 4259 C 433.317 -3.37111 0.347717 0
M  V30 4260 C 432.49 -4.13971 1.41233 0
M  V30 4261 C 431.549 -5.19158 0.857976 0
M  V30 4262 O 430.575 -5.48 1.53897 0
M  V30 4263 N 431.777 -5.7955 -0.331966 0
M  V30 4264 H 434.542 -2.35879 1.84881 0
M  V30 4265 H 432.103 -1.17931 1.10923 0
M  V30 4266 H 434.095 -4.04683 -0.0373026 0
M  V30 4267 H 432.665 -3.08696 -0.492527 0
M  V30 4268 H 431.885 -3.41351 1.97163 0
M  V30 4269 H 433.173 -4.62103 2.12928 0
M  V30 4270 H 432.571 -5.58455 -0.902478 0
M  V30 4271 H 431.128 -6.48464 -0.65861 0
M  V30 4272 N 434.561 -1.01147 -1.20859 0
M  V30 4273 C 435.81 -0.693214 -1.89413 0
M  V30 4274 C 436.123 0.779969 -1.79376 0
M  V30 4275 O 437.329 1.21057 -2.43017 0
M  V30 4276 C 435.785 -1.18949 -3.39675 0
M  V30 4277 C 435.393 -2.68921 -3.58309 0
M  V30 4278 C 437.137 -0.94642 -4.13815 0
M  V30 4279 C 435.044 -3.12056 -5.0237 0
M  V30 4280 H 433.974 -0.255595 -0.709357 0
M  V30 4281 H 436.625 -1.22349 -1.36759 0
M  V30 4282 H 435.007 -0.587228 -3.91622 0
M  V30 4283 H 436.181 -3.34652 -3.16772 0
M  V30 4284 H 434.496 -2.91314 -2.97532 0
M  V30 4285 H 437.093 -1.24417 -5.20023 0
M  V30 4286 H 437.436 0.117219 -4.16135 0
M  V30 4287 H 437.969 -1.5118 -3.67953 0
M  V30 4288 H 434.708 -4.17674 -5.05202 0
M  V30 4289 H 434.228 -2.51041 -5.44737 0
M  V30 4290 H 435.907 -3.04403 -5.70918 0
M  V30 4291 N 436.039 1.36541 -0.78704 0
M  V30 4292 C 437.288 1.98552 -0.35494 0
M  V30 4293 C 437.601 1.63171 1.07864 0
M  V30 4294 O 438.807 2.18399 1.61289 0
M  V30 4295 C 437.263 3.55136 -0.583671 0
M  V30 4296 C 436.871 3.99444 -2.02851 0
M  V30 4297 C 438.615 4.2395 -0.215957 0
M  V30 4298 C 436.522 5.48796 -2.20403 0
M  V30 4299 H 435.452 0.742888 -0.128972 0
M  V30 4300 H 438.103 1.5587 -0.968337 0
M  V30 4301 H 436.485 3.95875 0.0994046 0
M  V30 4302 H 437.659 3.6991 -2.74779 0
M  V30 4303 H 435.974 3.43459 -2.35425 0
M  V30 4304 H 438.571 5.33709 -0.325405 0
M  V30 4305 H 438.914 4.07827 0.835646 0
M  V30 4306 H 439.447 3.88565 -0.852175 0
M  V30 4307 H 436.186 5.69864 -3.23937 0
M  V30 4308 H 435.706 5.79964 -1.52977 0
M  V30 4309 H 437.385 6.14986 -2.01002 0
M  V30 4310 N 437.518 0.538854 1.48102 0
M  V30 4311 C 438.748 0.0122958 2.06596 0
M  V30 4312 C 439.156 -1.27861 1.39457 0
M  V30 4313 O 438.499 -1.77348 0.478907 0
M  V30 4314 C 438.561 -0.273131 3.58461 0
M  V30 4315 C 438.225 0.92561 4.47528 0
M  V30 4316 C 439.222 1.82637 4.86765 0
M  V30 4317 C 436.907 1.13511 4.89306 0
M  V30 4318 C 438.901 2.92047 5.66558 0
M  V30 4319 C 436.588 2.23233 5.68868 0
M  V30 4320 C 437.586 3.12333 6.07402 0
M  V30 4321 O 437.274 4.20155 6.85365 0
M  V30 4322 H 437.006 0.0344283 0.675123 0
M  V30 4323 H 439.56 0.746494 1.91355 0
M  V30 4324 H 437.79 -1.06141 3.71848 0
M  V30 4325 H 439.479 -0.742842 3.99045 0
M  V30 4326 H 440.245 1.67649 4.55103 0
M  V30 4327 H 436.124 0.450835 4.5879 0
M  V30 4328 H 439.668 3.6162 5.96554 0
M  V30 4329 H 435.565 2.38201 5.99942 0
M  V30 4330 H 436.333 4.17975 7.03732 0
M  V30 4331 N 438.996 -1.55193 0.274407 0
M  V30 4332 C 440.244 -1.99187 -0.341902 0
M  V30 4333 C 440.565 -1.16422 -1.56431 0
M  V30 4334 O 439.835 -0.253573 -1.94252 0
M  V30 4335 H 438.415 -0.735721 -0.129317 0
M  V30 4336 H 441.077 -1.91168 0.379578 0
M  V30 4337 H 440.173 -3.05629 -0.632253 0
M  V30 4338 N 440.474 -0.00167713 -1.576 0
M  V30 4339 C 441.702 0.693759 -1.94922 0
M  V30 4340 C 442.117 1.67215 -0.876626 0
M  V30 4341 O 441.474 1.81929 0.144279 0
M  V30 4342 C 441.525 1.42416 -3.32265 0
M  V30 4343 O 441.246 0.485014 -4.35407 0
M  V30 4344 C 442.747 2.21395 -3.84056 0
M  V30 4345 H 439.967 0.193118 -0.642609 0
M  V30 4346 H 442.511 -0.0532952 -2.04431 0
M  V30 4347 H 440.666 2.12284 -3.24059 0
M  V30 4348 H 441.08 1.00053 -5.14868 0
M  V30 4349 H 442.554 2.67996 -4.82578 0
M  V30 4350 H 443.031 3.04142 -3.16851 0
M  V30 4351 H 443.637 1.56542 -3.95443 0
M  V30 4352 N 441.952 1.55251 0.271103 0
M  V30 4353 C 442.882 1.9127 1.33933 0
M  V30 4354 C 443.863 0.77478 1.5143 0
M  V30 4355 O 445.048 1.03307 1.64442 0
M  V30 4356 C 442.178 2.18627 2.69851 0
M  V30 4357 C 441.132 3.34442 2.67081 0
M  V30 4358 C 440.458 3.47284 4.06569 0
M  V30 4359 C 441.758 4.70784 2.26185 0
M  V30 4360 H 443.452 2.80744 1.04035 0
M  V30 4361 H 440.998 1.35077 0.499017 0
M  V30 4362 H 442.951 2.42413 3.44694 0
M  V30 4363 H 441.675 1.25955 3.01335 0
M  V30 4364 H 440.334 3.10627 1.94695 0
M  V30 4365 H 439.982 2.52074 4.35279 0
M  V30 4366 H 439.682 4.25152 4.0561 0
M  V30 4367 H 441.206 3.73363 4.83148 0
M  V30 4368 H 442.62 4.94102 2.90751 0
M  V30 4369 H 441.017 5.51582 2.36384 0
M  V30 4370 H 442.087 4.69478 1.21319 0
M  V30 4371 N 443.43 -0.535701 1.48216 0
M  V30 4372 C 444.846 -0.863701 1.3421 0
M  V30 4373 C 445.046 -1.98458 0.34879 0
M  V30 4374 O 444.102 -2.51432 -0.23204 0
M  V30 4375 C 445.415 -1.23662 2.74095 0
M  V30 4376 C 446.963 -1.34683 2.82541 0
M  V30 4377 C 447.438 -1.75322 4.23115 0
M  V30 4378 N 448.929 -1.82434 4.2576 0
M  V30 4379 C 449.664 -2.15252 5.31464 0
M  V30 4380 N 449.16 -2.46533 6.47452 0
M  V30 4381 N 450.953 -2.16209 5.18855 0
M  V30 4382 H 443.104 0.203965 2.11418 0
M  V30 4383 H 445.367 0.0286033 0.947568 0
M  V30 4384 H 445.073 -0.486674 3.48316 0
M  V30 4385 H 444.947 -2.18805 3.07253 0
M  V30 4386 H 447.334 -2.08756 2.08579 0
M  V30 4387 H 447.415 -0.376756 2.5301 0
M  V30 4388 H 447.059 -1.01812 4.97591 0
M  V30 4389 H 446.989 -2.7337 4.50085 0
M  V30 4390 H 449.48 -1.6056 3.42095 0
M  V30 4391 H 449.793 -2.70662 7.23852 0
M  V30 4392 H 448.138 -2.44065 6.50736 0
M  V30 4393 H 451.329 -1.91224 4.2726 0
M  V30 4394 H 451.502 -2.41453 6.01335 0
M  V30 4395 N 444.908 -1.36708 -0.784132 0
M  V30 4396 C 446.157 -1.30559 -1.53744 0
M  V30 4397 C 446.47 0.111374 -1.95283 0
M  V30 4398 O 447.676 0.29527 -2.6989 0
M  V30 4399 C 446.132 -2.29098 -2.77565 0
M  V30 4400 C 445.74 -3.76258 -2.43174 0
M  V30 4401 C 447.484 -2.31936 -3.55536 0
M  V30 4402 C 445.391 -4.6656 -3.63422 0
M  V30 4403 H 444.321 -0.48518 -0.577162 0
M  V30 4404 H 446.972 -1.62101 -0.859981 0
M  V30 4405 H 445.354 -1.90557 -3.47137 0
M  V30 4406 H 446.528 -4.23565 -1.81465 0
M  V30 4407 H 444.843 -3.76246 -1.78403 0
M  V30 4408 H 447.44 -2.9661 -4.44889 0
M  V30 4409 H 447.783 -1.3294 -3.94503 0
M  V30 4410 H 448.316 -2.6912 -2.92949 0
M  V30 4411 H 445.055 -5.66638 -3.29547 0
M  V30 4412 H 444.575 -4.23966 -4.24279 0
M  V30 4413 H 446.254 -4.8309 -4.30387 0
M  V30 4414 N 446.386 1.0089 -1.21074 0
M  V30 4415 C 447.296 2.13039 -0.982425 0
M  V30 4416 C 448.312 1.73881 0.0642161 0
M  V30 4417 O 449.488 2.01012 -0.12496 0
M  V30 4418 C 446.553 3.42377 -0.545803 0
M  V30 4419 C 445.614 3.95731 -1.6642 0
M  V30 4420 C 444.847 5.18896 -1.24832 0
M  V30 4421 O 445.07 5.70273 -0.120265 0
M  V30 4422 O 444.004 5.65597 -2.05873 0
M  V30 4423 H 447.83 2.35175 -1.92163 0
M  V30 4424 H 445.415 1.1142 -0.995285 0
M  V30 4425 H 447.297 4.20244 -0.311912 0
M  V30 4426 H 445.972 3.21639 0.364727 0
M  V30 4427 H 444.879 3.19108 -1.95246 0
M  V30 4428 H 446.212 4.20872 -2.55201 0
M  V30 4429 N 447.864 1.01787 1.20321 0
M  V30 4430 C 449.141 0.622978 1.85414 0
M  V30 4431 C 449.521 -0.898887 1.91006 0
M  V30 4432 O 448.869 -1.79112 1.41884 0
M  V30 4433 C 449.079 1.27226 3.24984 0
M  V30 4434 C 450.427 1.3885 4.01255 0
M  V30 4435 O 451.451 1.22857 3.34342 0
M  V30 4436 O 450.31 1.64705 5.2109 0
M  V30 4437 H 447.404 0.215116 0.798533 0
M  V30 4438 H 449.95 1.11533 1.27901 0
M  V30 4439 H 448.722 2.31209 3.15687 0
M  V30 4440 H 448.345 0.767069 3.90131 0
M  V30 4441 N 449.342 -1.36122 0.79427 0
M  V30 4442 C 450.57 -2.03362 0.380989 0
M  V30 4443 C 450.985 -1.59881 -1.00416 0
M  V30 4444 O 450.342 -0.790515 -1.6449 0
M  V30 4445 C 450.393 -3.58804 0.440649 0
M  V30 4446 O 450.114 -4.007 1.77118 0
M  V30 4447 C 451.615 -4.43296 0.0186117 0
M  V30 4448 H 448.835 -0.652526 0.156367 0
M  V30 4449 H 451.379 -1.73998 1.07447 0
M  V30 4450 H 449.534 -3.8686 -0.204458 0
M  V30 4451 H 449.948 -4.95309 1.72538 0
M  V30 4452 H 451.422 -5.51887 0.111488 0
M  V30 4453 H 451.899 -4.2684 -1.03461 0
M  V30 4454 H 452.505 -4.20512 0.636395 0
M  V30 4455 N 450.82 -0.546701 -1.47814 0
M  V30 4456 C 452.067 -0.0187407 -2.02491 0
M  V30 4457 C 452.395 1.32685 -1.42215 0
M  V30 4458 O 451.65 1.87413 -0.563454 0
M  V30 4459 C 451.949 0.134869 -3.57145 0
M  V30 4460 C 451.615 -1.13849 -4.3629 0
M  V30 4461 C 450.277 -1.48743 -4.57634 0
M  V30 4462 C 452.629 -1.98277 -4.82012 0
M  V30 4463 C 449.957 -2.67932 -5.21948 0
M  V30 4464 C 452.309 -3.16659 -5.4764 0
M  V30 4465 C 450.973 -3.51879 -5.67219 0
M  V30 4466 H 450.243 -0.0068577 -0.740968 0
M  V30 4467 H 452.89 -0.716097 -1.77607 0
M  V30 4468 H 451.195 0.915118 -3.80963 0
M  V30 4469 H 452.892 0.558556 -3.97091 0
M  V30 4470 H 449.482 -0.856767 -4.19949 0
M  V30 4471 H 453.666 -1.72628 -4.6531 0
M  V30 4472 H 448.922 -2.95401 -5.35302 0
M  V30 4473 H 453.096 -3.82374 -5.82033 0
M  V30 4474 H 450.723 -4.44331 -6.16825 0
M  V30 4475 N 452.299 1.55045 -0.282633 0
M  V30 4476 C 453.527 2.04168 0.33512 0
M  V30 4477 C 453.942 1.16071 1.48906 0
M  V30 4478 O 453.299 0.182391 1.81586 0
M  V30 4479 C 453.35 3.52332 0.808957 0
M  V30 4480 O 453.071 4.37078 -0.299038 0
M  V30 4481 C 454.572 4.17375 1.49375 0
M  V30 4482 H 451.792 0.666744 0.0754543 0
M  V30 4483 H 454.336 2.00205 -0.416918 0
M  V30 4484 H 452.491 3.56715 1.51106 0
M  V30 4485 H 452.905 5.24458 0.0665514 0
M  V30 4486 H 454.379 5.22627 1.77664 0
M  V30 4487 H 454.856 3.65999 2.42778 0
M  V30 4488 H 455.462 4.17016 0.835305 0
M  V30 4489 N 453.777 0.010035 1.57597 0
M  V30 4490 C 455.026 -0.671945 1.90178 0
M  V30 4491 C 455.339 -1.74376 0.886131 0
M  V30 4492 O 456.545 -2.48107 1.10252 0
M  V30 4493 C 455.001 -1.24636 3.3763 0
M  V30 4494 C 454.609 -0.208838 4.47513 0
M  V30 4495 C 456.353 -1.90595 3.79307 0
M  V30 4496 C 454.26 -0.793814 5.86048 0
M  V30 4497 H 453.19 -0.25474 0.709665 0
M  V30 4498 H 455.841 0.0722206 1.83358 0
M  V30 4499 H 454.223 -2.04152 3.3932 0
M  V30 4500 H 455.397 0.562463 4.57354 0
M  V30 4501 H 453.712 0.350889 4.14919 0
M  V30 4502 H 456.309 -2.35284 4.80151 0
M  V30 4503 H 456.652 -2.74074 3.13352 0
M  V30 4504 H 457.185 -1.17798 3.79958 0
M  V30 4505 H 453.924 0.00240855 6.555 0
M  V30 4506 H 453.444 -1.53404 5.79851 0
M  V30 4507 H 455.123 -1.2894 6.34022 0
M  V30 4508 N 455.255 -1.55392 -0.262866 0
M  V30 4509 C 456.218 -1.88181 -1.30846 0
M  V30 4510 C 457.218 -0.757079 -1.41862 0
M  V30 4511 O 458.408 -1.02519 -1.40838 0
M  V30 4512 C 455.54 -2.09609 -2.68844 0
M  V30 4513 H 456.733 -2.81659 -1.02997 0
M  V30 4514 H 454.286 -1.48039 -0.501414 0
M  V30 4515 H 455.021 -1.18547 -3.01856 0
M  V30 4516 H 454.806 -2.91508 -2.62231 0
M  V30 4517 H 456.296 -2.36215 -3.44372 0
M  V30 4518 N 456.733 0.527833 -1.48498 0
M  V30 4519 C 457.681 1.65313 -1.63628 0
M  V30 4520 C 458.675 1.6177 -0.502676 0
M  V30 4521 O 459.881 1.66601 -0.681469 0
M  V30 4522 H 456.256 0.547518 -0.515488 0
M  V30 4523 H 458.227 1.49696 -2.58135 0
M  V30 4524 C 456.976 3.03576 -1.6952 0
M  V30 4525 H 456.299 3.06997 -2.56111 0
M  V30 4526 H 457.739 3.81923 -1.84149 0
M  V30 4527 C 456.198 3.34089 -0.43432 0
M  V30 4528 O 456.728 3.99151 0.451852 0
M  V30 4529 N 454.934 2.88991 -0.305368 0
M  V30 4530 H 454.481 2.36222 -1.02747 0
M  V30 4531 H 454.439 3.09776 0.537249 0
M  V30 4532 N 458.211 1.37122 0.776871 0
M  V30 4533 C 459.459 1.31787 1.53221 0
M  V30 4534 C 459.78 -0.0987589 1.9475 0
M  V30 4535 O 459.05 -1.0417 1.65908 0
M  V30 4536 H 457.63 0.484839 0.568278 0
M  V30 4537 H 460.292 1.71556 0.924917 0
M  V30 4538 H 459.388 1.95355 2.43398 0
M  V30 4539 N 459.689 -1.00246 1.21608 0
M  V30 4540 C 460.937 -1.73717 1.0328 0
M  V30 4541 C 461.258 -1.90102 -0.434318 0
M  V30 4542 O 460.528 -1.45376 -1.31311 0
M  V30 4543 H 459.108 -0.643613 0.379172 0
M  V30 4544 H 461.77 -1.20787 1.52959 0
M  V30 4545 H 460.866 -2.73535 1.50283 0
M  V30 4546 N 461.167 -1.02423 -1.1978 0
M  V30 4547 C 462.13 -0.605703 -2.21052 0
M  V30 4548 C 463.13 0.328209 -1.57415 0
M  V30 4549 O 464.32 0.115853 -1.73814 0
M  V30 4550 C 461.452 0.114366 -3.40708 0
M  V30 4551 H 462.645 -1.5017 -2.59594 0
M  V30 4552 H 460.198 -0.814888 -1.33376 0
M  V30 4553 H 460.933 1.02492 -3.07678 0
M  V30 4554 H 460.718 -0.556641 -3.88129 0
M  V30 4555 H 462.208 0.394272 -4.15735 0
M  V30 4556 N 462.645 1.35699 -0.801477 0
M  V30 4557 C 463.593 2.3177 -0.196317 0
M  V30 4558 C 464.587 1.56388 0.651081 0
M  V30 4559 O 465.793 1.71557 0.544815 0
M  V30 4560 H 462.168 0.750669 -0.0447189 0
M  V30 4561 H 464.139 2.8036 -1.02181 0
M  V30 4562 C 462.888 3.41671 0.644702 0
M  V30 4563 H 462.211 3.998 0.0019921 0
M  V30 4564 H 463.651 4.11184 1.0346 0
M  V30 4565 C 462.11 2.84271 1.80808 0
M  V30 4566 O 462.64 2.77408 2.9053 0
M  V30 4567 N 460.846 2.41391 1.61799 0
M  V30 4568 H 460.393 2.47173 0.725493 0
M  V30 4569 H 460.351 2.03334 2.39797 0
M  V30 4570 N 464.123 0.554532 1.47522 0
M  V30 4571 C 465.372 0.0273458 2.01681 0
M  V30 4572 C 465.685 -1.32962 1.43459 0
M  V30 4573 O 466.891 -1.94657 1.89265 0
M  V30 4574 C 465.347 -0.00159057 3.599 0
M  V30 4575 C 464.955 1.35197 4.27113 0
M  V30 4576 C 466.699 -0.476311 4.21819 0
M  V30 4577 C 464.606 1.28229 5.77331 0
M  V30 4578 H 463.536 0.00645269 0.753972 0
M  V30 4579 H 466.187 0.701985 1.69542 0
M  V30 4580 H 464.569 -0.741821 3.8899 0
M  V30 4581 H 465.743 2.1097 4.09668 0
M  V30 4582 H 464.058 1.76441 3.77171 0
M  V30 4583 H 466.655 -0.5468 5.31897 0
M  V30 4584 H 466.998 -1.4877 3.8881 0
M  V30 4585 H 467.531 0.20898 3.97251 0
M  V30 4586 H 464.27 2.26959 6.14955 0
M  V30 4587 H 463.79 0.566314 5.97121 0
M  V30 4588 H 465.469 0.983226 6.39485 0
M  V30 4589 N 465.601 -1.54893 0.290851 0
M  V30 4590 C 466.829 -2.04343 -0.324288 0
M  V30 4591 C 467.244 -1.16859 -1.48289 0
M  V30 4592 O 466.601 -0.192018 -1.81487 0
M  V30 4593 C 466.652 -3.52756 -0.79026 0
M  V30 4594 O 466.373 -4.36913 0.322213 0
M  V30 4595 C 467.874 -4.18161 -1.4716 0
M  V30 4596 H 465.094 -0.667135 -0.0719173 0
M  V30 4597 H 467.638 -1.99981 0.427529 0
M  V30 4598 H 465.793 -3.57511 -1.49213 0
M  V30 4599 H 466.207 -5.24486 -0.0387372 0
M  V30 4600 H 467.681 -5.23562 -1.7489 0
M  V30 4601 H 468.158 -3.67282 -2.40834 0
M  V30 4602 H 468.764 -4.17454 -0.813178 0
M  V30 4603 N 467.08 -0.0183926 -1.57589 0
M  V30 4604 C 468.328 0.661253 -1.90976 0
M  V30 4605 C 468.649 1.73281 -0.894353 0
M  V30 4606 O 467.919 1.9579 0.0656788 0
M  V30 4607 H 466.499 0.247233 -0.704901 0
M  V30 4608 H 469.161 -0.0636639 -1.94796 0
M  V30 4609 H 468.257 1.12083 -2.9128 0
M  V30 4610 N 468.558 1.5553 0.254621 0
M  V30 4611 C 469.786 1.81046 1.00149 0
M  V30 4612 C 470.201 0.593047 1.79244 0
M  V30 4613 O 469.558 -0.438196 1.77161 0
M  V30 4614 C 469.609 3.04684 1.94551 0
M  V30 4615 O 469.33 4.21725 1.18658 0
M  V30 4616 C 470.831 3.42943 2.80901 0
M  V30 4617 H 468.051 0.602653 0.295044 0
M  V30 4618 H 470.595 2.02576 0.279842 0
M  V30 4619 H 468.75 2.85226 2.62154 0
M  V30 4620 H 469.164 4.91746 1.82445 0
M  V30 4621 H 470.638 4.32576 3.42902 0
M  V30 4622 H 471.115 2.63176 3.51617 0
M  V30 4623 H 471.721 3.64724 2.18762 0
M  V30 4624 N 470.036 -0.519951 1.48776 0
M  V30 4625 C 471.282 -1.27711 1.57536 0
M  V30 4626 C 471.615 -1.92547 0.252866 0
M  V30 4627 O 470.89 -1.7979 -0.742021 0
M  V30 4628 C 471.173 -2.35875 2.72094 0
M  V30 4629 C 471.026 -1.75664 4.1408 0
M  V30 4630 C 472.345 -3.37575 2.82367 0
M  V30 4631 H 469.464 -0.462971 0.573434 0
M  V30 4632 H 472.106 -0.578194 1.80989 0
M  V30 4633 H 470.256 -2.95488 2.52228 0
M  V30 4634 H 471.928 -1.20025 4.45412 0
M  V30 4635 H 470.171 -1.06154 4.20611 0
M  V30 4636 H 470.842 -2.54029 4.90075 0
M  V30 4637 H 473.318 -2.87929 3.00393 0
M  V30 4638 H 472.194 -4.1064 3.64233 0
M  V30 4639 H 472.455 -3.98743 1.90936 0
M  V30 4640 N 471.514 -1.37532 -0.769588 0
M  V30 4641 C 472.93 -1.18379 -1.07045 0
M  V30 4642 C 473.13 -0.0214312 -2.01489 0
M  V30 4643 O 472.186 0.637809 -2.44312 0
M  V30 4644 C 473.499 -2.50338 -1.66588 0
M  V30 4645 C 475.047 -2.56879 -1.78835 0
M  V30 4646 C 475.522 -3.88974 -2.41792 0
M  V30 4647 N 477.013 -3.90428 -2.4924 0
M  V30 4648 C 477.748 -4.89388 -2.98809 0
M  V30 4649 N 477.244 -5.98745 -3.48535 0
M  V30 4650 N 479.037 -4.76791 -2.97703 0
M  V30 4651 H 471.188 -2.11921 -0.142541 0
M  V30 4652 H 473.451 -0.939608 -0.125863 0
M  V30 4653 H 473.157 -3.35767 -1.0466 0
M  V30 4654 H 473.031 -2.67583 -2.65856 0
M  V30 4655 H 475.418 -1.71856 -2.39895 0
M  V30 4656 H 475.499 -2.43516 -0.783166 0
M  V30 4657 H 475.143 -4.74412 -1.81371 0
M  V30 4658 H 475.073 -3.99641 -3.4292 0
M  V30 4659 H 477.564 -3.11433 -2.14052 0
M  V30 4660 H 477.877 -6.70205 -3.84767 0
M  V30 4661 H 476.222 -6.02387 -3.46634 0
M  V30 4662 H 479.413 -3.90478 -2.58157 0
M  V30 4663 H 479.586 -5.54069 -3.36024 0
M  V30 4664 N 472.992 0.995999 -1.22138 0
M  V30 4665 C 473.925 2.08302 -0.931952 0
M  V30 4666 C 474.903 1.62127 0.123956 0
M  V30 4667 O 476.087 1.88499 -0.00696004 0
M  V30 4668 C 473.214 3.36317 -0.401068 0
M  V30 4669 C 472.26 4.01413 -1.44117 0
M  V30 4670 S 473.093 4.42664 -3.01345 0
M  V30 4671 C 474.249 5.73853 -2.49887 0
M  V30 4672 H 474.482 2.32532 -1.85246 0
M  V30 4673 H 472.015 1.13005 -1.0521 0
M  V30 4674 H 473.973 4.10375 -0.101352 0
M  V30 4675 H 472.634 3.10123 0.498272 0
M  V30 4676 H 471.827 4.9358 -1.01952 0
M  V30 4677 H 471.429 3.33668 -1.68943 0
M  V30 4678 H 473.721 6.50039 -1.90934 0
M  V30 4679 H 474.664 6.20841 -3.40532 0
M  V30 4680 H 475.072 5.31105 -1.9128 0
M  V30 4681 N 474.47 1.03057 1.19235 0
M  V30 4682 C 475.698 0.747697 1.92917 0
M  V30 4683 C 476.113 -0.69372 1.75593 0
M  V30 4684 O 475.47 -1.47191 1.07894 0
M  V30 4685 C 475.521 1.09159 3.44625 0
M  V30 4686 O 475.242 2.47641 3.61394 0
M  V30 4687 C 476.743 0.831763 4.35427 0
M  V30 4688 H 473.963 0.273453 0.612751 0
M  V30 4689 H 476.507 1.37552 1.51327 0
M  V30 4690 H 474.662 0.508919 3.84043 0
M  V30 4691 H 475.076 2.60499 4.55237 0
M  V30 4692 H 476.55 1.12233 5.4047 0
M  V30 4693 H 477.027 -0.233769 4.38577 0
M  V30 4694 H 477.633 1.39725 4.01693 0
M  V30 4695 N 475.948 -1.35272 0.808662 0
M  V30 4696 C 477.196 -1.98316 0.389233 0
M  V30 4697 C 477.517 -1.64465 -1.04767 0
M  V30 4698 O 476.787 -0.928175 -1.72516 0
M  V30 4699 H 475.367 -0.733585 0.140935 0
M  V30 4700 H 478.029 -1.6515 1.03496 0
M  V30 4701 H 477.125 -3.08123 0.496631 0
M  V30 4702 N 477.426 -0.562348 -1.47226 0
M  V30 4703 C 478.674 -0.0401371 -2.0206 0
M  V30 4704 C 478.995 1.3165 -1.43852 0
M  V30 4705 O 478.265 1.85976 -0.615599 0
M  V30 4706 H 476.845 -0.0118479 -0.746906 0
M  V30 4707 H 479.507 -0.73352 -1.8057 0
M  V30 4708 H 478.603 0.0441254 -3.12069 0
M  V30 4709 N 478.904 1.54736 -0.299062 0
M  V30 4710 C 480.134 2.04215 0.312992 0
M  V30 4711 C 480.542 1.17596 1.48215 0
M  V30 4712 O 479.885 0.193835 1.82674 0
M  V30 4713 C 479.947 3.49696 0.833862 0
M  V30 4714 C 479.611 4.56518 -0.20977 0
M  V30 4715 C 480.608 5.09442 -1.03756 0
M  V30 4716 C 478.293 5.01073 -0.35091 0
M  V30 4717 C 480.287 6.05459 -1.99244 0
M  V30 4718 C 477.974 5.9691 -1.30924 0
M  V30 4719 C 478.972 6.48987 -2.1285 0
M  V30 4720 O 478.66 7.42947 -3.07059 0
M  V30 4721 H 478.392 0.672128 0.0722494 0
M  V30 4722 H 480.946 2.00718 -0.436043 0
M  V30 4723 H 479.176 3.5051 1.63339 0
M  V30 4724 H 480.865 3.82381 1.36159 0
M  V30 4725 H 481.631 4.75816 -0.939376 0
M  V30 4726 H 477.51 4.60168 0.276813 0
M  V30 4727 H 481.054 6.46031 -2.63229 0
M  V30 4728 H 476.951 6.29953 -1.40815 0
M  V30 4729 H 477.719 7.60743 -3.02015 0
M  V30 4730 N 480.382 0.0267497 1.57577 0
M  V30 4731 C 481.631 -0.651736 1.9088 0
M  V30 4732 C 481.944 -1.73427 0.904576 0
M  V30 4733 O 483.15 -2.46923 1.12877 0
M  V30 4734 C 481.606 -1.21048 3.38933 0
M  V30 4735 C 481.214 -0.161362 4.47709 0
M  V30 4736 C 482.958 -1.86562 3.81307 0
M  V30 4737 C 480.865 -0.731611 5.86857 0
M  V30 4738 H 479.795 -0.247198 0.712326 0
M  V30 4739 H 482.446 0.0916641 1.83271 0
M  V30 4740 H 480.828 -2.00542 3.41466 0
M  V30 4741 H 482.002 0.61094 4.56732 0
M  V30 4742 H 480.317 0.394877 4.14523 0
M  V30 4743 H 482.914 -2.30178 4.8262 0
M  V30 4744 H 483.257 -2.70735 3.16241 0
M  V30 4745 H 483.79 -1.13762 3.81186 0
M  V30 4746 H 480.529 0.0719329 6.55461 0
M  V30 4747 H 480.049 -1.47245 5.81445 0
M  V30 4748 H 481.728 -1.22208 6.35354 0
M  V30 4749 N 481.861 -1.55662 -0.24637 0
M  V30 4750 C 482.793 -1.86811 -1.32794 0
M  V30 4751 C 483.806 -0.754413 -1.44265 0
M  V30 4752 O 484.995 -1.03253 -1.45606 0
M  V30 4753 C 482.095 -2.0397 -2.70646 0
M  V30 4754 C 481.268 -3.34832 -2.81436 0
M  V30 4755 C 480.327 -3.41727 -4.00136 0
M  V30 4756 O 479.353 -4.14934 -3.89639 0
M  V30 4757 N 480.555 -2.71058 -5.1333 0
M  V30 4758 H 483.32 -2.80174 -1.06409 0
M  V30 4759 H 480.881 -1.55906 -0.43647 0
M  V30 4760 H 482.873 -2.05924 -3.48393 0
M  V30 4761 H 481.443 -1.1735 -2.89738 0
M  V30 4762 H 480.663 -3.4519 -1.90361 0
M  V30 4763 H 481.951 -4.21085 -2.85595 0
M  V30 4764 H 481.349 -2.11314 -5.2475 0
M  V30 4765 H 479.906 -2.78704 -5.89209 0
M  V30 4766 N 483.339 0.512053 -1.4905 0
M  V30 4767 C 484.587 1.26436 -1.57665 0
M  V30 4768 C 484.908 1.93255 -0.260293 0
M  V30 4769 O 484.178 1.82206 0.719564 0
M  V30 4770 H 482.758 0.469658 -0.580888 0
M  V30 4771 H 485.42 0.594398 -1.85615 0
M  V30 4772 H 484.516 2.03417 -2.36702 0
M  V30 4773 N 484.817 1.37938 0.762283 0
M  V30 4774 C 485.765 1.34569 1.89721 0
M  V30 4775 C 486.759 0.232929 1.67791 0
M  V30 4776 O 487.965 0.401485 1.75465 0
M  V30 4777 H 484.34 0.419594 0.624055 0
M  V30 4778 H 486.311 2.30357 1.8968 0
M  V30 4779 C 485.06 1.17898 3.27101 0
M  V30 4780 H 484.383 2.02781 3.44558 0
M  V30 4781 H 485.823 1.19593 4.06784 0
M  V30 4782 C 484.282 -0.114728 3.36705 0
M  V30 4783 O 484.812 -1.0949 3.8649 0
M  V30 4784 N 483.018 -0.16863 2.9011 0
M  V30 4785 H 482.565 0.62967 2.49786 0
M  V30 4786 H 482.523 -1.03383 2.96916 0
M  V30 4787 N 486.295 -0.989507 1.22664 0
M  V30 4788 C 487.711 -1.25395 0.987331 0
M  V30 4789 C 487.911 -1.9899 -0.317056 0
M  V30 4790 O 486.967 -2.30141 -1.03882 0
M  V30 4791 C 488.28 -2.06242 2.18826 0
M  V30 4792 C 489.828 -2.19413 2.23219 0
M  V30 4793 C 490.303 -3.03648 3.42873 0
M  V30 4794 N 491.794 -3.11234 3.43056 0
M  V30 4795 C 492.529 -3.7671 4.32293 0
M  V30 4796 N 492.025 -4.44085 5.31752 0
M  V30 4797 N 493.818 -3.73505 4.2006 0
M  V30 4798 H 485.969 -0.496212 2.06522 0
M  V30 4799 H 488.232 -0.281784 0.905153 0
M  V30 4800 H 487.938 -1.59531 3.13437 0
M  V30 4801 H 487.812 -3.06996 2.19165 0
M  V30 4802 H 490.199 -2.65336 1.29154 0
M  V30 4803 H 490.28 -1.18078 2.26917 0
M  V30 4804 H 489.924 -2.58424 4.37241 0
M  V30 4805 H 489.854 -4.05132 3.36416 0
M  V30 4806 H 492.345 -2.63287 2.71088 0
M  V30 4807 H 492.658 -4.91797 5.96117 0
M  V30 4808 H 491.003 -4.42822 5.35662 0
M  V30 4809 H 494.194 -3.20033 3.41609 0
M  V30 4810 H 494.367 -4.24253 4.8981 0
M  V30 4811 N 487.773 -1.03688 -1.18687 0
M  V30 4812 C 489.022 -0.733235 -1.879 0
M  V30 4813 C 489.335 0.741745 -1.8099 0
M  V30 4814 O 490.541 1.15875 -2.4553 0
M  V30 4815 C 488.997 -1.26127 -3.37076 0
M  V30 4816 C 488.605 -2.76461 -3.52524 0
M  V30 4817 C 490.349 -1.03398 -4.11715 0
M  V30 4818 C 488.256 -3.22642 -4.95637 0
M  V30 4819 H 487.186 -0.270584 -0.703776 0
M  V30 4820 H 489.837 -1.25222 -1.34133 0
M  V30 4821 H 488.219 -0.670165 -3.90288 0
M  V30 4822 H 489.393 -3.41296 -3.09602 0
M  V30 4823 H 487.708 -2.97559 -2.91286 0
M  V30 4824 H 490.305 -1.3542 -5.17267 0
M  V30 4825 H 490.648 0.0289246 -4.1629 0
M  V30 4826 H 491.181 -1.5895 -3.64664 0
M  V30 4827 H 487.92 -4.28296 -4.96228 0
M  V30 4828 H 487.44 -2.62539 -5.39289 0
M  V30 4829 H 489.119 -3.16444 -5.64333 0
M  V30 4830 N 489.251 1.34841 -0.815825 0
M  V30 4831 C 490.497 1.98793 -0.401129 0
M  V30 4832 C 490.83 1.64548 1.03139 0
M  V30 4833 O 490.105 0.913487 1.71714 0
M  V30 4834 C 490.388 3.55143 -0.595409 0
M  V30 4835 C 490.241 3.99155 -2.07352 0
M  V30 4836 C 491.56 4.40092 -0.0268823 0
M  V30 4837 H 488.679 0.722146 -0.14722 0
M  V30 4838 H 491.321 1.59847 -1.02707 0
M  V30 4839 H 489.471 3.8845 -0.0625779 0
M  V30 4840 H 491.143 3.76216 -2.66945 0
M  V30 4841 H 489.386 3.49726 -2.56659 0
M  V30 4842 H 490.057 5.07971 -2.1603 0
M  V30 4843 H 492.533 4.13298 -0.482042 0
M  V30 4844 H 491.409 5.48562 -0.19267 0
M  V30 4845 H 491.67 4.29016 1.06759 0
M  V30 4846 N 490.729 0.570148 1.46925 0
M  V30 4847 C 491.957 0.0561966 2.06824 0
M  V30 4848 C 492.372 -1.24326 1.42086 0
M  V30 4849 O 491.729 -1.74882 0.521794 0
M  V30 4850 C 491.78 -0.129517 3.61268 0
M  V30 4851 O 491.501 1.1185 4.23581 0
M  V30 4852 C 493.002 -0.679266 4.38065 0
M  V30 4853 H 490.222 0.0517261 0.669003 0
M  V30 4854 H 492.766 0.787243 1.8874 0
M  V30 4855 H 490.921 -0.810739 3.78822 0
M  V30 4856 H 491.335 0.924375 5.1629 0
M  V30 4857 H 492.809 -0.758445 5.46765 0
M  V30 4858 H 493.286 -1.69346 4.05239 0
M  V30 4859 H 493.892 -0.0333237 4.25287 0
M  V30 4860 N 492.207 -1.54576 0.307264 0
M  V30 4861 C 493.139 -2.21212 -0.599807 0
M  V30 4862 C 494.152 -1.20685 -1.09266 0
M  V30 4863 O 495.341 -1.47244 -1.00903 0
M  V30 4864 C 492.441 -2.84994 -1.83389 0
M  V30 4865 C 491.614 -4.11511 -1.48248 0
M  V30 4866 C 490.673 -4.59038 -2.57237 0
M  V30 4867 O 489.699 -5.24095 -2.22065 0
M  V30 4868 N 490.901 -4.31884 -3.87887 0
M  V30 4869 H 493.666 -2.99686 -0.0293075 0
M  V30 4870 H 491.227 -1.61379 0.129738 0
M  V30 4871 H 493.219 -3.1372 -2.5566 0
M  V30 4872 H 491.789 -2.10324 -2.31263 0
M  V30 4873 H 491.009 -3.89728 -0.592122 0
M  V30 4874 H 492.297 -4.93879 -1.22316 0
M  V30 4875 H 491.695 -3.79778 -4.19268 0
M  V30 4876 H 490.252 -4.65304 -4.56438 0
M  V30 4877 N 493.685 -0.035106 -1.57561 0
M  V30 4878 C 494.633 0.962707 -2.11742 0
M  V30 4879 C 495.627 1.33296 -1.0454 0
M  V30 4880 O 496.833 1.31449 -1.22968 0
M  V30 4881 H 493.208 0.32826 -0.676572 0
M  V30 4882 H 495.179 0.48048 -2.94506 0
M  V30 4883 C 493.928 2.23388 -2.66445 0
M  V30 4884 H 493.251 1.95774 -3.48587 0
M  V30 4885 H 494.691 2.91402 -3.07995 0
M  V30 4886 C 493.15 2.96769 -1.59467 0
M  V30 4887 O 493.68 3.89105 -0.998 0
M  V30 4888 N 491.886 2.59212 -1.31369 0
M  V30 4889 H 491.433 1.84202 -1.80076 0
M  V30 4890 H 491.391 3.08618 -0.600173 0
M  V30 4891 N 495.163 1.55791 0.238111 0
M  V30 4892 C 496.073 1.94196 1.31625 0
M  V30 4893 C 497.089 0.843545 1.52185 0
M  V30 4894 O 498.265 1.1457 1.65637 0
M  V30 4895 C 495.33 2.2365 2.64918 0
M  V30 4896 C 494.391 3.46971 2.52804 0
M  V30 4897 C 493.624 3.7501 3.79741 0
M  V30 4898 O 493.847 3.04982 4.82019 0
M  V30 4899 O 492.781 4.68525 3.77846 0
M  V30 4900 H 496.607 2.86044 1.02043 0
M  V30 4901 H 494.192 1.42786 0.439603 0
M  V30 4902 H 496.074 2.43863 3.4367 0
M  V30 4903 H 494.749 1.34979 2.94215 0
M  V30 4904 H 493.656 3.32055 1.72309 0
M  V30 4905 H 494.989 4.35971 2.28451 0
M  V30 4906 N 496.642 -0.504142 1.49319 0
M  V30 4907 C 497.891 -1.25507 1.57895 0
M  V30 4908 C 498.204 -1.93735 0.269433 0
M  V30 4909 O 499.41 -2.70492 0.233706 0
M  V30 4910 C 497.866 -2.27869 2.78574 0
M  V30 4911 C 497.474 -1.65594 4.16272 0
M  V30 4912 C 499.218 -3.0381 2.96479 0
M  V30 4913 C 497.125 -2.66048 5.28178 0
M  V30 4914 H 496.055 -0.47212 0.587894 0
M  V30 4915 H 498.706 -0.52931 1.757 0
M  V30 4916 H 497.088 -3.03594 2.54257 0
M  V30 4917 H 498.262 -0.958826 4.50714 0
M  V30 4918 H 496.577 -1.02055 4.037 0
M  V30 4919 H 499.174 -3.78925 3.77253 0
M  V30 4920 H 499.517 -3.61235 2.06918 0
M  V30 4921 H 500.05 -2.352 3.20821 0
M  V30 4922 H 496.789 -2.13408 6.19788 0
M  V30 4923 H 496.309 -3.34009 4.98195 0
M  V30 4924 H 497.988 -3.28536 5.57381 0
M  V30 4925 N 498.12 -1.38341 -0.754957 0
M  V30 4926 C 499.397 -1.24995 -1.50451 0
M  V30 4927 C 499.777 0.149244 -2.10572 0
M  V30 4928 O 499.125 1.15861 -1.96948 0
M  V30 4929 C 499.335 -2.35904 -2.57197 0
M  V30 4930 C 500.683 -2.74262 -3.24138 0
M  V30 4931 O 501.707 -2.35205 -2.67501 0
M  V30 4932 O 500.566 -3.4161 -4.26574 0
M  V30 4933 H 497.66 -0.48872 -0.667144 0
M  V30 4934 H 500.206 -1.50165 -0.790486 0
M  V30 4935 H 498.978 -3.2953 -2.11011 0
M  V30 4936 H 498.601 -2.12291 -3.36182 0
M  V30 4937 N 499.598 0.982988 -1.23187 0
M  V30 4938 C 501.014 1.2487 -0.993967 0
M  V30 4939 C 501.214 1.99155 0.306498 0
M  V30 4940 O 500.27 2.30688 1.0266 0
M  V30 4941 C 501.583 2.05078 -2.19917 0
M  V30 4942 C 503.131 2.18227 -2.2438 0
M  V30 4943 C 503.606 3.01825 -3.44479 0
M  V30 4944 N 505.097 3.09411 -3.44702 0
M  V30 4945 C 505.832 3.74412 -4.34285 0
M  V30 4946 N 505.328 4.41259 -5.341 0
M  V30 4947 N 507.121 3.71273 -4.22035 0
M  V30 4948 H 499.272 0.485253 -2.06783 0
M  V30 4949 H 501.535 0.276979 -0.906635 0
M  V30 4950 H 501.241 1.57867 -3.14279 0
M  V30 4951 H 501.115 3.05829 -2.2079 0
M  V30 4952 H 503.502 2.64648 -1.30559 0
M  V30 4953 H 503.583 1.16873 -2.2754 0
M  V30 4954 H 503.227 2.56102 -4.38605 0
M  V30 4955 H 503.157 4.03342 -3.38559 0
M  V30 4956 H 505.648 2.61845 -2.7248 0
M  V30 4957 H 505.961 4.88629 -5.98717 0
M  V30 4958 H 504.306 4.39975 -5.38002 0
M  V30 4959 H 507.497 3.18217 -3.43301 0
M  V30 4960 H 507.67 4.21649 -4.92053 0
M  V30 4961 N 501.076 1.04316 1.18135 0
M  V30 4962 C 502.304 0.768117 1.92113 0
M  V30 4963 C 502.719 -0.675057 1.76319 0
M  V30 4964 O 502.076 -1.46038 1.09449 0
M  V30 4965 C 502.127 1.12808 3.43448 0
M  V30 4966 O 501.848 2.5146 3.58747 0
M  V30 4967 C 503.349 0.8779 4.3452 0
M  V30 4968 H 500.569 0.279937 0.609817 0
M  V30 4969 H 503.113 1.39149 1.49859 0
M  V30 4970 H 501.268 0.549623 3.83481 0
M  V30 4971 H 501.682 2.65313 4.52448 0
M  V30 4972 H 503.156 1.17959 5.39249 0
M  V30 4973 H 503.633 -0.187239 4.38801 0
M  V30 4974 H 504.239 1.43977 4.00188 0
M  V30 4975 N 502.554 -1.34406 0.822964 0
M  V30 4976 C 503.803 -1.97542 0.407458 0
M  V30 4977 C 504.116 -1.65973 -1.035 0
M  V30 4978 O 505.322 -2.22598 -1.55442 0
M  V30 4979 C 503.778 -3.53463 0.677623 0
M  V30 4980 C 503.386 -3.93925 2.1337 0
M  V30 4981 C 505.13 -4.23229 0.328284 0
M  V30 4982 C 503.037 -5.42759 2.34876 0
M  V30 4983 H 501.967 -0.739207 0.148623 0
M  V30 4984 H 504.618 -1.53248 1.00932 0
M  V30 4985 H 503 -3.96 0.00558965 0
M  V30 4986 H 504.174 -3.62494 2.8449 0
M  V30 4987 H 502.489 -3.37097 2.44448 0
M  V30 4988 H 505.086 -5.32659 0.466794 0
M  V30 4989 H 505.429 -4.09899 -0.727224 0
M  V30 4990 H 505.962 -3.86169 0.954896 0
M  V30 4991 H 502.701 -5.61075 3.38932 0
M  V30 4992 H 502.221 -5.75704 1.68299 0
M  V30 4993 H 503.9 -6.0944 2.17236 0
M  V30 4994 N 504.032 -0.577932 -1.46621 0
M  V30 4995 C 505.443 -0.150071 -1.86096 0
M  V30 4996 C 505.794 1.28563 -1.48209 0
M  V30 4997 O 504.919 1.97036 -0.894754 0
M  V30 4998 C 505.514 -0.265576 -3.37758 0
M  V30 4999 C 504.073 0.10738 -3.76247 0
M  V30 5000 C 503.22 -0.603711 -2.70649 0
M  V30 5001 H 506.171 -0.786438 -1.37844 0
M  V30 5002 H 506.192 0.510352 -3.77062 0
M  V30 5003 H 505.704 -1.3106 -3.65301 0
M  V30 5004 H 503.805 1.15272 -3.54321 0
M  V30 5005 H 503.918 -0.26561 -4.78363 0
M  V30 5006 H 502.282 -0.0444884 -2.54661 0
M  V30 5007 H 503.065 -1.65029 -3.01032 0
M  V30 5008 N 505.51 1.54411 -0.315457 0
M  V30 5009 C 506.756 2.00716 0.289972 0
M  V30 5010 C 507.089 1.2034 1.5242 0
M  V30 5011 O 506.364 0.283579 1.92422 0
M  V30 5012 C 506.647 3.54507 0.632196 0
M  V30 5013 C 506.5 4.45615 -0.61218 0
M  V30 5014 C 507.819 4.15421 1.45305 0
M  V30 5015 H 504.938 0.729637 0.10392 0
M  V30 5016 H 507.58 1.8506 -0.430427 0
M  V30 5017 H 505.73 3.67979 1.24595 0
M  V30 5018 H 507.402 4.44026 -1.25053 0
M  V30 5019 H 505.645 4.15621 -1.24264 0
M  V30 5020 H 506.316 5.51022 -0.328379 0
M  V30 5021 H 508.792 4.05474 0.934331 0
M  V30 5022 H 507.668 5.23157 1.66127 0
M  V30 5023 H 507.929 3.68223 2.44671 0
M  V30 5024 N 506.988 0.0434614 1.5754 0
M  V30 5025 C 508.236 -0.630786 1.92004 0
M  V30 5026 C 508.557 -1.71836 0.921807 0
M  V30 5027 O 507.827 -1.9587 -0.034522 0
M  V30 5028 H 506.407 -0.235988 0.708745 0
M  V30 5029 H 509.069 0.0946462 1.9467 0
M  V30 5030 H 508.165 -1.07434 2.93026 0
M  V30 5031 N 508.466 -1.55915 -0.229846 0
M  V30 5032 C 509.429 -1.90914 -1.26824 0
M  V30 5033 C 510.429 -0.786999 -1.40225 0
M  V30 5034 O 511.619 -1.05484 -1.38632 0
M  V30 5035 C 508.751 -2.15264 -2.64337 0
M  V30 5036 H 509.944 -2.8378 -0.969998 0
M  V30 5037 H 507.497 -1.49069 -0.4699 0
M  V30 5038 H 508.232 -1.24923 -2.99274 0
M  V30 5039 H 508.017 -2.97005 -2.55989 0
M  V30 5040 H 509.507 -2.43467 -3.39284 0
M  V30 5041 N 509.944 0.496216 -1.49584 0
M  V30 5042 C 511.193 1.24668 -1.58558 0
M  V30 5043 C 511.506 1.9359 -0.279703 0
M  V30 5044 O 512.712 2.70365 -0.248048 0
M  V30 5045 C 511.168 2.26388 -2.79779 0
M  V30 5046 C 510.776 1.63384 -4.17145 0
M  V30 5047 C 512.52 3.02233 -2.98086 0
M  V30 5048 C 510.427 2.63243 -5.29582 0
M  V30 5049 H 509.357 0.468995 -0.590389 0
M  V30 5050 H 512.008 0.519985 -1.75978 0
M  V30 5051 H 510.39 3.02241 -2.55863 0
M  V30 5052 H 511.564 0.93491 -4.51216 0
M  V30 5053 H 509.879 0.999121 -4.04236 0
M  V30 5054 H 512.476 3.76919 -3.79257 0
M  V30 5055 H 512.819 3.60132 -2.08831 0
M  V30 5056 H 513.352 2.33495 -3.22063 0
M  V30 5057 H 510.091 2.10119 -6.20911 0
M  V30 5058 H 509.611 3.31363 -4.99959 0
M  V30 5059 H 511.29 3.25575 -5.59115 0
M  V30 5060 N 511.423 1.38739 0.74761 0
M  V30 5061 C 512.356 1.3083 1.86972 0
M  V30 5062 C 513.334 0.184229 1.61553 0
M  V30 5063 O 514.518 0.36256 1.8498 0
M  V30 5064 C 511.645 1.02854 3.22705 0
M  V30 5065 C 510.691 2.17281 3.67003 0
M  V30 5066 S 511.524 3.79468 3.77842 0
M  V30 5067 C 512.68 3.53692 5.16385 0
M  V30 5068 H 512.913 2.258 1.93395 0
M  V30 5069 H 510.446 1.24646 0.911199 0
M  V30 5070 H 512.404 0.87397 4.01089 0
M  V30 5071 H 511.065 0.0959295 3.13953 0
M  V30 5072 H 510.258 1.93267 4.65472 0
M  V30 5073 H 509.86 2.28876 2.9579 0
M  V30 5074 H 512.152 3.10176 6.02327 0
M  V30 5075 H 513.095 4.51576 5.45422 0
M  V30 5076 H 513.503 2.8807 4.85464 0
M  V30 5077 N 512.901 -0.976442 1.23707 0
M  V30 5078 C 513.834 -2.06793 0.964973 0
M  V30 5079 C 514.812 -1.62304 -0.0981472 0
M  V30 5080 O 515.996 -1.88464 0.0369477 0
M  V30 5081 C 513.123 -3.35636 0.454522 0
M  V30 5082 C 512.169 -3.99069 1.50485 0
M  V30 5083 S 513.002 -4.37814 3.0835 0
M  V30 5084 C 514.158 -5.69805 2.58985 0
M  V30 5085 H 514.391 -2.29556 1.88922 0
M  V30 5086 H 511.924 -1.11317 1.06995 0
M  V30 5087 H 513.882 -4.10162 0.166626 0
M  V30 5088 H 512.543 -3.10876 -0.448871 0
M  V30 5089 H 511.736 -4.91896 1.09792 0
M  V30 5090 H 511.338 -3.30938 1.7423 0
M  V30 5091 H 513.63 -6.46919 2.01252 0
M  V30 5092 H 514.573 -6.15345 3.50366 0
M  V30 5093 H 514.981 -5.27994 1.99705 0
M  V30 5094 N 514.379 -1.04941 -1.1758 0
M  V30 5095 C 515.625 -0.768896 -1.88307 0
M  V30 5096 C 515.98 0.696361 -1.79356 0
M  V30 5097 O 515.273 1.50245 -1.18899 0
M  V30 5098 C 515.467 -1.18062 -3.37337 0
M  V30 5099 C 515.296 -2.68436 -3.60794 0
M  V30 5100 C 514.066 -3.35709 -3.77661 0
M  V30 5101 C 516.264 -3.66657 -3.60649 0
M  V30 5102 N 514.246 -4.74974 -3.88939 0
M  V30 5103 C 515.617 -4.91638 -3.77747 0
M  V30 5104 C 517.672 -3.60162 -3.43785 0
M  V30 5105 C 516.375 -6.10902 -3.79726 0
M  V30 5106 C 518.401 -4.78863 -3.47051 0
M  V30 5107 C 517.763 -6.02666 -3.64654 0
M  V30 5108 H 513.862 -0.33355 -0.707296 0
M  V30 5109 H 516.446 -1.34085 -1.41171 0
M  V30 5110 H 514.617 -0.636648 -3.83147 0
M  V30 5111 H 516.349 -0.8502 -3.95669 0
M  V30 5112 H 513.104 -2.8611 -3.77409 0
M  V30 5113 H 513.528 -5.47378 -3.98379 0
M  V30 5114 H 518.17 -2.65412 -3.29114 0
M  V30 5115 H 515.888 -7.05998 -3.93182 0
M  V30 5116 H 519.474 -4.75488 -3.35265 0
M  V30 5117 H 518.354 -6.92979 -3.67083 0
M  V30 5118 N 515.857 1.33968 -0.830081 0
M  V30 5119 C 516.82 2.27694 -0.26235 0
M  V30 5120 C 517.82 1.50589 0.563876 0
M  V30 5121 O 519.01 1.70028 0.378941 0
M  V30 5122 C 516.142 3.35002 0.63138 0
M  V30 5123 H 517.335 2.79419 -1.08928 0
M  V30 5124 H 514.888 1.44221 -0.602486 0
M  V30 5125 H 515.623 2.88504 1.48109 0
M  V30 5126 H 515.408 3.92079 0.0403276 0
M  V30 5127 H 516.898 4.04897 1.02217 0
M  V30 5128 N 517.335 0.585699 1.46312 0
M  V30 5129 C 518.298 -0.135673 2.28798 0
M  V30 5130 C 519.298 -0.815988 1.38558 0
M  V30 5131 O 520.488 -0.667487 1.60904 0
M  V30 5132 C 517.62 -1.20163 3.1902 0
M  V30 5133 H 518.813 0.589257 2.94054 0
M  V30 5134 H 516.366 0.343794 1.52472 0
M  V30 5135 H 517.101 -1.95804 2.58517 0
M  V30 5136 H 516.886 -0.718282 3.85465 0
M  V30 5137 H 518.376 -1.70749 3.81096 0
M  V30 5138 N 518.813 -1.54241 0.323641 0
M  V30 5139 C 520.09 -1.92741 -0.333181 0
M  V30 5140 C 520.47 -1.25326 -1.69872 0
M  V30 5141 O 519.818 -0.396991 -2.25025 0
M  V30 5142 C 520.028 -3.46399 -0.425322 0
M  V30 5143 C 521.376 -4.19029 -0.68557 0
M  V30 5144 O 522.4 -3.52555 -0.50824 0
M  V30 5145 O 521.259 -5.36751 -1.02767 0
M  V30 5146 H 518.353 -0.804811 -0.190286 0
M  V30 5147 H 520.899 -1.65542 0.373361 0
M  V30 5148 H 519.671 -3.87643 0.533737 0
M  V30 5149 H 519.294 -3.79704 -1.17944 0
M  V30 5150 N 520.291 -0.0518155 -1.57515 0
M  V30 5151 C 521.516 0.634896 -1.97443 0
M  V30 5152 C 521.941 1.63546 -0.929207 0
M  V30 5153 O 521.299 1.80981 0.107484 0
M  V30 5154 C 521.347 1.29765 -3.36442 0
M  V30 5155 O 520.451 2.41333 -3.34413 0
M  V30 5156 H 519.792 0.164994 -0.643174 0
M  V30 5157 H 522.322 -0.120407 -2.04245 0
M  V30 5158 H 522.332 1.64918 -3.73184 0
M  V30 5159 H 521.007 0.564361 -4.12053 0
M  V30 5160 H 519.584 2.08122 -3.09418 0
M  V30 5161 N 521.769 1.56035 0.221574 0
M  V30 5162 C 522.699 1.95434 1.2778 0
M  V30 5163 C 523.68 0.822564 1.48889 0
M  V30 5164 O 524.865 1.08486 1.61072 0
M  V30 5165 C 521.995 2.27102 2.62759 0
M  V30 5166 C 520.949 3.4277 2.56306 0
M  V30 5167 C 520.275 3.60043 3.95314 0
M  V30 5168 C 521.575 4.77742 2.11093 0
M  V30 5169 H 523.269 2.83912 0.950504 0
M  V30 5170 H 520.815 1.36596 0.455791 0
M  V30 5171 H 522.768 2.53256 3.36807 0
M  V30 5172 H 521.492 1.35478 2.97176 0
M  V30 5173 H 520.151 3.16664 1.84715 0
M  V30 5174 H 519.799 2.65794 4.27039 0
M  V30 5175 H 519.499 4.37841 3.91879 0
M  V30 5176 H 521.023 3.88545 4.71025 0
M  V30 5177 H 522.437 5.03102 2.74885 0
M  V30 5178 H 520.834 5.58823 2.18716 0
M  V30 5179 H 521.904 4.731 1.06321 0
M  V30 5180 N 523.247 -0.488276 1.49845 0
M  V30 5181 C 524.658 -1.06955 1.53028 0
M  V30 5182 C 525.009 -1.9351 0.323797 0
M  V30 5183 O 524.134 -2.08891 -0.565116 0
M  V30 5184 C 524.729 -1.94643 2.77307 0
M  V30 5185 C 523.288 -2.4791 2.83227 0
M  V30 5186 C 522.435 -1.25833 2.47106 0
M  V30 5187 H 525.386 -0.271626 1.56358 0
M  V30 5188 H 525.407 -2.79496 2.5819 0
M  V30 5189 H 524.919 -1.31621 3.65099 0
M  V30 5190 H 523.02 -3.14535 1.99745 0
M  V30 5191 H 523.133 -2.84193 3.85709 0
M  V30 5192 H 521.497 -1.58764 1.99163 0
M  V30 5193 H 522.28 -0.644993 3.37186 0
M  V30 5194 N 524.725 -1.39134 -0.740242 0
M  V30 5195 C 525.95 -1.39518 -1.53459 0
M  V30 5196 C 526.375 0.00968883 -1.88098 0
M  V30 5197 O 525.733 0.995312 -1.51536 0
M  V30 5198 C 525.781 -2.26981 -2.802 0
M  V30 5199 O 524.885 -1.69609 -3.75908 0
M  V30 5200 H 524.226 -0.475328 -0.463637 0
M  V30 5201 H 526.756 -1.83064 -0.913717 0
M  V30 5202 H 526.766 -2.41309 -3.28989 0
M  V30 5203 H 525.441 -3.29081 -2.5432 0
M  V30 5204 H 524.018 -1.64495 -3.34658 0
M  V30 5205 N 526.204 0.969867 -1.24223 0
M  V30 5206 C 527.481 1.68774 -0.988664 0
M  V30 5207 C 527.861 2.05342 0.489673 0
M  V30 5208 O 527.209 1.75486 1.46345 0
M  V30 5209 C 527.419 2.92135 -1.90941 0
M  V30 5210 C 528.767 3.64422 -2.17903 0
M  V30 5211 O 529.791 3.02188 -1.88576 0
M  V30 5212 O 528.65 4.76446 -2.67697 0
M  V30 5213 H 525.744 0.737736 -0.37373 0
M  V30 5214 H 528.29 1.02415 -1.35312 0
M  V30 5215 H 527.062 2.61788 -2.90831 0
M  V30 5216 H 526.685 3.66228 -1.54798 0
M  V30 5217 N 527.682 1.05563 1.17022 0
M  V30 5218 C 528.645 0.664098 2.19368 0
M  V30 5219 C 529.645 -0.286358 1.5823 0
M  V30 5220 O 530.835 -0.069728 1.7406 0
M  V30 5221 C 527.967 -0.0239932 3.40892 0
M  V30 5222 H 529.16 1.57 2.55521 0
M  V30 5223 H 526.713 0.849964 1.31169 0
M  V30 5224 H 527.448 -0.942988 3.10287 0
M  V30 5225 H 527.233 0.659351 3.86516 0
M  V30 5226 H 528.723 -0.283909 4.16634 0
M  V30 5227 N 529.16 -1.33526 0.837174 0
M  V30 5228 C 530.406 -1.98541 0.44193 0
M  V30 5229 C 530.761 -1.65124 -0.987517 0
M  V30 5230 O 530.054 -0.919948 -1.6807 0
M  V30 5231 C 530.248 -3.52367 0.597675 0
M  V30 5232 C 530.077 -4.00731 2.04071 0
M  V30 5233 C 528.847 -4.28649 2.67559 0
M  V30 5234 C 531.045 -4.17073 3.00923 0
M  V30 5235 N 529.027 -4.63142 4.02955 0
M  V30 5236 C 530.398 -4.54905 4.21261 0
M  V30 5237 C 532.453 -3.99358 2.97351 0
M  V30 5238 C 531.156 -4.76874 5.38501 0
M  V30 5239 C 533.182 -4.22501 4.1382 0
M  V30 5240 C 532.544 -4.60634 5.32912 0
M  V30 5241 H 528.643 -0.753246 0.210105 0
M  V30 5242 H 531.227 -1.61674 1.08488 0
M  V30 5243 H 529.398 -3.88397 -0.0154658 0
M  V30 5244 H 531.13 -4.04326 0.17404 0
M  V30 5245 H 527.885 -4.20077 2.18706 0
M  V30 5246 H 528.309 -4.84601 4.72748 0
M  V30 5247 H 532.951 -3.68993 2.06408 0
M  V30 5248 H 530.669 -5.06101 6.2999 0
M  V30 5249 H 534.255 -4.10316 4.12471 0
M  V30 5250 H 533.135 -4.78187 6.21536 0
M  V30 5251 N 530.638 -0.59345 -1.46 0
M  V30 5252 C 532.054 -0.255965 -1.57534 0
M  V30 5253 C 532.254 1.24167 -1.58697 0
M  V30 5254 O 531.31 2.02398 -1.50968 0
M  V30 5255 C 532.623 -0.91466 -2.86451 0
M  V30 5256 C 534.171 -0.889253 -3.00102 0
M  V30 5257 C 534.646 -1.52769 -4.3177 0
M  V30 5258 N 536.137 -1.49253 -4.38495 0
M  V30 5259 C 536.872 -1.9558 -5.39014 0
M  V30 5260 N 536.368 -2.49929 -6.46148 0
M  V30 5261 N 538.161 -1.86432 -5.30282 0
M  V30 5262 H 530.312 -1.56604 -1.43489 0
M  V30 5263 H 532.575 -0.655207 -0.685133 0
M  V30 5264 H 532.281 -1.96861 -2.91442 0
M  V30 5265 H 532.155 -0.429356 -3.74748 0
M  V30 5266 H 534.542 0.156111 -2.94687 0
M  V30 5267 H 534.623 -1.41268 -2.13253 0
M  V30 5268 H 534.267 -2.57231 -4.37944 0
M  V30 5269 H 534.197 -0.979398 -5.17412 0
M  V30 5270 H 536.688 -1.09536 -3.61677 0
M  V30 5271 H 537.001 -2.83109 -7.19075 0
M  V30 5272 H 535.346 -2.53961 -6.46938 0
M  V30 5273 H 538.537 -1.43722 -4.4549 0
M  V30 5274 H 538.71 -2.22852 -6.08474 0
M  V30 5275 N 532.116 1.54067 -0.331816 0
M  V30 5276 C 533.363 2.00715 0.268269 0
M  V30 5277 C 533.691 1.21986 1.51491 0
M  V30 5278 O 532.946 0.292309 1.93505 0
M  V30 5279 C 533.245 3.51634 0.639392 0
M  V30 5280 C 532.911 4.48018 -0.509019 0
M  V30 5281 C 531.573 4.74089 -0.824209 0
M  V30 5282 C 533.925 5.05237 -1.28003 0
M  V30 5283 C 531.253 5.54637 -1.91298 0
M  V30 5284 C 533.605 5.86972 -2.35895 0
M  V30 5285 C 532.269 6.11342 -2.67987 0
M  V30 5286 H 531.539 0.734469 0.0981667 0
M  V30 5287 H 534.186 1.8596 -0.457304 0
M  V30 5288 H 532.491 3.6416 1.44551 0
M  V30 5289 H 534.188 3.85175 1.11539 0
M  V30 5290 H 530.778 4.27851 -0.253287 0
M  V30 5291 H 534.962 4.8507 -1.04978 0
M  V30 5292 H 530.218 5.71747 -2.16599 0
M  V30 5293 H 534.392 6.30327 -2.96076 0
M  V30 5294 H 532.019 6.73544 -3.5248 0
M  V30 5295 N 533.594 0.0601682 1.57485 0
M  V30 5296 C 534.834 -0.615384 1.94916 0
M  V30 5297 C 535.198 -1.67475 0.938948 0
M  V30 5298 O 536.399 -2.40502 1.20051 0
M  V30 5299 C 534.67 -1.18788 3.37082 0
M  V30 5300 S 536.229 -1.88018 3.96478 0
M  V30 5301 H 533.047 -0.201821 0.681754 0
M  V30 5302 H 535.649 0.131252 1.95059 0
M  V30 5303 H 534.353 -0.404869 4.08398 0
M  V30 5304 H 533.884 -1.97114 3.40455 0
M  V30 5305 H 535.899 -3.16161 3.82435 0
M  V30 5306 N 535.072 -1.5615 -0.213296 0
M  V30 5307 C 536.022 -1.89485 -1.26804 0
M  V30 5308 C 537.006 -0.758713 -1.41889 0
M  V30 5309 O 538.198 -1.02127 -1.44565 0
M  V30 5310 C 535.327 -2.22219 -2.61675 0
M  V30 5311 C 534.413 -3.42245 -2.50458 0
M  V30 5312 N 534.804 -4.60645 -2.089 0
M  V30 5313 C 533.102 -3.46023 -2.81397 0
M  V30 5314 C 533.803 -5.42805 -2.09135 0
M  V30 5315 N 532.779 -4.82732 -2.49941 0
M  V30 5316 H 536.581 -2.78537 -0.937771 0
M  V30 5317 H 534.095 -1.56826 -0.421824 0
M  V30 5318 H 536.092 -2.44278 -3.37837 0
M  V30 5319 H 534.752 -1.34484 -2.95541 0
M  V30 5320 H 535.763 -4.85651 -1.79899 0
M  V30 5321 H 532.44 -2.68654 -3.1958 0
M  V30 5322 H 533.83 -6.47601 -1.79059 0
M  V30 5323 N 536.55 0.480323 -1.50102 0
M  V30 5324 C 537.798 1.23063 -1.60312 0
M  V30 5325 C 538.119 1.92659 -0.301226 0
M  V30 5326 O 537.389 1.83691 0.680753 0
M  V30 5327 H 535.969 0.457231 -0.590719 0
M  V30 5328 H 538.631 0.554893 -1.86834 0
M  V30 5329 H 537.727 1.9835 -2.40964 0
M  V30 5330 N 538.028 1.39524 0.732853 0
M  V30 5331 C 539.276 1.36594 1.48951 0
M  V30 5332 C 539.597 -0.0367507 1.94965 0
M  V30 5333 O 538.867 -0.988391 1.69138 0
M  V30 5334 H 537.447 0.502673 0.552566 0
M  V30 5335 H 540.109 1.74411 0.869869 0
M  V30 5336 H 539.205 2.03 2.3706 0
M  V30 5337 N 539.506 -0.963266 1.24736 0
M  V30 5338 C 540.734 -1.74166 1.11686 0
M  V30 5339 C 541.149 -1.8589 -0.330187 0
M  V30 5340 O 540.506 -1.35042 -1.2276 0
M  V30 5341 C 540.557 -3.15989 1.75595 0
M  V30 5342 O 540.278 -3.04847 3.14642 0
M  V30 5343 C 541.779 -4.10145 1.68213 0
M  V30 5344 H 538.999 -0.546031 0.389989 0
M  V30 5345 H 541.543 -1.20907 1.64929 0
M  V30 5346 H 539.698 -3.66219 1.26343 0
M  V30 5347 H 540.112 -3.9425 3.4593 0
M  V30 5348 H 541.586 -5.07299 2.17604 0
M  V30 5349 H 542.063 -4.3445 0.644208 0
M  V30 5350 H 542.669 -3.65827 2.16912 0
M  V30 5351 N 540.985 -1.06182 -1.16461 0
M  V30 5352 C 542.231 -0.779015 -1.87241 0
M  V30 5353 C 542.564 0.692715 -1.81425 0
M  V30 5354 O 541.839 1.5074 -1.22913 0
M  V30 5355 C 542.122 -1.2728 -3.36856 0
M  V30 5356 C 541.975 -2.80821 -3.51368 0
M  V30 5357 C 543.294 -0.879799 -4.31216 0
M  V30 5358 H 540.413 -0.284464 -0.679889 0
M  V30 5359 H 543.055 -1.31755 -1.36896 0
M  V30 5360 H 541.205 -0.814673 -3.79862 0
M  V30 5361 H 542.877 -3.34833 -3.17308 0
M  V30 5362 H 541.12 -3.19606 -2.93316 0
M  V30 5363 H 541.791 -3.10435 -4.56436 0
M  V30 5364 H 544.267 -1.27436 -3.96105 0
M  V30 5365 H 543.143 -1.25278 -5.34412 0
M  V30 5366 H 543.404 0.215372 -4.41575 0
M  V30 5367 N 542.463 1.3308 -0.844243 0
M  V30 5368 C 543.688 2.02341 -0.455282 0
M  V30 5369 C 544.113 1.6308 0.93737 0
M  V30 5370 O 543.471 0.826118 1.61385 0
M  V30 5371 C 543.519 3.55743 -0.58988 0
M  V30 5372 O 542.623 4.1063 0.38166 0
M  V30 5373 H 541.964 0.637898 -0.184343 0
M  V30 5374 H 544.494 1.6986 -1.14056 0
M  V30 5375 H 544.504 4.05243 -0.473522 0
M  V30 5376 H 543.179 3.83662 -1.60549 0
M  V30 5377 H 541.756 3.72236 0.22241 0
M  V30 5378 N 543.941 0.601185 1.45683 0
M  V30 5379 C 544.904 -0.111398 2.28929 0
M  V30 5380 C 545.904 -0.801246 1.39416 0
M  V30 5381 O 547.094 -0.650383 1.61603 0
M  V30 5382 C 544.226 -1.16773 3.20276 0
M  V30 5383 H 545.419 0.620412 2.93413 0
M  V30 5384 H 542.972 0.359946 1.52099 0
M  V30 5385 H 543.707 -1.93051 2.60579 0
M  V30 5386 H 543.492 -0.677358 3.86205 0
M  V30 5387 H 544.982 -1.66698 3.82886 0
M  V30 5388 N 545.419 -1.53889 0.339982 0
M  V30 5389 C 546.644 -2.05741 -0.261798 0
M  V30 5390 C 547.069 -1.21354 -1.43718 0
M  V30 5391 O 546.427 -0.22645 -1.7988 0
M  V30 5392 C 546.475 -3.54542 -0.658228 0
M  V30 5393 O 545.579 -3.7302 -1.75869 0
M  V30 5394 H 544.92 -0.662529 -0.0441672 0
M  V30 5395 H 547.45 -1.98568 0.493161 0
M  V30 5396 H 547.46 -3.9711 -0.936368 0
M  V30 5397 H 546.135 -4.15412 0.201358 0
M  V30 5398 H 544.712 -3.42355 -1.47809 0
M  V30 5399 N 546.897 -0.0685191 -1.57451 0
M  V30 5400 C 548.174 0.642167 -1.84758 0
M  V30 5401 C 548.554 1.87991 -0.960344 0
M  V30 5402 O 547.902 2.28485 -0.0257894 0
M  V30 5403 C 548.112 0.982946 -3.34872 0
M  V30 5404 C 549.46 1.35784 -4.02303 0
M  V30 5405 O 550.484 1.07477 -3.39598 0
M  V30 5406 O 549.343 1.88681 -5.12895 0
M  V30 5407 H 546.437 0.318625 -0.763156 0
M  V30 5408 H 548.983 -0.0992015 -1.6941 0
M  V30 5409 H 547.755 0.10372 -3.91163 0
M  V30 5410 H 547.378 1.78119 -3.55471 0
M  V30 5411 N 548.375 1.56261 0.205012 0
M  V30 5412 C 549.615 1.81823 0.933806 0
M  V30 5413 C 549.979 0.644534 1.80858 0
M  V30 5414 O 551.18 0.779819 2.5724 0
M  V30 5415 C 549.451 3.12362 1.7368 0
M  V30 5416 S 551.01 3.59296 2.51897 0
M  V30 5417 H 547.828 0.638209 0.313386 0
M  V30 5418 H 550.43 1.94495 0.198001 0
M  V30 5419 H 549.134 3.95809 1.08459 0
M  V30 5420 H 548.665 3.02542 2.5146 0
M  V30 5421 H 550.68 3.23945 3.75864 0
M  V30 5422 N 549.853 -0.472356 1.50355 0
M  V30 5423 C 551.264 -1.05326 1.54154 0
M  V30 5424 C 551.615 -1.93155 0.344303 0
M  V30 5425 O 550.74 -2.09479 -0.542928 0
M  V30 5426 C 551.335 -1.91691 2.79356 0
M  V30 5427 C 549.894 -2.44892 2.8584 0
M  V30 5428 C 549.041 -1.23205 2.48426 0
M  V30 5429 H 551.992 -0.255027 1.56637 0
M  V30 5430 H 552.013 -2.76742 2.6114 0
M  V30 5431 H 551.525 -1.27741 3.66475 0
M  V30 5432 H 549.626 -3.12399 2.0307 0
M  V30 5433 H 549.739 -2.80086 3.88701 0
M  V30 5434 H 548.103 -1.56643 2.00836 0
M  V30 5435 H 548.886 -0.609194 3.37852 0
M  V30 5436 N 551.331 -1.39911 -0.725443 0
M  V30 5437 C 552.261 -1.42138 -1.85254 0
M  V30 5438 C 553.242 -0.283513 -1.67721 0
M  V30 5439 O 554.427 -0.490717 -1.87898 0
M  V30 5440 C 551.557 -1.27354 -3.23107 0
M  V30 5441 C 550.511 -2.3864 -3.55296 0
M  V30 5442 C 549.837 -2.08939 -4.92188 0
M  V30 5443 C 551.137 -3.8097 -3.57295 0
M  V30 5444 H 552.831 -2.36461 -1.83648 0
M  V30 5445 H 550.377 -1.13817 -0.882138 0
M  V30 5446 H 552.33 -1.2753 -4.01639 0
M  V30 5447 H 551.054 -0.295025 -3.25265 0
M  V30 5448 H 549.713 -2.37696 -2.79099 0
M  V30 5449 H 549.361 -1.09502 -4.90936 0
M  V30 5450 H 549.061 -2.83491 -5.14691 0
M  V30 5451 H 550.585 -2.10781 -5.73065 0
M  V30 5452 H 551.999 -3.8379 -4.25885 0
M  V30 5453 H 550.396 -4.5496 -3.9132 0
M  V30 5454 H 551.466 -4.11261 -2.5689 0
M  V30 5455 N 552.809 0.956637 -1.25245 0
M  V30 5456 C 554.039 1.7332 -1.12445 0
M  V30 5457 C 554.447 1.86392 0.324732 0
M  V30 5458 O 553.79 1.35967 1.23526 0
M  V30 5459 C 553.852 3.16603 -1.70303 0
M  V30 5460 C 553.516 3.26966 -3.19284 0
M  V30 5461 C 554.513 3.11434 -4.16299 0
M  V30 5462 C 552.198 3.50851 -3.59456 0
M  V30 5463 C 554.192 3.1963 -5.51467 0
M  V30 5464 C 551.879 3.58684 -4.94761 0
M  V30 5465 C 552.877 3.43087 -5.90576 0
M  V30 5466 O 552.565 3.50598 -7.2342 0
M  V30 5467 H 552.297 0.549981 -0.393061 0
M  V30 5468 H 554.851 1.20892 -1.66055 0
M  V30 5469 H 553.081 3.70385 -1.11138 0
M  V30 5470 H 554.77 3.76109 -1.52632 0
M  V30 5471 H 555.536 2.92853 -3.86604 0
M  V30 5472 H 551.415 3.62053 -2.85375 0
M  V30 5473 H 554.959 3.07373 -6.26233 0
M  V30 5474 H 550.856 3.76782 -5.24124 0
M  V30 5475 H 551.624 3.67242 -7.31489 0
M  V30 5476 N 554.287 1.06798 1.15896 0
M  V30 5477 C 555.25 0.687328 2.18651 0
M  V30 5478 C 556.25 -0.269559 1.58524 0
M  V30 5479 O 557.44 -0.0512627 1.74125 0
M  V30 5480 C 554.572 0.0121642 3.40898 0
M  V30 5481 H 555.765 1.59701 2.53842 0
M  V30 5482 H 553.318 0.863828 1.3026 0
M  V30 5483 H 554.053 -0.910025 3.1127 0
M  V30 5484 H 553.838 0.700309 3.85795 0
M  V30 5485 H 555.328 -0.239703 4.16911 0
M  V30 5486 N 555.766 -1.3263 0.851289 0
M  V30 5487 C 556.991 -2.02097 0.466006 0
M  V30 5488 C 557.416 -1.63574 -0.928709 0
M  V30 5489 O 556.774 -0.834665 -1.60944 0
M  V30 5490 C 556.822 -3.55425 0.608737 0
M  V30 5491 O 555.926 -4.10827 -0.359878 0
M  V30 5492 H 555.267 -0.636911 0.187724 0
M  V30 5493 H 557.797 -1.69253 1.14955 0
M  V30 5494 H 557.807 -4.04986 0.495006 0
M  V30 5495 H 556.482 -3.82806 1.62581 0
M  V30 5496 H 555.059 -3.72349 -0.202666 0
M  V30 5497 N 557.244 -0.608902 -1.45362 0
M  V30 5498 C 558.66 -0.272659 -1.57254 0
M  V30 5499 C 558.86 1.22477 -1.60005 0
M  V30 5500 O 557.916 2.00785 -1.53106 0
M  V30 5501 C 559.229 -0.944991 -2.85465 0
M  V30 5502 C 560.777 -0.921033 -2.99142 0
M  V30 5503 C 561.252 -1.5734 -4.30126 0
M  V30 5504 N 562.743 -1.53895 -4.36887 0
M  V30 5505 C 563.478 -2.01286 -5.36909 0
M  V30 5506 N 562.974 -2.56768 -6.43461 0
M  V30 5507 N 564.767 -1.92046 -5.28275 0
M  V30 5508 H 556.918 -1.58117 -1.4182 0
M  V30 5509 H 559.181 -0.662437 -0.678146 0
M  V30 5510 H 558.887 -1.99941 -2.89338 0
M  V30 5511 H 558.761 -0.469079 -3.74272 0
M  V30 5512 H 561.148 0.124846 -2.94836 0
M  V30 5513 H 561.229 -1.43522 -2.11743 0
M  V30 5514 H 560.873 -2.61862 -4.35191 0
M  V30 5515 H 560.803 -1.03422 -5.16344 0
M  V30 5516 H 563.294 -1.13366 -3.60495 0
M  V30 5517 H 563.607 -2.9072 -7.16032 0
M  V30 5518 H 561.952 -2.60808 -6.44208 0
M  V30 5519 H 565.143 -1.48439 -4.43941 0
M  V30 5520 H 565.316 -2.29293 -6.06077 0
M  V30 5521 N 558.722 1.53707 -0.348139 0
M  V30 5522 C 559.971 2.0017 0.247992 0
M  V30 5523 C 560.284 1.23983 1.51286 0
M  V30 5524 O 561.49 1.60946 2.18652 0
M  V30 5525 C 559.946 3.56515 0.492459 0
M  V30 5526 C 559.554 4.41562 -0.756777 0
M  V30 5527 C 561.298 4.11381 1.0472 0
M  V30 5528 C 559.205 5.89426 -0.482856 0
M  V30 5529 H 558.135 0.747806 0.0964452 0
M  V30 5530 H 560.786 1.77532 -0.464179 0
M  V30 5531 H 559.168 3.75236 1.26545 0
M  V30 5532 H 560.342 4.34615 -1.53122 0
M  V30 5533 H 558.657 3.97711 -1.23348 0
M  V30 5534 H 561.254 5.19468 1.26717 0
M  V30 5535 H 561.597 3.64885 2.00411 0
M  V30 5536 H 562.13 3.96389 0.334801 0
M  V30 5537 H 558.869 6.40164 -1.40962 0
M  V30 5538 H 558.389 5.99264 0.253416 0
M  V30 5539 H 560.068 6.4692 -0.101816 0
M  V30 5540 N 560.2 0.0768682 1.57412 0
M  V30 5541 C 561.448 -0.589918 1.93299 0
M  V30 5542 C 561.769 -1.69842 0.958049 0
M  V30 5543 O 561.039 -1.95899 0.00703261 0
M  V30 5544 H 559.619 -0.220901 0.713591 0
M  V30 5545 H 562.281 0.135917 1.94425 0
M  V30 5546 H 561.377 -1.01195 2.95239 0
M  V30 5547 N 561.678 -1.56367 -0.196722 0
M  V30 5548 C 562.906 -1.84639 -0.933608 0
M  V30 5549 C 563.321 -0.659164 -1.76919 0
M  V30 5550 O 562.678 0.372142 -1.78665 0
M  V30 5551 C 562.729 -3.11694 -1.83109 0
M  V30 5552 O 562.45 -4.25838 -1.02924 0
M  V30 5553 C 563.951 -3.53132 -2.67979 0
M  V30 5554 H 561.171 -0.613188 -0.272473 0
M  V30 5555 H 563.715 -2.03475 -0.204465 0
M  V30 5556 H 561.87 -2.94759 -2.51387 0
M  V30 5557 H 562.284 -4.98178 -1.64069 0
M  V30 5558 H 563.758 -4.45005 -3.26611 0
M  V30 5559 H 564.235 -2.76045 -3.41608 0
M  V30 5560 H 564.841 -3.72592 -2.05074 0
M  V30 5561 N 563.156 0.464375 -1.50603 0
M  V30 5562 C 564.572 0.798684 -1.38178 0
M  V30 5563 C 564.772 1.96568 -0.44308 0
M  V30 5564 O 563.828 2.52252 0.111814 0
M  V30 5565 C 565.141 1.10444 -2.79683 0
M  V30 5566 C 566.689 1.2105 -2.88645 0
M  V30 5567 C 567.164 1.54934 -4.30998 0
M  V30 5568 N 568.655 1.61913 -4.3398 0
M  V30 5569 C 569.39 1.8965 -5.41129 0
M  V30 5570 N 568.886 2.15361 -6.58477 0
M  V30 5571 N 570.679 1.91207 -5.28579 0
M  V30 5572 H 562.83 -0.304603 -2.10204 0
M  V30 5573 H 565.093 -0.0737804 -0.945125 0
M  V30 5574 H 564.799 0.319934 -3.50242 0
M  V30 5575 H 564.673 2.03896 -3.17342 0
M  V30 5576 H 567.06 1.98567 -2.18301 0
M  V30 5577 H 567.141 0.255613 -2.5452 0
M  V30 5578 H 566.785 0.779549 -5.01882 0
M  V30 5579 H 566.715 2.51584 -4.62615 0
M  V30 5580 H 569.206 1.44055 -3.49366 0
M  V30 5581 H 569.519 2.35818 -7.35941 0
M  V30 5582 H 567.864 2.1274 -6.6164 0
M  V30 5583 H 571.055 1.70622 -4.35897 0
M  V30 5584 H 571.228 2.12488 -6.12171 0
M  V30 5585 N 564.634 1.40294 0.718013 0
M  V30 5586 C 565.864 1.41544 1.50495 0
M  V30 5587 C 566.272 0.0127877 1.89196 0
M  V30 5588 O 565.615 -0.97305 1.55812 0
M  V30 5589 C 565.677 2.24021 2.81167 0
M  V30 5590 C 565.341 3.72463 2.64803 0
M  V30 5591 C 566.338 4.65154 2.32223 0
M  V30 5592 C 564.023 4.1625 2.81143 0
M  V30 5593 C 566.017 5.99618 2.16189 0
M  V30 5594 C 563.704 5.50784 2.64727 0
M  V30 5595 C 564.702 6.42283 2.32297 0
M  V30 5596 O 564.39 7.74337 2.16004 0
M  V30 5597 H 564.122 0.484819 0.471091 0
M  V30 5598 H 566.676 1.84948 0.893488 0
M  V30 5599 H 564.906 1.75393 3.44636 0
M  V30 5600 H 566.595 2.17243 3.42871 0
M  V30 5601 H 567.361 4.32622 2.19234 0
M  V30 5602 H 563.24 3.45352 3.05373 0
M  V30 5603 H 566.784 6.71 1.90799 0
M  V30 5604 H 562.681 5.82902 2.773 0
M  V30 5605 H 563.449 7.85244 2.30942 0
M  V30 5606 N 566.112 -0.949982 1.2575 0
M  V30 5607 C 567.36 -1.6918 1.10555 0
M  V30 5608 C 567.681 -1.91773 -0.353298 0
M  V30 5609 O 566.951 -1.50814 -1.25027 0
M  V30 5610 H 565.531 -0.626952 0.406129 0
M  V30 5611 H 568.193 -1.1419 1.57945 0
M  V30 5612 H 567.289 -2.66915 1.61749 0
M  V30 5613 N 567.59 -1.07411 -1.15328 0
M  V30 5614 C 568.838 -0.796073 -1.85761 0
M  V30 5615 C 569.159 0.679864 -1.82764 0
M  V30 5616 O 568.429 1.49242 -1.269 0
M  V30 5617 H 567.009 -0.291495 -0.687779 0
M  V30 5618 H 569.671 -1.35799 -1.39802 0
M  V30 5619 H 568.767 -1.13114 -2.90881 0
M  V30 5620 N 569.068 1.32177 -0.85831 0
M  V30 5621 C 570.016 2.30729 -0.294442 0
M  V30 5622 C 571.01 1.59009 0.584165 0
M  V30 5623 O 572.216 1.73713 0.471562 0
M  V30 5624 H 568.591 0.748097 -0.0765171 0
M  V30 5625 H 570.562 2.75774 -1.1398 0
M  V30 5626 C 569.311 3.44098 0.499208 0
M  V30 5627 H 568.634 3.99449 -0.167579 0
M  V30 5628 H 570.074 4.15202 0.859273 0
M  V30 5629 C 568.533 2.91684 1.68588 0
M  V30 5630 O 569.063 2.89481 2.78503 0
M  V30 5631 N 567.269 2.48036 1.51415 0
M  V30 5632 H 566.816 2.50027 0.620006 0
M  V30 5633 H 566.774 2.13322 2.30957 0
M  V30 5634 N 570.547 0.616602 1.45037 0
M  V30 5635 C 571.958 0.199359 1.85633 0
M  V30 5636 C 572.309 -1.24588 1.51566 0
M  V30 5637 O 571.434 -1.94594 0.94668 0
M  V30 5638 C 572.029 0.355033 3.36935 0
M  V30 5639 C 570.588 -0.00758748 3.76399 0
M  V30 5640 C 569.735 0.675256 2.68953 0
M  V30 5641 H 572.686 0.822708 1.3571 0
M  V30 5642 H 572.707 -0.410201 3.78282 0
M  V30 5643 H 572.219 1.40699 3.61698 0
M  V30 5644 H 570.32 -1.05837 3.57252 0
M  V30 5645 H 570.433 0.392346 4.77491 0
M  V30 5646 H 568.797 0.111992 2.54454 0
M  V30 5647 H 569.58 1.72952 2.96551 0
M  V30 5648 N 572.025 -1.5352 0.356285 0
M  V30 5649 C 573.25 -2.06007 -0.239961 0
M  V30 5650 C 573.675 -1.22872 -1.42422 0
M  V30 5651 O 573.033 -0.245516 -1.7963 0
M  V30 5652 C 573.081 -3.5522 -0.620587 0
M  V30 5653 O 572.185 -3.74864 -1.71902 0
M  V30 5654 H 571.526 -0.662961 -0.0371377 0
M  V30 5655 H 574.056 -1.98033 0.514194 0
M  V30 5656 H 574.066 -3.98081 -0.894197 0
M  V30 5657 H 572.741 -4.15175 0.245407 0
M  V30 5658 H 571.318 -3.43904 -1.44169 0
M  V30 5659 N 573.503 -0.0852151 -1.57369 0
M  V30 5660 C 574.451 0.894856 -2.14698 0
M  V30 5661 C 575.445 1.29903 -1.08727 0
M  V30 5662 O 576.651 1.27471 -1.27088 0
M  V30 5663 H 573.026 0.306569 -0.686673 0
M  V30 5664 H 574.997 0.386542 -2.95886 0
M  V30 5665 C 573.746 2.14798 -2.73417 0
M  V30 5666 H 573.069 1.84585 -3.54638 0
M  V30 5667 H 574.509 2.81456 -3.1711 0
M  V30 5668 C 572.968 2.91546 -1.68828 0
M  V30 5669 O 573.498 3.85733 -1.12129 0
M  V30 5670 N 571.704 2.54901 -1.39549 0
M  V30 5671 H 571.251 1.7838 -1.85845 0
M  V30 5672 H 571.209 3.06553 -0.698054 0
M  V30 5673 N 574.981 1.5647 0.188427 0
M  V30 5674 C 576.392 1.70864 0.752494 0
M  V30 5675 C 576.743 0.692905 1.83557 0
M  V30 5676 O 575.868 -0.149307 2.15884 0
M  V30 5677 C 576.463 3.09789 1.37173 0
M  V30 5678 C 575.022 3.25925 1.88281 0
M  V30 5679 C 574.169 2.66817 0.755259 0
M  V30 5680 H 577.12 1.58657 -0.0367408 0
M  V30 5681 H 577.141 3.07489 2.24122 0
M  V30 5682 H 576.653 3.83693 0.583219 0
M  V30 5683 H 574.754 2.56948 2.6983 0
M  V30 5684 H 574.867 4.33498 2.04001 0
M  V30 5685 H 573.231 2.2617 1.17128 0
M  V30 5686 H 574.014 3.43294 -0.0211237 0
M  V30 5687 N 576.459 -0.456382 1.50847 0
M  V30 5688 C 577.707 -1.20497 1.62249 0
M  V30 5689 C 578.028 -1.92156 0.331839 0
M  V30 5690 O 577.298 -1.84751 -0.651443 0
M  V30 5691 H 575.878 -0.447775 0.597918 0
M  V30 5692 H 578.54 -0.525099 1.87693 0
M  V30 5693 H 577.636 -1.94492 2.44089 0
M  V30 5694 N 577.937 -1.40673 -0.710563 0
M  V30 5695 C 578.867 -1.44095 -1.83736 0
M  V30 5696 C 579.848 -0.301286 -1.67411 0
M  V30 5697 O 581.033 -0.510618 -1.87367 0
M  V30 5698 C 578.163 -1.30773 -3.21738 0
M  V30 5699 C 577.117 -2.42395 -3.52745 0
M  V30 5700 C 576.443 -2.14147 -4.89944 0
M  V30 5701 C 577.743 -3.84738 -3.53234 0
M  V30 5702 H 579.437 -2.38396 -1.81129 0
M  V30 5703 H 576.983 -1.14746 -0.870017 0
M  V30 5704 H 578.936 -1.31783 -4.00264 0
M  V30 5705 H 577.66 -0.329507 -3.24934 0
M  V30 5706 H 576.319 -2.40643 -2.76562 0
M  V30 5707 H 575.967 -1.14703 -4.89747 0
M  V30 5708 H 575.667 -2.88934 -5.11655 0
M  V30 5709 H 577.191 -2.16848 -5.70797 0
M  V30 5710 H 578.605 -3.88286 -4.2179 0
M  V30 5711 H 577.002 -4.59085 -3.86473 0
M  V30 5712 H 578.072 -4.13962 -2.52514 0
M  V30 5713 N 579.415 0.9433 -1.26252 0
M  V30 5714 C 580.826 1.50404 -1.10614 0
M  V30 5715 C 581.177 1.93666 0.31429 0
M  V30 5716 O 580.302 1.79709 1.20555 0
M  V30 5717 C 580.897 2.73336 -2.00182 0
M  V30 5718 C 579.456 3.25686 -1.88695 0
M  V30 5719 C 578.603 1.98474 -1.93658 0
M  V30 5720 H 581.554 0.759006 -1.39373 0
M  V30 5721 H 581.575 3.47567 -1.54847 0
M  V30 5722 H 581.087 2.41818 -3.03555 0
M  V30 5723 H 579.188 3.61998 -0.882489 0
M  V30 5724 H 579.301 3.92935 -2.74115 0
M  V30 5725 H 577.665 2.14278 -1.37684 0
M  V30 5726 H 578.448 1.6929 -2.98657 0
M  V30 5727 N 580.893 1.08022 1.14757 0
M  V30 5728 C 582.17 0.720386 1.81851 0
M  V30 5729 C 582.55 -0.796375 1.95502 0
M  V30 5730 O 581.898 -1.71339 1.51179 0
M  V30 5731 C 582.108 1.44273 3.17783 0
M  V30 5732 C 583.456 1.59925 3.93331 0
M  V30 5733 O 584.48 1.40407 3.2736 0
M  V30 5734 O 583.339 1.92096 5.11626 0
M  V30 5735 H 580.433 0.257142 0.786007 0
M  V30 5736 H 582.979 1.18155 1.21809 0
M  V30 5737 H 581.751 2.47618 3.02987 0
M  V30 5738 H 581.374 0.97279 3.85516 0
M  V30 5739 N 582.371 -1.3172 0.865308 0
M  V30 5740 C 583.304 -2.26687 0.262376 0
M  V30 5741 C 584.282 -1.50894 -0.605787 0
M  V30 5742 O 585.466 -1.79982 -0.56024 0
M  V30 5743 C 582.593 -3.3281 -0.628915 0
M  V30 5744 C 581.639 -4.26172 0.167278 0
M  V30 5745 S 582.472 -5.12797 1.54272 0
M  V30 5746 C 583.628 -6.22438 0.657427 0
M  V30 5747 H 583.861 -2.77478 1.0674 0
M  V30 5748 H 581.394 -1.39414 0.663555 0
M  V30 5749 H 583.352 -3.94426 -1.13747 0
M  V30 5750 H 582.013 -2.80782 -1.40785 0
M  V30 5751 H 581.206 -5.01392 -0.51203 0
M  V30 5752 H 580.808 -3.69029 0.607777 0
M  V30 5753 H 583.1 -6.77368 -0.133925 0
M  V30 5754 H 584.043 -6.9451 1.38061 0
M  V30 5755 H 584.451 -5.64043 0.227044 0
M  V30 5756 N 583.85 -0.624285 -1.44708 0
M  V30 5757 C 585.266 -0.289322 -1.56956 0
M  V30 5758 C 585.466 1.20773 -1.61295 0
M  V30 5759 O 584.522 1.9915 -1.55227 0
M  V30 5760 C 585.835 -0.975215 -2.84447 0
M  V30 5761 C 587.383 -0.952709 -2.98148 0
M  V30 5762 C 587.858 -1.61893 -4.28433 0
M  V30 5763 N 589.349 -1.5852 -4.35231 0
M  V30 5764 C 590.084 -2.06969 -5.34744 0
M  V30 5765 N 589.58 -2.63579 -6.40701 0
M  V30 5766 N 591.373 -1.97638 -5.26209 0
M  V30 5767 H 583.524 -1.59612 -1.40135 0
M  V30 5768 H 585.787 -0.669592 -0.671081 0
M  V30 5769 H 585.493 -2.02999 -2.87201 0
M  V30 5770 H 585.367 -0.508749 -3.73753 0
M  V30 5771 H 587.754 0.093568 -2.94952 0
M  V30 5772 H 587.835 -1.4576 -2.10209 0
M  V30 5773 H 587.479 -2.66463 -4.32389 0
M  V30 5774 H 587.409 -1.08893 -5.15218 0
M  V30 5775 H 589.899 -1.17183 -3.59272 0
M  V30 5776 H 590.213 -2.98298 -7.12908 0
M  V30 5777 H 588.558 -2.67626 -6.41406 0
M  V30 5778 H 591.749 -1.5314 -4.42341 0
M  V30 5779 H 591.922 -2.35708 -6.03611 0
M  V30 5780 N 585.328 1.53329 -0.364422 0
M  V30 5781 C 586.576 2.00842 0.225189 0
M  V30 5782 C 586.897 1.25345 1.49378 0
M  V30 5783 O 586.167 0.366396 1.92443 0
M  V30 5784 H 584.747 0.742009 0.0862027 0
M  V30 5785 H 587.409 1.8863 -0.490389 0
M  V30 5786 H 586.505 3.08795 0.452987 0
M  V30 5787 N 586.806 0.0935595 1.57322 0
M  V30 5788 C 587.736 -0.863062 2.16964 0
M  V30 5789 C 588.717 -1.29528 1.10256 0
M  V30 5790 O 589.902 -1.36245 1.38387 0
M  V30 5791 C 587.032 -2.12276 2.74875 0
M  V30 5792 C 585.986 -1.82921 3.86942 0
M  V30 5793 C 585.312 -3.15707 4.31548 0
M  V30 5794 C 586.612 -1.11737 5.10208 0
M  V30 5795 H 588.306 -0.366145 2.97153 0
M  V30 5796 H 585.852 -0.174673 1.42937 0
M  V30 5797 H 587.805 -2.79634 3.1525 0
M  V30 5798 H 586.529 -2.64248 1.91938 0
M  V30 5799 H 585.188 -1.17961 3.47103 0
M  V30 5800 H 584.836 -3.65563 3.45504 0
M  V30 5801 H 584.536 -2.96849 5.07104 0
M  V30 5802 H 586.06 -3.84226 4.74555 0
M  V30 5803 H 587.474 -1.69203 5.47762 0
M  V30 5804 H 585.871 -1.03064 5.91183 0
M  V30 5805 H 586.941 -0.0998818 4.84797 0
M  V30 5806 N 588.284 -1.56567 -0.180126 0
M  V30 5807 C 589.531 -1.81492 -0.898167 0
M  V30 5808 C 589.859 -0.669225 -1.82624 0
M  V30 5809 O 589.114 0.344096 -1.92651 0
M  V30 5810 C 589.413 -3.1252 -1.73395 0
M  V30 5811 C 589.079 -4.40658 -0.955567 0
M  V30 5812 C 587.741 -4.75465 -0.740707 0
M  V30 5813 C 590.093 -5.19593 -0.408948 0
M  V30 5814 C 587.421 -5.86691 0.0320128 0
M  V30 5815 C 589.773 -6.31627 0.350638 0
M  V30 5816 C 588.437 -6.65007 0.576378 0
M  V30 5817 H 587.707 -0.664125 -0.328662 0
M  V30 5818 H 590.354 -1.908 -0.163616 0
M  V30 5819 H 588.659 -2.98515 -2.53763 0
M  V30 5820 H 590.356 -3.29013 -2.29241 0
M  V30 5821 H 586.946 -4.13352 -1.13306 0
M  V30 5822 H 591.13 -4.93104 -0.562307 0
M  V30 5823 H 586.386 -6.11016 0.216735 0
M  V30 5824 H 590.56 -6.92001 0.781497 0
M  V30 5825 H 588.187 -7.51033 1.17703 0
M  V30 5826 N 589.762 0.448376 -1.51087 0
M  V30 5827 C 591.008 1.20049 -1.6345 0
M  V30 5828 C 591.341 1.91121 -0.344444 0
M  V30 5829 O 590.616 1.83125 0.655396 0
M  V30 5830 C 590.899 2.22624 -2.83038 0
M  V30 5831 C 590.752 1.55708 -4.21989 0
M  V30 5832 C 592.071 3.23718 -2.98152 0
M  V30 5833 H 589.19 0.435085 -0.59487 0
M  V30 5834 H 591.832 0.491183 -1.83541 0
M  V30 5835 H 589.982 2.83117 -2.66039 0
M  V30 5836 H 591.654 0.986367 -4.50631 0
M  V30 5837 H 589.897 0.859647 -4.25197 0
M  V30 5838 H 590.568 2.30357 -5.01637 0
M  V30 5839 H 593.044 2.73269 -3.13788 0
M  V30 5840 H 591.92 3.92795 -3.83411 0
M  V30 5841 H 592.181 3.89179 -2.09743 0
M  V30 5842 N 591.24 1.41047 0.703093 0
M  V30 5843 C 592.656 1.23351 1.01275 0
M  V30 5844 C 592.856 0.11754 2.01157 0
M  V30 5845 O 591.912 -0.520518 2.47077 0
M  V30 5846 C 593.225 2.58001 1.54454 0
M  V30 5847 C 594.773 2.65119 1.66376 0
M  V30 5848 C 595.248 4.00067 2.22958 0
M  V30 5849 N 596.739 4.01875 2.30328 0
M  V30 5850 C 597.474 5.03087 2.75119 0
M  V30 5851 N 596.97 6.14692 3.19571 0
M  V30 5852 N 598.763 4.90451 2.74616 0
M  V30 5853 H 590.914 2.1236 0.0412686 0
M  V30 5854 H 593.177 0.944543 0.08089 0
M  V30 5855 H 592.883 3.40378 0.88521 0
M  V30 5856 H 592.757 2.79962 2.52786 0
M  V30 5857 H 595.144 1.83106 2.31422 0
M  V30 5858 H 595.225 2.46975 0.666089 0
M  V30 5859 H 594.869 4.82526 1.58529 0
M  V30 5860 H 594.799 4.15547 3.23462 0
M  V30 5861 H 597.29 3.21291 1.98949 0
M  V30 5862 H 597.603 6.87799 3.52352 0
M  V30 5863 H 595.948 6.18239 3.17498 0
M  V30 5864 H 599.139 4.0235 2.39233 0
M  V30 5865 H 599.312 5.6947 3.09206 0
M  V30 5866 N 592.718 -0.936591 1.26751 0
M  V30 5867 C 593.966 -1.67998 1.12343 0
M  V30 5868 C 594.287 -1.92137 -0.332938 0
M  V30 5869 O 593.557 -1.52132 -1.23421 0
M  V30 5870 H 592.137 -0.622609 0.412756 0
M  V30 5871 H 594.799 -1.12509 1.59147 0
M  V30 5872 H 593.895 -2.65185 1.64571 0
M  V30 5873 N 594.196 -1.08629 -1.14182 0
M  V30 5874 C 595.421 -0.83902 -1.89671 0
M  V30 5875 C 595.846 0.603332 -1.78161 0
M  V30 5876 O 595.204 1.42301 -1.12339 0
M  V30 5877 C 595.252 -1.26854 -3.37551 0
M  V30 5878 O 594.356 -0.42188 -4.10236 0
M  V30 5879 H 593.697 -0.304545 -0.590041 0
M  V30 5880 H 596.227 -1.4483 -1.44518 0
M  V30 5881 H 596.237 -1.25038 -3.88368 0
M  V30 5882 H 594.912 -2.31901 -3.45246 0
M  V30 5883 H 593.489 -0.503654 -3.69483 0
M  V30 5884 N 595.674 1.31259 -0.872281 0
M  V30 5885 C 596.922 1.96233 -0.483409 0
M  V30 5886 C 597.243 1.69276 0.968012 0
M  V30 5887 O 596.513 1.00943 1.67891 0
M  V30 5888 H 595.093 0.726025 -0.175774 0
M  V30 5889 H 597.755 1.60024 -1.11258 0
M  V30 5890 H 596.851 3.05403 -0.643075 0
M  V30 5891 N 597.152 0.631951 1.44375 0
M  V30 5892 C 598.568 0.297642 1.568 0
M  V30 5893 C 598.768 -1.19916 1.61934 0
M  V30 5894 O 597.824 -1.98324 1.56281 0
M  V30 5895 C 599.137 0.990286 2.83926 0
M  V30 5896 C 600.685 0.968507 2.97639 0
M  V30 5897 C 601.16 1.64163 4.27568 0
M  V30 5898 N 602.651 1.60826 4.34384 0
M  V30 5899 C 603.386 2.09802 5.33639 0
M  V30 5900 N 602.882 2.66973 6.39294 0
M  V30 5901 N 604.675 2.00426 5.25153 0
M  V30 5902 H 596.826 1.60353 1.39286 0
M  V30 5903 H 599.089 0.673142 0.667521 0
M  V30 5904 H 598.795 2.04519 2.8612 0
M  V30 5905 H 598.669 0.528563 3.73478 0
M  V30 5906 H 601.056 -0.0779247 2.94997 0
M  V30 5907 H 601.137 1.46873 2.09433 0
M  V30 5908 H 600.781 2.68752 4.3097 0
M  V30 5909 H 600.711 1.11624 5.14634 0
M  V30 5910 H 603.202 1.19087 3.58646 0
M  V30 5911 H 603.515 3.02074 7.11316 0
M  V30 5912 H 601.86 2.71024 6.39977 0
M  V30 5913 H 605.051 1.55483 4.41523 0
M  V30 5914 H 605.224 2.38906 6.02352 0
M  V30 5915 N 598.631 -1.53133 0.372548 0
M  V30 5916 C 599.879 -2.00958 -0.214534 0
M  V30 5917 C 600.2 -1.26135 -1.48711 0
M  V30 5918 O 599.47 -0.376597 -1.92246 0
M  V30 5919 H 598.05 -0.742456 -0.0822664 0
M  V30 5920 H 600.712 -1.88367 0.500385 0
M  V30 5921 H 599.808 -3.09031 -0.436605 0
M  V30 5922 N 600.109 -0.101901 -1.5727 0
M  V30 5923 C 601.334 0.571759 -1.99363 0
M  V30 5924 C 601.759 1.60507 -0.980768 0
M  V30 5925 O 601.117 1.81231 0.0498517 0
M  V30 5926 C 601.165 1.18996 -3.404 0
M  V30 5927 O 600.269 2.30572 -3.41922 0
M  V30 5928 H 599.61 0.144449 -0.648098 0
M  V30 5929 H 602.14 -0.185325 -2.03759 0
M  V30 5930 H 602.15 1.52962 -3.78241 0
M  V30 5931 H 600.825 0.432984 -4.1364 0
M  V30 5932 H 599.402 1.98173 -3.15883 0
M  V30 5933 N 601.587 1.56661 0.17182 0
M  V30 5934 C 602.537 1.92781 1.21736 0
M  V30 5935 C 603.521 0.796065 1.39827 0
M  V30 5936 O 604.713 1.05924 1.41806 0
M  V30 5937 C 601.842 2.29079 2.55691 0
M  V30 5938 C 600.928 3.48765 2.41296 0
M  V30 5939 N 601.319 4.66022 1.96614 0
M  V30 5940 C 599.617 3.53362 2.72124 0
M  V30 5941 C 600.318 5.48159 1.94669 0
M  V30 5942 N 599.294 4.89189 2.37054 0
M  V30 5943 H 603.096 2.80926 0.863592 0
M  V30 5944 H 600.61 1.57889 0.380096 0
M  V30 5945 H 602.607 2.5315 3.31241 0
M  V30 5946 H 601.267 1.42272 2.91871 0
M  V30 5947 H 602.278 4.9025 1.66959 0
M  V30 5948 H 598.955 2.77033 3.12345 0
M  V30 5949 H 600.345 6.52121 1.61826 0
M  V30 5950 N 603.065 -0.440357 1.51323 0
M  V30 5951 C 603.995 -1.54174 1.75364 0
M  V30 5952 C 604.976 -1.59039 0.603375 0
M  V30 5953 O 606.161 -1.74815 0.845774 0
M  V30 5954 C 603.291 -2.92277 1.87593 0
M  V30 5955 C 602.245 -3.02274 3.03009 0
M  V30 5956 C 601.571 -4.42327 3.00418 0
M  V30 5957 C 602.871 -2.76634 4.43024 0
M  V30 5958 H 604.565 -1.34307 2.67585 0
M  V30 5959 H 602.111 -0.644678 1.28763 0
M  V30 5960 H 604.064 -3.69284 2.02995 0
M  V30 5961 H 602.788 -3.13369 0.920179 0
M  V30 5962 H 601.447 -2.27706 2.87307 0
M  V30 5963 H 601.095 -4.60382 2.02626 0
M  V30 5964 H 600.795 -4.49946 3.77918 0
M  V30 5965 H 602.319 -5.21312 3.17909 0
M  V30 5966 H 603.733 -3.43376 4.59093 0
M  V30 5967 H 602.13 -2.95666 5.22208 0
M  V30 5968 H 603.2 -1.72262 4.5327 0
M  V30 5969 N 604.543 -1.41418 -0.695603 0
M  V30 5970 C 605.771 -1.4413 -1.48439 0
M  V30 5971 C 606.186 -0.0465698 -1.88743 0
M  V30 5972 O 605.543 0.934117 -1.56782 0
M  V30 5973 C 605.594 -2.34998 -2.74696 0
M  V30 5974 O 605.315 -3.69043 -2.36091 0
M  V30 5975 C 606.816 -2.46513 -3.68438 0
M  V30 5976 H 604.036 -0.490905 -0.457442 0
M  V30 5977 H 606.58 -1.85702 -0.856454 0
M  V30 5978 H 604.735 -1.96735 -3.33728 0
M  V30 5979 H 605.149 -4.17505 -3.17474 0
M  V30 5980 H 606.623 -3.1426 -4.53811 0
M  V30 5981 H 607.1 -1.49638 -4.12922 0
M  V30 5982 H 607.706 -2.85412 -3.1531 0
M  V30 5983 N 606.021 0.929856 -1.27246 0
M  V30 5984 C 606.969 2.05151 -1.09616 0
M  V30 5985 C 607.963 1.69388 -0.0198617 0
M  V30 5986 O 609.169 1.79124 -0.177417 0
M  V30 5987 H 605.544 0.671909 -0.337701 0
M  V30 5988 H 607.515 2.17168 -2.04648 0
M  V30 5989 C 606.264 3.3934 -0.757851 0
M  V30 5990 H 605.587 3.67343 -1.57795 0
M  V30 5991 H 607.027 4.18603 -0.674358 0
M  V30 5992 C 605.486 3.32582 0.537658 0
M  V30 5993 O 606.016 3.69633 1.57271 0
M  V30 5994 N 604.222 2.8568 0.532478 0
M  V30 5995 H 603.769 2.55725 -0.310233 0
M  V30 5996 H 603.727 2.81541 1.39936 0
M  V30 5997 N 607.499 1.09233 1.13605 0
M  V30 5998 C 608.91 0.846839 1.6639 0
M  V30 5999 C 609.261 -0.625031 1.85978 0
M  V30 6000 O 608.386 -1.48173 1.57714 0
M  V30 6001 C 608.981 1.5307 3.0225 0
M  V30 6002 C 607.54 1.33223 3.52035 0
M  V30 6003 C 606.687 1.58806 2.27323 0
M  V30 6004 H 609.638 1.25175 0.975541 0
M  V30 6005 H 609.659 0.96267 3.68121 0
M  V30 6006 H 609.171 2.60192 2.87961 0
M  V30 6007 H 607.272 0.282091 3.71531 0
M  V30 6008 H 607.385 2.0657 4.32279 0
M  V30 6009 H 605.749 1.01007 2.33815 0
M  V30 6010 H 606.532 2.67153 2.15602 0
M  V30 6011 N 608.977 -1.30795 0.87923 0
M  V30 6012 C 609.925 -2.30231 0.331112 0
M  V30 6013 C 610.919 -1.59918 -0.558794 0
M  V30 6014 O 612.125 -1.74441 -0.443866 0
M  V30 6015 H 608.5 -0.746785 0.088409 0
M  V30 6016 H 610.471 -2.73925 1.18353 0
M  V30 6017 C 609.22 -3.44848 -0.444401 0
M  V30 6018 H 608.543 -3.99131 0.231106 0
M  V30 6019 H 609.983 -4.16516 -0.793109 0
M  V30 6020 C 608.442 -2.94329 -1.63926 0
M  V30 6021 O 608.972 -2.93875 -2.73862 0
M  V30 6022 N 607.178 -2.50413 -1.4745 0
M  V30 6023 H 606.725 -2.50982 -0.58015 0
M  V30 6024 H 606.683 -2.16969 -2.27534 0
M  V30 6025 N 610.455 -0.639598 -1.44038 0
M  V30 6026 C 611.701 -0.147698 -2.02261 0
M  V30 6027 C 612.034 1.23031 -1.50256 0
M  V30 6028 O 611.309 1.81847 -0.690068 0
M  V30 6029 C 611.592 -0.14362 -3.59813 0
M  V30 6030 C 611.445 -1.55458 -4.22082 0
M  V30 6031 C 612.764 0.527317 -4.36929 0
M  V30 6032 H 609.883 -0.0551453 -0.734934 0
M  V30 6033 H 612.525 -0.817688 -1.71505 0
M  V30 6034 H 610.675 0.426898 -3.86147 0
M  V30 6035 H 612.347 -2.17464 -4.06826 0
M  V30 6036 H 610.59 -2.10594 -3.79253 0
M  V30 6037 H 611.261 -1.50369 -5.31124 0
M  V30 6038 H 613.737 0.0420504 -4.16079 0
M  V30 6039 H 612.613 0.499389 -5.46624 0
M  V30 6040 H 612.874 1.59914 -4.12165 0
M  V30 6041 N 611.933 1.52934 -0.380664 0
M  V30 6042 C 612.881 2.27727 0.47361 0
M  V30 6043 C 613.875 1.31288 1.0705 0
M  V30 6044 O 615.081 1.4886 1.01197 0
M  V30 6045 H 611.456 0.732189 0.171475 0
M  V30 6046 H 613.427 2.97864 -0.178785 0
M  V30 6047 C 612.176 3.0904 1.59341 0
M  V30 6048 H 611.499 3.831 1.14343 0
M  V30 6049 H 612.939 3.64527 2.16555 0
M  V30 6050 C 611.398 2.20813 2.54447 0
M  V30 6051 O 611.928 1.82907 3.57642 0
M  V30 6052 N 610.134 1.85145 2.23986 0
M  V30 6053 H 609.681 2.16169 1.40103 0
M  V30 6054 H 609.639 1.26402 2.87871 0
M  V30 6055 N 613.412 0.11024 1.57214 0
M  V30 6056 C 614.66 -0.548783 1.94506 0
M  V30 6057 C 614.981 -1.67772 0.99386 0
M  V30 6058 O 614.251 -1.9584 0.0485841 0
M  V30 6059 H 612.831 -0.205715 0.718116 0
M  V30 6060 H 615.493 0.177127 1.94093 0
M  V30 6061 H 614.589 -0.949096 2.97319 0
M  V30 6062 N 614.89 -1.56749 -0.16351 0
M  V30 6063 C 615.838 -1.97939 -1.22159 0
M  V30 6064 C 616.832 -0.869288 -1.45395 0
M  V30 6065 O 618.038 -1.05443 -1.45883 0
M  V30 6066 H 614.413 -0.629869 -0.410815 0
M  V30 6067 H 616.384 -2.86115 -0.847381 0
M  V30 6068 C 615.133 -2.36206 -2.55151 0
M  V30 6069 H 614.456 -3.2117 -2.38097 0
M  V30 6070 H 615.896 -2.68863 -3.27854 0
M  V30 6071 C 614.355 -1.20841 -3.14482 0
M  V30 6072 O 614.885 -0.500258 -3.98573 0
M  V30 6073 N 613.091 -0.976943 -2.73686 0
M  V30 6074 H 612.638 -1.55457 -2.05404 0
M  V30 6075 H 612.596 -0.206912 -3.13718 0
M  V30 6076 N 616.368 0.432326 -1.51554 0
M  V30 6077 C 617.645 1.19288 -1.55015 0
M  V30 6078 C 618.025 2.08701 -0.317375 0
M  V30 6079 O 617.373 2.17602 0.697243 0
M  V30 6080 C 617.583 1.99037 -2.86679 0
M  V30 6081 C 618.931 2.55907 -3.38817 0
M  V30 6082 O 619.955 2.09243 -2.88263 0
M  V30 6083 O 618.814 3.41029 -4.27038 0
M  V30 6084 H 615.908 0.543369 -0.623441 0
M  V30 6085 H 618.454 0.440988 -1.6387 0
M  V30 6086 H 617.226 1.33397 -3.6786 0
M  V30 6087 H 616.849 2.81281 -2.8101 0
M  V30 6088 N 617.846 1.41785 0.688094 0
M  V30 6089 C 618.778 1.40159 1.81351 0
M  V30 6090 C 619.791 0.30262 1.59963 0
M  V30 6091 O 620.98 0.564841 1.69327 0
M  V30 6092 C 618.08 1.16517 3.1824 0
M  V30 6093 C 617.253 2.38597 3.66593 0
M  V30 6094 C 616.312 2.10699 4.82174 0
M  V30 6095 O 615.338 2.83798 4.93404 0
M  V30 6096 N 616.54 1.10187 5.69947 0
M  V30 6097 H 619.305 2.3716 1.83236 0
M  V30 6098 H 616.866 1.36494 0.870697 0
M  V30 6099 H 618.858 0.957941 3.93199 0
M  V30 6100 H 617.428 0.280873 3.11336 0
M  V30 6101 H 616.648 2.74974 2.82459 0
M  V30 6102 H 617.936 3.19919 3.95638 0
M  V30 6103 H 617.334 0.497016 5.63512 0
M  V30 6104 H 615.891 0.954518 6.44773 0
M  V30 6105 N 619.324 -0.923095 1.27737 0
M  V30 6106 C 620.571 -1.67127 1.14345 0
M  V30 6107 C 620.899 -1.92017 -0.30982 0
M  V30 6108 O 620.154 -1.51185 -1.24264 0
M  V30 6109 C 620.453 -3.04125 1.8773 0
M  V30 6110 C 620.119 -2.98929 3.37568 0
M  V30 6111 C 618.781 -2.9722 3.78436 0
M  V30 6112 C 621.133 -2.89875 4.33154 0
M  V30 6113 C 618.461 -2.84244 5.13247 0
M  V30 6114 C 620.813 -2.7844 5.68026 0
M  V30 6115 C 619.477 -2.75083 6.08182 0
M  V30 6116 H 618.747 -0.611562 0.418417 0
M  V30 6117 H 621.394 -1.07618 1.584 0
M  V30 6118 H 619.699 -3.67366 1.36196 0
M  V30 6119 H 621.396 -3.609 1.74792 0
M  V30 6120 H 617.986 -3.0105 3.05069 0
M  V30 6121 H 622.17 -2.9029 4.02548 0
M  V30 6122 H 617.426 -2.80034 5.43499 0
M  V30 6123 H 621.6 -2.70401 6.4176 0
M  V30 6124 H 619.227 -2.64786 7.12596 0
M  V30 6125 N 620.802 -1.09834 -1.13024 0
M  V30 6126 C 622.05 -0.835297 -1.8403 0
M  V30 6127 C 622.371 0.640944 -1.84165 0
M  V30 6128 O 621.641 1.46517 -1.30037 0
M  V30 6129 H 620.221 -0.306018 -0.681441 0
M  V30 6130 H 622.883 -1.38734 -1.36891 0
M  V30 6131 H 621.979 -1.19258 -2.88416 0
M  V30 6132 N 622.28 1.30327 -0.886154 0
M  V30 6133 C 623.227 2.28099 -0.352069 0
M  V30 6134 C 624.197 1.56433 0.558397 0
M  V30 6135 O 625.382 1.84492 0.486561 0
M  V30 6136 C 622.522 3.42456 0.426346 0
M  V30 6137 C 621.635 4.28938 -0.513472 0
M  V30 6138 C 620.77 5.30458 0.280657 0
M  V30 6139 C 619.809 6.0859 -0.654556 0
M  V30 6140 N 618.946 7.02022 0.104322 0
M  V30 6141 H 623.786 2.73166 -1.19097 0
M  V30 6142 H 621.323 1.34367 -0.598662 0
M  V30 6143 H 623.281 4.07518 0.893587 0
M  V30 6144 H 621.911 2.98455 1.22981 0
M  V30 6145 H 620.963 3.64173 -1.09921 0
M  V30 6146 H 622.275 4.83399 -1.2299 0
M  V30 6147 H 621.429 6.01273 0.8097 0
M  V30 6148 H 620.168 4.76693 1.03029 0
M  V30 6149 H 619.173 5.36651 -1.19522 0
M  V30 6150 H 620.398 6.64443 -1.4033 0
M  V30 6151 H 618.344 6.50645 0.836472 0
M  V30 6152 H 618.261 7.53979 -0.552453 0
M  V30 6153 H 619.529 7.77077 0.614069 0
M  V30 6154 N 623.758 0.647228 1.43697 0
M  V30 6155 C 625.169 0.238689 1.85168 0
M  V30 6156 C 625.52 -1.21345 1.54175 0
M  V30 6157 O 624.645 -1.92542 0.987743 0
M  V30 6158 C 625.24 0.426422 3.36106 0
M  V30 6159 C 623.799 0.0722541 3.76331 0
M  V30 6160 C 622.946 0.732153 2.6746 0
M  V30 6161 H 625.897 0.851309 1.33934 0
M  V30 6162 H 625.918 -0.32987 3.79067 0
M  V30 6163 H 625.43 1.48339 3.58632 0
M  V30 6164 H 623.531 -0.982355 3.59417 0
M  V30 6165 H 623.644 0.493541 4.76551 0
M  V30 6166 H 622.008 0.16594 2.54159 0
M  V30 6167 H 622.791 1.79204 2.92816 0
M  V30 6168 N 625.236 -1.5273 0.388769 0
M  V30 6169 C 626.652 -1.59553 0.0387049 0
M  V30 6170 C 626.852 -1.40278 -1.44652 0
M  V30 6171 O 625.908 -1.21951 -2.21098 0
M  V30 6172 C 627.221 -2.9625 0.515409 0
M  V30 6173 C 628.769 -3.09426 0.471621 0
M  V30 6174 C 629.244 -4.48572 0.924505 0
M  V30 6175 N 630.735 -4.54754 0.880496 0
M  V30 6176 C 631.47 -5.60653 1.20234 0
M  V30 6177 N 630.966 -6.74198 1.59463 0
M  V30 6178 N 632.759 -5.50755 1.12363 0
M  V30 6179 H 624.91 -1.63508 1.35569 0
M  V30 6180 H 627.173 -0.768097 0.555636 0
M  V30 6181 H 626.879 -3.15569 1.5527 0
M  V30 6182 H 626.753 -3.77102 -0.085792 0
M  V30 6183 H 629.14 -2.89804 -0.556588 0
M  V30 6184 H 629.221 -2.30528 1.10862 0
M  V30 6185 H 628.865 -4.68936 1.95094 0
M  V30 6186 H 628.795 -5.25935 0.264524 0
M  V30 6187 H 631.286 -3.73237 0.591815 0
M  V30 6188 H 631.599 -7.5097 1.82385 0
M  V30 6189 H 629.944 -6.75531 1.63349 0
M  V30 6190 H 633.135 -4.6093 0.816169 0
M  V30 6191 H 633.308 -6.33184 1.37777 0
M  V30 6192 N 626.714 -0.118576 -1.57153 0
M  V30 6193 C 627.644 0.828436 -2.1831 0
M  V30 6194 C 628.625 1.27758 -1.12303 0
M  V30 6195 O 629.81 1.34026 -1.40537 0
M  V30 6196 C 626.94 2.07876 -2.78217 0
M  V30 6197 C 625.894 1.76742 -3.89803 0
M  V30 6198 C 625.22 3.08801 -4.36516 0
M  V30 6199 C 626.52 1.03606 -5.11921 0
M  V30 6200 H 628.214 0.318824 -2.97698 0
M  V30 6201 H 625.76 0.151911 -1.43196 0
M  V30 6202 H 627.713 2.74584 -3.19659 0
M  V30 6203 H 626.437 2.61161 -1.96118 0
M  V30 6204 H 625.096 1.12424 -3.48936 0
M  V30 6205 H 624.744 3.6002 -3.51276 0
M  V30 6206 H 624.444 2.88743 -5.11763 0
M  V30 6207 H 625.968 3.76627 -4.80608 0
M  V30 6208 H 627.382 1.60467 -5.50385 0
M  V30 6209 H 625.779 0.936454 -5.92748 0
M  V30 6210 H 626.849 0.0227421 -4.84895 0
M  V30 6211 N 628.193 1.56834 0.155195 0
M  V30 6212 C 629.441 1.82536 0.867462 0
M  V30 6213 C 629.762 0.698168 1.82073 0
M  V30 6214 O 629.032 -0.280807 1.93877 0
M  V30 6215 H 627.612 0.673401 0.323327 0
M  V30 6216 H 630.274 1.94313 0.151156 0
M  V30 6217 H 629.37 2.77171 1.43466 0
M  V30 6218 N 629.671 -0.424282 1.51781 0
M  V30 6219 C 630.917 -1.17434 1.6534 0
M  V30 6220 C 631.25 -1.90549 0.374806 0
M  V30 6221 O 630.525 -1.84145 -0.626179 0
M  V30 6222 C 630.808 -2.18093 2.86544 0
M  V30 6223 C 630.661 -1.48975 4.24413 0
M  V30 6224 C 631.98 -3.18934 3.03264 0
M  V30 6225 H 629.099 -0.425566 0.601716 0
M  V30 6226 H 631.741 -0.461921 1.84299 0
M  V30 6227 H 629.891 -2.78849 2.7051 0
M  V30 6228 H 631.563 -0.914551 4.52143 0
M  V30 6229 H 629.806 -0.791893 4.26511 0
M  V30 6230 H 630.477 -2.22347 5.05238 0
M  V30 6231 H 632.953 -2.68243 3.18096 0
M  V30 6232 H 631.829 -3.86645 3.89611 0
M  V30 6233 H 632.09 -3.85793 2.15908 0
M  V30 6234 N 631.149 -1.42148 -0.680565 0
M  V30 6235 C 632.397 -1.42029 -1.43779 0
M  V30 6236 C 632.718 -0.0356347 -1.94967 0
M  V30 6237 O 631.988 0.924936 -1.7269 0
M  V30 6238 H 630.568 -0.522835 -0.533529 0
M  V30 6239 H 633.23 -1.7752 -0.804538 0
M  V30 6240 H 632.326 -2.11658 -2.29363 0
M  V30 6241 N 632.627 0.916307 -1.28225 0
M  V30 6242 C 633.867 1.67964 -1.16479 0
M  V30 6243 C 634.231 1.8991 0.282494 0
M  V30 6244 O 635.432 2.63671 0.522607 0
M  V30 6245 C 633.703 3.00251 -1.93866 0
M  V30 6246 S 635.262 3.91353 -1.98465 0
M  V30 6247 H 632.08 0.576873 -0.415619 0
M  V30 6248 H 634.682 1.09006 -1.62289 0
M  V30 6249 H 633.386 2.81978 -2.98189 0
M  V30 6250 H 632.917 3.64257 -1.48595 0
M  V30 6251 H 634.932 4.84096 -1.0893 0
M  V30 6252 N 634.105 1.10431 1.1244 0
M  V30 6253 C 635.333 0.868872 1.87772 0
M  V30 6254 C 635.748 -0.580645 1.7965 0
M  V30 6255 O 635.105 -1.40031 1.17036 0
M  V30 6256 C 635.156 1.30855 3.36986 0
M  V30 6257 O 634.877 2.70123 3.44914 0
M  V30 6258 C 636.378 1.107 4.29256 0
M  V30 6259 H 633.598 0.311868 0.59412 0
M  V30 6260 H 636.142 1.46897 1.42273 0
M  V30 6261 H 634.297 0.752126 3.80029 0
M  V30 6262 H 634.711 2.88923 4.37748 0
M  V30 6263 H 636.185 1.46378 5.32238 0
M  V30 6264 H 636.662 0.0456228 4.39176 0
M  V30 6265 H 637.268 1.64988 3.91994 0
M  V30 6266 N 635.583 -1.29855 0.893053 0
M  V30 6267 C 636.831 -1.9544 0.514566 0
M  V30 6268 C 637.152 -1.70795 -0.940959 0
M  V30 6269 O 636.422 -1.03601 -1.66264 0
M  V30 6270 H 635.002 -0.723137 0.187302 0
M  V30 6271 H 637.664 -1.58234 1.13789 0
M  V30 6272 H 636.76 -3.04341 0.691581 0
M  V30 6273 N 637.061 -0.65484 -1.43351 0
M  V30 6274 C 638.309 -0.168559 -2.01396 0
M  V30 6275 C 638.63 1.22235 -1.51933 0
M  V30 6276 O 637.9 1.81685 -0.732627 0
M  V30 6277 H 636.48 -0.0593244 -0.744641 0
M  V30 6278 H 639.142 -0.846871 -1.75539 0
M  V30 6279 H 638.238 -0.154428 -3.11718 0
M  V30 6280 N 638.539 1.52521 -0.396863 0
M  V30 6281 C 639.769 2.05792 0.182485 0
M  V30 6282 C 640.177 1.26784 1.40436 0
M  V30 6283 O 639.52 0.309617 1.81072 0
M  V30 6284 C 639.582 3.54291 0.609781 0
M  V30 6285 C 639.246 4.5426 -0.499674 0
M  V30 6286 C 640.243 5.01812 -1.35944 0
M  V30 6287 C 637.928 4.97827 -0.668864 0
M  V30 6288 C 639.922 5.91562 -2.37346 0
M  V30 6289 C 637.609 5.87376 -1.68621 0
M  V30 6290 C 638.607 6.34137 -2.53692 0
M  V30 6291 O 638.295 7.21915 -3.53686 0
M  V30 6292 H 638.027 0.675362 0.0293583 0
M  V30 6293 H 640.581 1.97539 -0.56281 0
M  V30 6294 H 638.811 3.60188 1.40717 0
M  V30 6295 H 640.5 3.90267 1.11565 0
M  V30 6296 H 641.266 4.68879 -1.24008 0
M  V30 6297 H 637.145 4.60997 -0.0163971 0
M  V30 6298 H 640.689 6.27983 -3.03782 0
M  V30 6299 H 636.586 6.19723 -1.80593 0
M  V30 6300 H 637.354 7.39996 -3.49784 0
M  V30 6301 N 640.017 0.126909 1.57088 0
M  V30 6302 C 641.263 -0.529952 1.95753 0
M  V30 6303 C 641.596 -1.65823 1.01077 0
M  V30 6304 O 640.871 -1.94437 0.0494162 0
M  V30 6305 C 641.154 -1.05517 3.44294 0
M  V30 6306 C 641.007 0.0702253 4.49745 0
M  V30 6307 C 642.326 -1.9435 3.94862 0
M  V30 6308 H 639.445 -0.191168 0.711775 0
M  V30 6309 H 642.087 0.204071 1.88901 0
M  V30 6310 H 640.237 -1.68069 3.50264 0
M  V30 6311 H 641.909 0.705834 4.55868 0
M  V30 6312 H 640.152 0.732259 4.27575 0
M  V30 6313 H 640.823 -0.338642 5.5096 0
M  V30 6314 H 643.299 -1.41658 3.91244 0
M  V30 6315 H 642.175 -2.28015 4.993 0
M  V30 6316 H 642.436 -2.87299 3.36024 0
M  V30 6317 N 641.495 -1.56914 -0.146875 0
M  V30 6318 C 642.743 -1.82994 -0.85777 0
M  V30 6319 C 643.064 -0.707814 -1.817 0
M  V30 6320 O 642.334 0.270521 -1.94023 0
M  V30 6321 H 640.914 -0.675106 -0.319751 0
M  V30 6322 H 643.576 -1.9439 -0.140849 0
M  V30 6323 H 642.672 -2.77928 -1.41994 0
M  V30 6324 N 642.974 0.416227 -1.52004 0
M  V30 6325 C 643.884 1.53147 -1.77717 0
M  V30 6326 C 644.9 1.609 -0.662368 0
M  V30 6327 O 646.076 1.77747 -0.946991 0
M  V30 6328 C 643.141 2.88948 -1.91598 0
M  V30 6329 C 642.202 2.9114 -3.15493 0
M  V30 6330 C 641.435 4.20464 -3.28703 0
M  V30 6331 O 641.658 5.13981 -2.47345 0
M  V30 6332 O 640.592 4.29368 -4.21813 0
M  V30 6333 H 644.418 1.34357 -2.72363 0
M  V30 6334 H 642.003 0.601373 -1.36762 0
M  V30 6335 H 643.885 3.69505 -2.02593 0
M  V30 6336 H 642.56 3.07821 -1.00141 0
M  V30 6337 H 641.467 2.09461 -3.09962 0
M  V30 6338 H 642.8 2.77216 -4.06709 0
M  V30 6339 N 644.452 1.42507 0.673017 0
M  V30 6340 C 645.698 1.43284 1.43519 0
M  V30 6341 C 646.031 0.049668 1.94136 0
M  V30 6342 O 645.306 -0.926369 1.71022 0
M  V30 6343 C 645.589 2.45874 2.63093 0
M  V30 6344 C 645.442 3.93388 2.18096 0
M  V30 6345 C 646.761 2.45431 3.6531 0
M  V30 6346 H 643.88 0.521752 0.520522 0
M  V30 6347 H 646.522 1.73932 0.764701 0
M  V30 6348 H 644.672 2.19869 3.20296 0
M  V30 6349 H 646.344 4.30379 1.66046 0
M  V30 6350 H 644.587 4.07169 1.49652 0
M  V30 6351 H 645.258 4.60752 3.03993 0
M  V30 6352 H 647.734 2.68561 3.17827 0
M  V30 6353 H 646.61 3.19189 4.46553 0
M  V30 6354 H 646.871 1.48092 4.16559 0
M  V30 6355 N 645.93 -0.909495 1.28709 0
M  V30 6356 C 646.862 -2.01729 1.08804 0
M  V30 6357 C 647.875 -1.62755 0.0384739 0
M  V30 6358 O 649.064 -1.76259 0.281977 0
M  V30 6359 C 646.164 -3.32952 0.63217 0
M  V30 6360 C 645.337 -4.00512 1.75809 0
M  V30 6361 C 644.396 -5.10019 1.29488 0
M  V30 6362 O 643.422 -5.32986 1.99787 0
M  V30 6363 N 644.624 -5.80278 0.1604 0
M  V30 6364 H 647.389 -2.19362 2.04207 0
M  V30 6365 H 644.95 -1.08106 1.20518 0
M  V30 6366 H 646.942 -4.03543 0.305802 0
M  V30 6367 H 645.512 -3.11759 -0.229134 0
M  V30 6368 H 644.732 -3.23413 2.25383 0
M  V30 6369 H 646.02 -4.42395 2.51325 0
M  V30 6370 H 645.418 -5.64094 -0.425937 0
M  V30 6371 H 643.975 -6.51713 -0.106663 0
M  V30 6372 N 647.408 -1.11026 -1.11852 0
M  V30 6373 C 648.657 -0.851249 -1.82857 0
M  V30 6374 C 648.97 0.62514 -1.85341 0
M  V30 6375 O 650.176 1.00026 -2.52403 0
M  V30 6376 C 648.632 -1.47309 -3.28372 0
M  V30 6377 C 648.24 -2.9832 -3.34229 0
M  V30 6378 C 649.984 -1.29373 -4.04306 0
M  V30 6379 C 647.891 -3.53509 -4.74115 0
M  V30 6380 H 646.821 -0.314794 -0.685143 0
M  V30 6381 H 649.472 -1.33499 -1.25898 0
M  V30 6382 H 647.854 -0.917017 -3.85236 0
M  V30 6383 H 649.028 -3.60295 -2.87271 0
M  V30 6384 H 647.343 -3.15482 -2.71772 0
M  V30 6385 H 649.94 -1.68042 -5.07608 0
M  V30 6386 H 650.283 -0.235879 -4.15631 0
M  V30 6387 H 650.816 -1.8182 -3.53817 0
M  V30 6388 H 647.555 -4.58987 -4.67986 0
M  V30 6389 H 647.075 -2.96305 -5.21501 0
M  V30 6390 H 648.754 -3.51693 -5.43066 0
M  V30 6391 N 648.886 1.2938 -0.899927 0
M  V30 6392 C 649.818 2.26737 -0.335139 0
M  V30 6393 C 650.831 1.54316 0.518681 0
M  V30 6394 O 652.02 1.75313 0.335803 0
M  V30 6395 C 649.12 3.34558 0.540774 0
M  V30 6396 C 648.293 4.36455 -0.287372 0
M  V30 6397 C 647.352 5.2361 0.52141 0
M  V30 6398 O 646.378 5.69167 -0.0611735 0
M  V30 6399 N 647.58 5.50985 1.82745 0
M  V30 6400 H 650.345 2.75838 -1.17191 0
M  V30 6401 H 647.906 1.42716 -0.764438 0
M  V30 6402 H 649.898 3.89794 1.08825 0
M  V30 6403 H 648.468 2.85272 1.27823 0
M  V30 6404 H 647.688 3.80875 -1.01626 0
M  V30 6405 H 648.976 5.01573 -0.854518 0
M  V30 6406 H 648.374 5.15781 2.32349 0
M  V30 6407 H 646.931 6.09036 2.32204 0
M  V30 6408 N 650.364 0.662433 1.43002 0
M  V30 6409 C 651.296 -0.062326 2.29115 0
M  V30 6410 C 652.309 -0.777926 1.43011 0
M  V30 6411 O 653.498 -0.634146 1.66856 0
M  V30 6412 C 650.598 -1.11163 3.2015 0
M  V30 6413 C 649.771 -0.472327 4.34842 0
M  V30 6414 C 648.83 -1.41974 5.06685 0
M  V30 6415 O 647.856 -0.924795 5.61637 0
M  V30 6416 N 649.058 -2.75345 5.11043 0
M  V30 6417 H 651.823 0.676838 2.91957 0
M  V30 6418 H 649.384 0.505907 1.53793 0
M  V30 6419 H 651.376 -1.74643 3.65078 0
M  V30 6420 H 649.946 -1.75266 2.58845 0
M  V30 6421 H 649.166 0.341751 3.92716 0
M  V30 6422 H 650.454 -0.0264381 5.08793 0
M  V30 6423 H 649.852 -3.18108 4.67786 0
M  V30 6424 H 648.409 -3.34105 5.59658 0
M  V30 6425 N 651.842 -1.52309 0.404946 0
M  V30 6426 C 652.775 -2.23369 -0.467087 0
M  V30 6427 C 653.753 -1.24034 -1.0514 0
M  V30 6428 O 654.937 -1.53071 -1.10006 0
M  V30 6429 C 652.064 -2.95906 -1.64795 0
M  V30 6430 C 651.11 -4.09637 -1.18743 0
M  V30 6431 S 651.943 -5.35273 -0.156022 0
M  V30 6432 C 653.099 -6.11337 -1.34231 0
M  V30 6433 H 653.332 -2.96987 0.136294 0
M  V30 6434 H 650.865 -1.53236 0.189219 0
M  V30 6435 H 652.823 -3.38304 -2.3251 0
M  V30 6436 H 651.484 -2.21937 -2.22267 0
M  V30 6437 H 650.677 -4.59549 -2.06955 0
M  V30 6438 H 650.279 -3.69333 -0.588981 0
M  V30 6439 H 652.571 -6.38458 -2.26665 0
M  V30 6440 H 653.514 -7.02563 -0.883804 0
M  V30 6441 H 653.922 -5.42338 -1.56621 0
M  V30 6442 N 653.32 -0.135238 -1.57019 0
M  V30 6443 C 654.545 0.529343 -2.00531 0
M  V30 6444 C 654.97 1.58391 -1.01459 0
M  V30 6445 O 654.328 1.81296 0.0113986 0
M  V30 6446 C 654.376 1.11748 -3.42848 0
M  V30 6447 O 653.48 2.23267 -3.46736 0
M  V30 6448 H 652.821 0.130669 -0.651016 0
M  V30 6449 H 655.351 -0.228503 -2.0332 0
M  V30 6450 H 655.361 1.44905 -3.81401 0
M  V30 6451 H 654.036 0.345147 -4.14465 0
M  V30 6452 H 652.613 1.91428 -3.20015 0
M  V30 6453 N 654.798 1.5699 0.138552 0
M  V30 6454 C 656.028 1.87704 0.863184 0
M  V30 6455 C 656.436 0.722411 1.74865 0
M  V30 6456 O 655.779 -0.316636 1.80951 0
M  V30 6457 C 655.841 3.13219 1.76449 0
M  V30 6458 C 655.505 4.44648 1.05532 0
M  V30 6459 C 656.502 5.18318 0.405252 0
M  V30 6460 C 654.187 4.91367 1.04231 0
M  V30 6461 C 656.181 6.36916 -0.24835 0
M  V30 6462 C 653.868 6.09887 0.384904 0
M  V30 6463 C 654.866 6.82508 -0.259292 0
M  V30 6464 O 654.554 7.98775 -0.906258 0
M  V30 6465 H 654.286 0.626255 0.254521 0
M  V30 6466 H 656.84 2.04966 0.133472 0
M  V30 6467 H 655.07 2.91988 2.53535 0
M  V30 6468 H 656.759 3.30111 2.36181 0
M  V30 6469 H 657.525 4.83289 0.407053 0
M  V30 6470 H 653.404 4.34759 1.53315 0
M  V30 6471 H 656.948 6.93538 -0.751755 0
M  V30 6472 H 652.845 6.44376 0.380799 0
M  V30 6473 H 653.613 8.14494 -0.80877 0
M  V30 6474 N 656.276 -0.40816 1.52223 0
M  V30 6475 C 657.226 -1.49648 1.72016 0
M  V30 6476 C 658.21 -1.50311 0.574069 0
M  V30 6477 O 659.402 -1.56271 0.831173 0
M  V30 6478 C 656.531 -2.87566 1.87512 0
M  V30 6479 C 655.617 -2.91547 3.07995 0
M  V30 6480 N 656.008 -2.65225 4.30685 0
M  V30 6481 C 654.306 -3.22715 3.07849 0
M  V30 6482 C 655.007 -2.75799 5.12162 0
M  V30 6483 N 653.983 -3.08719 4.4743 0
M  V30 6484 H 657.785 -1.28093 2.64517 0
M  V30 6485 H 655.299 -0.61588 1.50269 0
M  V30 6486 H 657.296 -3.65899 1.99809 0
M  V30 6487 H 655.956 -3.10118 0.962114 0
M  V30 6488 H 656.967 -2.39601 4.59142 0
M  V30 6489 H 653.644 -3.50856 2.26289 0
M  V30 6490 H 655.034 -2.59155 6.1991 0
M  V30 6491 N 657.755 -1.42862 -0.66545 0
M  V30 6492 C 658.702 -1.4707 -1.77874 0
M  V30 6493 C 659.672 -0.321654 -1.62956 0
M  V30 6494 O 660.857 -0.52707 -1.83376 0
M  V30 6495 C 657.997 -1.38788 -3.15962 0
M  V30 6496 C 657.11 -2.63801 -3.42101 0
M  V30 6497 C 656.245 -2.47594 -4.69969 0
M  V30 6498 C 655.284 -3.67936 -4.89172 0
M  V30 6499 N 654.421 -3.50614 -6.08288 0
M  V30 6500 H 659.261 -2.42204 -1.73613 0
M  V30 6501 H 656.798 -1.20239 -0.847401 0
M  V30 6502 H 658.756 -1.31982 -3.95773 0
M  V30 6503 H 657.386 -0.472431 -3.19324 0
M  V30 6504 H 656.438 -2.80935 -2.56475 0
M  V30 6505 H 657.75 -3.53228 -3.52181 0
M  V30 6506 H 656.904 -2.38427 -5.57886 0
M  V30 6507 H 655.643 -1.55672 -4.62188 0
M  V30 6508 H 654.648 -3.77525 -3.99694 0
M  V30 6509 H 655.873 -4.60851 -4.98792 0
M  V30 6510 H 653.819 -2.61417 -6.01662 0
M  V30 6511 H 653.736 -4.33634 -6.19272 0
M  V30 6512 H 655.004 -3.45276 -6.98859 0
M  V30 6513 N 659.233 0.902656 -1.29189 0
M  V30 6514 C 660.183 1.99326 -1.10695 0
M  V30 6515 C 661.167 1.60877 -0.0272521 0
M  V30 6516 O 662.359 1.75245 -0.248635 0
M  V30 6517 C 659.488 3.34265 -0.78244 0
M  V30 6518 C 658.574 3.79081 -1.90153 0
M  V30 6519 N 658.965 3.96162 -3.14466 0
M  V30 6520 C 657.263 4.08333 -1.79389 0
M  V30 6521 C 657.964 4.3388 -3.87458 0
M  V30 6522 N 656.94 4.42759 -3.15381 0
M  V30 6523 H 660.742 2.10597 -2.05003 0
M  V30 6524 H 658.256 1.09127 -1.20271 0
M  V30 6525 H 660.253 4.12097 -0.630996 0
M  V30 6526 H 658.913 3.2434 0.152754 0
M  V30 6527 H 659.924 3.81775 -3.49954 0
M  V30 6528 H 656.601 4.06982 -0.931217 0
M  V30 6529 H 657.991 4.54965 -4.94425 0
M  V30 6530 N 660.711 1.11618 1.11262 0
M  V30 6531 C 661.674 0.779447 2.15539 0
M  V30 6532 C 662.674 -0.202081 1.59525 0
M  V30 6533 O 663.864 0.0226356 1.74185 0
M  V30 6534 C 660.996 0.15674 3.40539 0
M  V30 6535 H 662.189 1.70324 2.4684 0
M  V30 6536 H 659.742 0.918298 1.26479 0
M  V30 6537 H 660.477 -0.777186 3.1485 0
M  V30 6538 H 660.262 0.863308 3.82478 0
M  V30 6539 H 661.752 -0.062661 4.17553 0
M  V30 6540 N 662.189 -1.289 0.906776 0
M  V30 6541 C 663.437 -1.94883 0.535266 0
M  V30 6542 C 663.758 -1.71784 -0.922791 0
M  V30 6543 O 663.028 -1.05359 -1.65156 0
M  V30 6544 H 661.608 -0.721109 0.194962 0
M  V30 6545 H 664.27 -1.57018 1.15461 0
M  V30 6546 H 663.366 -3.03591 0.723821 0
M  V30 6547 N 663.667 -0.670007 -1.42649 0
M  V30 6548 C 664.915 -0.18991 -2.01206 0
M  V30 6549 C 665.236 1.20617 -1.53221 0
M  V30 6550 O 664.506 1.80898 -0.751856 0
M  V30 6551 H 663.086 -0.0672189 -0.743969 0
M  V30 6552 H 665.748 -0.865442 -1.74631 0
M  V30 6553 H 664.844 -0.187481 -3.11536 0
M  V30 6554 N 665.145 1.52092 -0.413018 0
M  V30 6555 C 666.392 2.01855 0.161497 0
M  V30 6556 C 666.72 1.29845 1.44812 0
M  V30 6557 O 665.975 0.394471 1.91683 0
M  V30 6558 C 666.274 3.54529 0.4521 0
M  V30 6559 C 665.94 4.4469 -0.745788 0
M  V30 6560 C 664.602 4.69053 -1.07435 0
M  V30 6561 C 666.954 4.97742 -1.54604 0
M  V30 6562 C 664.282 5.43717 -2.20429 0
M  V30 6563 C 666.634 5.73642 -2.66678 0
M  V30 6564 C 665.298 5.96277 -3.00016 0
M  V30 6565 H 664.568 0.73864 0.0590961 0
M  V30 6566 H 667.215 1.83274 -0.555234 0
M  V30 6567 H 665.52 3.7131 1.25045 0
M  V30 6568 H 667.217 3.90546 0.909647 0
M  V30 6569 H 663.807 4.25907 -0.479725 0
M  V30 6570 H 667.991 4.78824 -1.30543 0
M  V30 6571 H 663.247 5.59462 -2.46602 0
M  V30 6572 H 667.421 6.13746 -3.29072 0
M  V30 6573 H 665.048 6.53913 -3.87688 0
M  V30 6574 N 666.623 0.143563 1.56945 0
M  V30 6575 C 667.871 -0.507402 1.95627 0
M  V30 6576 C 668.192 -1.65626 1.02922 0
M  V30 6577 O 667.462 -1.95693 0.0901136 0
M  V30 6578 H 666.042 -0.190436 0.722318 0
M  V30 6579 H 668.704 0.218257 1.93674 0
M  V30 6580 H 667.8 -0.885816 2.99265 0
M  V30 6581 N 668.101 -1.57061 -0.130224 0
M  V30 6582 C 669.011 -2.02802 -1.17934 0
M  V30 6583 C 670.027 -0.946378 -1.46013 0
M  V30 6584 O 671.203 -1.25708 -1.57351 0
M  V30 6585 C 668.268 -2.41368 -2.48882 0
M  V30 6586 C 667.329 -3.63561 -2.28301 0
M  V30 6587 C 666.562 -4.00279 -3.53005 0
M  V30 6588 O 666.785 -3.37463 -4.59864 0
M  V30 6589 O 665.719 -4.93441 -3.44673 0
M  V30 6590 H 669.545 -2.92394 -0.820958 0
M  V30 6591 H 667.13 -1.45475 -0.340197 0
M  V30 6592 H 669.012 -2.66958 -3.26054 0
M  V30 6593 H 667.687 -1.54926 -2.84217 0
M  V30 6594 H 666.594 -3.43136 -1.49025 0
M  V30 6595 H 667.927 -4.50673 -1.97875 0
M  V30 6596 N 669.579 0.400081 -1.52437 0
M  V30 6597 C 670.529 1.48734 -1.72807 0
M  V30 6598 C 671.513 1.50004 -0.582032 0
M  V30 6599 O 672.705 1.55828 -0.839449 0
M  V30 6600 C 669.834 2.86568 -1.89034 0
M  V30 6601 C 668.92 2.8991 -3.09537 0
M  V30 6602 N 669.311 2.62937 -4.32086 0
M  V30 6603 C 667.609 3.21078 -3.09556 0
M  V30 6604 C 668.31 2.73079 -5.13617 0
M  V30 6605 N 667.286 3.06342 -4.49061 0
M  V30 6606 H 671.088 1.26689 -2.65193 0
M  V30 6607 H 668.602 0.607902 -1.50593 0
M  V30 6608 H 670.599 3.64834 -2.01746 0
M  V30 6609 H 669.259 3.09604 -0.978547 0
M  V30 6610 H 670.27 2.37163 -4.60406 0
M  V30 6611 H 666.947 3.49651 -2.28146 0
M  V30 6612 H 668.337 2.55863 -6.21276 0
M  V30 6613 N 671.057 1.43213 0.657864 0
M  V30 6614 C 672.334 1.35063 1.41483 0
M  V30 6615 C 672.714 -0.0038314 2.111 0
M  V30 6616 O 672.062 -1.02018 2.04462 0
M  V30 6617 C 672.272 2.53061 2.40335 0
M  V30 6618 C 673.62 2.9594 3.04474 0
M  V30 6619 O 674.644 2.53074 2.50663 0
M  V30 6620 O 673.503 3.70184 4.02027 0
M  V30 6621 H 670.597 0.533517 0.631893 0
M  V30 6622 H 673.143 1.55253 0.685162 0
M  V30 6623 H 671.915 3.43283 1.87809 0
M  V30 6624 H 671.538 2.34945 3.20759 0
M  V30 6625 N 672.536 -0.895792 1.29666 0
M  V30 6626 C 673.813 -1.62723 1.08538 0
M  V30 6627 C 674.193 -2.07848 -0.369119 0
M  V30 6628 O 673.541 -1.8372 -1.35864 0
M  V30 6629 C 673.751 -2.80505 2.07648 0
M  V30 6630 C 675.099 -3.51098 2.3878 0
M  V30 6631 O 676.123 -2.90679 2.05874 0
M  V30 6632 O 674.982 -4.60028 2.9502 0
M  V30 6633 H 672.076 -0.714692 0.416106 0
M  V30 6634 H 674.622 -0.943517 1.41053 0
M  V30 6635 H 673.394 -2.44386 3.05599 0
M  V30 6636 H 673.017 -3.5658 1.75887 0
M  V30 6637 N 674.014 -1.12206 -1.10668 0
M  V30 6638 C 674.944 -0.810086 -2.18997 0
M  V30 6639 C 675.925 0.225065 -1.68604 0
M  V30 6640 O 677.11 0.086783 -1.94006 0
M  V30 6641 C 674.24 -0.261262 -3.46316 0
M  V30 6642 C 673.194 -1.2292 -4.09969 0
M  V30 6643 C 672.52 -0.540713 -5.31959 0
M  V30 6644 C 673.82 -2.58295 -4.53962 0
M  V30 6645 H 675.514 -1.7159 -2.45352 0
M  V30 6646 H 673.06 -0.82646 -1.17922 0
M  V30 6647 H 675.013 -0.0307522 -4.21389 0
M  V30 6648 H 673.737 0.679879 -3.19445 0
M  V30 6649 H 672.396 -1.44548 -3.369 0
M  V30 6650 H 672.044 0.405492 -5.01363 0
M  V30 6651 H 671.744 -1.18637 -5.75499 0
M  V30 6652 H 673.268 -0.319184 -6.09765 0
M  V30 6653 H 674.682 -2.40709 -5.20319 0
M  V30 6654 H 673.079 -3.18916 -5.08343 0
M  V30 6655 H 674.149 -3.16918 -3.67002 0
M  V30 6656 N 675.492 1.28418 -0.913599 0
M  V30 6657 C 676.74 1.94596 -0.545594 0
M  V30 6658 C 677.061 1.7227 0.913668 0
M  V30 6659 O 676.331 1.06233 1.64595 0
M  V30 6660 H 674.911 0.720065 -0.198783 0
M  V30 6661 H 677.573 1.56404 -1.16292 0
M  V30 6662 H 676.669 3.03202 -0.739911 0
M  V30 6663 N 676.97 0.677563 1.42291 0
M  V30 6664 C 677.933 0.0101085 2.29198 0
M  V30 6665 C 678.933 -0.726219 1.43467 0
M  V30 6666 O 680.123 -0.563807 1.64824 0
M  V30 6667 C 677.255 -0.996316 3.26016 0
M  V30 6668 H 678.448 0.775071 2.89711 0
M  V30 6669 H 676.001 0.440065 1.49977 0
M  V30 6670 H 676.736 -1.78967 2.70446 0
M  V30 6671 H 676.521 -0.471687 3.89253 0
M  V30 6672 H 678.011 -1.46167 3.91184 0
M  V30 6673 N 678.448 -1.51871 0.421078 0
M  V30 6674 C 679.695 -2.01938 -0.15079 0
M  V30 6675 C 680.023 -1.30611 -1.44121 0
M  V30 6676 O 679.278 -0.404631 -1.91471 0
M  V30 6677 C 679.577 -3.54764 -0.433292 0
M  V30 6678 C 679.243 -4.44288 0.76936 0
M  V30 6679 C 677.905 -4.68477 1.09921 0
M  V30 6680 C 680.257 -4.96915 1.57242 0
M  V30 6681 C 677.585 -5.4254 2.2331 0
M  V30 6682 C 679.937 -5.7222 2.69716 0
M  V30 6683 C 678.601 -5.94678 3.03174 0
M  V30 6684 H 677.871 -0.738943 -0.0551781 0
M  V30 6685 H 680.518 -1.82977 0.564945 0
M  V30 6686 H 678.823 -3.71968 -1.23074 0
M  V30 6687 H 680.52 -3.91023 -0.888922 0
M  V30 6688 H 677.11 -4.25646 0.502305 0
M  V30 6689 H 681.294 -4.78125 1.3308 0
M  V30 6690 H 676.55 -5.58146 2.49565 0
M  V30 6691 H 680.724 -6.11992 3.32323 0
M  V30 6692 H 678.351 -6.51848 3.9115 0
M  V30 6693 N 679.926 -0.151884 -1.56866 0
M  V30 6694 C 681.174 0.497021 -1.95893 0
M  V30 6695 C 681.495 1.65078 -1.03799 0
M  V30 6696 O 680.765 1.95642 -0.10049 0
M  V30 6697 H 679.345 0.186603 -0.723318 0
M  V30 6698 H 682.007 -0.228525 -1.93556 0
M  V30 6699 H 681.103 0.869933 -2.99731 0
M  V30 6700 N 681.404 1.57128 0.121893 0
M  V30 6701 C 682.352 2.01109 1.16868 0
M  V30 6702 C 683.346 0.907532 1.43039 0
M  V30 6703 O 684.552 1.09274 1.43036 0
M  V30 6704 H 680.927 0.640539 0.393971 0
M  V30 6705 H 682.898 2.88261 0.771224 0
M  V30 6706 C 681.647 2.42887 2.48799 0
M  V30 6707 H 680.97 3.2737 2.29498 0
M  V30 6708 H 682.41 2.77461 3.20611 0
M  V30 6709 C 680.869 1.29137 3.11168 0
M  V30 6710 O 681.399 0.605756 3.97106 0
M  V30 6711 N 679.605 1.04916 2.71 0
M  V30 6712 H 679.152 1.60848 2.01211 0
M  V30 6713 H 679.11 0.290016 3.1306 0
M  V30 6714 N 682.882 -0.391992 1.52647 0
M  V30 6715 C 684.11 -1.1586 1.71418 0
M  V30 6716 C 684.525 -1.8381 0.431216 0
M  V30 6717 O 683.882 -1.7256 -0.594085 0
M  V30 6718 C 683.933 -2.20888 2.86165 0
M  V30 6719 O 683.654 -1.5571 4.09495 0
M  V30 6720 C 685.155 -3.103 3.1659 0
M  V30 6721 H 682.375 -0.347494 0.574011 0
M  V30 6722 H 684.919 -0.458972 1.99283 0
M  V30 6723 H 683.074 -2.86492 2.6077 0
M  V30 6724 H 683.488 -2.25474 4.73563 0
M  V30 6725 H 684.962 -3.8003 4.00351 0
M  V30 6726 H 685.439 -3.73639 2.30848 0
M  V30 6727 H 686.045 -2.50345 3.43813 0
M  V30 6728 N 684.36 -1.4356 -0.65026 0
M  V30 6729 C 685.776 -1.27025 -0.966269 0
M  V30 6730 C 685.976 -0.192117 -2.00582 0
M  V30 6731 O 685.032 0.428459 -2.48838 0
M  V30 6732 C 686.345 -2.63556 -1.44772 0
M  V30 6733 C 687.893 -2.71111 -1.56421 0
M  V30 6734 C 688.368 -4.08067 -2.07956 0
M  V30 6735 N 689.859 -4.10146 -2.15254 0
M  V30 6736 C 690.594 -5.12952 -2.56258 0
M  V30 6737 N 690.09 -6.26129 -2.96537 0
M  V30 6738 N 691.883 -5.00306 -2.56224 0
M  V30 6739 H 684.034 -2.12367 0.0375758 0
M  V30 6740 H 686.297 -0.946894 -0.0457782 0
M  V30 6741 H 686.003 -3.43429 -0.758271 0
M  V30 6742 H 685.877 -2.89152 -2.42221 0
M  V30 6743 H 688.264 -1.91569 -2.24467 0
M  V30 6744 H 688.345 -2.49277 -0.573967 0
M  V30 6745 H 687.989 -4.88077 -1.40511 0
M  V30 6746 H 687.919 -4.27266 -3.07817 0
M  V30 6747 H 690.41 -3.28453 -1.86887 0
M  V30 6748 H 690.723 -7.00403 -3.26582 0
M  V30 6749 H 689.068 -6.29597 -2.94334 0
M  V30 6750 H 692.259 -4.10952 -2.24135 0
M  V30 6751 H 692.432 -5.80553 -2.87857 0
M  V30 6752 N 685.838 0.888903 -1.30139 0
M  V30 6753 C 687.254 1.17153 -1.08385 0
M  V30 6754 C 687.454 2.0088 0.157925 0
M  V30 6755 O 686.51 2.37668 0.852652 0
M  V30 6756 C 687.823 1.882 -2.34523 0
M  V30 6757 C 689.371 2.00981 -2.39949 0
M  V30 6758 C 689.846 2.75441 -3.65918 0
M  V30 6759 N 691.337 2.82989 -3.66704 0
M  V30 6760 C 692.072 3.41167 -4.60861 0
M  V30 6761 N 691.568 4.00425 -5.6536 0
M  V30 6762 N 693.361 3.38944 -4.48412 0
M  V30 6763 H 685.512 0.33053 -2.09812 0
M  V30 6764 H 687.775 0.208964 -0.924683 0
M  V30 6765 H 687.481 1.34119 -3.25123 0
M  V30 6766 H 687.355 2.88609 -2.42868 0
M  V30 6767 H 689.742 2.54234 -1.4983 0
M  V30 6768 H 689.823 0.996725 -2.35582 0
M  V30 6769 H 689.467 2.22861 -4.56394 0
M  V30 6770 H 689.397 3.77118 -3.67546 0
M  V30 6771 H 691.888 2.40912 -2.91153 0
M  V30 6772 H 692.201 4.42871 -6.33313 0
M  V30 6773 H 690.546 3.98856 -5.69157 0
M  V30 6774 H 693.737 2.91875 -3.6596 0
M  V30 6775 H 693.91 3.83989 -5.21974 0
M  V30 6776 N 687.317 1.12792 1.10072 0
M  V30 6777 C 688.542 0.908838 1.86427 0
M  V30 6778 C 688.967 -0.536793 1.80278 0
M  V30 6779 O 688.325 -1.38033 1.17543 0
M  V30 6780 C 688.373 1.39295 3.3261 0
M  V30 6781 O 687.477 0.573846 4.08388 0
M  V30 6782 H 686.818 0.326234 0.578331 0
M  V30 6783 H 689.348 1.50094 1.39043 0
M  V30 6784 H 689.358 1.39366 3.83459 0
M  V30 6785 H 688.033 2.44555 3.36401 0
M  V30 6786 H 686.61 0.640438 3.67359 0
M  V30 6787 N 688.795 -1.27931 0.920396 0
M  V30 6788 C 689.743 -2.29061 0.404191 0
M  V30 6789 C 690.737 -1.61615 -0.507634 0
M  V30 6790 O 691.943 -1.75765 -0.388144 0
M  V30 6791 H 688.318 -0.743594 0.112123 0
M  V30 6792 H 690.289 -2.70021 1.27008 0
M  V30 6793 C 689.038 -3.46088 -0.334466 0
M  V30 6794 H 688.361 -3.98194 0.35797 0
M  V30 6795 H 689.801 -4.18829 -0.660196 0
M  V30 6796 C 688.26 -2.99396 -1.54479 0
M  V30 6797 O 688.79 -3.02439 -2.64374 0
M  V30 6798 N 686.996 -2.54978 -1.39408 0
M  V30 6799 H 686.543 -2.52701 -0.500009 0
M  V30 6800 H 686.501 -2.24098 -2.20516 0
M  V30 6801 N 690.273 -0.685099 -1.4193 0
M  V30 6802 C 691.52 -0.211658 -2.01391 0
M  V30 6803 C 691.848 1.18526 -1.54214 0
M  V30 6804 O 691.103 1.81189 -0.739519 0
M  V30 6805 C 691.402 -0.206154 -3.56805 0
M  V30 6806 C 691.068 -1.54915 -4.23453 0
M  V30 6807 C 689.73 -1.91684 -4.41373 0
M  V30 6808 C 692.082 -2.43317 -4.60919 0
M  V30 6809 C 689.41 -3.16461 -4.94034 0
M  V30 6810 C 691.762 -3.67415 -5.14965 0
M  V30 6811 C 690.426 -4.04341 -5.31098 0
M  V30 6812 H 689.696 -0.0774511 -0.736941 0
M  V30 6813 H 692.343 -0.882121 -1.69973 0
M  V30 6814 H 690.648 0.547841 -3.87951 0
M  V30 6815 H 692.345 0.17753 -4.00607 0
M  V30 6816 H 688.935 -1.25314 -4.09871 0
M  V30 6817 H 693.119 -2.16192 -4.46738 0
M  V30 6818 H 688.375 -3.45078 -5.04709 0
M  V30 6819 H 692.549 -4.3611 -5.42938 0
M  V30 6820 H 690.176 -5.01101 -5.71666 0
M  V30 6821 N 691.751 1.51645 -0.429126 0
M  V30 6822 C 692.997 2.02314 0.140286 0
M  V30 6823 C 693.33 1.31314 1.43074 0
M  V30 6824 O 692.605 0.425531 1.89788 0
M  V30 6825 C 692.888 3.5822 0.36749 0
M  V30 6826 C 692.741 4.39846 -0.941039 0
M  V30 6827 C 694.06 4.25055 1.14089 0
M  V30 6828 H 691.179 0.735335 0.0495112 0
M  V30 6829 H 693.821 1.81358 -0.566514 0
M  V30 6830 H 691.971 3.76207 0.969556 0
M  V30 6831 H 693.643 4.33527 -1.57646 0
M  V30 6832 H 691.886 4.05259 -1.54751 0
M  V30 6833 H 692.557 5.47069 -0.73621 0
M  V30 6834 H 695.033 4.11288 0.630986 0
M  V30 6835 H 693.909 5.34038 1.26863 0
M  V30 6836 H 694.17 3.85358 2.16683 0
M  V30 6837 N 693.229 0.160201 1.56784 0
M  V30 6838 C 694.477 -0.486625 1.96154 0
M  V30 6839 C 694.798 -1.64525 1.04673 0
M  V30 6840 O 694.068 -1.95586 0.110864 0
M  V30 6841 H 692.648 -0.182764 0.724297 0
M  V30 6842 H 695.31 0.238787 1.93432 0
M  V30 6843 H 694.406 -0.854025 3.00188 0
M  V30 6844 N 694.707 -1.5719 -0.113559 0
M  V30 6845 C 695.935 -1.89328 -0.834422 0
M  V30 6846 C 696.35 -0.752018 -1.73177 0
M  V30 6847 O 695.707 0.276912 -1.80387 0
M  V30 6848 C 695.758 -3.20962 -1.66329 0
M  V30 6849 O 695.479 -4.30695 -0.802069 0
M  V30 6850 C 696.98 -3.6684 -2.48884 0
M  V30 6851 H 694.2 -0.626769 -0.239587 0
M  V30 6852 H 696.744 -2.04273 -0.0963195 0
M  V30 6853 H 694.899 -3.0767 -2.35409 0
M  V30 6854 H 695.313 -5.06175 -1.37431 0
M  V30 6855 H 696.787 -4.61692 -3.02563 0
M  V30 6856 H 697.264 -2.93765 -3.26495 0
M  V30 6857 H 697.87 -3.82938 -1.85036 0
M  V30 6858 N 696.185 0.383891 -1.52853 0
M  V30 6859 C 697.601 0.724316 -1.42218 0
M  V30 6860 C 697.801 1.93943 -0.546654 0
M  V30 6861 O 696.857 2.5249 -0.0220562 0
M  V30 6862 C 698.17 0.954635 -2.85144 0
M  V30 6863 C 699.718 1.05579 -2.94656 0
M  V30 6864 C 700.193 1.3187 -4.38605 0
M  V30 6865 N 701.684 1.38681 -4.41952 0
M  V30 6866 C 702.419 1.60699 -5.50421 0
M  V30 6867 N 701.915 1.80154 -6.68967 0
M  V30 6868 N 703.708 1.6292 -5.37972 0
M  V30 6869 H 695.859 -0.4156 -2.08294 0
M  V30 6870 H 698.122 -0.123776 -0.939885 0
M  V30 6871 H 697.828 0.133829 -3.51445 0
M  V30 6872 H 697.702 1.86788 -3.27704 0
M  V30 6873 H 700.089 1.86716 -2.2852 0
M  V30 6874 H 700.17 0.120338 -2.55517 0
M  V30 6875 H 699.814 0.512416 -5.05309 0
M  V30 6876 H 699.744 2.26708 -4.75301 0
M  V30 6877 H 702.235 1.25334 -3.56511 0
M  V30 6878 H 702.548 1.96476 -7.47407 0
M  V30 6879 H 700.893 1.77368 -6.71986 0
M  V30 6880 H 704.084 1.47276 -4.44328 0
M  V30 6881 H 704.257 1.79739 -6.22574 0
M  V30 6882 N 697.663 1.43903 0.642637 0
M  V30 6883 C 698.61 1.49881 1.75512 0
M  V30 6884 C 699.58 0.347538 1.62423 0
M  V30 6885 O 700.765 0.556177 1.82514 0
M  V30 6886 C 697.905 1.43797 3.13714 0
M  V30 6887 C 697.018 2.6921 3.37861 0
M  V30 6888 C 696.153 2.5504 4.6597 0
M  V30 6889 C 695.192 3.75671 4.83257 0
M  V30 6890 N 694.329 3.60247 6.02633 0
M  V30 6891 H 699.169 2.44935 1.69737 0
M  V30 6892 H 696.706 1.21572 0.828165 0
M  V30 6893 H 698.664 1.38262 3.93624 0
M  V30 6894 H 697.294 0.523173 3.18532 0
M  V30 6895 H 696.346 2.8498 2.51973 0
M  V30 6896 H 697.658 3.58786 3.46517 0
M  V30 6897 H 696.812 2.47273 5.54023 0
M  V30 6898 H 695.551 1.63006 4.59653 0
M  V30 6899 H 694.556 3.83836 3.93637 0
M  V30 6900 H 695.781 4.68728 4.91397 0
M  V30 6901 H 693.727 2.70955 5.97427 0
M  V30 6902 H 693.644 4.43431 6.12295 0
M  V30 6903 H 694.912 3.56351 6.93278 0
M  V30 6904 N 699.141 -0.881989 1.30609 0
M  V30 6905 C 700.389 -1.63082 1.19368 0
M  V30 6906 C 700.71 -1.93376 -0.251147 0
M  V30 6907 O 699.98 -1.5723 -1.16857 0
M  V30 6908 H 698.56 -0.604542 0.438791 0
M  V30 6909 H 701.222 -1.05658 1.63776 0
M  V30 6910 H 700.318 -2.57966 1.7567 0
M  V30 6911 N 700.619 -1.13374 -1.09472 0
M  V30 6912 C 701.549 -0.833268 -2.18126 0
M  V30 6913 C 702.53 0.207169 -1.68834 0
M  V30 6914 O 703.715 0.0662012 -1.94087 0
M  V30 6915 C 700.845 -0.297979 -3.46019 0
M  V30 6916 C 699.799 -1.27261 -4.08642 0
M  V30 6917 C 699.125 -0.597104 -5.31356 0
M  V30 6918 C 700.425 -2.63095 -4.51197 0
M  V30 6919 H 702.119 -1.74182 -2.43518 0
M  V30 6920 H 699.665 -0.838921 -1.17039 0
M  V30 6921 H 701.618 -0.0754444 -4.21332 0
M  V30 6922 H 700.342 0.645959 -3.20148 0
M  V30 6923 H 699.001 -1.48113 -3.35348 0
M  V30 6924 H 698.649 0.352293 -5.01765 0
M  V30 6925 H 698.349 -1.24734 -5.74208 0
M  V30 6926 H 699.873 -0.38384 -6.09392 0
M  V30 6927 H 701.287 -2.46214 -5.17737 0
M  V30 6928 H 699.684 -3.2429 -5.04932 0
M  V30 6929 H 700.754 -3.20793 -3.6362 0
M  V30 6930 N 702.098 1.27442 -0.927168 0
M  V30 6931 C 703.375 1.89473 -0.485742 0
M  V30 6932 C 703.755 1.83922 1.03614 0
M  V30 6933 O 703.103 1.28409 1.89007 0
M  V30 6934 C 703.313 3.33417 -1.03123 0
M  V30 6935 C 704.661 4.10333 -1.0914 0
M  V30 6936 O 705.685 3.4243 -0.98082 0
M  V30 6937 O 704.544 5.31737 -1.26165 0
M  V30 6938 H 701.638 0.812124 -0.156154 0
M  V30 6939 H 704.184 1.35713 -1.01882 0
M  V30 6940 H 702.956 3.31747 -2.07508 0
M  V30 6941 H 702.579 3.94695 -0.479767 0
M  V30 6942 N 703.576 0.692616 1.41565 0
M  V30 6943 C 704.822 0.231408 2.02079 0
M  V30 6944 C 705.177 -1.15514 1.53864 0
M  V30 6945 O 704.47 -1.76786 0.73873 0
M  V30 6946 C 704.664 0.225073 3.56691 0
M  V30 6947 C 704.493 1.60947 4.19912 0
M  V30 6948 C 703.263 2.2116 4.54331 0
M  V30 6949 C 705.461 2.55553 4.46315 0
M  V30 6950 N 703.443 3.52195 5.02824 0
M  V30 6951 C 704.814 3.71263 4.96552 0
M  V30 6952 C 706.869 2.53857 4.28323 0
M  V30 6953 C 705.572 4.85555 5.30687 0
M  V30 6954 C 707.598 3.67259 4.63546 0
M  V30 6955 C 706.96 4.81699 5.13951 0
M  V30 6956 H 703.059 0.130001 0.771119 0
M  V30 6957 H 705.643 0.909459 1.72154 0
M  V30 6958 H 703.814 -0.422453 3.86096 0
M  V30 6959 H 705.546 -0.250685 4.03923 0
M  V30 6960 H 702.301 1.73474 4.40685 0
M  V30 6961 H 702.725 4.19354 5.3148 0
M  V30 6962 H 707.367 1.66598 3.88594 0
M  V30 6963 H 705.085 5.73477 5.69341 0
M  V30 6964 H 708.671 3.67195 4.51286 0
M  V30 6965 H 707.551 5.67995 5.40695 0
M  V30 6966 N 705.054 -1.51416 0.437162 0
M  V30 6967 C 706.331 -1.94682 -0.189292 0
M  V30 6968 C 706.711 -1.37581 -1.60108 0
M  V30 6969 O 706.059 -0.562815 -2.2146 0
M  V30 6970 C 706.269 -3.48599 -0.167201 0
M  V30 6971 C 707.617 -4.2296 -0.372856 0
M  V30 6972 O 708.641 -3.55354 -0.245323 0
M  V30 6973 O 707.5 -5.42895 -0.626693 0
M  V30 6974 H 704.594 -0.816708 -0.130063 0
M  V30 6975 H 707.14 -1.62316 0.495128 0
M  V30 6976 H 705.912 -3.82616 0.81981 0
M  V30 6977 H 705.535 -3.87406 -0.894537 0
M  V30 6978 N 706.532 -0.168513 -1.56696 0
M  V30 6979 C 707.48 0.779791 -2.19139 0
M  V30 6980 C 708.474 1.23957 -1.1546 0
M  V30 6981 O 709.68 1.20555 -1.33666 0
M  V30 6982 H 706.055 0.269739 -0.701958 0
M  V30 6983 H 708.026 0.229156 -2.97519 0
M  V30 6984 C 706.775 2.00003 -2.84419 0
M  V30 6985 H 706.098 1.65527 -3.63924 0
M  V30 6986 H 707.538 2.64251 -3.31583 0
M  V30 6987 C 705.997 2.82187 -1.84044 0
M  V30 6988 O 706.527 3.79247 -1.32418 0
M  V30 6989 N 704.733 2.47145 -1.52864 0
M  V30 6990 H 704.28 1.68277 -1.9504 0
M  V30 6991 H 704.238 3.02422 -0.859569 0
M  V30 6992 N 708.01 1.57248 0.105221 0
M  V30 6993 C 709.426 1.52853 0.459153 0
M  V30 6994 C 709.626 0.883674 1.8109 0
M  V30 6995 O 708.682 0.471864 2.48052 0
M  V30 6996 C 709.995 2.97596 0.43096 0
M  V30 6997 C 711.543 3.08758 0.513536 0
M  V30 6998 C 712.018 4.55089 0.515593 0
M  V30 6999 N 713.509 4.59597 0.576639 0
M  V30 7000 C 714.244 5.70253 0.599904 0
M  V30 7001 N 713.74 6.90368 0.579985 0
M  V30 7002 N 715.533 5.58399 0.643953 0
M  V30 7003 H 707.684 1.97547 -0.780306 0
M  V30 7004 H 709.947 0.902758 -0.289363 0
M  V30 7005 H 709.653 3.48201 -0.494903 0
M  V30 7006 H 709.527 3.55756 1.2537 0
M  V30 7007 H 711.914 2.58148 1.42982 0
M  V30 7008 H 711.995 2.53568 -0.337148 0
M  V30 7009 H 711.639 5.06348 -0.396701 0
M  V30 7010 H 711.569 5.08105 1.38335 0
M  V30 7011 H 714.06 3.73144 0.597639 0
M  V30 7012 H 714.373 7.70462 0.600741 0
M  V30 7013 H 712.718 6.92843 0.547191 0
M  V30 7014 H 715.909 4.63467 0.656975 0
M  V30 7015 H 716.082 6.44644 0.658616 0
M  V30 7016 N 709.488 -0.375779 1.53054 0
M  V30 7017 C 710.713 -1.14484 1.7294 0
M  V30 7018 C 711.138 -1.82572 0.452668 0
M  V30 7019 O 710.496 -1.71343 -0.592567 0
M  V30 7020 C 710.544 -2.15857 2.88857 0
M  V30 7021 O 709.648 -3.22725 2.56753 0
M  V30 7022 H 708.989 -0.332666 0.574656 0
M  V30 7023 H 711.519 -0.436025 1.999 0
M  V30 7024 H 711.529 -2.59631 3.14731 0
M  V30 7025 H 710.204 -1.65689 3.81471 0
M  V30 7026 H 708.781 -2.83996 2.41663 0
M  V30 7027 N 710.966 -1.44241 -0.634997 0
M  V30 7028 C 712.196 -1.50078 -1.41987 0
M  V30 7029 C 712.604 -0.123072 -1.88799 0
M  V30 7030 O 711.947 0.880552 -1.6122 0
M  V30 7031 C 712.009 -2.40033 -2.67628 0
M  V30 7032 C 711.673 -3.87268 -2.42637 0
M  V30 7033 C 712.67 -4.77902 -2.04708 0
M  V30 7034 C 710.355 -4.31933 -2.56396 0
M  V30 7035 C 712.349 -6.11202 -1.80862 0
M  V30 7036 C 710.036 -5.65281 -2.32164 0
M  V30 7037 C 711.034 -6.54734 -1.94455 0
M  V30 7038 O 710.722 -7.85613 -1.7049 0
M  V30 7039 H 710.454 -0.51146 -0.442023 0
M  V30 7040 H 713.008 -1.89843 -0.784138 0
M  V30 7041 H 711.238 -1.95188 -3.33824 0
M  V30 7042 H 712.927 -2.36863 -3.29622 0
M  V30 7043 H 713.693 -4.44668 -1.93638 0
M  V30 7044 H 709.572 -3.62569 -2.84719 0
M  V30 7045 H 713.116 -6.80983 -1.51353 0
M  V30 7046 H 709.013 -5.98078 -2.42843 0
M  V30 7047 H 709.781 -7.97373 -1.84767 0
M  V30 7048 N 712.444 0.87505 -1.31075 0
M  V30 7049 C 713.691 1.62768 -1.20469 0
M  V30 7050 C 714.019 1.93034 0.23834 0
M  V30 7051 O 713.274 1.55693 1.18567 0
M  V30 7052 C 713.573 2.96948 -1.98888 0
M  V30 7053 C 713.239 2.86195 -3.4843 0
M  V30 7054 C 711.901 2.82969 -3.89207 0
M  V30 7055 C 714.253 2.73599 -4.43614 0
M  V30 7056 C 711.581 2.64999 -5.23443 0
M  V30 7057 C 713.933 2.57166 -5.77969 0
M  V30 7058 C 712.597 2.52321 -6.17973 0
M  V30 7059 H 711.867 0.595611 -0.440827 0
M  V30 7060 H 714.514 1.01665 -1.62285 0
M  V30 7061 H 712.819 3.62058 -1.49737 0
M  V30 7062 H 714.516 3.54164 -1.88067 0
M  V30 7063 H 711.106 2.8952 -3.16032 0
M  V30 7064 H 715.29 2.7515 -4.13045 0
M  V30 7065 H 710.546 2.5967 -5.53517 0
M  V30 7066 H 714.72 2.46396 -6.51354 0
M  V30 7067 H 712.347 2.38156 -7.21932 0
M  V30 7068 N 713.922 1.13953 1.08869 0
M  V30 7069 C 715.15 0.92817 1.84912 0
M  V30 7070 C 715.565 -0.523197 1.81406 0
M  V30 7071 O 714.922 -1.36237 1.21432 0
M  V30 7072 C 714.973 1.41509 3.32652 0
M  V30 7073 O 714.694 2.80959 3.36145 0
M  V30 7074 C 716.195 1.243 4.25517 0
M  V30 7075 H 713.415 0.330612 0.583898 0
M  V30 7076 H 715.959 1.51349 1.37527 0
M  V30 7077 H 714.114 0.872648 3.77444 0
M  V30 7078 H 714.528 3.02704 4.28335 0
M  V30 7079 H 716.002 1.63237 5.27312 0
M  V30 7080 H 716.479 0.18532 4.38809 0
M  V30 7081 H 717.085 1.77375 3.86546 0
M  V30 7082 N 715.4 -1.26948 0.933913 0
M  V30 7083 C 716.348 -2.2862 0.428463 0
M  V30 7084 C 717.342 -1.62144 -0.490464 0
M  V30 7085 O 718.548 -1.76167 -0.36948 0
M  V30 7086 H 714.923 -0.742363 0.120003 0
M  V30 7087 H 716.894 -2.68659 1.29865 0
M  V30 7088 C 715.643 -3.46423 -0.29774 0
M  V30 7089 H 714.966 -3.97792 0.400183 0
M  V30 7090 H 716.406 -4.19505 -0.615736 0
M  V30 7091 C 714.865 -3.01017 -1.51295 0
M  V30 7092 O 715.395 -3.05226 -2.61151 0
M  V30 7093 N 713.601 -2.56442 -1.36696 0
M  V30 7094 H 713.148 -2.53217 -0.473178 0
M  V30 7095 H 713.106 -2.26424 -2.18127 0
M  V30 7096 N 716.879 -0.700114 -1.41195 0
M  V30 7097 C 718.156 -0.160836 -1.94938 0
M  V30 7098 C 718.536 1.33014 -1.63922 0
M  V30 7099 O 717.884 2.07878 -0.948636 0
M  V30 7100 C 718.094 -0.456991 -3.45995 0
M  V30 7101 C 719.442 -0.387207 -4.22831 0
M  V30 7102 O 720.466 -0.392164 -3.54035 0
M  V30 7103 O 719.325 -0.351267 -5.4537 0
M  V30 7104 H 716.419 -0.0176304 -0.826812 0
M  V30 7105 H 718.965 -0.776586 -1.50888 0
M  V30 7106 H 717.737 -1.48884 -3.61869 0
M  V30 7107 H 717.36 0.189503 -3.97148 0
M  V30 7108 N 718.357 1.51182 -0.445186 0
M  V30 7109 C 719.605 2.01753 0.11841 0
M  V30 7110 C 719.926 1.33087 1.42523 0
M  V30 7111 O 719.196 0.467891 1.9023 0
M  V30 7112 H 717.776 0.745536 0.0467492 0
M  V30 7113 H 720.438 1.85765 -0.589688 0
M  V30 7114 H 719.534 3.10762 0.288665 0
M  V30 7115 N 719.835 0.176821 1.56605 0
M  V30 7116 C 721.065 -0.472142 2.01133 0
M  V30 7117 C 721.473 -1.56979 1.05614 0
M  V30 7118 O 720.816 -1.83632 0.0500137 0
M  V30 7119 C 720.878 -1.10547 3.42081 0
M  V30 7120 C 720.542 -0.148806 4.56758 0
M  V30 7121 C 721.539 0.634939 5.16008 0
M  V30 7122 C 719.224 -0.0430325 5.02282 0
M  V30 7123 C 721.218 1.5116 6.19217 0
M  V30 7124 C 718.905 0.83721 6.05338 0
M  V30 7125 C 719.903 1.61311 6.63677 0
M  V30 7126 O 719.591 2.47863 7.64735 0
M  V30 7127 H 719.323 -0.124725 0.664394 0
M  V30 7128 H 721.877 0.277329 2.03519 0
M  V30 7129 H 720.107 -1.90318 3.36625 0
M  V30 7130 H 721.796 -1.6572 3.70529 0
M  V30 7131 H 722.562 0.563424 4.81716 0
M  V30 7132 H 718.441 -0.636753 4.56581 0
M  V30 7133 H 721.985 2.11767 6.64681 0
M  V30 7134 H 717.882 0.909908 6.39055 0
M  V30 7135 H 718.65 2.4144 7.8208 0
M  V30 7136 N 721.313 -1.57302 -0.09688 0
M  V30 7137 C 722.223 -2.05258 -1.13606 0
M  V30 7138 C 723.239 -0.977137 -1.43972 0
M  V30 7139 O 724.415 -1.29018 -1.54649 0
M  V30 7140 C 721.48 -2.46593 -2.43706 0
M  V30 7141 C 720.541 -3.68322 -2.20538 0
M  V30 7142 C 719.774 -4.07676 -3.44435 0
M  V30 7143 O 719.997 -3.47141 -4.52603 0
M  V30 7144 O 718.931 -5.00641 -3.34129 0
M  V30 7145 H 722.757 -2.94069 -0.758752 0
M  V30 7146 H 720.342 -1.46164 -0.309263 0
M  V30 7147 H 722.224 -2.73814 -3.20318 0
M  V30 7148 H 720.899 -1.6092 -2.80867 0
M  V30 7149 H 719.806 -3.4622 -1.41713 0
M  V30 7150 H 721.139 -4.54769 -1.88271 0
M  V30 7151 N 722.791 0.367657 -1.53252 0
M  V30 7152 C 724.04 1.10782 -1.68554 0
M  V30 7153 C 724.353 1.90523 -0.442765 0
M  V30 7154 O 725.559 2.6729 -0.47629 0
M  V30 7155 C 724.015 2.01863 -2.97959 0
M  V30 7156 C 723.623 1.27443 -4.29491 0
M  V30 7157 C 725.367 2.75883 -3.22628 0
M  V30 7158 C 723.274 2.17414 -5.49987 0
M  V30 7159 H 722.204 0.417272 -0.628013 0
M  V30 7160 H 724.855 0.368971 -1.79752 0
M  V30 7161 H 723.237 2.7947 -2.80558 0
M  V30 7162 H 724.411 0.549138 -4.57516 0
M  V30 7163 H 722.726 0.652935 -4.11249 0
M  V30 7164 H 725.323 3.43421 -4.09837 0
M  V30 7165 H 725.666 3.41138 -2.38601 0
M  V30 7166 H 726.199 2.0536 -3.40693 0
M  V30 7167 H 722.938 1.5674 -6.36485 0
M  V30 7168 H 722.458 2.87799 -5.26243 0
M  V30 7169 H 724.137 2.77019 -5.84696 0
M  V30 7170 N 724.269 1.44576 0.627338 0
M  V30 7171 C 725.546 1.38033 1.38586 0
M  V30 7172 C 725.926 0.0409468 2.1106 0
M  V30 7173 O 725.274 -0.976582 2.0658 0
M  V30 7174 C 725.484 2.58102 2.34913 0
M  V30 7175 C 726.832 3.02332 2.98129 0
M  V30 7176 O 727.856 2.58334 2.45238 0
M  V30 7177 O 726.715 3.78628 3.94085 0
M  V30 7178 H 723.809 0.546801 0.620434 0
M  V30 7179 H 726.355 1.56672 0.652077 0
M  V30 7180 H 725.127 3.4719 1.80485 0
M  V30 7181 H 724.75 2.41696 3.15703 0
M  V30 7182 N 725.747 -0.868086 1.31537 0
M  V30 7183 C 727.158 -1.437 1.19195 0
M  V30 7184 C 727.509 -1.95169 -0.200842 0
M  V30 7185 O 726.634 -1.86432 -1.09872 0
M  V30 7186 C 727.229 -2.612 2.15778 0
M  V30 7187 C 725.788 -3.1413 2.07363 0
M  V30 7188 C 724.935 -1.86845 2.049 0
M  V30 7189 H 727.886 -0.676457 1.43561 0
M  V30 7190 H 727.907 -3.37948 1.74847 0
M  V30 7191 H 727.419 -2.23709 3.17137 0
M  V30 7192 H 725.52 -3.56238 1.09204 0
M  V30 7193 H 725.633 -3.76285 2.96557 0
M  V30 7194 H 723.997 -2.05886 1.49943 0
M  V30 7195 H 724.78 -1.51589 3.08019 0
M  V30 7196 N 727.225 -1.14528 -1.08264 0
M  V30 7197 C 728.135 -0.84728 -2.18765 0
M  V30 7198 C 729.151 0.172826 -1.7314 0
M  V30 7199 O 730.327 0.000985336 -2.014 0
M  V30 7200 C 727.392 -0.330633 -3.4512 0
M  V30 7201 C 726.453 -1.41348 -4.05363 0
M  V30 7202 C 725.686 -0.921387 -5.25686 0
M  V30 7203 O 725.909 0.236587 -5.69909 0
M  V30 7204 O 724.843 -1.70101 -5.77364 0
M  V30 7205 H 728.669 -1.7708 -2.46731 0
M  V30 7206 H 726.254 -0.923661 -1.17426 0
M  V30 7207 H 728.136 -0.0485053 -4.21372 0
M  V30 7208 H 726.811 0.565147 -3.18728 0
M  V30 7209 H 725.718 -1.74908 -3.30693 0
M  V30 7210 H 727.051 -2.28383 -4.36007 0
M  V30 7211 N 728.703 1.26451 -0.940633 0
M  V30 7212 C 729.928 1.98407 -0.60412 0
M  V30 7213 C 730.353 1.69584 0.81382 0
M  V30 7214 O 729.711 0.943553 1.54812 0
M  V30 7215 C 729.759 3.50387 -0.852136 0
M  V30 7216 O 728.863 4.1233 0.076013 0
M  V30 7217 H 728.204 0.622466 -0.231153 0
M  V30 7218 H 730.734 1.60932 -1.26342 0
M  V30 7219 H 730.744 4.00614 -0.772816 0
M  V30 7220 H 729.419 3.70696 -1.88566 0
M  V30 7221 H 727.996 3.7286 -0.0543187 0
M  V30 7222 N 730.181 0.707592 1.40822 0
M  V30 7223 C 731.113 0.0105968 2.29198 0
M  V30 7224 C 732.126 -0.732035 1.45414 0
M  V30 7225 O 733.315 -0.580741 1.68789 0
M  V30 7226 C 730.415 -1.00921 3.23525 0
M  V30 7227 C 729.588 -0.333747 4.36125 0
M  V30 7228 C 728.647 -1.25783 5.10945 0
M  V30 7229 O 727.673 -0.745646 5.64295 0
M  V30 7230 N 728.875 -2.58947 5.19545 0
M  V30 7231 H 731.64 0.76938 2.89656 0
M  V30 7232 H 729.201 0.554579 1.52105 0
M  V30 7233 H 731.193 -1.6294 3.70449 0
M  V30 7234 H 729.763 -1.66942 2.6429 0
M  V30 7235 H 728.983 0.466518 3.9143 0
M  V30 7236 H 730.271 0.135444 5.0862 0
M  V30 7237 H 729.669 -3.03065 4.7767 0
M  V30 7238 H 728.226 -3.16131 5.70004 0
M  V30 7239 N 731.66 -1.50943 0.453197 0
M  V30 7240 C 733.076 -1.59245 0.106342 0
M  V30 7241 C 733.276 -1.46287 -1.38572 0
M  V30 7242 O 732.332 -1.31219 -2.15726 0
M  V30 7243 C 733.645 -2.93797 0.640595 0
M  V30 7244 C 735.193 -3.07148 0.602435 0
M  V30 7245 C 735.668 -4.44247 1.11393 0
M  V30 7246 N 737.159 -4.50611 1.07258 0
M  V30 7247 C 737.894 -5.55049 1.43905 0
M  V30 7248 N 737.39 -6.66828 1.87914 0
M  V30 7249 N 739.183 -5.45494 1.35621 0
M  V30 7250 H 731.334 -1.5761 1.42382 0
M  V30 7251 H 733.597 -0.74384 0.587713 0
M  V30 7252 H 733.303 -3.087 1.68515 0
M  V30 7253 H 733.177 -3.77127 0.0742272 0
M  V30 7254 H 735.564 -2.91903 -0.433171 0
M  V30 7255 H 735.645 -2.25619 1.20539 0
M  V30 7256 H 735.289 -4.60239 2.14808 0
M  V30 7257 H 735.219 -5.2434 0.487353 0
M  V30 7258 H 737.71 -3.70391 0.749585 0
M  V30 7259 H 738.023 -7.42558 2.14072 0
M  V30 7260 H 736.368 -6.67995 1.91853 0
M  V30 7261 H 739.559 -4.57053 1.01093 0
M  V30 7262 H 739.732 -6.2677 1.64508 0
M  V30 7263 N 733.138 -0.185124 -1.56509 0
M  V30 7264 C 734.086 0.756505 -2.19954 0
M  V30 7265 C 735.08 1.22725 -1.16769 0
M  V30 7266 O 736.286 1.1913 -1.34937 0
M  V30 7267 H 732.661 0.262279 -0.704779 0
M  V30 7268 H 734.632 0.197587 -2.97745 0
M  V30 7269 C 733.381 1.96975 -2.86524 0
M  V30 7270 H 732.704 1.61658 -3.65659 0
M  V30 7271 H 734.144 2.60719 -3.34367 0
M  V30 7272 C 732.603 2.80219 -1.87027 0
M  V30 7273 O 733.133 3.77821 -1.36433 0
M  V30 7274 N 731.339 2.4551 -1.55477 0
M  V30 7275 H 730.886 1.66199 -1.96813 0
M  V30 7276 H 730.844 3.01493 -0.891597 0
M  V30 7277 N 734.616 1.57351 0.0885366 0
M  V30 7278 C 735.841 1.91011 0.80805 0
M  V30 7279 C 736.266 0.780009 1.71165 0
M  V30 7280 O 735.624 -0.268083 1.79307 0
M  V30 7281 C 735.672 3.23562 1.59185 0
M  V30 7282 O 734.776 3.11615 2.7013 0
M  V30 7283 H 734.117 0.625943 0.221565 0
M  V30 7284 H 736.647 2.04507 0.0617954 0
M  V30 7285 H 736.657 3.5703 1.97468 0
M  V30 7286 H 735.332 4.05398 0.928741 0
M  V30 7287 H 733.909 2.89673 2.34827 0
M  V30 7288 N 736.094 -0.359525 1.53444 0
M  V30 7289 C 737.041 -1.44073 1.8031 0
M  V30 7290 C 738.011 -1.52946 0.647811 0
M  V30 7291 O 739.196 -1.68739 0.890614 0
M  V30 7292 C 736.336 -2.80941 2.00416 0
M  V30 7293 C 735.449 -2.80986 3.28132 0
M  V30 7294 C 734.584 -4.09468 3.38393 0
M  V30 7295 C 733.623 -4.03679 4.60119 0
M  V30 7296 N 732.76 -5.23821 4.675 0
M  V30 7297 H 737.6 -1.20464 2.72566 0
M  V30 7298 H 735.137 -0.583859 1.35017 0
M  V30 7299 H 737.095 -3.60459 2.1006 0
M  V30 7300 H 735.725 -3.02936 1.11489 0
M  V30 7301 H 734.777 -1.93666 3.27411 0
M  V30 7302 H 736.089 -2.72583 4.17732 0
M  V30 7303 H 735.243 -4.97404 3.47382 0
M  V30 7304 H 733.982 -4.20632 2.4682 0
M  V30 7305 H 732.987 -3.14129 4.51224 0
M  V30 7306 H 734.212 -3.94112 5.5304 0
M  V30 7307 H 732.158 -5.35559 3.7883 0
M  V30 7308 H 732.075 -5.17611 5.51013 0
M  V30 7309 H 733.343 -6.13572 4.8078 0
M  V30 7310 N 737.572 -1.44907 -0.619662 0
M  V30 7311 C 738.802 -1.51575 -1.40387 0
M  V30 7312 C 739.21 -0.14309 -1.88658 0
M  V30 7313 O 738.553 0.863403 -1.62145 0
M  V30 7314 C 738.615 -2.42858 -2.65067 0
M  V30 7315 C 738.279 -3.8982 -2.38515 0
M  V30 7316 C 739.276 -4.80047 -1.99627 0
M  V30 7317 C 736.961 -4.34628 -2.51801 0
M  V30 7318 C 738.955 -6.13086 -1.74369 0
M  V30 7319 C 736.642 -5.67712 -2.26156 0
M  V30 7320 C 737.64 -6.56759 -1.875 0
M  V30 7321 O 737.328 -7.87377 -1.62148 0
M  V30 7322 H 737.06 -0.51612 -0.436573 0
M  V30 7323 H 739.614 -1.90664 -0.763959 0
M  V30 7324 H 737.844 -1.98717 -3.31735 0
M  V30 7325 H 739.533 -2.40346 -3.27091 0
M  V30 7326 H 740.299 -4.46697 -1.8891 0
M  V30 7327 H 736.178 -3.65568 -2.80857 0
M  V30 7328 H 739.722 -6.8255 -1.44122 0
M  V30 7329 H 735.619 -6.0062 -2.36486 0
M  V30 7330 H 736.387 -7.99288 -1.763 0
M  V30 7331 N 739.05 0.861098 -1.31996 0
M  V30 7332 C 740.278 1.6474 -1.25173 0
M  V30 7333 C 740.693 1.87926 0.181425 0
M  V30 7334 O 740.05 1.4437 1.1164 0
M  V30 7335 C 740.101 3.01036 -2.0015 0
M  V30 7336 O 739.822 2.7888 -3.37872 0
M  V30 7337 C 741.323 3.95481 -2.00273 0
M  V30 7338 H 738.543 0.513314 -0.432146 0
M  V30 7339 H 741.087 1.07419 -1.74016 0
M  V30 7340 H 739.242 3.55021 -1.55046 0
M  V30 7341 H 739.656 3.65514 -3.76165 0
M  V30 7342 H 741.13 4.88403 -2.57229 0
M  V30 7343 H 741.607 4.27957 -0.987407 0
M  V30 7344 H 742.213 3.47433 -2.45296 0
M  V30 7345 N 740.528 1.15101 1.07655 0
M  V30 7346 C 741.458 0.867864 2.16773 0
M  V30 7347 C 742.439 -0.180283 1.69142 0
M  V30 7348 O 743.624 -0.0353152 1.94168 0
M  V30 7349 C 740.754 0.35299 3.45501 0
M  V30 7350 C 739.708 1.33746 4.06566 0
M  V30 7351 C 739.034 0.681562 5.30338 0
M  V30 7352 C 740.334 2.7024 4.46954 0
M  V30 7353 H 742.028 1.78034 2.40716 0
M  V30 7354 H 739.574 0.857435 1.15689 0
M  V30 7355 H 741.527 0.142465 4.21159 0
M  V30 7356 H 740.251 -0.594945 3.21135 0
M  V30 7357 H 738.91 1.53429 3.32949 0
M  V30 7358 H 738.558 -0.272422 5.02262 0
M  V30 7359 H 738.258 1.33853 5.72151 0
M  V30 7360 H 739.782 0.48074 6.08705 0
M  V30 7361 H 741.196 2.5442 5.13754 0
M  V30 7362 H 739.593 3.32282 4.99709 0
M  V30 7363 H 740.663 3.26537 3.58471 0
M  V30 7364 N 742.006 -1.2595 0.947325 0
M  V30 7365 C 742.954 -2.28152 0.452687 0
M  V30 7366 C 743.948 -1.62655 -0.473239 0
M  V30 7367 O 745.154 -1.76549 -0.350774 0
M  V30 7368 H 741.529 -0.741049 0.12787 0
M  V30 7369 H 743.5 -2.67267 1.32707 0
M  V30 7370 C 742.249 -3.46719 -0.26098 0
M  V30 7371 H 741.572 -3.97345 0.442352 0
M  V30 7372 H 743.012 -4.20135 -0.571208 0
M  V30 7373 C 741.471 -3.02605 -1.48094 0
M  V30 7374 O 742.001 -3.07979 -2.57899 0
M  V30 7375 N 740.207 -2.57877 -1.33969 0
M  V30 7376 H 739.754 -2.53704 -0.446295 0
M  V30 7377 H 739.712 -2.28725 -2.15713 0
M  V30 7378 N 743.484 -0.715051 -1.40445 0
M  V30 7379 C 744.9 -0.388555 -1.54798 0
M  V30 7380 C 745.1 1.10271 -1.68649 0
M  V30 7381 O 744.156 1.88875 -1.67578 0
M  V30 7382 C 745.469 -1.15414 -2.77669 0
M  V30 7383 C 747.017 -1.14039 -2.91486 0
M  V30 7384 C 747.492 -1.88812 -4.1727 0
M  V30 7385 N 748.983 -1.85878 -4.24268 0
M  V30 7386 C 749.718 -2.40558 -5.20499 0
M  V30 7387 N 749.214 -3.03791 -6.22642 0
M  V30 7388 N 751.007 -2.30703 -5.12574 0
M  V30 7389 H 743.158 -1.68201 -1.297 0
M  V30 7390 H 745.421 -0.710915 -0.627139 0
M  V30 7391 H 745.127 -2.20853 -2.7371 0
M  V30 7392 H 745.001 -0.745412 -3.69761 0
M  V30 7393 H 747.388 -0.0941996 -2.9495 0
M  V30 7394 H 747.469 -1.58834 -2.00513 0
M  V30 7395 H 747.113 -2.93422 -4.14568 0
M  V30 7396 H 747.043 -1.41438 -5.0725 0
M  V30 7397 H 749.534 -1.39794 -3.51093 0
M  V30 7398 H 749.847 -3.43032 -6.92495 0
M  V30 7399 H 748.192 -3.07875 -6.23087 0
M  V30 7400 H 751.383 -1.80961 -4.31707 0
M  V30 7401 H 751.556 -2.73618 -5.87398 0
M  V30 7402 N 744.962 1.50701 -0.461195 0
M  V30 7403 C 746.373 1.867 -0.00370227 0
M  V30 7404 C 746.724 1.37673 1.39787 0
M  V30 7405 O 745.849 0.737515 2.03445 0
M  V30 7406 C 746.444 3.388 5.75786e-05 0
M  V30 7407 C 745.003 3.74247 0.402044 0
M  V30 7408 C 744.15 2.74549 -0.389652 0
M  V30 7409 H 747.101 1.43585 -0.675942 0
M  V30 7410 H 747.122 3.719 0.804414 0
M  V30 7411 H 746.634 3.74452 -1.02015 0
M  V30 7412 H 744.735 3.44192 1.42697 0
M  V30 7413 H 744.848 4.78973 0.110265 0
M  V30 7414 H 743.212 2.54226 0.155314 0
M  V30 7415 H 743.995 3.13044 -1.40919 0
M  V30 7416 N 746.441 0.193421 1.56409 0
M  V30 7417 C 747.351 -0.740112 2.2262 0
M  V30 7418 C 748.367 -1.23597 1.22474 0
M  V30 7419 O 749.543 -1.28348 1.55206 0
M  V30 7420 C 746.608 -1.94317 2.87127 0
M  V30 7421 C 745.669 -1.49205 4.02538 0
M  V30 7422 C 744.902 -2.63776 4.63959 0
M  V30 7423 O 745.125 -3.81215 4.24301 0
M  V30 7424 O 744.059 -2.36585 5.53454 0
M  V30 7425 H 747.885 -0.206238 3.02999 0
M  V30 7426 H 745.47 -0.0357938 1.49357 0
M  V30 7427 H 747.352 -2.64633 3.27944 0
M  V30 7428 H 746.027 -2.46568 2.09728 0
M  V30 7429 H 744.934 -0.757738 3.66346 0
M  V30 7430 H 746.267 -1.01622 4.81595 0
M  V30 7431 N 747.919 -1.57396 -0.0801906 0
M  V30 7432 C 748.849 -2.06145 -1.09665 0
M  V30 7433 C 749.83 -0.953273 -1.40878 0
M  V30 7434 O 751.015 -1.22548 -1.50651 0
M  V30 7435 C 748.145 -2.49836 -2.41245 0
M  V30 7436 C 747.099 -3.64454 -2.24405 0
M  V30 7437 C 746.425 -3.94172 -3.61293 0
M  V30 7438 C 747.725 -4.94807 -1.67223 0
M  V30 7439 H 749.419 -2.91316 -0.691028 0
M  V30 7440 H 746.965 -1.40145 -0.330957 0
M  V30 7441 H 748.918 -2.82552 -3.12638 0
M  V30 7442 H 747.642 -1.61683 -2.83771 0
M  V30 7443 H 746.301 -3.32008 -1.55454 0
M  V30 7444 H 745.949 -3.03163 -4.01374 0
M  V30 7445 H 745.649 -4.71345 -3.50867 0
M  V30 7446 H 747.173 -4.29376 -4.3413 0
M  V30 7447 H 748.587 -5.25807 -2.28472 0
M  V30 7448 H 746.984 -5.76245 -1.67515 0
M  V30 7449 H 748.054 -4.80751 -0.632944 0
M  V30 7450 N 749.397 0.351382 -1.53633 0
M  V30 7451 C 750.646 1.08988 -1.69719 0
M  V30 7452 C 750.959 1.90043 -0.462948 0
M  V30 7453 O 752.165 2.66769 -0.504613 0
M  V30 7454 C 750.621 1.98691 -3.00083 0
M  V30 7455 C 750.229 1.22881 -4.30818 0
M  V30 7456 C 751.973 2.72446 -3.25536 0
M  V30 7457 C 749.88 2.11568 -5.52262 0
M  V30 7458 H 748.81 0.410588 -0.632403 0
M  V30 7459 H 751.461 0.349886 -1.80133 0
M  V30 7460 H 749.843 2.76478 -2.83506 0
M  V30 7461 H 751.017 0.500582 -4.58073 0
M  V30 7462 H 749.332 0.60928 -4.11918 0
M  V30 7463 H 751.929 3.39055 -4.13456 0
M  V30 7464 H 752.272 3.38588 -2.42206 0
M  V30 7465 H 752.805 2.01735 -3.42852 0
M  V30 7466 H 749.544 1.4998 -6.38111 0
M  V30 7467 H 749.064 2.82201 -5.29266 0
M  V30 7468 H 750.743 2.70802 -5.87601 0
M  V30 7469 N 750.875 1.45233 0.611969 0
M  V30 7470 C 752.123 1.48727 1.36838 0
M  V30 7471 C 752.444 0.128616 1.94575 0
M  V30 7472 O 751.714 -0.84149 1.76906 0
M  V30 7473 H 750.294 0.547695 0.507976 0
M  V30 7474 H 752.956 1.81156 0.718925 0
M  V30 7475 H 752.052 2.2236 2.19003 0
M  V30 7476 N 752.353 -0.854086 1.3245 0
M  V30 7477 C 753.301 -1.98411 1.21391 0
M  V30 7478 C 754.295 -1.68984 0.118586 0
M  V30 7479 O 755.501 -1.77784 0.281549 0
M  V30 7480 H 751.876 -0.651077 0.376301 0
M  V30 7481 H 753.847 -2.04867 2.16961 0
M  V30 7482 C 752.596 -3.34345 0.954407 0
M  V30 7483 H 751.919 -3.57518 1.78944 0
M  V30 7484 H 753.359 -4.13959 0.917269 0
M  V30 7485 C 751.818 -3.35151 -0.342838 0
M  V30 7486 O 752.348 -3.78174 -1.35452 0
M  V30 7487 N 750.554 -2.88298 -0.365012 0
M  V30 7488 H 750.101 -2.53481 0.4588 0
M  V30 7489 H 750.059 -2.8922 -1.23284 0
M  V30 7490 N 753.831 -1.1567 -1.07043 0
M  V30 7491 C 754.741 -0.870435 -2.17855 0
M  V30 7492 C 755.757 0.154452 -1.73313 0
M  V30 7493 O 756.933 -0.0203759 -2.0139 0
M  V30 7494 C 753.998 -0.367219 -3.4475 0
M  V30 7495 C 753.059 -1.45639 -4.03841 0
M  V30 7496 C 752.292 -0.977092 -5.2468 0
M  V30 7497 O 752.515 0.176127 -5.70128 0
M  V30 7498 O 751.449 -1.76215 -5.75527 0
M  V30 7499 H 755.275 -1.79687 -2.44839 0
M  V30 7500 H 752.86 -0.936064 -1.1644 0
M  V30 7501 H 754.742 -0.0931947 -4.21297 0
M  V30 7502 H 753.417 0.53131 -3.1931 0
M  V30 7503 H 752.324 -1.78406 -3.28819 0
M  V30 7504 H 753.657 -2.32995 -4.3356 0
M  V30 7505 N 755.309 1.25446 -0.953992 0
M  V30 7506 C 756.537 1.97215 -0.625595 0
M  V30 7507 C 756.952 1.70911 0.802168 0
M  V30 7508 O 756.309 0.984782 1.5365 0
M  V30 7509 C 756.36 3.50777 -0.873943 0
M  V30 7510 O 756.081 3.76173 -2.24556 0
M  V30 7511 C 757.582 4.39776 -0.557845 0
M  V30 7512 H 754.802 0.628652 -0.2346 0
M  V30 7513 H 757.346 1.59632 -1.27819 0
M  V30 7514 H 755.501 3.86474 -0.267765 0
M  V30 7515 H 755.915 4.70636 -2.31522 0
M  V30 7516 H 757.389 5.46431 -0.782157 0
M  V30 7517 H 757.866 4.36257 0.507573 0
M  V30 7518 H 758.472 4.09644 -1.14332 0
M  V30 7519 N 756.787 0.722489 1.40064 0
M  V30 7520 C 758.203 0.396758 1.5459 0
M  V30 7521 C 758.403 -1.09375 1.69232 0
M  V30 7522 O 757.459 -1.87984 1.68578 0
M  V30 7523 C 758.772 1.16885 2.77053 0
M  V30 7524 C 760.32 1.15583 2.90877 0
M  V30 7525 C 760.795 1.91023 4.16262 0
M  V30 7526 N 762.286 1.88126 4.23276 0
M  V30 7527 C 763.021 2.43315 5.19216 0
M  V30 7528 N 762.517 3.07089 6.21022 0
M  V30 7529 N 764.31 2.33418 5.11344 0
M  V30 7530 H 756.461 1.68887 1.28806 0
M  V30 7531 H 758.724 0.714231 0.62336 0
M  V30 7532 H 758.43 2.22301 2.72534 0
M  V30 7533 H 758.304 0.765011 3.69361 0
M  V30 7534 H 760.691 0.10984 2.94896 0
M  V30 7535 H 760.772 1.59895 1.99668 0
M  V30 7536 H 760.416 2.95616 4.13006 0
M  V30 7537 H 760.346 1.44126 5.06493 0
M  V30 7538 H 762.837 1.41654 3.50346 0
M  V30 7539 H 763.15 3.467 6.90666 0
M  V30 7540 H 761.495 3.11175 6.21446 0
M  V30 7541 H 764.686 1.83248 4.30741 0
M  V30 7542 H 764.859 2.7673 5.85939 0
M  V30 7543 N 758.265 -1.50454 0.469181 0
M  V30 7544 C 759.676 -1.86695 0.0136034 0
M  V30 7545 C 760.027 -1.38413 -1.39055 0
M  V30 7546 O 759.152 -0.748294 -2.03051 0
M  V30 7547 C 759.747 -3.38795 0.0179098 0
M  V30 7548 C 758.306 -3.74455 -0.382191 0
M  V30 7549 C 757.453 -2.74338 0.404207 0
M  V30 7550 H 760.404 -1.43225 0.683547 0
M  V30 7551 H 760.425 -3.72321 -0.78468 0
M  V30 7552 H 759.937 -3.73906 1.04 0
M  V30 7553 H 758.038 -3.44944 -1.4087 0
M  V30 7554 H 758.151 -4.79025 -0.084862 0
M  V30 7555 H 756.515 -2.54305 -0.141829 0
M  V30 7556 H 757.298 -3.12293 1.42577 0
M  V30 7557 N 759.743 -0.201713 -1.56304 0
M  V30 7558 C 760.989 0.429292 -1.98818 0
M  V30 7559 C 761.344 1.58779 -1.08659 0
M  V30 7560 O 760.637 1.91142 -0.132365 0
M  V30 7561 C 760.831 0.931432 -3.45049 0
M  V30 7562 C 760.66 -0.176878 -4.49352 0
M  V30 7563 C 759.43 -0.636712 -5.01272 0
M  V30 7564 C 761.628 -0.988177 -5.04717 0
M  V30 7565 N 759.61 -1.72215 -5.8925 0
M  V30 7566 C 760.981 -1.92288 -5.89428 0
M  V30 7567 C 763.036 -1.02985 -4.87133 0
M  V30 7568 C 761.739 -2.89582 -6.58434 0
M  V30 7569 C 763.765 -1.99087 -5.56883 0
M  V30 7570 C 763.127 -2.913 -6.41345 0
M  V30 7571 H 759.226 0.124322 -0.772054 0
M  V30 7572 H 761.81 -0.308929 -1.92234 0
M  V30 7573 H 759.981 1.63907 -3.52121 0
M  V30 7574 H 761.713 1.5336 -3.74517 0
M  V30 7575 H 758.468 -0.228861 -4.73047 0
M  V30 7576 H 758.892 -2.26627 -6.37941 0
M  V30 7577 H 763.534 -0.330894 -4.21503 0
M  V30 7578 H 761.252 -3.6045 -7.23258 0
M  V30 7579 H 764.838 -2.0296 -5.45251 0
M  V30 7580 H 763.718 -3.6445 -6.94367 0
M  V30 7581 N 761.222 1.57436 0.0718424 0
M  V30 7582 C 762.17 2.04725 1.10411 0
M  V30 7583 C 763.164 0.952579 1.4008 0
M  V30 7584 O 764.37 1.13769 1.39487 0
M  V30 7585 H 760.745 0.652749 0.373393 0
M  V30 7586 H 762.716 2.90569 0.679126 0
M  V30 7587 C 761.465 2.5068 2.40946 0
M  V30 7588 H 760.788 3.34505 2.18967 0
M  V30 7589 H 762.228 2.87521 3.11621 0
M  V30 7590 C 760.687 1.38971 3.06902 0
M  V30 7591 O 761.217 0.731786 3.94978 0
M  V30 7592 N 759.423 1.13485 2.67525 0
M  V30 7593 H 758.97 1.67168 1.95991 0
M  V30 7594 H 758.928 0.389467 3.11978 0
M  V30 7595 N 762.7 -0.34323 1.53817 0
M  V30 7596 C 763.949 -1.08086 1.70295 0
M  V30 7597 C 764.262 -1.89794 0.47302 0
M  V30 7598 O 765.468 -2.66498 0.518754 0
M  V30 7599 C 763.924 -1.97097 3.01133 0
M  V30 7600 C 763.532 -1.20594 4.31464 0
M  V30 7601 C 765.276 -2.70715 3.26976 0
M  V30 7602 C 763.183 -2.08636 5.53376 0
M  V30 7603 H 762.113 -0.407228 0.634572 0
M  V30 7604 H 764.764 -0.340328 1.80316 0
M  V30 7605 H 763.146 -2.74971 2.84969 0
M  V30 7606 H 764.32 -0.476282 4.58332 0
M  V30 7607 H 762.635 -0.587426 4.12236 0
M  V30 7608 H 765.232 -3.36857 4.15248 0
M  V30 7609 H 765.575 -3.37299 2.43998 0
M  V30 7610 H 766.108 -1.99914 3.43917 0
M  V30 7611 H 762.847 -1.46594 6.38898 0
M  V30 7612 H 762.367 -2.7939 5.30755 0
M  V30 7613 H 764.046 -2.67682 5.89029 0
M  V30 7614 N 764.178 -1.45556 -0.604258 0
M  V30 7615 C 765.403 -1.53509 -1.39462 0
M  V30 7616 C 765.828 -0.169638 -1.87333 0
M  V30 7617 O 765.186 0.846346 -1.60333 0
M  V30 7618 C 765.234 -2.52654 -2.5729 0
M  V30 7619 O 764.338 -2.04666 -3.5803 0
M  V30 7620 H 763.679 -0.517355 -0.416221 0
M  V30 7621 H 766.209 -1.90939 -0.735072 0
M  V30 7622 H 766.219 -2.71568 -3.04491 0
M  V30 7623 H 764.894 -3.51823 -2.21797 0
M  V30 7624 H 763.471 -1.95643 -3.17456 0
M  V30 7625 N 765.656 0.84705 -1.32902 0
M  V30 7626 C 766.586 1.97166 -1.25091 0
M  V30 7627 C 767.567 1.69578 -0.133161 0
M  V30 7628 O 768.752 1.91519 -0.321591 0
M  V30 7629 C 765.882 3.33157 -0.981006 0
M  V30 7630 C 764.836 3.75119 -2.06082 0
M  V30 7631 C 764.162 5.08826 -1.64318 0
M  V30 7632 C 765.462 3.89774 -3.47669 0
M  V30 7633 H 767.156 2.03958 -2.19184 0
M  V30 7634 H 764.702 0.979907 -1.05517 0
M  V30 7635 H 766.655 4.11393 -0.912891 0
M  V30 7636 H 765.379 3.266 -0.00445559 0
M  V30 7637 H 764.038 2.9914 -2.11921 0
M  V30 7638 H 763.686 4.98732 -0.653876 0
M  V30 7639 H 763.386 5.37873 -2.36572 0
M  V30 7640 H 764.91 5.89546 -1.58958 0
M  V30 7641 H 766.324 4.58343 -3.44376 0
M  V30 7642 H 764.721 4.30248 -4.18338 0
M  V30 7643 H 765.791 2.92463 -3.86773 0
M  V30 7644 N 767.134 1.16236 1.06428 0
M  V30 7645 C 768.082 0.863669 2.15971 0
M  V30 7646 C 769.076 -0.166723 1.68578 0
M  V30 7647 O 770.282 -0.0208425 1.79988 0
M  V30 7648 H 766.657 0.261684 0.705 0
M  V30 7649 H 768.628 1.79498 2.38376 0
M  V30 7650 C 767.377 0.379697 3.45621 0
M  V30 7651 H 766.7 1.16399 3.82481 0
M  V30 7652 H 768.14 0.209458 4.23482 0
M  V30 7653 C 766.599 -0.900499 3.24642 0
M  V30 7654 O 767.129 -1.97004 3.50074 0
M  V30 7655 N 765.335 -0.843721 2.78082 0
M  V30 7656 H 764.882 0.0268429 2.57586 0
M  V30 7657 H 764.84 -1.70078 2.64425 0
M  V30 7658 N 768.612 -1.24939 0.960631 0
M  V30 7659 C 769.842 -1.96595 0.635123 0
M  V30 7660 C 770.25 -1.71538 -0.798206 0
M  V30 7661 O 769.593 -0.991727 -1.5463 0
M  V30 7662 C 769.655 -3.49994 0.821248 0
M  V30 7663 C 769.319 -3.98738 2.23287 0
M  V30 7664 C 770.316 -4.08965 3.21004 0
M  V30 7665 C 768.001 -4.32247 2.55867 0
M  V30 7666 C 769.995 -4.52025 4.49391 0
M  V30 7667 C 767.682 -4.74991 3.84482 0
M  V30 7668 C 768.68 -4.84844 4.81056 0
M  V30 7669 O 768.368 -5.26638 6.07378 0
M  V30 7670 H 768.1 -0.633265 0.23654 0
M  V30 7671 H 770.654 -1.5991 1.28911 0
M  V30 7672 H 768.884 -3.86543 0.110105 0
M  V30 7673 H 770.573 -4.02859 0.495892 0
M  V30 7674 H 771.339 -3.83302 2.97161 0
M  V30 7675 H 767.218 -4.23801 1.81421 0
M  V30 7676 H 770.762 -4.5963 5.24773 0
M  V30 7677 H 766.659 -5.00101 4.08129 0
M  V30 7678 H 767.427 -5.44807 6.10842 0
M  V30 7679 N 770.09 -0.729906 -1.39679 0
M  V30 7680 C 771.339 -0.272534 -1.9985 0
M  V30 7681 C 771.652 1.14519 -1.58571 0
M  V30 7682 O 772.858 1.70182 -2.11543 0
M  V30 7683 C 771.314 -0.436322 -3.57245 0
M  V30 7684 C 770.922 -1.86161 -4.0749 0
M  V30 7685 C 772.666 -0.0404679 -4.24481 0
M  V30 7686 C 770.573 -1.97522 -5.5744 0
M  V30 7687 H 769.503 -0.0981428 -0.747585 0
M  V30 7688 H 772.154 -0.903056 -1.59741 0
M  V30 7689 H 770.536 0.263015 -3.95126 0
M  V30 7690 H 771.71 -2.59248 -3.80955 0
M  V30 7691 H 770.025 -2.21021 -3.529 0
M  V30 7692 H 772.622 -0.104437 -5.34598 0
M  V30 7693 H 772.965 1.00357 -4.04023 0
M  V30 7694 H 773.498 -0.690774 -3.91757 0
M  V30 7695 H 770.237 -3.00096 -5.82771 0
M  V30 7696 H 769.757 -1.28864 -5.85794 0
M  V30 7697 H 771.436 -1.754 -6.22771 0
M  V30 7698 N 771.568 1.50203 -0.477153 0
M  V30 7699 C 772.817 2.01551 0.0774548 0
M  V30 7700 C 773.13 1.36359 1.40234 0
M  V30 7701 O 774.336 1.78898 2.04225 0
M  V30 7702 C 772.792 3.59406 0.188539 0
M  V30 7703 C 772.4 4.3356 -1.12828 0
M  V30 7704 C 774.144 4.18776 0.694782 0
M  V30 7705 C 772.051 5.83213 -0.98066 0
M  V30 7706 H 770.981 0.75329 0.0327212 0
M  V30 7707 H 773.632 1.72959 -0.612969 0
M  V30 7708 H 772.014 3.84611 0.942881 0
M  V30 7709 H 773.188 4.20074 -1.89405 0
M  V30 7710 H 771.503 3.85827 -1.5661 0
M  V30 7711 H 774.1 5.28338 0.822356 0
M  V30 7712 H 774.443 3.80557 1.68766 0
M  V30 7713 H 774.976 3.978 -0.00234519 0
M  V30 7714 H 771.715 6.25914 -1.94709 0
M  V30 7715 H 771.235 5.99256 -0.255375 0
M  V30 7716 H 772.914 6.4373 -0.649717 0
M  V30 7717 N 773.046 0.209999 1.56195 0
M  V30 7718 C 773.993 -0.704854 2.19774 0
M  V30 7719 C 774.963 -1.19886 1.14964 0
M  V30 7720 O 776.148 -1.26005 1.43274 0
M  V30 7721 C 773.288 -1.91241 2.87265 0
M  V30 7722 C 772.401 -1.45838 4.06639 0
M  V30 7723 C 771.536 -2.6226 4.61945 0
M  V30 7724 C 770.575 -2.13537 5.73645 0
M  V30 7725 N 769.712 -3.2319 6.23292 0
M  V30 7726 H 774.552 -0.155944 2.97592 0
M  V30 7727 H 772.089 -0.0652235 1.46955 0
M  V30 7728 H 774.047 -2.62123 3.24573 0
M  V30 7729 H 772.677 -2.43439 2.11985 0
M  V30 7730 H 771.729 -0.644897 3.74894 0
M  V30 7731 H 773.041 -1.06103 4.87384 0
M  V30 7732 H 772.195 -3.41243 5.01636 0
M  V30 7733 H 770.934 -3.05278 3.80338 0
M  V30 7734 H 769.939 -1.33013 5.33468 0
M  V30 7735 H 771.164 -1.71533 6.57079 0
M  V30 7736 H 769.11 -3.65711 5.44602 0
M  V30 7737 H 769.027 -2.8767 6.99129 0
M  V30 7738 H 770.295 -4.02342 6.67639 0
M  V30 7739 N 774.524 -1.57472 -0.0634922 0
M  V30 7740 C 775.77 -1.87932 -0.762194 0
M  V30 7741 C 776.103 -0.803377 -1.76804 0
M  V30 7742 O 775.378 0.185468 -1.93614 0
M  V30 7743 C 775.661 -3.29053 -1.46275 0
M  V30 7744 C 775.514 -4.47309 -0.472755 0
M  V30 7745 C 776.833 -3.68537 -2.40558 0
M  V30 7746 H 773.952 -0.683521 -0.275624 0
M  V30 7747 H 776.594 -1.89983 -0.0252651 0
M  V30 7748 H 774.744 -3.27435 -2.0909 0
M  V30 7749 H 776.416 -4.61053 0.150828 0
M  V30 7750 H 774.659 -4.33286 0.211187 0
M  V30 7751 H 775.33 -5.42853 -1.00072 0
M  V30 7752 H 777.806 -3.71302 -1.87814 0
M  V30 7753 H 776.682 -4.68152 -2.86574 0
M  V30 7754 H 776.943 -2.98917 -3.25731 0
M  V30 7755 N 776.003 0.335068 -1.53997 0
M  V30 7756 C 776.95 1.41187 -1.82579 0
M  V30 7757 C 777.92 1.51897 -0.672061 0
M  V30 7758 O 779.105 1.673 -0.917346 0
M  V30 7759 C 776.245 2.77717 -2.0486 0
M  V30 7760 C 775.358 2.7573 -3.32561 0
M  V30 7761 C 774.493 4.04032 -3.44864 0
M  V30 7762 C 773.532 3.96308 -4.66483 0
M  V30 7763 N 772.669 5.16317 -4.75774 0
M  V30 7764 H 777.509 1.16113 -2.74448 0
M  V30 7765 H 775.046 0.562305 -1.35928 0
M  V30 7766 H 777.004 3.57071 -2.15768 0
M  V30 7767 H 775.634 3.01124 -1.16294 0
M  V30 7768 H 774.686 1.88432 -3.3045 0
M  V30 7769 H 775.998 2.65902 -4.22016 0
M  V30 7770 H 775.152 4.91814 -3.55251 0
M  V30 7771 H 773.891 4.16652 -2.53481 0
M  V30 7772 H 772.896 3.06911 -4.56164 0
M  V30 7773 H 774.121 3.85263 -5.5924 0
M  V30 7774 H 772.067 5.29464 -3.87303 0
M  V30 7775 H 771.984 5.08779 -5.59178 0
M  V30 7776 H 773.252 6.05846 -4.9048 0
M  V30 7777 N 777.481 1.45874 0.596531 0
M  V30 7778 C 778.391 1.57947 1.73464 0
M  V30 7779 C 779.407 0.463461 1.67714 0
M  V30 7780 O 780.583 0.725685 1.87872 0
M  V30 7781 C 777.648 1.55348 3.09948 0
M  V30 7782 C 776.709 2.78074 3.27068 0
M  V30 7783 C 775.942 2.75589 4.57041 0
M  V30 7784 O 776.165 1.83545 5.40063 0
M  V30 7785 O 775.099 3.66945 4.77111 0
M  V30 7786 H 778.925 2.54169 1.66228 0
M  V30 7787 H 776.51 1.2851 0.76194 0
M  V30 7788 H 778.392 1.56545 3.91244 0
M  V30 7789 H 777.067 0.622811 3.17652 0
M  V30 7790 H 775.974 2.82435 2.45319 0
M  V30 7791 H 777.307 3.70303 3.24248 0
M  V30 7792 O 778.998 -0.740596 1.43518 0
M  V30 7793 H 779.689 -1.39004 1.34898 0
M  V30 END ATOM
M  V30 BEGIN BOND
M  V30 END BOND
M  V30 END CTAB
M  END
$$$$
