drugbank_target|O14594 Neurocan core protein (DB02379; DB04396; DB08818)
 OpenBabel12092120543D

  0  0  0     0  0            999 V3000
M  V30 BEGIN CTAB
M  V30 COUNTS 19609 19900 0 0 0
M  V30 BEGIN ATOM
M  V30 1 H -0.908 1.98254 -0.117106 0
M  V30 2 N 0 1.576 0 0
M  V30 3 C 0.933 2.03868 1.02534 0
M  V30 4 C 1.911 0.928543 1.3348 0
M  V30 5 O 3.095 1.19667 1.45644 0
M  V30 6 C 0.222 2.43627 2.35294 0
M  V30 7 C -0.732 3.65373 2.2001 0
M  V30 8 S 0.101 5.13292 1.52614 0
M  V30 9 C 1.257 5.56322 2.86805 0
M  V30 10 H 1.49 2.90518 0.631377 0
M  V30 11 H -0.977 1.52953 0.210867 0
M  V30 12 H 0.981 2.67203 3.11629 0
M  V30 13 H -0.358 1.57376 2.7183 0
M  V30 14 H -1.165 3.90944 3.18086 0
M  V30 15 H -1.563 3.418 1.51819 0
M  V30 16 H 0.729 5.58782 3.83104 0
M  V30 17 H 1.672 6.56266 2.65933 0
M  V30 18 H 2.08 4.83886 2.90714 0
M  V30 19 N 1.4781 -0.272755 1.55222 0
M  V30 20 C 2.7261 -1.00234 1.75492 0
M  V30 21 C 3.0471 -1.8681 0.5592 0
M  V30 22 O 2.3171 -1.91215 -0.425882 0
M  V30 23 H 0.8971 -0.373076 0.647166 0
M  V30 24 H 3.5591 -0.296926 1.92625 0
M  V30 25 H 2.6551 -1.63913 2.65592 0
M  V30 26 N 2.9562 -1.48159 -0.537278 0
M  V30 27 C 3.9192 -1.61665 -1.62472 0
M  V30 28 C 4.9192 -0.490395 -1.5314 0
M  V30 29 O 6.1092 -0.755998 -1.5694 0
M  V30 30 C 3.2412 -1.57997 -3.02076 0
M  V30 31 H 4.4342 -2.58621 -1.51839 0
M  V30 32 H 1.9872 -1.36647 -0.758771 0
M  V30 33 H 2.7222 -0.624913 -3.18222 0
M  V30 34 H 2.5072 -2.39755 -3.10258 0
M  V30 35 H 3.9972 -1.70627 -3.81151 0
M  V30 36 N 4.4343 0.785586 -1.36625 0
M  V30 37 C 5.8453 1.36101 -1.27803 0
M  V30 38 C 6.1963 1.96035 0.0804875 0
M  V30 39 O 5.3213 1.92834 0.982042 0
M  V30 40 C 5.9163 2.47442 -2.31426 0
M  V30 41 C 4.4753 3.00789 -2.26281 0
M  V30 42 C 3.6223 1.73896 -2.15999 0
M  V30 43 H 6.5733 0.586928 -1.47448 0
M  V30 44 H 6.5943 3.2656 -1.95291 0
M  V30 45 H 6.1063 2.03791 -3.30289 0
M  V30 46 H 4.2073 3.48851 -1.30896 0
M  V30 47 H 4.3203 3.57343 -3.19128 0
M  V30 48 H 2.6843 1.9628 -1.62316 0
M  V30 49 H 3.4673 1.32368 -3.16755 0
M  V30 50 N 5.9124 1.20967 1.01018 0
M  V30 51 C 7.1594 1.02374 1.74716 0
M  V30 52 C 7.4874 -0.443375 1.89379 0
M  V30 53 O 6.7424 -1.34535 1.42123 0
M  V30 54 C 7.0414 1.65997 3.16512 0
M  V30 55 C 6.7074 3.15831 3.2181 0
M  V30 56 C 5.3694 3.56719 3.22963 0
M  V30 57 C 7.7214 4.11816 3.19464 0
M  V30 58 C 5.0494 4.92107 3.19449 0
M  V30 59 C 7.4014 5.47158 3.17491 0
M  V30 60 C 6.0654 5.87451 3.16951 0
M  V30 61 H 5.3354 0.374614 0.639332 0
M  V30 62 H 7.9824 1.50485 1.18434 0
M  V30 63 H 6.2874 1.10166 3.75993 0
M  V30 64 H 7.9844 1.49119 3.72242 0
M  V30 65 H 4.5744 2.83263 3.21652 0
M  V30 66 H 8.7584 3.81257 3.17737 0
M  V30 67 H 4.0144 5.22579 3.17366 0
M  V30 68 H 8.1884 6.21274 3.14629 0
M  V30 69 H 5.8154 6.92329 3.13983 0
M  V30 70 N 7.3905 -1.2043 1.01659 0
M  V30 71 C 8.6365 -1.90079 0.706963 0
M  V30 72 C 8.9695 -1.78648 -0.761474 0
M  V30 73 O 8.2445 -1.17069 -1.55323 0
M  V30 74 C 8.5275 -3.41469 1.14327 0
M  V30 75 C 8.3805 -3.61833 2.67201 0
M  V30 76 C 9.6995 -4.34261 0.714529 0
M  V30 77 H 6.8185 -0.690254 0.2583 0
M  V30 78 H 9.4605 -1.41826 1.26433 0
M  V30 79 H 7.6105 -3.82696 0.669056 0
M  V30 80 H 9.2825 -3.2986 3.22475 0
M  V30 81 H 7.5255 -3.05304 3.08175 0
M  V30 82 H 8.1965 -4.67955 2.92783 0
M  V30 83 H 10.6725 -4.00682 1.12221 0
M  V30 84 H 9.5485 -5.38806 1.04784 0
M  V30 85 H 9.8095 -4.40431 -0.383799 0
M  V30 86 N 8.8686 -0.792821 -1.36206 0
M  V30 87 C 10.1146 -0.376415 -1.99887 0
M  V30 88 C 10.4696 1.04127 -1.61788 0
M  V30 89 O 9.7626 1.71004 -0.864193 0
M  V30 90 C 9.9566 -0.481501 -3.54142 0
M  V30 91 C 9.7856 -1.90786 -4.07223 0
M  V30 92 C 8.5556 -2.53322 -4.37214 0
M  V30 93 C 10.7536 -2.87048 -4.26741 0
M  V30 94 N 8.7356 -3.8751 -4.7614 0
M  V30 95 C 10.1066 -4.06077 -4.6851 0
M  V30 96 C 12.1616 -2.8406 -4.08918 0
M  V30 97 C 10.8646 -5.22532 -4.94321 0
M  V30 98 C 12.8906 -3.99705 -4.35878 0
M  V30 99 C 12.2526 -5.1748 -4.77906 0
M  V30 100 H 8.3516 -0.185226 -0.759747 0
M  V30 101 H 10.9356 -1.03114 -1.65153 0
M  V30 102 H 9.1066 0.143154 -3.88136 0
M  V30 103 H 10.8386 -0.0410128 -4.04679 0
M  V30 104 H 7.5936 -2.04777 -4.2704 0
M  V30 105 H 8.0176 -4.5656 -4.99882 0
M  V30 106 H 12.6596 -1.94165 -3.75579 0
M  V30 107 H 10.3776 -6.1301 -5.2654 0
M  V30 108 H 13.9636 -3.98758 -4.23655 0
M  V30 109 H 12.8436 -6.05478 -4.98363 0
M  V30 110 N 10.3467 1.47872 -0.545128 0
M  V30 111 C 11.3097 2.28337 0.198717 0
M  V30 112 C 12.3097 1.36255 0.853888 0
M  V30 113 O 13.4997 1.59003 0.711606 0
M  V30 114 C 10.6317 3.15585 1.28915 0
M  V30 115 H 11.8247 2.95567 -0.507941 0
M  V30 116 H 9.3777 1.53362 -0.301616 0
M  V30 117 H 10.1127 2.53019 2.02859 0
M  V30 118 H 9.8977 3.83337 0.824309 0
M  V30 119 H 11.3877 3.76243 1.81194 0
M  V30 120 N 11.8248 0.280983 1.55075 0
M  V30 121 C 12.7548 -0.597469 2.25727 0
M  V30 122 C 13.7358 -1.15417 1.24952 0
M  V30 123 O 14.9208 -1.18722 1.53684 0
M  V30 124 C 12.0508 -1.7789 2.98283 0
M  V30 125 C 11.0048 -1.35347 4.06036 0
M  V30 126 C 10.3308 -2.61846 4.66198 0
M  V30 127 C 11.6308 -0.499354 5.19907 0
M  V30 128 H 13.3248 -0.00824265 2.99399 0
M  V30 129 H 10.8708 -0.0025244 1.44 0
M  V30 130 H 12.8238 -2.39937 3.46422 0
M  V30 131 H 11.5478 -2.39405 2.22155 0
M  V30 132 H 10.2068 -0.756156 3.58717 0
M  V30 133 H 9.8548 -3.21632 3.86732 0
M  V30 134 H 9.5548 -2.3409 5.38958 0
M  V30 135 H 11.0788 -3.24732 5.1709 0
M  V30 136 H 12.4928 -1.02498 5.64063 0
M  V30 137 H 10.8898 -0.316424 5.99265 0
M  V30 138 H 11.9598 0.480459 4.82514 0
M  V30 139 N 13.3029 -1.57598 0.00835791 0
M  V30 140 C 14.5509 -1.90551 -0.6734 0
M  V30 141 C 14.8719 -0.883301 -1.73847 0
M  V30 142 O 14.1419 0.0781442 -1.95744 0
M  V30 143 H 12.7219 -0.703312 -0.251717 0
M  V30 144 H 15.3839 -1.94833 0.0512592 0
M  V30 145 H 14.4799 -2.9056 -1.13935 0
M  V30 146 N 14.781 0.264519 -1.55364 0
M  V30 147 C 15.711 1.33121 -1.91836 0
M  V30 148 C 16.692 1.51101 -0.781192 0
M  V30 149 O 17.877 1.64003 -1.04003 0
M  V30 150 C 15.007 2.68921 -2.19769 0
M  V30 151 C 13.961 2.65661 -3.35571 0
M  V30 152 C 13.287 4.05093 -3.49004 0
M  V30 153 C 14.587 2.24187 -4.71739 0
M  V30 154 H 16.281 1.02844 -2.81182 0
M  V30 155 H 13.827 0.493286 -1.35287 0
M  V30 156 H 15.78 3.43663 -2.43872 0
M  V30 157 H 14.504 3.00799 -1.27231 0
M  V30 158 H 13.163 1.93377 -3.1145 0
M  V30 159 H 12.811 4.34206 -2.53917 0
M  V30 160 H 12.511 4.03804 -4.26868 0
M  V30 161 H 14.035 4.81561 -3.75408 0
M  V30 162 H 15.449 2.88654 -4.9533 0
M  V30 163 H 13.846 2.34044 -5.52579 0
M  V30 164 H 14.916 1.19327 -4.69988 0
M  V30 165 N 16.2591 1.48442 0.529413 0
M  V30 166 C 17.1891 1.65902 1.64313 0
M  V30 167 C 18.1701 0.507897 1.6234 0
M  V30 168 O 19.3551 0.740503 1.79528 0
M  V30 169 C 16.4851 1.69911 3.02898 0
M  V30 170 C 15.4391 2.8453 3.19729 0
M  V30 171 C 14.7651 2.73629 4.59381 0
M  V30 172 C 16.0651 4.25821 3.02447 0
M  V30 173 H 17.7591 2.5914 1.49955 0
M  V30 174 H 15.3051 1.24709 0.719982 0
M  V30 175 H 17.2581 1.80715 3.80684 0
M  V30 176 H 15.9821 0.732524 3.18279 0
M  V30 177 H 14.6411 2.73283 2.44361 0
M  V30 178 H 14.2891 1.74938 4.71599 0
M  V30 179 H 13.9891 3.50541 4.71588 0
M  V30 180 H 15.5131 2.86401 5.39265 0
M  V30 181 H 16.9271 4.37898 3.70024 0
M  V30 182 H 15.3241 5.03735 3.26146 0
M  V30 183 H 16.3941 4.42244 1.98867 0
M  V30 184 N 17.7372 -0.778329 1.37039 0
M  V30 185 C 18.6702 -1.8984 1.26633 0
M  V30 186 C 19.6482 -1.61923 0.148197 0
M  V30 187 O 20.8322 -1.85742 0.321265 0
M  V30 188 C 17.9592 -3.24916 0.956403 0
M  V30 189 C 17.0052 -3.71752 2.09051 0
M  V30 190 S 17.8382 -3.86201 3.70957 0
M  V30 191 C 18.9942 -5.24135 3.42101 0
M  V30 192 H 19.2272 -1.98377 2.21436 0
M  V30 193 H 16.7602 -0.938738 1.22585 0
M  V30 194 H 18.7182 -4.02936 0.784409 0
M  V30 195 H 17.3792 -3.14089 0.0259713 0
M  V30 196 H 16.5722 -4.69661 1.8285 0
M  V30 197 H 16.1742 -3.00815 2.2223 0
M  V30 198 H 18.4662 -6.09086 2.96682 0
M  V30 199 H 19.4092 -5.55346 4.39314 0
M  V30 200 H 19.8172 -4.91761 2.77185 0
M  V30 201 N 19.2153 -1.21501 -1.00376 0
M  V30 202 C 20.1453 -0.999478 -2.11028 0
M  V30 203 C 21.1263 0.0759671 -1.6993 0
M  V30 204 O 22.3113 -0.0841106 -1.94018 0
M  V30 205 C 19.4413 -0.564709 -3.42678 0
M  V30 206 C 18.3953 -1.58486 -3.97576 0
M  V30 207 C 17.7213 -1.00628 -5.25146 0
M  V30 208 C 19.0213 -2.97204 -4.29496 0
M  V30 209 H 20.7153 -1.92495 -2.29317 0
M  V30 210 H 18.2613 -0.92693 -1.102 0
M  V30 211 H 20.2143 -0.401091 -4.19487 0
M  V30 212 H 18.9383 0.396411 -3.24185 0
M  V30 213 H 17.5973 -1.73606 -3.22888 0
M  V30 214 H 17.2453 -0.0368439 -5.02987 0
M  V30 215 H 16.9453 -1.68771 -5.62841 0
M  V30 216 H 18.4693 -0.854015 -6.04598 0
M  V30 217 H 19.8833 -2.8552 -4.97143 0
M  V30 218 H 18.2803 -3.62372 -4.78338 0
M  V30 219 H 19.3503 -3.47956 -3.3772 0
M  V30 220 N 20.6934 1.19889 -1.02296 0
M  V30 221 C 21.6254 2.22334 -0.556787 0
M  V30 222 C 22.6384 1.58674 0.364199 0
M  V30 223 O 23.8274 1.77768 0.161533 0
M  V30 224 C 20.9274 3.38257 0.208694 0
M  V30 225 C 20.1004 4.31504 -0.71577 0
M  V30 226 C 19.1594 5.262 0.00325597 0
M  V30 227 O 18.1854 5.65798 -0.621357 0
M  V30 228 N 19.3874 5.66303 1.27599 0
M  V30 229 H 22.1524 2.62957 -1.43784 0
M  V30 230 H 19.7134 1.34495 -0.901261 0
M  V30 231 H 21.7054 3.98616 0.699111 0
M  V30 232 H 20.2754 2.96472 0.991102 0
M  V30 233 H 19.4954 3.69016 -1.38638 0
M  V30 234 H 20.7834 4.9072 -1.34428 0
M  V30 235 H 20.1814 5.36155 1.80429 0
M  V30 236 H 18.7384 6.28942 1.71102 0
M  V30 237 N 22.1715 0.800033 1.35784 0
M  V30 238 C 23.1045 0.151499 2.27697 0
M  V30 239 C 24.0825 -0.678663 1.4776 0
M  V30 240 O 25.2665 -0.647358 1.77035 0
M  V30 241 C 22.3935 -0.790492 3.29346 0
M  V30 242 C 21.4395 -0.0407832 4.26481 0
M  V30 243 S 22.2725 1.29077 5.19711 0
M  V30 244 C 23.4285 0.353055 6.24903 0
M  V30 245 H 23.6615 0.930796 2.82353 0
M  V30 246 H 21.1945 0.594767 1.42485 0
M  V30 247 H 23.1525 -1.3285 3.88409 0
M  V30 248 H 21.8135 -1.54312 2.73581 0
M  V30 249 H 21.0065 -0.755971 4.98298 0
M  V30 250 H 20.6085 0.427063 3.71554 0
M  V30 251 H 22.9005 -0.464147 6.75908 0
M  V30 252 H 23.8435 1.04023 7.00418 0
M  V30 253 H 24.2515 -0.0483344 5.64479 0
M  V30 254 N 23.6496 -1.47581 0.552962 0
M  V30 255 C 24.5796 -2.32762 -0.185451 0
M  V30 256 C 25.5606 -1.43527 -0.912905 0
M  V30 257 O 26.7456 -1.72388 -0.894201 0
M  V30 258 C 23.8756 -3.25219 -1.21859 0
M  V30 259 C 22.8296 -4.23661 -0.607864 0
M  V30 260 C 22.1556 -5.05413 -1.74533 0
M  V30 261 C 23.4556 -5.20481 0.435582 0
M  V30 262 H 25.1496 -2.94749 0.525684 0
M  V30 263 H 22.6956 -1.41738 0.254251 0
M  V30 264 H 24.6486 -3.8365 -1.7433 0
M  V30 265 H 23.3726 -2.61279 -1.95961 0
M  V30 266 H 22.0316 -3.66451 -0.104489 0
M  V30 267 H 21.6796 -4.3788 -2.47529 0
M  V30 268 H 21.3796 -5.72059 -1.34249 0
M  V30 269 H 22.9036 -5.66701 -2.27338 0
M  V30 270 H 24.3176 -5.733 -0.00290157 0
M  V30 271 H 22.7146 -5.95305 0.757067 0
M  V30 272 H 23.7846 -4.66217 1.33303 0
M  V30 273 N 25.1277 -0.289203 -1.54924 0
M  V30 274 C 26.0577 0.58549 -2.2604 0
M  V30 275 C 27.0387 1.14753 -1.25562 0
M  V30 276 O 28.2237 1.17906 -1.54311 0
M  V30 277 C 25.3537 1.76305 -2.99222 0
M  V30 278 C 24.3077 1.33191 -4.06748 0
M  V30 279 C 23.6337 2.5937 -4.6758 0
M  V30 280 C 24.9337 0.471775 -5.20165 0
M  V30 281 H 26.6277 -0.00763532 -2.99399 0
M  V30 282 H 24.1737 -0.00511229 -1.43999 0
M  V30 283 H 26.1267 2.38097 -3.47689 0
M  V30 284 H 24.8507 2.38223 -2.23422 0
M  V30 285 H 23.5097 0.737121 -3.59113 0
M  V30 286 H 23.1577 3.19576 -3.88433 0
M  V30 287 H 22.8577 2.31228 -5.40192 0
M  V30 288 H 24.3817 3.21985 -5.18804 0
M  V30 289 H 25.7957 0.995056 -5.64599 0
M  V30 290 H 24.1927 0.284639 -5.99425 0
M  V30 291 H 25.2627 -0.506041 -4.82252 0
M  V30 292 N 26.6058 1.57591 -0.0167156 0
M  V30 293 C 27.8528 1.91283 0.664597 0
M  V30 294 C 28.1808 0.891949 1.72842 0
M  V30 295 O 27.4358 -0.100931 1.9544 0
M  V30 296 C 27.7348 3.3172 1.33029 0
M  V30 297 C 27.4008 4.4914 0.398047 0
M  V30 298 C 26.0628 4.80992 0.141421 0
M  V30 299 C 28.4148 5.20634 -0.242825 0
M  V30 300 C 25.7428 5.81703 -0.764092 0
M  V30 301 C 28.0948 6.22311 -1.13632 0
M  V30 302 C 26.7588 6.52611 -1.40196 0
M  V30 303 H 26.0288 0.699956 0.243193 0
M  V30 304 H 28.6758 1.9135 -0.0758267 0
M  V30 305 H 26.9808 3.27856 2.14517 0
M  V30 306 H 28.6778 3.55055 1.86379 0
M  V30 307 H 25.2678 4.24262 0.608238 0
M  V30 308 H 29.4518 4.96267 -0.0576019 0
M  V30 309 H 24.7078 6.03532 -0.977732 0
M  V30 310 H 28.8818 6.76834 -1.63917 0
M  V30 311 H 26.5088 7.30467 -2.10529 0
M  V30 312 N 28.0839 -0.256276 1.55502 0
M  V30 313 C 29.3299 -0.987079 1.77157 0
M  V30 314 C 29.6629 -1.85327 0.580315 0
M  V30 315 O 28.9379 -1.89874 -0.421686 0
M  V30 316 C 29.2209 -1.85553 3.08613 0
M  V30 317 C 29.0739 -1.01816 4.38125 0
M  V30 318 C 30.3929 -2.8397 3.36228 0
M  V30 319 H 27.5119 -0.357428 0.644526 0
M  V30 320 H 30.1539 -0.258239 1.88237 0
M  V30 321 H 28.3039 -2.47695 2.99298 0
M  V30 322 H 29.9759 -0.416159 4.59419 0
M  V30 323 H 28.2189 -0.322178 4.32602 0
M  V30 324 H 28.8899 -1.65939 5.26468 0
M  V30 325 H 31.3659 -2.31964 3.45445 0
M  V30 326 H 30.2419 -3.41864 4.29442 0
M  V30 327 H 30.5029 -3.59955 2.56681 0
M  V30 328 N 29.562 -1.4872 -0.521534 0
M  V30 329 C 30.525 -1.63379 -1.60748 0
M  V30 330 C 31.525 -0.50661 -1.52611 0
M  V30 331 O 32.715 -0.772601 -1.5613 0
M  V30 332 C 29.847 -1.61192 -3.00383 0
M  V30 333 H 31.04 -2.60217 -1.49087 0
M  V30 334 H 28.593 -1.37444 -0.744235 0
M  V30 335 H 29.328 -0.65863 -3.17541 0
M  V30 336 H 29.113 -2.43032 -3.07698 0
M  V30 337 H 30.603 -1.7466 -3.7932 0
M  V30 338 N 31.0401 0.771051 -1.3745 0
M  V30 339 C 32.2881 1.52661 -1.32435 0
M  V30 340 C 32.6091 1.9479 0.0905024 0
M  V30 341 O 31.8791 1.66348 1.03466 0
M  V30 342 H 30.4591 0.566218 -0.487244 0
M  V30 343 H 33.1211 0.917636 -1.71946 0
M  V30 344 H 32.2171 2.42568 -1.96385 0
M  V30 345 N 32.5182 1.22032 0.997298 0
M  V30 346 C 33.4282 1.00271 2.12092 0
M  V30 347 C 34.4442 -0.047621 1.73935 0
M  V30 348 O 35.6202 0.144136 2.00884 0
M  V30 349 C 32.6852 0.578449 3.4184 0
M  V30 350 C 31.7462 1.70189 3.94125 0
M  V30 351 C 30.9792 1.29778 5.17681 0
M  V30 352 O 31.2022 0.174676 5.70132 0
M  V30 353 O 30.1362 2.11261 5.63607 0
M  V30 354 H 33.9622 1.94398 2.3333 0
M  V30 355 H 31.5472 1.00587 1.10465 0
M  V30 356 H 33.4292 0.351998 4.19927 0
M  V30 357 H 32.1042 -0.334019 3.21972 0
M  V30 358 H 31.0112 1.98282 3.1723 0
M  V30 359 H 32.3442 2.59206 4.18417 0
M  V30 360 N 33.9963 -1.19345 1.0293 0
M  V30 361 C 34.9283 -2.22036 0.56857 0
M  V30 362 C 35.9413 -1.58865 -0.355779 0
M  V30 363 O 37.1303 -1.77851 -0.152103 0
M  V30 364 C 34.2303 -3.38363 -0.190752 0
M  V30 365 C 33.4033 -4.31118 0.738643 0
M  V30 366 C 32.4623 -5.26194 0.0246497 0
M  V30 367 O 31.4883 -5.65461 0.651354 0
M  V30 368 N 32.6903 -5.66971 -1.24594 0
M  V30 369 H 35.4553 -2.6219 1.45177 0
M  V30 370 H 33.0163 -1.34015 0.908381 0
M  V30 371 H 35.0083 -3.98981 -0.677961 0
M  V30 372 H 33.5783 -2.96994 -0.975366 0
M  V30 373 H 32.7983 -3.68276 1.40593 0
M  V30 374 H 34.0863 -4.90001 1.37029 0
M  V30 375 H 33.4843 -5.37104 -1.77583 0
M  V30 376 H 32.0413 -6.2984 -1.67764 0
M  V30 377 N 35.4744 -0.807222 -1.35358 0
M  V30 378 C 36.7224 -0.387122 -1.98358 0
M  V30 379 C 37.0434 1.04942 -1.64354 0
M  V30 380 O 36.3134 1.72615 -0.926339 0
M  V30 381 H 34.8934 -0.140154 -0.733734 0
M  V30 382 H 37.5554 -1.0332 -1.6526 0
M  V30 383 H 36.6514 -0.493352 -3.08176 0
M  V30 384 N 36.9525 1.47285 -0.560781 0
M  V30 385 C 38.1805 2.06855 -0.0430262 0
M  V30 386 C 38.5955 1.41291 1.25229 0
M  V30 387 O 37.9525 0.510648 1.7521 0
M  V30 388 C 38.0035 3.61178 0.152518 0
M  V30 389 O 37.7245 4.24285 -1.0915 0
M  V30 390 C 39.2255 4.37624 0.707145 0
M  V30 391 H 36.4455 0.669319 -0.0474652 0
M  V30 392 H 38.9895 1.89237 -0.77521 0
M  V30 393 H 37.1445 3.78298 0.834843 0
M  V30 394 H 37.5585 5.16868 -0.891482 0
M  V30 395 H 39.0325 5.46271 0.793244 0
M  V30 396 H 39.5095 4.04152 1.71923 0
M  V30 397 H 40.1155 4.25257 0.0604027 0
M  V30 398 N 38.4306 0.297415 1.54768 0
M  V30 399 C 39.3626 -0.613881 2.20826 0
M  V30 400 C 40.3756 -1.10032 1.19987 0
M  V30 401 O 41.5646 -1.01839 1.46598 0
M  V30 402 C 38.6646 -1.852 2.83821 0
M  V30 403 C 37.8376 -1.50865 4.10559 0
M  V30 404 C 36.8966 -2.60154 4.57391 0
M  V30 405 O 35.9226 -2.25398 5.2267 0
M  V30 406 N 37.1246 -3.90629 4.29406 0
M  V30 407 H 39.8896 -0.048389 2.99661 0
M  V30 408 H 37.4506 0.11946 1.61459 0
M  V30 409 H 39.4426 -2.57652 3.12086 0
M  V30 410 H 38.0126 -2.32597 2.08847 0
M  V30 411 H 37.2326 -0.616925 3.89343 0
M  V30 412 H 38.5206 -1.25458 4.9309 0
M  V30 413 H 37.9186 -4.21677 3.77101 0
M  V30 414 H 36.4756 -4.59391 4.62388 0
M  V30 415 N 39.9087 -1.5758 0.0250728 0
M  V30 416 C 41.1857 -1.82917 -0.692873 0
M  V30 417 C 41.5657 -0.908137 -1.90568 0
M  V30 418 O 40.9137 0.0372298 -2.2847 0
M  V30 419 C 41.1237 -3.32034 -1.07492 0
M  V30 420 C 42.4717 -3.98406 -1.46826 0
M  V30 421 O 43.4957 -3.36505 -1.16801 0
M  V30 422 O 42.3547 -5.07497 -2.02754 0
M  V30 423 H 39.4487 -0.754079 -0.33955 0
M  V30 424 H 41.9947 -1.69619 0.0524456 0
M  V30 425 H 40.7667 -3.90728 -0.211552 0
M  V30 426 H 40.3897 -3.50424 -1.87854 0
M  V30 427 N 41.3868 0.248026 -1.55636 0
M  V30 428 C 42.6358 0.974134 -1.76617 0
M  V30 429 C 42.9488 1.86528 -0.588796 0
M  V30 430 O 44.1548 2.62805 -0.681594 0
M  V30 431 C 42.6108 1.78213 -3.12679 0
M  V30 432 C 42.2188 0.93843 -4.38061 0
M  V30 433 C 43.9628 2.50104 -3.42999 0
M  V30 434 C 41.8698 1.74225 -5.65155 0
M  V30 435 H 40.7998 0.36745 -0.658405 0
M  V30 436 H 43.4508 0.22884 -1.82067 0
M  V30 437 H 41.8328 2.56933 -3.01333 0
M  V30 438 H 43.0068 0.193635 -4.60393 0
M  V30 439 H 41.3218 0.332905 -4.15067 0
M  V30 440 H 43.9188 3.10694 -4.3517 0
M  V30 441 H 44.2618 3.21662 -2.64271 0
M  V30 442 H 44.7948 1.78395 -3.55556 0
M  V30 443 H 41.5338 1.07043 -6.46701 0
M  V30 444 H 41.0538 2.46235 -5.46926 0
M  V30 445 H 42.7328 2.30967 -6.0437 0
M  V30 446 N 42.8649 1.48995 0.513639 0
M  V30 447 C 44.0929 1.61531 1.29288 0
M  V30 448 C 44.5079 0.281801 1.86685 0
M  V30 449 O 43.8649 -0.731111 1.67215 0
M  V30 450 C 43.9159 2.67449 2.43215 0
M  V30 451 O 43.6369 3.95626 1.88179 0
M  V30 452 C 45.1379 2.90575 3.34785 0
M  V30 453 H 42.3579 0.544165 0.392588 0
M  V30 454 H 44.9019 1.9494 0.617956 0
M  V30 455 H 43.0569 2.36853 3.0656 0
M  V30 456 H 43.4709 4.53868 2.62876 0
M  V30 457 H 44.9449 3.68449 4.11035 0
M  V30 458 H 45.4219 2.00011 3.91015 0
M  V30 459 H 46.0279 3.22538 2.77218 0
M  V30 460 N 44.343 -0.763751 1.37857 0
M  V30 461 C 45.62 -1.51244 1.24035 0
M  V30 462 C 46 -2.10472 -0.162649 0
M  V30 463 O 45.348 -1.96206 -1.17112 0
M  V30 464 C 45.558 -2.58694 2.34261 0
M  V30 465 C 46.906 -3.25878 2.72193 0
M  V30 466 O 47.93 -2.68993 2.33497 0
M  V30 467 O 46.789 -4.2874 3.38887 0
M  V30 468 H 43.883 -0.670243 0.484462 0
M  V30 469 H 46.429 -0.800031 1.49658 0
M  V30 470 H 45.201 -2.13105 3.2818 0
M  V30 471 H 44.824 -3.37527 2.10146 0
M  V30 472 N 45.8211 -1.22559 -0.990812 0
M  V30 473 C 46.7841 -0.998863 -2.0629 0
M  V30 474 C 47.7841 0.0354834 -1.60761 0
M  V30 475 O 48.9741 -0.203231 -1.7301 0
M  V30 476 C 46.1061 -0.509203 -3.37076 0
M  V30 477 H 47.2991 -1.95014 -2.27837 0
M  V30 478 H 44.8521 -1.04456 -1.16269 0
M  V30 479 H 45.5871 0.446335 -3.21214 0
M  V30 480 H 45.3721 -1.25547 -3.71457 0
M  V30 481 H 46.8621 -0.370888 -4.1595 0
M  V30 482 N 47.2992 1.18797 -1.03562 0
M  V30 483 C 48.5242 1.9314 -0.755764 0
M  V30 484 C 48.9492 1.7537 0.68022 0
M  V30 485 O 48.3072 1.06046 1.47051 0
M  V30 486 C 48.3552 3.42747 -1.12058 0
M  V30 487 O 47.4592 4.11683 -0.243124 0
M  V30 488 H 46.8002 0.602724 -0.278604 0
M  V30 489 H 49.3302 1.50678 -1.3841 0
M  V30 490 H 49.3402 3.93437 -1.08035 0
M  V30 491 H 48.0152 3.55002 -2.16672 0
M  V30 492 H 46.5922 3.71323 -0.342539 0
M  V30 493 N 48.7773 0.814389 1.34928 0
M  V30 494 C 49.6873 0.231978 2.3345 0
M  V30 495 C 50.7033 -0.629139 1.62228 0
M  V30 496 O 51.8793 -0.539052 1.94052 0
M  V30 497 C 48.9443 -0.603482 3.41407 0
M  V30 498 C 48.0053 0.279037 4.28392 0
M  V30 499 C 47.2383 -0.516643 5.31193 0
M  V30 500 O 47.4613 -1.75068 5.4287 0
M  V30 501 O 46.3953 0.0965652 6.01823 0
M  V30 502 H 50.2213 1.04721 2.85074 0
M  V30 503 H 47.8063 0.576343 1.37836 0
M  V30 504 H 49.6883 -1.07908 4.0735 0
M  V30 505 H 48.3633 -1.39618 2.92042 0
M  V30 506 H 47.2703 0.801948 3.65403 0
M  V30 507 H 48.6033 1.03588 4.81176 0
M  V30 508 N 50.2554 -1.46986 0.568584 0
M  V30 509 C 51.6714 -1.57946 0.229189 0
M  V30 510 C 51.8714 -1.56567 -1.26843 0
M  V30 511 O 50.9274 -1.47511 -2.04931 0
M  V30 512 C 52.2404 -2.87963 0.865909 0
M  V30 513 C 53.7884 -3.01568 0.838188 0
M  V30 514 C 54.2634 -4.34301 1.45419 0
M  V30 515 N 55.7544 -4.40965 1.41788 0
M  V30 516 C 56.4894 -5.42256 1.86403 0
M  V30 517 N 55.9854 -6.50297 2.38926 0
M  V30 518 N 57.7784 -5.3337 1.77405 0
M  V30 519 H 49.9294 -1.46126 1.54146 0
M  V30 520 H 52.1924 -0.696156 0.643484 0
M  V30 521 H 51.8984 -2.94742 1.91886 0
M  V30 522 H 51.7724 -3.75423 0.365687 0
M  V30 523 H 54.1594 -2.94379 -0.206106 0
M  V30 524 H 54.2404 -2.1562 1.37629 0
M  V30 525 H 53.8844 -4.42247 2.49761 0
M  V30 526 H 53.8144 -5.19 0.891435 0
M  V30 527 H 56.3054 -3.63484 1.03381 0
M  V30 528 H 56.6184 -7.23777 2.70863 0
M  V30 529 H 54.9634 -6.51155 2.42944 0
M  V30 530 H 58.1544 -4.47865 1.3614 0
M  V30 531 H 58.3274 -6.12169 2.12492 0
M  V30 532 N 51.7335 -0.305618 -1.54608 0
M  V30 533 C 52.9815 0.301701 -1.99835 0
M  V30 534 C 53.3025 1.54054 -1.19551 0
M  V30 535 O 52.5725 1.93702 -0.292658 0
M  V30 536 H 51.1525 0.114468 -0.738178 0
M  V30 537 H 53.8145 -0.418016 -1.90364 0
M  V30 538 H 52.9105 0.570548 -3.06841 0
M  V30 539 N 53.2116 1.57565 -0.0334293 0
M  V30 540 C 54.1416 2.13511 0.945265 0
M  V30 541 C 55.1226 1.05231 1.33643 0
M  V30 542 O 56.3076 1.33084 1.41429 0
M  V30 543 C 53.4376 2.6657 2.22616 0
M  V30 544 C 52.3916 3.79676 1.97561 0
M  V30 545 C 51.7176 4.1918 3.31952 0
M  V30 546 C 53.0176 5.0557 1.31135 0
M  V30 547 H 54.7116 2.95538 0.479325 0
M  V30 548 H 52.2576 1.42166 0.229115 0
M  V30 549 H 54.2106 3.04344 2.91466 0
M  V30 550 H 52.9346 1.8171 2.71384 0
M  V30 551 H 51.5936 3.42347 1.31127 0
M  V30 552 H 51.2416 3.31296 3.78487 0
M  V30 553 H 50.9416 4.95402 3.15992 0
M  V30 554 H 52.4656 4.59541 4.02063 0
M  V30 555 H 53.8796 5.40903 1.89992 0
M  V30 556 H 52.2766 5.86818 1.25559 0
M  V30 557 H 53.3466 4.84062 0.284894 0
M  V30 558 N 54.6897 -0.239769 1.55765 0
M  V30 559 C 55.6397 -1.30002 1.87306 0
M  V30 560 C 56.6237 -1.43156 0.73452 0
M  V30 561 O 57.8157 -1.46277 0.99659 0
M  V30 562 C 54.9447 -2.65409 2.17745 0
M  V30 563 C 54.0307 -2.56231 3.37945 0
M  V30 564 N 54.4217 -2.16689 4.57033 0
M  V30 565 C 52.7197 -2.87229 3.41197 0
M  V30 566 C 53.4207 -2.18318 5.39177 0
M  V30 567 N 52.3967 -2.58098 4.78421 0
M  V30 568 H 56.1987 -0.984912 2.76906 0
M  V30 569 H 53.7127 -0.448381 1.56087 0
M  V30 570 H 55.7097 -3.41934 2.38509 0
M  V30 571 H 54.3697 -2.97781 1.29448 0
M  V30 572 H 55.3807 -1.88116 4.82528 0
M  V30 573 H 52.0577 -3.24094 2.63191 0
M  V30 574 H 53.4477 -1.90025 6.44469 0
M  V30 575 N 56.1678 -1.49265 -0.50573 0
M  V30 576 C 57.1008 -1.60183 -1.62532 0
M  V30 577 C 58.0788 -0.451107 -1.56217 0
M  V30 578 O 59.2628 -0.666016 -1.76342 0
M  V30 579 C 56.3898 -1.55238 -3.01029 0
M  V30 580 C 55.4358 -2.7545 -3.25621 0
M  V30 581 S 56.2688 -4.37174 -3.09256 0
M  V30 582 C 57.4248 -4.34866 -4.50158 0
M  V30 583 H 57.6578 -2.54894 -1.53025 0
M  V30 584 H 55.1908 -1.38098 -0.690535 0
M  V30 585 H 57.1488 -1.53071 -3.80893 0
M  V30 586 H 55.8098 -0.618238 -3.07956 0
M  V30 587 H 55.0028 -2.68197 -4.26716 0
M  V30 588 H 54.6048 -2.75005 -2.53472 0
M  V30 589 H 56.8968 -4.06295 -5.42154 0
M  V30 590 H 57.8398 -5.36223 -4.62462 0
M  V30 591 H 58.2478 -3.65007 -4.30616 0
M  V30 592 N 57.6459 0.756429 -1.3826 0
M  V30 593 C 58.5779 1.87971 -1.31147 0
M  V30 594 C 59.5909 1.61248 -0.224239 0
M  V30 595 O 60.7799 1.71881 -0.481581 0
M  V30 596 C 57.8799 3.23545 -1.00857 0
M  V30 597 C 57.0529 3.77794 -2.20432 0
M  V30 598 C 56.1119 4.91877 -1.86931 0
M  V30 599 O 55.1379 5.06659 -2.59395 0
M  V30 600 N 56.3399 5.74643 -0.822568 0
M  V30 601 H 59.1049 1.94585 -2.2794 0
M  V30 602 H 56.6659 0.936234 -1.32084 0
M  V30 603 H 58.6579 3.97403 -0.765021 0
M  V30 604 H 57.2279 3.12335 -0.128687 0
M  V30 605 H 56.4479 2.95534 -2.6087 0
M  V30 606 H 57.7359 4.10771 -3.00241 0
M  V30 607 H 57.1339 5.65266 -0.221575 0
M  V30 608 H 55.6909 6.48661 -0.638899 0
M  V30 609 N 59.124 1.23083 0.984299 0
M  V30 610 C 60.071 1.00854 2.07598 0
M  V30 611 C 61.041 -0.0726709 1.65941 0
M  V30 612 O 62.226 0.0786535 1.90638 0
M  V30 613 C 59.366 0.601645 3.39815 0
M  V30 614 C 58.479 1.75456 3.94765 0
M  V30 615 C 57.614 1.29482 5.15177 0
M  V30 616 C 56.653 2.41873 5.62284 0
M  V30 617 N 55.79 1.96885 6.73929 0
M  V30 618 H 60.63 1.943 2.25946 0
M  V30 619 H 58.167 0.968001 1.10762 0
M  V30 620 H 60.125 0.346854 4.15756 0
M  V30 621 H 58.755 -0.295803 3.21442 0
M  V30 622 H 57.807 2.12346 3.15616 0
M  V30 623 H 59.119 2.59965 4.25699 0
M  V30 624 H 58.273 0.997923 5.98437 0
M  V30 625 H 57.012 0.420046 4.85888 0
M  V30 626 H 56.017 2.72342 4.77608 0
M  V30 627 H 57.242 3.29881 5.93595 0
M  V30 628 H 55.188 1.11782 6.46406 0
M  V30 629 H 55.105 2.74956 7.04227 0
M  V30 630 H 56.373 1.70289 7.60672 0
M  V30 631 N 60.6021 -1.18246 1.0419 0
M  V30 632 C 61.5321 -2.24127 0.654914 0
M  V30 633 C 62.5131 -1.66617 -0.342451 0
M  V30 634 O 63.6981 -1.92924 -0.222277 0
M  V30 635 C 60.8281 -3.47295 0.0183757 0
M  V30 636 C 59.7821 -4.17563 0.939414 0
M  V30 637 C 59.1081 -5.34438 0.167286 0
M  V30 638 C 60.4081 -4.70917 2.25908 0
M  V30 639 H 62.1021 -2.56753 1.54007 0
M  V30 640 H 59.6481 -1.23414 0.74195 0
M  V30 641 H 61.6011 -4.20572 -0.264082 0
M  V30 642 H 60.3251 -3.13907 -0.901664 0
M  V30 643 H 58.9841 -3.46186 1.20628 0
M  V30 644 H 58.6321 -4.97298 -0.7552 0
M  V30 645 H 58.3321 -5.82388 0.780901 0
M  V30 646 H 59.8561 -6.10504 -0.108125 0
M  V30 647 H 61.2701 -5.35882 2.03724 0
M  V30 648 H 59.6671 -5.29406 2.82577 0
M  V30 649 H 60.7371 -3.88272 2.9047 0
M  V30 650 N 62.0802 -0.821533 -1.34494 0
M  V30 651 C 63.3282 -0.408139 -1.97936 0
M  V30 652 C 63.6492 1.03193 -1.65457 0
M  V30 653 O 62.9192 1.71622 -0.944595 0
M  V30 654 H 61.4992 -0.147928 -0.732206 0
M  V30 655 H 64.1612 -1.05067 -1.64155 0
M  V30 656 H 63.2572 -0.52601 -3.07635 0
M  V30 657 N 63.5583 1.46682 -0.576371 0
M  V30 658 C 64.7833 2.07304 -0.0630475 0
M  V30 659 C 65.2083 1.42329 1.2298 0
M  V30 660 O 64.5663 0.504865 1.74129 0
M  V30 661 C 64.6143 3.60472 0.095895 0
M  V30 662 O 63.7183 3.95927 1.15394 0
M  V30 663 H 63.0593 0.661288 -0.0599463 0
M  V30 664 H 65.5893 1.88417 -0.797511 0
M  V30 665 H 65.5993 4.06865 0.304071 0
M  V30 666 H 64.2743 4.07157 -0.84828 0
M  V30 667 H 62.8513 3.61252 0.924724 0
M  V30 668 N 65.0364 0.313813 1.54444 0
M  V30 669 C 66.2844 -0.291099 1.99993 0
M  V30 670 C 66.6054 -1.53418 1.20366 0
M  V30 671 O 65.8754 -1.93544 0.302927 0
M  V30 672 H 64.4554 -0.110552 0.738774 0
M  V30 673 H 67.1174 0.428106 1.9014 0
M  V30 674 H 66.2134 -0.554268 3.07139 0
M  V30 675 N 66.5145 -1.57545 0.0417849 0
M  V30 676 C 67.7395 -1.97035 -0.647455 0
M  V30 677 C 68.1645 -0.918775 -1.64135 0
M  V30 678 O 67.5225 0.119006 -1.80909 0
M  V30 679 C 67.5705 -3.35609 -1.31905 0
M  V30 680 O 66.6745 -3.3287 -2.43457 0
M  V30 681 H 66.0155 -0.64211 -0.169086 0
M  V30 682 H 68.5455 -2.04318 0.107399 0
M  V30 683 H 68.5555 -3.72126 -1.67291 0
M  V30 684 H 67.2305 -4.11685 -0.590586 0
M  V30 685 H 65.8075 -3.08087 -2.10088 0
M  V30 686 N 67.9926 0.231505 -1.5589 0
M  V30 687 C 69.2386 0.95877 -1.78705 0
M  V30 688 C 69.5716 1.8438 -0.609725 0
M  V30 689 O 68.8466 1.90521 0.391426 0
M  V30 690 C 69.1296 1.8062 -3.11526 0
M  V30 691 C 68.9826 0.948328 -4.39689 0
M  V30 692 C 70.3016 2.78585 -3.40703 0
M  V30 693 H 67.4206 0.347129 -0.650131 0
M  V30 694 H 70.0626 0.228259 -1.88624 0
M  V30 695 H 68.2126 2.42902 -3.03201 0
M  V30 696 H 69.8846 0.343016 -4.60023 0
M  V30 697 H 68.1276 0.253314 -4.3306 0
M  V30 698 H 68.7986 1.57543 -5.29041 0
M  V30 699 H 71.2746 2.26439 -3.49091 0
M  V30 700 H 70.1506 3.34988 -4.34826 0
M  V30 701 H 70.4116 3.55825 -2.62375 0
M  V30 702 N 69.4707 1.49531 0.497807 0
M  V30 703 C 70.4027 1.62559 1.61578 0
M  V30 704 C 71.4157 0.508134 1.54667 0
M  V30 705 O 72.6047 0.780309 1.60541 0
M  V30 706 C 69.7047 1.56925 3.00379 0
M  V30 707 C 68.8777 2.84257 3.3244 0
M  V30 708 C 67.9367 2.71632 4.50669 0
M  V30 709 O 66.9627 3.4557 4.52294 0
M  V30 710 N 68.1647 1.83391 5.5077 0
M  V30 711 H 70.9297 2.58981 1.50828 0
M  V30 712 H 68.4907 1.4666 0.685743 0
M  V30 713 H 70.4827 1.46129 3.77397 0
M  V30 714 H 69.0527 0.683483 3.05037 0
M  V30 715 H 68.2727 3.09381 2.44289 0
M  V30 716 H 69.5607 3.68666 3.5066 0
M  V30 717 H 68.9587 1.22583 5.52259 0
M  V30 718 H 67.5157 1.78515 6.26878 0
M  V30 719 N 70.9488 -0.749086 1.3866 0
M  V30 720 C 71.9118 -1.84457 1.36045 0
M  V30 721 C 72.9118 -1.58682 0.260122 0
M  V30 722 O 74.1018 -1.66343 0.517261 0
M  V30 723 C 71.2338 -3.22008 1.11911 0
M  V30 724 H 72.4268 -1.88182 2.33512 0
M  V30 725 H 69.9798 -0.951266 1.24019 0
M  V30 726 H 70.7148 -3.2395 0.150686 0
M  V30 727 H 70.4998 -3.42111 1.91579 0
M  V30 728 H 71.9898 -4.0208 1.12788 0
M  V30 729 N 72.4269 -1.23603 -0.977757 0
M  V30 730 C 73.3899 -1.02069 -2.05218 0
M  V30 731 C 74.3899 0.0184305 -1.60789 0
M  V30 732 O 75.5799 -0.221569 -1.72785 0
M  V30 733 C 72.7119 -0.544926 -3.36517 0
M  V30 734 H 73.9049 -1.9742 -2.25755 0
M  V30 735 H 71.4579 -1.05684 -1.15155 0
M  V30 736 H 72.1929 0.412241 -3.21669 0
M  V30 737 H 71.9779 -1.2948 -3.70105 0
M  V30 738 H 73.4679 -0.414985 -4.15533 0
M  V30 739 N 73.905 1.17692 -1.04816 0
M  V30 740 C 74.835 2.23777 -0.666791 0
M  V30 741 C 75.816 1.66796 0.33361 0
M  V30 742 O 77.001 1.93039 0.212042 0
M  V30 743 C 74.131 3.47281 -0.0367933 0
M  V30 744 C 73.085 4.17059 -0.961546 0
M  V30 745 C 72.411 5.34342 -0.195626 0
M  V30 746 C 73.711 4.69713 -2.28402 0
M  V30 747 H 75.405 2.55933 -1.55367 0
M  V30 748 H 72.951 1.23019 -0.748484 0
M  V30 749 H 74.904 4.20706 0.241775 0
M  V30 750 H 73.628 3.14381 0.885004 0
M  V30 751 H 72.287 3.45541 -1.22462 0
M  V30 752 H 71.935 4.97692 0.728816 0
M  V30 753 H 71.635 5.81966 -0.811775 0
M  V30 754 H 73.159 6.10553 0.0757473 0
M  V30 755 H 74.573 5.34794 -2.06563 0
M  V30 756 H 72.97 5.279 -2.8538 0
M  V30 757 H 74.04 3.86726 -2.92525 0
M  V30 758 N 75.3831 0.828654 1.34056 0
M  V30 759 C 76.3461 0.259927 2.27721 0
M  V30 760 C 77.3461 -0.565478 1.50529 0
M  V30 761 O 78.5361 -0.38075 1.69988 0
M  V30 762 C 75.6681 -0.634944 3.34935 0
M  V30 763 H 76.8611 1.0863 2.79534 0
M  V30 764 H 74.4141 0.600951 1.44285 0
M  V30 765 H 75.1491 -1.48416 2.88346 0
M  V30 766 H 74.9341 -0.0444999 3.92075 0
M  V30 767 H 76.4241 -1.02648 4.04788 0
M  V30 768 N 76.8612 -1.46375 0.584142 0
M  V30 769 C 77.7712 -2.34115 -0.150728 0
M  V30 770 C 78.7872 -1.49838 -0.884567 0
M  V30 771 O 79.9632 -1.82704 -0.847429 0
M  V30 772 C 77.0282 -3.2705 -1.15062 0
M  V30 773 C 76.0892 -4.27228 -0.421293 0
M  V30 774 C 75.3222 -5.15722 -1.37355 0
M  V30 775 O 75.5452 -5.07176 -2.61014 0
M  V30 776 O 74.4792 -5.95383 -0.883355 0
M  V30 777 H 78.3052 -2.98309 0.569708 0
M  V30 778 H 75.8902 -1.45373 0.344535 0
M  V30 779 H 77.7722 -3.84381 -1.72712 0
M  V30 780 H 76.4472 -2.65451 -1.8525 0
M  V30 781 H 75.3542 -3.7358 0.197085 0
M  V30 782 H 76.6872 -4.91616 0.239641 0
M  V30 783 N 78.3393 -0.321999 -1.54275 0
M  V30 784 C 79.2693 0.537411 -2.27231 0
M  V30 785 C 80.2503 1.12064 -1.27968 0
M  V30 786 O 81.4353 1.14606 -1.56777 0
M  V30 787 C 78.5653 1.69919 -3.02894 0
M  V30 788 C 77.5193 1.24534 -4.09482 0
M  V30 789 C 76.8453 2.49394 -4.72977 0
M  V30 790 C 78.1453 0.361335 -5.21049 0
M  V30 791 H 79.8393 -0.0711406 -2.99315 0
M  V30 792 H 77.3853 -0.0356555 -1.43956 0
M  V30 793 H 79.3383 2.30668 -3.52662 0
M  V30 794 H 78.0623 2.33431 -2.28424 0
M  V30 795 H 76.7213 0.660782 -3.60596 0
M  V30 796 H 76.3693 3.11265 -3.95124 0
M  V30 797 H 76.0693 2.19718 -5.44975 0
M  V30 798 H 77.5933 3.10908 -5.25517 0
M  V30 799 H 79.0073 0.875072 -5.66582 0
M  V30 800 H 77.4043 0.157428 -5.99893 0
M  V30 801 H 78.4743 -0.60822 -4.8107 0
M  V30 802 N 79.8174 1.5752 -0.0501392 0
M  V30 803 C 81.0634 1.92936 0.624798 0
M  V30 804 C 81.3964 0.928685 1.70555 0
M  V30 805 O 80.6714 -0.0454779 1.94447 0
M  V30 806 C 80.9544 3.38737 1.22185 0
M  V30 807 C 80.8074 4.49552 0.149218 0
M  V30 808 C 82.1264 3.84913 2.13378 0
M  V30 809 H 79.2454 0.701604 0.225657 0
M  V30 810 H 81.8874 1.89671 -0.111693 0
M  V30 811 H 80.0374 3.4165 1.84953 0
M  V30 812 H 81.7094 4.58768 -0.482648 0
M  V30 813 H 79.9524 4.30638 -0.522841 0
M  V30 814 H 80.6234 5.48653 0.606966 0
M  V30 815 H 83.0994 3.8387 1.60572 0
M  V30 816 H 81.9754 4.87584 2.52097 0
M  V30 817 H 82.2364 3.21611 3.03346 0
M  V30 818 N 81.2955 -0.223234 1.56011 0
M  V30 819 C 82.2585 -1.26014 1.9145 0
M  V30 820 C 83.2585 -1.3989 0.792937 0
M  V30 821 O 84.4485 -1.38184 1.0607 0
M  V30 822 C 81.5805 -2.63422 2.16383 0
M  V30 823 H 82.7735 -0.95796 2.84189 0
M  V30 824 H 80.3265 -0.463576 1.49267 0
M  V30 825 H 81.0615 -2.98741 1.2619 0
M  V30 826 H 80.8465 -2.54728 2.98088 0
M  V30 827 H 82.3365 -3.38249 2.44903 0
M  V30 828 N 82.7736 -1.49793 -0.48987 0
M  V30 829 C 83.7036 -1.70201 -1.59856 0
M  V30 830 C 84.6846 -0.55076 -1.60937 0
M  V30 831 O 85.8696 -0.787841 -1.77501 0
M  V30 832 C 82.9996 -1.77882 -2.98287 0
M  V30 833 C 81.9536 -2.92907 -3.12073 0
M  V30 834 C 81.2796 -2.85712 -4.51965 0
M  V30 835 C 82.5796 -4.3369 -2.91051 0
M  V30 836 H 84.2736 -2.63025 -1.43032 0
M  V30 837 H 81.8196 -1.26574 -0.686664 0
M  V30 838 H 83.7726 -1.90744 -3.75759 0
M  V30 839 H 82.4966 -0.816653 -3.16225 0
M  V30 840 H 81.1556 -2.79665 -2.37029 0
M  V30 841 H 80.8036 -1.8738 -4.66795 0
M  V30 842 H 80.5036 -3.62921 -4.62128 0
M  V30 843 H 82.0276 -3.00598 -5.31482 0
M  V30 844 H 83.4416 -4.47555 -3.58284 0
M  V30 845 H 81.8386 -5.12205 -3.12675 0
M  V30 846 H 82.9086 -4.47362 -1.87071 0
M  V30 847 N 84.2517 0.741722 -1.39055 0
M  V30 848 C 85.6627 1.31966 -1.32068 0
M  V30 849 C 86.0137 1.96192 0.0180797 0
M  V30 850 O 85.1387 1.95861 0.920196 0
M  V30 851 C 85.7337 2.39954 -2.39181 0
M  V30 852 C 84.2927 2.93438 -2.35735 0
M  V30 853 C 83.4397 1.66936 -2.21422 0
M  V30 854 H 86.3907 0.539721 -1.4924 0
M  V30 855 H 86.4117 3.20182 -2.05581 0
M  V30 856 H 85.9237 1.9318 -3.36605 0
M  V30 857 H 84.0247 3.4451 -1.41929 0
M  V30 858 H 84.1377 3.4701 -3.30335 0
M  V30 859 H 82.5017 1.91016 -1.68478 0
M  V30 860 H 83.2847 1.22224 -3.20806 0
M  V30 861 N 85.7298 1.2412 0.971189 0
M  V30 862 C 86.9698 1.09066 1.7287 0
M  V30 863 C 87.3338 -0.364794 1.88503 0
M  V30 864 O 88.5348 -0.636748 2.61149 0
M  V30 865 C 86.8058 1.80629 3.08396 0
M  V30 866 S 88.3648 1.81263 3.99611 0
M  V30 867 H 85.1828 0.390145 0.594397 0
M  V30 868 H 87.7848 1.57397 1.15959 0
M  V30 869 H 86.4888 2.85647 2.94676 0
M  V30 870 H 86.0198 1.32617 3.70373 0
M  V30 871 H 88.0348 0.877804 4.88374 0
M  V30 872 N 87.2079 -1.17134 1.05439 0
M  V30 873 C 88.1379 -2.2342 0.678649 0
M  V30 874 C 89.1189 -1.66971 -0.32476 0
M  V30 875 O 90.3039 -1.93149 -0.201802 0
M  V30 876 C 87.4339 -3.47256 0.0552099 0
M  V30 877 C 86.3879 -4.16543 0.98365 0
M  V30 878 C 85.7139 -5.34231 0.223961 0
M  V30 879 C 87.0139 -4.68495 2.3089 0
M  V30 880 H 88.7079 -2.55105 1.56722 0
M  V30 881 H 86.2539 -1.2262 0.754998 0
M  V30 882 H 88.2069 -4.20828 -0.21946 0
M  V30 883 H 86.9309 -3.14846 -0.868319 0
M  V30 884 H 85.5899 -3.44887 1.24293 0
M  V30 885 H 85.2379 -4.98071 -0.702412 0
M  V30 886 H 84.9379 -5.81527 0.842627 0
M  V30 887 H 86.4619 -6.10585 -0.0433671 0
M  V30 888 H 87.8759 -5.33691 2.09396 0
M  V30 889 H 86.2729 -5.26379 2.88176 0
M  V30 890 H 87.3429 -3.85169 2.94572 0
M  V30 891 N 88.686 -0.835752 -1.33615 0
M  V30 892 C 89.933 -0.429959 -1.97883 0
M  V30 893 C 90.261 1.01006 -1.66217 0
M  V30 894 O 89.516 1.72047 -0.93265 0
M  V30 895 C 89.815 -0.593925 -3.52431 0
M  V30 896 C 89.481 -2.00158 -4.04039 0
M  V30 897 C 88.143 -2.38662 -4.17844 0
M  V30 898 C 90.495 -2.92117 -4.31644 0
M  V30 899 C 87.823 -3.68435 -4.56588 0
M  V30 900 C 90.175 -4.21368 -4.71838 0
M  V30 901 C 88.839 -4.59833 -4.83849 0
M  V30 902 H 88.109 -0.157333 -0.724104 0
M  V30 903 H 90.756 -1.06217 -1.59343 0
M  V30 904 H 89.061 0.121619 -3.91611 0
M  V30 905 H 90.758 -0.260282 -4.00154 0
M  V30 906 H 87.348 -1.69252 -3.93766 0
M  V30 907 H 91.532 -2.63608 -4.20505 0
M  V30 908 H 86.788 -3.98046 -4.64079 0
M  V30 909 H 90.962 -4.92703 -4.92155 0
M  V30 910 H 88.589 -5.60438 -5.13627 0
M  V30 911 N 90.1641 1.46063 -0.591896 0
M  V30 912 C 91.3921 2.06717 -0.0868936 0
M  V30 913 C 91.8071 1.43916 1.22203 0
M  V30 914 O 91.1641 0.547698 1.74088 0
M  V30 915 C 91.2151 3.6142 0.0758725 0
M  V30 916 O 90.9361 4.21874 -1.18126 0
M  V30 917 C 92.4371 4.39025 0.61416 0
M  V30 918 H 89.6571 0.668162 -0.0616518 0
M  V30 919 H 92.2011 1.8755 -0.815175 0
M  V30 920 H 90.3561 3.79983 0.754413 0
M  V30 921 H 90.7701 5.14861 -1.00092 0
M  V30 922 H 92.2441 5.4783 0.677193 0
M  V30 923 H 92.7211 4.07708 1.63312 0
M  V30 924 H 93.3271 4.2529 -0.0298142 0
M  V30 925 N 91.6422 0.330177 1.54103 0
M  V30 926 C 92.5722 -0.525353 2.27513 0
M  V30 927 C 93.5532 -1.11383 1.2856 0
M  V30 928 O 94.7382 -1.13773 1.57383 0
M  V30 929 C 91.8682 -1.6831 3.03791 0
M  V30 930 C 90.8222 -1.2236 4.10137 0
M  V30 931 C 90.1482 -2.46882 4.74293 0
M  V30 932 C 91.4482 -0.333697 5.21233 0
M  V30 933 H 93.1422 0.087013 2.99274 0
M  V30 934 H 90.6882 0.0432893 1.43935 0
M  V30 935 H 92.6412 -2.28795 3.5388 0
M  V30 936 H 91.3652 -2.32216 2.29659 0
M  V30 937 H 90.0242 -0.64165 3.60941 0
M  V30 938 H 89.6722 -3.09165 3.96769 0
M  V30 939 H 89.3722 -2.16825 5.46133 0
M  V30 940 H 90.8962 -3.08117 5.27159 0
M  V30 941 H 92.3102 -0.845013 5.67038 0
M  V30 942 H 90.7072 -0.125612 5.99969 0
M  V30 943 H 91.7772 0.633724 4.80741 0
M  V30 944 N 93.1203 -1.57491 0.0584922 0
M  V30 945 C 94.0523 -2.08916 -0.942694 0
M  V30 946 C 95.0653 -1.0185 -1.27006 0
M  V30 947 O 96.2543 -1.29398 -1.22957 0
M  V30 948 C 93.3543 -2.52341 -2.26224 0
M  V30 949 C 92.5273 -3.82827 -2.1157 0
M  V30 950 C 91.5863 -4.12487 -3.26712 0
M  V30 951 O 90.6123 -4.82295 -3.02292 0
M  V30 952 N 91.8143 -3.64978 -4.5141 0
M  V30 953 H 94.5793 -2.95437 -0.503722 0
M  V30 954 H 92.1403 -1.61397 -0.12757 0
M  V30 955 H 94.1323 -2.69254 -3.02133 0
M  V30 956 H 92.7023 -1.7103 -2.61663 0
M  V30 957 H 91.9223 -3.75425 -1.20208 0
M  V30 958 H 93.2103 -4.68263 -1.99015 0
M  V30 959 H 92.6083 -3.08558 -4.7414 0
M  V30 960 H 91.1653 -3.87115 -5.2439 0
M  V30 961 N 94.5984 0.214957 -1.56127 0
M  V30 962 C 96.0094 0.781386 -1.69562 0
M  V30 963 C 96.3604 1.84707 -0.66165 0
M  V30 964 O 95.4854 2.156 0.185927 0
M  V30 965 C 96.0804 1.42411 -3.07416 0
M  V30 966 C 94.6394 1.93786 -3.22683 0
M  V30 967 C 93.7864 0.800438 -2.65496 0
M  V30 968 H 96.7374 -0.00980633 -1.58697 0
M  V30 969 H 96.7584 2.29309 -3.0364 0
M  V30 970 H 96.2704 0.64826 -3.82648 0
M  V30 971 H 94.3714 2.74152 -2.52332 0
M  V30 972 H 94.4844 2.1133 -4.29973 0
M  V30 973 H 92.8484 1.2095 -2.2415 0
M  V30 974 H 93.6314 0.0371471 -3.4328 0
M  V30 975 N 96.0765 1.50051 0.48192 0
M  V30 976 C 97.4925 1.37237 0.814756 0
M  V30 977 C 97.6925 0.420109 1.97072 0
M  V30 978 O 96.7485 -0.141246 2.52105 0
M  V30 979 C 98.0615 2.78375 1.13701 0
M  V30 980 C 99.6095 2.87213 1.2441 0
M  V30 981 C 100.084 4.29161 1.59954 0
M  V30 982 N 101.575 4.32061 1.66967 0
M  V30 983 C 102.31 5.38879 1.95952 0
M  V30 984 N 101.806 6.55918 2.23031 0
M  V30 985 N 103.599 5.26312 1.97363 0
M  V30 986 H 95.7505 2.10546 -0.28005 0
M  V30 987 H 98.0135 0.945921 -0.0627454 0
M  V30 988 H 97.7195 3.49845 0.360787 0
M  V30 989 H 97.5935 3.14941 2.07586 0
M  V30 990 H 99.9805 2.15969 2.01101 0
M  V30 991 H 100.061 2.54204 0.285299 0
M  V30 992 H 99.7055 5.00938 0.838067 0
M  V30 993 H 99.6355 4.59648 2.56966 0
M  V30 994 H 102.126 3.47661 1.48123 0
M  V30 995 H 102.439 7.33139 2.44391 0
M  V30 996 H 100.784 6.59112 2.20447 0
M  V30 997 H 103.975 4.33876 1.75697 0
M  V30 998 H 104.148 6.09649 2.19618 0
M  V30 999 N 97.5546 -0.734337 1.39446 0
M  V30 1000 C 98.9656 -1.31264 1.32766 0
M  V30 1001 C 99.3166 -1.96198 -0.00767497 0
M  V30 1002 O 98.4416 -1.96346 -0.909796 0
M  V30 1003 C 99.0366 -2.38682 2.4045 0
M  V30 1004 C 97.5956 -2.92184 2.37288 0
M  V30 1005 C 96.7426 -1.6576 2.22304 0
M  V30 1006 H 99.6936 -0.531799 1.49525 0
M  V30 1007 H 99.7146 -3.19087 2.07276 0
M  V30 1008 H 99.2266 -1.91392 3.37625 0
M  V30 1009 H 97.3276 -3.43752 1.43754 0
M  V30 1010 H 97.4406 -3.45253 3.3217 0
M  V30 1011 H 95.8046 -1.9012 1.69489 0
M  V30 1012 H 96.5876 -1.20521 3.21449 0
M  V30 1013 N 99.0327 -1.24633 -0.964593 0
M  V30 1014 C 100.258 -1.11596 -1.74818 0
M  V30 1015 C 100.683 0.32723 -1.85232 0
M  V30 1016 O 100.041 1.23695 -1.32549 0
M  V30 1017 C 100.089 -1.76397 -3.1451 0
M  V30 1018 O 99.1927 -1.03685 -3.99153 0
M  V30 1019 H 98.5337 -0.390196 -0.537255 0
M  V30 1020 H 101.064 -1.65002 -1.20977 0
M  V30 1021 H 101.074 -1.8228 -3.65018 0
M  V30 1022 H 99.7487 -2.81401 -3.06246 0
M  V30 1023 H 98.3257 -1.05611 -3.57632 0
M  V30 1024 N 100.511 1.16574 -1.06058 0
M  V30 1025 C 101.474 2.19085 -0.673392 0
M  V30 1026 C 102.474 1.5835 0.279648 0
M  V30 1027 O 103.664 1.74088 0.0623488 0
M  V30 1028 C 100.796 3.40899 0.00954234 0
M  V30 1029 H 101.989 2.54853 -1.58081 0
M  V30 1030 H 99.5418 1.30808 -0.855516 0
M  V30 1031 H 100.277 3.10684 0.929826 0
M  V30 1032 H 100.062 3.86233 -0.67573 0
M  V30 1033 H 101.552 4.1675 0.266245 0
M  V30 1034 N 101.989 0.842826 1.3317 0
M  V30 1035 C 102.952 0.284065 2.27433 0
M  V30 1036 C 103.952 -0.54948 1.5112 0
M  V30 1037 O 105.142 -0.362699 1.70382 0
M  V30 1038 C 102.274 -0.599384 3.35589 0
M  V30 1039 H 103.467 1.11589 2.78366 0
M  V30 1040 H 101.02 0.616221 1.4364 0
M  V30 1041 H 101.755 -1.45349 2.89904 0
M  V30 1042 H 101.54 -0.00291266 3.921 0
M  V30 1043 H 103.03 -0.983488 4.05854 0
M  V30 1044 N 103.467 -1.45747 0.599634 0
M  V30 1045 C 104.883 -1.57424 0.26264 0
M  V30 1046 C 105.083 -1.59222 -1.23493 0
M  V30 1047 O 104.139 -1.51825 -2.01756 0
M  V30 1048 C 105.452 -2.86061 0.926795 0
M  V30 1049 C 107 -2.99722 0.901967 0
M  V30 1050 C 107.475 -4.31119 1.54598 0
M  V30 1051 N 108.966 -4.37858 1.5111 0
M  V30 1052 C 109.701 -5.3818 1.97863 0
M  V30 1053 N 109.197 -6.45083 2.52666 0
M  V30 1054 N 110.99 -5.29487 1.88679 0
M  V30 1055 H 103.141 -1.42823 1.57211 0
M  V30 1056 H 105.404 -0.68235 0.658105 0
M  V30 1057 H 105.11 -2.90605 1.98095 0
M  V30 1058 H 104.984 -3.74563 0.445238 0
M  V30 1059 H 107.371 -2.9475 -0.143617 0
M  V30 1060 H 107.452 -2.12652 1.42171 0
M  V30 1061 H 107.096 -4.36849 2.59085 0
M  V30 1062 H 107.026 -5.16992 1.00132 0
M  V30 1063 H 109.517 -3.61209 1.11068 0
M  V30 1064 H 109.83 -7.17869 2.86155 0
M  V30 1065 H 108.175 -6.45856 2.56701 0
M  V30 1066 H 111.366 -4.44877 1.4561 0
M  V30 1067 H 111.539 -6.07524 2.25429 0
M  V30 1068 N 104.945 -0.338344 -1.53925 0
M  V30 1069 C 106.222 0.314774 -1.93051 0
M  V30 1070 C 106.602 1.68669 -1.26941 0
M  V30 1071 O 105.95 2.24636 -0.418445 0
M  V30 1072 C 106.16 0.392249 -3.46789 0
M  V30 1073 C 107.508 0.645554 -4.19664 0
M  V30 1074 O 108.532 0.474575 -3.53024 0
M  V30 1075 O 107.391 0.976408 -5.37707 0
M  V30 1076 H 104.485 0.182598 -0.80659 0
M  V30 1077 H 107.031 -0.389141 -1.65178 0
M  V30 1078 H 105.803 -0.570702 -3.87116 0
M  V30 1079 H 105.426 1.14316 -3.80812 0
M  V30 1080 N 106.423 1.57458 -0.0668435 0
M  V30 1081 C 107.386 2.11323 0.887422 0
M  V30 1082 C 108.386 1.03618 1.22964 0
M  V30 1083 O 109.576 1.29626 1.16373 0
M  V30 1084 C 106.708 2.61048 2.19242 0
M  V30 1085 H 107.901 2.96942 0.420194 0
M  V30 1086 H 105.454 1.55239 0.181793 0
M  V30 1087 H 106.189 1.78868 2.70512 0
M  V30 1088 H 105.974 3.39769 1.95702 0
M  V30 1089 H 107.464 3.02814 2.87565 0
M  V30 1090 N 107.901 -0.206675 1.56239 0
M  V30 1091 C 109.312 -0.772383 1.69974 0
M  V30 1092 C 109.663 -1.84353 0.671436 0
M  V30 1093 O 108.788 -2.15695 -0.174491 0
M  V30 1094 C 109.383 -1.40779 3.08167 0
M  V30 1095 C 107.942 -1.92072 3.23706 0
M  V30 1096 C 107.089 -0.786347 2.65917 0
M  V30 1097 H 110.04 0.0182223 1.5869 0
M  V30 1098 H 110.061 -2.27696 3.04852 0
M  V30 1099 H 109.573 -0.627958 3.82986 0
M  V30 1100 H 107.674 -2.7281 2.53782 0
M  V30 1101 H 107.787 -2.09046 4.31087 0
M  V30 1102 H 106.151 -1.1976 2.24788 0
M  V30 1103 H 106.934 -0.0189416 3.43295 0
M  V30 1104 N 109.379 -1.50304 -0.473955 0
M  V30 1105 C 110.795 -1.37667 -0.807466 0
M  V30 1106 C 110.995 -0.430555 -1.96846 0
M  V30 1107 O 110.051 0.127874 -2.52176 0
M  V30 1108 C 111.364 -2.78974 -1.12223 0
M  V30 1109 C 112.912 -2.87868 -1.22885 0
M  V30 1110 C 113.387 -4.30003 -1.57676 0
M  V30 1111 N 114.878 -4.3294 -1.64673 0
M  V30 1112 C 115.613 -5.3991 -1.93091 0
M  V30 1113 N 115.109 -6.57092 -2.1955 0
M  V30 1114 N 116.902 -5.27351 -1.94569 0
M  V30 1115 H 109.053 -2.10394 0.291212 0
M  V30 1116 H 111.316 -0.945575 0.0677609 0
M  V30 1117 H 111.022 -3.50031 -0.342229 0
M  V30 1118 H 110.896 -3.16038 -2.05913 0
M  V30 1119 H 113.283 -2.17032 -1.99953 0
M  V30 1120 H 113.364 -2.54352 -0.271814 0
M  V30 1121 H 113.008 -5.01375 -0.81149 0
M  V30 1122 H 112.938 -4.61004 -2.54525 0
M  V30 1123 H 115.429 -3.48441 -1.46277 0
M  V30 1124 H 115.742 -7.34425 -2.405 0
M  V30 1125 H 114.087 -6.60272 -2.16948 0
M  V30 1126 H 117.278 -4.34801 -1.73394 0
M  V30 1127 H 117.451 -6.10805 -2.16381 0
M  V30 1128 N 110.857 0.726932 -1.39834 0
M  V30 1129 C 112.106 1.48214 -1.36805 0
M  V30 1130 C 112.419 1.95576 0.0305291 0
M  V30 1131 O 113.625 2.7088 0.183417 0
M  V30 1132 C 112.081 2.67854 -2.40379 0
M  V30 1133 C 111.689 2.27408 -3.85992 0
M  V30 1134 C 113.433 3.45641 -2.46439 0
M  V30 1135 C 111.34 3.43819 -4.81189 0
M  V30 1136 H 110.27 0.556606 -0.508631 0
M  V30 1137 H 112.921 0.792216 -1.65518 0
M  V30 1138 H 111.303 3.3896 -2.04749 0
M  V30 1139 H 112.477 1.63795 -4.30706 0
M  V30 1140 H 110.792 1.62692 -3.83302 0
M  V30 1141 H 113.389 4.32244 -3.14753 0
M  V30 1142 H 113.732 3.88669 -1.49139 0
M  V30 1143 H 114.265 2.8157 -2.81004 0
M  V30 1144 H 111.004 3.05834 -5.79781 0
M  V30 1145 H 110.524 4.06385 -4.41148 0
M  V30 1146 H 112.203 4.10043 -5.00474 0
M  V30 1147 N 112.336 1.25143 0.95797 0
M  V30 1148 C 113.283 1.05235 2.05412 0
M  V30 1149 C 114.253 -0.0374561 1.66058 0
M  V30 1150 O 115.438 0.119073 1.90428 0
M  V30 1151 C 112.578 0.673589 3.38462 0
M  V30 1152 C 111.691 1.8379 3.90954 0
M  V30 1153 C 110.826 1.40381 5.12315 0
M  V30 1154 C 109.865 2.53746 5.57027 0
M  V30 1155 N 109.002 2.11136 6.69601 0
M  V30 1156 H 113.842 1.99048 2.21774 0
M  V30 1157 H 111.379 0.991277 1.08683 0
M  V30 1158 H 113.337 0.434964 4.14926 0
M  V30 1159 H 111.967 -0.227554 3.21997 0
M  V30 1160 H 111.019 2.18992 3.11041 0
M  V30 1161 H 112.331 2.68937 4.20089 0
M  V30 1162 H 111.485 1.12464 5.96185 0
M  V30 1163 H 110.224 0.523015 4.84887 0
M  V30 1164 H 109.229 2.82412 4.71724 0
M  V30 1165 H 110.454 3.42398 5.86464 0
M  V30 1166 H 108.4 1.25468 6.4389 0
M  V30 1167 H 108.317 2.89832 6.98236 0
M  V30 1168 H 109.585 1.86385 7.56889 0
M  V30 1169 N 113.814 -1.1601 1.06675 0
M  V30 1170 C 115.06 -1.87145 0.796766 0
M  V30 1171 C 115.415 -1.8037 -0.669658 0
M  V30 1172 O 114.708 -1.21116 -1.48463 0
M  V30 1173 C 114.902 -3.35547 1.23057 0
M  V30 1174 C 114.731 -3.56769 2.73762 0
M  V30 1175 C 113.501 -3.72635 3.41279 0
M  V30 1176 C 115.699 -3.55166 3.7197 0
M  V30 1177 N 113.681 -3.81845 4.80695 0
M  V30 1178 C 115.052 -3.70406 4.97191 0
M  V30 1179 C 117.107 -3.384 3.65226 0
M  V30 1180 C 115.81 -3.70615 6.16471 0
M  V30 1181 C 117.836 -3.39904 4.83962 0
M  V30 1182 C 117.198 -3.55667 6.08013 0
M  V30 1183 H 113.297 -0.702267 0.344014 0
M  V30 1184 H 115.881 -1.39165 1.36166 0
M  V30 1185 H 114.052 -3.82159 0.693456 0
M  V30 1186 H 115.784 -3.94363 0.908844 0
M  V30 1187 H 112.539 -3.73121 2.91681 0
M  V30 1188 H 112.963 -3.90209 5.53232 0
M  V30 1189 H 117.605 -3.25138 2.70269 0
M  V30 1190 H 115.323 -3.82658 7.11757 0
M  V30 1191 H 118.909 -3.28169 4.80413 0
M  V30 1192 H 117.789 -3.56755 6.98352 0
M  V30 1193 N 115.292 -0.849877 -1.32721 0
M  V30 1194 C 116.52 -0.464754 -2.01613 0
M  V30 1195 C 116.935 0.937191 -1.63897 0
M  V30 1196 O 116.292 1.61081 -0.857856 0
M  V30 1197 C 116.343 -0.588638 -3.56675 0
M  V30 1198 O 116.064 -1.93535 -3.93034 0
M  V30 1199 C 117.565 -0.2019 -4.4284 0
M  V30 1200 H 114.785 -0.183215 -0.645502 0
M  V30 1201 H 117.329 -1.1455 -1.69407 0
M  V30 1202 H 115.484 0.0443159 -3.87375 0
M  V30 1203 H 115.898 -1.92871 -4.87751 0
M  V30 1204 H 117.372 -0.339599 -5.50954 0
M  V30 1205 H 117.849 0.857224 -4.30753 0
M  V30 1206 H 118.455 -0.809733 -4.17521 0
M  V30 1207 N 116.77 1.45427 -0.607355 0
M  V30 1208 C 117.717 2.3053 0.111625 0
M  V30 1209 C 118.687 1.4209 0.860216 0
M  V30 1210 O 119.872 1.71019 0.845998 0
M  V30 1211 C 117.012 3.26992 1.10319 0
M  V30 1212 C 116.125 4.30535 0.355493 0
M  V30 1213 C 115.26 5.14105 1.33676 0
M  V30 1214 C 114.299 6.09376 0.576862 0
M  V30 1215 N 113.436 6.85727 1.5074 0
M  V30 1216 H 118.276 2.91477 -0.620093 0
M  V30 1217 H 115.813 1.43631 -0.317594 0
M  V30 1218 H 117.771 3.81385 1.6912 0
M  V30 1219 H 116.401 2.67799 1.80232 0
M  V30 1220 H 115.453 3.78805 -0.348023 0
M  V30 1221 H 116.765 4.98235 -0.237423 0
M  V30 1222 H 115.919 5.72897 1.99684 0
M  V30 1223 H 114.658 4.46423 1.9636 0
M  V30 1224 H 113.663 5.49715 -0.0968519 0
M  V30 1225 H 114.888 6.79085 -0.0449341 0
M  V30 1226 H 112.834 6.20735 2.12189 0
M  V30 1227 H 112.751 7.49778 0.967913 0
M  V30 1228 H 114.019 7.4906 2.15706 0
M  V30 1229 N 118.248 0.346503 1.53744 0
M  V30 1230 C 119.494 -0.249473 2.0126 0
M  V30 1231 C 119.827 -1.49965 1.23386 0
M  V30 1232 O 119.102 -1.91811 0.32229 0
M  V30 1233 C 119.385 -0.560643 3.55709 0
M  V30 1234 C 119.238 0.701836 4.44291 0
M  V30 1235 C 120.557 -1.36905 4.18264 0
M  V30 1236 H 117.676 -0.0891987 0.731582 0
M  V30 1237 H 120.318 0.467624 1.84156 0
M  V30 1238 H 118.468 -1.17156 3.70414 0
M  V30 1239 H 120.14 1.33974 4.41417 0
M  V30 1240 H 118.383 1.32612 4.13033 0
M  V30 1241 H 119.054 0.43933 5.50249 0
M  V30 1242 H 121.53 -0.852448 4.07275 0
M  V30 1243 H 120.406 -1.55553 5.26398 0
M  V30 1244 H 120.667 -2.37203 3.73078 0
M  V30 1245 N 119.726 -1.57421 0.075193 0
M  V30 1246 C 121.142 -1.57099 -0.281444 0
M  V30 1247 C 121.342 -1.08486 -1.69803 0
M  V30 1248 O 120.398 -0.752279 -2.41033 0
M  V30 1249 C 121.711 -3.00571 -0.0880041 0
M  V30 1250 C 123.259 -3.12605 -0.157281 0
M  V30 1251 C 123.734 -4.57999 0.0079207 0
M  V30 1252 N 125.225 -4.63176 -0.0475725 0
M  V30 1253 C 125.96 -5.73373 0.0557876 0
M  V30 1254 N 125.456 -6.92473 0.21286 0
M  V30 1255 N 127.249 -5.621 -0.00152098 0
M  V30 1256 H 119.4 -1.87335 1.00098 0
M  V30 1257 H 121.663 -0.86377 0.390646 0
M  V30 1258 H 121.369 -3.40262 0.889629 0
M  V30 1259 H 121.243 -3.67754 -0.838875 0
M  V30 1260 H 123.63 -2.72798 -1.1254 0
M  V30 1261 H 123.711 -2.48053 0.62475 0
M  V30 1262 H 123.355 -4.98496 0.972824 0
M  V30 1263 H 123.285 -5.20586 -0.793556 0
M  V30 1264 H 125.776 -3.7753 -0.167244 0
M  V30 1265 H 126.089 -7.72279 0.283781 0
M  V30 1266 H 124.434 -6.94556 0.248267 0
M  V30 1267 H 127.625 -4.67938 -0.122958 0
M  V30 1268 H 127.798 -6.47948 0.0824844 0
M  V30 1269 N 121.204 0.198386 -1.56346 0
M  V30 1270 C 122.432 0.935572 -1.84539 0
M  V30 1271 C 122.847 1.76989 -0.657281 0
M  V30 1272 O 122.204 1.78626 0.374043 0
M  V30 1273 C 122.255 1.8344 -3.11499 0
M  V30 1274 O 121.976 1.03377 -4.25728 0
M  V30 1275 C 123.477 2.68355 -3.52846 0
M  V30 1276 H 120.697 0.273126 -0.612897 0
M  V30 1277 H 123.241 0.20663 -2.03453 0
M  V30 1278 H 121.396 2.51701 -2.94492 0
M  V30 1279 H 121.81 1.64599 -4.98003 0
M  V30 1280 H 123.284 3.27085 -4.44657 0
M  V30 1281 H 123.761 3.41901 -2.75681 0
M  V30 1282 H 124.367 2.05471 -3.72373 0
M  V30 1283 N 122.682 1.50554 0.465978 0
M  V30 1284 C 123.645 1.69233 1.54574 0
M  V30 1285 C 124.645 0.562901 1.50626 0
M  V30 1286 O 125.835 0.830016 1.53155 0
M  V30 1287 C 122.967 1.7223 2.94193 0
M  V30 1288 H 124.16 2.65571 1.39327 0
M  V30 1289 H 121.713 1.40111 0.692711 0
M  V30 1290 H 122.448 0.77603 3.14878 0
M  V30 1291 H 122.233 2.54285 2.98466 0
M  V30 1292 H 123.723 1.88618 3.72576 0
M  V30 1293 N 124.16 -0.719506 1.40217 0
M  V30 1294 C 125.385 -1.51371 1.4178 0
M  V30 1295 C 125.81 -1.88091 0.0182355 0
M  V30 1296 O 125.168 -1.52997 -0.972707 0
M  V30 1297 C 125.216 -2.768 2.31115 0
M  V30 1298 O 124.32 -3.73349 1.7517 0
M  V30 1299 H 123.661 -0.456529 0.482159 0
M  V30 1300 H 126.191 -0.88644 1.844 0
M  V30 1301 H 126.201 -3.25371 2.46167 0
M  V30 1302 H 124.876 -2.49407 3.3282 0
M  V30 1303 H 123.453 -3.32179 1.69444 0
M  V30 1304 N 125.638 -1.25649 -0.95132 0
M  V30 1305 C 126.886 -1.10375 -1.69298 0
M  V30 1306 C 127.207 0.355339 -1.91735 0
M  V30 1307 O 126.477 1.25188 -1.50681 0
M  V30 1308 H 125.057 -0.405461 -0.627384 0
M  V30 1309 H 127.719 -1.57823 -1.14358 0
M  V30 1310 H 126.815 -1.61465 -2.67087 0
M  V30 1311 N 127.117 1.15442 -1.07289 0
M  V30 1312 C 128.049 2.19773 -0.650585 0
M  V30 1313 C 129.062 1.60076 0.296572 0
M  V30 1314 O 130.251 1.78293 0.0859905 0
M  V30 1315 C 127.351 3.38838 0.0650398 0
M  V30 1316 C 126.524 4.2808 -0.898141 0
M  V30 1317 C 125.583 5.2574 -0.219926 0
M  V30 1318 O 124.609 5.62654 -0.860773 0
M  V30 1319 N 125.811 5.71205 1.03466 0
M  V30 1320 H 128.576 2.56622 -1.54808 0
M  V30 1321 H 126.137 1.30551 -0.957494 0
M  V30 1322 H 128.129 4.01222 0.529415 0
M  V30 1323 H 126.699 3.00409 0.864466 0
M  V30 1324 H 125.919 3.62804 -1.54165 0
M  V30 1325 H 127.207 4.84577 -1.5512 0
M  V30 1326 H 126.605 5.43325 1.57526 0
M  V30 1327 H 125.162 6.35633 1.44272 0
M  V30 1328 N 128.595 0.856903 1.32268 0
M  V30 1329 C 130.011 0.547061 1.49931 0
M  V30 1330 C 130.211 -0.921781 1.7918 0
M  V30 1331 O 129.267 -1.70469 1.8627 0
M  V30 1332 C 130.58 1.43599 2.64196 0
M  V30 1333 C 132.128 1.43665 2.78081 0
M  V30 1334 C 132.603 2.31085 3.95428 0
M  V30 1335 N 134.094 2.28893 4.02694 0
M  V30 1336 C 134.829 2.93262 4.92732 0
M  V30 1337 N 134.325 3.66751 5.87763 0
M  V30 1338 N 136.118 2.82638 4.85873 0
M  V30 1339 H 128.269 1.8075 1.11549 0
M  V30 1340 H 130.532 0.772144 0.549997 0
M  V30 1341 H 130.238 2.48058 2.49319 0
M  V30 1342 H 130.112 1.12502 3.60032 0
M  V30 1343 H 132.499 0.399701 2.92381 0
M  V30 1344 H 132.58 1.7878 1.82952 0
M  V30 1345 H 132.224 3.34849 3.81888 0
M  V30 1346 H 132.154 1.93302 4.89839 0
M  V30 1347 H 134.645 1.75466 3.34694 0
M  V30 1348 H 134.958 4.13027 6.53168 0
M  V30 1349 H 133.303 3.70859 5.87783 0
M  V30 1350 H 136.494 2.24774 4.10602 0
M  V30 1351 H 136.667 3.33084 5.55841 0
M  V30 1352 N 130.073 -1.45103 0.615059 0
M  V30 1353 C 131.005 -2.28786 -0.13762 0
M  V30 1354 C 132.018 -1.40376 -0.824525 0
M  V30 1355 O 133.207 -1.64681 -0.688662 0
M  V30 1356 C 130.307 -3.16322 -1.21628 0
M  V30 1357 C 129.48 -4.33054 -0.615039 0
M  V30 1358 C 128.539 -5.01743 -1.58556 0
M  V30 1359 O 127.565 -5.58293 -1.10895 0
M  V30 1360 N 128.767 -5.01714 -2.91998 0
M  V30 1361 H 131.532 -2.94025 0.580483 0
M  V30 1362 H 129.093 -1.55373 0.45507 0
M  V30 1363 H 131.085 -3.59139 -1.86552 0
M  V30 1364 H 129.655 -2.52943 -1.83681 0
M  V30 1365 H 128.875 -3.93627 0.21245 0
M  V30 1366 H 130.163 -5.08431 -0.193704 0
M  V30 1367 H 129.561 -4.57075 -3.33316 0
M  V30 1368 H 128.118 -5.48371 -3.52325 0
M  V30 1369 N 131.551 -0.354651 -1.53558 0
M  V30 1370 C 132.828 0.294281 -1.93374 0
M  V30 1371 C 133.208 1.67313 -1.28723 0
M  V30 1372 O 132.556 2.24179 -0.442247 0
M  V30 1373 C 132.766 0.355445 -3.47185 0
M  V30 1374 C 134.114 0.601007 -4.20325 0
M  V30 1375 O 135.138 0.437106 -3.53508 0
M  V30 1376 O 133.997 0.919322 -5.38712 0
M  V30 1377 H 131.091 0.174033 -0.808481 0
M  V30 1378 H 133.637 -0.406638 -1.64756 0
M  V30 1379 H 132.409 -0.611729 -3.86489 0
M  V30 1380 H 132.032 1.1027 -3.82003 0
M  V30 1381 N 133.029 1.57378 -0.0835403 0
M  V30 1382 C 133.959 2.1641 0.87686 0
M  V30 1383 C 134.94 1.09429 1.30228 0
M  V30 1384 O 136.125 1.37516 1.37124 0
M  V30 1385 C 133.255 2.73517 2.14022 0
M  V30 1386 C 132.209 3.85769 1.85381 0
M  V30 1387 C 131.535 4.29529 3.18448 0
M  V30 1388 C 132.835 5.09486 1.14984 0
M  V30 1389 H 134.529 2.96914 0.385059 0
M  V30 1390 H 132.075 1.42823 0.18377 0
M  V30 1391 H 134.028 3.13463 2.81636 0
M  V30 1392 H 132.752 1.90252 2.65465 0
M  V30 1393 H 131.411 3.46345 1.20169 0
M  V30 1394 H 131.059 3.43169 3.67755 0
M  V30 1395 H 130.759 5.05204 3.00071 0
M  V30 1396 H 132.283 4.72099 3.8724 0
M  V30 1397 H 133.697 5.46674 1.72687 0
M  V30 1398 H 132.094 5.90515 1.06826 0
M  V30 1399 H 133.164 4.84724 0.130749 0
M  V30 1400 N 134.507 -0.190092 1.56449 0
M  V30 1401 C 135.918 -0.754312 1.70784 0
M  V30 1402 C 136.269 -1.83631 0.690951 0
M  V30 1403 O 135.394 -2.15868 -0.151604 0
M  V30 1404 C 135.989 -1.37503 3.09642 0
M  V30 1405 C 134.548 -1.88628 3.25725 0
M  V30 1406 C 133.695 -0.758098 2.66736 0
M  V30 1407 H 136.646 0.0350524 1.58661 0
M  V30 1408 H 136.667 -2.2445 3.0725 0
M  V30 1409 H 136.179 -0.587302 3.83631 0
M  V30 1410 H 134.28 -2.70103 2.56661 0
M  V30 1411 H 134.393 -2.04462 4.3328 0
M  V30 1412 H 132.757 -1.17369 2.26046 0
M  V30 1413 H 133.54 0.0174705 3.43296 0
M  V30 1414 N 135.985 -1.50799 -0.457987 0
M  V30 1415 C 137.234 -1.6168 -1.20593 0
M  V30 1416 C 137.547 -0.32888 -1.92815 0
M  V30 1417 O 138.753 -0.316773 -2.69646 0
M  V30 1418 C 137.209 -2.8545 -2.19195 0
M  V30 1419 C 136.817 -4.21168 -1.52715 0
M  V30 1420 C 138.561 -3.05681 -2.94549 0
M  V30 1421 C 136.468 -5.3611 -2.4968 0
M  V30 1422 H 135.398 -0.602134 -0.453818 0
M  V30 1423 H 138.049 -1.77245 -0.475031 0
M  V30 1424 H 136.431 -2.63472 -2.95632 0
M  V30 1425 H 137.605 -4.53449 -0.819775 0
M  V30 1426 H 135.92 -4.06648 -0.895922 0
M  V30 1427 H 138.517 -3.88727 -3.67145 0
M  V30 1428 H 138.86 -2.17929 -3.54701 0
M  V30 1429 H 139.393 -3.27901 -2.25223 0
M  V30 1430 H 136.132 -6.26057 -1.94249 0
M  V30 1431 H 135.652 -5.0823 -3.18532 0
M  V30 1432 H 137.331 -5.6722 -3.11241 0
M  V30 1433 N 137.463 0.71206 -1.40597 0
M  V30 1434 C 138.393 1.83889 -1.43899 0
M  V30 1435 C 139.374 1.67442 -0.299504 0
M  V30 1436 O 140.559 1.87421 -0.508624 0
M  V30 1437 C 137.689 3.21877 -1.30431 0
M  V30 1438 C 136.643 3.53002 -2.42019 0
M  V30 1439 C 135.969 4.90172 -2.13626 0
M  V30 1440 C 137.269 3.53643 -3.84362 0
M  V30 1441 H 138.963 1.81383 -2.38203 0
M  V30 1442 H 136.509 0.871237 -1.14654 0
M  V30 1443 H 138.462 4.00404 -1.31357 0
M  V30 1444 H 137.186 3.24968 -0.326049 0
M  V30 1445 H 135.845 2.76818 -2.40349 0
M  V30 1446 H 135.493 4.89869 -1.14182 0
M  V30 1447 H 135.193 5.11962 -2.88389 0
M  V30 1448 H 136.717 5.71028 -2.1624 0
M  V30 1449 H 138.131 4.22203 -3.87837 0
M  V30 1450 H 136.528 3.86961 -4.58673 0
M  V30 1451 H 137.598 2.52954 -4.13693 0
M  V30 1452 N 138.941 1.26152 0.944643 0
M  V30 1453 C 140.187 1.11657 1.69294 0
M  V30 1454 C 140.52 -0.339926 1.91202 0
M  V30 1455 O 139.795 -1.24994 1.49019 0
M  V30 1456 C 140.078 1.88236 3.06984 0
M  V30 1457 C 139.931 3.41772 2.92424 0
M  V30 1458 C 141.25 1.67343 4.07043 0
M  V30 1459 H 138.369 0.407004 0.614424 0
M  V30 1460 H 141.011 1.55106 1.09737 0
M  V30 1461 H 139.161 1.51308 3.57824 0
M  V30 1462 H 140.833 3.88433 2.48832 0
M  V30 1463 H 139.076 3.68974 2.28124 0
M  V30 1464 H 139.747 3.90579 3.90067 0
M  V30 1465 H 142.223 1.99509 3.65151 0
M  V30 1466 H 141.099 2.23346 5.01406 0
M  V30 1467 H 141.36 0.617158 4.37771 0
M  V30 1468 N 140.419 -1.14872 1.07899 0
M  V30 1469 C 141.382 -2.17986 0.708161 0
M  V30 1470 C 142.382 -1.58775 -0.25442 0
M  V30 1471 O 143.572 -1.74166 -0.034645 0
M  V30 1472 C 140.704 -3.40871 0.0446929 0
M  V30 1473 H 141.897 -2.52306 1.62116 0
M  V30 1474 H 139.45 -1.2943 0.876218 0
M  V30 1475 H 140.185 -3.12124 -0.880281 0
M  V30 1476 H 139.97 -3.8511 0.737091 0
M  V30 1477 H 141.46 -4.17121 -0.19991 0
M  V30 1478 N 141.898 -0.863906 -1.31812 0
M  V30 1479 C 142.845 -0.313303 -2.28664 0
M  V30 1480 C 143.815 0.584868 -1.55462 0
M  V30 1481 O 145 0.517805 -1.83639 0
M  V30 1482 C 142.14 0.48441 -3.41683 0
M  V30 1483 C 141.253 -0.440594 -4.29747 0
M  V30 1484 C 140.388 0.370652 -5.29905 0
M  V30 1485 C 139.427 -0.551164 -6.09613 0
M  V30 1486 N 138.564 0.223462 -7.01744 0
M  V30 1487 H 143.404 -1.14444 -2.75148 0
M  V30 1488 H 140.941 -0.575769 -1.35364 0
M  V30 1489 H 142.899 0.962627 -4.05943 0
M  V30 1490 H 141.529 1.28029 -2.96325 0
M  V30 1491 H 140.581 -1.03724 -3.65986 0
M  V30 1492 H 141.893 -1.14767 -4.85417 0
M  V30 1493 H 141.047 0.911638 -5.99812 0
M  V30 1494 H 139.786 1.11105 -4.74876 0
M  V30 1495 H 138.791 -1.10396 -5.38603 0
M  V30 1496 H 140.016 -1.29032 -6.66729 0
M  V30 1497 H 137.962 0.946787 -6.49132 0
M  V30 1498 H 137.879 -0.424399 -7.54808 0
M  V30 1499 H 139.147 0.745876 -7.75923 0
M  V30 1500 N 143.376 1.44774 -0.622745 0
M  V30 1501 C 144.653 1.95522 -0.0551974 0
M  V30 1502 C 145.033 1.5649 1.41683 0
M  V30 1503 O 144.381 0.834848 2.12703 0
M  V30 1504 C 144.591 3.4796 -0.269242 0
M  V30 1505 C 145.939 4.24306 -0.158014 0
M  V30 1506 O 146.963 3.55637 -0.200162 0
M  V30 1507 O 145.822 5.46471 -0.0558693 0
M  V30 1508 H 142.916 0.826556 0.0271015 0
M  V30 1509 H 145.462 1.54866 -0.693864 0
M  V30 1510 H 144.234 3.6939 -1.29099 0
M  V30 1511 H 143.857 3.95543 0.403966 0
M  V30 1512 N 144.854 0.36279 1.53368 0
M  V30 1513 C 145.802 -0.500155 2.27159 0
M  V30 1514 C 146.796 -1.08575 1.3003 0
M  V30 1515 O 148.002 -1.02927 1.47668 0
M  V30 1516 H 144.377 -0.180009 0.730138 0
M  V30 1517 H 146.348 0.14401 2.98052 0
M  V30 1518 C 145.097 -1.62937 3.07159 0
M  V30 1519 H 144.42 -1.18806 3.8174 0
M  V30 1520 H 145.86 -2.20795 3.61975 0
M  V30 1521 C 144.319 -2.57007 2.17829 0
M  V30 1522 O 144.849 -3.59752 1.78721 0
M  V30 1523 N 143.055 -2.26131 1.82518 0
M  V30 1524 H 142.602 -1.42616 2.14519 0
M  V30 1525 H 142.56 -2.89327 1.23034 0
M  V30 1526 N 146.332 -1.57332 0.0918853 0
M  V30 1527 C 147.578 -1.94524 -0.573425 0
M  V30 1528 C 147.911 -0.973578 -1.68033 0
M  V30 1529 O 147.186 -0.00609226 -1.94499 0
M  V30 1530 C 147.469 -3.41858 -1.13161 0
M  V30 1531 C 147.322 -4.4979 -0.0299747 0
M  V30 1532 C 148.641 -3.90435 -2.03098 0
M  V30 1533 H 145.76 -0.70734 -0.206975 0
M  V30 1534 H 148.402 -1.89309 0.161942 0
M  V30 1535 H 146.552 -3.46433 -1.7583 0
M  V30 1536 H 148.224 -4.57327 0.604112 0
M  V30 1537 H 146.467 -4.291 0.636833 0
M  V30 1538 H 147.138 -5.50069 -0.461287 0
M  V30 1539 H 149.614 -3.87992 -1.50338 0
M  V30 1540 H 148.49 -4.94097 -2.39081 0
M  V30 1541 H 148.751 -3.29541 -2.94712 0
M  V30 1542 N 147.81 0.181792 -1.56548 0
M  V30 1543 C 149.056 0.901431 -1.81665 0
M  V30 1544 C 149.389 1.82347 -0.668075 0
M  V30 1545 O 148.664 1.91669 0.330615 0
M  V30 1546 C 148.947 1.70618 -3.17115 0
M  V30 1547 C 148.8 0.807964 -4.42484 0
M  V30 1548 C 150.119 2.67605 -3.49393 0
M  V30 1549 H 147.238 0.32627 -0.660846 0
M  V30 1550 H 149.88 0.168134 -1.89255 0
M  V30 1551 H 148.03 2.33133 -3.10775 0
M  V30 1552 H 149.702 0.19649 -4.60881 0
M  V30 1553 H 147.945 0.115411 -4.33646 0
M  V30 1554 H 148.616 1.40632 -5.33785 0
M  V30 1555 H 151.092 2.15218 -3.56118 0
M  V30 1556 H 149.968 3.20985 -4.45264 0
M  V30 1557 H 150.229 3.47298 -2.73563 0
M  V30 1558 N 149.288 1.51039 0.449983 0
M  V30 1559 C 150.704 1.38934 0.785462 0
M  V30 1560 C 150.904 0.461817 1.96136 0
M  V30 1561 O 149.96 -0.0877389 2.52348 0
M  V30 1562 C 151.273 2.80724 1.0777 0
M  V30 1563 C 152.821 2.89787 1.1829 0
M  V30 1564 C 153.296 4.32457 1.50815 0
M  V30 1565 N 154.787 4.35505 1.57764 0
M  V30 1566 C 155.522 5.42914 1.84477 0
M  V30 1567 N 155.018 6.60502 2.09068 0
M  V30 1568 N 156.811 5.3038 1.86155 0
M  V30 1569 H 148.962 2.09904 -0.324647 0
M  V30 1570 H 151.225 0.944378 -0.0827957 0
M  V30 1571 H 150.931 3.50531 0.286498 0
M  V30 1572 H 150.805 3.19273 2.00859 0
M  V30 1573 H 153.192 2.20186 1.96474 0
M  V30 1574 H 153.273 2.54752 0.231314 0
M  V30 1575 H 152.917 5.02603 0.731622 0
M  V30 1576 H 152.847 4.64995 2.47158 0
M  V30 1577 H 155.338 3.50724 1.40715 0
M  V30 1578 H 155.651 7.38158 2.28785 0
M  V30 1579 H 153.996 6.63639 2.06416 0
M  V30 1580 H 157.187 4.37505 1.66454 0
M  V30 1581 H 157.36 6.1417 2.06637 0
M  V30 1582 N 150.766 -0.704594 1.40972 0
M  V30 1583 C 152.012 -1.46675 1.40051 0
M  V30 1584 C 152.345 -1.94199 0.00641102 0
M  V30 1585 O 151.62 -1.68916 -0.964235 0
M  V30 1586 C 151.903 -2.68505 2.39952 0
M  V30 1587 C 151.756 -2.26805 3.88432 0
M  V30 1588 C 153.075 -3.70686 2.37233 0
M  V30 1589 H 150.194 -0.532015 0.510028 0
M  V30 1590 H 152.836 -0.803255 1.72185 0
M  V30 1591 H 150.986 -3.25114 2.1268 0
M  V30 1592 H 152.658 -1.75592 4.26574 0
M  V30 1593 H 150.901 -1.58685 4.03734 0
M  V30 1594 H 151.572 -3.14181 4.53866 0
M  V30 1595 H 154.048 -3.23731 2.61415 0
M  V30 1596 H 152.924 -4.53553 3.09162 0
M  V30 1597 H 153.185 -4.19754 1.38777 0
M  V30 1598 N 152.244 -1.26651 -0.937939 0
M  V30 1599 C 153.207 -1.08546 -2.01867 0
M  V30 1600 C 154.207 -0.0327327 -1.60767 0
M  V30 1601 O 155.397 -0.276427 -1.71993 0
M  V30 1602 C 152.529 -0.651711 -3.34613 0
M  V30 1603 H 153.722 -2.04502 -2.1936 0
M  V30 1604 H 151.275 -1.09294 -1.11734 0
M  V30 1605 H 152.01 0.309696 -3.22818 0
M  V30 1606 H 151.795 -1.41189 -3.65798 0
M  V30 1607 H 153.285 -0.546973 -4.14002 0
M  V30 1608 N 153.722 1.14298 -1.08507 0
M  V30 1609 C 154.669 2.19414 -0.715965 0
M  V30 1610 C 155.639 1.63399 0.298326 0
M  V30 1611 O 156.824 1.89929 0.182101 0
M  V30 1612 C 153.964 3.44845 -0.132534 0
M  V30 1613 C 153.077 4.15007 -1.19973 0
M  V30 1614 C 152.212 5.28024 -0.580048 0
M  V30 1615 C 151.251 5.9002 -1.62921 0
M  V30 1616 N 150.388 6.94485 -1.03125 0
M  V30 1617 H 155.228 2.50336 -1.61666 0
M  V30 1618 H 152.765 1.2293 -0.807882 0
M  V30 1619 H 154.723 4.16601 0.223454 0
M  V30 1620 H 153.353 3.14403 0.731467 0
M  V30 1621 H 152.405 3.41629 -1.67313 0
M  V30 1622 H 153.717 4.57178 -1.99473 0
M  V30 1623 H 152.871 6.06455 -0.172364 0
M  V30 1624 H 151.61 4.87076 0.246603 0
M  V30 1625 H 150.615 5.10291 -2.04654 0
M  V30 1626 H 151.84 6.33042 -2.45835 0
M  V30 1627 H 149.786 6.55612 -0.225711 0
M  V30 1628 H 149.703 7.35148 -1.76334 0
M  V30 1629 H 150.971 7.7679 -0.649458 0
M  V30 1630 N 155.201 0.870884 1.31352 0
M  V30 1631 C 156.426 0.495957 2.01383 0
M  V30 1632 C 156.851 -0.904324 1.64935 0
M  V30 1633 O 156.209 -1.59687 0.858466 0
M  V30 1634 C 156.257 0.661433 3.54482 0
M  V30 1635 O 155.361 -0.298851 4.11316 0
M  V30 1636 H 154.702 0.197158 0.634054 0
M  V30 1637 H 157.232 1.17455 1.67527 0
M  V30 1638 H 157.242 0.555072 4.04207 0
M  V30 1639 H 155.917 1.68246 3.8035 0
M  V30 1640 H 154.494 -0.147368 3.72609 0
M  V30 1641 N 156.679 -1.44442 0.630414 0
M  V30 1642 C 157.925 -2.02894 0.143332 0
M  V30 1643 C 158.28 -1.48697 -1.22094 0
M  V30 1644 O 157.573 -0.661171 -1.79831 0
M  V30 1645 C 157.767 -3.57332 0.0697835 0
M  V30 1646 C 157.596 -4.26512 1.42539 0
M  V30 1647 C 156.366 -4.63516 2.01198 0
M  V30 1648 C 158.564 -4.57004 2.35907 0
M  V30 1649 N 156.546 -5.17661 3.30001 0
M  V30 1650 C 157.917 -5.12223 3.49324 0
M  V30 1651 C 159.972 -4.38955 2.34995 0
M  V30 1652 C 158.675 -5.51295 4.62024 0
M  V30 1653 C 160.701 -4.79075 3.46758 0
M  V30 1654 C 160.063 -5.34407 4.58899 0
M  V30 1655 H 156.162 -0.776041 0.0963523 0
M  V30 1656 H 158.746 -1.75945 0.833752 0
M  V30 1657 H 156.917 -3.83894 -0.589915 0
M  V30 1658 H 158.649 -4.02451 -0.42606 0
M  V30 1659 H 155.404 -4.47811 1.54151 0
M  V30 1660 H 155.828 -5.4921 3.95851 0
M  V30 1661 H 160.47 -3.95469 1.49545 0
M  V30 1662 H 158.188 -5.93736 5.48182 0
M  V30 1663 H 161.774 -4.66824 3.47227 0
M  V30 1664 H 160.654 -5.64878 5.4395 0
M  V30 1665 N 158.157 -0.370918 -1.53173 0
M  V30 1666 C 159.089 0.507823 -2.23503 0
M  V30 1667 C 160.102 1.04182 -1.251 0
M  V30 1668 O 161.291 0.947286 -1.5129 0
M  V30 1669 C 158.391 1.71447 -2.92334 0
M  V30 1670 C 157.564 1.31105 -4.17289 0
M  V30 1671 C 156.623 2.38035 -4.69282 0
M  V30 1672 O 155.649 2.00204 -5.32829 0
M  V30 1673 N 156.851 3.69697 -4.47554 0
M  V30 1674 H 159.616 -0.0946382 -2.99551 0
M  V30 1675 H 157.177 -0.196358 -1.60705 0
M  V30 1676 H 159.169 2.42469 -3.24023 0
M  V30 1677 H 157.739 2.22368 -2.19707 0
M  V30 1678 H 156.959 0.430462 -3.91843 0
M  V30 1679 H 158.247 1.0179 -4.98514 0
M  V30 1680 H 157.645 4.03205 -3.9679 0
M  V30 1681 H 156.202 4.36807 -4.8378 0
M  V30 1682 N 159.635 1.57281 -0.100228 0
M  V30 1683 C 160.883 1.94153 0.561157 0
M  V30 1684 C 161.204 0.983157 1.68401 0
M  V30 1685 O 160.474 0.0361132 1.95867 0
M  V30 1686 H 159.054 0.716791 0.210283 0
M  V30 1687 H 161.716 1.94202 -0.164765 0
M  V30 1688 H 160.812 2.96709 0.968008 0
M  V30 1689 N 161.113 -0.173488 1.56642 0
M  V30 1690 C 162.529 -0.525174 1.50712 0
M  V30 1691 C 162.729 -1.8476 0.804107 0
M  V30 1692 O 161.785 -2.49869 0.363574 0
M  V30 1693 C 163.098 -0.559937 2.95441 0
M  V30 1694 C 164.646 -0.647288 3.06234 0
M  V30 1695 C 165.121 -0.712963 4.52417 0
M  V30 1696 N 166.612 -0.775911 4.56655 0
M  V30 1697 C 167.347 -0.847264 5.67106 0
M  V30 1698 N 166.843 -0.879585 6.87194 0
M  V30 1699 N 168.636 -0.886117 5.55071 0
M  V30 1700 H 160.787 0.693681 2.00753 0
M  V30 1701 H 163.05 0.249841 0.914485 0
M  V30 1702 H 162.756 0.343049 3.50023 0
M  V30 1703 H 162.63 -1.40718 3.49969 0
M  V30 1704 H 165.017 -1.5407 2.51687 0
M  V30 1705 H 165.098 0.226586 2.54794 0
M  V30 1706 H 164.742 0.176183 5.07594 0
M  V30 1707 H 164.672 -1.60295 5.0161 0
M  V30 1708 H 167.163 -0.759304 3.70193 0
M  V30 1709 H 167.476 -0.935144 7.67121 0
M  V30 1710 H 165.821 -0.847898 6.89808 0
M  V30 1711 H 169.012 -0.857853 4.60172 0
M  V30 1712 H 169.185 -0.938263 6.41171 0
M  V30 1713 N 162.591 -1.51276 -0.441967 0
M  V30 1714 C 163.837 -1.63958 -1.19355 0
M  V30 1715 C 164.17 -0.352543 -1.90973 0
M  V30 1716 O 163.445 0.647627 -1.83401 0
M  V30 1717 C 163.728 -2.83979 -2.21422 0
M  V30 1718 C 163.581 -4.22646 -1.53918 0
M  V30 1719 C 164.9 -2.99521 -3.22451 0
M  V30 1720 H 162.019 -0.596709 -0.432559 0
M  V30 1721 H 164.661 -1.83748 -0.483398 0
M  V30 1722 H 162.811 -2.67237 -2.81987 0
M  V30 1723 H 164.483 -4.51045 -0.967256 0
M  V30 1724 H 162.726 -4.25558 -0.841615 0
M  V30 1725 H 163.397 -5.02609 -2.28229 0
M  V30 1726 H 165.873 -3.14944 -2.71937 0
M  V30 1727 H 164.749 -3.85072 -3.91166 0
M  V30 1728 H 165.01 -2.11391 -3.88287 0
M  V30 1729 N 164.069 0.697108 -1.41344 0
M  V30 1730 C 165.294 1.49096 -1.44171 0
M  V30 1731 C 165.719 1.88038 -0.0481568 0
M  V30 1732 O 165.077 1.54525 0.948243 0
M  V30 1733 C 165.125 2.73088 -2.3549 0
M  V30 1734 O 164.229 3.70514 -1.81088 0
M  V30 1735 H 163.57 0.448801 -0.489361 0
M  V30 1736 H 166.1 0.856992 -1.85787 0
M  V30 1737 H 166.11 3.21413 -2.51312 0
M  V30 1738 H 164.785 2.44081 -3.36745 0
M  V30 1739 H 163.362 3.29441 -1.74708 0
M  V30 1740 N 165.547 1.27147 0.931209 0
M  V30 1741 C 166.477 1.12081 2.04842 0
M  V30 1742 C 167.458 0.0232364 1.70084 0
M  V30 1743 O 168.643 0.197085 1.93197 0
M  V30 1744 C 165.773 0.76354 3.38803 0
M  V30 1745 C 164.727 1.81396 3.87659 0
M  V30 1746 C 164.053 1.31075 5.18385 0
M  V30 1747 C 165.353 3.21739 4.11438 0
M  V30 1748 H 167.047 2.05537 2.17703 0
M  V30 1749 H 164.593 0.989603 1.04608 0
M  V30 1750 H 166.546 0.644982 4.16435 0
M  V30 1751 H 165.27 -0.206727 3.25945 0
M  V30 1752 H 163.929 1.92136 3.12217 0
M  V30 1753 H 163.577 0.330037 5.01916 0
M  V30 1754 H 163.277 2.013 5.52044 0
M  V30 1755 H 164.801 1.20506 5.98591 0
M  V30 1756 H 166.215 3.14019 4.79651 0
M  V30 1757 H 164.612 3.89644 4.56397 0
M  V30 1758 H 165.682 3.67054 3.16859 0
M  V30 1759 N 167.025 -1.13721 1.09112 0
M  V30 1760 C 168.436 -1.6648 0.845068 0
M  V30 1761 C 168.787 -1.85911 -0.62701 0
M  V30 1762 O 167.912 -1.57556 -1.48341 0
M  V30 1763 C 168.507 -3.02413 1.52748 0
M  V30 1764 C 167.066 -3.52176 1.32849 0
M  V30 1765 C 166.213 -2.27492 1.58564 0
M  V30 1766 H 169.164 -0.976872 1.25072 0
M  V30 1767 H 169.185 -3.68223 0.958752 0
M  V30 1768 H 168.697 -2.88238 2.59885 0
M  V30 1769 H 166.798 -3.7156 0.278137 0
M  V30 1770 H 166.911 -4.32499 2.0611 0
M  V30 1771 H 165.275 -2.33923 1.00758 0
M  V30 1772 H 166.058 -2.15886 2.66924 0
M  V30 1773 N 168.503 -0.877838 -1.30888 0
M  V30 1774 C 169.728 -0.506629 -2.01117 0
M  V30 1775 C 170.153 0.895564 -1.65412 0
M  V30 1776 O 169.511 1.5923 -0.866922 0
M  V30 1777 C 169.559 -0.680223 -3.54126 0
M  V30 1778 O 168.663 0.277033 -4.11468 0
M  V30 1779 H 168.004 -0.200518 -0.633 0
M  V30 1780 H 170.534 -1.18342 -1.66902 0
M  V30 1781 H 170.544 -0.5765 -4.03907 0
M  V30 1782 H 169.219 -1.70261 -3.79452 0
M  V30 1783 H 167.796 0.127606 -3.72682 0
M  V30 1784 N 169.982 1.44106 -0.638065 0
M  V30 1785 C 171.212 2.06037 -0.152394 0
M  V30 1786 C 171.62 1.47808 1.18108 0
M  V30 1787 O 170.963 0.598092 1.73691 0
M  V30 1788 C 171.025 3.59488 0.0293714 0
M  V30 1789 C 170.689 4.4022 -1.22702 0
M  V30 1790 C 171.686 4.73256 -2.15232 0
M  V30 1791 C 169.371 4.8048 -1.46437 0
M  V30 1792 C 171.365 5.45444 -3.29802 0
M  V30 1793 C 169.052 5.52417 -2.61303 0
M  V30 1794 C 170.05 5.84819 -3.52811 0
M  V30 1795 O 169.738 6.55289 -4.65673 0
M  V30 1796 H 169.47 0.671233 -0.0801401 0
M  V30 1797 H 172.024 1.85851 -0.874563 0
M  V30 1798 H 170.254 3.78191 0.806758 0
M  V30 1799 H 171.943 4.03164 0.470475 0
M  V30 1800 H 172.709 4.42684 -1.98131 0
M  V30 1801 H 168.588 4.54676 -0.760977 0
M  V30 1802 H 172.132 5.70653 -4.01249 0
M  V30 1803 H 168.029 5.82404 -2.78344 0
M  V30 1804 H 168.797 6.73762 -4.64744 0
M  V30 1805 N 171.46 0.379036 1.52974 0
M  V30 1806 C 172.871 -0.0972525 1.86447 0
M  V30 1807 C 173.222 -1.47027 1.29914 0
M  V30 1808 O 172.347 -2.07135 0.626433 0
M  V30 1809 C 172.942 -0.183248 3.38304 0
M  V30 1810 C 171.501 -0.603812 3.71525 0
M  V30 1811 C 170.648 0.240632 2.76254 0
M  V30 1812 H 173.599 0.597316 1.4703 0
M  V30 1813 H 173.62 -1.00432 3.67006 0
M  V30 1814 H 173.132 0.816191 3.79421 0
M  V30 1815 H 171.233 -1.61099 3.35973 0
M  V30 1816 H 171.346 -0.369086 4.77676 0
M  V30 1817 H 169.71 -0.292548 2.53014 0
M  V30 1818 H 170.493 1.23786 3.20206 0
M  V30 1819 N 172.938 -1.57226 0.108567 0
M  V30 1820 C 174.354 -1.5766 -0.248058 0
M  V30 1821 C 174.554 -1.12063 -1.67464 0
M  V30 1822 O 173.61 -0.803236 -2.39383 0
M  V30 1823 C 174.923 -3.0069 -0.0242287 0
M  V30 1824 C 176.471 -3.12868 -0.0909372 0
M  V30 1825 C 176.946 -4.57879 0.105067 0
M  V30 1826 N 178.437 -4.63172 0.0506846 0
M  V30 1827 C 179.172 -5.73126 0.177396 0
M  V30 1828 N 178.668 -6.91866 0.359696 0
M  V30 1829 N 180.461 -5.61977 0.117709 0
M  V30 1830 H 172.612 -1.85169 1.04049 0
M  V30 1831 H 174.875 -0.85529 0.40888 0
M  V30 1832 H 174.581 -3.38299 0.961604 0
M  V30 1833 H 174.455 -3.6945 -0.76068 0
M  V30 1834 H 176.842 -2.75124 -1.06729 0
M  V30 1835 H 176.923 -2.46672 0.677225 0
M  V30 1836 H 176.567 -4.96321 1.07834 0
M  V30 1837 H 176.497 -5.22153 -0.682954 0
M  V30 1838 H 178.988 -3.778 -0.0871266 0
M  V30 1839 H 179.301 -7.71503 0.447529 0
M  V30 1840 H 177.646 -6.93874 0.395536 0
M  V30 1841 H 180.837 -4.68094 -0.0236741 0
M  V30 1842 H 181.01 -6.47627 0.219905 0
M  V30 1843 N 174.416 0.165178 -1.56732 0
M  V30 1844 C 175.832 0.517174 -1.50988 0
M  V30 1845 C 176.032 1.84331 -0.813894 0
M  V30 1846 O 175.088 2.49672 -0.37682 0
M  V30 1847 C 176.401 0.544261 -2.95733 0
M  V30 1848 C 177.949 0.631039 -3.06573 0
M  V30 1849 C 178.424 0.68896 -4.52788 0
M  V30 1850 N 179.915 0.751683 -4.5706 0
M  V30 1851 C 180.65 0.817177 -5.67547 0
M  V30 1852 N 180.146 0.843129 -6.8765 0
M  V30 1853 N 181.939 0.856668 -5.55534 0
M  V30 1854 H 174.09 -0.704318 -2.00382 0
M  V30 1855 H 176.353 -0.254687 -0.913148 0
M  V30 1856 H 176.059 -0.361607 -3.49836 0
M  V30 1857 H 175.933 1.3886 -3.5071 0
M  V30 1858 H 178.32 1.52733 -2.52501 0
M  V30 1859 H 178.401 -0.240095 -2.54671 0
M  V30 1860 H 178.045 -0.2031 -5.07494 0
M  V30 1861 H 177.975 1.57633 -5.02454 0
M  V30 1862 H 180.466 0.739661 -3.70591 0
M  V30 1863 H 180.779 0.894448 -7.67606 0
M  V30 1864 H 179.124 0.811304 -6.90248 0
M  V30 1865 H 182.315 0.833437 -4.60621 0
M  V30 1866 H 182.488 0.904247 -6.4166 0
M  V30 1867 N 175.894 1.51508 0.433938 0
M  V30 1868 C 177.31 1.39759 0.770682 0
M  V30 1869 C 177.51 0.482594 1.95636 0
M  V30 1870 O 176.566 -0.0609691 2.52426 0
M  V30 1871 C 177.879 2.81851 1.04787 0
M  V30 1872 C 179.427 2.91025 1.1521 0
M  V30 1873 C 179.902 4.34032 1.46219 0
M  V30 1874 N 181.393 4.37154 1.53136 0
M  V30 1875 C 182.128 5.4484 1.78709 0
M  V30 1876 N 181.624 6.62682 2.02051 0
M  V30 1877 N 183.417 5.32324 1.80519 0
M  V30 1878 H 175.568 2.09548 -0.346892 0
M  V30 1879 H 177.831 0.943446 -0.0928074 0
M  V30 1880 H 177.537 3.50815 0.249304 0
M  V30 1881 H 177.411 3.21386 1.97461 0
M  V30 1882 H 179.798 2.22257 1.94128 0
M  V30 1883 H 179.879 2.54983 0.204281 0
M  V30 1884 H 179.523 5.03351 0.678274 0
M  V30 1885 H 179.453 4.6759 2.42212 0
M  V30 1886 H 181.944 3.52197 1.36987 0
M  V30 1887 H 182.257 7.40543 2.20943 0
M  V30 1888 H 180.602 6.65791 1.99366 0
M  V30 1889 H 183.793 4.39246 1.61805 0
M  V30 1890 H 183.966 6.16328 2.00111 0
M  V30 1891 N 177.372 -0.689602 1.41712 0
M  V30 1892 C 178.335 -1.78521 1.43746 0
M  V30 1893 C 179.335 -1.57436 0.327191 0
M  V30 1894 O 180.525 -1.64 0.587348 0
M  V30 1895 C 177.657 -3.16971 1.25467 0
M  V30 1896 H 178.85 -1.78108 2.41283 0
M  V30 1897 H 176.403 -0.89781 1.27942 0
M  V30 1898 H 177.138 -3.23019 0.287948 0
M  V30 1899 H 176.923 -3.33678 2.05917 0
M  V30 1900 H 178.413 -3.96935 1.2974 0
M  V30 1901 N 178.85 -1.27639 -0.924453 0
M  V30 1902 C 179.798 -1.10485 -2.04685 0
M  V30 1903 C 180.792 -0.0270421 -1.69378 0
M  V30 1904 O 181.998 -0.185008 -1.79047 0
M  V30 1905 H 178.373 -0.340546 -0.670472 0
M  V30 1906 H 180.344 -2.05566 -2.16298 0
M  V30 1907 C 179.093 -0.772229 -3.39016 0
M  V30 1908 H 178.416 -1.59351 -3.66671 0
M  V30 1909 H 179.856 -0.692097 -4.18313 0
M  V30 1910 C 178.315 0.523554 -3.32807 0
M  V30 1911 O 178.845 1.55702 -3.70297 0
M  V30 1912 N 177.051 0.520363 -2.85903 0
M  V30 1913 H 176.598 -0.32107 -2.55591 0
M  V30 1914 H 176.556 1.38742 -2.82131 0
M  V30 1915 N 180.328 1.1314 -1.09713 0
M  V30 1916 C 181.291 2.16831 -0.742751 0
M  V30 1917 C 182.291 1.59159 0.229129 0
M  V30 1918 O 183.481 1.74199 0.00693237 0
M  V30 1919 C 180.613 3.40756 -0.0989168 0
M  V30 1920 H 181.806 2.49695 -1.66109 0
M  V30 1921 H 179.359 1.2802 -0.896699 0
M  V30 1922 H 180.094 3.13485 0.830514 0
M  V30 1923 H 179.879 3.83888 -0.798265 0
M  V30 1924 H 181.369 4.17386 0.133524 0
M  V30 1925 N 181.806 0.884767 1.30421 0
M  V30 1926 C 183.034 0.518044 2.0031 0
M  V30 1927 C 183.449 -0.893408 1.66324 0
M  V30 1928 O 182.806 -1.5875 0.900262 0
M  V30 1929 C 182.857 0.682997 3.54989 0
M  V30 1930 O 182.578 2.03888 3.87764 0
M  V30 1931 C 184.079 0.31924 4.42149 0
M  V30 1932 H 181.299 0.200265 0.640418 0
M  V30 1933 H 183.843 1.19001 1.6631 0
M  V30 1934 H 181.998 0.0584052 3.87356 0
M  V30 1935 H 182.412 2.05735 4.82466 0
M  V30 1936 H 183.886 0.485555 5.4986 0
M  V30 1937 H 184.363 -0.742717 4.32875 0
M  V30 1938 H 184.969 0.920147 4.15227 0
M  V30 1939 N 183.284 -1.43765 0.645699 0
M  V30 1940 C 184.214 -2.33471 -0.0370477 0
M  V30 1941 C 185.195 -1.49042 -0.819779 0
M  V30 1942 O 186.38 -1.77726 -0.782758 0
M  V30 1943 C 183.51 -3.32311 -1.0093 0
M  V30 1944 C 182.464 -4.2667 -0.337201 0
M  V30 1945 C 181.79 -5.1549 -1.42037 0
M  V30 1946 C 183.09 -5.16657 0.765706 0
M  V30 1947 H 184.784 -2.90809 0.712069 0
M  V30 1948 H 182.33 -1.39834 0.343876 0
M  V30 1949 H 184.283 -3.9396 -1.49578 0
M  V30 1950 H 183.007 -2.73213 -1.78948 0
M  V30 1951 H 181.666 -3.66374 0.128771 0
M  V30 1952 H 181.314 -4.52735 -2.1918 0
M  V30 1953 H 181.014 -5.79438 -0.975966 0
M  V30 1954 H 182.538 -5.80012 -1.90838 0
M  V30 1955 H 183.952 -5.72158 0.361702 0
M  V30 1956 H 182.349 -5.89286 1.13413 0
M  V30 1957 H 183.419 -4.56796 1.62683 0
M  V30 1958 N 184.763 -0.387143 -1.52771 0
M  V30 1959 C 185.693 0.440551 -2.29306 0
M  V30 1960 C 186.674 1.06535 -1.32606 0
M  V30 1961 O 187.859 1.07853 -1.61497 0
M  V30 1962 C 184.989 1.56919 -3.09829 0
M  V30 1963 C 183.943 1.07054 -4.14395 0
M  V30 1964 C 183.269 2.29109 -4.83129 0
M  V30 1965 C 184.569 0.140015 -5.22112 0
M  V30 1966 H 186.263 -0.198026 -2.98744 0
M  V30 1967 H 183.809 -0.09668 -1.43675 0
M  V30 1968 H 185.762 2.15503 -3.62128 0
M  V30 1969 H 184.486 2.23532 -2.3812 0
M  V30 1970 H 183.145 0.507247 -3.63074 0
M  V30 1971 H 182.793 2.94227 -4.0797 0
M  V30 1972 H 182.493 1.96406 -5.53804 0
M  V30 1973 H 184.017 2.88339 -5.38231 0
M  V30 1974 H 185.431 0.633978 -5.69784 0
M  V30 1975 H 183.828 -0.0971485 -6.00021 0
M  V30 1976 H 184.898 -0.811711 -4.78058 0
M  V30 1977 N 186.241 1.57166 -0.116904 0
M  V30 1978 C 187.171 2.18222 0.830759 0
M  V30 1979 C 188.152 1.12167 1.27877 0
M  V30 1980 O 189.337 1.40394 1.34176 0
M  V30 1981 C 186.467 2.77996 2.08172 0
M  V30 1982 C 185.421 3.89614 1.77157 0
M  V30 1983 C 184.747 4.36187 3.09265 0
M  V30 1984 C 186.047 5.1181 1.04151 0
M  V30 1985 H 187.741 2.97664 0.321992 0
M  V30 1986 H 185.287 1.4318 0.153434 0
M  V30 1987 H 187.24 3.19366 2.74924 0
M  V30 1988 H 185.964 1.9584 2.6137 0
M  V30 1989 H 184.623 3.48816 1.12796 0
M  V30 1990 H 184.271 3.50893 3.60393 0
M  V30 1991 H 183.971 5.11455 2.89288 0
M  V30 1992 H 185.495 4.80207 3.77139 0
M  V30 1993 H 186.909 5.50214 1.61052 0
M  V30 1994 H 185.306 5.92648 0.942762 0
M  V30 1995 H 186.376 4.84892 0.0279022 0
M  V30 1996 N 187.719 -0.156864 1.56817 0
M  V30 1997 C 188.967 -0.869404 1.82444 0
M  V30 1998 C 189.288 -1.82147 0.69623 0
M  V30 1999 O 188.558 -1.93847 -0.28287 0
M  V30 2000 H 187.138 -0.324043 0.673056 0
M  V30 2001 H 189.8 -0.153224 1.94297 0
M  V30 2002 H 188.896 -1.43761 2.77019 0
M  V30 2003 N 189.197 -1.51736 -0.425897 0
M  V30 2004 C 190.608 -1.5732 -1.00536 0
M  V30 2005 C 190.959 -0.403537 -1.92005 0
M  V30 2006 O 190.084 0.478256 -2.11049 0
M  V30 2007 C 190.679 -2.85119 -1.8301 0
M  V30 2008 C 189.238 -2.93236 -2.35987 0
M  V30 2009 C 188.385 -2.52098 -1.15508 0
M  V30 2010 H 191.336 -1.57348 -0.206739 0
M  V30 2011 H 191.357 -2.69526 -2.68581 0
M  V30 2012 H 190.869 -3.7023 -1.16411 0
M  V30 2013 H 188.97 -2.12581 -3.06007 0
M  V30 2014 H 189.083 -3.9713 -2.68001 0
M  V30 2015 H 187.447 -2.05558 -1.50393 0
M  V30 2016 H 188.23 -3.39565 -0.505014 0
M  V30 2017 N 190.675 0.682077 -1.42076 0
M  V30 2018 C 191.605 1.80796 -1.47767 0
M  V30 2019 C 192.586 1.6677 -0.334954 0
M  V30 2020 O 193.771 1.863 -0.548264 0
M  V30 2021 C 190.901 3.19038 -1.37229 0
M  V30 2022 C 189.855 3.47789 -2.49453 0
M  V30 2023 C 189.181 4.8553 -2.23975 0
M  V30 2024 C 190.481 3.45411 -3.91776 0
M  V30 2025 H 192.175 1.7629 -2.41997 0
M  V30 2026 H 189.721 0.846721 -1.16476 0
M  V30 2027 H 191.674 3.97528 -1.39821 0
M  V30 2028 H 190.398 3.24204 -0.394907 0
M  V30 2029 H 189.057 2.71657 -2.46166 0
M  V30 2030 H 188.705 4.87337 -1.24547 0
M  V30 2031 H 188.405 5.0573 -2.99184 0
M  V30 2032 H 189.929 5.66312 -2.28304 0
M  V30 2033 H 191.343 4.13882 -3.96705 0
M  V30 2034 H 189.74 3.77145 -4.66778 0
M  V30 2035 H 190.81 2.44122 -4.18966 0
M  V30 2036 N 192.153 1.28127 0.917671 0
M  V30 2037 C 193.569 1.05749 1.19538 0
M  V30 2038 C 193.769 -0.202633 2.00479 0
M  V30 2039 O 192.825 -0.905382 2.3571 0
M  V30 2040 C 194.138 2.30273 1.93378 0
M  V30 2041 C 195.686 2.35412 2.06277 0
M  V30 2042 C 196.161 3.59692 2.83524 0
M  V30 2043 N 197.652 3.60309 2.91087 0
M  V30 2044 C 198.387 4.53147 3.51348 0
M  V30 2045 N 197.883 5.563 4.12919 0
M  V30 2046 N 199.676 4.40751 3.48849 0
M  V30 2047 H 191.827 2.09024 0.377184 0
M  V30 2048 H 194.09 0.919798 0.22951 0
M  V30 2049 H 193.796 3.22055 1.41328 0
M  V30 2050 H 193.67 2.36378 2.93947 0
M  V30 2051 H 196.057 1.4413 2.57508 0
M  V30 2052 H 196.138 2.33304 1.04895 0
M  V30 2053 H 195.782 4.51316 2.32973 0
M  V30 2054 H 195.712 3.59054 3.85211 0
M  V30 2055 H 198.203 2.85714 2.47338 0
M  V30 2056 H 198.516 6.2329 4.56869 0
M  V30 2057 H 196.861 5.60131 4.11435 0
M  V30 2058 H 200.052 3.59367 2.99955 0
M  V30 2059 H 200.225 5.13291 3.9552 0
M  V30 2060 N 193.631 -1.12557 1.10312 0
M  V30 2061 C 194.594 -2.16434 0.75424 0
M  V30 2062 C 195.594 -1.59278 -0.220685 0
M  V30 2063 O 196.784 -1.742 0.00230591 0
M  V30 2064 C 193.916 -3.40699 0.116987 0
M  V30 2065 H 195.109 -2.48811 1.67431 0
M  V30 2066 H 192.662 -1.27542 0.903475 0
M  V30 2067 H 193.397 -3.13921 -0.813877 0
M  V30 2068 H 193.182 -3.83459 0.818613 0
M  V30 2069 H 194.672 -4.17451 -0.111387 0
M  V30 2070 N 195.109 -0.891671 -1.2995 0
M  V30 2071 C 196.334 -0.527932 -2.00568 0
M  V30 2072 C 196.759 0.877969 -1.66353 0
M  V30 2073 O 196.117 1.58301 -0.883762 0
M  V30 2074 C 196.165 -0.717745 -3.53385 0
M  V30 2075 O 195.269 0.233376 -4.11739 0
M  V30 2076 H 194.61 -0.20722 -0.630837 0
M  V30 2077 H 197.14 -1.20105 -1.65638 0
M  V30 2078 H 197.15 -0.619307 -4.03272 0
M  V30 2079 H 195.825 -1.74276 -3.77625 0
M  V30 2080 H 194.402 0.0880706 -3.72796 0
M  V30 2081 N 196.587 1.43421 -0.653314 0
M  V30 2082 C 197.864 1.95361 -0.0966581 0
M  V30 2083 C 198.244 1.59461 1.38331 0
M  V30 2084 O 197.592 0.879777 2.10884 0
M  V30 2085 C 197.802 3.47311 -0.342988 0
M  V30 2086 C 199.15 4.23875 -0.24798 0
M  V30 2087 O 200.174 3.55133 -0.275553 0
M  V30 2088 O 199.033 5.4623 -0.171771 0
M  V30 2089 H 196.127 0.826945 0.00956291 0
M  V30 2090 H 198.673 1.5336 -0.726558 0
M  V30 2091 H 197.445 3.66569 -1.36906 0
M  V30 2092 H 197.068 3.9631 0.319975 0
M  V30 2093 N 198.065 0.39524 1.52563 0
M  V30 2094 C 199.29 -0.187456 2.06551 0
M  V30 2095 C 199.715 -1.39249 1.26457 0
M  V30 2096 O 199.073 -1.78947 0.291151 0
M  V30 2097 C 199.121 -0.529985 3.56684 0
M  V30 2098 O 198.225 -1.62307 3.79118 0
M  V30 2099 H 197.566 -0.0202537 0.663691 0
M  V30 2100 H 200.096 0.564426 1.96661 0
M  V30 2101 H 200.106 -0.792598 4.00227 0
M  V30 2102 H 198.781 0.350987 4.14416 0
M  V30 2103 H 197.358 -1.3537 3.47461 0
M  V30 2104 N 199.544 -1.57102 0.125237 0
M  V30 2105 C 200.792 -1.95021 -0.530198 0
M  V30 2106 C 201.113 -1.00982 -1.66816 0
M  V30 2107 O 200.383 -0.0672693 -1.95784 0
M  V30 2108 H 198.963 -0.720046 -0.198853 0
M  V30 2109 H 201.625 -1.93916 0.19564 0
M  V30 2110 H 200.721 -2.98211 -0.920681 0
M  V30 2111 N 201.022 0.148545 -1.56898 0
M  V30 2112 C 201.952 1.18524 -2.01182 0
M  V30 2113 C 202.933 1.4489 -0.891123 0
M  V30 2114 O 204.118 1.55836 -1.15882 0
M  V30 2115 C 201.248 2.51879 -2.39112 0
M  V30 2116 C 200.202 2.40038 -3.54353 0
M  V30 2117 C 199.528 3.78089 -3.78091 0
M  V30 2118 C 200.828 1.88577 -4.87069 0
M  V30 2119 H 202.522 0.817029 -2.88036 0
M  V30 2120 H 200.068 0.391575 -1.38574 0
M  V30 2121 H 202.021 3.24627 -2.68692 0
M  V30 2122 H 200.745 2.90532 -1.49193 0
M  V30 2123 H 199.404 1.69742 -3.24936 0
M  V30 2124 H 199.052 4.14175 -2.85426 0
M  V30 2125 H 198.752 3.71028 -4.55645 0
M  V30 2126 H 200.276 4.52387 -4.10095 0
M  V30 2127 H 201.69 2.51117 -5.15377 0
M  V30 2128 H 200.087 1.9241 -5.68417 0
M  V30 2129 H 201.157 0.84136 -4.77545 0
M  V30 2130 N 202.5 1.5196 0.417844 0
M  V30 2131 C 203.73 1.69181 1.18581 0
M  V30 2132 C 204.138 0.397104 1.84986 0
M  V30 2133 O 203.481 -0.636011 1.72339 0
M  V30 2134 C 203.543 2.76497 2.29759 0
M  V30 2135 C 203.207 4.18514 1.83563 0
M  V30 2136 C 204.204 5.02648 1.32821 0
M  V30 2137 C 201.889 4.64708 1.90661 0
M  V30 2138 C 203.883 6.31044 0.897894 0
M  V30 2139 C 201.57 5.93096 1.47241 0
M  V30 2140 C 202.568 6.76093 0.968891 0
M  V30 2141 O 202.256 8.02078 0.540924 0
M  V30 2142 H 201.988 0.570457 0.362705 0
M  V30 2143 H 204.542 1.99249 0.498885 0
M  V30 2144 H 202.772 2.41786 3.01789 0
M  V30 2145 H 204.461 2.82403 2.91553 0
M  V30 2146 H 205.227 4.68154 1.26716 0
M  V30 2147 H 201.106 4.00216 2.28797 0
M  V30 2148 H 204.65 6.95776 0.504192 0
M  V30 2149 H 200.547 6.271 1.53022 0
M  V30 2150 H 201.315 8.15794 0.66502 0
M  V30 2151 N 203.978 -0.674533 1.42435 0
M  V30 2152 C 205.394 -0.98769 1.25367 0
M  V30 2153 C 205.594 -2.00879 0.158044 0
M  V30 2154 O 204.65 -2.48075 -0.470633 0
M  V30 2155 C 205.963 -1.49224 2.6106 0
M  V30 2156 C 207.511 -1.61 2.68417 0
M  V30 2157 C 207.986 -2.14852 4.04478 0
M  V30 2158 N 209.477 -2.22185 4.06434 0
M  V30 2159 C 210.212 -2.64928 5.08528 0
M  V30 2160 N 209.708 -3.07121 6.21006 0
M  V30 2161 N 211.501 -2.64679 4.95885 0
M  V30 2162 H 203.652 0.00152503 2.124 0
M  V30 2163 H 205.915 -0.0618434 0.945981 0
M  V30 2164 H 205.621 -0.816453 3.42092 0
M  V30 2165 H 205.495 -2.47094 2.84999 0
M  V30 2166 H 207.882 -2.27686 1.87732 0
M  V30 2167 H 207.963 -0.616195 2.48267 0
M  V30 2168 H 207.607 -1.48775 4.85622 0
M  V30 2169 H 207.537 -3.15024 4.2198 0
M  V30 2170 H 210.028 -1.92435 3.25234 0
M  V30 2171 H 210.341 -3.38423 6.94759 0
M  V30 2172 H 208.686 -3.04978 6.24511 0
M  V30 2173 H 211.877 -2.31078 4.07088 0
M  V30 2174 H 212.05 -2.9767 5.75584 0
M  V30 2175 N 205.456 -1.28612 -0.910864 0
M  V30 2176 C 206.696 -1.1719 -1.67469 0
M  V30 2177 C 207.06 0.274441 -1.90028 0
M  V30 2178 O 208.261 0.511425 -2.6389 0
M  V30 2179 C 206.532 -1.95137 -2.99427 0
M  V30 2180 S 208.091 -2.00122 -3.90508 0
M  V30 2181 H 204.909 -0.41806 -0.575106 0
M  V30 2182 H 207.511 -1.6275 -1.08317 0
M  V30 2183 H 206.215 -2.99381 -2.80712 0
M  V30 2184 H 205.746 -1.50137 -3.63624 0
M  V30 2185 H 207.761 -1.10981 -4.8363 0
M  V30 2186 N 206.934 1.1197 -1.10907 0
M  V30 2187 C 207.866 2.17592 -0.720175 0
M  V30 2188 C 208.879 1.60938 0.245495 0
M  V30 2189 O 210.068 1.78476 0.0292245 0
M  V30 2190 C 207.168 3.38873 -0.0427917 0
M  V30 2191 C 206.341 4.25006 -1.03388 0
M  V30 2192 C 205.4 5.24774 -0.387075 0
M  V30 2193 O 204.426 5.59631 -1.03934 0
M  V30 2194 N 205.628 5.74208 0.852407 0
M  V30 2195 H 208.393 2.51567 -1.62893 0
M  V30 2196 H 205.954 1.27439 -0.998543 0
M  V30 2197 H 207.946 4.02703 0.401501 0
M  V30 2198 H 206.516 3.03007 0.768456 0
M  V30 2199 H 205.736 3.57716 -1.65629 0
M  V30 2200 H 207.024 4.79397 -1.70458 0
M  V30 2201 H 206.422 5.48062 1.40161 0
M  V30 2202 H 204.979 6.39901 1.23977 0
M  V30 2203 N 208.412 0.89855 1.29475 0
M  V30 2204 C 209.658 0.524658 1.95896 0
M  V30 2205 C 209.991 -0.926468 1.70676 0
M  V30 2206 O 209.266 -1.65665 1.01908 0
M  V30 2207 C 209.549 0.81633 3.50725 0
M  V30 2208 C 209.402 2.31907 3.85408 0
M  V30 2209 C 210.721 0.302038 4.39062 0
M  V30 2210 H 207.84 0.19209 0.711527 0
M  V30 2211 H 210.482 1.12502 1.53112 0
M  V30 2212 H 208.632 0.305369 3.87298 0
M  V30 2213 H 210.304 2.89949 3.58786 0
M  V30 2214 H 208.547 2.78027 3.32992 0
M  V30 2215 H 209.218 2.47373 4.93468 0
M  V30 2216 H 211.694 0.739551 4.09475 0
M  V30 2217 H 210.57 0.535331 5.46283 0
M  V30 2218 H 210.831 -0.797216 4.34853 0
M  V30 2219 N 209.89 -1.43072 0.660911 0
M  V30 2220 C 211.136 -2.0202 0.177708 0
M  V30 2221 C 211.469 -1.52066 -1.20787 0
M  V30 2222 O 210.744 -0.716987 -1.80802 0
M  V30 2223 C 211.027 -3.59561 0.197019 0
M  V30 2224 C 210.88 -4.19727 1.61706 0
M  V30 2225 C 212.199 -4.37664 -0.462396 0
M  V30 2226 H 209.318 -0.734034 0.0660494 0
M  V30 2227 H 211.96 -1.70272 0.843058 0
M  V30 2228 H 210.11 -3.86739 -0.369527 0
M  V30 2229 H 211.782 -4.03553 2.23479 0
M  V30 2230 H 210.025 -3.76084 2.16201 0
M  V30 2231 H 210.696 -5.28834 1.58237 0
M  V30 2232 H 213.172 -4.16095 0.0197215 0
M  V30 2233 H 212.048 -5.47305 -0.418188 0
M  V30 2234 H 212.309 -4.14493 -1.53778 0
M  V30 2235 N 211.368 -0.403325 -1.52352 0
M  V30 2236 C 212.784 -0.0539281 -1.59509 0
M  V30 2237 C 212.984 1.43307 -1.41652 0
M  V30 2238 O 212.04 2.19924 -1.24056 0
M  V30 2239 C 213.353 -0.543654 -2.95745 0
M  V30 2240 C 214.901 -0.501125 -3.08962 0
M  V30 2241 C 215.376 -0.967267 -4.47669 0
M  V30 2242 N 216.867 -0.923849 -4.53893 0
M  V30 2243 C 217.602 -1.25578 -5.5948 0
M  V30 2244 N 217.098 -1.65889 -6.72646 0
M  V30 2245 N 218.891 -1.17613 -5.49658 0
M  V30 2246 H 211.042 -1.37123 -1.62206 0
M  V30 2247 H 213.305 -0.56294 -0.76276 0
M  V30 2248 H 213.011 -1.58275 -3.14073 0
M  V30 2249 H 212.885 0.0498042 -3.77167 0
M  V30 2250 H 215.272 0.528909 -2.90321 0
M  V30 2251 H 215.353 -1.13056 -2.2946 0
M  V30 2252 H 214.997 -1.9956 -4.67053 0
M  V30 2253 H 214.927 -0.314698 -5.25659 0
M  V30 2254 H 217.418 -0.627403 -3.72655 0
M  V30 2255 H 217.731 -1.89543 -7.49195 0
M  V30 2256 H 216.076 -1.69787 -6.73942 0
M  V30 2257 H 219.267 -0.860115 -4.6013 0
M  V30 2258 H 219.44 -1.43812 -6.3184 0
M  V30 2259 N 212.846 1.57033 -0.133567 0
M  V30 2260 C 214.094 1.953 0.519848 0
M  V30 2261 C 214.415 1.01866 1.66278 0
M  V30 2262 O 213.685 0.0776513 1.95746 0
M  V30 2263 H 212.265 0.721091 0.195032 0
M  V30 2264 H 214.927 1.93809 -0.205921 0
M  V30 2265 H 214.023 2.98695 0.904854 0
M  V30 2266 N 214.325 -0.140222 1.56975 0
M  V30 2267 C 215.574 -0.850152 1.82908 0
M  V30 2268 C 215.887 -1.82028 0.715892 0
M  V30 2269 O 217.093 -2.57485 0.861016 0
M  V30 2270 C 215.549 -1.5625 3.24213 0
M  V30 2271 C 215.157 -0.63443 4.43485 0
M  V30 2272 C 216.901 -2.25881 3.59413 0
M  V30 2273 C 214.808 -1.34879 5.75814 0
M  V30 2274 H 213.738 -0.321221 0.682153 0
M  V30 2275 H 216.389 -0.102874 1.83211 0
M  V30 2276 H 214.771 -2.35565 3.18316 0
M  V30 2277 H 215.945 0.12398 4.60633 0
M  V30 2278 H 214.26 -0.0461836 4.16374 0
M  V30 2279 H 216.857 -2.79978 4.5554 0
M  V30 2280 H 217.2 -3.02693 2.85802 0
M  V30 2281 H 217.733 -1.53477 3.67001 0
M  V30 2282 H 214.472 -0.622385 6.52539 0
M  V30 2283 H 213.992 -2.07974 5.6259 0
M  V30 2284 H 215.671 -1.88784 6.18845 0
M  V30 2285 N 215.803 -1.52179 -0.40978 0
M  V30 2286 C 216.713 -1.78364 -1.52392 0
M  V30 2287 C 217.729 -0.669183 -1.60617 0
M  V30 2288 O 218.905 -0.954518 -1.77344 0
M  V30 2289 C 215.97 -1.92822 -2.88133 0
M  V30 2290 C 215.031 -3.16725 -2.898 0
M  V30 2291 C 214.264 -3.30483 -4.19067 0
M  V30 2292 O 214.487 -2.49522 -5.12928 0
M  V30 2293 O 213.421 -4.2363 -4.27576 0
M  V30 2294 H 217.247 -2.72931 -1.33201 0
M  V30 2295 H 214.832 -1.37016 -0.59557 0
M  V30 2296 H 216.714 -2.04157 -3.68643 0
M  V30 2297 H 215.389 -1.01444 -3.07393 0
M  V30 2298 H 214.296 -3.10848 -2.08146 0
M  V30 2299 H 215.629 -4.07881 -2.75489 0
M  V30 2300 N 217.281 0.66697 -1.42791 0
M  V30 2301 C 218.558 1.4234 -1.34159 0
M  V30 2302 C 218.938 2.11093 0.0172729 0
M  V30 2303 O 218.286 2.03808 1.03318 0
M  V30 2304 C 218.496 2.41942 -2.51526 0
M  V30 2305 C 219.844 3.06353 -2.93995 0
M  V30 2306 O 220.868 2.52269 -2.51473 0
M  V30 2307 O 219.727 4.04376 -3.67617 0
M  V30 2308 H 216.821 0.635277 -0.529483 0
M  V30 2309 H 219.367 0.695034 -1.54814 0
M  V30 2310 H 218.139 1.89991 -3.42081 0
M  V30 2311 H 217.762 3.22249 -2.32898 0
M  V30 2312 N 218.759 1.29093 0.90403 0
M  V30 2313 C 219.669 1.15727 2.0407 0
M  V30 2314 C 220.685 0.0815308 1.73809 0
M  V30 2315 O 221.861 0.292749 1.99261 0
M  V30 2316 C 218.926 0.830424 3.36608 0
M  V30 2317 C 217.987 1.98955 3.80415 0
M  V30 2318 C 217.22 1.6782 5.06628 0
M  V30 2319 O 217.443 0.597105 5.67266 0
M  V30 2320 O 216.377 2.52486 5.46383 0
M  V30 2321 H 220.203 2.11171 2.18267 0
M  V30 2322 H 217.788 1.08504 1.027 0
M  V30 2323 H 219.67 0.662521 4.16159 0
M  V30 2324 H 218.345 -0.0942678 3.23563 0
M  V30 2325 H 217.252 2.21267 3.01648 0
M  V30 2326 H 218.585 2.89529 3.98037 0
M  V30 2327 N 220.237 -1.11381 1.11499 0
M  V30 2328 C 221.169 -2.17207 0.731704 0
M  V30 2329 C 222.182 -1.61066 -0.236957 0
M  V30 2330 O 223.371 -1.78489 -0.0197591 0
M  V30 2331 C 220.471 -3.38846 0.0607624 0
M  V30 2332 C 219.644 -4.24451 1.0564 0
M  V30 2333 C 218.703 -5.24562 0.4149 0
M  V30 2334 O 217.729 -5.59071 1.069 0
M  V30 2335 N 218.931 -5.74651 -0.821943 0
M  V30 2336 H 221.696 -2.50699 1.64225 0
M  V30 2337 H 219.257 -1.26908 1.00529 0
M  V30 2338 H 221.249 -4.02911 -0.380139 0
M  V30 2339 H 219.819 -3.03411 -0.752376 0
M  V30 2340 H 219.039 -3.56833 1.67524 0
M  V30 2341 H 220.327 -4.78486 1.72998 0
M  V30 2342 H 219.725 -5.48797 -1.37252 0
M  V30 2343 H 218.282 -6.40549 -1.20582 0
M  V30 2344 N 221.715 -0.905404 -1.28997 0
M  V30 2345 C 222.992 -0.453513 -1.9027 0
M  V30 2346 C 223.372 1.06721 -1.82137 0
M  V30 2347 O 222.72 1.91159 -1.25182 0
M  V30 2348 C 222.93 -0.974494 -3.35119 0
M  V30 2349 C 224.278 -1.0216 -4.12127 0
M  V30 2350 O 225.302 -0.922557 -3.44046 0
M  V30 2351 O 224.161 -1.17121 -5.33802 0
M  V30 2352 H 221.255 -0.142347 -0.814657 0
M  V30 2353 H 223.801 -0.995642 -1.37423 0
M  V30 2354 H 222.573 -2.01848 -3.35221 0
M  V30 2355 H 222.196 -0.412706 -3.95452 0
M  V30 2356 N 223.193 1.4272 -0.668489 0
M  V30 2357 C 224.123 2.335 -0.000100175 0
M  V30 2358 C 225.104 1.50328 0.795964 0
M  V30 2359 O 226.289 1.78949 0.754385 0
M  V30 2360 C 223.419 3.33874 0.956302 0
M  V30 2361 C 222.373 4.27152 0.269278 0
M  V30 2362 C 221.699 5.17684 1.33818 0
M  V30 2363 C 222.999 5.15373 -0.847805 0
M  V30 2364 H 224.693 2.89639 -0.758244 0
M  V30 2365 H 222.239 1.39269 -0.366079 0
M  V30 2366 H 224.192 3.9629 1.43292 0
M  V30 2367 H 222.916 2.76025 1.74579 0
M  V30 2368 H 221.575 3.66123 -0.187042 0
M  V30 2369 H 221.223 4.56165 2.1195 0
M  V30 2370 H 220.923 5.80918 0.883659 0
M  V30 2371 H 222.447 5.82974 1.81586 0
M  V30 2372 H 223.861 5.7151 -0.452681 0
M  V30 2373 H 222.258 5.87407 -1.22773 0
M  V30 2374 H 223.328 4.5415 -1.69929 0
M  V30 2375 N 224.671 0.411399 1.52136 0
M  V30 2376 C 225.917 -0.163888 2.02137 0
M  V30 2377 C 226.25 -1.44597 1.29636 0
M  V30 2378 O 225.525 -1.90272 0.403353 0
M  V30 2379 C 225.808 -0.40927 3.57767 0
M  V30 2380 C 225.661 0.889643 4.40914 0
M  V30 2381 C 226.98 -1.19042 4.23694 0
M  V30 2382 H 224.099 -0.0580896 0.734707 0
M  V30 2383 H 226.741 0.54531 1.82007 0
M  V30 2384 H 224.891 -1.0134 3.7505 0
M  V30 2385 H 226.563 1.52575 4.35337 0
M  V30 2386 H 224.806 1.50011 4.07037 0
M  V30 2387 H 225.477 0.672314 5.4789 0
M  V30 2388 H 227.953 -0.678942 4.10524 0
M  V30 2389 H 226.829 -1.33086 5.32522 0
M  V30 2390 H 227.09 -2.21166 3.82803 0
M  V30 2391 N 226.149 -1.5696 0.141893 0
M  V30 2392 C 227.56 -1.82797 -0.379776 0
M  V30 2393 C 227.911 -1.06033 -1.6508 0
M  V30 2394 O 227.036 -0.304011 -2.14254 0
M  V30 2395 C 227.631 -3.31578 -0.695802 0
M  V30 2396 C 226.19 -3.58014 -1.16201 0
M  V30 2397 C 225.337 -2.76699 -0.182455 0
M  V30 2398 H 228.288 -1.54406 0.366675 0
M  V30 2399 H 228.309 -3.47454 -1.55099 0
M  V30 2400 H 227.821 -3.87421 0.229449 0
M  V30 2401 H 225.922 -3.07553 -2.10338 0
M  V30 2402 H 226.035 -4.66501 -1.09151 0
M  V30 2403 H 224.399 -2.45618 -0.674072 0
M  V30 2404 H 225.182 -3.35311 0.736297 0
M  V30 2405 N 227.627 0.131896 -1.57047 0
M  V30 2406 C 228.557 1.16384 -2.02428 0
M  V30 2407 C 229.538 1.43936 -0.90644 0
M  V30 2408 O 230.723 1.54599 -1.17528 0
M  V30 2409 C 227.853 2.49328 -2.4177 0
M  V30 2410 C 226.807 2.36266 -3.56879 0
M  V30 2411 C 226.133 3.74057 -3.8208 0
M  V30 2412 C 227.433 1.834 -4.89042 0
M  V30 2413 H 229.127 0.786433 -2.88887 0
M  V30 2414 H 226.673 0.376855 -1.38981 0
M  V30 2415 H 228.626 3.21759 -2.7212 0
M  V30 2416 H 227.35 2.88934 -1.52266 0
M  V30 2417 H 226.009 1.66286 -3.26718 0
M  V30 2418 H 225.657 4.11125 -2.89803 0
M  V30 2419 H 225.357 3.66174 -4.59554 0
M  V30 2420 H 226.881 4.48012 -4.1487 0
M  V30 2421 H 228.295 2.45636 -5.18011 0
M  V30 2422 H 226.692 1.8637 -5.70426 0
M  V30 2423 H 227.762 0.790662 -4.7841 0
M  V30 2424 N 229.106 1.52395 0.401703 0
M  V30 2425 C 230.016 1.7917 1.51444 0
M  V30 2426 C 231.032 0.677691 1.6026 0
M  V30 2427 O 232.208 0.963909 1.76835 0
M  V30 2428 C 229.273 1.94347 2.87107 0
M  V30 2429 C 228.334 3.18257 2.88116 0
M  V30 2430 C 227.567 3.32701 4.17308 0
M  V30 2431 O 227.79 2.52238 5.11598 0
M  V30 2432 O 226.724 4.25891 4.25324 0
M  V30 2433 H 230.55 2.73633 1.31752 0
M  V30 2434 H 228.135 1.3733 0.588296 0
M  V30 2435 H 230.017 2.06109 3.67555 0
M  V30 2436 H 228.692 1.03073 3.06851 0
M  V30 2437 H 227.599 3.11947 2.06494 0
M  V30 2438 H 228.932 4.09336 2.73322 0
M  V30 2439 N 230.584 -0.659388 1.43143 0
M  V30 2440 C 231.83 -1.42145 1.44647 0
M  V30 2441 C 232.163 -1.9408 0.0681907 0
M  V30 2442 O 231.438 -1.71899 -0.910007 0
M  V30 2443 C 231.721 -2.60735 2.48373 0
M  V30 2444 C 231.574 -2.14332 3.95451 0
M  V30 2445 C 232.893 -3.62951 2.48906 0
M  V30 2446 H 230.012 -0.51552 0.526696 0
M  V30 2447 H 232.654 -0.748069 1.74654 0
M  V30 2448 H 230.804 -3.18184 2.22916 0
M  V30 2449 H 232.476 -1.61932 4.31944 0
M  V30 2450 H 230.719 -1.4576 4.08578 0
M  V30 2451 H 231.39 -2.99583 4.63631 0
M  V30 2452 H 233.866 -3.1525 2.71582 0
M  V30 2453 H 232.742 -4.43487 3.23435 0
M  V30 2454 H 233.003 -4.15126 1.52061 0
M  V30 2455 N 232.062 -1.29571 -0.897171 0
M  V30 2456 C 233.29 -1.20583 -1.68129 0
M  V30 2457 C 233.705 0.233181 -1.87354 0
M  V30 2458 O 233.062 1.15579 -1.41236 0
M  V30 2459 C 233.113 -1.91772 -3.06441 0
M  V30 2460 O 232.834 -3.30053 -2.88091 0
M  V30 2461 C 234.335 -1.89291 -4.00854 0
M  V30 2462 H 231.555 -0.417826 -0.525036 0
M  V30 2463 H 234.099 -1.70987 -1.12177 0
M  V30 2464 H 232.254 -1.45196 -3.59161 0
M  V30 2465 H 232.668 -3.65942 -3.75748 0
M  V30 2466 H 234.142 -2.43662 -4.95311 0
M  V30 2467 H 234.619 -0.869014 -4.30517 0
M  V30 2468 H 235.225 -2.35622 -3.54066 0
M  V30 2469 N 233.54 1.10788 -1.12088 0
M  V30 2470 C 234.788 1.8231 -0.872205 0
M  V30 2471 C 235.109 1.85419 0.603709 0
M  V30 2472 O 234.379 1.32963 1.43867 0
M  V30 2473 H 232.959 0.675137 -0.319686 0
M  V30 2474 H 235.621 1.34068 -1.41463 0
M  V30 2475 H 234.717 2.85955 -1.25045 0
M  V30 2476 N 235.018 0.912232 1.28515 0
M  V30 2477 C 236.264 0.545405 1.95328 0
M  V30 2478 C 236.597 -0.908313 1.71649 0
M  V30 2479 O 235.872 -1.64575 1.03659 0
M  V30 2480 C 236.155 0.853483 3.4984 0
M  V30 2481 C 236.008 2.35982 3.82926 0
M  V30 2482 C 237.327 0.348589 4.38717 0
M  V30 2483 H 234.446 0.199626 0.709449 0
M  V30 2484 H 237.088 1.1412 1.5191 0
M  V30 2485 H 235.238 0.34643 3.86952 0
M  V30 2486 H 236.91 2.93738 3.55691 0
M  V30 2487 H 235.153 2.81543 3.30024 0
M  V30 2488 H 235.824 2.52593 4.90816 0
M  V30 2489 H 238.3 0.78294 4.08668 0
M  V30 2490 H 237.176 0.593242 5.45685 0
M  V30 2491 H 237.437 -0.751049 4.35674 0
M  V30 2492 N 236.496 -1.42363 0.676048 0
M  V30 2493 C 237.742 -2.0182 0.199125 0
M  V30 2494 C 238.075 -1.53339 -1.19168 0
M  V30 2495 O 237.35 -0.736124 -1.80032 0
M  V30 2496 C 237.633 -3.59331 0.235144 0
M  V30 2497 C 237.486 -4.17989 1.66149 0
M  V30 2498 C 238.805 -4.3813 -0.41595 0
M  V30 2499 H 235.924 -0.733293 0.0738311 0
M  V30 2500 H 238.566 -1.69368 0.86107 0
M  V30 2501 H 236.716 -3.87109 -0.328487 0
M  V30 2502 H 238.388 -4.0116 2.27747 0
M  V30 2503 H 236.631 -3.7377 2.20178 0
M  V30 2504 H 237.302 -5.27126 1.63837 0
M  V30 2505 H 239.778 -4.16051 0.0638529 0
M  V30 2506 H 238.654 -5.47717 -0.360115 0
M  V30 2507 H 238.915 -4.16101 -1.49373 0
M  V30 2508 N 237.974 -0.419461 -1.51915 0
M  V30 2509 C 239.221 0.152939 -2.01922 0
M  V30 2510 C 239.549 1.4426 -1.30458 0
M  V30 2511 O 238.804 1.91514 -0.402593 0
M  V30 2512 C 239.103 0.437067 -3.54717 0
M  V30 2513 C 238.769 -0.764632 -4.44369 0
M  V30 2514 C 237.431 -1.09423 -4.68594 0
M  V30 2515 C 239.783 -1.56713 -4.97082 0
M  V30 2516 C 237.111 -2.22732 -5.42777 0
M  V30 2517 C 239.463 -2.69107 -5.72507 0
M  V30 2518 C 238.127 -3.02541 -5.95 0
M  V30 2519 H 237.397 0.0559644 -0.738884 0
M  V30 2520 H 240.044 -0.562998 -1.83037 0
M  V30 2521 H 238.349 1.23469 -3.71837 0
M  V30 2522 H 240.046 0.893083 -3.90928 0
M  V30 2523 H 236.636 -0.497775 -4.257 0
M  V30 2524 H 240.82 -1.32571 -4.78266 0
M  V30 2525 H 236.076 -2.48971 -5.58411 0
M  V30 2526 H 240.25 -3.31671 -6.12346 0
M  V30 2527 H 237.877 -3.90457 -6.52264 0
M  V30 2528 N 239.452 1.56882 -0.150215 0
M  V30 2529 C 240.402 2.13501 0.800071 0
M  V30 2530 C 241.386 1.06368 1.20726 0
M  V30 2531 O 242.578 1.32538 1.17314 0
M  V30 2532 C 239.707 2.76271 2.03787 0
M  V30 2533 C 238.793 3.90533 1.65364 0
M  V30 2534 N 239.184 4.96259 0.977794 0
M  V30 2535 C 237.482 4.013 1.94613 0
M  V30 2536 C 238.183 5.76286 0.791794 0
M  V30 2537 N 237.159 5.27163 1.32666 0
M  V30 2538 H 240.961 2.92615 0.274517 0
M  V30 2539 H 238.475 1.62319 0.0512144 0
M  V30 2540 H 240.472 3.15197 2.72867 0
M  V30 2541 H 239.132 1.98631 2.56857 0
M  V30 2542 H 240.143 5.13953 0.638193 0
M  V30 2543 H 236.82 3.3474 2.4951 0
M  V30 2544 H 238.21 6.71401 0.258894 0
M  V30 2545 N 240.93 -0.123565 1.57115 0
M  V30 2546 C 242.16 -0.845233 1.88519 0
M  V30 2547 C 242.568 -1.74168 0.739064 0
M  V30 2548 O 241.911 -1.81244 -0.299355 0
M  V30 2549 C 241.973 -1.73452 3.14888 0
M  V30 2550 C 241.637 -1.01285 4.45635 0
M  V30 2551 C 242.634 -0.355774 5.18681 0
M  V30 2552 C 240.319 -0.99538 4.92339 0
M  V30 2553 C 242.313 0.309114 6.3665 0
M  V30 2554 C 240 -0.32669 6.10226 0
M  V30 2555 C 240.998 0.324406 6.82229 0
M  V30 2556 O 240.686 0.982437 7.97874 0
M  V30 2557 H 240.418 -0.248534 0.628655 0
M  V30 2558 H 242.972 -0.113907 2.05084 0
M  V30 2559 H 241.202 -2.50737 2.94394 0
M  V30 2560 H 242.891 -2.33021 3.32349 0
M  V30 2561 H 243.657 -0.360918 4.83655 0
M  V30 2562 H 239.536 -1.49159 4.36202 0
M  V30 2563 H 243.08 0.8179 6.92789 0
M  V30 2564 H 238.977 -0.319294 6.4471 0
M  V30 2565 H 239.745 0.886454 8.13686 0
M  V30 2566 N 242.408 -1.52605 -0.393616 0
M  V30 2567 C 243.824 -1.41753 -0.733357 0
M  V30 2568 C 244.024 -0.534293 -1.94287 0
M  V30 2569 O 243.08 -0.0059787 -2.52499 0
M  V30 2570 C 244.393 -2.84531 -0.972772 0
M  V30 2571 C 245.941 -2.93978 -1.07453 0
M  V30 2572 C 246.416 -4.37756 -1.3466 0
M  V30 2573 N 247.907 -4.4106 -1.41492 0
M  V30 2574 C 248.642 -5.49387 -1.642 0
M  V30 2575 N 248.138 -6.67806 -1.8441 0
M  V30 2576 N 249.931 -5.36923 -1.66342 0
M  V30 2577 H 242.082 -2.08555 0.402328 0
M  V30 2578 H 244.345 -0.940654 0.117789 0
M  V30 2579 H 244.051 -3.51353 -0.156204 0
M  V30 2580 H 243.925 -3.26508 -1.88871 0
M  V30 2581 H 246.312 -2.27326 -1.88167 0
M  V30 2582 H 246.393 -2.55435 -0.136605 0
M  V30 2583 H 246.037 -5.04972 -0.544581 0
M  V30 2584 H 245.967 -4.73848 -2.2973 0
M  V30 2585 H 248.458 -3.55705 -1.27601 0
M  V30 2586 H 248.771 -7.46141 -2.01231 0
M  V30 2587 H 247.116 -6.70843 -1.81644 0
M  V30 2588 H 250.307 -4.43381 -1.50102 0
M  V30 2589 H 250.48 -6.21416 -1.837 0
M  V30 2590 N 243.887 0.651787 -1.4349 0
M  V30 2591 C 245.112 1.44434 -1.48841 0
M  V30 2592 C 245.537 1.8779 -0.107955 0
M  V30 2593 O 244.895 1.57464 0.898602 0
M  V30 2594 C 244.943 2.65458 -2.44059 0
M  V30 2595 O 244.047 3.64566 -1.92784 0
M  V30 2596 H 243.388 0.433005 -0.503391 0
M  V30 2597 H 245.918 0.797451 -1.88419 0
M  V30 2598 H 245.928 3.13255 -2.6141 0
M  V30 2599 H 244.603 2.33244 -3.4434 0
M  V30 2600 H 243.18 3.23716 -1.851 0
M  V30 2601 N 245.365 1.30045 0.890287 0
M  V30 2602 C 246.328 1.15963 1.977 0
M  V30 2603 C 247.328 0.0923777 1.60534 0
M  V30 2604 O 248.518 0.340071 1.70848 0
M  V30 2605 C 245.65 0.775451 3.31963 0
M  V30 2606 H 246.843 2.12502 2.11619 0
M  V30 2607 H 244.396 1.13366 1.07601 0
M  V30 2608 H 245.131 -0.189671 3.23745 0
M  V30 2609 H 244.916 1.54668 3.60306 0
M  V30 2610 H 246.406 0.700251 4.11687 0
M  V30 2611 N 246.843 -1.10192 1.12674 0
M  V30 2612 C 248.259 -1.34235 0.863317 0
M  V30 2613 C 248.459 -1.95062 -0.505277 0
M  V30 2614 O 247.515 -2.19192 -1.25345 0
M  V30 2615 C 248.828 -2.2616 1.98172 0
M  V30 2616 C 250.376 -2.3969 2.0129 0
M  V30 2617 C 250.851 -3.34946 3.1237 0
M  V30 2618 N 252.342 -3.42515 3.11829 0
M  V30 2619 C 253.077 -4.16199 3.94419 0
M  V30 2620 N 252.573 -4.92747 4.87004 0
M  V30 2621 N 254.366 -4.11843 3.82547 0
M  V30 2622 H 246.517 -0.690798 2.00853 0
M  V30 2623 H 248.78 -0.366774 0.874174 0
M  V30 2624 H 248.486 -1.8868 2.96804 0
M  V30 2625 H 248.36 -3.26488 1.88906 0
M  V30 2626 H 250.747 -2.76438 1.03276 0
M  V30 2627 H 250.828 -1.39169 2.14629 0
M  V30 2628 H 250.472 -2.98923 4.10619 0
M  V30 2629 H 250.402 -4.35353 2.96269 0
M  V30 2630 H 252.893 -2.87926 2.44759 0
M  V30 2631 H 253.206 -5.46376 5.46528 0
M  V30 2632 H 251.551 -4.91862 4.91016 0
M  V30 2633 H 254.742 -3.51136 3.0955 0
M  V30 2634 H 254.915 -4.69007 4.47142 0
M  V30 2635 N 248.321 -0.919034 -1.28029 0
M  V30 2636 C 249.598 -0.473668 -1.89778 0
M  V30 2637 C 249.978 1.04783 -1.83259 0
M  V30 2638 O 249.326 1.8982 -1.27202 0
M  V30 2639 C 249.536 -1.00998 -3.34066 0
M  V30 2640 C 250.884 -1.06525 -4.1102 0
M  V30 2641 O 251.908 -0.958996 -3.43048 0
M  V30 2642 O 250.767 -1.22776 -5.3253 0
M  V30 2643 H 247.861 -0.15098 -0.813101 0
M  V30 2644 H 250.407 -1.01016 -1.36359 0
M  V30 2645 H 249.179 -2.05392 -3.33061 0
M  V30 2646 H 248.802 -0.454626 -3.94992 0
M  V30 2647 N 249.799 1.42003 -0.683588 0
M  V30 2648 C 251.215 1.55625 -0.353976 0
M  V30 2649 C 251.415 1.66151 1.14 0
M  V30 2650 O 250.471 1.63329 1.92561 0
M  V30 2651 C 251.784 2.80171 -1.092 0
M  V30 2652 C 253.332 2.93954 -1.07518 0
M  V30 2653 C 253.807 4.21372 -1.79471 0
M  V30 2654 N 255.298 4.28303 -1.76381 0
M  V30 2655 C 256.033 5.25729 -2.28904 0
M  V30 2656 N 255.529 6.29254 -2.89846 0
M  V30 2657 N 257.322 5.17586 -2.19228 0
M  V30 2658 H 249.473 1.33415 -1.6527 0
M  V30 2659 H 251.736 0.64282 -0.696769 0
M  V30 2660 H 251.442 2.78561 -2.14701 0
M  V30 2661 H 251.316 3.7133 -0.662862 0
M  V30 2662 H 253.703 2.95086 -0.028475 0
M  V30 2663 H 253.784 2.04002 -1.54328 0
M  V30 2664 H 253.428 4.21001 -2.84114 0
M  V30 2665 H 253.358 5.10275 -1.30104 0
M  V30 2666 H 255.849 3.54119 -1.31939 0
M  V30 2667 H 256.162 6.99964 -3.27522 0
M  V30 2668 H 254.507 6.29791 -2.93919 0
M  V30 2669 H 257.698 4.35631 -1.71299 0
M  V30 2670 H 257.871 5.93348 -2.60466 0
M  V30 2671 N 251.277 0.427512 1.51691 0
M  V30 2672 C 252.507 -0.140986 2.06118 0
M  V30 2673 C 252.915 -1.37854 1.29588 0
M  V30 2674 O 252.258 -1.80411 0.346036 0
M  V30 2675 C 252.32 -0.538276 3.55447 0
M  V30 2676 C 251.984 0.591095 4.53161 0
M  V30 2677 C 252.981 1.46027 4.98971 0
M  V30 2678 C 250.666 0.769028 4.96378 0
M  V30 2679 C 252.66 2.49216 5.8666 0
M  V30 2680 C 250.347 1.80421 5.83859 0
M  V30 2681 C 251.345 2.66417 6.28897 0
M  V30 2682 O 251.033 3.68159 7.14643 0
M  V30 2683 H 250.765 -0.0157455 0.675817 0
M  V30 2684 H 253.319 0.602495 1.96365 0
M  V30 2685 H 251.549 -1.33432 3.6295 0
M  V30 2686 H 253.238 -1.0368 3.92435 0
M  V30 2687 H 254.004 1.33429 4.66285 0
M  V30 2688 H 249.883 0.109273 4.6087 0
M  V30 2689 H 253.427 3.16372 6.21735 0
M  V30 2690 H 249.324 1.93042 6.15959 0
M  V30 2691 H 250.092 3.64622 7.32798 0
M  V30 2692 N 252.755 -1.56801 0.158532 0
M  V30 2693 C 253.718 -2.16138 -0.762705 0
M  V30 2694 C 254.718 -1.1061 -1.16713 0
M  V30 2695 O 255.908 -1.36191 -1.08617 0
M  V30 2696 C 253.04 -2.73386 -2.03649 0
M  V30 2697 H 254.233 -2.98886 -0.246354 0
M  V30 2698 H 251.786 -1.56035 -0.0909744 0
M  V30 2699 H 252.521 -1.94335 -2.59623 0
M  V30 2700 H 252.306 -3.50601 -1.75559 0
M  V30 2701 H 253.796 -3.19065 -2.6942 0
M  V30 2702 N 254.233 0.115231 -1.57178 0
M  V30 2703 C 255.163 1.1423 -2.03651 0
M  V30 2704 C 256.144 1.42967 -0.921655 0
M  V30 2705 O 257.329 1.53343 -1.19162 0
M  V30 2706 C 254.459 2.4675 -2.44401 0
M  V30 2707 C 253.413 2.32467 -3.59365 0
M  V30 2708 C 252.739 3.69984 -3.86026 0
M  V30 2709 C 254.039 1.78203 -4.90959 0
M  V30 2710 H 255.733 0.755749 -2.89705 0
M  V30 2711 H 253.279 0.362093 -1.39373 0
M  V30 2712 H 255.232 3.18854 -2.75517 0
M  V30 2713 H 253.956 2.87302 -1.55322 0
M  V30 2714 H 252.615 1.62811 -3.28463 0
M  V30 2715 H 252.263 4.08028 -2.94147 0
M  V30 2716 H 251.963 3.61279 -4.63412 0
M  V30 2717 H 253.487 4.43587 -4.19599 0
M  V30 2718 H 254.901 2.40128 -5.20587 0
M  V30 2719 H 253.298 1.8031 -5.72371 0
M  V30 2720 H 254.368 0.739876 -4.79222 0
M  V30 2721 N 255.711 1.52812 0.385517 0
M  V30 2722 C 256.939 1.71907 1.15133 0
M  V30 2723 C 257.354 0.439004 1.83625 0
M  V30 2724 O 256.711 -0.586765 1.7281 0
M  V30 2725 C 256.762 2.87099 2.19673 0
M  V30 2726 O 256.483 4.10151 1.53973 0
M  V30 2727 C 257.984 3.17902 3.08955 0
M  V30 2728 H 255.204 0.575479 0.345057 0
M  V30 2729 H 257.748 1.99476 0.45052 0
M  V30 2730 H 255.903 2.61982 2.85384 0
M  V30 2731 H 256.317 4.74514 2.23465 0
M  V30 2732 H 257.791 4.01959 3.7833 0
M  V30 2733 H 258.268 2.3243 3.72657 0
M  V30 2734 H 258.874 3.44871 2.48885 0
M  V30 2735 N 257.189 -0.644168 1.43834 0
M  V30 2736 C 258.436 -1.40395 1.4593 0
M  V30 2737 C 258.764 -1.94305 0.0869658 0
M  V30 2738 O 258.019 -1.73288 -0.909378 0
M  V30 2739 C 258.318 -2.59615 2.45631 0
M  V30 2740 C 257.984 -2.2407 3.91284 0
M  V30 2741 C 256.646 -2.14089 4.30952 0
M  V30 2742 C 258.998 -1.95775 4.83034 0
M  V30 2743 C 256.326 -1.73981 5.6031 0
M  V30 2744 C 258.678 -1.57163 6.12766 0
M  V30 2745 C 257.342 -1.45713 6.51402 0
M  V30 2746 H 256.612 -0.513741 0.533995 0
M  V30 2747 H 259.259 -0.731724 1.76969 0
M  V30 2748 H 257.564 -3.32011 2.08028 0
M  V30 2749 H 259.261 -3.17834 2.44504 0
M  V30 2750 H 255.851 -2.32753 3.59895 0
M  V30 2751 H 260.035 -2.02403 4.53152 0
M  V30 2752 H 255.291 -1.63709 5.89075 0
M  V30 2753 H 259.465 -1.34303 6.83327 0
M  V30 2754 H 257.092 -1.14406 7.51542 0
M  V30 2755 N 258.668 -1.30515 -0.883378 0
M  V30 2756 C 259.631 -1.1701 -1.97082 0
M  V30 2757 C 260.631 -0.10089 -1.60483 0
M  V30 2758 O 261.821 -0.349127 -1.70666 0
M  V30 2759 C 258.953 -0.793045 -3.31547 0
M  V30 2760 H 260.146 -2.13622 -2.10489 0
M  V30 2761 H 257.699 -1.13935 -1.06998 0
M  V30 2762 H 258.434 0.172499 -3.23841 0
M  V30 2763 H 258.219 -1.56576 -3.5948 0
M  V30 2764 H 259.709 -0.722073 -4.1131 0
M  V30 2765 N 260.146 1.09593 -1.13257 0
M  V30 2766 C 261.056 2.19739 -0.821691 0
M  V30 2767 C 262.072 1.72926 0.19302 0
M  V30 2768 O 263.248 2.01385 0.0244895 0
M  V30 2769 C 260.313 3.45482 -0.290333 0
M  V30 2770 C 259.374 4.06985 -1.36607 0
M  V30 2771 C 258.607 5.26726 -0.859975 0
M  V30 2772 O 258.83 5.69594 0.303082 0
M  V30 2773 O 257.764 5.7931 -1.63351 0
M  V30 2774 H 261.59 2.48781 -1.74189 0
M  V30 2775 H 259.175 1.18496 -0.909894 0
M  V30 2776 H 261.057 4.214 0.000674022 0
M  V30 2777 H 259.732 3.18047 0.602306 0
M  V30 2778 H 258.639 3.32712 -1.71037 0
M  V30 2779 H 259.972 4.38643 -2.23279 0
M  V30 2780 N 261.624 0.925811 1.2754 0
M  V30 2781 C 262.587 0.428129 2.25166 0
M  V30 2782 C 263.587 -0.452261 1.54309 0
M  V30 2783 O 264.777 -0.253608 1.72344 0
M  V30 2784 C 261.909 -0.384749 3.38722 0
M  V30 2785 H 263.102 1.29066 2.70706 0
M  V30 2786 H 260.655 0.706323 1.3943 0
M  V30 2787 H 261.39 -1.26618 2.98561 0
M  V30 2788 H 261.175 0.246454 3.91325 0
M  V30 2789 H 262.665 -0.723389 4.11287 0
M  V30 2790 N 263.102 -1.41638 0.69111 0
M  V30 2791 C 264.034 -2.29194 -0.0161523 0
M  V30 2792 C 265.047 -1.44549 -0.748955 0
M  V30 2793 O 266.236 -1.681 -0.6004 0
M  V30 2794 C 263.336 -3.22325 -1.0469 0
M  V30 2795 C 262.509 -4.35706 -0.384621 0
M  V30 2796 C 261.568 -5.09443 -1.31737 0
M  V30 2797 O 260.594 -5.63386 -0.811451 0
M  V30 2798 N 261.796 -5.16487 -2.64993 0
M  V30 2799 H 264.561 -2.90534 0.735523 0
M  V30 2800 H 262.122 -1.52742 0.53679 0
M  V30 2801 H 264.114 -3.68522 -1.67252 0
M  V30 2802 H 262.684 -2.62323 -1.70015 0
M  V30 2803 H 261.904 -3.91948 0.420804 0
M  V30 2804 H 263.192 -5.08743 0.0760765 0
M  V30 2805 H 262.59 -4.741 -3.08619 0
M  V30 2806 H 261.147 -5.66276 -3.22761 0
M  V30 2807 N 264.58 -0.43555 -1.51462 0
M  V30 2808 C 265.49 0.383001 -2.31453 0
M  V30 2809 C 266.506 1.02931 -1.4029 0
M  V30 2810 O 267.682 1.02507 -1.73362 0
M  V30 2811 C 264.747 1.47043 -3.13973 0
M  V30 2812 C 263.808 0.844433 -4.20913 0
M  V30 2813 C 263.041 1.88004 -4.9949 0
M  V30 2814 O 263.264 3.10199 -4.78678 0
M  V30 2815 O 262.198 1.47157 -5.83634 0
M  V30 2816 H 266.024 -0.269964 -3.02498 0
M  V30 2817 H 263.609 -0.19813 -1.4808 0
M  V30 2818 H 265.491 2.10113 -3.65281 0
M  V30 2819 H 264.166 2.10751 -2.45695 0
M  V30 2820 H 263.073 0.175729 -3.73687 0
M  V30 2821 H 264.406 0.250869 -4.9156 0
M  V30 2822 N 266.058 1.56714 -0.166846 0
M  V30 2823 C 267.021 2.16539 0.751232 0
M  V30 2824 C 268.021 1.11228 1.16125 0
M  V30 2825 O 269.211 1.36765 1.07894 0
M  V30 2826 C 266.343 2.74462 2.02196 0
M  V30 2827 H 267.536 2.99013 0.230499 0
M  V30 2828 H 265.089 1.56081 0.0826982 0
M  V30 2829 H 265.824 1.95709 2.58589 0
M  V30 2830 H 265.609 3.51527 1.73698 0
M  V30 2831 H 267.099 3.20489 2.67725 0
M  V30 2832 N 267.536 -0.106894 1.57237 0
M  V30 2833 C 268.776 -0.818277 1.87306 0
M  V30 2834 C 269.14 -1.76474 0.756371 0
M  V30 2835 O 270.341 -2.5186 0.939155 0
M  V30 2836 C 268.612 -1.53806 3.22612 0
M  V30 2837 S 270.171 -2.28935 3.74345 0
M  V30 2838 H 266.989 -0.272862 0.656557 0
M  V30 2839 H 269.591 -0.075988 1.95352 0
M  V30 2840 H 268.295 -0.834951 4.01817 0
M  V30 2841 H 267.826 -2.32049 3.17674 0
M  V30 2842 H 269.841 -3.54871 3.46815 0
M  V30 2843 N 269.014 -1.53014 -0.377408 0
M  V30 2844 C 270.43 -1.42523 -0.718281 0
M  V30 2845 C 270.63 -0.55487 -1.9371 0
M  V30 2846 O 269.686 -0.0327593 -2.52479 0
M  V30 2847 C 270.999 -2.85546 -0.942539 0
M  V30 2848 C 272.547 -2.95101 -1.04329 0
M  V30 2849 C 273.022 -4.3916 -1.3001 0
M  V30 2850 N 274.513 -4.42536 -1.36806 0
M  V30 2851 C 275.248 -5.51097 -1.58364 0
M  V30 2852 N 274.744 -6.69724 -1.77317 0
M  V30 2853 N 276.537 -5.38657 -1.60638 0
M  V30 2854 H 268.688 -2.08116 0.424426 0
M  V30 2855 H 270.951 -0.939352 0.127759 0
M  V30 2856 H 270.657 -3.51499 -0.118929 0
M  V30 2857 H 270.531 -3.28493 -1.85397 0
M  V30 2858 H 272.918 -2.29309 -1.85745 0
M  V30 2859 H 272.999 -2.55566 -0.109505 0
M  V30 2860 H 272.643 -5.05521 -0.490991 0
M  V30 2861 H 272.573 -4.76258 -2.24691 0
M  V30 2862 H 275.064 -3.57039 -1.23821 0
M  V30 2863 H 275.377 -7.48233 -1.93306 0
M  V30 2864 H 273.722 -6.72732 -1.74518 0
M  V30 2865 H 276.913 -4.44948 -1.45391 0
M  V30 2866 H 277.086 -6.2333 -1.77098 0
M  V30 2867 N 270.492 0.636531 -1.44174 0
M  V30 2868 C 271.422 1.76003 -1.53444 0
M  V30 2869 C 272.403 1.65619 -0.387841 0
M  V30 2870 O 273.588 1.84461 -0.607257 0
M  V30 2871 C 270.718 3.14511 -1.4731 0
M  V30 2872 C 269.672 3.39677 -2.60391 0
M  V30 2873 C 268.998 4.78159 -2.39308 0
M  V30 2874 C 270.298 3.32772 -4.02567 0
M  V30 2875 H 271.992 1.68501 -2.47483 0
M  V30 2876 H 269.538 0.809237 -1.19111 0
M  V30 2877 H 271.491 3.92878 -1.52397 0
M  V30 2878 H 270.215 3.22783 -0.49785 0
M  V30 2879 H 268.874 2.63688 -2.54684 0
M  V30 2880 H 268.522 4.83128 -1.39988 0
M  V30 2881 H 268.222 4.95956 -3.15122 0
M  V30 2882 H 269.746 5.58762 -2.46205 0
M  V30 2883 H 271.16 4.01051 -4.09672 0
M  V30 2884 H 269.557 3.62104 -4.7854 0
M  V30 2885 H 270.627 2.30669 -4.2652 0
M  V30 2886 N 271.97 1.30982 0.876444 0
M  V30 2887 C 273.195 1.23373 1.66715 0
M  V30 2888 C 273.62 -0.19885 1.87046 0
M  V30 2889 O 272.978 -1.1427 1.40756 0
M  V30 2890 C 273.026 1.97644 3.01611 0
M  V30 2891 O 272.13 1.30935 3.91062 0
M  V30 2892 H 271.471 0.426279 0.509099 0
M  V30 2893 H 274.001 1.72944 1.09323 0
M  V30 2894 H 274.011 2.06992 3.51594 0
M  V30 2895 H 272.686 3.01829 2.86133 0
M  V30 2896 H 271.263 1.29996 3.49507 0
M  V30 2897 N 273.449 -1.08991 1.13837 0
M  V30 2898 C 274.674 -1.85551 0.926585 0
M  V30 2899 C 275.099 -1.80782 -0.519566 0
M  V30 2900 O 274.457 -1.18855 -1.36906 0
M  V30 2901 C 274.505 -3.31266 1.42462 0
M  V30 2902 O 273.609 -4.07822 0.612789 0
M  V30 2903 H 272.95 -0.575192 0.331738 0
M  V30 2904 H 275.48 -1.37604 1.51414 0
M  V30 2905 H 275.49 -3.82112 1.43019 0
M  V30 2906 H 274.165 -3.34052 2.47754 0
M  V30 2907 H 272.742 -3.66731 0.675463 0
M  V30 2908 N 274.927 -0.932562 -1.27047 0
M  V30 2909 C 275.89 -0.440064 -2.24936 0
M  V30 2910 C 276.89 0.444071 -1.54547 0
M  V30 2911 O 278.08 0.244465 -1.72476 0
M  V30 2912 C 275.212 0.36678 -3.38921 0
M  V30 2913 H 276.405 -1.305 -2.70018 0
M  V30 2914 H 273.958 -0.713707 -1.39054 0
M  V30 2915 H 274.693 1.25033 -2.99228 0
M  V30 2916 H 274.478 -0.267204 -3.91188 0
M  V30 2917 H 275.968 0.701567 -4.11665 0
M  V30 2918 N 276.405 1.4127 -0.698611 0
M  V30 2919 C 277.654 2.00408 -0.227949 0
M  V30 2920 C 277.967 1.55981 1.18023 0
M  V30 2921 O 279.173 2.07699 1.74852 0
M  V30 2922 C 277.629 3.58129 -0.356636 0
M  V30 2923 C 277.237 4.11536 -1.77037 0
M  V30 2924 C 278.981 4.24466 0.0540969 0
M  V30 2925 C 276.888 5.61701 -1.85055 0
M  V30 2926 H 275.818 0.749586 -0.0814657 0
M  V30 2927 H 278.469 1.61713 -0.867249 0
M  V30 2928 H 276.851 3.94442 0.350965 0
M  V30 2929 H 278.025 3.86636 -2.50698 0
M  V30 2930 H 276.34 3.57736 -2.13105 0
M  V30 2931 H 278.937 5.34698 0.0146723 0
M  V30 2932 H 279.28 4.01687 1.09332 0
M  V30 2933 H 279.813 3.93198 -0.603337 0
M  V30 2934 H 276.552 5.89312 -2.8704 0
M  V30 2935 H 276.072 5.88519 -1.15783 0
M  V30 2936 H 277.751 6.26524 -1.61484 0
M  V30 2937 N 277.883 0.443576 1.51229 0
M  V30 2938 C 279.132 -0.122332 2.01329 0
M  V30 2939 C 279.445 -1.43237 1.33201 0
M  V30 2940 O 280.651 -2.0816 1.74304 0
M  V30 2941 C 279.107 -0.268551 3.58897 0
M  V30 2942 C 278.715 1.03142 4.35965 0
M  V30 2943 C 280.459 -0.787894 4.17124 0
M  V30 2944 C 278.366 0.850504 5.85252 0
M  V30 2945 H 277.296 -0.0494929 0.752374 0
M  V30 2946 H 279.947 0.574289 1.74282 0
M  V30 2947 H 278.329 -1.02832 3.82415 0
M  V30 2948 H 279.503 1.80001 4.24189 0
M  V30 2949 H 277.818 1.47977 3.89219 0
M  V30 2950 H 280.415 -0.939841 5.26375 0
M  V30 2951 H 280.758 -1.77201 3.76703 0
M  V30 2952 H 281.291 -0.0862669 3.97706 0
M  V30 2953 H 278.03 1.80718 6.30096 0
M  V30 2954 H 277.55 0.121825 5.99676 0
M  V30 2955 H 279.229 0.506163 6.45017 0
M  V30 2956 N 279.361 -1.56624 0.175154 0
M  V30 2957 C 280.324 -2.16934 -0.739738 0
M  V30 2958 C 281.324 -1.11842 -1.15533 0
M  V30 2959 O 282.514 -1.37335 -1.07167 0
M  V30 2960 C 279.646 -2.75531 -2.00738 0
M  V30 2961 H 280.839 -2.99131 -0.214639 0
M  V30 2962 H 278.392 -1.56123 -0.0744197 0
M  V30 2963 H 279.127 -1.97078 -2.57548 0
M  V30 2964 H 278.912 -3.52444 -1.71831 0
M  V30 2965 H 280.402 -3.21904 -2.66021 0
M  V30 2966 N 280.839 0.0985539 -1.57292 0
M  V30 2967 C 281.802 1.10402 -2.00858 0
M  V30 2968 C 282.802 1.33146 -0.901593 0
M  V30 2969 O 283.992 1.29318 -1.16716 0
M  V30 2970 C 281.124 2.45394 -2.36632 0
M  V30 2971 H 282.317 0.729099 -2.90902 0
M  V30 2972 H 279.87 0.343495 -1.52479 0
M  V30 2973 H 280.605 2.87769 -1.49531 0
M  V30 2974 H 280.39 2.30235 -3.17387 0
M  V30 2975 H 281.88 3.17718 -2.71007 0
M  V30 2976 N 282.317 1.53212 0.369288 0
M  V30 2977 C 283.728 1.60943 0.946276 0
M  V30 2978 C 284.079 0.47452 1.90375 0
M  V30 2979 O 283.204 -0.399597 2.12679 0
M  V30 2980 C 283.799 2.91715 1.72302 0
M  V30 2981 C 282.358 3.01792 2.24941 0
M  V30 2982 C 281.505 2.56211 1.06072 0
M  V30 2983 H 284.456 1.58007 0.148198 0
M  V30 2984 H 284.477 2.79309 2.58393 0
M  V30 2985 H 283.989 3.74295 1.0259 0
M  V30 2986 H 282.09 2.23791 2.97906 0
M  V30 2987 H 282.203 4.06803 2.53077 0
M  V30 2988 H 280.567 2.10998 1.4266 0
M  V30 2989 H 281.35 3.41206 0.378639 0
M  V30 2990 N 283.795 -0.628877 1.44509 0
M  V30 2991 C 285.211 -0.947305 1.28446 0
M  V30 2992 C 285.411 -2.00275 0.221872 0
M  V30 2993 O 284.467 -2.49447 -0.391471 0
M  V30 2994 C 285.78 -1.40843 2.65676 0
M  V30 2995 C 287.328 -1.52379 2.73404 0
M  V30 2996 C 287.803 -2.01875 4.11109 0
M  V30 2997 N 289.294 -2.09142 4.13296 0
M  V30 2998 C 290.029 -2.48615 5.16699 0
M  V30 2999 N 289.525 -2.87209 6.30462 0
M  V30 3000 N 291.318 -2.48768 5.04054 0
M  V30 3001 H 283.469 0.0690977 2.12288 0
M  V30 3002 H 285.732 -0.0317164 0.947469 0
M  V30 3003 H 285.438 -0.707206 3.44516 0
M  V30 3004 H 285.312 -2.37902 2.92716 0
M  V30 3005 H 287.699 -2.21598 1.9488 0
M  V30 3006 H 287.78 -0.536898 2.50102 0
M  V30 3007 H 287.424 -1.3325 4.90109 0
M  V30 3008 H 287.354 -3.0144 4.31789 0
M  V30 3009 H 289.845 -1.81991 3.31191 0
M  V30 3010 H 290.158 -3.16149 7.05174 0
M  V30 3011 H 288.503 -2.84955 6.33897 0
M  V30 3012 H 291.694 -2.18009 4.14234 0
M  V30 3013 H 291.867 -2.79207 5.84763 0
M  V30 3014 N 285.273 -1.31445 -0.869486 0
M  V30 3015 C 286.223 -1.15731 -1.96444 0
M  V30 3016 C 287.207 -0.0681855 -1.60755 0
M  V30 3017 O 288.399 -0.293154 -1.74555 0
M  V30 3018 C 285.528 -0.867255 -3.32165 0
M  V30 3019 C 284.614 -1.99738 -3.74119 0
M  V30 3020 N 285.005 -3.24447 -3.88031 0
M  V30 3021 C 283.303 -1.89723 -4.03635 0
M  V30 3022 C 284.004 -3.98374 -4.23879 0
M  V30 3023 N 282.98 -3.26547 -4.3459 0
M  V30 3024 H 286.782 -2.10296 -2.05312 0
M  V30 3025 H 284.296 -1.23009 -1.06031 0
M  V30 3026 H 286.293 -0.735668 -4.10358 0
M  V30 3027 H 284.953 0.0701614 -3.24624 0
M  V30 3028 H 285.964 -3.59557 -3.72746 0
M  V30 3029 H 282.641 -1.03449 -4.04481 0
M  V30 3030 H 284.031 -5.05844 -4.42235 0
M  V30 3031 N 286.751 1.08385 -1.14413 0
M  V30 3032 C 287.681 2.17321 -0.854044 0
M  V30 3033 C 288.662 1.69024 0.191049 0
M  V30 3034 O 289.847 1.94141 0.0476779 0
M  V30 3035 C 286.977 3.45719 -0.330983 0
M  V30 3036 C 285.931 4.07409 -1.31155 0
M  V30 3037 C 285.257 5.30762 -0.64778 0
M  V30 3038 C 286.557 4.48665 -2.67388 0
M  V30 3039 H 288.251 2.41845 -1.76498 0
M  V30 3040 H 285.797 1.16233 -0.850051 0
M  V30 3041 H 287.75 4.21241 -0.115645 0
M  V30 3042 H 286.474 3.2075 0.615381 0
M  V30 3043 H 285.133 3.33919 -1.51306 0
M  V30 3044 H 284.781 5.02078 0.304398 0
M  V30 3045 H 284.481 5.72992 -1.30207 0
M  V30 3046 H 286.005 6.08998 -0.441972 0
M  V30 3047 H 287.419 5.15364 -2.51143 0
M  V30 3048 H 285.816 5.01814 -3.29093 0
M  V30 3049 H 286.886 3.60543 -3.24248 0
M  V30 3050 N 288.23 0.939286 1.26551 0
M  V30 3051 C 289.162 0.404704 2.25599 0
M  V30 3052 C 290.175 -0.470983 1.55838 0
M  V30 3053 O 291.364 -0.281734 1.76263 0
M  V30 3054 C 288.464 -0.43764 3.36062 0
M  V30 3055 C 287.637 0.421449 4.35365 0
M  V30 3056 C 286.696 -0.36015 5.24966 0
M  V30 3057 O 285.722 0.236167 5.6871 0
M  V30 3058 N 286.924 -1.65715 5.56344 0
M  V30 3059 H 289.689 1.25618 2.72103 0
M  V30 3060 H 287.25 0.807963 1.40298 0
M  V30 3061 H 289.242 -0.967866 3.92956 0
M  V30 3062 H 287.812 -1.18991 2.89067 0
M  V30 3063 H 287.032 1.1329 3.7757 0
M  V30 3064 H 288.32 1.00835 4.98708 0
M  V30 3065 H 287.718 -2.16378 5.22682 0
M  V30 3066 H 286.275 -2.13366 6.15888 0
M  V30 3067 N 289.708 -1.40897 0.706093 0
M  V30 3068 C 290.671 -2.29131 0.0562841 0
M  V30 3069 C 291.671 -1.44901 -0.697166 0
M  V30 3070 O 292.861 -1.65926 -0.530484 0
M  V30 3071 C 289.993 -3.27957 -0.93043 0
M  V30 3072 H 291.186 -2.88091 0.833284 0
M  V30 3073 H 288.739 -1.4906 0.470192 0
M  V30 3074 H 289.474 -2.73997 -1.73482 0
M  V30 3075 H 289.259 -3.90124 -0.393166 0
M  V30 3076 H 290.749 -3.94049 -1.38256 0
M  V30 3077 N 291.186 -0.45159 -1.50991 0
M  V30 3078 C 292.149 0.341117 -2.26647 0
M  V30 3079 C 293.149 0.937422 -1.30649 0
M  V30 3080 O 294.339 0.809644 -1.54241 0
M  V30 3081 C 291.471 1.48398 -3.06905 0
M  V30 3082 H 292.664 -0.322117 -2.98165 0
M  V30 3083 H 290.217 -0.205122 -1.54948 0
M  V30 3084 H 290.952 2.18284 -2.39838 0
M  V30 3085 H 290.737 1.06241 -3.77432 0
M  V30 3086 H 292.227 2.04367 -3.64176 0
M  V30 3087 N 292.664 1.56529 -0.183458 0
M  V30 3088 C 293.911 1.97244 0.458357 0
M  V30 3089 C 294.239 1.06992 1.62428 0
M  V30 3090 O 293.494 0.106542 1.9541 0
M  V30 3091 C 293.793 3.43939 0.971637 0
M  V30 3092 C 293.459 4.5083 -0.0796784 0
M  V30 3093 C 292.121 4.79786 -0.368584 0
M  V30 3094 C 294.473 5.15138 -0.792638 0
M  V30 3095 C 291.801 5.70345 -1.37563 0
M  V30 3096 C 294.153 6.06784 -1.78875 0
M  V30 3097 C 292.817 6.34102 -2.08497 0
M  V30 3098 H 292.087 0.721768 0.167725 0
M  V30 3099 H 294.734 1.89472 -0.277976 0
M  V30 3100 H 293.039 3.48724 1.78602 0
M  V30 3101 H 294.736 3.72791 1.47744 0
M  V30 3102 H 291.326 4.28317 0.155668 0
M  V30 3103 H 295.51 4.92868 -0.582659 0
M  V30 3104 H 290.766 5.89789 -1.61118 0
M  V30 3105 H 294.94 6.55677 -2.3465 0
M  V30 3106 H 292.567 7.04074 -2.86678 0
M  V30 3107 N 294.142 -0.090211 1.57342 0
M  V30 3108 C 295.052 -1.12735 2.05738 0
M  V30 3109 C 296.068 -1.43557 0.983231 0
M  V30 3110 O 297.244 -1.54101 1.29672 0
M  V30 3111 C 294.309 -2.42659 2.47624 0
M  V30 3112 C 293.37 -2.18975 3.69254 0
M  V30 3113 C 292.603 -3.42704 4.09133 0
M  V30 3114 O 292.826 -4.51127 3.49057 0
M  V30 3115 O 291.76 -3.32003 5.02053 0
M  V30 3116 H 295.586 -0.746279 2.94388 0
M  V30 3117 H 293.171 -0.303064 1.46294 0
M  V30 3118 H 295.053 -3.19155 2.7517 0
M  V30 3119 H 293.728 -2.80182 1.62109 0
M  V30 3120 H 292.635 -1.40244 3.46818 0
M  V30 3121 H 293.968 -1.86342 4.55563 0
M  V30 3122 N 295.62 -1.53406 -0.361157 0
M  V30 3123 C 296.897 -1.60411 -1.11927 0
M  V30 3124 C 297.277 -0.414385 -2.06993 0
M  V30 3125 O 296.625 0.594976 -2.20618 0
M  V30 3126 C 296.835 -2.95652 -1.85448 0
M  V30 3127 C 298.183 -3.50386 -2.39823 0
M  V30 3128 O 299.207 -2.97711 -1.95568 0
M  V30 3129 O 298.066 -4.42482 -3.20737 0
M  V30 3130 H 295.16 -0.64811 -0.513695 0
M  V30 3131 H 297.706 -1.65749 -0.364065 0
M  V30 3132 H 296.478 -3.73682 -1.16091 0
M  V30 3133 H 296.101 -2.93825 -2.67866 0
M  V30 3134 N 297.098 0.621204 -1.44841 0
M  V30 3135 C 298.346 1.37783 -1.47852 0
M  V30 3136 C 298.667 1.94653 -0.116224 0
M  V30 3137 O 297.937 1.76367 0.852737 0
M  V30 3138 H 296.517 0.511453 -0.544449 0
M  V30 3139 H 299.179 0.730446 -1.80694 0
M  V30 3140 H 298.275 2.20414 -2.20961 0
M  V30 3141 N 298.576 1.31904 0.862503 0
M  V30 3142 C 299.823 1.22017 1.61611 0
M  V30 3143 C 300.151 -0.21991 1.93253 0
M  V30 3144 O 299.406 -1.17076 1.56817 0
M  V30 3145 C 299.705 2.01713 2.95037 0
M  V30 3146 C 299.371 3.51145 2.82857 0
M  V30 3147 C 298.033 3.91889 2.79243 0
M  V30 3148 C 300.385 4.46204 2.69353 0
M  V30 3149 C 297.713 5.25947 2.59993 0
M  V30 3150 C 300.065 5.80397 2.5164 0
M  V30 3151 C 298.729 6.20352 2.46413 0
M  V30 3152 H 297.999 0.44649 0.591378 0
M  V30 3153 H 300.646 1.63248 1.00111 0
M  V30 3154 H 298.951 1.53185 3.60613 0
M  V30 3155 H 300.648 1.91437 3.52353 0
M  V30 3156 H 297.238 3.1878 2.86491 0
M  V30 3157 H 301.422 4.15652 2.71196 0
M  V30 3158 H 296.678 5.5597 2.54376 0
M  V30 3159 H 300.852 6.53676 2.40169 0
M  V30 3160 H 298.479 7.24172 2.31256 0
M  V30 3161 N 300.054 -1.07777 1.14986 0
M  V30 3162 C 301.331 -1.7699 0.832695 0
M  V30 3163 C 301.711 -2.001 -0.672561 0
M  V30 3164 O 301.059 -1.61598 -1.6155 0
M  V30 3165 C 301.269 -3.08139 1.63863 0
M  V30 3166 C 302.617 -3.8256 1.84208 0
M  V30 3167 O 303.641 -3.17939 1.60603 0
M  V30 3168 O 302.5 -4.98612 2.23714 0
M  V30 3169 H 299.594 -0.768389 0.305791 0
M  V30 3170 H 302.14 -1.14182 1.25541 0
M  V30 3171 H 300.912 -2.86909 2.6608 0
M  V30 3172 H 300.535 -3.78678 1.21197 0
M  V30 3173 N 301.532 -0.945985 -1.26051 0
M  V30 3174 C 302.48 -0.450259 -2.282 0
M  V30 3175 C 303.474 0.47497 -1.62605 0
M  V30 3176 O 304.68 0.352653 -1.76512 0
M  V30 3177 H 301.055 -0.127081 -0.741184 0
M  V30 3178 H 303.026 -1.32422 -2.67408 0
M  V30 3179 C 301.775 0.26467 -3.46691 0
M  V30 3180 H 301.098 -0.438123 -3.97392 0
M  V30 3181 H 302.538 0.575678 -4.20074 0
M  V30 3182 C 300.997 1.48416 -3.02447 0
M  V30 3183 O 301.527 2.58227 -3.07704 0
M  V30 3184 N 299.733 1.34243 -2.57735 0
M  V30 3185 H 299.28 0.448994 -2.53657 0
M  V30 3186 H 299.238 2.15957 -2.28495 0
M  V30 3187 N 303.011 1.40521 -0.713556 0
M  V30 3188 C 304.251 2.02783 -0.256584 0
M  V30 3189 C 304.615 1.55352 1.12827 0
M  V30 3190 O 305.816 2.09663 1.68211 0
M  V30 3191 C 304.087 3.5586 -0.331414 0
M  V30 3192 S 305.646 4.38773 0.0488703 0
M  V30 3193 H 302.464 0.703655 -0.101934 0
M  V30 3194 H 305.066 1.71674 -0.935325 0
M  V30 3195 H 303.77 3.87874 -1.34098 0
M  V30 3196 H 303.301 3.91695 0.365873 0
M  V30 3197 H 305.316 4.79633 1.2715 0
M  V30 3198 N 304.489 0.459591 1.5075 0
M  V30 3199 C 305.766 -0.160371 1.94941 0
M  V30 3200 C 306.146 -1.58048 1.39943 0
M  V30 3201 O 305.494 -2.206 0.595629 0
M  V30 3202 C 305.704 -0.115432 3.48809 0
M  V30 3203 C 307.052 -0.310026 4.23467 0
M  V30 3204 O 308.076 -0.192543 3.55679 0
M  V30 3205 O 306.935 -0.546031 5.43765 0
M  V30 3206 H 304.029 -0.117925 0.818549 0
M  V30 3207 H 306.575 0.519169 1.61563 0
M  V30 3208 H 305.347 0.87652 3.81357 0
M  V30 3209 H 304.97 -0.836928 3.88692 0
M  V30 3210 N 305.967 -1.56429 0.191757 0
M  V30 3211 C 306.93 -2.17707 -0.716688 0
M  V30 3212 C 307.93 -1.13061 -1.14341 0
M  V30 3213 O 309.12 -1.38464 -1.05704 0
M  V30 3214 C 306.252 -2.77644 -1.97804 0
M  V30 3215 H 307.445 -2.99342 -0.1829 0
M  V30 3216 H 304.998 -1.56193 -0.0578566 0
M  V30 3217 H 305.733 -1.99799 -2.55443 0
M  V30 3218 H 305.518 -3.54246 -1.68083 0
M  V30 3219 H 307.008 -3.24708 -2.62592 0
M  V30 3220 N 307.445 0.0818655 -1.57387 0
M  V30 3221 C 308.693 0.781368 -1.86384 0
M  V30 3222 C 309.014 1.78618 -0.782342 0
M  V30 3223 O 308.284 1.94976 0.190061 0
M  V30 3224 H 306.864 0.291562 -0.687751 0
M  V30 3225 H 309.526 0.060348 -1.94807 0
M  V30 3226 H 308.622 1.3038 -2.83562 0
M  V30 3227 N 308.923 1.53595 0.353017 0
M  V30 3228 C 310.169 1.71581 1.09232 0
M  V30 3229 C 310.524 0.468328 1.86613 0
M  V30 3230 O 309.817 -0.538911 1.83865 0
M  V30 3231 C 310.011 2.91313 2.07054 0
M  V30 3232 C 309.84 4.27585 1.39287 0
M  V30 3233 C 308.61 4.92233 1.1417 0
M  V30 3234 C 310.808 5.07656 0.824005 0
M  V30 3235 N 308.79 6.124 0.428841 0
M  V30 3236 C 310.161 6.19531 0.241195 0
M  V30 3237 C 312.216 4.92609 0.723922 0
M  V30 3238 C 310.919 7.18002 -0.431952 0
M  V30 3239 C 312.945 5.91365 0.0645334 0
M  V30 3240 C 312.307 7.02571 -0.507347 0
M  V30 3241 H 308.406 0.680987 0.384422 0
M  V30 3242 H 310.99 1.91013 0.377096 0
M  V30 3243 H 309.161 2.73398 2.75877 0
M  V30 3244 H 310.893 2.98062 2.73753 0
M  V30 3245 H 307.648 4.51612 1.42631 0
M  V30 3246 H 308.072 6.76944 0.0874131 0
M  V30 3247 H 312.714 4.06808 1.15181 0
M  V30 3248 H 310.432 8.03384 -0.871758 0
M  V30 3249 H 314.018 5.81799 -0.0121469 0
M  V30 3250 H 312.898 7.77675 -1.0095 0
M  V30 3251 N 310.401 -0.613514 1.45168 0
M  V30 3252 C 311.331 -1.7354 1.56225 0
M  V30 3253 C 312.312 -1.64981 0.41414 0
M  V30 3254 O 313.497 -1.83472 0.636526 0
M  V30 3255 C 310.627 -3.12128 1.52295 0
M  V30 3256 C 309.581 -3.35491 2.65762 0
M  V30 3257 C 308.907 -4.74291 2.46885 0
M  V30 3258 C 310.207 -3.26325 4.0781 0
M  V30 3259 H 311.901 -1.64543 2.50132 0
M  V30 3260 H 309.447 -0.790185 1.20383 0
M  V30 3261 H 311.4 -3.90404 1.58628 0
M  V30 3262 H 310.124 -3.2195 0.549139 0
M  V30 3263 H 308.783 -2.59603 2.58847 0
M  V30 3264 H 308.431 -4.80839 1.47657 0
M  V30 3265 H 308.131 -4.9088 3.22972 0
M  V30 3266 H 309.655 -5.54775 2.55063 0
M  V30 3267 H 311.069 -3.94483 4.16 0
M  V30 3268 H 309.466 -3.54445 4.8424 0
M  V30 3269 H 310.536 -2.23855 4.30136 0
M  V30 3270 N 311.879 -1.3236 -0.855495 0
M  V30 3271 C 313.104 -1.2601 -1.64731 0
M  V30 3272 C 313.529 0.169068 -1.87339 0
M  V30 3273 O 312.887 1.12016 -1.42556 0
M  V30 3274 C 312.935 -2.02417 -2.98429 0
M  V30 3275 O 312.039 -1.3714 -3.8893 0
M  V30 3276 H 311.38 -0.434325 -0.502253 0
M  V30 3277 H 313.91 -1.74661 -1.06558 0
M  V30 3278 H 313.92 -2.12559 -3.48257 0
M  V30 3279 H 312.595 -3.06343 -2.81295 0
M  V30 3280 H 311.172 -1.3554 -3.47395 0
M  V30 3281 N 313.357 1.07166 -1.15556 0
M  V30 3282 C 314.634 1.76546 -0.842069 0
M  V30 3283 C 315.014 2.00453 0.661939 0
M  V30 3284 O 314.362 1.62452 1.60691 0
M  V30 3285 C 314.572 3.07266 -1.65495 0
M  V30 3286 C 315.92 3.81578 -1.86234 0
M  V30 3287 O 316.944 3.17083 -1.62287 0
M  V30 3288 O 315.803 4.97419 -2.26355 0
M  V30 3289 H 312.897 0.766756 -0.309862 0
M  V30 3290 H 315.443 1.13514 -1.26145 0
M  V30 3291 H 314.215 2.85494 -2.67598 0
M  V30 3292 H 313.838 3.7803 -1.23203 0
M  V30 3293 N 314.835 0.952656 1.25548 0
M  V30 3294 C 316.251 0.656769 1.4546 0
M  V30 3295 C 316.451 -0.78633 1.85524 0
M  V30 3296 O 315.507 -1.56183 1.98402 0
M  V30 3297 C 316.82 1.62801 2.52817 0
M  V30 3298 C 318.368 1.63897 2.66659 0
M  V30 3299 C 318.843 2.5978 3.77198 0
M  V30 3300 N 320.334 2.58133 3.84606 0
M  V30 3301 C 321.069 3.29003 4.69621 0
M  V30 3302 N 320.565 4.09339 5.58939 0
M  V30 3303 N 322.358 3.179 4.63569 0
M  V30 3304 H 314.509 1.88526 0.978344 0
M  V30 3305 H 316.772 0.810815 0.491206 0
M  V30 3306 H 316.478 2.65869 2.30232 0
M  V30 3307 H 316.352 1.38898 3.50695 0
M  V30 3308 H 318.739 0.615481 2.8861 0
M  V30 3309 H 318.82 1.91858 1.69187 0
M  V30 3310 H 318.464 3.62254 3.55997 0
M  V30 3311 H 318.394 2.29105 4.7415 0
M  V30 3312 H 320.885 1.99809 3.20757 0
M  V30 3313 H 321.198 4.6034 6.20731 0
M  V30 3314 H 319.543 4.13438 5.58654 0
M  V30 3315 H 322.734 2.54612 3.92798 0
M  V30 3316 H 322.907 3.73398 5.29602 0
M  V30 3317 N 316.313 -1.40141 0.720998 0
M  V30 3318 C 317.541 -2.05096 0.272656 0
M  V30 3319 C 317.956 -1.54334 -1.0875 0
M  V30 3320 O 317.313 -0.702211 -1.6845 0
M  V30 3321 C 317.364 -3.60636 0.249835 0
M  V30 3322 O 317.085 -4.09526 1.55629 0
M  V30 3323 C 318.586 -4.42772 -0.216396 0
M  V30 3324 H 315.806 -0.659897 0.121558 0
M  V30 3325 H 318.35 -1.79449 0.980723 0
M  V30 3326 H 316.505 -3.85232 -0.409237 0
M  V30 3327 H 316.919 -5.03758 1.4604 0
M  V30 3328 H 318.393 -5.51702 -0.181212 0
M  V30 3329 H 318.87 -4.20756 -1.25941 0
M  V30 3330 H 319.476 -4.23294 0.412596 0
M  V30 3331 N 317.792 -0.46758 -1.50504 0
M  V30 3332 C 319.038 0.0887532 -2.02606 0
M  V30 3333 C 319.371 1.39686 -1.34913 0
M  V30 3334 O 318.646 1.88644 -0.473694 0
M  V30 3335 C 318.929 0.276206 -3.59039 0
M  V30 3336 C 318.782 -1.05267 -4.37309 0
M  V30 3337 C 320.101 1.03235 -4.27821 0
M  V30 3338 H 317.22 0.0307814 -0.736357 0
M  V30 3339 H 319.862 -0.612485 -1.79857 0
M  V30 3340 H 318.012 0.8735 -3.78553 0
M  V30 3341 H 319.684 -1.68628 -4.29374 0
M  V30 3342 H 317.927 -1.65015 -4.01189 0
M  V30 3343 H 318.598 -0.875197 -5.45018 0
M  V30 3344 H 321.074 0.526111 -4.12761 0
M  V30 3345 H 319.95 1.1323 -5.37094 0
M  V30 3346 H 320.211 2.06806 -3.90748 0
M  V30 3347 N 319.27 1.56325 -0.20005 0
M  V30 3348 C 320.686 1.58839 0.155716 0
M  V30 3349 C 320.886 1.21636 1.60645 0
M  V30 3350 O 319.942 0.941437 2.34293 0
M  V30 3351 C 321.255 3.0032 -0.151124 0
M  V30 3352 C 322.803 3.12866 -0.0916284 0
M  V30 3353 C 323.278 4.56488 -0.371845 0
M  V30 3354 N 324.769 4.62089 -0.320641 0
M  V30 3355 C 325.504 5.71116 -0.511243 0
M  V30 3356 N 325 6.88592 -0.762461 0
M  V30 3357 N 326.793 5.60335 -0.445157 0
M  V30 3358 H 318.944 1.78788 -1.14668 0
M  V30 3359 H 321.207 0.829996 -0.458051 0
M  V30 3360 H 320.913 3.32117 -1.15721 0
M  V30 3361 H 320.787 3.73257 0.543986 0
M  V30 3362 H 323.174 2.80878 0.905065 0
M  V30 3363 H 323.255 2.42304 -0.81989 0
M  V30 3364 H 322.899 4.89189 -1.36588 0
M  V30 3365 H 322.829 5.25246 0.377362 0
M  V30 3366 H 325.32 3.77665 -0.13329 0
M  V30 3367 H 325.633 7.67581 -0.896576 0
M  V30 3368 H 323.978 6.90387 -0.799412 0
M  V30 3369 H 327.169 4.67436 -0.249278 0
M  V30 3370 H 327.342 6.45243 -0.597116 0
M  V30 3371 N 320.748 -0.0735177 1.57428 0
M  V30 3372 C 321.978 -0.78483 1.91112 0
M  V30 3373 C 322.386 -1.71729 0.7941 0
M  V30 3374 O 321.729 -1.82105 -0.241542 0
M  V30 3375 C 321.791 -1.63346 3.20247 0
M  V30 3376 C 321.455 -0.870557 4.48632 0
M  V30 3377 C 322.452 -0.19058 5.19551 0
M  V30 3378 C 320.137 -0.838242 4.95256 0
M  V30 3379 C 322.131 0.511503 6.35344 0
M  V30 3380 C 319.818 -0.132386 6.10957 0
M  V30 3381 C 320.816 0.541288 6.80852 0
M  V30 3382 O 320.504 1.23578 7.94345 0
M  V30 3383 H 320.236 -0.228408 0.636244 0
M  V30 3384 H 322.79 -0.0486039 2.05342 0
M  V30 3385 H 321.02 -2.41245 3.02222 0
M  V30 3386 H 322.709 -2.22329 3.39595 0
M  V30 3387 H 323.475 -0.206864 4.84559 0
M  V30 3388 H 319.354 -1.35206 4.40727 0
M  V30 3389 H 322.898 1.03789 6.89836 0
M  V30 3390 H 318.795 -0.114023 6.45399 0
M  V30 3391 H 319.563 1.14487 8.10454 0
M  V30 3392 N 322.226 -1.5378 -0.344866 0
M  V30 3393 C 323.637 -1.62428 -0.920552 0
M  V30 3394 C 323.988 -0.504747 -1.89596 0
M  V30 3395 O 323.113 0.365711 -2.13287 0
M  V30 3396 C 323.708 -2.94419 -1.67639 0
M  V30 3397 C 322.267 -3.05333 -2.20111 0
M  V30 3398 C 321.414 -2.57866 -1.01982 0
M  V30 3399 H 324.365 -1.58222 -0.123042 0
M  V30 3400 H 324.386 -2.83384 -2.53917 0
M  V30 3401 H 323.898 -3.7588 -0.966224 0
M  V30 3402 H 321.999 -2.28502 -2.94308 0
M  V30 3403 H 322.112 -4.10778 -2.46573 0
M  V30 3404 H 320.476 -2.13241 -1.39285 0
M  V30 3405 H 321.259 -3.41765 -0.324308 0
M  V30 3406 N 323.704 0.605807 -1.45491 0
M  V30 3407 C 324.953 1.36086 -1.48874 0
M  V30 3408 C 325.266 1.95131 -0.135333 0
M  V30 3409 O 326.472 2.7146 -0.0468144 0
M  V30 3410 C 324.928 2.46518 -2.62215 0
M  V30 3411 C 324.536 1.93877 -4.03876 0
M  V30 3412 C 326.28 3.23512 -2.74846 0
M  V30 3413 C 324.187 3.01801 -5.08596 0
M  V30 3414 H 323.117 0.511497 -0.553974 0
M  V30 3415 H 325.768 0.649089 -1.71636 0
M  V30 3416 H 324.15 3.20388 -2.32739 0
M  V30 3417 H 325.324 1.26704 -4.43038 0
M  V30 3418 H 323.639 1.29622 -3.95711 0
M  V30 3419 H 326.236 4.04013 -3.50253 0
M  V30 3420 H 326.579 3.74631 -1.81542 0
M  V30 3421 H 327.112 2.56742 -3.03856 0
M  V30 3422 H 323.851 2.55597 -6.03614 0
M  V30 3423 H 323.371 3.67535 -4.74002 0
M  V30 3424 H 325.05 3.66152 -5.33424 0
M  V30 3425 N 325.182 1.32811 0.848464 0
M  V30 3426 C 326.41 1.26739 1.63538 0
M  V30 3427 C 326.825 -0.163484 1.88091 0
M  V30 3428 O 326.182 -1.10258 1.45429 0
M  V30 3429 C 326.233 2.03013 2.99112 0
M  V30 3430 O 325.954 3.40518 2.75643 0
M  V30 3431 C 327.455 2.04038 3.93552 0
M  V30 3432 H 324.675 0.437024 0.509167 0
M  V30 3433 H 327.219 1.75033 1.05753 0
M  V30 3434 H 325.374 1.58426 3.53525 0
M  V30 3435 H 325.788 3.79635 3.61908 0
M  V30 3436 H 327.262 2.61877 4.85926 0
M  V30 3437 H 327.739 1.0282 4.26995 0
M  V30 3438 H 328.345 2.486 3.45077 0
M  V30 3439 N 326.66 -1.06551 1.16123 0
M  V30 3440 C 327.592 -2.13908 0.823171 0
M  V30 3441 C 328.605 -1.61926 -0.16843 0
M  V30 3442 O 329.794 -1.78412 0.055962 0
M  V30 3443 C 326.894 -3.38283 0.204424 0
M  V30 3444 C 326.067 -4.19589 1.23548 0
M  V30 3445 C 325.126 -5.2233 0.637011 0
M  V30 3446 O 324.152 -5.54034 1.30516 0
M  V30 3447 N 325.354 -5.77621 -0.577474 0
M  V30 3448 H 328.119 -2.43508 1.74711 0
M  V30 3449 H 325.68 -1.2253 1.05821 0
M  V30 3450 H 327.672 -4.0416 -0.208909 0
M  V30 3451 H 326.242 -3.06329 -0.623012 0
M  V30 3452 H 325.462 -3.49406 1.82507 0
M  V30 3453 H 326.75 -4.70718 1.93137 0
M  V30 3454 H 326.148 -5.54125 -1.13853 0
M  V30 3455 H 324.705 -6.45087 -0.933053 0
M  V30 3456 N 328.138 -0.959301 -1.25041 0
M  V30 3457 C 329.363 -0.633507 -1.97488 0
M  V30 3458 C 329.788 0.788555 -1.70773 0
M  V30 3459 O 329.146 1.53394 -0.966431 0
M  V30 3460 C 329.194 -0.904057 -3.49083 0
M  V30 3461 O 328.298 0.0147939 -4.12397 0
M  V30 3462 H 327.639 -0.240368 -0.618966 0
M  V30 3463 H 330.169 -1.28717 -1.59038 0
M  V30 3464 H 330.179 -0.832203 -3.99423 0
M  V30 3465 H 328.854 -1.94048 -3.67856 0
M  V30 3466 H 327.431 -0.109664 -3.72739 0
M  V30 3467 N 329.616 1.39756 -0.72842 0
M  V30 3468 C 331.032 1.5442 -0.403308 0
M  V30 3469 C 331.232 1.69694 1.08656 0
M  V30 3470 O 330.288 1.69373 1.87267 0
M  V30 3471 C 331.601 2.76555 -1.18058 0
M  V30 3472 C 333.149 2.90384 -1.16815 0
M  V30 3473 C 333.624 4.15449 -1.92785 0
M  V30 3474 N 335.115 4.22475 -1.89918 0
M  V30 3475 C 335.85 5.1818 -2.45514 0
M  V30 3476 N 335.346 6.19714 -3.09719 0
M  V30 3477 N 337.139 5.1035 -2.35584 0
M  V30 3478 H 329.29 1.28089 -1.69431 0
M  V30 3479 H 331.553 0.620327 -0.716867 0
M  V30 3480 H 331.259 2.7159 -2.23455 0
M  V30 3481 H 331.133 3.69033 -0.780662 0
M  V30 3482 H 333.52 2.94846 -0.12234 0
M  V30 3483 H 333.601 1.98988 -1.6074 0
M  V30 3484 H 333.245 4.11749 -2.97364 0
M  V30 3485 H 333.175 5.05877 -1.46272 0
M  V30 3486 H 335.666 3.49743 -1.43138 0
M  V30 3487 H 335.979 6.8919 -3.49625 0
M  V30 3488 H 334.324 6.20121 -3.13807 0
M  V30 3489 H 337.515 4.2996 -1.85072 0
M  V30 3490 H 337.688 5.84761 -2.79211 0
M  V30 3491 N 331.094 0.475555 1.50254 0
M  V30 3492 C 332.505 0.0215174 1.86688 0
M  V30 3493 C 332.856 -1.38467 1.39001 0
M  V30 3494 O 331.981 -2.02732 0.756894 0
M  V30 3495 C 332.576 0.0322715 3.38785 0
M  V30 3496 C 331.135 -0.366314 3.74613 0
M  V30 3497 C 330.282 0.415832 2.74164 0
M  V30 3498 H 333.233 0.689612 1.42934 0
M  V30 3499 H 333.254 -0.76889 3.7265 0
M  V30 3500 H 332.766 1.05584 3.73462 0
M  V30 3501 H 330.867 -1.39406 3.45538 0
M  V30 3502 H 330.98 -0.064555 4.79057 0
M  V30 3503 H 329.344 -0.131048 2.54363 0
M  V30 3504 H 330.127 1.43899 3.11686 0
M  V30 3505 N 332.573 -1.56217 0.208337 0
M  V30 3506 C 333.821 -1.97558 -0.426076 0
M  V30 3507 C 334.142 -1.09683 -1.61229 0
M  V30 3508 O 333.412 -0.170956 -1.95153 0
M  V30 3509 H 331.992 -0.729575 -0.160405 0
M  V30 3510 H 334.654 -1.92606 0.298155 0
M  V30 3511 H 333.75 -3.02672 -0.761312 0
M  V30 3512 N 334.051 0.0651679 -1.57465 0
M  V30 3513 C 335.291 0.768329 -1.8941 0
M  V30 3514 C 335.655 1.74406 -0.802894 0
M  V30 3515 O 336.856 2.49281 -1.0056 0
M  V30 3516 C 335.127 1.45199 -3.26576 0
M  V30 3517 S 336.686 2.1893 -3.80283 0
M  V30 3518 H 333.504 0.255359 -0.663561 0
M  V30 3519 H 336.106 0.024167 -1.95485 0
M  V30 3520 H 334.81 0.728123 -4.03889 0
M  V30 3521 H 334.341 2.23545 -3.23715 0
M  V30 3522 H 336.356 3.45551 -3.56102 0
M  V30 3523 N 335.529 1.53961 0.336706 0
M  V30 3524 C 336.759 1.75229 1.09446 0
M  V30 3525 C 337.167 0.494602 1.82621 0
M  V30 3526 O 336.51 -0.543764 1.75468 0
M  V30 3527 C 336.572 2.88288 2.1478 0
M  V30 3528 C 336.236 4.27656 1.6112 0
M  V30 3529 C 337.233 5.08981 1.0599 0
M  V30 3530 C 334.918 4.74161 1.6576 0
M  V30 3531 C 336.912 6.34916 0.562129 0
M  V30 3532 C 334.599 6.00067 1.15595 0
M  V30 3533 C 335.597 6.80278 0.609147 0
M  V30 3534 O 335.285 8.03818 0.114999 0
M  V30 3535 H 335.017 0.588881 0.331956 0
M  V30 3536 H 337.571 2.01614 0.392566 0
M  V30 3537 H 335.801 2.57443 2.88548 0
M  V30 3538 H 337.49 2.97461 2.76174 0
M  V30 3539 H 338.256 4.74213 1.01722 0
M  V30 3540 H 334.135 4.11781 2.07261 0
M  V30 3541 H 337.679 6.9747 0.134668 0
M  V30 3542 H 333.576 6.3433 1.19566 0
M  V30 3543 H 334.344 8.18172 0.231651 0
M  V30 3544 N 337.007 -0.598083 1.45811 0
M  V30 3545 C 338.255 -1.35413 1.50026 0
M  V30 3546 C 338.576 -1.94444 0.147177 0
M  V30 3547 O 337.846 -1.77701 -0.824571 0
M  V30 3548 H 336.426 -0.502727 0.552517 0
M  V30 3549 H 339.088 -0.701606 1.81834 0
M  V30 3550 H 338.184 -2.16871 2.2444 0
M  V30 3551 N 338.485 -1.33259 -0.841409 0
M  V30 3552 C 339.762 -1.15174 -1.58096 0
M  V30 3553 C 340.142 0.282858 -2.09196 0
M  V30 3554 O 339.49 1.28151 -1.89181 0
M  V30 3555 C 339.7 -2.1907 -2.71679 0
M  V30 3556 C 341.048 -2.53093 -3.40924 0
M  V30 3557 O 342.072 -2.17717 -2.81918 0
M  V30 3558 O 340.931 -3.1379 -4.47435 0
M  V30 3559 H 338.025 -0.445303 -0.696875 0
M  V30 3560 H 340.571 -1.44833 -0.884385 0
M  V30 3561 H 339.343 -3.15443 -2.31541 0
M  V30 3562 H 338.966 -1.90481 -3.49002 0
M  V30 3563 N 339.963 1.05934 -1.16686 0
M  V30 3564 C 341.379 1.30938 -0.912542 0
M  V30 3565 C 341.579 1.96803 0.432533 0
M  V30 3566 O 340.635 2.23693 1.17123 0
M  V30 3567 C 341.948 2.18649 -2.06429 0
M  V30 3568 C 343.496 2.32055 -2.10047 0
M  V30 3569 C 343.971 3.23122 -3.24586 0
M  V30 3570 N 345.462 3.30706 -3.24327 0
M  V30 3571 C 346.197 4.01273 -4.09594 0
M  V30 3572 N 345.693 4.74332 -5.04956 0
M  V30 3573 N 347.486 3.97361 -3.97569 0
M  V30 3574 H 339.637 0.615777 -2.03278 0
M  V30 3575 H 341.9 0.334077 -0.887185 0
M  V30 3576 H 341.606 1.77534 -3.03603 0
M  V30 3577 H 341.48 3.19252 -2.00894 0
M  V30 3578 H 343.867 2.72415 -1.13464 0
M  V30 3579 H 343.948 1.31107 -2.19647 0
M  V30 3580 H 343.592 2.83477 -4.2143 0
M  V30 3581 H 343.522 4.24057 -3.12223 0
M  V30 3582 H 346.013 2.78644 -2.55276 0
M  V30 3583 H 346.326 5.25716 -5.6643 0
M  V30 3584 H 344.671 4.733 -5.08933 0
M  V30 3585 H 347.862 3.39405 -3.22369 0
M  V30 3586 H 348.035 4.52089 -4.64241 0
M  V30 3587 N 341.441 0.965919 1.2453 0
M  V30 3588 C 342.666 0.643971 1.97149 0
M  V30 3589 C 343.091 -0.779487 1.71189 0
M  V30 3590 O 342.449 -1.5288 0.974553 0
M  V30 3591 C 342.497 0.922557 3.48599 0
M  V30 3592 O 341.601 0.00707672 4.12399 0
M  V30 3593 H 340.942 0.243647 0.617683 0
M  V30 3594 H 343.472 1.29558 1.58353 0
M  V30 3595 H 343.482 0.853373 3.98976 0
M  V30 3596 H 342.157 1.95996 3.66822 0
M  V30 3597 H 340.734 0.12943 3.72675 0
M  V30 3598 N 342.919 -1.39368 0.735821 0
M  V30 3599 C 344.144 -2.05319 0.293052 0
M  V30 3600 C 344.569 -1.55115 -1.064 0
M  V30 3601 O 343.927 -0.695261 -1.67439 0
M  V30 3602 C 343.975 -3.59305 0.305323 0
M  V30 3603 O 343.079 -4.06299 -0.706761 0
M  V30 3604 H 342.42 -0.650529 0.13307 0
M  V30 3605 H 344.95 -1.78386 1.00197 0
M  V30 3606 H 344.96 -4.07724 0.149997 0
M  V30 3607 H 343.635 -3.95207 1.29553 0
M  V30 3608 H 342.212 -3.69292 -0.517504 0
M  V30 3609 N 344.397 -0.483516 -1.5 0
M  V30 3610 C 345.327 0.293829 -2.31644 0
M  V30 3611 C 346.308 0.978864 -1.39112 0
M  V30 3612 O 347.493 0.973644 -1.68029 0
M  V30 3613 C 344.623 1.36897 -3.19181 0
M  V30 3614 C 343.577 0.804833 -4.20365 0
M  V30 3615 C 342.903 1.9792 -4.96721 0
M  V30 3616 C 344.203 -0.192313 -5.21946 0
M  V30 3617 H 345.897 -0.387616 -2.9688 0
M  V30 3618 H 343.443 -0.187856 -1.42769 0
M  V30 3619 H 345.396 1.92037 -3.751 0
M  V30 3620 H 344.12 2.07936 -2.51853 0
M  V30 3621 H 342.779 0.275319 -3.65565 0
M  V30 3622 H 342.427 2.67686 -4.25856 0
M  V30 3623 H 342.127 1.60789 -5.65173 0
M  V30 3624 H 343.651 2.53526 -5.55479 0
M  V30 3625 H 345.065 0.270333 -5.72662 0
M  V30 3626 H 343.462 -0.478543 -5.98189 0
M  V30 3627 H 344.532 -1.11409 -4.71928 0
M  V30 3628 N 345.875 1.56104 -0.216619 0
M  V30 3629 C 347.286 1.844 0.292128 0
M  V30 3630 C 347.637 1.13788 1.59833 0
M  V30 3631 O 346.762 0.405888 2.12559 0
M  V30 3632 C 347.357 3.3452 0.53681 0
M  V30 3633 C 345.916 3.63151 0.989876 0
M  V30 3634 C 345.063 2.77255 0.0502302 0
M  V30 3635 H 348.014 1.52481 -0.439926 0
M  V30 3636 H 348.035 3.54459 1.38345 0
M  V30 3637 H 347.547 3.85885 -0.414031 0
M  V30 3638 H 345.648 3.17238 1.95425 0
M  V30 3639 H 345.761 4.71177 0.867698 0
M  V30 3640 H 344.125 2.48555 0.556117 0
M  V30 3641 H 344.908 3.31416 -0.89544 0
M  V30 3642 N 347.353 -0.0568162 1.57498 0
M  V30 3643 C 348.601 -0.751617 1.87604 0
M  V30 3644 C 348.922 -1.77351 0.81066 0
M  V30 3645 O 348.192 -1.95254 -0.159018 0
M  V30 3646 H 346.772 -0.280583 0.692302 0
M  V30 3647 H 349.434 -0.0293483 1.94878 0
M  V30 3648 H 348.53 -1.25852 2.856 0
M  V30 3649 N 348.832 -1.54138 -0.328536 0
M  V30 3650 C 350.078 -1.7236 -1.06865 0
M  V30 3651 C 350.411 -0.493231 -1.87832 0
M  V30 3652 O 349.686 0.5098 -1.877 0
M  V30 3653 C 349.969 -2.99621 -1.99747 0
M  V30 3654 C 349.822 -4.32899 -1.22143 0
M  V30 3655 C 351.141 -3.22615 -2.99345 0
M  V30 3656 H 348.26 -0.627151 -0.387105 0
M  V30 3657 H 350.902 -1.86827 -0.345767 0
M  V30 3658 H 349.052 -2.87418 -2.61387 0
M  V30 3659 H 350.724 -4.56978 -0.630017 0
M  V30 3660 H 348.967 -4.30628 -0.523628 0
M  V30 3661 H 349.638 -5.18154 -1.90318 0
M  V30 3662 H 352.114 -3.34248 -2.47826 0
M  V30 3663 H 350.99 -4.13027 -3.61524 0
M  V30 3664 H 351.251 -2.3961 -3.71536 0
M  V30 3665 N 350.31 0.590341 -1.46126 0
M  V30 3666 C 351.726 0.912917 -1.30912 0
M  V30 3667 C 351.926 1.99616 -0.274893 0
M  V30 3668 O 350.982 2.50397 0.325197 0
M  V30 3669 C 352.295 1.3375 -2.69317 0
M  V30 3670 C 353.843 1.45077 -2.77348 0
M  V30 3671 C 354.318 1.90904 -4.16317 0
M  V30 3672 N 355.809 1.9811 -4.18696 0
M  V30 3673 C 356.544 2.34828 -5.23109 0
M  V30 3674 N 356.04 2.70393 -6.37856 0
M  V30 3675 N 357.833 2.35317 -5.10473 0
M  V30 3676 H 349.984 -0.125358 -2.1203 0
M  V30 3677 H 352.247 0.00658481 -0.947977 0
M  V30 3678 H 351.953 0.615614 -3.4627 0
M  V30 3679 H 351.827 2.30058 -2.9892 0
M  V30 3680 H 354.214 2.16353 -2.00687 0
M  V30 3681 H 354.295 0.4704 -2.51438 0
M  V30 3682 H 353.939 1.20209 -4.9347 0
M  V30 3683 H 353.869 2.89886 -4.39629 0
M  V30 3684 H 356.36 1.73146 -3.359 0
M  V30 3685 H 356.673 2.97341 -7.13308 0
M  V30 3686 H 355.018 2.68048 -6.41229 0
M  V30 3687 H 358.209 2.0695 -4.19868 0
M  V30 3688 H 358.382 2.63605 -5.9196 0
M  V30 3689 N 351.788 1.33704 0.83433 0
M  V30 3690 C 353.013 1.28615 1.62705 0
M  V30 3691 C 353.438 -0.139242 1.87584 0
M  V30 3692 O 352.796 -1.09734 1.4432 0
M  V30 3693 C 352.844 2.07139 2.95171 0
M  V30 3694 O 351.948 1.4331 3.86699 0
M  V30 3695 H 351.289 0.44226 0.49528 0
M  V30 3696 H 353.819 1.76335 1.03766 0
M  V30 3697 H 353.829 2.18073 3.44831 0
M  V30 3698 H 352.504 3.10779 2.76386 0
M  V30 3699 H 351.081 1.4105 3.45195 0
M  V30 3700 N 353.266 -1.05314 1.17247 0
M  V30 3701 C 354.496 -1.81707 0.983166 0
M  V30 3702 C 354.904 -1.83222 -0.471822 0
M  V30 3703 O 354.247 -1.25721 -1.3394 0
M  V30 3704 C 354.309 -3.29134 1.44606 0
M  V30 3705 C 353.973 -3.51304 2.92292 0
M  V30 3706 C 354.97 -3.4353 3.90235 0
M  V30 3707 C 352.655 -3.78306 3.30439 0
M  V30 3708 C 354.649 -3.62442 5.24323 0
M  V30 3709 C 352.336 -3.96866 4.64694 0
M  V30 3710 C 353.334 -3.88933 5.61445 0
M  V30 3711 O 353.022 -4.06976 6.93272 0
M  V30 3712 H 352.754 -0.579476 0.348114 0
M  V30 3713 H 355.308 -1.33705 1.55924 0
M  V30 3714 H 353.538 -3.78046 0.813537 0
M  V30 3715 H 355.227 -3.87049 1.22262 0
M  V30 3716 H 355.993 -3.22648 3.62109 0
M  V30 3717 H 351.872 -3.83585 2.55702 0
M  V30 3718 H 355.416 -3.56165 5.99827 0
M  V30 3719 H 351.313 -4.1724 4.92525 0
M  V30 3720 H 352.081 -4.24209 6.99992 0
M  V30 3721 N 354.744 -0.972509 -1.24016 0
M  V30 3722 C 355.992 -0.635776 -1.91839 0
M  V30 3723 C 356.313 0.832312 -1.76345 0
M  V30 3724 O 355.583 1.5946 -1.13795 0
M  V30 3725 H 354.163 -0.232157 -0.710009 0
M  V30 3726 H 356.825 -1.23462 -1.50809 0
M  V30 3727 H 355.921 -0.880545 -2.99421 0
M  V30 3728 N 356.222 1.38976 -0.743202 0
M  V30 3729 C 357.638 1.53984 -0.419664 0
M  V30 3730 C 357.838 1.70837 1.0685 0
M  V30 3731 O 356.894 1.7135 1.8546 0
M  V30 3732 C 358.207 2.75287 -1.20985 0
M  V30 3733 C 359.755 2.89129 -1.19889 0
M  V30 3734 C 360.23 4.13381 -1.97181 0
M  V30 3735 N 361.721 4.20437 -1.94389 0
M  V30 3736 C 362.456 5.15547 -2.50996 0
M  V30 3737 N 361.952 6.16395 -3.16274 0
M  V30 3738 N 363.745 5.07822 -2.40984 0
M  V30 3739 H 355.896 1.26285 -1.7078 0
M  V30 3740 H 358.159 0.612689 -0.723406 0
M  V30 3741 H 357.865 2.69204 -2.26323 0
M  V30 3742 H 357.739 3.68184 -0.819759 0
M  V30 3743 H 360.126 2.947 -0.153606 0
M  V30 3744 H 360.207 1.97272 -1.62841 0
M  V30 3745 H 359.851 4.08572 -3.01714 0
M  V30 3746 H 359.781 5.04298 -1.51629 0
M  V30 3747 H 362.272 3.48205 -1.46839 0
M  V30 3748 H 362.585 6.85443 -3.56915 0
M  V30 3749 H 360.93 6.16758 -3.20367 0
M  V30 3750 H 364.121 4.27973 -1.89622 0
M  V30 3751 H 364.294 5.81767 -2.85397 0
M  V30 3752 N 357.7 0.491464 1.49741 0
M  V30 3753 C 359.116 0.146835 1.58923 0
M  V30 3754 C 359.316 -1.34804 1.49767 0
M  V30 3755 O 358.372 -2.12317 1.36667 0
M  V30 3756 C 359.685 0.715157 2.92072 0
M  V30 3757 C 361.233 0.680407 3.05515 0
M  V30 3758 C 361.708 1.22663 4.41269 0
M  V30 3759 N 363.199 1.18691 4.47735 0
M  V30 3760 C 363.934 1.57984 5.51207 0
M  V30 3761 N 363.43 2.04824 6.6183 0
M  V30 3762 N 365.223 1.49459 5.41866 0
M  V30 3763 H 357.374 1.46347 1.53936 0
M  V30 3764 H 359.637 0.606453 0.728642 0
M  V30 3765 H 359.343 1.76317 3.04311 0
M  V30 3766 H 359.217 0.17018 3.76816 0
M  V30 3767 H 361.604 -0.358743 2.92911 0
M  V30 3768 H 361.685 1.26242 2.22478 0
M  V30 3769 H 361.329 2.26451 4.54623 0
M  V30 3770 H 361.259 0.620637 5.2293 0
M  V30 3771 H 363.75 0.843605 3.68364 0
M  V30 3772 H 364.063 2.32901 7.3687 0
M  V30 3773 H 362.408 2.08791 6.62896 0
M  V30 3774 H 365.599 1.12692 4.54333 0
M  V30 3775 H 365.772 1.80406 6.22381 0
M  V30 3776 N 359.178 -1.55987 0.224894 0
M  V30 3777 C 360.126 -2.21808 -0.700283 0
M  V30 3778 C 361.12 -1.19854 -1.19714 0
M  V30 3779 O 362.326 -1.37925 -1.15658 0
M  V30 3780 H 358.701 -0.711226 -0.244258 0
M  V30 3781 H 360.672 -2.98152 -0.121749 0
M  V30 3782 C 359.421 -2.91444 -1.8962 0
M  V30 3783 H 358.744 -3.69655 -1.52299 0
M  V30 3784 H 360.184 -3.40894 -2.52125 0
M  V30 3785 C 358.643 -1.94098 -2.75368 0
M  V30 3786 O 359.173 -1.46004 -3.74227 0
M  V30 3787 N 357.379 -1.61675 -2.41474 0
M  V30 3788 H 356.926 -2.00979 -1.61137 0
M  V30 3789 H 356.884 -0.968036 -2.99126 0
M  V30 3790 N 360.656 0.0484629 -1.57525 0
M  V30 3791 C 362.067 0.597486 -1.76881 0
M  V30 3792 C 362.418 1.76664 -0.853475 0
M  V30 3793 O 361.543 2.16357 -0.0433656 0
M  V30 3794 C 362.138 1.09066 -3.20765 0
M  V30 3795 C 360.697 1.58535 -3.41385 0
M  V30 3796 C 359.844 0.514868 -2.72478 0
M  V30 3797 H 362.795 -0.177758 -1.57701 0
M  V30 3798 H 362.816 1.95875 -3.2621 0
M  V30 3799 H 362.328 0.239521 -3.8736 0
M  V30 3800 H 360.429 2.45898 -2.79937 0
M  V30 3801 H 360.542 1.64622 -4.49929 0
M  V30 3802 H 358.906 0.965407 -2.35695 0
M  V30 3803 H 359.689 -0.32648 -3.41744 0
M  V30 3804 N 362.134 1.5431 0.320358 0
M  V30 3805 C 363.066 1.80262 1.41556 0
M  V30 3806 C 364.079 0.684723 1.477 0
M  V30 3807 O 365.268 0.961886 1.50366 0
M  V30 3808 C 362.368 1.90825 2.8007 0
M  V30 3809 C 361.541 3.21023 2.97091 0
M  V30 3810 C 360.6 3.22247 4.15985 0
M  V30 3811 O 359.626 3.95871 4.08992 0
M  V30 3812 N 360.828 2.46258 5.25678 0
M  V30 3813 H 363.593 2.74778 1.19655 0
M  V30 3814 H 361.154 1.53646 0.510358 0
M  V30 3815 H 363.146 1.89067 3.57821 0
M  V30 3816 H 361.716 1.03392 2.95006 0
M  V30 3817 H 360.936 3.35715 2.06614 0
M  V30 3818 H 362.224 4.0698 3.05361 0
M  V30 3819 H 361.622 1.86037 5.34235 0
M  V30 3820 H 360.179 2.50275 6.01835 0
M  V30 3821 N 363.613 -0.582584 1.46437 0
M  V30 3822 C 364.523 -1.71949 1.59595 0
M  V30 3823 C 365.539 -1.67264 0.479443 0
M  V30 3824 O 366.715 -1.87171 0.743579 0
M  V30 3825 C 363.78 -3.08452 1.58298 0
M  V30 3826 C 362.841 -3.244 2.81182 0
M  V30 3827 C 362.074 -4.54391 2.79937 0
M  V30 3828 O 362.297 -5.38287 1.8869 0
M  V30 3829 O 361.231 -4.73588 3.71481 0
M  V30 3830 H 365.057 -1.63795 2.55744 0
M  V30 3831 H 362.642 -0.749643 1.29231 0
M  V30 3832 H 364.524 -3.89732 1.60271 0
M  V30 3833 H 363.199 -3.17043 0.653094 0
M  V30 3834 H 362.106 -2.42613 2.84763 0
M  V30 3835 H 363.439 -3.20699 3.7338 0
M  V30 3836 N 365.091 -1.34144 -0.827227 0
M  V30 3837 C 366.021 -1.28005 -1.95287 0
M  V30 3838 C 367.002 -0.158321 -1.69362 0
M  V30 3839 O 368.187 -0.349987 -1.9102 0
M  V30 3840 C 365.317 -1.03036 -3.31664 0
M  V30 3841 C 364.271 -2.11628 -3.72019 0
M  V30 3842 C 363.597 -1.71854 -5.0633 0
M  V30 3843 C 364.897 -3.53417 -3.8457 0
M  V30 3844 H 366.591 -2.22187 -2.00682 0
M  V30 3845 H 364.137 -1.0696 -0.964135 0
M  V30 3846 H 366.09 -0.973863 -4.09993 0
M  V30 3847 H 364.814 -0.0529391 -3.26557 0
M  V30 3848 H 363.473 -2.16339 -2.95961 0
M  V30 3849 H 363.121 -0.727841 -4.97706 0
M  V30 3850 H 362.821 -2.44531 -5.34302 0
M  V30 3851 H 364.345 -1.67692 -5.87122 0
M  V30 3852 H 365.759 -3.51142 -4.5318 0
M  V30 3853 H 364.156 -4.24679 -4.2399 0
M  V30 3854 H 365.226 -3.91072 -2.86689 0
M  V30 3855 N 366.569 1.04691 -1.17803 0
M  V30 3856 C 367.799 1.81183 -0.992788 0
M  V30 3857 C 368.207 1.8347 0.462098 0
M  V30 3858 O 367.55 1.2643 1.33271 0
M  V30 3859 C 367.612 3.28363 -1.46349 0
M  V30 3860 C 367.276 3.49749 -2.94151 0
M  V30 3861 C 368.273 3.41456 -3.92051 0
M  V30 3862 C 365.958 3.76548 -3.32441 0
M  V30 3863 C 367.952 3.59656 -5.26238 0
M  V30 3864 C 365.639 3.94396 -4.66792 0
M  V30 3865 C 366.637 3.8595 -5.635 0
M  V30 3866 O 366.325 4.03294 -6.9542 0
M  V30 3867 H 366.057 0.577622 -0.351182 0
M  V30 3868 H 368.611 1.32876 -1.5663 0
M  V30 3869 H 366.841 3.77609 -0.833574 0
M  V30 3870 H 368.53 3.86395 -1.24313 0
M  V30 3871 H 369.296 3.20723 -3.63815 0
M  V30 3872 H 365.175 3.82224 -2.57732 0
M  V30 3873 H 368.719 3.52979 -6.01707 0
M  V30 3874 H 364.616 4.14622 -4.94731 0
M  V30 3875 H 365.384 4.2049 -7.02232 0
M  V30 3876 N 368.047 0.979072 1.23499 0
M  V30 3877 C 369.324 0.563674 1.87302 0
M  V30 3878 C 369.704 -0.959199 1.88049 0
M  V30 3879 O 369.052 -1.83535 1.36114 0
M  V30 3880 C 369.262 1.16822 3.28867 0
M  V30 3881 C 370.61 1.26014 4.0547 0
M  V30 3882 O 371.634 1.12158 3.38082 0
M  V30 3883 O 370.493 1.48044 5.26066 0
M  V30 3884 H 367.587 0.189602 0.804972 0
M  V30 3885 H 370.133 1.07407 1.31384 0
M  V30 3886 H 368.905 2.21049 3.22883 0
M  V30 3887 H 368.528 0.642564 3.92373 0
M  V30 3888 N 369.525 -1.3858 0.750561 0
M  V30 3889 C 370.771 -2.00481 0.305825 0
M  V30 3890 C 371.104 -1.5944 -1.10872 0
M  V30 3891 O 370.379 -0.83052 -1.75877 0
M  V30 3892 C 370.662 -3.5758 0.425287 0
M  V30 3893 C 370.515 -4.08594 1.88072 0
M  V30 3894 C 371.834 -4.39719 -0.183122 0
M  V30 3895 H 368.953 -0.728348 0.112598 0
M  V30 3896 H 371.595 -1.64566 0.949638 0
M  V30 3897 H 369.745 -3.88306 -0.122828 0
M  V30 3898 H 371.417 -3.88523 2.48691 0
M  V30 3899 H 369.66 -3.61574 2.39681 0
M  V30 3900 H 370.331 -5.177 1.91548 0
M  V30 3901 H 372.807 -4.15128 0.284303 0
M  V30 3902 H 371.683 -5.48856 -0.0692757 0
M  V30 3903 H 371.944 -4.23434 -1.27106 0
M  V30 3904 N 371.003 -0.499398 -1.49478 0
M  V30 3905 C 372.233 0.0424839 -2.06556 0
M  V30 3906 C 372.641 1.31514 -1.36018 0
M  V30 3907 O 371.984 1.78555 -0.431718 0
M  V30 3908 C 372.046 0.368074 -3.57611 0
M  V30 3909 C 371.71 -0.806631 -4.49825 0
M  V30 3910 C 372.707 -1.69667 -4.91436 0
M  V30 3911 C 370.392 -1.00498 -4.92144 0
M  V30 3912 C 372.386 -2.76923 -5.74101 0
M  V30 3913 C 370.073 -2.08072 -5.74586 0
M  V30 3914 C 371.071 -2.96119 -6.15469 0
M  V30 3915 O 370.759 -4.01836 -6.96264 0
M  V30 3916 H 370.491 -0.0165165 -0.675798 0
M  V30 3917 H 373.045 -0.695497 -1.93267 0
M  V30 3918 H 371.275 1.15963 -3.68903 0
M  V30 3919 H 372.964 0.848381 -3.96935 0
M  V30 3920 H 373.73 -1.55524 -4.59388 0
M  V30 3921 H 369.609 -0.329036 -4.59824 0
M  V30 3922 H 373.153 -3.45676 -6.05932 0
M  V30 3923 H 369.05 -2.22211 -6.06047 0
M  V30 3924 H 369.818 -3.9917 -7.14567 0
M  V30 3925 N 372.481 1.55866 -0.233164 0
M  V30 3926 C 373.721 2.00506 0.397078 0
M  V30 3927 C 374.085 1.1176 1.56121 0
M  V30 3928 O 375.286 1.45796 2.25825 0
M  V30 3929 C 373.557 3.4811 0.809601 0
M  V30 3930 S 375.116 4.14765 1.43231 0
M  V30 3931 H 371.934 0.699828 0.125547 0
M  V30 3932 H 374.536 1.92429 -0.345177 0
M  V30 3933 H 373.24 4.10373 -0.0471601 0
M  V30 3934 H 372.771 3.60085 1.58438 0
M  V30 3935 H 374.786 4.14914 2.7214 0
M  V30 3936 N 373.959 -0.0401083 1.57549 0
M  V30 3937 C 375.206 -0.733125 1.88763 0
M  V30 3938 C 375.534 -1.75946 0.829058 0
M  V30 3939 O 374.789 -1.94949 -0.171323 0
M  V30 3940 C 375.088 -1.44902 3.26708 0
M  V30 3941 C 374.754 -0.559707 4.47413 0
M  V30 3942 C 373.416 -0.314731 4.8017 0
M  V30 3943 C 375.768 0.0549743 5.21171 0
M  V30 3944 C 373.096 0.553886 5.8408 0
M  V30 3945 C 375.448 0.911229 6.26003 0
M  V30 3946 C 374.112 1.16577 6.57241 0
M  V30 3947 H 373.382 -0.268269 0.690733 0
M  V30 3948 H 376.029 0.00679408 1.91499 0
M  V30 3949 H 374.334 -2.26197 3.1991 0
M  V30 3950 H 376.031 -1.99058 3.48105 0
M  V30 3951 H 372.621 -0.760793 4.21794 0
M  V30 3952 H 376.805 -0.121344 4.96152 0
M  V30 3953 H 372.061 0.759518 6.06664 0
M  V30 3954 H 376.235 1.3941 6.82303 0
M  V30 3955 H 373.862 1.84058 7.37582 0
M  V30 3956 N 375.437 -1.54477 -0.31217 0
M  V30 3957 C 376.4 -1.83923 -1.36766 0
M  V30 3958 C 377.4 -0.711563 -1.44199 0
M  V30 3959 O 378.59 -0.979866 -1.44029 0
M  V30 3960 C 375.722 -2.0095 -2.75376 0
M  V30 3961 H 376.915 -2.78239 -1.11906 0
M  V30 3962 H 374.468 -1.46369 -0.548257 0
M  V30 3963 H 375.203 -1.08883 -3.05475 0
M  V30 3964 H 374.988 -2.83018 -2.71373 0
M  V30 3965 H 376.478 -2.2514 -3.51713 0
M  V30 3966 N 376.915 0.57481 -1.46744 0
M  V30 3967 C 378.331 0.898981 -1.31873 0
M  V30 3968 C 378.531 1.99313 -0.29605 0
M  V30 3969 O 377.587 2.50728 0.298621 0
M  V30 3970 C 378.9 1.30886 -2.7072 0
M  V30 3971 C 380.448 1.42127 -2.78871 0
M  V30 3972 C 380.923 1.86478 -4.18318 0
M  V30 3973 N 382.414 1.93658 -4.20774 0
M  V30 3974 C 383.149 2.29267 -5.2557 0
M  V30 3975 N 382.645 2.63612 -6.40688 0
M  V30 3976 N 384.438 2.29889 -5.1294 0
M  V30 3977 H 376.589 -0.147839 -2.11885 0
M  V30 3978 H 378.852 -0.00347013 -0.947994 0
M  V30 3979 H 378.558 0.578853 -3.46904 0
M  V30 3980 H 378.432 2.26874 -3.01343 0
M  V30 3981 H 380.819 2.14213 -2.0297 0
M  V30 3982 H 380.9 0.443705 -2.51922 0
M  V30 3983 H 380.544 1.14968 -4.94717 0
M  V30 3984 H 380.474 2.85207 -4.42679 0
M  V30 3985 H 382.965 1.69574 -3.37718 0
M  V30 3986 H 383.278 2.89759 -7.16421 0
M  V30 3987 H 381.623 2.61232 -6.44036 0
M  V30 3988 H 384.814 2.02485 -4.22039 0
M  V30 3989 H 384.987 2.57312 -5.94722 0
M  V30 3990 N 378.394 1.34581 0.820102 0
M  V30 3991 C 379.304 1.28471 1.96297 0
M  V30 3992 C 380.32 0.191902 1.72939 0
M  V30 3993 O 381.496 0.418879 1.96996 0
M  V30 3994 C 378.561 1.04281 3.30645 0
M  V30 3995 C 377.622 2.22745 3.66992 0
M  V30 3996 C 376.855 1.997 4.9493 0
M  V30 3997 O 377.078 0.956656 5.6232 0
M  V30 3998 O 376.012 2.86723 5.2922 0
M  V30 3999 H 379.838 2.24624 2.04396 0
M  V30 4000 H 377.423 1.14816 0.955913 0
M  V30 4001 H 379.305 0.925841 4.11104 0
M  V30 4002 H 377.98 0.111697 3.23507 0
M  V30 4003 H 376.887 2.40003 2.86966 0
M  V30 4004 H 378.22 3.14257 3.78819 0
M  V30 4005 N 379.872 -1.04064 1.18357 0
M  V30 4006 C 380.802 -2.14001 0.934113 0
M  V30 4007 C 381.783 -1.69616 -0.128186 0
M  V30 4008 O 382.968 -1.94185 0.0244093 0
M  V30 4009 C 380.098 -3.44253 0.459066 0
M  V30 4010 C 379.052 -4.02261 1.46185 0
M  V30 4011 C 378.378 -5.27992 0.844322 0
M  V30 4012 C 379.678 -4.38432 2.83856 0
M  V30 4013 H 381.372 -2.35127 1.85352 0
M  V30 4014 H 378.918 -1.12998 0.892604 0
M  V30 4015 H 380.871 -4.20522 0.271907 0
M  V30 4016 H 379.595 -3.22813 -0.495912 0
M  V30 4017 H 378.254 -3.28074 1.63595 0
M  V30 4018 H 377.902 -5.02862 -0.117845 0
M  V30 4019 H 377.602 -5.67765 1.51384 0
M  V30 4020 H 379.126 -6.06938 0.667693 0
M  V30 4021 H 380.54 -5.05688 2.70098 0
M  V30 4022 H 378.937 -4.89254 3.47491 0
M  V30 4023 H 380.007 -3.4826 3.37406 0
M  V30 4024 N 381.35 -0.985608 -1.22978 0
M  V30 4025 C 382.598 -0.656087 -1.91154 0
M  V30 4026 C 382.919 0.813561 -1.77218 0
M  V30 4027 O 382.189 1.58244 -1.1548 0
M  V30 4028 H 380.769 -0.239674 -0.707506 0
M  V30 4029 H 383.431 -1.25054 -1.49491 0
M  V30 4030 H 382.527 -0.912253 -2.9847 0
M  V30 4031 N 382.828 1.3818 -0.7579 0
M  V30 4032 C 384.076 1.99624 -0.315361 0
M  V30 4033 C 384.397 1.60464 1.10799 0
M  V30 4034 O 383.667 0.863507 1.75842 0
M  V30 4035 H 382.247 0.73831 -0.113611 0
M  V30 4036 H 384.909 1.68878 -0.972952 0
M  V30 4037 H 384.005 3.09754 -0.381931 0
M  V30 4038 N 384.306 0.507319 1.49211 0
M  V30 4039 C 385.216 -0.272136 2.33016 0
M  V30 4040 C 386.232 -0.961206 1.45041 0
M  V30 4041 O 387.408 -0.941191 1.78055 0
M  V30 4042 C 384.473 -1.31895 3.20631 0
M  V30 4043 C 383.534 -0.642648 4.24463 0
M  V30 4044 C 382.767 -1.63959 5.07891 0
M  V30 4045 O 382.99 -2.87007 4.92933 0
M  V30 4046 O 381.924 -1.19143 5.8999 0
M  V30 4047 H 385.75 0.413982 3.00865 0
M  V30 4048 H 383.335 0.268556 1.46966 0
M  V30 4049 H 385.217 -1.92446 3.7489 0
M  V30 4050 H 383.892 -1.98788 2.5547 0
M  V30 4051 H 382.799 0.00276252 3.741 0
M  V30 4052 H 384.132 -0.0160534 4.92197 0
M  V30 4053 N 385.784 -1.5574 0.241426 0
M  V30 4054 C 387.03 -1.99104 -0.385406 0
M  V30 4055 C 387.363 -1.1293 -1.57988 0
M  V30 4056 O 386.638 -0.191449 -1.93555 0
M  V30 4057 C 386.921 -3.51087 -0.800616 0
M  V30 4058 C 386.774 -4.48028 0.398874 0
M  V30 4059 C 388.093 -4.08015 -1.64959 0
M  V30 4060 H 385.212 -0.723848 -0.138614 0
M  V30 4061 H 387.854 -1.86903 0.341642 0
M  V30 4062 H 386.004 -3.61615 -1.4201 0
M  V30 4063 H 387.676 -4.49487 1.03726 0
M  V30 4064 H 385.919 -4.21077 1.04293 0
M  V30 4065 H 386.59 -5.51962 0.0651056 0
M  V30 4066 H 389.066 -4.00555 -1.12672 0
M  V30 4067 H 387.942 -5.14635 -1.90898 0
M  V30 4068 H 388.203 -3.56131 -2.61961 0
M  V30 4069 N 387.262 0.0317525 -1.57568 0
M  V30 4070 C 388.509 0.723104 -1.89149 0
M  V30 4071 C 388.837 1.75504 -0.838377 0
M  V30 4072 O 388.092 1.95037 0.160982 0
M  V30 4073 C 388.391 1.43167 -3.27472 0
M  V30 4074 C 388.057 0.535972 -4.47703 0
M  V30 4075 C 386.719 0.289262 -4.8033 0
M  V30 4076 C 389.071 -0.0826125 -5.21135 0
M  V30 4077 C 386.399 -0.584853 -5.83778 0
M  V30 4078 C 388.751 -0.944414 -6.25511 0
M  V30 4079 C 387.415 -1.20061 -6.56614 0
M  V30 4080 H 386.685 0.264602 -0.692146 0
M  V30 4081 H 389.332 -0.0169496 -1.91492 0
M  V30 4082 H 387.637 2.24497 -3.21105 0
M  V30 4083 H 389.334 1.97209 -3.49155 0
M  V30 4084 H 385.924 0.738414 -4.22191 0
M  V30 4085 H 390.108 0.0950302 -4.96209 0
M  V30 4086 H 385.364 -0.79168 -6.06253 0
M  V30 4087 H 389.538 -1.43026 -6.81554 0
M  V30 4088 H 387.165 -1.87967 -7.36595 0
M  V30 4089 N 388.74 1.54641 0.303973 0
M  V30 4090 C 389.97 1.77511 1.05705 0
M  V30 4091 C 390.378 0.533228 1.81531 0
M  V30 4092 O 389.721 -0.506423 1.76582 0
M  V30 4093 C 389.783 2.92779 2.08617 0
M  V30 4094 C 389.447 4.30977 1.52013 0
M  V30 4095 C 390.444 5.11115 0.9517 0
M  V30 4096 C 388.129 4.77571 1.55665 0
M  V30 4097 C 390.123 6.35966 0.427327 0
M  V30 4098 C 387.81 6.02384 1.02841 0
M  V30 4099 C 388.808 6.81417 0.464713 0
M  V30 4100 O 388.496 8.03881 -0.0555283 0
M  V30 4101 H 388.228 0.59579 0.319391 0
M  V30 4102 H 390.782 2.02401 0.349712 0
M  V30 4103 H 389.012 2.63506 2.83022 0
M  V30 4104 H 390.701 3.03252 2.69802 0
M  V30 4105 H 391.467 4.76264 0.916407 0
M  V30 4106 H 387.346 4.16085 1.9848 0
M  V30 4107 H 390.89 6.97599 -0.0133062 0
M  V30 4108 H 386.787 6.36723 1.06084 0
M  V30 4109 H 387.555 8.18479 0.0580522 0
M  V30 4110 N 390.218 -0.567019 1.47046 0
M  V30 4111 C 391.464 -1.32658 1.53394 0
M  V30 4112 C 391.797 -1.93254 0.19148 0
M  V30 4113 O 391.072 -1.77338 -0.798844 0
M  V30 4114 C 391.355 -2.44412 2.64452 0
M  V30 4115 C 391.208 -1.88749 4.08282 0
M  V30 4116 C 392.527 -3.46387 2.71485 0
M  V30 4117 H 389.646 -0.48098 0.558415 0
M  V30 4118 H 392.288 -0.635481 1.79058 0
M  V30 4119 H 390.438 -3.03363 2.427 0
M  V30 4120 H 392.11 -1.34134 4.41368 0
M  V30 4121 H 390.353 -1.19481 4.17021 0
M  V30 4122 H 391.024 -2.69491 4.81745 0
M  V30 4123 H 393.5 -2.9734 2.91081 0
M  V30 4124 H 392.376 -4.2202 3.50985 0
M  V30 4125 H 392.637 -4.04616 1.78153 0
M  V30 4126 N 391.696 -1.35014 -0.812953 0
M  V30 4127 C 392.944 -1.27678 -1.56661 0
M  V30 4128 C 393.265 0.150359 -1.94419 0
M  V30 4129 O 392.535 1.08532 -1.63088 0
M  V30 4130 H 391.115 -0.469602 -0.580933 0
M  V30 4131 H 393.777 -1.69043 -0.970076 0
M  V30 4132 H 392.873 -1.88833 -2.48492 0
M  V30 4133 N 393.175 1.03435 -1.18907 0
M  V30 4134 C 394.586 1.58195 -0.991523 0
M  V30 4135 C 394.937 1.90801 0.457081 0
M  V30 4136 O 394.062 1.70272 1.33553 0
M  V30 4137 C 394.657 2.87432 -1.79355 0
M  V30 4138 C 393.216 3.38785 -1.64017 0
M  V30 4139 C 392.363 2.12292 -1.78402 0
M  V30 4140 H 395.314 0.860299 -1.33359 0
M  V30 4141 H 395.335 3.58096 -1.28638 0
M  V30 4142 H 394.847 2.63669 -2.84781 0
M  V30 4143 H 392.948 3.67547 -0.611536 0
M  V30 4144 H 393.061 4.12186 -2.44212 0
M  V30 4145 H 391.425 2.23901 -1.2141 0
M  V30 4146 H 392.208 1.90977 -2.85277 0
M  V30 4147 N 394.653 0.992116 1.22453 0
M  V30 4148 C 395.616 0.546883 2.2258 0
M  V30 4149 C 396.616 -0.369829 1.56489 0
M  V30 4150 O 397.806 -0.161896 1.73446 0
M  V30 4151 C 394.938 -0.204659 3.40285 0
M  V30 4152 H 396.131 1.43234 2.63484 0
M  V30 4153 H 393.684 0.779239 1.3549 0
M  V30 4154 H 394.419 -1.10614 3.04853 0
M  V30 4155 H 394.204 0.45354 3.89468 0
M  V30 4156 H 395.694 -0.504358 4.14543 0
M  V30 4157 N 396.131 -1.37776 0.765217 0
M  V30 4158 C 397.547 -1.53297 0.444108 0
M  V30 4159 C 397.747 -1.72515 -1.04119 0
M  V30 4160 O 396.803 -1.74278 -1.82711 0
M  V30 4161 C 398.116 -2.73328 1.25349 0
M  V30 4162 C 399.664 -2.87185 1.24473 0
M  V30 4163 C 400.139 -4.10191 2.03733 0
M  V30 4164 N 401.63 -4.17291 2.01053 0
M  V30 4165 C 402.365 -5.11488 2.59166 0
M  V30 4166 N 401.861 -6.11285 3.26041 0
M  V30 4167 N 403.654 -5.03924 2.49032 0
M  V30 4168 H 395.805 -1.23552 1.72768 0
M  V30 4169 H 398.068 -0.601103 0.733062 0
M  V30 4170 H 397.774 -2.6557 2.30577 0
M  V30 4171 H 397.648 -3.66834 0.87823 0
M  V30 4172 H 400.035 -2.94418 0.20047 0
M  V30 4173 H 400.116 -1.94657 1.65959 0
M  V30 4174 H 399.76 -4.0372 3.08176 0
M  V30 4175 H 399.69 -5.01821 1.59633 0
M  V30 4176 H 402.181 -3.45825 1.5236 0
M  V30 4177 H 402.494 -6.79678 3.67774 0
M  V30 4178 H 400.839 -6.11583 3.30138 0
M  V30 4179 H 404.03 -4.24902 1.96407 0
M  V30 4180 H 404.203 -5.77152 2.94617 0
M  V30 4181 N 397.609 -0.515225 -1.4894 0
M  V30 4182 C 399.025 -0.172099 -1.58669 0
M  V30 4183 C 399.225 1.32405 -1.51892 0
M  V30 4184 O 398.281 2.10116 -1.40027 0
M  V30 4185 C 399.594 -0.761533 -2.90897 0
M  V30 4186 C 401.142 -0.728926 -3.04394 0
M  V30 4187 C 401.617 -1.29667 -4.39261 0
M  V30 4188 N 403.108 -1.25799 -4.4579 0
M  V30 4189 C 403.843 -1.66733 -5.48623 0
M  V30 4190 N 403.339 -2.15327 -6.58488 0
M  V30 4191 N 405.132 -1.58061 -5.39419 0
M  V30 4192 H 397.283 -1.48778 -1.51588 0
M  V30 4193 H 399.546 -0.617968 -0.718901 0
M  V30 4194 H 399.252 -1.81136 -3.01468 0
M  V30 4195 H 399.126 -0.230106 -3.76497 0
M  V30 4196 H 401.513 0.312098 -2.93445 0
M  V30 4197 H 401.594 -1.29766 -2.20442 0
M  V30 4198 H 401.238 -2.33655 -4.50963 0
M  V30 4199 H 401.168 -0.703752 -5.21876 0
M  V30 4200 H 403.659 -0.902102 -3.66975 0
M  V30 4201 H 403.972 -2.44594 -7.33071 0
M  V30 4202 H 402.317 -2.19311 -6.59491 0
M  V30 4203 H 405.508 -1.19906 -4.52482 0
M  V30 4204 H 405.681 -1.90284 -6.19432 0
M  V30 4205 N 399.087 1.5561 -0.249682 0
M  V30 4206 C 400.017 2.24477 0.642826 0
M  V30 4207 C 400.998 1.22601 1.17911 0
M  V30 4208 O 402.183 1.5126 1.21795 0
M  V30 4209 C 399.313 2.94638 1.83863 0
M  V30 4210 C 398.267 4.03227 1.435 0
M  V30 4211 C 397.593 4.60828 2.71186 0
M  V30 4212 C 398.893 5.18796 0.604002 0
M  V30 4213 H 400.587 2.99321 0.0685625 0
M  V30 4214 H 398.133 1.43965 0.0315363 0
M  V30 4215 H 400.086 3.41517 2.46868 0
M  V30 4216 H 398.81 2.17287 2.43832 0
M  V30 4217 H 397.469 3.57121 0.828275 0
M  V30 4218 H 397.117 3.80174 3.29358 0
M  V30 4219 H 396.817 5.34132 2.44901 0
M  V30 4220 H 398.341 5.10442 3.35084 0
M  V30 4221 H 399.755 5.61883 1.13842 0
M  V30 4222 H 398.152 5.98506 0.437097 0
M  V30 4223 H 399.222 4.83384 -0.383147 0
M  V30 4224 N 400.565 -0.0233959 1.57583 0
M  V30 4225 C 401.793 -0.724682 1.93794 0
M  V30 4226 C 402.208 -1.68588 0.849912 0
M  V30 4227 O 401.565 -1.81676 -0.173204 0
M  V30 4228 C 401.616 -1.47684 3.29957 0
M  V30 4229 O 401.337 -0.554222 4.3458 0
M  V30 4230 C 402.838 -2.27477 3.80485 0
M  V30 4231 H 400.058 -0.203317 0.639455 0
M  V30 4232 H 402.602 0.0207653 2.04489 0
M  V30 4233 H 400.757 -2.17412 3.20641 0
M  V30 4234 H 401.171 -1.08232 5.13212 0
M  V30 4235 H 402.645 -2.7564 4.78254 0
M  V30 4236 H 403.122 -3.09144 3.11972 0
M  V30 4237 H 403.728 -1.62813 3.92902 0
M  V30 4238 N 402.043 -1.548 -0.295768 0
M  V30 4239 C 402.973 -1.89115 -1.36959 0
M  V30 4240 C 403.954 -0.75059 -1.52644 0
M  V30 4241 O 405.139 -1.00678 -1.66065 0
M  V30 4242 C 402.269 -2.14307 -2.73295 0
M  V30 4243 C 401.223 -3.30151 -2.72368 0
M  V30 4244 C 400.549 -3.40772 -4.12042 0
M  V30 4245 C 401.849 -4.67126 -2.33646 0
M  V30 4246 H 403.543 -2.79053 -1.08488 0
M  V30 4247 H 401.089 -1.34266 -0.520443 0
M  V30 4248 H 403.042 -2.36898 -3.48507 0
M  V30 4249 H 401.766 -1.21145 -3.03301 0
M  V30 4250 H 400.425 -3.0749 -1.99613 0
M  V30 4251 H 400.073 -2.45117 -4.39234 0
M  V30 4252 H 399.773 -4.18645 -4.12322 0
M  V30 4253 H 401.297 -3.6563 -4.89027 0
M  V30 4254 H 402.711 -4.89414 -2.98575 0
M  V30 4255 H 401.108 -5.47751 -2.45129 0
M  V30 4256 H 402.178 -4.67489 -1.28772 0
M  V30 4257 N 403.521 0.559213 -1.47345 0
M  V30 4258 C 404.484 1.64854 -1.59235 0
M  V30 4259 C 405.484 1.53851 -0.467607 0
M  V30 4260 O 406.674 1.58045 -0.732617 0
M  V30 4261 C 403.806 3.04388 -1.53496 0
M  V30 4262 H 404.999 1.55662 -2.56339 0
M  V30 4263 H 402.552 0.778973 -1.35505 0
M  V30 4264 H 403.287 3.19115 -0.577604 0
M  V30 4265 H 403.072 3.13783 -2.35123 0
M  V30 4266 H 404.562 3.83642 -1.6495 0
M  V30 4267 N 404.999 1.35443 0.805782 0
M  V30 4268 C 406.247 1.28507 1.55982 0
M  V30 4269 C 406.568 -0.140046 1.94496 0
M  V30 4270 O 405.838 -1.07666 1.63661 0
M  V30 4271 H 404.418 0.472676 0.578434 0
M  V30 4272 H 407.08 1.69555 0.961098 0
M  V30 4273 H 406.176 1.90148 2.47488 0
M  V30 4274 N 406.477 -1.02803 1.19454 0
M  V30 4275 C 407.44 -2.09264 0.934955 0
M  V30 4276 C 408.44 -1.60576 -0.0849015 0
M  V30 4277 O 409.63 -1.73554 0.149933 0
M  V30 4278 C 406.762 -3.38482 0.40531 0
M  V30 4279 H 407.955 -2.33726 1.87916 0
M  V30 4280 H 405.508 -1.19426 1.00832 0
M  V30 4281 H 406.243 -3.19689 -0.544899 0
M  V30 4282 H 406.028 -3.75142 1.14065 0
M  V30 4283 H 407.518 -4.16894 0.242806 0
M  V30 4284 N 407.956 -0.998596 -1.21925 0
M  V30 4285 C 409.372 -0.710303 -1.42923 0
M  V30 4286 C 409.572 0.716933 -1.88314 0
M  V30 4287 O 408.628 1.48712 -2.04062 0
M  V30 4288 C 409.941 -1.72072 -2.466 0
M  V30 4289 C 411.489 -1.73681 -2.60392 0
M  V30 4290 C 411.964 -2.73601 -3.67296 0
M  V30 4291 N 413.455 -2.7223 -3.7476 0
M  V30 4292 C 414.19 -3.46206 -4.57087 0
M  V30 4293 N 413.686 -4.29802 -5.43362 0
M  V30 4294 N 415.479 -3.34886 -4.51451 0
M  V30 4295 H 407.63 -1.92028 -0.9077 0
M  V30 4296 H 409.893 -0.828487 -0.460775 0
M  V30 4297 H 409.599 -2.74231 -2.20206 0
M  V30 4298 H 409.473 -1.51818 -3.45299 0
M  V30 4299 H 411.86 -0.722173 -2.86127 0
M  V30 4300 H 411.941 -1.98005 -1.61949 0
M  V30 4301 H 411.585 -3.75217 -3.42307 0
M  V30 4302 H 411.515 -2.46545 -4.65321 0
M  V30 4303 H 414.006 -2.11576 -3.1312 0
M  V30 4304 H 414.319 -4.83061 -6.03218 0
M  V30 4305 H 412.664 -4.33887 -5.42925 0
M  V30 4306 H 415.855 -2.69015 -3.83078 0
M  V30 4307 H 416.028 -3.92796 -5.15379 0
M  V30 4308 N 409.434 1.37368 -0.772513 0
M  V30 4309 C 410.397 2.28601 -0.165541 0
M  V30 4310 C 411.397 1.48062 0.627238 0
M  V30 4311 O 412.587 1.68268 0.450715 0
M  V30 4312 C 409.719 3.32023 0.772897 0
M  V30 4313 H 410.912 2.83787 -0.969787 0
M  V30 4314 H 408.465 1.46647 -0.540775 0
M  V30 4315 H 409.2 2.81962 1.60212 0
M  V30 4316 H 408.985 3.91555 0.206585 0
M  V30 4317 H 410.475 4.00197 1.19298 0
M  V30 4318 N 410.912 0.523116 1.48665 0
M  V30 4319 C 411.844 -0.280421 2.27478 0
M  V30 4320 C 412.857 -0.910694 1.34945 0
M  V30 4321 O 414.046 -0.790295 1.60052 0
M  V30 4322 C 411.146 -1.41171 3.08097 0
M  V30 4323 C 410.319 -0.884642 4.28361 0
M  V30 4324 C 409.378 -1.89622 4.90846 0
M  V30 4325 O 408.404 -1.4559 5.50265 0
M  V30 4326 N 409.606 -3.22801 4.82472 0
M  V30 4327 H 412.371 0.395481 2.97079 0
M  V30 4328 H 409.932 0.357018 1.57915 0
M  V30 4329 H 411.924 -2.08645 3.4677 0
M  V30 4330 H 410.494 -1.99139 2.40961 0
M  V30 4331 H 409.714 -0.0341177 3.94185 0
M  V30 4332 H 411.002 -0.511268 5.06225 0
M  V30 4333 H 410.4 -3.61246 4.35336 0
M  V30 4334 H 408.957 -3.85927 5.25265 0
M  V30 4335 N 412.39 -1.55475 0.257931 0
M  V30 4336 C 413.63 -2.01112 -0.365129 0
M  V30 4337 C 413.994 -1.1423 -1.54323 0
M  V30 4338 O 415.195 -1.49371 -2.23477 0
M  V30 4339 C 413.466 -3.49353 -0.754117 0
M  V30 4340 S 415.025 -4.16992 -1.36614 0
M  V30 4341 H 411.843 -0.701737 -0.114397 0
M  V30 4342 H 414.445 -1.91855 0.375747 0
M  V30 4343 H 413.149 -4.10246 0.112441 0
M  V30 4344 H 412.68 -3.6256 -1.52689 0
M  V30 4345 H 414.695 -4.19191 -2.65505 0
M  V30 4346 N 413.868 0.0150385 -1.57593 0
M  V30 4347 C 415.284 0.370907 -1.5523 0
M  V30 4348 C 415.484 1.75735 -0.985882 0
M  V30 4349 O 414.54 2.44944 -0.613077 0
M  V30 4350 C 415.853 0.259908 -2.99575 0
M  V30 4351 C 417.401 0.335959 -3.11192 0
M  V30 4352 C 417.876 0.254253 -4.57294 0
M  V30 4353 N 419.367 0.312618 -4.62144 0
M  V30 4354 C 420.102 0.272505 -5.72752 0
M  V30 4355 N 419.598 0.183864 -6.92556 0
M  V30 4356 N 421.391 0.323267 -5.6117 0
M  V30 4357 H 413.542 -0.892104 -1.92757 0
M  V30 4358 H 415.805 -0.340563 -0.884715 0
M  V30 4359 H 415.511 -0.693403 -3.44797 0
M  V30 4360 H 415.385 1.048 -3.62349 0
M  V30 4361 H 417.772 1.27971 -2.65909 0
M  V30 4362 H 417.853 -0.481739 -2.51223 0
M  V30 4363 H 417.497 -0.685887 -5.03247 0
M  V30 4364 H 417.427 1.09024 -5.15191 0
M  V30 4365 H 419.918 0.38307 -3.75953 0
M  V30 4366 H 420.231 0.15874 -7.72637 0
M  V30 4367 H 418.576 0.149708 -6.94839 0
M  V30 4368 H 421.767 0.390607 -4.66467 0
M  V30 4369 H 421.94 0.288539 -6.47357 0
M  V30 4370 N 415.346 1.54954 0.287554 0
M  V30 4371 C 416.762 1.46469 0.633964 0
M  V30 4372 C 416.962 0.666865 1.90145 0
M  V30 4373 O 416.018 0.179906 2.51858 0
M  V30 4374 C 417.331 2.90556 0.774454 0
M  V30 4375 C 418.879 3.00681 0.869462 0
M  V30 4376 C 419.354 4.45993 1.04184 0
M  V30 4377 N 420.845 4.4976 1.10772 0
M  V30 4378 C 421.58 5.59393 1.25964 0
M  V30 4379 N 421.076 6.78923 1.37968 0
M  V30 4380 N 422.869 5.47107 1.28959 0
M  V30 4381 H 415.02 2.05288 -0.545041 0
M  V30 4382 H 417.283 0.930305 -0.182308 0
M  V30 4383 H 416.989 3.51594 -0.086207 0
M  V30 4384 H 416.863 3.38743 1.6593 0
M  V30 4385 H 419.25 2.39749 1.7206 0
M  V30 4386 H 419.331 2.55769 -0.0396831 0
M  V30 4387 H 418.975 5.07524 0.195422 0
M  V30 4388 H 418.905 4.88548 1.96542 0
M  V30 4389 H 421.396 3.63651 1.02794 0
M  V30 4390 H 421.709 7.58231 1.49353 0
M  V30 4391 H 420.054 6.81763 1.34999 0
M  V30 4392 H 423.245 4.52668 1.19202 0
M  V30 4393 H 423.418 6.32595 1.40455 0
M  V30 4394 N 416.824 -0.551391 1.4764 0
M  V30 4395 C 417.756 -1.67333 1.56628 0
M  V30 4396 C 418.769 -1.56398 0.452045 0
M  V30 4397 O 419.958 -1.6325 0.721926 0
M  V30 4398 C 417.058 -3.05841 1.45994 0
M  V30 4399 C 416.231 -3.42472 2.72088 0
M  V30 4400 C 415.29 -4.60168 2.55209 0
M  V30 4401 O 414.316 -4.64458 3.2904 0
M  V30 4402 N 415.518 -5.57024 1.63416 0
M  V30 4403 H 418.283 -1.60066 2.53375 0
M  V30 4404 H 415.844 -0.738169 1.44093 0
M  V30 4405 H 417.836 -3.8242 1.32428 0
M  V30 4406 H 416.406 -3.07302 0.573071 0
M  V30 4407 H 415.626 -2.55284 3.00373 0
M  V30 4408 H 416.914 -3.63723 3.55785 0
M  V30 4409 H 416.312 -5.56319 1.02594 0
M  V30 4410 H 414.869 -6.32906 1.558 0
M  V30 4411 N 418.302 -1.35869 -0.798587 0
M  V30 4412 C 419.55 -1.29332 -1.55298 0
M  V30 4413 C 419.871 0.129729 -1.94568 0
M  V30 4414 O 419.141 1.06796 -1.6423 0
M  V30 4415 H 417.721 -0.475737 -0.57592 0
M  V30 4416 H 420.383 -1.70062 -0.952093 0
M  V30 4417 H 419.479 -1.91458 -2.46476 0
M  V30 4418 N 419.78 1.02168 -1.19998 0
M  V30 4419 C 420.743 2.08765 -0.94604 0
M  V30 4420 C 421.743 1.60618 0.0763846 0
M  V30 4421 O 422.933 1.73472 -0.159135 0
M  V30 4422 C 420.065 3.38262 -0.423255 0
M  V30 4423 H 421.258 2.32726 -1.89153 0
M  V30 4424 H 418.811 1.1889 -1.01464 0
M  V30 4425 H 419.546 3.19974 0.527938 0
M  V30 4426 H 419.331 3.74532 -1.16053 0
M  V30 4427 H 420.821 4.16759 -0.264911 0
M  V30 4428 N 421.258 1.00505 1.21394 0
M  V30 4429 C 422.221 0.570459 2.21987 0
M  V30 4430 C 423.221 -0.353211 1.56873 0
M  V30 4431 O 424.411 -0.14349 1.73608 0
M  V30 4432 C 421.543 -0.168555 3.40483 0
M  V30 4433 H 422.736 1.46021 2.6195 0
M  V30 4434 H 420.289 0.793565 1.34656 0
M  V30 4435 H 421.024 -1.07374 3.06009 0
M  V30 4436 H 420.809 0.494823 3.88965 0
M  V30 4437 H 422.299 -0.460362 4.15055 0
M  V30 4438 N 422.737 -1.36956 0.779787 0
M  V30 4439 C 423.667 -2.32761 0.185651 0
M  V30 4440 C 424.648 -1.56177 -0.673989 0
M  V30 4441 O 425.833 -1.84378 -0.609797 0
M  V30 4442 C 422.963 -3.40418 -0.687964 0
M  V30 4443 C 421.917 -4.27941 0.0710102 0
M  V30 4444 C 421.243 -5.26681 -0.922573 0
M  V30 4445 C 422.543 -5.07006 1.25467 0
M  V30 4446 H 424.237 -2.82698 0.986008 0
M  V30 4447 H 421.783 -1.3592 0.475592 0
M  V30 4448 H 423.736 -4.06423 -1.11348 0
M  V30 4449 H 422.46 -2.89025 -1.52093 0
M  V30 4450 H 421.119 -3.63478 0.47739 0
M  V30 4451 H 420.767 -4.71565 -1.7503 0
M  V30 4452 H 420.467 -5.86103 -0.419237 0
M  V30 4453 H 421.991 -5.9556 -1.34686 0
M  V30 4454 H 423.405 -5.66105 0.905401 0
M  V30 4455 H 421.802 -5.75793 1.69063 0
M  V30 4456 H 422.872 -4.3921 2.05481 0
M  V30 4457 N 424.215 -0.530993 -1.48385 0
M  V30 4458 C 425.178 0.220497 -2.28137 0
M  V30 4459 C 426.178 0.866851 -1.35434 0
M  V30 4460 O 427.368 0.726746 -1.58316 0
M  V30 4461 C 424.5 1.31921 -3.1434 0
M  V30 4462 H 425.693 -0.479714 -2.96038 0
M  V30 4463 H 423.246 -0.286968 -1.53643 0
M  V30 4464 H 423.981 2.05264 -2.51072 0
M  V30 4465 H 423.766 0.86085 -3.82533 0
M  V30 4466 H 425.256 1.84776 -3.74497 0
M  V30 4467 N 425.693 1.55336 -0.266172 0
M  V30 4468 C 426.918 2.04258 0.359661 0
M  V30 4469 C 427.343 1.14359 1.49344 0
M  V30 4470 O 426.701 0.140369 1.80756 0
M  V30 4471 C 426.749 3.50997 0.826635 0
M  V30 4472 O 425.853 3.64204 1.93466 0
M  V30 4473 H 425.194 0.659668 0.075727 0
M  V30 4474 H 427.724 2.00694 -0.39786 0
M  V30 4475 H 427.734 3.9219 1.12477 0
M  V30 4476 H 426.409 4.159 -0.00293032 0
M  V30 4477 H 424.986 3.34913 1.63974 0
M  V30 4478 N 427.171 -0.0066808 1.57599 0
M  V30 4479 C 428.417 -0.693947 1.90558 0
M  V30 4480 C 428.75 -1.73792 0.866594 0
M  V30 4481 O 428.025 -1.94156 -0.115548 0
M  V30 4482 C 428.308 -1.34317 3.34112 0
M  V30 4483 C 428.161 -0.311189 4.48722 0
M  V30 4484 C 429.48 -2.27116 3.7697 0
M  V30 4485 H 426.599 -0.250803 0.693013 0
M  V30 4486 H 429.241 0.043242 1.89951 0
M  V30 4487 H 427.391 -1.9715 3.3476 0
M  V30 4488 H 429.063 0.316944 4.6021 0
M  V30 4489 H 427.306 0.367253 4.32243 0
M  V30 4490 H 427.977 -0.804366 5.46108 0
M  V30 4491 H 430.453 -1.74306 3.77831 0
M  V30 4492 H 429.329 -2.69511 4.78179 0
M  V30 4493 H 429.59 -3.14743 3.10466 0
M  V30 4494 N 428.649 -1.55105 -0.279332 0
M  V30 4495 C 429.897 -1.75066 -1.00977 0
M  V30 4496 C 430.218 -0.551276 -1.87045 0
M  V30 4497 O 429.488 0.433984 -1.91032 0
M  V30 4498 H 428.068 -0.645578 -0.375816 0
M  V30 4499 H 430.73 -1.92497 -0.305089 0
M  V30 4500 H 429.826 -2.64894 -1.65038 0
M  V30 4501 N 430.127 0.543554 -1.4793 0
M  V30 4502 C 431.059 1.665 -1.57513 0
M  V30 4503 C 432.072 1.56156 -0.460333 0
M  V30 4504 O 433.261 1.62865 -0.730573 0
M  V30 4505 C 430.361 3.05063 -1.47614 0
M  V30 4506 C 429.534 3.41024 -2.739 0
M  V30 4507 C 428.593 4.58809 -2.57645 0
M  V30 4508 O 427.619 4.62707 -3.31498 0
M  V30 4509 N 428.821 5.56149 -1.66368 0
M  V30 4510 H 431.586 1.5872 -2.5422 0
M  V30 4511 H 429.147 0.730517 -1.44482 0
M  V30 4512 H 431.139 3.81712 -1.34455 0
M  V30 4513 H 429.709 3.06994 -0.589359 0
M  V30 4514 H 428.929 2.53687 -3.01723 0
M  V30 4515 H 430.217 3.61831 -3.57709 0
M  V30 4516 H 429.615 5.55767 -1.05543 0
M  V30 4517 H 428.172 6.32071 -1.59154 0
M  V30 4518 N 431.605 1.3629 0.791371 0
M  V30 4519 C 432.535 1.33137 1.91825 0
M  V30 4520 C 433.516 0.203168 1.68882 0
M  V30 4521 O 434.701 0.400509 1.90025 0
M  V30 4522 C 431.831 1.11793 3.28816 0
M  V30 4523 C 430.785 2.21417 3.66277 0
M  V30 4524 C 430.111 1.85218 5.01596 0
M  V30 4525 C 431.411 3.63489 3.75064 0
M  V30 4526 H 433.105 2.2743 1.9472 0
M  V30 4527 H 430.651 1.09479 0.935437 0
M  V30 4528 H 432.604 1.08222 4.07266 0
M  V30 4529 H 431.328 0.139501 3.26302 0
M  V30 4530 H 429.987 2.2411 2.90121 0
M  V30 4531 H 429.635 0.859544 4.95602 0
M  V30 4532 H 429.335 2.58611 5.27631 0
M  V30 4533 H 430.859 1.832 5.82469 0
M  V30 4534 H 432.273 3.63034 4.43711 0
M  V30 4535 H 430.67 4.35771 4.12582 0
M  V30 4536 H 431.74 3.98536 2.76219 0
M  V30 4537 N 433.083 -1.0153 1.20538 0
M  V30 4538 C 434.033 -2.08482 0.922991 0
M  V30 4539 C 435.017 -1.60469 -0.117702 0
M  V30 4540 O 436.209 -1.76772 0.0898465 0
M  V30 4541 C 433.338 -3.39952 0.478312 0
M  V30 4542 C 432.424 -3.94662 1.5525 0
M  V30 4543 N 432.815 -4.22866 2.77521 0
M  V30 4544 C 431.113 -4.22825 1.41897 0
M  V30 4545 C 431.814 -4.67002 3.4682 0
M  V30 4546 N 430.79 -4.69356 2.74237 0
M  V30 4547 H 434.592 -2.28199 1.85209 0
M  V30 4548 H 432.106 -1.19512 1.09957 0
M  V30 4549 H 434.103 -4.16105 0.257408 0
M  V30 4550 H 432.763 -3.21648 -0.444148 0
M  V30 4551 H 433.774 -4.11732 3.1416 0
M  V30 4552 H 430.451 -4.13714 0.561015 0
M  V30 4553 H 431.841 -4.97632 4.51455 0
M  V30 4554 N 434.561 -1.01147 -1.20859 0
M  V30 4555 C 435.491 -0.597663 -2.25722 0
M  V30 4556 C 436.472 0.384744 -1.65692 0
M  V30 4557 O 437.657 0.271303 -1.92296 0
M  V30 4558 C 434.787 0.0700149 -3.47229 0
M  V30 4559 C 433.741 -0.832843 -4.19819 0
M  V30 4560 C 433.067 -0.0312202 -5.34691 0
M  V30 4561 C 434.367 -2.1385 -4.76514 0
M  V30 4562 H 436.061 -1.47423 -2.60589 0
M  V30 4563 H 433.607 -0.710301 -1.25263 0
M  V30 4564 H 435.56 0.37103 -4.19763 0
M  V30 4565 H 434.284 0.981259 -3.11511 0
M  V30 4566 H 432.943 -1.11778 -3.49144 0
M  V30 4567 H 432.591 0.881515 -4.95215 0
M  V30 4568 H 432.291 -0.632434 -5.84187 0
M  V30 4569 H 433.815 0.26346 -6.10031 0
M  V30 4570 H 435.229 -1.9002 -5.40893 0
M  V30 4571 H 433.626 -2.69012 -5.36426 0
M  V30 4572 H 434.696 -2.80495 -3.95538 0
M  V30 4573 N 436.039 1.36541 -0.78704 0
M  V30 4574 C 437.002 2.28413 -0.189778 0
M  V30 4575 C 438.002 1.48719 0.611499 0
M  V30 4576 O 439.192 1.68737 0.432842 0
M  V30 4577 C 436.324 3.32824 0.737638 0
M  V30 4578 H 437.517 2.82743 -0.999831 0
M  V30 4579 H 435.07 1.46065 -0.556298 0
M  V30 4580 H 435.805 2.83646 1.57212 0
M  V30 4581 H 435.59 3.91752 0.165044 0
M  V30 4582 H 437.08 4.0144 1.15047 0
M  V30 4583 N 437.518 0.538854 1.48102 0
M  V30 4584 C 438.764 0.0161732 2.03394 0
M  V30 4585 C 439.119 -1.31154 1.40771 0
M  V30 4586 O 438.412 -1.83613 0.547421 0
M  V30 4587 C 438.606 -0.153808 3.57069 0
M  V30 4588 C 438.435 1.15588 4.34591 0
M  V30 4589 C 437.205 1.71818 4.75191 0
M  V30 4590 C 439.403 2.06867 4.70861 0
M  V30 4591 N 437.385 2.96983 5.37284 0
M  V30 4592 C 438.756 3.16609 5.33066 0
M  V30 4593 C 440.811 2.07085 4.52791 0
M  V30 4594 C 439.514 4.26645 5.79109 0
M  V30 4595 C 441.54 3.16121 4.99821 0
M  V30 4596 C 440.902 4.24582 5.62058 0
M  V30 4597 H 437.001 0.0476346 0.780548 0
M  V30 4598 H 439.585 0.722094 1.80815 0
M  V30 4599 H 437.756 -0.828825 3.79454 0
M  V30 4600 H 439.488 -0.676896 3.98999 0
M  V30 4601 H 436.243 1.25845 4.56574 0
M  V30 4602 H 436.667 3.60732 5.72889 0
M  V30 4603 H 441.309 1.24522 4.04047 0
M  V30 4604 H 439.027 5.0998 6.26854 0
M  V30 4605 H 442.613 3.17355 4.87624 0
M  V30 4606 H 441.493 5.07562 5.97788 0
M  V30 4607 N 438.996 -1.55193 0.274407 0
M  V30 4608 C 439.946 -2.19184 -0.627882 0
M  V30 4609 C 440.93 -1.15625 -1.11892 0
M  V30 4610 O 442.122 -1.41441 -1.06411 0
M  V30 4611 C 439.251 -2.91591 -1.81189 0
M  V30 4612 C 438.337 -4.02438 -1.33807 0
M  V30 4613 N 438.728 -5.0246 -0.580349 0
M  V30 4614 C 437.026 -4.15496 -1.62109 0
M  V30 4615 C 437.727 -5.80756 -0.331344 0
M  V30 4616 N 436.703 -5.36038 -0.903556 0
M  V30 4617 H 440.505 -2.93871 -0.0411216 0
M  V30 4618 H 438.019 -1.62213 0.0779348 0
M  V30 4619 H 440.016 -3.35883 -2.46957 0
M  V30 4620 H 438.676 -2.18414 -2.40261 0
M  V30 4621 H 439.687 -5.17399 -0.227762 0
M  V30 4622 H 436.364 -3.53509 -2.22121 0
M  V30 4623 H 437.754 -6.71335 0.275454 0
M  V30 4624 N 440.474 -0.00167713 -1.576 0
M  V30 4625 C 441.384 1.00548 -2.1196 0
M  V30 4626 C 442.4 1.3758 -1.06526 0
M  V30 4627 O 443.576 1.46278 -1.38436 0
M  V30 4628 C 440.641 2.27809 -2.6135 0
M  V30 4629 C 439.702 1.97074 -3.81393 0
M  V30 4630 C 438.935 3.18267 -4.28417 0
M  V30 4631 O 439.158 4.30009 -3.74765 0
M  V30 4632 O 438.092 3.02167 -5.20556 0
M  V30 4633 H 441.918 0.573373 -2.98238 0
M  V30 4634 H 439.503 0.217255 -1.47812 0
M  V30 4635 H 441.385 3.02568 -2.93309 0
M  V30 4636 H 440.06 2.70254 -1.78169 0
M  V30 4637 H 438.967 1.19785 -3.54404 0
M  V30 4638 H 440.3 1.59464 -4.65652 0
M  V30 4639 N 441.952 1.55251 0.271103 0
M  V30 4640 C 443.2 1.75599 1.00047 0
M  V30 4641 C 443.521 0.561188 1.8675 0
M  V30 4642 O 442.791 -0.423846 1.9126 0
M  V30 4643 H 441.371 0.647562 0.372387 0
M  V30 4644 H 444.033 1.92656 0.294876 0
M  V30 4645 H 443.129 2.65766 1.6363 0
M  V30 4646 N 443.43 -0.535701 1.48216 0
M  V30 4647 C 444.36 -1.65014 1.65204 0
M  V30 4648 C 445.341 -1.62554 0.501011 0
M  V30 4649 O 446.526 -1.7984 0.732886 0
M  V30 4650 C 443.656 -3.03616 1.68626 0
M  V30 4651 C 442.61 -3.20932 2.83172 0
M  V30 4652 C 441.936 -4.60537 2.71679 0
M  V30 4653 C 443.236 -3.04249 4.24535 0
M  V30 4654 H 444.93 -1.51053 2.58502 0
M  V30 4655 H 442.476 -0.725262 1.24402 0
M  V30 4656 H 444.429 -3.81446 1.79099 0
M  V30 4657 H 443.153 -3.18587 0.719026 0
M  V30 4658 H 441.812 -2.45517 2.72244 0
M  V30 4659 H 441.46 -4.72336 1.72937 0
M  V30 4660 H 441.16 -4.73069 3.48538 0
M  V30 4661 H 442.684 -5.40475 2.84112 0
M  V30 4662 H 444.098 -3.71877 4.36326 0
M  V30 4663 H 442.495 -3.28278 5.02348 0
M  V30 4664 H 443.565 -2.00739 4.41397 0
M  V30 4665 N 444.908 -1.36708 -0.784132 0
M  V30 4666 C 446.185 -1.21776 -1.53069 0
M  V30 4667 C 446.565 0.193876 -2.10208 0
M  V30 4668 O 445.913 1.20012 -1.94446 0
M  V30 4669 C 446.123 -2.30395 -2.62143 0
M  V30 4670 C 447.471 -2.67325 -3.29882 0
M  V30 4671 O 448.495 -2.29478 -2.7243 0
M  V30 4672 O 447.354 -3.32485 -4.33724 0
M  V30 4673 H 444.448 -0.474459 -0.677361 0
M  V30 4674 H 446.994 -1.48454 -0.82216 0
M  V30 4675 H 445.766 -3.2498 -2.17953 0
M  V30 4676 H 445.389 -2.05112 -3.40609 0
M  V30 4677 N 446.386 1.0089 -1.21074 0
M  V30 4678 C 447.318 2.09737 -0.924291 0
M  V30 4679 C 448.331 1.62546 0.0909809 0
M  V30 4680 O 449.52 1.77942 -0.141021 0
M  V30 4681 C 446.62 3.36922 -0.36559 0
M  V30 4682 C 445.793 4.13216 -1.43426 0
M  V30 4683 C 444.852 5.18696 -0.885496 0
M  V30 4684 O 443.878 5.47176 -1.56801 0
M  V30 4685 N 445.08 5.79718 0.301227 0
M  V30 4686 H 447.845 2.34895 -1.8613 0
M  V30 4687 H 445.406 1.17341 -1.11546 0
M  V30 4688 H 447.398 4.04697 0.0158407 0
M  V30 4689 H 445.968 3.08952 0.476149 0
M  V30 4690 H 445.188 3.40301 -1.9897 0
M  V30 4691 H 446.476 4.60967 -2.15376 0
M  V30 4692 H 445.874 5.58926 0.872849 0
M  V30 4693 H 444.431 6.48804 0.624211 0
M  V30 4694 N 447.864 1.01787 1.20321 0
M  V30 4695 C 449.104 0.716493 1.91431 0
M  V30 4696 C 449.468 -0.740352 1.77152 0
M  V30 4697 O 450.669 -1.1543 2.42754 0
M  V30 4698 C 448.94 1.14169 3.38674 0
M  V30 4699 S 450.499 0.962482 4.28114 0
M  V30 4700 H 447.317 0.261175 0.661293 0
M  V30 4701 H 449.919 1.30539 1.45533 0
M  V30 4702 H 448.623 2.19784 3.46588 0
M  V30 4703 H 448.154 0.545621 3.89598 0
M  V30 4704 H 450.169 -0.133253 4.96021 0
M  V30 4705 N 449.342 -1.36122 0.79427 0
M  V30 4706 C 450.619 -1.93398 0.292685 0
M  V30 4707 C 450.999 -1.72567 -1.21589 0
M  V30 4708 O 450.347 -1.08745 -2.00965 0
M  V30 4709 C 450.557 -3.42099 0.690614 0
M  V30 4710 C 451.905 -4.19231 0.673105 0
M  V30 4711 O 452.929 -3.50559 0.631389 0
M  V30 4712 O 451.788 -5.41732 0.720362 0
M  V30 4713 H 448.882 -0.823712 0.0736693 0
M  V30 4714 H 451.428 -1.45273 0.87714 0
M  V30 4715 H 450.2 -3.50938 1.73085 0
M  V30 4716 H 449.823 -3.97519 0.0803036 0
M  V30 4717 N 450.82 -0.546701 -1.47814 0
M  V30 4718 C 452.231 -0.110564 -1.86372 0
M  V30 4719 C 452.582 1.31678 -1.45449 0
M  V30 4720 O 451.707 1.98889 -0.852758 0
M  V30 4721 C 452.302 -0.193873 -3.38245 0
M  V30 4722 C 450.861 0.187164 -3.75934 0
M  V30 4723 C 450.008 -0.546166 -2.71868 0
M  V30 4724 H 452.959 -0.757022 -1.39481 0
M  V30 4725 H 452.98 0.590218 -3.75895 0
M  V30 4726 H 452.492 -1.23282 -3.67999 0
M  V30 4727 H 450.593 1.22762 -3.51796 0
M  V30 4728 H 450.706 -0.164083 -4.78819 0
M  V30 4729 H 449.07 0.00953904 -2.54698 0
M  V30 4730 H 449.853 -1.58606 -3.04465 0
M  V30 4731 N 452.299 1.55045 -0.282633 0
M  V30 4732 C 453.547 1.99365 0.331334 0
M  V30 4733 C 453.868 1.1725 1.55812 0
M  V30 4734 O 453.138 0.263871 1.94115 0
M  V30 4735 H 451.718 0.736397 0.125414 0
M  V30 4736 H 454.38 1.90964 -0.389711 0
M  V30 4737 H 453.476 3.0596 0.616036 0
M  V30 4738 N 453.777 0.010035 1.57597 0
M  V30 4739 C 455.023 -0.668011 1.92118 0
M  V30 4740 C 455.378 -1.70821 0.885328 0
M  V30 4741 O 454.671 -1.91333 -0.101187 0
M  V30 4742 C 454.865 -1.34434 3.31153 0
M  V30 4743 C 454.694 -0.371176 4.48166 0
M  V30 4744 C 453.464 0.0220686 5.05295 0
M  V30 4745 C 455.662 0.366731 5.12991 0
M  V30 4746 N 453.644 0.9924 6.05826 0
M  V30 4747 C 455.015 1.19142 6.08445 0
M  V30 4748 C 457.07 0.429489 4.96044 0
M  V30 4749 C 455.773 2.07317 6.88776 0
M  V30 4750 C 457.799 1.2985 5.76969 0
M  V30 4751 C 457.161 2.11101 6.72023 0
M  V30 4752 H 453.26 -0.217337 0.751192 0
M  V30 4753 H 455.844 0.0727375 1.94564 0
M  V30 4754 H 454.015 -2.05533 3.29561 0
M  V30 4755 H 455.747 -1.97789 3.53075 0
M  V30 4756 H 452.502 -0.348409 4.72317 0
M  V30 4757 H 452.926 1.47324 6.60776 0
M  V30 4758 H 457.568 -0.18442 4.22398 0
M  V30 4759 H 455.286 2.69771 7.61741 0
M  V30 4760 H 458.872 1.3511 5.65894 0
M  V30 4761 H 457.752 2.77257 7.33552 0
M  V30 4762 N 455.255 -1.55392 -0.262866 0
M  V30 4763 C 456.185 -1.91978 -1.32917 0
M  V30 4764 C 457.166 -0.7828 -1.51017 0
M  V30 4765 O 458.351 -1.04178 -1.63892 0
M  V30 4766 C 455.481 -2.20055 -2.68687 0
M  V30 4767 C 454.435 -3.35854 -2.65304 0
M  V30 4768 C 453.761 -3.49435 -4.04721 0
M  V30 4769 C 455.061 -4.71977 -2.23685 0
M  V30 4770 H 456.755 -2.81292 -1.02544 0
M  V30 4771 H 454.301 -1.3534 -0.491846 0
M  V30 4772 H 456.254 -2.44237 -3.43404 0
M  V30 4773 H 454.978 -1.27551 -3.00663 0
M  V30 4774 H 453.637 -3.11655 -1.93045 0
M  V30 4775 H 453.285 -2.54379 -4.33936 0
M  V30 4776 H 452.985 -4.27297 -4.0335 0
M  V30 4777 H 454.509 -3.7592 -4.81161 0
M  V30 4778 H 455.923 -4.95637 -2.88127 0
M  V30 4779 H 454.32 -5.52828 -2.33456 0
M  V30 4780 H 455.39 -4.70115 -1.18827 0
M  V30 4781 N 456.733 0.527833 -1.48498 0
M  V30 4782 C 457.696 1.61439 -1.62696 0
M  V30 4783 C 458.696 1.52824 -0.500136 0
M  V30 4784 O 459.886 1.56456 -0.765976 0
M  V30 4785 C 457.018 3.01063 -1.59918 0
M  V30 4786 H 458.211 1.50189 -2.59583 0
M  V30 4787 H 455.764 0.750055 -1.37127 0
M  V30 4788 H 456.499 3.17818 -0.645163 0
M  V30 4789 H 456.284 3.08725 -2.41726 0
M  V30 4790 H 457.774 3.80057 -1.73051 0
M  V30 4791 N 458.211 1.37122 0.776871 0
M  V30 4792 C 459.488 1.22586 1.52421 0
M  V30 4793 C 459.868 -0.182726 2.10308 0
M  V30 4794 O 459.216 -1.18979 1.9508 0
M  V30 4795 C 459.426 2.31782 2.60918 0
M  V30 4796 C 460.774 2.69071 3.2846 0
M  V30 4797 O 461.798 2.3092 2.71209 0
M  V30 4798 O 460.657 3.3478 4.31954 0
M  V30 4799 H 457.751 0.478045 0.674835 0
M  V30 4800 H 460.297 1.48888 0.814275 0
M  V30 4801 H 459.069 3.26131 2.16227 0
M  V30 4802 H 458.692 2.06916 3.39517 0
M  V30 4803 N 459.689 -1.00246 1.21608 0
M  V30 4804 C 460.937 -1.73717 1.0328 0
M  V30 4805 C 461.258 -1.90102 -0.434318 0
M  V30 4806 O 460.528 -1.45376 -1.31311 0
M  V30 4807 H 459.108 -0.643613 0.379172 0
M  V30 4808 H 461.77 -1.20787 1.52959 0
M  V30 4809 H 460.866 -2.73535 1.50283 0
M  V30 4810 N 461.167 -1.02423 -1.1978 0
M  V30 4811 C 462.392 -0.7373 -1.93852 0
M  V30 4812 C 462.817 0.696923 -1.74713 0
M  V30 4813 O 462.175 1.48056 -1.04638 0
M  V30 4814 C 462.223 -1.08783 -3.438 0
M  V30 4815 O 461.327 -0.20383 -4.11896 0
M  V30 4816 H 460.668 -0.27284 -0.605355 0
M  V30 4817 H 463.198 -1.36966 -1.51992 0
M  V30 4818 H 463.208 -1.04276 -3.9445 0
M  V30 4819 H 461.883 -2.13274 -3.57053 0
M  V30 4820 H 460.46 -0.307091 -3.71633 0
M  V30 4821 N 462.645 1.35699 -0.801477 0
M  V30 4822 C 463.891 1.99208 -0.380022 0
M  V30 4823 C 464.224 1.63445 1.04878 0
M  V30 4824 O 463.499 0.895223 1.72673 0
M  V30 4825 C 463.782 3.55755 -0.557708 0
M  V30 4826 C 463.635 4.01332 -2.03107 0
M  V30 4827 C 464.954 4.40096 0.0197968 0
M  V30 4828 H 462.073 0.723667 -0.139552 0
M  V30 4829 H 464.715 1.60928 -1.01006 0
M  V30 4830 H 462.865 3.88494 -0.0213741 0
M  V30 4831 H 464.537 3.79026 -2.62939 0
M  V30 4832 H 462.78 3.52429 -2.52936 0
M  V30 4833 H 463.451 5.10234 -2.1063 0
M  V30 4834 H 465.927 4.13786 -0.438179 0
M  V30 4835 H 464.803 5.48735 -0.134477 0
M  V30 4836 H 465.064 4.2786 1.11303 0
M  V30 4837 N 464.123 0.554532 1.47522 0
M  V30 4838 C 465.539 0.214107 1.58157 0
M  V30 4839 C 465.739 -1.28331 1.55349 0
M  V30 4840 O 464.795 -2.06329 1.45549 0
M  V30 4841 C 466.108 0.838391 2.88776 0
M  V30 4842 C 467.656 0.809374 3.02354 0
M  V30 4843 C 468.131 1.41268 4.35669 0
M  V30 4844 N 469.622 1.37574 4.42298 0
M  V30 4845 C 470.357 1.8122 5.4401 0
M  V30 4846 N 469.853 2.3271 6.52547 0
M  V30 4847 N 471.646 1.72307 5.35039 0
M  V30 4848 H 463.797 1.52744 1.4759 0
M  V30 4849 H 466.06 0.636812 0.702264 0
M  V30 4850 H 465.766 1.89065 2.96559 0
M  V30 4851 H 465.64 0.329847 3.75755 0
M  V30 4852 H 468.027 -0.234187 2.94169 0
M  V30 4853 H 468.108 1.35565 2.16924 0
M  V30 4854 H 467.752 2.45529 4.4461 0
M  V30 4855 H 467.682 0.841871 5.19827 0
M  V30 4856 H 470.173 0.999081 3.64454 0
M  V30 4857 H 470.486 2.63944 7.26329 0
M  V30 4858 H 468.831 2.36719 6.53444 0
M  V30 4859 H 472.022 1.3186 4.49144 0
M  V30 4860 H 472.195 2.06641 6.14169 0
M  V30 4861 N 465.601 -1.54893 0.290851 0
M  V30 4862 C 466.831 -2.04047 -0.323818 0
M  V30 4863 C 467.239 -1.16809 -1.48837 0
M  V30 4864 O 466.582 -0.184145 -1.82775 0
M  V30 4865 C 466.644 -3.49248 -0.852395 0
M  V30 4866 C 466.308 -4.56623 0.185557 0
M  V30 4867 C 467.305 -5.09985 1.01053 0
M  V30 4868 C 464.99 -5.01252 0.324332 0
M  V30 4869 C 466.984 -6.06507 1.96031 0
M  V30 4870 C 464.671 -5.97596 1.27757 0
M  V30 4871 C 465.669 -6.50107 2.09405 0
M  V30 4872 O 465.357 -7.44565 3.03114 0
M  V30 4873 H 465.089 -0.671735 -0.0758129 0
M  V30 4874 H 467.643 -2.00947 0.425393 0
M  V30 4875 H 465.873 -3.49639 -1.65195 0
M  V30 4876 H 467.562 -3.81654 -1.38185 0
M  V30 4877 H 468.328 -4.76307 0.914129 0
M  V30 4878 H 464.207 -4.60015 -0.301213 0
M  V30 4879 H 467.751 -6.47418 2.598 0
M  V30 4880 H 463.648 -6.30691 1.37473 0
M  V30 4881 H 464.416 -7.62334 2.97976 0
M  V30 4882 N 467.08 -0.0183926 -1.57589 0
M  V30 4883 C 468.491 0.521927 -1.79256 0
M  V30 4884 C 468.842 1.72885 -0.927636 0
M  V30 4885 O 467.967 2.15978 -0.135091 0
M  V30 4886 C 468.562 0.953632 -3.25102 0
M  V30 4887 C 467.121 1.43913 -3.47801 0
M  V30 4888 C 466.268 0.398837 -2.74417 0
M  V30 4889 H 469.219 -0.244485 -1.56805 0
M  V30 4890 H 469.24 1.81863 -3.34224 0
M  V30 4891 H 468.752 0.0750123 -3.88028 0
M  V30 4892 H 466.853 2.33804 -2.90115 0
M  V30 4893 H 466.966 1.45391 -4.56507 0
M  V30 4894 H 465.33 0.864572 -2.39577 0
M  V30 4895 H 466.113 -0.471132 -3.40052 0
M  V30 4896 N 468.558 1.5553 0.254621 0
M  V30 4897 C 469.807 1.76202 0.981612 0
M  V30 4898 C 470.12 0.580883 1.86776 0
M  V30 4899 O 471.326 0.670448 2.63092 0
M  V30 4900 C 469.782 3.11921 1.79537 0
M  V30 4901 C 469.39 4.37659 0.956991 0
M  V30 4902 C 471.134 3.41936 2.51555 0
M  V30 4903 C 469.041 5.64411 1.76619 0
M  V30 4904 H 467.971 0.656841 0.370237 0
M  V30 4905 H 470.622 1.81969 0.236556 0
M  V30 4906 H 469.004 3.00241 2.58208 0
M  V30 4907 H 470.178 4.60307 0.21315 0
M  V30 4908 H 468.493 4.14922 0.350497 0
M  V30 4909 H 471.09 4.33849 3.12536 0
M  V30 4910 H 471.433 2.62905 3.22779 0
M  V30 4911 H 471.966 3.54797 1.799 0
M  V30 4912 H 468.705 6.46241 1.09783 0
M  V30 4913 H 468.225 5.45877 2.48551 0
M  V30 4914 H 469.904 6.03386 2.33527 0
M  V30 4915 N 470.036 -0.519951 1.48776 0
M  V30 4916 C 470.968 -1.63973 1.60142 0
M  V30 4917 C 471.981 -1.55404 0.485117 0
M  V30 4918 O 473.17 -1.61682 0.756391 0
M  V30 4919 C 470.27 -3.02676 1.52449 0
M  V30 4920 C 469.443 -3.36624 2.79291 0
M  V30 4921 C 468.502 -4.54652 2.64912 0
M  V30 4922 O 467.528 -4.57374 3.38818 0
M  V30 4923 N 468.73 -5.53432 1.75195 0
M  V30 4924 H 471.495 -1.54656 2.56713 0
M  V30 4925 H 469.056 -0.707439 1.45626 0
M  V30 4926 H 471.048 -3.79525 1.4051 0
M  V30 4927 H 469.618 -3.06018 0.638125 0
M  V30 4928 H 468.838 -2.48855 3.0572 0
M  V30 4929 H 470.126 -3.56094 3.6342 0
M  V30 4930 H 469.524 -5.54018 1.14371 0
M  V30 4931 H 468.081 -6.29459 1.69189 0
M  V30 4932 N 471.514 -1.37532 -0.769588 0
M  V30 4933 C 472.742 -1.36059 -1.55871 0
M  V30 4934 C 473.157 0.053544 -1.88724 0
M  V30 4935 O 472.514 1.01591 -1.5161 0
M  V30 4936 C 472.565 -2.20107 -2.86767 0
M  V30 4937 O 472.286 -3.56009 -2.55321 0
M  V30 4938 C 473.787 -2.26636 -3.80987 0
M  V30 4939 H 471.007 -0.465967 -0.482821 0
M  V30 4940 H 473.551 -1.80901 -0.953686 0
M  V30 4941 H 471.706 -1.78768 -3.43687 0
M  V30 4942 H 472.12 -4.0009 -3.39158 0
M  V30 4943 H 473.594 -2.89763 -4.69831 0
M  V30 4944 H 474.071 -1.2754 -4.20274 0
M  V30 4945 H 474.677 -2.68296 -3.29996 0
M  V30 4946 N 472.992 0.995999 -1.22138 0
M  V30 4947 C 474.403 1.54961 -1.04135 0
M  V30 4948 C 474.754 1.92159 0.396147 0
M  V30 4949 O 473.879 1.74435 1.28069 0
M  V30 4950 C 474.474 2.81581 -1.88408 0
M  V30 4951 C 473.033 3.33396 -1.74712 0
M  V30 4952 C 472.18 2.06509 -1.85066 0
M  V30 4953 H 475.131 0.817436 -1.36028 0
M  V30 4954 H 475.152 3.53822 -1.39966 0
M  V30 4955 H 474.664 2.54476 -2.93025 0
M  V30 4956 H 472.765 3.65416 -0.728159 0
M  V30 4957 H 472.878 4.04208 -2.57202 0
M  V30 4958 H 471.242 2.19925 -1.28472 0
M  V30 4959 H 472.025 1.81804 -2.91208 0
M  V30 4960 N 474.47 1.03057 1.19235 0
M  V30 4961 C 475.886 0.747947 1.40989 0
M  V30 4962 C 476.086 -0.666752 1.90149 0
M  V30 4963 O 475.142 -1.43249 2.07933 0
M  V30 4964 C 476.455 1.7855 2.41951 0
M  V30 4965 C 478.003 1.80524 2.55695 0
M  V30 4966 C 478.478 2.83243 3.59913 0
M  V30 4967 N 479.969 2.8207 3.67411 0
M  V30 4968 C 480.704 3.58204 4.47747 0
M  V30 4969 N 480.2 4.44057 5.31775 0
M  V30 4970 N 481.993 3.46738 4.42413 0
M  V30 4971 H 474.144 1.94367 0.856468 0
M  V30 4972 H 476.407 0.840412 0.438647 0
M  V30 4973 H 476.113 2.79973 2.12857 0
M  V30 4974 H 475.987 1.6092 3.41152 0
M  V30 4975 H 478.374 0.79778 2.84112 0
M  V30 4976 H 478.455 2.02229 1.56643 0
M  V30 4977 H 478.099 3.84161 3.32239 0
M  V30 4978 H 478.029 2.58795 4.5862 0
M  V30 4979 H 480.52 2.19803 3.074 0
M  V30 4980 H 480.833 4.98884 5.90199 0
M  V30 4981 H 479.178 4.48129 5.3123 0
M  V30 4982 H 482.369 2.79077 3.75811 0
M  V30 4983 H 482.542 4.06322 5.04783 0
M  V30 4984 N 475.948 -1.35272 0.808662 0
M  V30 4985 C 477.364 -1.51806 0.492653 0
M  V30 4986 C 477.564 -1.7574 -0.985778 0
M  V30 4987 O 476.62 -1.80003 -1.77074 0
M  V30 4988 C 477.933 -2.69202 1.33981 0
M  V30 4989 C 479.481 -2.8308 1.33547 0
M  V30 4990 C 479.956 -4.03502 2.16679 0
M  V30 4991 N 481.447 -4.10684 2.14227 0
M  V30 4992 C 482.182 -5.02984 2.75308 0
M  V30 4993 N 481.678 -6.00603 3.45323 0
M  V30 4994 N 483.471 -4.95746 2.64938 0
M  V30 4995 H 475.622 -1.17993 1.76611 0
M  V30 4996 H 477.885 -0.577476 0.751814 0
M  V30 4997 H 477.591 -2.581 2.38909 0
M  V30 4998 H 477.465 -3.63854 0.994491 0
M  V30 4999 H 479.852 -2.93631 0.294036 0
M  V30 5000 H 479.933 -1.89278 1.72068 0
M  V30 5001 H 479.577 -3.93711 3.20864 0
M  V30 5002 H 479.507 -4.96489 1.75517 0
M  V30 5003 H 481.998 -3.40802 1.63285 0
M  V30 5004 H 482.311 -6.67633 3.89212 0
M  V30 5005 H 480.656 -6.0077 3.49428 0
M  V30 5006 H 483.847 -4.18439 2.09825 0
M  V30 5007 H 484.02 -5.67487 3.12829 0
M  V30 5008 N 477.426 -0.562348 -1.47226 0
M  V30 5009 C 478.842 -0.222492 -1.58042 0
M  V30 5010 C 479.042 1.27505 -1.56028 0
M  V30 5011 O 478.098 2.05555 -1.46641 0
M  V30 5012 C 479.411 -0.853694 -2.88327 0
M  V30 5013 C 480.959 -0.825397 -3.01921 0
M  V30 5014 C 481.434 -1.43576 -4.34914 0
M  V30 5015 N 482.925 -1.39918 -4.41562 0
M  V30 5016 C 483.66 -1.84103 -5.43041 0
M  V30 5017 N 483.156 -2.36167 -6.51304 0
M  V30 5018 N 484.949 -1.75142 -5.34118 0
M  V30 5019 H 477.1 -1.53525 -1.46778 0
M  V30 5020 H 479.363 -0.640527 -0.698877 0
M  V30 5021 H 479.069 -1.90635 -2.95552 0
M  V30 5022 H 478.943 -0.34977 -3.75575 0
M  V30 5023 H 481.33 0.218583 -2.94289 0
M  V30 5024 H 481.411 -1.36713 -2.16202 0
M  V30 5025 H 481.055 -2.47884 -4.43301 0
M  V30 5026 H 480.985 -0.869427 -5.19373 0
M  V30 5027 H 483.476 -1.0184 -3.63919 0
M  V30 5028 H 483.789 -2.67793 -7.24919 0
M  V30 5029 H 482.134 -2.40181 -6.52179 0
M  V30 5030 H 485.325 -1.34241 -4.48439 0
M  V30 5031 H 485.498 -2.09895 -6.13065 0
M  V30 5032 N 478.904 1.54736 -0.299062 0
M  V30 5033 C 480.144 2.0201 0.31168 0
M  V30 5034 C 480.508 1.18281 1.5124 0
M  V30 5035 O 481.709 1.55243 2.19438 0
M  V30 5036 C 479.98 3.5123 0.661227 0
M  V30 5037 S 481.539 4.20467 1.2551 0
M  V30 5038 H 478.357 0.704523 0.0957517 0
M  V30 5039 H 480.959 1.90791 -0.426482 0
M  V30 5040 H 479.663 4.09804 -0.221171 0
M  V30 5041 H 479.194 3.66481 1.43023 0
M  V30 5042 H 481.209 4.26083 2.54298 0
M  V30 5043 N 480.382 0.0267497 1.57577 0
M  V30 5044 C 481.63 -0.651116 1.91324 0
M  V30 5045 C 481.951 -1.72804 0.90353 0
M  V30 5046 O 481.221 -1.95822 -0.0552946 0
M  V30 5047 H 479.801 -0.243491 0.706202 0
M  V30 5048 H 482.463 0.0739935 1.94759 0
M  V30 5049 H 481.559 -1.10536 2.9187 0
M  V30 5050 N 481.861 -1.55662 -0.24637 0
M  V30 5051 C 483.109 -1.77168 -0.972411 0
M  V30 5052 C 483.43 -0.590827 -1.85834 0
M  V30 5053 O 482.7 0.393365 -1.9191 0
M  V30 5054 H 481.28 -0.653405 -0.362038 0
M  V30 5055 H 483.942 -1.93101 -0.264189 0
M  V30 5056 H 483.038 -2.68335 -1.59382 0
M  V30 5057 N 483.339 0.512053 -1.4905 0
M  V30 5058 C 484.75 1.09376 -1.51307 0
M  V30 5059 C 485.101 1.94 -0.292971 0
M  V30 5060 O 484.226 2.07965 0.598277 0
M  V30 5061 C 484.821 1.99031 -2.74176 0
M  V30 5062 C 483.38 2.52385 -2.79247 0
M  V30 5063 C 482.527 1.29749 -2.45073 0
M  V30 5064 H 485.478 0.296467 -1.55906 0
M  V30 5065 H 485.499 2.83569 -2.53711 0
M  V30 5066 H 485.011 1.37412 -3.62959 0
M  V30 5067 H 483.112 3.17673 -1.94716 0
M  V30 5068 H 483.225 2.90293 -3.81139 0
M  V30 5069 H 481.589 1.61912 -1.96612 0
M  V30 5070 H 482.372 0.698555 -3.36118 0
M  V30 5071 N 484.817 1.37938 0.762283 0
M  V30 5072 C 485.78 1.34279 1.85747 0
M  V30 5073 C 486.78 0.244969 1.58923 0
M  V30 5074 O 487.97 0.501365 1.66829 0
M  V30 5075 C 485.102 1.08833 3.23061 0
M  V30 5076 H 486.295 2.31705 1.90401 0
M  V30 5077 H 483.848 1.23105 0.963057 0
M  V30 5078 H 484.583 0.119767 3.24079 0
M  V30 5079 H 484.368 1.88306 3.43923 0
M  V30 5080 H 485.858 1.08946 4.03138 0
M  V30 5081 N 486.295 -0.989507 1.22664 0
M  V30 5082 C 487.706 -1.54406 1.04955 0
M  V30 5083 C 488.057 -1.92366 -0.385951 0
M  V30 5084 O 487.182 -1.75111 -1.27142 0
M  V30 5085 C 487.777 -2.80578 1.89899 0
M  V30 5086 C 486.336 -3.32464 1.76478 0
M  V30 5087 C 485.483 -2.05524 1.86159 0
M  V30 5088 H 488.434 -0.810211 1.3646 0
M  V30 5089 H 488.455 -3.53075 1.4184 0
M  V30 5090 H 487.967 -2.52918 2.94371 0
M  V30 5091 H 486.068 -3.65024 0.747528 0
M  V30 5092 H 486.181 -4.02838 2.59342 0
M  V30 5093 H 484.545 -2.19241 1.29636 0
M  V30 5094 H 485.328 -1.80258 2.92168 0
M  V30 5095 N 487.773 -1.03688 -1.18687 0
M  V30 5096 C 489.021 -0.736572 -1.88199 0
M  V30 5097 C 489.342 0.737665 -1.80509 0
M  V30 5098 O 488.612 1.53204 -1.22088 0
M  V30 5099 H 487.192 -0.269466 -0.696704 0
M  V30 5100 H 489.854 -1.31282 -1.44052 0
M  V30 5101 H 488.95 -1.03802 -2.94332 0
M  V30 5102 N 489.251 1.34841 -0.815825 0
M  V30 5103 C 490.497 1.98793 -0.401129 0
M  V30 5104 C 490.83 1.64548 1.03139 0
M  V30 5105 O 490.105 0.913487 1.71714 0
M  V30 5106 C 490.388 3.55143 -0.595409 0
M  V30 5107 C 490.241 3.99155 -2.07352 0
M  V30 5108 C 491.56 4.40092 -0.0268823 0
M  V30 5109 H 488.679 0.722146 -0.14722 0
M  V30 5110 H 491.321 1.59847 -1.02707 0
M  V30 5111 H 489.471 3.8845 -0.0625779 0
M  V30 5112 H 491.143 3.76216 -2.66945 0
M  V30 5113 H 489.386 3.49726 -2.56659 0
M  V30 5114 H 490.057 5.07971 -2.1603 0
M  V30 5115 H 492.533 4.13298 -0.482042 0
M  V30 5116 H 491.409 5.48562 -0.19267 0
M  V30 5117 H 491.67 4.29016 1.06759 0
M  V30 5118 N 490.729 0.570148 1.46925 0
M  V30 5119 C 492.145 0.23087 1.57921 0
M  V30 5120 C 492.345 -1.26676 1.56702 0
M  V30 5121 O 491.401 -2.04774 1.47729 0
M  V30 5122 C 492.714 0.868973 2.8787 0
M  V30 5123 C 494.262 0.841397 3.01479 0
M  V30 5124 C 494.737 1.45881 4.34146 0
M  V30 5125 N 496.228 1.42258 4.40814 0
M  V30 5126 C 496.963 1.8698 5.42057 0
M  V30 5127 N 496.459 2.39618 6.50042 0
M  V30 5128 N 498.252 1.77972 5.33181 0
M  V30 5129 H 490.403 1.54301 1.45962 0
M  V30 5130 H 492.666 0.644224 0.69547 0
M  V30 5131 H 492.372 1.922 2.94537 0
M  V30 5132 H 492.246 0.369682 3.75384 0
M  V30 5133 H 494.633 -0.202973 2.94401 0
M  V30 5134 H 494.714 1.37858 2.15474 0
M  V30 5135 H 494.358 2.50231 4.4198 0
M  V30 5136 H 494.288 0.896958 5.18905 0
M  V30 5137 H 496.779 1.03768 3.63374 0
M  V30 5138 H 497.092 2.71633 7.23488 0
M  V30 5139 H 495.437 2.43636 6.50897 0
M  V30 5140 H 498.628 1.36617 4.4772 0
M  V30 5141 H 498.801 2.13143 6.11943 0
M  V30 5142 N 492.207 -1.54576 0.307264 0
M  V30 5143 C 493.435 -2.04675 -0.302597 0
M  V30 5144 C 493.85 -1.18425 -1.47041 0
M  V30 5145 O 493.207 -0.211257 -1.81273 0
M  V30 5146 C 493.258 -3.53575 -0.752801 0
M  V30 5147 O 492.979 -4.36547 0.368536 0
M  V30 5148 C 494.48 -4.19699 -1.42717 0
M  V30 5149 H 491.7 -0.66786 -0.0648374 0
M  V30 5150 H 494.244 -1.99516 0.448716 0
M  V30 5151 H 492.399 -3.59074 -1.45412 0
M  V30 5152 H 492.813 -5.24497 0.0168937 0
M  V30 5153 H 494.287 -5.25388 -1.69327 0
M  V30 5154 H 494.764 -3.69815 -2.36925 0
M  V30 5155 H 495.37 -4.18293 -0.768856 0
M  V30 5156 N 493.685 -0.035106 -1.57561 0
M  V30 5157 C 494.931 0.64318 -1.92331 0
M  V30 5158 C 495.264 1.71434 -0.912368 0
M  V30 5159 O 494.539 1.94395 0.0640303 0
M  V30 5160 C 494.822 1.25411 -3.37556 0
M  V30 5161 C 494.675 0.192109 -4.4939 0
M  V30 5162 C 495.994 2.17041 -3.82859 0
M  V30 5163 H 493.113 0.232341 -0.699419 0
M  V30 5164 H 495.755 -0.0935889 -1.89769 0
M  V30 5165 H 493.905 1.88205 -3.39869 0
M  V30 5166 H 495.577 -0.438849 -4.59208 0
M  V30 5167 H 493.82 -0.481725 -4.31117 0
M  V30 5168 H 494.491 0.659292 -5.48049 0
M  V30 5169 H 496.967 1.64228 -3.8232 0
M  V30 5170 H 495.843 2.56738 -4.85157 0
M  V30 5171 H 496.104 3.06401 -3.18702 0
M  V30 5172 N 495.163 1.55791 0.238111 0
M  V30 5173 C 496.393 1.81834 0.980809 0
M  V30 5174 C 496.801 0.609741 1.79106 0
M  V30 5175 O 496.144 -0.431073 1.78571 0
M  V30 5176 C 496.206 3.01363 1.96011 0
M  V30 5177 C 495.87 4.37037 1.33597 0
M  V30 5178 C 496.867 5.14692 0.734063 0
M  V30 5179 C 494.552 4.83743 1.3527 0
M  V30 5180 C 496.546 6.37206 0.157208 0
M  V30 5181 C 494.233 6.06204 0.77199 0
M  V30 5182 C 495.231 6.82775 0.175282 0
M  V30 5183 O 494.919 8.02922 -0.396432 0
M  V30 5184 H 494.651 0.6088 0.293834 0
M  V30 5185 H 497.205 2.03702 0.263552 0
M  V30 5186 H 495.435 2.75273 2.71591 0
M  V30 5187 H 497.124 3.14422 2.56697 0
M  V30 5188 H 497.89 4.79722 0.713582 0
M  V30 5189 H 493.769 4.24129 1.80653 0
M  V30 5190 H 497.313 6.96915 -0.30917 0
M  V30 5191 H 493.21 6.4065 0.789828 0
M  V30 5192 H 493.978 8.17989 -0.289145 0
M  V30 5193 N 496.642 -0.504142 1.49319 0
M  V30 5194 C 498.058 -0.835039 1.36012 0
M  V30 5195 C 498.258 -1.97674 0.390808 0
M  V30 5196 O 497.314 -2.51867 -0.178655 0
M  V30 5197 C 498.627 -1.17821 2.76656 0
M  V30 5198 C 500.175 -1.2866 2.85334 0
M  V30 5199 C 500.65 -1.66307 4.26739 0
M  V30 5200 N 502.141 -1.73362 4.29534 0
M  V30 5201 C 502.876 -2.0393 5.35911 0
M  V30 5202 N 502.372 -2.32744 6.52535 0
M  V30 5203 N 504.165 -2.05155 5.23324 0
M  V30 5204 H 496.316 0.248764 2.10938 0
M  V30 5205 H 498.579 0.0486962 0.946748 0
M  V30 5206 H 498.285 -0.412682 3.4927 0
M  V30 5207 H 498.159 -2.12239 3.11825 0
M  V30 5208 H 500.546 -2.04285 2.1296 0
M  V30 5209 H 500.627 -0.323004 2.53752 0
M  V30 5210 H 500.271 -0.91234 4.99639 0
M  V30 5211 H 500.201 -2.63761 4.55782 0
M  V30 5212 H 502.692 -1.53268 3.45424 0
M  V30 5213 H 503.005 -2.55248 7.2943 0
M  V30 5214 H 501.35 -2.30207 6.55767 0
M  V30 5215 H 504.541 -1.82119 4.3122 0
M  V30 5216 H 504.714 -2.28644 6.06322 0
M  V30 5217 N 498.12 -1.38341 -0.754957 0
M  V30 5218 C 499.367 -1.34473 -1.51404 0
M  V30 5219 C 499.695 0.0656458 -1.94389 0
M  V30 5220 O 498.95 1.04244 -1.65625 0
M  V30 5221 C 499.249 -2.2452 -2.78075 0
M  V30 5222 C 498.915 -3.72512 -2.54059 0
M  V30 5223 C 497.577 -4.1284 -2.47218 0
M  V30 5224 C 499.929 -4.66197 -2.33044 0
M  V30 5225 C 497.257 -5.44945 -2.17376 0
M  V30 5226 C 499.609 -5.98558 -2.04723 0
M  V30 5227 C 498.273 -6.37972 -1.96337 0
M  V30 5228 H 497.543 -0.492072 -0.554027 0
M  V30 5229 H 500.19 -1.70687 -0.868223 0
M  V30 5230 H 498.495 -1.81357 -3.473 0
M  V30 5231 H 500.192 -2.18832 -3.36026 0
M  V30 5232 H 496.782 -3.40538 -2.60253 0
M  V30 5233 H 500.966 -4.35888 -2.37309 0
M  V30 5234 H 496.222 -5.74426 -2.09391 0
M  V30 5235 H 500.396 -6.70693 -1.87465 0
M  V30 5236 H 498.023 -7.40258 -1.72978 0
M  V30 5237 N 499.598 0.982988 -1.23187 0
M  V30 5238 C 500.561 2.05649 -1.01198 0
M  V30 5239 C 501.561 1.6078 0.0252464 0
M  V30 5240 O 502.751 1.72878 -0.214243 0
M  V30 5241 C 499.883 3.36744 -0.530656 0
M  V30 5242 H 501.076 2.2659 -1.96461 0
M  V30 5243 H 498.629 1.15602 -1.05195 0
M  V30 5244 H 499.364 3.21492 0.425873 0
M  V30 5245 H 499.149 3.7065 -1.2791 0
M  V30 5246 H 500.639 4.15705 -0.397366 0
M  V30 5247 N 501.076 1.04316 1.18135 0
M  V30 5248 C 502.024 0.630175 2.23901 0
M  V30 5249 C 503.018 -0.344254 1.65865 0
M  V30 5250 O 504.224 -0.211273 1.78756 0
M  V30 5251 H 500.599 0.185578 0.728742 0
M  V30 5252 H 502.57 1.53253 2.56039 0
M  V30 5253 C 501.319 0.011666 3.47698 0
M  V30 5254 H 500.642 0.752526 3.92654 0
M  V30 5255 H 502.082 -0.240046 4.2332 0
M  V30 5256 C 500.541 -1.23913 3.13285 0
M  V30 5257 O 501.071 -2.32959 3.27251 0
M  V30 5258 N 499.277 -1.13338 2.67587 0
M  V30 5259 H 498.824 -0.246006 2.56423 0
M  V30 5260 H 498.782 -1.97116 2.44934 0
M  V30 5261 N 502.554 -1.34406 0.822964 0
M  V30 5262 C 503.97 -1.51275 0.508727 0
M  V30 5263 C 504.17 -1.76776 -0.967083 0
M  V30 5264 O 503.226 -1.81871 -1.75155 0
M  V30 5265 C 504.539 -2.67765 1.36829 0
M  V30 5266 C 506.087 -2.81647 1.36542 0
M  V30 5267 C 506.562 -4.01181 2.20947 0
M  V30 5268 N 508.053 -4.08388 2.18571 0
M  V30 5269 C 508.788 -5.00036 2.80627 0
M  V30 5270 N 508.284 -5.96906 3.51674 0
M  V30 5271 N 510.077 -4.92908 2.70181 0
M  V30 5272 H 502.228 -1.16113 1.77852 0
M  V30 5273 H 504.491 -0.56947 0.757897 0
M  V30 5274 H 504.197 -2.55551 2.41633 0
M  V30 5275 H 504.071 -3.62779 1.03303 0
M  V30 5276 H 506.458 -2.93303 0.325163 0
M  V30 5277 H 506.539 -1.87443 1.74066 0
M  V30 5278 H 506.183 -3.90286 3.25022 0
M  V30 5279 H 506.113 -4.94599 1.80774 0
M  V30 5280 H 508.604 -3.39051 1.66891 0
M  V30 5281 H 508.917 -6.63468 3.96271 0
M  V30 5282 H 507.262 -5.9703 3.5578 0
M  V30 5283 H 510.453 -4.1619 2.14251 0
M  V30 5284 H 510.626 -5.64137 3.18831 0
M  V30 5285 N 504.032 -0.577932 -1.46621 0
M  V30 5286 C 505.26 -0.0671642 -2.06791 0
M  V30 5287 C 505.675 1.23571 -1.42743 0
M  V30 5288 O 505.032 1.74602 -0.531062 0
M  V30 5289 C 505.083 0.110357 -3.61332 0
M  V30 5290 O 504.804 -1.14095 -4.22982 0
M  V30 5291 C 506.305 0.656025 -4.38419 0
M  V30 5292 H 503.525 -0.0552732 -0.66872 0
M  V30 5293 H 506.069 -0.797242 -1.8832 0
M  V30 5294 H 504.224 0.790637 -3.79246 0
M  V30 5295 H 504.638 -0.951742 -5.15793 0
M  V30 5296 H 506.112 0.729438 -5.47159 0
M  V30 5297 H 506.589 1.67195 -4.06131 0
M  V30 5298 H 507.195 0.0107692 -4.25299 0
M  V30 5299 N 505.51 1.54411 -0.315457 0
M  V30 5300 C 506.758 2.00023 0.288971 0
M  V30 5301 C 507.079 1.20529 1.5329 0
M  V30 5302 O 506.349 0.304986 1.93511 0
M  V30 5303 H 504.929 0.738891 0.109766 0
M  V30 5304 H 507.591 1.90094 -0.430129 0
M  V30 5305 H 506.687 3.07198 0.550999 0
M  V30 5306 N 506.988 0.0434614 1.5754 0
M  V30 5307 C 508.235 -0.632035 1.92384 0
M  V30 5308 C 508.563 -1.71304 0.921157 0
M  V30 5309 O 507.818 -1.95583 -0.067744 0
M  V30 5310 C 508.117 -1.2738 3.3393 0
M  V30 5311 C 507.783 -0.321757 4.49751 0
M  V30 5312 C 506.445 -0.0597611 4.81163 0
M  V30 5313 C 508.797 0.331158 5.20147 0
M  V30 5314 C 506.125 0.862715 5.80322 0
M  V30 5315 C 508.477 1.24178 6.20292 0
M  V30 5316 C 507.141 1.51252 6.50138 0
M  V30 5317 H 506.411 -0.231278 0.703983 0
M  V30 5318 H 509.058 0.108294 1.91194 0
M  V30 5319 H 507.363 -2.08921 3.3145 0
M  V30 5320 H 509.06 -1.80326 3.58167 0
M  V30 5321 H 505.65 -0.53614 4.25233 0
M  V30 5322 H 509.834 0.141826 4.96097 0
M  V30 5323 H 505.09 1.08003 6.01785 0
M  V30 5324 H 509.264 1.75381 6.73954 0
M  V30 5325 H 506.891 2.22897 7.26788 0
M  V30 5326 N 508.466 -1.55915 -0.229846 0
M  V30 5327 C 509.877 -1.68809 -0.797531 0
M  V30 5328 C 510.228 -0.643995 -1.8533 0
M  V30 5329 O 509.353 0.206492 -2.15413 0
M  V30 5330 C 509.948 -3.06043 -1.45338 0
M  V30 5331 C 508.507 -3.20819 -1.96856 0
M  V30 5332 C 507.654 -2.6472 -0.825736 0
M  V30 5333 H 510.605 -1.58699 -0.00533733 0
M  V30 5334 H 510.626 -3.01438 -2.32196 0
M  V30 5335 H 510.138 -3.82012 -0.684743 0
M  V30 5336 H 508.239 -2.49704 -2.76548 0
M  V30 5337 H 508.352 -4.27937 -2.15423 0
M  V30 5338 H 506.716 -2.22985 -1.23084 0
M  V30 5339 H 507.499 -3.43229 -0.0699019 0
M  V30 5340 N 509.944 0.496216 -1.49584 0
M  V30 5341 C 511.169 1.27865 -1.63295 0
M  V30 5342 C 511.594 1.85592 -0.306156 0
M  V30 5343 O 510.952 1.66092 0.726851 0
M  V30 5344 C 511 2.38128 -2.7079 0
M  V30 5345 O 510.104 3.42108 -2.30296 0
M  V30 5346 H 509.445 0.377279 -0.546403 0
M  V30 5347 H 511.975 0.593497 -1.95803 0
M  V30 5348 H 511.985 2.8382 -2.93104 0
M  V30 5349 H 510.66 1.95479 -3.67098 0
M  V30 5350 H 509.237 3.02301 -2.18331 0
M  V30 5351 N 511.423 1.38739 0.74761 0
M  V30 5352 C 512.834 1.31507 1.32524 0
M  V30 5353 C 513.185 -0.0263963 1.96182 0
M  V30 5354 O 512.31 -0.92849 1.95469 0
M  V30 5355 C 512.905 2.38162 2.40966 0
M  V30 5356 C 511.464 2.34489 2.94434 0
M  V30 5357 C 510.611 2.20712 1.67873 0
M  V30 5358 H 513.562 1.4901 0.546043 0
M  V30 5359 H 513.583 2.04222 3.21051 0
M  V30 5360 H 513.095 3.35783 1.94605 0
M  V30 5361 H 511.196 1.40467 3.45108 0
M  V30 5362 H 511.309 3.28861 3.48407 0
M  V30 5363 H 509.673 1.67667 1.91729 0
M  V30 5364 H 510.456 3.20285 1.23582 0
M  V30 5365 N 512.901 -0.976442 1.23707 0
M  V30 5366 C 513.864 -2.0511 1.02287 0
M  V30 5367 C 514.864 -1.60791 -0.0167195 0
M  V30 5368 O 516.054 -1.72761 0.223408 0
M  V30 5369 C 513.186 -3.36458 0.548507 0
M  V30 5370 H 514.379 -2.25545 1.9766 0
M  V30 5371 H 511.932 -1.15042 1.05806 0
M  V30 5372 H 512.667 -3.21713 -0.408818 0
M  V30 5373 H 512.452 -3.69967 1.29874 0
M  V30 5374 H 513.942 -4.15489 0.419406 0
M  V30 5375 N 514.379 -1.04941 -1.1758 0
M  V30 5376 C 515.289 -0.658826 -2.25159 0
M  V30 5377 C 516.305 0.318941 -1.71052 0
M  V30 5378 O 517.481 0.171669 -2.00667 0
M  V30 5379 C 514.546 -0.0369522 -3.4668 0
M  V30 5380 C 513.607 -1.06484 -4.15884 0
M  V30 5381 C 512.84 -0.472551 -5.31604 0
M  V30 5382 O 513.063 0.718736 -5.65854 0
M  V30 5383 O 511.997 -1.20557 -5.89703 0
M  V30 5384 H 515.823 -1.55533 -2.60851 0
M  V30 5385 H 513.408 -0.820819 -1.24832 0
M  V30 5386 H 515.29 0.308784 -4.20267 0
M  V30 5387 H 513.965 0.833238 -3.12792 0
M  V30 5388 H 512.872 -1.46253 -3.44327 0
M  V30 5389 H 514.205 -1.9061 -4.53794 0
M  V30 5390 N 515.857 1.33968 -0.830081 0
M  V30 5391 C 517.273 1.51003 -0.516742 0
M  V30 5392 C 517.473 1.77286 0.957694 0
M  V30 5393 O 516.529 1.82797 1.74188 0
M  V30 5394 C 517.842 2.67036 -1.38247 0
M  V30 5395 C 519.39 2.80919 -1.38034 0
M  V30 5396 C 519.865 4.00004 -2.23071 0
M  V30 5397 N 521.356 4.07224 -2.20733 0
M  V30 5398 C 522.091 4.98541 -2.83275 0
M  V30 5399 N 521.587 5.95033 -3.54835 0
M  V30 5400 N 523.38 4.91469 -2.72791 0
M  V30 5401 H 515.531 1.15168 -1.78466 0
M  V30 5402 H 517.794 0.565443 -0.760906 0
M  V30 5403 H 517.5 2.54266 -2.42985 0
M  V30 5404 H 517.374 3.62226 -1.05225 0
M  V30 5405 H 519.761 2.93127 -0.340713 0
M  V30 5406 H 519.842 1.86517 -1.75057 0
M  V30 5407 H 519.486 3.88557 -3.27087 0
M  V30 5408 H 519.416 4.93634 -1.83394 0
M  V30 5409 H 521.907 3.38162 -1.68687 0
M  V30 5410 H 522.22 6.61357 -3.99784 0
M  V30 5411 H 520.565 5.95135 -3.58942 0
M  V30 5412 H 523.756 4.15048 -2.16456 0
M  V30 5413 H 523.929 5.62439 -3.21818 0
M  V30 5414 N 517.335 0.585699 1.46312 0
M  V30 5415 C 518.582 0.0724211 2.0237 0
M  V30 5416 C 518.91 -1.28868 1.45683 0
M  V30 5417 O 518.165 -1.85853 0.612945 0
M  V30 5418 C 518.464 -0.0401312 3.57377 0
M  V30 5419 C 518.13 1.25376 4.33119 0
M  V30 5420 C 516.792 1.60824 4.5353 0
M  V30 5421 C 519.144 2.10987 4.76586 0
M  V30 5422 C 516.472 2.81676 5.14661 0
M  V30 5423 C 518.824 3.31068 5.39052 0
M  V30 5424 C 517.488 3.66794 5.5769 0
M  V30 5425 H 516.758 0.0265007 0.740526 0
M  V30 5426 H 519.405 0.762935 1.75646 0
M  V30 5427 H 517.71 -0.813791 3.83255 0
M  V30 5428 H 519.407 -0.453078 3.98432 0
M  V30 5429 H 515.997 0.967808 4.1753 0
M  V30 5430 H 520.181 1.84904 4.60569 0
M  V30 5431 H 515.437 3.0949 5.27282 0
M  V30 5432 H 519.611 3.97672 5.71691 0
M  V30 5433 H 517.238 4.60529 6.04828 0
M  V30 5434 N 518.813 -1.54241 0.323641 0
M  V30 5435 C 520.09 -1.92741 -0.333181 0
M  V30 5436 C 520.47 -1.25326 -1.69872 0
M  V30 5437 O 519.818 -0.396991 -2.25025 0
M  V30 5438 C 520.028 -3.46399 -0.425322 0
M  V30 5439 C 521.376 -4.19029 -0.68557 0
M  V30 5440 O 522.4 -3.52555 -0.50824 0
M  V30 5441 O 521.259 -5.36751 -1.02767 0
M  V30 5442 H 518.353 -0.804811 -0.190286 0
M  V30 5443 H 520.899 -1.65542 0.373361 0
M  V30 5444 H 519.671 -3.87643 0.533737 0
M  V30 5445 H 519.294 -3.79704 -1.17944 0
M  V30 5446 N 520.291 -0.0518155 -1.57515 0
M  V30 5447 C 521.254 0.907547 -2.10467 0
M  V30 5448 C 522.254 1.23947 -1.02439 0
M  V30 5449 O 523.444 1.17604 -1.2851 0
M  V30 5450 C 520.576 2.21723 -2.58944 0
M  V30 5451 H 521.769 0.44851 -2.96527 0
M  V30 5452 H 519.322 0.196598 -1.55059 0
M  V30 5453 H 520.057 2.72206 -1.76279 0
M  V30 5454 H 519.842 1.98935 -3.37886 0
M  V30 5455 H 521.332 2.90441 -3.00056 0
M  V30 5456 N 521.769 1.56035 0.221574 0
M  V30 5457 C 522.999 1.82864 0.961468 0
M  V30 5458 C 523.407 0.628703 1.78449 0
M  V30 5459 O 522.75 -0.412109 1.79018 0
M  V30 5460 C 522.812 3.03425 1.92804 0
M  V30 5461 C 522.476 4.38429 1.28954 0
M  V30 5462 C 523.473 5.15441 0.679431 0
M  V30 5463 C 521.158 4.85151 1.30131 0
M  V30 5464 C 523.152 6.37337 0.0896148 0
M  V30 5465 C 520.839 6.06989 0.707651 0
M  V30 5466 C 521.837 6.82923 0.102855 0
M  V30 5467 O 521.525 8.02456 -0.48157 0
M  V30 5468 H 521.257 0.611883 0.28736 0
M  V30 5469 H 523.811 2.0397 0.241932 0
M  V30 5470 H 522.041 2.78138 2.68656 0
M  V30 5471 H 523.73 3.17127 2.53348 0
M  V30 5472 H 524.496 4.80452 0.662661 0
M  V30 5473 H 520.375 4.26021 1.76145 0
M  V30 5474 H 523.919 6.96547 -0.383069 0
M  V30 5475 H 519.816 6.41451 0.721834 0
M  V30 5476 H 520.584 8.17636 -0.375887 0
M  V30 5477 N 523.247 -0.488276 1.49845 0
M  V30 5478 C 524.487 -1.2516 1.61599 0
M  V30 5479 C 524.851 -1.89615 0.301706 0
M  V30 5480 O 526.052 -2.67182 0.29453 0
M  V30 5481 C 524.323 -2.2805 2.75187 0
M  V30 5482 S 525.882 -3.13552 3.0697 0
M  V30 5483 H 522.7 -0.425178 0.569864 0
M  V30 5484 H 525.302 -0.551545 1.87559 0
M  V30 5485 H 524.006 -1.7925 3.69185 0
M  V30 5486 H 523.537 -3.02708 2.5126 0
M  V30 5487 H 525.552 -4.28927 2.49471 0
M  V30 5488 N 524.725 -1.39134 -0.740242 0
M  V30 5489 C 525.972 -1.36071 -1.49969 0
M  V30 5490 C 526.3 0.0450245 -1.94448 0
M  V30 5491 O 525.555 1.02482 -1.66721 0
M  V30 5492 C 525.854 -2.27457 -2.75678 0
M  V30 5493 C 525.52 -3.75185 -2.50094 0
M  V30 5494 C 524.182 -4.15439 -2.42825 0
M  V30 5495 C 526.534 -4.68643 -2.28086 0
M  V30 5496 C 523.862 -5.4722 -2.11584 0
M  V30 5497 C 526.214 -6.00695 -1.98363 0
M  V30 5498 C 524.878 -6.40018 -1.8956 0
M  V30 5499 H 524.148 -0.497921 -0.548777 0
M  V30 5500 H 526.795 -1.71599 -0.85007 0
M  V30 5501 H 525.1 -1.8503 -3.45356 0
M  V30 5502 H 526.797 -2.22384 -3.33686 0
M  V30 5503 H 523.387 -3.43279 -2.56627 0
M  V30 5504 H 527.571 -4.3838 -2.32672 0
M  V30 5505 H 522.827 -5.76615 -2.03287 0
M  V30 5506 H 527.001 -6.72644 -1.80341 0
M  V30 5507 H 524.628 -7.42051 -1.65117 0
M  V30 5508 N 526.204 0.969867 -1.24223 0
M  V30 5509 C 527.62 1.23809 -1.00716 0
M  V30 5510 C 527.82 1.99469 0.285358 0
M  V30 5511 O 526.876 2.31764 1.00207 0
M  V30 5512 C 528.189 2.02734 -2.2208 0
M  V30 5513 C 529.737 2.15834 -2.26681 0
M  V30 5514 C 530.212 2.98154 -3.47661 0
M  V30 5515 N 531.703 3.05737 -3.47964 0
M  V30 5516 C 532.438 3.69785 -4.38231 0
M  V30 5517 N 531.934 4.35569 -5.3875 0
M  V30 5518 N 533.727 3.66775 -4.25949 0
M  V30 5519 H 525.878 0.463294 -2.07286 0
M  V30 5520 H 528.141 0.267348 -0.909521 0
M  V30 5521 H 527.847 1.54524 -3.15935 0
M  V30 5522 H 527.721 3.0347 -2.24021 0
M  V30 5523 H 530.108 2.63248 -1.33359 0
M  V30 5524 H 530.189 1.14453 -2.28767 0
M  V30 5525 H 529.833 2.51435 -4.41297 0
M  V30 5526 H 529.763 3.99729 -3.42818 0
M  V30 5527 H 532.254 2.58941 -2.75242 0
M  V30 5528 H 532.567 4.82251 -6.03866 0
M  V30 5529 H 530.912 4.34244 -5.42639 0
M  V30 5530 H 534.103 3.14558 -3.46657 0
M  V30 5531 H 534.276 4.16407 -4.96497 0
M  V30 5532 N 527.682 1.05563 1.17022 0
M  V30 5533 C 528.645 0.664098 2.19368 0
M  V30 5534 C 529.645 -0.286358 1.5823 0
M  V30 5535 O 530.835 -0.069728 1.7406 0
M  V30 5536 C 527.967 -0.0239932 3.40892 0
M  V30 5537 H 529.16 1.57 2.55521 0
M  V30 5538 H 526.713 0.849964 1.31169 0
M  V30 5539 H 527.448 -0.942988 3.10287 0
M  V30 5540 H 527.233 0.659351 3.86516 0
M  V30 5541 H 528.723 -0.283909 4.16634 0
M  V30 5542 N 529.16 -1.33526 0.837174 0
M  V30 5543 C 530.11 -2.2672 0.241269 0
M  V30 5544 C 531.094 -1.49183 -0.602756 0
M  V30 5545 O 532.286 -1.71052 -0.455002 0
M  V30 5546 C 529.415 -3.38294 -0.584125 0
M  V30 5547 C 528.501 -4.23231 0.271315 0
M  V30 5548 N 528.892 -4.87473 1.34922 0
M  V30 5549 C 527.19 -4.45962 0.0580589 0
M  V30 5550 C 527.891 -5.50685 1.87405 0
M  V30 5551 N 526.867 -5.30732 1.17578 0
M  V30 5552 H 530.669 -2.73903 1.06558 0
M  V30 5553 H 528.183 -1.47411 0.68145 0
M  V30 5554 H 530.18 -4.04044 -1.02731 0
M  V30 5555 H 528.84 -2.9266 -1.40643 0
M  V30 5556 H 529.851 -4.88077 1.7321 0
M  V30 5557 H 526.528 -4.11052 -0.730938 0
M  V30 5558 H 527.918 -6.11845 2.77661 0
M  V30 5559 N 530.638 -0.59345 -1.46 0
M  V30 5560 C 531.588 0.154751 -2.27474 0
M  V30 5561 C 532.572 0.851849 -1.365 0
M  V30 5562 O 533.764 0.744171 -1.60596 0
M  V30 5563 C 530.893 1.16079 -3.2308 0
M  V30 5564 C 529.979 0.465256 -4.2154 0
M  V30 5565 N 530.37 -0.485197 -5.03467 0
M  V30 5566 C 528.668 0.714634 -4.40237 0
M  V30 5567 C 529.369 -0.892709 -5.74809 0
M  V30 5568 N 528.345 -0.239511 -5.43072 0
M  V30 5569 H 532.147 -0.57546 -2.88211 0
M  V30 5570 H 529.661 -0.416046 -1.5698 0
M  V30 5571 H 531.658 1.71108 -3.80168 0
M  V30 5572 H 530.318 1.89171 -2.63903 0
M  V30 5573 H 531.329 -0.861258 -5.10689 0
M  V30 5574 H 528.006 1.43131 -3.92199 0
M  V30 5575 H 529.396 -1.67581 -6.50666 0
M  V30 5576 N 532.116 1.54067 -0.331816 0
M  V30 5577 C 533.527 1.86059 0.15454 0
M  V30 5578 C 533.878 1.25331 1.50952 0
M  V30 5579 O 533.003 0.562441 2.08963 0
M  V30 5580 C 533.598 3.37581 0.287192 0
M  V30 5581 C 532.157 3.69493 0.717773 0
M  V30 5582 C 531.304 2.76863 -0.155569 0
M  V30 5583 H 534.255 1.48797 -0.55182 0
M  V30 5584 H 534.276 3.63744 1.11671 0
M  V30 5585 H 533.788 3.81751 -0.699131 0
M  V30 5586 H 531.889 3.3086 1.71354 0
M  V30 5587 H 532.002 4.76315 0.5158 0
M  V30 5588 H 530.366 2.51995 0.370213 0
M  V30 5589 H 531.149 3.23861 -1.13881 0
M  V30 5590 N 533.594 0.0601682 1.57485 0
M  V30 5591 C 534.822 -0.620937 1.97363 0
M  V30 5592 C 535.237 -1.63846 0.938082 0
M  V30 5593 O 534.594 -1.82339 -0.0766578 0
M  V30 5594 C 534.645 -1.29987 3.37321 0
M  V30 5595 O 534.366 -0.323081 4.36907 0
M  V30 5596 C 535.867 -2.06989 3.92008 0
M  V30 5597 H 533.087 -0.169135 0.649334 0
M  V30 5598 H 535.631 0.129132 2.04092 0
M  V30 5599 H 533.786 -2.0011 3.31715 0
M  V30 5600 H 534.2 -0.808754 5.18227 0
M  V30 5601 H 535.674 -2.49901 4.92192 0
M  V30 5602 H 536.151 -2.92173 3.2792 0
M  V30 5603 H 536.757 -1.41757 4.0098 0
M  V30 5604 N 535.072 -1.5615 -0.213296 0
M  V30 5605 C 536.297 -1.83986 -0.957282 0
M  V30 5606 C 536.722 -0.641526 -1.76822 0
M  V30 5607 O 536.08 0.409722 -1.7661 0
M  V30 5608 C 536.128 -3.09889 -1.84393 0
M  V30 5609 O 535.232 -2.89163 -2.94038 0
M  V30 5610 H 534.573 -0.606357 -0.270605 0
M  V30 5611 H 537.103 -2.03369 -0.224111 0
M  V30 5612 H 537.113 -3.40209 -2.25215 0
M  V30 5613 H 535.788 -3.96735 -1.24795 0
M  V30 5614 H 534.365 -2.70097 -2.57103 0
M  V30 5615 N 536.55 0.480323 -1.50102 0
M  V30 5616 C 537.482 1.59669 -1.64433 0
M  V30 5617 C 538.495 1.54063 -0.52615 0
M  V30 5618 O 539.684 1.59619 -0.798992 0
M  V30 5619 C 536.784 2.98527 -1.6042 0
M  V30 5620 C 535.957 3.291 -2.88117 0
M  V30 5621 C 535.016 4.47468 -2.76873 0
M  V30 5622 O 534.042 4.4823 -3.50825 0
M  V30 5623 N 535.244 5.48593 -1.89806 0
M  V30 5624 H 538.009 1.47795 -2.60723 0
M  V30 5625 H 535.57 0.66858 -1.4745 0
M  V30 5626 H 537.562 3.75666 -1.50523 0
M  V30 5627 H 536.132 3.04218 -0.719036 0
M  V30 5628 H 535.352 2.40662 -3.12211 0
M  V30 5629 H 536.64 3.46334 -3.72734 0
M  V30 5630 H 536.038 5.50791 -1.2902 0
M  V30 5631 H 534.595 6.24752 -1.85819 0
M  V30 5632 N 538.028 1.39524 0.732853 0
M  V30 5633 C 538.978 1.34905 1.83806 0
M  V30 5634 C 539.962 0.229546 1.59254 0
M  V30 5635 O 541.154 0.467255 1.70721 0
M  V30 5636 C 538.283 1.19699 3.21756 0
M  V30 5637 C 537.369 2.36359 3.5213 0
M  V30 5638 N 537.76 3.61834 3.53426 0
M  V30 5639 C 536.058 2.29363 3.82503 0
M  V30 5640 C 536.759 4.38992 3.81655 0
M  V30 5641 N 535.735 3.68606 3.99538 0
M  V30 5642 H 539.537 2.29882 1.83116 0
M  V30 5643 H 537.051 1.33051 0.931194 0
M  V30 5644 H 539.048 1.14472 4.00876 0
M  V30 5645 H 537.708 0.256739 3.23683 0
M  V30 5646 H 538.719 3.95228 3.34686 0
M  V30 5647 H 535.396 1.43612 3.92023 0
M  V30 5648 H 536.786 5.47763 3.89108 0
M  V30 5649 N 539.506 -0.963266 1.24736 0
M  V30 5650 C 540.754 -1.70343 1.08755 0
M  V30 5651 C 541.075 -1.91387 -0.373619 0
M  V30 5652 O 540.345 -1.4948 -1.2662 0
M  V30 5653 H 538.925 -0.631224 0.399456 0
M  V30 5654 H 541.587 -1.15859 1.56725 0
M  V30 5655 H 540.683 -2.68616 1.58909 0
M  V30 5656 N 540.985 -1.06182 -1.16461 0
M  V30 5657 C 542.262 -0.691364 -1.82974 0
M  V30 5658 C 542.642 0.827377 -1.9421 0
M  V30 5659 O 541.99 1.73723 -1.48434 0
M  V30 5660 C 542.2 -1.39199 -3.20038 0
M  V30 5661 C 543.548 -1.53647 -3.95825 0
M  V30 5662 O 544.572 -1.35181 -3.29552 0
M  V30 5663 O 543.431 -1.83932 -5.14618 0
M  V30 5664 H 540.525 -0.244605 -0.789998 0
M  V30 5665 H 543.071 -1.16203 -1.23673 0
M  V30 5666 H 541.843 -2.42766 -3.06888 0
M  V30 5667 H 541.466 -0.911335 -3.87015 0
M  V30 5668 N 542.463 1.3308 -0.844243 0
M  V30 5669 C 543.393 2.3161 -0.296493 0
M  V30 5670 C 544.374 1.59215 0.598707 0
M  V30 5671 O 545.559 1.87077 0.521134 0
M  V30 5672 C 542.689 3.43313 0.524762 0
M  V30 5673 C 541.643 4.27115 -0.275106 0
M  V30 5674 C 540.969 5.30483 0.670236 0
M  V30 5675 C 542.269 5.00443 -1.49514 0
M  V30 5676 H 543.963 2.77672 -1.11976 0
M  V30 5677 H 541.509 1.33496 -0.539899 0
M  V30 5678 H 543.462 4.11273 0.918298 0
M  V30 5679 H 542.186 2.95952 1.3813 0
M  V30 5680 H 540.845 3.60787 -0.650267 0
M  V30 5681 H 540.493 4.79379 1.52332 0
M  V30 5682 H 540.193 5.87435 0.139123 0
M  V30 5683 H 541.717 6.01308 1.06117 0
M  V30 5684 H 543.131 5.61141 -1.17447 0
M  V30 5685 H 541.528 5.67071 -1.96343 0
M  V30 5686 H 542.598 4.28906 -2.26202 0
M  V30 5687 N 543.941 0.601185 1.45683 0
M  V30 5688 C 544.851 -0.123395 2.34275 0
M  V30 5689 C 545.867 -0.86702 1.5086 0
M  V30 5690 O 547.043 -0.826049 1.8368 0
M  V30 5691 C 544.108 -1.11237 3.2837 0
M  V30 5692 C 543.169 -0.371405 4.2769 0
M  V30 5693 C 542.402 -1.31327 5.1729 0
M  V30 5694 O 542.625 -2.55078 5.10188 0
M  V30 5695 O 541.559 -0.813811 5.96373 0
M  V30 5696 H 545.385 0.604483 2.97623 0
M  V30 5697 H 542.97 0.361477 1.44961 0
M  V30 5698 H 544.852 -1.68214 3.8637 0
M  V30 5699 H 543.527 -1.82139 2.67595 0
M  V30 5700 H 542.434 0.24067 3.73325 0
M  V30 5701 H 543.767 0.296998 4.91303 0
M  V30 5702 N 545.419 -1.53889 0.339982 0
M  V30 5703 C 546.647 -2.05271 -0.259114 0
M  V30 5704 C 547.062 -1.21517 -1.44496 0
M  V30 5705 O 546.419 -0.24966 -1.80784 0
M  V30 5706 C 546.47 -3.55092 -0.677634 0
M  V30 5707 O 546.191 -4.35667 0.461051 0
M  V30 5708 C 547.692 -4.22631 -1.33782 0
M  V30 5709 H 544.912 -0.669085 -0.0506566 0
M  V30 5710 H 547.456 -1.9852 0.490935 0
M  V30 5711 H 545.611 -3.62077 -1.37763 0
M  V30 5712 H 546.025 -5.24343 0.128144 0
M  V30 5713 H 547.499 -5.28861 -1.58145 0
M  V30 5714 H 547.976 -3.74758 -2.29027 0
M  V30 5715 H 548.582 -4.19829 -0.679957 0
M  V30 5716 N 546.897 -0.0685191 -1.57451 0
M  V30 5717 C 548.308 0.464634 -1.80826 0
M  V30 5718 C 548.659 1.69847 -0.982169 0
M  V30 5719 O 547.784 2.15439 -0.203734 0
M  V30 5720 C 548.379 0.849721 -3.27971 0
M  V30 5721 C 546.938 1.32776 -3.52204 0
M  V30 5722 C 546.085 0.311332 -2.75547 0
M  V30 5723 H 549.036 -0.294248 -1.55948 0
M  V30 5724 H 549.057 1.71138 -3.39841 0
M  V30 5725 H 548.569 -0.0484736 -3.8807 0
M  V30 5726 H 546.67 2.24456 -2.97406 0
M  V30 5727 H 546.783 1.30794 -4.60901 0
M  V30 5728 H 545.147 0.787915 -2.42206 0
M  V30 5729 H 545.93 -0.579078 -3.38381 0
M  V30 5730 N 548.375 1.56261 0.205012 0
M  V30 5731 C 549.6 1.84491 0.947512 0
M  V30 5732 C 550.025 0.650894 1.76479 0
M  V30 5733 O 549.383 -0.40035 1.76824 0
M  V30 5734 C 549.431 3.10863 1.82747 0
M  V30 5735 O 548.535 2.90719 2.925 0
M  V30 5736 H 547.876 0.607783 0.267386 0
M  V30 5737 H 550.406 2.03485 0.213323 0
M  V30 5738 H 550.416 3.41399 2.23407 0
M  V30 5739 H 549.091 3.97392 1.2269 0
M  V30 5740 H 547.668 2.71457 2.55667 0
M  V30 5741 N 549.853 -0.472356 1.50355 0
M  V30 5742 C 551.078 -1.25251 1.65309 0
M  V30 5743 C 551.503 -1.85081 0.335643 0
M  V30 5744 O 550.861 -1.67227 -0.700335 0
M  V30 5745 C 550.909 -2.3379 2.74544 0
M  V30 5746 O 550.013 -3.38401 2.35709 0
M  V30 5747 H 549.354 -0.368539 0.552336 0
M  V30 5748 H 551.884 -0.562271 1.96722 0
M  V30 5749 H 551.894 -2.79121 2.97583 0
M  V30 5750 H 550.569 -1.89614 3.70161 0
M  V30 5751 H 549.146 -2.9879 2.23112 0
M  V30 5752 N 551.331 -1.39911 -0.725443 0
M  V30 5753 C 552.579 -1.37382 -1.48224 0
M  V30 5754 C 552.9 0.0264107 -1.94982 0
M  V30 5755 O 552.17 0.979408 -1.6966 0
M  V30 5756 H 550.75 -0.505596 -0.549892 0
M  V30 5757 H 553.412 -1.7487 -0.860608 0
M  V30 5758 H 552.508 -2.04254 -2.3598 0
M  V30 5759 N 552.809 0.956637 -1.25245 0
M  V30 5760 C 554.086 1.67716 -1.00651 0
M  V30 5761 C 554.466 2.0585 0.467866 0
M  V30 5762 O 553.814 1.77029 1.44475 0
M  V30 5763 C 554.024 2.90093 -1.94028 0
M  V30 5764 C 555.372 3.6209 -2.21756 0
M  V30 5765 O 556.396 3.00171 -1.9177 0
M  V30 5766 O 555.255 4.7358 -2.72735 0
M  V30 5767 H 552.349 0.733731 -0.381533 0
M  V30 5768 H 554.895 1.00974 -1.3639 0
M  V30 5769 H 553.667 2.58689 -2.93591 0
M  V30 5770 H 553.29 3.64566 -1.58674 0
M  V30 5771 N 554.287 1.06798 1.15896 0
M  V30 5772 C 555.197 0.694564 2.24083 0
M  V30 5773 C 556.213 -0.291687 1.71538 0
M  V30 5774 O 557.389 -0.139723 2.00915 0
M  V30 5775 C 554.454 0.0921014 3.46578 0
M  V30 5776 C 553.515 1.13087 4.14137 0
M  V30 5777 C 552.748 0.557064 5.30785 0
M  V30 5778 O 552.971 -0.628623 5.66925 0
M  V30 5779 O 551.905 1.29924 5.8771 0
M  V30 5780 H 555.731 1.59663 2.58344 0
M  V30 5781 H 553.316 0.840575 1.2351 0
M  V30 5782 H 555.198 -0.241884 4.20705 0
M  V30 5783 H 553.873 -0.78337 3.14078 0
M  V30 5784 H 552.78 1.51712 3.41957 0
M  V30 5785 H 554.113 1.97805 4.50704 0
M  V30 5786 N 555.766 -1.3263 0.851289 0
M  V30 5787 C 557.014 -1.96978 0.452128 0
M  V30 5788 C 557.335 -1.67715 -0.99482 0
M  V30 5789 O 556.605 -0.98259 -1.69476 0
M  V30 5790 H 555.185 -0.72873 0.164202 0
M  V30 5791 H 557.847 -1.61774 1.08698 0
M  V30 5792 H 556.943 -3.06387 0.594407 0
M  V30 5793 N 557.244 -0.608902 -1.45362 0
M  V30 5794 C 558.154 0.110969 -2.34337 0
M  V30 5795 C 559.17 0.859007 -1.51318 0
M  V30 5796 O 560.346 0.816296 -1.84116 0
M  V30 5797 C 557.411 1.09494 -3.28956 0
M  V30 5798 C 556.472 0.348718 -4.27881 0
M  V30 5799 C 555.705 1.28582 -5.17979 0
M  V30 5800 O 555.928 2.52369 -5.11533 0
M  V30 5801 O 554.862 0.782172 -5.96796 0
M  V30 5802 H 558.688 -0.620258 -2.97299 0
M  V30 5803 H 556.273 -0.36916 -1.44767 0
M  V30 5804 H 558.155 1.66163 -3.87257 0
M  V30 5805 H 556.83 1.80717 -2.68557 0
M  V30 5806 H 555.737 -0.260465 -3.73192 0
M  V30 5807 H 557.07 -0.323049 -4.91139 0
M  V30 5808 N 558.722 1.53707 -0.348139 0
M  V30 5809 C 559.971 2.0017 0.247992 0
M  V30 5810 C 560.284 1.23983 1.51286 0
M  V30 5811 O 561.49 1.60946 2.18652 0
M  V30 5812 C 559.946 3.56515 0.492459 0
M  V30 5813 C 559.554 4.41562 -0.756777 0
M  V30 5814 C 561.298 4.11381 1.0472 0
M  V30 5815 C 559.205 5.89426 -0.482856 0
M  V30 5816 H 558.135 0.747806 0.0964452 0
M  V30 5817 H 560.786 1.77532 -0.464179 0
M  V30 5818 H 559.168 3.75236 1.26545 0
M  V30 5819 H 560.342 4.34615 -1.53122 0
M  V30 5820 H 558.657 3.97711 -1.23348 0
M  V30 5821 H 561.254 5.19468 1.26717 0
M  V30 5822 H 561.597 3.64885 2.00411 0
M  V30 5823 H 562.13 3.96389 0.334801 0
M  V30 5824 H 558.869 6.40164 -1.40962 0
M  V30 5825 H 558.389 5.99264 0.253416 0
M  V30 5826 H 560.068 6.4692 -0.101816 0
M  V30 5827 N 560.2 0.0768682 1.57412 0
M  V30 5828 C 561.13 -0.886026 2.16037 0
M  V30 5829 C 562.111 -1.30691 1.08876 0
M  V30 5830 O 563.296 -1.37705 1.36934 0
M  V30 5831 C 560.426 -2.1518 2.72608 0
M  V30 5832 C 559.38 -1.87015 3.8498 0
M  V30 5833 C 558.706 -3.20266 4.28175 0
M  V30 5834 C 560.006 -1.17143 5.08994 0
M  V30 5835 H 561.7 -0.397642 2.96748 0
M  V30 5836 H 559.246 -0.189823 1.42743 0
M  V30 5837 H 561.199 -2.82962 3.12266 0
M  V30 5838 H 559.923 -2.66269 1.89125 0
M  V30 5839 H 558.582 -1.21636 3.45833 0
M  V30 5840 H 558.23 -3.69207 3.41607 0
M  V30 5841 H 557.93 -3.0221 5.03927 0
M  V30 5842 H 559.454 -3.89237 4.70454 0
M  V30 5843 H 560.868 -1.75003 5.45937 0
M  V30 5844 H 559.265 -1.09328 5.90057 0
M  V30 5845 H 560.335 -0.151295 4.84664 0
M  V30 5846 N 561.678 -1.56367 -0.196722 0
M  V30 5847 C 562.903 -1.84991 -0.937714 0
M  V30 5848 C 563.328 -0.660244 -1.76132 0
M  V30 5849 O 562.686 0.390967 -1.77034 0
M  V30 5850 C 562.734 -3.11828 -1.81096 0
M  V30 5851 O 561.838 -2.92266 -2.90955 0
M  V30 5852 H 561.179 -0.609193 -0.264159 0
M  V30 5853 H 563.709 -2.03595 -0.202529 0
M  V30 5854 H 563.719 -3.42579 -2.21594 0
M  V30 5855 H 562.394 -3.98037 -1.2058 0
M  V30 5856 H 560.971 -2.72809 -2.54224 0
M  V30 5857 N 563.156 0.464375 -1.50603 0
M  V30 5858 C 564.119 1.54393 -1.69397 0
M  V30 5859 C 565.119 1.50566 -0.564504 0
M  V30 5860 O 566.309 1.53066 -0.831645 0
M  V30 5861 C 563.441 2.9401 -1.72543 0
M  V30 5862 H 564.634 1.39044 -2.65719 0
M  V30 5863 H 562.187 0.69122 -1.40185 0
M  V30 5864 H 562.922 3.14795 -0.77938 0
M  V30 5865 H 562.707 2.98195 -2.54602 0
M  V30 5866 H 564.197 3.72375 -1.89015 0
M  V30 5867 N 564.634 1.40294 0.718013 0
M  V30 5868 C 565.544 1.42678 1.86226 0
M  V30 5869 C 566.56 0.319655 1.71039 0
M  V30 5870 O 567.736 0.563852 1.93346 0
M  V30 5871 C 564.801 1.2852 3.21999 0
M  V30 5872 C 563.862 2.49354 3.49458 0
M  V30 5873 C 563.095 2.35863 4.78753 0
M  V30 5874 O 563.318 1.37114 5.53675 0
M  V30 5875 O 562.252 3.25189 5.06494 0
M  V30 5876 H 566.078 2.39167 1.87171 0
M  V30 5877 H 563.663 1.2159 0.868112 0
M  V30 5878 H 565.545 1.22824 4.03103 0
M  V30 5879 H 564.22 0.351359 3.21787 0
M  V30 5880 H 563.127 2.60628 2.68373 0
M  V30 5881 H 564.46 3.41491 3.54464 0
M  V30 5882 N 566.112 -0.949982 1.2575 0
M  V30 5883 C 567.36 -1.6918 1.10555 0
M  V30 5884 C 567.681 -1.91773 -0.353298 0
M  V30 5885 O 566.951 -1.50814 -1.25027 0
M  V30 5886 H 565.531 -0.626952 0.406129 0
M  V30 5887 H 568.193 -1.1419 1.57945 0
M  V30 5888 H 567.289 -2.66915 1.61749 0
M  V30 5889 N 567.59 -1.07411 -1.15328 0
M  V30 5890 C 569.001 -0.820261 -1.67716 0
M  V30 5891 C 569.352 0.654539 -1.8496 0
M  V30 5892 O 568.477 1.50664 -1.55337 0
M  V30 5893 C 569.072 -1.48242 -3.04647 0
M  V30 5894 C 567.631 -1.27606 -3.5411 0
M  V30 5895 C 566.778 -1.5517 -2.29821 0
M  V30 5896 H 569.729 -1.23608 -0.995332 0
M  V30 5897 H 569.75 -0.903984 -3.69606 0
M  V30 5898 H 569.262 -2.55578 -2.92064 0
M  V30 5899 H 567.363 -0.222948 -3.71932 0
M  V30 5900 H 567.476 -1.99667 -4.35511 0
M  V30 5901 H 565.84 -0.972747 -2.35393 0
M  V30 5902 H 566.623 -2.63689 -2.19824 0
M  V30 5903 N 569.068 1.32177 -0.85831 0
M  V30 5904 C 570.479 1.79381 -0.517621 0
M  V30 5905 C 570.83 1.70841 0.964769 0
M  V30 5906 O 569.955 1.26917 1.75274 0
M  V30 5907 C 570.55 3.25706 -0.932801 0
M  V30 5908 C 569.109 3.70851 -0.643953 0
M  V30 5909 C 568.256 2.53208 -1.13054 0
M  V30 5910 H 571.207 1.19424 -1.04516 0
M  V30 5911 H 571.228 3.79673 -0.250674 0
M  V30 5912 H 570.74 3.31889 -2.01174 0
M  V30 5913 H 568.841 3.70178 0.424112 0
M  V30 5914 H 568.954 4.63495 -1.21281 0
M  V30 5915 H 567.318 2.48676 -0.550679 0
M  V30 5916 H 568.101 2.62143 -2.21666 0
M  V30 5917 N 570.547 0.616602 1.45037 0
M  V30 5918 C 571.793 0.115501 2.02471 0
M  V30 5919 C 572.126 -1.25406 1.4828 0
M  V30 5920 O 571.401 -1.82922 0.661051 0
M  V30 5921 C 571.684 0.0863588 3.59996 0
M  V30 5922 C 571.537 1.48723 4.24501 0
M  V30 5923 C 572.856 -0.596762 4.36035 0
M  V30 5924 H 569.975 0.0434461 0.735718 0
M  V30 5925 H 572.617 0.7903 1.72784 0
M  V30 5926 H 570.767 -0.488277 3.85419 0
M  V30 5927 H 572.439 2.10964 4.10234 0
M  V30 5928 H 570.682 2.04534 3.82555 0
M  V30 5929 H 571.353 1.419 5.3345 0
M  V30 5930 H 573.829 -0.10824 4.15959 0
M  V30 5931 H 572.705 -0.586289 5.4576 0
M  V30 5932 H 572.966 -1.66451 4.09569 0
M  V30 5933 N 572.025 -1.5352 0.356285 0
M  V30 5934 C 573.441 -1.59599 0.00485267 0
M  V30 5935 C 573.641 -1.37179 -1.47595 0
M  V30 5936 O 572.697 -1.17234 -2.23635 0
M  V30 5937 C 574.01 -2.97277 0.452454 0
M  V30 5938 C 575.558 -3.10357 0.405881 0
M  V30 5939 C 576.033 -4.50432 0.829148 0
M  V30 5940 N 577.524 -4.5652 0.783838 0
M  V30 5941 C 578.259 -5.63077 1.08315 0
M  V30 5942 N 577.755 -6.77429 1.45126 0
M  V30 5943 N 579.548 -5.53014 1.00655 0
M  V30 5944 H 571.699 -1.66346 1.32071 0
M  V30 5945 H 573.962 -0.77971 0.539218 0
M  V30 5946 H 573.668 -3.18792 1.48542 0
M  V30 5947 H 573.542 -3.76836 -0.165762 0
M  V30 5948 H 575.929 -2.88558 -0.617934 0
M  V30 5949 H 576.01 -2.32828 1.05947 0
M  V30 5950 H 575.654 -4.72968 1.85103 0
M  V30 5951 H 575.584 -5.26378 0.152906 0
M  V30 5952 H 578.075 -3.74408 0.512513 0
M  V30 5953 H 578.388 -7.54669 1.66415 0
M  V30 5954 H 576.733 -6.78844 1.48983 0
M  V30 5955 H 579.924 -4.62557 0.718215 0
M  V30 5956 H 580.097 -6.35964 1.24315 0
M  V30 5957 N 573.503 -0.0852151 -1.57369 0
M  V30 5958 C 574.413 0.891712 -2.16992 0
M  V30 5959 C 575.429 1.3174 -1.13669 0
M  V30 5960 O 576.605 1.38735 -1.45995 0
M  V30 5961 C 573.67 2.13635 -2.73059 0
M  V30 5962 C 572.731 1.7658 -3.91303 0
M  V30 5963 C 571.964 2.95111 -4.44686 0
M  V30 5964 O 572.187 4.09539 -3.97032 0
M  V30 5965 O 571.121 2.74149 -5.35841 0
M  V30 5966 H 574.947 0.414477 -3.00858 0
M  V30 5967 H 572.532 0.138598 -1.48756 0
M  V30 5968 H 574.414 2.86595 -3.08935 0
M  V30 5969 H 573.089 2.6043 -1.92244 0
M  V30 5970 H 571.996 1.00831 -3.60255 0
M  V30 5971 H 573.329 1.34557 -4.7345 0
M  V30 5972 N 574.981 1.5647 0.188427 0
M  V30 5973 C 575.911 1.98101 1.23606 0
M  V30 5974 C 576.892 0.853961 1.47111 0
M  V30 5975 O 578.077 1.11879 1.58735 0
M  V30 5976 C 575.207 2.32624 2.57882 0
M  V30 5977 C 574.161 3.48129 2.48978 0
M  V30 5978 C 573.487 3.68347 3.87588 0
M  V30 5979 C 574.787 4.82112 2.00911 0
M  V30 5980 H 576.481 2.85864 0.890068 0
M  V30 5981 H 574.027 1.37532 0.426714 0
M  V30 5982 H 575.98 2.60343 3.3136 0
M  V30 5983 H 574.704 1.41751 2.94235 0
M  V30 5984 H 573.363 3.20511 1.77956 0
M  V30 5985 H 573.011 2.74793 4.21305 0
M  V30 5986 H 572.711 4.46055 3.82503 0
M  V30 5987 H 574.235 3.98449 4.62678 0
M  V30 5988 H 575.649 5.08819 2.64151 0
M  V30 5989 H 574.046 5.63337 2.06814 0
M  V30 5990 H 575.116 4.75249 0.96262 0
M  V30 5991 N 576.459 -0.456382 1.50847 0
M  V30 5992 C 577.369 -1.57805 1.73594 0
M  V30 5993 C 578.385 -1.62599 0.619476 0
M  V30 5994 O 579.561 -1.80195 0.899532 0
M  V30 5995 C 576.626 -2.93926 1.8387 0
M  V30 5996 C 575.687 -2.99402 3.07663 0
M  V30 5997 C 574.92 -4.29031 3.1744 0
M  V30 5998 O 575.143 -5.20358 2.33631 0
M  V30 5999 O 574.077 -4.40401 4.10281 0
M  V30 6000 H 577.903 -1.41531 2.68705 0
M  V30 6001 H 575.488 -0.637422 1.3512 0
M  V30 6002 H 577.37 -3.74747 1.92725 0
M  V30 6003 H 576.045 -3.10368 0.91944 0
M  V30 6004 H 574.952 -2.17606 3.043 0
M  V30 6005 H 576.285 -2.87901 3.99216 0
M  V30 6006 N 577.937 -1.40673 -0.710563 0
M  V30 6007 C 579.348 -1.34975 -1.28991 0
M  V30 6008 C 579.699 -0.0256272 -1.96183 0
M  V30 6009 O 578.824 0.876339 -1.97862 0
M  V30 6010 C 579.419 -2.44467 -2.34567 0
M  V30 6011 C 577.978 -2.42213 -2.88114 0
M  V30 6012 C 577.125 -2.25085 -1.61963 0
M  V30 6013 H 580.076 -1.50406 -0.506343 0
M  V30 6014 H 580.097 -2.12663 -3.15523 0
M  V30 6015 H 579.609 -3.40825 -1.85634 0
M  V30 6016 H 577.71 -1.49568 -3.41263 0
M  V30 6017 H 577.823 -3.37983 -3.39565 0
M  V30 6018 H 576.187 -1.72691 -1.87216 0
M  V30 6019 H 576.97 -3.23449 -1.15047 0
M  V30 6020 N 579.415 0.9433 -1.26252 0
M  V30 6021 C 580.643 1.72367 -1.14443 0
M  V30 6022 C 581.058 1.86392 0.300572 0
M  V30 6023 O 580.415 1.36978 1.20596 0
M  V30 6024 C 580.466 3.13155 -1.806 0
M  V30 6025 O 580.187 2.99803 -3.19452 0
M  V30 6026 C 581.688 4.07417 -1.74717 0
M  V30 6027 H 578.908 0.539758 -0.398626 0
M  V30 6028 H 581.452 1.18268 -1.66832 0
M  V30 6029 H 579.607 3.64162 -1.32154 0
M  V30 6030 H 580.021 3.88697 -3.52158 0
M  V30 6031 H 581.495 5.03773 -2.25647 0
M  V30 6032 H 581.972 4.3337 -0.713244 0
M  V30 6033 H 582.578 3.6233 -2.22704 0
M  V30 6034 N 580.893 1.08022 1.14757 0
M  V30 6035 C 581.823 0.728248 2.21853 0
M  V30 6036 C 582.804 -0.287486 1.67653 0
M  V30 6037 O 583.989 -0.158727 1.9355 0
M  V30 6038 C 581.119 0.132549 3.47047 0
M  V30 6039 C 580.073 1.07619 4.14249 0
M  V30 6040 C 579.399 0.342907 5.33599 0
M  V30 6041 C 580.699 2.41268 4.63235 0
M  V30 6042 H 582.393 1.62365 2.51551 0
M  V30 6043 H 579.939 0.782125 1.20908 0
M  V30 6044 H 581.892 -0.125665 4.21213 0
M  V30 6045 H 580.616 -0.797971 3.16702 0
M  V30 6046 H 579.275 1.31944 3.42033 0
M  V30 6047 H 578.923 -0.59129 4.99513 0
M  V30 6048 H 578.623 0.971955 5.79506 0
M  V30 6049 H 580.147 0.0926538 6.1053 0
M  V30 6050 H 581.561 2.21232 5.28894 0
M  V30 6051 H 579.958 2.9983 5.19829 0
M  V30 6052 H 581.028 3.03079 3.78512 0
M  V30 6053 N 582.371 -1.3172 0.865308 0
M  V30 6054 C 583.281 -2.32394 0.320935 0
M  V30 6055 C 584.297 -1.64511 -0.566746 0
M  V30 6056 O 585.473 -1.95969 -0.464575 0
M  V30 6057 C 582.538 -3.43462 -0.472701 0
M  V30 6058 C 581.599 -4.27015 0.442385 0
M  V30 6059 C 580.832 -5.32779 -0.313469 0
M  V30 6060 O 581.055 -5.49158 -1.54214 0
M  V30 6061 O 579.989 -6.01015 0.326257 0
M  V30 6062 H 583.815 -2.80868 1.15528 0
M  V30 6063 H 581.4 -1.35535 0.628545 0
M  V30 6064 H 583.282 -4.11172 -0.922781 0
M  V30 6065 H 581.957 -2.97159 -1.28367 0
M  V30 6066 H 580.864 -3.62075 0.940866 0
M  V30 6067 H 582.197 -4.76871 1.21882 0
M  V30 6068 N 583.85 -0.624285 -1.44708 0
M  V30 6069 C 584.76 0.0861083 -2.34442 0
M  V30 6070 C 585.776 0.84291 -1.5222 0
M  V30 6071 O 586.952 0.796723 -1.84971 0
M  V30 6072 C 584.017 1.05999 -3.30099 0
M  V30 6073 C 583.077 0.303316 -4.28227 0
M  V30 6074 C 582.311 1.23081 -5.19314 0
M  V30 6075 O 582.534 2.46929 -5.14181 0
M  V30 6076 O 581.468 0.71883 -5.97592 0
M  V30 6077 H 585.293 -0.651756 -2.96624 0
M  V30 6078 H 582.879 -0.384493 -1.44368 0
M  V30 6079 H 584.76 1.62046 -3.88997 0
M  V30 6080 H 583.436 1.77859 -2.70459 0
M  V30 6081 H 582.343 -0.300033 -3.72895 0
M  V30 6082 H 583.676 -0.375123 -4.90768 0
M  V30 6083 N 585.328 1.53329 -0.364422 0
M  V30 6084 C 586.238 2.29414 0.490552 0
M  V30 6085 C 587.254 1.35335 1.09363 0
M  V30 6086 O 588.43 1.68391 1.10483 0
M  V30 6087 C 585.495 3.06772 1.61529 0
M  V30 6088 C 584.556 4.16516 1.03986 0
M  V30 6089 C 583.789 4.90176 2.111 0
M  V30 6090 O 584.012 4.63687 3.32191 0
M  V30 6091 O 582.946 5.76134 1.74222 0
M  V30 6092 H 586.772 3.03428 -0.12856 0
M  V30 6093 H 584.357 1.48843 -0.128837 0
M  V30 6094 H 586.239 3.55082 2.26924 0
M  V30 6095 H 584.914 2.35596 2.21983 0
M  V30 6096 H 583.821 3.7246 0.349856 0
M  V30 6097 H 585.154 4.89855 0.4799 0
M  V30 6098 N 586.806 0.0935595 1.57322 0
M  V30 6099 C 587.716 -0.880192 2.17462 0
M  V30 6100 C 588.732 -1.31135 1.14366 0
M  V30 6101 O 589.908 -1.37958 1.46729 0
M  V30 6102 C 586.973 -2.12184 2.74188 0
M  V30 6103 C 586.034 -1.74503 3.92234 0
M  V30 6104 C 585.267 -2.92748 4.46245 0
M  V30 6105 O 585.49 -4.07427 3.99198 0
M  V30 6106 O 584.424 -2.71303 5.37288 0
M  V30 6107 H 588.25 -0.398516 3.01074 0
M  V30 6108 H 585.835 -0.130707 1.48827 0
M  V30 6109 H 587.717 -2.84953 3.10451 0
M  V30 6110 H 586.392 -2.59407 1.93623 0
M  V30 6111 H 585.299 -0.989186 3.60785 0
M  V30 6112 H 586.632 -1.32044 4.74157 0
M  V30 6113 N 588.284 -1.56567 -0.180126 0
M  V30 6114 C 589.53 -1.81761 -0.899497 0
M  V30 6115 C 589.863 -0.670015 -1.82276 0
M  V30 6116 O 589.138 0.328575 -1.91705 0
M  V30 6117 C 589.421 -3.17296 -1.7028 0
M  V30 6118 C 589.274 -4.4257 -0.803255 0
M  V30 6119 C 590.593 -3.49678 -2.67233 0
M  V30 6120 H 587.712 -0.661192 -0.325567 0
M  V30 6121 H 590.354 -1.89272 -0.16612 0
M  V30 6122 H 588.504 -3.11023 -2.32802 0
M  V30 6123 H 590.176 -4.60902 -0.191585 0
M  V30 6124 H 588.419 -4.33658 -0.110796 0
M  V30 6125 H 589.09 -5.33935 -1.40064 0
M  V30 6126 H 591.566 -3.56347 -2.14839 0
M  V30 6127 H 590.442 -4.45605 -3.20511 0
M  V30 6128 H 590.703 -2.73932 -3.47007 0
M  V30 6129 N 589.762 0.448376 -1.51087 0
M  V30 6130 C 591.008 1.20049 -1.6345 0
M  V30 6131 C 591.341 1.91121 -0.344444 0
M  V30 6132 O 590.616 1.83125 0.655396 0
M  V30 6133 C 590.899 2.22624 -2.83038 0
M  V30 6134 C 590.752 1.55708 -4.21989 0
M  V30 6135 C 592.071 3.23718 -2.98152 0
M  V30 6136 H 589.19 0.435085 -0.59487 0
M  V30 6137 H 591.832 0.491183 -1.83541 0
M  V30 6138 H 589.982 2.83117 -2.66039 0
M  V30 6139 H 591.654 0.986367 -4.50631 0
M  V30 6140 H 589.897 0.859647 -4.25197 0
M  V30 6141 H 590.568 2.30357 -5.01637 0
M  V30 6142 H 593.044 2.73269 -3.13788 0
M  V30 6143 H 591.92 3.92795 -3.83411 0
M  V30 6144 H 592.181 3.89179 -2.09743 0
M  V30 6145 N 591.24 1.41047 0.703093 0
M  V30 6146 C 592.468 1.4334 1.49202 0
M  V30 6147 C 592.883 0.0365596 1.88765 0
M  V30 6148 O 592.24 -0.942419 1.56284 0
M  V30 6149 C 592.291 2.33538 2.75939 0
M  V30 6150 O 592.012 3.67786 2.38045 0
M  V30 6151 C 593.513 2.44555 3.6974 0
M  V30 6152 H 590.733 0.488472 0.460039 0
M  V30 6153 H 593.277 1.85245 0.86629 0
M  V30 6154 H 591.432 1.94962 3.34766 0
M  V30 6155 H 591.846 4.15816 3.19683 0
M  V30 6156 H 593.32 3.11849 4.55471 0
M  V30 6157 H 593.797 1.47447 4.1371 0
M  V30 6158 H 594.403 2.83735 3.16819 0
M  V30 6159 N 592.718 -0.936591 1.26751 0
M  V30 6160 C 594.129 -1.49816 1.1141 0
M  V30 6161 C 594.48 -1.9383 -0.304015 0
M  V30 6162 O 593.605 -1.80346 -1.196 0
M  V30 6163 C 594.2 -2.72271 2.01629 0
M  V30 6164 C 592.759 -3.2468 1.9042 0
M  V30 6165 C 591.906 -1.97444 1.94708 0
M  V30 6166 H 594.857 -0.751604 1.39773 0
M  V30 6167 H 594.878 -3.46741 1.56688 0
M  V30 6168 H 594.39 -2.40205 3.04833 0
M  V30 6169 H 592.491 -3.61525 0.901674 0
M  V30 6170 H 592.604 -3.91476 2.76195 0
M  V30 6171 H 590.968 -2.13545 1.38818 0
M  V30 6172 H 591.751 -1.67703 2.9955 0
M  V30 6173 N 594.196 -1.08629 -1.14182 0
M  V30 6174 C 595.473 -0.73002 -1.81466 0
M  V30 6175 C 595.853 0.785996 -1.95922 0
M  V30 6176 O 595.201 1.70535 -1.52086 0
M  V30 6177 C 595.411 -1.45957 -3.17014 0
M  V30 6178 C 596.759 -1.62008 -3.92477 0
M  V30 6179 O 597.783 -1.42141 -3.26611 0
M  V30 6180 O 596.642 -1.94806 -5.106 0
M  V30 6181 H 593.736 -0.261307 -0.784632 0
M  V30 6182 H 596.282 -1.188 -1.2118 0
M  V30 6183 H 595.054 -2.49221 -3.01669 0
M  V30 6184 H 594.677 -0.993222 -3.84995 0
M  V30 6185 N 595.674 1.31259 -0.872281 0
M  V30 6186 C 596.921 1.96622 -0.484365 0
M  V30 6187 C 597.249 1.68939 0.963841 0
M  V30 6188 O 596.504 0.97974 1.6941 0
M  V30 6189 C 596.803 3.50659 -0.690889 0
M  V30 6190 C 596.469 3.98366 -2.11224 0
M  V30 6191 C 595.131 4.11104 -2.50094 0
M  V30 6192 C 597.483 4.23425 -3.0391 0
M  V30 6193 C 594.811 4.46254 -3.80887 0
M  V30 6194 C 597.163 4.60039 -4.3422 0
M  V30 6195 C 595.827 4.70984 -4.73001 0
M  V30 6196 H 595.097 0.71949 -0.177242 0
M  V30 6197 H 597.744 1.56353 -1.10571 0
M  V30 6198 H 596.049 3.91798 0.0135782 0
M  V30 6199 H 597.746 3.99284 -0.370534 0
M  V30 6200 H 594.336 3.88949 -1.80047 0
M  V30 6201 H 598.52 4.13075 -2.75104 0
M  V30 6202 H 593.776 4.52926 -4.10692 0
M  V30 6203 H 597.95 4.78381 -5.06088 0
M  V30 6204 H 595.577 4.97977 -5.7439 0
M  V30 6205 N 597.152 0.631951 1.44375 0
M  V30 6206 C 598.084 -0.110911 2.28931 0
M  V30 6207 C 599.097 -0.808086 1.41329 0
M  V30 6208 O 600.286 -0.669396 1.65473 0
M  V30 6209 C 597.386 -1.17928 3.1772 0
M  V30 6210 C 596.559 -0.564458 4.33743 0
M  V30 6211 C 595.618 -1.5269 5.0356 0
M  V30 6212 O 594.644 -1.04372 5.59549 0
M  V30 6213 N 595.846 -2.86123 5.05088 0
M  V30 6214 H 598.611 0.614758 2.93327 0
M  V30 6215 H 596.172 0.473171 1.54831 0
M  V30 6216 H 598.164 -1.82348 3.61291 0
M  V30 6217 H 596.734 -1.80717 2.55069 0
M  V30 6218 H 595.954 0.258373 3.93352 0
M  V30 6219 H 597.242 -0.134355 5.08623 0
M  V30 6220 H 596.64 -3.27959 4.60933 0
M  V30 6221 H 595.197 -3.45901 5.52445 0
M  V30 6222 N 598.631 -1.53133 0.372548 0
M  V30 6223 C 599.541 -2.29671 -0.478379 0
M  V30 6224 C 600.557 -1.35913 -1.08644 0
M  V30 6225 O 601.733 -1.68975 -1.09588 0
M  V30 6226 C 598.798 -3.07625 -1.599 0
M  V30 6227 C 597.859 -4.17061 -1.01776 0
M  V30 6228 C 597.092 -4.91289 -2.08497 0
M  V30 6229 O 597.315 -4.65442 -3.29727 0
M  V30 6230 O 596.249 -5.7705 -1.71164 0
M  V30 6231 H 600.075 -3.03355 0.144649 0
M  V30 6232 H 597.66 -1.48773 0.136729 0
M  V30 6233 H 599.542 -3.56281 -2.25038 0
M  V30 6234 H 598.217 -2.3677 -2.2073 0
M  V30 6235 H 597.124 -3.72641 -0.330098 0
M  V30 6236 H 598.457 -4.90102 -0.453915 0
M  V30 6237 N 600.109 -0.101901 -1.5727 0
M  V30 6238 C 601.52 0.426173 -1.81771 0
M  V30 6239 C 601.871 1.67725 -1.01797 0
M  V30 6240 O 600.996 2.14958 -0.249386 0
M  V30 6241 C 601.591 0.779962 -3.297 0
M  V30 6242 C 600.15 1.25275 -3.54941 0
M  V30 6243 C 599.297 0.252814 -2.76145 0
M  V30 6244 H 602.248 -0.32726 -1.55289 0
M  V30 6245 H 602.269 1.63891 -3.43395 0
M  V30 6246 H 601.781 -0.130778 -3.8788 0
M  V30 6247 H 599.882 2.18097 -3.021 0
M  V30 6248 H 599.995 1.20988 -4.63572 0
M  V30 6249 H 598.359 0.736362 -2.43823 0
M  V30 6250 H 599.142 -0.650724 -3.37076 0
M  V30 6251 N 601.587 1.56661 0.17182 0
M  V30 6252 C 602.517 1.99401 1.21498 0
M  V30 6253 C 603.498 0.869516 1.46197 0
M  V30 6254 O 604.683 1.13556 1.57539 0
M  V30 6255 C 601.813 2.35346 2.55401 0
M  V30 6256 C 600.767 3.5075 2.45272 0
M  V30 6257 C 600.093 3.72437 3.8366 0
M  V30 6258 C 601.393 4.84216 1.95787 0
M  V30 6259 H 603.087 2.86792 0.859699 0
M  V30 6260 H 600.633 1.37977 0.412103 0
M  V30 6261 H 602.586 2.63843 3.2858 0
M  V30 6262 H 601.31 1.44864 2.92715 0
M  V30 6263 H 599.969 3.2238 1.74547 0
M  V30 6264 H 599.617 2.79246 4.18367 0
M  V30 6265 H 599.317 4.50087 3.77751 0
M  V30 6266 H 600.841 4.03334 4.58426 0
M  V30 6267 H 602.255 5.11592 2.5874 0
M  V30 6268 H 600.652 5.65498 2.00827 0
M  V30 6269 H 601.722 4.76243 0.912159 0
M  V30 6270 N 603.065 -0.440357 1.51323 0
M  V30 6271 C 604.311 -1.19181 1.64085 0
M  V30 6272 C 604.644 -1.90936 0.354575 0
M  V30 6273 O 603.919 -1.8347 -0.645675 0
M  V30 6274 C 604.202 -2.2112 2.84215 0
M  V30 6275 C 604.055 -1.53468 4.22809 0
M  V30 6276 C 605.374 -3.22133 2.99864 0
M  V30 6277 H 602.493 -0.431924 0.597169 0
M  V30 6278 H 605.135 -0.481443 1.83799 0
M  V30 6279 H 603.285 -2.81703 2.67537 0
M  V30 6280 H 604.957 -0.962455 4.51148 0
M  V30 6281 H 603.2 -0.837086 4.25647 0
M  V30 6282 H 603.871 -2.27694 5.02852 0
M  V30 6283 H 606.347 -2.71601 3.15233 0
M  V30 6284 H 605.223 -3.90756 3.85488 0
M  V30 6285 H 605.484 -3.88061 2.11804 0
M  V30 6286 N 604.543 -1.41418 -0.695603 0
M  V30 6287 C 605.768 -1.44329 -1.48942 0
M  V30 6288 C 606.193 -0.0501579 -1.88033 0
M  V30 6289 O 605.551 0.946598 -1.54626 0
M  V30 6290 C 605.599 -2.3578 -2.72837 0
M  V30 6291 O 604.703 -1.81482 -3.70322 0
M  V30 6292 H 604.044 -0.489838 -0.44828 0
M  V30 6293 H 606.574 -1.85878 -0.855014 0
M  V30 6294 H 606.584 -2.51654 -3.21145 0
M  V30 6295 H 605.259 -3.37005 -2.43722 0
M  V30 6296 H 603.836 -1.75058 -3.29255 0
M  V30 6297 N 606.021 0.929856 -1.27246 0
M  V30 6298 C 607.246 1.71674 -1.16374 0
M  V30 6299 C 607.671 1.86064 0.276024 0
M  V30 6300 O 607.029 1.3591 1.19992 0
M  V30 6301 C 607.077 3.09526 -1.85003 0
M  V30 6302 O 606.181 3.96142 -1.14653 0
M  V30 6303 H 605.522 0.52629 -0.404863 0
M  V30 6304 H 608.052 1.16381 -1.68276 0
M  V30 6305 H 608.062 3.59852 -1.92276 0
M  V30 6306 H 606.737 2.98369 -2.89739 0
M  V30 6307 H 605.314 3.54584 -1.15433 0
M  V30 6308 N 607.499 1.09233 1.13605 0
M  V30 6309 C 608.747 0.825525 1.84471 0
M  V30 6310 C 609.068 -0.650702 1.83823 0
M  V30 6311 O 608.338 -1.47204 1.29259 0
M  V30 6312 H 606.918 0.3024 0.683054 0
M  V30 6313 H 609.58 1.38006 1.37624 0
M  V30 6314 H 608.676 1.17727 2.89045 0
M  V30 6315 N 608.977 -1.30795 0.87923 0
M  V30 6316 C 609.887 -2.32041 0.345565 0
M  V30 6317 C 610.903 -1.65103 -0.549265 0
M  V30 6318 O 612.079 -1.9645 -0.443763 0
M  V30 6319 C 609.144 -3.43944 -0.436245 0
M  V30 6320 C 608.205 -4.26521 0.48765 0
M  V30 6321 C 607.438 -5.33081 -0.256943 0
M  V30 6322 O 607.661 -5.50762 -1.48381 0
M  V30 6323 O 606.595 -6.00635 0.389985 0
M  V30 6324 H 610.421 -2.79627 1.18501 0
M  V30 6325 H 608.006 -1.3486 0.642885 0
M  V30 6326 H 609.888 -4.12128 -0.879119 0
M  V30 6327 H 608.563 -2.98504 -1.25208 0
M  V30 6328 H 607.47 -3.61057 0.979216 0
M  V30 6329 H 608.803 -4.75551 1.26933 0
M  V30 6330 N 610.455 -0.639598 -1.44038 0
M  V30 6331 C 611.365 0.0612377 -2.3452 0
M  V30 6332 C 612.381 0.826717 -1.53106 0
M  V30 6333 O 613.557 0.777059 -1.85806 0
M  V30 6334 C 610.622 1.02492 -3.31204 0
M  V30 6335 C 609.683 0.25788 -4.28525 0
M  V30 6336 C 608.916 1.17566 -5.2059 0
M  V30 6337 O 609.139 2.41461 -5.16771 0
M  V30 6338 O 608.073 0.655407 -5.98321 0
M  V30 6339 H 611.899 -0.68318 -2.95916 0
M  V30 6340 H 609.484 -0.399784 -1.43952 0
M  V30 6341 H 611.366 1.57911 -3.90694 0
M  V30 6342 H 610.041 1.7498 -2.7233 0
M  V30 6343 H 608.948 -0.339566 -3.72556 0
M  V30 6344 H 610.281 -0.427154 -4.90343 0
M  V30 6345 N 611.933 1.52934 -0.380664 0
M  V30 6346 C 612.843 2.29921 0.466192 0
M  V30 6347 C 613.859 1.36488 1.07922 0
M  V30 6348 O 615.035 1.69553 1.0869 0
M  V30 6349 C 612.1 3.08468 1.58266 0
M  V30 6350 C 611.161 4.17595 0.995627 0
M  V30 6351 C 610.394 4.92387 2.05889 0
M  V30 6352 O 610.617 4.67184 3.27254 0
M  V30 6353 O 609.551 5.77949 1.68102 0
M  V30 6354 H 613.377 3.03274 -0.160735 0
M  V30 6355 H 610.962 1.48698 -0.144617 0
M  V30 6356 H 612.844 3.57469 2.23145 0
M  V30 6357 H 611.519 2.37937 2.19471 0
M  V30 6358 H 610.426 3.72811 0.310332 0
M  V30 6359 H 611.759 4.90336 0.427918 0
M  V30 6360 N 613.412 0.11024 1.57214 0
M  V30 6361 C 614.64 -0.557834 1.99238 0
M  V30 6362 C 615.055 -1.60778 0.989734 0
M  V30 6363 O 614.412 -1.82491 -0.0186092 0
M  V30 6364 C 614.463 -1.19189 3.41286 0
M  V30 6365 O 614.184 -0.183919 4.37714 0
M  V30 6366 C 615.685 -1.94413 3.98395 0
M  V30 6367 H 612.905 -0.148392 0.654386 0
M  V30 6368 H 615.449 0.193996 2.03578 0
M  V30 6369 H 613.604 -1.89456 3.37913 0
M  V30 6370 H 614.018 -0.643475 5.20538 0
M  V30 6371 H 615.492 -2.34116 4.99894 0
M  V30 6372 H 615.969 -2.81592 3.3705 0
M  V30 6373 H 616.575 -1.28928 4.05287 0
M  V30 6374 N 614.89 -1.56749 -0.16351 0
M  V30 6375 C 615.82 -2.00042 -1.20438 0
M  V30 6376 C 616.801 -0.877256 -1.45733 0
M  V30 6377 O 617.986 -1.1439 -1.56935 0
M  V30 6378 C 615.116 -2.36697 -2.54149 0
M  V30 6379 C 614.07 -3.52046 -2.43408 0
M  V30 6380 C 613.396 -3.74466 -3.81679 0
M  V30 6381 C 614.696 -4.85247 -1.93216 0
M  V30 6382 H 616.39 -2.87244 -0.844477 0
M  V30 6383 H 613.936 -1.38194 -0.40478 0
M  V30 6384 H 615.889 -2.65582 -3.27176 0
M  V30 6385 H 614.613 -1.46414 -2.91943 0
M  V30 6386 H 613.272 -3.23301 -1.72834 0
M  V30 6387 H 612.92 -2.81461 -4.1688 0
M  V30 6388 H 612.62 -4.52084 -3.75359 0
M  V30 6389 H 614.144 -4.0576 -4.5628 0
M  V30 6390 H 615.558 -5.12957 -2.56023 0
M  V30 6391 H 613.955 -5.66556 -1.97825 0
M  V30 6392 H 615.025 -4.7672 -0.88689 0
M  V30 6393 N 616.368 0.432326 -1.51554 0
M  V30 6394 C 617.617 1.17831 -1.63703 0
M  V30 6395 C 617.93 1.92229 -0.36156 0
M  V30 6396 O 619.136 2.69069 -0.362495 0
M  V30 6397 C 617.592 2.14318 -2.89129 0
M  V30 6398 C 617.2 1.45544 -4.23699 0
M  V30 6399 C 618.944 2.89319 -3.10636 0
M  V30 6400 C 616.851 2.40545 -5.4027 0
M  V30 6401 H 615.781 0.443533 -0.60975 0
M  V30 6402 H 618.432 0.444878 -1.78026 0
M  V30 6403 H 616.814 2.91117 -2.68452 0
M  V30 6404 H 617.988 0.742693 -4.54775 0
M  V30 6405 H 616.303 0.826772 -4.0811 0
M  V30 6406 H 618.9 3.60495 -3.94902 0
M  V30 6407 H 619.243 3.50951 -2.23918 0
M  V30 6408 H 619.776 2.19625 -3.31677 0
M  V30 6409 H 616.515 1.83594 -6.29264 0
M  V30 6410 H 616.035 3.09859 -5.13563 0
M  V30 6411 H 617.714 3.01569 -5.72421 0
M  V30 6412 N 617.846 1.41785 0.688094 0
M  V30 6413 C 618.776 1.47 1.8142 0
M  V30 6414 C 619.757 0.327881 1.6691 0
M  V30 6415 O 620.942 0.540362 1.86531 0
M  V30 6416 C 618.072 1.35876 3.19617 0
M  V30 6417 C 617.026 2.47976 3.48844 0
M  V30 6418 C 616.352 2.21915 4.86475 0
M  V30 6419 C 617.652 3.90309 3.47068 0
M  V30 6420 H 619.346 2.41247 1.77314 0
M  V30 6421 H 616.892 1.16116 0.851651 0
M  V30 6422 H 618.845 1.38134 3.98117 0
M  V30 6423 H 617.569 0.38116 3.24368 0
M  V30 6424 H 616.228 2.45013 2.72698 0
M  V30 6425 H 615.876 1.2248 4.8786 0
M  V30 6426 H 615.576 2.97037 5.06994 0
M  V30 6427 H 617.1 2.25901 5.67275 0
M  V30 6428 H 618.514 3.94947 4.1556 0
M  V30 6429 H 616.911 4.65175 3.7912 0
M  V30 6430 H 617.981 4.17927 2.45896 0
M  V30 6431 N 619.324 -0.923095 1.27737 0
M  V30 6432 C 620.234 -2.05765 1.12685 0
M  V30 6433 C 621.25 -1.73911 0.0557197 0
M  V30 6434 O 622.426 -1.99674 0.263137 0
M  V30 6435 C 619.491 -3.37804 0.780363 0
M  V30 6436 C 618.552 -3.83326 1.93286 0
M  V30 6437 C 617.785 -5.09064 1.60281 0
M  V30 6438 O 618.008 -5.6809 0.512828 0
M  V30 6439 O 616.942 -5.50071 2.44347 0
M  V30 6440 H 620.768 -2.21378 2.07907 0
M  V30 6441 H 618.353 -1.04299 1.06968 0
M  V30 6442 H 620.235 -4.17097 0.600668 0
M  V30 6443 H 618.91 -3.23387 -0.142291 0
M  V30 6444 H 617.817 -3.049 2.16764 0
M  V30 6445 H 619.15 -4.02292 2.83588 0
M  V30 6446 N 620.802 -1.09834 -1.13024 0
M  V30 6447 C 621.712 -0.753731 -2.22162 0
M  V30 6448 C 622.728 0.246105 -1.72251 0
M  V30 6449 O 623.904 0.0864051 -2.01215 0
M  V30 6450 C 620.969 -0.183958 -3.46212 0
M  V30 6451 C 620.03 -1.24028 -4.10993 0
M  V30 6452 C 619.263 -0.697597 -5.29121 0
M  V30 6453 O 619.486 0.478092 -5.68393 0
M  V30 6454 O 618.42 -1.4546 -5.84059 0
M  V30 6455 H 622.246 -1.66456 -2.5402 0
M  V30 6456 H 619.831 -0.873026 -1.21238 0
M  V30 6457 H 621.713 0.130257 -4.21199 0
M  V30 6458 H 620.388 0.699823 -3.16045 0
M  V30 6459 H 619.295 -1.60725 -3.37814 0
M  V30 6460 H 620.628 -2.09685 -4.45301 0
M  V30 6461 N 622.28 1.30327 -0.886154 0
M  V30 6462 C 623.227 2.28099 -0.352069 0
M  V30 6463 C 624.197 1.56433 0.558397 0
M  V30 6464 O 625.382 1.84492 0.486561 0
M  V30 6465 C 622.522 3.42456 0.426346 0
M  V30 6466 C 621.635 4.28938 -0.513472 0
M  V30 6467 C 620.77 5.30458 0.280657 0
M  V30 6468 C 619.809 6.0859 -0.654556 0
M  V30 6469 N 618.946 7.02022 0.104322 0
M  V30 6470 H 623.786 2.73166 -1.19097 0
M  V30 6471 H 621.323 1.34367 -0.598662 0
M  V30 6472 H 623.281 4.07518 0.893587 0
M  V30 6473 H 621.911 2.98455 1.22981 0
M  V30 6474 H 620.963 3.64173 -1.09921 0
M  V30 6475 H 622.275 4.83399 -1.2299 0
M  V30 6476 H 621.429 6.01273 0.8097 0
M  V30 6477 H 620.168 4.76693 1.03029 0
M  V30 6478 H 619.173 5.36651 -1.19522 0
M  V30 6479 H 620.398 6.64443 -1.4033 0
M  V30 6480 H 618.344 6.50645 0.836472 0
M  V30 6481 H 618.261 7.53979 -0.552453 0
M  V30 6482 H 619.529 7.77077 0.614069 0
M  V30 6483 N 623.758 0.647228 1.43697 0
M  V30 6484 C 624.69 -0.0866232 2.29036 0
M  V30 6485 C 625.703 -0.793051 1.42178 0
M  V30 6486 O 626.892 -0.651807 1.66174 0
M  V30 6487 C 623.992 -1.14552 3.18953 0
M  V30 6488 C 623.165 -0.518422 4.34317 0
M  V30 6489 C 622.224 -1.4734 5.05151 0
M  V30 6490 O 621.25 -0.984312 5.60625 0
M  V30 6491 N 622.452 -2.8075 5.08094 0
M  V30 6492 H 625.217 0.645834 2.92659 0
M  V30 6493 H 622.778 0.489567 1.54321 0
M  V30 6494 H 624.77 -1.78505 3.63205 0
M  V30 6495 H 623.34 -1.78001 2.56971 0
M  V30 6496 H 622.56 0.300079 3.93056 0
M  V30 6497 H 623.848 -0.080401 5.08736 0
M  V30 6498 H 623.246 -3.23052 4.64386 0
M  V30 6499 H 621.803 -3.40022 5.56083 0
M  V30 6500 N 625.236 -1.5273 0.388769 0
M  V30 6501 C 626.146 -2.30165 -0.453993 0
M  V30 6502 C 627.162 -1.37058 -1.07197 0
M  V30 6503 O 628.338 -1.70127 -1.0779 0
M  V30 6504 C 625.403 -3.09303 -1.56628 0
M  V30 6505 C 624.464 -4.18117 -0.973467 0
M  V30 6506 C 623.697 -4.93472 -2.03275 0
M  V30 6507 O 623.92 -4.68913 -3.24772 0
M  V30 6508 O 622.854 -5.78833 -1.65034 0
M  V30 6509 H 626.68 -3.03185 0.176816 0
M  V30 6510 H 624.265 -1.4862 0.152501 0
M  V30 6511 H 626.147 -3.58648 -2.21246 0
M  V30 6512 H 624.822 -2.39098 -2.18206 0
M  V30 6513 H 623.729 -3.7297 -0.290556 0
M  V30 6514 H 625.062 -4.90556 -0.401908 0
M  V30 6515 N 626.714 -0.118576 -1.57153 0
M  V30 6516 C 627.939 0.550582 -1.99958 0
M  V30 6517 C 628.364 1.59458 -0.997736 0
M  V30 6518 O 627.722 1.81274 0.0306269 0
M  V30 6519 C 627.77 1.15379 -3.41643 0
M  V30 6520 O 626.874 2.26932 -3.44348 0
M  V30 6521 H 626.215 0.137567 -0.649593 0
M  V30 6522 H 628.745 -0.206926 -2.03551 0
M  V30 6523 H 628.755 1.48942 -3.79843 0
M  V30 6524 H 627.43 0.389087 -4.14076 0
M  V30 6525 H 626.007 1.94812 -3.17967 0
M  V30 6526 N 628.193 1.56834 0.155195 0
M  V30 6527 C 629.125 1.94235 1.21677 0
M  V30 6528 C 630.138 0.83724 1.39621 0
M  V30 6529 O 631.327 1.11567 1.39338 0
M  V30 6530 C 628.427 2.19402 2.58294 0
M  V30 6531 C 627.6 3.50671 2.61436 0
M  V30 6532 C 626.659 3.64475 3.79532 0
M  V30 6533 O 625.685 4.36945 3.64784 0
M  V30 6534 N 626.887 3.00526 4.96653 0
M  V30 6535 H 629.652 2.85901 0.898932 0
M  V30 6536 H 627.213 1.58185 0.34483 0
M  V30 6537 H 629.205 2.25886 3.35794 0
M  V30 6538 H 627.775 1.34042 2.82403 0
M  V30 6539 H 626.995 3.55702 1.69912 0
M  V30 6540 H 628.283 4.3702 2.60559 0
M  V30 6541 H 627.681 2.41549 5.11538 0
M  V30 6542 H 626.238 3.12583 5.71958 0
M  V30 6543 N 629.671 -0.424282 1.51781 0
M  V30 6544 C 630.603 -1.53457 1.70246 0
M  V30 6545 C 631.616 -1.52004 0.582967 0
M  V30 6546 O 632.805 -1.56544 0.857683 0
M  V30 6547 C 629.905 -2.92368 1.71389 0
M  V30 6548 C 629.078 -3.1818 3.00133 0
M  V30 6549 C 628.137 -4.36884 2.9329 0
M  V30 6550 O 627.163 -4.34901 3.67219 0
M  V30 6551 N 628.365 -5.4117 2.10036 0
M  V30 6552 H 631.13 -1.38017 2.66029 0
M  V30 6553 H 628.691 -0.613394 1.4983 0
M  V30 6554 H 630.683 -3.6982 1.64362 0
M  V30 6555 H 629.253 -3.0134 0.831449 0
M  V30 6556 H 628.473 -2.28908 3.20928 0
M  V30 6557 H 629.761 -3.32261 3.85331 0
M  V30 6558 H 629.159 -5.45623 1.49373 0
M  V30 6559 H 627.716 -6.17425 2.08878 0
M  V30 6560 N 631.149 -1.42148 -0.680565 0
M  V30 6561 C 632.377 -1.45696 -1.46902 0
M  V30 6562 C 632.792 -0.0665858 -1.88683 0
M  V30 6563 O 632.149 0.917436 -1.57764 0
M  V30 6564 C 632.2 -2.37898 -2.72188 0
M  V30 6565 O 631.921 -3.71526 -2.32163 0
M  V30 6566 C 633.422 -2.50407 -3.65802 0
M  V30 6567 H 630.642 -0.495729 -0.45221 0
M  V30 6568 H 633.186 -1.866 -0.836709 0
M  V30 6569 H 631.341 -2.00263 -3.31622 0
M  V30 6570 H 631.755 -4.20849 -3.13027 0
M  V30 6571 H 633.229 -3.19056 -4.50452 0
M  V30 6572 H 633.706 -1.5401 -4.11312 0
M  V30 6573 H 634.312 -2.8874 -3.12265 0
M  V30 6574 N 632.627 0.916307 -1.28225 0
M  V30 6575 C 633.557 2.0352 -1.14464 0
M  V30 6576 C 634.538 1.70045 -0.0430844 0
M  V30 6577 O 635.723 1.92954 -0.219619 0
M  V30 6578 C 632.853 3.37889 -0.803027 0
M  V30 6579 C 631.807 3.85516 -1.85908 0
M  V30 6580 C 631.133 5.1682 -1.37116 0
M  V30 6581 C 632.433 4.07655 -3.26519 0
M  V30 6582 H 634.127 2.1529 -2.08064 0
M  V30 6583 H 631.673 1.03446 -1.00174 0
M  V30 6584 H 633.626 4.15654 -0.693537 0
M  V30 6585 H 632.35 3.26164 0.168674 0
M  V30 6586 H 631.009 3.09953 -1.95767 0
M  V30 6587 H 630.657 5.01497 -0.38859 0
M  V30 6588 H 630.357 5.49657 -2.07728 0
M  V30 6589 H 631.881 5.97143 -1.27484 0
M  V30 6590 H 633.295 4.75953 -3.19596 0
M  V30 6591 H 631.692 4.51818 -3.94943 0
M  V30 6592 H 632.762 3.12553 -3.70727 0
M  V30 6593 N 634.105 1.10431 1.1244 0
M  V30 6594 C 635.33 0.869089 1.88313 0
M  V30 6595 C 635.755 -0.574912 1.79099 0
M  V30 6596 O 635.113 -1.40496 1.14589 0
M  V30 6597 C 635.161 1.32208 3.3549 0
M  V30 6598 O 634.265 0.487092 4.09513 0
M  V30 6599 H 633.606 0.313894 0.585121 0
M  V30 6600 H 636.136 1.47111 1.42195 0
M  V30 6601 H 636.146 1.31201 3.86329 0
M  V30 6602 H 634.821 2.37364 3.41513 0
M  V30 6603 H 633.398 0.562372 3.68635 0
M  V30 6604 N 635.583 -1.29855 0.893053 0
M  V30 6605 C 636.994 -1.77946 0.564998 0
M  V30 6606 C 637.345 -1.73339 -0.919134 0
M  V30 6607 O 636.47 -1.3152 -1.71847 0
M  V30 6608 C 637.065 -3.23118 1.01883 0
M  V30 6609 C 635.624 -3.69013 0.742051 0
M  V30 6610 C 634.771 -2.50121 1.19727 0
M  V30 6611 H 637.722 -1.16611 1.07646 0
M  V30 6612 H 637.743 -3.78875 0.351249 0
M  V30 6613 H 637.255 -3.26439 2.09903 0
M  V30 6614 H 635.356 -3.71173 -0.325816 0
M  V30 6615 H 635.469 -4.60117 1.33527 0
M  V30 6616 H 633.833 -2.47128 0.616418 0
M  V30 6617 H 634.616 -2.56174 2.28538 0
M  V30 6618 N 637.061 -0.65484 -1.43351 0
M  V30 6619 C 638.289 -0.176685 -2.06144 0
M  V30 6620 C 638.704 1.15831 -1.49093 0
M  V30 6621 O 638.061 1.71542 -0.622868 0
M  V30 6622 C 638.112 -0.0813326 -3.61408 0
M  V30 6623 O 637.833 -1.36355 -4.1634 0
M  V30 6624 C 639.334 0.422706 -4.4128 0
M  V30 6625 H 636.554 -0.0906429 -0.66485 0
M  V30 6626 H 639.098 -0.895945 -1.83829 0
M  V30 6627 H 637.253 0.588496 -3.82904 0
M  V30 6628 H 637.667 -1.22381 -5.10023 0
M  V30 6629 H 639.141 0.438375 -5.50257 0
M  V30 6630 H 639.618 1.45432 -4.14423 0
M  V30 6631 H 640.224 -0.214687 -4.24758 0
M  V30 6632 N 638.539 1.52521 -0.396863 0
M  V30 6633 C 639.95 1.86547 0.0754868 0
M  V30 6634 C 640.301 1.31621 1.45501 0
M  V30 6635 O 639.426 0.650563 2.0639 0
M  V30 6636 C 640.021 3.38495 0.143754 0
M  V30 6637 C 638.58 3.72205 0.560413 0
M  V30 6638 C 637.727 2.75954 -0.272856 0
M  V30 6639 H 640.678 1.46323 -0.614434 0
M  V30 6640 H 640.699 3.68153 0.961425 0
M  V30 6641 H 640.211 3.78442 -0.860415 0
M  V30 6642 H 638.312 3.3783 1.57167 0
M  V30 6643 H 638.425 4.78074 0.313314 0
M  V30 6644 H 636.789 2.53339 0.263 0
M  V30 6645 H 637.572 3.1874 -1.27515 0
M  V30 6646 N 640.017 0.126909 1.57088 0
M  V30 6647 C 641.265 -0.528123 1.95078 0
M  V30 6648 C 641.586 -1.66708 1.0116 0
M  V30 6649 O 640.856 -1.95777 0.0693527 0
M  V30 6650 H 639.436 -0.198087 0.720257 0
M  V30 6651 H 642.098 0.197703 1.93895 0
M  V30 6652 H 641.194 -0.917507 2.98309 0
M  V30 6653 N 641.495 -1.56914 -0.146875 0
M  V30 6654 C 642.772 -1.74273 -0.888165 0
M  V30 6655 C 643.152 -0.69496 -1.99333 0
M  V30 6656 O 642.5 0.286093 -2.26702 0
M  V30 6657 C 642.71 -3.18336 -1.43051 0
M  V30 6658 C 644.058 -3.80024 -1.89387 0
M  V30 6659 O 645.082 -3.21765 -1.52792 0
M  V30 6660 O 643.941 -4.82367 -2.56874 0
M  V30 6661 H 641.035 -0.712565 -0.419738 0
M  V30 6662 H 643.581 -1.6918 -0.132791 0
M  V30 6663 H 642.353 -3.86092 -0.636274 0
M  V30 6664 H 641.976 -3.27854 -2.24938 0
M  V30 6665 N 642.974 0.416227 -1.52004 0
M  V30 6666 C 644.385 0.995319 -1.57957 0
M  V30 6667 C 644.736 1.91744 -0.415754 0
M  V30 6668 O 643.861 2.11349 0.464808 0
M  V30 6669 C 644.456 1.81191 -2.86278 0
M  V30 6670 C 643.015 2.34115 -2.94732 0
M  V30 6671 C 642.162 1.139 -2.52828 0
M  V30 6672 H 645.113 0.196716 -1.57476 0
M  V30 6673 H 645.134 2.66859 -2.71231 0
M  V30 6674 H 644.646 1.14051 -3.70963 0
M  V30 6675 H 642.747 3.04647 -2.14525 0
M  V30 6676 H 642.86 2.65466 -3.98829 0
M  V30 6677 H 641.224 1.49081 -2.06511 0
M  V30 6678 H 642.007 0.483383 -3.3988 0
M  V30 6679 N 644.452 1.42507 0.673017 0
M  V30 6680 C 645.385 1.40557 1.79774 0
M  V30 6681 C 646.363 0.269606 1.60349 0
M  V30 6682 O 647.547 0.460105 1.82798 0
M  V30 6683 C 644.674 1.19815 3.168 0
M  V30 6684 C 643.72 2.36429 3.5497 0
M  V30 6685 S 644.553 3.98963 3.57196 0
M  V30 6686 C 645.709 3.80567 4.9691 0
M  V30 6687 H 645.942 2.35734 1.81154 0
M  V30 6688 H 643.475 1.293 0.843846 0
M  V30 6689 H 645.433 1.08535 3.95892 0
M  V30 6690 H 644.094 0.262215 3.13004 0
M  V30 6691 H 643.287 2.17669 4.54573 0
M  V30 6692 H 642.889 2.44233 2.83242 0
M  V30 6693 H 645.181 3.41668 5.85038 0
M  V30 6694 H 646.124 4.79852 5.20718 0
M  V30 6695 H 646.532 3.13399 4.69512 0
M  V30 6696 N 645.93 -0.909495 1.28709 0
M  V30 6697 C 646.86 -2.0291 1.15542 0
M  V30 6698 C 647.841 -1.7002 0.0521017 0
M  V30 6699 O 649.026 -1.92835 0.229849 0
M  V30 6700 C 646.156 -3.37458 0.820935 0
M  V30 6701 C 645.11 -3.84524 1.87949 0
M  V30 6702 C 644.436 -5.16086 1.39854 0
M  V30 6703 C 645.736 -4.05918 3.28676 0
M  V30 6704 H 647.43 -2.14183 2.09203 0
M  V30 6705 H 644.976 -1.02913 1.00722 0
M  V30 6706 H 646.929 -4.1528 0.715571 0
M  V30 6707 H 645.653 -3.26249 -0.151374 0
M  V30 6708 H 644.312 -3.08911 1.97408 0
M  V30 6709 H 643.96 -5.01284 0.41518 0
M  V30 6710 H 643.66 -5.48547 2.1064 0
M  V30 6711 H 645.184 -5.96459 1.30649 0
M  V30 6712 H 646.598 -4.74252 3.22115 0
M  V30 6713 H 644.995 -4.49717 3.97334 0
M  V30 6714 H 646.065 -3.10583 3.72379 0
M  V30 6715 N 647.408 -1.11026 -1.11852 0
M  V30 6716 C 648.371 -0.768006 -2.1595 0
M  V30 6717 C 649.371 0.210538 -1.59416 0
M  V30 6718 O 650.561 -0.0133978 -1.74195 0
M  V30 6719 C 647.693 -0.138678 -3.40618 0
M  V30 6720 H 648.886 -1.69012 -2.4774 0
M  V30 6721 H 646.439 -0.911578 -1.26964 0
M  V30 6722 H 647.174 0.793872 -3.14433 0
M  V30 6723 H 646.959 -0.843012 -3.8293 0
M  V30 6724 H 648.449 0.0848039 -4.17514 0
M  V30 6725 N 648.886 1.2938 -0.899927 0
M  V30 6726 C 650.111 2.00228 -0.540692 0
M  V30 6727 C 650.536 1.66909 0.867359 0
M  V30 6728 O 649.894 0.893824 1.57735 0
M  V30 6729 C 649.942 3.52921 -0.740232 0
M  V30 6730 O 649.046 4.11879 0.207154 0
M  V30 6731 H 648.387 0.629505 -0.211233 0
M  V30 6732 H 650.917 1.6487 -1.21158 0
M  V30 6733 H 650.927 4.0287 -0.644973 0
M  V30 6734 H 649.602 3.76508 -1.76677 0
M  V30 6735 H 648.179 3.72845 0.0643315 0
M  V30 6736 N 650.364 0.662433 1.43002 0
M  V30 6737 C 651.61 0.188492 2.02525 0
M  V30 6738 C 651.965 -1.18752 1.51379 0
M  V30 6739 O 651.258 -1.78313 0.701065 0
M  V30 6740 C 651.452 0.149363 3.57088 0
M  V30 6741 C 651.281 1.52004 4.23231 0
M  V30 6742 C 650.051 2.11473 4.5892 0
M  V30 6743 C 652.249 2.46028 4.51635 0
M  V30 6744 N 650.231 3.4145 5.10181 0
M  V30 6745 C 651.602 3.60647 5.04315 0
M  V30 6746 C 653.657 2.44715 4.33612 0
M  V30 6747 C 652.36 4.74189 5.40867 0
M  V30 6748 C 654.386 3.57344 4.71232 0
M  V30 6749 C 653.748 4.70689 5.24053 0
M  V30 6750 H 649.847 0.113615 0.773703 0
M  V30 6751 H 652.431 0.872738 1.74044 0
M  V30 6752 H 650.602 -0.504255 3.85113 0
M  V30 6753 H 652.334 -0.336307 4.033 0
M  V30 6754 H 649.089 1.64087 4.44266 0
M  V30 6755 H 649.513 4.07987 5.40255 0
M  V30 6756 H 654.155 1.58318 3.9204 0
M  V30 6757 H 651.873 5.61271 5.81378 0
M  V30 6758 H 655.459 3.5754 4.58973 0
M  V30 6759 H 654.339 5.56398 5.52621 0
M  V30 6760 N 651.842 -1.52309 0.404946 0
M  V30 6761 C 653.253 -1.86585 -0.0655926 0
M  V30 6762 C 653.604 -1.3239 -1.44801 0
M  V30 6763 O 652.729 -0.6615 -2.06042 0
M  V30 6764 C 653.324 -3.38566 -0.125801 0
M  V30 6765 C 651.883 -3.72497 -0.540666 0
M  V30 6766 C 651.03 -2.75806 0.287487 0
M  V30 6767 H 653.981 -1.45995 0.622185 0
M  V30 6768 H 654.002 -3.68658 -0.941888 0
M  V30 6769 H 653.514 -3.77981 0.880473 0
M  V30 6770 H 651.615 -3.38659 -1.55373 0
M  V30 6771 H 651.728 -4.78234 -0.287956 0
M  V30 6772 H 650.092 -2.53474 -0.249561 0
M  V30 6773 H 650.875 -3.18059 1.29203 0
M  V30 6774 N 653.32 -0.135238 -1.57019 0
M  V30 6775 C 654.548 0.526066 -2.001 0
M  V30 6776 C 654.963 1.59184 -1.01519 0
M  V30 6777 O 654.32 1.82497 -0.0104258 0
M  V30 6778 C 654.371 1.13744 -3.43139 0
M  V30 6779 O 654.092 0.114259 -4.37951 0
M  V30 6780 C 655.593 1.8805 -4.01438 0
M  V30 6781 H 652.813 0.137962 -0.656664 0
M  V30 6782 H 655.357 -0.226359 -2.03243 0
M  V30 6783 H 653.512 1.84056 -3.40885 0
M  V30 6784 H 653.926 0.56058 -5.21496 0
M  V30 6785 H 655.4 2.26133 -5.03555 0
M  V30 6786 H 655.877 2.76194 -3.41487 0
M  V30 6787 H 656.483 1.22464 -4.07287 0
M  V30 6788 N 654.798 1.5699 0.138552 0
M  V30 6789 C 656.046 1.83446 0.848053 0
M  V30 6790 C 656.367 0.71744 1.81322 0
M  V30 6791 O 655.637 -0.260228 1.94164 0
M  V30 6792 H 654.217 0.676792 0.316166 0
M  V30 6793 H 656.879 1.94462 0.130538 0
M  V30 6794 H 655.975 2.78677 1.40518 0
M  V30 6795 N 656.276 -0.40816 1.52223 0
M  V30 6796 C 657.186 -1.52202 1.78526 0
M  V30 6797 C 658.202 -1.60546 0.670892 0
M  V30 6798 O 659.378 -1.77242 0.956404 0
M  V30 6799 C 656.443 -2.87928 1.93128 0
M  V30 6800 C 655.504 -2.89463 3.17033 0
M  V30 6801 C 654.737 -4.18715 3.30929 0
M  V30 6802 O 654.96 -5.12662 2.50067 0
M  V30 6803 O 653.894 -4.27125 4.24084 0
M  V30 6804 H 657.72 -1.32911 2.73072 0
M  V30 6805 H 655.305 -0.594112 1.37079 0
M  V30 6806 H 657.187 -3.68426 2.04549 0
M  V30 6807 H 655.862 -3.07285 1.01772 0
M  V30 6808 H 654.769 -2.07815 3.11069 0
M  V30 6809 H 656.102 -2.75055 4.08174 0
M  V30 6810 N 657.755 -1.42862 -0.66545 0
M  V30 6811 C 659.001 -1.44043 -1.42757 0
M  V30 6812 C 659.334 -0.0599629 -1.94107 0
M  V30 6813 O 658.609 0.917286 -1.71511 0
M  V30 6814 C 658.892 -2.47266 -2.61786 0
M  V30 6815 C 658.745 -3.94539 -2.16007 0
M  V30 6816 C 660.064 -2.47365 -3.64003 0
M  V30 6817 H 657.183 -0.524506 -0.517748 0
M  V30 6818 H 659.825 -1.74335 -0.755466 0
M  V30 6819 H 657.975 -2.21565 -3.19126 0
M  V30 6820 H 659.647 -4.31254 -1.63762 0
M  V30 6821 H 657.89 -4.07957 -1.47491 0
M  V30 6822 H 658.561 -4.62357 -3.01546 0
M  V30 6823 H 661.037 -2.70243 -3.16399 0
M  V30 6824 H 659.913 -3.21552 -4.44854 0
M  V30 6825 H 660.174 -1.50299 -4.15767 0
M  V30 6826 N 659.233 0.902656 -1.29189 0
M  V30 6827 C 660.479 1.6555 -1.18172 0
M  V30 6828 C 660.834 1.90569 0.264788 0
M  V30 6829 O 660.127 1.50292 1.1884 0
M  V30 6830 C 660.321 3.011 -1.92545 0
M  V30 6831 C 660.15 2.89312 -3.4428 0
M  V30 6832 C 658.92 2.90239 -4.1363 0
M  V30 6833 C 661.118 2.6656 -4.3983 0
M  V30 6834 N 659.1 2.69156 -5.5175 0
M  V30 6835 C 660.471 2.54429 -5.6539 0
M  V30 6836 C 662.526 2.51644 -4.29627 0
M  V30 6837 C 661.229 2.289 -6.81907 0
M  V30 6838 C 663.255 2.27498 -5.45892 0
M  V30 6839 C 662.617 2.16129 -6.70423 0
M  V30 6840 H 658.716 0.611519 -0.48741 0
M  V30 6841 H 661.3 1.06514 -1.62981 0
M  V30 6842 H 659.471 3.58202 -1.50154 0
M  V30 6843 H 661.203 3.65471 -1.73818 0
M  V30 6844 H 657.958 3.01412 -3.65305 0
M  V30 6845 H 658.382 2.61676 -6.24383 0
M  V30 6846 H 663.024 2.59178 -3.34045 0
M  V30 6847 H 660.742 2.20104 -7.77547 0
M  V30 6848 H 664.328 2.16805 -5.39895 0
M  V30 6849 H 663.208 1.97703 -7.5887 0
M  V30 6850 N 660.711 1.11618 1.11262 0
M  V30 6851 C 661.641 0.79846 2.19424 0
M  V30 6852 C 662.622 -0.234003 1.68483 0
M  V30 6853 O 663.807 -0.0970704 1.93957 0
M  V30 6854 C 660.937 0.242892 3.4645 0
M  V30 6855 C 659.891 1.20744 4.10615 0
M  V30 6856 C 659.217 0.512494 5.32238 0
M  V30 6857 C 660.517 2.55884 4.55325 0
M  V30 6858 H 662.211 1.70286 2.46258 0
M  V30 6859 H 659.757 0.820195 1.18359 0
M  V30 6860 H 661.71 0.00840447 4.21399 0
M  V30 6861 H 660.434 -0.696811 3.1908 0
M  V30 6862 H 659.093 1.42759 3.37662 0
M  V30 6863 H 658.741 -0.432075 5.01141 0
M  V30 6864 H 658.441 1.15583 5.7612 0
M  V30 6865 H 659.965 0.286842 6.09926 0
M  V30 6866 H 661.379 2.37946 5.21588 0
M  V30 6867 H 659.776 3.16216 5.10027 0
M  V30 6868 H 660.846 3.14968 3.68678 0
M  V30 6869 N 662.189 -1.289 0.906776 0
M  V30 6870 C 663.414 -1.99939 0.551303 0
M  V30 6871 C 663.839 -1.67366 -0.858496 0
M  V30 6872 O 663.197 -0.902176 -1.57259 0
M  V30 6873 C 663.245 -3.52523 0.758937 0
M  V30 6874 O 662.349 -4.11983 -0.185308 0
M  V30 6875 H 661.69 -0.628376 0.214568 0
M  V30 6876 H 664.22 -1.64225 1.2203 0
M  V30 6877 H 664.23 -4.02522 0.666329 0
M  V30 6878 H 662.905 -3.75566 1.78671 0
M  V30 6879 H 661.482 -3.72873 -0.0445577 0
M  V30 6880 N 663.667 -0.670007 -1.42649 0
M  V30 6881 C 664.895 -0.19854 -2.05945 0
M  V30 6882 C 665.31 1.14243 -1.50313 0
M  V30 6883 O 664.667 1.70872 -0.641027 0
M  V30 6884 C 664.718 -0.11966 -3.61302 0
M  V30 6885 O 664.439 -1.40764 -4.1487 0
M  V30 6886 C 665.94 0.375878 -4.41704 0
M  V30 6887 H 663.16 -0.0976894 -0.663851 0
M  V30 6888 H 665.704 -0.915392 -1.82868 0
M  V30 6889 H 663.859 0.547851 -3.83507 0
M  V30 6890 H 664.273 -1.27784 -5.08696 0
M  V30 6891 H 665.747 0.379988 -5.50691 0
M  V30 6892 H 666.224 1.41028 -4.15942 0
M  V30 6893 H 666.83 -0.259727 -4.24506 0
M  V30 6894 N 665.145 1.52092 -0.413018 0
M  V30 6895 C 666.391 2.02154 0.161737 0
M  V30 6896 C 666.724 1.29789 1.44459 0
M  V30 6897 O 665.999 0.405378 1.90229 0
M  V30 6898 C 666.282 3.5781 0.405463 0
M  V30 6899 C 666.135 4.40819 -0.894335 0
M  V30 6900 C 667.454 4.23821 1.18591 0
M  V30 6901 H 664.573 0.734769 0.0573077 0
M  V30 6902 H 667.215 1.81948 -0.547247 0
M  V30 6903 H 665.365 3.75158 1.0094 0
M  V30 6904 H 667.037 4.35175 -1.53039 0
M  V30 6905 H 665.28 4.06877 -1.50444 0
M  V30 6906 H 665.951 5.47819 -0.678144 0
M  V30 6907 H 668.427 4.10596 0.674573 0
M  V30 6908 H 667.303 5.32663 1.3252 0
M  V30 6909 H 667.564 3.83038 2.20758 0
M  V30 6910 N 666.623 0.143563 1.56945 0
M  V30 6911 C 667.586 -0.783295 2.154 0
M  V30 6912 C 668.586 -1.17763 1.09492 0
M  V30 6913 O 669.776 -1.09912 1.35148 0
M  V30 6914 C 666.908 -2.06248 2.7143 0
M  V30 6915 H 668.101 -0.274863 2.98638 0
M  V30 6916 H 665.654 -0.105859 1.55941 0
M  V30 6917 H 666.389 -2.61466 1.91849 0
M  V30 6918 H 666.174 -1.78897 3.4891 0
M  V30 6919 H 667.664 -2.72453 3.16479 0
M  V30 6920 N 668.101 -1.57061 -0.130224 0
M  V30 6921 C 669.512 -1.73539 -0.68856 0
M  V30 6922 C 669.863 -0.760554 -1.80859 0
M  V30 6923 O 668.988 0.0690796 -2.1629 0
M  V30 6924 C 669.583 -3.14666 -1.25581 0
M  V30 6925 C 668.142 -3.32689 -1.76055 0
M  V30 6926 C 667.289 -2.69436 -0.655712 0
M  V30 6927 H 670.24 -1.58412 0.0956002 0
M  V30 6928 H 670.261 -3.15595 -2.12556 0
M  V30 6929 H 669.773 -3.85593 -0.440412 0
M  V30 6930 H 667.874 -2.66786 -2.60108 0
M  V30 6931 H 667.987 -4.4077 -1.87772 0
M  V30 6932 H 666.351 -2.30362 -1.08654 0
M  V30 6933 H 667.134 -3.42979 0.14852 0
M  V30 6934 N 669.579 0.400081 -1.52437 0
M  V30 6935 C 670.804 1.17221 -1.71096 0
M  V30 6936 C 671.229 1.83269 -0.423565 0
M  V30 6937 O 670.587 1.70378 0.619751 0
M  V30 6938 C 670.635 2.20425 -2.85386 0
M  V30 6939 O 669.739 3.26769 -2.51586 0
M  V30 6940 H 669.08 0.341766 -0.569291 0
M  V30 6941 H 671.61 0.467772 -1.99181 0
M  V30 6942 H 671.62 2.64605 -3.10561 0
M  V30 6943 H 670.295 1.71737 -3.78786 0
M  V30 6944 H 668.872 2.87804 -2.37114 0
M  V30 6945 N 671.057 1.43213 0.657864 0
M  V30 6946 C 672.468 1.39669 1.23893 0
M  V30 6947 C 672.819 0.0984217 1.95953 0
M  V30 6948 O 671.944 -0.8023 2.00978 0
M  V30 6949 C 672.539 2.53004 2.25332 0
M  V30 6950 C 671.098 2.5274 2.78926 0
M  V30 6951 C 670.245 2.30941 1.53497 0
M  V30 6952 H 673.196 1.52181 0.450172 0
M  V30 6953 H 673.217 2.24226 3.07413 0
M  V30 6954 H 672.729 3.4748 1.72856 0
M  V30 6955 H 670.83 1.6213 3.35477 0
M  V30 6956 H 670.943 3.50352 3.26787 0
M  V30 6957 H 669.307 1.7952 1.80678 0
M  V30 6958 H 670.09 3.27496 1.02963 0
M  V30 6959 N 672.536 -0.895792 1.29666 0
M  V30 6960 C 673.761 -1.68528 1.20885 0
M  V30 6961 C 674.186 -1.8673 -0.226595 0
M  V30 6962 O 673.544 -1.39044 -1.16347 0
M  V30 6963 C 673.592 -3.04512 1.93144 0
M  V30 6964 O 672.696 -3.92963 1.25115 0
M  V30 6965 H 672.037 -0.515371 0.418675 0
M  V30 6966 H 674.567 -1.11878 1.71302 0
M  V30 6967 H 674.577 -3.54628 2.0175 0
M  V30 6968 H 673.252 -2.90582 2.97548 0
M  V30 6969 H 671.829 -3.51399 1.24794 0
M  V30 6970 N 674.014 -1.12206 -1.10668 0
M  V30 6971 C 675.291 -0.787382 -1.79052 0
M  V30 6972 C 675.671 0.723267 -1.98323 0
M  V30 6973 O 675.019 1.6561 -1.57434 0
M  V30 6974 C 675.229 -1.55968 -3.1221 0
M  V30 6975 C 676.577 -1.74413 -3.87125 0
M  V30 6976 O 677.601 -1.5246 -3.21923 0
M  V30 6977 O 676.46 -2.10952 -5.04144 0
M  V30 6978 H 673.554 -0.286137 -0.775922 0
M  V30 6979 H 676.1 -1.22595 -1.1734 0
M  V30 6980 H 674.872 -2.58692 -2.93588 0
M  V30 6981 H 674.495 -1.1152 -3.8164 0
M  V30 6982 N 675.492 1.28418 -0.913599 0
M  V30 6983 C 676.425 2.25557 -0.346328 0
M  V30 6984 C 677.403 1.53038 0.549366 0
M  V30 6985 O 678.587 1.81937 0.493055 0
M  V30 6986 C 675.714 3.34915 0.504961 0
M  V30 6987 C 674.76 4.25257 -0.325334 0
M  V30 6988 S 675.593 5.06718 -1.73198 0
M  V30 6989 C 676.749 6.19569 -0.887988 0
M  V30 6990 H 676.982 2.73325 -1.16965 0
M  V30 6991 H 674.515 1.36855 -0.714841 0
M  V30 6992 H 676.473 3.98376 0.990301 0
M  V30 6993 H 675.134 2.85814 1.30267 0
M  V30 6994 H 674.327 5.02947 0.325589 0
M  V30 6995 H 673.929 3.66519 -0.744321 0
M  V30 6996 H 676.221 6.77398 -0.117568 0
M  V30 6997 H 677.164 6.88908 -1.63742 0
M  V30 6998 H 677.572 5.62812 -0.436228 0
M  V30 6999 N 676.97 0.677563 1.42291 0
M  V30 7000 C 678.218 0.200578 2.01102 0
M  V30 7001 C 678.539 -1.19803 1.53858 0
M  V30 7002 O 677.809 -1.80496 0.761439 0
M  V30 7003 H 676.389 0.0711634 0.743603 0
M  V30 7004 H 679.051 0.874691 1.7417 0
M  V30 7005 H 678.147 0.204 3.11433 0
M  V30 7006 N 678.448 -1.51871 0.421078 0
M  V30 7007 C 679.411 -2.25914 -0.386712 0
M  V30 7008 C 680.411 -1.28733 -0.963555 0
M  V30 7009 O 681.601 -1.52579 -0.840556 0
M  V30 7010 C 678.733 -3.03853 -1.54551 0
M  V30 7011 H 679.926 -2.98754 0.261978 0
M  V30 7012 H 677.479 -1.5533 0.173862 0
M  V30 7013 H 678.214 -2.35392 -2.23072 0
M  V30 7014 H 677.999 -3.75215 -1.13824 0
M  V30 7015 H 679.489 -3.59984 -2.11663 0
M  V30 7016 N 679.926 -0.151884 -1.56866 0
M  V30 7017 C 681.174 0.497021 -1.95893 0
M  V30 7018 C 681.495 1.65078 -1.03799 0
M  V30 7019 O 680.765 1.95642 -0.10049 0
M  V30 7020 H 679.345 0.186603 -0.723318 0
M  V30 7021 H 682.007 -0.228525 -1.93556 0
M  V30 7022 H 681.103 0.869933 -2.99731 0
M  V30 7023 N 681.404 1.57128 0.121893 0
M  V30 7024 C 682.632 1.88883 0.844451 0
M  V30 7025 C 683.047 0.742824 1.73573 0
M  V30 7026 O 682.404 -0.286475 1.80238 0
M  V30 7027 C 682.455 3.20076 1.68029 0
M  V30 7028 O 682.176 4.30264 0.824898 0
M  V30 7029 C 683.677 3.65515 2.50826 0
M  V30 7030 H 680.897 0.62549 0.242907 0
M  V30 7031 H 683.441 2.04219 0.107151 0
M  V30 7032 H 681.596 3.06418 2.37038 0
M  V30 7033 H 682.01 5.05439 1.40113 0
M  V30 7034 H 683.484 4.60081 3.05008 0
M  V30 7035 H 683.961 2.92029 3.28048 0
M  V30 7036 H 684.567 3.81952 1.87064 0
M  V30 7037 N 682.882 -0.391992 1.52647 0
M  V30 7038 C 683.845 -1.46135 1.7657 0
M  V30 7039 C 684.845 -1.47701 0.635698 0
M  V30 7040 O 686.035 -1.48924 0.903728 0
M  V30 7041 C 683.167 -2.85443 1.86374 0
M  V30 7042 H 684.36 -1.26208 2.72051 0
M  V30 7043 H 681.913 -0.623549 1.43323 0
M  V30 7044 H 682.648 -3.10718 0.928685 0
M  V30 7045 H 682.433 -2.85708 2.68539 0
M  V30 7046 H 683.923 -3.62933 2.06566 0
M  V30 7047 N 684.36 -1.4356 -0.65026 0
M  V30 7048 C 685.323 -1.48615 -1.74489 0
M  V30 7049 C 686.323 -0.370483 -1.56474 0
M  V30 7050 O 687.513 -0.632351 -1.62317 0
M  V30 7051 C 684.645 -1.34161 -3.13391 0
M  V30 7052 H 685.838 -2.46103 -1.71387 0
M  V30 7053 H 683.391 -1.30369 -0.862186 0
M  V30 7054 H 684.126 -0.376918 -3.22102 0
M  V30 7055 H 683.911 -2.1504 -3.27872 0
M  V30 7056 H 685.401 -1.40637 -3.93206 0
M  V30 7057 N 685.838 0.888903 -1.30139 0
M  V30 7058 C 687.063 1.67884 -1.21777 0
M  V30 7059 C 687.488 1.86848 0.216689 0
M  V30 7060 O 686.846 1.39659 1.15608 0
M  V30 7061 C 686.894 3.03483 -1.94757 0
M  V30 7062 O 685.998 3.92294 -1.27198 0
M  V30 7063 H 685.339 0.513144 -0.421402 0
M  V30 7064 H 687.869 1.10968 -1.71893 0
M  V30 7065 H 687.879 3.53553 -2.03627 0
M  V30 7066 H 686.554 2.89 -2.99085 0
M  V30 7067 H 685.131 3.50732 -1.26655 0
M  V30 7068 N 687.317 1.12792 1.10072 0
M  V30 7069 C 688.542 0.908838 1.86427 0
M  V30 7070 C 688.967 -0.536793 1.80278 0
M  V30 7071 O 688.325 -1.38033 1.17543 0
M  V30 7072 C 688.373 1.39295 3.3261 0
M  V30 7073 O 687.477 0.573846 4.08388 0
M  V30 7074 H 686.818 0.326234 0.578331 0
M  V30 7075 H 689.348 1.50094 1.39043 0
M  V30 7076 H 689.358 1.39366 3.83459 0
M  V30 7077 H 688.033 2.44555 3.36401 0
M  V30 7078 H 686.61 0.640438 3.67359 0
M  V30 7079 N 688.795 -1.27931 0.920396 0
M  V30 7080 C 689.745 -2.24727 0.384966 0
M  V30 7081 C 690.729 -1.52715 -0.506661 0
M  V30 7082 O 691.921 -1.73599 -0.345298 0
M  V30 7083 C 689.05 -3.41324 -0.3678 0
M  V30 7084 C 688.136 -4.20649 0.539925 0
M  V30 7085 N 688.527 -4.77906 1.6565 0
M  V30 7086 C 686.825 -4.4469 0.341557 0
M  V30 7087 C 687.526 -5.37652 2.22047 0
M  V30 7088 N 686.502 -5.2218 1.51093 0
M  V30 7089 H 690.304 -2.66572 1.23761 0
M  V30 7090 H 687.818 -1.42779 0.773819 0
M  V30 7091 H 689.815 -4.0976 -0.768277 0
M  V30 7092 H 688.475 -3.01012 -1.21746 0
M  V30 7093 H 689.486 -4.76073 2.03899 0
M  V30 7094 H 686.163 -4.14868 -0.468045 0
M  V30 7095 H 687.553 -5.92948 3.1601 0
M  V30 7096 N 690.273 -0.685099 -1.4193 0
M  V30 7097 C 691.501 -0.220372 -2.05723 0
M  V30 7098 C 691.916 1.12642 -1.51516 0
M  V30 7099 O 691.273 1.70182 -0.659114 0
M  V30 7100 C 691.324 -0.157974 -3.61155 0
M  V30 7101 O 691.045 -1.45156 -4.13354 0
M  V30 7102 C 692.546 0.329009 -4.42077 0
M  V30 7103 H 689.766 -0.104725 -0.662777 0
M  V30 7104 H 692.31 -0.934736 -1.81887 0
M  V30 7105 H 690.465 0.507144 -3.84066 0
M  V30 7106 H 690.879 -1.33172 -5.07312 0
M  V30 7107 H 692.353 0.321559 -5.51063 0
M  V30 7108 H 692.83 1.36608 -4.17414 0
M  V30 7109 H 693.436 -0.304737 -4.24207 0
M  V30 7110 N 691.751 1.51645 -0.429126 0
M  V30 7111 C 692.661 2.31288 0.392809 0
M  V30 7112 C 693.677 1.39852 1.03525 0
M  V30 7113 O 694.853 1.72926 1.03241 0
M  V30 7114 C 691.918 3.13347 1.48372 0
M  V30 7115 C 690.979 4.20551 0.862268 0
M  V30 7116 C 690.212 4.98688 1.9012 0
M  V30 7117 O 690.435 4.77359 3.12225 0
M  V30 7118 O 689.369 5.83005 1.4963 0
M  V30 7119 H 693.195 3.02609 -0.257138 0
M  V30 7120 H 690.78 1.48163 -0.191851 0
M  V30 7121 H 692.662 3.64387 2.1166 0
M  V30 7122 H 691.337 2.44799 2.1179 0
M  V30 7123 H 690.244 3.73609 0.191568 0
M  V30 7124 H 691.577 4.91449 0.271704 0
M  V30 7125 N 693.229 0.160201 1.56784 0
M  V30 7126 C 694.475 -0.48831 1.96833 0
M  V30 7127 C 694.808 -1.63641 1.04571 0
M  V30 7128 O 694.083 -1.94289 0.0906481 0
M  V30 7129 C 694.366 -0.981908 3.46454 0
M  V30 7130 C 694.219 0.165607 4.49495 0
M  V30 7131 C 695.538 -1.85931 3.98896 0
M  V30 7132 H 692.657 -0.176027 0.71567 0
M  V30 7133 H 695.299 0.244093 1.88426 0
M  V30 7134 H 693.449 -1.60602 3.5375 0
M  V30 7135 H 695.121 0.802372 4.54268 0
M  V30 7136 H 693.364 0.822789 4.25926 0
M  V30 7137 H 694.035 -0.221699 5.51555 0
M  V30 7138 H 696.511 -1.33327 3.94161 0
M  V30 7139 H 695.387 -2.17373 5.04024 0
M  V30 7140 H 695.648 -2.80106 3.42042 0
M  V30 7141 N 694.707 -1.5719 -0.113559 0
M  V30 7142 C 695.67 -1.99796 -1.12314 0
M  V30 7143 C 696.67 -0.888847 -1.34001 0
M  V30 7144 O 697.86 -1.15476 -1.30426 0
M  V30 7145 C 694.992 -2.34279 -2.47641 0
M  V30 7146 H 696.185 -2.90193 -0.756825 0
M  V30 7147 H 693.738 -1.52144 -0.358029 0
M  V30 7148 H 694.473 -1.46778 -2.89183 0
M  V30 7149 H 694.258 -3.15175 -2.33253 0
M  V30 7150 H 695.748 -2.67963 -3.2029 0
M  V30 7151 N 696.185 0.383891 -1.52853 0
M  V30 7152 C 697.596 0.961591 -1.60032 0
M  V30 7153 C 697.947 1.90819 -0.456333 0
M  V30 7154 O 697.072 2.12288 0.419873 0
M  V30 7155 C 697.667 1.75078 -2.90057 0
M  V30 7156 C 696.226 2.2781 -2.99632 0
M  V30 7157 C 695.373 1.08512 -2.55187 0
M  V30 7158 H 698.324 0.163269 -1.57858 0
M  V30 7159 H 698.345 2.61046 -2.7683 0
M  V30 7160 H 697.857 1.06157 -3.73299 0
M  V30 7161 H 695.958 3.00028 -2.20939 0
M  V30 7162 H 696.071 2.56947 -4.0437 0
M  V30 7163 H 694.435 1.44667 -2.09627 0
M  V30 7164 H 695.218 0.41118 -3.40829 0
M  V30 7165 N 697.663 1.43903 0.642637 0
M  V30 7166 C 698.891 1.4954 1.42988 0
M  V30 7167 C 699.306 0.116588 1.8844 0
M  V30 7168 O 698.663 -0.875285 1.60141 0
M  V30 7169 C 698.714 2.45031 2.65785 0
M  V30 7170 O 698.435 3.77551 2.22232 0
M  V30 7171 C 699.936 2.60017 3.59035 0
M  V30 7172 H 697.156 0.507544 0.438907 0
M  V30 7173 H 699.7 1.88752 0.786942 0
M  V30 7174 H 697.855 2.08985 3.26196 0
M  V30 7175 H 698.269 4.29001 3.01759 0
M  V30 7176 H 699.743 3.30887 4.41835 0
M  V30 7177 H 700.22 1.64861 4.07084 0
M  V30 7178 H 700.826 2.96918 3.045 0
M  V30 7179 N 699.141 -0.881989 1.30609 0
M  V30 7180 C 700.418 -1.61563 1.10258 0
M  V30 7181 C 700.798 -2.08228 -0.347053 0
M  V30 7182 O 700.146 -1.85151 -1.33908 0
M  V30 7183 C 700.356 -2.78287 2.10612 0
M  V30 7184 C 701.704 -3.48545 2.4249 0
M  V30 7185 O 702.728 -2.88479 2.08945 0
M  V30 7186 O 701.587 -4.56873 2.99883 0
M  V30 7187 H 698.681 -0.710238 0.423663 0
M  V30 7188 H 701.227 -0.928503 1.42045 0
M  V30 7189 H 699.999 -2.41131 3.08174 0
M  V30 7190 H 699.622 -3.54695 1.79659 0
M  V30 7191 N 700.619 -1.13374 -1.09472 0
M  V30 7192 C 702.03 -0.90801 -1.63132 0
M  V30 7193 C 702.381 0.555576 -1.8817 0
M  V30 7194 O 701.506 1.42218 -1.63104 0
M  V30 7195 C 702.101 -1.64182 -2.96361 0
M  V30 7196 C 700.66 -1.46197 -3.46848 0
M  V30 7197 C 699.807 -1.67134 -2.21273 0
M  V30 7198 H 702.758 -1.2871 -0.928411 0
M  V30 7199 H 702.779 -1.09863 -3.64294 0
M  V30 7200 H 702.291 -2.707 -2.78106 0
M  V30 7201 H 700.392 -0.419788 -3.70228 0
M  V30 7202 H 700.505 -2.22472 -4.24315 0
M  V30 7203 H 698.869 -1.09616 -2.29905 0
M  V30 7204 H 699.652 -2.74971 -2.05538 0
M  V30 7205 N 702.098 1.27442 -0.927168 0
M  V30 7206 C 703.031 2.25177 -0.370232 0
M  V30 7207 C 704.009 1.53612 0.533103 0
M  V30 7208 O 705.193 1.8245 0.47373 0
M  V30 7209 C 702.32 3.35431 0.469411 0
M  V30 7210 C 701.366 4.24888 -0.370419 0
M  V30 7211 S 702.199 5.04852 -1.78562 0
M  V30 7212 C 703.355 6.18592 -0.953651 0
M  V30 7213 H 703.588 2.72069 -1.19858 0
M  V30 7214 H 701.121 1.36089 -0.729316 0
M  V30 7215 H 703.079 3.99404 0.947992 0
M  V30 7216 H 701.74 2.87179 1.27228 0
M  V30 7217 H 700.933 5.03264 0.272226 0
M  V30 7218 H 700.535 3.65709 -0.783153 0
M  V30 7219 H 702.827 6.77235 -0.189408 0
M  V30 7220 H 703.77 6.87132 -1.7104 0
M  V30 7221 H 704.178 5.62318 -0.495897 0
M  V30 7222 N 703.576 0.692616 1.41565 0
M  V30 7223 C 704.987 0.297478 1.84315 0
M  V30 7224 C 705.338 -1.16379 1.57957 0
M  V30 7225 O 704.463 -1.89303 1.0485 0
M  V30 7226 C 705.058 0.533136 3.34579 0
M  V30 7227 C 703.617 0.191944 3.7591 0
M  V30 7228 C 702.764 0.816873 2.64995 0
M  V30 7229 H 705.715 0.893488 1.31158 0
M  V30 7230 H 705.736 -0.209105 3.79925 0
M  V30 7231 H 705.248 1.59674 3.53731 0
M  V30 7232 H 703.349 -0.867512 3.6236 0
M  V30 7233 H 703.462 0.644902 4.7474 0
M  V30 7234 H 701.826 0.246715 2.53502 0
M  V30 7235 H 702.609 1.88429 2.86966 0
M  V30 7236 N 705.054 -1.51416 0.437162 0
M  V30 7237 C 706.47 -1.59349 0.0894459 0
M  V30 7238 C 706.67 -1.44809 -1.40116 0
M  V30 7239 O 705.726 -1.28924 -2.17106 0
M  V30 7240 C 707.039 -2.9446 0.609398 0
M  V30 7241 C 708.587 -3.07769 0.569824 0
M  V30 7242 C 709.062 -4.45404 1.06675 0
M  V30 7243 N 710.553 -4.51723 1.02473 0
M  V30 7244 C 711.288 -5.56544 1.3801 0
M  V30 7245 N 710.784 -6.68784 1.80831 0
M  V30 7246 N 712.577 -5.46901 1.29828 0
M  V30 7247 H 704.728 -1.59112 1.40703 0
M  V30 7248 H 706.991 -0.750031 0.579791 0
M  V30 7249 H 706.697 -3.1047 1.65231 0
M  V30 7250 H 706.571 -3.77184 0.0342236 0
M  V30 7251 H 708.958 -2.91428 -0.464107 0
M  V30 7252 H 709.039 -2.26885 1.1814 0
M  V30 7253 H 708.683 -4.62492 2.09914 0
M  V30 7254 H 708.613 -5.24827 0.431712 0
M  V30 7255 H 711.104 -3.71165 0.710258 0
M  V30 7256 H 711.417 -7.44787 2.06185 0
M  V30 7257 H 709.762 -6.69992 1.84757 0
M  V30 7258 H 712.953 -4.581 0.962397 0
M  V30 7259 H 713.126 -6.2848 1.57851 0
M  V30 7260 N 706.532 -0.168513 -1.56696 0
M  V30 7261 C 707.948 0.187686 -1.58493 0
M  V30 7262 C 708.148 1.63063 -1.18375 0
M  V30 7263 O 707.204 2.36142 -0.894042 0
M  V30 7264 C 708.517 -0.0905858 -3.00564 0
M  V30 7265 C 710.065 -0.028575 -3.12987 0
M  V30 7266 C 710.54 -0.279799 -4.57145 0
M  V30 7267 N 712.031 -0.227476 -4.62641 0
M  V30 7268 C 712.766 -0.396073 -5.7203 0
M  V30 7269 N 712.262 -0.623572 -6.89988 0
M  V30 7270 N 714.055 -0.332173 -5.61118 0
M  V30 7271 H 706.206 -1.11042 -1.81062 0
M  V30 7272 H 708.469 -0.441235 -0.839056 0
M  V30 7273 H 708.175 -1.09006 -3.34381 0
M  V30 7274 H 708.049 0.619078 -3.72085 0
M  V30 7275 H 710.436 0.961471 -2.78998 0
M  V30 7276 H 710.517 -0.770905 -2.43907 0
M  V30 7277 H 710.161 -1.26704 -4.91842 0
M  V30 7278 H 710.091 0.48311 -5.24379 0
M  V30 7279 H 712.582 -0.0571723 -3.77857 0
M  V30 7280 H 712.895 -0.741745 -7.69232 0
M  V30 7281 H 711.24 -0.660153 -6.91858 0
M  V30 7282 H 714.431 -0.155051 -4.67843 0
M  V30 7283 H 714.604 -0.466994 -6.46315 0
M  V30 7284 N 708.01 1.57248 0.105221 0
M  V30 7285 C 709.426 1.52853 0.459153 0
M  V30 7286 C 709.626 0.883674 1.8109 0
M  V30 7287 O 708.682 0.471864 2.48052 0
M  V30 7288 C 709.995 2.97596 0.43096 0
M  V30 7289 C 711.543 3.08758 0.513536 0
M  V30 7290 C 712.018 4.55089 0.515593 0
M  V30 7291 N 713.509 4.59597 0.576639 0
M  V30 7292 C 714.244 5.70253 0.599904 0
M  V30 7293 N 713.74 6.90368 0.579985 0
M  V30 7294 N 715.533 5.58399 0.643953 0
M  V30 7295 H 707.684 1.97547 -0.780306 0
M  V30 7296 H 709.947 0.902758 -0.289363 0
M  V30 7297 H 709.653 3.48201 -0.494903 0
M  V30 7298 H 709.527 3.55756 1.2537 0
M  V30 7299 H 711.914 2.58148 1.42982 0
M  V30 7300 H 711.995 2.53568 -0.337148 0
M  V30 7301 H 711.639 5.06348 -0.396701 0
M  V30 7302 H 711.569 5.08105 1.38335 0
M  V30 7303 H 714.06 3.73144 0.597639 0
M  V30 7304 H 714.373 7.70462 0.600741 0
M  V30 7305 H 712.718 6.92843 0.547191 0
M  V30 7306 H 715.909 4.63467 0.656975 0
M  V30 7307 H 716.082 6.44644 0.658616 0
M  V30 7308 N 709.488 -0.375779 1.53054 0
M  V30 7309 C 710.736 -1.11727 1.68409 0
M  V30 7310 C 711.057 -1.90127 0.43323 0
M  V30 7311 O 710.327 -1.87945 -0.552595 0
M  V30 7312 H 708.907 -0.415451 0.620813 0
M  V30 7313 H 711.569 -0.424869 1.90213 0
M  V30 7314 H 710.665 -1.8128 2.54055 0
M  V30 7315 N 710.966 -1.44241 -0.634997 0
M  V30 7316 C 712.382 -1.28043 -0.952742 0
M  V30 7317 C 712.582 -0.21338 -2.00367 0
M  V30 7318 O 711.638 0.402042 -2.49279 0
M  V30 7319 C 712.951 -2.65076 -1.41968 0
M  V30 7320 C 714.499 -2.72755 -1.53537 0
M  V30 7321 C 714.974 -4.10249 -2.03616 0
M  V30 7322 N 716.465 -4.12406 -2.10892 0
M  V30 7323 C 717.2 -5.15641 -2.50803 0
M  V30 7324 N 716.696 -6.29239 -2.89879 0
M  V30 7325 N 718.489 -5.02995 -2.50903 0
M  V30 7326 H 710.64 -2.12315 0.060098 0
M  V30 7327 H 712.903 -0.947326 -0.0357325 0
M  V30 7328 H 712.609 -3.44213 -0.721804 0
M  V30 7329 H 712.483 -2.91704 -2.39141 0
M  V30 7330 H 714.87 -1.93939 -2.22422 0
M  V30 7331 H 714.951 -2.49872 -0.547496 0
M  V30 7332 H 714.595 -4.8954 -1.35327 0
M  V30 7333 H 714.525 -4.30507 -3.03268 0
M  V30 7334 H 717.016 -3.30417 -1.83393 0
M  V30 7335 H 717.329 -7.03827 -3.19135 0
M  V30 7336 H 715.674 -6.32683 -2.8764 0
M  V30 7337 H 718.865 -4.13306 -2.19763 0
M  V30 7338 H 719.038 -5.83574 -2.81683 0
M  V30 7339 N 712.444 0.87505 -1.31075 0
M  V30 7340 C 713.691 1.62768 -1.20469 0
M  V30 7341 C 714.019 1.93034 0.23834 0
M  V30 7342 O 713.274 1.55693 1.18567 0
M  V30 7343 C 713.573 2.96948 -1.98888 0
M  V30 7344 C 713.239 2.86195 -3.4843 0
M  V30 7345 C 711.901 2.82969 -3.89207 0
M  V30 7346 C 714.253 2.73599 -4.43614 0
M  V30 7347 C 711.581 2.64999 -5.23443 0
M  V30 7348 C 713.933 2.57166 -5.77969 0
M  V30 7349 C 712.597 2.52321 -6.17973 0
M  V30 7350 H 711.867 0.595611 -0.440827 0
M  V30 7351 H 714.514 1.01665 -1.62285 0
M  V30 7352 H 712.819 3.62058 -1.49737 0
M  V30 7353 H 714.516 3.54164 -1.88067 0
M  V30 7354 H 711.106 2.8952 -3.16032 0
M  V30 7355 H 715.29 2.7515 -4.13045 0
M  V30 7356 H 710.546 2.5967 -5.53517 0
M  V30 7357 H 714.72 2.46396 -6.51354 0
M  V30 7358 H 712.347 2.38156 -7.21932 0
M  V30 7359 N 713.922 1.13953 1.08869 0
M  V30 7360 C 714.869 0.82213 2.15661 0
M  V30 7361 C 715.839 -0.218274 1.6466 0
M  V30 7362 O 717.024 -0.0892475 1.90591 0
M  V30 7363 C 714.164 0.300572 3.43789 0
M  V30 7364 C 713.277 1.40071 4.08661 0
M  V30 7365 C 712.412 0.836897 5.24566 0
M  V30 7366 C 711.451 1.91504 5.81371 0
M  V30 7367 N 710.588 1.36875 6.88629 0
M  V30 7368 H 715.428 1.73683 2.42153 0
M  V30 7369 H 712.965 0.866879 1.18843 0
M  V30 7370 H 714.923 -0.0199943 4.17195 0
M  V30 7371 H 713.553 -0.577248 3.17597 0
M  V30 7372 H 712.605 1.83776 3.33062 0
M  V30 7373 H 713.917 2.21534 4.46905 0
M  V30 7374 H 713.071 0.467953 6.04893 0
M  V30 7375 H 711.81 -0.00874207 4.87699 0
M  V30 7376 H 710.815 2.29299 4.99702 0
M  V30 7377 H 712.04 2.76419 6.20298 0
M  V30 7378 H 709.986 0.545211 6.5373 0
M  V30 7379 H 709.903 2.1198 7.25672 0
M  V30 7380 H 711.171 1.02756 7.72698 0
M  V30 7381 N 715.4 -1.26948 0.933913 0
M  V30 7382 C 716.648 -1.93704 0.576484 0
M  V30 7383 C 716.969 -1.73702 -0.886145 0
M  V30 7384 O 716.239 -1.08838 -1.62884 0
M  V30 7385 H 714.819 -0.716812 0.210214 0
M  V30 7386 H 717.481 -1.54534 1.18766 0
M  V30 7387 H 716.577 -3.01987 0.788055 0
M  V30 7388 N 716.879 -0.700114 -1.41195 0
M  V30 7389 C 717.809 -0.0521132 -2.33442 0
M  V30 7390 C 718.79 0.76228 -1.52063 0
M  V30 7391 O 719.975 0.714336 -1.80585 0
M  V30 7392 C 717.105 0.881693 -3.35922 0
M  V30 7393 C 716.059 0.174062 -4.27646 0
M  V30 7394 C 715.385 1.22254 -5.20536 0
M  V30 7395 C 716.685 -0.962396 -5.13357 0
M  V30 7396 H 718.379 -0.822574 -2.87879 0
M  V30 7397 H 715.925 -0.397011 -1.38419 0
M  V30 7398 H 717.878 1.34429 -3.99383 0
M  V30 7399 H 716.602 1.68387 -2.79845 0
M  V30 7400 H 715.261 -0.268551 -3.65615 0
M  V30 7401 H 714.909 2.01736 -4.60773 0
M  V30 7402 H 714.609 0.754038 -5.82742 0
M  V30 7403 H 716.133 1.68555 -5.86874 0
M  V30 7404 H 717.547 -0.579875 -5.7036 0
M  V30 7405 H 715.944 -1.35828 -5.84526 0
M  V30 7406 H 717.014 -1.80003 -4.50252 0
M  V30 7407 N 718.357 1.51182 -0.445186 0
M  V30 7408 C 719.305 2.29531 0.376597 0
M  V30 7409 C 720.299 1.35711 1.01385 0
M  V30 7410 O 721.505 1.53018 0.947922 0
M  V30 7411 H 717.88 0.738803 0.140267 0
M  V30 7412 H 719.851 2.96838 -0.304958 0
M  V30 7413 C 718.6 3.1552 1.4609 0
M  V30 7414 H 717.923 3.87605 0.979912 0
M  V30 7415 H 719.363 3.73384 2.009 0
M  V30 7416 C 717.822 2.31406 2.44852 0
M  V30 7417 O 718.352 1.97912 3.49562 0
M  V30 7418 N 716.558 1.94478 2.15932 0
M  V30 7419 H 716.105 2.21917 1.30808 0
M  V30 7420 H 716.063 1.38498 2.82251 0
M  V30 7421 N 719.835 0.176821 1.56605 0
M  V30 7422 C 721.083 -0.465793 1.96659 0
M  V30 7423 C 721.404 -1.63406 1.06412 0
M  V30 7424 O 720.674 -1.95457 0.131603 0
M  V30 7425 H 719.254 -0.175072 0.726195 0
M  V30 7426 H 721.916 0.25929 1.93168 0
M  V30 7427 H 721.012 -0.822138 3.01077 0
M  V30 7428 N 721.313 -1.57302 -0.09688 0
M  V30 7429 C 722.729 -1.53094 -0.451041 0
M  V30 7430 C 722.929 -0.893265 -1.80618 0
M  V30 7431 O 721.985 -0.485013 -2.47798 0
M  V30 7432 C 723.298 -2.9782 -0.415172 0
M  V30 7433 C 724.846 -3.09026 -0.497155 0
M  V30 7434 C 725.321 -4.55356 -0.491452 0
M  V30 7435 N 726.812 -4.59896 -0.552258 0
M  V30 7436 C 727.547 -5.70563 -0.569654 0
M  V30 7437 N 727.043 -6.90666 -0.543365 0
M  V30 7438 N 728.836 -5.58733 -0.614331 0
M  V30 7439 H 720.987 -1.97131 0.790771 0
M  V30 7440 H 723.25 -0.901211 0.294147 0
M  V30 7441 H 722.956 -3.47933 0.513362 0
M  V30 7442 H 722.83 -3.56416 -1.23481 0
M  V30 7443 H 725.217 -2.58902 -1.41611 0
M  V30 7444 H 725.298 -2.53386 0.35059 0
M  V30 7445 H 724.942 -5.06131 0.423549 0
M  V30 7446 H 724.872 -5.08832 -1.35639 0
M  V30 7447 H 727.363 -3.73456 -0.577842 0
M  V30 7448 H 727.676 -7.70769 -0.559873 0
M  V30 7449 H 726.021 -6.93123 -0.510441 0
M  V30 7450 H 729.212 -4.63809 -0.632387 0
M  V30 7451 H 729.385 -6.44984 -0.62442 0
M  V30 7452 N 722.791 0.367657 -1.53252 0
M  V30 7453 C 724.021 1.12955 -1.72988 0
M  V30 7454 C 724.429 1.8358 -0.457708 0
M  V30 7455 O 723.772 1.74336 0.579006 0
M  V30 7456 C 723.834 2.20545 -2.83902 0
M  V30 7457 C 723.498 1.69704 -4.24323 0
M  V30 7458 C 724.495 1.16223 -5.06743 0
M  V30 7459 C 722.18 1.7528 -4.70725 0
M  V30 7460 C 724.174 0.689935 -6.33655 0
M  V30 7461 C 721.861 1.27662 -5.97617 0
M  V30 7462 C 722.859 0.746083 -6.78913 0
M  V30 7463 O 722.547 0.276925 -8.03423 0
M  V30 7464 H 722.279 0.343753 -0.582074 0
M  V30 7465 H 724.833 0.433106 -2.00782 0
M  V30 7466 H 723.063 2.93676 -2.51577 0
M  V30 7467 H 724.752 2.82111 -2.91836 0
M  V30 7468 H 725.518 1.11256 -4.72067 0
M  V30 7469 H 721.397 2.15515 -4.07522 0
M  V30 7470 H 724.941 0.275164 -6.97057 0
M  V30 7471 H 720.838 1.32322 -6.31792 0
M  V30 7472 H 721.606 0.396445 -8.17539 0
M  V30 7473 N 724.269 1.44576 0.627338 0
M  V30 7474 C 725.516 1.47558 1.38682 0
M  V30 7475 C 725.844 0.109636 1.94191 0
M  V30 7476 O 725.099 -0.889092 1.74338 0
M  V30 7477 C 725.398 2.48644 2.56731 0
M  V30 7478 C 725.064 3.93873 2.19489 0
M  V30 7479 C 723.726 4.33421 2.09045 0
M  V30 7480 C 726.078 4.85286 1.90124 0
M  V30 7481 C 723.406 5.62303 1.6743 0
M  V30 7482 C 725.758 6.14559 1.50001 0
M  V30 7483 C 724.422 6.53058 1.38101 0
M  V30 7484 H 723.692 0.539955 0.507474 0
M  V30 7485 H 726.339 1.77811 0.711021 0
M  V30 7486 H 724.644 2.11889 3.29561 0
M  V30 7487 H 726.341 2.48197 3.14959 0
M  V30 7488 H 722.931 3.62587 2.28537 0
M  V30 7489 H 727.115 4.55483 1.971 0
M  V30 7490 H 722.371 5.90945 1.56823 0
M  V30 7491 H 726.545 6.84848 1.26319 0
M  V30 7492 H 724.172 7.52826 1.05628 0
M  V30 7493 N 725.747 -0.868086 1.31537 0
M  V30 7494 C 726.679 -1.98165 1.15166 0
M  V30 7495 C 727.692 -1.6255 0.0902335 0
M  V30 7496 O 728.881 -1.75272 0.33791 0
M  V30 7497 C 725.981 -3.30772 0.737776 0
M  V30 7498 C 725.154 -3.94716 1.88462 0
M  V30 7499 C 724.213 -5.05641 1.45648 0
M  V30 7500 O 723.239 -5.2636 2.16642 0
M  V30 7501 N 724.441 -5.79474 0.34493 0
M  V30 7502 H 727.206 -2.12754 2.11083 0
M  V30 7503 H 724.767 -1.04217 1.23897 0
M  V30 7504 H 726.759 -4.02366 0.434032 0
M  V30 7505 H 725.329 -3.1233 -0.129834 0
M  V30 7506 H 724.549 -3.16079 2.35558 0
M  V30 7507 H 725.837 -4.34175 2.65273 0
M  V30 7508 H 725.235 -5.65164 -0.246259 0
M  V30 7509 H 723.792 -6.51722 0.100728 0
M  V30 7510 N 727.225 -1.14528 -1.08264 0
M  V30 7511 C 728.157 -0.791325 -2.15106 0
M  V30 7512 C 729.17 0.192449 -1.61659 0
M  V30 7513 O 730.359 -0.0294704 -1.78476 0
M  V30 7514 C 727.459 -0.154183 -3.38549 0
M  V30 7515 C 726.632 -1.17305 -4.21377 0
M  V30 7516 C 725.691 -0.559401 -5.23218 0
M  V30 7517 O 724.717 -1.22277 -5.55911 0
M  V30 7518 N 725.919 0.663159 -5.767 0
M  V30 7519 H 728.684 -1.71076 -2.46075 0
M  V30 7520 H 726.245 -1.0399 -1.24087 0
M  V30 7521 H 728.237 0.268884 -4.03806 0
M  V30 7522 H 726.807 0.668418 -3.0537 0
M  V30 7523 H 726.027 -1.773 -3.52077 0
M  V30 7524 H 727.315 -1.86128 -4.73533 0
M  V30 7525 H 726.713 1.22066 -5.52373 0
M  V30 7526 H 725.27 1.02871 -6.43631 0
M  V30 7527 N 728.703 1.26451 -0.940633 0
M  V30 7528 C 729.635 2.25556 -0.407104 0
M  V30 7529 C 730.648 1.55888 0.469324 0
M  V30 7530 O 731.837 1.76292 0.279858 0
M  V30 7531 C 728.937 3.36109 0.434064 0
M  V30 7532 C 728.11 4.3532 -0.426082 0
M  V30 7533 C 727.169 5.25004 0.354563 0
M  V30 7534 O 726.195 5.68684 -0.242219 0
M  V30 7535 N 727.397 5.5652 1.65123 0
M  V30 7536 H 730.162 2.7197 -1.25907 0
M  V30 7537 H 727.723 1.40212 -0.809456 0
M  V30 7538 H 729.715 3.93059 0.963684 0
M  V30 7539 H 728.285 2.89194 1.18683 0
M  V30 7540 H 727.505 3.77449 -1.13692 0
M  V30 7541 H 728.793 4.986 -1.01366 0
M  V30 7542 H 728.191 5.22912 2.15822 0
M  V30 7543 H 726.748 6.16115 2.12711 0
M  V30 7544 N 730.181 0.707592 1.40822 0
M  V30 7545 C 731.091 0.0507246 2.34545 0
M  V30 7546 C 732.107 -0.752727 1.56876 0
M  V30 7547 O 733.283 -0.687524 1.89302 0
M  V30 7548 C 730.348 -0.865731 3.35717 0
M  V30 7549 C 729.409 -0.0531313 4.29267 0
M  V30 7550 C 728.642 -0.925939 5.25606 0
M  V30 7551 O 728.865 -2.16531 5.27703 0
M  V30 7552 O 727.799 -0.369194 6.00767 0
M  V30 7553 H 731.625 0.823587 2.9232 0
M  V30 7554 H 729.21 0.46801 1.4188 0
M  V30 7555 H 731.092 -1.39091 3.97783 0
M  V30 7556 H 729.767 -1.61788 2.80368 0
M  V30 7557 H 728.674 0.516931 3.70511 0
M  V30 7558 H 730.007 0.660617 4.87747 0
M  V30 7559 N 731.66 -1.50943 0.453197 0
M  V30 7560 C 733.071 -1.86699 -0.00619892 0
M  V30 7561 C 733.422 -1.3693 -1.40515 0
M  V30 7562 O 732.547 -0.726715 -2.03833 0
M  V30 7563 C 733.142 -3.38795 -0.018025 0
M  V30 7564 C 731.701 -3.74028 -0.421885 0
M  V30 7565 C 730.848 -2.74752 0.375087 0
M  V30 7566 H 733.799 -1.43942 0.668317 0
M  V30 7567 H 733.82 -3.71468 -0.824125 0
M  V30 7568 H 733.332 -3.74988 1.00028 0
M  V30 7569 H 731.433 -3.43431 -1.44521 0
M  V30 7570 H 731.546 -4.78908 -0.135664 0
M  V30 7571 H 729.91 -2.5414 -0.168794 0
M  V30 7572 H 730.693 -3.13787 1.39256 0
M  V30 7573 N 733.138 -0.185124 -1.56509 0
M  V30 7574 C 734.048 0.751908 -2.22224 0
M  V30 7575 C 735.064 1.24244 -1.21817 0
M  V30 7576 O 736.24 1.29169 -1.54523 0
M  V30 7577 C 733.305 1.95837 -2.86092 0
M  V30 7578 C 732.366 1.51337 -4.01741 0
M  V30 7579 C 731.599 2.66233 -4.62554 0
M  V30 7580 O 731.822 3.8346 -4.22273 0
M  V30 7581 O 730.756 2.39517 -5.52191 0
M  V30 7582 H 734.582 0.222304 -3.02885 0
M  V30 7583 H 732.167 0.0437141 -1.49336 0
M  V30 7584 H 734.049 2.66368 -3.26536 0
M  V30 7585 H 732.724 2.47677 -2.08417 0
M  V30 7586 H 731.631 0.777155 -3.65939 0
M  V30 7587 H 732.964 1.04175 -4.81049 0
M  V30 7588 N 734.616 1.57351 0.0885366 0
M  V30 7589 C 736.027 1.75303 0.642308 0
M  V30 7590 C 736.378 0.808238 1.78779 0
M  V30 7591 O 735.503 -0.01171 2.16397 0
M  V30 7592 C 736.098 3.17885 1.17194 0
M  V30 7593 C 734.657 3.37239 1.67172 0
M  V30 7594 C 733.804 2.7108 0.584045 0
M  V30 7595 H 736.755 1.58103 -0.137567 0
M  V30 7596 H 736.776 3.2112 2.04114 0
M  V30 7597 H 736.288 3.86625 0.338024 0
M  V30 7598 H 734.389 2.73588 2.52943 0
M  V30 7599 H 734.502 4.45594 1.76019 0
M  V30 7600 H 732.866 2.33161 1.02508 0
M  V30 7601 H 733.649 3.42464 -0.239403 0
M  V30 7602 N 736.094 -0.359525 1.53444 0
M  V30 7603 C 737.342 -1.09935 1.69584 0
M  V30 7604 C 737.663 -1.89656 0.453371 0
M  V30 7605 O 736.933 -1.8852 -0.53263 0
M  V30 7606 H 735.513 -0.408843 0.625185 0
M  V30 7607 H 738.175 -0.40467 1.90653 0
M  V30 7608 H 737.271 -1.78575 2.55964 0
M  V30 7609 N 737.572 -1.44907 -0.619662 0
M  V30 7610 C 738.502 -1.55488 -1.742 0
M  V30 7611 C 739.483 -0.407143 -1.65156 0
M  V30 7612 O 740.668 -0.628743 -1.8374 0
M  V30 7613 C 737.798 -1.5097 -3.1277 0
M  V30 7614 C 736.752 -2.64337 -3.36615 0
M  V30 7615 C 736.078 -2.44872 -4.75333 0
M  V30 7616 C 737.378 -4.06423 -3.28051 0
M  V30 7617 H 739.072 -2.49432 -1.65602 0
M  V30 7618 H 736.618 -1.20047 -0.795281 0
M  V30 7619 H 738.571 -1.56971 -3.91073 0
M  V30 7620 H 737.295 -0.535486 -3.2218 0
M  V30 7621 H 735.954 -2.57744 -2.60698 0
M  V30 7622 H 735.602 -1.45617 -4.81461 0
M  V30 7623 H 735.302 -3.20888 -4.92244 0
M  V30 7624 H 736.826 -2.52709 -5.55851 0
M  V30 7625 H 738.24 -4.14324 -3.96243 0
M  V30 7626 H 736.637 -4.82733 -3.56495 0
M  V30 7627 H 737.707 -4.29183 -2.25676 0
M  V30 7628 N 739.05 0.861098 -1.31996 0
M  V30 7629 C 739.982 1.97551 -1.16216 0
M  V30 7630 C 740.995 1.625 -0.0988527 0
M  V30 7631 O 742.184 1.75091 -0.3472 0
M  V30 7632 C 739.284 3.30376 -0.755307 0
M  V30 7633 C 738.457 3.93711 -1.90552 0
M  V30 7634 C 737.516 5.04862 -1.48328 0
M  V30 7635 O 736.542 5.25204 -2.19431 0
M  V30 7636 N 737.744 5.79283 -0.375656 0
M  V30 7637 H 740.509 2.11632 -2.12208 0
M  V30 7638 H 738.07 1.03559 -1.24448 0
M  V30 7639 H 740.062 4.0213 -0.455364 0
M  V30 7640 H 738.632 3.12395 0.113269 0
M  V30 7641 H 737.852 3.14825 -2.37231 0
M  V30 7642 H 739.14 4.32762 -2.67571 0
M  V30 7643 H 738.538 5.65286 0.216284 0
M  V30 7644 H 737.095 6.5166 -0.135289 0
M  V30 7645 N 740.528 1.15101 1.07655 0
M  V30 7646 C 741.776 0.922149 1.79836 0
M  V30 7647 C 742.097 -0.552346 1.87014 0
M  V30 7648 O 741.367 -1.40145 1.3688 0
M  V30 7649 H 739.947 0.338182 0.666064 0
M  V30 7650 H 742.609 1.45107 1.30115 0
M  V30 7651 H 741.705 1.32883 2.82398 0
M  V30 7652 N 742.006 -1.2595 0.947325 0
M  V30 7653 C 743.254 -1.93081 0.596996 0
M  V30 7654 C 743.575 -1.74632 -0.867672 0
M  V30 7655 O 742.845 -1.1056 -1.6172 0
M  V30 7656 H 741.425 -0.714542 0.217805 0
M  V30 7657 H 744.087 -1.53265 1.20398 0
M  V30 7658 H 743.183 -3.01134 0.82004 0
M  V30 7659 N 743.484 -0.715051 -1.40445 0
M  V30 7660 C 744.417 -0.0112426 -2.28197 0
M  V30 7661 C 745.395 0.768211 -1.43308 0
M  V30 7662 O 746.579 0.754961 -1.72721 0
M  V30 7663 C 743.706 0.991453 -3.23864 0
M  V30 7664 C 742.752 0.302873 -4.25423 0
M  V30 7665 S 743.585 -0.968852 -5.26663 0
M  V30 7666 C 744.741 0.0317538 -6.25892 0
M  V30 7667 H 744.974 -0.755467 -2.87541 0
M  V30 7668 H 742.507 -0.506054 -1.45871 0
M  V30 7669 H 744.465 1.56475 -3.79507 0
M  V30 7670 H 743.126 1.70838 -2.63578 0
M  V30 7671 H 742.319 1.06086 -4.92709 0
M  V30 7672 H 741.921 -0.197853 -3.73476 0
M  V30 7673 H 744.213 0.878764 -6.71777 0
M  V30 7674 H 745.156 -0.607698 -7.05488 0
M  V30 7675 H 745.564 0.39524 -5.63115 0
M  V30 7676 N 744.962 1.50701 -0.461195 0
M  V30 7677 C 745.872 2.32069 0.343661 0
M  V30 7678 C 746.888 1.42016 1.00535 0
M  V30 7679 O 748.064 1.75077 0.995498 0
M  V30 7680 C 745.129 3.16424 1.41692 0
M  V30 7681 C 744.19 4.22286 0.772869 0
M  V30 7682 C 743.423 5.02609 1.79499 0
M  V30 7683 O 743.646 4.83874 3.0203 0
M  V30 7684 O 742.58 5.86047 1.3723 0
M  V30 7685 H 746.406 3.01996 -0.321268 0
M  V30 7686 H 743.991 1.47723 -0.223235 0
M  V30 7687 H 745.873 3.68795 2.03883 0
M  V30 7688 H 744.548 2.49236 2.0655 0
M  V30 7689 H 743.455 3.73931 0.112277 0
M  V30 7690 H 744.788 4.91915 0.167399 0
M  V30 7691 N 746.441 0.193421 1.56409 0
M  V30 7692 C 747.404 -0.714371 2.17783 0
M  V30 7693 C 748.404 -1.1422 1.13183 0
M  V30 7694 O 749.594 -1.05557 1.38576 0
M  V30 7695 C 746.726 -1.97509 2.77855 0
M  V30 7696 H 747.919 -0.179714 2.99361 0
M  V30 7697 H 745.472 -0.0561944 1.56199 0
M  V30 7698 H 746.207 -2.5523 2.0007 0
M  V30 7699 H 745.992 -1.67706 3.54425 0
M  V30 7700 H 747.482 -2.62246 3.24987 0
M  V30 7701 N 747.919 -1.57396 -0.0801906 0
M  V30 7702 C 749.144 -1.91437 -0.797909 0
M  V30 7703 C 749.569 -0.789075 -1.70749 0
M  V30 7704 O 748.927 0.25857 -1.79447 0
M  V30 7705 C 748.975 -3.24402 -1.57467 0
M  V30 7706 O 748.079 -3.13043 -2.68473 0
M  V30 7707 H 747.42 -0.627109 -0.218243 0
M  V30 7708 H 749.95 -2.04537 -0.050949 0
M  V30 7709 H 749.96 -3.58072 -1.95571 0
M  V30 7710 H 748.635 -4.05884 -0.907229 0
M  V30 7711 H 747.212 -2.90915 -2.33287 0
M  V30 7712 N 749.397 0.351382 -1.53633 0
M  V30 7713 C 750.36 1.41403 -1.80383 0
M  V30 7714 C 751.36 1.45963 -0.674635 0
M  V30 7715 O 752.55 1.46476 -0.942895 0
M  V30 7716 C 749.682 2.80401 -1.93876 0
M  V30 7717 H 750.875 1.18951 -2.75301 0
M  V30 7718 H 748.428 0.58533 -1.44926 0
M  V30 7719 H 749.163 3.08147 -1.01074 0
M  V30 7720 H 748.948 2.78488 -2.7602 0
M  V30 7721 H 750.438 3.57329 -2.16116 0
M  V30 7722 N 750.875 1.45233 0.611969 0
M  V30 7723 C 751.807 1.49575 1.73666 0
M  V30 7724 C 752.82 0.386987 1.58134 0
M  V30 7725 O 754.009 0.653804 1.66095 0
M  V30 7726 C 751.109 1.33223 3.11617 0
M  V30 7727 C 750.282 2.57694 3.5343 0
M  V30 7728 C 749.341 2.35962 4.70328 0
M  V30 7729 O 748.367 3.09553 4.77667 0
M  V30 7730 N 749.569 1.40243 5.63305 0
M  V30 7731 H 752.334 2.46539 1.70407 0
M  V30 7732 H 749.895 1.40917 0.79712 0
M  V30 7733 H 751.887 1.16502 3.87569 0
M  V30 7734 H 750.457 0.44551 3.09409 0
M  V30 7735 H 749.677 2.8956 2.67486 0
M  V30 7736 H 750.965 3.40441 3.78124 0
M  V30 7737 H 750.363 0.795023 5.60086 0
M  V30 7738 H 748.92 1.29496 6.38807 0
M  V30 7739 N 752.353 -0.854086 1.3245 0
M  V30 7740 C 753.764 -1.42427 1.20712 0
M  V30 7741 C 754.115 -1.95371 -0.18013 0
M  V30 7742 O 753.24 -1.87587 -1.07889 0
M  V30 7743 C 753.835 -2.58897 2.18536 0
M  V30 7744 C 752.394 -3.11913 2.10683 0
M  V30 7745 C 751.541 -1.84661 2.06871 0
M  V30 7746 H 754.492 -0.661192 1.4427 0
M  V30 7747 H 754.513 -3.36074 1.78422 0
M  V30 7748 H 754.025 -2.20333 3.19492 0
M  V30 7749 H 752.126 -3.55059 1.12977 0
M  V30 7750 H 752.239 -3.73119 3.00532 0
M  V30 7751 H 750.603 -2.04285 1.52118 0
M  V30 7752 H 751.386 -1.48314 3.09609 0
M  V30 7753 N 753.831 -1.1567 -1.07043 0
M  V30 7754 C 755.242 -0.942408 -1.61169 0
M  V30 7755 C 755.593 0.515537 -1.89306 0
M  V30 7756 O 754.718 1.38726 -1.66084 0
M  V30 7757 C 755.313 -1.70431 -2.92812 0
M  V30 7758 C 753.872 -1.53521 -3.43669 0
M  V30 7759 C 753.019 -1.7179 -2.17678 0
M  V30 7760 H 755.97 -1.3065 -0.9009 0
M  V30 7761 H 755.991 -1.17566 -3.61882 0
M  V30 7762 H 755.503 -2.76538 -2.72302 0
M  V30 7763 H 753.604 -0.498224 -3.69254 0
M  V30 7764 H 753.717 -2.31422 -4.19501 0
M  V30 7765 H 752.081 -1.14468 -2.27529 0
M  V30 7766 H 752.864 -2.79269 -1.99659 0
M  V30 7767 N 755.309 1.25446 -0.953992 0
M  V30 7768 C 756.537 1.97215 -0.625595 0
M  V30 7769 C 756.952 1.70911 0.802168 0
M  V30 7770 O 756.309 0.984782 1.5365 0
M  V30 7771 C 756.36 3.50777 -0.873943 0
M  V30 7772 O 756.081 3.76173 -2.24556 0
M  V30 7773 C 757.582 4.39776 -0.557845 0
M  V30 7774 H 754.802 0.628652 -0.2346 0
M  V30 7775 H 757.346 1.59632 -1.27819 0
M  V30 7776 H 755.501 3.86474 -0.267765 0
M  V30 7777 H 755.915 4.70636 -2.31522 0
M  V30 7778 H 757.389 5.46431 -0.782157 0
M  V30 7779 H 757.866 4.36257 0.507573 0
M  V30 7780 H 758.472 4.09644 -1.14332 0
M  V30 7781 N 756.787 0.722489 1.40064 0
M  V30 7782 C 758.012 0.273446 2.05589 0
M  V30 7783 C 758.437 -1.07875 1.54093 0
M  V30 7784 O 757.795 -1.68095 0.679252 0
M  V30 7785 C 757.843 0.271023 3.5958 0
M  V30 7786 O 756.947 -0.745499 4.05606 0
M  V30 7787 H 756.288 0.126856 0.65177 0
M  V30 7788 H 758.818 0.984906 1.79334 0
M  V30 7789 H 758.828 0.111084 4.07849 0
M  V30 7790 H 757.503 1.25776 3.96425 0
M  V30 7791 H 756.08 -0.552719 3.68781 0
M  V30 7792 N 758.265 -1.50454 0.469181 0
M  V30 7793 C 759.175 -2.32248 -0.331349 0
M  V30 7794 C 760.191 -1.42548 -0.997807 0
M  V30 7795 O 761.367 -1.75602 -0.9862 0
M  V30 7796 C 758.432 -3.17171 -1.40012 0
M  V30 7797 C 757.493 -4.2269 -0.750463 0
M  V30 7798 C 756.726 -5.03554 -1.76831 0
M  V30 7799 O 756.949 -4.85469 -2.99459 0
M  V30 7800 O 755.883 -5.86767 -1.3412 0
M  V30 7801 H 759.709 -3.01821 0.337279 0
M  V30 7802 H 757.294 -1.47602 0.231066 0
M  V30 7803 H 759.176 -3.69871 -2.01924 0
M  V30 7804 H 757.851 -2.50328 -2.05226 0
M  V30 7805 H 756.758 -3.73986 -0.0924446 0
M  V30 7806 H 758.091 -4.91997 -0.14131 0
M  V30 7807 N 759.743 -0.201713 -1.56304 0
M  V30 7808 C 760.706 0.702811 -2.18159 0
M  V30 7809 C 761.706 1.13619 -1.13787 0
M  V30 7810 O 762.896 1.0482 -1.39134 0
M  V30 7811 C 760.028 1.96032 -2.78898 0
M  V30 7812 H 761.221 0.163836 -2.99452 0
M  V30 7813 H 758.774 0.04791 -1.56227 0
M  V30 7814 H 759.509 2.54165 -2.01421 0
M  V30 7815 H 759.294 1.65824 -3.55309 0
M  V30 7816 H 760.784 2.60519 -3.26373 0
M  V30 7817 N 761.222 1.57436 0.0718424 0
M  V30 7818 C 762.185 2.02703 1.06977 0
M  V30 7819 C 763.185 0.924062 1.31597 0
M  V30 7820 O 764.375 1.18894 1.27318 0
M  V30 7821 C 761.507 2.40763 2.41342 0
M  V30 7822 H 762.7 2.92098 0.679619 0
M  V30 7823 H 760.253 1.5304 0.317565 0
M  V30 7824 H 760.988 1.54394 2.8519 0
M  V30 7825 H 760.773 3.21249 2.24814 0
M  V30 7826 H 762.263 2.76361 3.13073 0
M  V30 7827 N 762.7 -0.34323 1.53817 0
M  V30 7828 C 763.946 -1.08504 1.71332 0
M  V30 7829 C 764.279 -1.88294 0.475285 0
M  V30 7830 O 763.554 -1.87205 -0.527688 0
M  V30 7831 C 763.837 -2.02597 2.97702 0
M  V30 7832 C 763.69 -1.26268 4.31713 0
M  V30 7833 C 765.009 -3.0241 3.19744 0
M  V30 7834 H 762.128 -0.393072 0.623429 0
M  V30 7835 H 764.77 -0.363579 1.86489 0
M  V30 7836 H 762.92 -2.64118 2.8491 0
M  V30 7837 H 764.592 -0.673594 4.56356 0
M  V30 7838 H 762.835 -0.564696 4.30109 0
M  V30 7839 H 763.506 -1.95253 5.16314 0
M  V30 7840 H 765.982 -2.51004 3.31868 0
M  V30 7841 H 764.858 -3.65449 4.09558 0
M  V30 7842 H 765.119 -3.73806 2.36054 0
M  V30 7843 N 764.178 -1.45556 -0.604258 0
M  V30 7844 C 765.126 -1.5482 -1.7359 0
M  V30 7845 C 766.12 -0.417966 -1.64163 0
M  V30 7846 O 767.326 -0.594007 -1.69916 0
M  V30 7847 H 763.701 -0.486352 -0.573556 0
M  V30 7848 H 765.672 -2.5001 -1.62903 0
M  V30 7849 C 764.421 -1.53521 -3.11972 0
M  V30 7850 H 763.744 -2.39818 -3.19886 0
M  V30 7851 H 765.184 -1.64061 -3.90973 0
M  V30 7852 C 763.643 -0.260191 -3.35894 0
M  V30 7853 O 764.173 0.658582 -3.96265 0
M  V30 7854 N 762.379 -0.154839 -2.90187 0
M  V30 7855 H 761.926 -0.903378 -2.4124 0
M  V30 7856 H 761.884 0.697437 -3.06567 0
M  V30 7857 N 765.656 0.84705 -1.32902 0
M  V30 7858 C 766.588 1.96308 -1.18304 0
M  V30 7859 C 767.601 1.62386 -0.116082 0
M  V30 7860 O 768.79 1.74713 -0.365751 0
M  V30 7861 C 765.89 3.29556 -0.790305 0
M  V30 7862 C 765.063 3.91668 -1.94717 0
M  V30 7863 C 764.122 5.0326 -1.53674 0
M  V30 7864 O 763.148 5.22847 -2.24989 0
M  V30 7865 N 764.35 5.78852 -0.437075 0
M  V30 7866 H 767.115 2.09369 -2.14441 0
M  V30 7867 H 764.676 1.02233 -1.25539 0
M  V30 7868 H 766.668 4.01624 -0.49799 0
M  V30 7869 H 765.238 3.12497 0.0801286 0
M  V30 7870 H 764.458 3.12292 -2.40557 0
M  V30 7871 H 765.746 4.299 -2.72146 0
M  V30 7872 H 765.144 5.65484 0.156316 0
M  V30 7873 H 763.701 6.51479 -0.204399 0
M  V30 7874 N 767.134 1.16236 1.06428 0
M  V30 7875 C 768.067 0.81119 2.13295 0
M  V30 7876 C 769.045 -0.216555 1.61151 0
M  V30 7877 O 770.229 -0.100949 1.88229 0
M  V30 7878 C 767.356 0.207901 3.38061 0
M  V30 7879 C 766.402 1.20904 4.09004 0
M  V30 7880 S 767.235 2.75513 4.59187 0
M  V30 7881 C 768.391 2.1663 5.87216 0
M  V30 7882 H 768.624 1.71632 2.42755 0
M  V30 7883 H 766.157 0.985693 1.18842 0
M  V30 7884 H 768.115 -0.133715 4.10282 0
M  V30 7885 H 766.776 -0.67497 3.06762 0
M  V30 7886 H 765.969 0.735326 4.98607 0
M  V30 7887 H 765.571 1.49567 3.42791 0
M  V30 7888 H 767.863 1.53413 6.59902 0
M  V30 7889 H 768.806 3.04437 6.39315 0
M  V30 7890 H 769.214 1.60565 5.41183 0
M  V30 7891 N 768.612 -1.24939 0.960631 0
M  V30 7892 C 769.522 -2.29374 0.492435 0
M  V30 7893 C 770.538 -1.68262 -0.443154 0
M  V30 7894 O 771.714 -1.98875 -0.31793 0
M  V30 7895 C 768.779 -3.46023 -0.216626 0
M  V30 7896 C 767.84 -4.22557 0.757915 0
M  V30 7897 C 767.073 -5.33636 0.0825969 0
M  V30 7898 O 767.296 -5.59084 -1.13054 0
M  V30 7899 O 766.23 -5.96939 0.771177 0
M  V30 7900 H 770.056 -2.71525 1.36044 0
M  V30 7901 H 767.641 -1.30499 0.72735 0
M  V30 7902 H 769.523 -4.16885 -0.615241 0
M  V30 7903 H 768.198 -3.05862 -1.05971 0
M  V30 7904 H 767.105 -3.54099 1.20685 0
M  V30 7905 H 768.438 -4.66516 1.5692 0
M  V30 7906 N 770.09 -0.729906 -1.39679 0
M  V30 7907 C 771.501 -0.346241 -1.83461 0
M  V30 7908 C 771.852 1.1215 -1.60987 0
M  V30 7909 O 770.977 1.86456 -1.09832 0
M  V30 7910 C 771.572 -0.621656 -3.33048 0
M  V30 7911 C 770.131 -0.291543 -3.75269 0
M  V30 7912 C 769.278 -0.886844 -2.62736 0
M  V30 7913 H 772.229 -0.927949 -1.28743 0
M  V30 7914 H 772.25 0.108301 -3.80346 0
M  V30 7915 H 771.762 -1.68996 -3.49373 0
M  V30 7916 H 769.863 0.771133 -3.64533 0
M  V30 7917 H 769.976 -0.770544 -4.72863 0
M  V30 7918 H 768.34 -0.313839 -2.52759 0
M  V30 7919 H 769.123 -1.95971 -2.81869 0
M  V30 7920 N 771.568 1.50203 -0.477153 0
M  V30 7921 C 772.979 1.86685 -0.0235041 0
M  V30 7922 C 773.33 1.39148 1.38319 0
M  V30 7923 O 772.455 0.759051 2.02651 0
M  V30 7924 C 773.05 3.38781 -0.0358767 0
M  V30 7925 C 771.609 3.74652 0.362327 0
M  V30 7926 C 770.756 2.7412 -0.41875 0
M  V30 7927 H 773.707 1.4286 -0.691133 0
M  V30 7928 H 773.728 3.72732 0.764924 0
M  V30 7929 H 773.24 3.73349 -1.05981 0
M  V30 7930 H 771.341 3.45686 1.39039 0
M  V30 7931 H 771.454 4.79063 0.059457 0
M  V30 7932 H 769.818 2.54376 0.128341 0
M  V30 7933 H 770.601 3.11532 -1.44231 0
M  V30 7934 N 773.046 0.209999 1.56195 0
M  V30 7935 C 773.976 -0.699746 2.22769 0
M  V30 7936 C 774.957 -1.20993 1.1956 0
M  V30 7937 O 776.142 -1.25605 1.48112 0
M  V30 7938 C 773.272 -1.91302 2.89863 0
M  V30 7939 C 772.226 -1.53715 3.99444 0
M  V30 7940 C 771.552 -2.82826 4.53777 0
M  V30 7941 C 772.852 -0.735836 5.17091 0
M  V30 7942 H 774.546 -0.144716 2.9905 0
M  V30 7943 H 772.092 -0.0681645 1.43839 0
M  V30 7944 H 774.045 -2.5548 3.35124 0
M  V30 7945 H 772.769 -2.49283 2.11011 0
M  V30 7946 H 771.428 -0.918892 3.54897 0
M  V30 7947 H 771.076 -3.38927 3.71669 0
M  V30 7948 H 770.776 -2.58415 5.27727 0
M  V30 7949 H 772.3 -3.47966 5.01749 0
M  V30 7950 H 773.714 -1.28105 5.58804 0
M  V30 7951 H 772.111 -0.589272 5.972 0
M  V30 7952 H 773.181 0.260004 4.84202 0
M  V30 7953 N 774.524 -1.57472 -0.0634922 0
M  V30 7954 C 775.487 -2.03268 -1.059 0
M  V30 7955 C 776.487 -0.931028 -1.31105 0
M  V30 7956 O 777.677 -1.19567 -1.26686 0
M  V30 7957 C 774.809 -2.42039 -2.40062 0
M  V30 7958 H 776.002 -2.92454 -0.664119 0
M  V30 7959 H 773.555 -1.53206 -0.309444 0
M  V30 7960 H 774.29 -1.55904 -2.84367 0
M  V30 7961 H 774.075 -3.22437 -2.23108 0
M  V30 7962 H 775.565 -2.78017 -3.11603 0
M  V30 7963 N 776.003 0.335068 -1.53997 0
M  V30 7964 C 776.936 1.43533 -1.77407 0
M  V30 7965 C 777.914 1.5017 -0.623529 0
M  V30 7966 O 779.098 1.67756 -0.85966 0
M  V30 7967 C 776.225 2.81712 -1.88033 0
M  V30 7968 C 775.271 2.92661 -3.10245 0
M  V30 7969 S 776.104 2.58254 -4.69111 0
M  V30 7970 C 777.26 3.98525 -4.82627 0
M  V30 7971 H 777.493 1.2346 -2.70453 0
M  V30 7972 H 775.026 0.531234 -1.44973 0
M  V30 7973 H 776.984 3.61314 -1.9484 0
M  V30 7974 H 775.645 2.99075 -0.959849 0
M  V30 7975 H 774.838 3.93931 -3.14379 0
M  V30 7976 H 774.44 2.21017 -3.01708 0
M  V30 7977 H 776.732 4.93146 -4.64557 0
M  V30 7978 H 777.675 3.9938 -5.84723 0
M  V30 7979 H 778.083 3.86945 -4.11016 0
M  V30 7980 N 777.481 1.45874 0.596531 0
M  V30 7981 C 778.444 1.54988 1.68853 0
M  V30 7982 C 779.444 0.428302 1.54991 0
M  V30 7983 O 780.634 0.692158 1.59859 0
M  V30 7984 C 777.766 1.457 3.08195 0
M  V30 7985 H 778.959 2.52294 1.62135 0
M  V30 7986 H 776.512 1.33479 0.813206 0
M  V30 7987 H 777.247 0.496204 3.20481 0
M  V30 7988 H 777.032 2.27061 3.19665 0
M  V30 7989 H 778.522 1.55133 3.87716 0
M  V30 7990 N 778.959 -0.83999 1.33349 0
M  V30 7991 C 780.205 -1.59753 1.24927 0
M  V30 7992 C 780.538 -1.93318 -0.184855 0
M  V30 7993 O 779.813 -1.586 -1.12589 0
M  V30 7994 C 780.096 -2.90829 2.12345 0
M  V30 7995 C 779.949 -2.63953 3.6421 0
M  V30 7996 C 781.268 -3.92246 1.99577 0
M  V30 7997 H 778.387 -0.579654 0.45516 0
M  V30 7998 H 781.029 -0.968909 1.63439 0
M  V30 7999 H 779.179 -3.44478 1.79631 0
M  V30 8000 H 780.851 -2.16745 4.07209 0
M  V30 8001 H 779.094 -1.97671 3.86146 0
M  V30 8002 H 779.765 -3.57348 4.20721 0
M  V30 8003 H 782.241 -3.479 2.28265 0
M  V30 8004 H 781.117 -4.81793 2.62996 0
M  V30 8005 H 781.378 -4.3138 0.967673 0
M  V30 8006 N 780.437 -1.16799 -1.0581 0
M  V30 8007 C 781.665 -0.97687 -1.82387 0
M  V30 8008 C 782.08 0.474917 -1.82729 0
M  V30 8009 O 781.437 1.3297 -1.25001 0
M  V30 8010 C 781.488 -1.50279 -3.28783 0
M  V30 8011 O 781.209 -2.89772 -3.28578 0
M  V30 8012 C 782.71 -1.35538 -4.22071 0
M  V30 8013 H 779.93 -0.345977 -0.574927 0
M  V30 8014 H 782.474 -1.54942 -1.33466 0
M  V30 8015 H 780.629 -0.972414 -3.74997 0
M  V30 8016 H 781.043 -3.13954 -4.20159 0
M  V30 8017 H 782.517 -1.7716 -5.22799 0
M  V30 8018 H 782.994 -0.301598 -4.38163 0
M  V30 8019 H 783.6 -1.87562 -3.81708 0
M  V30 8020 N 781.915 1.24427 -0.967243 0
M  V30 8021 C 782.825 2.29109 -0.504592 0
M  V30 8022 C 783.841 1.68495 0.434224 0
M  V30 8023 O 785.017 1.99041 0.307379 0
M  V30 8024 C 782.082 3.46133 0.198273 0
M  V30 8025 C 781.143 4.22149 -0.780313 0
M  V30 8026 C 780.376 5.33585 -0.110896 0
M  V30 8027 O 780.599 5.59676 1.10088 0
M  V30 8028 O 779.533 5.96522 -0.802823 0
M  V30 8029 H 783.359 2.708 -1.37482 0
M  V30 8030 H 780.944 1.30111 -0.73426 0
M  V30 8031 H 782.826 4.17205 0.593124 0
M  V30 8032 H 781.501 3.0642 1.04347 0
M  V30 8033 H 780.408 3.53454 -1.22561 0
M  V30 8034 H 781.741 4.65677 -1.59392 0
M  V30 8035 N 783.393 0.737304 1.3929 0
M  V30 8036 C 784.326 0.0475454 2.2815 0
M  V30 8037 C 785.304 -0.745314 1.44512 0
M  V30 8038 O 786.488 -0.727387 1.739 0
M  V30 8039 C 783.615 -0.939803 3.254 0
M  V30 8040 C 782.661 -0.235153 4.25851 0
M  V30 8041 S 783.494 1.05252 5.25055 0
M  V30 8042 C 784.65 0.0678242 6.25863 0
M  V30 8043 H 784.883 0.801117 2.86303 0
M  V30 8044 H 782.416 0.529197 1.45048 0
M  V30 8045 H 784.374 -1.50417 3.81949 0
M  V30 8046 H 783.035 -1.66623 2.66262 0
M  V30 8047 H 782.228 -0.982336 4.94334 0
M  V30 8048 H 781.83 0.257245 3.73114 0
M  V30 8049 H 784.122 -0.771779 6.7309 0
M  V30 8050 H 785.065 0.719858 7.04431 0
M  V30 8051 H 785.473 -0.305604 5.63672 0
M  V30 8052 N 784.871 -1.49948 0.485112 0
M  V30 8053 C 785.801 -2.31675 -0.291364 0
M  V30 8054 C 786.782 -1.39216 -0.977383 0
M  V30 8055 O 787.967 -1.68133 -0.971855 0
M  V30 8056 C 785.097 -3.19326 -1.36558 0
M  V30 8057 C 784.051 -4.2045 -0.800359 0
M  V30 8058 C 783.377 -4.96931 -1.97391 0
M  V30 8059 C 784.677 -5.21925 0.197867 0
M  V30 8060 H 786.371 -2.96839 0.390775 0
M  V30 8061 H 783.917 -1.42749 0.189375 0
M  V30 8062 H 785.87 -3.75304 -1.91638 0
M  V30 8063 H 784.594 -2.52074 -2.07668 0
M  V30 8064 H 783.253 -3.65594 -0.271428 0
M  V30 8065 H 782.901 -4.26141 -2.67232 0
M  V30 8066 H 782.601 -5.65344 -1.60187 0
M  V30 8067 H 784.125 -5.55749 -2.52935 0
M  V30 8068 H 785.539 -5.72691 -0.264239 0
M  V30 8069 H 783.936 -5.98138 0.484908 0
M  V30 8070 H 785.006 -4.71809 1.11912 0
M  V30 8071 N 786.349 -0.21828 -1.56081 0
M  V30 8072 C 787.597 0.413488 -1.97825 0
M  V30 8073 C 787.918 1.60527 -1.10707 0
M  V30 8074 O 787.188 1.9504 -0.183378 0
M  V30 8075 H 785.768 0.155757 -0.730581 0
M  V30 8076 H 788.43 -0.310413 -1.92412 0
M  V30 8077 H 787.526 0.742024 -3.03151 0
M  V30 8078 N 787.827 1.57504 0.0551401 0
M  V30 8079 C 789.052 1.92682 0.767352 0
M  V30 8080 C 789.477 0.81614 1.69472 0
M  V30 8081 O 788.835 -0.229989 1.79835 0
M  V30 8082 C 788.883 3.26866 1.52286 0
M  V30 8083 O 787.987 3.17274 2.63459 0
M  V30 8084 H 787.328 0.630502 0.208238 0
M  V30 8085 H 789.858 2.04592 0.0184026 0
M  V30 8086 H 789.868 3.61138 1.8985 0
M  V30 8087 H 788.543 4.07276 0.842541 0
M  V30 8088 H 787.12 2.94589 2.2863 0
M  V30 8089 N 789.305 -0.326896 1.54172 0
M  V30 8090 C 790.553 -1.06313 1.71878 0
M  V30 8091 C 790.874 -1.88652 0.493498 0
M  V30 8092 O 790.144 -1.89608 -0.492522 0
M  V30 8093 H 788.724 -0.39549 0.633716 0
M  V30 8094 H 791.386 -0.364139 1.91468 0
M  V30 8095 H 790.482 -1.73105 2.59694 0
M  V30 8096 N 790.784 -1.46188 -0.588786 0
M  V30 8097 C 791.716 -1.52319 -1.71265 0
M  V30 8098 C 792.729 -0.412096 -1.57498 0
M  V30 8099 O 793.918 -0.680146 -1.65034 0
M  V30 8100 C 791.018 -1.38164 -3.09458 0
M  V30 8101 C 790.191 -2.63284 -3.49286 0
M  V30 8102 C 789.25 -2.43415 -4.66514 0
M  V30 8103 O 788.276 -3.17113 -4.72682 0
M  V30 8104 N 789.478 -1.49187 -5.61002 0
M  V30 8105 H 792.243 -2.49219 -1.66463 0
M  V30 8106 H 789.804 -1.42167 -0.774601 0
M  V30 8107 H 791.796 -1.22653 -3.85666 0
M  V30 8108 H 790.366 -0.494678 -3.08661 0
M  V30 8109 H 789.586 -2.93779 -2.62845 0
M  V30 8110 H 790.874 -3.46413 -3.7266 0
M  V30 8111 H 790.272 -0.884027 -5.5875 0
M  V30 8112 H 788.829 -1.39642 -6.36666 0
M  V30 8113 N 792.262 0.832906 -1.33792 0
M  V30 8114 C 793.487 1.62568 -1.28788 0
M  V30 8115 C 793.912 1.87599 0.137246 0
M  V30 8116 O 793.27 1.44436 1.0958 0
M  V30 8117 C 793.318 2.9495 -2.07453 0
M  V30 8118 O 792.422 3.86546 -1.43722 0
M  V30 8119 H 791.763 0.494809 -0.442787 0
M  V30 8120 H 794.293 1.03578 -1.76445 0
M  V30 8121 H 794.303 3.44599 -2.1844 0
M  V30 8122 H 792.978 2.76055 -3.11073 0
M  V30 8123 H 791.555 3.45044 -1.41417 0
M  V30 8124 N 793.74 1.17359 1.05189 0
M  V30 8125 C 795.156 0.920861 1.30355 0
M  V30 8126 C 795.356 -0.419993 1.97074 0
M  V30 8127 O 794.412 -1.15696 2.24434 0
M  V30 8128 C 795.725 2.07818 2.1733 0
M  V30 8129 C 797.273 2.1152 2.30712 0
M  V30 8130 C 797.748 3.26637 3.21048 0
M  V30 8131 N 799.239 3.26426 3.28634 0
M  V30 8132 C 799.974 4.12141 3.98657 0
M  V30 8133 N 799.47 5.07966 4.71107 0
M  V30 8134 N 801.263 4.00091 3.94821 0
M  V30 8135 H 793.414 2.03666 0.602821 0
M  V30 8136 H 795.677 0.889294 0.328421 0
M  V30 8137 H 795.383 3.04727 1.75597 0
M  V30 8138 H 795.257 2.02922 3.17966 0
M  V30 8139 H 797.644 1.15196 2.71687 0
M  V30 8140 H 797.725 2.20477 1.29706 0
M  V30 8141 H 797.369 4.23227 2.80788 0
M  V30 8142 H 797.299 3.14917 4.2206 0
M  V30 8143 H 799.79 2.57045 2.77013 0
M  V30 8144 H 800.103 5.69766 5.22099 0
M  V30 8145 H 798.448 5.11936 4.7005 0
M  V30 8146 H 801.639 3.24523 3.37346 0
M  V30 8147 H 801.812 4.6711 4.49123 0
M  V30 8148 N 795.218 -1.23913 0.973828 0
M  V30 8149 C 796.443 -1.96735 0.656511 0
M  V30 8150 C 796.868 -1.71682 -0.768571 0
M  V30 8151 O 796.226 -0.984267 -1.52256 0
M  V30 8152 C 796.274 -3.48004 0.944735 0
M  V30 8153 O 795.378 -4.12387 0.0333357 0
M  V30 8154 H 794.719 -0.616119 0.247575 0
M  V30 8155 H 797.249 -1.57525 1.30564 0
M  V30 8156 H 797.259 -3.98424 0.87876 0
M  V30 8157 H 795.934 -3.65567 1.98328 0
M  V30 8158 H 794.511 -3.72585 0.153157 0
M  V30 8159 N 796.696 -0.74468 -1.38897 0
M  V30 8160 C 798.107 -0.36568 -1.83084 0
M  V30 8161 C 798.458 1.10436 -1.62168 0
M  V30 8162 O 797.583 1.85281 -1.11804 0
M  V30 8163 C 798.178 -0.656946 -3.3237 0
M  V30 8164 C 796.737 -0.331329 -3.74939 0
M  V30 8165 C 795.884 -0.914661 -2.61781 0
M  V30 8166 H 798.835 -0.941551 -1.27752 0
M  V30 8167 H 798.856 0.0679546 -3.80439 0
M  V30 8168 H 798.368 -1.72693 -3.47561 0
M  V30 8169 H 796.469 0.732426 -3.6533 0
M  V30 8170 H 796.582 -0.820655 -4.72019 0
M  V30 8171 H 794.946 -0.34063 -2.52412 0
M  V30 8172 H 795.729 -1.98949 -2.79775 0
M  V30 8173 N 798.174 1.49689 -0.493057 0
M  V30 8174 C 799.42 2.03347 0.0463792 0
M  V30 8175 C 799.775 1.36671 1.35421 0
M  V30 8176 O 799.068 0.4907 1.8521 0
M  V30 8177 C 799.262 3.56427 0.263536 0
M  V30 8178 C 799.091 4.3794 -1.02169 0
M  V30 8179 C 797.861 4.8025 -1.57125 0
M  V30 8180 C 800.059 4.77 -1.9229 0
M  V30 8181 N 798.041 5.46162 -2.80321 0
M  V30 8182 C 799.412 5.42549 -3.00067 0
M  V30 8183 C 801.467 4.58945 -1.93064 0
M  V30 8184 C 800.17 5.91954 -4.08635 0
M  V30 8185 C 802.196 5.09306 -3.00602 0
M  V30 8186 C 801.558 5.74849 -4.07097 0
M  V30 8187 H 797.657 0.781644 -0.0236097 0
M  V30 8188 H 800.241 1.82949 -0.666151 0
M  V30 8189 H 798.412 3.76725 0.945118 0
M  V30 8190 H 800.144 3.96729 0.79927 0
M  V30 8191 H 796.899 4.60228 -1.11746 0
M  V30 8192 H 797.323 5.83711 -3.42944 0
M  V30 8193 H 801.965 4.07685 -1.12039 0
M  V30 8194 H 799.683 6.4224 -4.90463 0
M  V30 8195 H 803.269 4.97152 -3.0221 0
M  V30 8196 H 802.149 6.13113 -4.88939 0
M  V30 8197 N 799.652 0.226554 1.55963 0
M  V30 8198 C 800.615 -0.668015 2.19249 0
M  V30 8199 C 801.615 -1.11794 1.1558 0
M  V30 8200 O 802.805 -1.02593 1.40784 0
M  V30 8201 C 799.937 -1.91571 2.81981 0
M  V30 8202 H 801.13 -0.116175 2.99675 0
M  V30 8203 H 798.683 -0.0230497 1.56283 0
M  V30 8204 H 799.418 -2.50929 2.05439 0
M  V30 8205 H 799.203 -1.6015 3.57903 0
M  V30 8206 H 800.693 -2.55294 3.30477 0
M  V30 8207 N 801.13 -1.57531 -0.0467866 0
M  V30 8208 C 802.407 -1.79568 -0.775536 0
M  V30 8209 C 802.787 -0.820322 -1.94509 0
M  V30 8210 O 802.135 0.14134 -2.28062 0
M  V30 8211 C 802.345 -3.26789 -1.22516 0
M  V30 8212 C 803.693 -3.91299 -1.64835 0
M  V30 8213 O 804.717 -3.30831 -1.3202 0
M  V30 8214 O 803.576 -4.97727 -2.25677 0
M  V30 8215 H 800.67 -0.737817 -0.373572 0
M  V30 8216 H 803.216 -1.69682 -0.0249302 0
M  V30 8217 H 801.988 -3.89357 -0.389446 0
M  V30 8218 H 801.611 -3.41496 -2.03633 0
M  V30 8219 N 802.608 0.318715 -1.54344 0
M  V30 8220 C 803.538 1.39751 -1.87061 0
M  V30 8221 C 804.519 1.53741 -0.727848 0
M  V30 8222 O 805.704 1.67541 -0.982016 0
M  V30 8223 C 802.834 2.76446 -2.10226 0
M  V30 8224 C 801.788 2.77239 -3.26071 0
M  V30 8225 C 801.114 4.17056 -3.34617 0
M  V30 8226 C 802.414 2.40555 -4.63606 0
M  V30 8227 H 804.108 1.12619 -2.77412 0
M  V30 8228 H 801.654 0.540318 -1.33479 0
M  V30 8229 H 803.607 3.51985 -2.31699 0
M  V30 8230 H 802.331 3.05066 -1.16629 0
M  V30 8231 H 800.99 2.04155 -3.04493 0
M  V30 8232 H 800.638 4.42824 -2.3857 0
M  V30 8233 H 800.338 4.18492 -4.12478 0
M  V30 8234 H 801.862 4.94401 -3.5833 0
M  V30 8235 H 803.276 3.05808 -4.84927 0
M  V30 8236 H 801.673 2.53234 -5.44052 0
M  V30 8237 H 802.743 1.35698 -4.65526 0
M  V30 8238 N 804.086 1.46499 0.581025 0
M  V30 8239 C 805.314 1.5547 1.36517 0
M  V30 8240 C 805.729 0.196407 1.87776 0
M  V30 8241 O 805.086 -0.806577 1.63709 0
M  V30 8242 C 805.137 2.56084 2.55154 0
M  V30 8243 O 804.858 3.86637 2.06018 0
M  V30 8244 C 806.359 2.75011 3.47683 0
M  V30 8245 H 803.579 0.525703 0.416986 0
M  V30 8246 H 806.123 1.9192 0.706177 0
M  V30 8247 H 804.278 2.22633 3.17039 0
M  V30 8248 H 804.692 4.41413 2.83292 0
M  V30 8249 H 806.166 3.49329 4.27403 0
M  V30 8250 H 806.643 1.81978 3.99726 0
M  V30 8251 H 807.249 3.09565 2.91632 0
M  V30 8252 N 805.565 -0.825799 1.34232 0
M  V30 8253 C 806.513 -1.95792 1.25572 0
M  V30 8254 C 807.507 -1.68695 0.154404 0
M  V30 8255 O 808.713 -1.77147 0.319196 0
M  V30 8256 H 805.088 -0.642949 0.390027 0
M  V30 8257 H 807.059 -2.00219 2.21258 0
M  V30 8258 C 805.808 -3.32245 1.02511 0
M  V30 8259 H 805.131 -3.53642 1.86487 0
M  V30 8260 H 806.571 -4.1192 1.00487 0
M  V30 8261 C 805.03 -3.35803 -0.27167 0
M  V30 8262 O 805.56 -3.80962 -1.274 0
M  V30 8263 N 803.766 -2.89008 -0.303778 0
M  V30 8264 H 803.313 -2.52451 0.512464 0
M  V30 8265 H 803.271 -2.9177 -1.17121 0
M  V30 8266 N 807.043 -1.17915 -1.04565 0
M  V30 8267 C 807.953 -0.916449 -2.15959 0
M  V30 8268 C 808.969 0.117655 -1.73602 0
M  V30 8269 O 810.145 -0.063089 -2.01301 0
M  V30 8270 C 807.21 -0.440262 -3.43893 0
M  V30 8271 C 806.271 -1.54172 -4.00661 0
M  V30 8272 C 805.504 -1.08816 -5.22489 0
M  V30 8273 O 805.727 0.0551547 -5.70373 0
M  V30 8274 O 804.661 -1.88383 -5.7166 0
M  V30 8275 H 808.487 -1.8484 -2.40972 0
M  V30 8276 H 806.072 -0.960552 -1.14428 0
M  V30 8277 H 807.954 -0.182537 -4.21004 0
M  V30 8278 H 806.629 0.46346 -3.20365 0
M  V30 8279 H 805.536 -1.85341 -3.24961 0
M  V30 8280 H 806.869 -2.42139 -4.2852 0
M  V30 8281 N 808.521 1.23394 -0.980386 0
M  V30 8282 C 809.767 1.92094 -0.650223 0
M  V30 8283 C 810.1 1.76309 0.814173 0
M  V30 8284 O 809.375 1.12406 1.5873 0
M  V30 8285 C 809.658 3.44713 -1.04139 0
M  V30 8286 C 809.511 3.69606 -2.56342 0
M  V30 8287 C 810.83 4.36191 -0.585296 0
M  V30 8288 H 807.949 0.697618 -0.237695 0
M  V30 8289 H 810.591 1.45517 -1.22167 0
M  V30 8290 H 808.741 3.84513 -0.55515 0
M  V30 8291 H 810.413 3.39288 -3.1254 0
M  V30 8292 H 808.656 3.14318 -2.98976 0
M  V30 8293 H 809.327 4.76441 -2.78762 0
M  V30 8294 H 811.803 4.03836 -1.00276 0
M  V30 8295 H 810.679 5.41679 -0.887428 0
M  V30 8296 H 810.94 4.39097 0.51438 0
M  V30 8297 N 809.999 0.752036 1.385 0
M  V30 8298 C 811.276 0.233075 1.94206 0
M  V30 8299 C 811.656 -1.26838 1.68746 0
M  V30 8300 O 811.004 -2.04214 1.02513 0
M  V30 8301 C 811.214 0.58509 3.44061 0
M  V30 8302 C 812.562 0.543871 4.21102 0
M  V30 8303 O 813.586 0.523291 3.52335 0
M  V30 8304 O 812.445 0.553436 5.4369 0
M  V30 8305 H 809.539 0.0483049 0.825588 0
M  V30 8306 H 812.085 0.832053 1.47902 0
M  V30 8307 H 810.857 1.62212 3.56094 0
M  V30 8308 H 810.48 -0.0419738 3.97578 0
M  V30 8309 N 811.477 -1.49425 0.500989 0
M  V30 8310 C 812.41 -2.25887 -0.324087 0
M  V30 8311 C 813.388 -1.30469 -0.970388 0
M  V30 8312 O 814.572 -1.59758 -1.00049 0
M  V30 8313 C 811.699 -3.05787 -1.45643 0
M  V30 8314 C 810.745 -4.16359 -0.924508 0
M  V30 8315 S 811.578 -5.35181 0.184707 0
M  V30 8316 C 812.734 -6.18636 -0.950806 0
M  V30 8317 H 812.967 -2.95519 0.324891 0
M  V30 8318 H 810.5 -1.51723 0.286289 0
M  V30 8319 H 812.458 -3.52405 -2.10525 0
M  V30 8320 H 811.119 -2.35624 -2.07703 0
M  V30 8321 H 810.312 -4.71781 -1.77311 0
M  V30 8322 H 809.914 -3.72331 -0.352907 0
M  V30 8323 H 812.206 -6.51581 -1.85603 0
M  V30 8324 H 813.149 -7.06761 -0.435212 0
M  V30 8325 H 813.557 -5.512 -1.21813 0
M  V30 8326 N 812.955 -0.234822 -1.55841 0
M  V30 8327 C 814.366 0.270588 -1.84729 0
M  V30 8328 C 814.717 1.58494 -1.15646 0
M  V30 8329 O 813.842 2.12071 -0.430667 0
M  V30 8330 C 814.437 0.497733 -3.35124 0
M  V30 8331 C 812.996 0.947428 -3.64281 0
M  V30 8332 C 812.143 0.01787 -2.77294 0
M  V30 8333 H 815.094 -0.457691 -1.51957 0
M  V30 8334 H 815.115 1.34199 -3.56049 0
M  V30 8335 H 814.627 -0.459037 -3.85376 0
M  V30 8336 H 812.728 1.91709 -3.19497 0
M  V30 8337 H 812.841 0.812651 -4.72158 0
M  V30 8338 H 811.205 0.527071 -2.49187 0
M  V30 8339 H 811.988 -0.934056 -3.30349 0
M  V30 8340 N 814.433 1.57553 0.0384317 0
M  V30 8341 C 815.681 1.88468 0.729672 0
M  V30 8342 C 816.002 0.831302 1.76393 0
M  V30 8343 O 815.272 -0.13622 1.95426 0
M  V30 8344 H 813.852 0.695529 0.272485 0
M  V30 8345 H 816.514 1.94899 0.0066032 0
M  V30 8346 H 815.61 2.8705 1.22511 0
M  V30 8347 N 815.911 -0.310526 1.54511 0
M  V30 8348 C 816.874 -1.3657 1.84068 0
M  V30 8349 C 817.874 -1.44123 0.713097 0
M  V30 8350 O 819.064 -1.43924 0.981399 0
M  V30 8351 C 816.196 -2.75162 2.01243 0
M  V30 8352 H 817.389 -1.1161 2.78358 0
M  V30 8353 H 814.942 -0.546699 1.46427 0
M  V30 8354 H 815.677 -3.05359 1.09208 0
M  V30 8355 H 815.462 -2.71071 2.83307 0
M  V30 8356 H 816.952 -3.51473 2.25514 0
M  V30 8357 N 817.389 -1.46805 -0.573248 0
M  V30 8358 C 818.637 -1.52302 -1.32847 0
M  V30 8359 C 818.958 -0.180159 -1.94166 0
M  V30 8360 O 818.228 0.794291 -1.79075 0
M  V30 8361 H 816.808 -0.56097 -0.493276 0
M  V30 8362 H 819.47 -1.82998 -0.670642 0
M  V30 8363 H 818.566 -2.28089 -2.13031 0
M  V30 8364 N 818.867 0.818669 -1.34668 0
M  V30 8365 C 820.092 1.61193 -1.30505 0
M  V30 8366 C 820.517 1.87734 0.117341 0
M  V30 8367 O 819.875 1.45591 1.08042 0
M  V30 8368 C 819.923 2.92733 -2.1057 0
M  V30 8369 O 819.027 3.85 -1.47813 0
M  V30 8370 H 818.368 0.490085 -0.44801 0
M  V30 8371 H 820.898 1.01701 -1.77534 0
M  V30 8372 H 820.908 3.42262 -2.22082 0
M  V30 8373 H 819.583 2.7274 -3.13984 0
M  V30 8374 H 818.16 3.43525 -1.45069 0
M  V30 8375 N 820.346 1.18468 1.03938 0
M  V30 8376 C 821.309 0.914944 2.10146 0
M  V30 8377 C 822.309 -0.10022 1.60487 0
M  V30 8378 O 823.499 0.133365 1.73689 0
M  V30 8379 C 820.631 0.372993 3.38853 0
M  V30 8380 H 821.824 1.85677 2.35508 0
M  V30 8381 H 819.377 0.996876 1.20383 0
M  V30 8382 H 820.112 -0.57538 3.19155 0
M  V30 8383 H 819.897 1.1048 3.76213 0
M  V30 8384 H 821.387 0.203014 4.17106 0
M  V30 8385 N 821.824 -1.22873 0.986916 0
M  V30 8386 C 823.072 -1.91084 0.658121 0
M  V30 8387 C 823.393 -1.77304 -0.811675 0
M  V30 8388 O 822.663 -1.15649 -1.58121 0
M  V30 8389 H 821.243 -0.707251 0.240427 0
M  V30 8390 H 823.905 -1.49357 1.25213 0
M  V30 8391 H 823.001 -2.98373 0.915428 0
M  V30 8392 N 823.302 -0.75937 -1.38099 0
M  V30 8393 C 824.55 -0.317485 -1.99591 0
M  V30 8394 C 824.871 1.10628 -1.60581 0
M  V30 8395 O 824.141 1.7575 -0.865378 0
M  V30 8396 H 822.721 -0.114397 -0.738189 0
M  V30 8397 H 825.383 -0.974749 -1.68774 0
M  V30 8398 H 824.479 -0.385227 -3.09713 0
M  V30 8399 N 824.78 1.49157 -0.508906 0
M  V30 8400 C 825.727 2.2927 0.265288 0
M  V30 8401 C 826.697 1.3603 0.953162 0
M  V30 8402 O 827.882 1.64989 0.958291 0
M  V30 8403 C 825.022 3.18897 1.31904 0
M  V30 8404 C 824.135 4.27201 0.642144 0
M  V30 8405 C 823.27 5.04033 1.67701 0
M  V30 8406 C 822.309 6.04165 0.982422 0
M  V30 8407 N 821.446 6.74133 1.96186 0
M  V30 8408 H 826.286 2.94967 -0.424107 0
M  V30 8409 H 823.823 1.45431 -0.220991 0
M  V30 8410 H 825.781 3.69242 1.94206 0
M  V30 8411 H 824.411 2.55168 1.97709 0
M  V30 8412 H 823.463 3.80283 -0.0943395 0
M  V30 8413 H 824.775 4.98708 0.0957507 0
M  V30 8414 H 823.929 5.58287 2.37487 0
M  V30 8415 H 822.668 4.32317 2.25728 0
M  V30 8416 H 821.673 5.49135 0.270378 0
M  V30 8417 H 822.898 6.7787 0.408554 0
M  V30 8418 H 820.844 6.05183 2.53159 0
M  V30 8419 H 820.761 7.41643 1.46634 0
M  V30 8420 H 822.029 7.32987 2.65236 0
M  V30 8421 N 826.258 0.243083 1.55714 0
M  V30 8422 C 827.483 -0.389944 2.03701 0
M  V30 8423 C 827.908 -1.51025 1.12129 0
M  V30 8424 O 827.266 -1.80944 0.11352 0
M  V30 8425 C 827.314 -0.878649 3.49731 0
M  V30 8426 O 826.418 -1.98851 3.61292 0
M  V30 8427 H 825.759 -0.0855115 0.658471 0
M  V30 8428 H 828.289 0.368023 2.01263 0
M  V30 8429 H 828.299 -1.18287 3.90477 0
M  V30 8430 H 826.974 -0.0588107 4.15858 0
M  V30 8431 H 825.551 -1.68928 3.32442 0
M  V30 8432 N 827.736 -1.57571 -0.0300757 0
M  V30 8433 C 828.961 -1.93879 -0.736601 0
M  V30 8434 C 829.386 -0.842998 -1.68152 0
M  V30 8435 O 828.744 0.20135 -1.80178 0
M  V30 8436 C 828.792 -3.29247 -1.47066 0
M  V30 8437 O 827.896 -3.21426 -2.58378 0
M  V30 8438 H 827.237 -0.633735 -0.198181 0
M  V30 8439 H 829.767 -2.04595 0.0141485 0
M  V30 8440 H 829.777 -3.64113 -1.84081 0
M  V30 8441 H 828.452 -4.08565 -0.77764 0
M  V30 8442 H 827.029 -2.98189 -2.23914 0
M  V30 8443 N 829.214 0.302327 -1.54673 0
M  V30 8444 C 830.625 0.875409 -1.64904 0
M  V30 8445 C 830.976 1.88132 -0.55684 0
M  V30 8446 O 830.101 2.14215 0.306754 0
M  V30 8447 C 830.696 1.59457 -2.9893 0
M  V30 8448 C 829.255 2.11607 -3.11287 0
M  V30 8449 C 828.402 0.948324 -2.6058 0
M  V30 8450 H 831.353 0.079362 -1.58501 0
M  V30 8451 H 831.374 2.46005 -2.90279 0
M  V30 8452 H 830.886 0.8622 -3.78402 0
M  V30 8453 H 828.987 2.87895 -2.36532 0
M  V30 8454 H 829.1 2.35151 -4.17422 0
M  V30 8455 H 827.464 1.33352 -2.17001 0
M  V30 8456 H 828.247 0.229936 -3.42529 0
M  V30 8457 N 830.692 1.47107 0.565454 0
M  V30 8458 C 831.602 1.61591 1.70075 0
M  V30 8459 C 832.618 0.498931 1.66693 0
M  V30 8460 O 833.794 0.765372 1.8629 0
M  V30 8461 C 830.859 1.61887 3.06583 0
M  V30 8462 C 829.92 2.84949 3.21096 0
M  V30 8463 C 829.153 2.85221 4.51093 0
M  V30 8464 O 829.376 1.94959 5.36048 0
M  V30 8465 O 828.31 3.76982 4.69221 0
M  V30 8466 H 832.136 2.57638 1.60799 0
M  V30 8467 H 829.721 1.30097 0.73451 0
M  V30 8468 H 831.603 1.64809 3.87835 0
M  V30 8469 H 830.278 0.69005 3.16259 0
M  V30 8470 H 829.185 2.87575 2.39273 0
M  V30 8471 H 830.518 3.77098 3.1632 0
M  V30 8472 N 832.17 -0.811516 1.35101 0
M  V30 8473 C 833.581 -1.38515 1.25182 0
M  V30 8474 C 833.932 -1.95846 -0.117883 0
M  V30 8475 O 833.057 -1.90925 -1.01866 0
M  V30 8476 C 833.652 -2.51813 2.26662 0
M  V30 8477 C 832.211 -3.05052 2.20499 0
M  V30 8478 C 831.358 -1.77987 2.12641 0
M  V30 8479 H 834.309 -0.614959 1.46301 0
M  V30 8480 H 834.33 -3.30228 1.89023 0
M  V30 8481 H 833.842 -2.10057 3.2634 0
M  V30 8482 H 831.943 -3.51285 1.24215 0
M  V30 8483 H 832.056 -3.63368 3.1225 0
M  V30 8484 H 830.42 -1.99342 1.5854 0
M  V30 8485 H 831.203 -1.38389 3.14171 0
M  V30 8486 N 833.648 -1.19017 -1.03309 0
M  V30 8487 C 834.894 -1.0017 -1.77024 0
M  V30 8488 C 835.249 0.463062 -1.86744 0
M  V30 8489 O 834.542 1.33937 -1.37009 0
M  V30 8490 C 834.736 -1.59927 -3.19622 0
M  V30 8491 C 834.565 -3.12062 -3.23802 0
M  V30 8492 C 833.335 -3.80932 -3.31992 0
M  V30 8493 C 835.533 -4.0947 -3.1119 0
M  V30 8494 N 833.515 -5.20502 -3.25502 0
M  V30 8495 C 834.886 -5.3561 -3.12285 0
M  V30 8496 C 836.941 -4.00887 -2.95287 0
M  V30 8497 C 835.644 -6.54161 -2.99109 0
M  V30 8498 C 837.67 -5.19042 -2.83459 0
M  V30 8499 C 837.032 -6.44079 -2.85205 0
M  V30 8500 H 833.131 -0.420633 -0.659236 0
M  V30 8501 H 835.715 -1.5092 -1.23009 0
M  V30 8502 H 833.886 -1.11785 -3.71966 0
M  V30 8503 H 835.618 -1.34557 -3.81676 0
M  V30 8504 H 832.373 -3.31702 -3.38039 0
M  V30 8505 H 832.797 -5.93519 -3.25675 0
M  V30 8506 H 837.439 -3.05042 -2.92762 0
M  V30 8507 H 835.157 -7.50196 -3.00386 0
M  V30 8508 H 838.743 -5.14199 -2.72197 0
M  V30 8509 H 837.623 -7.33969 -2.7615 0
M  V30 8510 N 835.127 1.22348 -0.993418 0
M  V30 8511 C 836.057 2.26584 -0.564088 0
M  V30 8512 C 837.038 1.65102 0.409298 0
M  V30 8513 O 838.223 1.91872 0.299819 0
M  V30 8514 C 835.353 3.47087 0.121554 0
M  V30 8515 C 834.307 4.21009 -0.770429 0
M  V30 8516 C 833.633 5.34678 0.0481586 0
M  V30 8517 C 834.933 4.79636 -2.06752 0
M  V30 8518 H 836.627 2.62749 -1.43538 0
M  V30 8519 H 834.173 1.26303 -0.691628 0
M  V30 8520 H 836.126 4.19166 0.433303 0
M  V30 8521 H 834.85 3.1002 1.0274 0
M  V30 8522 H 833.509 3.50764 -1.06583 0
M  V30 8523 H 833.157 4.93852 0.954933 0
M  V30 8524 H 832.857 5.85061 -0.545641 0
M  V30 8525 H 834.381 6.09573 0.353991 0
M  V30 8526 H 835.795 5.43654 -1.81969 0
M  V30 8527 H 834.192 5.4036 -2.61019 0
M  V30 8528 H 835.262 3.99659 -2.74592 0
M  V30 8529 N 836.605 0.766683 1.37694 0
M  V30 8530 C 837.851 0.338201 2.00569 0
M  V30 8531 C 838.206 -1.07196 1.59771 0
M  V30 8532 O 837.499 -1.72622 0.831402 0
M  V30 8533 C 837.693 0.413831 3.54996 0
M  V30 8534 C 837.522 1.8298 4.1079 0
M  V30 8535 C 836.292 2.44932 4.41969 0
M  V30 8536 C 838.49 2.78852 4.32141 0
M  V30 8537 N 836.472 3.78353 4.83448 0
M  V30 8538 C 837.843 3.97063 4.76174 0
M  V30 8539 C 839.898 2.76205 4.14265 0
M  V30 8540 C 838.601 5.13003 5.04203 0
M  V30 8541 C 840.627 3.91314 4.43427 0
M  V30 8542 C 839.989 5.08265 4.87694 0
M  V30 8543 H 836.088 0.170693 0.763143 0
M  V30 8544 H 838.672 0.999435 1.67091 0
M  V30 8545 H 836.843 -0.217198 3.87792 0
M  V30 8546 H 838.575 -0.036222 4.04684 0
M  V30 8547 H 835.33 1.9659 4.3087 0
M  V30 8548 H 835.754 4.46937 5.08504 0
M  V30 8549 H 840.396 1.86962 3.79216 0
M  V30 8550 H 838.114 6.0285 5.38142 0
M  V30 8551 H 841.7 3.906 4.31187 0
M  V30 8552 H 840.58 5.95858 5.09827 0
M  V30 8553 N 838.083 -1.48885 0.516809 0
M  V30 8554 C 839.494 -1.86557 0.0729921 0
M  V30 8555 C 839.845 -1.42767 -1.34581 0
M  V30 8556 O 838.97 -0.812514 -2.00567 0
M  V30 8557 C 839.565 -3.38567 0.125686 0
M  V30 8558 C 838.124 -3.75481 -0.262867 0
M  V30 8559 C 837.271 -2.72913 0.491281 0
M  V30 8560 H 840.222 -1.40978 0.728767 0
M  V30 8561 H 840.243 -3.74629 -0.665831 0
M  V30 8562 H 839.755 -3.70408 1.15842 0
M  V30 8563 H 837.856 -3.49251 -1.29824 0
M  V30 8564 H 837.969 -4.79052 0.067579 0
M  V30 8565 H 836.333 -2.54627 -0.0608525 0
M  V30 8566 H 837.116 -3.07599 1.5244 0
M  V30 8567 N 839.561 -0.251338 -1.55583 0
M  V30 8568 C 840.972 0.25098 -1.85005 0
M  V30 8569 C 841.323 1.57259 -1.17321 0
M  V30 8570 O 840.448 2.11603 -0.453136 0
M  V30 8571 C 841.043 0.462161 -3.35633 0
M  V30 8572 C 839.602 0.908737 -3.65266 0
M  V30 8573 C 838.749 -0.0115418 -2.77298 0
M  V30 8574 H 841.7 -0.473782 -1.51463 0
M  V30 8575 H 841.721 1.30415 -3.57452 0
M  V30 8576 H 841.233 -0.499886 -3.84867 0
M  V30 8577 H 839.334 1.8831 -3.21512 0
M  V30 8578 H 839.447 0.762526 -4.72993 0
M  V30 8579 H 837.811 0.500612 -2.49732 0
M  V30 8580 H 838.594 -0.969042 -3.29339 0
M  V30 8581 N 841.039 1.57585 0.0217189 0
M  V30 8582 C 842.267 1.93871 0.722619 0
M  V30 8583 C 842.682 0.851706 1.68498 0
M  V30 8584 O 842.039 -0.17127 1.81695 0
M  V30 8585 C 842.09 3.30114 1.47333 0
M  V30 8586 O 841.811 4.34639 0.549597 0
M  V30 8587 C 843.312 3.80727 2.27072 0
M  V30 8588 H 840.532 0.639671 0.202637 0
M  V30 8589 H 843.076 2.04487 -0.0229414 0
M  V30 8590 H 841.231 3.20872 2.17071 0
M  V30 8591 H 841.645 5.13326 1.07686 0
M  V30 8592 H 843.119 4.78547 2.75131 0
M  V30 8593 H 843.596 3.12301 3.08812 0
M  V30 8594 H 844.202 3.93075 1.62395 0
M  V30 8595 N 842.517 -0.29412 1.54831 0
M  V30 8596 C 843.45 -1.38779 1.81151 0
M  V30 8597 C 844.428 -1.48464 0.663124 0
M  V30 8598 O 845.612 -1.65418 0.903835 0
M  V30 8599 C 842.739 -2.76627 1.95436 0
M  V30 8600 C 841.785 -2.84333 3.17895 0
M  V30 8601 S 842.618 -2.45726 4.75793 0
M  V30 8602 C 843.774 -3.85589 4.93023 0
M  V30 8603 H 844.007 -1.16246 2.73631 0
M  V30 8604 H 841.54 -0.492611 1.46331 0
M  V30 8605 H 843.498 -3.56021 2.04351 0
M  V30 8606 H 842.159 -2.96425 1.03881 0
M  V30 8607 H 841.352 -3.85457 3.24713 0
M  V30 8608 H 840.954 -2.1294 3.07461 0
M  V30 8609 H 843.246 -4.80656 4.77468 0
M  V30 8610 H 844.189 -3.83737 5.95107 0
M  V30 8611 H 844.597 -3.75911 4.21131 0
M  V30 8612 N 843.995 -1.47404 -0.557645 0
M  V30 8613 C 845.241 -1.54235 -1.31679 0
M  V30 8614 C 845.574 -0.203782 -1.93128 0
M  V30 8615 O 844.849 0.787536 -1.77843 0
M  V30 8616 C 845.132 -2.66003 -2.42723 0
M  V30 8617 C 844.985 -4.09475 -1.86145 0
M  V30 8618 C 846.304 -2.73685 -3.44652 0
M  V30 8619 H 843.423 -0.561466 -0.477415 0
M  V30 8620 H 846.065 -1.79459 -0.624067 0
M  V30 8621 H 844.215 -2.44627 -3.01811 0
M  V30 8622 H 845.887 -4.42213 -1.31321 0
M  V30 8623 H 844.13 -4.17774 -1.16823 0
M  V30 8624 H 844.801 -4.83451 -2.66418 0
M  V30 8625 H 847.277 -2.92968 -2.95481 0
M  V30 8626 H 846.153 -3.53665 -4.19777 0
M  V30 8627 H 846.414 -1.80726 -4.03473 0
M  V30 8628 N 845.473 0.80434 -1.35529 0
M  V30 8629 C 846.884 1.37849 -1.25915 0
M  V30 8630 C 847.235 1.95905 0.107495 0
M  V30 8631 O 846.36 1.91462 1.00852 0
M  V30 8632 C 846.955 2.50608 -2.27994 0
M  V30 8633 C 845.514 3.03879 -2.22114 0
M  V30 8634 C 844.661 1.76856 -2.13582 0
M  V30 8635 H 847.612 0.607192 -1.46625 0
M  V30 8636 H 847.633 3.29221 -1.90772 0
M  V30 8637 H 847.145 2.08323 -3.27449 0
M  V30 8638 H 845.246 3.50622 -1.26077 0
M  V30 8639 H 845.359 3.61707 -3.14173 0
M  V30 8640 H 843.723 1.98498 -1.59595 0
M  V30 8641 H 844.506 1.36721 -3.14901 0
M  V30 8642 N 846.951 1.19563 1.02676 0
M  V30 8643 C 848.362 1.00158 1.57561 0
M  V30 8644 C 848.713 -0.444922 1.91089 0
M  V30 8645 O 847.838 -1.32466 1.71119 0
M  V30 8646 C 848.433 1.81181 2.86284 0
M  V30 8647 C 846.992 1.66171 3.37734 0
M  V30 8648 C 846.139 1.7975 2.11152 0
M  V30 8649 H 849.09 1.33904 0.85179 0
M  V30 8650 H 849.111 1.30916 3.57269 0
M  V30 8651 H 848.623 2.86454 2.6185 0
M  V30 8652 H 846.724 0.634927 3.6715 0
M  V30 8653 H 846.837 2.46832 4.10622 0
M  V30 8654 H 845.201 1.22833 2.23123 0
M  V30 8655 H 845.984 2.86487 1.89157 0
M  V30 8656 N 848.429 -1.21819 0.999893 0
M  V30 8657 C 849.654 -1.95298 0.698094 0
M  V30 8658 C 850.079 -1.73273 -0.731982 0
M  V30 8659 O 849.437 -1.01634 -1.50134 0
M  V30 8660 C 849.485 -3.45922 1.01834 0
M  V30 8661 O 848.589 -4.12223 0.120801 0
M  V30 8662 H 847.93 -0.610729 0.260588 0
M  V30 8663 H 850.46 -1.5472 1.33876 0
M  V30 8664 H 850.47 -3.96471 0.963074 0
M  V30 8665 H 849.145 -3.61278 2.06037 0
M  V30 8666 H 847.722 -3.72177 0.232153 0
M  V30 8667 N 849.908 -0.773975 -1.37286 0
M  V30 8668 C 851.157 -0.335977 -1.98882 0
M  V30 8669 C 851.47 1.09416 -1.62134 0
M  V30 8670 O 852.676 1.63366 -2.1685 0
M  V30 8671 C 851.132 -0.549756 -3.55676 0
M  V30 8672 C 850.74 -1.9903 -4.01361 0
M  V30 8673 C 852.484 -0.175493 -4.24137 0
M  V30 8674 C 850.391 -2.15156 -5.50874 0
M  V30 8675 H 849.321 -0.121877 -0.744085 0
M  V30 8676 H 851.972 -0.953419 -1.56787 0
M  V30 8677 H 850.354 0.137175 -3.95762 0
M  V30 8678 H 851.528 -2.71237 -3.72515 0
M  V30 8679 H 849.843 -2.32137 -3.4569 0
M  V30 8680 H 852.44 -0.274463 -5.33995 0
M  V30 8681 H 852.783 0.874524 -4.07011 0
M  V30 8682 H 853.316 -0.815058 -3.89361 0
M  V30 8683 H 850.055 -3.18485 -5.72929 0
M  V30 8684 H 849.575 -1.47435 -5.81397 0
M  V30 8685 H 851.254 -1.95124 -6.16876 0
M  V30 8686 N 851.386 1.48609 -0.524698 0
M  V30 8687 C 852.611 2.07398 0.00952139 0
M  V30 8688 C 853.036 1.37939 1.27884 0
M  V30 8689 O 852.394 0.443633 1.75788 0
M  V30 8690 C 852.442 3.59916 0.221956 0
M  V30 8691 O 851.546 3.91647 1.29175 0
M  V30 8692 H 850.887 0.662981 -0.0367729 0
M  V30 8693 H 853.417 1.91092 -0.7311 0
M  V30 8694 H 853.427 4.05552 0.446236 0
M  V30 8695 H 852.102 4.09876 -0.705306 0
M  V30 8696 H 850.679 3.57796 1.05055 0
M  V30 8697 N 852.864 0.259585 1.55447 0
M  V30 8698 C 854.112 -0.360893 1.98852 0
M  V30 8699 C 854.433 -1.57535 1.14924 0
M  V30 8700 O 853.703 -1.94485 0.235025 0
M  V30 8701 H 852.283 -0.136332 0.734454 0
M  V30 8702 H 854.945 0.361319 1.91522 0
M  V30 8703 H 854.041 -0.661388 3.05012 0
M  V30 8704 N 854.342 -1.57594 -0.0133615 0
M  V30 8705 C 855.292 -2.04048 -1.01726 0
M  V30 8706 C 856.276 -0.932682 -1.3111 0
M  V30 8707 O 857.468 -1.19652 -1.30432 0
M  V30 8708 C 854.597 -2.53637 -2.31351 0
M  V30 8709 C 853.683 -3.71269 -2.04989 0
M  V30 8710 N 854.074 -4.83436 -1.48739 0
M  V30 8711 C 852.372 -3.78943 -2.35198 0
M  V30 8712 C 853.073 -5.64961 -1.38542 0
M  V30 8713 N 852.049 -5.10554 -1.86643 0
M  V30 8714 H 855.851 -2.88188 -0.576623 0
M  V30 8715 H 853.365 -1.60912 -0.219344 0
M  V30 8716 H 855.362 -2.85186 -3.04096 0
M  V30 8717 H 854.022 -1.7091 -2.76079 0
M  V30 8718 H 855.033 -5.04558 -1.16798 0
M  V30 8719 H 851.71 -3.07047 -2.82893 0
M  V30 8720 H 853.1 -6.65092 -0.954075 0
M  V30 8721 N 855.82 0.285905 -1.54985 0
M  V30 8722 C 857.045 1.04207 -1.7932 0
M  V30 8723 C 857.47 1.79622 -0.558343 0
M  V30 8724 O 856.828 1.74506 0.491661 0
M  V30 8725 C 856.876 1.98648 -3.0095 0
M  V30 8726 O 855.98 3.07207 -2.75132 0
M  V30 8727 H 855.321 0.298596 -0.593074 0
M  V30 8728 H 857.851 0.318736 -2.02102 0
M  V30 8729 H 857.861 2.4084 -3.29333 0
M  V30 8730 H 856.536 1.43167 -3.90482 0
M  V30 8731 H 855.113 2.69423 -2.57809 0
M  V30 8732 N 857.298 1.47698 0.54982 0
M  V30 8733 C 858.714 1.3338 0.876468 0
M  V30 8734 C 858.914 0.329837 1.98782 0
M  V30 8735 O 857.97 -0.256022 2.51199 0
M  V30 8736 C 859.283 2.72903 1.26272 0
M  V30 8737 C 860.831 2.81243 1.37373 0
M  V30 8738 C 861.306 4.21423 1.79351 0
M  V30 8739 N 862.797 4.24 1.86489 0
M  V30 8740 C 863.532 5.29386 2.20313 0
M  V30 8741 N 863.028 6.4507 2.527 0
M  V30 8742 N 864.821 5.16768 2.2115 0
M  V30 8743 H 856.972 2.11603 -0.183781 0
M  V30 8744 H 859.235 0.947798 -0.0195601 0
M  V30 8745 H 858.941 3.47836 0.519889 0
M  V30 8746 H 858.815 3.05151 2.21727 0
M  V30 8747 H 861.202 2.06577 2.10737 0
M  V30 8748 H 861.283 2.52639 0.400882 0
M  V30 8749 H 860.927 4.96597 1.06555 0
M  V30 8750 H 860.857 4.47456 2.77652 0
M  V30 8751 H 863.348 3.40547 1.63817 0
M  V30 8752 H 863.661 7.21236 2.77557 0
M  V30 8753 H 862.006 6.48377 2.50263 0
M  V30 8754 H 865.197 4.25416 1.95293 0
M  V30 8755 H 865.37 5.99004 2.4718 0
M  V30 8756 N 858.776 -0.797141 1.35954 0
M  V30 8757 C 859.739 -1.89104 1.29508 0
M  V30 8758 C 860.739 -1.59495 0.204444 0
M  V30 8759 O 861.929 -1.68051 0.458746 0
M  V30 8760 C 859.061 -3.25726 1.00576 0
M  V30 8761 H 860.254 -1.96237 2.26785 0
M  V30 8762 H 857.807 -0.994075 1.20614 0
M  V30 8763 H 858.542 -3.24279 0.0372519 0
M  V30 8764 H 858.327 -3.48604 1.79492 0
M  V30 8765 H 859.817 -4.0578 0.986508 0
M  V30 8766 N 860.254 -1.20106 -1.0204 0
M  V30 8767 C 861.665 -1.00992 -1.57027 0
M  V30 8768 C 862.016 0.434782 -1.91322 0
M  V30 8769 O 861.141 1.31557 -1.71819 0
M  V30 8770 C 861.736 -1.82697 -2.85319 0
M  V30 8771 C 860.295 -1.67959 -3.36848 0
M  V30 8772 C 859.442 -1.80868 -2.10195 0
M  V30 8773 H 862.393 -1.34354 -0.844676 0
M  V30 8774 H 862.414 -1.32809 -3.5657 0
M  V30 8775 H 861.926 -2.87839 -2.60328 0
M  V30 8776 H 860.027 -0.654389 -3.66809 0
M  V30 8777 H 860.14 -2.49006 -4.09308 0
M  V30 8778 H 858.504 -1.24015 -2.22469 0
M  V30 8779 H 859.287 -2.87486 -1.87635 0
M  V30 8780 N 861.732 1.21287 -1.00634 0
M  V30 8781 C 862.978 1.90671 -0.690822 0
M  V30 8782 C 863.311 1.77996 0.776592 0
M  V30 8783 O 862.586 1.15748 1.5631 0
M  V30 8784 C 862.869 3.42426 -1.11428 0
M  V30 8785 C 862.722 3.64086 -2.64124 0
M  V30 8786 C 864.041 4.34851 -0.677686 0
M  V30 8787 H 861.16 0.692419 -0.252439 0
M  V30 8788 H 863.802 1.42893 -1.25226 0
M  V30 8789 H 861.952 3.83249 -0.636586 0
M  V30 8790 H 863.624 3.32582 -3.19667 0
M  V30 8791 H 861.867 3.07906 -3.05576 0
M  V30 8792 H 862.538 4.7042 -2.88806 0
M  V30 8793 H 865.014 4.01619 -1.0882 0
M  V30 8794 H 863.89 5.39675 -1.00213 0
M  V30 8795 H 864.151 4.4009 0.421125 0
M  V30 8796 N 863.21 0.781244 1.36873 0
M  V30 8797 C 864.14 0.188128 2.32741 0
M  V30 8798 C 865.121 -0.672326 1.56249 0
M  V30 8799 O 866.306 -0.607835 1.84442 0
M  V30 8800 C 863.436 -0.684341 3.40491 0
M  V30 8801 C 862.39 0.0755641 4.27933 0
M  V30 8802 C 861.716 -0.916968 5.26779 0
M  V30 8803 C 863.016 1.26006 5.06873 0
M  V30 8804 H 864.71 0.989016 2.82593 0
M  V30 8805 H 862.256 0.477038 1.35869 0
M  V30 8806 H 864.209 -1.10915 4.06541 0
M  V30 8807 H 862.933 -1.51785 2.89187 0
M  V30 8808 H 861.592 0.481258 3.63427 0
M  V30 8809 H 861.24 -1.74528 4.71751 0
M  V30 8810 H 860.94 -0.413 5.86147 0
M  V30 8811 H 862.464 -1.34052 5.95703 0
M  V30 8812 H 863.878 0.911425 5.66009 0
M  V30 8813 H 862.275 1.69676 5.75613 0
M  V30 8814 H 863.345 2.05948 4.38991 0
M  V30 8815 N 864.689 -1.48329 0.532571 0
M  V30 8816 C 865.599 -2.33445 -0.232546 0
M  V30 8817 C 866.615 -1.46651 -0.93645 0
M  V30 8818 O 867.791 -1.79627 -0.910834 0
M  V30 8819 C 864.856 -3.22824 -1.26434 0
M  V30 8820 C 863.917 -4.25492 -0.570511 0
M  V30 8821 C 863.15 -5.10601 -1.55315 0
M  V30 8822 O 863.373 -4.97733 -2.78599 0
M  V30 8823 O 862.307 -5.91927 -1.09112 0
M  V30 8824 H 866.133 -3.00119 0.464988 0
M  V30 8825 H 863.718 -1.46489 0.293462 0
M  V30 8826 H 865.6 -3.78103 -1.86055 0
M  V30 8827 H 864.275 -2.58807 -1.94424 0
M  V30 8828 H 863.182 -3.74041 0.0662587 0
M  V30 8829 H 864.515 -4.92154 0.0674904 0
M  V30 8830 N 866.167 -0.267825 -1.55308 0
M  V30 8831 C 867.097 0.616585 -2.25212 0
M  V30 8832 C 868.078 1.16472 -1.23969 0
M  V30 8833 O 869.263 1.20021 -1.52672 0
M  V30 8834 C 866.393 1.80412 -2.96764 0
M  V30 8835 C 865.347 1.38784 -4.04874 0
M  V30 8836 C 864.673 2.65789 -4.63961 0
M  V30 8837 C 865.973 0.543415 -5.19465 0
M  V30 8838 H 867.667 0.0336257 -2.99381 0
M  V30 8839 H 865.213 0.0147328 -1.43992 0
M  V30 8840 H 867.166 2.42866 -3.44375 0
M  V30 8841 H 865.89 2.4128 -2.20118 0
M  V30 8842 H 864.549 0.786541 -3.58063 0
M  V30 8843 H 864.197 3.24899 -3.83992 0
M  V30 8844 H 863.897 2.38651 -5.36954 0
M  V30 8845 H 865.421 3.29104 -5.14318 0
M  V30 8846 H 866.835 1.07277 -5.63174 0
M  V30 8847 H 865.232 0.367219 -5.98975 0
M  V30 8848 H 866.302 -0.439534 -4.82904 0
M  V30 8849 N 867.645 1.57599 0.00500368 0
M  V30 8850 C 868.555 2.11532 1.01446 0
M  V30 8851 C 869.571 1.05941 1.3803 0
M  V30 8852 O 870.747 1.37815 1.46864 0
M  V30 8853 C 867.812 2.60382 2.28915 0
M  V30 8854 C 866.873 3.80554 1.98689 0
M  V30 8855 C 866.106 4.27064 3.20081 0
M  V30 8856 O 866.329 3.72939 4.31593 0
M  V30 8857 O 865.263 5.1927 3.04371 0
M  V30 8858 H 869.089 2.97993 0.586011 0
M  V30 8859 H 866.674 1.47718 0.223519 0
M  V30 8860 H 868.556 2.92024 3.03809 0
M  V30 8861 H 867.231 1.77022 2.71007 0
M  V30 8862 H 866.138 3.53893 1.21286 0
M  V30 8863 H 867.471 4.64972 1.61437 0
M  V30 8864 N 869.123 -0.277682 1.55134 0
M  V30 8865 C 870.07 -1.34313 1.87693 0
M  V30 8866 C 871.04 -1.49298 0.727973 0
M  V30 8867 O 872.225 -1.6378 0.978807 0
M  V30 8868 C 869.365 -2.69922 2.15026 0
M  V30 8869 C 868.478 -2.63197 3.42565 0
M  V30 8870 C 867.613 -3.90955 3.59622 0
M  V30 8871 C 866.652 -3.78722 4.8087 0
M  V30 8872 N 865.789 -4.98303 4.94609 0
M  V30 8873 H 870.629 -1.05847 2.78569 0
M  V30 8874 H 868.166 -0.511469 1.37922 0
M  V30 8875 H 870.124 -3.48817 2.28872 0
M  V30 8876 H 868.754 -2.966 1.2739 0
M  V30 8877 H 867.806 -1.76038 3.37216 0
M  V30 8878 H 869.118 -2.50056 4.31594 0
M  V30 8879 H 868.272 -4.78291 3.7326 0
M  V30 8880 H 867.011 -4.06957 2.6877 0
M  V30 8881 H 866.016 -2.89769 4.67241 0
M  V30 8882 H 867.241 -3.64242 5.73153 0
M  V30 8883 H 865.187 -5.14725 4.06687 0
M  V30 8884 H 865.104 -4.87675 5.77676 0
M  V30 8885 H 866.372 -5.87225 5.12628 0
M  V30 8886 N 870.601 -1.47988 -0.541979 0
M  V30 8887 C 871.564 -1.61148 -1.62984 0
M  V30 8888 C 872.564 -0.48553 -1.53295 0
M  V30 8889 O 873.754 -0.751012 -1.5718 0
M  V30 8890 C 870.886 -1.57038 -3.02576 0
M  V30 8891 H 872.079 -2.58138 -1.52659 0
M  V30 8892 H 869.632 -1.36405 -0.763106 0
M  V30 8893 H 870.367 -0.614807 -3.18419 0
M  V30 8894 H 870.152 -2.38769 -3.11018 0
M  V30 8895 H 871.642 -1.69416 -3.81691 0
M  V30 8896 N 872.079 0.78992 -1.36375 0
M  V30 8897 C 872.989 1.93386 -1.32812 0
M  V30 8898 C 874.005 1.72468 -0.230377 0
M  V30 8899 O 875.181 1.96014 -0.462657 0
M  V30 8900 C 872.246 3.2824 -1.11621 0
M  V30 8901 C 871.307 3.61939 -2.30865 0
M  V30 8902 C 870.54 4.90359 -2.10675 0
M  V30 8903 O 870.763 5.6005 -1.08168 0
M  V30 8904 O 869.697 5.22702 -2.9844 0
M  V30 8905 H 873.523 1.99342 -2.29121 0
M  V30 8906 H 871.108 0.9301 -1.16917 0
M  V30 8907 H 872.99 4.08939 -1.01719 0
M  V30 8908 H 871.665 3.23178 -0.183732 0
M  V30 8909 H 870.572 2.81549 -2.46335 0
M  V30 8910 H 871.905 3.71725 -3.22617 0
M  V30 8911 N 873.557 1.20646 1.01402 0
M  V30 8912 C 874.805 1.01618 1.74695 0
M  V30 8913 C 875.126 -0.452438 1.89679 0
M  V30 8914 O 874.396 -1.32693 1.44116 0
M  V30 8915 H 872.976 0.373013 0.647202 0
M  V30 8916 H 875.638 1.518 1.22241 0
M  V30 8917 H 874.734 1.47666 2.74957 0
M  V30 8918 N 875.035 -1.20752 1.01276 0
M  V30 8919 C 876.446 -1.7175 0.732033 0
M  V30 8920 C 876.797 -1.8131 -0.749733 0
M  V30 8921 O 875.922 -1.47301 -1.58529 0
M  V30 8922 C 876.517 -3.11936 1.32217 0
M  V30 8923 C 875.076 -3.6026 1.09039 0
M  V30 8924 C 874.223 -2.37571 1.43022 0
M  V30 8925 H 877.174 -1.0582 1.1827 0
M  V30 8926 H 877.195 -3.73802 0.710771 0
M  V30 8927 H 876.707 -3.04946 2.40061 0
M  V30 8928 H 874.808 -3.72588 0.0294464 0
M  V30 8929 H 874.921 -4.45295 1.76775 0
M  V30 8930 H 873.285 -2.40128 0.849159 0
M  V30 8931 H 874.068 -2.33225 2.51915 0
M  V30 8932 N 876.513 -0.788492 -1.36457 0
M  V30 8933 C 877.738 -0.371224 -2.04051 0
M  V30 8934 C 878.163 1.004 -1.59064 0
M  V30 8935 O 877.521 1.64663 -0.758679 0
M  V30 8936 C 877.569 -0.442275 -3.57877 0
M  V30 8937 O 876.673 0.55113 -4.08701 0
M  V30 8938 H 876.014 -0.157808 -0.644975 0
M  V30 8939 H 878.544 -1.06935 -1.74431 0
M  V30 8940 H 878.554 -0.305548 -4.06854 0
M  V30 8941 H 877.229 -1.44547 -3.89973 0
M  V30 8942 H 875.806 0.37614 -3.70998 0
M  V30 8943 N 877.991 1.48044 -0.54043 0
M  V30 8944 C 878.954 2.28273 0.205966 0
M  V30 8945 C 879.954 1.35983 0.858209 0
M  V30 8946 O 881.144 1.58776 0.716651 0
M  V30 8947 C 878.276 3.15174 1.29917 0
M  V30 8948 H 879.469 2.95727 -0.498555 0
M  V30 8949 H 877.022 1.53457 -0.296745 0
M  V30 8950 H 877.757 2.52374 2.03661 0
M  V30 8951 H 877.542 3.83074 0.836475 0
M  V30 8952 H 879.032 3.75666 1.82387 0
M  V30 8953 N 879.47 0.276058 1.55163 0
M  V30 8954 C 880.886 -0.0780579 1.59409 0
M  V30 8955 C 881.086 -1.54521 1.29327 0
M  V30 8956 O 880.142 -2.29422 1.05459 0
M  V30 8957 C 881.455 0.297422 2.99225 0
M  V30 8958 C 883.003 0.244117 3.12047 0
M  V30 8959 C 883.478 0.594051 4.54131 0
M  V30 8960 N 884.969 0.54564 4.59975 0
M  V30 8961 C 885.704 0.789192 5.67943 0
M  V30 8962 N 885.2 1.09741 6.84053 0
M  V30 8963 N 886.993 0.717926 5.57496 0
M  V30 8964 H 879.144 1.23251 1.72982 0
M  V30 8965 H 881.407 0.497988 0.806667 0
M  V30 8966 H 881.113 1.31782 3.26077 0
M  V30 8967 H 880.987 -0.361286 3.75466 0
M  V30 8968 H 883.374 -0.766992 2.84958 0
M  V30 8969 H 883.455 0.937097 2.38017 0
M  V30 8970 H 883.099 1.60285 4.81945 0
M  V30 8971 H 883.029 -0.120728 5.26462 0
M  V30 8972 H 885.52 0.317334 3.76565 0
M  V30 8973 H 885.833 1.26989 7.62295 0
M  V30 8974 H 884.178 1.13519 6.85666 0
M  V30 8975 H 887.369 0.47697 4.65664 0
M  V30 8976 H 887.542 0.911118 6.41563 0
M  V30 8977 N 880.948 -1.576 0.00335426 0
M  V30 8978 C 882.359 -1.7875 -0.539008 0
M  V30 8979 C 882.71 -0.911097 -1.73763 0
M  V30 8980 O 881.835 -0.114476 -2.16097 0
M  V30 8981 C 882.43 -3.24177 -0.984611 0
M  V30 8982 C 880.989 -3.46412 -1.47226 0
M  V30 8983 C 880.136 -2.74024 -0.425004 0
M  V30 8984 H 883.087 -1.57032 0.229511 0
M  V30 8985 H 883.108 -3.32474 -1.85044 0
M  V30 8986 H 882.62 -3.87938 -0.112035 0
M  V30 8987 H 880.721 -2.8787 -2.36562 0
M  V30 8988 H 880.834 -4.55098 -1.49741 0
M  V30 8989 H 879.198 -2.38741 -0.887394 0
M  V30 8990 H 879.981 -3.40486 0.438662 0
M  V30 8991 N 882.426 0.269451 -1.5528 0
M  V30 8992 C 883.389 1.31642 -1.87625 0
M  V30 8993 C 884.389 1.42182 -0.751058 0
M  V30 8994 O 885.579 1.41272 -1.01921 0
M  V30 8995 C 882.711 2.6973 -2.08467 0
M  V30 8996 H 883.904 1.0419 -2.81219 0
M  V30 8997 H 881.457 0.507685 -1.47825 0
M  V30 8998 H 882.192 3.02356 -1.17266 0
M  V30 8999 H 881.977 2.63465 -2.90394 0
M  V30 9000 H 883.467 3.4537 -2.34753 0
M  V30 9001 N 883.904 1.48273 0.534124 0
M  V30 9002 C 885.132 1.59734 1.31501 0
M  V30 9003 C 885.547 0.256047 1.87056 0
M  V30 9004 O 884.904 -0.754086 1.66192 0
M  V30 9005 C 884.955 2.64072 2.46877 0
M  V30 9006 O 884.676 3.92995 1.93613 0
M  V30 9007 C 886.177 2.85933 3.38758 0
M  V30 9008 H 883.397 0.538703 0.40005 0
M  V30 9009 H 885.941 1.9407 0.644762 0
M  V30 9010 H 884.096 2.32606 3.09795 0
M  V30 9011 H 884.51 4.50203 2.69106 0
M  V30 9012 H 885.984 3.62749 4.16073 0
M  V30 9013 H 886.461 1.94603 3.93734 0
M  V30 9014 H 887.067 3.18687 2.81636 0
M  V30 9015 N 885.382 -0.782676 1.36792 0
M  V30 9016 C 886.793 -1.35828 1.28092 0
M  V30 9017 C 887.144 -1.96052 -0.076315 0
M  V30 9018 O 886.269 -1.93042 -0.977935 0
M  V30 9019 C 886.864 -2.46949 2.31952 0
M  V30 9020 C 885.423 -3.00307 2.2692 0
M  V30 9021 C 884.57 -1.73436 2.16368 0
M  V30 9022 H 887.521 -0.583788 1.47572 0
M  V30 9023 H 887.542 -3.26144 1.95986 0
M  V30 9024 H 887.054 -2.03087 3.30722 0
M  V30 9025 H 885.155 -3.48571 1.31639 0
M  V30 9026 H 885.268 -3.56663 3.19887 0
M  V30 9027 H 883.632 -1.95934 1.62733 0
M  V30 9028 H 884.415 -1.31693 3.17036 0
M  V30 9029 N 886.86 -1.21182 -1.00761 0
M  V30 9030 C 888.137 -0.936297 -1.71735 0
M  V30 9031 C 888.517 0.552585 -2.03739 0
M  V30 9032 O 887.865 1.51672 -1.70903 0
M  V30 9033 C 888.075 -1.81867 -2.97868 0
M  V30 9034 C 889.423 -2.06594 -3.7095 0
M  V30 9035 O 890.447 -1.79194 -3.07844 0
M  V30 9036 O 889.306 -2.5292 -4.84452 0
M  V30 9037 H 886.4 -0.350867 -0.74888 0
M  V30 9038 H 888.946 -1.32098 -1.06527 0
M  V30 9039 H 887.718 -2.82643 -2.70607 0
M  V30 9040 H 887.341 -1.43463 -3.70815 0
M  V30 9041 N 888.338 1.20213 -1.01915 0
M  V30 9042 C 889.268 2.25336 -0.612023 0
M  V30 9043 C 890.249 1.65933 0.374186 0
M  V30 9044 O 891.434 1.92464 0.259053 0
M  V30 9045 C 888.564 3.47267 0.047904 0
M  V30 9046 C 887.518 4.1928 -0.859557 0
M  V30 9047 C 886.844 5.3466 -0.0652655 0
M  V30 9048 C 888.144 4.75143 -2.1688 0
M  V30 9049 H 889.838 2.59645 -1.49079 0
M  V30 9050 H 887.384 1.24808 -0.718263 0
M  V30 9051 H 889.337 4.19991 0.344294 0
M  V30 9052 H 888.061 3.12129 0.961404 0
M  V30 9053 H 886.72 3.48425 -1.13999 0
M  V30 9054 H 886.368 4.95767 0.849964 0
M  V30 9055 H 886.068 5.83772 -0.669618 0
M  V30 9056 H 887.592 6.10187 0.224612 0
M  V30 9057 H 889.006 5.39672 -1.9346 0
M  V30 9058 H 887.403 5.34702 -2.72422 0
M  V30 9059 H 888.473 3.93744 -2.83008 0
M  V30 9060 N 889.816 0.795718 1.36037 0
M  V30 9061 C 891.063 0.371024 1.99072 0
M  V30 9062 C 891.391 -1.05896 1.63145 0
M  V30 9063 O 890.646 -1.7474 0.881163 0
M  V30 9064 C 890.945 0.489038 3.54038 0
M  V30 9065 C 890.611 1.88075 4.09803 0
M  V30 9066 C 889.273 2.26152 4.24745 0
M  V30 9067 C 891.625 2.79174 4.40126 0
M  V30 9068 C 888.953 3.54718 4.67324 0
M  V30 9069 C 891.305 4.07175 4.8414 0
M  V30 9070 C 889.969 4.45266 4.97287 0
M  V30 9071 H 889.239 0.135767 0.728456 0
M  V30 9072 H 891.886 1.0144 1.62426 0
M  V30 9073 H 890.191 -0.237823 3.91078 0
M  V30 9074 H 891.888 0.141374 4.00751 0
M  V30 9075 H 888.478 1.57488 3.98617 0
M  V30 9076 H 892.662 2.51009 4.28145 0
M  V30 9077 H 887.918 3.84093 4.75691 0
M  V30 9078 H 892.092 4.77875 5.06565 0
M  V30 9079 H 889.719 5.44943 5.30038 0
M  V30 9080 N 891.294 -1.47756 0.548274 0
M  V30 9081 C 892.54 -2.03379 0.0291238 0
M  V30 9082 C 892.895 -1.41603 -1.30255 0
M  V30 9083 O 892.188 -0.559102 -1.83261 0
M  V30 9084 C 892.382 -3.5716 -0.131069 0
M  V30 9085 C 892.211 -4.33846 1.18353 0
M  V30 9086 C 890.981 -4.74087 1.74841 0
M  V30 9087 C 893.179 -4.69535 2.09861 0
M  V30 9088 N 891.161 -5.35382 3.00398 0
M  V30 9089 C 892.532 -5.31039 3.19997 0
M  V30 9090 C 894.587 -4.51464 2.09964 0
M  V30 9091 C 893.29 -5.7638 4.30323 0
M  V30 9092 C 895.316 -4.97798 3.19297 0
M  V30 9093 C 894.678 -5.59343 4.28152 0
M  V30 9094 H 890.777 -0.780229 0.0526037 0
M  V30 9095 H 893.361 -1.80351 0.733593 0
M  V30 9096 H 891.532 -3.79974 -0.804647 0
M  V30 9097 H 893.264 -3.99422 -0.651476 0
M  V30 9098 H 890.019 -4.55764 1.2875 0
M  V30 9099 H 890.443 -5.7058 3.64372 0
M  V30 9100 H 895.085 -4.03246 1.27093 0
M  V30 9101 H 892.803 -6.23594 5.13961 0
M  V30 9102 H 896.389 -4.85593 3.20454 0
M  V30 9103 H 895.269 -5.94544 5.11358 0
M  V30 9104 N 892.772 -0.284283 -1.55015 0
M  V30 9105 C 893.997 0.335799 -2.04664 0
M  V30 9106 C 894.422 1.47999 -1.16094 0
M  V30 9107 O 893.78 1.8058 -0.161454 0
M  V30 9108 C 893.828 0.785615 -3.51938 0
M  V30 9109 O 892.932 1.89202 -3.66437 0
M  V30 9110 H 892.273 0.0680233 -0.660506 0
M  V30 9111 H 894.803 -0.421255 -2.00216 0
M  V30 9112 H 894.813 1.07892 -3.93476 0
M  V30 9113 H 893.488 -0.0514675 -4.15868 0
M  V30 9114 H 892.065 1.60055 -3.36804 0
M  V30 9115 N 894.251 1.57596 -0.0117121 0
M  V30 9116 C 895.662 1.79033 0.529521 0
M  V30 9117 C 896.013 0.920299 1.73277 0
M  V30 9118 O 895.138 0.125934 2.16033 0
M  V30 9119 C 895.733 3.24695 0.967405 0
M  V30 9120 C 894.292 3.47188 1.45387 0
M  V30 9121 C 893.439 2.74245 0.410466 0
M  V30 9122 H 896.39 1.56908 -0.237836 0
M  V30 9123 H 896.411 3.33451 1.83278 0
M  V30 9124 H 895.923 3.87992 0.0914605 0
M  V30 9125 H 894.024 2.89121 2.35032 0
M  V30 9126 H 894.137 4.55886 1.47325 0
M  V30 9127 H 892.501 2.39209 0.874721 0
M  V30 9128 H 893.284 3.40248 -0.456713 0
M  V30 9129 N 895.729 -0.261212 1.5542 0
M  V30 9130 C 896.659 -1.32712 1.92119 0
M  V30 9131 C 897.64 -1.50934 0.784406 0
M  V30 9132 O 898.825 -1.63781 1.04352 0
M  V30 9133 C 895.955 -2.68453 2.20341 0
M  V30 9134 C 894.909 -2.64947 3.36136 0
M  V30 9135 C 894.235 -4.04349 3.49865 0
M  V30 9136 C 895.535 -2.23182 4.72215 0
M  V30 9137 H 897.229 -1.02245 2.81401 0
M  V30 9138 H 894.775 -0.490406 1.35392 0
M  V30 9139 H 896.728 -3.43144 2.44603 0
M  V30 9140 H 895.452 -3.00527 1.27871 0
M  V30 9141 H 894.111 -1.92714 3.11861 0
M  V30 9142 H 893.759 -4.33665 2.5484 0
M  V30 9143 H 893.459 -4.02895 4.27726 0
M  V30 9144 H 894.983 -4.80761 3.76432 0
M  V30 9145 H 896.397 -2.87599 4.95943 0
M  V30 9146 H 894.794 -2.32867 5.53076 0
M  V30 9147 H 895.864 -1.18327 4.70241 0
M  V30 9148 N 897.207 -1.48554 -0.526253 0
M  V30 9149 C 898.117 -1.66044 -1.65731 0
M  V30 9150 C 899.133 -0.542951 -1.65312 0
M  V30 9151 O 900.309 -0.814495 -1.84195 0
M  V30 9152 C 897.374 -1.69959 -3.02184 0
M  V30 9153 C 896.435 -2.93362 -3.13428 0
M  V30 9154 C 895.668 -2.97081 -4.43372 0
M  V30 9155 O 895.891 -2.09103 -5.3069 0
M  V30 9156 O 894.825 -3.8929 -4.59061 0
M  V30 9157 H 898.651 -2.61811 -1.53912 0
M  V30 9158 H 896.236 -1.31999 -0.699759 0
M  V30 9159 H 898.118 -1.75033 -3.83329 0
M  V30 9160 H 896.793 -0.773658 -3.14319 0
M  V30 9161 H 895.7 -2.93818 -2.31564 0
M  V30 9162 H 897.033 -3.85352 -3.06211 0
M  V30 9163 N 898.685 0.775411 -1.37205 0
M  V30 9164 C 899.648 1.8702 -1.325 0
M  V30 9165 C 900.648 1.5915 -0.229793 0
M  V30 9166 O 901.838 1.673 -0.485423 0
M  V30 9167 C 898.97 3.24085 -1.05745 0
M  V30 9168 H 900.163 1.92604 -2.29878 0
M  V30 9169 H 897.716 0.97476 -1.22181 0
M  V30 9170 H 898.451 3.24178 -0.0888371 0
M  V30 9171 H 898.236 3.45705 -1.85016 0
M  V30 9172 H 899.726 4.0416 -1.05094 0
M  V30 9173 N 900.163 1.21714 1.00117 0
M  V30 9174 C 901.391 1.06278 1.77518 0
M  V30 9175 C 901.806 -0.387193 1.84787 0
M  V30 9176 O 901.163 -1.26854 1.31203 0
M  V30 9177 C 901.214 1.65795 3.21239 0
M  V30 9178 O 900.935 3.05119 3.14378 0
M  V30 9179 C 902.436 1.55521 4.15124 0
M  V30 9180 H 899.656 0.373013 0.557765 0
M  V30 9181 H 902.2 1.61133 1.25922 0
M  V30 9182 H 900.355 1.15022 3.69931 0
M  V30 9183 H 900.769 3.33643 4.04701 0
M  V30 9184 H 902.243 2.01902 5.13751 0
M  V30 9185 H 902.72 0.510307 4.36225 0
M  V30 9186 H 903.326 2.0556 3.72324 0
M  V30 9187 N 901.641 -1.19671 1.02551 0
M  V30 9188 C 902.887 -1.89548 0.721069 0
M  V30 9189 C 903.22 -1.79209 -0.748176 0
M  V30 9190 O 902.495 -1.1822 -1.54448 0
M  V30 9191 C 902.778 -3.4061 1.16861 0
M  V30 9192 C 902.631 -3.59838 2.69883 0
M  V30 9193 C 903.95 -4.33718 0.746782 0
M  V30 9194 H 901.069 -0.688315 0.263422 0
M  V30 9195 H 903.711 -1.40883 1.27483 0
M  V30 9196 H 901.861 -3.82188 0.697477 0
M  V30 9197 H 903.533 -3.27454 3.24917 0
M  V30 9198 H 901.776 -3.03005 3.10435 0
M  V30 9199 H 902.447 -4.65766 2.96253 0
M  V30 9200 H 904.923 -3.99837 1.15195 0
M  V30 9201 H 903.799 -5.38012 1.08786 0
M  V30 9202 H 904.06 -4.40704 -0.351057 0
M  V30 9203 N 903.119 -0.802921 -1.35613 0
M  V30 9204 C 904.344 -0.392846 -2.03645 0
M  V30 9205 C 904.769 0.987075 -1.6012 0
M  V30 9206 O 904.127 1.63849 -0.776101 0
M  V30 9207 C 904.175 -0.480208 -3.57388 0
M  V30 9208 O 903.279 0.507751 -4.09262 0
M  V30 9209 H 902.62 -0.16464 -0.643265 0
M  V30 9210 H 905.15 -1.08779 -1.73287 0
M  V30 9211 H 905.16 -0.348683 -4.06507 0
M  V30 9212 H 903.835 -1.48675 -3.88418 0
M  V30 9213 H 902.412 0.336769 -3.71376 0
M  V30 9214 N 904.597 1.47463 -0.556102 0
M  V30 9215 C 905.56 2.28478 0.181743 0
M  V30 9216 C 906.56 1.36886 0.843738 0
M  V30 9217 O 907.75 1.59527 0.69977 0
M  V30 9218 C 904.882 3.16534 1.26566 0
M  V30 9219 H 906.075 2.95182 -0.529892 0
M  V30 9220 H 903.628 1.53134 -0.313005 0
M  V30 9221 H 904.363 2.5452 2.00973 0
M  V30 9222 H 904.148 3.83939 0.795798 0
M  V30 9223 H 905.638 3.77579 1.78393 0
M  V30 9224 N 906.075 0.2925 1.54862 0
M  V30 9225 C 907.486 -0.201841 1.85606 0
M  V30 9226 C 907.837 -1.54093 1.21449 0
M  V30 9227 O 906.962 -2.10327 0.509079 0
M  V30 9228 C 907.557 -0.373011 3.3674 0
M  V30 9229 C 906.116 -0.811574 3.67547 0
M  V30 9230 C 905.263 0.0850583 2.7717 0
M  V30 9231 H 908.214 0.513774 1.50153 0
M  V30 9232 H 908.235 -1.20892 3.60785 0
M  V30 9233 H 907.747 0.601751 3.83407 0
M  V30 9234 H 905.848 -1.79719 3.26392 0
M  V30 9235 H 905.961 -0.636853 4.74848 0
M  V30 9236 H 904.325 -0.434224 2.50971 0
M  V30 9237 H 905.108 1.05602 3.26654 0
M  V30 9238 N 907.553 -1.57587 0.0200696 0
M  V30 9239 C 908.778 -1.96124 -0.674547 0
M  V30 9240 C 909.203 -0.896068 -1.65385 0
M  V30 9241 O 908.561 0.143925 -1.80728 0
M  V30 9242 C 908.609 -3.3376 -1.36517 0
M  V30 9243 O 907.713 -3.29483 -2.48022 0
M  V30 9244 H 907.054 -0.639719 -0.177919 0
M  V30 9245 H 909.584 -2.04447 0.0792317 0
M  V30 9246 H 909.594 -3.69785 -1.72403 0
M  V30 9247 H 908.269 -4.10832 -0.647265 0
M  V30 9248 H 906.846 -3.05162 -2.14314 0
M  V30 9249 N 909.032 0.252966 -1.55557 0
M  V30 9250 C 910.443 0.822503 -1.67606 0
M  V30 9251 C 910.794 1.86265 -0.616411 0
M  V30 9252 O 909.919 2.15082 0.238447 0
M  V30 9253 C 910.514 1.49866 -3.03852 0
M  V30 9254 C 909.073 2.01597 -3.17861 0
M  V30 9255 C 908.22 0.864943 -2.63465 0
M  V30 9256 H 911.171 0.0288958 -1.58674 0
M  V30 9257 H 911.192 2.36646 -2.97958 0
M  V30 9258 H 910.704 0.741378 -3.80953 0
M  V30 9259 H 908.805 2.80224 -2.45571 0
M  V30 9260 H 908.918 2.21752 -4.24692 0
M  V30 9261 H 907.282 1.2638 -2.21134 0
M  V30 9262 H 908.065 0.120847 -3.43087 0
M  V30 9263 N 910.51 1.48831 0.518367 0
M  V30 9264 C 911.473 1.63721 1.604 0
M  V30 9265 C 912.473 0.509857 1.52503 0
M  V30 9266 O 913.663 0.775922 1.55965 0
M  V30 9267 C 910.795 1.61831 3.00039 0
M  V30 9268 H 911.988 2.60534 1.48533 0
M  V30 9269 H 909.541 1.37602 0.741309 0
M  V30 9270 H 910.276 0.665387 3.17401 0
M  V30 9271 H 910.061 2.43686 3.0718 0
M  V30 9272 H 911.551 1.75467 3.78947 0
M  V30 9273 N 911.988 -0.768124 1.37614 0
M  V30 9274 C 913.399 -1.34462 1.29525 0
M  V30 9275 C 913.75 -1.96121 -0.0555168 0
M  V30 9276 O 912.875 -1.94069 -0.957406 0
M  V30 9277 C 913.47 -2.44475 2.34558 0
M  V30 9278 C 912.029 -2.97883 2.30093 0
M  V30 9279 C 911.176 -1.71131 2.18196 0
M  V30 9280 H 914.127 -0.568103 1.48183 0
M  V30 9281 H 914.148 -3.24047 1.99434 0
M  V30 9282 H 913.66 -1.99568 3.32858 0
M  V30 9283 H 911.761 -3.47156 1.35328 0
M  V30 9284 H 911.874 -3.53251 3.23652 0
M  V30 9285 H 910.238 -1.94197 1.64802 0
M  V30 9286 H 911.021 -1.28323 3.18415 0
M  V30 9287 N 913.466 -1.22244 -0.994698 0
M  V30 9288 C 914.712 -1.05752 -1.73747 0
M  V30 9289 C 915.067 0.403416 -1.88123 0
M  V30 9290 O 914.36 1.29511 -1.412 0
M  V30 9291 C 914.554 -1.70014 -3.14372 0
M  V30 9292 C 914.383 -3.22205 -3.1371 0
M  V30 9293 C 913.153 -3.91301 -3.19705 0
M  V30 9294 C 915.351 -4.19163 -2.98005 0
M  V30 9295 N 913.333 -5.30594 -3.08778 0
M  V30 9296 C 914.704 -5.45274 -2.95087 0
M  V30 9297 C 916.759 -4.10078 -2.82383 0
M  V30 9298 C 915.462 -6.63345 -2.78146 0
M  V30 9299 C 917.488 -5.27797 -2.66803 0
M  V30 9300 C 916.85 -6.52826 -2.6457 0
M  V30 9301 H 912.949 -0.441393 -0.64552 0
M  V30 9302 H 915.533 -1.54757 -1.18146 0
M  V30 9303 H 913.704 -1.23562 -3.68221 0
M  V30 9304 H 915.436 -1.46631 -3.77202 0
M  V30 9305 H 912.191 -3.42289 -3.27315 0
M  V30 9306 H 912.615 -6.0358 -3.06628 0
M  V30 9307 H 917.257 -3.14201 -2.82909 0
M  V30 9308 H 914.975 -7.59373 -2.76367 0
M  V30 9309 H 918.561 -5.22598 -2.557 0
M  V30 9310 H 917.441 -7.42383 -2.5266 0
M  V30 9311 N 914.944 1.19125 -1.03184 0
M  V30 9312 C 915.854 2.26112 -0.625329 0
M  V30 9313 C 916.87 1.7056 0.344298 0
M  V30 9314 O 918.046 2.0039 0.20144 0
M  V30 9315 C 915.111 3.46697 0.0145169 0
M  V30 9316 C 914.172 4.17419 -1.00299 0
M  V30 9317 C 913.405 5.32247 -0.393581 0
M  V30 9318 O 913.628 5.64724 0.802659 0
M  V30 9319 O 912.562 5.91428 -1.1179 0
M  V30 9320 H 916.388 2.63131 -1.51643 0
M  V30 9321 H 913.973 1.26036 -0.802197 0
M  V30 9322 H 915.855 4.19762 0.371139 0
M  V30 9323 H 914.53 3.11521 0.879581 0
M  V30 9324 H 913.437 3.4646 -1.41125 0
M  V30 9325 H 914.77 4.56573 -1.83852 0
M  V30 9326 N 916.422 0.810101 1.35185 0
M  V30 9327 C 917.385 0.22852 2.28058 0
M  V30 9328 C 918.385 -0.586168 1.49735 0
M  V30 9329 O 919.575 -0.40414 1.69447 0
M  V30 9330 C 916.707 -0.681041 3.34028 0
M  V30 9331 H 917.9 1.04768 2.81005 0
M  V30 9332 H 915.453 0.58101 1.451 0
M  V30 9333 H 916.188 -1.52375 2.86273 0
M  V30 9334 H 915.973 -0.0985276 3.91976 0
M  V30 9335 H 917.463 -1.08217 4.03335 0
M  V30 9336 N 917.9 -1.47166 0.563914 0
M  V30 9337 C 919.147 -2.02456 0.042371 0
M  V30 9338 C 919.475 -1.43753 -1.31016 0
M  V30 9339 O 918.73 -0.585287 -1.86743 0
M  V30 9340 C 919.029 -3.57279 -0.0931797 0
M  V30 9341 C 918.695 -4.34932 1.18933 0
M  V30 9342 C 917.357 -4.55867 1.54073 0
M  V30 9343 C 919.709 -4.79665 2.03889 0
M  V30 9344 C 917.037 -5.18785 2.74005 0
M  V30 9345 C 919.389 -5.43907 3.23029 0
M  V30 9346 C 918.053 -5.63074 3.58475 0
M  V30 9347 H 917.323 -0.740838 0.0155047 0
M  V30 9348 H 919.97 -1.76759 0.736776 0
M  V30 9349 H 918.275 -3.82005 -0.870596 0
M  V30 9350 H 919.972 -3.97716 -0.512176 0
M  V30 9351 H 916.562 -4.18921 0.905718 0
M  V30 9352 H 920.746 -4.63264 1.78046 0
M  V30 9353 H 916.002 -5.31818 3.01628 0
M  V30 9354 H 920.176 -5.77531 3.89141 0
M  V30 9355 H 917.803 -6.11598 4.515 0
M  V30 9356 N 919.378 -0.300708 -1.54705 0
M  V30 9357 C 920.789 0.191995 -1.8571 0
M  V30 9358 C 921.14 1.53447 -1.22264 0
M  V30 9359 O 920.265 2.10054 -0.520226 0
M  V30 9360 C 920.86 0.355148 -3.36933 0
M  V30 9361 C 919.419 0.792071 -3.67972 0
M  V30 9362 C 918.566 -0.099756 -2.77121 0
M  V30 9363 H 921.517 -0.521729 -1.49879 0
M  V30 9364 H 921.538 1.18977 -3.61421 0
M  V30 9365 H 921.05 -0.622075 -3.83082 0
M  V30 9366 H 919.151 1.77986 -3.27341 0
M  V30 9367 H 919.264 0.611661 -4.75179 0
M  V30 9368 H 917.628 0.420909 -2.51198 0
M  V30 9369 H 918.411 -1.07333 -3.2609 0
M  V30 9370 N 920.856 1.57574 -0.0284266 0
M  V30 9371 C 922.102 1.92056 0.651327 0
M  V30 9372 C 922.435 0.905092 1.71819 0
M  V30 9373 O 921.71 -0.0722703 1.94366 0
M  V30 9374 C 921.993 3.37021 1.26841 0
M  V30 9375 C 921.846 4.49304 0.211157 0
M  V30 9376 C 923.165 3.81936 2.18662 0
M  V30 9377 H 920.284 0.698428 0.235304 0
M  V30 9378 H 922.926 1.89807 -0.0855435 0
M  V30 9379 H 921.076 3.39068 1.89644 0
M  V30 9380 H 922.748 4.5939 -0.419379 0
M  V30 9381 H 920.991 4.31317 -0.463445 0
M  V30 9382 H 921.662 5.47764 0.682518 0
M  V30 9383 H 924.138 3.8162 1.65847 0
M  V30 9384 H 923.014 4.84064 2.58792 0
M  V30 9385 H 923.275 3.174 3.07749 0
M  V30 9386 N 922.334 -0.244713 1.55689 0
M  V30 9387 C 923.297 -1.2864 1.89695 0
M  V30 9388 C 924.297 -1.40969 0.773583 0
M  V30 9389 O 925.487 -1.39632 1.04156 0
M  V30 9390 C 922.619 -2.66379 2.12732 0
M  V30 9391 H 923.812 -0.997033 2.82841 0
M  V30 9392 H 921.365 -0.484103 1.48614 0
M  V30 9393 H 922.1 -3.00452 1.22062 0
M  V30 9394 H 921.885 -2.58812 2.94549 0
M  V30 9395 H 923.375 -3.41592 2.40218 0
M  V30 9396 N 923.813 -1.49104 -0.510467 0
M  V30 9397 C 925.041 -1.61806 -1.28944 0
M  V30 9398 C 925.456 -0.285774 -1.86625 0
M  V30 9399 O 924.813 0.727551 -1.67371 0
M  V30 9400 C 924.864 -2.67966 -2.42645 0
M  V30 9401 O 924.585 -3.96026 -1.87337 0
M  V30 9402 C 926.086 -2.91286 -3.34166 0
M  V30 9403 H 923.306 -0.544999 -0.391429 0
M  V30 9404 H 925.85 -1.95071 -0.613805 0
M  V30 9405 H 924.005 -2.37505 -3.06056 0
M  V30 9406 H 924.419 -4.54427 -2.61909 0
M  V30 9407 H 925.893 -3.69323 -4.1025 0
M  V30 9408 H 926.37 -2.00842 -3.90588 0
M  V30 9409 H 926.976 -3.23127 -2.76531 0
M  V30 9410 N 925.291 0.760815 -1.38019 0
M  V30 9411 C 926.516 1.55513 -1.37224 0
M  V30 9412 C 926.941 1.88062 0.037611 0
M  V30 9413 O 926.299 1.50042 1.0177 0
M  V30 9414 C 926.347 2.83539 -2.22796 0
M  V30 9415 O 925.451 3.78384 -1.64009 0
M  V30 9416 H 924.792 0.470642 -0.468393 0
M  V30 9417 H 927.322 0.940792 -1.81687 0
M  V30 9418 H 927.332 3.32535 -2.36399 0
M  V30 9419 H 926.007 2.59178 -3.25269 0
M  V30 9420 H 924.584 3.37063 -1.59508 0
M  V30 9421 N 926.769 1.22769 0.988202 0
M  V30 9422 C 928.18 1.0512 1.54294 0
M  V30 9423 C 928.531 -0.383904 1.92407 0
M  V30 9424 O 927.656 -1.26955 1.75246 0
M  V30 9425 C 928.251 1.90198 2.80375 0
M  V30 9426 C 926.81 1.76831 3.32276 0
M  V30 9427 C 925.957 1.86377 2.05326 0
M  V30 9428 H 928.908 1.36546 0.808758 0
M  V30 9429 H 928.929 1.42216 3.52923 0
M  V30 9430 H 928.441 2.9464 2.52605 0
M  V30 9431 H 926.542 0.751412 3.64945 0
M  V30 9432 H 926.655 2.59771 4.02562 0
M  V30 9433 H 925.019 1.2987 2.19103 0
M  V30 9434 H 925.802 2.9236 1.79946 0
M  V30 9435 N 928.247 -1.18576 1.03814 0
M  V30 9436 C 929.524 -1.8433 0.654358 0
M  V30 9437 C 929.904 -1.92504 -0.866338 0
M  V30 9438 O 929.252 -1.44904 -1.76678 0
M  V30 9439 C 929.462 -3.22778 1.32723 0
M  V30 9440 C 930.81 -3.98841 1.45641 0
M  V30 9441 O 931.834 -3.32209 1.28514 0
M  V30 9442 O 930.693 -5.18219 1.73526 0
M  V30 9443 H 927.787 -0.794766 0.228638 0
M  V30 9444 H 930.333 -1.25989 1.13687 0
M  V30 9445 H 929.105 -3.11717 2.36534 0
M  V30 9446 H 928.728 -3.88772 0.833176 0
M  V30 9447 N 929.725 -0.817259 -1.34754 0
M  V30 9448 C 930.655 -0.249769 -2.3216 0
M  V30 9449 C 931.636 0.630663 -1.57977 0
M  V30 9450 O 932.821 0.558719 -1.85989 0
M  V30 9451 C 929.951 0.593825 -3.42186 0
M  V30 9452 C 928.905 -0.188997 -4.27583 0
M  V30 9453 C 928.231 0.776979 -5.29025 0
M  V30 9454 C 929.531 -1.39401 -5.03354 0
M  V30 9455 H 931.225 -1.06359 -2.79872 0
M  V30 9456 H 928.771 -0.512894 -1.34556 0
M  V30 9457 H 930.724 1.00097 -4.09339 0
M  V30 9458 H 929.448 1.44064 -2.93109 0
M  V30 9459 H 928.107 -0.577445 -3.62024 0
M  V30 9460 H 927.755 1.61959 -4.76212 0
M  V30 9461 H 927.455 0.257448 -5.87036 0
M  V30 9462 H 928.979 1.18211 -5.99048 0
M  V30 9463 H 930.393 -1.06117 -5.63393 0
M  V30 9464 H 928.79 -1.84878 -5.70912 0
M  V30 9465 H 929.86 -2.17515 -4.33377 0
M  V30 9466 N 931.203 1.46865 -0.571711 0
M  V30 9467 C 932.614 1.86158 -0.142181 0
M  V30 9468 C 932.965 1.47663 1.2919 0
M  V30 9469 O 932.09 0.886393 1.97413 0
M  V30 9470 C 932.685 3.37867 -0.251256 0
M  V30 9471 C 931.244 3.76198 0.123329 0
M  V30 9472 C 930.391 2.70902 -0.592232 0
M  V30 9473 H 933.342 1.38176 -0.780587 0
M  V30 9474 H 933.363 3.76842 0.526331 0
M  V30 9475 H 932.875 3.65853 -1.2951 0
M  V30 9476 H 930.976 3.53829 1.16773 0
M  V30 9477 H 931.089 4.78471 -0.24533 0
M  V30 9478 H 929.453 2.54678 -0.0336927 0
M  V30 9479 H 930.236 3.01729 -1.63751 0
M  V30 9480 N 932.681 0.308908 1.54543 0
M  V30 9481 C 933.614 -0.605854 2.20011 0
M  V30 9482 C 934.592 -1.1269 1.17216 0
M  V30 9483 O 935.776 -1.19363 1.45893 0
M  V30 9484 C 932.903 -1.82977 2.85021 0
M  V30 9485 C 931.949 -1.44126 4.0141 0
M  V30 9486 S 932.782 -0.490445 5.33249 0
M  V30 9487 C 933.938 -1.72198 6.01746 0
M  V30 9488 H 934.171 -0.0496911 2.97258 0
M  V30 9489 H 931.704 0.0930238 1.5412 0
M  V30 9490 H 933.662 -2.53211 3.23102 0
M  V30 9491 H 932.323 -2.35711 2.07604 0
M  V30 9492 H 931.516 -2.35288 4.45708 0
M  V30 9493 H 931.118 -0.818788 3.64927 0
M  V30 9494 H 933.41 -2.66147 6.23034 0
M  V30 9495 H 934.353 -1.32142 6.95661 0
M  V30 9496 H 934.761 -1.90229 5.31482 0
M  V30 9497 N 934.159 -1.57557 0.0367827 0
M  V30 9498 C 935.092 -2.06205 -0.977479 0
M  V30 9499 C 936.07 -0.959444 -1.31276 0
M  V30 9500 O 937.254 -1.23033 -1.42811 0
M  V30 9501 C 934.381 -2.49053 -2.29544 0
M  V30 9502 C 933.427 -3.70409 -2.11423 0
M  V30 9503 S 934.26 -5.16715 -1.40593 0
M  V30 9504 C 935.416 -5.62864 -2.73742 0
M  V30 9505 H 935.649 -2.91913 -0.5634 0
M  V30 9506 H 933.182 -1.53404 -0.175111 0
M  V30 9507 H 935.14 -2.74403 -3.05308 0
M  V30 9508 H 933.801 -1.63677 -2.68083 0
M  V30 9509 H 932.994 -3.98262 -3.08875 0
M  V30 9510 H 932.596 -3.4525 -1.438 0
M  V30 9511 H 934.888 -5.67571 -3.69958 0
M  V30 9512 H 935.831 -6.62294 -2.50544 0
M  V30 9513 H 936.239 -4.90539 -2.79341 0
M  V30 9514 N 935.637 0.236453 -1.55816 0
M  V30 9515 C 936.6 1.27633 -1.90375 0
M  V30 9516 C 937.6 1.40557 -0.781048 0
M  V30 9517 O 938.79 1.39078 -1.04895 0
M  V30 9518 C 935.922 2.65247 -2.14142 0
M  V30 9519 H 937.115 0.982019 -2.83366 0
M  V30 9520 H 934.668 0.476215 -1.48869 0
M  V30 9521 H 935.403 2.99801 -1.23653 0
M  V30 9522 H 935.188 2.57246 -2.95917 0
M  V30 9523 H 936.678 3.40313 -2.42026 0
M  V30 9524 N 937.115 1.49373 0.502552 0
M  V30 9525 C 938.048 1.60529 1.6219 0
M  V30 9526 C 939.026 0.454431 1.56121 0
M  V30 9527 O 940.21 0.669768 1.762 0
M  V30 9528 C 937.337 1.55879 3.00698 0
M  V30 9529 C 936.383 2.76143 3.25034 0
M  V30 9530 S 937.216 4.37831 3.08325 0
M  V30 9531 C 938.372 4.35824 4.49231 0
M  V30 9532 H 938.605 2.55219 1.52482 0
M  V30 9533 H 936.138 1.38244 0.687594 0
M  V30 9534 H 938.096 1.53882 3.80566 0
M  V30 9535 H 936.757 0.624791 3.07823 0
M  V30 9536 H 935.95 2.69104 4.26144 0
M  V30 9537 H 935.552 2.75544 2.52886 0
M  V30 9538 H 937.844 4.07447 5.41288 0
M  V30 9539 H 938.787 5.37206 4.6132 0
M  V30 9540 H 939.195 3.65923 4.29838 0
M  V30 9541 N 938.594 -0.753485 1.38421 0
M  V30 9542 C 939.524 -1.8808 1.38377 0
M  V30 9543 C 940.505 -1.68258 0.249664 0
M  V30 9544 O 941.69 -1.88848 0.45276 0
M  V30 9545 C 938.82 -3.25608 1.20818 0
M  V30 9546 C 937.774 -3.60032 2.31433 0
M  V30 9547 C 937.1 -4.96297 1.9898 0
M  V30 9548 C 938.4 -3.64898 3.73694 0
M  V30 9549 H 940.094 -1.88375 2.32713 0
M  V30 9550 H 937.64 -0.90489 1.12017 0
M  V30 9551 H 939.593 -4.04127 1.19412 0
M  V30 9552 H 938.317 -3.25793 0.229433 0
M  V30 9553 H 936.976 -2.83831 2.32025 0
M  V30 9554 H 936.624 -4.93043 0.995889 0
M  V30 9555 H 936.324 -5.20298 2.73063 0
M  V30 9556 H 937.848 -5.77196 1.99193 0
M  V30 9557 H 939.262 -4.33531 3.75132 0
M  V30 9558 H 937.659 -4.00407 4.46983 0
M  V30 9559 H 938.729 -2.65124 4.06002 0
M  V30 9560 N 940.072 -1.23292 -0.981677 0
M  V30 9561 C 941.488 -0.995295 -1.24764 0
M  V30 9562 C 941.688 0.304379 -1.99188 0
M  V30 9563 O 940.744 1.02414 -2.30798 0
M  V30 9564 C 942.057 -2.20135 -2.04844 0
M  V30 9565 C 943.605 -2.24612 -2.17988 0
M  V30 9566 C 944.08 -3.448 -3.01458 0
M  V30 9567 N 945.571 -3.45031 -3.09044 0
M  V30 9568 C 946.306 -4.34683 -3.7395 0
M  V30 9569 N 945.802 -5.34569 -4.4069 0
M  V30 9570 N 947.595 -4.22429 -3.70823 0
M  V30 9571 H 939.746 -2.06834 -0.483052 0
M  V30 9572 H 942.009 -0.906929 -0.276014 0
M  V30 9573 H 941.715 -3.14446 -1.57532 0
M  V30 9574 H 941.589 -2.21115 -3.05594 0
M  V30 9575 H 943.976 -1.30841 -2.64508 0
M  V30 9576 H 944.057 -2.27664 -1.16631 0
M  V30 9577 H 943.701 -4.38877 -2.55635 0
M  V30 9578 H 943.631 -3.38988 -4.02982 0
M  V30 9579 H 946.122 -2.72759 -2.61555 0
M  V30 9580 H 946.435 -5.99236 -4.87991 0
M  V30 9581 H 944.78 -5.3847 -4.39403 0
M  V30 9582 H 947.971 -3.43639 -3.17851 0
M  V30 9583 H 948.144 -4.92501 -4.21126 0
M  V30 9584 N 941.55 1.18024 -1.04442 0
M  V30 9585 C 942.798 1.87727 -0.74854 0
M  V30 9586 C 943.119 1.80975 0.726156 0
M  V30 9587 O 942.389 1.23061 1.52423 0
M  V30 9588 H 940.969 0.694974 -0.273897 0
M  V30 9589 H 943.631 1.43213 -1.32197 0
M  V30 9590 H 942.727 2.93665 -1.05674 0
M  V30 9591 N 943.028 0.824394 1.34319 0
M  V30 9592 C 944.439 0.471802 1.8064 0
M  V30 9593 C 944.79 -1.00793 1.6833 0
M  V30 9594 O 943.915 -1.78447 1.22416 0
M  V30 9595 C 944.51 0.849609 3.27974 0
M  V30 9596 C 943.069 0.549365 3.72369 0
M  V30 9597 C 942.216 1.06573 2.56003 0
M  V30 9598 H 945.167 1.01443 1.22045 0
M  V30 9599 H 945.188 0.153968 3.80188 0
M  V30 9600 H 944.7 1.92663 3.36902 0
M  V30 9601 H 942.801 -0.518182 3.68979 0
M  V30 9602 H 942.914 1.09446 4.66432 0
M  V30 9603 H 941.278 0.487214 2.49997 0
M  V30 9604 H 942.061 2.14923 2.677 0
M  V30 9605 N 944.506 -1.46559 0.579492 0
M  V30 9606 C 945.453 -2.30275 -0.155598 0
M  V30 9607 C 946.423 -1.40422 -0.887175 0
M  V30 9608 O 947.608 -1.69373 -0.878481 0
M  V30 9609 C 944.748 -3.24827 -1.16539 0
M  V30 9610 C 943.861 -4.29778 -0.43759 0
M  V30 9611 C 942.996 -5.11461 -1.43462 0
M  V30 9612 C 942.035 -6.08164 -0.693048 0
M  V30 9613 N 941.172 -6.82726 -1.63799 0
M  V30 9614 H 946.012 -2.92607 0.564356 0
M  V30 9615 H 943.549 -1.44211 0.290126 0
M  V30 9616 H 945.507 -3.78088 -1.76368 0
M  V30 9617 H 944.137 -2.64311 -1.8531 0
M  V30 9618 H 943.189 -3.794 0.27567 0
M  V30 9619 H 944.501 -4.98597 0.142298 0
M  V30 9620 H 943.655 -5.68982 -2.1058 0
M  V30 9621 H 942.394 -4.42595 -2.04844 0
M  V30 9622 H 941.399 -5.49799 -0.00807093 0
M  V30 9623 H 942.624 -6.79047 -0.0846678 0
M  V30 9624 H 940.57 -6.16572 -2.23997 0
M  V30 9625 H 940.487 -7.47795 -1.11082 0
M  V30 9626 H 941.755 -7.44807 -2.29962 0
M  V30 9627 N 945.984 -0.3171 -1.54377 0
M  V30 9628 C 946.894 0.560867 -2.27797 0
M  V30 9629 C 947.91 1.13473 -1.31908 0
M  V30 9630 O 949.086 1.15608 -1.64914 0
M  V30 9631 C 946.151 1.70886 -3.0166 0
M  V30 9632 C 945.212 1.16745 -4.13121 0
M  V30 9633 C 944.445 2.26073 -4.83453 0
M  V30 9634 O 944.668 3.46292 -4.53252 0
M  V30 9635 O 943.602 1.91856 -5.70504 0
M  V30 9636 H 947.428 -0.035193 -3.0368 0
M  V30 9637 H 945.013 -0.0830062 -1.49169 0
M  V30 9638 H 946.895 2.37736 -3.47936 0
M  V30 9639 H 945.57 2.29122 -2.28658 0
M  V30 9640 H 944.477 0.464224 -3.71209 0
M  V30 9641 H 945.81 0.630307 -4.88147 0
M  V30 9642 N 947.462 1.57535 -0.0451378 0
M  V30 9643 C 948.708 1.93558 0.62505 0
M  V30 9644 C 949.063 0.923159 1.68806 0
M  V30 9645 O 948.356 -0.0585419 1.91511 0
M  V30 9646 C 948.55 3.34065 1.27024 0
M  V30 9647 C 948.379 4.48881 0.271253 0
M  V30 9648 C 947.149 5.05121 -0.13462 0
M  V30 9649 C 949.347 5.12047 -0.480911 0
M  V30 9650 N 947.329 6.03465 -1.1271 0
M  V30 9651 C 948.7 6.0564 -1.32666 0
M  V30 9652 C 950.755 4.94964 -0.539878 0
M  V30 9653 C 949.458 6.83987 -2.22608 0
M  V30 9654 C 951.484 5.73933 -1.4267 0
M  V30 9655 C 950.846 6.67154 -2.26019 0
M  V30 9656 H 946.945 0.755846 0.20055 0
M  V30 9657 H 949.529 1.94354 -0.116059 0
M  V30 9658 H 947.7 3.34058 1.98141 0
M  V30 9659 H 949.432 3.57393 1.89875 0
M  V30 9660 H 946.187 4.72976 0.243112 0
M  V30 9661 H 946.611 6.5733 -1.62006 0
M  V30 9662 H 951.253 4.22704 0.0902834 0
M  V30 9663 H 948.971 7.55543 -2.86672 0
M  V30 9664 H 952.557 5.62744 -1.47682 0
M  V30 9665 H 951.437 7.27194 -2.93528 0
M  V30 9666 N 948.94 -0.228186 1.55939 0
M  V30 9667 C 949.873 -1.30971 1.86874 0
M  V30 9668 C 950.851 -1.45517 0.725496 0
M  V30 9669 O 952.035 -1.61436 0.973181 0
M  V30 9670 C 949.162 -2.68089 2.06992 0
M  V30 9671 C 948.208 -2.70594 3.29669 0
M  V30 9672 S 949.041 -2.25325 4.85787 0
M  V30 9673 C 950.197 -3.64331 5.08934 0
M  V30 9674 H 950.43 -1.04536 2.78315 0
M  V30 9675 H 947.963 -0.430103 1.48288 0
M  V30 9676 H 949.921 -3.47033 2.19267 0
M  V30 9677 H 948.582 -2.91752 1.16359 0
M  V30 9678 H 947.775 -3.71338 3.4077 0
M  V30 9679 H 947.377 -1.99708 3.16216 0
M  V30 9680 H 949.669 -4.59972 4.97425 0
M  V30 9681 H 950.612 -3.58151 6.10847 0
M  V30 9682 H 951.02 -3.57711 4.36695 0
M  V30 9683 N 950.418 -1.49637 -0.494624 0
M  V30 9684 C 951.348 -1.69692 -1.60396 0
M  V30 9685 C 952.329 -0.545648 -1.61111 0
M  V30 9686 O 953.514 -0.782202 -1.77751 0
M  V30 9687 C 950.644 -1.76934 -2.9885 0
M  V30 9688 C 949.598 -2.91915 -3.13001 0
M  V30 9689 C 948.924 -2.84276 -4.5287 0
M  V30 9690 C 950.224 -4.32764 -2.92426 0
M  V30 9691 H 951.918 -2.6257 -1.43866 0
M  V30 9692 H 949.464 -1.26355 -0.690679 0
M  V30 9693 H 951.417 -1.8955 -3.76362 0
M  V30 9694 H 950.141 -0.806609 -3.16483 0
M  V30 9695 H 948.8 -2.78911 -2.37916 0
M  V30 9696 H 948.448 -1.85897 -4.67388 0
M  V30 9697 H 948.148 -3.61452 -4.63278 0
M  V30 9698 H 949.672 -2.98909 -5.32434 0
M  V30 9699 H 951.086 -4.46415 -3.59703 0
M  V30 9700 H 949.483 -5.1121 -3.143 0
M  V30 9701 H 950.553 -4.46765 -1.88491 0
M  V30 9702 N 951.896 0.746133 -1.38819 0
M  V30 9703 C 953.307 1.32384 -1.31648 0
M  V30 9704 C 953.658 1.96185 0.0243086 0
M  V30 9705 O 952.783 1.95567 0.92641 0
M  V30 9706 C 953.378 2.40712 -2.38418 0
M  V30 9707 C 951.937 2.94185 -2.34803 0
M  V30 9708 C 951.084 1.67639 -2.20891 0
M  V30 9709 H 954.035 0.544457 -1.49068 0
M  V30 9710 H 954.056 3.20833 -2.04564 0
M  V30 9711 H 953.568 1.94247 -3.3599 0
M  V30 9712 H 951.669 3.44959 -1.40834 0
M  V30 9713 H 951.782 3.48057 -3.29231 0
M  V30 9714 H 950.146 1.9155 -1.67871 0
M  V30 9715 H 950.929 1.23242 -3.20416 0
M  V30 9716 N 953.375 1.23811 0.975125 0
M  V30 9717 C 954.325 0.991036 2.05335 0
M  V30 9718 C 955.309 -0.0648793 1.60769 0
M  V30 9719 O 956.501 0.147917 1.76381 0
M  V30 9720 C 953.63 0.589822 3.38195 0
M  V30 9721 C 952.716 1.68142 3.89344 0
M  V30 9722 N 953.107 2.91274 4.13513 0
M  V30 9723 C 951.405 1.55722 4.17931 0
M  V30 9724 C 952.106 3.61987 4.55347 0
M  V30 9725 N 951.082 2.8952 4.60086 0
M  V30 9726 H 954.884 1.92612 2.21986 0
M  V30 9727 H 952.398 1.13827 1.15832 0
M  V30 9728 H 954.395 0.394075 4.15033 0
M  V30 9729 H 953.055 -0.338157 3.22934 0
M  V30 9730 H 954.066 3.27528 4.01181 0
M  V30 9731 H 950.743 0.696732 4.11645 0
M  V30 9732 H 952.133 4.67572 4.8252 0
M  V30 9733 N 954.853 -1.17469 1.05066 0
M  V30 9734 C 956.264 -1.69334 0.786304 0
M  V30 9735 C 956.615 -1.83604 -0.691671 0
M  V30 9736 O 955.74 -1.52269 -1.53763 0
M  V30 9737 C 956.335 -3.07572 1.42074 0
M  V30 9738 C 954.894 -3.56609 1.20446 0
M  V30 9739 C 954.041 -2.329 1.50508 0
M  V30 9740 H 956.992 -1.02003 1.21577 0
M  V30 9741 H 957.013 -3.71352 0.829334 0
M  V30 9742 H 956.525 -2.97154 2.49642 0
M  V30 9743 H 954.626 -3.72306 0.147968 0
M  V30 9744 H 954.739 -4.39446 1.90852 0
M  V30 9745 H 953.103 -2.37305 0.925124 0
M  V30 9746 H 953.886 -2.25093 2.59207 0
M  V30 9747 N 956.331 -0.831506 -1.3388 0
M  V30 9748 C 957.559 -0.436925 -2.02234 0
M  V30 9749 C 957.974 0.959689 -1.6259 0
M  V30 9750 O 957.331 1.62248 -0.835576 0
M  V30 9751 C 957.382 -0.539429 -3.57453 0
M  V30 9752 O 957.103 -1.88101 -3.95664 0
M  V30 9753 C 958.604 -0.140852 -4.43076 0
M  V30 9754 H 955.824 -0.174302 -0.647966 0
M  V30 9755 H 958.368 -1.12204 -1.70969 0
M  V30 9756 H 956.523 0.0976959 -3.87277 0
M  V30 9757 H 956.937 -1.86131 -4.90363 0
M  V30 9758 H 958.411 -0.26364 -5.5137 0
M  V30 9759 H 958.888 0.916505 -4.29531 0
M  V30 9760 H 959.494 -0.752117 -4.18597 0
M  V30 9761 N 957.809 1.4625 -0.587256 0
M  V30 9762 C 959.22 1.85997 -0.161918 0
M  V30 9763 C 959.571 1.49025 1.27616 0
M  V30 9764 O 958.696 0.907282 1.96462 0
M  V30 9765 C 959.291 3.37582 -0.287077 0
M  V30 9766 C 957.85 3.76308 0.0834211 0
M  V30 9767 C 956.997 2.70259 -0.620932 0
M  V30 9768 H 959.948 1.3734 -0.795199 0
M  V30 9769 H 959.969 3.77379 0.486333 0
M  V30 9770 H 959.481 3.64459 -1.33383 0
M  V30 9771 H 957.582 3.55047 1.13013 0
M  V30 9772 H 957.695 4.78184 -0.296064 0
M  V30 9773 H 956.059 2.54628 -0.0607027 0
M  V30 9774 H 956.842 2.99975 -1.66942 0
M  V30 9775 N 959.287 0.325282 1.54207 0
M  V30 9776 C 960.536 -0.27768 1.99779 0
M  V30 9777 C 960.849 -1.5311 1.21723 0
M  V30 9778 O 962.055 -2.21017 1.57682 0
M  V30 9779 C 960.511 -0.545329 3.55745 0
M  V30 9780 C 960.119 0.691143 4.42637 0
M  V30 9781 C 961.863 -1.10815 4.09781 0
M  V30 9782 C 959.77 0.395302 5.90077 0
M  V30 9783 H 958.7 -0.107536 0.746292 0
M  V30 9784 H 961.351 0.437773 1.78202 0
M  V30 9785 H 959.733 -1.32101 3.73317 0
M  V30 9786 H 960.907 1.46653 4.3684 0
M  V30 9787 H 959.222 1.1743 3.99499 0
M  V30 9788 H 961.819 -1.34414 5.1753 0
M  V30 9789 H 962.162 -2.05806 3.6187 0
M  V30 9790 H 962.695 -0.393608 3.95848 0
M  V30 9791 H 959.434 1.31443 6.42186 0
M  V30 9792 H 958.954 -0.34235 5.98822 0
M  V30 9793 H 960.633 0.00576877 6.47 0
M  V30 9794 N 960.765 -1.57509 0.0534917 0
M  V30 9795 C 961.99 -1.97511 -0.632794 0
M  V30 9796 C 962.415 -0.930947 -1.63447 0
M  V30 9797 O 961.773 0.105558 -1.80992 0
M  V30 9798 C 961.821 -3.3658 -1.29407 0
M  V30 9799 O 960.925 -3.3467 -2.40977 0
M  V30 9800 H 960.266 -0.643349 -0.16431 0
M  V30 9801 H 962.796 -2.04232 0.12258 0
M  V30 9802 H 962.806 -3.73359 -1.64521 0
M  V30 9803 H 961.481 -4.12113 -0.559976 0
M  V30 9804 H 960.058 -3.09639 -2.07793 0
M  V30 9805 N 962.243 0.219913 -1.56058 0
M  V30 9806 C 963.471 0.960915 -1.83232 0
M  V30 9807 C 963.886 1.77878 -0.632828 0
M  V30 9808 O 963.243 1.78093 0.398624 0
M  V30 9809 C 963.294 1.87716 -3.08942 0
M  V30 9810 O 963.015 1.09235 -4.24263 0
M  V30 9811 C 964.516 2.73192 -3.49115 0
M  V30 9812 H 961.736 0.281546 -0.609075 0
M  V30 9813 H 964.28 0.234648 -2.03149 0
M  V30 9814 H 962.435 2.55736 -2.90995 0
M  V30 9815 H 962.849 1.71446 -4.95688 0
M  V30 9816 H 964.323 3.33181 -4.40107 0
M  V30 9817 H 964.8 3.45668 -2.70943 0
M  V30 9818 H 965.406 2.10583 -3.69506 0
M  V30 9819 N 963.721 1.49897 0.486681 0
M  V30 9820 C 964.631 1.70379 1.6127 0
M  V30 9821 C 965.647 0.58659 1.63814 0
M  V30 9822 O 966.823 0.863044 1.81971 0
M  V30 9823 C 963.888 1.77911 2.97571 0
M  V30 9824 C 962.949 3.01569 3.0554 0
M  V30 9825 C 962.182 3.08732 4.35339 0
M  V30 9826 O 962.405 2.23099 5.2496 0
M  V30 9827 O 961.339 4.01325 4.48578 0
M  V30 9828 H 965.165 2.65799 1.46916 0
M  V30 9829 H 962.75 1.33808 0.664516 0
M  V30 9830 H 964.632 1.85135 3.78554 0
M  V30 9831 H 963.307 0.856722 3.12157 0
M  V30 9832 H 962.214 2.99854 2.23693 0
M  V30 9833 H 963.547 3.93335 2.95886 0
M  V30 9834 N 965.199 -0.738761 1.39212 0
M  V30 9835 C 966.162 -1.83441 1.37412 0
M  V30 9836 C 967.162 -1.58484 0.271908 0
M  V30 9837 O 968.352 -1.65954 0.529609 0
M  V30 9838 C 965.484 -3.21167 1.143 0
M  V30 9839 H 966.677 -1.86441 2.34904 0
M  V30 9840 H 964.23 -0.942023 1.24722 0
M  V30 9841 H 964.965 -3.23829 0.174756 0
M  V30 9842 H 964.75 -3.40678 1.94116 0
M  V30 9843 H 966.24 -4.01231 1.15773 0
M  V30 9844 N 966.677 -1.24326 -0.968545 0
M  V30 9845 C 967.625 -1.03256 -2.08425 0
M  V30 9846 C 968.619 0.0322356 -1.69369 0
M  V30 9847 O 969.825 -0.122251 -1.79584 0
M  V30 9848 H 966.2 -0.31688 -0.681976 0
M  V30 9849 H 968.171 -1.97873 -2.23358 0
M  V30 9850 C 966.92 -0.653144 -3.4151 0
M  V30 9851 H 966.243 -1.46424 -3.72021 0
M  V30 9852 H 967.683 -0.545316 -4.20479 0
M  V30 9853 C 966.142 0.639674 -3.30771 0
M  V30 9854 O 966.672 1.68563 -3.64622 0
M  V30 9855 N 964.878 0.620074 -2.83907 0
M  V30 9856 H 964.425 -0.231449 -2.56558 0
M  V30 9857 H 964.383 1.48528 -2.77104 0
M  V30 9858 N 968.156 1.1691 -1.05688 0
M  V30 9859 C 969.572 1.39288 -0.779167 0
M  V30 9860 C 969.772 1.91587 0.624231 0
M  V30 9861 O 968.828 2.11072 1.38582 0
M  V30 9862 C 970.141 2.37914 -1.83895 0
M  V30 9863 C 971.689 2.51611 -1.86175 0
M  V30 9864 C 972.164 3.53514 -2.9119 0
M  V30 9865 N 973.655 3.61036 -2.90184 0
M  V30 9866 C 974.39 4.39657 -3.68088 0
M  V30 9867 N 973.886 5.21752 -4.55793 0
M  V30 9868 N 975.679 4.3458 -3.56507 0
M  V30 9869 H 967.83 0.81296 -1.96226 0
M  V30 9870 H 970.093 0.419818 -0.849975 0
M  V30 9871 H 969.799 2.06568 -2.84645 0
M  V30 9872 H 969.673 3.37483 -1.68479 0
M  V30 9873 H 972.06 2.82264 -0.86087 0
M  V30 9874 H 972.141 1.52099 -2.05668 0
M  V30 9875 H 971.785 3.23599 -3.91467 0
M  V30 9876 H 971.715 4.52742 -2.68947 0
M  V30 9877 H 974.206 3.02428 -2.26596 0
M  V30 9878 H 974.519 5.78939 -5.11907 0
M  V30 9879 H 972.864 5.21116 -4.59851 0
M  V30 9880 H 976.055 3.69501 -2.87379 0
M  V30 9881 H 976.228 4.95607 -4.17466 0
M  V30 9882 N 969.634 0.838594 1.33437 0
M  V30 9883 C 970.88 0.434813 1.98084 0
M  V30 9884 C 971.213 -1.00331 1.66275 0
M  V30 9885 O 970.488 -1.70139 0.942501 0
M  V30 9886 C 970.771 0.655602 3.54082 0
M  V30 9887 C 970.624 2.14097 3.95578 0
M  V30 9888 C 971.943 0.101576 4.39983 0
M  V30 9889 H 969.062 0.159456 0.719544 0
M  V30 9890 H 971.704 1.05406 1.58081 0
M  V30 9891 H 969.854 0.128501 3.88287 0
M  V30 9892 H 971.526 2.73292 3.71631 0
M  V30 9893 H 969.769 2.62558 3.4532 0
M  V30 9894 H 970.44 2.24621 5.04231 0
M  V30 9895 H 972.916 0.552122 4.12421 0
M  V30 9896 H 971.792 0.28575 5.48156 0
M  V30 9897 H 972.053 -0.994616 4.30767 0
M  V30 9898 N 971.112 -1.45937 0.595003 0
M  V30 9899 C 972.022 -2.34221 -0.133325 0
M  V30 9900 C 973.038 -1.50491 -0.873407 0
M  V30 9901 O 974.214 -1.83328 -0.833828 0
M  V30 9902 C 971.279 -3.27896 -1.12628 0
M  V30 9903 C 970.34 -4.27529 -0.389532 0
M  V30 9904 C 969.573 -5.16729 -1.33519 0
M  V30 9905 O 969.796 -5.09102 -2.57238 0
M  V30 9906 O 968.73 -5.96023 -0.839084 0
M  V30 9907 H 972.556 -2.97877 0.591861 0
M  V30 9908 H 970.141 -1.45113 0.355329 0
M  V30 9909 H 972.023 -3.85654 -1.69851 0
M  V30 9910 H 970.698 -2.6682 -1.83272 0
M  V30 9911 H 969.605 -3.73424 0.224843 0
M  V30 9912 H 970.938 -4.91425 0.276169 0
M  V30 9913 N 972.59 -0.333456 -1.54032 0
M  V30 9914 C 973.553 0.515392 -2.2333 0
M  V30 9915 C 974.553 1.03566 -1.23007 0
M  V30 9916 O 975.743 0.926514 -1.47517 0
M  V30 9917 C 972.875 1.7169 -2.94508 0
M  V30 9918 H 974.068 -0.0905407 -2.99763 0
M  V30 9919 H 971.621 -0.0846651 -1.56071 0
M  V30 9920 H 972.356 2.3618 -2.22237 0
M  V30 9921 H 972.141 1.35115 -3.68085 0
M  V30 9922 H 973.631 2.31922 -3.47278 0
M  V30 9923 N 974.068 1.57479 -0.061844 0
M  V30 9924 C 975.018 2.0867 0.918749 0
M  V30 9925 C 976.002 0.994174 1.26511 0
M  V30 9926 O 977.194 1.25738 1.24575 0
M  V30 9927 C 974.323 2.64386 2.18986 0
M  V30 9928 C 973.409 3.80626 1.87042 0
M  V30 9929 N 973.8 4.89982 1.25504 0
M  V30 9930 C 972.098 3.89733 2.1685 0
M  V30 9931 C 972.799 5.70928 1.11429 0
M  V30 9932 N 971.775 5.18877 1.62072 0
M  V30 9933 H 975.577 2.90611 0.438469 0
M  V30 9934 H 973.091 1.61775 0.142321 0
M  V30 9935 H 975.088 2.9937 2.90144 0
M  V30 9936 H 973.748 1.83888 2.67611 0
M  V30 9937 H 974.759 5.09556 0.925914 0
M  V30 9938 H 971.436 3.20194 2.67921 0
M  V30 9939 H 972.826 6.68886 0.635665 0
M  V30 9940 N 975.546 -0.211634 1.56173 0
M  V30 9941 C 976.794 -0.932704 1.7929 0
M  V30 9942 C 977.115 -1.84472 0.632076 0
M  V30 9943 O 976.385 -1.92739 -0.350519 0
M  V30 9944 H 974.965 -0.347393 0.661307 0
M  V30 9945 H 977.627 -0.22111 1.93642 0
M  V30 9946 H 976.723 -1.53365 2.71819 0
M  V30 9947 N 977.024 -1.50153 -0.478725 0
M  V30 9948 C 977.934 -1.71232 -1.60364 0
M  V30 9949 C 978.95 -0.595269 -1.63501 0
M  V30 9950 O 980.126 -0.872683 -1.81511 0
M  V30 9951 C 977.191 -1.79487 -2.96623 0
M  V30 9952 C 976.252 -3.03185 -3.03937 0
M  V30 9953 C 975.485 -3.11036 -4.33696 0
M  V30 9954 O 975.708 -2.2588 -5.23769 0
M  V30 9955 O 974.642 -4.03698 -4.46443 0
M  V30 9956 H 978.468 -2.66575 -1.45505 0
M  V30 9957 H 976.053 -1.34158 -0.65741 0
M  V30 9958 H 977.935 -1.8714 -3.77567 0
M  V30 9959 H 976.61 -0.873264 -3.11698 0
M  V30 9960 H 975.517 -3.01036 -2.22099 0
M  V30 9961 H 976.85 -3.94898 -2.93796 0
M  V30 9962 N 978.502 0.731368 -1.39602 0
M  V30 9963 C 979.465 1.8271 -1.38383 0
M  V30 9964 C 980.465 1.58338 -0.280309 0
M  V30 9965 O 981.655 1.65671 -0.538402 0
M  V30 9966 C 978.787 3.20556 -1.16002 0
M  V30 9967 H 979.98 1.85193 -2.35889 0
M  V30 9968 H 977.533 0.935396 -1.2522 0
M  V30 9969 H 978.268 3.23732 -0.191927 0
M  V30 9970 H 978.053 3.39643 -1.9592 0
M  V30 9971 H 979.543 4.00612 -1.17899 0
M  V30 9972 N 979.98 1.24838 0.961938 0
M  V30 9973 C 981.208 1.11871 1.74047 0
M  V30 9974 C 981.623 -0.328209 1.85925 0
M  V30 9975 O 980.98 -1.22616 1.35173 0
M  V30 9976 C 981.031 1.75931 3.15801 0
M  V30 9977 O 980.752 3.14967 3.04512 0
M  V30 9978 C 982.253 1.68649 4.09966 0
M  V30 9979 H 979.473 0.390569 0.545616 0
M  V30 9980 H 982.017 1.65058 1.20732 0
M  V30 9981 H 980.172 1.26733 3.66084 0
M  V30 9982 H 980.586 3.46349 3.93882 0
M  V30 9983 H 982.06 2.18144 5.07067 0
M  V30 9984 H 982.537 0.648831 4.34381 0
M  V30 9985 H 983.143 2.17301 3.65596 0
M  V30 9986 N 981.458 -1.16348 1.06306 0
M  V30 9987 C 982.421 -2.18941 0.678053 0
M  V30 9988 C 983.421 -1.58409 -0.276277 0
M  V30 9989 O 984.611 -1.74101 -0.0586435 0
M  V30 9990 C 981.743 -3.409 -0.00228684 0
M  V30 9991 H 982.936 -2.54516 1.58624 0
M  V30 9992 H 980.489 -1.30625 0.858298 0
M  V30 9993 H 981.224 -3.10881 -0.923212 0
M  V30 9994 H 981.009 -3.86089 0.683949 0
M  V30 9995 H 982.499 -4.16806 -0.257374 0
M  V30 9996 N 982.937 -0.845659 -1.3299 0
M  V30 9997 C 984.165 -0.45835 -2.01759 0
M  V30 9998 C 984.58 0.94239 -1.63598 0
M  V30 9999 O 983.937 1.61353 -0.852738 0
M  V30 10000 C 983.988 -0.577311 -3.5686 0
M  V30 10001 O 983.709 -1.92287 -3.93646 0
M  V30 10002 C 985.21 -0.187839 -4.42902 0
M  V30 10003 H 982.43 -0.181165 -0.646081 0
M  V30 10004 H 984.974 -1.14011 -1.6977 0
M  V30 10005 H 983.129 0.0566146 -3.87359 0
M  V30 10006 H 983.543 -1.91322 -4.88361 0
M  V30 10007 H 985.017 -0.322105 -5.51059 0
M  V30 10008 H 985.494 0.870896 -4.30479 0
M  V30 10009 H 986.1 -0.796473 -4.17776 0
M  V30 10010 N 984.415 1.45619 -0.602734 0
M  V30 10011 C 985.378 2.28941 0.108962 0
M  V30 10012 C 986.378 1.39501 0.799762 0
M  V30 10013 O 987.568 1.61673 0.648663 0
M  V30 10014 C 984.7 3.204 1.16432 0
M  V30 10015 H 985.893 2.93346 -0.623534 0
M  V30 10016 H 983.446 1.52061 -0.361565 0
M  V30 10017 H 984.181 2.60785 1.92774 0
M  V30 10018 H 983.966 3.86277 0.673248 0
M  V30 10019 H 985.456 3.83063 1.6629 0
M  V30 10020 N 985.893 0.34162 1.53853 0
M  V30 10021 C 987.304 -0.14269 1.86154 0
M  V30 10022 C 987.655 -1.50151 1.2629 0
M  V30 10023 O 986.78 -2.08601 0.575735 0
M  V30 10024 C 987.375 -0.265691 3.37757 0
M  V30 10025 C 985.934 -0.694231 3.69942 0
M  V30 10026 C 985.081 0.173195 2.76759 0
M  V30 10027 H 988.032 0.561284 1.48443 0
M  V30 10028 H 988.053 -1.09352 3.64448 0
M  V30 10029 H 987.565 0.723424 3.81298 0
M  V30 10030 H 985.666 -1.69244 3.31945 0
M  V30 10031 H 985.779 -0.485461 4.76634 0
M  V30 10032 H 984.143 -0.35416 2.52226 0
M  V30 10033 H 984.926 1.15941 3.23129 0
M  V30 10034 N 987.371 -1.57444 0.0701946 0
M  V30 10035 C 988.782 -1.80875 -0.462709 0
M  V30 10036 C 989.133 -0.983975 -1.69742 0
M  V30 10037 O 988.258 -0.206027 -2.15417 0
M  V30 10038 C 988.853 -3.28062 -0.84623 0
M  V30 10039 C 987.412 -3.52345 -1.32401 0
M  V30 10040 C 986.559 -2.7558 -0.308399 0
M  V30 10041 H 989.51 -1.55917 0.295907 0
M  V30 10042 H 989.531 -3.40023 -1.70776 0
M  V30 10043 H 989.043 -3.88064 0.0526033 0
M  V30 10044 H 987.144 -2.97645 -2.24139 0
M  V30 10045 H 987.257 -4.6104 -1.30304 0
M  V30 10046 H 985.621 -2.4229 -0.785337 0
M  V30 10047 H 986.404 -3.38319 0.582679 0
M  V30 10048 N 988.849 0.203349 -1.56283 0
M  V30 10049 C 990.074 0.945548 -1.84592 0
M  V30 10050 C 990.499 1.7641 -0.652772 0
M  V30 10051 O 989.857 1.76867 0.398468 0
M  V30 10052 C 989.905 1.82416 -3.11057 0
M  V30 10053 O 989.009 2.92191 -2.9103 0
M  V30 10054 H 988.35 0.266739 -0.608068 0
M  V30 10055 H 990.88 0.211158 -2.03507 0
M  V30 10056 H 990.89 2.23044 -3.41636 0
M  V30 10057 H 989.565 1.22267 -3.97522 0
M  V30 10058 H 988.142 2.55378 -2.71728 0
M  V30 10059 N 990.327 1.50405 0.470755 0
M  V30 10060 C 991.738 1.54266 1.05162 0
M  V30 10061 C 992.089 0.346359 1.93119 0
M  V30 10062 O 991.214 -0.540699 2.09536 0
M  V30 10063 C 991.809 2.7956 1.91394 0
M  V30 10064 C 990.368 2.86101 2.44588 0
M  V30 10065 C 989.515 2.48557 1.22941 0
M  V30 10066 H 992.466 1.56665 0.253359 0
M  V30 10067 H 992.487 2.61434 2.76464 0
M  V30 10068 H 991.999 3.66611 1.27351 0
M  V30 10069 H 990.1 2.03403 3.12183 0
M  V30 10070 H 990.213 3.88999 2.79672 0
M  V30 10071 H 988.577 2.01003 1.56429 0
M  V30 10072 H 989.36 3.37916 0.605598 0
M  V30 10073 N 991.805 -0.723954 1.39988 0
M  V30 10074 C 992.768 -1.81973 1.3935 0
M  V30 10075 C 993.768 -1.58187 0.288702 0
M  V30 10076 O 994.958 -1.65383 0.547181 0
M  V30 10077 C 992.09 -3.19937 1.177 0
M  V30 10078 H 993.283 -1.83939 2.36868 0
M  V30 10079 H 990.836 -0.928742 1.25714 0
M  V30 10080 H 991.571 -3.23625 0.209093 0
M  V30 10081 H 991.356 -3.386 1.97719 0
M  V30 10082 H 992.846 -3.99981 1.20022 0
M  V30 10083 N 993.283 -1.25346 -0.955304 0
M  V30 10084 C 994.246 -1.05754 -2.03344 0
M  V30 10085 C 995.246 -0.0105743 -1.60797 0
M  V30 10086 O 996.436 -0.252699 -1.72357 0
M  V30 10087 C 993.568 -0.605536 -3.35479 0
M  V30 10088 H 994.761 -2.01459 -2.22158 0
M  V30 10089 H 992.314 -1.07744 -1.1323 0
M  V30 10090 H 993.049 0.354154 -3.2236 0
M  V30 10091 H 992.834 -1.36134 -3.67709 0
M  V30 10092 H 994.324 -0.489867 -4.14717 0
M  V30 10093 N 994.761 1.15782 -1.06922 0
M  V30 10094 C 995.671 2.24008 -0.696948 0
M  V30 10095 C 996.687 1.71569 0.289862 0
M  V30 10096 O 997.863 2.00929 0.137585 0
M  V30 10097 C 994.928 3.46568 -0.0957895 0
M  V30 10098 C 993.989 4.14017 -1.13528 0
M  V30 10099 C 993.222 5.30725 -0.562713 0
M  V30 10100 O 993.445 5.66992 0.62259 0
M  V30 10101 O 992.379 5.87572 -1.30549 0
M  V30 10102 H 996.205 2.58174 -1.59938 0
M  V30 10103 H 993.79 1.2342 -0.841889 0
M  V30 10104 H 995.672 4.20731 0.237407 0
M  V30 10105 H 994.347 3.14161 0.780027 0
M  V30 10106 H 993.254 3.41795 -1.52076 0
M  V30 10107 H 994.587 4.50493 -1.98285 0
M  V30 10108 N 996.239 0.8527 1.3254 0
M  V30 10109 C 997.467 0.469044 2.01513 0
M  V30 10110 C 997.882 -0.933701 1.64096 0
M  V30 10111 O 997.239 -1.60898 0.861283 0
M  V30 10112 C 997.29 0.596228 3.56549 0
M  V30 10113 O 997.011 1.94371 3.92621 0
M  V30 10114 C 998.512 0.211324 4.42796 0
M  V30 10115 H 995.732 0.184589 0.645111 0
M  V30 10116 H 998.276 1.1491 1.69163 0
M  V30 10117 H 996.431 -0.0360712 3.87383 0
M  V30 10118 H 996.845 1.93909 4.87339 0
M  V30 10119 H 998.319 0.351324 5.50881 0
M  V30 10120 H 998.796 -0.848055 4.30935 0
M  V30 10121 H 999.402 0.818617 4.17347 0
M  V30 10122 N 997.718 -1.45297 0.610449 0
M  V30 10123 C 998.665 -2.30553 -0.106718 0
M  V30 10124 C 999.635 -1.42272 -0.85719 0
M  V30 10125 O 1000.82 -1.71199 -0.842357 0
M  V30 10126 C 997.96 -3.27226 -1.09623 0
M  V30 10127 C 997.073 -4.3061 -0.346329 0
M  V30 10128 C 996.208 -5.14389 -1.32581 0
M  V30 10129 C 995.247 -6.09497 -0.563892 0
M  V30 10130 N 994.384 -6.86047 -1.4928 0
M  V30 10131 H 999.224 -2.91344 0.626296 0
M  V30 10132 H 996.761 -1.43563 0.32065 0
M  V30 10133 H 998.719 -3.81744 -1.68308 0
M  V30 10134 H 997.349 -2.68182 -1.79662 0
M  V30 10135 H 996.401 -3.7873 0.356084 0
M  V30 10136 H 997.713 -4.98183 0.248026 0
M  V30 10137 H 996.867 -5.73321 -1.98464 0
M  V30 10138 H 995.606 -4.4684 -1.9541 0
M  V30 10139 H 994.611 -5.49693 0.108551 0
M  V30 10140 H 995.836 -6.79074 0.0593872 0
M  V30 10141 H 993.782 -6.21185 -2.10868 0
M  V30 10142 H 993.699 -7.49983 -0.951953 0
M  V30 10143 H 994.967 -7.49518 -2.14112 0
M  V30 10144 N 999.196 -0.349774 -1.5367 0
M  V30 10145 C 1000.44 0.245189 -2.01312 0
M  V30 10146 C 1000.77 1.49702 -1.23705 0
M  V30 10147 O 1000.05 1.91742 -0.326371 0
M  V30 10148 C 1000.33 0.553071 -3.55827 0
M  V30 10149 C 1000.19 -0.71129 -4.4414 0
M  V30 10150 C 1001.5 1.36015 -4.18555 0
M  V30 10151 H 998.624 0.0876415 -0.73177 0
M  V30 10152 H 1001.27 -0.471543 -1.84056 0
M  V30 10153 H 999.416 1.16367 -3.70663 0
M  V30 10154 H 1001.09 -1.34913 -4.41131 0
M  V30 10155 H 999.331 -1.33491 -4.1275 0
M  V30 10156 H 1000 -0.45104 -5.50154 0
M  V30 10157 H 1002.48 0.843778 -4.07455 0
M  V30 10158 H 1001.35 1.54432 -5.26728 0
M  V30 10159 H 1001.61 2.36408 -3.73582 0
M  V30 10160 N 1000.67 1.57404 -0.0785433 0
M  V30 10161 C 1001.9 1.97787 0.596995 0
M  V30 10162 C 1002.31 0.955904 1.63276 0
M  V30 10163 O 1001.65 -0.0649169 1.83585 0
M  V30 10164 C 1001.72 3.34499 1.31723 0
M  V30 10165 C 1001.38 4.54933 0.434144 0
M  V30 10166 C 1002.38 5.18969 -0.311015 0
M  V30 10167 C 1000.06 5.01029 0.357046 0
M  V30 10168 C 1002.06 6.27457 -1.12142 0
M  V30 10169 C 999.744 6.09389 -0.457029 0
M  V30 10170 C 1000.74 6.72466 -1.19493 0
M  V30 10171 O 1000.43 7.78738 -1.99556 0
M  V30 10172 H 1000.16 0.655294 0.166028 0
M  V30 10173 H 1002.72 2.04855 -0.149517 0
M  V30 10174 H 1000.95 3.24064 2.10996 0
M  V30 10175 H 1002.63 3.5944 1.88567 0
M  V30 10176 H 1003.4 4.84297 -0.261084 0
M  V30 10177 H 999.28 4.51706 0.921026 0
M  V30 10178 H 1002.82 6.76622 -1.69788 0
M  V30 10179 H 998.721 6.43494 -0.508499 0
M  V30 10180 H 999.489 7.95648 -1.9206 0
M  V30 10181 N 1002.15 -0.195058 1.56388 0
M  V30 10182 C 1003.38 -0.935745 1.85091 0
M  V30 10183 C 1003.8 -1.76061 0.662118 0
M  V30 10184 O 1003.16 -1.77076 -0.389083 0
M  V30 10185 C 1003.21 -1.80764 3.1202 0
M  V30 10186 O 1002.31 -2.90643 2.92575 0
M  V30 10187 H 1001.65 -0.26351 0.609474 0
M  V30 10188 H 1004.18 -0.200362 2.03617 0
M  V30 10189 H 1004.19 -2.21229 3.42815 0
M  V30 10190 H 1002.87 -1.20157 3.98165 0
M  V30 10191 H 1001.44 -2.53934 2.73079 0
M  V30 10192 N 1003.63 -1.50653 -0.462772 0
M  V30 10193 C 1004.56 -1.73056 -1.5676 0
M  V30 10194 C 1005.54 -0.579699 -1.59917 0
M  V30 10195 O 1006.73 -0.819729 -1.76051 0
M  V30 10196 C 1003.86 -1.83234 -2.9503 0
M  V30 10197 C 1002.81 -2.98488 -3.06739 0
M  V30 10198 C 1002.14 -2.93818 -4.46738 0
M  V30 10199 C 1003.44 -4.38869 -2.83181 0
M  V30 10200 H 1005.13 -2.65562 -1.38265 0
M  V30 10201 H 1002.68 -1.27792 -0.663722 0
M  V30 10202 H 1004.63 -1.97491 -3.72257 0
M  V30 10203 H 1003.35 -0.873558 -3.14701 0
M  V30 10204 H 1002.01 -2.83895 -2.31946 0
M  V30 10205 H 1001.66 -1.95769 -4.63339 0
M  V30 10206 H 1001.36 -3.71197 -4.55507 0
M  V30 10207 H 1002.88 -3.10135 -5.25974 0
M  V30 10208 H 1004.3 -4.53945 -3.50153 0
M  V30 10209 H 1002.69 -5.17762 -3.03386 0
M  V30 10210 H 1003.76 -4.50663 -1.78972 0
M  V30 10211 N 1005.11 0.71652 -1.4037 0
M  V30 10212 C 1006.52 1.29562 -1.34427 0
M  V30 10213 C 1006.87 1.96192 -0.0173106 0
M  V30 10214 O 1006 1.97488 0.884719 0
M  V30 10215 C 1006.59 2.35601 -2.4347 0
M  V30 10216 C 1005.15 2.89138 -2.4099 0
M  V30 10217 C 1004.3 1.62915 -2.24397 0
M  V30 10218 H 1007.25 0.512715 -1.5019 0
M  V30 10219 H 1007.27 3.16422 -2.11323 0
M  V30 10220 H 1006.78 1.87077 -3.40035 0
M  V30 10221 H 1004.88 3.41894 -1.4812 0
M  V30 10222 H 1004.99 3.40995 -3.3654 0
M  V30 10223 H 1003.36 1.87947 -1.71896 0
M  V30 10224 H 1004.14 1.16417 -3.22958 0
M  V30 10225 N 1006.59 1.25851 0.948643 0
M  V30 10226 C 1007.52 1.09248 2.06367 0
M  V30 10227 C 1008.5 -0.000205168 1.701 0
M  V30 10228 O 1009.68 0.170442 1.93451 0
M  V30 10229 C 1006.81 0.716777 3.39823 0
M  V30 10230 C 1005.77 1.76036 3.90122 0
M  V30 10231 C 1005.09 1.23918 5.20143 0
M  V30 10232 C 1006.39 3.16039 4.15833 0
M  V30 10233 H 1008.09 2.02518 2.20515 0
M  V30 10234 H 1005.63 0.975093 1.05962 0
M  V30 10235 H 1007.59 0.587531 4.17284 0
M  V30 10236 H 1006.31 -0.251626 3.25629 0
M  V30 10237 H 1004.97 1.87815 3.14835 0
M  V30 10238 H 1004.62 0.260836 5.02323 0
M  V30 10239 H 1004.32 1.93673 5.54765 0
M  V30 10240 H 1005.84 1.12245 6.00194 0
M  V30 10241 H 1007.25 3.0738 4.83933 0
M  V30 10242 H 1005.65 3.83317 4.61723 0
M  V30 10243 H 1006.72 3.62652 3.21887 0
M  V30 10244 N 1008.06 -1.15214 1.07534 0
M  V30 10245 C 1009.29 -1.90463 0.820883 0
M  V30 10246 C 1009.71 -1.77578 -0.620305 0
M  V30 10247 O 1009.07 -1.10976 -1.43366 0
M  V30 10248 C 1009.12 -3.38746 1.23627 0
M  V30 10249 O 1008.22 -4.1062 0.382715 0
M  V30 10250 H 1007.57 -0.59292 0.298901 0
M  V30 10251 H 1010.1 -1.45893 1.43445 0
M  V30 10252 H 1010.11 -3.89543 1.21327 0
M  V30 10253 H 1008.78 -3.47443 2.28596 0
M  V30 10254 H 1007.36 -3.69947 0.468374 0
M  V30 10255 N 1009.54 -0.859717 -1.32086 0
M  V30 10256 C 1010.47 -0.323502 -2.31248 0
M  V30 10257 C 1011.45 0.580085 -1.59903 0
M  V30 10258 O 1012.64 0.499265 -1.87673 0
M  V30 10259 C 1009.77 0.484661 -3.43902 0
M  V30 10260 C 1008.72 -0.324933 -4.26765 0
M  V30 10261 C 1008.05 0.608281 -5.31229 0
M  V30 10262 C 1009.35 -1.55344 -4.98664 0
M  V30 10263 H 1011.04 -1.15209 -2.76346 0
M  V30 10264 H 1008.59 -0.555442 -1.32856 0
M  V30 10265 H 1010.54 0.870238 -4.12316 0
M  V30 10266 H 1009.27 1.34666 -2.97544 0
M  V30 10267 H 1007.92 -0.692328 -3.60003 0
M  V30 10268 H 1007.57 1.46727 -4.81124 0
M  V30 10269 H 1007.27 0.0705571 -5.87558 0
M  V30 10270 H 1008.8 0.990925 -6.02506 0
M  V30 10271 H 1010.21 -1.23987 -5.59732 0
M  V30 10272 H 1008.61 -2.02947 -5.64741 0
M  V30 10273 H 1009.68 -2.31192 -4.26237 0
M  V30 10274 N 1011.02 1.44971 -0.618145 0
M  V30 10275 C 1012.25 2.06527 -0.124165 0
M  V30 10276 C 1012.66 1.46097 1.19588 0
M  V30 10277 O 1012.02 0.57901 1.73071 0
M  V30 10278 C 1012.07 3.61498 0.0106701 0
M  V30 10279 O 1011.79 4.19675 -1.25716 0
M  V30 10280 C 1013.29 4.40061 0.534872 0
M  V30 10281 H 1010.51 0.666941 -0.0736935 0
M  V30 10282 H 1013.06 1.8605 -0.848871 0
M  V30 10283 H 1011.21 3.81282 0.685752 0
M  V30 10284 H 1011.63 5.12972 -1.09362 0
M  V30 10285 H 1013.1 5.48963 0.57827 0
M  V30 10286 H 1013.58 4.10587 1.55931 0
M  V30 10287 H 1014.18 4.25167 -0.10652 0
M  V30 10288 N 1012.5 0.357919 1.53482 0
M  V30 10289 C 1013.91 -0.122938 1.86295 0
M  V30 10290 C 1014.26 -1.48803 1.27875 0
M  V30 10291 O 1013.39 -2.07978 0.597828 0
M  V30 10292 C 1013.98 -0.229853 3.38019 0
M  V30 10293 C 1012.54 -0.654955 3.70658 0
M  V30 10294 C 1011.69 0.202539 2.76559 0
M  V30 10295 H 1014.64 0.576997 1.47839 0
M  V30 10296 H 1014.66 -1.05481 3.65587 0
M  V30 10297 H 1014.17 0.763825 3.80509 0
M  V30 10298 H 1012.27 -1.65714 3.33721 0
M  V30 10299 H 1012.38 -0.43488 4.77122 0
M  V30 10300 H 1010.75 -0.327388 2.52587 0
M  V30 10301 H 1011.53 1.19361 3.21882 0
M  V30 10302 N 1013.98 -1.5736 0.0868897 0
M  V30 10303 C 1015.2 -1.98388 -0.587349 0
M  V30 10304 C 1015.62 -0.965757 -1.6223 0
M  V30 10305 O 1014.98 0.0456981 -1.82443 0
M  V30 10306 C 1015.03 -3.39479 -1.24242 0
M  V30 10307 O 1014.75 -4.37393 -0.248878 0
M  V30 10308 C 1016.25 -3.95465 -2.00305 0
M  V30 10309 H 1013.47 -0.652111 -0.15809 0
M  V30 10310 H 1016.01 -2.03843 0.163754 0
M  V30 10311 H 1014.17 -3.35063 -1.94451 0
M  V30 10312 H 1014.58 -5.19525 -0.720678 0
M  V30 10313 H 1016.06 -4.96363 -2.41511 0
M  V30 10314 H 1016.53 -3.32832 -2.86565 0
M  V30 10315 H 1017.14 -4.03328 -1.34931 0
M  V30 10316 N 1015.45 0.186762 -1.56489 0
M  V30 10317 C 1016.7 0.904063 -1.80752 0
M  V30 10318 C 1017.02 1.83443 -0.661343 0
M  V30 10319 O 1016.29 1.93272 0.319811 0
M  V30 10320 H 1014.87 0.336828 -0.66675 0
M  V30 10321 H 1017.54 0.190275 -1.93969 0
M  V30 10322 H 1016.63 1.49021 -2.74225 0
M  V30 10323 N 1016.93 1.50896 0.454776 0
M  V30 10324 C 1017.86 1.6712 1.56855 0
M  V30 10325 C 1018.88 0.552223 1.53148 0
M  V30 10326 O 1020.07 0.825969 1.5824 0
M  V30 10327 C 1017.17 1.65464 2.95762 0
M  V30 10328 C 1016.34 2.93662 3.24163 0
M  V30 10329 C 1015.4 2.84428 4.42704 0
M  V30 10330 O 1014.42 3.58382 4.42211 0
M  V30 10331 N 1015.63 1.9909 5.45292 0
M  V30 10332 H 1018.39 2.63194 1.43349 0
M  V30 10333 H 1015.95 1.48564 0.643457 0
M  V30 10334 H 1017.94 1.56878 3.73057 0
M  V30 10335 H 1016.51 0.770568 3.02954 0
M  V30 10336 H 1015.73 3.16251 2.35328 0
M  V30 10337 H 1017.02 3.78558 3.39957 0
M  V30 10338 H 1016.42 1.3835 5.48521 0
M  V30 10339 H 1014.98 1.96396 6.21508 0
M  V30 10340 N 1018.41 -0.709066 1.40748 0
M  V30 10341 C 1019.66 -1.46611 1.39103 0
M  V30 10342 C 1019.98 -1.95 -0.00365366 0
M  V30 10343 O 1019.25 -1.70791 -0.959541 0
M  V30 10344 H 1017.83 -0.543954 0.511979 0
M  V30 10345 H 1020.49 -0.840141 1.75863 0
M  V30 10346 H 1019.59 -2.33581 2.06994 0
M  V30 10347 N 1019.89 -1.26353 -0.941956 0
M  V30 10348 C 1021.14 -1.1163 -1.68473 0
M  V30 10349 C 1021.46 0.34108 -1.91994 0
M  V30 10350 O 1020.73 1.24065 -1.51607 0
M  V30 10351 H 1019.31 -0.410113 -0.624353 0
M  V30 10352 H 1021.97 -1.58669 -1.13182 0
M  V30 10353 H 1021.07 -1.63445 -2.6588 0
M  V30 10354 N 1021.37 1.14642 -1.08144 0
M  V30 10355 C 1022.28 2.23257 -0.720668 0
M  V30 10356 C 1023.29 1.71866 0.271648 0
M  V30 10357 O 1024.47 2.01064 0.116266 0
M  V30 10358 C 1021.53 3.46447 -0.132542 0
M  V30 10359 C 1020.6 4.12789 -1.17913 0
M  V30 10360 C 1019.83 5.30099 -0.618971 0
M  V30 10361 O 1020.05 5.6762 0.562418 0
M  V30 10362 O 1018.99 5.86154 -1.36774 0
M  V30 10363 H 1022.81 2.56463 -1.62667 0
M  V30 10364 H 1020.4 1.22521 -0.854932 0
M  V30 10365 H 1022.28 4.20959 0.19277 0
M  V30 10366 H 1020.95 3.14971 0.746662 0
M  V30 10367 H 1019.86 3.40163 -1.55693 0
M  V30 10368 H 1021.19 4.48365 -2.03051 0
M  V30 10369 N 1022.85 0.866709 1.31628 0
M  V30 10370 C 1023.81 0.325041 2.26883 0
M  V30 10371 C 1024.81 -0.522133 1.52087 0
M  V30 10372 O 1026 -0.331908 1.71009 0
M  V30 10373 C 1023.13 -0.538756 3.36616 0
M  V30 10374 H 1024.32 1.16592 2.76308 0
M  V30 10375 H 1021.88 0.642029 1.42505 0
M  V30 10376 H 1022.61 -1.40096 2.92478 0
M  V30 10377 H 1022.4 0.0678115 3.92041 0
M  V30 10378 H 1023.89 -0.910123 4.07562 0
M  V30 10379 N 1024.32 -1.44642 0.625825 0
M  V30 10380 C 1025.26 -2.27821 -0.131481 0
M  V30 10381 C 1026.23 -1.38224 -0.856324 0
M  V30 10382 O 1027.42 -1.67662 -0.861493 0
M  V30 10383 C 1024.55 -3.1703 -1.19204 0
M  V30 10384 C 1023.59 -4.22697 -0.568315 0
M  V30 10385 S 1024.42 -5.3169 0.637612 0
M  V30 10386 C 1025.58 -6.24468 -0.423088 0
M  V30 10387 H 1025.81 -2.91703 0.574177 0
M  V30 10388 H 1023.35 -1.4875 0.413844 0
M  V30 10389 H 1025.3 -3.6898 -1.79901 0
M  V30 10390 H 1023.97 -2.52379 -1.86986 0
M  V30 10391 H 1023.16 -4.8511 -1.36689 0
M  V30 10392 H 1022.76 -3.73983 -0.0360843 0
M  V30 10393 H 1025.05 -6.64967 -1.29713 0
M  V30 10394 H 1026 -7.07907 0.165338 0
M  V30 10395 H 1026.4 -5.59541 -0.746606 0
M  V30 10396 N 1025.8 -0.366053 -1.5329 0
M  V30 10397 C 1027.21 0.113056 -1.86357 0
M  V30 10398 C 1027.56 1.48123 -1.28662 0
M  V30 10399 O 1026.69 2.07658 -0.608849 0
M  V30 10400 C 1027.28 0.211923 -3.38137 0
M  V30 10401 C 1025.84 0.635289 -3.71 0
M  V30 10402 C 1024.99 -0.217203 -2.76448 0
M  V30 10403 H 1027.94 -0.584829 -1.47531 0
M  V30 10404 H 1027.96 1.0354 -3.66142 0
M  V30 10405 H 1027.47 -0.783994 -3.80099 0
M  V30 10406 H 1025.57 1.63942 -3.34595 0
M  V30 10407 H 1025.69 0.409571 -4.77346 0
M  V30 10408 H 1024.05 0.313988 -2.52757 0
M  V30 10409 H 1024.83 -1.21067 -3.21244 0
M  V30 10410 N 1027.28 1.57312 -0.0952337 0
M  V30 10411 C 1028.51 1.98697 0.57682 0
M  V30 10412 C 1028.92 0.974347 1.61716 0
M  V30 10413 O 1028.28 -0.036022 1.82464 0
M  V30 10414 C 1028.33 3.40133 1.2244 0
M  V30 10415 O 1028.05 4.37518 0.225678 0
M  V30 10416 C 1029.55 3.96522 1.98205 0
M  V30 10417 H 1026.77 0.65294 0.154629 0
M  V30 10418 H 1029.32 2.03754 -0.174562 0
M  V30 10419 H 1027.47 3.3609 1.92671 0
M  V30 10420 H 1027.89 5.199 0.693116 0
M  V30 10421 H 1029.36 4.97637 2.38875 0
M  V30 10422 H 1029.84 3.34347 2.84796 0
M  V30 10423 H 1030.44 4.04038 1.3279 0
M  V30 10424 N 1028.76 -0.17846 1.56586 0
M  V30 10425 C 1029.99 -0.911996 1.85715 0
M  V30 10426 C 1030.4 -1.76138 0.679766 0
M  V30 10427 O 1029.76 -1.79088 -0.351266 0
M  V30 10428 C 1029.81 -1.79459 3.1381 0
M  V30 10429 O 1029.53 -0.979476 4.2701 0
M  V30 10430 C 1031.03 -2.6384 3.56235 0
M  V30 10431 H 1028.25 -0.265299 0.616326 0
M  V30 10432 H 1030.79 -0.180704 2.037 0
M  V30 10433 H 1028.95 -2.4793 2.97673 0
M  V30 10434 H 1029.36 -1.58244 5.00059 0
M  V30 10435 H 1030.84 -3.21396 4.48786 0
M  V30 10436 H 1031.31 -3.38363 2.80013 0
M  V30 10437 H 1031.92 -2.00712 3.7496 0
M  V30 10438 N 1030.24 -1.51135 -0.446768 0
M  V30 10439 C 1031.65 -1.55919 -1.02694 0
M  V30 10440 C 1032 -0.377038 -1.92543 0
M  V30 10441 O 1031.12 0.507295 -2.1037 0
M  V30 10442 C 1031.72 -2.8257 -1.86922 0
M  V30 10443 C 1030.28 -2.89956 -2.40005 0
M  V30 10444 C 1029.42 -2.50482 -1.18971 0
M  V30 10445 H 1032.37 -1.57048 -0.228403 0
M  V30 10446 H 1032.4 -2.65799 -2.7227 0
M  V30 10447 H 1031.91 -3.6859 -1.21502 0
M  V30 10448 H 1030.01 -2.08343 -3.08907 0
M  V30 10449 H 1030.12 -3.93399 -2.73448 0
M  V30 10450 H 1028.49 -2.03466 -1.53211 0
M  V30 10451 H 1029.27 -3.38837 -0.551762 0
M  V30 10452 N 1031.71 0.701592 -1.41122 0
M  V30 10453 C 1032.62 1.84548 -1.44841 0
M  V30 10454 C 1033.64 1.70654 -0.339594 0
M  V30 10455 O 1034.82 1.92675 -0.586378 0
M  V30 10456 C 1031.88 3.20477 -1.3227 0
M  V30 10457 C 1030.94 3.46524 -2.53415 0
M  V30 10458 C 1030.17 4.75968 -2.41434 0
M  V30 10459 O 1030.4 5.52037 -1.43566 0
M  V30 10460 O 1029.33 5.02664 -3.31078 0
M  V30 10461 H 1033.16 1.84367 -2.41335 0
M  V30 10462 H 1030.74 0.853863 -1.22595 0
M  V30 10463 H 1032.62 4.01642 -1.2752 0
M  V30 10464 H 1031.3 3.21355 -0.388889 0
M  V30 10465 H 1030.21 2.65313 -2.63742 0
M  V30 10466 H 1031.54 3.50455 -3.45604 0
M  V30 10467 N 1033.19 1.2685 0.935242 0
M  V30 10468 C 1034.42 1.15645 1.72165 0
M  V30 10469 C 1034.84 -0.283909 1.85945 0
M  V30 10470 O 1034.2 -1.20567 1.354 0
M  V30 10471 C 1034.25 1.83689 3.10307 0
M  V30 10472 O 1033.35 1.12972 3.96625 0
M  V30 10473 H 1032.69 0.402629 0.528002 0
M  V30 10474 H 1035.22 1.67781 1.17093 0
M  V30 10475 H 1035.23 1.90749 3.60664 0
M  V30 10476 H 1033.91 2.88472 2.99595 0
M  V30 10477 H 1032.48 1.13929 3.5507 0
M  V30 10478 N 1034.67 -1.14067 1.0875 0
M  V30 10479 C 1036.08 -1.66747 0.839778 0
M  V30 10480 C 1036.43 -1.85711 -0.632909 0
M  V30 10481 O 1035.56 -1.57084 -1.48841 0
M  V30 10482 C 1036.15 -3.02896 1.51787 0
M  V30 10483 C 1034.71 -3.52596 1.3173 0
M  V30 10484 C 1033.86 -2.27994 1.57841 0
M  V30 10485 H 1036.81 -0.980838 1.24761 0
M  V30 10486 H 1036.83 -3.68526 0.947057 0
M  V30 10487 H 1036.34 -2.89062 2.58969 0
M  V30 10488 H 1034.44 -3.71647 0.266339 0
M  V30 10489 H 1034.56 -4.33151 2.04736 0
M  V30 10490 H 1032.92 -2.34241 1.00015 0
M  V30 10491 H 1033.7 -2.16732 2.66237 0
M  V30 10492 N 1036.15 -0.873678 -1.31166 0
M  V30 10493 C 1037.56 -0.566109 -1.49223 0
M  V30 10494 C 1037.76 0.898889 -1.80339 0
M  V30 10495 O 1036.82 1.68084 -1.88425 0
M  V30 10496 C 1038.13 -1.46952 -2.62346 0
M  V30 10497 C 1039.68 -1.47195 -2.76229 0
M  V30 10498 C 1040.16 -2.36102 -3.92454 0
M  V30 10499 N 1041.65 -2.34003 -3.99746 0
M  V30 10500 C 1042.38 -2.99513 -4.88958 0
M  V30 10501 N 1041.88 -3.74206 -5.83045 0
M  V30 10502 N 1043.67 -2.88802 -4.82234 0
M  V30 10503 H 1035.82 -1.82156 -1.09239 0
M  V30 10504 H 1038.09 -0.779086 -0.54012 0
M  V30 10505 H 1037.79 -2.51213 -2.4614 0
M  V30 10506 H 1037.67 -1.17077 -3.5857 0
M  V30 10507 H 1040.05 -0.436902 -2.91848 0
M  V30 10508 H 1040.13 -1.81095 -1.80661 0
M  V30 10509 H 1039.78 -3.39685 -3.77593 0
M  V30 10510 H 1039.71 -1.99524 -4.87337 0
M  V30 10511 H 1042.2 -1.79713 -3.32433 0
M  V30 10512 H 1042.51 -4.21312 -6.47855 0
M  V30 10513 H 1040.86 -3.78314 -5.83012 0
M  V30 10514 H 1044.05 -2.29984 -4.07707 0
M  V30 10515 H 1044.22 -3.40136 -5.51554 0
M  V30 10516 N 1037.63 1.44308 -0.633487 0
M  V30 10517 C 1038.59 2.2912 0.060376 0
M  V30 10518 C 1039.59 1.41166 0.769992 0
M  V30 10519 O 1040.78 1.63012 0.614224 0
M  V30 10520 C 1037.91 3.22798 1.0961 0
M  V30 10521 H 1039.1 2.91958 -0.685617 0
M  V30 10522 H 1036.66 1.51259 -0.393738 0
M  V30 10523 H 1037.39 2.64815 1.87199 0
M  V30 10524 H 1037.18 3.87618 0.591161 0
M  V30 10525 H 1038.67 3.86504 1.58127 0
M  V30 10526 N 1039.1 0.374177 1.53094 0
M  V30 10527 C 1040.38 -0.269632 1.93733 0
M  V30 10528 C 1040.76 -1.6566 1.30843 0
M  V30 10529 O 1040.11 -2.23598 0.470759 0
M  V30 10530 C 1040.32 -0.311204 3.4761 0
M  V30 10531 C 1041.67 -0.547432 4.21056 0
M  V30 10532 O 1042.69 -0.392053 3.54036 0
M  V30 10533 O 1041.55 -0.850645 5.39839 0
M  V30 10534 H 1038.64 -0.163723 0.810632 0
M  V30 10535 H 1041.19 0.427586 1.64225 0
M  V30 10536 H 1039.96 0.660897 3.85678 0
M  V30 10537 H 1039.59 -1.05397 3.83376 0
M  V30 10538 N 1040.58 -1.57259 0.103575 0
M  V30 10539 C 1041.83 -1.94657 -0.558126 0
M  V30 10540 C 1042.16 -0.985886 -1.67662 0
M  V30 10541 O 1041.41 -0.0069745 -1.95699 0
M  V30 10542 C 1041.71 -3.38549 -1.14538 0
M  V30 10543 C 1041.38 -4.50651 -0.149818 0
M  V30 10544 C 1040.04 -4.8104 0.12398 0
M  V30 10545 C 1042.39 -5.18503 0.529497 0
M  V30 10546 C 1039.72 -5.76606 1.08364 0
M  V30 10547 C 1042.07 -6.15099 1.47769 0
M  V30 10548 C 1040.74 -6.43889 1.75963 0
M  V30 10549 H 1040.01 -0.712299 -0.204233 0
M  V30 10550 H 1042.65 -1.90641 0.181208 0
M  V30 10551 H 1040.96 -3.39185 -1.96115 0
M  V30 10552 H 1042.65 -3.6479 -1.66521 0
M  V30 10553 H 1039.24 -4.2697 -0.373404 0
M  V30 10554 H 1043.43 -4.95194 0.331121 0
M  V30 10555 H 1038.68 -5.97223 1.30899 0
M  V30 10556 H 1042.86 -6.66767 2.00983 0
M  V30 10557 H 1040.49 -7.17749 2.50481 0
M  V30 10558 N 1042.06 0.170153 -1.56679 0
M  V30 10559 C 1043.48 0.521966 -1.50823 0
M  V30 10560 C 1043.68 1.84589 -0.808037 0
M  V30 10561 O 1042.73 2.49791 -0.368891 0
M  V30 10562 C 1044.05 0.553648 -2.95559 0
M  V30 10563 C 1045.59 0.640769 -3.06371 0
M  V30 10564 C 1046.07 0.703332 -4.52567 0
M  V30 10565 N 1047.56 0.76619 -4.56819 0
M  V30 10566 C 1048.29 0.835192 -5.67285 0
M  V30 10567 N 1047.79 0.864957 -6.87379 0
M  V30 10568 N 1049.58 0.874302 -5.55259 0
M  V30 10569 H 1041.73 -0.697952 -2.00605 0
M  V30 10570 H 1044 -0.251787 -0.913952 0
M  V30 10571 H 1043.7 -0.350498 -3.49949 0
M  V30 10572 H 1043.58 1.39973 -3.50268 0
M  V30 10573 H 1045.96 1.53534 -2.52015 0
M  V30 10574 H 1046.05 -0.232008 -2.54746 0
M  V30 10575 H 1045.69 -0.186986 -5.07556 0
M  V30 10576 H 1045.62 1.59227 -5.0195 0
M  V30 10577 H 1048.11 0.751424 -3.70354 0
M  V30 10578 H 1048.42 0.918814 -7.67318 0
M  V30 10579 H 1046.77 0.833215 -6.89987 0
M  V30 10580 H 1049.96 0.848057 -4.60354 0
M  V30 10581 H 1050.13 0.924615 -6.4137 0
M  V30 10582 N 1043.54 1.5137 0.438746 0
M  V30 10583 C 1044.45 1.75424 1.55768 0
M  V30 10584 C 1045.46 0.638409 1.61865 0
M  V30 10585 O 1046.64 0.9205 1.79133 0
M  V30 10586 C 1043.71 1.87288 2.9176 0
M  V30 10587 C 1042.77 3.11137 2.95791 0
M  V30 10588 C 1042 3.22425 4.25297 0
M  V30 10589 O 1042.22 2.39688 5.17596 0
M  V30 10590 O 1041.16 4.15393 4.35583 0
M  V30 10591 H 1044.98 2.70339 1.38386 0
M  V30 10592 H 1042.57 1.35854 0.621609 0
M  V30 10593 H 1044.45 1.97085 3.72472 0
M  V30 10594 H 1043.12 0.955599 3.09273 0
M  V30 10595 H 1042.03 3.06819 2.1404 0
M  V30 10596 H 1043.36 4.02549 2.83223 0
M  V30 10597 N 1045.02 -0.694098 1.41492 0
M  V30 10598 C 1046.24 -1.48286 1.44288 0
M  V30 10599 C 1046.66 -1.88737 0.0485783 0
M  V30 10600 O 1046.02 -1.56881 -0.932449 0
M  V30 10601 C 1046.07 -2.74446 2.3529 0
M  V30 10602 O 1045.79 -2.35698 3.69294 0
M  V30 10603 C 1047.29 -3.68175 2.46905 0
M  V30 10604 H 1044.51 -0.45692 0.491391 0
M  V30 10605 H 1047.05 -0.854477 1.85793 0
M  V30 10606 H 1045.21 -3.33518 1.9709 0
M  V30 10607 H 1045.62 -3.17029 4.17843 0
M  V30 10608 H 1047.1 -4.53476 3.14743 0
M  V30 10609 H 1047.57 -4.12763 1.50078 0
M  V30 10610 H 1048.18 -3.15006 2.85747 0
M  V30 10611 N 1046.49 -1.27344 -0.928501 0
M  V30 10612 C 1047.74 -1.13411 -1.67279 0
M  V30 10613 C 1048.06 0.320698 -1.92345 0
M  V30 10614 O 1047.33 1.2245 -1.52915 0
M  V30 10615 H 1045.91 -0.416712 -0.619968 0
M  V30 10616 H 1048.58 -1.5986 -1.11493 0
M  V30 10617 H 1047.67 -1.66256 -2.64131 0
M  V30 10618 N 1047.97 1.13488 -1.09353 0
M  V30 10619 C 1048.88 2.2248 -0.744307 0
M  V30 10620 C 1049.9 1.72145 0.253404 0
M  V30 10621 O 1051.07 2.01176 0.0949339 0
M  V30 10622 C 1048.14 3.46286 -0.16928 0
M  V30 10623 C 1047.2 4.11516 -1.22284 0
M  V30 10624 C 1046.43 5.29412 -0.675161 0
M  V30 10625 O 1046.66 5.68185 0.502182 0
M  V30 10626 O 1045.59 5.8467 -1.42983 0
M  V30 10627 H 1049.42 2.54723 -1.65378 0
M  V30 10628 H 1047 1.21607 -0.867879 0
M  V30 10629 H 1048.88 4.2114 0.14811 0
M  V30 10630 H 1047.56 3.15745 0.713214 0
M  V30 10631 H 1046.47 3.38492 -1.59292 0
M  V30 10632 H 1047.8 4.46186 -2.07796 0
M  V30 10633 N 1049.45 0.880621 1.30701 0
M  V30 10634 C 1050.68 0.511682 2.00473 0
M  V30 10635 C 1051.09 -0.898684 1.6604 0
M  V30 10636 O 1050.45 -1.59035 0.895218 0
M  V30 10637 C 1050.5 0.671723 3.55204 0
M  V30 10638 O 1050.22 2.02656 3.8841 0
M  V30 10639 C 1051.72 0.3052 4.42248 0
M  V30 10640 H 1048.94 0.198231 0.64105 0
M  V30 10641 H 1051.49 1.18472 1.66687 0
M  V30 10642 H 1049.64 0.0461066 3.87373 0
M  V30 10643 H 1050.06 2.04202 4.83117 0
M  V30 10644 H 1051.53 0.468095 5.50012 0
M  V30 10645 H 1052.01 -0.756456 4.32637 0
M  V30 10646 H 1052.61 0.906959 4.15517 0
M  V30 10647 N 1050.93 -1.4397 0.641131 0
M  V30 10648 C 1052.15 -2.06818 0.155318 0
M  V30 10649 C 1052.58 -1.47665 -1.16519 0
M  V30 10650 O 1051.94 -0.58192 -1.71707 0
M  V30 10651 C 1051.99 -3.60542 0.0647537 0
M  V30 10652 O 1051.09 -4.00674 -0.976447 0
M  V30 10653 H 1050.43 -0.657962 0.0893404 0
M  V30 10654 H 1052.96 -1.84678 0.88064 0
M  V30 10655 H 1052.97 -4.07816 -0.122552 0
M  V30 10656 H 1051.65 -4.02975 1.02878 0
M  V30 10657 H 1050.22 -3.65013 -0.762905 0
M  V30 10658 N 1052.41 -0.382291 -1.52893 0
M  V30 10659 C 1053.82 0.0932841 -1.86467 0
M  V30 10660 C 1054.17 1.4675 -1.30226 0
M  V30 10661 O 1053.29 2.07001 -0.63084 0
M  V30 10662 C 1053.89 0.176048 -3.38342 0
M  V30 10663 C 1052.45 0.595904 -3.71653 0
M  V30 10664 C 1051.6 -0.246511 -2.76202 0
M  V30 10665 H 1054.55 -0.600443 -1.46903 0
M  V30 10666 H 1054.57 0.996512 -3.67219 0
M  V30 10667 H 1054.08 -0.824264 -3.79246 0
M  V30 10668 H 1052.18 1.60384 -3.36315 0
M  V30 10669 H 1052.29 0.358919 -4.77754 0
M  V30 10670 H 1050.66 0.287162 -2.53076 0
M  V30 10671 H 1051.44 -1.24467 -3.19942 0
M  V30 10672 N 1053.89 1.57202 -0.111913 0
M  V30 10673 C 1054.85 2.13778 0.826534 0
M  V30 10674 C 1055.85 1.07097 1.19945 0
M  V30 10675 O 1057.04 1.32906 1.12613 0
M  V30 10676 C 1054.17 2.6722 2.11675 0
M  V30 10677 H 1055.36 2.98023 0.334975 0
M  V30 10678 H 1052.92 1.55696 0.137256 0
M  V30 10679 H 1053.65 1.86542 2.65278 0
M  V30 10680 H 1053.44 3.45235 1.8589 0
M  V30 10681 H 1054.93 3.10926 2.78774 0
M  V30 10682 N 1055.36 -0.161842 1.56767 0
M  V30 10683 C 1056.3 -1.22499 1.93718 0
M  V30 10684 C 1057.31 -1.39975 0.831314 0
M  V30 10685 O 1058.5 -1.3981 1.10975 0
M  V30 10686 C 1055.6 -2.59222 2.18306 0
M  V30 10687 C 1054.77 -2.6292 3.4956 0
M  V30 10688 C 1053.83 -3.81074 3.62863 0
M  V30 10689 O 1052.86 -3.66633 4.35395 0
M  V30 10690 N 1054.06 -4.97923 2.98418 0
M  V30 10691 H 1056.82 -0.911043 2.85517 0
M  V30 10692 H 1054.38 -0.351533 1.58038 0
M  V30 10693 H 1056.38 -3.36749 2.24461 0
M  V30 10694 H 1054.95 -2.82969 1.32844 0
M  V30 10695 H 1054.17 -1.71418 3.54978 0
M  V30 10696 H 1055.45 -2.62409 4.35911 0
M  V30 10697 H 1054.85 -5.12557 2.39378 0
M  V30 10698 H 1053.41 -5.73277 3.10155 0
M  V30 10699 N 1056.84 -1.516 -0.430713 0
M  V30 10700 C 1058.09 -1.6484 -1.18134 0
M  V30 10701 C 1058.42 -0.366725 -1.90706 0
M  V30 10702 O 1057.7 0.63398 -1.83878 0
M  V30 10703 C 1057.98 -2.85617 -2.19306 0
M  V30 10704 C 1057.83 -4.23778 -1.50773 0
M  V30 10705 C 1059.15 -3.01909 -3.20217 0
M  V30 10706 H 1056.27 -0.599907 -0.428113 0
M  V30 10707 H 1058.91 -1.84102 -0.46973 0
M  V30 10708 H 1057.06 -2.69325 -2.79993 0
M  V30 10709 H 1058.73 -4.51752 -0.93371 0
M  V30 10710 H 1056.98 -4.26171 -0.809966 0
M  V30 10711 H 1057.65 -5.04291 -2.24487 0
M  V30 10712 H 1060.12 -3.16956 -2.69589 0
M  V30 10713 H 1059 -3.87968 -3.88293 0
M  V30 10714 H 1059.26 -2.1427 -3.86705 0
M  V30 10715 N 1058.32 0.686584 -1.41858 0
M  V30 10716 C 1059.27 1.82167 -1.4463 0
M  V30 10717 C 1060.26 1.66286 -0.323313 0
M  V30 10718 O 1061.47 1.73038 -0.495773 0
M  V30 10719 H 1057.84 0.600454 -0.452724 0
M  V30 10720 H 1059.81 1.76947 -2.40276 0
M  V30 10721 C 1058.56 3.20248 -1.35412 0
M  V30 10722 H 1057.89 3.33089 -2.21115 0
M  V30 10723 H 1059.33 3.99723 -1.41413 0
M  V30 10724 C 1057.78 3.36832 -0.0674972 0
M  V30 10725 O 1058.31 3.91845 0.884325 0
M  V30 10726 N 1056.52 2.90598 0.011519 0
M  V30 10727 H 1056.07 2.46016 -0.76381 0
M  V30 10728 H 1056.03 3.02072 0.871774 0
M  V30 10729 N 1059.8 1.27835 0.921735 0
M  V30 10730 C 1060.74 1.11075 2.02314 0
M  V30 10731 C 1061.71 0.0101195 1.66097 0
M  V30 10732 O 1062.9 0.173564 1.90009 0
M  V30 10733 C 1060.04 0.770251 3.36394 0
M  V30 10734 C 1059.15 1.94912 3.8553 0
M  V30 10735 C 1058.29 1.54996 5.08084 0
M  V30 10736 C 1057.33 2.69595 5.49531 0
M  V30 10737 N 1056.46 2.30227 6.6328 0
M  V30 10738 H 1061.3 2.05319 2.15982 0
M  V30 10739 H 1058.84 1.022 1.058 0
M  V30 10740 H 1060.8 0.553624 4.1351 0
M  V30 10741 H 1059.43 -0.135238 3.22517 0
M  V30 10742 H 1058.48 2.27811 3.04641 0
M  V30 10743 H 1059.79 2.80858 4.12214 0
M  V30 10744 H 1058.95 1.29493 5.9272 0
M  V30 10745 H 1057.69 0.661676 4.83191 0
M  V30 10746 H 1056.69 2.95806 4.63442 0
M  V30 10747 H 1057.92 3.59054 5.76417 0
M  V30 10748 H 1055.86 1.43858 6.40032 0
M  V30 10749 H 1055.78 3.09711 6.89649 0
M  V30 10750 H 1057.05 2.07987 7.5124 0
M  V30 10751 N 1061.28 -1.12907 1.09954 0
M  V30 10752 C 1062.24 -2.16673 0.747364 0
M  V30 10753 C 1063.24 -1.59208 -0.225741 0
M  V30 10754 O 1064.43 -1.742 -0.00322482 0
M  V30 10755 C 1061.56 -3.40735 0.106169 0
M  V30 10756 H 1062.75 -2.49341 1.6664 0
M  V30 10757 H 1060.31 -1.27828 0.899421 0
M  V30 10758 H 1061.04 -3.13661 -0.82384 0
M  V30 10759 H 1060.83 -3.83717 0.806434 0
M  V30 10760 H 1062.32 -4.17414 -0.12464 0
M  V30 10761 N 1062.75 -0.88754 -1.30232 0
M  V30 10762 C 1063.66 -0.360333 -2.31816 0
M  V30 10763 C 1064.68 0.538741 -1.6545 0
M  V30 10764 O 1065.86 0.431246 -1.96729 0
M  V30 10765 C 1062.92 0.414336 -3.44215 0
M  V30 10766 C 1061.98 -0.514799 -4.26202 0
M  V30 10767 C 1061.21 0.222994 -5.33234 0
M  V30 10768 O 1061.44 1.44871 -5.51696 0
M  V30 10769 O 1060.37 -0.428221 -6.00375 0
M  V30 10770 H 1064.2 -1.20279 -2.78867 0
M  V30 10771 H 1061.78 -0.651459 -1.34448 0
M  V30 10772 H 1063.66 0.852859 -4.12679 0
M  V30 10773 H 1062.34 1.23305 -2.99295 0
M  V30 10774 H 1061.25 -1.00219 -3.60426 0
M  V30 10775 H 1062.58 -1.29959 -4.74733 0
M  V30 10776 N 1064.23 1.43628 -0.648757 0
M  V30 10777 C 1065.18 2.27899 0.0677939 0
M  V30 10778 C 1066.17 1.39653 0.799115 0
M  V30 10779 O 1067.36 1.6332 0.682317 0
M  V30 10780 C 1064.49 3.27276 1.0366 0
M  V30 10781 C 1063.57 4.23009 0.303982 0
M  V30 10782 N 1063.96 5.01248 -0.677056 0
M  V30 10783 C 1062.26 4.42645 0.546041 0
M  V30 10784 C 1062.96 5.70982 -1.11151 0
M  V30 10785 N 1061.94 5.41762 -0.446669 0
M  V30 10786 H 1065.74 2.85804 -0.685073 0
M  V30 10787 H 1063.26 1.55277 -0.475674 0
M  V30 10788 H 1065.25 3.86423 1.5647 0
M  V30 10789 H 1063.91 2.70932 1.78958 0
M  V30 10790 H 1064.92 5.07028 -1.0556 0
M  V30 10791 H 1061.6 3.97377 1.28053 0
M  V30 10792 H 1062.99 6.43794 -1.923 0
M  V30 10793 N 1065.71 0.390394 1.52688 0
M  V30 10794 C 1066.94 -0.194013 2.06491 0
M  V30 10795 C 1067.36 -1.3965 1.26014 0
M  V30 10796 O 1066.72 -1.79038 0.285468 0
M  V30 10797 C 1066.77 -0.541306 3.56514 0
M  V30 10798 O 1065.87 -1.63509 3.78601 0
M  V30 10799 H 1065.21 -0.0223608 0.663623 0
M  V30 10800 H 1067.74 0.558179 1.96839 0
M  V30 10801 H 1067.75 -0.805301 3.99974 0
M  V30 10802 H 1066.43 0.337828 4.14526 0
M  V30 10803 H 1065 -1.36473 3.4703 0
M  V30 10804 N 1067.19 -1.57141 0.120249 0
M  V30 10805 C 1068.41 -2.00017 -0.548454 0
M  V30 10806 C 1068.84 -0.999433 -1.59352 0
M  V30 10807 O 1068.2 0.0286978 -1.81277 0
M  V30 10808 C 1068.24 -3.41766 -1.15015 0
M  V30 10809 O 1067.35 -3.44589 -2.26566 0
M  V30 10810 H 1066.69 -0.649739 -0.136875 0
M  V30 10811 H 1069.22 -2.03529 0.209092 0
M  V30 10812 H 1069.23 -3.80001 -1.48537 0
M  V30 10813 H 1067.9 -4.14117 -0.384681 0
M  V30 10814 H 1066.48 -3.18174 -1.94473 0
M  V30 10815 N 1068.67 0.153526 -1.5685 0
M  V30 10816 C 1069.89 0.886343 -1.87507 0
M  V30 10817 C 1070.32 1.74244 -0.708565 0
M  V30 10818 O 1069.67 1.78045 0.341997 0
M  V30 10819 C 1069.72 1.72428 -3.16703 0
M  V30 10820 O 1068.83 2.82784 -3.00178 0
M  V30 10821 H 1068.17 0.247259 -0.616246 0
M  V30 10822 H 1070.7 0.146306 -2.04076 0
M  V30 10823 H 1070.71 2.12062 -3.4856 0
M  V30 10824 H 1069.38 1.09558 -4.01211 0
M  V30 10825 H 1067.96 2.46604 -2.79716 0
M  V30 10826 N 1070.14 1.51827 0.422667 0
M  V30 10827 C 1071.37 1.69337 1.19748 0
M  V30 10828 C 1071.79 0.396312 1.83878 0
M  V30 10829 O 1071.15 -0.644976 1.6944 0
M  V30 10830 C 1071.2 2.82082 2.24637 0
M  V30 10831 O 1070.3 2.46708 3.30468 0
M  V30 10832 H 1069.65 0.564154 0.35018 0
M  V30 10833 H 1072.18 1.98465 0.497289 0
M  V30 10834 H 1072.19 3.06599 2.69186 0
M  V30 10835 H 1070.86 3.76195 1.77341 0
M  V30 10836 H 1069.44 2.32815 2.91293 0
M  V30 10837 N 1071.62 -0.679052 1.4222 0
M  V30 10838 C 1073.03 -1.25953 1.37815 0
M  V30 10839 C 1073.38 -1.96077 0.0693215 0
M  V30 10840 O 1072.51 -1.99765 -0.832047 0
M  V30 10841 C 1073.1 -2.29063 2.49631 0
M  V30 10842 C 1071.66 -2.82647 2.48571 0
M  V30 10843 C 1070.81 -1.56909 2.28637 0
M  V30 10844 H 1073.76 -0.472714 1.51496 0
M  V30 10845 H 1073.78 -3.10708 2.19638 0
M  V30 10846 H 1073.29 -1.77996 3.44876 0
M  V30 10847 H 1071.4 -3.37846 1.57132 0
M  V30 10848 H 1071.51 -3.31952 3.45463 0
M  V30 10849 H 1069.87 -1.83323 1.76819 0
M  V30 10850 H 1070.66 -1.07814 3.25931 0
M  V30 10851 N 1073.1 -1.28322 -0.914942 0
M  V30 10852 C 1074.35 -1.16587 -1.6667 0
M  V30 10853 C 1074.7 0.282961 -1.90308 0
M  V30 10854 O 1073.99 1.20269 -1.49151 0
M  V30 10855 C 1074.19 -1.89663 -3.02924 0
M  V30 10856 C 1074.02 -3.41504 -2.92584 0
M  V30 10857 C 1072.79 -4.10841 -2.94173 0
M  V30 10858 C 1074.99 -4.37266 -2.70745 0
M  V30 10859 N 1072.97 -5.49157 -2.74409 0
M  V30 10860 C 1074.34 -5.62937 -2.59812 0
M  V30 10861 C 1076.39 -4.27207 -2.55732 0
M  V30 10862 C 1075.1 -6.79692 -2.35397 0
M  V30 10863 C 1077.12 -5.43697 -2.32697 0
M  V30 10864 C 1076.48 -6.6833 -2.22517 0
M  V30 10865 H 1072.58 -0.481552 -0.616142 0
M  V30 10866 H 1075.17 -1.61957 -1.08065 0
M  V30 10867 H 1073.34 -1.46729 -3.59618 0
M  V30 10868 H 1075.07 -1.70323 -3.67113 0
M  V30 10869 H 1071.83 -3.62412 -3.04884 0
M  V30 10870 H 1072.25 -6.21858 -2.67622 0
M  V30 10871 H 1076.89 -3.31557 -2.62354 0
M  V30 10872 H 1074.61 -7.75412 -2.27514 0
M  V30 10873 H 1078.2 -5.37802 -2.21947 0
M  V30 10874 H 1077.08 -7.56949 -2.04936 0
M  V30 10875 N 1074.58 1.12322 -1.10551 0
M  V30 10876 C 1075.99 1.6539 -0.8662 0
M  V30 10877 C 1076.34 1.86695 0.603284 0
M  V30 10878 O 1075.47 1.59432 1.46323 0
M  V30 10879 C 1076.06 3.00443 -1.56587 0
M  V30 10880 C 1074.62 3.50456 -1.37323 0
M  V30 10881 C 1073.77 2.25454 -1.61449 0
M  V30 10882 H 1076.72 0.960866 -1.26305 0
M  V30 10883 H 1076.74 3.66972 -1.00557 0
M  V30 10884 H 1076.25 2.84905 -2.63535 0
M  V30 10885 H 1074.35 3.71176 -0.325431 0
M  V30 10886 H 1074.46 4.29839 -2.11601 0
M  V30 10887 H 1072.83 2.32621 -1.03729 0
M  V30 10888 H 1073.61 2.12469 -2.69651 0
M  V30 10889 N 1076.06 0.894434 1.2976 0
M  V30 10890 C 1077.28 0.5322 2.00455 0
M  V30 10891 C 1077.71 -0.874427 1.66539 0
M  V30 10892 O 1077.06 -1.58113 0.887129 0
M  V30 10893 C 1077.11 0.725264 3.53231 0
M  V30 10894 O 1076.22 -0.224612 4.11788 0
M  V30 10895 H 1075.56 0.208562 0.630395 0
M  V30 10896 H 1078.09 1.20458 1.65382 0
M  V30 10897 H 1078.1 0.627889 4.0314 0
M  V30 10898 H 1076.77 1.75079 3.77253 0
M  V30 10899 H 1075.35 -0.0801361 3.72814 0
M  V30 10900 N 1077.53 -1.43282 0.656365 0
M  V30 10901 C 1078.78 -2.02075 0.171293 0
M  V30 10902 C 1079.11 -1.51682 -1.21269 0
M  V30 10903 O 1078.39 -0.711243 -1.81029 0
M  V30 10904 C 1078.67 -3.59621 0.185602 0
M  V30 10905 C 1078.52 -4.20239 1.60373 0
M  V30 10906 C 1079.84 -4.37515 -0.476289 0
M  V30 10907 H 1076.96 -0.73424 0.0637185 0
M  V30 10908 H 1079.6 -1.70539 0.837648 0
M  V30 10909 H 1077.75 -3.86619 -0.381804 0
M  V30 10910 H 1079.43 -4.0426 2.22197 0
M  V30 10911 H 1077.67 -3.76769 2.15006 0
M  V30 10912 H 1078.34 -5.29333 1.56557 0
M  V30 10913 H 1080.82 -4.16099 0.00651073 0
M  V30 10914 H 1079.69 -5.47169 -0.435562 0
M  V30 10915 H 1079.95 -4.14003 -1.55093 0
M  V30 10916 N 1079.01 -0.398486 -1.52479 0
M  V30 10917 C 1079.96 0.447001 -2.28264 0
M  V30 10918 C 1080.96 1.05511 -1.32529 0
M  V30 10919 O 1082.16 0.994528 -1.5003 0
M  V30 10920 H 1078.54 0.162919 -0.73414 0
M  V30 10921 H 1080.51 -0.213534 -2.97635 0
M  V30 10922 C 1079.26 1.55724 -3.10879 0
M  V30 10923 H 1078.58 1.09864 -3.84409 0
M  V30 10924 H 1080.02 2.12286 -3.67029 0
M  V30 10925 C 1078.48 2.51853 -2.23768 0
M  V30 10926 O 1079.01 3.55483 -1.87069 0
M  V30 10927 N 1077.21 2.2181 -1.87746 0
M  V30 10928 H 1076.76 1.3757 -2.17789 0
M  V30 10929 H 1076.72 2.86376 -1.29753 0
M  V30 10930 N 1080.49 1.57075 -0.12858 0
M  V30 10931 C 1081.91 1.57964 0.227961 0
M  V30 10932 C 1082.11 1.14186 1.66023 0
M  V30 10933 O 1081.16 0.833655 2.38341 0
M  V30 10934 C 1082.48 3.00697 -0.0140648 0
M  V30 10935 C 1084.02 3.12958 0.0510876 0
M  V30 10936 C 1084.5 4.57709 -0.163368 0
M  V30 10937 N 1085.99 4.6307 -0.109663 0
M  V30 10938 C 1086.73 5.72853 -0.250366 0
M  V30 10939 N 1086.22 6.91351 -0.447772 0
M  V30 10940 N 1088.01 5.61781 -0.189265 0
M  V30 10941 H 1080.17 1.83829 -1.06398 0
M  V30 10942 H 1082.43 0.850014 -0.419739 0
M  V30 10943 H 1082.13 3.37047 -1.00461 0
M  V30 10944 H 1082.01 3.70389 0.713571 0
M  V30 10945 H 1084.4 2.7646 1.03216 0
M  V30 10946 H 1084.48 2.4579 -0.708583 0
M  V30 10947 H 1084.12 4.94907 -1.14146 0
M  V30 10948 H 1084.05 5.2298 0.616405 0
M  V30 10949 H 1086.54 3.7788 0.0390086 0
M  V30 10950 H 1086.85 7.70871 -0.54574 0
M  V30 10951 H 1085.2 6.93314 -0.483866 0
M  V30 10952 H 1088.39 4.68086 -0.0359374 0
M  V30 10953 H 1088.56 6.47294 -0.302359 0
M  V30 10954 N 1081.97 -0.145205 1.5693 0
M  V30 10955 C 1082.92 -1.19841 1.99351 0
M  V30 10956 C 1083.91 -1.44371 0.886197 0
M  V30 10957 O 1085.12 -1.44642 1.07138 0
M  V30 10958 H 1081.49 -0.403437 0.63462 0
M  V30 10959 H 1083.46 -0.813932 2.87085 0
M  V30 10960 C 1082.21 -2.52377 2.39167 0
M  V30 10961 H 1081.54 -2.34332 3.23927 0
M  V30 10962 H 1082.98 -3.24694 2.72671 0
M  V30 10963 C 1081.43 -3.1305 1.24503 0
M  V30 10964 O 1081.96 -3.97962 0.546739 0
M  V30 10965 N 1080.17 -2.72528 1.00882 0
M  V30 10966 H 1079.72 -2.03576 1.57843 0
M  V30 10967 H 1079.68 -3.13456 0.24351 0
M  V30 10968 N 1083.45 -1.52049 -0.414609 0
M  V30 10969 C 1084.69 -1.66084 -1.16379 0
M  V30 10970 C 1085.03 -0.386932 -1.90306 0
M  V30 10971 O 1084.3 0.614441 -1.8454 0
M  V30 10972 C 1084.58 -2.87927 -2.16264 0
M  V30 10973 C 1084.44 -4.25353 -1.46269 0
M  V30 10974 C 1085.76 -3.05289 -3.16996 0
M  V30 10975 H 1082.88 -0.604414 -0.421726 0
M  V30 10976 H 1085.52 -1.8459 -0.450177 0
M  V30 10977 H 1083.67 -2.7228 -2.77121 0
M  V30 10978 H 1085.34 -4.52717 -0.885743 0
M  V30 10979 H 1083.58 -4.27006 -0.76472 0
M  V30 10980 H 1084.25 -5.06644 -2.19126 0
M  V30 10981 H 1086.73 -3.19798 -2.66212 0
M  V30 10982 H 1085.61 -3.92065 -3.84156 0
M  V30 10983 H 1085.87 -2.1836 -3.84411 0
M  V30 10984 N 1084.93 0.6715 -1.42579 0
M  V30 10985 C 1085.89 1.76676 -1.46008 0
M  V30 10986 C 1086.89 1.57007 -0.347213 0
M  V30 10987 O 1088.08 1.63238 -0.608185 0
M  V30 10988 C 1085.21 3.15348 -1.29494 0
M  V30 10989 H 1086.4 1.75021 -2.43531 0
M  V30 10990 H 1083.96 0.881444 -1.29075 0
M  V30 10991 H 1084.69 3.22626 -0.32906 0
M  V30 10992 H 1084.48 3.31028 -2.10149 0
M  V30 10993 H 1085.97 3.95251 -1.34784 0
M  V30 10994 N 1086.4 1.28806 0.908124 0
M  V30 10995 C 1087.65 1.1646 1.66027 0
M  V30 10996 C 1087.98 -0.285025 1.92097 0
M  V30 10997 O 1087.26 -1.20675 1.52538 0
M  V30 10998 C 1087.54 1.96951 3.01467 0
M  V30 10999 C 1087.39 3.50007 2.82515 0
M  V30 11000 C 1088.71 1.78932 4.02084 0
M  V30 11001 H 1085.83 0.424435 0.602515 0
M  V30 11002 H 1088.47 1.58185 1.0525 0
M  V30 11003 H 1086.62 1.61495 3.53344 0
M  V30 11004 H 1088.3 3.95401 2.37605 0
M  V30 11005 H 1086.54 3.75356 2.17463 0
M  V30 11006 H 1087.21 4.01591 3.7872 0
M  V30 11007 H 1089.69 2.09885 3.59287 0
M  V30 11008 H 1088.56 2.37615 4.94803 0
M  V30 11009 H 1088.82 0.742286 4.35824 0
M  V30 11010 N 1087.88 -1.11734 1.11145 0
M  V30 11011 C 1089.13 -1.83043 0.856717 0
M  V30 11012 C 1089.45 -1.84901 -0.619407 0
M  V30 11013 O 1088.72 -1.31738 -1.44989 0
M  V30 11014 H 1087.3 -0.677823 0.31395 0
M  V30 11015 H 1089.96 -1.35262 1.40322 0
M  V30 11016 H 1089.06 -2.87005 1.22616 0
M  V30 11017 N 1089.36 -0.901303 -1.29284 0
M  V30 11018 C 1090.61 -0.528043 -1.95494 0
M  V30 11019 C 1090.93 0.92597 -1.71044 0
M  V30 11020 O 1090.19 1.67185 -1.01723 0
M  V30 11021 C 1090.49 -0.768828 -3.49033 0
M  V30 11022 C 1090.15 -2.20045 -3.93562 0
M  V30 11023 C 1088.82 -2.59189 -4.05431 0
M  V30 11024 C 1091.17 -3.13266 -4.1655 0
M  V30 11025 C 1088.5 -3.90733 -4.37658 0
M  V30 11026 C 1090.85 -4.4436 -4.50252 0
M  V30 11027 C 1089.51 -4.83375 -4.60331 0
M  V30 11028 H 1088.78 -0.193225 -0.715364 0
M  V30 11029 H 1091.43 -1.14027 -1.53851 0
M  V30 11030 H 1089.73 -0.0736997 -3.91731 0
M  V30 11031 H 1091.43 -0.459384 -3.9836 0
M  V30 11032 H 1088.02 -1.88666 -3.84842 0
M  V30 11033 H 1092.21 -2.84237 -4.06845 0
M  V30 11034 H 1087.46 -4.2068 -4.43665 0
M  V30 11035 H 1091.64 -5.16618 -4.66989 0
M  V30 11036 H 1089.26 -5.8534 -4.85058 0
M  V30 11037 N 1090.84 1.42931 -0.663954 0
M  V30 11038 C 1092.08 2.01982 -0.182007 0
M  V30 11039 C 1092.42 1.52323 1.20463 0
M  V30 11040 O 1091.69 0.720834 1.80649 0
M  V30 11041 C 1091.97 3.59518 -0.204671 0
M  V30 11042 C 1091.83 4.19382 -1.62599 0
M  V30 11043 C 1093.15 4.37762 0.45308 0
M  V30 11044 H 1090.27 0.733892 -0.0676115 0
M  V30 11045 H 1092.91 1.70092 -0.84668 0
M  V30 11046 H 1091.06 3.86816 0.361295 0
M  V30 11047 H 1092.73 4.03076 -2.24337 0
M  V30 11048 H 1090.97 3.75623 -2.17001 0
M  V30 11049 H 1091.64 5.28496 -1.59362 0
M  V30 11050 H 1094.12 4.1609 -0.0285774 0
M  V30 11051 H 1093 5.47392 0.406538 0
M  V30 11052 H 1093.26 4.1482 1.52895 0
M  V30 11053 N 1092.32 0.406567 1.52266 0
M  V30 11054 C 1093.73 -0.063607 1.86592 0
M  V30 11055 C 1094.08 -1.4466 1.32544 0
M  V30 11056 O 1093.2 -2.05971 0.663692 0
M  V30 11057 C 1093.8 -0.122198 3.3858 0
M  V30 11058 C 1092.36 -0.536701 3.72554 0
M  V30 11059 C 1091.5 0.290422 2.75775 0
M  V30 11060 H 1094.45 0.623738 1.45929 0
M  V30 11061 H 1094.48 -0.937964 3.68758 0
M  V30 11062 H 1093.99 0.884495 3.77887 0
M  V30 11063 H 1092.09 -1.55013 3.38824 0
M  V30 11064 H 1092.2 -0.282867 4.78264 0
M  V30 11065 H 1090.57 -0.246864 2.53501 0
M  V30 11066 H 1091.35 1.29541 3.17921 0
M  V30 11067 N 1093.79 -1.57004 0.136909 0
M  V30 11068 C 1095.02 -2.00156 -0.523936 0
M  V30 11069 C 1095.44 -1.01688 -1.59075 0
M  V30 11070 O 1094.79 -0.0123678 -1.82496 0
M  V30 11071 C 1094.85 -3.4326 -1.13379 0
M  V30 11072 O 1094.57 -4.37963 -0.109598 0
M  V30 11073 C 1096.07 -4.01637 -1.87623 0
M  V30 11074 H 1093.29 -0.65681 -0.137263 0
M  V30 11075 H 1095.83 -2.03219 0.228522 0
M  V30 11076 H 1093.99 -3.4108 -1.83693 0
M  V30 11077 H 1094.4 -5.21555 -0.55503 0
M  V30 11078 H 1095.87 -5.03795 -2.25597 0
M  V30 11079 H 1096.35 -3.41781 -2.75831 0
M  V30 11080 H 1096.96 -4.07417 -1.22031 0
M  V30 11081 N 1095.27 0.136881 -1.57004 0
M  V30 11082 C 1096.18 1.18793 -2.023 0
M  V30 11083 C 1097.2 1.46412 -0.94018 0
M  V30 11084 O 1098.37 1.57883 -1.2504 0
M  V30 11085 C 1095.44 2.49903 -2.40311 0
M  V30 11086 C 1094.5 2.29841 -3.6259 0
M  V30 11087 C 1093.73 3.54699 -3.98779 0
M  V30 11088 O 1093.96 4.61291 -3.3551 0
M  V30 11089 O 1092.89 3.46761 -4.91976 0
M  V30 11090 H 1096.72 0.833345 -2.92043 0
M  V30 11091 H 1094.3 0.346361 -1.4533 0
M  V30 11092 H 1096.18 3.27183 -2.65574 0
M  V30 11093 H 1094.86 2.84872 -1.5372 0
M  V30 11094 H 1093.77 1.50478 -3.42501 0
M  V30 11095 H 1095.1 1.99784 -4.4983 0
M  V30 11096 N 1096.75 1.52266 0.40654 0
M  V30 11097 C 1097.98 1.70304 1.17491 0
M  V30 11098 C 1098.39 0.413656 1.84213 0
M  V30 11099 O 1097.75 -0.610524 1.71985 0
M  V30 11100 C 1097.8 2.84045 2.23609 0
M  V30 11101 O 1097.52 4.0799 1.5961 0
M  V30 11102 C 1099.02 3.13614 3.13306 0
M  V30 11103 H 1096.24 0.570669 0.352955 0
M  V30 11104 H 1098.79 1.98836 0.477967 0
M  V30 11105 H 1096.94 2.58025 2.88967 0
M  V30 11106 H 1097.36 4.7139 2.29983 0
M  V30 11107 H 1098.83 3.96707 3.83833 0
M  V30 11108 H 1099.31 2.27272 3.75824 0
M  V30 11109 H 1099.91 3.41409 2.53614 0
M  V30 11110 N 1098.23 -0.663929 1.42933 0
M  V30 11111 C 1099.19 -1.75899 1.46943 0
M  V30 11112 C 1100.19 -1.5682 0.355535 0
M  V30 11113 O 1101.38 -1.62914 0.616833 0
M  V30 11114 C 1098.51 -3.14657 1.31164 0
M  V30 11115 H 1099.71 -1.73727 2.44456 0
M  V30 11116 H 1097.26 -0.874587 1.2954 0
M  V30 11117 H 1097.99 -3.22447 0.346165 0
M  V30 11118 H 1097.78 -3.29909 2.11902 0
M  V30 11119 H 1099.27 -3.9453 1.36878 0
M  V30 11120 N 1099.71 -1.29285 -0.901281 0
M  V30 11121 C 1100.93 -1.20048 -1.68511 0
M  V30 11122 C 1101.35 0.239128 -1.8728 0
M  V30 11123 O 1100.71 1.16027 -1.40869 0
M  V30 11124 C 1100.76 -1.90798 -3.07048 0
M  V30 11125 O 1100.48 -3.29137 -2.89138 0
M  V30 11126 C 1101.98 -1.88017 -4.01453 0
M  V30 11127 H 1099.2 -0.416157 -0.52636 0
M  V30 11128 H 1101.74 -1.7063 -1.12719 0
M  V30 11129 H 1099.9 -1.44055 -3.5962 0
M  V30 11130 H 1100.31 -3.64747 -3.76908 0
M  V30 11131 H 1101.79 -2.42088 -4.96082 0
M  V30 11132 H 1102.26 -0.855341 -4.30791 0
M  V30 11133 H 1102.87 -2.34497 -3.54812 0
M  V30 11134 N 1101.18 1.11143 -1.11736 0
M  V30 11135 C 1102.09 2.20851 -0.791331 0
M  V30 11136 C 1103.11 1.72644 0.216833 0
M  V30 11137 O 1104.29 2.01332 0.0522401 0
M  V30 11138 C 1101.35 3.4585 -0.242694 0
M  V30 11139 C 1100.41 4.08829 -1.30986 0
M  V30 11140 C 1099.65 5.27861 -0.787305 0
M  V30 11141 O 1099.87 5.69122 0.381549 0
M  V30 11142 O 1098.8 5.81506 -1.55352 0
M  V30 11143 H 1102.63 2.51158 -1.70744 0
M  V30 11144 H 1100.21 1.19739 -0.893478 0
M  V30 11145 H 1102.1 4.21359 0.0587472 0
M  V30 11146 H 1100.77 3.17187 0.646079 0
M  V30 11147 H 1099.68 3.35037 -1.66436 0
M  V30 11148 H 1101.01 4.41678 -2.17213 0
M  V30 11149 N 1102.66 0.908147 1.28804 0
M  V30 11150 C 1104.07 0.585727 1.77274 0
M  V30 11151 C 1104.42 -0.898842 1.744 0
M  V30 11152 O 1103.55 -1.70301 1.33516 0
M  V30 11153 C 1104.14 1.05647 3.21907 0
M  V30 11154 C 1102.7 0.785066 3.68122 0
M  V30 11155 C 1101.85 1.22638 2.48707 0
M  V30 11156 H 1104.8 1.09 1.15346 0
M  V30 11157 H 1104.82 0.395442 3.7844 0
M  V30 11158 H 1104.33 2.13698 3.23967 0
M  V30 11159 H 1102.44 -0.282477 3.71528 0
M  V30 11160 H 1102.55 1.38888 4.58527 0
M  V30 11161 H 1100.91 0.645217 2.46392 0
M  V30 11162 H 1101.7 2.31512 2.5349 0
M  V30 11163 N 1104.14 -1.42577 0.671525 0
M  V30 11164 C 1105.37 -2.05924 0.200731 0
M  V30 11165 C 1105.78 -1.50434 -1.14083 0
M  V30 11166 O 1105.14 -0.642845 -1.70803 0
M  V30 11167 C 1105.19 -3.61289 0.123505 0
M  V30 11168 O 1104.91 -4.1472 1.41205 0
M  V30 11169 C 1106.41 -4.41743 -0.371178 0
M  V30 11170 H 1103.63 -0.663746 0.0983958 0
M  V30 11171 H 1106.18 -1.82771 0.917338 0
M  V30 11172 H 1104.33 -3.83565 -0.543769 0
M  V30 11173 H 1104.75 -5.0856 1.28325 0
M  V30 11174 H 1106.22 -5.50731 -0.374128 0
M  V30 11175 H 1106.7 -4.16092 -1.40585 0
M  V30 11176 H 1107.3 -4.24478 0.264244 0
M  V30 11177 N 1105.62 -0.414636 -1.52048 0
M  V30 11178 C 1106.87 0.159034 -2.01473 0
M  V30 11179 C 1107.19 1.45176 -1.30188 0
M  V30 11180 O 1106.46 1.91134 -0.429469 0
M  V30 11181 H 1105.04 0.0617604 -0.744443 0
M  V30 11182 H 1107.7 -0.552141 -1.86916 0
M  V30 11183 H 1106.8 0.351217 -3.10118 0
M  V30 11184 N 1107.1 1.56929 -0.145233 0
M  V30 11185 C 1108.03 2.19685 0.791263 0
M  V30 11186 C 1109.01 1.14455 1.25833 0
M  V30 11187 O 1110.19 1.42791 1.31622 0
M  V30 11188 C 1107.32 2.81705 2.03124 0
M  V30 11189 C 1106.28 3.92746 1.70101 0
M  V30 11190 C 1105.6 4.41694 3.01347 0
M  V30 11191 C 1106.9 5.13606 0.949025 0
M  V30 11192 H 1108.6 2.98196 0.26825 0
M  V30 11193 H 1106.14 1.43434 0.127584 0
M  V30 11194 H 1108.1 3.24273 2.69119 0
M  V30 11195 H 1106.82 2.00523 2.57795 0
M  V30 11196 H 1105.48 3.50794 1.06486 0
M  V30 11197 H 1105.13 3.57336 3.54006 0
M  V30 11198 H 1104.83 5.1659 2.80016 0
M  V30 11199 H 1106.35 4.86931 3.68416 0
M  V30 11200 H 1107.76 5.53029 1.51102 0
M  V30 11201 H 1106.16 5.94252 0.835711 0
M  V30 11202 H 1107.23 4.84863 -0.0595631 0
M  V30 11203 N 1108.58 -0.128553 1.57075 0
M  V30 11204 C 1109.99 -0.481794 1.52154 0
M  V30 11205 C 1110.19 -1.82381 0.856694 0
M  V30 11206 O 1109.25 -2.48725 0.434989 0
M  V30 11207 C 1110.56 -0.475091 2.96923 0
M  V30 11208 C 1112.11 -0.559315 3.07962 0
M  V30 11209 C 1112.58 -0.583095 4.54273 0
M  V30 11210 N 1114.07 -0.644803 4.5869 0
M  V30 11211 C 1114.81 -0.684493 5.693 0
M  V30 11212 N 1114.31 -0.682407 6.89431 0
M  V30 11213 N 1116.1 -0.726777 5.57382 0
M  V30 11214 H 1108.25 0.750894 1.98684 0
M  V30 11215 H 1110.51 0.27593 0.906955 0
M  V30 11216 H 1110.22 0.443157 3.48897 0
M  V30 11217 H 1110.09 -1.30637 3.53856 0
M  V30 11218 H 1112.48 -1.46798 2.55997 0
M  V30 11219 H 1112.56 0.299468 2.54041 0
M  V30 11220 H 1112.2 0.32149 5.06881 0
M  V30 11221 H 1112.13 -1.45863 5.05996 0
M  V30 11222 H 1114.63 -0.652967 3.72216 0
M  V30 11223 H 1114.94 -0.715051 7.69485 0
M  V30 11224 H 1113.28 -0.649984 6.91954 0
M  V30 11225 H 1116.47 -0.725704 4.6244 0
M  V30 11226 H 1116.65 -0.754242 6.43596 0
M  V30 11227 N 1110.05 -1.5248 -0.398459 0
M  V30 11228 C 1111.3 -1.66731 -1.14215 0
M  V30 11229 C 1111.62 -0.404957 -1.90749 0
M  V30 11230 O 1110.89 0.580434 -1.87104 0
M  V30 11231 H 1109.47 -0.614577 -0.424622 0
M  V30 11232 H 1112.13 -1.89561 -0.453059 0
M  V30 11233 H 1111.23 -2.51336 -1.85031 0
M  V30 11234 N 1111.53 0.65634 -1.43283 0
M  V30 11235 C 1112.78 1.41212 -1.44021 0
M  V30 11236 C 1113.09 1.95485 -0.0669783 0
M  V30 11237 O 1114.3 2.71457 0.0481909 0
M  V30 11238 C 1112.76 2.55541 -2.5343 0
M  V30 11239 C 1112.36 2.07889 -3.96845 0
M  V30 11240 C 1114.11 3.3293 -2.63359 0
M  V30 11241 C 1112.01 3.19411 -4.97726 0
M  V30 11242 H 1110.94 0.530566 -0.535739 0
M  V30 11243 H 1113.6 0.708743 -1.6926 0
M  V30 11244 H 1111.98 3.28335 -2.21387 0
M  V30 11245 H 1113.15 1.42127 -4.38334 0
M  V30 11246 H 1111.47 1.43388 -3.90933 0
M  V30 11247 H 1114.06 4.1602 -3.35903 0
M  V30 11248 H 1114.41 3.80753 -1.68324 0
M  V30 11249 H 1114.94 2.67216 -2.94687 0
M  V30 11250 H 1111.68 2.7656 -5.94302 0
M  V30 11251 H 1111.2 3.83895 -4.60853 0
M  V30 11252 H 1112.88 3.84591 -5.20287 0
M  V30 11253 N 1113.01 1.29761 0.894412 0
M  V30 11254 C 1114.42 1.16275 1.46072 0
M  V30 11255 C 1114.77 -0.240123 1.94725 0
M  V30 11256 O 1113.9 -1.13606 1.84181 0
M  V30 11257 C 1114.49 2.10471 2.65494 0
M  V30 11258 C 1113.05 2.00992 3.18244 0
M  V30 11259 C 1112.2 2.01094 1.90936 0
M  V30 11260 H 1115.15 1.42169 0.705243 0
M  V30 11261 H 1115.17 1.68003 3.41402 0
M  V30 11262 H 1114.68 3.12566 2.30053 0
M  V30 11263 H 1112.78 1.02005 3.58365 0
M  V30 11264 H 1112.9 2.88916 3.82184 0
M  V30 11265 H 1111.26 1.45764 2.08866 0
M  V30 11266 H 1112.04 3.04902 1.57764 0
M  V30 11267 N 1114.49 -1.10549 1.12324 0
M  V30 11268 C 1115.74 -1.82124 0.876083 0
M  V30 11269 C 1116.06 -1.85547 -0.599761 0
M  V30 11270 O 1115.33 -1.33269 -1.43584 0
M  V30 11271 H 1113.91 -0.674455 0.321122 0
M  V30 11272 H 1116.57 -1.33766 1.41748 0
M  V30 11273 H 1115.66 -2.85688 1.25653 0
M  V30 11274 N 1115.97 -0.914965 -1.28321 0
M  V30 11275 C 1117.19 -0.564023 -1.99583 0
M  V30 11276 C 1117.62 0.847821 -1.6791 0
M  V30 11277 O 1116.97 1.56682 -0.912171 0
M  V30 11278 C 1117.02 -0.781368 -3.52033 0
M  V30 11279 O 1116.13 0.159072 -4.12093 0
M  V30 11280 H 1115.47 -0.218565 -0.626997 0
M  V30 11281 H 1118 -1.23074 -1.63444 0
M  V30 11282 H 1118.01 -0.691946 -4.0209 0
M  V30 11283 H 1116.68 -1.81059 -3.7442 0
M  V30 11284 H 1115.26 0.0208145 -3.72894 0
M  V30 11285 N 1117.44 1.42219 -0.679077 0
M  V30 11286 C 1118.35 2.346 -0.00345919 0
M  V30 11287 C 1119.37 1.55327 0.784181 0
M  V30 11288 O 1120.55 1.87878 0.725524 0
M  V30 11289 C 1117.61 3.33905 0.933194 0
M  V30 11290 C 1116.67 4.29073 0.139607 0
M  V30 11291 C 1115.9 5.23634 1.03165 0
M  V30 11292 O 1116.13 5.23234 2.27119 0
M  V30 11293 O 1115.06 5.99901 0.490159 0
M  V30 11294 H 1118.89 2.9392 -0.764525 0
M  V30 11295 H 1116.47 1.42794 -0.439329 0
M  V30 11296 H 1118.35 3.949 1.47077 0
M  V30 11297 H 1117.03 2.77052 1.67404 0
M  V30 11298 H 1115.94 3.71478 -0.442177 0
M  V30 11299 H 1117.27 4.88979 -0.562214 0
M  V30 11300 N 1118.92 0.422693 1.51826 0
M  V30 11301 C 1120.15 -0.15017 2.06856 0
M  V30 11302 C 1120.57 -1.36946 1.28948 0
M  V30 11303 O 1119.93 -1.78393 0.32338 0
M  V30 11304 C 1119.98 -0.465563 3.57582 0
M  V30 11305 O 1119.08 -1.55442 3.81984 0
M  V30 11306 H 1118.42 -0.00827931 0.663948 0
M  V30 11307 H 1120.95 0.599806 1.95611 0
M  V30 11308 H 1120.96 -0.720279 4.01592 0
M  V30 11309 H 1119.64 0.425679 4.13716 0
M  V30 11310 H 1118.21 -1.29081 3.49846 0
M  V30 11311 N 1120.4 -1.5685 0.153553 0
M  V30 11312 C 1121.65 -1.95946 -0.494936 0
M  V30 11313 C 1121.97 -1.03975 -1.64967 0
M  V30 11314 O 1121.24 -0.102572 -1.95631 0
M  V30 11315 H 1119.82 -0.723516 -0.185833 0
M  V30 11316 H 1122.48 -1.93531 0.230585 0
M  V30 11317 H 1121.58 -2.99823 -0.866743 0
M  V30 11318 N 1121.88 0.120221 -1.57141 0
M  V30 11319 C 1123.12 0.829449 -1.85062 0
M  V30 11320 C 1123.46 1.79585 -0.739116 0
M  V30 11321 O 1122.73 1.92819 0.255147 0
M  V30 11322 C 1123.01 1.58042 -3.23566 0
M  V30 11323 C 1122.87 0.633706 -4.45314 0
M  V30 11324 C 1124.19 2.53688 -3.59625 0
M  V30 11325 H 1121.31 0.300086 -0.67314 0
M  V30 11326 H 1123.95 0.0937393 -1.89769 0
M  V30 11327 H 1122.1 2.20758 -3.19684 0
M  V30 11328 H 1123.77 0.0154836 -4.61297 0
M  V30 11329 H 1122.01 -0.054846 -4.33765 0
M  V30 11330 H 1122.68 1.19577 -5.38893 0
M  V30 11331 H 1125.16 2.01078 -3.6429 0
M  V30 11332 H 1124.04 3.03265 -4.57516 0
M  V30 11333 H 1124.3 3.36296 -2.8698 0
M  V30 11334 N 1123.36 1.52689 0.390367 0
M  V30 11335 C 1124.6 1.67666 1.13553 0
M  V30 11336 C 1124.93 0.415903 1.90001 0
M  V30 11337 O 1124.19 -0.601664 1.86222 0
M  V30 11338 C 1124.49 2.86177 2.14096 0
M  V30 11339 C 1124.15 4.23671 1.54316 0
M  V30 11340 C 1122.81 4.61066 1.37739 0
M  V30 11341 C 1125.17 5.09278 1.1084 0
M  V30 11342 C 1122.49 5.81727 0.76231 0
M  V30 11343 C 1124.85 6.30562 0.507433 0
M  V30 11344 C 1123.51 6.66689 0.328945 0
M  V30 11345 H 1122.78 0.613533 0.415521 0
M  V30 11346 H 1125.43 1.8683 0.420339 0
M  V30 11347 H 1123.73 2.61424 2.9183 0
M  V30 11348 H 1125.43 2.9496 2.7166 0
M  V30 11349 H 1122.02 3.94214 1.68207 0
M  V30 11350 H 1126.2 4.80957 1.2245 0
M  V30 11351 H 1121.46 6.08327 0.612208 0
M  V30 11352 H 1125.63 6.96211 0.162248 0
M  V30 11353 H 1123.26 7.60052 -0.149748 0
M  V30 11354 N 1124.83 -0.648732 1.43629 0
M  V30 11355 C 1126.11 -1.4062 1.35961 0
M  V30 11356 C 1126.49 -2.11098 0.00961023 0
M  V30 11357 O 1125.84 -2.05107 -1.00714 0
M  V30 11358 C 1126.05 -2.38719 2.54586 0
M  V30 11359 C 1127.4 -3.02584 2.97873 0
M  V30 11360 O 1128.42 -2.49046 2.54665 0
M  V30 11361 O 1127.28 -3.99662 3.72736 0
M  V30 11362 H 1124.37 -0.628483 0.53753 0
M  V30 11363 H 1126.92 -0.675263 1.55687 0
M  V30 11364 H 1125.69 -1.85619 3.44472 0
M  V30 11365 H 1125.32 -3.19257 2.36983 0
M  V30 11366 N 1126.31 -1.30234 -0.887518 0
M  V30 11367 C 1127.54 -1.21829 -1.67229 0
M  V30 11368 C 1127.96 0.219251 -1.87523 0
M  V30 11369 O 1127.31 1.14526 -1.42091 0
M  V30 11370 C 1127.36 -1.94044 -3.05007 0
M  V30 11371 O 1127.08 -3.32185 -2.85631 0
M  V30 11372 C 1128.59 -1.92265 -3.99436 0
M  V30 11373 H 1125.81 -0.421716 -0.521916 0
M  V30 11374 H 1128.35 -1.71816 -1.10903 0
M  V30 11375 H 1126.5 -1.47861 -3.58072 0
M  V30 11376 H 1126.92 -3.68724 -3.73018 0
M  V30 11377 H 1128.39 -2.47336 -4.93486 0
M  V30 11378 H 1128.87 -0.900984 -4.29859 0
M  V30 11379 H 1129.48 -2.38247 -3.52305 0
M  V30 11380 N 1127.79 1.09952 -1.12909 0
M  V30 11381 C 1128.75 2.14615 -0.804548 0
M  V30 11382 C 1129.75 1.5975 0.18345 0
M  V30 11383 O 1130.94 1.74147 -0.0429623 0
M  V30 11384 C 1128.08 3.40333 -0.196471 0
M  V30 11385 H 1129.27 2.44835 -1.73193 0
M  V30 11386 H 1126.82 1.25399 -0.932997 0
M  V30 11387 H 1127.56 3.15735 0.740388 0
M  V30 11388 H 1127.34 3.81444 -0.907886 0
M  V30 11389 H 1128.83 4.17598 0.0139264 0
M  V30 11390 N 1129.27 0.921757 1.27833 0
M  V30 11391 C 1130.18 0.421668 2.30779 0
M  V30 11392 C 1131.19 -0.494686 1.6682 0
M  V30 11393 O 1132.37 -0.378935 1.97803 0
M  V30 11394 C 1129.44 -0.322928 3.45193 0
M  V30 11395 C 1128.5 0.627618 4.24687 0
M  V30 11396 C 1127.73 -0.0815385 5.33638 0
M  V30 11397 O 1127.95 -1.30193 5.55343 0
M  V30 11398 O 1126.89 0.58725 5.99028 0
M  V30 11399 H 1130.71 1.2763 2.7558 0
M  V30 11400 H 1128.3 0.686877 1.32674 0
M  V30 11401 H 1130.18 -0.743145 4.14796 0
M  V30 11402 H 1128.85 -1.15326 3.02459 0
M  V30 11403 H 1127.76 1.09739 3.57642 0
M  V30 11404 H 1129.09 1.425 4.71121 0
M  V30 11405 N 1130.75 -1.41857 0.686609 0
M  V30 11406 C 1131.97 -2.06219 0.221037 0
M  V30 11407 C 1132.4 -1.51298 -1.11762 0
M  V30 11408 O 1131.75 -0.636253 -1.69769 0
M  V30 11409 C 1131.8 -3.60153 0.179425 0
M  V30 11410 O 1130.91 -4.03577 -0.848481 0
M  V30 11411 H 1130.25 -0.654787 0.110228 0
M  V30 11412 H 1132.78 -1.81783 0.938948 0
M  V30 11413 H 1132.79 -4.07999 0.00725332 0
M  V30 11414 H 1131.46 -3.99498 1.15647 0
M  V30 11415 H 1130.04 -3.67255 -0.646393 0
M  V30 11416 N 1132.22 -0.430739 -1.51599 0
M  V30 11417 C 1133.64 0.0339139 -1.86669 0
M  V30 11418 C 1133.99 1.42533 -1.34829 0
M  V30 11419 O 1133.11 2.04889 -0.696376 0
M  V30 11420 C 1133.71 0.0683174 -3.38731 0
M  V30 11421 C 1132.27 0.477363 -3.73361 0
M  V30 11422 C 1131.41 -0.334258 -2.75278 0
M  V30 11423 H 1134.36 -0.646875 -1.44918 0
M  V30 11424 H 1134.38 0.879179 -3.70204 0
M  V30 11425 H 1133.9 -0.944501 -3.76432 0
M  V30 11426 H 1132 1.49603 -3.41247 0
M  V30 11427 H 1132.11 0.206744 -4.78654 0
M  V30 11428 H 1130.47 0.206503 -2.53861 0
M  V30 11429 H 1131.26 -1.34583 -3.1582 0
M  V30 11430 N 1133.7 1.56767 -0.161869 0
M  V30 11431 C 1134.93 2.00964 0.492027 0
M  V30 11432 C 1135.35 1.04206 1.57437 0
M  V30 11433 O 1134.7 0.0413998 1.82453 0
M  V30 11434 C 1134.75 3.4502 1.07904 0
M  V30 11435 O 1134.47 4.38082 0.0399085 0
M  V30 11436 C 1135.98 4.04572 1.81209 0
M  V30 11437 H 1133.2 0.658911 0.126797 0
M  V30 11438 H 1135.74 2.0283 -0.260824 0
M  V30 11439 H 1133.89 3.43959 1.78243 0
M  V30 11440 H 1134.31 5.22372 0.471985 0
M  V30 11441 H 1135.78 5.07321 2.17554 0
M  V30 11442 H 1136.26 3.46126 2.70359 0
M  V30 11443 H 1136.87 4.09307 1.15534 0
M  V30 11444 N 1135.18 -0.111886 1.57202 0
M  V30 11445 C 1136.41 -0.836317 1.89791 0
M  V30 11446 C 1136.83 -1.72304 0.754513 0
M  V30 11447 O 1136.19 -1.78889 -0.294672 0
M  V30 11448 C 1136.24 -1.63971 3.21164 0
M  V30 11449 O 1135.34 -2.74726 3.0757 0
M  V30 11450 H 1134.68 -0.230833 0.622585 0
M  V30 11451 H 1137.21 -0.0921478 2.04392 0
M  V30 11452 H 1137.22 -2.02746 3.54059 0
M  V30 11453 H 1135.9 -0.98882 4.03974 0
M  V30 11454 H 1134.47 -2.39101 2.86156 0
M  V30 11455 N 1136.66 -1.52894 -0.382264 0
M  V30 11456 C 1137.91 -1.67933 -1.1244 0
M  V30 11457 C 1138.23 -0.425166 -1.90309 0
M  V30 11458 O 1137.5 0.560557 -1.87709 0
M  V30 11459 H 1136.08 -0.619047 -0.418079 0
M  V30 11460 H 1138.74 -1.90031 -0.432928 0
M  V30 11461 H 1137.84 -2.53285 -1.82355 0
M  V30 11462 N 1138.14 0.641106 -1.43971 0
M  V30 11463 C 1139.07 1.76489 -1.52885 0
M  V30 11464 C 1140.05 1.65742 -0.38258 0
M  V30 11465 O 1141.23 1.84653 -0.601397 0
M  V30 11466 C 1138.36 3.14977 -1.4631 0
M  V30 11467 C 1137.32 3.40502 -2.59311 0
M  V30 11468 C 1136.64 4.78916 -2.37789 0
M  V30 11469 C 1137.94 3.34048 -4.01509 0
M  V30 11470 H 1139.64 1.69286 -2.46946 0
M  V30 11471 H 1137.18 0.813015 -1.18853 0
M  V30 11472 H 1139.14 3.9336 -1.51149 0
M  V30 11473 H 1137.86 3.2294 -0.487599 0
M  V30 11474 H 1136.52 2.64495 -2.53846 0
M  V30 11475 H 1136.17 4.8357 -1.38454 0
M  V30 11476 H 1135.87 4.96954 -3.13545 0
M  V30 11477 H 1137.39 5.59541 -2.4443 0
M  V30 11478 H 1138.81 4.0235 -4.08396 0
M  V30 11479 H 1137.2 3.63622 -4.77388 0
M  V30 11480 H 1138.27 2.32022 -4.25786 0
M  V30 11481 N 1139.62 1.30703 0.880598 0
M  V30 11482 C 1140.55 1.1327 1.99255 0
M  V30 11483 C 1141.56 0.0747186 1.62628 0
M  V30 11484 O 1142.75 0.321169 1.75587 0
M  V30 11485 C 1139.85 0.706179 3.31461 0
M  V30 11486 C 1139.02 1.84687 3.96497 0
M  V30 11487 C 1138.08 1.40817 5.07008 0
M  V30 11488 O 1137.11 2.1161 5.28403 0
M  V30 11489 N 1138.31 0.289619 5.79777 0
M  V30 11490 H 1141.07 2.09043 2.14759 0
M  V30 11491 H 1138.64 1.22896 1.05395 0
M  V30 11492 H 1140.63 0.395617 4.02762 0
M  V30 11493 H 1139.2 -0.159631 3.12192 0
M  V30 11494 H 1138.42 2.32531 3.18312 0
M  V30 11495 H 1139.71 2.61117 4.36687 0
M  V30 11496 H 1139.1 -0.300177 5.64903 0
M  V30 11497 H 1137.66 0.0385346 6.51789 0
M  V30 11498 N 1141.09 -1.09351 1.1349 0
M  V30 11499 C 1142.06 -2.14185 0.815919 0
M  V30 11500 C 1143.06 -1.59845 -0.174976 0
M  V30 11501 O 1144.25 -1.74122 0.0521971 0
M  V30 11502 C 1141.38 -3.40224 0.214517 0
M  V30 11503 H 1142.57 -2.43913 1.74489 0
M  V30 11504 H 1140.12 -1.24902 0.939634 0
M  V30 11505 H 1140.86 -3.16123 -0.723634 0
M  V30 11506 H 1140.64 -3.80958 0.928102 0
M  V30 11507 H 1142.13 -4.17599 0.00821999 0
M  V30 11508 N 1142.57 -0.928524 -1.27343 0
M  V30 11509 C 1143.8 -0.585734 -1.98436 0
M  V30 11510 C 1144.21 0.83644 -1.69261 0
M  V30 11511 O 1143.57 1.55603 -0.953626 0
M  V30 11512 C 1143.62 -0.803092 -3.52467 0
M  V30 11513 O 1143.34 -2.16932 -3.80621 0
M  V30 11514 C 1144.84 -0.469127 -4.40811 0
M  V30 11515 H 1142.06 -0.221887 -0.633251 0
M  V30 11516 H 1144.61 -1.24577 -1.62175 0
M  V30 11517 H 1142.76 -0.189846 -3.86935 0
M  V30 11518 H 1143.18 -2.21992 -4.75205 0
M  V30 11519 H 1144.65 -0.671906 -5.47895 0
M  V30 11520 H 1145.13 0.595365 -4.35146 0
M  V30 11521 H 1145.73 -1.06055 -4.11865 0
M  V30 11522 N 1144.05 1.41491 -0.694123 0
M  V30 11523 C 1145.3 2.0155 -0.224809 0
M  V30 11524 C 1145.63 1.54844 1.17205 0
M  V30 11525 O 1144.9 0.75899 1.7908 0
M  V30 11526 C 1145.19 3.59003 -0.280884 0
M  V30 11527 C 1145.04 4.15839 -1.71458 0
M  V30 11528 C 1146.36 4.38624 0.360122 0
M  V30 11529 H 1143.48 0.732293 -0.0831632 0
M  V30 11530 H 1146.12 1.68258 -0.882569 0
M  V30 11531 H 1144.27 3.87496 0.279164 0
M  V30 11532 H 1145.94 3.98227 -2.32837 0
M  V30 11533 H 1144.18 3.70936 -2.2492 0
M  V30 11534 H 1144.86 5.24997 -1.70536 0
M  V30 11535 H 1147.33 4.15936 -0.11683 0
M  V30 11536 H 1146.21 5.48132 0.290337 0
M  V30 11537 H 1146.47 4.1797 1.44062 0
M  V30 11538 N 1145.53 0.438773 1.51369 0
M  V30 11539 C 1146.8 -0.18722 1.94702 0
M  V30 11540 C 1147.18 -1.59962 1.37752 0
M  V30 11541 O 1146.53 -2.214 0.565171 0
M  V30 11542 C 1146.74 -0.163491 3.48617 0
M  V30 11543 C 1148.09 -0.368355 4.22999 0
M  V30 11544 O 1149.11 -0.241541 3.5538 0
M  V30 11545 O 1147.97 -0.620916 5.42961 0
M  V30 11546 H 1145.07 -0.129194 0.816846 0
M  V30 11547 H 1147.61 0.496855 1.62263 0
M  V30 11548 H 1146.39 0.823882 3.82528 0
M  V30 11549 H 1146.01 -0.890414 3.87501 0
M  V30 11550 N 1147.01 -1.56678 0.170181 0
M  V30 11551 C 1147.92 -2.21496 -0.773079 0
M  V30 11552 C 1148.93 -1.20626 -1.25401 0
M  V30 11553 O 1150.11 -1.53283 -1.30638 0
M  V30 11554 C 1147.17 -2.8421 -1.98558 0
M  V30 11555 C 1146.23 -4.00278 -1.55164 0
M  V30 11556 C 1145.47 -4.59992 -2.70634 0
M  V30 11557 O 1145.69 -4.18595 -3.87472 0
M  V30 11558 O 1144.62 -5.49881 -2.44775 0
M  V30 11559 H 1148.45 -3.02659 -0.251195 0
M  V30 11560 H 1146.03 -1.49288 -0.0579621 0
M  V30 11561 H 1147.92 -3.2398 -2.69472 0
M  V30 11562 H 1146.59 -2.06045 -2.49654 0
M  V30 11563 H 1145.5 -3.6518 -0.812038 0
M  V30 11564 H 1146.83 -4.80033 -1.0876 0
M  V30 11565 N 1148.48 0.103547 -1.57259 0
M  V30 11566 C 1149.73 0.809774 -1.85931 0
M  V30 11567 C 1150.06 1.78791 -0.758122 0
M  V30 11568 O 1149.34 1.93079 0.234682 0
M  V30 11569 C 1149.62 1.54601 -3.25224 0
M  V30 11570 C 1149.47 0.586439 -4.45961 0
M  V30 11571 C 1150.79 2.4986 -3.62296 0
M  V30 11572 H 1147.91 0.29293 -0.676285 0
M  V30 11573 H 1150.55 0.0736065 -1.89857 0
M  V30 11574 H 1148.7 2.17355 -3.22008 0
M  V30 11575 H 1150.38 -0.0334441 -4.61288 0
M  V30 11576 H 1148.62 -0.10085 -4.33683 0
M  V30 11577 H 1149.29 1.13855 -5.40131 0
M  V30 11578 H 1151.77 1.97203 -3.66402 0
M  V30 11579 H 1150.64 2.98396 -4.60707 0
M  V30 11580 H 1150.9 3.33233 -2.90531 0
M  V30 11581 N 1149.96 1.53094 0.37415 0
M  V30 11582 C 1150.89 1.75199 1.47776 0
M  V30 11583 C 1151.91 0.632627 1.50006 0
M  V30 11584 O 1153.1 0.908688 1.5364 0
M  V30 11585 C 1150.2 1.80909 2.86575 0
M  V30 11586 C 1149.37 3.10432 3.08141 0
M  V30 11587 C 1148.43 3.07495 4.27005 0
M  V30 11588 O 1147.45 3.81319 4.22592 0
M  V30 11589 N 1148.66 2.27715 5.33972 0
M  V30 11590 H 1151.42 2.70423 1.29196 0
M  V30 11591 H 1148.98 1.51766 0.563802 0
M  V30 11592 H 1150.97 1.76432 3.64217 0
M  V30 11593 H 1149.54 0.930074 2.98443 0
M  V30 11594 H 1148.76 3.2828 2.18233 0
M  V30 11595 H 1150.05 3.96047 3.19413 0
M  V30 11596 H 1149.45 1.67231 5.40417 0
M  V30 11597 H 1148.01 2.29065 6.10223 0
M  V30 11598 N 1151.44 -0.633461 1.44309 0
M  V30 11599 C 1152.72 -1.3917 1.37444 0
M  V30 11600 C 1153.1 -2.11076 0.0319994 0
M  V30 11601 O 1152.44 -2.06164 -0.98533 0
M  V30 11602 C 1152.65 -2.36005 2.57104 0
M  V30 11603 C 1154 -2.99407 3.01065 0
M  V30 11604 O 1155.03 -2.46331 2.57292 0
M  V30 11605 O 1153.89 -3.95686 3.76954 0
M  V30 11606 H 1150.98 -0.622746 0.544166 0
M  V30 11607 H 1153.53 -0.658712 1.56394 0
M  V30 11608 H 1152.3 -1.81955 3.46422 0
M  V30 11609 H 1151.92 -3.16725 2.40356 0
M  V30 11610 N 1152.92 -1.31168 -0.873655 0
M  V30 11611 C 1154.33 -1.18584 -1.44203 0
M  V30 11612 C 1154.68 0.209114 -1.95082 0
M  V30 11613 O 1153.81 1.10662 -1.85965 0
M  V30 11614 C 1154.4 -2.14668 -2.62112 0
M  V30 11615 C 1152.96 -2.06029 -3.15006 0
M  V30 11616 C 1152.11 -2.04106 -1.87712 0
M  V30 11617 H 1155.06 -1.43273 -0.682536 0
M  V30 11618 H 1155.08 -1.73413 -3.38686 0
M  V30 11619 H 1154.59 -3.16186 -2.25051 0
M  V30 11620 H 1152.69 -1.07693 -3.56697 0
M  V30 11621 H 1152.8 -2.9496 -3.77539 0
M  V30 11622 H 1151.17 -1.49069 -2.0652 0
M  V30 11623 H 1151.95 -3.07373 -1.52894 0
M  V30 11624 N 1154.4 1.08748 -1.14068 0
M  V30 11625 C 1155.64 1.81504 -0.918035 0
M  V30 11626 C 1156 1.84381 0.549671 0
M  V30 11627 O 1155.29 1.30612 1.40183 0
M  V30 11628 C 1155.48 3.26734 -1.44843 0
M  V30 11629 C 1155.31 3.38006 -2.96617 0
M  V30 11630 C 1154.08 3.49401 -3.6503 0
M  V30 11631 C 1156.28 3.29952 -3.94507 0
M  V30 11632 N 1154.26 3.49428 -5.04751 0
M  V30 11633 C 1155.63 3.3693 -5.20459 0
M  V30 11634 C 1157.69 3.13666 -3.86676 0
M  V30 11635 C 1156.39 3.29299 -6.39496 0
M  V30 11636 C 1158.42 3.07363 -5.05254 0
M  V30 11637 C 1157.78 3.1494 -6.30073 0
M  V30 11638 H 1153.88 0.67814 -0.389423 0
M  V30 11639 H 1156.46 1.29916 -1.45017 0
M  V30 11640 H 1154.63 3.76776 -0.943112 0
M  V30 11641 H 1156.37 3.87537 -1.16606 0
M  V30 11642 H 1153.12 3.53145 -3.15572 0
M  V30 11643 H 1153.55 3.53007 -5.77681 0
M  V30 11644 H 1158.19 3.06673 -2.91053 0
M  V30 11645 H 1155.91 3.35054 -7.35367 0
M  V30 11646 H 1159.49 2.95887 -5.00941 0
M  V30 11647 H 1158.37 3.10088 -7.20288 0
M  V30 11648 N 1155.87 0.935264 1.26849 0
M  V30 11649 C 1157.29 0.623198 1.75992 0
M  V30 11650 C 1157.64 -0.861647 1.76267 0
M  V30 11651 O 1156.76 -1.6743 1.37099 0
M  V30 11652 C 1157.36 1.12451 3.19594 0
M  V30 11653 C 1155.92 0.862974 3.66374 0
M  V30 11654 C 1155.06 1.27886 2.4605 0
M  V30 11655 H 1158.01 1.11422 1.13008 0
M  V30 11656 H 1158.03 0.475626 3.77516 0
M  V30 11657 H 1157.55 2.20522 3.19361 0
M  V30 11658 H 1155.65 -0.203606 3.72043 0
M  V30 11659 H 1155.76 1.48582 4.55478 0
M  V30 11660 H 1154.12 0.697335 2.44968 0
M  V30 11661 H 1154.91 2.36837 2.48522 0
M  V30 11662 N 1157.35 -1.41121 0.701616 0
M  V30 11663 C 1158.58 -2.05973 0.242896 0
M  V30 11664 C 1159 -1.52474 -1.10151 0
M  V30 11665 O 1158.36 -0.654224 -1.69085 0
M  V30 11666 C 1158.41 -3.59943 0.217614 0
M  V30 11667 O 1157.51 -4.04454 -0.805629 0
M  V30 11668 H 1156.85 -0.653581 0.117166 0
M  V30 11669 H 1159.38 -1.80777 0.958175 0
M  V30 11670 H 1159.39 -4.07969 0.0505267 0
M  V30 11671 H 1158.07 -3.98249 1.19877 0
M  V30 11672 H 1156.65 -3.6792 -0.607404 0
M  V30 11673 N 1158.83 -0.446794 -1.51134 0
M  V30 11674 C 1160.08 0.116666 -2.02464 0
M  V30 11675 C 1160.41 1.41532 -1.32975 0
M  V30 11676 O 1159.68 1.89278 -0.447651 0
M  V30 11677 C 1159.97 0.325659 -3.58624 0
M  V30 11678 C 1159.82 -0.992307 -4.38718 0
M  V30 11679 C 1161.14 1.09121 -4.26357 0
M  V30 11680 H 1158.26 0.0409262 -0.735863 0
M  V30 11681 H 1160.9 -0.587641 -1.80684 0
M  V30 11682 H 1159.05 0.925585 -3.77313 0
M  V30 11683 H 1160.72 -1.62694 -4.31658 0
M  V30 11684 H 1158.97 -1.5947 -4.03425 0
M  V30 11685 H 1159.64 -0.800005 -5.46172 0
M  V30 11686 H 1162.11 0.582944 -4.11996 0
M  V30 11687 H 1160.99 1.20621 -5.35483 0
M  V30 11688 H 1161.25 2.12171 -3.87861 0
M  V30 11689 N 1160.31 1.56586 -0.178487 0
M  V30 11690 C 1161.54 2.01183 0.470002 0
M  V30 11691 C 1161.95 1.05781 1.56866 0
M  V30 11692 O 1161.29 0.0519678 1.83626 0
M  V30 11693 C 1161.35 3.42199 1.10183 0
M  V30 11694 C 1161.02 4.56773 0.143945 0
M  V30 11695 C 1162.01 5.1594 -0.64043 0
M  V30 11696 C 1159.7 5.02286 0.0376874 0
M  V30 11697 C 1161.69 6.19055 -1.51819 0
M  V30 11698 C 1159.38 6.05248 -0.843652 0
M  V30 11699 C 1160.38 6.63505 -1.62017 0
M  V30 11700 O 1160.06 7.6447 -2.48677 0
M  V30 11701 H 1159.8 0.664527 0.124018 0
M  V30 11702 H 1162.35 2.0349 -0.279495 0
M  V30 11703 H 1160.58 3.36827 1.89959 0
M  V30 11704 H 1162.27 3.70705 1.65326 0
M  V30 11705 H 1163.04 4.81656 -0.56855 0
M  V30 11706 H 1158.91 4.56649 0.631893 0
M  V30 11707 H 1162.46 6.64455 -2.12475 0
M  V30 11708 H 1158.36 6.38958 -0.916708 0
M  V30 11709 H 1159.12 7.81823 -2.42272 0
M  V30 11710 N 1161.79 -0.095206 1.57312 0
M  V30 11711 C 1163.01 -0.81614 1.90667 0
M  V30 11712 C 1163.44 -1.71494 0.772746 0
M  V30 11713 O 1162.79 -1.79192 -0.275682 0
M  V30 11714 C 1162.84 -1.60555 3.22885 0
M  V30 11715 O 1161.95 -2.71448 3.10467 0
M  V30 11716 H 1161.29 -0.224217 0.624998 0
M  V30 11717 H 1163.82 -0.070464 2.04479 0
M  V30 11718 H 1163.83 -1.98979 3.5619 0
M  V30 11719 H 1162.5 -0.945918 4.05 0
M  V30 11720 H 1161.08 -2.36053 2.88675 0
M  V30 11721 N 1163.26 -1.53291 -0.366026 0
M  V30 11722 C 1164.21 -1.79697 -1.44836 0
M  V30 11723 C 1165.18 -0.641321 -1.5322 0
M  V30 11724 O 1166.37 -0.883453 -1.69115 0
M  V30 11725 C 1163.51 -1.99223 -2.81788 0
M  V30 11726 C 1162.62 -3.26938 -2.82375 0
M  V30 11727 C 1161.75 -3.36654 -4.10898 0
M  V30 11728 C 1160.79 -4.58404 -4.05626 0
M  V30 11729 N 1159.93 -4.65275 -5.25798 0
M  V30 11730 H 1164.77 -2.72053 -1.21619 0
M  V30 11731 H 1162.31 -1.34768 -0.589577 0
M  V30 11732 H 1164.27 -2.0853 -3.61346 0
M  V30 11733 H 1162.9 -1.10204 -3.03406 0
M  V30 11734 H 1161.95 -3.26587 -1.95052 0
M  V30 11735 H 1163.26 -4.16573 -2.74351 0
M  V30 11736 H 1162.41 -3.4527 -4.98872 0
M  V30 11737 H 1161.15 -2.45035 -4.21674 0
M  V30 11738 H 1160.16 -4.49888 -3.16039 0
M  V30 11739 H 1161.38 -5.51364 -3.96453 0
M  V30 11740 H 1159.33 -3.76557 -5.3716 0
M  V30 11741 H 1159.25 -5.48814 -5.19942 0
M  V30 11742 H 1160.51 -4.78175 -6.15605 0
M  V30 11743 N 1164.74 0.6258 -1.44643 0
M  V30 11744 C 1165.99 1.38251 -1.47414 0
M  V30 11745 C 1166.31 1.94689 -0.110043 0
M  V30 11746 O 1165.58 1.76095 0.858333 0
M  V30 11747 H 1164.16 0.513179 -0.542823 0
M  V30 11748 H 1166.82 0.736179 -1.80462 0
M  V30 11749 H 1165.92 2.21115 -2.2026 0
M  V30 11750 N 1166.22 1.31629 0.866686 0
M  V30 11751 C 1167.15 1.22151 1.99001 0
M  V30 11752 C 1168.13 0.107972 1.69757 0
M  V30 11753 O 1169.32 0.293125 1.91975 0
M  V30 11754 C 1166.45 0.93144 3.34577 0
M  V30 11755 C 1165.4 2.0049 3.78137 0
M  V30 11756 C 1164.73 1.56747 5.11209 0
M  V30 11757 C 1166.03 3.41844 3.94892 0
M  V30 11758 H 1167.72 2.16132 2.0719 0
M  V30 11759 H 1165.27 1.04051 0.995463 0
M  V30 11760 H 1167.22 0.851719 4.12703 0
M  V30 11761 H 1165.94 -0.0440289 3.2657 0
M  V30 11762 H 1164.6 2.07457 3.02253 0
M  V30 11763 H 1164.25 0.579767 4.99648 0
M  V30 11764 H 1163.95 2.28562 5.41326 0
M  V30 11765 H 1165.47 1.50188 5.91841 0
M  V30 11766 H 1166.89 3.37534 4.63405 0
M  V30 11767 H 1165.29 4.11905 4.36411 0
M  V30 11768 H 1166.36 3.82389 2.98172 0
M  V30 11769 N 1167.7 -1.08142 1.14644 0
M  V30 11770 C 1168.98 -1.77254 0.827071 0
M  V30 11771 C 1169.36 -1.99885 -0.67891 0
M  V30 11772 O 1168.7 -1.61084 -1.62062 0
M  V30 11773 C 1168.91 -3.08658 1.62884 0
M  V30 11774 C 1170.26 -3.83143 1.82993 0
M  V30 11775 O 1171.29 -3.18447 1.59593 0
M  V30 11776 O 1170.15 -4.9932 2.2213 0
M  V30 11777 H 1167.24 -0.769356 0.30335 0
M  V30 11778 H 1169.79 -1.1458 1.25178 0
M  V30 11779 H 1168.56 -2.87753 2.65168 0
M  V30 11780 H 1168.18 -3.79061 1.19994 0
M  V30 11781 N 1169.18 -0.941978 -1.26351 0
M  V30 11782 C 1170.14 -0.456768 -2.24602 0
M  V30 11783 C 1171.14 0.432574 -1.54872 0
M  V30 11784 O 1172.33 0.23164 -1.72653 0
M  V30 11785 C 1169.46 0.341583 -3.39184 0
M  V30 11786 H 1170.66 -1.32503 -2.69041 0
M  V30 11787 H 1168.21 -0.724021 -1.38519 0
M  V30 11788 H 1168.94 1.22806 -3.00149 0
M  V30 11789 H 1168.73 -0.296268 -3.90979 0
M  V30 11790 H 1170.22 0.670955 -4.12175 0
M  V30 11791 N 1170.66 1.40747 -0.709091 0
M  V30 11792 C 1171.88 2.05841 -0.253816 0
M  V30 11793 C 1172.31 1.53056 1.09341 0
M  V30 11794 O 1171.66 0.663181 1.68735 0
M  V30 11795 C 1171.71 3.59822 -0.236699 0
M  V30 11796 O 1170.82 4.04876 0.784168 0
M  V30 11797 H 1170.16 0.65295 -0.120631 0
M  V30 11798 H 1172.69 1.80266 -0.967749 0
M  V30 11799 H 1172.7 4.07936 -0.0721616 0
M  V30 11800 H 1171.37 3.97608 -1.21988 0
M  V30 11801 H 1169.95 3.68237 0.587884 0
M  V30 11802 N 1172.13 0.454803 1.50895 0
M  V30 11803 C 1173.36 -0.106259 2.07128 0
M  V30 11804 C 1173.78 -1.3418 1.31823 0
M  V30 11805 O 1173.14 -1.77667 0.361147 0
M  V30 11806 C 1173.19 -0.389609 3.58489 0
M  V30 11807 O 1172.29 -1.47305 3.85195 0
M  V30 11808 H 1171.63 0.00580588 0.663975 0
M  V30 11809 H 1174.16 0.641163 1.94294 0
M  V30 11810 H 1174.17 -0.634934 4.03029 0
M  V30 11811 H 1172.85 0.513338 4.1272 0
M  V30 11812 H 1171.43 -1.21631 3.52506 0
M  V30 11813 N 1173.61 -1.56489 0.186789 0
M  V30 11814 C 1175.02 -1.83809 -0.327265 0
M  V30 11815 C 1175.37 -1.10718 -1.61976 0
M  V30 11816 O 1174.5 -0.36525 -2.13295 0
M  V30 11817 C 1175.09 -3.33435 -0.600551 0
M  V30 11818 C 1173.65 -3.61195 -1.059 0
M  V30 11819 C 1172.8 -2.77108 -0.103131 0
M  V30 11820 H 1175.75 -1.53292 0.410747 0
M  V30 11821 H 1175.77 -3.51754 -1.45084 0
M  V30 11822 H 1175.28 -3.86605 0.340315 0
M  V30 11823 H 1173.38 -3.13451 -2.01443 0
M  V30 11824 H 1173.5 -4.69435 -0.957458 0
M  V30 11825 H 1171.86 -2.47448 -0.603449 0
M  V30 11826 H 1172.64 -3.33065 0.832031 0
M  V30 11827 N 1175.09 0.086862 -1.5736 0
M  V30 11828 C 1176.31 0.806017 -1.91097 0
M  V30 11829 C 1176.74 1.71082 -0.78183 0
M  V30 11830 O 1176.1 1.79335 0.266175 0
M  V30 11831 C 1176.15 1.5884 -3.23732 0
M  V30 11832 O 1175.25 2.69798 -3.11902 0
M  V30 11833 H 1174.59 0.220899 -0.626179 0
M  V30 11834 H 1177.12 0.059619 -2.04513 0
M  V30 11835 H 1177.13 1.97088 -3.5724 0
M  V30 11836 H 1175.81 0.924426 -4.05496 0
M  V30 11837 H 1174.38 2.34519 -2.89923 0
M  V30 11838 N 1176.57 1.53483 0.357892 0
M  V30 11839 C 1177.53 1.79782 1.42166 0
M  V30 11840 C 1178.53 0.668441 1.46248 0
M  V30 11841 O 1179.72 0.936677 1.46874 0
M  V30 11842 C 1176.85 1.92686 2.8122 0
M  V30 11843 H 1178.05 2.74794 1.20117 0
M  V30 11844 H 1175.6 1.44677 0.591468 0
M  V30 11845 H 1176.33 0.997669 3.08573 0
M  V30 11846 H 1176.12 2.74837 2.79655 0
M  V30 11847 H 1177.61 2.14599 3.58242 0
M  V30 11848 N 1178.05 -0.61812 1.44973 0
M  V30 11849 C 1179.46 -1.19994 1.43033 0
M  V30 11850 C 1179.81 -1.95607 0.152422 0
M  V30 11851 O 1178.93 -2.03114 -0.746571 0
M  V30 11852 C 1179.53 -2.18269 2.59122 0
M  V30 11853 C 1178.09 -2.7185 2.60336 0
M  V30 11854 C 1177.23 -1.4707 2.35086 0
M  V30 11855 H 1180.18 -0.408034 1.53365 0
M  V30 11856 H 1180.21 -3.01113 2.32619 0
M  V30 11857 H 1179.72 -1.63208 3.52115 0
M  V30 11858 H 1177.82 -3.30878 1.7132 0
M  V30 11859 H 1177.93 -3.17001 3.59231 0
M  V30 11860 H 1176.3 -1.75658 1.84435 0
M  V30 11861 H 1177.08 -0.938928 3.30211 0
M  V30 11862 N 1179.52 -1.32087 -0.859693 0
M  V30 11863 C 1180.45 -1.23204 -1.98351 0
M  V30 11864 C 1181.43 -0.116974 -1.69697 0
M  V30 11865 O 1182.62 -0.303301 -1.91817 0
M  V30 11866 C 1179.75 -0.949171 -3.34078 0
M  V30 11867 C 1178.7 -2.02493 -3.77069 0
M  V30 11868 C 1178.03 -1.59455 -5.1037 0
M  V30 11869 C 1179.33 -3.43934 -3.93074 0
M  V30 11870 H 1181.02 -2.17227 -2.0604 0
M  V30 11871 H 1178.57 -1.04577 -0.989931 0
M  V30 11872 H 1180.52 -0.873594 -4.12245 0
M  V30 11873 H 1179.25 0.0267095 -3.26589 0
M  V30 11874 H 1177.91 -2.09057 -3.01149 0
M  V30 11875 H 1177.55 -0.606256 -4.99333 0
M  V30 11876 H 1177.25 -2.31429 -5.40106 0
M  V30 11877 H 1178.78 -1.53325 -5.91036 0
M  V30 11878 H 1180.19 -3.39986 -4.61608 0
M  V30 11879 H 1178.59 -4.14214 -4.3422 0
M  V30 11880 H 1179.66 -3.83965 -2.9614 0
M  V30 11881 N 1181 1.07532 -1.15215 0
M  V30 11882 C 1182.25 1.79737 -0.924062 0
M  V30 11883 C 1182.57 1.87072 0.550356 0
M  V30 11884 O 1181.84 1.37029 1.4 0
M  V30 11885 H 1180.42 0.665704 -0.338891 0
M  V30 11886 H 1183.08 1.29961 -1.45245 0
M  V30 11887 H 1182.18 2.82256 -1.33184 0
M  V30 11888 N 1182.48 0.948665 1.2585 0
M  V30 11889 C 1183.71 0.616741 1.98018 0
M  V30 11890 C 1184.13 -0.803005 1.70098 0
M  V30 11891 O 1183.49 -1.54208 0.953392 0
M  V30 11892 C 1183.54 0.874429 3.49837 0
M  V30 11893 O 1182.64 -0.0497568 4.1237 0
M  V30 11894 H 1181.98 0.235112 0.620982 0
M  V30 11895 H 1184.51 1.27364 1.60124 0
M  V30 11896 H 1184.52 0.798309 4.00114 0
M  V30 11897 H 1183.2 1.90922 3.69488 0
M  V30 11898 H 1181.77 0.0780591 3.72818 0
M  V30 11899 N 1183.96 -1.40369 0.716545 0
M  V30 11900 C 1185.37 -1.83783 0.328719 0
M  V30 11901 C 1185.72 -1.5991 -1.13681 0
M  V30 11902 O 1184.85 -1.08048 -1.87496 0
M  V30 11903 C 1185.44 -3.33626 0.589848 0
M  V30 11904 C 1184 -3.7553 0.25572 0
M  V30 11905 C 1183.15 -2.63571 0.861733 0
M  V30 11906 H 1186.1 -1.29623 0.915621 0
M  V30 11907 H 1186.12 -3.80225 -0.14459 0
M  V30 11908 H 1185.63 -3.5097 1.65655 0
M  V30 11909 H 1183.73 -3.63781 -0.805883 0
M  V30 11910 H 1183.84 -4.73577 0.725388 0
M  V30 11911 H 1182.21 -2.53047 0.289706 0
M  V30 11912 H 1182.99 -2.83727 1.93272 0
M  V30 11913 N 1185.44 -0.462799 -1.50652 0
M  V30 11914 C 1186.68 0.0948568 -2.01877 0
M  V30 11915 C 1187.01 1.4096 -1.34741 0
M  V30 11916 O 1186.28 1.89671 -0.49006 0
M  V30 11917 H 1184.86 0.0380453 -0.746031 0
M  V30 11918 H 1187.52 -0.611327 -1.85064 0
M  V30 11919 H 1186.61 0.252378 -3.11078 0
M  V30 11920 N 1186.91 1.56388 -0.195085 0
M  V30 11921 C 1188.16 1.97872 0.444344 0
M  V30 11922 C 1188.49 1.0819 1.61271 0
M  V30 11923 O 1187.77 0.133904 1.94039 0
M  V30 11924 C 1188.05 3.48556 0.90449 0
M  V30 11925 C 1187.9 4.49015 -0.265693 0
M  V30 11926 C 1189.22 4.02938 1.76999 0
M  V30 11927 H 1186.34 0.719413 0.160041 0
M  V30 11928 H 1188.98 1.87835 -0.286005 0
M  V30 11929 H 1187.13 3.5724 1.52682 0
M  V30 11930 H 1188.81 4.52368 -0.903363 0
M  V30 11931 H 1187.05 4.23987 -0.917462 0
M  V30 11932 H 1187.72 5.51912 0.0987834 0
M  V30 11933 H 1190.2 3.97033 1.24514 0
M  V30 11934 H 1189.07 5.08741 2.06092 0
M  V30 11935 H 1189.33 3.48197 2.72418 0
M  V30 11936 N 1188.39 -0.0785156 1.57404 0
M  V30 11937 C 1189.64 -0.778938 1.86919 0
M  V30 11938 C 1189.97 -1.77915 0.785906 0
M  V30 11939 O 1189.22 -1.94473 -0.218811 0
M  V30 11940 C 1189.52 -1.52826 3.23078 0
M  V30 11941 C 1189.19 -0.668645 4.45915 0
M  V30 11942 C 1187.85 -0.43173 4.79259 0
M  V30 11943 C 1190.2 -0.0721327 5.2115 0
M  V30 11944 C 1187.53 0.41129 5.85257 0
M  V30 11945 C 1189.88 0.758303 6.28039 0
M  V30 11946 C 1188.55 1.00515 6.59889 0
M  V30 11947 H 1187.82 -0.285034 0.683986 0
M  V30 11948 H 1190.46 -0.039906 1.91458 0
M  V30 11949 H 1188.77 -2.33931 3.14299 0
M  V30 11950 H 1190.46 -2.07488 3.43147 0
M  V30 11951 H 1187.05 -0.863424 4.19813 0
M  V30 11952 H 1191.24 -0.242297 4.95708 0
M  V30 11953 H 1186.49 0.611354 6.08336 0
M  V30 11954 H 1190.67 1.2273 6.855 0
M  V30 11955 H 1188.3 1.66017 7.41851 0
M  V30 11956 N 1189.87 -1.5367 -0.349747 0
M  V30 11957 C 1190.8 -1.84208 -1.43492 0
M  V30 11958 C 1191.78 -0.696725 -1.55177 0
M  V30 11959 O 1192.97 -0.948061 -1.69486 0
M  V30 11960 C 1190.1 -2.04613 -2.80625 0
M  V30 11961 C 1189.05 -3.20419 -2.83753 0
M  V30 11962 C 1188.38 -3.26147 -4.23713 0
M  V30 11963 C 1189.68 -4.58666 -2.49846 0
M  V30 11964 H 1191.37 -2.75087 -1.18185 0
M  V30 11965 H 1188.92 -1.32363 -0.567101 0
M  V30 11966 H 1190.87 -2.2456 -3.56582 0
M  V30 11967 H 1189.59 -1.10459 -3.07354 0
M  V30 11968 H 1188.25 -3.00318 -2.10249 0
M  V30 11969 H 1187.9 -2.29599 -4.47541 0
M  V30 11970 H 1187.6 -4.03963 -4.26717 0
M  V30 11971 H 1189.12 -3.48296 -5.0152 0
M  V30 11972 H 1190.54 -4.78668 -3.15516 0
M  V30 11973 H 1188.94 -5.3884 -2.64144 0
M  V30 11974 H 1190.01 -4.62697 -1.4505 0
M  V30 11975 N 1191.35 0.610423 -1.45298 0
M  V30 11976 C 1192.59 1.37154 -1.49388 0
M  V30 11977 C 1192.93 1.93737 -0.134025 0
M  V30 11978 O 1192.2 1.74888 0.851138 0
M  V30 11979 C 1192.49 2.52155 -2.5708 0
M  V30 11980 C 1192.34 2.00786 -4.02498 0
M  V30 11981 C 1193.66 3.54294 -2.61082 0
M  V30 11982 H 1190.78 0.497346 -0.54389 0
M  V30 11983 H 1193.42 0.688358 -1.77092 0
M  V30 11984 H 1191.57 3.10434 -2.33587 0
M  V30 11985 H 1193.24 1.47178 -4.37191 0
M  V30 11986 H 1191.48 1.31809 -4.1329 0
M  V30 11987 H 1192.15 2.83674 -4.73533 0
M  V30 11988 H 1194.63 3.05851 -2.82125 0
M  V30 11989 H 1193.51 4.32254 -3.38301 0
M  V30 11990 H 1193.77 4.09726 -1.66063 0
M  V30 11991 N 1192.83 1.32541 0.852676 0
M  V30 11992 C 1194.24 1.20863 1.42299 0
M  V30 11993 C 1194.59 -0.178051 1.9539 0
M  V30 11994 O 1193.71 -1.07689 1.87702 0
M  V30 11995 C 1194.31 2.18811 2.58664 0
M  V30 11996 C 1192.87 2.11015 3.11689 0
M  V30 11997 C 1192.01 2.07067 1.84441 0
M  V30 11998 H 1194.97 1.44341 0.659657 0
M  V30 11999 H 1194.99 1.78779 3.35884 0
M  V30 12000 H 1194.5 3.19726 2.19993 0
M  V30 12001 H 1192.6 1.13354 3.54939 0
M  V30 12002 H 1192.71 3.00929 3.72799 0
M  V30 12003 H 1191.08 1.52335 2.04123 0
M  V30 12004 H 1191.86 3.09767 1.47984 0
M  V30 12005 N 1194.3 -1.0692 1.15784 0
M  V30 12006 C 1195.25 -2.14235 0.858616 0
M  V30 12007 C 1196.22 -1.65006 -0.190295 0
M  V30 12008 O 1197.41 -1.90715 -0.0568853 0
M  V30 12009 C 1194.55 -3.43229 0.35888 0
M  V30 12010 C 1193.66 -4.06225 1.46987 0
M  V30 12011 C 1192.79 -5.2307 0.925812 0
M  V30 12012 C 1191.83 -5.78037 2.01345 0
M  V30 12013 N 1190.97 -6.86206 1.48544 0
M  V30 12014 H 1195.81 -2.3917 1.77769 0
M  V30 12015 H 1193.35 -1.17354 0.886925 0
M  V30 12016 H 1195.31 -4.17169 0.0508198 0
M  V30 12017 H 1193.94 -3.18531 -0.523259 0
M  V30 12018 H 1192.99 -3.29895 1.89403 0
M  V30 12019 H 1194.3 -4.43081 2.29088 0
M  V30 12020 H 1193.45 -6.04011 0.570555 0
M  V30 12021 H 1192.19 -4.87644 0.0740371 0
M  V30 12022 H 1191.2 -4.95738 2.37748 0
M  V30 12023 H 1192.42 -6.15517 2.86907 0
M  V30 12024 H 1190.37 -6.52711 0.656092 0
M  V30 12025 H 1190.29 -7.2197 2.24266 0
M  V30 12026 H 1191.55 -7.70842 1.15856 0
M  V30 12027 N 1195.78 -0.955326 -1.25345 0
M  V30 12028 C 1197.03 -0.611388 -1.93365 0
M  V30 12029 C 1197.36 0.84953 -1.74633 0
M  V30 12030 O 1196.64 1.60962 -1.09185 0
M  V30 12031 C 1196.92 -0.971732 -3.46741 0
M  V30 12032 C 1196.77 -2.48843 -3.74696 0
M  V30 12033 C 1198.09 -0.497295 -4.37281 0
M  V30 12034 H 1195.21 -0.223591 -0.702265 0
M  V30 12035 H 1197.85 -1.1921 -1.47949 0
M  V30 12036 H 1196 -0.477568 -3.85554 0
M  V30 12037 H 1197.67 -3.05641 -3.45516 0
M  V30 12038 H 1195.92 -2.92582 -3.20278 0
M  V30 12039 H 1196.59 -2.69107 -4.8196 0
M  V30 12040 H 1199.06 -0.921196 -4.05775 0
M  V30 12041 H 1197.94 -0.778113 -5.43357 0
M  V30 12042 H 1198.2 0.602743 -4.37972 0
M  V30 12043 N 1197.26 1.39987 -0.723979 0
M  V30 12044 C 1198.49 2.05037 -0.27702 0
M  V30 12045 C 1198.9 1.54565 1.08421 0
M  V30 12046 O 1198.26 0.705795 1.683 0
M  V30 12047 C 1198.31 3.60582 -0.25751 0
M  V30 12048 O 1198.03 4.09194 -1.565 0
M  V30 12049 C 1199.53 4.42817 0.206972 0
M  V30 12050 H 1196.75 0.659637 -0.122963 0
M  V30 12051 H 1199.3 1.7924 -0.98454 0
M  V30 12052 H 1197.45 3.85319 0.401037 0
M  V30 12053 H 1197.87 5.03447 -1.47112 0
M  V30 12054 H 1199.34 5.5174 0.16947 0
M  V30 12055 H 1199.82 4.21023 1.25045 0
M  V30 12056 H 1200.42 4.23205 -0.421604 0
M  V30 12057 N 1198.74 0.470782 1.50404 0
M  V30 12058 C 1200.15 0.0155901 1.86693 0
M  V30 12059 C 1200.5 -1.38908 1.38561 0
M  V30 12060 O 1199.63 -2.02971 0.750454 0
M  V30 12061 C 1200.22 0.0215152 3.38793 0
M  V30 12062 C 1198.78 -0.378206 3.74495 0
M  V30 12063 C 1197.93 0.407126 2.74295 0
M  V30 12064 H 1200.88 0.68507 1.43152 0
M  V30 12065 H 1200.9 -0.780717 3.72404 0
M  V30 12066 H 1200.41 1.04397 3.73795 0
M  V30 12067 H 1198.51 -1.40503 3.45094 0
M  V30 12068 H 1198.63 -0.0797643 4.79034 0
M  V30 12069 H 1196.99 -0.139123 2.5432 0
M  V30 12070 H 1197.77 1.42909 3.12141 0
M  V30 12071 N 1200.22 -1.56282 0.203376 0
M  V30 12072 C 1201.17 -2.20822 -0.730784 0
M  V30 12073 C 1202.16 -1.18193 -1.21354 0
M  V30 12074 O 1203.37 -1.36318 -1.17547 0
M  V30 12075 H 1199.74 -0.707792 -0.254036 0
M  V30 12076 H 1201.71 -2.97955 -0.162825 0
M  V30 12077 C 1200.46 -2.88803 -1.93618 0
M  V30 12078 H 1199.78 -3.67521 -1.57379 0
M  V30 12079 H 1201.22 -3.37387 -2.56799 0
M  V30 12080 C 1199.68 -1.90285 -2.78017 0
M  V30 12081 O 1200.21 -1.40833 -3.76203 0
M  V30 12082 N 1198.42 -1.58332 -2.43679 0
M  V30 12083 H 1197.97 -1.9874 -1.63891 0
M  V30 12084 H 1197.92 -0.926722 -3.00432 0
M  V30 12085 N 1201.7 0.070167 -1.57444 0
M  V30 12086 C 1202.63 1.08351 -2.06839 0
M  V30 12087 C 1203.61 1.40269 -0.962224 0
M  V30 12088 O 1204.79 1.49867 -1.23505 0
M  V30 12089 C 1201.92 2.39649 -2.51368 0
M  V30 12090 C 1200.88 2.22079 -3.65875 0
M  V30 12091 C 1200.2 3.58776 -3.96464 0
M  V30 12092 C 1201.5 1.64069 -4.95862 0
M  V30 12093 H 1203.2 0.672465 -2.9175 0
M  V30 12094 H 1200.74 0.322027 -1.40353 0
M  V30 12095 H 1202.69 3.10833 -2.84537 0
M  V30 12096 H 1201.42 2.82736 -1.63487 0
M  V30 12097 H 1200.08 1.53337 -3.32992 0
M  V30 12098 H 1199.73 3.99436 -3.05712 0
M  V30 12099 H 1199.43 3.47859 -4.7357 0
M  V30 12100 H 1200.95 4.31387 -4.32131 0
M  V30 12101 H 1202.36 2.2512 -5.27251 0
M  V30 12102 H 1200.76 1.63843 -5.773 0
M  V30 12103 H 1201.83 0.60232 -4.81145 0
M  V30 12104 N 1203.17 1.53854 0.341593 0
M  V30 12105 C 1204.08 1.84975 1.44297 0
M  V30 12106 C 1205.1 0.740057 1.57477 0
M  V30 12107 O 1206.28 1.03256 1.72917 0
M  V30 12108 C 1203.34 2.05464 2.79259 0
M  V30 12109 C 1202.4 3.29318 2.75405 0
M  V30 12110 C 1201.63 3.4882 4.03931 0
M  V30 12111 O 1201.86 2.7212 5.01305 0
M  V30 12112 O 1200.79 4.42253 4.08284 0
M  V30 12113 H 1204.62 2.78592 1.20913 0
M  V30 12114 H 1202.2 1.39532 0.533953 0
M  V30 12115 H 1204.08 2.20374 3.59184 0
M  V30 12116 H 1202.76 1.15035 3.0257 0
M  V30 12117 H 1201.67 3.1981 1.94094 0
M  V30 12118 H 1203 4.19746 2.57049 0
M  V30 12119 N 1204.65 -0.602709 1.4562 0
M  V30 12120 C 1206.06 -1.1847 1.44297 0
M  V30 12121 C 1206.41 -1.95434 0.17316 0
M  V30 12122 O 1205.54 -2.03894 -0.724986 0
M  V30 12123 C 1206.13 -2.15508 2.61422 0
M  V30 12124 C 1204.69 -2.69073 2.63204 0
M  V30 12125 C 1203.84 -1.44568 2.36633 0
M  V30 12126 H 1206.79 -0.391745 1.53789 0
M  V30 12127 H 1206.81 -2.98628 2.35799 0
M  V30 12128 H 1206.32 -1.59464 3.53826 0
M  V30 12129 H 1204.42 -3.29042 1.7482 0
M  V30 12130 H 1204.54 -3.13173 3.62573 0
M  V30 12131 H 1202.9 -1.73692 1.86287 0
M  V30 12132 H 1203.68 -0.903852 3.31188 0
M  V30 12133 N 1206.13 -1.32992 -0.845635 0
M  V30 12134 C 1207.38 -1.25258 -1.60256 0
M  V30 12135 C 1207.73 0.181685 -1.9154 0
M  V30 12136 O 1207.02 1.12193 -1.55316 0
M  V30 12137 C 1207.22 -2.05454 -2.92444 0
M  V30 12138 C 1207.05 -3.56533 -2.7407 0
M  V30 12139 C 1205.82 -4.25857 -2.71981 0
M  V30 12140 C 1208.01 -4.51003 -2.47186 0
M  V30 12141 N 1206 -5.6293 -2.44913 0
M  V30 12142 C 1207.37 -5.75917 -2.29607 0
M  V30 12143 C 1209.42 -4.40162 -2.32727 0
M  V30 12144 C 1208.13 -6.91214 -1.99037 0
M  V30 12145 C 1210.15 -5.55267 -2.0355 0
M  V30 12146 C 1209.51 -6.79186 -1.86777 0
M  V30 12147 H 1205.61 -0.513536 -0.58975 0
M  V30 12148 H 1208.2 -1.67458 -0.993277 0
M  V30 12149 H 1206.37 -1.65585 -3.51335 0
M  V30 12150 H 1208.1 -1.89543 -3.57569 0
M  V30 12151 H 1204.85 -3.78064 -2.85245 0
M  V30 12152 H 1205.28 -6.3517 -2.34282 0
M  V30 12153 H 1209.92 -3.44998 -2.4441 0
M  V30 12154 H 1207.64 -7.86381 -1.86091 0
M  V30 12155 H 1211.22 -5.48811 -1.93127 0
M  V30 12156 H 1210.1 -7.66748 -1.64523 0
M  V30 12157 N 1207.61 1.06304 -1.1635 0
M  V30 12158 C 1208.85 1.79366 -0.94634 0
M  V30 12159 C 1209.19 1.86981 0.524569 0
M  V30 12160 O 1208.46 1.36134 1.38917 0
M  V30 12161 C 1208.74 3.23861 -1.57436 0
M  V30 12162 C 1208.6 3.24327 -3.1166 0
M  V30 12163 C 1209.92 4.21409 -1.26895 0
M  V30 12164 H 1207.04 0.65115 -0.345215 0
M  V30 12165 H 1209.68 1.24325 -1.43678 0
M  V30 12166 H 1207.83 3.70862 -1.15731 0
M  V30 12167 H 1209.5 2.85488 -3.62346 0
M  V30 12168 H 1207.74 2.62983 -3.44997 0
M  V30 12169 H 1208.41 4.2626 -3.50723 0
M  V30 12170 H 1210.89 3.8285 -1.62989 0
M  V30 12171 H 1209.77 5.20778 -1.73439 0
M  V30 12172 H 1210.03 4.41701 -0.187768 0
M  V30 12173 N 1209.09 0.96196 1.24836 0
M  V30 12174 C 1210.05 0.492443 2.23847 0
M  V30 12175 C 1211.05 -0.40788 1.55541 0
M  V30 12176 O 1212.24 -0.204143 1.73 0
M  V30 12177 C 1209.37 -0.287578 3.39685 0
M  V30 12178 H 1210.56 1.36767 2.66899 0
M  V30 12179 H 1208.12 0.745967 1.3735 0
M  V30 12180 H 1208.85 -1.18015 3.02064 0
M  V30 12181 H 1208.64 0.358431 3.90458 0
M  V30 12182 H 1210.13 -0.605297 4.1319 0
M  V30 12183 N 1210.56 -1.39601 0.731392 0
M  V30 12184 C 1211.79 -2.04887 0.28789 0
M  V30 12185 C 1212.21 -1.55138 -1.076 0
M  V30 12186 O 1211.56 -0.71471 -1.67923 0
M  V30 12187 C 1211.61 -3.6044 0.276629 0
M  V30 12188 O 1211.34 -4.08358 1.58668 0
M  V30 12189 C 1212.84 -4.4292 -0.183485 0
M  V30 12190 H 1210.06 -0.658976 0.126459 0
M  V30 12191 H 1212.6 -1.78716 0.994031 0
M  V30 12192 H 1210.76 -3.85526 -0.380597 0
M  V30 12193 H 1211.17 -5.02659 1.4978 0
M  V30 12194 H 1212.64 -5.51822 -0.140207 0
M  V30 12195 H 1213.12 -4.2168 -1.22811 0
M  V30 12196 H 1213.73 -4.22976 0.444042 0
M  V30 12197 N 1212.04 -0.478751 -1.50152 0
M  V30 12198 C 1213.32 0.135533 -1.9513 0
M  V30 12199 C 1213.7 1.56253 -1.41944 0
M  V30 12200 O 1213.05 2.19824 -0.623673 0
M  V30 12201 C 1213.26 0.0710037 -3.48928 0
M  V30 12202 C 1214.61 0.256075 -4.23827 0
M  V30 12203 O 1215.63 0.147234 -3.55896 0
M  V30 12204 O 1214.49 0.476741 -5.44417 0
M  V30 12205 H 1211.58 0.107491 -0.819985 0
M  V30 12206 H 1214.13 -0.539701 -1.60889 0
M  V30 12207 H 1212.9 -0.925012 -3.80209 0
M  V30 12208 H 1212.52 0.787362 -3.89726 0
M  V30 12209 N 1213.52 1.56172 -0.211661 0
M  V30 12210 C 1214.43 2.23468 0.714081 0
M  V30 12211 C 1215.45 1.23908 1.22159 0
M  V30 12212 O 1216.62 1.56693 1.26528 0
M  V30 12213 C 1213.69 2.89375 1.90953 0
M  V30 12214 C 1212.75 4.04251 1.44497 0
M  V30 12215 C 1211.98 4.67006 2.58343 0
M  V30 12216 O 1212.2 4.28721 3.76237 0
M  V30 12217 O 1211.14 5.56177 2.3011 0
M  V30 12218 H 1214.96 3.03219 0.170862 0
M  V30 12219 H 1212.55 1.49389 0.0183607 0
M  V30 12220 H 1214.43 3.3101 2.60787 0
M  V30 12221 H 1213.11 2.12591 2.44104 0
M  V30 12222 H 1212.01 3.67205 0.714932 0
M  V30 12223 H 1213.35 4.82748 0.959947 0
M  V30 12224 N 1215 -0.0618163 1.57479 0
M  V30 12225 C 1216.25 -0.757569 1.87364 0
M  V30 12226 C 1216.57 -1.77607 0.805025 0
M  V30 12227 O 1215.84 -1.95202 -0.165216 0
M  V30 12228 H 1214.42 -0.28278 0.691408 0
M  V30 12229 H 1217.08 -0.0355354 1.94868 0
M  V30 12230 H 1216.18 -1.26758 2.85199 0
M  V30 12231 N 1216.48 -1.54033 -0.333429 0
M  V30 12232 C 1217.89 -1.63107 -0.908455 0
M  V30 12233 C 1218.24 -0.518823 -1.89216 0
M  V30 12234 O 1217.36 0.34985 -2.13553 0
M  V30 12235 C 1217.96 -2.95657 -1.65447 0
M  V30 12236 C 1216.52 -3.0696 -2.17836 0
M  V30 12237 C 1215.66 -2.58617 -1.00063 0
M  V30 12238 H 1218.62 -1.58309 -0.11128 0
M  V30 12239 H 1218.64 -2.85263 -2.51804 0
M  V30 12240 H 1218.15 -3.76588 -0.938263 0
M  V30 12241 H 1216.25 -2.30683 -2.92602 0
M  V30 12242 H 1216.36 -4.12599 -2.43513 0
M  V30 12243 H 1214.73 -2.1427 -1.37697 0
M  V30 12244 H 1215.51 -3.41996 -0.298901 0
M  V30 12245 N 1217.95 0.594978 -1.45938 0
M  V30 12246 C 1219.18 1.37994 -1.5416 0
M  V30 12247 C 1219.6 1.87954 -0.17848 0
M  V30 12248 O 1218.95 1.62932 0.822161 0
M  V30 12249 C 1219.01 2.57586 -2.53637 0
M  V30 12250 O 1218.73 2.09698 -3.84653 0
M  V30 12251 C 1220.23 3.50292 -2.71681 0
M  V30 12252 H 1217.45 0.421983 -0.5217 0
M  V30 12253 H 1219.99 0.724459 -1.91238 0
M  V30 12254 H 1218.15 3.19149 -2.19597 0
M  V30 12255 H 1218.56 2.87492 -4.3869 0
M  V30 12256 H 1220.03 4.30717 -3.45234 0
M  V30 12257 H 1220.51 4.01444 -1.78156 0
M  V30 12258 H 1221.12 2.94573 -3.06768 0
M  V30 12259 N 1219.43 1.33438 0.838571 0
M  V30 12260 C 1220.68 1.25097 1.5962 0
M  V30 12261 C 1221.01 -0.182798 1.93338 0
M  V30 12262 O 1220.29 -1.1242 1.5872 0
M  V30 12263 C 1220.57 2.12655 2.90603 0
M  V30 12264 C 1220.42 3.64491 2.63565 0
M  V30 12265 C 1221.74 1.99994 3.92033 0
M  V30 12266 H 1218.86 0.455776 0.579169 0
M  V30 12267 H 1221.5 1.63542 0.967169 0
M  V30 12268 H 1219.65 1.79998 3.44286 0
M  V30 12269 H 1221.32 4.0744 2.16312 0
M  V30 12270 H 1219.57 3.86356 1.9726 0
M  V30 12271 H 1220.24 4.21101 3.569 0
M  V30 12272 H 1222.71 2.28635 3.47657 0
M  V30 12273 H 1221.59 2.63509 4.81512 0
M  V30 12274 H 1221.85 0.972263 4.31277 0
M  V30 12275 N 1220.91 -1.05686 1.16912 0
M  V30 12276 C 1221.86 -2.15417 0.877404 0
M  V30 12277 C 1222.85 -1.6868 -0.155986 0
M  V30 12278 O 1224.06 -1.79998 -0.00938156 0
M  V30 12279 H 1220.43 -0.70332 0.266168 0
M  V30 12280 H 1222.4 -2.37228 1.81012 0
M  V30 12281 C 1221.15 -3.45372 0.401696 0
M  V30 12282 H 1220.48 -3.81732 1.18832 0
M  V30 12283 H 1221.92 -4.2334 0.236418 0
M  V30 12284 C 1220.38 -3.25209 -0.87981 0
M  V30 12285 O 1220.91 -3.51322 -1.94771 0
M  V30 12286 N 1219.11 -2.78614 -0.825997 0
M  V30 12287 H 1218.66 -2.57564 0.0432439 0
M  V30 12288 H 1218.62 -2.65503 -1.68391 0
M  V30 12289 N 1222.39 -0.968567 -1.24324 0
M  V30 12290 C 1223.8 -0.66964 -1.74278 0
M  V30 12291 C 1224.15 0.81461 -1.7849 0
M  V30 12292 O 1223.28 1.63736 -1.4149 0
M  V30 12293 C 1223.87 -1.20885 -3.165 0
M  V30 12294 C 1222.43 -0.959808 -3.63957 0
M  V30 12295 C 1221.58 -1.34365 -2.42573 0
M  V30 12296 H 1224.53 -1.14379 -1.10015 0
M  V30 12297 H 1224.55 -0.57555 -3.76122 0
M  V30 12298 H 1224.06 -2.28912 -3.13402 0
M  V30 12299 H 1222.16 0.104894 -3.72452 0
M  V30 12300 H 1222.27 -1.60606 -4.51378 0
M  V30 12301 H 1220.64 -0.762039 -2.43033 0
M  V30 12302 H 1221.42 -2.43343 -2.42155 0
M  V30 12303 N 1223.87 1.39211 -0.738786 0
M  V30 12304 C 1224.8 2.28145 -0.0499733 0
M  V30 12305 C 1225.78 1.44592 0.743776 0
M  V30 12306 O 1226.96 1.73978 0.725536 0
M  V30 12307 C 1224.09 3.255 0.93634 0
M  V30 12308 C 1223.13 4.25876 0.230621 0
M  V30 12309 S 1223.97 5.24942 -1.0581 0
M  V30 12310 C 1225.12 6.25856 -0.0744844 0
M  V30 12311 H 1225.36 2.86218 -0.804163 0
M  V30 12312 H 1222.89 1.44991 -0.53074 0
M  V30 12313 H 1224.85 3.82109 1.50011 0
M  V30 12314 H 1223.51 2.66439 1.66339 0
M  V30 12315 H 1222.7 4.94438 0.977075 0
M  V30 12316 H 1222.3 3.73087 -0.261216 0
M  V30 12317 H 1224.6 6.73172 0.764616 0
M  V30 12318 H 1225.54 7.04354 -0.727354 0
M  V30 12319 H 1225.95 5.63704 0.299605 0
M  V30 12320 N 1225.34 0.486708 1.49896 0
M  V30 12321 C 1226.62 -0.125183 1.95199 0
M  V30 12322 C 1227 -1.55498 1.42771 0
M  V30 12323 O 1226.35 -2.1949 0.635322 0
M  V30 12324 C 1226.56 -0.0524982 3.48961 0
M  V30 12325 C 1227.91 -0.233595 4.23957 0
M  V30 12326 O 1228.93 -0.128357 3.55969 0
M  V30 12327 O 1227.79 -0.447862 5.44662 0
M  V30 12328 H 1224.88 -0.103141 0.820543 0
M  V30 12329 H 1227.43 0.548226 1.60601 0
M  V30 12330 H 1226.2 0.945163 3.79714 0
M  V30 12331 H 1225.83 -0.766683 3.90138 0
M  V30 12332 N 1226.82 -1.56058 0.219941 0
M  V30 12333 C 1228.05 -2.031 -0.42014 0
M  V30 12334 C 1228.47 -1.09875 -1.52673 0
M  V30 12335 O 1227.83 -0.0866458 -1.81093 0
M  V30 12336 C 1227.88 -3.48389 -0.93047 0
M  V30 12337 O 1226.98 -3.583 -2.04192 0
M  V30 12338 H 1226.32 -0.657129 -0.0952772 0
M  V30 12339 H 1228.85 -2.01787 0.338105 0
M  V30 12340 H 1228.86 -3.88678 -1.2407 0
M  V30 12341 H 1227.54 -4.15725 -0.120539 0
M  V30 12342 H 1226.12 -3.29898 -1.73845 0
M  V30 12343 N 1228.3 0.053464 -1.57509 0
M  V30 12344 C 1229.53 0.761533 -1.92375 0
M  V30 12345 C 1229.94 1.70179 -0.817585 0
M  V30 12346 O 1229.3 1.81313 0.207843 0
M  V30 12347 C 1229.35 1.53954 -3.27078 0
M  V30 12348 O 1229.07 0.637054 -4.33443 0
M  V30 12349 C 1230.57 2.34697 -3.76075 0
M  V30 12350 H 1227.79 0.215483 -0.635459 0
M  V30 12351 H 1230.34 0.0182624 -2.04492 0
M  V30 12352 H 1228.49 2.23492 -3.16434 0
M  V30 12353 H 1228.91 1.18006 -5.11053 0
M  V30 12354 H 1230.38 2.84716 -4.72906 0
M  V30 12355 H 1230.86 3.15041 -3.06016 0
M  V30 12356 H 1231.46 1.70281 -3.89724 0
M  V30 12357 N 1229.78 1.54207 0.325255 0
M  V30 12358 C 1231.03 1.72587 1.06497 0
M  V30 12359 C 1231.36 0.497228 1.87727 0
M  V30 12360 O 1230.63 -0.505804 1.87808 0
M  V30 12361 C 1230.92 3.00046 1.99109 0
M  V30 12362 C 1230.77 4.33158 1.21221 0
M  V30 12363 C 1232.09 3.23251 2.98658 0
M  V30 12364 H 1229.21 0.627974 0.38577 0
M  V30 12365 H 1231.85 1.869 0.34179 0
M  V30 12366 H 1230 2.87973 2.60775 0
M  V30 12367 H 1231.67 4.57111 0.620289 0
M  V30 12368 H 1229.91 4.30739 0.514462 0
M  V30 12369 H 1230.59 5.18558 1.89214 0
M  V30 12370 H 1233.06 3.34774 2.47114 0
M  V30 12371 H 1231.94 4.13796 3.60645 0
M  V30 12372 H 1232.2 2.40401 3.71026 0
M  V30 12373 N 1231.26 -0.58723 1.46251 0
M  V30 12374 C 1232.49 -1.37174 1.5489 0
M  V30 12375 C 1232.9 -1.87857 0.188445 0
M  V30 12376 O 1232.26 -1.63365 -0.813509 0
M  V30 12377 C 1232.31 -2.56237 2.55 0
M  V30 12378 O 1232.03 -2.07655 3.8576 0
M  V30 12379 C 1233.53 -3.48846 2.73535 0
M  V30 12380 H 1230.75 -0.419211 0.523931 0
M  V30 12381 H 1233.29 -0.714307 1.91619 0
M  V30 12382 H 1231.45 -3.1798 2.21287 0
M  V30 12383 H 1231.86 -2.85161 4.40208 0
M  V30 12384 H 1233.34 -4.2888 3.47514 0
M  V30 12385 H 1233.81 -4.00493 1.80282 0
M  V30 12386 H 1234.42 -2.92942 3.08326 0
M  V30 12387 N 1232.74 -1.33881 -0.831482 0
M  V30 12388 C 1234.15 -1.23112 -1.40358 0
M  V30 12389 C 1234.5 0.146944 -1.95649 0
M  V30 12390 O 1233.62 1.04689 -1.89391 0
M  V30 12391 C 1234.22 -2.22899 -2.5515 0
M  V30 12392 C 1232.78 -2.15946 -3.08292 0
M  V30 12393 C 1231.92 -2.09975 -1.81124 0
M  V30 12394 H 1234.87 -1.45372 -0.63661 0
M  V30 12395 H 1234.9 -1.841 -3.32997 0
M  V30 12396 H 1234.41 -3.23186 -2.14878 0
M  V30 12397 H 1232.51 -1.18987 -3.53091 0
M  V30 12398 H 1232.62 -3.06822 -3.67964 0
M  V30 12399 H 1230.99 -1.55564 -2.01673 0
M  V30 12400 H 1231.77 -3.12082 -1.43037 0
M  V30 12401 N 1234.21 1.05064 -1.1747 0
M  V30 12402 C 1235.18 2.1101 -0.89485 0
M  V30 12403 C 1236.18 1.60384 0.11553 0
M  V30 12404 O 1237.37 1.73808 -0.116785 0
M  V30 12405 C 1234.5 3.39194 -0.340642 0
M  V30 12406 H 1235.69 2.37269 -1.83421 0
M  V30 12407 H 1233.24 1.21329 -0.985343 0
M  V30 12408 H 1233.98 3.18591 0.605808 0
M  V30 12409 H 1233.76 3.77251 -1.06885 0
M  V30 12410 H 1235.25 4.17281 -0.163204 0
M  V30 12411 N 1235.69 0.975146 1.23809 0
M  V30 12412 C 1237.1 0.678873 1.7392 0
M  V30 12413 C 1237.45 -0.805133 1.78919 0
M  V30 12414 O 1236.58 -1.62984 1.42356 0
M  V30 12415 C 1237.17 1.22562 3.15854 0
M  V30 12416 C 1235.73 0.979096 3.63443 0
M  V30 12417 C 1234.88 1.35649 2.41857 0
M  V30 12418 H 1237.83 1.14961 1.09406 0
M  V30 12419 H 1237.85 0.595489 3.75811 0
M  V30 12420 H 1237.36 2.30571 3.12184 0
M  V30 12421 H 1235.46 -0.0851407 3.72503 0
M  V30 12422 H 1235.58 1.62998 4.5052 0
M  V30 12423 H 1233.94 0.774916 2.42626 0
M  V30 12424 H 1234.72 2.44624 2.40861 0
M  V30 12425 N 1237.17 -1.38817 0.746158 0
M  V30 12426 C 1238.39 -2.05096 0.308302 0
M  V30 12427 C 1238.82 -1.55902 -1.05244 0
M  V30 12428 O 1238.18 -0.707685 -1.66918 0
M  V30 12429 C 1238.23 -3.59068 0.332016 0
M  V30 12430 O 1237.33 -4.06813 -0.676547 0
M  V30 12431 H 1236.67 -0.649523 0.1379 0
M  V30 12432 H 1239.2 -1.77637 1.0152 0
M  V30 12433 H 1239.21 -4.07601 0.180293 0
M  V30 12434 H 1237.89 -3.94234 1.32487 0
M  V30 12435 H 1236.46 -3.69666 -0.490046 0
M  V30 12436 N 1238.65 -0.49465 -1.49636 0
M  V30 12437 C 1239.92 0.114829 -1.95263 0
M  V30 12438 C 1240.3 1.54739 -1.43593 0
M  V30 12439 O 1239.65 2.1915 -0.646953 0
M  V30 12440 C 1239.86 0.0339912 -3.48983 0
M  V30 12441 C 1241.21 0.211108 -4.24075 0
M  V30 12442 O 1242.23 0.109478 -3.56032 0
M  V30 12443 O 1241.09 0.418971 -5.44892 0
M  V30 12444 H 1238.19 0.0987883 -0.821078 0
M  V30 12445 H 1240.73 -0.556736 -1.60308 0
M  V30 12446 H 1239.51 -0.965287 -3.79207 0
M  V30 12447 H 1239.13 0.745982 -3.90539 0
M  V30 12448 N 1240.13 1.55939 -0.228214 0
M  V30 12449 C 1241.09 2.1932 0.665681 0
M  V30 12450 C 1242.09 1.15699 1.11671 0
M  V30 12451 O 1243.28 1.40893 1.02444 0
M  V30 12452 C 1240.41 2.82185 1.9127 0
M  V30 12453 H 1241.6 2.99687 0.112986 0
M  V30 12454 H 1239.16 1.56285 0.0213865 0
M  V30 12455 H 1239.89 2.05706 2.5071 0
M  V30 12456 H 1239.68 3.58073 1.5977 0
M  V30 12457 H 1241.17 3.30748 2.54942 0
M  V30 12458 N 1241.6 -0.0451101 1.57535 0
M  V30 12459 C 1242.83 -0.755068 1.93167 0
M  V30 12460 C 1243.25 -1.68949 0.826915 0
M  V30 12461 O 1242.61 -1.79978 -0.218534 0
M  V30 12462 C 1242.66 -1.50201 3.27829 0
M  V30 12463 O 1241.76 -2.61434 3.18945 0
M  V30 12464 H 1241.11 -0.204219 0.631815 0
M  V30 12465 H 1243.64 -0.00537504 2.04599 0
M  V30 12466 H 1243.65 -1.87547 3.6234 0
M  V30 12467 H 1242.32 -0.816591 4.07805 0
M  V30 12468 H 1240.9 -2.26749 2.96039 0
M  V30 12469 N 1243.08 -1.54377 -0.317073 0
M  V30 12470 C 1244.33 -1.72551 -1.05216 0
M  V30 12471 C 1244.65 -0.5055 -1.88334 0
M  V30 12472 O 1243.92 0.480439 -1.89917 0
M  V30 12473 H 1242.5 -0.636222 -0.391447 0
M  V30 12474 H 1245.16 -1.91696 -0.35194 0
M  V30 12475 H 1244.26 -2.60791 -1.71448 0
M  V30 12476 N 1244.56 0.579466 -1.4656 0
M  V30 12477 C 1245.81 1.33379 -1.51304 0
M  V30 12478 C 1246.12 1.94855 -0.170507 0
M  V30 12479 O 1247.33 2.71331 -0.0957704 0
M  V30 12480 C 1245.78 2.41748 -2.66619 0
M  V30 12481 C 1245.39 1.8656 -4.07307 0
M  V30 12482 C 1247.14 3.18502 -2.80636 0
M  V30 12483 C 1245.04 2.92578 -5.13957 0
M  V30 12484 H 1243.97 0.501422 -0.56311 0
M  V30 12485 H 1246.62 0.618025 -1.72779 0
M  V30 12486 H 1245.01 3.16138 -2.3848 0
M  V30 12487 H 1246.18 1.18692 -4.45252 0
M  V30 12488 H 1244.5 1.22464 -3.97984 0
M  V30 12489 H 1247.09 3.9763 -3.57483 0
M  V30 12490 H 1247.44 3.71295 -1.8827 0
M  V30 12491 H 1247.97 2.51219 -3.08437 0
M  V30 12492 H 1244.71 2.44668 -6.08126 0
M  V30 12493 H 1244.23 3.58926 -4.80554 0
M  V30 12494 H 1245.91 3.56471 -5.39942 0
M  V30 12495 N 1246.04 1.3432 0.824371 0
M  V30 12496 C 1247.28 1.27792 1.58243 0
M  V30 12497 C 1247.64 -0.151189 1.91805 0
M  V30 12498 O 1246.93 -1.09708 1.57082 0
M  V30 12499 C 1247.13 2.1008 2.89139 0
M  V30 12500 C 1246.96 3.60848 2.68363 0
M  V30 12501 C 1245.73 4.3013 2.65172 0
M  V30 12502 C 1247.92 4.54878 2.39979 0
M  V30 12503 N 1245.91 5.66756 2.35927 0
M  V30 12504 C 1247.28 5.79497 2.20415 0
M  V30 12505 C 1249.33 4.43809 2.25695 0
M  V30 12506 C 1248.03 6.94293 1.88015 0
M  V30 12507 C 1250.06 5.58435 1.9469 0
M  V30 12508 C 1249.42 6.82071 1.75948 0
M  V30 12509 H 1245.52 0.522853 0.581505 0
M  V30 12510 H 1248.11 1.69017 0.96651 0
M  V30 12511 H 1246.28 1.71154 3.48656 0
M  V30 12512 H 1248.01 1.95208 3.54508 0
M  V30 12513 H 1244.76 3.82554 2.79194 0
M  V30 12514 H 1245.19 6.38817 2.24148 0
M  V30 12515 H 1249.83 3.48842 2.38891 0
M  V30 12516 H 1247.55 7.89242 1.73557 0
M  V30 12517 H 1251.13 5.51814 1.84372 0
M  V30 12518 H 1250.01 7.69268 1.52304 0
M  V30 12519 N 1247.52 -1.0444 1.18026 0
M  V30 12520 C 1248.43 -2.15862 0.918747 0
M  V30 12521 C 1249.44 -1.73614 -0.115808 0
M  V30 12522 O 1250.62 -2.01294 0.0652312 0
M  V30 12523 C 1247.68 -3.43846 0.443922 0
M  V30 12524 C 1246.74 -4.00497 1.54599 0
M  V30 12525 C 1245.98 -5.22373 1.09372 0
M  V30 12526 O 1246.2 -5.70379 -0.049085 0
M  V30 12527 O 1245.13 -5.71459 1.88992 0
M  V30 12528 H 1248.96 -2.40776 1.85097 0
M  V30 12529 H 1246.55 -1.14326 0.961769 0
M  V30 12530 H 1248.43 -4.20985 0.187017 0
M  V30 12531 H 1247.1 -3.20414 -0.460051 0
M  V30 12532 H 1246.01 -3.24764 1.85686 0
M  V30 12533 H 1247.34 -4.28262 2.42595 0
M  V30 12534 N 1248.99 -0.981699 -1.2329 0
M  V30 12535 C 1250.41 -0.688087 -1.73558 0
M  V30 12536 C 1250.76 0.795633 -1.79344 0
M  V30 12537 O 1249.88 1.62227 -1.43218 0
M  V30 12538 C 1250.48 -1.24235 -3.152 0
M  V30 12539 C 1249.04 -0.998356 -3.62918 0
M  V30 12540 C 1248.18 -1.3693 -2.41134 0
M  V30 12541 H 1251.13 -1.15539 -1.08795 0
M  V30 12542 H 1251.15 -0.61541 -3.7549 0
M  V30 12543 H 1250.67 -2.32223 -3.10957 0
M  V30 12544 H 1248.77 0.0653847 -3.72543 0
M  V30 12545 H 1248.88 -1.65385 -4.49649 0
M  V30 12546 H 1247.24 -0.787773 -2.42211 0
M  V30 12547 H 1248.03 -2.45898 -2.39561 0
M  V30 12548 N 1250.47 1.3842 -0.753509 0
M  V30 12549 C 1251.72 1.99723 -0.309021 0
M  V30 12550 C 1252.04 1.60111 1.11308 0
M  V30 12551 O 1251.31 0.85792 1.76115 0
M  V30 12552 H 1249.89 0.738667 -0.111266 0
M  V30 12553 H 1252.55 1.69186 -0.967586 0
M  V30 12554 H 1251.65 3.09874 -0.372095 0
M  V30 12555 N 1251.95 0.502579 1.49372 0
M  V30 12556 C 1253.18 -0.0403087 2.07361 0
M  V30 12557 C 1253.6 -1.29918 1.36026 0
M  V30 12558 O 1252.96 -1.76428 0.417488 0
M  V30 12559 C 1253.01 -0.275362 3.59547 0
M  V30 12560 O 1252.11 -1.34975 3.89686 0
M  V30 12561 H 1251.45 0.0269268 0.663454 0
M  V30 12562 H 1253.98 0.702652 1.92156 0
M  V30 12563 H 1253.99 -0.506392 4.04845 0
M  V30 12564 H 1252.67 0.644382 4.10878 0
M  V30 12565 H 1251.24 -1.10355 3.56197 0
M  V30 12566 N 1253.43 -1.55816 0.23648 0
M  V30 12567 C 1254.36 -2.18248 -0.700024 0
M  V30 12568 C 1255.37 -1.15579 -1.14654 0
M  V30 12569 O 1256.56 -1.42491 -1.07511 0
M  V30 12570 C 1253.66 -2.76338 -1.9619 0
M  V30 12571 C 1252.84 -4.04325 -1.66853 0
M  V30 12572 C 1251.89 -4.46834 -2.77895 0
M  V30 12573 O 1250.92 -5.13427 -2.45725 0
M  V30 12574 N 1252.12 -4.13753 -4.07171 0
M  V30 12575 H 1254.89 -2.99241 -0.16589 0
M  V30 12576 H 1252.45 -1.61803 0.0560383 0
M  V30 12577 H 1254.44 -3.01739 -2.69695 0
M  V30 12578 H 1253.01 -1.99563 -2.4061 0
M  V30 12579 H 1252.23 -3.86623 -0.769164 0
M  V30 12580 H 1253.52 -4.8779 -1.44703 0
M  V30 12581 H 1252.92 -3.60271 -4.36144 0
M  V30 12582 H 1251.47 -4.44014 -4.77174 0
M  V30 12583 N 1254.91 0.036755 -1.57557 0
M  V30 12584 C 1256.15 0.730186 -1.89199 0
M  V30 12585 C 1256.49 1.75414 -0.833271 0
M  V30 12586 O 1255.76 1.93901 0.152579 0
M  V30 12587 C 1256.04 1.40669 -3.31488 0
M  V30 12588 C 1255.9 0.396764 -4.48047 0
M  V30 12589 C 1257.22 2.34268 -3.72567 0
M  V30 12590 H 1254.33 0.263983 -0.6881 0
M  V30 12591 H 1256.98 -0.0069847 -1.89999 0
M  V30 12592 H 1255.13 2.03502 -3.30937 0
M  V30 12593 H 1256.8 -0.229062 -4.60731 0
M  V30 12594 H 1255.04 -0.284698 -4.32865 0
M  V30 12595 H 1255.71 0.908436 -5.44474 0
M  V30 12596 H 1258.19 1.81485 -3.74436 0
M  V30 12597 H 1257.06 2.78587 -4.72949 0
M  V30 12598 H 1257.33 3.20611 -3.04403 0
M  V30 12599 N 1256.39 1.54543 0.308881 0
M  V30 12600 C 1257.63 1.73449 1.04506 0
M  V30 12601 C 1257.96 0.516034 1.8753 0
M  V30 12602 O 1257.22 -0.502106 1.89149 0
M  V30 12603 C 1257.51 2.97124 1.98626 0
M  V30 12604 C 1257.18 4.31256 1.31641 0
M  V30 12605 C 1255.84 4.67719 1.13105 0
M  V30 12606 C 1258.19 5.14437 0.836888 0
M  V30 12607 C 1255.52 5.84949 0.452878 0
M  V30 12608 C 1257.87 6.32365 0.172473 0
M  V30 12609 C 1256.54 6.67495 -0.0249143 0
M  V30 12610 H 1255.81 0.634697 0.382415 0
M  V30 12611 H 1258.46 1.88795 0.320714 0
M  V30 12612 H 1256.76 2.76526 2.77562 0
M  V30 12613 H 1258.46 3.08946 2.55643 0
M  V30 12614 H 1255.05 4.02576 1.47074 0
M  V30 12615 H 1259.23 4.86772 0.967834 0
M  V30 12616 H 1254.49 6.10717 0.288886 0
M  V30 12617 H 1258.66 6.96092 -0.207027 0
M  V30 12618 H 1256.29 7.5819 -0.552425 0
M  V30 12619 N 1257.86 -0.571685 1.46866 0
M  V30 12620 C 1258.77 -1.70758 1.60869 0
M  V30 12621 C 1259.79 -1.66903 0.49186 0
M  V30 12622 O 1260.97 -1.86613 0.757468 0
M  V30 12623 C 1258.03 -3.07267 1.60586 0
M  V30 12624 C 1257.09 -3.22301 2.83585 0
M  V30 12625 C 1256.32 -4.52298 2.83306 0
M  V30 12626 O 1256.55 -5.36869 1.92685 0
M  V30 12627 O 1255.48 -4.70814 3.7499 0
M  V30 12628 H 1259.31 -1.6189 2.56954 0
M  V30 12629 H 1256.89 -0.740018 1.29785 0
M  V30 12630 H 1258.77 -3.8853 1.63163 0
M  V30 12631 H 1257.45 -3.16549 0.676637 0
M  V30 12632 H 1256.36 -2.4049 2.86558 0
M  V30 12633 H 1257.69 -3.17916 3.75753 0
M  V30 12634 N 1259.34 -1.34755 -0.817236 0
M  V30 12635 C 1260.25 -1.28888 -1.96023 0
M  V30 12636 C 1261.27 -0.195582 -1.72897 0
M  V30 12637 O 1262.44 -0.423071 -1.96906 0
M  V30 12638 C 1259.51 -1.04985 -3.30423 0
M  V30 12639 C 1258.57 -2.23526 -3.66517 0
M  V30 12640 C 1257.8 -2.00753 -4.94504 0
M  V30 12641 O 1258.03 -0.968622 -5.62116 0
M  V30 12642 O 1256.96 -2.87848 -5.28608 0
M  V30 12643 H 1260.79 -2.25059 -2.03917 0
M  V30 12644 H 1258.37 -1.15019 -0.953467 0
M  V30 12645 H 1260.25 -0.934589 -4.10906 0
M  V30 12646 H 1258.93 -0.118582 -3.23483 0
M  V30 12647 H 1257.83 -2.40613 -2.86455 0
M  V30 12648 H 1259.17 -3.15062 -3.78149 0
M  V30 12649 N 1260.82 1.03812 -1.18578 0
M  V30 12650 C 1261.78 2.10049 -0.91718 0
M  V30 12651 C 1262.78 1.60498 0.0985122 0
M  V30 12652 O 1263.97 1.73674 -0.135213 0
M  V30 12653 C 1261.1 3.38813 -0.376599 0
M  V30 12654 H 1262.3 2.3531 -1.85927 0
M  V30 12655 H 1259.85 1.20277 -0.998156 0
M  V30 12656 H 1260.59 3.19216 0.571983 0
M  V30 12657 H 1260.37 3.76096 -1.10881 0
M  V30 12658 H 1261.86 4.17084 -0.207453 0
M  V30 12659 N 1262.3 0.988223 1.22768 0
M  V30 12660 C 1263.21 0.543407 2.2822 0
M  V30 12661 C 1264.22 -0.405563 1.69208 0
M  V30 12662 O 1265.4 -0.273551 1.99534 0
M  V30 12663 C 1262.46 -0.139495 3.46419 0
M  V30 12664 C 1261.53 0.851853 4.20764 0
M  V30 12665 C 1260.76 0.201446 5.3332 0
M  V30 12666 O 1260.98 -1.00573 5.61464 0
M  V30 12667 O 1259.92 0.903956 5.95073 0
M  V30 12668 H 1263.74 1.42059 2.68427 0
M  V30 12669 H 1261.33 0.756239 1.28846 0
M  V30 12670 H 1263.21 -0.522226 4.18152 0
M  V30 12671 H 1261.88 -0.991315 3.08147 0
M  V30 12672 H 1260.79 1.28543 3.51322 0
M  V30 12673 H 1262.12 1.67273 4.62905 0
M  V30 12674 N 1263.78 -1.38018 0.760839 0
M  V30 12675 C 1265 -2.04757 0.330038 0
M  V30 12676 C 1265.43 -1.57009 -1.03585 0
M  V30 12677 O 1264.78 -0.725349 -1.66158 0
M  V30 12678 C 1264.83 -3.58696 0.370082 0
M  V30 12679 O 1263.94 -4.07507 -0.633361 0
M  V30 12680 H 1263.28 -0.648023 0.144782 0
M  V30 12681 H 1265.81 -1.7655 1.03399 0
M  V30 12682 H 1265.82 -4.07387 0.223515 0
M  V30 12683 H 1264.49 -3.92806 1.36661 0
M  V30 12684 H 1263.07 -3.70165 -0.45081 0
M  V30 12685 N 1265.25 -0.510493 -1.49103 0
M  V30 12686 C 1266.48 0.0271718 -2.06882 0
M  V30 12687 C 1266.9 1.2995 -1.36962 0
M  V30 12688 O 1266.25 1.76842 -0.450916 0
M  V30 12689 C 1266.3 0.274956 -3.60453 0
M  V30 12690 O 1266.03 -0.946941 -4.27744 0
M  V30 12691 C 1267.53 0.855197 -4.34973 0
M  V30 12692 H 1264.75 -0.024732 -0.670544 0
M  V30 12693 H 1267.29 -0.710567 -1.91758 0
M  V30 12694 H 1265.45 0.962696 -3.75248 0
M  V30 12695 H 1265.86 -0.715627 -5.19595 0
M  V30 12696 H 1267.33 0.978103 -5.43265 0
M  V30 12697 H 1267.81 1.85535 -3.98087 0
M  V30 12698 H 1268.42 0.204632 -4.24807 0
M  V30 12699 N 1266.73 1.55688 -0.24474 0
M  V30 12700 C 1267.96 2.0329 0.384808 0
M  V30 12701 C 1268.37 1.12405 1.51692 0
M  V30 12702 O 1267.73 0.138056 1.81977 0
M  V30 12703 C 1267.78 3.50255 0.894635 0
M  V30 12704 O 1267.5 4.37677 -0.192365 0
M  V30 12705 C 1269 4.13608 1.59509 0
M  V30 12706 H 1266.22 0.664706 0.0916908 0
M  V30 12707 H 1268.77 2.01162 -0.367973 0
M  V30 12708 H 1266.92 3.52924 1.5976 0
M  V30 12709 H 1267.34 5.2414 0.194424 0
M  V30 12710 H 1268.81 5.1814 1.90356 0
M  V30 12711 H 1269.29 3.5997 2.51631 0
M  V30 12712 H 1269.89 4.14856 0.936749 0
M  V30 12713 N 1268.21 -0.0283989 1.57574 0
M  V30 12714 C 1269.14 -1.02828 2.09639 0
M  V30 12715 C 1270.12 -1.37668 0.999076 0
M  V30 12716 O 1271.31 -1.4654 1.27435 0
M  V30 12717 C 1268.44 -2.329 2.57633 0
M  V30 12718 C 1267.39 -2.12301 3.71635 0
M  V30 12719 C 1266.72 -3.48138 4.05837 0
M  V30 12720 C 1268.02 -1.50864 5.00037 0
M  V30 12721 H 1269.71 -0.594876 2.93431 0
M  V30 12722 H 1267.26 -0.284701 1.41158 0
M  V30 12723 H 1269.21 -3.03179 2.92678 0
M  V30 12724 H 1267.93 -2.78302 1.70926 0
M  V30 12725 H 1266.59 -1.44454 3.3694 0
M  V30 12726 H 1266.24 -3.9119 3.16195 0
M  V30 12727 H 1265.94 -3.3518 4.82626 0
M  V30 12728 H 1267.46 -4.19779 4.43417 0
M  V30 12729 H 1268.88 -2.11062 5.33035 0
M  V30 12730 H 1267.27 -1.48479 5.81441 0
M  V30 12731 H 1268.34 -0.474541 4.82572 0
M  V30 12732 N 1269.69 -1.54705 -0.300681 0
M  V30 12733 C 1270.91 -1.78318 -1.05913 0
M  V30 12734 C 1271.34 -0.541177 -1.80147 0
M  V30 12735 O 1270.7 0.508291 -1.74029 0
M  V30 12736 C 1270.74 -2.99041 -2.01511 0
M  V30 12737 O 1269.85 -2.72188 -3.09818 0
M  V30 12738 H 1269.19 -0.590197 -0.304242 0
M  V30 12739 H 1271.72 -2.01789 -0.338006 0
M  V30 12740 H 1271.73 -3.2702 -2.43971 0
M  V30 12741 H 1270.4 -3.89098 -1.46886 0
M  V30 12742 H 1268.98 -2.55227 -2.71871 0
M  V30 12743 N 1271.17 0.563888 -1.47167 0
M  V30 12744 C 1272.58 1.14603 -1.47388 0
M  V30 12745 C 1272.93 1.94907 -0.224916 0
M  V30 12746 O 1272.05 2.05745 0.670672 0
M  V30 12747 C 1272.65 2.08501 -2.67044 0
M  V30 12748 C 1271.21 2.62 -2.70246 0
M  V30 12749 C 1270.35 1.38244 -2.40383 0
M  V30 12750 H 1273.31 0.350833 -1.54774 0
M  V30 12751 H 1273.33 2.92272 -2.43634 0
M  V30 12752 H 1272.84 1.50027 -3.57929 0
M  V30 12753 H 1270.94 3.24292 -1.83482 0
M  V30 12754 H 1271.05 3.0345 -3.70749 0
M  V30 12755 H 1269.42 1.68692 -1.90827 0
M  V30 12756 H 1270.2 0.815726 -3.33468 0
M  V30 12757 N 1272.64 1.35187 0.810078 0
M  V30 12758 C 1273.58 1.23673 1.92971 0
M  V30 12759 C 1274.59 0.160819 1.62004 0
M  V30 12760 O 1275.78 0.413793 1.73638 0
M  V30 12761 C 1272.88 0.880887 3.27252 0
M  V30 12762 C 1272.05 2.05444 3.86149 0
M  V30 12763 C 1271.11 1.67494 4.98831 0
M  V30 12764 O 1270.14 2.39322 5.16443 0
M  V30 12765 N 1271.34 0.596539 5.77427 0
M  V30 12766 H 1274.1 2.20133 2.03376 0
M  V30 12767 H 1271.66 1.2831 0.987322 0
M  V30 12768 H 1273.66 0.608556 4.00098 0
M  V30 12769 H 1272.23 0.00607926 3.12599 0
M  V30 12770 H 1271.45 2.49077 3.05539 0
M  V30 12771 H 1272.73 2.83898 4.22231 0
M  V30 12772 H 1272.13 -0.000312591 5.657 0
M  V30 12773 H 1270.69 0.383979 6.50668 0
M  V30 12774 N 1274.12 -1.03182 1.19127 0
M  V30 12775 C 1275.37 -1.76794 0.993563 0
M  V30 12776 C 1275.7 -1.88306 -0.474809 0
M  V30 12777 O 1274.98 -1.39769 -1.35258 0
M  V30 12778 C 1275.26 -3.19573 1.65968 0
M  V30 12779 C 1275.11 -3.1595 3.2015 0
M  V30 12780 C 1276.43 -4.17897 1.38023 0
M  V30 12781 H 1273.55 -0.641768 0.362357 0
M  V30 12782 H 1276.19 -1.20472 1.46924 0
M  V30 12783 H 1274.34 -3.67663 1.25524 0
M  V30 12784 H 1276.01 -2.7578 3.69788 0
M  V30 12785 H 1274.26 -2.53743 3.51848 0
M  V30 12786 H 1274.93 -4.16811 3.61901 0
M  V30 12787 H 1277.4 -3.78394 1.73082 0
M  V30 12788 H 1276.28 -5.15997 1.87186 0
M  V30 12789 H 1276.54 -4.41048 0.304812 0
M  V30 12790 N 1275.6 -0.99472 -1.22242 0
M  V30 12791 C 1276.56 -0.551619 -2.22463 0
M  V30 12792 C 1277.56 0.366498 -1.56568 0
M  V30 12793 O 1278.75 0.158204 -1.7348 0
M  V30 12794 C 1275.89 0.197416 -3.40328 0
M  V30 12795 H 1277.08 -1.43795 -2.63179 0
M  V30 12796 H 1274.63 -0.782121 -1.35324 0
M  V30 12797 H 1275.37 1.09965 -3.05087 0
M  V30 12798 H 1275.15 -0.461829 -3.89371 0
M  V30 12799 H 1276.64 0.495534 -4.1465 0
M  V30 12800 N 1277.08 1.37613 -0.768148 0
M  V30 12801 C 1278.01 2.3291 -0.165911 0
M  V30 12802 C 1278.99 1.556 0.687205 0
M  V30 12803 O 1280.17 1.83854 0.625407 0
M  V30 12804 C 1277.3 3.39822 0.7168 0
M  V30 12805 C 1276.26 4.27986 -0.0347264 0
M  V30 12806 C 1275.58 5.2588 0.967192 0
M  V30 12807 C 1276.88 5.08052 -1.21164 0
M  V30 12808 H 1278.58 2.83524 -0.962006 0
M  V30 12809 H 1276.12 1.36318 -0.464051 0
M  V30 12810 H 1278.08 4.05464 1.14789 0
M  V30 12811 H 1276.8 2.87725 1.54538 0
M  V30 12812 H 1275.46 3.6387 -0.446557 0
M  V30 12813 H 1275.11 4.70064 1.79022 0
M  V30 12814 H 1274.81 5.85726 0.468913 0
M  V30 12815 H 1276.33 5.94397 1.3973 0
M  V30 12816 H 1277.75 5.66853 -0.857373 0
M  V30 12817 H 1276.14 5.77206 -1.64176 0
M  V30 12818 H 1277.21 4.40936 -2.0175 0
M  V30 12819 N 1278.56 0.518393 1.4883 0
M  V30 12820 C 1279.83 -0.0837498 1.95421 0
M  V30 12821 C 1280.21 -1.52435 1.46037 0
M  V30 12822 O 1279.56 -2.18093 0.681736 0
M  V30 12823 C 1279.77 0.0215333 3.48993 0
M  V30 12824 C 1281.12 -0.143615 4.24357 0
M  V30 12825 O 1282.14 -0.0528223 3.56161 0
M  V30 12826 O 1281 -0.332231 5.45489 0
M  V30 12827 H 1278.1 -0.0857132 0.822546 0
M  V30 12828 H 1280.64 0.582169 1.59402 0
M  V30 12829 H 1279.41 1.02549 3.77623 0
M  V30 12830 H 1279.04 -0.683756 3.91677 0
M  V30 12831 N 1280.03 -1.55556 0.252993 0
M  V30 12832 C 1281.26 -2.03491 -0.374022 0
M  V30 12833 C 1281.68 -1.13208 -1.51094 0
M  V30 12834 O 1281.03 -0.147705 -1.81901 0
M  V30 12835 C 1281.09 -3.50724 -0.876047 0
M  V30 12836 O 1280.81 -4.37569 0.215574 0
M  V30 12837 C 1282.31 -4.14448 -1.57313 0
M  V30 12838 H 1279.53 -0.665183 -0.0881644 0
M  V30 12839 H 1282.07 -2.00964 0.378636 0
M  V30 12840 H 1280.23 -3.53766 -1.57886 0
M  V30 12841 H 1280.64 -5.24235 -0.166625 0
M  V30 12842 H 1282.11 -5.19142 -1.87606 0
M  V30 12843 H 1282.59 -3.61299 -2.49719 0
M  V30 12844 H 1283.2 -4.15346 -0.914735 0
M  V30 12845 N 1281.51 0.0200419 -1.57587 0
M  V30 12846 C 1282.74 0.724241 -1.94344 0
M  V30 12847 C 1283.16 1.67612 -0.853688 0
M  V30 12848 O 1282.52 1.80303 0.189873 0
M  V30 12849 C 1282.57 1.44967 -3.30177 0
M  V30 12850 O 1281.67 2.56326 -3.23064 0
M  V30 12851 H 1281.01 0.194142 -0.634984 0
M  V30 12852 H 1283.54 -0.0271756 -2.04582 0
M  V30 12853 H 1283.55 1.81758 -3.65278 0
M  V30 12854 H 1282.23 0.75161 -4.09052 0
M  V30 12855 H 1280.81 2.22011 -2.99609 0
M  V30 12856 N 1282.99 1.54862 0.292472 0
M  V30 12857 C 1284.24 1.73756 1.02429 0
M  V30 12858 C 1284.55 0.535164 1.88137 0
M  V30 12859 O 1285.76 0.606092 2.64648 0
M  V30 12860 C 1284.21 3.0745 1.8709 0
M  V30 12861 C 1283.82 4.35195 1.06343 0
M  V30 12862 C 1285.57 3.357 2.59819 0
M  V30 12863 C 1283.47 5.59936 1.9033 0
M  V30 12864 H 1282.4 0.647617 0.386145 0
M  V30 12865 H 1285.05 1.81338 0.28086 0
M  V30 12866 H 1283.44 2.93855 2.65453 0
M  V30 12867 H 1284.61 4.5965 0.325335 0
M  V30 12868 H 1282.93 4.13944 0.451574 0
M  V30 12869 H 1285.52 4.26099 3.23023 0
M  V30 12870 H 1285.87 2.54956 3.29094 0
M  V30 12871 H 1286.4 3.50304 1.88499 0
M  V30 12872 H 1283.14 6.43372 1.25509 0
M  V30 12873 H 1282.66 5.39654 2.61789 0
M  V30 12874 H 1284.34 5.97512 2.48171 0
M  V30 12875 N 1284.47 -0.556076 1.47464 0
M  V30 12876 C 1285.71 -1.31515 1.54375 0
M  V30 12877 C 1286.05 -1.93106 0.205837 0
M  V30 12878 O 1285.32 -1.77927 -0.785643 0
M  V30 12879 C 1285.61 -2.4244 2.66261 0
M  V30 12880 C 1285.46 -1.8571 4.09673 0
M  V30 12881 C 1286.78 -3.4436 2.74051 0
M  V30 12882 H 1283.9 -0.476817 0.561974 0
M  V30 12883 H 1286.54 -0.622157 1.79525 0
M  V30 12884 H 1284.69 -3.01551 2.44948 0
M  V30 12885 H 1286.36 -1.30851 4.42353 0
M  V30 12886 H 1284.6 -1.16379 4.17898 0
M  V30 12887 H 1285.27 -2.65904 4.83735 0
M  V30 12888 H 1287.75 -2.95169 2.93282 0
M  V30 12889 H 1286.63 -4.194 3.54111 0
M  V30 12890 H 1286.89 -4.03281 1.81155 0
M  V30 12891 N 1285.95 -1.35615 -0.802897 0
M  V30 12892 C 1287.18 -1.32217 -1.59142 0
M  V30 12893 C 1287.59 0.0995496 -1.88537 0
M  V30 12894 O 1286.95 1.05258 -1.49087 0
M  V30 12895 C 1287 -2.13048 -2.92049 0
M  V30 12896 O 1286.72 -3.49677 -2.63927 0
M  V30 12897 C 1288.22 -2.17278 -3.864 0
M  V30 12898 H 1285.44 -0.454054 -0.49404 0
M  V30 12899 H 1287.98 -1.78521 -0.997516 0
M  V30 12900 H 1286.14 -1.70334 -3.47944 0
M  V30 12901 H 1286.55 -3.917 -3.48814 0
M  V30 12902 H 1288.03 -2.7822 -4.76758 0
M  V30 12903 H 1288.5 -1.17253 -4.23259 0
M  V30 12904 H 1289.11 -2.6017 -3.3644 0
M  V30 12905 N 1287.43 1.02549 -1.19673 0
M  V30 12906 C 1288.84 1.57454 -1.00325 0
M  V30 12907 C 1289.19 1.91136 0.442889 0
M  V30 12908 O 1288.31 1.7126 1.32284 0
M  V30 12909 C 1288.91 2.86091 -1.81486 0
M  V30 12910 C 1287.47 3.37557 -1.6653 0
M  V30 12911 C 1286.61 2.1096 -1.79975 0
M  V30 12912 H 1289.56 0.850364 -1.33994 0
M  V30 12913 H 1289.59 3.5713 -1.31296 0
M  V30 12914 H 1289.1 2.61546 -2.86733 0
M  V30 12915 H 1287.2 3.67083 -0.638834 0
M  V30 12916 H 1287.31 4.1036 -2.47269 0
M  V30 12917 H 1285.68 2.22993 -1.23071 0
M  V30 12918 H 1286.46 1.88852 -2.86688 0
M  V30 12919 N 1288.9 1.00119 1.21713 0
M  V30 12920 C 1289.83 0.578504 2.2622 0
M  V30 12921 C 1290.81 -0.398777 1.6536 0
M  V30 12922 O 1292 -0.287596 1.92059 0
M  V30 12923 C 1289.13 -0.0994508 3.47158 0
M  V30 12924 C 1288.08 0.79722 4.2051 0
M  V30 12925 C 1287.41 -0.0141125 5.34698 0
M  V30 12926 C 1288.71 2.09802 4.7831 0
M  V30 12927 H 1290.4 1.45208 2.6183 0
M  V30 12928 H 1287.95 0.699656 1.2586 0
M  V30 12929 H 1289.9 -0.406605 4.19434 0
M  V30 12930 H 1288.63 -1.00763 3.10667 0
M  V30 12931 H 1287.29 1.08814 3.50079 0
M  V30 12932 H 1286.93 -0.923468 4.9445 0
M  V30 12933 H 1286.63 0.582883 5.84702 0
M  V30 12934 H 1288.16 -0.31517 6.09786 0
M  V30 12935 H 1289.57 1.85427 5.42485 0
M  V30 12936 H 1287.97 2.64455 5.38687 0
M  V30 12937 H 1289.04 2.77132 3.97902 0
M  V30 12938 N 1290.38 -1.37203 0.775435 0
M  V30 12939 C 1291.61 -2.03868 0.352927 0
M  V30 12940 C 1292.02 -1.58482 -1.0261 0
M  V30 12941 O 1291.38 -0.767772 -1.65564 0
M  V30 12942 C 1291.43 -3.59378 0.39116 0
M  V30 12943 O 1291.15 -4.03103 1.71579 0
M  V30 12944 C 1292.65 -4.4328 -0.0424808 0
M  V30 12945 H 1289.87 -0.654619 0.14736 0
M  V30 12946 H 1292.42 -1.75463 1.05039 0
M  V30 12947 H 1290.57 -3.86542 -0.257752 0
M  V30 12948 H 1290.99 -4.9764 1.65695 0
M  V30 12949 H 1292.46 -5.51989 0.0354215 0
M  V30 12950 H 1292.94 -4.25374 -1.09333 0
M  V30 12951 H 1293.54 -4.21349 0.578384 0
M  V30 12952 N 1291.86 -0.526279 -1.48553 0
M  V30 12953 C 1293.09 0.0052277 -2.06899 0
M  V30 12954 C 1293.5 1.2849 -1.38332 0
M  V30 12955 O 1292.86 1.76354 -0.469648 0
M  V30 12956 C 1292.91 0.236709 -3.60724 0
M  V30 12957 O 1292.63 -0.992256 -4.26715 0
M  V30 12958 C 1294.13 0.809014 -4.35855 0
M  V30 12959 H 1291.35 -0.0318426 -0.670244 0
M  V30 12960 H 1293.9 -0.730865 -1.90994 0
M  V30 12961 H 1292.05 0.922842 -3.76248 0
M  V30 12962 H 1292.47 -0.770697 -5.18807 0
M  V30 12963 H 1293.94 0.920428 -5.44272 0
M  V30 12964 H 1294.42 1.81302 -4.00033 0
M  V30 12965 H 1295.02 0.159564 -4.25001 0
M  V30 12966 N 1293.34 1.5542 -0.261239 0
M  V30 12967 C 1294.27 2.24949 0.626126 0
M  V30 12968 C 1295.25 1.23474 1.16997 0
M  V30 12969 O 1296.43 1.52161 1.20667 0
M  V30 12970 C 1293.56 2.95996 1.81669 0
M  V30 12971 C 1292.52 4.04282 1.40499 0
M  V30 12972 C 1291.84 4.62831 2.67753 0
M  V30 12973 C 1293.14 5.1923 0.56543 0
M  V30 12974 H 1294.84 2.99364 0.0463164 0
M  V30 12975 H 1292.38 1.43985 0.0208366 0
M  V30 12976 H 1294.34 3.43343 2.44323 0
M  V30 12977 H 1293.06 2.19093 2.42211 0
M  V30 12978 H 1291.72 3.57726 0.801712 0
M  V30 12979 H 1291.37 3.82611 3.26524 0
M  V30 12980 H 1291.07 5.35938 2.40925 0
M  V30 12981 H 1292.59 5.12918 3.31281 0
M  V30 12982 H 1294.01 5.62714 1.09663 0
M  V30 12983 H 1292.4 5.98814 0.392607 0
M  V30 12984 H 1293.47 4.83086 -0.419059 0
M  V30 12985 N 1294.82 -0.0116844 1.57596 0
M  V30 12986 C 1295.73 -1.02342 2.111 0
M  V30 12987 C 1296.74 -1.38478 1.05355 0
M  V30 12988 O 1297.92 -1.47447 1.37191 0
M  V30 12989 C 1294.98 -2.30016 2.5941 0
M  V30 12990 C 1294.04 -2.003 3.79708 0
M  V30 12991 C 1293.28 -3.21888 4.25704 0
M  V30 12992 O 1293.5 -4.33171 3.71106 0
M  V30 12993 O 1292.43 -3.0657 5.17975 0
M  V30 12994 H 1296.26 -0.598637 2.97742 0
M  V30 12995 H 1293.84 -0.229779 1.47622 0
M  V30 12996 H 1295.73 -3.05044 2.90733 0
M  V30 12997 H 1294.4 -2.71755 1.75871 0
M  V30 12998 H 1293.31 -1.22785 3.53376 0
M  V30 12999 H 1294.64 -1.63406 4.64284 0
M  V30 13000 N 1296.29 -1.55015 -0.284256 0
M  V30 13001 C 1297.23 -1.83517 -1.3731 0
M  V30 13002 C 1298.24 -0.719009 -1.46062 0
M  V30 13003 O 1299.43 -0.996719 -1.4808 0
M  V30 13004 C 1296.53 -1.97309 -2.7554 0
M  V30 13005 C 1295.7 -3.2787 -2.89517 0
M  V30 13006 C 1294.76 -3.31868 -4.08351 0
M  V30 13007 O 1293.79 -4.05309 -3.99642 0
M  V30 13008 N 1294.99 -2.5846 -5.19787 0
M  V30 13009 H 1297.75 -2.77495 -1.1321 0
M  V30 13010 H 1295.31 -1.54795 -0.474359 0
M  V30 13011 H 1297.31 -1.97367 -3.53311 0
M  V30 13012 H 1295.88 -1.10249 -2.92513 0
M  V30 13013 H 1295.1 -3.40445 -1.98722 0
M  V30 13014 H 1296.38 -4.13996 -2.95779 0
M  V30 13015 H 1295.78 -1.98455 -5.29747 0
M  V30 13016 H 1294.34 -2.64253 -5.9583 0
M  V30 13017 N 1297.77 0.548248 -1.47757 0
M  V30 13018 C 1299.02 1.30243 -1.54535 0
M  V30 13019 C 1299.34 1.93832 -0.213089 0
M  V30 13020 O 1298.61 1.80397 0.763782 0
M  V30 13021 H 1297.19 0.483684 -0.569262 0
M  V30 13022 H 1299.85 0.639485 -1.8411 0
M  V30 13023 H 1298.95 2.09128 -2.31672 0
M  V30 13024 N 1299.25 1.36039 0.795694 0
M  V30 13025 C 1300.53 1.20474 1.54096 0
M  V30 13026 C 1300.91 -0.211691 2.10036 0
M  V30 13027 O 1300.25 -1.21656 1.93422 0
M  V30 13028 C 1300.46 2.28164 2.64087 0
M  V30 13029 C 1301.81 2.64519 3.32137 0
M  V30 13030 O 1302.84 2.2716 2.74366 0
M  V30 13031 O 1301.7 3.28796 4.36527 0
M  V30 13032 H 1298.79 0.468699 0.681359 0
M  V30 13033 H 1301.34 1.47752 0.834716 0
M  V30 13034 H 1300.11 3.23121 2.20701 0
M  V30 13035 H 1299.73 2.02217 3.42336 0
M  V30 13036 N 1300.73 -1.01913 1.20215 0
M  V30 13037 C 1301.68 -2.104 0.948708 0
M  V30 13038 C 1302.65 -1.65665 -0.120139 0
M  V30 13039 O 1303.83 -1.90785 0.0240547 0
M  V30 13040 C 1300.97 -3.41398 0.504132 0
M  V30 13041 C 1300.08 -3.99625 1.64085 0
M  V30 13042 C 1299.22 -5.18673 1.14683 0
M  V30 13043 C 1298.26 -5.68977 2.2568 0
M  V30 13044 N 1297.39 -6.79289 1.77514 0
M  V30 13045 H 1302.23 -2.31415 1.87753 0
M  V30 13046 H 1299.77 -1.13487 0.935901 0
M  V30 13047 H 1301.73 -4.16578 0.22771 0
M  V30 13048 H 1300.36 -3.20463 -0.387689 0
M  V30 13049 H 1299.41 -3.21565 2.03225 0
M  V30 13050 H 1300.72 -4.32965 2.47674 0
M  V30 13051 H 1299.88 -6.01048 0.826223 0
M  V30 13052 H 1298.62 -4.86891 0.280797 0
M  V30 13053 H 1297.62 -4.85208 2.5856 0
M  V30 13054 H 1298.85 -6.02794 3.12755 0
M  V30 13055 H 1296.79 -6.49341 0.932338 0
M  V30 13056 H 1296.71 -7.11808 2.54686 0
M  V30 13057 H 1297.98 -7.65235 1.48446 0
M  V30 13058 N 1302.21 -1.00763 -1.2118 0
M  V30 13059 C 1303.45 -0.692851 -1.90598 0
M  V30 13060 C 1303.79 0.774698 -1.78079 0
M  V30 13061 O 1303.06 1.56186 -1.15914 0
M  V30 13062 C 1303.34 -1.11792 -3.42308 0
M  V30 13063 C 1303.2 -2.64511 -3.63805 0
M  V30 13064 C 1304.52 -0.682314 -4.34779 0
M  V30 13065 H 1301.63 -0.253175 -0.69215 0
M  V30 13066 H 1304.28 -1.25378 -1.4276 0
M  V30 13067 H 1302.43 -0.640665 -3.83181 0
M  V30 13068 H 1304.1 -3.20021 -3.32242 0
M  V30 13069 H 1302.34 -3.05903 -3.0758 0
M  V30 13070 H 1303.01 -2.89306 -4.70113 0
M  V30 13071 H 1305.49 -1.09247 -4.01503 0
M  V30 13072 H 1304.36 -1.00787 -5.39568 0
M  V30 13073 H 1304.63 0.416441 -4.40134 0
M  V30 13074 N 1303.68 1.3679 -0.7827 0
M  V30 13075 C 1304.93 1.99023 -0.351316 0
M  V30 13076 C 1305.25 1.62436 1.07887 0
M  V30 13077 O 1304.52 0.895084 1.74256 0
M  V30 13078 H 1303.1 0.736141 -0.126909 0
M  V30 13079 H 1305.77 1.67095 -1.00325 0
M  V30 13080 H 1304.86 3.09015 -0.43774 0
M  V30 13081 N 1305.16 0.53415 1.48272 0
M  V30 13082 C 1306.41 0.00157492 2.028 0
M  V30 13083 C 1306.74 -1.33538 1.41001 0
M  V30 13084 O 1306.02 -1.86347 0.557245 0
M  V30 13085 C 1306.3 -0.116016 3.59913 0
M  V30 13086 C 1306.15 1.2464 4.32186 0
M  V30 13087 C 1307.47 -0.840775 4.31994 0
M  V30 13088 H 1304.59 0.00204634 0.736997 0
M  V30 13089 H 1307.23 0.691985 1.76951 0
M  V30 13090 H 1305.38 -0.704027 3.82068 0
M  V30 13091 H 1307.05 1.87584 4.21438 0
M  V30 13092 H 1305.3 1.8272 3.93441 0
M  V30 13093 H 1305.97 1.11708 5.40579 0
M  V30 13094 H 1308.44 -0.341746 4.14694 0
M  V30 13095 H 1307.32 -0.89196 5.41604 0
M  V30 13096 H 1307.58 -1.89197 3.99571 0
M  V30 13097 N 1306.64 -1.55279 0.269478 0
M  V30 13098 C 1308.05 -1.85286 -0.229372 0
M  V30 13099 C 1308.4 -1.19148 -1.55879 0
M  V30 13100 O 1307.53 -0.4778 -2.11059 0
M  V30 13101 C 1308.12 -3.3615 -0.42296 0
M  V30 13102 C 1306.68 -3.66301 -0.866047 0
M  V30 13103 C 1305.83 -2.77265 0.0439028 0
M  V30 13104 H 1308.78 -1.509 0.491427 0
M  V30 13105 H 1308.8 -3.5895 -1.26234 0
M  V30 13106 H 1308.31 -3.84258 0.544768 0
M  V30 13107 H 1306.41 -3.23688 -1.84545 0
M  V30 13108 H 1306.53 -4.73851 -0.707274 0
M  V30 13109 H 1304.89 -2.50299 -0.471433 0
M  V30 13110 H 1305.67 -3.28186 1.00741 0
M  V30 13111 N 1308.12 0.00332656 -1.576 0
M  V30 13112 C 1309.08 0.980628 -2.07163 0
M  V30 13113 C 1310.08 1.27455 -0.980402 0
M  V30 13114 O 1311.27 1.22029 -1.24317 0
M  V30 13115 C 1308.4 2.30647 -2.51028 0
M  V30 13116 H 1309.6 0.551982 -2.94776 0
M  V30 13117 H 1307.15 0.250728 -1.54276 0
M  V30 13118 H 1307.88 2.78207 -1.66647 0
M  V30 13119 H 1307.67 2.10635 -3.30719 0
M  V30 13120 H 1309.16 3.00761 -2.89711 0
M  V30 13121 N 1309.6 1.55164 0.276031 0
M  V30 13122 C 1310.53 1.82758 1.36656 0
M  V30 13123 C 1311.51 0.680405 1.4768 0
M  V30 13124 O 1312.69 0.923078 1.64352 0
M  V30 13125 C 1309.82 1.98651 2.74328 0
M  V30 13126 C 1308.86 3.21192 2.80603 0
M  V30 13127 S 1309.7 4.78628 2.40156 0
M  V30 13128 C 1310.85 4.9749 3.79809 0
M  V30 13129 H 1311.09 2.74969 1.13045 0
M  V30 13130 H 1308.62 1.46896 0.4755 0
M  V30 13131 H 1310.58 2.08492 3.53612 0
M  V30 13132 H 1309.24 1.07333 2.95192 0
M  V30 13133 H 1308.43 3.29189 3.81642 0
M  V30 13134 H 1308.03 3.09926 2.09337 0
M  V30 13135 H 1310.33 4.83045 4.75051 0
M  V30 13136 H 1311.27 5.99544 3.76765 0
M  V30 13137 H 1311.68 4.25489 3.70971 0
M  V30 13138 N 1311.07 -0.540404 1.48045 0
M  V30 13139 C 1312.3 -1.32656 1.59427 0
M  V30 13140 C 1312.72 -1.86419 0.250924 0
M  V30 13141 O 1312.08 -1.63861 -0.775838 0
M  V30 13142 C 1312.13 -2.46062 2.63602 0
M  V30 13143 O 1311.23 -3.48794 2.20038 0
M  V30 13144 H 1310.58 -0.393334 0.534962 0
M  V30 13145 H 1313.11 -0.651363 1.93955 0
M  V30 13146 H 1313.12 -2.92396 2.84549 0
M  V30 13147 H 1311.79 -2.06291 3.61133 0
M  V30 13148 H 1310.37 -3.0865 2.0926 0
M  V30 13149 N 1312.55 -1.36459 -0.788468 0
M  V30 13150 C 1313.78 -1.33898 -1.57731 0
M  V30 13151 C 1314.2 0.0795471 -1.88632 0
M  V30 13152 O 1313.55 1.03671 -1.50195 0
M  V30 13153 C 1313.6 -2.16134 -2.89773 0
M  V30 13154 O 1313.32 -3.52457 -2.60203 0
M  V30 13155 C 1314.83 -2.21364 -3.84074 0
M  V30 13156 H 1312.05 -0.459269 -0.489197 0
M  V30 13157 H 1314.59 -1.79569 -0.978526 0
M  V30 13158 H 1312.74 -1.74015 -3.46118 0
M  V30 13159 H 1313.16 -3.95378 -3.4464 0
M  V30 13160 H 1314.63 -2.83261 -4.7378 0
M  V30 13161 H 1315.11 -1.21736 -4.21992 0
M  V30 13162 H 1315.72 -2.63723 -3.33662 0
M  V30 13163 N 1314.03 1.01274 -1.20754 0
M  V30 13164 C 1314.96 2.11763 -0.983805 0
M  V30 13165 C 1315.94 1.69869 0.0885635 0
M  V30 13166 O 1317.13 1.94075 -0.0697239 0
M  V30 13167 C 1314.26 3.43087 -0.539287 0
M  V30 13168 C 1313.21 3.9874 -1.55534 0
M  V30 13169 C 1312.54 5.25877 -0.967322 0
M  V30 13170 C 1313.84 4.31688 -2.94012 0
M  V30 13171 H 1315.53 2.30737 -1.90789 0
M  V30 13172 H 1313.08 1.10884 -0.918734 0
M  V30 13173 H 1315.03 4.19773 -0.369979 0
M  V30 13174 H 1313.75 3.23883 0.420435 0
M  V30 13175 H 1312.41 3.24166 -1.71207 0
M  V30 13176 H 1312.06 5.03 0.000448307 0
M  V30 13177 H 1311.76 5.64077 -1.64594 0
M  V30 13178 H 1313.28 6.05215 -0.809167 0
M  V30 13179 H 1314.7 4.99246 -2.81827 0
M  V30 13180 H 1313.1 4.81011 -3.58815 0
M  V30 13181 H 1314.17 3.4029 -3.45442 0
M  V30 13182 N 1315.51 1.01404 1.20644 0
M  V30 13183 C 1316.76 0.700523 1.89571 0
M  V30 13184 C 1317.08 -0.771978 1.79068 0
M  V30 13185 O 1316.35 -1.55506 1.19142 0
M  V30 13186 H 1314.93 0.256122 0.70172 0
M  V30 13187 H 1317.59 1.28509 1.46531 0
M  V30 13188 H 1316.69 0.981665 2.9626 0
M  V30 13189 N 1316.99 -1.36373 0.789944 0
M  V30 13190 C 1318.21 -2.04011 0.373396 0
M  V30 13191 C 1318.64 -1.59171 -1.00231 0
M  V30 13192 O 1318 -0.760431 -1.64582 0
M  V30 13193 C 1318.04 -3.5783 0.446083 0
M  V30 13194 O 1317.15 -4.08759 -0.54678 0
M  V30 13195 H 1316.49 -0.644807 0.158495 0
M  V30 13196 H 1319.02 -1.74317 1.0712 0
M  V30 13197 H 1319.03 -4.06822 0.309877 0
M  V30 13198 H 1317.7 -3.89819 1.44962 0
M  V30 13199 H 1316.28 -3.71038 -0.372192 0
M  V30 13200 N 1318.47 -0.542005 -1.47987 0
M  V30 13201 C 1319.69 -0.0146835 -2.07395 0
M  V30 13202 C 1320.12 1.26266 -1.39422 0
M  V30 13203 O 1319.47 1.75259 -0.464118 0
M  V30 13204 C 1319.52 0.179937 -3.60151 0
M  V30 13205 O 1318.63 1.24596 -3.93128 0
M  V30 13206 H 1317.97 -0.0445076 -0.662507 0
M  V30 13207 H 1320.5 -0.753352 -1.90226 0
M  V30 13208 H 1320.51 0.398876 -4.06046 0
M  V30 13209 H 1319.18 -0.753093 -4.09025 0
M  V30 13210 H 1317.76 1.00872 -3.58997 0
M  V30 13211 N 1319.94 1.55134 -0.277709 0
M  V30 13212 C 1321.17 2.04519 0.344472 0
M  V30 13213 C 1321.59 1.15466 1.4849 0
M  V30 13214 O 1320.95 0.153798 1.80646 0
M  V30 13215 C 1321 3.51602 0.800527 0
M  V30 13216 O 1320.1 3.65632 1.90754 0
M  V30 13217 H 1319.44 0.660212 0.0708226 0
M  V30 13218 H 1321.97 2.00393 -0.412764 0
M  V30 13219 H 1321.98 3.93015 1.09559 0
M  V30 13220 H 1320.66 4.15886 -0.033838 0
M  V30 13221 H 1319.24 3.36122 1.61481 0
M  V30 13222 N 1321.42 0.00503138 1.57599 0
M  V30 13223 C 1322.65 -0.693231 1.95471 0
M  V30 13224 C 1323.07 -1.66233 0.880246 0
M  V30 13225 O 1322.43 -1.80582 -0.161164 0
M  V30 13226 C 1322.48 -1.39696 3.32442 0
M  V30 13227 O 1321.58 -2.51154 3.27101 0
M  V30 13228 H 1320.92 -0.184015 0.637992 0
M  V30 13229 H 1323.45 0.0597194 2.04513 0
M  V30 13230 H 1323.46 -1.75924 3.68123 0
M  V30 13231 H 1322.14 -0.686438 4.10196 0
M  V30 13232 H 1320.71 -2.17216 3.03103 0
M  V30 13233 N 1322.9 -1.55308 -0.267798 0
M  V30 13234 C 1323.83 -1.84963 -1.35356 0
M  V30 13235 C 1324.84 -0.73446 -1.45291 0
M  V30 13236 O 1326.03 -1.01237 -1.47015 0
M  V30 13237 C 1323.13 -2.00221 -2.73432 0
M  V30 13238 C 1322.31 -3.30922 -2.86024 0
M  V30 13239 C 1321.37 -3.3618 -4.04808 0
M  V30 13240 O 1320.39 -4.09525 -3.9532 0
M  V30 13241 N 1321.59 -2.63958 -5.17017 0
M  V30 13242 H 1324.36 -2.7868 -1.1026 0
M  V30 13243 H 1321.92 -1.55289 -0.457914 0
M  V30 13244 H 1323.91 -2.01103 -3.51197 0
M  V30 13245 H 1322.48 -1.13346 -2.91327 0
M  V30 13246 H 1321.7 -3.42534 -1.951 0
M  V30 13247 H 1322.99 -4.17109 -2.91371 0
M  V30 13248 H 1322.39 -2.04062 -5.27613 0
M  V30 13249 H 1320.94 -2.70558 -5.92994 0
M  V30 13250 N 1324.38 0.532545 -1.4833 0
M  V30 13251 C 1325.79 1.11451 -1.49785 0
M  V30 13252 C 1326.14 1.94386 -0.266207 0
M  V30 13253 O 1325.26 2.07121 0.62688 0
M  V30 13254 C 1325.86 2.0279 -2.71407 0
M  V30 13255 C 1324.42 2.56209 -2.75742 0
M  V30 13256 C 1323.57 1.33114 -2.43261 0
M  V30 13257 H 1326.52 0.317924 -1.55483 0
M  V30 13258 H 1326.54 2.87038 -2.49779 0
M  V30 13259 H 1326.05 1.42401 -3.61031 0
M  V30 13260 H 1324.15 3.20327 -1.9032 0
M  V30 13261 H 1324.26 2.95518 -3.77102 0
M  V30 13262 H 1322.63 1.64607 -1.94362 0
M  V30 13263 H 1323.41 0.744809 -3.35123 0
M  V30 13264 N 1325.86 1.36875 0.78122 0
M  V30 13265 C 1326.81 1.28392 1.88413 0
M  V30 13266 C 1327.79 0.173687 1.5996 0
M  V30 13267 O 1328.98 0.407238 1.72251 0
M  V30 13268 C 1326.11 1.08368 3.25747 0
M  V30 13269 C 1325.2 2.23894 3.60184 0
M  V30 13270 N 1325.59 3.49247 3.65869 0
M  V30 13271 C 1323.89 2.1584 3.90294 0
M  V30 13272 C 1324.59 4.2537 3.96781 0
M  V30 13273 N 1323.56 3.54402 4.1219 0
M  V30 13274 H 1327.36 2.23334 1.91047 0
M  V30 13275 H 1324.88 1.29711 0.977175 0
M  V30 13276 H 1326.88 1.00376 4.04636 0
M  V30 13277 H 1325.54 0.143334 3.24383 0
M  V30 13278 H 1326.55 3.83276 3.4831 0
M  V30 13279 H 1323.22 1.29808 3.96807 0
M  V30 13280 H 1324.61 5.33814 4.08035 0
M  V30 13281 N 1327.33 -1.00632 1.21289 0
M  V30 13282 C 1328.74 -1.55838 1.02817 0
M  V30 13283 C 1329.1 -1.91816 -0.412425 0
M  V30 13284 O 1328.22 -1.73342 -1.29543 0
M  V30 13285 C 1328.82 -2.83168 1.86014 0
M  V30 13286 C 1327.37 -3.34865 1.71879 0
M  V30 13287 C 1326.52 -2.0807 1.83309 0
M  V30 13288 H 1329.47 -0.828939 1.3533 0
M  V30 13289 H 1329.49 -3.54996 1.36961 0
M  V30 13290 H 1329.01 -2.56951 2.90857 0
M  V30 13291 H 1327.11 -3.6602 0.697153 0
M  V30 13292 H 1327.22 -4.06374 2.53766 0
M  V30 13293 H 1325.58 -2.21006 1.26603 0
M  V30 13294 H 1326.37 -1.84267 2.89656 0
M  V30 13295 N 1328.81 -1.02043 -1.20104 0
M  V30 13296 C 1329.72 -0.603724 -2.26699 0
M  V30 13297 C 1330.74 0.360558 -1.70223 0
M  V30 13298 O 1331.91 0.220552 -2.00189 0
M  V30 13299 C 1328.98 0.0475988 -3.46667 0
M  V30 13300 C 1328.04 -0.963111 -4.18357 0
M  V30 13301 C 1327.27 -0.342775 -5.32598 0
M  V30 13302 O 1327.5 0.856509 -5.63933 0
M  V30 13303 O 1326.43 -1.06141 -5.92467 0
M  V30 13304 H 1330.26 -1.49125 -2.64566 0
M  V30 13305 H 1327.84 -0.790134 -1.26796 0
M  V30 13306 H 1329.72 0.411177 -4.19389 0
M  V30 13307 H 1328.4 0.909266 -3.10667 0
M  V30 13308 H 1327.3 -1.37813 -3.47791 0
M  V30 13309 H 1328.64 -1.79487 -4.58307 0
M  V30 13310 N 1330.29 1.35952 -0.797165 0
M  V30 13311 C 1331.7 1.81554 -0.435311 0
M  V30 13312 C 1332.05 1.66266 1.04164 0
M  V30 13313 O 1331.18 1.18796 1.80877 0
M  V30 13314 C 1331.77 3.29619 -0.783358 0
M  V30 13315 C 1330.33 3.73401 -0.47423 0
M  V30 13316 C 1329.48 2.58098 -1.01394 0
M  V30 13317 H 1332.43 1.24064 -0.989638 0
M  V30 13318 H 1332.45 3.80421 -0.0773381 0
M  V30 13319 H 1331.96 3.40715 -1.85836 0
M  V30 13320 H 1330.06 3.6786 0.592418 0
M  V30 13321 H 1330.18 4.68542 -1.00026 0
M  V30 13322 H 1328.54 2.50927 -0.436747 0
M  V30 13323 H 1329.32 2.71976 -2.09485 0
M  V30 13324 N 1331.77 0.549846 1.47697 0
M  V30 13325 C 1332.68 -0.205286 2.337 0
M  V30 13326 C 1333.69 -0.919271 1.47734 0
M  V30 13327 O 1334.87 -0.889808 1.80678 0
M  V30 13328 C 1331.94 -1.22658 3.24278 0
M  V30 13329 C 1331 -0.520815 4.26129 0
M  V30 13330 C 1330.23 -1.49345 5.12378 0
M  V30 13331 O 1330.45 -2.72772 5.00951 0
M  V30 13332 O 1329.39 -1.02197 5.93161 0
M  V30 13333 H 1333.21 0.499982 2.99556 0
M  V30 13334 H 1330.8 0.310538 1.46137 0
M  V30 13335 H 1332.68 -1.8163 3.80248 0
M  V30 13336 H 1331.35 -1.9139 2.61059 0
M  V30 13337 H 1330.26 0.109906 3.73939 0
M  V30 13338 H 1331.59 0.124922 4.92041 0
M  V30 13339 N 1333.25 -1.54984 0.285932 0
M  V30 13340 C 1334.52 -1.91872 -0.380083 0
M  V30 13341 C 1334.9 -1.21146 -1.72878 0
M  V30 13342 O 1334.25 -0.341999 -2.25926 0
M  V30 13343 C 1334.46 -3.45258 -0.509667 0
M  V30 13344 C 1335.81 -4.17232 -0.787549 0
M  V30 13345 O 1336.83 -3.51211 -0.594062 0
M  V30 13346 O 1335.69 -5.34085 -1.15826 0
M  V30 13347 H 1332.79 -0.799931 -0.209856 0
M  V30 13348 H 1335.33 -1.66403 0.332882 0
M  V30 13349 H 1334.1 -3.88829 0.439049 0
M  V30 13350 H 1333.73 -3.76715 -1.27168 0
M  V30 13351 N 1334.72 -0.0133892 -1.57594 0
M  V30 13352 C 1335.66 1.00211 -2.06132 0
M  V30 13353 C 1336.67 1.29869 -0.98173 0
M  V30 13354 O 1337.86 1.2661 -1.25826 0
M  V30 13355 C 1334.96 2.33354 -2.45763 0
M  V30 13356 C 1334.13 2.22441 -3.76615 0
M  V30 13357 C 1333.19 3.38385 -4.02967 0
M  V30 13358 O 1332.22 3.15973 -4.73445 0
M  V30 13359 N 1333.42 4.61672 -3.51908 0
M  V30 13360 H 1336.18 0.588079 -2.93874 0
M  V30 13361 H 1333.74 0.173714 -1.60965 0
M  V30 13362 H 1335.74 3.09716 -2.60496 0
M  V30 13363 H 1334.31 2.66451 -1.6347 0
M  V30 13364 H 1333.53 1.30905 -3.7183 0
M  V30 13365 H 1334.81 2.12337 -4.62375 0
M  V30 13366 H 1334.21 4.82777 -2.9486 0
M  V30 13367 H 1332.77 5.35256 -3.71947 0
M  V30 13368 N 1336.2 1.55448 0.259558 0
M  V30 13369 C 1337.45 1.76948 0.990816 0
M  V30 13370 C 1337.78 0.576401 1.85449 0
M  V30 13371 O 1337.06 -0.425693 1.89784 0
M  V30 13372 C 1337.34 3.08221 1.86204 0
M  V30 13373 C 1337.19 4.37909 1.0274 0
M  V30 13374 C 1338.51 3.35627 2.84679 0
M  V30 13375 H 1335.63 0.64377 0.358788 0
M  V30 13376 H 1338.27 1.88182 0.262211 0
M  V30 13377 H 1336.42 2.98775 2.48326 0
M  V30 13378 H 1338.09 4.5933 0.425855 0
M  V30 13379 H 1336.34 4.32533 0.331308 0
M  V30 13380 H 1337.01 5.26116 1.6705 0
M  V30 13381 H 1339.48 3.44954 2.32693 0
M  V30 13382 H 1338.36 4.28719 3.42769 0
M  V30 13383 H 1338.62 2.55921 3.60496 0
M  V30 13384 N 1337.68 -0.524672 1.4861 0
M  V30 13385 C 1338.59 -1.65554 1.6622 0
M  V30 13386 C 1339.61 -1.65254 0.54471 0
M  V30 13387 O 1340.78 -1.84109 0.816454 0
M  V30 13388 C 1337.85 -3.02003 1.7028 0
M  V30 13389 C 1336.91 -3.13116 2.93695 0
M  V30 13390 C 1336.14 -4.43055 2.97553 0
M  V30 13391 O 1336.36 -5.30468 2.09667 0
M  V30 13392 O 1335.3 -4.58646 3.89779 0
M  V30 13393 H 1339.12 -1.53633 2.61974 0
M  V30 13394 H 1336.71 -0.698354 1.32073 0
M  V30 13395 H 1338.59 -3.83143 1.75441 0
M  V30 13396 H 1337.27 -3.14236 0.777002 0
M  V30 13397 H 1336.17 -2.31251 2.94064 0
M  V30 13398 H 1337.51 -3.058 3.85677 0
M  V30 13399 N 1339.16 -1.37287 -0.77395 0
M  V30 13400 C 1340.39 -1.35563 -1.56302 0
M  V30 13401 C 1340.8 0.0595356 -1.88706 0
M  V30 13402 O 1340.16 1.02072 -1.51286 0
M  V30 13403 C 1340.21 -2.19195 -2.87464 0
M  V30 13404 O 1339.93 -3.55197 -2.5645 0
M  V30 13405 C 1341.43 -2.25425 -3.81704 0
M  V30 13406 H 1338.65 -0.464431 -0.484298 0
M  V30 13407 H 1341.2 -1.80597 -0.959425 0
M  V30 13408 H 1339.35 -1.77676 -3.44253 0
M  V30 13409 H 1339.76 -3.99011 -3.40427 0
M  V30 13410 H 1341.24 -2.8827 -4.70749 0
M  V30 13411 H 1341.72 -1.26205 -4.20677 0
M  V30 13412 H 1342.32 -2.67247 -3.30846 0
M  V30 13413 N 1340.64 0.999871 -1.21821 0
M  V30 13414 C 1341.57 2.09044 -0.939852 0
M  V30 13415 C 1342.58 1.62609 0.0788987 0
M  V30 13416 O 1343.77 1.77832 -0.154241 0
M  V30 13417 C 1340.87 3.36641 -0.390618 0
M  V30 13418 C 1340.04 4.12139 -1.46493 0
M  V30 13419 C 1339.1 5.18023 -0.924019 0
M  V30 13420 O 1338.13 5.45996 -1.60864 0
M  V30 13421 N 1339.33 5.79926 0.258136 0
M  V30 13422 H 1342.1 2.33506 -1.8787 0
M  V30 13423 H 1339.66 1.16509 -1.12415 0
M  V30 13424 H 1341.65 4.04697 -0.0142349 0
M  V30 13425 H 1340.22 3.09298 0.453176 0
M  V30 13426 H 1339.44 3.38813 -2.01494 0
M  V30 13427 H 1340.73 4.59354 -2.18795 0
M  V30 13428 H 1340.12 5.59559 0.831288 0
M  V30 13429 H 1338.68 6.4925 0.575977 0
M  V30 13430 N 1342.11 1.02678 1.19562 0
M  V30 13431 C 1343.36 0.72059 1.88817 0
M  V30 13432 C 1343.68 -0.752942 1.79877 0
M  V30 13433 O 1342.95 -1.54233 1.20785 0
M  V30 13434 H 1341.53 0.26355 0.698964 0
M  V30 13435 H 1344.2 1.30056 1.4516 0
M  V30 13436 H 1343.29 1.01303 2.95202 0
M  V30 13437 N 1343.59 -1.35528 0.804364 0
M  V30 13438 C 1344.82 -2.03073 0.396091 0
M  V30 13439 C 1345.24 -1.60623 -0.992252 0
M  V30 13440 O 1344.59 -0.802718 -1.63898 0
M  V30 13441 C 1344.64 -3.58467 0.467301 0
M  V30 13442 O 1344.36 -3.99373 1.80091 0
M  V30 13443 C 1345.87 -4.4327 0.0515549 0
M  V30 13444 H 1343.09 -0.651346 0.161212 0
M  V30 13445 H 1345.63 -1.73195 1.08737 0
M  V30 13446 H 1343.78 -3.87001 -0.175703 0
M  V30 13447 H 1344.2 -4.94013 1.76214 0
M  V30 13448 H 1345.67 -5.51789 0.152499 0
M  V30 13449 H 1346.15 -4.27597 -1.00286 0
M  V30 13450 H 1346.76 -4.20027 0.667628 0
M  V30 13451 N 1345.07 -0.557671 -1.47404 0
M  V30 13452 C 1346.3 -0.0366797 -2.07368 0
M  V30 13453 C 1346.72 1.2478 -1.40754 0
M  V30 13454 O 1346.08 1.74757 -0.48268 0
M  V30 13455 C 1346.13 0.141728 -3.60321 0
M  V30 13456 O 1345.23 1.20419 -3.94427 0
M  V30 13457 H 1344.57 -0.0515319 -0.661997 0
M  V30 13458 H 1347.1 -0.773485 -1.89416 0
M  V30 13459 H 1347.11 0.355787 -4.06446 0
M  V30 13460 H 1345.79 -0.796433 -4.08203 0
M  V30 13461 H 1344.36 0.970589 -3.60047 0
M  V30 13462 N 1346.55 1.54831 -0.294147 0
M  V30 13463 C 1347.8 1.99606 0.316509 0
M  V30 13464 C 1348.12 1.18405 1.54936 0
M  V30 13465 O 1347.39 0.278289 1.93913 0
M  V30 13466 H 1345.97 0.737309 0.119938 0
M  V30 13467 H 1348.63 1.90669 -0.403891 0
M  V30 13468 H 1347.73 3.06409 0.593282 0
M  V30 13469 N 1348.03 0.0217466 1.57585 0
M  V30 13470 C 1348.99 -0.947546 2.08696 0
M  V30 13471 C 1349.99 -1.25879 1.00055 0
M  V30 13472 O 1351.18 -1.20035 1.26242 0
M  V30 13473 C 1348.31 -2.26624 2.54665 0
M  V30 13474 H 1349.51 -0.505016 2.95617 0
M  V30 13475 H 1347.06 -0.226152 1.54655 0
M  V30 13476 H 1347.79 -2.75521 1.71052 0
M  V30 13477 H 1347.58 -2.05347 3.34028 0
M  V30 13478 H 1349.07 -2.96114 2.94459 0
M  V30 13479 N 1349.51 -1.55583 -0.251311 0
M  V30 13480 C 1350.73 -1.81597 -1.00186 0
M  V30 13481 C 1351.16 -0.598216 -1.78334 0
M  V30 13482 O 1350.51 0.452667 -1.75558 0
M  V30 13483 C 1350.56 -3.05301 -1.91895 0
M  V30 13484 O 1349.67 -2.81907 -3.01002 0
M  V30 13485 H 1349.01 -0.599578 -0.285311 0
M  V30 13486 H 1351.54 -2.02762 -0.273638 0
M  V30 13487 H 1351.55 -3.34616 -2.33444 0
M  V30 13488 H 1350.22 -3.93574 -1.34433 0
M  V30 13489 H 1348.8 -2.63747 -2.63613 0
M  V30 13490 N 1350.98 0.516783 -1.48886 0
M  V30 13491 C 1352.23 1.27375 -1.57808 0
M  V30 13492 C 1352.56 1.92492 -0.256963 0
M  V30 13493 O 1351.84 1.79947 0.738193 0
M  V30 13494 C 1352.12 2.35295 -2.72595 0
M  V30 13495 C 1351.97 1.74783 -4.14453 0
M  V30 13496 C 1353.29 3.36973 -2.83085 0
M  V30 13497 H 1350.41 0.46175 -0.574418 0
M  V30 13498 H 1353.05 0.57434 -1.81111 0
M  V30 13499 H 1351.2 2.94951 -2.52857 0
M  V30 13500 H 1352.88 1.19076 -4.45666 0
M  V30 13501 H 1351.12 1.05258 -4.20836 0
M  V30 13502 H 1351.79 2.52985 -4.90615 0
M  V30 13503 H 1354.27 2.87289 -3.01005 0
M  V30 13504 H 1353.14 4.09864 -3.65106 0
M  V30 13505 H 1353.4 3.98336 -1.91784 0
M  V30 13506 N 1352.46 1.37696 0.766659 0
M  V30 13507 C 1353.87 1.29668 1.34324 0
M  V30 13508 C 1354.22 -0.0534297 1.96127 0
M  V30 13509 O 1353.35 -0.95534 1.94171 0
M  V30 13510 C 1353.94 2.34818 2.44225 0
M  V30 13511 C 1352.5 2.3041 2.97638 0
M  V30 13512 C 1351.65 2.18378 1.70899 0
M  V30 13513 H 1354.6 1.48244 0.566526 0
M  V30 13514 H 1354.62 1.99778 3.23835 0
M  V30 13515 H 1354.13 3.3307 1.99214 0
M  V30 13516 H 1352.23 1.35698 3.47011 0
M  V30 13517 H 1352.35 3.24028 3.52906 0
M  V30 13518 H 1350.71 1.65008 1.94021 0
M  V30 13519 H 1351.49 3.18551 1.27985 0
M  V30 13520 N 1353.94 -0.993397 1.22349 0
M  V30 13521 C 1355.35 -1.54739 1.04465 0
M  V30 13522 C 1355.7 -1.92243 -0.392057 0
M  V30 13523 O 1354.83 -1.74707 -1.27697 0
M  V30 13524 C 1355.42 -2.81179 1.89007 0
M  V30 13525 C 1353.98 -3.33023 1.75421 0
M  V30 13526 C 1353.13 -2.06114 1.85505 0
M  V30 13527 H 1356.08 -0.814539 1.36202 0
M  V30 13528 H 1356.1 -3.53523 1.40718 0
M  V30 13529 H 1355.61 -2.53851 2.93566 0
M  V30 13530 H 1353.71 -3.6526 0.735935 0
M  V30 13531 H 1353.83 -4.03659 2.58062 0
M  V30 13532 H 1352.19 -2.19651 1.2894 0
M  V30 13533 H 1352.97 -1.81184 2.91594 0
M  V30 13534 N 1355.42 -1.03311 -1.19015 0
M  V30 13535 C 1356.37 -0.588076 -2.20285 0
M  V30 13536 C 1357.35 0.365442 -1.56695 0
M  V30 13537 O 1358.54 0.185725 -1.76023 0
M  V30 13538 C 1355.67 0.0553478 -3.43255 0
M  V30 13539 C 1354.76 -0.920863 -4.13982 0
M  V30 13540 N 1355.15 -2.08495 -4.60829 0
M  V30 13541 C 1353.45 -0.74522 -4.3973 0
M  V30 13542 C 1354.15 -2.701 -5.1519 0
M  V30 13543 N 1353.12 -1.98031 -5.06246 0
M  V30 13544 H 1356.93 -1.47529 -2.54189 0
M  V30 13545 H 1354.44 -0.900663 -1.35136 0
M  V30 13546 H 1356.44 0.39182 -4.15055 0
M  V30 13547 H 1355.1 0.938199 -3.1085 0
M  V30 13548 H 1356.11 -2.46418 -4.5552 0
M  V30 13549 H 1352.79 0.088182 -4.17407 0
M  V30 13550 H 1354.18 -3.6871 -5.61696 0
M  V30 13551 N 1356.9 1.35099 -0.81154 0
M  V30 13552 C 1357.83 2.28468 -0.183012 0
M  V30 13553 C 1358.84 1.50509 0.620553 0
M  V30 13554 O 1360.03 1.7268 0.4521 0
M  V30 13555 C 1357.13 3.30201 0.762933 0
M  V30 13556 C 1356.3 4.374 0.00466561 0
M  V30 13557 C 1355.36 5.18961 0.869832 0
M  V30 13558 O 1354.39 5.68306 0.318964 0
M  V30 13559 N 1355.59 5.37555 2.19123 0
M  V30 13560 H 1358.35 2.83046 -0.985132 0
M  V30 13561 H 1355.92 1.47502 -0.667449 0
M  V30 13562 H 1357.91 3.81659 1.34606 0
M  V30 13563 H 1356.48 2.76101 1.46584 0
M  V30 13564 H 1355.7 3.8681 -0.759702 0
M  V30 13565 H 1356.99 5.06159 -0.517739 0
M  V30 13566 H 1356.38 4.99118 2.66266 0
M  V30 13567 H 1354.94 5.92174 2.72348 0
M  V30 13568 N 1358.37 0.56548 1.47106 0
M  V30 13569 C 1359.6 0.0476763 2.07345 0
M  V30 13570 C 1360.02 -1.24032 1.41413 0
M  V30 13571 O 1359.38 -1.74498 0.491941 0
M  V30 13572 C 1359.43 -0.122618 3.60391 0
M  V30 13573 O 1358.53 -1.18326 3.9506 0
M  V30 13574 H 1357.87 0.0550419 0.661715 0
M  V30 13575 H 1360.4 0.78352 1.89003 0
M  V30 13576 H 1360.41 -0.334227 4.06629 0
M  V30 13577 H 1359.09 0.81807 4.07775 0
M  V30 13578 H 1357.67 -0.951481 3.60557 0
M  V30 13579 N 1359.85 -1.54672 0.302354 0
M  V30 13580 C 1361.08 -2.05041 -0.311891 0
M  V30 13581 C 1361.5 -1.17814 -1.46634 0
M  V30 13582 O 1360.86 -0.182517 -1.80379 0
M  V30 13583 C 1360.91 -3.52831 -0.744489 0
M  V30 13584 O 1360.01 -3.68621 -1.84913 0
M  V30 13585 H 1359.35 -0.661255 -0.0603102 0
M  V30 13586 H 1361.88 -1.99711 0.444593 0
M  V30 13587 H 1361.89 -3.94708 -1.03293 0
M  V30 13588 H 1360.57 -4.1578 0.0999976 0
M  V30 13589 H 1359.15 -3.38649 -1.56113 0
M  V30 13590 N 1361.33 -0.0301034 -1.57571 0
M  V30 13591 C 1362.74 0.508591 -1.79639 0
M  V30 13592 C 1363.09 1.72191 -0.940458 0
M  V30 13593 O 1362.22 2.15872 -0.151138 0
M  V30 13594 C 1362.81 0.929446 -3.25802 0
M  V30 13595 C 1361.37 1.41325 -3.48861 0
M  V30 13596 C 1360.52 0.378433 -2.74706 0
M  V30 13597 H 1363.47 -0.256131 -1.56619 0
M  V30 13598 H 1363.49 1.79374 -3.35567 0
M  V30 13599 H 1363 0.0461738 -3.88073 0
M  V30 13600 H 1361.1 2.31641 -2.91844 0
M  V30 13601 H 1361.22 1.41995 -4.57574 0
M  V30 13602 H 1359.58 0.846744 -2.40213 0
M  V30 13603 H 1360.36 -0.49639 -3.39692 0
M  V30 13604 N 1362.81 1.55714 0.243056 0
M  V30 13605 C 1363.74 1.93655 1.30461 0
M  V30 13606 C 1364.72 0.801968 1.50008 0
M  V30 13607 O 1365.9 1.06256 1.62552 0
M  V30 13608 C 1363.03 2.23459 2.65863 0
M  V30 13609 C 1361.99 3.39205 2.61006 0
M  V30 13610 C 1361.31 3.5456 4.00239 0
M  V30 13611 C 1362.61 4.74787 2.17656 0
M  V30 13612 H 1364.31 2.82575 0.98954 0
M  V30 13613 H 1361.85 1.35955 0.474572 0
M  V30 13614 H 1363.81 2.48591 3.40266 0
M  V30 13615 H 1362.53 1.31369 2.99014 0
M  V30 13616 H 1361.19 3.14088 1.89061 0
M  V30 13617 H 1360.84 2.59884 4.30661 0
M  V30 13618 H 1360.54 4.32399 3.97876 0
M  V30 13619 H 1362.06 3.82017 4.76335 0
M  V30 13620 H 1363.48 4.99266 2.81792 0
M  V30 13621 H 1361.87 5.55756 2.26397 0
M  V30 13622 H 1362.94 4.7159 1.12831 0
M  V30 13623 N 1364.29 -0.50888 1.49158 0
M  V30 13624 C 1365.53 -1.261 1.57934 0
M  V30 13625 C 1365.86 -1.93199 0.264405 0
M  V30 13626 O 1365.13 -1.82359 -0.715684 0
M  V30 13627 H 1363.71 -0.468421 0.581886 0
M  V30 13628 H 1366.37 -0.590447 1.85741 0
M  V30 13629 H 1365.46 -2.02913 2.37135 0
M  V30 13630 N 1365.76 -1.381 -0.759346 0
M  V30 13631 C 1366.71 -1.34866 -1.87296 0
M  V30 13632 C 1367.68 -0.212139 -1.6474 0
M  V30 13633 O 1368.87 -0.403464 -1.86485 0
M  V30 13634 C 1366.01 -1.17383 -3.24523 0
M  V30 13635 C 1365.12 -2.40372 -3.5895 0
M  V30 13636 C 1364.25 -2.15665 -4.8545 0
M  V30 13637 C 1363.29 -3.34455 -5.12646 0
M  V30 13638 N 1362.43 -3.0922 -6.30339 0
M  V30 13639 H 1367.27 -2.30072 -1.89396 0
M  V30 13640 H 1364.81 -1.14314 -0.925788 0
M  V30 13641 H 1366.77 -1.05264 -4.03702 0
M  V30 13642 H 1365.4 -0.258182 -3.21766 0
M  V30 13643 H 1364.45 -2.63185 -2.74659 0
M  V30 13644 H 1365.76 -3.28926 -3.74978 0
M  V30 13645 H 1364.91 -2.00649 -5.7256 0
M  V30 13646 H 1363.65 -1.24467 -4.7155 0
M  V30 13647 H 1362.66 -3.49997 -4.24007 0
M  V30 13648 H 1363.88 -4.26521 -5.28448 0
M  V30 13649 H 1361.83 -2.20664 -6.17773 0
M  V30 13650 H 1361.75 -3.91321 -6.46841 0
M  V30 13651 H 1363.01 -2.97847 -7.20352 0
M  V30 13652 N 1367.24 0.986894 -1.22875 0
M  V30 13653 C 1368.65 1.54182 -1.05284 0
M  V30 13654 C 1369 1.92448 0.381856 0
M  V30 13655 O 1368.13 1.75381 1.26769 0
M  V30 13656 C 1368.72 2.80173 -1.90496 0
M  V30 13657 C 1367.28 3.32088 -1.77185 0
M  V30 13658 C 1366.43 2.05128 -1.86596 0
M  V30 13659 H 1369.38 0.807304 -1.36632 0
M  V30 13660 H 1369.4 3.52772 -1.42591 0
M  V30 13661 H 1368.91 2.52291 -2.94908 0
M  V30 13662 H 1367.02 3.64864 -0.755295 0
M  V30 13663 H 1367.13 4.02285 -2.60199 0
M  V30 13664 H 1365.49 2.18964 -1.30103 0
M  V30 13665 H 1366.28 1.79635 -2.92551 0
M  V30 13666 N 1368.72 1.0394 1.18466 0
M  V30 13667 C 1369.68 0.633804 2.20262 0
M  V30 13668 C 1370.68 -0.308136 1.5782 0
M  V30 13669 O 1371.87 -0.0937087 1.73948 0
M  V30 13670 C 1369.01 -0.0709693 3.40826 0
M  V30 13671 H 1370.2 1.53463 2.57661 0
M  V30 13672 H 1367.75 0.831806 1.32328 0
M  V30 13673 H 1368.49 -0.985659 3.08958 0
M  V30 13674 H 1368.27 0.606023 3.87388 0
M  V30 13675 H 1369.76 -0.341298 4.16203 0
M  V30 13676 N 1370.2 -1.34667 0.818693 0
M  V30 13677 C 1371.44 -1.98708 0.405359 0
M  V30 13678 C 1371.78 -1.64767 -1.02788 0
M  V30 13679 O 1371.05 -0.91714 -1.71519 0
M  V30 13680 C 1371.34 -3.55016 0.602966 0
M  V30 13681 C 1371.19 -3.98713 2.08201 0
M  V30 13682 C 1372.51 -4.40085 0.0362489 0
M  V30 13683 H 1369.63 -0.721831 0.148756 0
M  V30 13684 H 1372.27 -1.59628 1.03047 0
M  V30 13685 H 1370.42 -3.88435 0.0708453 0
M  V30 13686 H 1372.09 -3.75647 2.67745 0
M  V30 13687 H 1370.33 -3.49179 2.57403 0
M  V30 13688 H 1371 -5.0751 2.17111 0
M  V30 13689 H 1373.48 -4.13195 0.490837 0
M  V30 13690 H 1372.36 -5.4852 0.204344 0
M  V30 13691 H 1372.62 -4.29243 -1.05845 0
M  V30 13692 N 1371.68 -0.573274 -1.46804 0
M  V30 13693 C 1373.09 -0.144162 -1.86143 0
M  V30 13694 C 1373.44 1.29033 -1.47801 0
M  V30 13695 O 1372.56 1.97319 -0.888494 0
M  V30 13696 C 1373.16 -0.254851 -3.3784 0
M  V30 13697 C 1371.72 0.119325 -3.76211 0
M  V30 13698 C 1370.86 -0.595115 -2.70839 0
M  V30 13699 H 1373.82 -0.782057 -1.38093 0
M  V30 13700 H 1373.84 0.522321 -3.76898 0
M  V30 13701 H 1373.35 -1.29899 -3.65715 0
M  V30 13702 H 1371.45 1.16396 -3.53953 0
M  V30 13703 H 1371.56 -0.250421 -4.78445 0
M  V30 13704 H 1369.93 -0.0364028 -2.54674 0
M  V30 13705 H 1370.71 -1.64072 -3.01555 0
M  V30 13706 N 1373.15 1.5451 -0.310553 0
M  V30 13707 C 1374.57 1.85829 0.180166 0
M  V30 13708 C 1374.92 1.23239 1.52665 0
M  V30 13709 O 1374.04 0.53359 2.09718 0
M  V30 13710 C 1374.64 3.37153 0.333687 0
M  V30 13711 C 1373.2 3.68469 0.768625 0
M  V30 13712 C 1372.34 2.77051 -0.117399 0
M  V30 13713 H 1375.29 1.49544 -0.531262 0
M  V30 13714 H 1375.31 3.62171 1.16673 0
M  V30 13715 H 1374.83 3.82678 -0.646455 0
M  V30 13716 H 1372.93 3.28467 1.75898 0
M  V30 13717 H 1373.04 4.75559 0.581392 0
M  V30 13718 H 1371.4 2.51461 0.404905 0
M  V30 13719 H 1372.19 3.254 -1.09407 0
M  V30 13720 N 1374.63 0.0384594 1.57553 0
M  V30 13721 C 1375.88 -0.636879 1.91803 0
M  V30 13722 C 1376.2 -1.72128 0.916347 0
M  V30 13723 O 1375.47 -1.95858 -0.0407405 0
M  V30 13724 H 1374.05 -0.238237 0.707992 0
M  V30 13725 H 1376.71 0.0884651 1.94699 0
M  V30 13726 H 1375.81 -1.08364 2.92683 0
M  V30 13727 N 1376.11 -1.55841 -0.234795 0
M  V30 13728 C 1377.34 -1.82307 -0.978355 0
M  V30 13729 C 1377.75 -0.615825 -1.78474 0
M  V30 13730 O 1377.11 0.4156 -1.77705 0
M  V30 13731 C 1377.16 -3.07136 -1.90655 0
M  V30 13732 O 1376.88 -4.23202 -1.13278 0
M  V30 13733 C 1378.38 -3.46492 -2.76511 0
M  V30 13734 H 1375.6 -0.606361 -0.287345 0
M  V30 13735 H 1378.15 -2.02916 -0.254023 0
M  V30 13736 H 1376.3 -2.88542 -2.58501 0
M  V30 13737 H 1376.72 -4.94029 -1.76168 0
M  V30 13738 H 1378.19 -4.36908 -3.37366 0
M  V30 13739 H 1378.67 -2.67633 -3.48238 0
M  V30 13740 H 1379.27 -3.6748 -2.14099 0
M  V30 13741 N 1377.59 0.500963 -1.49426 0
M  V30 13742 C 1379 1.08248 -1.52116 0
M  V30 13743 C 1379.35 1.93777 -0.30738 0
M  V30 13744 O 1378.48 2.08404 0.582805 0
M  V30 13745 C 1379.07 1.96988 -2.75647 0
M  V30 13746 C 1377.63 2.50303 -2.81115 0
M  V30 13747 C 1376.78 1.27924 -2.4603 0
M  V30 13748 H 1379.73 0.284872 -1.56122 0
M  V30 13749 H 1379.75 2.81675 -2.55811 0
M  V30 13750 H 1379.26 1.34711 -3.6397 0
M  V30 13751 H 1377.36 3.16218 -1.97072 0
M  V30 13752 H 1377.48 2.87453 -3.83286 0
M  V30 13753 H 1375.84 1.60447 -1.9781 0
M  V30 13754 H 1376.62 0.673557 -3.36628 0
M  V30 13755 N 1379.07 1.38501 0.752011 0
M  V30 13756 C 1380.3 1.38032 1.54125 0
M  V30 13757 C 1380.71 -0.0295066 1.88777 0
M  V30 13758 O 1380.07 -0.996522 1.52891 0
M  V30 13759 C 1380.12 2.23741 2.83941 0
M  V30 13760 O 1379.84 3.59232 2.50767 0
M  V30 13761 C 1381.34 2.31469 3.7807 0
M  V30 13762 H 1378.56 0.472077 0.476848 0
M  V30 13763 H 1381.1 1.82101 0.930572 0
M  V30 13764 H 1379.26 1.8313 3.41383 0
M  V30 13765 H 1379.67 4.04376 3.34036 0
M  V30 13766 H 1381.15 2.95722 4.66103 0
M  V30 13767 H 1381.62 1.32882 4.18616 0
M  V30 13768 H 1382.23 2.72477 3.26552 0
M  V30 13769 N 1380.55 -0.980364 1.23396 0
M  V30 13770 C 1381.51 -2.05433 1.01635 0
M  V30 13771 C 1382.51 -1.60785 -0.0218244 0
M  V30 13772 O 1383.7 -1.72832 0.217922 0
M  V30 13773 C 1380.83 -3.36631 0.537822 0
M  V30 13774 H 1382.02 -2.26172 1.96943 0
M  V30 13775 H 1379.58 -1.15378 1.05441 0
M  V30 13776 H 1380.31 -3.21581 -0.41903 0
M  V30 13777 H 1380.1 -3.70377 1.28698 0
M  V30 13778 H 1381.59 -4.1562 0.406213 0
M  V30 13779 N 1382.02 -1.04567 -1.17913 0
M  V30 13780 C 1382.99 -0.645476 -2.19923 0
M  V30 13781 C 1383.99 0.299763 -1.57981 0
M  V30 13782 O 1385.18 0.0844825 -1.73995 0
M  V30 13783 C 1382.31 0.0528935 -3.40859 0
M  V30 13784 H 1383.5 -1.54828 -2.56843 0
M  V30 13785 H 1381.05 -0.838812 -1.31885 0
M  V30 13786 H 1381.79 0.969261 -3.09477 0
M  V30 13787 H 1381.57 -0.626558 -3.87062 0
M  V30 13788 H 1383.06 0.319221 -4.16378 0
M  V30 13789 N 1383.5 1.34231 -0.825823 0
M  V30 13790 C 1384.73 2.02949 -0.427354 0
M  V30 13791 C 1385.15 1.61772 0.959755 0
M  V30 13792 O 1384.51 0.803799 1.62508 0
M  V30 13793 C 1384.56 3.56522 -0.540799 0
M  V30 13794 O 1383.66 4.10065 0.438213 0
M  V30 13795 H 1383 0.640378 -0.175535 0
M  V30 13796 H 1385.53 1.71416 -1.11704 0
M  V30 13797 H 1385.54 4.05857 -0.41763 0
M  V30 13798 H 1384.22 3.85839 -1.55246 0
M  V30 13799 H 1382.79 3.71894 0.273687 0
M  V30 13800 N 1384.98 0.581051 1.46498 0
M  V30 13801 C 1386.23 0.0660934 2.02692 0
M  V30 13802 C 1386.56 -1.28985 1.45178 0
M  V30 13803 O 1385.83 -1.84479 0.616247 0
M  V30 13804 C 1386.12 -0.00145411 3.601 0
M  V30 13805 C 1385.97 1.38327 4.28002 0
M  V30 13806 C 1387.29 -0.702914 4.3445 0
M  V30 13807 H 1384.41 0.0254923 0.736559 0
M  V30 13808 H 1387.05 0.74793 1.7466 0
M  V30 13809 H 1385.2 -0.582118 3.84114 0
M  V30 13810 H 1386.87 2.00897 4.15257 0
M  V30 13811 H 1385.11 1.95144 3.87429 0
M  V30 13812 H 1385.79 1.28849 5.36751 0
M  V30 13813 H 1388.26 -0.209641 4.15572 0
M  V30 13814 H 1387.14 -0.719202 5.44168 0
M  V30 13815 H 1387.4 -1.76389 4.05388 0
M  V30 13816 N 1386.46 -1.54343 0.318742 0
M  V30 13817 C 1387.71 -2.00084 -0.284713 0
M  V30 13818 C 1388.03 -1.20855 -1.53033 0
M  V30 13819 O 1387.3 -0.309104 -1.93446 0
M  V30 13820 H 1385.88 -0.739123 -0.108193 0
M  V30 13821 H 1388.54 -1.90002 0.434174 0
M  V30 13822 H 1387.63 -3.07314 -0.544459 0
M  V30 13823 N 1387.94 -0.0468143 -1.5753 0
M  V30 13824 C 1388.85 0.944362 -2.14753 0
M  V30 13825 C 1389.86 1.34473 -1.10422 0
M  V30 13826 O 1391.04 1.42254 -1.42569 0
M  V30 13827 C 1388.1 2.2023 -2.67768 0
M  V30 13828 C 1387.16 1.8607 -3.8688 0
M  V30 13829 C 1386.4 3.05867 -4.37357 0
M  V30 13830 O 1386.62 4.19099 -3.86927 0
M  V30 13831 O 1385.55 2.87134 -5.28997 0
M  V30 13832 H 1389.38 0.48772 -2.99758 0
M  V30 13833 H 1386.96 0.174831 -1.48374 0
M  V30 13834 H 1388.85 2.94044 -3.01855 0
M  V30 13835 H 1387.52 2.65041 -1.85836 0
M  V30 13836 H 1386.43 1.09586 -3.5769 0
M  V30 13837 H 1387.76 1.46062 -4.70028 0
M  V30 13838 N 1389.41 1.55964 0.226527 0
M  V30 13839 C 1390.64 1.83168 0.972846 0
M  V30 13840 C 1391.06 0.626512 1.7736 0
M  V30 13841 O 1390.42 -0.42468 1.76256 0
M  V30 13842 C 1390.47 3.08315 1.87014 0
M  V30 13843 O 1389.57 2.8666 2.96479 0
M  V30 13844 H 1388.92 0.604041 0.275736 0
M  V30 13845 H 1391.45 2.03172 0.241345 0
M  V30 13846 H 1391.46 3.38288 2.28091 0
M  V30 13847 H 1390.13 3.95663 1.28154 0
M  V30 13848 H 1388.71 2.67907 2.59384 0
M  V30 13849 N 1390.89 -0.493031 1.4969 0
M  V30 13850 C 1391.86 -1.57598 1.6642 0
M  V30 13851 C 1392.86 -1.51615 0.535668 0
M  V30 13852 O 1394.05 -1.54626 0.802283 0
M  V30 13853 C 1391.18 -2.97249 1.66901 0
M  V30 13854 H 1392.37 -1.4409 2.63017 0
M  V30 13855 H 1389.92 -0.717846 1.3884 0
M  V30 13856 H 1390.66 -3.16225 0.719164 0
M  V30 13857 H 1390.44 -3.02999 2.48865 0
M  V30 13858 H 1391.93 -3.75914 1.81874 0
M  V30 13859 N 1392.37 -1.38898 -0.744656 0
M  V30 13860 C 1393.6 -1.3903 -1.53901 0
M  V30 13861 C 1394.02 0.0156607 -1.88093 0
M  V30 13862 O 1393.38 1.00012 -1.51219 0
M  V30 13863 C 1393.43 -2.2609 -2.80919 0
M  V30 13864 O 1392.53 -1.68414 -3.76444 0
M  V30 13865 H 1391.87 -0.473854 -0.465144 0
M  V30 13866 H 1394.4 -1.82773 -0.919525 0
M  V30 13867 H 1394.41 -2.40264 -3.29754 0
M  V30 13868 H 1393.09 -3.28271 -2.55364 0
M  V30 13869 H 1391.66 -1.63431 -3.35179 0
M  V30 13870 N 1393.85 0.973806 -1.23914 0
M  V30 13871 C 1395.09 1.71852 -1.07678 0
M  V30 13872 C 1395.43 1.90357 0.384425 0
M  V30 13873 O 1394.7 1.46063 1.28436 0
M  V30 13874 C 1394.99 3.1129 -1.81026 0
M  V30 13875 C 1394.84 3.00315 -3.3486 0
M  V30 13876 C 1396.16 4.10835 -1.57805 0
M  V30 13877 H 1393.28 0.623749 -0.392564 0
M  V30 13878 H 1395.92 1.13325 -1.52504 0
M  V30 13879 H 1394.07 3.61255 -1.42922 0
M  V30 13880 H 1395.74 2.57823 -3.82524 0
M  V30 13881 H 1393.98 2.36667 -3.63553 0
M  V30 13882 H 1394.65 3.9907 -3.81376 0
M  V30 13883 H 1397.13 3.69705 -1.90939 0
M  V30 13884 H 1396.01 5.06478 -2.11591 0
M  V30 13885 H 1396.27 4.39091 -0.514894 0
M  V30 13886 N 1395.33 1.05191 1.17357 0
M  V30 13887 C 1396.55 0.782343 1.92079 0
M  V30 13888 C 1396.98 -0.655957 1.76292 0
M  V30 13889 O 1396.33 -1.45573 1.08065 0
M  V30 13890 C 1396.38 1.16777 3.41168 0
M  V30 13891 O 1395.49 0.299908 4.11308 0
M  V30 13892 H 1394.83 0.286894 0.598822 0
M  V30 13893 H 1397.36 1.40476 1.48754 0
M  V30 13894 H 1397.37 1.13454 3.91909 0
M  V30 13895 H 1396.04 2.2155 3.51978 0
M  V30 13896 H 1394.62 0.393744 3.70815 0
M  V30 13897 N 1396.8 -1.33791 0.83293 0
M  V30 13898 C 1398.03 -2.0272 0.438111 0
M  V30 13899 C 1398.45 -1.62279 -0.951163 0
M  V30 13900 O 1397.81 -0.812406 -1.62079 0
M  V30 13901 C 1397.86 -3.5623 0.559698 0
M  V30 13902 O 1396.96 -4.10292 -0.41646 0
M  V30 13903 H 1396.31 -0.639438 0.178928 0
M  V30 13904 H 1398.84 -1.70821 1.12612 0
M  V30 13905 H 1398.85 -4.0563 0.439148 0
M  V30 13906 H 1397.52 -3.8501 1.5729 0
M  V30 13907 H 1396.1 -3.72034 -0.25396 0
M  V30 13908 N 1398.28 -0.588812 -1.46187 0
M  V30 13909 C 1399.53 -0.0765765 -2.01955 0
M  V30 13910 C 1399.85 1.29034 -1.46203 0
M  V30 13911 O 1399.12 1.84836 -0.649044 0
M  V30 13912 H 1397.7 -0.025318 -0.746571 0
M  V30 13913 H 1400.36 -0.765971 -1.79217 0
M  V30 13914 H 1399.46 -0.0121702 -3.12098 0
M  V30 13915 N 1399.76 1.54172 -0.326923 0
M  V30 13916 C 1400.67 2.28149 0.546351 0
M  V30 13917 C 1401.69 1.32628 1.12631 0
M  V30 13918 O 1402.86 1.65647 1.14556 0
M  V30 13919 C 1399.93 3.02742 1.68962 0
M  V30 13920 C 1398.99 4.13856 1.14112 0
M  V30 13921 C 1398.22 4.84882 2.2299 0
M  V30 13922 O 1398.44 4.55448 3.43399 0
M  V30 13923 O 1397.38 5.71714 1.8822 0
M  V30 13924 H 1401.2 3.03651 -0.0545288 0
M  V30 13925 H 1398.79 1.49113 -0.0925027 0
M  V30 13926 H 1400.67 3.49443 2.35515 0
M  V30 13927 H 1399.35 2.30113 2.27662 0
M  V30 13928 H 1398.25 3.71497 0.440579 0
M  V30 13929 H 1399.59 4.88539 0.599211 0
M  V30 13930 N 1401.24 0.0551678 1.57503 0
M  V30 13931 C 1402.65 -0.479948 1.80426 0
M  V30 13932 C 1403 -1.70673 0.967733 0
M  V30 13933 O 1402.13 -2.15604 0.185462 0
M  V30 13934 C 1402.72 -0.877496 3.27239 0
M  V30 13935 C 1401.28 -1.35757 3.51066 0
M  V30 13936 C 1400.43 -0.334681 2.75273 0
M  V30 13937 H 1403.38 0.281016 1.56192 0
M  V30 13938 H 1403.4 -1.74013 3.38378 0
M  V30 13939 H 1402.91 0.015571 3.88097 0
M  V30 13940 H 1401.01 -2.26969 2.95492 0
M  V30 13941 H 1401.12 -1.34697 4.59776 0
M  V30 13942 H 1399.49 -0.808421 2.4153 0
M  V30 13943 H 1400.27 0.550369 3.3886 0
M  V30 13944 N 1402.72 -1.56081 -0.218252 0
M  V30 13945 C 1403.94 -1.83334 -0.958964 0
M  V30 13946 C 1404.36 -0.63472 -1.77811 0
M  V30 13947 O 1403.72 0.396729 -1.78136 0
M  V30 13948 C 1403.77 -3.09141 -1.87387 0
M  V30 13949 O 1403.49 -4.24379 -1.08783 0
M  V30 13950 C 1404.99 -3.49405 -2.7282 0
M  V30 13951 H 1402.21 -0.609375 -0.280898 0
M  V30 13952 H 1404.75 -2.03174 -0.232486 0
M  V30 13953 H 1402.91 -2.91267 -2.55426 0
M  V30 13954 H 1403.32 -4.9587 -1.70919 0
M  V30 13955 H 1404.8 -4.40461 -3.32713 0
M  V30 13956 H 1405.27 -2.71311 -3.45379 0
M  V30 13957 H 1405.88 -3.6973 -2.1019 0
M  V30 13958 N 1404.2 0.485086 -1.49949 0
M  V30 13959 C 1405.44 1.23999 -1.60474 0
M  V30 13960 C 1405.77 1.91904 -0.297736 0
M  V30 13961 O 1405.05 1.81472 0.699857 0
M  V30 13962 C 1405.33 2.2946 -2.77525 0
M  V30 13963 C 1405.19 1.65952 -4.18067 0
M  V30 13964 C 1406.5 3.30893 -2.90169 0
M  V30 13965 H 1403.62 0.449462 -0.584083 0
M  V30 13966 H 1406.27 0.535795 -1.82289 0
M  V30 13967 H 1404.42 2.89521 -2.59056 0
M  V30 13968 H 1406.09 1.09596 -4.48092 0
M  V30 13969 H 1404.33 0.963079 -4.22974 0
M  V30 13970 H 1405 2.42521 -4.9587 0
M  V30 13971 H 1407.48 2.8084 -3.07031 0
M  V30 13972 H 1406.35 4.02027 -3.73718 0
M  V30 13973 H 1406.61 3.94178 -2.0019 0
M  V30 13974 N 1405.67 1.39291 0.737279 0
M  V30 13975 C 1407.08 1.32489 1.31543 0
M  V30 13976 C 1407.44 -0.0118162 1.96196 0
M  V30 13977 O 1406.56 -0.913938 1.96153 0
M  V30 13978 C 1407.16 2.39946 2.39189 0
M  V30 13979 C 1405.71 2.36671 2.92684 0
M  V30 13980 C 1404.86 2.21953 1.66229 0
M  V30 13981 H 1407.81 1.49412 0.534954 0
M  V30 13982 H 1407.83 2.06603 3.19524 0
M  V30 13983 H 1407.35 3.3722 1.92104 0
M  V30 13984 H 1405.45 1.43028 3.44055 0
M  V30 13985 H 1405.56 3.31441 3.45953 0
M  V30 13986 H 1403.92 1.69087 1.90478 0
M  V30 13987 H 1404.71 3.21194 1.21199 0
M  V30 13988 N 1407.15 -0.967221 1.24429 0
M  V30 13989 C 1408.4 -1.71349 1.09596 0
M  V30 13990 C 1408.75 -1.88975 -0.361411 0
M  V30 13991 O 1408.05 -1.4405 -1.26333 0
M  V30 13992 C 1408.24 -3.10507 1.76975 0
M  V30 13993 C 1408.07 -3.06455 3.29113 0
M  V30 13994 C 1406.84 -3.1091 3.98326 0
M  V30 13995 C 1409.04 -2.88594 4.25697 0
M  V30 13996 N 1407.02 -2.96882 5.3734 0
M  V30 13997 C 1408.39 -2.82867 5.51712 0
M  V30 13998 C 1410.44 -2.73179 4.16267 0
M  V30 13999 C 1409.15 -2.63301 6.69377 0
M  V30 14000 C 1411.17 -2.5498 5.3361 0
M  V30 14001 C 1410.54 -2.49962 6.58558 0
M  V30 14002 H 1406.63 -0.635528 0.455663 0
M  V30 14003 H 1409.22 -1.14669 1.5735 0
M  V30 14004 H 1407.39 -3.65378 1.31733 0
M  V30 14005 H 1409.12 -3.73842 1.54997 0
M  V30 14006 H 1405.88 -3.19609 3.49495 0
M  V30 14007 H 1406.3 -2.93107 6.1026 0
M  V30 14008 H 1410.94 -2.7584 3.20425 0
M  V30 14009 H 1408.66 -2.59383 7.65341 0
M  V30 14010 H 1412.25 -2.43995 5.28164 0
M  V30 14011 H 1411.13 -2.3606 7.47827 0
M  V30 14012 N 1408.63 -1.05812 -1.16797 0
M  V30 14013 C 1409.91 -0.685551 -1.83193 0
M  V30 14014 C 1410.29 0.833539 -1.93947 0
M  V30 14015 O 1409.63 1.74193 -1.47882 0
M  V30 14016 C 1409.84 -1.38183 -3.20479 0
M  V30 14017 C 1411.19 -1.52389 -3.96311 0
M  V30 14018 O 1412.22 -1.34134 -3.2998 0
M  V30 14019 O 1411.08 -1.82297 -5.15199 0
M  V30 14020 H 1408.17 -0.242095 -0.790771 0
M  V30 14021 H 1410.72 -1.15809 -1.24041 0
M  V30 14022 H 1409.49 -2.41791 -3.07657 0
M  V30 14023 H 1409.11 -0.899043 -3.87302 0
M  V30 14024 N 1410.11 1.33347 -0.840014 0
M  V30 14025 C 1411.52 1.80077 -0.492851 0
M  V30 14026 C 1411.87 1.69495 0.988221 0
M  V30 14027 O 1410.99 1.2449 1.77006 0
M  V30 14028 C 1411.59 3.2696 -0.887827 0
M  V30 14029 C 1410.15 3.71703 -0.592785 0
M  V30 14030 C 1409.3 2.54742 -1.09554 0
M  V30 14031 H 1412.25 1.20853 -1.02861 0
M  V30 14032 H 1412.27 3.79983 -0.198327 0
M  V30 14033 H 1411.78 3.3463 -1.96581 0
M  V30 14034 H 1409.88 3.69559 0.475086 0
M  V30 14035 H 1409.99 4.65123 -1.14882 0
M  V30 14036 H 1408.36 2.49411 -0.516357 0
M  V30 14037 H 1409.14 2.65173 -2.18032 0
M  V30 14038 N 1411.59 0.596556 1.45873 0
M  V30 14039 C 1412.81 0.0916466 2.07197 0
M  V30 14040 C 1413.24 -1.21004 1.44012 0
M  V30 14041 O 1412.59 -1.73415 0.528844 0
M  V30 14042 C 1412.64 -0.0461457 3.6057 0
M  V30 14043 O 1411.75 -1.09919 3.97481 0
M  V30 14044 H 1411.09 0.0690655 0.660398 0
M  V30 14045 H 1413.62 0.823434 1.87299 0
M  V30 14046 H 1413.63 -0.2479 4.07246 0
M  V30 14047 H 1412.3 0.904381 4.05948 0
M  V30 14048 H 1410.88 -0.874788 3.62494 0
M  V30 14049 N 1413.06 -1.53996 0.335095 0
M  V30 14050 C 1414.29 -2.05657 -0.268328 0
M  V30 14051 C 1414.71 -1.20897 -1.44102 0
M  V30 14052 O 1414.07 -0.220737 -1.79951 0
M  V30 14053 C 1414.12 -3.54331 -0.669481 0
M  V30 14054 O 1413.22 -3.7246 -1.77052 0
M  V30 14055 H 1412.56 -0.662386 -0.0462705 0
M  V30 14056 H 1415.09 -1.98723 0.486854 0
M  V30 14057 H 1415.1 -3.9681 -0.948971 0
M  V30 14058 H 1413.78 -4.15474 0.188168 0
M  V30 14059 H 1412.36 -3.41884 -1.48895 0
M  V30 14060 N 1414.54 -0.0635198 -1.57472 0
M  V30 14061 C 1415.77 0.616735 -1.97494 0
M  V30 14062 C 1416.18 1.63646 -0.941568 0
M  V30 14063 O 1415.54 1.82355 0.0727768 0
M  V30 14064 C 1415.59 1.29268 -3.37597 0
M  V30 14065 O 1415.31 0.313781 -4.36975 0
M  V30 14066 C 1416.81 2.06154 -3.92448 0
M  V30 14067 H 1414.03 0.167753 -0.649692 0
M  V30 14068 H 1416.58 -0.133475 -2.04064 0
M  V30 14069 H 1414.73 1.99404 -3.3214 0
M  V30 14070 H 1415.15 0.797723 -5.18398 0
M  V30 14071 H 1416.62 2.48853 -4.92723 0
M  V30 14072 H 1417.1 2.91474 -3.28541 0
M  V30 14073 H 1417.7 1.40903 -4.01281 0
M  V30 14074 N 1416.02 1.56195 0.209972 0
M  V30 14075 C 1416.95 1.96378 1.26324 0
M  V30 14076 C 1417.93 0.833606 1.48273 0
M  V30 14077 O 1419.12 1.0968 1.60262 0
M  V30 14078 C 1416.25 2.29048 2.61064 0
M  V30 14079 C 1415.2 3.44665 2.53752 0
M  V30 14080 C 1414.53 3.6297 3.92628 0
M  V30 14081 C 1415.83 4.79297 2.07536 0
M  V30 14082 H 1417.52 2.8461 0.929379 0
M  V30 14083 H 1415.07 1.36931 0.445627 0
M  V30 14084 H 1417.02 2.55752 3.34916 0
M  V30 14085 H 1415.74 1.37682 2.96161 0
M  V30 14086 H 1414.4 3.18028 1.82356 0
M  V30 14087 H 1414.05 2.68961 4.25052 0
M  V30 14088 H 1413.75 4.40741 3.88614 0
M  V30 14089 H 1415.27 3.92035 4.68125 0
M  V30 14090 H 1416.69 5.05131 2.71138 0
M  V30 14091 H 1415.08 5.60433 2.14557 0
M  V30 14092 H 1416.15 4.73877 1.02802 0
M  V30 14093 N 1417.5 -0.477127 1.50204 0
M  V30 14094 C 1418.43 -1.58405 1.71552 0
M  V30 14095 C 1419.41 -1.60463 0.564413 0
M  V30 14096 O 1420.59 -1.76826 0.802893 0
M  V30 14097 C 1417.72 -2.96765 1.8041 0
M  V30 14098 C 1416.68 -3.09573 2.95548 0
M  V30 14099 C 1416 -4.49522 2.89542 0
M  V30 14100 C 1417.3 -2.87356 4.36147 0
M  V30 14101 H 1419 -1.40792 2.64231 0
M  V30 14102 H 1416.54 -0.675886 1.27153 0
M  V30 14103 H 1418.5 -3.74125 1.9393 0
M  V30 14104 H 1417.22 -3.1552 0.843489 0
M  V30 14105 H 1415.88 -2.34645 2.81669 0
M  V30 14106 H 1415.53 -4.65186 1.91339 0
M  V30 14107 H 1415.23 -4.59028 3.66834 0
M  V30 14108 H 1416.75 -5.28909 3.05102 0
M  V30 14109 H 1418.17 -3.54469 4.50583 0
M  V30 14110 H 1416.56 -3.08313 5.14843 0
M  V30 14111 H 1417.63 -1.83264 4.48935 0
M  V30 14112 N 1418.98 -1.3968 -0.729882 0
M  V30 14113 C 1420.39 -1.33184 -1.30839 0
M  V30 14114 C 1420.74 0.00141129 -1.962 0
M  V30 14115 O 1419.86 0.903523 -1.96635 0
M  V30 14116 C 1420.46 -2.41211 -2.37913 0
M  V30 14117 C 1419.02 -2.3822 -2.91424 0
M  V30 14118 C 1418.16 -2.22832 -1.65049 0
M  V30 14119 H 1421.12 -1.49694 -0.527023 0
M  V30 14120 H 1421.14 -2.08294 -3.18424 0
M  V30 14121 H 1420.65 -3.38234 -1.90313 0
M  V30 14122 H 1418.75 -1.4485 -3.43292 0
M  V30 14123 H 1418.86 -3.33271 -3.44191 0
M  V30 14124 H 1417.23 -1.70095 -1.89578 0
M  V30 14125 H 1418.01 -3.21832 -1.19494 0
M  V30 14126 N 1420.45 0.960609 -1.2494 0
M  V30 14127 C 1421.7 1.70701 -1.09495 0
M  V30 14128 C 1422.03 1.90754 0.364214 0
M  V30 14129 O 1421.31 1.47417 1.26879 0
M  V30 14130 C 1421.59 3.09353 -1.84317 0
M  V30 14131 C 1421.44 2.96747 -3.38026 0
M  V30 14132 C 1422.76 4.09139 -1.62153 0
M  V30 14133 H 1419.88 0.61955 -0.399158 0
M  V30 14134 H 1422.52 1.11701 -1.53698 0
M  V30 14135 H 1420.67 3.59719 -1.46746 0
M  V30 14136 H 1422.35 2.53752 -3.85237 0
M  V30 14137 H 1420.59 2.32798 -3.66043 0
M  V30 14138 H 1421.26 3.95002 -3.85587 0
M  V30 14139 H 1423.74 3.67659 -1.94849 0
M  V30 14140 H 1422.61 5.04206 -2.16951 0
M  V30 14141 H 1422.87 4.38521 -0.561437 0
M  V30 14142 N 1421.93 1.0643 1.16234 0
M  V30 14143 C 1423.16 0.802644 1.90697 0
M  V30 14144 C 1423.58 -0.643145 1.77508 0
M  V30 14145 O 1422.93 -1.4404 1.12065 0
M  V30 14146 C 1422.98 1.18984 3.41358 0
M  V30 14147 O 1422.7 2.5789 3.54153 0
M  V30 14148 C 1424.21 0.956132 4.32866 0
M  V30 14149 H 1421.43 0.290891 0.604668 0
M  V30 14150 H 1423.97 1.41829 1.47325 0
M  V30 14151 H 1422.12 0.618703 3.82428 0
M  V30 14152 H 1422.54 2.73431 4.47589 0
M  V30 14153 H 1424.01 1.27667 5.37034 0
M  V30 14154 H 1424.49 -0.108062 4.39067 0
M  V30 14155 H 1425.1 1.51172 3.97526 0
M  V30 14156 N 1423.41 -1.329 0.847073 0
M  V30 14157 C 1424.34 -2.31546 0.301422 0
M  V30 14158 C 1425.32 -1.59342 -0.595317 0
M  V30 14159 O 1426.51 -1.87188 -0.517151 0
M  V30 14160 C 1423.64 -3.43423 -0.517454 0
M  V30 14161 C 1422.59 -4.27055 0.284195 0
M  V30 14162 C 1421.92 -5.30624 -0.658944 0
M  V30 14163 C 1423.22 -5.00123 1.50578 0
M  V30 14164 H 1424.91 -2.77433 1.12567 0
M  V30 14165 H 1422.46 -1.3338 0.542739 0
M  V30 14166 H 1424.41 -4.11467 -0.909543 0
M  V30 14167 H 1423.13 -2.96246 -1.37499 0
M  V30 14168 H 1421.79 -3.60648 0.657944 0
M  V30 14169 H 1421.44 -4.79702 -1.51311 0
M  V30 14170 H 1421.14 -5.87464 -0.12662 0
M  V30 14171 H 1422.66 -6.01533 -1.04837 0
M  V30 14172 H 1424.08 -5.6089 1.18641 0
M  V30 14173 H 1422.48 -5.66652 1.97549 0
M  V30 14174 H 1423.55 -4.28424 2.27115 0
M  V30 14175 N 1424.89 -0.604284 -1.45555 0
M  V30 14176 C 1426.14 -0.0979922 -2.01862 0
M  V30 14177 C 1426.46 1.27476 -1.47563 0
M  V30 14178 O 1425.73 1.84137 -0.668612 0
M  V30 14179 H 1424.31 -0.033235 -0.74626 0
M  V30 14180 H 1426.97 -0.784936 -1.78395 0
M  V30 14181 H 1426.07 -0.0452716 -3.12067 0
M  V30 14182 N 1426.37 1.53816 -0.343257 0
M  V30 14183 C 1427.62 2.0009 0.254346 0
M  V30 14184 C 1427.93 1.23502 1.51679 0
M  V30 14185 O 1429.13 1.60251 2.19162 0
M  V30 14186 C 1427.59 3.56357 0.503775 0
M  V30 14187 C 1427.2 4.418 -0.742754 0
M  V30 14188 C 1428.94 4.11046 1.06025 0
M  V30 14189 C 1426.85 5.89576 -0.46414 0
M  V30 14190 H 1425.78 0.747496 0.0988189 0
M  V30 14191 H 1428.43 1.77679 -0.45854 0
M  V30 14192 H 1426.81 3.74833 1.27736 0
M  V30 14193 H 1427.99 4.35099 -1.51742 0
M  V30 14194 H 1426.3 3.98101 -1.22085 0
M  V30 14195 H 1428.9 5.19063 1.28365 0
M  V30 14196 H 1429.24 3.64247 2.01568 0
M  V30 14197 H 1429.77 3.9628 0.347384 0
M  V30 14198 H 1426.51 6.40608 -1.38928 0
M  V30 14199 H 1426.03 5.99181 0.272441 0
M  V30 14200 H 1427.71 6.46949 -0.0812761 0
M  V30 14201 N 1427.84 0.0718701 1.57436 0
M  V30 14202 C 1428.75 -0.910077 2.16229 0
M  V30 14203 C 1429.77 -1.32699 1.12548 0
M  V30 14204 O 1430.95 -1.39967 1.44814 0
M  V30 14205 C 1428.01 -2.15942 2.71238 0
M  V30 14206 C 1427.07 -1.79891 3.89792 0
M  V30 14207 C 1426.31 -2.9887 4.42168 0
M  V30 14208 O 1426.53 -4.1289 3.93545 0
M  V30 14209 O 1425.46 -2.78682 5.33498 0
M  V30 14210 H 1429.29 -0.439969 3.00496 0
M  V30 14211 H 1426.87 -0.151204 1.48633 0
M  V30 14212 H 1428.76 -2.89204 3.06494 0
M  V30 14213 H 1427.43 -2.62051 1.90029 0
M  V30 14214 H 1426.34 -1.03881 3.59388 0
M  V30 14215 H 1427.67 -1.38566 4.72293 0
M  V30 14216 N 1429.32 -1.56304 -0.201686 0
M  V30 14217 C 1430.6 -1.71059 -0.948595 0
M  V30 14218 C 1430.98 -0.624794 -2.01642 0
M  V30 14219 O 1430.33 0.365235 -2.25562 0
M  V30 14220 C 1430.54 -3.13136 -1.54101 0
M  V30 14221 C 1431.89 -3.73165 -2.02567 0
M  V30 14222 O 1432.91 -3.16223 -1.63956 0
M  V30 14223 O 1431.77 -4.73084 -2.73594 0
M  V30 14224 H 1428.86 -0.697443 -0.444412 0
M  V30 14225 H 1431.41 -1.68611 -0.191901 0
M  V30 14226 H 1430.18 -3.8363 -0.770968 0
M  V30 14227 H 1429.8 -3.19784 -2.36271 0
M  V30 14228 N 1430.8 0.469154 -1.50455 0
M  V30 14229 C 1432.05 1.22109 -1.61541 0
M  V30 14230 C 1432.38 1.91905 -0.316646 0
M  V30 14231 O 1431.63 1.82845 0.697585 0
M  V30 14232 C 1431.93 2.28673 -2.7467 0
M  V30 14233 C 1431.6 1.76115 -4.15083 0
M  V30 14234 C 1430.26 1.61503 -4.53288 0
M  V30 14235 C 1432.61 1.37145 -5.02833 0
M  V30 14236 C 1429.94 1.06346 -5.76981 0
M  V30 14237 C 1432.29 0.834294 -6.27074 0
M  V30 14238 C 1430.95 0.674814 -6.6408 0
M  V30 14239 H 1430.22 0.44683 -0.591121 0
M  V30 14240 H 1432.87 0.516821 -1.84394 0
M  V30 14241 H 1431.18 3.05015 -2.45912 0
M  V30 14242 H 1432.87 2.86615 -2.80451 0
M  V30 14243 H 1429.46 1.88457 -3.84944 0
M  V30 14244 H 1433.65 1.47268 -4.73947 0
M  V30 14245 H 1428.9 0.927377 -6.04326 0
M  V30 14246 H 1433.08 0.523676 -6.94428 0
M  V30 14247 H 1430.7 0.245264 -7.59804 0
M  V30 14248 N 1432.28 1.40065 0.722464 0
M  V30 14249 C 1433.19 1.42086 1.86678 0
M  V30 14250 C 1434.2 0.314223 1.71139 0
M  V30 14251 O 1435.38 0.55771 1.93524 0
M  V30 14252 C 1432.45 1.27498 3.22405 0
M  V30 14253 C 1431.51 2.48243 3.50248 0
M  V30 14254 C 1430.74 2.34342 4.79499 0
M  V30 14255 O 1430.96 1.35355 5.54108 0
M  V30 14256 O 1429.9 3.23579 5.07523 0
M  V30 14257 H 1433.72 2.38571 1.87929 0
M  V30 14258 H 1431.31 1.21314 0.871968 0
M  V30 14259 H 1433.19 1.21543 4.03491 0
M  V30 14260 H 1431.86 0.341141 3.21897 0
M  V30 14261 H 1430.77 2.59775 2.69199 0
M  V30 14262 H 1432.1 3.40364 3.55547 0
M  V30 14263 N 1433.76 -0.95397 1.25448 0
M  V30 14264 C 1434.69 -2.06828 1.08372 0
M  V30 14265 C 1435.67 -1.70098 -0.00741585 0
M  V30 14266 O 1436.85 -1.93521 0.16224 0
M  V30 14267 C 1433.98 -3.40124 0.702365 0
M  V30 14268 C 1432.94 -3.90865 1.74381 0
M  V30 14269 C 1432.26 -5.20663 1.21712 0
M  V30 14270 C 1433.56 -4.17169 3.14273 0
M  V30 14271 H 1435.26 -2.21372 2.01581 0
M  V30 14272 H 1432.8 -1.06374 0.970592 0
M  V30 14273 H 1434.76 -4.17529 0.569837 0
M  V30 14274 H 1433.48 -3.2552 -0.265428 0
M  V30 14275 H 1432.14 -3.15628 1.86479 0
M  V30 14276 H 1431.79 -5.02429 0.23954 0
M  V30 14277 H 1431.49 -5.55581 1.91319 0
M  V30 14278 H 1433.01 -6.00665 1.097 0
M  V30 14279 H 1434.43 -4.85231 3.05325 0
M  V30 14280 H 1432.82 -4.63344 3.81356 0
M  V30 14281 H 1433.89 -3.23421 3.61285 0
M  V30 14282 N 1435.24 -1.07045 -1.15668 0
M  V30 14283 C 1436.15 -0.699332 -2.23934 0
M  V30 14284 C 1437.16 0.288036 -1.71599 0
M  V30 14285 O 1438.34 0.135447 -2.00944 0
M  V30 14286 C 1435.4 -0.0994775 -3.46557 0
M  V30 14287 C 1434.46 -1.13968 -4.13896 0
M  V30 14288 C 1433.7 -0.56836 -5.30665 0
M  V30 14289 O 1433.92 0.616556 -5.67058 0
M  V30 14290 O 1432.85 -1.31174 -5.87432 0
M  V30 14291 H 1436.68 -1.60212 -2.58003 0
M  V30 14292 H 1434.26 -0.843202 -1.23331 0
M  V30 14293 H 1436.15 0.23293 -4.20756 0
M  V30 14294 H 1434.82 0.776684 -3.14244 0
M  V30 14295 H 1433.73 -1.5244 -3.41633 0
M  V30 14296 H 1435.06 -1.98764 -4.50282 0
M  V30 14297 N 1436.71 1.32449 -0.85411 0
M  V30 14298 C 1437.96 1.97563 -0.4579 0
M  V30 14299 C 1438.29 1.67435 0.983835 0
M  V30 14300 O 1437.57 0.962292 1.69027 0
M  V30 14301 C 1437.85 3.53292 -0.69688 0
M  V30 14302 C 1437.7 3.93053 -2.18699 0
M  V30 14303 C 1439.02 4.39834 -0.152917 0
M  V30 14304 H 1436.14 0.717634 -0.167842 0
M  V30 14305 H 1438.78 1.5684 -1.07243 0
M  V30 14306 H 1436.93 3.88111 -0.173807 0
M  V30 14307 H 1438.61 3.68416 -2.7761 0
M  V30 14308 H 1436.85 3.42232 -2.6657 0
M  V30 14309 H 1437.52 5.01576 -2.3049 0
M  V30 14310 H 1440 4.11748 -0.600216 0
M  V30 14311 H 1438.87 5.47785 -0.349703 0
M  V30 14312 H 1439.13 4.31898 0.944276 0
M  V30 14313 N 1438.19 0.611994 1.45232 0
M  V30 14314 C 1439.12 -0.0914869 2.33321 0
M  V30 14315 C 1440.1 -0.854315 1.4709 0
M  V30 14316 O 1441.29 -0.823994 1.75852 0
M  V30 14317 C 1438.42 -1.08652 3.29867 0
M  V30 14318 C 1437.37 -0.436615 4.25767 0
M  V30 14319 C 1436.7 -1.54021 5.12037 0
M  V30 14320 C 1438 0.645005 5.18302 0
M  V30 14321 H 1439.69 0.644053 2.92391 0
M  V30 14322 H 1437.24 0.311171 1.40598 0
M  V30 14323 H 1439.19 -1.58726 3.90364 0
M  V30 14324 H 1437.91 -1.85271 2.68965 0
M  V30 14325 H 1436.57 0.0432918 3.66574 0
M  V30 14326 H 1436.22 -2.29679 4.475 0
M  V30 14327 H 1435.92 -1.11084 5.77005 0
M  V30 14328 H 1437.45 -2.04313 5.75403 0
M  V30 14329 H 1438.86 0.228166 5.72846 0
M  V30 14330 H 1437.26 0.996387 5.9177 0
M  V30 14331 H 1438.33 1.51985 4.60466 0
M  V30 14332 N 1439.67 -1.53632 0.351409 0
M  V30 14333 C 1440.63 -2.23916 -0.489293 0
M  V30 14334 C 1441.63 -1.24207 -1.02124 0
M  V30 14335 O 1442.82 -1.48589 -0.909235 0
M  V30 14336 C 1439.95 -2.96492 -1.68242 0
M  V30 14337 H 1441.15 -2.99637 0.125518 0
M  V30 14338 H 1438.7 -1.55961 0.102874 0
M  V30 14339 H 1439.44 -2.24978 -2.33571 0
M  V30 14340 H 1439.22 -3.69637 -1.3081 0
M  V30 14341 H 1440.71 -3.49961 -2.27853 0
M  V30 14342 N 1441.15 -0.0802183 -1.57396 0
M  V30 14343 C 1442.4 0.585802 -1.93424 0
M  V30 14344 C 1442.72 1.69638 -0.961662 0
M  V30 14345 O 1441.99 1.95897 -0.011202 0
M  V30 14346 H 1440.57 0.219382 -0.714059 0
M  V30 14347 H 1443.23 -0.140055 -1.94396 0
M  V30 14348 H 1442.32 1.00566 -2.95454 0
M  V30 14349 N 1442.63 1.56409 0.193394 0
M  V30 14350 C 1443.85 1.8519 0.933775 0
M  V30 14351 C 1444.28 0.663991 1.75991 0
M  V30 14352 O 1443.63 -0.387198 1.77117 0
M  V30 14353 C 1443.68 3.12212 1.80432 0
M  V30 14354 O 1442.79 2.92884 2.90332 0
M  V30 14355 H 1442.13 0.609754 0.262862 0
M  V30 14356 H 1444.66 2.03638 0.198195 0
M  V30 14357 H 1444.67 3.4305 2.20864 0
M  V30 14358 H 1443.34 3.98292 1.19733 0
M  V30 14359 H 1441.92 2.73349 2.53643 0
M  V30 14360 N 1444.1 -0.461169 1.50702 0
M  V30 14361 C 1445.51 -1.04177 1.54932 0
M  V30 14362 C 1445.87 -1.92894 0.358648 0
M  V30 14363 O 1444.99 -2.09876 -0.527346 0
M  V30 14364 C 1445.59 -1.8961 2.80773 0
M  V30 14365 C 1444.14 -2.42761 2.87652 0
M  V30 14366 C 1443.29 -1.21356 2.49335 0
M  V30 14367 H 1446.24 -0.243379 1.56823 0
M  V30 14368 H 1446.26 -2.74794 2.63189 0
M  V30 14369 H 1445.78 -1.25014 3.67414 0
M  V30 14370 H 1443.88 -3.10881 2.05386 0
M  V30 14371 H 1443.99 -2.77189 3.90772 0
M  V30 14372 H 1442.35 -1.55146 2.01995 0
M  V30 14373 H 1443.14 -0.584069 3.38295 0
M  V30 14374 N 1445.58 -1.40446 -0.715026 0
M  V30 14375 C 1446.83 -1.3848 -1.47199 0
M  V30 14376 C 1447.15 0.0119198 -1.94996 0
M  V30 14377 O 1446.42 0.966772 -1.70383 0
M  V30 14378 H 1445 -0.509669 -0.54612 0
M  V30 14379 H 1447.66 -1.75505 -0.847588 0
M  V30 14380 H 1446.76 -2.06002 -2.34456 0
M  V30 14381 N 1447.06 0.947303 -1.25952 0
M  V30 14382 C 1448.31 1.6953 -1.11299 0
M  V30 14383 C 1448.64 1.9113 0.343961 0
M  V30 14384 O 1447.91 1.48755 1.25309 0
M  V30 14385 C 1448.2 3.0738 -1.87588 0
M  V30 14386 C 1448.05 2.93145 -3.41154 0
M  V30 14387 C 1449.37 4.07396 -1.66483 0
M  V30 14388 H 1446.49 0.615281 -0.405707 0
M  V30 14389 H 1449.13 1.10064 -1.54874 0
M  V30 14390 H 1447.28 3.58143 -1.50553 0
M  V30 14391 H 1448.95 2.49651 -3.87907 0
M  V30 14392 H 1447.19 2.28902 -3.68492 0
M  V30 14393 H 1447.87 3.9089 -3.89755 0
M  V30 14394 H 1450.34 3.65572 -1.98738 0
M  V30 14395 H 1449.22 5.01876 -2.22287 0
M  V30 14396 H 1449.48 4.379 -0.607916 0
M  V30 14397 N 1448.54 1.07657 1.15099 0
M  V30 14398 C 1449.45 0.711198 2.2356 0
M  V30 14399 C 1450.46 -0.278932 1.7175 0
M  V30 14400 O 1451.64 -0.124788 2.01013 0
M  V30 14401 C 1448.71 0.117855 3.465 0
M  V30 14402 C 1447.77 1.16162 4.13286 0
M  V30 14403 C 1447 0.596494 5.30356 0
M  V30 14404 O 1447.22 -0.586474 5.67377 0
M  V30 14405 O 1446.16 1.34288 5.86729 0
M  V30 14406 H 1449.98 1.61578 2.5715 0
M  V30 14407 H 1447.57 0.84973 1.22882 0
M  V30 14408 H 1449.45 -0.210613 4.20873 0
M  V30 14409 H 1448.12 -0.760008 3.14652 0
M  V30 14410 H 1447.03 1.54249 3.4082 0
M  V30 14411 H 1448.36 2.01149 4.49221 0
M  V30 14412 N 1450.02 -1.31994 0.861122 0
M  V30 14413 C 1451.24 -2.01745 0.481013 0
M  V30 14414 C 1451.67 -1.6426 -0.916527 0
M  V30 14415 O 1451.02 -0.846603 -1.60319 0
M  V30 14416 C 1451.07 -3.54963 0.635134 0
M  V30 14417 O 1450.18 -4.11083 -0.329337 0
M  V30 14418 H 1449.52 -0.635499 0.192452 0
M  V30 14419 H 1452.05 -1.68394 1.1621 0
M  V30 14420 H 1452.06 -4.04607 0.525089 0
M  V30 14421 H 1450.73 -3.81587 1.65422 0
M  V30 14422 H 1449.31 -3.72489 -0.174989 0
M  V30 14423 N 1451.49 -0.619688 -1.44906 0
M  V30 14424 C 1452.74 -0.119633 -2.02146 0
M  V30 14425 C 1453.07 1.25432 -1.48651 0
M  V30 14426 O 1452.32 1.84372 -0.656155 0
M  V30 14427 C 1452.62 -0.0432891 -3.57374 0
M  V30 14428 C 1452.29 -1.35451 -4.30074 0
M  V30 14429 C 1450.95 -1.71365 -4.49653 0
M  V30 14430 C 1453.3 -2.22053 -4.71532 0
M  V30 14431 C 1450.63 -2.93611 -5.07946 0
M  V30 14432 C 1452.98 -3.43559 -5.31178 0
M  V30 14433 C 1451.65 -3.7971 -5.48977 0
M  V30 14434 H 1450.92 -0.0437769 -0.739706 0
M  V30 14435 H 1453.56 -0.803722 -1.73818 0
M  V30 14436 H 1451.87 0.72412 -3.8505 0
M  V30 14437 H 1453.57 0.359964 -3.99381 0
M  V30 14438 H 1450.16 -1.06499 -4.15158 0
M  V30 14439 H 1454.34 -1.95603 -4.56129 0
M  V30 14440 H 1449.6 -3.21712 -5.19915 0
M  V30 14441 H 1453.77 -4.10906 -5.62254 0
M  V30 14442 H 1451.4 -4.7452 -5.93915 0
M  V30 14443 N 1452.97 1.53444 -0.359552 0
M  V30 14444 C 1454.22 2.02152 0.224969 0
M  V30 14445 C 1454.57 1.24236 1.46912 0
M  V30 14446 O 1453.87 0.325976 1.88807 0
M  V30 14447 C 1454.06 3.5273 0.575863 0
M  V30 14448 C 1453.89 4.45226 -0.63273 0
M  V30 14449 C 1452.66 4.92204 -1.14296 0
M  V30 14450 C 1454.86 4.92058 -1.49611 0
M  V30 14451 N 1452.84 5.68692 -2.31221 0
M  V30 14452 C 1454.21 5.66829 -2.51208 0
M  V30 14453 C 1456.27 4.74141 -1.51969 0
M  V30 14454 C 1454.97 6.25587 -3.55012 0
M  V30 14455 C 1456.99 5.33761 -2.54663 0
M  V30 14456 C 1456.36 6.08412 -3.54984 0
M  V30 14457 H 1452.46 0.780693 0.0451987 0
M  V30 14458 H 1455.04 1.88097 -0.502735 0
M  V30 14459 H 1453.21 3.66958 1.27265 0
M  V30 14460 H 1454.94 3.88166 1.14495 0
M  V30 14461 H 1451.7 4.6827 -0.70853 0
M  V30 14462 H 1452.12 6.116 -2.90301 0
M  V30 14463 H 1456.76 4.15956 -0.757639 0
M  V30 14464 H 1454.48 6.82871 -4.32102 0
M  V30 14465 H 1458.07 5.21795 -2.57334 0
M  V30 14466 H 1456.95 6.53724 -4.33145 0
M  V30 14467 N 1454.45 0.0885642 1.57351 0
M  V30 14468 C 1455.36 -0.887092 2.17182 0
M  V30 14469 C 1456.38 -1.31498 1.13949 0
M  V30 14470 O 1457.55 -1.38424 1.4629 0
M  V30 14471 C 1454.62 -2.13053 2.73513 0
M  V30 14472 C 1453.68 -1.75747 3.91678 0
M  V30 14473 C 1452.91 -2.94163 4.45313 0
M  V30 14474 O 1453.13 -4.08693 3.97903 0
M  V30 14475 O 1452.07 -2.73008 5.36424 0
M  V30 14476 H 1455.89 -0.408073 3.00946 0
M  V30 14477 H 1453.48 -0.135431 1.48785 0
M  V30 14478 H 1455.36 -2.85937 3.09545 0
M  V30 14479 H 1454.04 -2.6002 1.92798 0
M  V30 14480 H 1452.94 -1.00064 3.60469 0
M  V30 14481 H 1454.28 -1.33549 4.73736 0
M  V30 14482 N 1455.93 -1.56509 -0.185096 0
M  V30 14483 C 1456.84 -1.98552 -1.24958 0
M  V30 14484 C 1457.85 -0.894713 -1.49234 0
M  V30 14485 O 1459.03 -1.20126 -1.61653 0
M  V30 14486 C 1456.1 -2.32513 -2.57175 0
M  V30 14487 C 1455.16 -3.55351 -2.40882 0
M  V30 14488 C 1454.39 -3.87683 -3.66794 0
M  V30 14489 O 1454.61 -3.21167 -4.7139 0
M  V30 14490 O 1453.55 -4.8108 -3.61726 0
M  V30 14491 H 1457.37 -2.89342 -0.922756 0
M  V30 14492 H 1454.96 -1.44196 -0.390887 0
M  V30 14493 H 1456.84 -2.55387 -3.35195 0
M  V30 14494 H 1455.51 -1.44888 -2.89464 0
M  V30 14495 H 1454.42 -3.37712 -1.60939 0
M  V30 14496 H 1455.75 -4.43474 -2.13522 0
M  V30 14497 N 1457.41 0.45317 -1.50944 0
M  V30 14498 C 1458.65 1.20568 -1.63068 0
M  V30 14499 C 1458.99 1.91229 -0.338375 0
M  V30 14500 O 1458.26 1.82916 0.661207 0
M  V30 14501 C 1458.54 2.23522 -2.8233 0
M  V30 14502 C 1458.4 1.57047 -4.21493 0
M  V30 14503 C 1459.72 3.24663 -2.97123 0
M  V30 14504 H 1456.83 0.436971 -0.593486 0
M  V30 14505 H 1459.48 0.497008 -1.83384 0
M  V30 14506 H 1457.63 2.83961 -2.65139 0
M  V30 14507 H 1459.3 1.00067 -4.50316 0
M  V30 14508 H 1457.54 0.873143 -4.24922 0
M  V30 14509 H 1458.21 2.31949 -5.00903 0
M  V30 14510 H 1460.69 2.74264 -3.12919 0
M  V30 14511 H 1459.56 3.9401 -3.82161 0
M  V30 14512 H 1459.83 3.89843 -2.08506 0
M  V30 14513 N 1458.88 1.40823 0.707568 0
M  V30 14514 C 1459.85 1.41464 1.80334 0
M  V30 14515 C 1460.85 0.307143 1.57839 0
M  V30 14516 O 1462.04 0.566444 1.64733 0
M  V30 14517 C 1459.17 1.21426 3.18541 0
M  V30 14518 H 1460.36 2.38998 1.81162 0
M  V30 14519 H 1457.92 1.2679 0.914007 0
M  V30 14520 H 1458.65 0.246847 3.23359 0
M  V30 14521 H 1458.44 2.01657 3.36269 0
M  V30 14522 H 1459.93 1.24681 3.98553 0
M  V30 14523 N 1460.36 -0.94061 1.26453 0
M  V30 14524 C 1461.59 -1.72654 1.14914 0
M  V30 14525 C 1462.01 -1.85823 -0.291789 0
M  V30 14526 O 1461.37 -1.34888 -1.2114 0
M  V30 14527 C 1461.42 -3.11083 1.82372 0
M  V30 14528 O 1460.52 -3.971 1.1129 0
M  V30 14529 H 1459.86 -0.529704 0.400387 0
M  V30 14530 H 1462.39 -1.17803 1.67283 0
M  V30 14531 H 1462.4 -3.6147 1.89219 0
M  V30 14532 H 1461.08 -3.00815 2.87199 0
M  V30 14533 H 1459.66 -3.5555 1.12423 0
M  V30 14534 N 1461.84 -1.08266 -1.14527 0
M  V30 14535 C 1463.09 -0.809856 -1.85164 0
M  V30 14536 C 1463.41 0.666263 -1.83265 0
M  V30 14537 O 1462.68 1.48295 -1.28006 0
M  V30 14538 H 1461.26 -0.296598 -0.685594 0
M  V30 14539 H 1463.92 -1.36834 -1.38789 0
M  V30 14540 H 1463.02 -1.15272 -2.90032 0
M  V30 14541 N 1463.32 1.31536 -0.86811 0
M  V30 14542 C 1464.23 2.32326 -0.32588 0
M  V30 14543 C 1465.25 1.64632 0.563243 0
M  V30 14544 O 1466.42 1.96067 0.460403 0
M  V30 14545 C 1463.49 3.43562 0.46539 0
M  V30 14546 C 1462.55 4.26919 -0.451472 0
M  V30 14547 C 1461.78 5.32844 0.302129 0
M  V30 14548 O 1462 5.49485 1.53045 0
M  V30 14549 O 1460.94 6.00944 -0.339048 0
M  V30 14550 H 1464.76 2.80622 -1.16126 0
M  V30 14551 H 1462.35 1.35401 -0.631428 0
M  V30 14552 H 1464.23 4.11368 0.914028 0
M  V30 14553 H 1462.91 2.97432 1.27734 0
M  V30 14554 H 1461.81 3.61874 -0.948571 0
M  V30 14555 H 1463.15 4.7661 -1.22897 0
M  V30 14556 N 1464.8 0.627364 1.44575 0
M  V30 14557 C 1465.71 -0.0811184 2.3446 0
M  V30 14558 C 1466.72 -0.839668 1.52399 0
M  V30 14559 O 1467.9 -0.792784 1.8514 0
M  V30 14560 C 1464.96 -1.05296 3.30323 0
M  V30 14561 C 1464.03 -0.294201 4.28291 0
M  V30 14562 C 1463.26 -1.21975 5.19575 0
M  V30 14563 O 1463.48 -2.45834 5.14706 0
M  V30 14564 O 1462.42 -0.70611 5.97744 0
M  V30 14565 H 1466.24 0.658067 2.96485 0
M  V30 14566 H 1463.83 0.387565 1.44285 0
M  V30 14567 H 1465.71 -1.61218 3.89341 0
M  V30 14568 H 1464.38 -1.77283 2.70837 0
M  V30 14569 H 1463.29 0.307969 3.7283 0
M  V30 14570 H 1464.62 0.385567 4.90687 0
M  V30 14571 N 1466.28 -1.53251 0.367684 0
M  V30 14572 C 1467.69 -1.86369 -0.111073 0
M  V30 14573 C 1468.04 -1.2882 -1.47986 0
M  V30 14574 O 1467.16 -0.611058 -2.07593 0
M  V30 14575 C 1467.76 -3.38159 -0.208325 0
M  V30 14576 C 1466.32 -3.71067 -0.63134 0
M  V30 14577 C 1465.46 -2.76425 0.220144 0
M  V30 14578 H 1468.41 -1.47469 0.586398 0
M  V30 14579 H 1468.44 -3.66252 -1.03151 0
M  V30 14580 H 1467.95 -3.80015 0.788038 0
M  V30 14581 H 1466.05 -3.34769 -1.63586 0
M  V30 14582 H 1466.16 -4.77389 -0.404491 0
M  V30 14583 H 1464.53 -2.5279 -0.311298 0
M  V30 14584 H 1465.31 -3.21115 1.21409 0
M  V30 14585 N 1467.75 -0.0969077 -1.57302 0
M  V30 14586 C 1468.72 0.846895 -2.1298 0
M  V30 14587 C 1469.72 1.20962 -1.05947 0
M  V30 14588 O 1470.91 1.13876 -1.31826 0
M  V30 14589 C 1468.04 2.14215 -2.65188 0
M  V30 14590 H 1469.23 0.363398 -2.9769 0
M  V30 14591 H 1466.78 0.152107 -1.55558 0
M  V30 14592 H 1467.52 2.67046 -1.84002 0
M  V30 14593 H 1467.3 1.89176 -3.43445 0
M  V30 14594 H 1468.79 2.81728 -3.08252 0
M  V30 14595 N 1469.23 1.56605 0.176793 0
M  V30 14596 C 1470.16 1.99014 1.2213 0
M  V30 14597 C 1471.14 0.86487 1.46472 0
M  V30 14598 O 1472.33 1.13055 1.57899 0
M  V30 14599 C 1469.46 2.34534 2.56146 0
M  V30 14600 C 1468.41 3.4997 2.46384 0
M  V30 14601 C 1467.74 3.71217 3.8484 0
M  V30 14602 C 1469.04 4.83592 1.97323 0
M  V30 14603 H 1470.73 2.86517 0.8688 0
M  V30 14604 H 1468.28 1.37846 0.416481 0
M  V30 14605 H 1470.23 2.62799 3.29416 0
M  V30 14606 H 1468.95 1.43933 2.93174 0
M  V30 14607 H 1467.61 3.21824 1.75569 0
M  V30 14608 H 1467.26 2.77916 4.19251 0
M  V30 14609 H 1466.96 4.48885 3.79178 0
M  V30 14610 H 1468.49 4.01877 4.59704 0
M  V30 14611 H 1469.9 5.10768 2.60363 0
M  V30 14612 H 1468.3 5.64858 2.02622 0
M  V30 14613 H 1469.37 4.75951 0.927275 0
M  V30 14614 N 1470.71 -0.445159 1.51182 0
M  V30 14615 C 1472.12 -1.02528 1.56028 0
M  V30 14616 C 1472.47 -1.92503 0.379087 0
M  V30 14617 O 1471.6 -2.10424 -0.505056 0
M  V30 14618 C 1472.19 -1.86621 2.82768 0
M  V30 14619 C 1470.75 -2.39697 2.90211 0
M  V30 14620 C 1469.9 -1.18705 2.50608 0
M  V30 14621 H 1472.85 -0.226732 1.57072 0
M  V30 14622 H 1472.87 -2.71987 2.66089 0
M  V30 14623 H 1472.38 -1.2111 3.68719 0
M  V30 14624 H 1470.48 -3.08686 2.08672 0
M  V30 14625 H 1470.6 -2.73029 3.9369 0
M  V30 14626 H 1468.96 -1.52995 2.03629 0
M  V30 14627 H 1469.74 -0.548156 3.38895 0
M  V30 14628 N 1472.19 -1.41197 -0.700089 0
M  V30 14629 C 1473.44 -1.40034 -1.45722 0
M  V30 14630 C 1473.76 -0.00876281 -1.94998 0
M  V30 14631 O 1473.03 0.948647 -1.71399 0
M  V30 14632 H 1471.61 -0.515433 -0.540683 0
M  V30 14633 H 1474.27 -1.76394 -0.828926 0
M  V30 14634 H 1473.36 -2.08477 -2.32258 0
M  V30 14635 N 1473.67 0.933891 -1.2695 0
M  V30 14636 C 1474.89 1.71512 -1.15721 0
M  V30 14637 C 1475.31 1.8661 0.286712 0
M  V30 14638 O 1474.67 1.3787 1.19574 0
M  V30 14639 C 1474.72 3.11804 -1.82922 0
M  V30 14640 O 1474.44 2.97421 -3.21672 0
M  V30 14641 C 1475.94 4.06108 -1.7774 0
M  V30 14642 H 1473.16 0.53678 -0.402626 0
M  V30 14643 H 1475.7 1.17025 -1.67706 0
M  V30 14644 H 1473.86 3.6317 -1.34856 0
M  V30 14645 H 1474.27 3.86069 -3.55037 0
M  V30 14646 H 1475.75 5.02082 -2.29385 0
M  V30 14647 H 1476.22 4.32828 -0.74543 0
M  V30 14648 H 1476.83 3.60665 -2.25391 0
M  V30 14649 N 1475.14 1.08871 1.13951 0
M  V30 14650 C 1476.55 0.841552 1.66658 0
M  V30 14651 C 1476.91 -0.630932 1.85779 0
M  V30 14652 O 1476.03 -1.48673 1.57243 0
M  V30 14653 C 1476.63 1.52109 3.02735 0
M  V30 14654 C 1475.18 1.32105 3.52456 0
M  V30 14655 C 1474.33 1.58084 2.27826 0
M  V30 14656 H 1477.28 1.24865 0.97951 0
M  V30 14657 H 1477.3 0.950978 3.68425 0
M  V30 14658 H 1476.82 2.59276 2.88786 0
M  V30 14659 H 1474.92 0.270294 3.71618 0
M  V30 14660 H 1475.03 2.05197 4.32933 0
M  V30 14661 H 1473.39 1.00264 2.34135 0
M  V30 14662 H 1474.18 2.66467 2.16449 0
M  V30 14663 N 1476.62 -1.31073 0.875073 0
M  V30 14664 C 1477.55 -2.26485 0.279215 0
M  V30 14665 C 1478.53 -1.5134 -0.594556 0
M  V30 14666 O 1479.72 -1.80393 -0.546849 0
M  V30 14667 C 1476.84 -3.33268 -0.604165 0
M  V30 14668 C 1475.89 -4.26036 0.198944 0
M  V30 14669 S 1476.72 -5.11636 1.58079 0
M  V30 14670 C 1477.88 -6.21932 0.703665 0
M  V30 14671 H 1478.11 -2.76677 1.088 0
M  V30 14672 H 1475.64 -1.38917 0.673898 0
M  V30 14673 H 1477.6 -3.9526 -1.10813 0
M  V30 14674 H 1476.26 -2.8182 -1.38694 0
M  V30 14675 H 1475.46 -5.01759 -0.474755 0
M  V30 14676 H 1475.06 -3.68567 0.635185 0
M  V30 14677 H 1477.35 -6.77448 -0.0835828 0
M  V30 14678 H 1478.29 -6.93465 1.43219 0
M  V30 14679 H 1478.7 -5.63859 0.268954 0
M  V30 14680 N 1478.1 -0.635022 -1.4424 0
M  V30 14681 C 1479.05 0.0797218 -2.32463 0
M  V30 14682 C 1480.04 0.831818 -1.47571 0
M  V30 14683 O 1481.25 0.744277 -1.63892 0
M  V30 14684 H 1477.62 0.0445532 -0.750679 0
M  V30 14685 H 1479.59 -0.682374 -2.90493 0
M  V30 14686 C 1478.34 1.04505 -3.31623 0
M  V30 14687 H 1477.67 0.475755 -3.96959 0
M  V30 14688 H 1479.11 1.51458 -3.96026 0
M  V30 14689 C 1477.57 2.13221 -2.60842 0
M  V30 14690 O 1478.1 3.21357 -2.41025 0
M  V30 14691 N 1476.3 1.89264 -2.20516 0
M  V30 14692 H 1475.85 1.01329 -2.36834 0
M  V30 14693 H 1475.81 2.62203 -1.73484 0
M  V30 14694 N 1479.58 1.53054 -0.375806 0
M  V30 14695 C 1480.54 2.24666 0.453608 0
M  V30 14696 C 1481.54 1.25816 1.00135 0
M  V30 14697 O 1482.73 1.50016 0.885481 0
M  V30 14698 C 1479.86 2.99131 1.63503 0
M  V30 14699 H 1481.06 2.994 -0.173172 0
M  V30 14700 H 1478.61 1.55778 -0.127673 0
M  V30 14701 H 1479.34 2.28666 2.29962 0
M  V30 14702 H 1479.13 3.71671 1.24913 0
M  V30 14703 H 1480.62 3.53542 2.22256 0
M  V30 14704 N 1481.06 0.105248 1.57248 0
M  V30 14705 C 1482.3 -0.554956 1.94331 0
M  V30 14706 C 1482.63 -1.68087 0.988528 0
M  V30 14707 O 1481.9 -1.95854 0.042366 0
M  V30 14708 H 1480.48 -0.207994 0.717459 0
M  V30 14709 H 1483.14 0.170964 1.94149 0
M  V30 14710 H 1482.23 -0.95853 2.97016 0
M  V30 14711 N 1482.53 -1.56697 -0.168486 0
M  V30 14712 C 1483.5 -1.95744 -1.19235 0
M  V30 14713 C 1484.5 -0.841419 -1.37028 0
M  V30 14714 O 1485.69 -1.10842 -1.34386 0
M  V30 14715 C 1482.82 -2.25471 -2.55686 0
M  V30 14716 H 1484.01 -2.87368 -0.857892 0
M  V30 14717 H 1481.57 -1.50798 -0.411041 0
M  V30 14718 H 1482.3 -1.36571 -2.94141 0
M  V30 14719 H 1482.09 -3.06822 -2.44137 0
M  V30 14720 H 1483.58 -2.56593 -3.29469 0
M  V30 14721 N 1484.01 0.437135 -1.51416 0
M  V30 14722 C 1484.92 1.55581 -1.75589 0
M  V30 14723 C 1485.94 1.61797 -0.640132 0
M  V30 14724 O 1487.11 1.79035 -0.922406 0
M  V30 14725 C 1484.18 2.91561 -1.87598 0
M  V30 14726 C 1483.24 2.9546 -3.11451 0
M  V30 14727 C 1482.47 4.24954 -3.22878 0
M  V30 14728 O 1482.7 5.17341 -2.40238 0
M  V30 14729 O 1481.63 4.35141 -4.15856 0
M  V30 14730 H 1485.46 1.38098 -2.70486 0
M  V30 14731 H 1483.04 0.620163 -1.3592 0
M  V30 14732 H 1484.92 3.72262 -1.97481 0
M  V30 14733 H 1483.6 3.09171 -0.958889 0
M  V30 14734 H 1482.51 2.13713 -3.07046 0
M  V30 14735 H 1483.84 2.82794 -4.0285 0
M  V30 14736 N 1485.49 1.41566 0.692592 0
M  V30 14737 C 1486.4 1.46014 1.83622 0
M  V30 14738 C 1487.42 0.350453 1.70434 0
M  V30 14739 O 1488.59 0.598634 1.92298 0
M  V30 14740 C 1485.66 1.34308 3.19628 0
M  V30 14741 C 1484.72 2.55617 3.44904 0
M  V30 14742 C 1483.95 2.4446 4.74421 0
M  V30 14743 O 1484.17 1.47078 5.51112 0
M  V30 14744 O 1483.11 3.34272 5.00546 0
M  V30 14745 H 1486.93 2.42504 1.82826 0
M  V30 14746 H 1484.52 1.23136 0.846039 0
M  V30 14747 H 1486.4 1.30075 4.00822 0
M  V30 14748 H 1485.08 0.409343 3.21101 0
M  V30 14749 H 1483.98 2.65426 2.63628 0
M  V30 14750 H 1485.32 3.47829 3.48247 0
M  V30 14751 N 1486.97 -0.927146 1.27443 0
M  V30 14752 C 1488.21 -1.67738 1.13982 0
M  V30 14753 C 1488.55 -1.91653 -0.313511 0
M  V30 14754 O 1487.82 -1.50729 -1.22926 0
M  V30 14755 C 1488.11 -3.04357 1.92454 0
M  V30 14756 C 1487.96 -2.8768 3.45775 0
M  V30 14757 C 1489.28 -4.04696 1.72944 0
M  V30 14758 H 1486.4 -0.608749 0.415444 0
M  V30 14759 H 1489.04 -1.07587 1.56605 0
M  V30 14760 H 1487.19 -3.55702 1.56232 0
M  V30 14761 H 1488.86 -2.43449 3.9183 0
M  V30 14762 H 1487.1 -2.23011 3.72087 0
M  V30 14763 H 1487.77 -3.8464 3.95924 0
M  V30 14764 H 1490.25 -3.62364 2.04528 0
M  V30 14765 H 1489.13 -4.98276 2.30243 0
M  V30 14766 H 1489.39 -4.36878 0.677505 0
M  V30 14767 N 1488.45 -1.09474 -1.13372 0
M  V30 14768 C 1489.4 -0.704018 -2.16858 0
M  V30 14769 C 1490.38 0.281867 -1.58412 0
M  V30 14770 O 1491.57 0.0921582 -1.7676 0
M  V30 14771 C 1488.7 -0.126682 -3.43066 0
M  V30 14772 C 1487.79 -1.13901 -4.08518 0
M  V30 14773 N 1488.18 -2.3263 -4.49129 0
M  V30 14774 C 1486.48 -0.977263 -4.35162 0
M  V30 14775 C 1487.18 -2.9703 -5.00148 0
M  V30 14776 N 1486.15 -2.24588 -4.95037 0
M  V30 14777 H 1489.96 -1.60796 -2.46012 0
M  V30 14778 H 1487.47 -0.97103 -1.30172 0
M  V30 14779 H 1489.47 0.171257 -4.16548 0
M  V30 14780 H 1488.13 0.772105 -3.15386 0
M  V30 14781 H 1489.14 -2.70218 -4.41817 0
M  V30 14782 H 1485.81 -0.1332 -4.17287 0
M  V30 14783 H 1487.2 -3.97966 -5.41362 0
M  V30 14784 N 1489.92 1.30607 -0.882012 0
M  V30 14785 C 1491.15 2.00954 -0.513048 0
M  V30 14786 C 1491.57 1.65697 0.890279 0
M  V30 14787 O 1490.93 0.872001 1.58952 0
M  V30 14788 C 1490.98 3.53907 -0.691525 0
M  V30 14789 O 1490.08 4.11555 0.263896 0
M  V30 14790 H 1489.43 0.632356 -0.202537 0
M  V30 14791 H 1491.96 1.66524 -1.18874 0
M  V30 14792 H 1491.97 4.0372 -0.589392 0
M  V30 14793 H 1490.64 3.78907 -1.71471 0
M  V30 14794 H 1489.22 3.7272 0.115707 0
M  V30 14795 N 1491.4 0.642663 1.43901 0
M  V30 14796 C 1492.68 0.0821715 1.95427 0
M  V30 14797 C 1493.06 -1.3951 1.58431 0
M  V30 14798 O 1492.41 -2.11531 0.864118 0
M  V30 14799 C 1492.62 0.317229 3.47555 0
M  V30 14800 C 1493.97 0.216547 4.24047 0
M  V30 14801 O 1494.99 0.249216 3.55327 0
M  V30 14802 O 1493.85 0.131269 5.46342 0
M  V30 14803 H 1490.94 -0.0156936 0.826851 0
M  V30 14804 H 1493.49 0.715168 1.53894 0
M  V30 14805 H 1492.26 1.34184 3.67574 0
M  V30 14806 H 1491.88 -0.349348 3.96062 0
M  V30 14807 N 1492.88 -1.52852 0.383918 0
M  V30 14808 C 1494.29 -1.86477 -0.0912997 0
M  V30 14809 C 1494.64 -1.30382 -1.46611 0
M  V30 14810 O 1493.77 -0.633042 -2.06934 0
M  V30 14811 C 1494.36 -3.38361 -0.172447 0
M  V30 14812 C 1492.92 -3.71716 -0.591948 0
M  V30 14813 C 1492.07 -2.76176 0.24945 0
M  V30 14814 H 1495.02 -1.46839 0.602006 0
M  V30 14815 H 1495.04 -3.67325 -0.992603 0
M  V30 14816 H 1494.55 -3.79158 0.8283 0
M  V30 14817 H 1492.65 -3.36486 -1.60026 0
M  V30 14818 H 1492.77 -4.77792 -0.353835 0
M  V30 14819 H 1491.13 -2.53106 -0.284469 0
M  V30 14820 H 1491.91 -3.19809 1.24808 0
M  V30 14821 N 1494.36 -0.113586 -1.5719 0
M  V30 14822 C 1495.6 0.548872 -1.96893 0
M  V30 14823 C 1495.96 1.64191 -0.99525 0
M  V30 14824 O 1497.16 2.36289 -1.28145 0
M  V30 14825 C 1495.44 1.07279 -3.40919 0
M  V30 14826 S 1496.99 1.74453 -4.02631 0
M  V30 14827 H 1493.81 0.178565 -0.688212 0
M  V30 14828 H 1496.41 -0.197382 -1.94501 0
M  V30 14829 H 1495.12 0.266019 -4.09537 0
M  V30 14830 H 1494.65 1.85444 -3.46949 0
M  V30 14831 H 1496.66 3.02998 -3.92946 0
M  V30 14832 N 1495.84 1.56784 0.160173 0
M  V30 14833 C 1496.75 2.00514 1.21783 0
M  V30 14834 C 1497.76 0.918341 1.47792 0
M  V30 14835 O 1498.94 1.22683 1.59721 0
M  V30 14836 C 1496 2.36575 2.53443 0
M  V30 14837 C 1495.07 3.59138 2.35198 0
M  V30 14838 C 1494.3 3.93469 3.6058 0
M  V30 14839 O 1494.52 3.28625 4.6622 0
M  V30 14840 O 1493.46 4.86774 3.54027 0
M  V30 14841 H 1497.28 2.90774 0.876607 0
M  V30 14842 H 1494.87 1.44799 0.367897 0
M  V30 14843 H 1496.75 2.60687 3.31089 0
M  V30 14844 H 1495.42 1.49474 2.87122 0
M  V30 14845 H 1494.33 3.4023 1.55546 0
M  V30 14846 H 1495.66 4.46815 2.0644 0
M  V30 14847 N 1497.32 -0.429099 1.51646 0
M  V30 14848 C 1498.26 -1.54202 1.74139 0
M  V30 14849 C 1499.26 -1.58117 0.607905 0
M  V30 14850 O 1500.46 -1.61763 0.789486 0
M  V30 14851 H 1496.84 -0.512456 0.550357 0
M  V30 14852 H 1498.81 -1.32408 2.67415 0
M  V30 14853 C 1497.56 -2.91779 1.89104 0
M  V30 14854 H 1496.88 -2.89502 2.75733 0
M  V30 14855 H 1498.32 -3.68995 2.08851 0
M  V30 14856 C 1496.78 -3.30512 0.652945 0
M  V30 14857 O 1497.31 -4.01257 -0.188553 0
M  V30 14858 N 1495.52 -2.86359 0.494634 0
M  V30 14859 H 1495.06 -2.28959 1.18049 0
M  V30 14860 H 1495.02 -3.12637 -0.332503 0
M  V30 14861 N 1498.79 -1.41931 -0.685074 0
M  V30 14862 C 1499.74 -1.44824 -1.82013 0
M  V30 14863 C 1500.74 -0.325083 -1.66252 0
M  V30 14864 O 1501.94 -0.497614 -1.72985 0
M  V30 14865 H 1498.32 -0.453362 -0.599972 0
M  V30 14866 H 1500.29 -2.40464 -1.76691 0
M  V30 14867 C 1499.04 -1.35753 -3.20104 0
M  V30 14868 H 1498.36 -2.21469 -3.32854 0
M  V30 14869 H 1499.8 -1.41838 -3.99572 0
M  V30 14870 C 1498.26 -0.0710816 -3.36825 0
M  V30 14871 O 1498.79 0.880155 -3.91939 0
M  V30 14872 N 1496.99 0.00842652 -2.90599 0
M  V30 14873 H 1496.54 -0.766427 -2.45934 0
M  V30 14874 H 1496.5 0.868559 -3.02165 0
M  V30 14875 N 1500.27 0.920374 -1.27933 0
M  V30 14876 C 1501.68 1.48385 -1.13309 0
M  V30 14877 C 1502.03 1.94202 0.279307 0
M  V30 14878 O 1501.16 1.81855 1.17294 0
M  V30 14879 C 1501.75 2.69681 -2.05079 0
M  V30 14880 C 1500.31 3.22229 -1.94539 0
M  V30 14881 C 1499.46 1.94948 -1.97207 0
M  V30 14882 H 1502.41 0.733744 -1.40719 0
M  V30 14883 H 1502.43 3.44717 -1.6109 0
M  V30 14884 H 1501.94 2.36304 -3.07867 0
M  V30 14885 H 1500.04 3.60348 -0.94764 0
M  V30 14886 H 1500.16 3.87927 -2.81157 0
M  V30 14887 H 1498.52 2.1176 -1.41527 0
M  V30 14888 H 1499.3 1.63875 -3.01662 0
M  V30 14889 N 1501.75 1.10074 1.1279 0
M  V30 14890 C 1502.99 0.850621 1.8586 0
M  V30 14891 C 1503.35 -0.612685 1.81962 0
M  V30 14892 O 1504.55 -0.979003 2.50338 0
M  V30 14893 C 1502.83 1.3793 3.29712 0
M  V30 14894 S 1504.38 1.26406 4.20199 0
M  V30 14895 H 1501.2 0.307475 0.641077 0
M  V30 14896 H 1503.8 1.40544 1.35895 0
M  V30 14897 H 1502.51 2.43841 3.30106 0
M  V30 14898 H 1502.04 0.820901 3.8474 0
M  V30 14899 H 1504.05 0.219313 4.95715 0
M  V30 14900 N 1503.23 -1.30138 0.888926 0
M  V30 14901 C 1504.16 -2.3047 0.374934 0
M  V30 14902 C 1505.14 -1.61156 -0.544322 0
M  V30 14903 O 1506.32 -1.88738 -0.457337 0
M  V30 14904 C 1503.45 -3.44896 -0.407935 0
M  V30 14905 C 1502.41 -4.25935 0.419916 0
M  V30 14906 C 1501.73 -5.32452 -0.489797 0
M  V30 14907 C 1503.03 -4.9508 1.66413 0
M  V30 14908 H 1504.73 -2.73711 1.21337 0
M  V30 14909 H 1502.27 -1.31586 0.584899 0
M  V30 14910 H 1504.23 -4.14153 -0.778177 0
M  V30 14911 H 1502.95 -3.0047 -1.28005 0
M  V30 14912 H 1501.61 -3.58372 0.772348 0
M  V30 14913 H 1501.26 -4.84273 -1.35974 0
M  V30 14914 H 1500.96 -5.87569 0.0603412 0
M  V30 14915 H 1502.48 -6.04563 -0.856468 0
M  V30 14916 H 1503.9 -5.56831 1.36425 0
M  V30 14917 H 1502.29 -5.6008 2.15477 0
M  V30 14918 H 1503.36 -4.20981 2.4063 0
M  V30 14919 N 1504.71 -0.650285 -1.43559 0
M  V30 14920 C 1505.66 0.0653687 -2.27906 0
M  V30 14921 C 1506.64 0.797628 -1.39738 0
M  V30 14922 O 1507.83 0.680579 -1.63393 0
M  V30 14923 C 1504.96 1.03311 -3.27386 0
M  V30 14924 C 1504.05 0.299481 -4.23041 0
M  V30 14925 N 1504.44 -0.68239 -5.01176 0
M  V30 14926 C 1502.74 0.54133 -4.42703 0
M  V30 14927 C 1503.44 -1.11758 -5.70863 0
M  V30 14928 N 1502.41 -0.452434 -5.41714 0
M  V30 14929 H 1506.21 -0.688114 -2.85731 0
M  V30 14930 H 1503.73 -0.477326 -1.55227 0
M  V30 14931 H 1505.73 1.56058 -3.86589 0
M  V30 14932 H 1504.39 1.78669 -2.71123 0
M  V30 14933 H 1505.4 -1.06099 -5.06915 0
M  V30 14934 H 1502.07 1.2763 -3.97513 0
M  V30 14935 H 1503.46 -1.92985 -6.43589 0
M  V30 14936 N 1506.18 1.52647 -0.392018 0
M  V30 14937 C 1507.43 2.01215 0.188926 0
M  V30 14938 C 1507.75 1.28019 1.47092 0
M  V30 14939 O 1507.02 0.401048 1.91751 0
M  V30 14940 H 1505.6 0.743444 0.0728049 0
M  V30 14941 H 1508.26 1.87715 -0.524332 0
M  V30 14942 H 1507.36 3.09562 0.397216 0
M  V30 14943 N 1507.66 0.121921 1.57128 0
M  V30 14944 C 1508.91 -0.534313 1.94909 0
M  V30 14945 C 1509.23 -1.67029 1.0063 0
M  V30 14946 O 1508.5 -1.95798 0.0631366 0
M  V30 14947 H 1507.08 -0.200372 0.719625 0
M  V30 14948 H 1509.74 0.191546 1.93956 0
M  V30 14949 H 1508.84 -0.926974 2.98016 0
M  V30 14950 N 1509.14 -1.56867 -0.151857 0
M  V30 14951 C 1510.37 -1.87237 -0.880343 0
M  V30 14952 C 1510.78 -0.709565 -1.74959 0
M  V30 14953 O 1510.14 0.320818 -1.79658 0
M  V30 14954 C 1510.19 -3.16811 -1.74107 0
M  V30 14955 O 1509.91 -4.28611 -0.906858 0
M  V30 14956 C 1511.41 -3.60662 -2.57755 0
M  V30 14957 H 1508.63 -0.62074 -0.254799 0
M  V30 14958 H 1511.18 -2.03977 -0.146104 0
M  V30 14959 H 1509.33 -3.01838 -2.42842 0
M  V30 14960 H 1509.75 -5.02673 -1.49733 0
M  V30 14961 H 1511.22 -4.54176 -3.13732 0
M  V30 14962 H 1511.7 -2.85716 -3.33561 0
M  V30 14963 H 1512.3 -3.78312 -1.94319 0
M  V30 14964 N 1510.62 0.421051 -1.51871 0
M  V30 14965 C 1511.86 1.17838 -1.67013 0
M  V30 14966 C 1512.22 1.88083 -0.385861 0
M  V30 14967 O 1513.42 2.65605 -0.41324 0
M  V30 14968 C 1511.69 2.15567 -2.85071 0
M  V30 14969 S 1513.25 2.99568 -3.20631 0
M  V30 14970 H 1510.07 0.399375 -0.588235 0
M  V30 14971 H 1512.67 0.46746 -1.89829 0
M  V30 14972 H 1511.38 1.62629 -3.76802 0
M  V30 14973 H 1510.91 2.91216 -2.64493 0
M  V30 14974 H 1512.92 4.1739 -2.68328 0
M  V30 14975 N 1512.1 1.42293 0.677538 0
M  V30 14976 C 1513.04 1.45787 1.81243 0
M  V30 14977 C 1514.04 0.333895 1.66077 0
M  V30 14978 O 1515.24 0.50678 1.72719 0
M  V30 14979 H 1511.62 0.456538 0.597559 0
M  V30 14980 H 1513.59 2.41398 1.75413 0
M  V30 14981 C 1512.34 1.37449 3.19379 0
M  V30 14982 H 1511.66 2.23231 3.31674 0
M  V30 14983 H 1513.1 1.43955 3.98814 0
M  V30 14984 C 1511.56 0.0889433 3.36783 0
M  V30 14985 O 1512.09 -0.859357 3.924 0
M  V30 14986 N 1510.3 0.00698476 2.90599 0
M  V30 14987 H 1509.84 0.779459 2.45524 0
M  V30 14988 H 1509.8 -0.852522 3.02621 0
M  V30 14989 N 1513.57 -0.913576 1.28419 0
M  V30 14990 C 1514.54 -1.99757 1.12382 0
M  V30 14991 C 1515.54 -1.60675 0.063435 0
M  V30 14992 O 1516.73 -1.71433 0.30923 0
M  V30 14993 C 1513.86 -3.33307 0.715506 0
M  V30 14994 H 1515.05 -2.15414 2.08655 0
M  V30 14995 H 1512.61 -1.09626 1.11408 0
M  V30 14996 H 1513.34 -3.23351 -0.247977 0
M  V30 14997 H 1513.13 -3.63034 1.4815 0
M  V30 14998 H 1514.62 -4.12882 0.625953 0
M  V30 14999 N 1515.05 -1.1067 -1.12204 0
M  V30 15000 C 1516 -0.752659 -2.20086 0
M  V30 15001 C 1516.99 0.252284 -1.67511 0
M  V30 15002 O 1518.2 0.112398 -1.79649 0
M  V30 15003 H 1514.58 -0.225473 -0.717402 0
M  V30 15004 H 1516.55 -1.67136 -2.472 0
M  V30 15005 C 1515.3 -0.203345 -3.47105 0
M  V30 15006 H 1514.62 -0.967864 -3.87908 0
M  V30 15007 H 1516.06 0.00629123 -4.24 0
M  V30 15008 C 1514.52 1.06452 -3.1964 0
M  V30 15009 O 1515.05 2.14562 -3.39597 0
M  V30 15010 N 1513.25 0.984122 -2.73429 0
M  V30 15011 H 1512.8 0.104258 -2.57389 0
M  V30 15012 H 1512.76 1.83312 -2.55429 0
M  V30 15013 N 1516.53 1.29665 -0.895815 0
M  V30 15014 C 1517.78 1.9533 -0.518725 0
M  V30 15015 C 1518.1 1.70995 0.937322 0
M  V30 15016 O 1517.37 1.03955 1.66043 0
M  V30 15017 H 1515.95 0.722736 -0.188841 0
M  V30 15018 H 1518.61 1.57991 -1.14126 0
M  V30 15019 H 1517.71 3.04193 -0.698057 0
M  V30 15020 N 1518.01 0.657889 1.43212 0
M  V30 15021 C 1519.24 0.181072 2.06106 0
M  V30 15022 C 1519.65 -1.15513 1.49339 0
M  V30 15023 O 1519.01 -1.71409 0.626517 0
M  V30 15024 C 1519.06 0.0890244 3.6139 0
M  V30 15025 O 1518.78 1.37241 4.16049 0
M  V30 15026 C 1520.28 -0.413313 4.41369 0
M  V30 15027 H 1517.5 0.0920577 0.664655 0
M  V30 15028 H 1520.05 0.899855 1.83638 0
M  V30 15029 H 1518.2 -0.580345 3.83028 0
M  V30 15030 H 1518.61 1.23467 5.09761 0
M  V30 15031 H 1520.09 -0.426663 5.50349 0
M  V30 15032 H 1520.57 -1.44549 4.14731 0
M  V30 15033 H 1521.17 0.223727 4.24711 0
M  V30 15034 N 1519.49 -1.52437 0.400108 0
M  V30 15035 C 1520.42 -2.23219 -0.474176 0
M  V30 15036 C 1521.4 -1.23699 -1.05533 0
M  V30 15037 O 1522.58 -1.52721 -1.10492 0
M  V30 15038 C 1519.71 -2.95381 -1.65734 0
M  V30 15039 C 1518.75 -4.09258 -1.20042 0
M  V30 15040 S 1519.59 -5.3522 -0.173016 0
M  V30 15041 C 1520.74 -6.10908 -1.36171 0
M  V30 15042 H 1520.98 -2.97029 0.126865 0
M  V30 15043 H 1518.51 -1.53295 0.184353 0
M  V30 15044 H 1520.47 -3.37564 -2.33583 0
M  V30 15045 H 1519.13 -2.21231 -2.2297 0
M  V30 15046 H 1518.32 -4.5889 -2.08413 0
M  V30 15047 H 1517.92 -3.69144 -0.600704 0
M  V30 15048 H 1520.22 -6.37735 -2.28691 0
M  V30 15049 H 1521.16 -7.02279 -0.906106 0
M  V30 15050 H 1521.57 -5.41838 -1.58342 0
M  V30 15051 N 1520.96 -0.130252 -1.57061 0
M  V30 15052 C 1522.19 0.531644 -1.99642 0
M  V30 15053 C 1522.6 1.60045 -1.00907 0
M  V30 15054 O 1521.95 1.83699 0.00452296 0
M  V30 15055 C 1522.01 1.20654 -3.38649 0
M  V30 15056 C 1521.67 0.284337 -4.56115 0
M  V30 15057 C 1522.67 -0.481472 -5.17666 0
M  V30 15058 C 1520.35 0.192125 -5.01932 0
M  V30 15059 C 1522.35 -1.32711 -6.23431 0
M  V30 15060 C 1520.03 -0.657135 -6.07557 0
M  V30 15061 C 1521.03 -1.41537 -6.68174 0
M  V30 15062 O 1520.72 -2.25051 -7.71756 0
M  V30 15063 H 1520.45 0.144394 -0.660399 0
M  V30 15064 H 1523.01 -0.216789 -2.04253 0
M  V30 15065 H 1521.24 2.00227 -3.30826 0
M  V30 15066 H 1522.93 1.76647 -3.65446 0
M  V30 15067 H 1523.69 -0.420169 -4.83177 0
M  V30 15068 H 1519.57 0.772017 -4.5449 0
M  V30 15069 H 1523.11 -1.91942 -6.70674 0
M  V30 15070 H 1519.01 -0.719791 -6.41474 0
M  V30 15071 H 1519.78 -2.18116 -7.88903 0
M  V30 15072 N 1522.44 1.56945 0.143535 0
M  V30 15073 C 1523.69 1.83176 0.853873 0
M  V30 15074 C 1524.01 0.71168 1.81549 0
M  V30 15075 O 1523.28 -0.266391 1.9408 0
M  V30 15076 H 1521.86 0.675785 0.318313 0
M  V30 15077 H 1524.52 1.9442 0.136712 0
M  V30 15078 H 1523.62 2.7823 1.41402 0
M  V30 15079 N 1523.92 -0.412991 1.52093 0
M  V30 15080 C 1525.16 -1.16951 1.67636 0
M  V30 15081 C 1525.53 -1.87875 0.39583 0
M  V30 15082 O 1526.73 -2.65382 0.42732 0
M  V30 15083 C 1525 -2.14052 2.8621 0
M  V30 15084 S 1526.56 -2.97863 3.22215 0
M  V30 15085 H 1523.37 -0.396249 0.590345 0
M  V30 15086 H 1525.98 -0.457386 1.90074 0
M  V30 15087 H 1524.68 -1.60628 3.7766 0
M  V30 15088 H 1524.21 -2.89809 2.66034 0
M  V30 15089 H 1526.23 -4.15961 2.70538 0
M  V30 15090 N 1525.4 -1.4265 -0.669982 0
M  V30 15091 C 1526.62 -1.46992 -1.46315 0
M  V30 15092 C 1527.05 -0.0840655 -1.87912 0
M  V30 15093 O 1526.41 0.918554 -1.56308 0
M  V30 15094 C 1526.46 -2.40663 -2.6854 0
M  V30 15095 O 1525.56 -1.88132 -3.66988 0
M  V30 15096 H 1524.9 -0.497844 -0.439372 0
M  V30 15097 H 1527.43 -1.8739 -0.821348 0
M  V30 15098 H 1527.44 -2.57405 -3.16554 0
M  V30 15099 H 1526.12 -3.41346 -2.37604 0
M  V30 15100 H 1524.69 -1.80969 -3.26044 0
M  V30 15101 N 1526.88 0.906753 -1.28902 0
M  V30 15102 C 1528.12 1.67094 -1.17724 0
M  V30 15103 C 1528.48 1.90115 0.268373 0
M  V30 15104 O 1529.68 2.64052 0.502998 0
M  V30 15105 C 1527.95 2.98802 -1.96092 0
M  V30 15106 S 1529.51 3.89867 -2.01368 0
M  V30 15107 H 1526.33 0.573768 -0.419894 0
M  V30 15108 H 1528.93 1.07797 -1.63095 0
M  V30 15109 H 1527.64 2.79755 -3.00276 0
M  V30 15110 H 1527.17 3.63143 -1.51298 0
M  V30 15111 H 1529.18 4.83273 -1.12525 0
M  V30 15112 N 1528.36 1.11264 1.11616 0
M  V30 15113 C 1529.63 0.772174 1.79713 0
M  V30 15114 C 1530.01 -0.740055 1.97703 0
M  V30 15115 O 1529.36 -1.66939 1.56024 0
M  V30 15116 C 1529.57 1.53316 3.13521 0
M  V30 15117 C 1530.92 1.71124 3.88589 0
M  V30 15118 O 1531.94 1.49725 3.23204 0
M  V30 15119 O 1530.8 2.0667 5.05915 0
M  V30 15120 H 1527.9 0.279548 0.77832 0
M  V30 15121 H 1530.44 1.21596 1.18375 0
M  V30 15122 H 1529.21 2.56194 2.95771 0
M  V30 15123 H 1528.84 1.08281 3.82572 0
M  V30 15124 N 1529.83 -1.29188 0.902679 0
M  V30 15125 C 1530.77 -2.26665 0.339964 0
M  V30 15126 C 1531.78 -1.54426 -0.515396 0
M  V30 15127 O 1532.97 -1.75384 -0.332071 0
M  V30 15128 C 1530.07 -3.34672 -0.533653 0
M  V30 15129 C 1529.24 -4.36393 0.296661 0
M  V30 15130 C 1528.3 -5.2372 -0.510264 0
M  V30 15131 O 1527.33 -5.69153 0.0732871 0
M  V30 15132 N 1528.53 -5.51373 -1.81572 0
M  V30 15133 H 1531.29 -2.75588 1.17778 0
M  V30 15134 H 1528.85 -1.42553 0.767474 0
M  V30 15135 H 1530.85 -3.90025 -1.07995 0
M  V30 15136 H 1529.42 -2.85543 -1.27216 0
M  V30 15137 H 1528.64 -3.80658 1.02436 0
M  V30 15138 H 1529.92 -5.0139 0.865191 0
M  V30 15139 H 1529.32 -5.16275 -2.31251 0
M  V30 15140 H 1527.88 -6.09528 -2.30908 0
M  V30 15141 N 1531.31 -0.665475 -1.42861 0
M  V30 15142 C 1532.56 -0.183521 -2.01265 0
M  V30 15143 C 1532.88 1.21103 -1.52837 0
M  V30 15144 O 1532.15 1.81135 -0.746109 0
M  V30 15145 H 1530.73 -0.0648565 -0.744179 0
M  V30 15146 H 1533.39 -0.859893 -1.74905 0
M  V30 15147 H 1532.49 -0.177589 -3.11594 0
M  V30 15148 N 1532.79 1.52222 -0.408187 0
M  V30 15149 C 1534.04 2.01803 0.167905 0
M  V30 15150 C 1534.36 1.29385 1.45223 0
M  V30 15151 O 1533.62 0.388383 1.91807 0
M  V30 15152 C 1533.92 3.54384 0.463353 0
M  V30 15153 C 1533.58 4.44924 -0.731665 0
M  V30 15154 C 1532.25 4.69392 -1.05946 0
M  V30 15155 C 1534.6 4.9823 -1.53023 0
M  V30 15156 C 1531.93 5.44414 -2.18702 0
M  V30 15157 C 1534.28 5.74486 -2.64855 0
M  V30 15158 C 1532.94 5.97227 -2.98121 0
M  V30 15159 H 1532.21 0.738448 0.0614409 0
M  V30 15160 H 1534.86 1.83449 -0.549412 0
M  V30 15161 H 1533.16 3.70911 1.26223 0
M  V30 15162 H 1534.86 3.90256 0.922042 0
M  V30 15163 H 1531.45 4.26057 -0.4662 0
M  V30 15164 H 1535.64 4.79236 -1.29022 0
M  V30 15165 H 1530.89 5.60242 -2.44824 0
M  V30 15166 H 1535.07 6.14788 -3.27122 0
M  V30 15167 H 1532.69 6.5514 -3.8561 0
M  V30 15168 N 1534.27 0.138579 1.5699 0
M  V30 15169 C 1535.23 -0.79013 2.1515 0
M  V30 15170 C 1536.23 -1.1811 1.09117 0
M  V30 15171 O 1537.42 -1.1034 1.34798 0
M  V30 15172 C 1534.55 -2.07109 2.70774 0
M  V30 15173 H 1535.75 -0.284343 2.98549 0
M  V30 15174 H 1533.3 -0.11081 1.55907 0
M  V30 15175 H 1534.03 -2.62074 1.91018 0
M  V30 15176 H 1533.82 -1.80004 3.4834 0
M  V30 15177 H 1535.31 -2.73456 3.15613 0
M  V30 15178 N 1535.75 -1.57019 -0.13521 0
M  V30 15179 C 1536.99 -1.83626 -0.844147 0
M  V30 15180 C 1537.31 -0.721298 -1.81169 0
M  V30 15181 O 1536.58 0.256095 -1.94219 0
M  V30 15182 H 1535.16 -0.677464 -0.314725 0
M  V30 15183 H 1537.83 -1.9449 -0.126399 0
M  V30 15184 H 1536.92 -2.78976 -1.39925 0
M  V30 15185 N 1537.22 0.404919 -1.52309 0
M  V30 15186 C 1538.13 1.51822 -1.7885 0
M  V30 15187 C 1539.15 1.60403 -0.674307 0
M  V30 15188 O 1540.33 1.77038 -0.960175 0
M  V30 15189 C 1537.39 2.87516 -1.9374 0
M  V30 15190 C 1536.45 2.88787 -3.17648 0
M  V30 15191 C 1535.69 4.18009 -3.31819 0
M  V30 15192 O 1535.91 5.12129 -2.51158 0
M  V30 15193 O 1534.84 4.26222 -4.24992 0
M  V30 15194 H 1538.67 1.32329 -2.73354 0
M  V30 15195 H 1536.25 0.591193 -1.37205 0
M  V30 15196 H 1538.14 3.6799 -2.05333 0
M  V30 15197 H 1536.81 3.07068 -1.02425 0
M  V30 15198 H 1535.72 2.07152 -3.11511 0
M  V30 15199 H 1537.05 2.74185 -4.08758 0
M  V30 15200 N 1538.7 1.43003 0.662408 0
M  V30 15201 C 1539.65 1.47701 1.79686 0
M  V30 15202 C 1540.64 0.351491 1.65713 0
M  V30 15203 O 1541.85 0.525071 1.72171 0
M  V30 15204 H 1538.23 0.46285 0.592684 0
M  V30 15205 H 1540.2 2.43245 1.72843 0
M  V30 15206 C 1538.95 1.40828 3.17904 0
M  V30 15207 H 1538.27 2.26736 3.29288 0
M  V30 15208 H 1539.71 1.48177 3.97265 0
M  V30 15209 C 1538.17 0.124659 3.36669 0
M  V30 15210 O 1538.7 -0.81769 3.9329 0
M  V30 15211 N 1536.9 0.0378063 2.90575 0
M  V30 15212 H 1536.45 0.805456 2.44684 0
M  V30 15213 H 1536.41 -0.820377 3.03508 0
M  V30 15214 N 1540.18 -0.899904 1.29381 0
M  V30 15215 C 1541.42 -1.66468 1.18608 0
M  V30 15216 C 1541.78 -1.90255 -0.258287 0
M  V30 15217 O 1542.99 -2.64315 -0.488987 0
M  V30 15218 C 1541.26 -2.97758 1.97674 0
M  V30 15219 S 1542.82 -3.88794 2.03433 0
M  V30 15220 H 1539.63 -0.571533 0.422931 0
M  V30 15221 H 1542.24 -1.06931 1.63664 0
M  V30 15222 H 1540.94 -2.78158 3.01755 0
M  V30 15223 H 1540.47 -3.62335 1.53221 0
M  V30 15224 H 1542.49 -4.82669 1.15086 0
M  V30 15225 N 1541.66 -1.11854 -1.11024 0
M  V30 15226 C 1542.57 -0.79368 -2.20767 0
M  V30 15227 C 1543.58 0.214996 -1.72667 0
M  V30 15228 O 1544.76 0.0500976 -2.01338 0
M  V30 15229 C 1541.83 -0.246375 -3.45823 0
M  V30 15230 C 1540.89 -1.31421 -4.0869 0
M  V30 15231 C 1540.12 -0.792922 -5.27777 0
M  V30 15232 O 1540.34 0.375492 -5.69163 0
M  V30 15233 O 1539.28 -1.55971 -5.8134 0
M  V30 15234 H 1543.1 -1.71011 -2.50976 0
M  V30 15235 H 1540.69 -0.894752 -1.19643 0
M  V30 15236 H 1542.57 0.0542632 -4.21365 0
M  V30 15237 H 1541.24 0.642703 -3.17255 0
M  V30 15238 H 1540.15 -1.66792 -3.3486 0
M  V30 15239 H 1541.48 -2.17683 -4.41446 0
M  V30 15240 N 1543.14 1.28707 -0.909517 0
M  V30 15241 C 1544.39 1.94437 -0.536401 0
M  V30 15242 C 1544.7 1.72416 0.923685 0
M  V30 15243 O 1545.9 2.32333 1.40477 0
M  V30 15244 C 1544.36 3.48246 -0.908455 0
M  V30 15245 C 1543.97 3.79051 -2.38798 0
M  V30 15246 C 1545.71 4.20156 -0.605721 0
M  V30 15247 C 1543.62 5.2615 -2.70038 0
M  V30 15248 H 1542.55 0.727842 -0.196882 0
M  V30 15249 H 1545.2 1.46283 -1.10786 0
M  V30 15250 H 1543.58 3.95107 -0.265829 0
M  V30 15251 H 1544.76 3.43014 -3.07698 0
M  V30 15252 H 1543.07 3.20303 -2.66074 0
M  V30 15253 H 1545.67 5.28439 -0.815849 0
M  V30 15254 H 1546.01 4.13792 0.456266 0
M  V30 15255 H 1546.54 3.79059 -1.20662 0
M  V30 15256 H 1543.28 5.37587 -3.75073 0
M  V30 15257 H 1542.8 5.63399 -2.05771 0
M  V30 15258 H 1544.48 5.93846 -2.56819 0
M  V30 15259 N 1544.61 0.673042 1.42506 0
M  V30 15260 C 1545.89 0.123606 1.95209 0
M  V30 15261 C 1546.27 -1.36118 1.61354 0
M  V30 15262 O 1545.62 -2.0965 0.908793 0
M  V30 15263 C 1545.83 0.39088 3.46804 0
M  V30 15264 C 1547.18 0.306445 4.23493 0
M  V30 15265 O 1548.2 0.32453 3.54719 0
M  V30 15266 O 1547.06 0.247127 5.45941 0
M  V30 15267 H 1544.15 0.00184868 0.826998 0
M  V30 15268 H 1546.7 0.74765 1.52343 0
M  V30 15269 H 1545.47 1.41951 3.64645 0
M  V30 15270 H 1545.1 -0.265259 3.96714 0
M  V30 15271 N 1546.09 -1.52004 0.416254 0
M  V30 15272 C 1547.34 -2.01076 -0.158591 0
M  V30 15273 C 1547.65 -1.30598 -1.45614 0
M  V30 15274 O 1548.86 -1.70525 -2.11267 0
M  V30 15275 C 1547.32 -3.58354 -0.333179 0
M  V30 15276 C 1546.92 -4.37753 0.952696 0
M  V30 15277 C 1548.67 -4.15637 -0.86293 0
M  V30 15278 C 1546.58 -5.8669 0.744905 0
M  V30 15279 H 1545.51 -0.75136 -0.0630423 0
M  V30 15280 H 1548.16 -1.75288 0.542791 0
M  V30 15281 H 1546.54 -3.805 -1.09706 0
M  V30 15282 H 1547.71 -4.27364 1.72328 0
M  V30 15283 H 1546.03 -3.91823 1.40939 0
M  V30 15284 H 1548.62 -5.24596 -1.03454 0
M  V30 15285 H 1548.97 -3.73449 -1.8396 0
M  V30 15286 H 1549.5 -3.97486 -0.157918 0
M  V30 15287 H 1546.24 -6.3325 1.69334 0
M  V30 15288 H 1545.76 -5.99798 0.0137458 0
M  V30 15289 H 1547.44 -6.45824 0.389851 0
M  V30 15290 N 1547.57 -0.146903 -1.56914 0
M  V30 15291 C 1548.85 0.549291 -1.87729 0
M  V30 15292 C 1549.23 1.82971 -1.05284 0
M  V30 15293 O 1548.58 2.28073 -0.139628 0
M  V30 15294 C 1548.79 0.814835 -3.39354 0
M  V30 15295 C 1550.13 1.15565 -4.0857 0
M  V30 15296 O 1551.16 0.904191 -3.44533 0
M  V30 15297 O 1550.02 1.62886 -5.21661 0
M  V30 15298 H 1547.11 0.280196 -0.778087 0
M  V30 15299 H 1549.66 -0.183507 -1.68705 0
M  V30 15300 H 1548.43 -0.0913527 -3.91193 0
M  V30 15301 H 1548.05 1.60182 -3.63906 0
M  V30 15302 N 1549.05 1.57088 0.126881 0
M  V30 15303 C 1550.33 1.7539 0.8659 0
M  V30 15304 C 1550.71 0.720288 1.98432 0
M  V30 15305 O 1550.05 -0.2572 2.27048 0
M  V30 15306 C 1550.26 3.20131 1.38985 0
M  V30 15307 C 1551.61 3.82404 1.84532 0
M  V30 15308 O 1552.64 3.23685 1.48682 0
M  V30 15309 O 1551.49 4.85599 2.50711 0
M  V30 15310 H 1548.59 0.717853 0.41063 0
M  V30 15311 H 1551.13 1.69335 0.111236 0
M  V30 15312 H 1549.91 3.86871 0.587056 0
M  V30 15313 H 1549.53 3.30692 2.20745 0
M  V30 15314 N 1550.53 -0.396836 1.52522 0
M  V30 15315 C 1551.77 -1.15166 1.68867 0
M  V30 15316 C 1552.13 -1.87445 0.415734 0
M  V30 15317 O 1553.33 -2.64913 0.455443 0
M  V30 15318 C 1551.6 -2.11005 2.88465 0
M  V30 15319 S 1553.16 -2.94429 3.25357 0
M  V30 15320 H 1549.98 -0.389966 0.594515 0
M  V30 15321 H 1552.58 -0.437201 1.90549 0
M  V30 15322 H 1551.29 -1.56613 3.79342 0
M  V30 15323 H 1550.82 -2.86971 2.69093 0
M  V30 15324 H 1552.83 -4.13068 2.74934 0
M  V30 15325 N 1552.01 -1.43353 -0.654814 0
M  V30 15326 C 1552.94 -1.51194 -1.7794 0
M  V30 15327 C 1553.92 -0.366747 -1.66099 0
M  V30 15328 O 1555.1 -0.58375 -1.85219 0
M  V30 15329 C 1552.23 -1.43298 -3.16359 0
M  V30 15330 C 1551.19 -2.5605 -3.42961 0
M  V30 15331 C 1550.51 -2.33208 -4.81163 0
M  V30 15332 C 1551.81 -3.98303 -3.37864 0
M  V30 15333 H 1553.51 -2.4532 -1.71635 0
M  V30 15334 H 1551.05 -1.18072 -0.824319 0
M  V30 15335 H 1553 -1.47388 -3.94784 0
M  V30 15336 H 1551.73 -0.456761 -3.2339 0
M  V30 15337 H 1550.39 -2.5131 -2.66906 0
M  V30 15338 H 1550.04 -1.33833 -4.84869 0
M  V30 15339 H 1549.74 -3.08789 -4.99923 0
M  V30 15340 H 1551.26 -2.39079 -5.61848 0
M  V30 15341 H 1552.67 -4.04538 -4.06229 0
M  V30 15342 H 1551.07 -4.73897 -3.6816 0
M  V30 15343 H 1552.14 -4.23552 -2.36075 0
M  V30 15344 N 1553.48 0.89303 -1.29857 0
M  V30 15345 C 1554.72 1.65836 -1.19489 0
M  V30 15346 C 1555.09 1.90389 0.248194 0
M  V30 15347 O 1556.29 2.6457 0.474963 0
M  V30 15348 C 1554.56 2.96706 -1.9925 0
M  V30 15349 S 1556.12 3.8771 -2.05492 0
M  V30 15350 H 1552.94 0.569282 -0.425956 0
M  V30 15351 H 1555.54 1.06061 -1.64229 0
M  V30 15352 H 1554.24 2.76554 -3.03226 0
M  V30 15353 H 1553.77 3.61518 -1.55141 0
M  V30 15354 H 1555.79 4.82052 -1.17644 0
M  V30 15355 N 1554.96 1.12442 1.10429 0
M  V30 15356 C 1556.19 0.902914 1.86714 0
M  V30 15357 C 1556.61 -0.542514 1.80107 0
M  V30 15358 O 1555.97 -1.38406 1.17105 0
M  V30 15359 C 1556.02 1.38238 3.33051 0
M  V30 15360 O 1555.12 0.560877 4.08568 0
M  V30 15361 H 1554.46 0.324397 0.579364 0
M  V30 15362 H 1556.99 1.49652 1.39519 0
M  V30 15363 H 1557 1.38148 3.839 0
M  V30 15364 H 1555.68 2.43486 3.37176 0
M  V30 15365 H 1554.25 0.628771 3.67561 0
M  V30 15366 N 1556.44 -1.28223 0.91633 0
M  V30 15367 C 1557.85 -1.76898 0.597003 0
M  V30 15368 C 1558.2 -1.74969 -0.887719 0
M  V30 15369 O 1557.33 -1.34598 -1.69447 0
M  V30 15370 C 1557.92 -3.21228 1.07694 0
M  V30 15371 C 1556.48 -3.67614 0.80849 0
M  V30 15372 C 1555.63 -2.47921 1.24219 0
M  V30 15373 H 1558.58 -1.1465 1.09732 0
M  V30 15374 H 1558.6 -3.7818 0.419531 0
M  V30 15375 H 1558.11 -3.226 2.15757 0
M  V30 15376 H 1556.21 -3.717 -0.258814 0
M  V30 15377 H 1556.33 -4.57633 1.41804 0
M  V30 15378 H 1554.69 -2.45976 0.660892 0
M  V30 15379 H 1555.47 -2.5201 2.33122 0
M  V30 15380 N 1557.92 -0.68059 -1.42147 0
M  V30 15381 C 1559.16 -0.209222 -2.03326 0
M  V30 15382 C 1559.52 1.16419 -1.52678 0
M  V30 15383 O 1560.72 1.73055 -2.05683 0
M  V30 15384 C 1558.99 -0.248331 -3.56536 0
M  V30 15385 S 1560.55 0.151186 -4.38539 0
M  V30 15386 H 1557.37 -0.0854956 -0.705841 0
M  V30 15387 H 1559.97 -0.895033 -1.73809 0
M  V30 15388 H 1558.68 -1.25016 -3.90895 0
M  V30 15389 H 1558.21 0.457124 -3.90735 0
M  V30 15390 H 1560.22 1.38301 -4.76537 0
M  V30 15391 N 1559.4 1.51781 -0.424309 0
M  V30 15392 C 1560.31 2.31162 0.40015 0
M  V30 15393 C 1561.32 1.39523 1.03969 0
M  V30 15394 O 1562.5 1.72597 1.0379 0
M  V30 15395 C 1559.56 3.12875 1.49366 0
M  V30 15396 C 1558.62 4.20275 0.875616 0
M  V30 15397 C 1557.86 4.98082 1.91702 0
M  V30 15398 O 1558.08 4.76365 3.13739 0
M  V30 15399 O 1557.01 5.82527 1.5148 0
M  V30 15400 H 1560.84 3.0269 -0.247529 0
M  V30 15401 H 1558.42 1.48223 -0.187146 0
M  V30 15402 H 1560.31 3.63714 2.12815 0
M  V30 15403 H 1558.98 2.44125 2.12567 0
M  V30 15404 H 1557.89 3.73546 0.203429 0
M  V30 15405 H 1559.22 4.91361 0.287306 0
M  V30 15406 N 1560.87 0.155222 1.56834 0
M  V30 15407 C 1561.82 -0.798342 2.1847 0
M  V30 15408 C 1562.82 -1.24931 1.14405 0
M  V30 15409 O 1564.02 -1.21684 1.32639 0
M  V30 15410 H 1560.4 -0.275681 0.699646 0
M  V30 15411 H 1562.37 -0.254371 2.97314 0
M  V30 15412 C 1561.12 -2.02407 2.82713 0
M  V30 15413 H 1560.44 -1.68606 3.62508 0
M  V30 15414 H 1561.88 -2.67053 3.29331 0
M  V30 15415 C 1560.34 -2.83737 1.81645 0
M  V30 15416 O 1560.87 -3.80356 1.29198 0
M  V30 15417 N 1559.07 -2.48433 1.50764 0
M  V30 15418 H 1558.62 -1.69925 1.93606 0
M  V30 15419 H 1558.58 -3.03139 0.833899 0
M  V30 15420 N 1562.35 -1.57153 -0.118549 0
M  V30 15421 C 1563.6 -1.84511 -0.824623 0
M  V30 15422 C 1563.92 -0.740473 -1.80394 0
M  V30 15423 O 1563.19 0.235481 -1.9448 0
M  V30 15424 H 1561.77 -0.680764 -0.307522 0
M  V30 15425 H 1564.43 -1.94613 -0.105764 0
M  V30 15426 H 1563.53 -2.80444 -1.36958 0
M  V30 15427 N 1563.83 0.388742 -1.5273 0
M  V30 15428 C 1565.08 1.13151 -1.67455 0
M  V30 15429 C 1565.4 1.90487 -0.417095 0
M  V30 15430 O 1564.67 1.87469 0.568509 0
M  V30 15431 H 1563.25 0.4207 -0.617269 0
M  V30 15432 H 1565.91 0.44098 -1.89846 0
M  V30 15433 H 1565.01 1.83427 -2.52509 0
M  V30 15434 N 1565.31 1.43698 0.647203 0
M  V30 15435 C 1566.54 1.49085 1.43462 0
M  V30 15436 C 1566.95 0.110605 1.88476 0
M  V30 15437 O 1566.31 -0.880365 1.59862 0
M  V30 15438 C 1566.36 2.44186 2.66562 0
M  V30 15439 O 1566.08 3.76844 2.23429 0
M  V30 15440 C 1567.58 2.58876 3.59858 0
M  V30 15441 H 1564.8 0.506148 0.440517 0
M  V30 15442 H 1567.34 1.88502 0.792931 0
M  V30 15443 H 1565.5 2.07949 3.26858 0
M  V30 15444 H 1565.91 4.2804 3.0312 0
M  V30 15445 H 1567.39 3.29482 4.42883 0
M  V30 15446 H 1567.86 1.63567 4.07606 0
M  V30 15447 H 1568.47 2.95949 3.05441 0
M  V30 15448 N 1566.79 -0.886131 1.30328 0
M  V30 15449 C 1568.03 -1.652 1.20367 0
M  V30 15450 C 1568.39 -1.90518 -0.238093 0
M  V30 15451 O 1569.59 -2.64819 -0.460926 0
M  V30 15452 C 1567.86 -2.95645 2.00821 0
M  V30 15453 S 1569.42 -3.86614 2.07545 0
M  V30 15454 H 1566.24 -0.567015 0.428969 0
M  V30 15455 H 1568.84 -1.05189 1.64789 0
M  V30 15456 H 1567.55 -2.74942 3.04688 0
M  V30 15457 H 1567.08 -3.6069 1.57056 0
M  V30 15458 H 1569.09 -4.81421 1.20199 0
M  V30 15459 N 1568.26 -1.13026 -1.09832 0
M  V30 15460 C 1569.51 -0.884093 -1.81292 0
M  V30 15461 C 1569.83 0.591608 -1.86439 0
M  V30 15462 O 1571.03 0.954571 -2.54166 0
M  V30 15463 C 1569.49 -1.53207 -3.25662 0
M  V30 15464 C 1569.1 -3.043 -3.28794 0
M  V30 15465 C 1570.84 -1.36644 -4.01906 0
M  V30 15466 C 1568.75 -3.62003 -4.67662 0
M  V30 15467 H 1567.68 -0.327101 -0.679353 0
M  V30 15468 H 1570.33 -1.35748 -1.2347 0
M  V30 15469 H 1568.71 -0.986353 -3.83519 0
M  V30 15470 H 1569.88 -3.65418 -2.80725 0
M  V30 15471 H 1568.2 -3.20332 -2.66038 0
M  V30 15472 H 1570.8 -1.7717 -5.04495 0
M  V30 15473 H 1571.14 -0.310809 -4.15138 0
M  V30 15474 H 1571.67 -1.88172 -3.5048 0
M  V30 15475 H 1568.41 -4.67354 -4.59631 0
M  V30 15476 H 1567.93 -3.05663 -5.16072 0
M  V30 15477 H 1569.61 -3.61432 -5.36634 0
M  V30 15478 N 1569.74 1.27735 -0.923117 0
M  V30 15479 C 1571.02 1.89626 -0.479724 0
M  V30 15480 C 1571.4 1.83592 1.04197 0
M  V30 15481 O 1570.75 1.27808 1.89413 0
M  V30 15482 C 1570.96 3.33742 -1.02064 0
M  V30 15483 C 1572.31 4.10678 -1.07837 0
M  V30 15484 O 1573.33 3.4274 -0.969943 0
M  V30 15485 O 1572.19 5.32135 -1.24476 0
M  V30 15486 H 1569.28 0.812615 -0.153575 0
M  V30 15487 H 1571.83 1.36036 -1.01451 0
M  V30 15488 H 1570.6 3.32404 -2.06454 0
M  V30 15489 H 1570.22 3.94845 -0.467234 0
M  V30 15490 N 1571.22 0.688118 1.41784 0
M  V30 15491 C 1572.13 0.018397 2.34593 0
M  V30 15492 C 1573.15 -0.774275 1.55824 0
M  V30 15493 O 1574.32 -0.713546 1.88336 0
M  V30 15494 C 1571.39 -0.911914 3.34492 0
M  V30 15495 C 1570.45 -0.112284 4.29153 0
M  V30 15496 C 1569.68 -0.998285 5.2428 0
M  V30 15497 O 1569.9 -2.23782 5.24669 0
M  V30 15498 O 1568.84 -0.451951 6.00201 0
M  V30 15499 H 1572.66 0.783224 2.93427 0
M  V30 15500 H 1570.25 0.448413 1.42512 0
M  V30 15501 H 1572.13 -1.4456 3.95829 0
M  V30 15502 H 1570.81 -1.65636 2.78112 0
M  V30 15503 H 1569.71 0.465822 3.71189 0
M  V30 15504 H 1571.05 0.593338 4.88611 0
M  V30 15505 N 1572.7 -1.51554 0.432352 0
M  V30 15506 C 1573.94 -2.02344 -0.13598 0
M  V30 15507 C 1574.28 -1.31619 -1.42794 0
M  V30 15508 O 1573.55 -0.42957 -1.89697 0
M  V30 15509 C 1573.84 -3.58297 -0.359865 0
M  V30 15510 C 1573.69 -4.39645 0.950399 0
M  V30 15511 C 1575.01 -4.25297 -1.13184 0
M  V30 15512 H 1572.13 -0.735439 -0.0479461 0
M  V30 15513 H 1574.77 -1.81237 0.570373 0
M  V30 15514 H 1572.92 -3.76413 -0.961547 0
M  V30 15515 H 1574.59 -4.3319 1.58568 0
M  V30 15516 H 1572.83 -4.04928 1.55614 0
M  V30 15517 H 1573.5 -5.46911 0.747852 0
M  V30 15518 H 1575.98 -4.11421 -0.622231 0
M  V30 15519 H 1574.86 -5.34307 -1.25726 0
M  V30 15520 H 1575.12 -3.85818 -2.15862 0
M  V30 15521 N 1574.18 -0.163538 -1.56749 0
M  V30 15522 C 1575.12 0.786745 -2.18891 0
M  V30 15523 C 1576.12 1.24323 -1.15066 0
M  V30 15524 O 1577.32 1.20979 -1.33282 0
M  V30 15525 H 1573.7 0.271967 -0.701098 0
M  V30 15526 H 1575.67 0.2386 -2.97445 0
M  V30 15527 C 1574.42 2.00905 -2.83782 0
M  V30 15528 H 1573.74 1.66681 -3.63397 0
M  V30 15529 H 1575.18 2.65302 -3.30743 0
M  V30 15530 C 1573.64 2.8277 -1.83148 0
M  V30 15531 O 1574.17 3.79666 -1.31213 0
M  V30 15532 N 1572.38 2.47629 -1.52079 0
M  V30 15533 H 1571.92 1.68896 -1.94504 0
M  V30 15534 H 1571.88 3.02693 -0.849963 0
M  V30 15535 N 1575.65 1.57214 0.110213 0
M  V30 15536 C 1576.9 1.84946 0.814827 0
M  V30 15537 C 1577.22 0.750029 1.79999 0
M  V30 15538 O 1576.49 -0.225164 1.94602 0
M  V30 15539 H 1575.07 0.682385 0.303907 0
M  V30 15540 H 1577.74 1.94666 0.0954415 0
M  V30 15541 H 1576.83 2.81167 1.35469 0
M  V30 15542 N 1577.13 -0.380637 1.52934 0
M  V30 15543 C 1578.38 -1.12483 1.68386 0
M  V30 15544 C 1578.71 -1.89733 0.427993 0
M  V30 15545 O 1577.96 -1.86601 -0.589795 0
M  V30 15546 C 1578.26 -2.1227 2.87535 0
M  V30 15547 C 1577.93 -1.51615 4.24645 0
M  V30 15548 C 1576.59 -1.348 4.61933 0
M  V30 15549 C 1578.94 -1.07595 5.09973 0
M  V30 15550 C 1576.27 -0.725254 5.822 0
M  V30 15551 C 1578.62 -0.467273 6.30872 0
M  V30 15552 C 1577.29 -0.286488 6.66885 0
M  V30 15553 H 1576.56 -0.411606 0.616167 0
M  V30 15554 H 1579.2 -0.408435 1.87094 0
M  V30 15555 H 1577.51 -2.90159 2.63277 0
M  V30 15556 H 1579.2 -2.69777 2.96684 0
M  V30 15557 H 1575.79 -1.65693 3.95277 0
M  V30 15558 H 1579.98 -1.19385 4.81727 0
M  V30 15559 H 1575.23 -0.573461 6.08705 0
M  V30 15560 H 1579.41 -0.117914 6.963 0
M  V30 15561 H 1577.04 0.198141 7.59942 0
M  V30 15562 N 1578.61 -1.44039 -0.639573 0
M  V30 15563 C 1579.86 -1.46594 -1.40136 0
M  V30 15564 C 1580.19 -0.0949646 -1.93968 0
M  V30 15565 O 1579.46 0.886201 -1.73138 0
M  V30 15566 C 1579.75 -2.51947 -2.57283 0
M  V30 15567 C 1579.6 -3.98371 -2.08855 0
M  V30 15568 C 1580.92 -2.53891 -3.59482 0
M  V30 15569 H 1578.04 -0.533759 -0.508203 0
M  V30 15570 H 1580.68 -1.75669 -0.723898 0
M  V30 15571 H 1578.83 -2.27285 -3.15077 0
M  V30 15572 H 1580.5 -4.34137 -1.55956 0
M  V30 15573 H 1578.75 -4.10551 -1.40109 0
M  V30 15574 H 1579.42 -4.67721 -2.93157 0
M  V30 15575 H 1581.89 -2.75906 -3.11473 0
M  V30 15576 H 1580.77 -3.29524 -4.38982 0
M  V30 15577 H 1581.03 -1.57774 -4.12989 0
M  V30 15578 N 1580.09 0.879207 -1.30796 0
M  V30 15579 C 1581.33 1.6456 -1.21242 0
M  V30 15580 C 1581.69 1.90642 0.227986 0
M  V30 15581 O 1582.89 2.65059 0.446875 0
M  V30 15582 C 1581.16 2.94576 -2.02386 0
M  V30 15583 S 1582.72 3.85508 -2.09592 0
M  V30 15584 H 1579.54 0.564732 -0.43197 0
M  V30 15585 H 1582.14 1.04314 -1.65345 0
M  V30 15586 H 1580.85 2.73322 -3.06142 0
M  V30 15587 H 1580.38 3.59852 -1.58966 0
M  V30 15588 H 1582.39 4.80777 -1.2275 0
M  V30 15589 N 1581.57 1.13606 1.09231 0
M  V30 15590 C 1582.5 0.837908 2.17948 0
M  V30 15591 C 1583.48 -0.203575 1.68877 0
M  V30 15592 O 1584.66 -0.0620702 1.94101 0
M  V30 15593 C 1581.79 0.305342 3.45955 0
M  V30 15594 C 1580.75 1.2813 4.08371 0
M  V30 15595 C 1580.07 0.608412 5.31227 0
M  V30 15596 C 1581.37 2.64055 4.50636 0
M  V30 15597 H 1583.07 1.747 2.43147 0
M  V30 15598 H 1580.61 0.84141 1.1686 0
M  V30 15599 H 1582.57 0.0844116 4.21315 0
M  V30 15600 H 1581.29 -0.639144 3.20285 0
M  V30 15601 H 1579.95 1.48826 3.35032 0
M  V30 15602 H 1579.6 -0.341613 5.01839 0
M  V30 15603 H 1579.3 1.25956 5.73942 0
M  V30 15604 H 1580.82 0.396809 6.09309 0
M  V30 15605 H 1582.24 2.47316 5.17212 0
M  V30 15606 H 1580.63 3.25364 5.0424 0
M  V30 15607 H 1581.7 3.21566 3.62937 0
M  V30 15608 N 1583.05 -1.27244 0.929878 0
M  V30 15609 C 1584.29 -1.96034 0.578782 0
M  V30 15610 C 1584.65 -1.71449 -0.86425 0
M  V30 15611 O 1585.85 -2.33946 -1.32373 0
M  V30 15612 C 1584.12 -3.45925 0.898374 0
M  V30 15613 S 1585.68 -4.33867 0.65612 0
M  V30 15614 H 1582.5 -0.678166 0.213569 0
M  V30 15615 H 1585.1 -1.54433 1.19878 0
M  V30 15616 H 1583.8 -3.61317 1.94624 0
M  V30 15617 H 1583.34 -3.92488 0.267655 0
M  V30 15618 H 1585.35 -4.93823 -0.485059 0
M  V30 15619 N 1584.52 -0.695628 -1.41417 0
M  V30 15620 C 1585.45 -0.0447013 -2.33457 0
M  V30 15621 C 1586.43 0.767104 -1.51821 0
M  V30 15622 O 1587.62 0.720066 -1.80357 0
M  V30 15623 C 1584.75 0.892353 -3.3564 0
M  V30 15624 C 1583.7 0.187638 -4.27588 0
M  V30 15625 C 1583.03 1.23906 -5.20146 0
M  V30 15626 C 1584.33 -0.946093 -5.1366 0
M  V30 15627 H 1586.02 -0.81343 -2.88138 0
M  V30 15628 H 1583.57 -0.392614 -1.38544 0
M  V30 15629 H 1585.52 1.35696 -3.98954 0
M  V30 15630 H 1584.25 1.69275 -2.79309 0
M  V30 15631 H 1582.91 -0.256942 -3.65698 0
M  V30 15632 H 1582.55 2.03198 -4.6013 0
M  V30 15633 H 1582.25 0.772536 -5.82499 0
M  V30 15634 H 1583.78 1.70417 -5.86336 0
M  V30 15635 H 1585.19 -0.561764 -5.70541 0
M  V30 15636 H 1583.59 -1.33971 -5.84954 0
M  V30 15637 H 1584.66 -1.78573 -4.50821 0
M  V30 15638 N 1586 1.51322 -0.440383 0
M  V30 15639 C 1587.41 1.86687 0.0220272 0
M  V30 15640 C 1587.76 1.35734 1.41671 0
M  V30 15641 O 1586.89 0.709408 2.04442 0
M  V30 15642 C 1587.48 3.38768 0.0467477 0
M  V30 15643 C 1586.04 3.73657 0.45358 0
M  V30 15644 C 1585.19 2.7506 -0.351779 0
M  V30 15645 H 1588.14 1.44503 -0.65609 0
M  V30 15646 H 1588.16 3.70756 0.855589 0
M  V30 15647 H 1587.67 3.75823 -0.968451 0
M  V30 15648 H 1585.77 3.42193 1.47427 0
M  V30 15649 H 1585.89 4.78776 0.176262 0
M  V30 15650 H 1584.25 2.53988 0.190334 0
M  V30 15651 H 1585.03 3.14957 -1.36591 0
M  V30 15652 N 1587.48 0.171848 1.5666 0
M  V30 15653 C 1588.7 -0.482396 2.01712 0
M  V30 15654 C 1589.13 -1.5598 1.05128 0
M  V30 15655 O 1588.49 -1.81274 0.0309178 0
M  V30 15656 C 1588.54 -1.03716 3.45363 0
M  V30 15657 O 1587.64 -2.15114 3.51852 0
M  V30 15658 H 1586.98 -0.115439 0.653888 0
M  V30 15659 H 1589.51 0.275895 2.02731 0
M  V30 15660 H 1589.52 -1.35964 3.84679 0
M  V30 15661 H 1588.2 -0.24832 4.15158 0
M  V30 15662 H 1586.77 -1.83907 3.24396 0
M  V30 15663 N 1588.96 -1.5727 -0.101874 0
M  V30 15664 C 1590.19 -1.89667 -0.81914 0
M  V30 15665 C 1590.6 -0.763027 -1.73132 0
M  V30 15666 O 1589.94 0.274317 -1.8164 0
M  V30 15667 C 1590 -3.17252 -1.6909 0
M  V30 15668 C 1589.66 -4.4699 -0.951257 0
M  V30 15669 C 1590.66 -5.19123 -0.28417 0
M  V30 15670 C 1588.35 -4.93665 -0.927349 0
M  V30 15671 C 1590.34 -6.36163 0.396934 0
M  V30 15672 C 1588.03 -6.10619 -0.242456 0
M  V30 15673 C 1589.03 -6.81717 0.418514 0
M  V30 15674 O 1588.71 -7.96443 1.09244 0
M  V30 15675 H 1588.45 -0.632024 -0.239836 0
M  V30 15676 H 1591 -2.05222 -0.0855979 0
M  V30 15677 H 1589.23 -2.97825 -2.46651 0
M  V30 15678 H 1590.92 -3.35533 -2.28413 0
M  V30 15679 H 1591.68 -4.84107 -0.294146 0
M  V30 15680 H 1587.56 -4.38219 -1.43126 0
M  V30 15681 H 1591.11 -6.91594 0.913417 0
M  V30 15682 H 1587 -6.45089 -0.230303 0
M  V30 15683 H 1587.77 -8.12385 0.998647 0
M  V30 15684 N 1590.44 0.372521 -1.53134 0
M  V30 15685 C 1591.68 1.11368 -1.68646 0
M  V30 15686 C 1592 1.90034 -0.437275 0
M  V30 15687 O 1591.27 1.88062 0.548593 0
M  V30 15688 H 1589.85 0.414129 -0.621696 0
M  V30 15689 H 1592.52 0.42082 -1.90303 0
M  V30 15690 H 1591.61 1.80738 -2.54441 0
M  V30 15691 N 1591.91 1.44376 0.631925 0
M  V30 15692 C 1593.16 1.46827 1.38875 0
M  V30 15693 C 1593.48 0.101789 1.94734 0
M  V30 15694 O 1592.75 -0.86579 1.7573 0
M  V30 15695 H 1591.33 0.540642 0.515475 0
M  V30 15696 H 1593.99 1.80148 0.743822 0
M  V30 15697 H 1593.09 2.19321 2.22047 0
M  V30 15698 N 1593.39 -0.872258 1.31261 0
M  V30 15699 C 1594.62 -1.6632 1.23905 0
M  V30 15700 C 1595.04 -1.87109 -0.192878 0
M  V30 15701 O 1594.4 -1.4112 -1.1382 0
M  V30 15702 C 1594.45 -3.00979 1.98606 0
M  V30 15703 O 1593.55 -3.90642 1.32183 0
M  V30 15704 H 1592.89 -0.507736 0.427902 0
M  V30 15705 H 1595.42 -1.0877 1.73292 0
M  V30 15706 H 1595.43 -3.50931 2.08113 0
M  V30 15707 H 1594.11 -2.85168 3.02741 0
M  V30 15708 H 1592.68 -3.4909 1.31112 0
M  V30 15709 N 1594.87 -1.14184 -1.08627 0
M  V30 15710 C 1596.12 -0.908664 -1.80968 0
M  V30 15711 C 1596.44 0.564864 -1.86117 0
M  V30 15712 O 1595.7 1.4344 -1.33129 0
M  V30 15713 C 1596 -1.4519 -3.2658 0
M  V30 15714 C 1595.66 -2.94368 -3.41552 0
M  V30 15715 C 1594.33 -3.35096 -3.45346 0
M  V30 15716 C 1596.68 -3.90304 -3.45416 0
M  V30 15717 C 1594.01 -4.70428 -3.50591 0
M  V30 15718 C 1596.36 -5.25491 -3.52196 0
M  V30 15719 C 1595.02 -5.65734 -3.54262 0
M  V30 15720 H 1594.29 -0.332504 -0.66221 0
M  V30 15721 H 1596.94 -1.42514 -1.27914 0
M  V30 15722 H 1595.24 -0.856308 -3.82328 0
M  V30 15723 H 1596.94 -1.24746 -3.81103 0
M  V30 15724 H 1593.53 -2.61879 -3.3929 0
M  V30 15725 H 1597.72 -3.59921 -3.41718 0
M  V30 15726 H 1592.97 -5.00971 -3.50482 0
M  V30 15727 H 1597.15 -5.99637 -3.54131 0
M  V30 15728 H 1594.77 -6.70585 -3.58079 0
M  V30 15729 N 1596.35 1.26749 -0.936613 0
M  V30 15730 C 1597.59 1.95725 -0.58917 0
M  V30 15731 C 1597.95 1.71905 0.855145 0
M  V30 15732 O 1599.15 2.34645 1.3113 0
M  V30 15733 C 1597.42 3.45444 -0.916706 0
M  V30 15734 S 1598.98 4.33513 -0.67912 0
M  V30 15735 H 1595.8 0.677024 -0.217162 0
M  V30 15736 H 1598.4 1.53795 -1.20695 0
M  V30 15737 H 1597.11 3.60279 -1.96537 0
M  V30 15738 H 1596.64 3.92341 -0.288466 0
M  V30 15739 H 1598.65 4.94074 0.458864 0
M  V30 15740 N 1597.83 0.703118 1.41046 0
M  V30 15741 C 1598.74 0.0432777 2.3456 0
M  V30 15742 C 1599.75 -0.757704 1.56636 0
M  V30 15743 O 1600.93 -0.693531 1.89082 0
M  V30 15744 C 1597.99 -0.876385 3.35441 0
M  V30 15745 C 1597.05 -0.06676 4.29248 0
M  V30 15746 C 1596.29 -0.942622 5.2531 0
M  V30 15747 O 1596.51 -2.18205 5.27013 0
M  V30 15748 O 1595.44 -0.388266 6.00646 0
M  V30 15749 H 1599.27 0.814302 2.9258 0
M  V30 15750 H 1596.86 0.463503 1.42028 0
M  V30 15751 H 1598.74 -1.40353 3.9734 0
M  V30 15752 H 1597.41 -1.62677 2.79853 0
M  V30 15753 H 1596.32 0.505165 3.70674 0
M  V30 15754 H 1597.65 0.645128 4.87954 0
M  V30 15755 N 1599.3 -1.51086 0.448402 0
M  V30 15756 C 1600.25 -2.28015 -0.357438 0
M  V30 15757 C 1601.22 -1.32079 -1.00719 0
M  V30 15758 O 1602.41 -1.60995 -1.02398 0
M  V30 15759 C 1599.55 -3.13324 -1.44644 0
M  V30 15760 C 1598.66 -4.24267 -0.813729 0
M  V30 15761 C 1597.79 -4.96868 -1.87871 0
M  V30 15762 C 1596.83 -5.99716 -1.22502 0
M  V30 15763 N 1595.97 -6.65682 -2.23185 0
M  V30 15764 H 1600.81 -2.96436 0.30493 0
M  V30 15765 H 1598.35 -1.46203 0.162222 0
M  V30 15766 H 1600.31 -3.61119 -2.08924 0
M  V30 15767 H 1598.94 -2.46996 -2.07829 0
M  V30 15768 H 1597.99 -3.80354 -0.0589414 0
M  V30 15769 H 1599.3 -4.97917 -0.296587 0
M  V30 15770 H 1598.45 -5.48266 -2.59786 0
M  V30 15771 H 1597.19 -4.22873 -2.42961 0
M  V30 15772 H 1596.2 -5.476 -0.491388 0
M  V30 15773 H 1597.42 -6.75674 -0.681315 0
M  V30 15774 H 1595.37 -5.94493 -2.77334 0
M  V30 15775 H 1595.29 -7.35134 -1.76393 0
M  V30 15776 H 1596.55 -7.21707 -2.9455 0
M  V30 15777 N 1600.78 -0.180154 -1.56567 0
M  V30 15778 C 1602.06 0.509347 -1.88852 0
M  V30 15779 C 1602.44 1.80697 -1.09141 0
M  V30 15780 O 1601.79 2.27726 -0.187974 0
M  V30 15781 C 1602 0.742669 -3.41006 0
M  V30 15782 C 1603.35 1.06873 -4.1093 0
M  V30 15783 O 1604.37 0.830907 -3.46373 0
M  V30 15784 O 1603.23 1.51784 -5.24999 0
M  V30 15785 H 1600.32 0.263629 -0.783855 0
M  V30 15786 H 1602.87 -0.219251 -1.68278 0
M  V30 15787 H 1601.64 -0.17431 -3.90912 0
M  V30 15788 H 1601.26 1.52427 -3.67222 0
M  V30 15789 N 1602.26 1.57322 0.0935319 0
M  V30 15790 C 1603.49 1.90375 0.810245 0
M  V30 15791 C 1603.9 0.774011 1.72205 0
M  V30 15792 O 1603.26 -0.253918 1.80725 0
M  V30 15793 C 1603.31 3.23054 1.62228 0
M  V30 15794 O 1603.03 4.31682 0.747157 0
M  V30 15795 C 1604.53 3.6998 2.44192 0
M  V30 15796 H 1601.75 0.629769 0.231586 0
M  V30 15797 H 1604.3 2.04379 0.0702984 0
M  V30 15798 H 1602.45 3.10643 2.31472 0
M  V30 15799 H 1602.87 5.07884 1.30974 0
M  V30 15800 H 1604.34 4.65507 2.96659 0
M  V30 15801 H 1604.82 2.97899 3.22727 0
M  V30 15802 H 1605.42 3.85264 1.80144 0
M  V30 15803 N 1603.74 -0.364395 1.53329 0
M  V30 15804 C 1604.65 -1.47027 1.82812 0
M  V30 15805 C 1605.66 -1.58559 0.716598 0
M  V30 15806 O 1606.84 -1.7443 1.00678 0
M  V30 15807 C 1603.91 -2.82278 2.01295 0
M  V30 15808 C 1602.97 -2.80264 3.25193 0
M  V30 15809 C 1602.2 -4.09065 3.42785 0
M  V30 15810 O 1602.42 -5.0529 2.64648 0
M  V30 15811 O 1601.36 -4.14804 4.36144 0
M  V30 15812 H 1605.18 -1.25035 2.76767 0
M  V30 15813 H 1602.77 -0.554608 1.38724 0
M  V30 15814 H 1604.65 -3.62416 2.15017 0
M  V30 15815 H 1603.32 -3.04244 1.10531 0
M  V30 15816 H 1602.23 -1.9882 3.16893 0
M  V30 15817 H 1603.56 -2.63252 4.15884 0
M  V30 15818 N 1605.22 -1.44709 -0.62426 0
M  V30 15819 C 1606.46 -1.47561 -1.38094 0
M  V30 15820 C 1606.79 -0.112115 -1.94677 0
M  V30 15821 O 1606.06 0.856458 -1.76186 0
M  V30 15822 H 1604.64 -0.543368 -0.512601 0
M  V30 15823 H 1607.3 -1.8054 -0.734258 0
M  V30 15824 H 1606.39 -2.20496 -2.2088 0
M  V30 15825 N 1606.69 0.865285 -1.31722 0
M  V30 15826 C 1607.93 1.63264 -1.2298 0
M  V30 15827 C 1608.3 1.90873 0.207754 0
M  V30 15828 O 1609.5 2.65518 0.418737 0
M  V30 15829 C 1607.77 2.92412 -2.05499 0
M  V30 15830 S 1609.33 3.83263 -2.13669 0
M  V30 15831 H 1606.15 0.560119 -0.437936 0
M  V30 15832 H 1608.75 1.02554 -1.66442 0
M  V30 15833 H 1607.45 2.7006 -3.09024 0
M  V30 15834 H 1606.98 3.58145 -1.62774 0
M  V30 15835 H 1609 4.79448 -1.27843 0
M  V30 15836 N 1608.17 1.14759 1.0802 0
M  V30 15837 C 1609.45 0.828957 1.77166 0
M  V30 15838 C 1609.83 -0.676783 1.99957 0
M  V30 15839 O 1609.18 -1.61891 1.61256 0
M  V30 15840 C 1609.39 1.63213 3.08484 0
M  V30 15841 C 1610.74 1.834 3.82948 0
M  V30 15842 O 1611.76 1.59932 3.18277 0
M  V30 15843 O 1610.62 2.22661 4.99083 0
M  V30 15844 H 1607.71 0.304168 0.769032 0
M  V30 15845 H 1610.26 1.253 1.14446 0
M  V30 15846 H 1609.03 2.65474 2.8747 0
M  V30 15847 H 1608.65 1.20397 3.78933 0
M  V30 15848 N 1609.65 -1.26251 0.943322 0
M  V30 15849 C 1611.07 -1.45943 0.645966 0
M  V30 15850 C 1611.27 -1.84936 -0.800064 0
M  V30 15851 O 1610.32 -1.97238 -1.57649 0
M  V30 15852 C 1611.64 -2.54017 1.60922 0
M  V30 15853 C 1613.18 -2.67866 1.61916 0
M  V30 15854 C 1613.66 -3.79113 2.56977 0
M  V30 15855 N 1615.15 -3.86509 2.55275 0
M  V30 15856 C 1615.88 -4.72048 3.25513 0
M  V30 15857 N 1615.38 -5.61959 4.05184 0
M  V30 15858 N 1617.17 -4.65913 3.14454 0
M  V30 15859 H 1609.32 -0.992295 1.87796 0
M  V30 15860 H 1611.59 -0.497204 0.80715 0
M  V30 15861 H 1611.29 -2.32197 2.64155 0
M  V30 15862 H 1611.17 -3.51715 1.36294 0
M  V30 15863 H 1613.55 -2.89059 0.594067 0
M  V30 15864 H 1613.64 -1.70604 1.90598 0
M  V30 15865 H 1613.28 -3.58673 3.59605 0
M  V30 15866 H 1613.21 -4.75836 2.25583 0
M  V30 15867 H 1615.7 -3.22229 1.97425 0
M  V30 15868 H 1616.01 -6.24127 4.55725 0
M  V30 15869 H 1614.36 -5.61704 4.09285 0
M  V30 15870 H 1617.55 -3.94675 2.51693 0
M  V30 15871 H 1617.72 -5.32356 3.69461 0
M  V30 15872 N 1611.13 -0.710588 -1.40671 0
M  V30 15873 C 1612.38 -0.247459 -2.00579 0
M  V30 15874 C 1612.7 1.16179 -1.56612 0
M  V30 15875 O 1611.97 1.7867 -0.803358 0
M  V30 15876 H 1610.55 -0.0884992 -0.741739 0
M  V30 15877 H 1613.21 -0.915103 -1.72081 0
M  V30 15878 H 1612.31 -0.276631 -3.10872 0
M  V30 15879 N 1612.61 1.50847 -0.456408 0
M  V30 15880 C 1613.85 2.03174 0.0959527 0
M  V30 15881 C 1614.21 1.33328 1.38713 0
M  V30 15882 O 1613.5 0.44539 1.86351 0
M  V30 15883 C 1613.7 3.55678 0.350374 0
M  V30 15884 C 1613.52 4.40301 -0.914596 0
M  V30 15885 C 1612.29 4.83939 -1.45367 0
M  V30 15886 C 1614.49 4.81547 -1.80601 0
M  V30 15887 N 1612.47 5.52836 -2.66919 0
M  V30 15888 C 1613.85 5.49705 -2.86747 0
M  V30 15889 C 1615.9 4.63517 -1.81815 0
M  V30 15890 C 1614.6 6.01743 -3.94078 0
M  V30 15891 C 1616.63 5.16485 -2.88093 0
M  V30 15892 C 1615.99 5.84605 -3.92958 0
M  V30 15893 H 1612.09 0.781987 -0.00454189 0
M  V30 15894 H 1614.67 1.8452 -0.62134 0
M  V30 15895 H 1612.85 3.74309 1.0367 0
M  V30 15896 H 1614.58 3.94662 0.895777 0
M  V30 15897 H 1611.33 4.62816 -1.0049 0
M  V30 15898 H 1611.76 5.919 -3.28608 0
M  V30 15899 H 1616.4 4.10296 -1.02064 0
M  V30 15900 H 1614.12 6.54009 -4.74655 0
M  V30 15901 H 1617.7 5.04374 -2.89997 0
M  V30 15902 H 1616.58 6.24854 -4.73843 0
M  V30 15903 N 1614.09 0.188454 1.56469 0
M  V30 15904 C 1615.04 -0.747732 2.1539 0
M  V30 15905 C 1616.02 -1.18094 1.09282 0
M  V30 15906 O 1617.21 -1.14045 1.35362 0
M  V30 15907 C 1614.34 -1.96985 2.81162 0
M  V30 15908 C 1613.43 -1.55784 3.94452 0
M  V30 15909 N 1613.82 -0.8564 4.98497 0
M  V30 15910 C 1612.12 -1.84762 4.0593 0
M  V30 15911 C 1612.82 -0.650927 5.78047 0
M  V30 15912 N 1611.79 -1.19762 5.30243 0
M  V30 15913 H 1615.59 -0.203028 2.93198 0
M  V30 15914 H 1613.11 -0.0115881 1.62396 0
M  V30 15915 H 1615.11 -2.65094 3.21762 0
M  V30 15916 H 1613.77 -2.51934 2.0484 0
M  V30 15917 H 1614.78 -0.512583 5.15357 0
M  V30 15918 H 1611.45 -2.41267 3.40729 0
M  V30 15919 H 1612.84 -0.0949739 6.71833 0
M  V30 15920 N 1615.56 -1.5737 -0.0851874 0
M  V30 15921 C 1616.51 -2.02758 -1.10262 0
M  V30 15922 C 1617.48 -0.905702 -1.39235 0
M  V30 15923 O 1618.67 -1.17241 -1.50529 0
M  V30 15924 C 1615.81 -2.46528 -2.41492 0
M  V30 15925 C 1614.92 -3.72278 -2.19165 0
M  V30 15926 C 1614.05 -4.04885 -3.43863 0
M  V30 15927 C 1613.09 -5.23715 -3.16842 0
M  V30 15928 N 1612.23 -5.52026 -4.33833 0
M  V30 15929 H 1617.07 -2.89453 -0.708583 0
M  V30 15930 H 1614.61 -1.43156 -0.338332 0
M  V30 15931 H 1616.56 -2.69952 -3.18091 0
M  V30 15932 H 1615.19 -1.62829 -2.78723 0
M  V30 15933 H 1614.25 -3.56272 -1.33321 0
M  V30 15934 H 1615.56 -4.5902 -1.95197 0
M  V30 15935 H 1614.71 -4.29138 -4.28865 0
M  V30 15936 H 1613.45 -3.16683 -3.70895 0
M  V30 15937 H 1612.46 -4.99272 -2.30234 0
M  V30 15938 H 1613.68 -6.13523 -2.91146 0
M  V30 15939 H 1611.63 -4.66784 -4.60922 0
M  V30 15940 H 1611.54 -6.3316 -4.13091 0
M  V30 15941 H 1612.81 -5.80822 -5.19871 0
M  V30 15942 N 1617.04 0.356258 -1.53521 0
M  V30 15943 C 1618.29 1.0979 -1.70154 0
M  V30 15944 C 1618.62 1.89028 -0.458124 0
M  V30 15945 O 1617.87 1.87516 0.560033 0
M  V30 15946 C 1618.17 2.07669 -2.90875 0
M  V30 15947 C 1617.84 1.4484 -4.27004 0
M  V30 15948 C 1616.5 1.27434 -4.64019 0
M  V30 15949 C 1618.85 0.994684 -5.1162 0
M  V30 15950 C 1616.18 0.632539 -5.8328 0
M  V30 15951 C 1618.53 0.366847 -6.31535 0
M  V30 15952 C 1617.19 0.180356 -6.67256 0
M  V30 15953 H 1616.46 0.401751 -0.622637 0
M  V30 15954 H 1619.11 0.378618 -1.8772 0
M  V30 15955 H 1617.42 2.85934 -2.6786 0
M  V30 15956 H 1619.11 2.65023 -3.00939 0
M  V30 15957 H 1615.7 1.59384 -3.97863 0
M  V30 15958 H 1619.89 1.11706 -4.83565 0
M  V30 15959 H 1615.14 0.476548 -6.0954 0
M  V30 15960 H 1619.32 0.00712378 -6.964 0
M  V30 15961 H 1616.94 -0.319016 -7.5953 0
M  V30 15962 N 1618.52 1.45038 0.616577 0
M  V30 15963 C 1619.45 1.49023 1.7414 0
M  V30 15964 C 1620.46 0.381965 1.58256 0
M  V30 15965 O 1621.65 0.648527 1.66302 0
M  V30 15966 C 1618.75 1.32233 3.12038 0
M  V30 15967 C 1617.93 2.5657 3.54246 0
M  V30 15968 C 1616.99 2.34468 4.71075 0
M  V30 15969 O 1616.01 3.08035 4.78647 0
M  V30 15970 N 1617.21 1.38454 5.63747 0
M  V30 15971 H 1619.98 2.45997 1.71189 0
M  V30 15972 H 1617.54 1.40663 0.80159 0
M  V30 15973 H 1619.53 1.15271 3.87936 0
M  V30 15974 H 1618.1 0.435685 3.09549 0
M  V30 15975 H 1617.32 2.88709 2.68404 0
M  V30 15976 H 1618.61 3.39239 3.79203 0
M  V30 15977 H 1618.01 0.777236 5.60335 0
M  V30 15978 H 1616.56 1.27467 6.39215 0
M  V30 15979 N 1620 -0.858287 1.32179 0
M  V30 15980 C 1621.25 -1.60902 1.2229 0
M  V30 15981 C 1621.57 -1.93797 -0.216227 0
M  V30 15982 O 1620.84 -1.59312 -1.14002 0
M  V30 15983 H 1619.42 -0.596529 0.449624 0
M  V30 15984 H 1622.08 -1.02686 1.65655 0
M  V30 15985 H 1621.17 -2.54755 1.80295 0
M  V30 15986 N 1621.48 -1.1533 -1.07409 0
M  V30 15987 C 1622.43 -0.81798 -2.12822 0
M  V30 15988 C 1623.41 0.1975 -1.59683 0
M  V30 15989 O 1624.6 -0.00166798 -1.77 0
M  V30 15990 C 1621.73 -0.308356 -3.41912 0
M  V30 15991 C 1620.82 -1.35396 -4.01906 0
M  V30 15992 N 1621.21 -2.5611 -4.36167 0
M  V30 15993 C 1619.51 -1.20656 -4.29369 0
M  V30 15994 C 1620.21 -3.23124 -4.837 0
M  V30 15995 N 1619.18 -2.50513 -4.82436 0
M  V30 15996 H 1622.98 -1.73611 -2.37143 0
M  V30 15997 H 1620.5 -1.03867 -1.24842 0
M  V30 15998 H 1622.5 -0.0497865 -4.1687 0
M  V30 15999 H 1621.16 0.60384 -3.19036 0
M  V30 16000 H 1622.17 -2.93258 -4.26873 0
M  V30 16001 H 1618.84 -0.354208 -4.15995 0
M  V30 16002 H 1620.23 -4.26103 -5.19505 0
M  V30 16003 N 1622.95 1.25748 -0.950004 0
M  V30 16004 C 1624.19 1.95089 -0.609896 0
M  V30 16005 C 1624.56 1.72802 0.836865 0
M  V30 16006 O 1625.76 2.36023 1.28634 0
M  V30 16007 C 1624.03 3.44452 -0.953294 0
M  V30 16008 S 1625.59 4.32768 -0.725062 0
M  V30 16009 H 1622.41 0.674683 -0.224331 0
M  V30 16010 H 1625.01 1.52506 -1.2232 0
M  V30 16011 H 1623.71 3.58175 -2.00347 0
M  V30 16012 H 1623.24 3.92013 -0.330062 0
M  V30 16013 H 1625.26 4.94533 0.406435 0
M  V30 16014 N 1624.43 0.718038 1.40292 0
M  V30 16015 C 1625.66 0.267937 2.04855 0
M  V30 16016 C 1626.07 -1.09615 1.54211 0
M  V30 16017 O 1625.41 -1.70055 0.694754 0
M  V30 16018 C 1625.47 0.172691 3.59085 0
M  V30 16019 C 1625.14 1.47246 4.32629 0
M  V30 16020 C 1626.14 2.41487 4.60413 0
M  V30 16021 C 1623.82 1.73207 4.71492 0
M  V30 16022 C 1625.81 3.59932 5.26049 0
M  V30 16023 C 1623.5 2.91933 5.3686 0
M  V30 16024 C 1624.5 3.85118 5.64068 0
M  V30 16025 O 1624.19 5.01762 6.28085 0
M  V30 16026 H 1623.92 0.117734 0.665669 0
M  V30 16027 H 1626.47 0.977621 1.80643 0
M  V30 16028 H 1624.7 -0.592957 3.82127 0
M  V30 16029 H 1626.39 -0.243171 4.05171 0
M  V30 16030 H 1627.16 2.22695 4.3085 0
M  V30 16031 H 1623.04 1.01528 4.49681 0
M  V30 16032 H 1626.58 4.32683 5.47203 0
M  V30 16033 H 1622.48 3.10633 5.65842 0
M  V30 16034 H 1623.25 5.01872 6.46581 0
M  V30 16035 N 1625.91 -1.50602 0.464402 0
M  V30 16036 C 1627.33 -1.59162 0.118173 0
M  V30 16037 C 1627.53 -1.47313 -1.37481 0
M  V30 16038 O 1626.58 -1.32819 -2.14745 0
M  V30 16039 C 1627.9 -2.93313 0.662411 0
M  V30 16040 C 1629.44 -3.06692 0.625244 0
M  V30 16041 C 1629.92 -4.43407 1.14691 0
M  V30 16042 N 1631.41 -4.49801 1.10604 0
M  V30 16043 C 1632.14 -5.53964 1.48026 0
M  V30 16044 N 1631.64 -6.65413 1.92865 0
M  V30 16045 N 1633.43 -5.44471 1.39671 0
M  V30 16046 H 1625.58 -1.56548 1.4355 0
M  V30 16047 H 1627.85 -0.739451 0.593225 0
M  V30 16048 H 1627.55 -3.07439 1.70805 0
M  V30 16049 H 1627.43 -3.77061 0.102251 0
M  V30 16050 H 1629.81 -2.92217 -0.411466 0
M  V30 16051 H 1629.9 -2.24717 1.22213 0
M  V30 16052 H 1629.54 -4.5863 2.18222 0
M  V30 16053 H 1629.47 -5.23963 0.526306 0
M  V30 16054 H 1631.96 -3.69824 0.77709 0
M  V30 16055 H 1632.27 -7.40947 2.19585 0
M  V30 16056 H 1630.62 -6.66551 1.96812 0
M  V30 16057 H 1633.81 -4.56289 1.04487 0
M  V30 16058 H 1633.98 -6.25531 1.69161 0
M  V30 16059 N 1627.39 -0.19675 -1.56367 0
M  V30 16060 C 1628.62 0.446491 -2.01718 0
M  V30 16061 C 1629.03 1.55621 -1.07604 0
M  V30 16062 O 1628.37 1.83553 -0.0733943 0
M  V30 16063 C 1628.43 1.06182 -3.43461 0
M  V30 16064 C 1628.1 0.0906278 -4.5691 0
M  V30 16065 C 1629.09 -0.700599 -5.15158 0
M  V30 16066 C 1626.78 -0.0209341 -5.02296 0
M  V30 16067 C 1628.77 -1.59034 -6.17241 0
M  V30 16068 C 1626.46 -0.91423 -6.04223 0
M  V30 16069 C 1627.46 -1.6975 -6.61569 0
M  V30 16070 O 1627.14 -2.57582 -7.61516 0
M  V30 16071 H 1626.88 0.116254 -0.665929 0
M  V30 16072 H 1629.43 -0.303224 -2.03149 0
M  V30 16073 H 1627.66 1.86015 -3.39021 0
M  V30 16074 H 1629.35 1.60988 -3.72609 0
M  V30 16075 H 1630.12 -0.624723 -4.8096 0
M  V30 16076 H 1625.99 0.578557 -4.57355 0
M  V30 16077 H 1629.54 -2.20215 -6.6193 0
M  V30 16078 H 1625.44 -0.991215 -6.37844 0
M  V30 16079 H 1626.2 -2.5138 -7.78942 0
M  V30 16080 N 1628.87 1.57413 0.0768405 0
M  V30 16081 C 1630.11 1.87002 0.776948 0
M  V30 16082 C 1630.44 0.787799 1.77831 0
M  V30 16083 O 1629.7 -0.216742 1.94496 0
M  V30 16084 C 1630 3.2324 1.52482 0
M  V30 16085 C 1629.66 4.45986 0.663899 0
M  V30 16086 C 1628.32 4.79305 0.426629 0
M  V30 16087 C 1630.68 5.21157 0.0665867 0
M  V30 16088 C 1628 5.85213 -0.417518 0
M  V30 16089 C 1630.36 6.27958 -0.764986 0
M  V30 16090 C 1629.02 6.59781 -1.01218 0
M  V30 16091 H 1628.29 0.684289 0.284306 0
M  V30 16092 H 1630.94 1.91463 0.0378686 0
M  V30 16093 H 1629.24 3.14547 2.33596 0
M  V30 16094 H 1630.94 3.43368 2.07123 0
M  V30 16095 H 1627.53 4.19905 0.858956 0
M  V30 16096 H 1631.71 4.95734 0.237022 0
M  V30 16097 H 1626.97 6.0827 -0.617827 0
M  V30 16098 H 1631.14 6.85369 -1.23459 0
M  V30 16099 H 1628.77 7.41674 -1.66806 0
M  V30 16100 N 1630.34 -0.348112 1.53707 0
M  V30 16101 C 1631.31 -1.41018 1.80683 0
M  V30 16102 C 1632.31 -1.4582 0.67774 0
M  V30 16103 O 1633.5 -1.46275 0.94601 0
M  V30 16104 C 1630.63 -2.79988 1.94473 0
M  V30 16105 H 1631.82 -1.18365 2.75554 0
M  V30 16106 H 1629.38 -0.582244 1.4505 0
M  V30 16107 H 1630.11 -3.07931 1.0173 0
M  V30 16108 H 1629.9 -2.77899 2.76612 0
M  V30 16109 H 1631.39 -3.56868 2.16876 0
M  V30 16110 N 1631.82 -1.45363 -0.608876 0
M  V30 16111 C 1632.77 -1.50362 -1.71392 0
M  V30 16112 C 1633.76 -0.367024 -1.56658 0
M  V30 16113 O 1634.95 -0.613796 -1.66017 0
M  V30 16114 C 1632.08 -1.47197 -3.10142 0
M  V30 16115 C 1631.16 -2.66055 -3.30266 0
M  V30 16116 N 1631.55 -3.91168 -3.20657 0
M  V30 16117 C 1629.85 -2.61724 -3.61132 0
M  V30 16118 C 1630.55 -4.70487 -3.42077 0
M  V30 16119 N 1629.53 -4.01921 -3.66006 0
M  V30 16120 H 1633.33 -2.4492 -1.62454 0
M  V30 16121 H 1630.85 -1.40637 -0.812091 0
M  V30 16122 H 1632.84 -1.48864 -3.89416 0
M  V30 16123 H 1631.5 -0.536956 -3.20229 0
M  V30 16124 H 1632.51 -4.22809 -2.99087 0
M  V30 16125 H 1629.19 -1.77124 -3.78065 0
M  V30 16126 H 1630.58 -5.79495 -3.40052 0
M  V30 16127 N 1633.3 0.851265 -1.32632 0
M  V30 16128 C 1634.72 1.14 -1.11696 0
M  V30 16129 C 1634.92 2.0125 0.100327 0
M  V30 16130 O 1633.97 2.40013 0.784233 0
M  V30 16131 C 1635.29 1.81406 -2.39817 0
M  V30 16132 C 1636.83 1.94027 -2.45607 0
M  V30 16133 C 1637.31 2.64848 -3.73657 0
M  V30 16134 N 1638.8 2.7237 -3.74658 0
M  V30 16135 C 1639.53 3.27827 -4.70443 0
M  V30 16136 N 1639.03 3.84068 -5.76596 0
M  V30 16137 N 1640.82 3.25962 -4.57936 0
M  V30 16138 H 1632.97 0.270302 -2.10673 0
M  V30 16139 H 1635.24 0.182395 -0.930288 0
M  V30 16140 H 1634.94 1.24753 -3.28831 0
M  V30 16141 H 1634.82 2.81535 -2.51034 0
M  V30 16142 H 1637.2 2.49838 -1.5705 0
M  V30 16143 H 1637.29 0.928844 -2.3834 0
M  V30 16144 H 1636.93 2.09699 -4.62589 0
M  V30 16145 H 1636.86 3.66436 -3.78196 0
M  V30 16146 H 1639.35 2.32474 -2.97933 0
M  V30 16147 H 1639.66 4.24551 -6.45737 0
M  V30 16148 H 1638.01 3.82391 -5.80347 0
M  V30 16149 H 1641.2 2.81274 -3.74169 0
M  V30 16150 H 1641.37 3.68881 -5.32758 0
M  V30 16151 N 1634.78 1.15898 1.06796 0
M  V30 16152 C 1636.19 0.902809 1.31611 0
M  V30 16153 C 1636.39 -0.447112 1.96477 0
M  V30 16154 O 1635.45 -1.18778 2.22818 0
M  V30 16155 C 1636.76 2.04803 2.20173 0
M  V30 16156 C 1638.31 2.08321 2.33605 0
M  V30 16157 C 1638.79 3.22182 3.25519 0
M  V30 16158 N 1640.28 3.21866 3.33101 0
M  V30 16159 C 1641.01 4.06608 4.04299 0
M  V30 16160 N 1640.51 5.01426 4.78063 0
M  V30 16161 N 1642.3 3.94612 4.00297 0
M  V30 16162 H 1634.45 2.02816 0.630831 0
M  V30 16163 H 1636.72 0.884683 0.340646 0
M  V30 16164 H 1636.42 3.02278 1.7978 0
M  V30 16165 H 1636.3 1.98521 3.20732 0
M  V30 16166 H 1638.68 1.11441 2.73249 0
M  V30 16167 H 1638.76 2.18668 1.32732 0
M  V30 16168 H 1638.41 4.19317 2.86594 0
M  V30 16169 H 1638.34 3.0907 4.2636 0
M  V30 16170 H 1640.83 2.53203 2.80529 0
M  V30 16171 H 1641.14 5.62517 5.29901 0
M  V30 16172 H 1639.49 5.0541 4.7706 0
M  V30 16173 H 1642.68 3.19843 3.41786 0
M  V30 16174 H 1642.85 4.60877 4.55518 0
M  V30 16175 N 1636.26 -1.25243 0.956659 0
M  V30 16176 C 1637.22 -2.24054 0.482949 0
M  V30 16177 C 1638.22 -1.55367 -0.41447 0
M  V30 16178 O 1639.41 -1.72912 -0.211475 0
M  V30 16179 C 1636.54 -3.3956 -0.301975 0
M  V30 16180 H 1637.73 -2.67476 1.35634 0
M  V30 16181 H 1635.29 -1.37665 0.740138 0
M  V30 16182 H 1636.02 -3.01561 -1.19294 0
M  V30 16183 H 1635.81 -3.90607 0.341876 0
M  V30 16184 H 1637.3 -4.1293 -0.622807 0
M  V30 16185 N 1637.73 -0.725468 -1.3991 0
M  V30 16186 C 1638.98 -0.278509 -2.01484 0
M  V30 16187 C 1639.34 1.11892 -1.56518 0
M  V30 16188 O 1638.63 1.75014 -0.77979 0
M  V30 16189 C 1638.82 -0.308261 -3.56068 0
M  V30 16190 C 1638.65 -1.70704 -4.16041 0
M  V30 16191 C 1637.42 -2.31703 -4.49045 0
M  V30 16192 C 1639.62 -2.659 -4.40229 0
M  V30 16193 N 1637.6 -3.63834 -4.94467 0
M  V30 16194 C 1638.97 -3.82751 -4.87751 0
M  V30 16195 C 1641.03 -2.63785 -4.22282 0
M  V30 16196 C 1639.73 -4.97809 -5.1921 0
M  V30 16197 C 1641.76 -3.77978 -4.54848 0
M  V30 16198 C 1641.12 -4.93563 -5.02568 0
M  V30 16199 H 1637.22 -0.147963 -0.767874 0
M  V30 16200 H 1639.8 -0.94939 -1.69984 0
M  V30 16201 H 1637.97 0.332226 -3.86977 0
M  V30 16202 H 1639.7 0.156344 -4.04398 0
M  V30 16203 H 1636.46 -1.83712 -4.36517 0
M  V30 16204 H 1636.88 -4.31644 -5.21548 0
M  V30 16205 H 1641.53 -1.75622 -3.846 0
M  V30 16206 H 1639.24 -5.86609 -5.55802 0
M  V30 16207 H 1642.83 -3.77628 -4.42593 0
M  V30 16208 H 1641.71 -5.8046 -5.27291 0
M  V30 16209 N 1639.21 1.50354 -0.472382 0
M  V30 16210 C 1640.12 2.32318 0.326405 0
M  V30 16211 C 1641.14 1.4276 0.994771 0
M  V30 16212 O 1642.31 1.75811 0.98246 0
M  V30 16213 C 1639.38 3.17468 1.39337 0
M  V30 16214 C 1638.44 4.22848 0.741465 0
M  V30 16215 C 1637.67 5.03929 1.75759 0
M  V30 16216 O 1637.9 4.86105 2.98425 0
M  V30 16217 O 1636.83 5.87051 1.32871 0
M  V30 16218 H 1640.66 3.01749 -0.343702 0
M  V30 16219 H 1638.24 1.47553 -0.234207 0
M  V30 16220 H 1640.12 3.703 2.01136 0
M  V30 16221 H 1638.8 2.50764 2.04692 0
M  V30 16222 H 1637.71 3.74005 0.0844848 0
M  V30 16223 H 1639.04 4.92026 0.130838 0
M  V30 16224 N 1640.69 0.205039 1.56261 0
M  V30 16225 C 1641.97 -0.479238 1.89638 0
M  V30 16226 C 1642.35 -1.78938 1.12002 0
M  V30 16227 O 1641.7 -2.27398 0.224179 0
M  V30 16228 C 1641.91 -0.688324 3.42145 0
M  V30 16229 C 1643.25 -1.00322 4.12578 0
M  V30 16230 O 1644.28 -0.775697 3.47651 0
M  V30 16231 O 1643.14 -1.43412 5.27347 0
M  V30 16232 H 1640.23 -0.251125 0.78795 0
M  V30 16233 H 1642.78 0.245994 1.67908 0
M  V30 16234 H 1641.55 0.236479 3.90585 0
M  V30 16235 H 1641.17 -1.46565 3.696 0
M  V30 16236 N 1642.17 -1.57451 -0.0684915 0
M  V30 16237 C 1643.13 -2.0293 -1.06545 0
M  V30 16238 C 1644.13 -0.926861 -1.314 0
M  V30 16239 O 1645.32 -1.19164 -1.27065 0
M  V30 16240 C 1642.45 -2.41276 -2.4083 0
M  V30 16241 H 1643.65 -2.92242 -0.673401 0
M  V30 16242 H 1641.2 -1.53107 -0.314307 0
M  V30 16243 H 1641.94 -1.55 -2.8486 0
M  V30 16244 H 1641.72 -3.21727 -2.2413 0
M  V30 16245 H 1643.21 -2.77026 -3.12484 0
M  V30 16246 N 1643.65 0.339955 -1.5389 0
M  V30 16247 C 1644.56 1.441 -1.85128 0
M  V30 16248 C 1645.57 1.57399 -0.741733 0
M  V30 16249 O 1646.75 1.72807 -1.0344 0
M  V30 16250 C 1643.81 2.7904 -2.05761 0
M  V30 16251 C 1642.88 2.75055 -3.29611 0
M  V30 16252 C 1642.11 4.0356 -3.4925 0
M  V30 16253 O 1642.33 5.01015 -2.72653 0
M  V30 16254 O 1641.27 4.07813 -4.42687 0
M  V30 16255 H 1645.09 1.20616 -2.78721 0
M  V30 16256 H 1642.68 0.532468 -1.39589 0
M  V30 16257 H 1644.56 3.5895 -2.20756 0
M  V30 16258 H 1643.23 3.02447 -1.15357 0
M  V30 16259 H 1642.14 1.93753 -3.20016 0
M  V30 16260 H 1643.47 2.56602 -4.20019 0
M  V30 16261 N 1645.13 1.45684 0.601159 0
M  V30 16262 C 1646.07 1.54846 1.71147 0
M  V30 16263 C 1647.04 0.393914 1.61361 0
M  V30 16264 O 1648.23 0.608222 1.80846 0
M  V30 16265 C 1645.37 1.52723 3.09467 0
M  V30 16266 C 1644.48 2.78776 3.30012 0
M  V30 16267 C 1643.62 2.68281 4.58474 0
M  V30 16268 C 1642.65 3.89358 4.72299 0
M  V30 16269 N 1641.79 3.77359 5.92068 0
M  V30 16270 H 1646.63 2.49696 1.62653 0
M  V30 16271 H 1644.17 1.23894 0.793006 0
M  V30 16272 H 1646.13 1.49479 3.89502 0
M  V30 16273 H 1644.76 0.614189 3.16903 0
M  V30 16274 H 1643.81 2.9208 2.43708 0
M  V30 16275 H 1645.12 3.68563 3.36099 0
M  V30 16276 H 1644.27 2.63039 5.46713 0
M  V30 16277 H 1643.01 1.76103 4.54795 0
M  V30 16278 H 1642.02 3.94952 3.82482 0
M  V30 16279 H 1643.24 4.82609 4.77771 0
M  V30 16280 H 1641.19 2.87955 5.89422 0
M  V30 16281 H 1641.11 4.60786 5.99343 0
M  V30 16282 H 1642.37 3.76061 6.82787 0
M  V30 16283 N 1646.6 -0.84422 1.33082 0
M  V30 16284 C 1647.88 -1.58339 1.1484 0
M  V30 16285 C 1648.26 -2.09136 -0.287273 0
M  V30 16286 O 1647.61 -1.8891 -1.2855 0
M  V30 16287 C 1647.82 -2.72141 2.18496 0
M  V30 16288 C 1649.17 -3.41457 2.52373 0
M  V30 16289 O 1650.19 -2.82377 2.17122 0
M  V30 16290 O 1649.05 -4.48096 3.12845 0
M  V30 16291 H 1646.14 -0.697813 0.443831 0
M  V30 16292 H 1648.69 -0.88744 1.44646 0
M  V30 16293 H 1647.46 -2.32206 3.14954 0
M  V30 16294 H 1647.08 -3.49404 1.89744 0
M  V30 16295 N 1648.08 -1.16463 -1.0618 0
M  V30 16296 C 1649.32 -0.957536 -1.80584 0
M  V30 16297 C 1649.69 0.505554 -1.85225 0
M  V30 16298 O 1650.89 0.831384 -2.5562 0
M  V30 16299 C 1649.16 -1.56919 -3.21109 0
M  V30 16300 S 1650.72 -1.5069 -4.12114 0
M  V30 16301 H 1647.53 -0.344329 -0.62206 0
M  V30 16302 H 1650.14 -1.48228 -1.2747 0
M  V30 16303 H 1648.84 -2.62672 -3.15328 0
M  V30 16304 H 1648.37 -1.04382 -3.79299 0
M  V30 16305 H 1650.39 -0.507956 -4.93593 0
M  V30 16306 N 1649.56 1.24734 -0.963288 0
M  V30 16307 C 1650.98 1.44897 -0.669103 0
M  V30 16308 C 1651.18 1.86185 0.770541 0
M  V30 16309 O 1650.23 1.99721 1.54492 0
M  V30 16310 C 1651.54 2.51425 -1.64943 0
M  V30 16311 C 1653.09 2.65256 -1.66157 0
M  V30 16312 C 1653.57 3.74977 -2.62976 0
M  V30 16313 N 1655.06 3.82399 -2.61391 0
M  V30 16314 C 1655.79 4.66809 -3.32981 0
M  V30 16315 N 1655.29 5.55441 -4.14073 0
M  V30 16316 N 1657.08 4.60851 -3.21827 0
M  V30 16317 H 1649.23 0.962292 -1.89351 0
M  V30 16318 H 1651.5 0.4843 -0.814958 0
M  V30 16319 H 1651.2 2.27965 -2.67815 0
M  V30 16320 H 1651.08 3.49503 -1.41872 0
M  V30 16321 H 1653.46 2.88077 -0.639978 0
M  V30 16322 H 1653.54 1.67551 -1.93288 0
M  V30 16323 H 1653.19 3.52907 -3.65266 0
M  V30 16324 H 1653.12 4.72187 -2.33125 0
M  V30 16325 H 1655.61 3.19048 -2.02527 0
M  V30 16326 H 1655.92 6.16798 -4.65597 0
M  V30 16327 H 1654.27 5.55121 -4.18169 0
M  V30 16328 H 1657.46 3.90621 -2.5794 0
M  V30 16329 H 1657.63 5.26411 -3.77883 0
M  V30 16330 N 1651.04 0.732878 1.39523 0
M  V30 16331 C 1652.45 0.408236 1.54291 0
M  V30 16332 C 1652.65 -1.08114 1.7004 0
M  V30 16333 O 1651.71 -1.86726 1.6997 0
M  V30 16334 C 1653.02 1.1894 2.76177 0
M  V30 16335 C 1654.57 1.17742 2.9001 0
M  V30 16336 C 1655.05 1.94111 4.14831 0
M  V30 16337 N 1656.54 1.91266 4.21867 0
M  V30 16338 C 1657.27 2.47167 5.17394 0
M  V30 16339 N 1656.77 3.11696 6.18723 0
M  V30 16340 N 1658.56 2.37212 5.09595 0
M  V30 16341 H 1650.71 1.69839 1.27548 0
M  V30 16342 H 1652.97 0.718844 0.618035 0
M  V30 16343 H 1652.68 2.24321 2.70875 0
M  V30 16344 H 1652.55 0.792439 3.68782 0
M  V30 16345 H 1654.94 0.131752 2.94806 0
M  V30 16346 H 1655.02 1.61374 1.98474 0
M  V30 16347 H 1654.67 2.98677 4.10797 0
M  V30 16348 H 1654.6 1.47886 5.05408 0
M  V30 16349 H 1657.09 1.44254 3.49284 0
M  V30 16350 H 1657.4 3.51823 6.8807 0
M  V30 16351 H 1655.75 3.15785 6.19116 0
M  V30 16352 H 1658.94 1.86444 4.29367 0
M  V30 16353 H 1659.11 2.81076 5.83866 0
M  V30 16354 N 1652.52 -1.50101 0.480349 0
M  V30 16355 C 1653.93 -1.59028 0.135048 0
M  V30 16356 C 1654.13 -1.48763 -1.35911 0
M  V30 16357 O 1653.19 -1.35089 -2.13324 0
M  V30 16358 C 1654.5 -2.92594 0.693483 0
M  V30 16359 C 1656.05 -3.06011 0.657737 0
M  V30 16360 C 1656.52 -4.42166 1.19388 0
M  V30 16361 N 1658.01 -4.48603 1.15368 0
M  V30 16362 C 1658.75 -5.52363 1.53893 0
M  V30 16363 N 1658.25 -6.6333 1.99911 0
M  V30 16364 N 1660.04 -5.42959 1.45438 0
M  V30 16365 H 1652.19 -1.55017 1.45202 0
M  V30 16366 H 1654.45 -0.733118 0.601034 0
M  V30 16367 H 1654.16 -3.0561 1.74056 0
M  V30 16368 H 1654.03 -3.76932 0.142238 0
M  V30 16369 H 1656.42 -2.92637 -0.38045 0
M  V30 16370 H 1656.5 -2.23408 1.24589 0
M  V30 16371 H 1656.14 -4.5629 2.23074 0
M  V30 16372 H 1656.07 -5.23376 0.58185 0
M  V30 16373 H 1658.57 -3.68979 0.816271 0
M  V30 16374 H 1658.88 -7.38576 2.27431 0
M  V30 16375 H 1657.22 -6.64426 2.03871 0
M  V30 16376 H 1660.41 -4.55156 1.09321 0
M  V30 16377 H 1660.59 -6.23701 1.75786 0
M  V30 16378 N 1653.99 -0.213323 -1.5615 0
M  V30 16379 C 1655.22 0.428746 -2.0292 0
M  V30 16380 C 1655.64 1.53137 -1.09227 0
M  V30 16381 O 1655 1.81128 -0.0789684 0
M  V30 16382 C 1655.05 0.945231 -3.47991 0
M  V30 16383 O 1654.15 2.05709 -3.57432 0
M  V30 16384 H 1653.49 0.0980619 -0.656719 0
M  V30 16385 H 1656.02 -0.329548 -2.01929 0
M  V30 16386 H 1656.03 1.25717 -3.88149 0
M  V30 16387 H 1654.71 0.138161 -4.1567 0
M  V30 16388 H 1653.29 1.75242 -3.29158 0
M  V30 16389 N 1655.47 1.57485 0.0601405 0
M  V30 16390 C 1656.72 1.87445 0.755575 0
M  V30 16391 C 1657.04 0.806915 1.77522 0
M  V30 16392 O 1656.31 -0.163139 1.9522 0
M  V30 16393 H 1654.89 0.691708 0.282044 0
M  V30 16394 H 1657.55 1.94871 0.0334616 0
M  V30 16395 H 1656.65 2.85334 1.26455 0
M  V30 16396 N 1656.95 -0.331789 1.54068 0
M  V30 16397 C 1657.9 -1.40889 1.7926 0
M  V30 16398 C 1658.88 -1.47263 0.648266 0
M  V30 16399 O 1660.08 -1.51934 0.908021 0
M  V30 16400 C 1657.21 -2.77864 2.0161 0
M  V30 16401 C 1656.29 -2.75835 3.22142 0
M  V30 16402 N 1656.68 -2.43431 4.43368 0
M  V30 16403 C 1654.98 -3.06972 3.23549 0
M  V30 16404 C 1655.68 -2.49932 5.2527 0
M  V30 16405 N 1654.66 -2.86037 4.6226 0
M  V30 16406 H 1658.46 -1.14751 2.70572 0
M  V30 16407 H 1655.97 -0.540225 1.53151 0
M  V30 16408 H 1657.97 -3.55486 2.17796 0
M  V30 16409 H 1656.63 -3.04938 1.11547 0
M  V30 16410 H 1657.64 -2.16421 4.70513 0
M  V30 16411 H 1654.32 -3.39142 2.43493 0
M  V30 16412 H 1655.71 -2.27938 6.32055 0
M  V30 16413 N 1658.43 -1.46001 -0.593424 0
M  V30 16414 C 1659.36 -1.58605 -1.71367 0
M  V30 16415 C 1660.34 -0.436866 -1.64394 0
M  V30 16416 O 1661.52 -0.661782 -1.82576 0
M  V30 16417 C 1658.65 -1.56587 -3.09996 0
M  V30 16418 C 1657.61 -2.70366 -3.31792 0
M  V30 16419 C 1656.93 -2.53406 -4.70839 0
M  V30 16420 C 1658.23 -4.12274 -3.20667 0
M  V30 16421 H 1659.93 -2.52379 -1.61076 0
M  V30 16422 H 1657.47 -1.21462 -0.773499 0
M  V30 16423 H 1659.43 -1.64 -3.88178 0
M  V30 16424 H 1658.15 -0.593511 -3.21162 0
M  V30 16425 H 1656.81 -2.62405 -2.56006 0
M  V30 16426 H 1656.46 -1.54278 -4.78756 0
M  V30 16427 H 1656.16 -3.29715 -4.86376 0
M  V30 16428 H 1657.68 -2.62694 -5.51203 0
M  V30 16429 H 1659.1 -4.21404 -3.88705 0
M  V30 16430 H 1657.49 -4.89085 -3.47729 0
M  V30 16431 H 1658.56 -4.33184 -2.17898 0
M  V30 16432 N 1659.91 0.83715 -1.33527 0
M  V30 16433 C 1661.13 1.62456 -1.28124 0
M  V30 16434 C 1661.55 1.88223 0.147499 0
M  V30 16435 O 1660.91 1.4636 1.09018 0
M  V30 16436 C 1660.96 2.97376 -2.05547 0
M  V30 16437 O 1660.68 2.7274 -3.42847 0
M  V30 16438 C 1662.18 3.91805 -2.07374 0
M  V30 16439 H 1659.4 0.505436 -0.441334 0
M  V30 16440 H 1661.94 1.04263 -1.75925 0
M  V30 16441 H 1660.1 3.52166 -1.61424 0
M  V30 16442 H 1660.51 3.58669 -3.82696 0
M  V30 16443 H 1661.99 4.83684 -2.65996 0
M  V30 16444 H 1662.46 4.26106 -1.06444 0
M  V30 16445 H 1663.07 3.42952 -2.51523 0
M  V30 16446 N 1661.38 1.17024 1.05561 0
M  V30 16447 C 1662.61 0.981293 1.82717 0
M  V30 16448 C 1663.03 -0.465636 1.82246 0
M  V30 16449 O 1662.39 -1.33315 1.22869 0
M  V30 16450 C 1662.44 1.52239 3.26888 0
M  V30 16451 O 1661.54 0.73366 4.05822 0
M  V30 16452 H 1660.89 0.348677 0.565084 0
M  V30 16453 H 1663.42 1.55435 1.33046 0
M  V30 16454 H 1663.43 1.54306 3.77695 0
M  V30 16455 H 1662.1 2.57567 3.26545 0
M  V30 16456 H 1660.68 0.784101 3.64563 0
M  V30 16457 N 1662.86 -1.24221 0.969889 0
M  V30 16458 C 1664.11 -1.92638 0.633913 0
M  V30 16459 C 1664.44 -1.75612 -0.829092 0
M  V30 16460 O 1663.72 -1.11057 -1.59677 0
M  V30 16461 C 1664 -3.45583 1.01213 0
M  V30 16462 C 1663.85 -3.71766 2.53199 0
M  V30 16463 C 1665.17 -4.36671 0.548294 0
M  V30 16464 H 1662.29 -0.699608 0.231772 0
M  V30 16465 H 1664.93 -1.46548 1.20929 0
M  V30 16466 H 1663.08 -3.8497 0.522531 0
M  V30 16467 H 1664.75 -3.41925 3.09653 0
M  V30 16468 H 1663 -3.16842 2.963 0
M  V30 16469 H 1663.67 -4.78787 2.74713 0
M  V30 16470 H 1666.14 -4.04672 0.968489 0
M  V30 16471 H 1665.02 -5.42412 0.841472 0
M  V30 16472 H 1665.28 -4.38646 -0.551588 0
M  V30 16473 N 1664.34 -0.740267 -1.39132 0
M  V30 16474 C 1665.29 -0.0797035 -2.27861 0
M  V30 16475 C 1666.27 0.707146 -1.44528 0
M  V30 16476 O 1667.47 0.575289 -1.6739 0
M  V30 16477 C 1664.6 0.822818 -3.33294 0
M  V30 16478 C 1663.68 0.029836 -4.2409 0
M  V30 16479 N 1664.07 -0.999737 -4.95821 0
M  V30 16480 C 1662.37 0.258692 -4.45249 0
M  V30 16481 C 1663.07 -1.47837 -5.626 0
M  V30 16482 N 1662.05 -0.796028 -5.3774 0
M  V30 16483 H 1665.85 -0.868435 -2.80776 0
M  V30 16484 H 1663.36 -0.575079 -1.51877 0
M  V30 16485 H 1665.36 1.31157 -3.95732 0
M  V30 16486 H 1664.02 1.61065 -2.81936 0
M  V30 16487 H 1665.03 -1.38123 -4.99142 0
M  V30 16488 H 1661.71 1.02091 -4.04825 0
M  V30 16489 H 1663.1 -2.33524 -6.30013 0
M  V30 16490 N 1665.82 1.49844 -0.488302 0
M  V30 16491 C 1667.04 2.07313 0.0600937 0
M  V30 16492 C 1667.47 1.3478 1.3121 0
M  V30 16493 O 1666.83 0.400634 1.76818 0
M  V30 16494 C 1666.87 3.59268 0.309658 0
M  V30 16495 O 1665.98 3.88381 1.38688 0
M  V30 16496 H 1665.32 0.663681 -0.0205947 0
M  V30 16497 H 1667.85 1.92818 -0.684284 0
M  V30 16498 H 1667.86 4.04344 0.545 0
M  V30 16499 H 1666.53 4.11474 -0.605146 0
M  V30 16500 H 1665.11 3.55128 1.13749 0
M  V30 16501 N 1667.3 0.221601 1.56034 0
M  V30 16502 C 1668.71 -0.28624 1.84493 0
M  V30 16503 C 1669.06 -1.59469 1.14298 0
M  V30 16504 O 1668.18 -2.12429 0.412672 0
M  V30 16505 C 1668.78 -0.526128 3.3469 0
M  V30 16506 C 1667.34 -0.978278 3.63465 0
M  V30 16507 C 1666.48 -0.0413786 2.77269 0
M  V30 16508 H 1669.44 0.444792 1.52339 0
M  V30 16509 H 1669.46 -1.37212 3.54899 0
M  V30 16510 H 1668.97 0.426348 3.85751 0
M  V30 16511 H 1667.07 -1.94411 3.1786 0
M  V30 16512 H 1667.18 -0.852651 4.71452 0
M  V30 16513 H 1665.55 -0.548179 2.48731 0
M  V30 16514 H 1666.33 0.906016 3.31129 0
M  V30 16515 N 1668.77 -1.57515 -0.0517878 0
M  V30 16516 C 1669.68 -2.08427 -1.07681 0
M  V30 16517 C 1670.7 -1.01797 -1.41115 0
M  V30 16518 O 1671.88 -1.33394 -1.50891 0
M  V30 16519 C 1668.94 -2.53472 -2.36544 0
M  V30 16520 C 1668 -3.74488 -2.09899 0
M  V30 16521 C 1667.24 -4.17374 -3.32618 0
M  V30 16522 O 1667.46 -3.59962 -4.42475 0
M  V30 16523 O 1666.39 -5.10006 -3.19653 0
M  V30 16524 H 1670.22 -2.96122 -0.674217 0
M  V30 16525 H 1667.8 -1.4699 -0.267274 0
M  V30 16526 H 1669.69 -2.82876 -3.12345 0
M  V30 16527 H 1668.36 -1.68899 -2.76143 0
M  V30 16528 H 1667.27 -3.50137 -1.31739 0
M  V30 16529 H 1668.6 -4.59975 -1.75169 0
M  V30 16530 N 1670.25 0.323614 -1.54242 0
M  V30 16531 C 1671.16 1.42128 -1.86646 0
M  V30 16532 C 1672.18 1.56603 -0.758385 0
M  V30 16533 O 1673.36 1.717 -1.05267 0
M  V30 16534 C 1670.42 2.76842 -2.08709 0
M  V30 16535 C 1669.48 2.71543 -3.3251 0
M  V30 16536 C 1668.71 3.99833 -3.5351 0
M  V30 16537 O 1668.94 4.98095 -2.77952 0
M  V30 16538 O 1667.87 4.03095 -4.46988 0
M  V30 16539 H 1671.7 1.17653 -2.79985 0
M  V30 16540 H 1669.28 0.517632 -1.40146 0
M  V30 16541 H 1671.16 3.56588 -2.24551 0
M  V30 16542 H 1669.84 3.01207 -1.18558 0
M  V30 16543 H 1668.75 1.90348 -3.22053 0
M  V30 16544 H 1670.08 2.52133 -4.22717 0
M  V30 16545 N 1671.73 1.46313 0.585673 0
M  V30 16546 C 1672.68 1.5307 1.68978 0
M  V30 16547 C 1673.67 0.391901 1.56054 0
M  V30 16548 O 1674.86 0.64013 1.65019 0
M  V30 16549 C 1671.99 1.52113 3.07761 0
M  V30 16550 C 1671.07 2.71276 3.25991 0
M  V30 16551 N 1671.46 3.9622 3.14393 0
M  V30 16552 C 1669.76 2.67436 3.56923 0
M  V30 16553 C 1670.46 4.7587 3.34549 0
M  V30 16554 N 1669.44 4.07693 3.59565 0
M  V30 16555 H 1673.24 2.47474 1.58537 0
M  V30 16556 H 1670.75 1.41911 0.789614 0
M  V30 16557 H 1672.75 1.5504 3.86999 0
M  V30 16558 H 1671.41 0.587834 3.19335 0
M  V30 16559 H 1672.42 4.27513 2.92323 0
M  V30 16560 H 1669.1 1.83116 3.75199 0
M  V30 16561 H 1670.49 5.84831 3.3079 0
M  V30 16562 N 1673.21 -0.830057 1.33969 0
M  V30 16563 C 1674.43 -1.62294 1.29133 0
M  V30 16564 C 1674.86 -1.87627 -0.133253 0
M  V30 16565 O 1674.22 -1.44669 -1.09272 0
M  V30 16566 C 1674.27 -2.94508 2.0808 0
M  V30 16567 O 1673.37 -3.86239 1.44544 0
M  V30 16568 H 1672.71 -0.493865 0.443839 0
M  V30 16569 H 1675.24 -1.03202 1.76665 0
M  V30 16570 H 1675.25 -3.44133 2.19173 0
M  V30 16571 H 1673.93 -2.75392 3.1166 0
M  V30 16572 H 1672.5 -3.44743 1.42151 0
M  V30 16573 N 1674.69 -1.17582 -1.04939 0
M  V30 16574 C 1675.93 -0.965778 -1.77986 0
M  V30 16575 C 1676.26 0.505366 -1.8782 0
M  V30 16576 O 1675.52 1.39132 -1.37625 0
M  V30 16577 C 1675.82 -1.55507 -3.21796 0
M  V30 16578 C 1675.48 -3.05086 -3.32014 0
M  V30 16579 C 1674.14 -3.45914 -3.3451 0
M  V30 16580 C 1676.5 -4.01096 -3.32824 0
M  V30 16581 C 1673.82 -4.81344 -3.35447 0
M  V30 16582 C 1676.18 -5.3643 -3.353 0
M  V30 16583 C 1674.84 -5.76718 -3.36084 0
M  V30 16584 H 1674.11 -0.353403 -0.651297 0
M  V30 16585 H 1676.76 -1.46512 -1.23315 0
M  V30 16586 H 1675.06 -0.977509 -3.7941 0
M  V30 16587 H 1676.76 -1.36807 -3.76941 0
M  V30 16588 H 1673.35 -2.72541 -3.30786 0
M  V30 16589 H 1677.53 -3.7061 -3.30094 0
M  V30 16590 H 1672.79 -5.11868 -3.34366 0
M  V30 16591 H 1676.96 -6.106 -3.34874 0
M  V30 16592 H 1674.59 -6.81637 -3.36563 0
M  V30 16593 N 1676.17 1.23705 -0.976463 0
M  V30 16594 C 1677.41 1.9132 -0.638714 0
M  V30 16595 C 1677.73 1.7707 0.830993 0
M  V30 16596 O 1678.93 2.39453 1.27964 0
M  V30 16597 C 1677.39 3.42941 -1.09178 0
M  V30 16598 C 1677 3.6586 -2.58555 0
M  V30 16599 C 1678.74 4.16355 -0.827585 0
M  V30 16600 C 1676.65 5.11096 -2.97549 0
M  V30 16601 H 1675.58 0.716382 -0.235187 0
M  V30 16602 H 1678.23 1.40205 -1.18384 0
M  V30 16603 H 1676.61 3.93142 -0.474893 0
M  V30 16604 H 1677.79 3.26221 -3.25448 0
M  V30 16605 H 1676.1 3.05748 -2.82678 0
M  V30 16606 H 1678.7 5.23372 -1.09482 0
M  V30 16607 H 1679.04 4.15629 0.236282 0
M  V30 16608 H 1679.57 3.7213 -1.40586 0
M  V30 16609 H 1676.31 5.1695 -4.03042 0
M  V30 16610 H 1675.83 5.51699 -2.35346 0
M  V30 16611 H 1677.51 5.79397 -2.87937 0
M  V30 16612 N 1677.64 0.747635 1.38738 0
M  V30 16613 C 1678.59 0.105258 2.32362 0
M  V30 16614 C 1679.59 -0.711921 1.53714 0
M  V30 16615 O 1680.79 -0.611687 1.69288 0
M  V30 16616 H 1677.17 0.0152406 0.751846 0
M  V30 16617 H 1679.14 0.911057 2.84152 0
M  V30 16618 C 1677.89 -0.778221 3.38879 0
M  V30 16619 H 1677.21 -0.158806 3.99484 0
M  V30 16620 H 1678.65 -1.19509 4.06809 0
M  V30 16621 C 1677.11 -1.91819 2.76961 0
M  V30 16622 O 1677.64 -3.01187 2.65799 0
M  V30 16623 N 1675.84 -1.71143 2.34859 0
M  V30 16624 H 1675.39 -0.821885 2.44137 0
M  V30 16625 H 1675.35 -2.47588 1.93772 0
M  V30 16626 N 1679.12 -1.49583 0.496242 0
M  V30 16627 C 1680.35 -2.07342 -0.0490986 0
M  V30 16628 C 1680.77 -1.35474 -1.30493 0
M  V30 16629 O 1680.13 -0.410005 -1.76603 0
M  V30 16630 C 1680.18 -3.59427 -0.290601 0
M  V30 16631 O 1679.28 -3.89111 -1.36626 0
M  V30 16632 H 1678.62 -0.663562 0.0241141 0
M  V30 16633 H 1681.15 -1.92452 0.6945 0
M  V30 16634 H 1681.16 -4.04627 -0.523549 0
M  V30 16635 H 1679.84 -4.11147 0.626959 0
M  V30 16636 H 1678.41 -3.55726 -1.11864 0
M  V30 16637 N 1680.6 -0.229873 -1.55915 0
M  V30 16638 C 1681.85 0.399565 -1.98519 0
M  V30 16639 C 1682.17 1.59179 -1.1177 0
M  V30 16640 O 1681.43 1.95007 -0.16454 0
M  V30 16641 C 1681.73 0.869043 -3.46673 0
M  V30 16642 C 1681.39 -0.21356 -4.50394 0
M  V30 16643 C 1680.06 -0.510939 -4.7848 0
M  V30 16644 C 1682.41 -0.945307 -5.12556 0
M  V30 16645 C 1679.74 -1.54444 -5.66007 0
M  V30 16646 C 1682.09 -1.9682 -6.01203 0
M  V30 16647 C 1680.75 -2.27241 -6.27629 0
M  V30 16648 H 1680.02 0.146211 -0.726432 0
M  V30 16649 H 1682.67 -0.334135 -1.88562 0
M  V30 16650 H 1680.97 1.68165 -3.53875 0
M  V30 16651 H 1682.67 1.36605 -3.77015 0
M  V30 16652 H 1679.26 0.0283699 -4.28591 0
M  V30 16653 H 1683.45 -0.728806 -4.9092 0
M  V30 16654 H 1678.7 -1.78566 -5.84743 0
M  V30 16655 H 1682.88 -2.54023 -6.48418 0
M  V30 16656 H 1680.5 -3.07465 -6.95248 0
M  V30 16657 N 1682.08 1.5754 0.0434337 0
M  V30 16658 C 1683.33 1.88235 0.735652 0
M  V30 16659 C 1683.65 0.825698 1.76656 0
M  V30 16660 O 1682.92 -0.142424 1.95382 0
M  V30 16661 H 1681.5 0.694661 0.274692 0
M  V30 16662 H 1684.16 1.94896 0.0127911 0
M  V30 16663 H 1683.25 2.86659 1.23421 0
M  V30 16664 N 1683.56 -0.31543 1.54411 0
M  V30 16665 C 1684.51 -1.3898 1.80745 0
M  V30 16666 C 1685.49 -1.46567 0.663849 0
M  V30 16667 O 1686.68 -1.50963 0.924084 0
M  V30 16668 C 1683.81 -2.7571 2.04546 0
M  V30 16669 C 1682.9 -2.72403 3.2505 0
M  V30 16670 N 1683.29 -2.38715 4.45925 0
M  V30 16671 C 1681.59 -3.03523 3.26787 0
M  V30 16672 C 1682.29 -2.44346 5.27892 0
M  V30 16673 N 1681.26 -2.81118 4.65268 0
M  V30 16674 H 1685.06 -1.11875 2.71774 0
M  V30 16675 H 1682.58 -0.523951 1.53716 0
M  V30 16676 H 1684.58 -3.53156 2.21554 0
M  V30 16677 H 1683.24 -3.03738 1.14775 0
M  V30 16678 H 1684.25 -2.11419 4.72782 0
M  V30 16679 H 1680.92 -3.3654 2.47076 0
M  V30 16680 H 1682.31 -2.21221 6.34437 0
M  V30 16681 N 1685.03 -1.46622 -0.577906 0
M  V30 16682 C 1685.94 -1.60143 -1.71439 0
M  V30 16683 C 1686.96 -0.484781 -1.6711 0
M  V30 16684 O 1688.14 -0.749551 -1.86932 0
M  V30 16685 C 1685.2 -1.59282 -3.07945 0
M  V30 16686 C 1684.26 -2.82216 -3.235 0
M  V30 16687 C 1683.5 -2.81387 -4.53495 0
M  V30 16688 O 1683.72 -1.90407 -5.37681 0
M  V30 16689 O 1682.65 -3.72991 -4.724 0
M  V30 16690 H 1686.48 -2.56265 -1.62978 0
M  V30 16691 H 1684.06 -1.2947 -0.745514 0
M  V30 16692 H 1685.95 -1.61515 -3.89218 0
M  V30 16693 H 1684.62 -0.663212 -3.16833 0
M  V30 16694 H 1683.53 -2.85536 -2.41702 0
M  V30 16695 H 1684.86 -3.74402 -3.19506 0
M  V30 16696 N 1686.51 0.822941 -1.34408 0
M  V30 16697 C 1687.46 1.95524 -1.25988 0
M  V30 16698 C 1688.45 1.68662 -0.157994 0
M  V30 16699 O 1689.66 1.77079 -0.322966 0
M  V30 16700 H 1686.04 0.642117 -0.391394 0
M  V30 16701 H 1688.01 1.99747 -2.21683 0
M  V30 16702 C 1686.76 3.32026 -1.03218 0
M  V30 16703 H 1686.08 3.53244 -1.87239 0
M  V30 16704 H 1687.52 4.11706 -1.01363 0
M  V30 16705 C 1685.98 3.3586 0.264523 0
M  V30 16706 O 1686.51 3.81232 1.26589 0
M  V30 16707 N 1684.71 2.89072 0.297626 0
M  V30 16708 H 1684.26 2.52341 -0.517836 0
M  V30 16709 H 1684.22 2.92019 1.165 0
M  V30 16710 N 1687.99 1.18137 1.04314 0
M  V30 16711 C 1689.22 1.00002 1.81128 0
M  V30 16712 C 1689.63 -0.451609 1.83319 0
M  V30 16713 O 1688.99 -1.31367 1.26685 0
M  V30 16714 C 1689.04 1.54454 3.26843 0
M  V30 16715 O 1688.76 2.93933 3.24861 0
M  V30 16716 C 1690.26 1.40902 4.20311 0
M  V30 16717 H 1687.48 0.35327 0.570475 0
M  V30 16718 H 1690.03 1.56629 1.31482 0
M  V30 16719 H 1688.18 1.02009 3.73728 0
M  V30 16720 H 1688.6 3.19279 4.16127 0
M  V30 16721 H 1690.07 1.83803 5.205 0
M  V30 16722 H 1690.55 0.357371 4.37744 0
M  V30 16723 H 1691.15 1.92407 3.79288 0
M  V30 16724 N 1689.47 -1.23186 0.98301 0
M  V30 16725 C 1690.71 -1.92259 0.663941 0
M  V30 16726 C 1691.07 -1.75245 -0.794155 0
M  V30 16727 O 1690.36 -1.10437 -1.5657 0
M  V30 16728 C 1690.56 -3.43331 0.992898 0
M  V30 16729 C 1690.39 -3.75041 2.48142 0
M  V30 16730 C 1689.16 -3.95589 3.14384 0
M  V30 16731 C 1691.35 -3.80309 3.46222 0
M  V30 16732 N 1689.34 -4.14526 4.52815 0
M  V30 16733 C 1690.71 -4.04269 4.70071 0
M  V30 16734 C 1692.76 -3.63113 3.40666 0
M  V30 16735 C 1691.46 -4.12819 5.89044 0
M  V30 16736 C 1693.49 -3.72916 4.59007 0
M  V30 16737 C 1692.85 -3.97316 5.81652 0
M  V30 16738 H 1688.95 -0.724605 0.29406 0
M  V30 16739 H 1691.54 -1.48347 1.261 0
M  V30 16740 H 1689.71 -3.86073 0.424507 0
M  V30 16741 H 1691.44 -3.99753 0.630833 0
M  V30 16742 H 1688.19 -3.92605 2.64874 0
M  V30 16743 H 1688.62 -4.27943 5.24589 0
M  V30 16744 H 1693.26 -3.43242 2.4687 0
M  V30 16745 H 1690.98 -4.31496 6.83255 0
M  V30 16746 H 1694.56 -3.60962 4.56287 0
M  V30 16747 H 1693.44 -4.04719 6.71694 0
M  V30 16748 N 1690.95 -0.754982 -1.38339 0
M  V30 16749 C 1692.2 -0.308537 -1.99326 0
M  V30 16750 C 1692.51 1.1164 -1.60611 0
M  V30 16751 O 1693.71 1.66339 -2.14578 0
M  V30 16752 C 1692.17 -0.500688 -3.564 0
M  V30 16753 C 1691.78 -1.9348 -4.04066 0
M  V30 16754 C 1693.52 -0.117026 -4.24339 0
M  V30 16755 C 1691.43 -2.07544 -5.53786 0
M  V30 16756 H 1690.36 -0.111611 -0.745694 0
M  V30 16757 H 1693.01 -0.931722 -1.58086 0
M  V30 16758 H 1691.39 0.191702 -3.95536 0
M  V30 16759 H 1692.57 -2.66077 -3.76217 0
M  V30 16760 H 1690.88 -2.27351 -3.48856 0
M  V30 16761 H 1693.48 -0.200847 -5.34323 0
M  V30 16762 H 1693.82 0.930531 -4.05767 0
M  V30 16763 H 1694.35 -0.761323 -3.90447 0
M  V30 16764 H 1691.09 -3.10559 -5.77264 0
M  V30 16765 H 1690.61 -1.39409 -5.83374 0
M  V30 16766 H 1692.29 -1.86605 -6.19506 0
M  V30 16767 N 1692.42 1.49318 -0.504168 0
M  V30 16768 C 1693.67 2.02062 0.039149 0
M  V30 16769 C 1693.99 1.38577 1.37191 0
M  V30 16770 O 1693.26 0.542179 1.88248 0
M  V30 16771 H 1691.84 0.746796 0.0174575 0
M  V30 16772 H 1694.51 1.83308 -0.66213 0
M  V30 16773 H 1693.6 3.11656 0.166496 0
M  V30 16774 N 1693.9 0.238138 1.5579 0
M  V30 16775 C 1694.83 -0.659451 2.23994 0
M  V30 16776 C 1695.81 -1.18817 1.21723 0
M  V30 16777 O 1697 -1.22913 1.50353 0
M  V30 16778 C 1694.13 -1.86043 2.93267 0
M  V30 16779 C 1693.08 -1.46485 4.02152 0
M  V30 16780 C 1692.41 -2.74595 4.58805 0
M  V30 16781 C 1693.71 -0.642448 5.18334 0
M  V30 16782 H 1695.4 -0.0907522 2.99262 0
M  V30 16783 H 1692.95 -0.042209 1.43938 0
M  V30 16784 H 1694.9 -2.49393 3.39678 0
M  V30 16785 H 1693.63 -2.45436 2.15473 0
M  V30 16786 H 1692.28 -0.854729 3.56497 0
M  V30 16787 H 1691.93 -3.32168 3.77721 0
M  V30 16788 H 1691.63 -2.48854 5.32302 0
M  V30 16789 H 1693.16 -3.38859 5.07944 0
M  V30 16790 H 1694.57 -1.18005 5.61024 0
M  V30 16791 H 1692.97 -0.481458 5.98166 0
M  V30 16792 H 1694.04 0.347298 4.83655 0
M  V30 16793 N 1695.38 -1.57561 -0.0350783 0
M  V30 16794 C 1696.33 -2.07246 -1.05602 0
M  V30 16795 C 1697.32 -0.985013 -1.37818 0
M  V30 16796 O 1698.53 -1.16993 -1.36794 0
M  V30 16797 H 1694.9 -0.661286 -0.358057 0
M  V30 16798 H 1696.87 -2.92075 -0.611124 0
M  V30 16799 C 1695.62 -2.56235 -2.3503 0
M  V30 16800 H 1694.95 -3.39525 -2.111 0
M  V30 16801 H 1696.39 -2.94716 -3.04826 0
M  V30 16802 C 1694.85 -1.46096 -3.03575 0
M  V30 16803 O 1695.38 -0.823772 -3.93163 0
M  V30 16804 N 1693.58 -1.19698 -2.64803 0
M  V30 16805 H 1693.13 -1.71697 -1.92036 0
M  V30 16806 H 1693.09 -0.462174 -3.10984 0
M  V30 16807 N 1696.86 0.307236 -1.54576 0
M  V30 16808 C 1698.14 1.06243 -1.64231 0
M  V30 16809 C 1698.52 2.05415 -0.486589 0
M  V30 16810 O 1697.86 2.22565 0.517384 0
M  V30 16811 C 1698.07 1.74985 -3.01962 0
M  V30 16812 C 1699.42 2.2741 -3.58566 0
M  V30 16813 O 1700.45 1.85027 -3.04374 0
M  V30 16814 O 1699.3 3.05051 -4.53438 0
M  V30 16815 H 1696.4 0.490693 -0.665695 0
M  V30 16816 H 1698.94 0.305822 -1.66922 0
M  V30 16817 H 1697.72 1.02939 -3.77517 0
M  V30 16818 H 1697.34 2.57417 -3.03022 0
M  V30 16819 N 1698.34 1.46926 0.570122 0
M  V30 16820 C 1699.75 1.32159 0.894766 0
M  V30 16821 C 1699.95 0.302411 1.99218 0
M  V30 16822 O 1699.01 -0.290615 2.50822 0
M  V30 16823 C 1700.32 2.71136 1.30021 0
M  V30 16824 C 1701.87 2.79323 1.41236 0
M  V30 16825 C 1702.34 4.18911 1.85142 0
M  V30 16826 N 1703.84 4.2139 1.92314 0
M  V30 16827 C 1704.57 5.263 2.27588 0
M  V30 16828 N 1704.07 6.41526 2.61565 0
M  V30 16829 N 1705.86 5.13671 2.28251 0
M  V30 16830 H 1698.01 2.11837 -0.154603 0
M  V30 16831 H 1700.27 0.947978 -0.00649658 0
M  V30 16832 H 1699.98 3.47087 0.567775 0
M  V30 16833 H 1699.85 3.02066 2.25911 0
M  V30 16834 H 1702.24 2.03653 2.13564 0
M  V30 16835 H 1702.32 2.52063 0.43566 0
M  V30 16836 H 1701.97 4.95081 1.13389 0
M  V30 16837 H 1701.9 4.43587 2.83792 0
M  V30 16838 H 1704.39 3.38257 1.68495 0
M  V30 16839 H 1704.7 7.17343 2.8747 0
M  V30 16840 H 1703.04 6.44867 2.59175 0
M  V30 16841 H 1706.24 4.22684 2.01137 0
M  V30 16842 H 1706.41 5.95541 2.55412 0
M  V30 16843 N 1699.82 -0.815801 1.34842 0
M  V30 16844 C 1701.06 -1.56747 1.26938 0
M  V30 16845 C 1701.38 -1.9497 -0.156887 0
M  V30 16846 O 1702.58 -2.69128 -0.358132 0
M  V30 16847 C 1701.04 -2.82832 2.22562 0
M  V30 16848 C 1700.65 -2.51883 3.70485 0
M  V30 16849 C 1702.39 -3.60849 2.23581 0
M  V30 16850 C 1700.3 -3.74204 4.57957 0
M  V30 16851 H 1699.23 -0.58832 0.471588 0
M  V30 16852 H 1701.88 -0.897551 1.60051 0
M  V30 16853 H 1700.26 -3.51486 1.8241 0
M  V30 16854 H 1701.44 -1.91294 4.19217 0
M  V30 16855 H 1699.75 -1.87129 3.71983 0
M  V30 16856 H 1702.35 -4.51686 2.86154 0
M  V30 16857 H 1702.69 -3.97496 1.23703 0
M  V30 16858 H 1703.22 -2.99146 2.62215 0
M  V30 16859 H 1699.96 -3.42672 5.58799 0
M  V30 16860 H 1699.48 -4.34051 4.13956 0
M  V30 16861 H 1701.16 -4.41536 4.72921 0
M  V30 16862 N 1701.29 -1.18689 -1.03686 0
M  V30 16863 C 1702.54 -0.98606 -1.77214 0
M  V30 16864 C 1702.87 0.482788 -1.88103 0
M  V30 16865 O 1702.15 1.3585 -1.39194 0
M  V30 16866 C 1702.43 -1.64611 -3.20274 0
M  V30 16867 C 1702.28 -3.18808 -3.17304 0
M  V30 16868 C 1703.6 -1.36251 -4.18478 0
M  V30 16869 H 1700.72 -0.359634 -0.643298 0
M  V30 16870 H 1703.36 -1.46412 -1.21094 0
M  V30 16871 H 1701.51 -1.23964 -3.68192 0
M  V30 16872 H 1703.19 -3.68615 -2.77346 0
M  V30 16873 H 1701.43 -3.50769 -2.55232 0
M  V30 16874 H 1702.1 -3.60131 -4.18341 0
M  V30 16875 H 1704.58 -1.71476 -3.79124 0
M  V30 16876 H 1703.45 -1.84997 -5.16786 0
M  V30 16877 H 1703.71 -0.286113 -4.41173 0
M  V30 16878 N 1702.77 1.22662 -0.989529 0
M  V30 16879 C 1703.68 2.28162 -0.545835 0
M  V30 16880 C 1704.7 1.69251 0.403762 0
M  V30 16881 O 1705.87 1.99563 0.271428 0
M  V30 16882 C 1702.94 3.46434 0.135808 0
M  V30 16883 C 1702 4.20673 -0.85633 0
M  V30 16884 C 1701.23 5.33298 -0.207121 0
M  V30 16885 O 1701.46 5.6157 0.99975 0
M  V30 16886 O 1700.39 5.94977 -0.910288 0
M  V30 16887 H 1704.22 2.68276 -1.42344 0
M  V30 16888 H 1701.8 1.28766 -0.757609 0
M  V30 16889 H 1703.68 4.18207 0.517776 0
M  V30 16890 H 1702.36 3.08252 0.988035 0
M  V30 16891 H 1701.26 3.51186 -1.28917 0
M  V30 16892 H 1702.6 4.62726 -1.67765 0
M  V30 16893 N 1704.25 0.762308 1.37937 0
M  V30 16894 C 1705.67 0.440871 1.5339 0
M  V30 16895 C 1705.87 -1.04483 1.72295 0
M  V30 16896 O 1704.92 -1.83078 1.73892 0
M  V30 16897 C 1706.23 1.24772 2.73592 0
M  V30 16898 C 1707.78 1.23867 2.87447 0
M  V30 16899 C 1708.26 2.02866 4.10621 0
M  V30 16900 N 1709.75 2.00171 4.17715 0
M  V30 16901 C 1710.48 2.58086 5.12034 0
M  V30 16902 N 1709.98 3.2475 6.11972 0
M  V30 16903 N 1711.77 2.47968 5.04449 0
M  V30 16904 H 1703.92 1.72506 1.23916 0
M  V30 16905 H 1706.19 0.731791 0.602649 0
M  V30 16906 H 1705.89 2.30016 2.66056 0
M  V30 16907 H 1705.77 0.870485 3.67018 0
M  V30 16908 H 1708.15 0.194255 2.9446 0
M  V30 16909 H 1708.23 1.65548 1.95007 0
M  V30 16910 H 1707.88 3.07323 4.04369 0
M  V30 16911 H 1707.81 1.58574 5.02157 0
M  V30 16912 H 1710.3 1.5163 3.46146 0
M  V30 16913 H 1710.61 3.66339 6.80453 0
M  V30 16914 H 1708.96 3.28846 6.12279 0
M  V30 16915 H 1712.15 1.95509 4.25316 0
M  V30 16916 H 1712.32 2.93398 5.77773 0
M  V30 16917 N 1705.73 -1.49049 0.51208 0
M  V30 16918 C 1707 -1.95383 -0.0920331 0
M  V30 16919 C 1707.38 -1.4539 -1.53053 0
M  V30 16920 O 1706.73 -0.672485 -2.1838 0
M  V30 16921 C 1706.94 -3.48999 0.00673901 0
M  V30 16922 C 1708.29 -4.24292 -0.161602 0
M  V30 16923 O 1709.31 -3.56135 -0.0679198 0
M  V30 16924 O 1708.17 -5.45343 -0.355351 0
M  V30 16925 H 1705.27 -0.822175 -0.0891992 0
M  V30 16926 H 1707.81 -1.59647 0.575406 0
M  V30 16927 H 1706.59 -3.78055 1.00948 0
M  V30 16928 H 1706.21 -3.91383 -0.700353 0
M  V30 16929 N 1707.21 -0.246397 -1.55662 0
M  V30 16930 C 1708.45 0.378487 -1.98931 0
M  V30 16931 C 1708.78 1.57984 -1.13452 0
M  V30 16932 O 1708.04 1.94822 -0.185214 0
M  V30 16933 C 1708.33 0.832225 -3.47576 0
M  V30 16934 C 1708 -0.261318 -4.50142 0
M  V30 16935 C 1706.66 -0.56166 -4.77911 0
M  V30 16936 C 1709.01 -0.999618 -5.11524 0
M  V30 16937 C 1706.34 -1.60438 -5.64337 0
M  V30 16938 C 1708.69 -2.03186 -5.99081 0
M  V30 16939 C 1707.36 -2.33885 -6.25183 0
M  V30 16940 H 1706.63 0.138498 -0.727942 0
M  V30 16941 H 1709.28 -0.354116 -1.88197 0
M  V30 16942 H 1707.58 1.64402 -3.55639 0
M  V30 16943 H 1709.28 1.32598 -3.78442 0
M  V30 16944 H 1705.87 -0.0170894 -4.28597 0
M  V30 16945 H 1710.05 -0.780833 -4.90119 0
M  V30 16946 H 1705.31 -1.84758 -5.82816 0
M  V30 16947 H 1709.48 -2.60886 -6.45687 0
M  V30 16948 H 1707.11 -3.14822 -6.91947 0
M  V30 16949 N 1708.68 1.57577 0.026722 0
M  V30 16950 C 1709.62 2.03515 1.05424 0
M  V30 16951 C 1710.63 0.948362 1.32325 0
M  V30 16952 O 1711.82 1.22563 1.29771 0
M  V30 16953 C 1708.92 2.39744 2.39533 0
M  V30 16954 C 1708.09 3.70832 2.31954 0
M  V30 16955 C 1707.15 3.94224 3.48531 0
M  V30 16956 O 1706.18 4.6525 3.27919 0
M  V30 16957 N 1707.38 3.40044 4.70479 0
M  V30 16958 H 1710.14 2.92282 0.662678 0
M  V30 16959 H 1707.7 1.60471 0.214623 0
M  V30 16960 H 1709.7 2.52529 3.16245 0
M  V30 16961 H 1708.27 1.56636 2.70525 0
M  V30 16962 H 1707.49 3.68378 1.40325 0
M  V30 16963 H 1708.77 4.56821 2.24035 0
M  V30 16964 H 1708.17 2.82478 4.90125 0
M  V30 16965 H 1706.73 3.58205 5.44548 0
M  V30 16966 N 1710.16 -0.299034 1.54737 0
M  V30 16967 C 1711.41 -1.03159 1.75299 0
M  V30 16968 C 1711.76 -1.84859 0.533365 0
M  V30 16969 O 1711.06 -1.85639 -0.474219 0
M  V30 16970 C 1711.25 -1.9673 2.98382 0
M  V30 16971 C 1711.08 -1.24234 4.32199 0
M  V30 16972 C 1709.85 -0.96869 4.95928 0
M  V30 16973 C 1712.05 -0.645795 5.10229 0
M  V30 16974 N 1710.03 -0.214208 6.13526 0
M  V30 16975 C 1711.4 -0.0241804 6.19995 0
M  V30 16976 C 1713.45 -0.55104 4.94841 0
M  V30 16977 C 1712.16 0.683023 7.1605 0
M  V30 16978 C 1714.18 0.142513 5.91228 0
M  V30 16979 C 1713.55 0.752971 7.00364 0
M  V30 16980 H 1709.64 -0.360348 0.694027 0
M  V30 16981 H 1712.23 -0.31 1.92216 0
M  V30 16982 H 1710.4 -2.66138 2.82887 0
M  V30 16983 H 1712.13 -2.63152 3.07462 0
M  V30 16984 H 1708.89 -1.26735 4.56328 0
M  V30 16985 H 1709.31 0.149604 6.76835 0
M  V30 16986 H 1713.95 -1.0087 4.10591 0
M  V30 16987 H 1711.67 1.15245 7.9984 0
M  V30 16988 H 1715.26 0.215798 5.814 0
M  V30 16989 H 1714.14 1.2811 7.73665 0
M  V30 16990 N 1711.64 -1.47227 -0.562322 0
M  V30 16991 C 1712.87 -1.57196 -1.34526 0
M  V30 16992 C 1713.28 -0.220303 -1.8751 0
M  V30 16993 O 1712.64 0.785664 -1.64723 0
M  V30 16994 C 1712.69 -2.59312 -2.51872 0
M  V30 16995 O 1712.41 -3.89229 -2.01078 0
M  V30 16996 C 1713.91 -2.79416 -3.44153 0
M  V30 16997 H 1711.13 -0.530971 -0.410257 0
M  V30 16998 H 1713.68 -1.92804 -0.68168 0
M  V30 16999 H 1711.83 -2.26652 -3.14178 0
M  V30 17000 H 1712.25 -4.44985 -2.77648 0
M  V30 17001 H 1713.72 -3.54743 -4.2292 0
M  V30 17002 H 1714.2 -1.87054 -3.97376 0
M  V30 17003 H 1714.8 -3.13254 -2.87667 0
M  V30 17004 N 1713.12 0.808639 -1.35273 0
M  V30 17005 C 1714.39 1.55238 -1.18998 0
M  V30 17006 C 1714.77 2.09824 0.231723 0
M  V30 17007 O 1714.12 1.92252 1.23497 0
M  V30 17008 C 1714.33 2.66252 -2.25634 0
M  V30 17009 C 1715.68 3.34646 -2.61338 0
M  V30 17010 O 1716.7 2.76521 -2.24532 0
M  V30 17011 O 1715.56 4.39644 -3.24615 0
M  V30 17012 H 1712.66 0.6858 -0.462176 0
M  V30 17013 H 1715.2 0.848777 -1.46949 0
M  V30 17014 H 1713.98 2.23774 -3.21 0
M  V30 17015 H 1713.6 3.4425 -1.98941 0
M  V30 17016 N 1714.6 1.19237 1.03055 0
M  V30 17017 C 1715.54 0.925171 2.13409 0
M  V30 17018 C 1716.54 -0.118373 1.68986 0
M  V30 17019 O 1717.74 0.0307159 1.79974 0
M  V30 17020 H 1714.12 0.281769 0.697216 0
M  V30 17021 H 1716.09 1.86252 2.33137 0
M  V30 17022 C 1714.84 0.478529 3.44391 0
M  V30 17023 H 1714.16 1.27305 3.7899 0
M  V30 17024 H 1715.6 0.330661 4.22709 0
M  V30 17025 C 1714.06 -0.80715 3.27088 0
M  V30 17026 O 1714.59 -1.86897 3.55573 0
M  V30 17027 N 1712.8 -0.76373 2.80385 0
M  V30 17028 H 1712.34 0.100606 2.57403 0
M  V30 17029 H 1712.3 -1.62435 2.69188 0
M  V30 17030 N 1716.07 -1.22136 0.99602 0
M  V30 17031 C 1717.3 -1.94978 0.692172 0
M  V30 17032 C 1717.72 -1.73536 -0.743696 0
M  V30 17033 O 1717.07 -1.03637 -1.50219 0
M  V30 17034 C 1717.13 -3.47609 0.992498 0
M  V30 17035 O 1716.85 -3.68334 2.37195 0
M  V30 17036 C 1718.35 -4.37629 0.70679 0
M  V30 17037 H 1715.57 -0.620327 0.255802 0
M  V30 17038 H 1718.11 -1.55202 1.33164 0
M  V30 17039 H 1716.27 -3.85342 0.398785 0
M  V30 17040 H 1716.68 -4.62506 2.47362 0
M  V30 17041 H 1718.15 -5.43461 0.967173 0
M  V30 17042 H 1718.63 -4.37729 -0.359208 0
M  V30 17043 H 1719.24 -4.05528 1.2817 0
M  V30 17044 N 1717.55 -0.769612 -1.37531 0
M  V30 17045 C 1718.8 -0.332309 -1.99349 0
M  V30 17046 C 1719.12 1.09432 -1.61399 0
M  V30 17047 O 1718.39 1.75102 -0.878415 0
M  V30 17048 H 1716.97 -0.119879 -0.737318 0
M  V30 17049 H 1719.63 -0.987265 -1.68045 0
M  V30 17050 H 1718.73 -0.408233 -3.09419 0
M  V30 17051 N 1719.03 1.48775 -0.519977 0
M  V30 17052 C 1719.96 2.32292 0.237213 0
M  V30 17053 C 1720.94 1.4146 0.944625 0
M  V30 17054 O 1722.13 1.70355 0.932349 0
M  V30 17055 C 1719.26 3.22426 1.29068 0
M  V30 17056 C 1718.21 4.22204 0.702011 0
M  V30 17057 C 1717.54 5.01403 1.85739 0
M  V30 17058 C 1718.84 5.21321 -0.319626 0
M  V30 17059 H 1720.53 2.95846 -0.459949 0
M  V30 17060 H 1718.08 1.42268 -0.222641 0
M  V30 17061 H 1720.03 3.79674 1.82826 0
M  V30 17062 H 1718.75 2.56853 2.01728 0
M  V30 17063 H 1717.41 3.66128 0.186027 0
M  V30 17064 H 1717.06 4.32262 2.57214 0
M  V30 17065 H 1716.76 5.68929 1.46949 0
M  V30 17066 H 1718.28 5.615 2.39895 0
M  V30 17067 H 1719.7 5.73151 0.130505 0
M  V30 17068 H 1718.1 5.96843 -0.624377 0
M  V30 17069 H 1719.17 4.69069 -1.22893 0
M  V30 17070 N 1720.51 0.254649 1.55529 0
M  V30 17071 C 1721.44 -0.674506 2.1905 0
M  V30 17072 C 1722.45 -1.13297 1.16909 0
M  V30 17073 O 1723.64 -1.0584 1.43736 0
M  V30 17074 C 1720.74 -1.92951 2.78609 0
M  V30 17075 C 1719.92 -1.62123 4.06245 0
M  V30 17076 C 1718.97 -2.72661 4.50047 0
M  V30 17077 O 1718 -2.39717 5.1626 0
M  V30 17078 N 1719.2 -4.02315 4.18477 0
M  V30 17079 H 1721.97 -0.130956 2.99414 0
M  V30 17080 H 1719.53 0.0749176 1.61727 0
M  V30 17081 H 1721.52 -2.66155 3.04866 0
M  V30 17082 H 1720.09 -2.38265 2.02358 0
M  V30 17083 H 1719.31 -0.723991 3.87495 0
M  V30 17084 H 1720.6 -1.39 4.89445 0
M  V30 17085 H 1720 -4.3191 3.65336 0
M  V30 17086 H 1718.55 -4.7196 4.49552 0
M  V30 17087 N 1721.99 -1.57589 -0.0183649 0
M  V30 17088 C 1723.23 -1.89757 -0.707008 0
M  V30 17089 C 1723.56 -0.853257 -1.74785 0
M  V30 17090 O 1722.82 0.144406 -1.95166 0
M  V30 17091 C 1723.12 -3.28677 -1.4038 0
M  V30 17092 C 1722.78 -4.48142 -0.497917 0
M  V30 17093 C 1721.44 -4.80558 -0.248444 0
M  V30 17094 C 1723.8 -5.21046 0.126883 0
M  V30 17095 C 1721.12 -5.8326 0.634428 0
M  V30 17096 C 1723.48 -6.24686 0.997521 0
M  V30 17097 C 1722.14 -6.5557 1.25635 0
M  V30 17098 H 1721.41 -0.694369 -0.258713 0
M  V30 17099 H 1724.06 -1.91471 0.0332176 0
M  V30 17100 H 1722.36 -3.23 -2.21761 0
M  V30 17101 H 1724.06 -3.50818 -1.94236 0
M  V30 17102 H 1720.65 -4.22803 -0.702519 0
M  V30 17103 H 1724.83 -4.96272 -0.0528705 0
M  V30 17104 H 1720.09 -6.05558 0.843157 0
M  V30 17105 H 1724.26 -6.80315 1.48811 0
M  V30 17106 H 1721.89 -7.34972 1.94218 0
M  V30 17107 N 1723.46 0.290824 -1.54893 0
M  V30 17108 C 1724.37 1.38137 -1.89619 0
M  V30 17109 C 1725.39 1.54959 -0.791432 0
M  V30 17110 O 1726.57 1.69428 -1.08885 0
M  V30 17111 C 1723.63 2.72353 -2.14534 0
M  V30 17112 C 1722.69 2.64429 -3.38195 0
M  V30 17113 C 1721.93 3.92244 -3.61912 0
M  V30 17114 O 1722.15 4.92088 -2.88454 0
M  V30 17115 O 1721.08 3.93523 -4.55438 0
M  V30 17116 H 1724.91 1.11688 -2.82417 0
M  V30 17117 H 1722.49 0.487789 -1.41213 0
M  V30 17118 H 1724.38 3.51745 -2.32064 0
M  V30 17119 H 1723.05 2.98624 -1.24921 0
M  V30 17120 H 1721.96 1.83474 -3.26018 0
M  V30 17121 H 1723.29 2.43109 -4.2797 0
M  V30 17122 N 1724.94 1.47523 0.554506 0
M  V30 17123 C 1725.89 1.60623 1.68235 0
M  V30 17124 C 1726.88 0.473445 1.6265 0
M  V30 17125 O 1728.09 0.651337 1.67802 0
M  V30 17126 H 1724.47 0.505539 0.556718 0
M  V30 17127 H 1726.44 2.55395 1.54323 0
M  V30 17128 C 1725.19 1.64022 3.06581 0
M  V30 17129 H 1724.51 2.50537 3.11562 0
M  V30 17130 H 1725.95 1.77237 3.85179 0
M  V30 17131 C 1724.41 0.374048 3.34817 0
M  V30 17132 O 1724.94 -0.523704 3.98272 0
M  V30 17133 N 1723.14 0.253244 2.89494 0
M  V30 17134 H 1722.69 0.984738 2.38035 0
M  V30 17135 H 1722.65 -0.592982 3.08757 0
M  V30 17136 N 1726.42 -0.801453 1.357 0
M  V30 17137 C 1727.67 -1.56051 1.30459 0
M  V30 17138 C 1728.02 -1.92034 -0.118612 0
M  V30 17139 O 1727.31 -1.58921 -1.07026 0
M  V30 17140 C 1727.51 -2.85531 2.14957 0
M  V30 17141 C 1727.34 -2.622 3.65351 0
M  V30 17142 C 1726.11 -2.57833 4.34569 0
M  V30 17143 C 1728.31 -2.32224 4.58886 0
M  V30 17144 N 1726.29 -2.26273 5.70678 0
M  V30 17145 C 1727.66 -2.10548 5.83155 0
M  V30 17146 C 1729.71 -2.1813 4.47575 0
M  V30 17147 C 1728.42 -1.76204 6.97384 0
M  V30 17148 C 1730.44 -1.85183 5.61659 0
M  V30 17149 C 1729.8 -1.64346 6.8496 0
M  V30 17150 H 1725.9 -0.572547 0.532648 0
M  V30 17151 H 1728.49 -0.937683 1.70633 0
M  V30 17152 H 1726.66 -3.45701 1.77047 0
M  V30 17153 H 1728.39 -3.51144 2.01197 0
M  V30 17154 H 1725.15 -2.72661 3.87238 0
M  V30 17155 H 1725.57 -2.13273 6.42529 0
M  V30 17156 H 1730.21 -2.32935 3.52847 0
M  V30 17157 H 1727.93 -1.60136 7.92075 0
M  V30 17158 H 1731.52 -1.74979 5.54864 0
M  V30 17159 H 1730.4 -1.39225 7.71742 0
M  V30 17160 N 1727.9 -1.19782 -1.02421 0
M  V30 17161 C 1729.31 -0.951034 -1.2817 0
M  V30 17162 C 1729.51 0.373883 -1.98001 0
M  V30 17163 O 1728.57 1.10427 -2.27073 0
M  V30 17164 C 1729.88 -2.12833 -2.12421 0
M  V30 17165 C 1731.43 -2.16847 -2.25713 0
M  V30 17166 C 1731.91 -3.34041 -3.13337 0
M  V30 17167 N 1733.4 -3.34007 -3.20926 0
M  V30 17168 C 1734.13 -4.21333 -3.88929 0
M  V30 17169 N 1733.63 -5.18823 -4.59123 0
M  V30 17170 N 1735.42 -4.09197 -3.85376 0
M  V30 17171 H 1727.57 -2.05017 -0.555122 0
M  V30 17172 H 1729.84 -0.896717 -0.307576 0
M  V30 17173 H 1729.54 -3.08742 -1.68437 0
M  V30 17174 H 1729.42 -2.10288 -3.13143 0
M  V30 17175 H 1731.8 -1.21506 -2.68924 0
M  V30 17176 H 1731.88 -2.23444 -1.24525 0
M  V30 17177 H 1731.53 -4.29665 -2.70833 0
M  V30 17178 H 1731.46 -3.24682 -4.14595 0
M  V30 17179 H 1733.95 -2.63441 -2.70938 0
M  V30 17180 H 1734.26 -5.81796 -5.08658 0
M  V30 17181 H 1732.61 -5.22767 -4.57973 0
M  V30 17182 H 1735.8 -3.32308 -3.2968 0
M  V30 17183 H 1735.97 -4.77465 -4.38099 0
M  V30 17184 N 1729.38 1.21606 -1.00248 0
M  V30 17185 C 1730.29 2.2757 -0.570004 0
M  V30 17186 C 1731.3 1.69669 0.385788 0
M  V30 17187 O 1732.48 1.99839 0.250246 0
M  V30 17188 C 1729.54 3.46558 0.0990566 0
M  V30 17189 C 1728.61 4.19741 -0.9009 0
M  V30 17190 C 1727.84 5.33048 -0.263673 0
M  V30 17191 O 1728.06 5.62599 0.940131 0
M  V30 17192 O 1727 5.93978 -0.973342 0
M  V30 17193 H 1730.82 2.66751 -1.45182 0
M  V30 17194 H 1728.41 1.27955 -0.771224 0
M  V30 17195 H 1730.29 4.18733 0.47339 0
M  V30 17196 H 1728.96 3.09283 0.955285 0
M  V30 17197 H 1727.87 3.49798 -1.32634 0
M  V30 17198 H 1729.2 4.60921 -1.72664 0
M  V30 17199 N 1730.86 0.776895 1.37121 0
M  V30 17200 C 1731.8 0.154521 2.32086 0
M  V30 17201 C 1732.8 -0.679155 1.5519 0
M  V30 17202 O 1734 -0.575641 1.70547 0
M  V30 17203 H 1730.38 0.0311849 0.751353 0
M  V30 17204 H 1732.35 0.971125 2.82156 0
M  V30 17205 C 1731.1 -0.706165 3.40454 0
M  V30 17206 H 1730.42 -0.0740341 3.99731 0
M  V30 17207 H 1731.86 -1.10853 4.09253 0
M  V30 17208 C 1730.32 -1.85901 2.80967 0
M  V30 17209 O 1730.85 -2.95482 2.72128 0
M  V30 17210 N 1729.06 -1.66122 2.38436 0
M  V30 17211 H 1728.6 -0.769915 2.45825 0
M  V30 17212 H 1728.56 -2.43422 1.9898 0
M  V30 17213 N 1732.33 -1.48497 0.527859 0
M  V30 17214 C 1733.27 -2.27566 -0.273157 0
M  V30 17215 C 1734.28 -1.35235 -0.906381 0
M  V30 17216 O 1735.47 -1.60303 -0.785182 0
M  V30 17217 C 1732.57 -3.08546 -1.40187 0
M  V30 17218 C 1731.74 -4.28641 -0.870962 0
M  V30 17219 C 1730.8 -4.91449 -1.88054 0
M  V30 17220 O 1729.83 -5.50727 -1.43833 0
M  V30 17221 N 1731.03 -4.83501 -3.21259 0
M  V30 17222 H 1733.79 -2.96951 0.404963 0
M  V30 17223 H 1731.35 -1.578 0.362057 0
M  V30 17224 H 1733.35 -3.47434 -2.07537 0
M  V30 17225 H 1731.92 -2.41596 -1.98369 0
M  V30 17226 H 1731.14 -3.94194 -0.0215331 0
M  V30 17227 H 1732.42 -5.06385 -0.495105 0
M  V30 17228 H 1731.82 -4.36487 -3.59855 0
M  V30 17229 H 1730.38 -5.26495 -3.84248 0
M  V30 17230 N 1733.81 -0.262893 -1.55392 0
M  V30 17231 C 1735.22 0.237224 -1.85187 0
M  V30 17232 C 1735.57 1.56383 -1.18486 0
M  V30 17233 O 1734.7 2.1126 -0.468849 0
M  V30 17234 C 1735.29 0.437206 -3.35967 0
M  V30 17235 C 1733.85 0.881568 -3.65931 0
M  V30 17236 C 1733 -0.0321489 -2.77281 0
M  V30 17237 H 1735.95 -0.485025 -1.51107 0
M  V30 17238 H 1735.97 1.27755 -3.58412 0
M  V30 17239 H 1735.48 -0.528474 -3.84485 0
M  V30 17240 H 1733.58 1.85915 -3.22903 0
M  V30 17241 H 1733.7 0.727355 -4.73547 0
M  V30 17242 H 1732.06 0.48204 -2.50097 0
M  V30 17243 H 1732.84 -0.99349 -3.2861 0
M  V30 17244 N 1735.29 1.57597 0.0100073 0
M  V30 17245 C 1736.57 1.81329 0.733415 0
M  V30 17246 C 1736.95 0.865495 1.92542 0
M  V30 17247 O 1736.29 -0.088073 2.2833 0
M  V30 17248 C 1736.5 3.29559 1.14856 0
M  V30 17249 C 1737.85 3.95039 1.55658 0
M  V30 17250 O 1738.88 3.33822 1.24262 0
M  V30 17251 O 1737.74 5.02858 2.13999 0
M  V30 17252 H 1734.83 0.746334 0.35625 0
M  V30 17253 H 1737.38 1.69694 -0.0146791 0
M  V30 17254 H 1736.15 3.9016 0.298467 0
M  V30 17255 H 1735.77 3.46156 1.95607 0
M  V30 17256 N 1736.77 -0.282606 1.55045 0
M  V30 17257 C 1737.72 -1.36902 1.88044 0
M  V30 17258 C 1738.71 -1.51603 0.755845 0
M  V30 17259 O 1739.92 -1.53501 0.940074 0
M  V30 17260 H 1736.29 -0.457666 0.596696 0
M  V30 17261 H 1738.26 -1.06317 2.78818 0
M  V30 17262 C 1737.01 -2.72426 2.16054 0
M  V30 17263 H 1736.33 -2.61903 3.02071 0
M  V30 17264 H 1737.77 -3.47409 2.43071 0
M  V30 17265 C 1736.23 -3.22784 0.964996 0
M  V30 17266 O 1736.76 -4.01228 0.194759 0
M  V30 17267 N 1734.97 -2.80341 0.765322 0
M  V30 17268 H 1734.52 -2.16665 1.39335 0
M  V30 17269 H 1734.47 -3.14383 -0.0330026 0
M  V30 17270 N 1738.25 -1.47815 -0.546675 0
M  V30 17271 C 1739.49 -1.5498 -1.30336 0
M  V30 17272 C 1739.82 -0.216533 -1.93291 0
M  V30 17273 O 1739.08 0.791622 -1.78974 0
M  V30 17274 C 1739.37 -2.6242 -2.42632 0
M  V30 17275 C 1739.04 -4.05375 -1.97439 0
M  V30 17276 C 1737.7 -4.44287 -1.84831 0
M  V30 17277 C 1740.05 -4.9503 -1.6308 0
M  V30 17278 C 1737.38 -5.70678 -1.36174 0
M  V30 17279 C 1739.73 -6.21894 -1.1589 0
M  V30 17280 C 1738.4 -6.59678 -1.01886 0
M  V30 17281 H 1737.67 -0.567112 -0.476933 0
M  V30 17282 H 1740.32 -1.81461 -0.611907 0
M  V30 17283 H 1738.62 -2.29736 -3.17378 0
M  V30 17284 H 1740.32 -2.65184 -3.00796 0
M  V30 17285 H 1736.91 -3.74635 -2.08199 0
M  V30 17286 H 1741.09 -4.65657 -1.71689 0
M  V30 17287 H 1736.35 -5.98693 -1.24004 0
M  V30 17288 H 1740.52 -6.9077 -0.883691 0
M  V30 17289 H 1738.15 -7.57504 -0.639614 0
M  V30 17290 N 1739.72 0.794246 -1.36123 0
M  V30 17291 C 1740.97 1.55191 -1.30084 0
M  V30 17292 C 1741.3 1.94122 0.121259 0
M  V30 17293 O 1740.55 1.62573 1.08942 0
M  V30 17294 C 1740.85 2.84387 -2.16469 0
M  V30 17295 C 1740.52 2.64617 -3.65087 0
M  V30 17296 C 1739.18 2.58934 -4.05594 0
M  V30 17297 C 1741.53 2.46293 -4.59336 0
M  V30 17298 C 1738.86 2.32885 -5.38499 0
M  V30 17299 C 1741.21 2.21771 -5.92453 0
M  V30 17300 C 1739.88 2.14518 -6.32091 0
M  V30 17301 H 1739.15 0.567885 -0.476013 0
M  V30 17302 H 1741.79 0.916723 -1.68132 0
M  V30 17303 H 1740.1 3.52348 -1.71342 0
M  V30 17304 H 1741.8 3.42152 -2.09124 0
M  V30 17305 H 1738.39 2.69894 -3.32949 0
M  V30 17306 H 1742.57 2.49688 -4.28917 0
M  V30 17307 H 1737.83 2.25748 -5.68197 0
M  V30 17308 H 1742 2.06586 -6.65053 0
M  V30 17309 H 1739.63 1.94096 -7.35004 0
M  V30 17310 N 1741.2 1.20323 1.01785 0
M  V30 17311 C 1742.16 0.9527 2.08462 0
M  V30 17312 C 1743.16 -0.0712564 1.60642 0
M  V30 17313 O 1744.35 0.164672 1.7342 0
M  V30 17314 C 1741.49 0.434052 3.38125 0
M  V30 17315 H 1742.68 1.89895 2.32121 0
M  V30 17316 H 1740.23 1.01843 1.18565 0
M  V30 17317 H 1740.97 -0.51772 3.20141 0
M  V30 17318 H 1740.75 1.17248 3.74159 0
M  V30 17319 H 1742.24 0.278215 4.16672 0
M  V30 17320 N 1742.68 -1.21073 1.00892 0
M  V30 17321 C 1743.93 -1.89866 0.69248 0
M  V30 17322 C 1744.25 -1.7874 -0.779562 0
M  V30 17323 O 1743.52 -1.18482 -1.56009 0
M  V30 17324 H 1742.1 -0.702799 0.253145 0
M  V30 17325 H 1744.76 -1.47075 1.27887 0
M  V30 17326 H 1743.86 -2.96673 0.969098 0
M  V30 17327 N 1744.16 -0.784156 -1.36707 0
M  V30 17328 C 1745.41 -0.353434 -1.98986 0
M  V30 17329 C 1745.73 1.07714 -1.62551 0
M  V30 17330 O 1745 1.7416 -0.896938 0
M  V30 17331 H 1743.58 -0.127693 -0.736005 0
M  V30 17332 H 1746.24 -1.00503 -1.66988 0
M  V30 17333 H 1745.34 -0.441028 -3.08968 0
M  V30 17334 N 1745.64 1.48215 -0.535727 0
M  V30 17335 C 1746.55 2.33494 0.227577 0
M  V30 17336 C 1747.56 1.4685 0.933327 0
M  V30 17337 O 1748.74 1.7982 0.907008 0
M  V30 17338 C 1745.8 3.23092 1.25747 0
M  V30 17339 C 1744.86 4.25613 0.561454 0
M  V30 17340 C 1744.1 5.1093 1.54228 0
M  V30 17341 O 1744.32 4.98325 2.77539 0
M  V30 17342 O 1743.25 5.92158 1.07852 0
M  V30 17343 H 1747.08 3.0002 -0.471375 0
M  V30 17344 H 1744.67 1.46427 -0.296579 0
M  V30 17345 H 1746.55 3.78498 1.8525 0
M  V30 17346 H 1745.22 2.5922 1.93872 0
M  V30 17347 H 1744.13 3.74026 -0.0742194 0
M  V30 17348 H 1745.46 4.92138 -0.0779649 0
M  V30 17349 N 1747.11 0.27113 1.5525 0
M  V30 17350 C 1748.39 -0.398374 1.915 0
M  V30 17351 C 1748.77 -1.74026 1.19491 0
M  V30 17352 O 1748.12 -2.26242 0.320425 0
M  V30 17353 C 1748.33 -0.542589 3.44756 0
M  V30 17354 C 1749.68 -0.827326 4.16462 0
M  V30 17355 O 1750.7 -0.627548 3.50628 0
M  V30 17356 O 1749.56 -1.20917 5.32955 0
M  V30 17357 H 1746.65 -0.217479 0.797892 0
M  V30 17358 H 1749.2 0.316988 1.66713 0
M  V30 17359 H 1747.97 0.401926 3.8923 0
M  V30 17360 H 1747.6 -1.30757 3.75484 0
M  V30 17361 N 1748.59 -1.576 -0.00164943 0
M  V30 17362 C 1749.83 -1.92353 -0.691364 0
M  V30 17363 C 1750.2 -0.872536 -1.71029 0
M  V30 17364 O 1751.4 -1.10526 -2.45026 0
M  V30 17365 C 1749.67 -3.32163 -1.31918 0
M  V30 17366 S 1751.23 -3.88798 -2.03425 0
M  V30 17367 H 1748.05 -0.673314 -0.228407 0
M  V30 17368 H 1750.65 -1.95424 0.0546418 0
M  V30 17369 H 1749.35 -4.06496 -0.564746 0
M  V30 17370 H 1748.88 -3.32462 -2.10316 0
M  V30 17371 H 1750.9 -3.6974 -3.30918 0
M  V30 17372 N 1750.07 0.274379 -1.55193 0
M  V30 17373 C 1751.32 1.00766 -1.75995 0
M  V30 17374 C 1751.65 1.8599 -0.558679 0
M  V30 17375 O 1750.92 1.8937 0.443784 0
M  V30 17376 C 1751.21 1.89137 -3.0643 0
M  V30 17377 C 1751.06 1.06914 -4.36909 0
M  V30 17378 C 1752.38 2.87869 -3.32896 0
M  V30 17379 H 1749.5 0.364915 -0.640317 0
M  V30 17380 H 1752.14 0.280156 -1.87923 0
M  V30 17381 H 1750.29 2.51166 -2.96391 0
M  V30 17382 H 1751.96 0.469666 -4.58903 0
M  V30 17383 H 1750.21 0.372566 -4.32197 0
M  V30 17384 H 1750.88 1.72063 -5.24498 0
M  V30 17385 H 1753.35 2.35974 -3.42718 0
M  V30 17386 H 1752.23 3.46845 -4.25429 0
M  V30 17387 H 1752.49 3.62921 -2.52469 0
M  V30 17388 N 1751.55 1.48103 0.538828 0
M  V30 17389 C 1752.79 1.559 1.29704 0
M  V30 17390 C 1753.13 0.228359 1.92853 0
M  V30 17391 O 1752.4 -0.764825 1.78831 0
M  V30 17392 C 1752.69 2.69072 2.39316 0
M  V30 17393 C 1752.54 4.11812 1.80916 0
M  V30 17394 C 1753.86 2.78051 3.41138 0
M  V30 17395 H 1750.98 0.5675 0.470226 0
M  V30 17396 H 1753.62 1.80239 0.601163 0
M  V30 17397 H 1751.77 2.4845 2.98672 0
M  V30 17398 H 1753.44 4.4385 1.25679 0
M  V30 17399 H 1751.68 4.19227 1.11494 0
M  V30 17400 H 1752.35 4.86805 2.6024 0
M  V30 17401 H 1754.83 2.96707 2.91726 0
M  V30 17402 H 1753.71 3.58982 4.15239 0
M  V30 17403 H 1753.97 1.85849 4.01139 0
M  V30 17404 N 1753.03 -0.787016 1.36542 0
M  V30 17405 C 1753.96 -1.9064 1.25425 0
M  V30 17406 C 1754.94 -1.62014 0.137912 0
M  V30 17407 O 1756.12 -1.85942 0.309465 0
M  V30 17408 C 1753.25 -3.25517 0.935752 0
M  V30 17409 C 1752.29 -3.73072 2.06687 0
M  V30 17410 S 1753.13 -3.88548 3.68498 0
M  V30 17411 C 1754.28 -5.26297 3.38766 0
M  V30 17412 H 1754.52 -1.99779 2.20172 0
M  V30 17413 H 1752.05 -0.946503 1.21986 0
M  V30 17414 H 1754.01 -4.03426 0.758807 0
M  V30 17415 H 1752.67 -3.14099 0.00602668 0
M  V30 17416 H 1751.86 -4.70813 1.79864 0
M  V30 17417 H 1751.46 -3.0222 2.20316 0
M  V30 17418 H 1753.76 -6.10958 2.92808 0
M  V30 17419 H 1754.7 -5.58124 4.35779 0
M  V30 17420 H 1755.11 -4.93511 2.74057 0
M  V30 17421 N 1754.5 -1.20861 -1.01145 0
M  V30 17422 C 1755.75 -1.02343 -1.75082 0
M  V30 17423 C 1756.08 0.44278 -1.89085 0
M  V30 17424 O 1755.36 1.32867 -1.42045 0
M  V30 17425 C 1755.64 -1.71368 -3.1671 0
M  V30 17426 C 1755.49 -3.25466 -3.1047 0
M  V30 17427 C 1756.81 -1.45097 -4.15494 0
M  V30 17428 H 1753.93 -0.373198 -0.635525 0
M  V30 17429 H 1756.57 -1.48947 -1.17961 0
M  V30 17430 H 1754.72 -1.31746 -3.6548 0
M  V30 17431 H 1756.4 -3.74415 -2.69464 0
M  V30 17432 H 1754.64 -3.56104 -2.47735 0
M  V30 17433 H 1755.31 -3.68924 -4.10608 0
M  V30 17434 H 1757.79 -1.7948 -3.75401 0
M  V30 17435 H 1756.66 -1.95917 -5.12745 0
M  V30 17436 H 1756.92 -0.379628 -4.40467 0
M  V30 17437 N 1755.98 1.20536 -1.01532 0
M  V30 17438 C 1756.95 2.21495 -0.589298 0
M  V30 17439 C 1757.95 1.57167 0.339871 0
M  V30 17440 O 1759.14 1.73724 0.128736 0
M  V30 17441 C 1756.27 3.40614 0.139623 0
M  V30 17442 H 1757.46 2.607 -1.48241 0
M  V30 17443 H 1755.01 1.33977 -0.804977 0
M  V30 17444 H 1755.75 3.0691 1.04771 0
M  V30 17445 H 1755.53 3.88531 -0.52785 0
M  V30 17446 H 1757.02 4.15431 0.425083 0
M  V30 17447 N 1757.46 0.791395 1.36289 0
M  V30 17448 C 1758.41 0.164218 2.27408 0
M  V30 17449 C 1759.39 -0.653018 1.47053 0
M  V30 17450 O 1760.59 -0.512767 1.6941 0
M  V30 17451 C 1757.72 -0.698551 3.36118 0
M  V30 17452 C 1756.8 0.127583 4.23908 0
M  V30 17453 N 1757.19 1.18307 4.91769 0
M  V30 17454 C 1755.49 -0.0932621 4.45902 0
M  V30 17455 C 1756.19 1.68616 5.56726 0
M  V30 17456 N 1755.17 0.995058 5.34415 0
M  V30 17457 H 1758.97 0.972045 2.7736 0
M  V30 17458 H 1756.48 0.63105 1.49638 0
M  V30 17459 H 1758.48 -1.16379 4.00327 0
M  V30 17460 H 1757.14 -1.5049 2.8772 0
M  V30 17461 H 1758.15 1.56553 4.93672 0
M  V30 17462 H 1754.83 -0.869962 4.08336 0
M  V30 17463 H 1756.22 2.56745 6.20912 0
M  V30 17464 N 1758.94 -1.47929 0.54358 0
M  V30 17465 C 1759.85 -2.33611 -0.215191 0
M  V30 17466 C 1760.87 -1.47343 -0.925526 0
M  V30 17467 O 1762.04 -1.80299 -0.897459 0
M  V30 17468 C 1759.11 -3.23755 -1.24031 0
M  V30 17469 C 1758.17 -4.25904 -0.538874 0
M  V30 17470 C 1757.4 -5.11741 -1.51516 0
M  V30 17471 O 1757.62 -4.9979 -2.74893 0
M  V30 17472 O 1756.56 -5.92722 -1.0471 0
M  V30 17473 H 1760.38 -2.99765 0.487279 0
M  V30 17474 H 1757.97 -1.46267 0.30434 0
M  V30 17475 H 1759.85 -3.79475 -1.8324 0
M  V30 17476 H 1758.53 -2.60245 -1.92495 0
M  V30 17477 H 1757.43 -3.73982 0.0940539 0
M  V30 17478 H 1758.77 -4.9209 0.104063 0
M  V30 17479 N 1760.42 -0.27936 -1.55104 0
M  V30 17480 C 1761.64 0.342295 -2.04556 0
M  V30 17481 C 1762.07 1.48367 -1.15624 0
M  V30 17482 O 1761.43 1.8063 -0.15572 0
M  V30 17483 C 1761.47 0.796785 -3.51687 0
M  V30 17484 O 1760.58 1.90364 -3.65835 0
M  V30 17485 H 1759.92 0.07012 -0.660287 0
M  V30 17486 H 1762.45 -0.414896 -2.00349 0
M  V30 17487 H 1762.46 1.09141 -3.93131 0
M  V30 17488 H 1761.13 -0.0382637 -4.15882 0
M  V30 17489 H 1759.71 1.61123 -3.36294 0
M  V30 17490 N 1761.9 1.57599 -0.0067085 0
M  V30 17491 C 1763.14 1.90481 0.675393 0
M  V30 17492 C 1763.46 0.881481 1.73939 0
M  V30 17493 O 1762.73 -0.0801928 1.95736 0
M  V30 17494 H 1761.31 0.703048 0.252452 0
M  V30 17495 H 1763.98 1.94838 -0.04922 0
M  V30 17496 H 1763.07 2.90441 1.14239 0
M  V30 17497 N 1763.37 -0.266145 1.55336 0
M  V30 17498 C 1764.79 -0.613693 1.47329 0
M  V30 17499 C 1764.99 -1.89207 0.693038 0
M  V30 17500 O 1764.05 -2.51586 0.214642 0
M  V30 17501 C 1765.36 -0.734287 2.91597 0
M  V30 17502 C 1766.91 -0.82789 3.01853 0
M  V30 17503 C 1767.38 -0.980205 4.47388 0
M  V30 17504 N 1768.87 -1.04556 4.51245 0
M  V30 17505 C 1769.61 -1.18233 5.61078 0
M  V30 17506 N 1769.1 -1.28587 6.80762 0
M  V30 17507 N 1770.9 -1.21398 5.48834 0
M  V30 17508 H 1763.05 0.573316 2.04516 0
M  V30 17509 H 1765.31 0.195128 0.927701 0
M  V30 17510 H 1765.02 0.134714 3.51442 0
M  V30 17511 H 1764.89 -1.6124 3.41001 0
M  V30 17512 H 1767.28 -1.68735 2.421 0
M  V30 17513 H 1767.36 0.0749719 2.5569 0
M  V30 17514 H 1767 -0.125373 5.07745 0
M  V30 17515 H 1766.93 -1.89782 4.91213 0
M  V30 17516 H 1769.42 -0.977667 3.65034 0
M  V30 17517 H 1769.74 -1.38876 7.60219 0
M  V30 17518 H 1768.08 -1.25579 6.8356 0
M  V30 17519 H 1771.27 -1.12944 4.5427 0
M  V30 17520 H 1771.45 -1.31713 6.34473 0
M  V30 17521 N 1764.85 -1.48386 -0.530967 0
M  V30 17522 C 1766.1 -1.57564 -1.28628 0
M  V30 17523 C 1766.45 -0.245916 -1.90822 0
M  V30 17524 O 1765.75 0.751124 -1.76263 0
M  V30 17525 C 1765.94 -2.64979 -2.39835 0
M  V30 17526 C 1765.77 -4.08267 -1.88541 0
M  V30 17527 C 1764.54 -4.75418 -1.71191 0
M  V30 17528 C 1766.74 -4.94465 -1.41453 0
M  V30 17529 N 1764.72 -6.03125 -1.14512 0
M  V30 17530 C 1766.09 -6.1241 -0.967144 0
M  V30 17531 C 1768.14 -4.80698 -1.29747 0
M  V30 17532 C 1766.85 -7.18106 -0.414308 0
M  V30 17533 C 1768.87 -5.86514 -0.758626 0
M  V30 17534 C 1768.24 -7.03667 -0.321311 0
M  V30 17535 H 1764.33 -0.631125 -0.461741 0
M  V30 17536 H 1766.92 -1.85262 -0.598825 0
M  V30 17537 H 1765.09 -2.39105 -3.06078 0
M  V30 17538 H 1766.82 -2.63848 -3.06865 0
M  V30 17539 H 1763.58 -4.31735 -1.94684 0
M  V30 17540 H 1764 -6.71232 -0.881857 0
M  V30 17541 H 1768.64 -3.90465 -1.62162 0
M  V30 17542 H 1766.36 -8.08063 -0.0778242 0
M  V30 17543 H 1769.95 -5.77915 -0.671241 0
M  V30 17544 H 1768.83 -7.84149 0.0891564 0
M  V30 17545 N 1766.33 0.779763 -1.36958 0
M  V30 17546 C 1767.28 1.91417 -1.32145 0
M  V30 17547 C 1768.27 1.68074 -0.211572 0
M  V30 17548 O 1769.48 1.75962 -0.379139 0
M  V30 17549 H 1765.85 0.62934 -0.411624 0
M  V30 17550 H 1767.82 1.92594 -2.27926 0
M  V30 17551 C 1766.57 3.28574 -1.13729 0
M  V30 17552 H 1765.9 3.47109 -1.98383 0
M  V30 17553 H 1767.34 4.08272 -1.1441 0
M  V30 17554 C 1765.79 3.36531 0.157538 0
M  V30 17555 O 1766.32 3.85067 1.14397 0
M  V30 17556 N 1764.53 2.89872 0.205509 0
M  V30 17557 H 1764.08 2.50566 -0.597854 0
M  V30 17558 H 1764.04 2.95578 1.07151 0
M  V30 17559 N 1767.81 1.21396 1.00503 0
M  V30 17560 C 1769.08 0.93995 1.71535 0
M  V30 17561 C 1769.46 -0.548247 2.03856 0
M  V30 17562 O 1768.81 -1.51308 1.71226 0
M  V30 17563 C 1769.02 1.82501 2.9748 0
M  V30 17564 C 1770.37 2.07383 3.7051 0
M  V30 17565 O 1771.39 1.79849 3.07462 0
M  V30 17566 O 1770.25 2.5395 4.83913 0
M  V30 17567 H 1767.35 0.35246 0.748132 0
M  V30 17568 H 1769.89 1.32325 1.06246 0
M  V30 17569 H 1768.67 2.83219 2.70005 0
M  V30 17570 H 1768.29 1.44252 3.70509 0
M  V30 17571 N 1769.29 -1.19996 1.0217 0
M  V30 17572 C 1770.53 -1.89776 0.715047 0
M  V30 17573 C 1770.86 -1.78971 -0.753862 0
M  V30 17574 O 1770.14 -1.17729 -1.54823 0
M  V30 17575 C 1770.42 -3.4098 1.15779 0
M  V30 17576 C 1770.28 -3.60693 2.68739 0
M  V30 17577 C 1771.59 -4.33953 0.733008 0
M  V30 17578 H 1768.71 -0.689148 0.261236 0
M  V30 17579 H 1771.36 -1.41287 1.27035 0
M  V30 17580 H 1769.51 -3.82407 0.68534 0
M  V30 17581 H 1771.18 -3.28484 3.23876 0
M  V30 17582 H 1769.42 -3.0399 3.09472 0
M  V30 17583 H 1770.09 -4.66704 2.94773 0
M  V30 17584 H 1772.57 -4.002 1.13925 0
M  V30 17585 H 1771.44 -5.38355 1.07077 0
M  V30 17586 H 1771.7 -4.4059 -0.365047 0
M  V30 17587 N 1770.76 -0.798611 -1.35867 0
M  V30 17588 C 1772.17 -0.437243 -1.81508 0
M  V30 17589 C 1772.53 1.03987 -1.66376 0
M  V30 17590 O 1771.65 1.80751 -1.18988 0
M  V30 17591 C 1772.25 -0.786865 -3.29536 0
M  V30 17592 C 1770.8 -0.478204 -3.7335 0
M  V30 17593 C 1769.95 -1.01668 -2.5799 0
M  V30 17594 H 1772.9 -0.990957 -1.23959 0
M  V30 17595 H 1772.92 -0.0813864 -3.80413 0
M  V30 17596 H 1772.44 -1.86198 -3.40517 0
M  V30 17597 H 1770.54 0.588503 -3.67923 0
M  V30 17598 H 1770.65 -1.00525 -4.68435 0
M  V30 17599 H 1769.01 -0.439417 -2.50881 0
M  V30 17600 H 1769.8 -2.09775 -2.71753 0
M  V30 17601 N 1772.24 1.47639 -0.551417 0
M  V30 17602 C 1773.48 2.04382 -0.0274854 0
M  V30 17603 C 1773.85 1.41714 1.29542 0
M  V30 17604 O 1775.05 1.8947 1.90669 0
M  V30 17605 C 1773.32 3.57332 0.0698769 0
M  V30 17606 S 1774.88 4.35455 0.540771 0
M  V30 17607 H 1771.69 0.710648 -0.0223553 0
M  V30 17608 H 1774.3 1.81083 -0.73684 0
M  V30 17609 H 1773 4.00468 -0.897406 0
M  V30 17610 H 1772.53 3.85118 0.802962 0
M  V30 17611 H 1774.55 4.62342 1.80152 0
M  V30 17612 N 1773.72 0.287581 1.54954 0
M  V30 17613 C 1774.67 -0.610315 2.2445 0
M  V30 17614 C 1775.66 -1.14786 1.24582 0
M  V30 17615 O 1776.87 -1.10005 1.42474 0
M  V30 17616 H 1773.24 -0.215394 0.720493 0
M  V30 17617 H 1775.21 -0.00148121 2.984 0
M  V30 17618 C 1773.96 -1.77719 2.9885 0
M  V30 17619 H 1773.29 -1.37277 3.75493 0
M  V30 17620 H 1774.73 -2.38181 3.50779 0
M  V30 17621 C 1773.19 -2.67321 2.05039 0
M  V30 17622 O 1773.72 -3.68038 1.60968 0
M  V30 17623 N 1771.92 -2.34761 1.71276 0
M  V30 17624 H 1771.47 -1.52905 2.07311 0
M  V30 17625 H 1771.43 -2.94981 1.08781 0
M  V30 17626 N 1775.2 -1.57593 0.0150662 0
M  V30 17627 C 1776.43 -1.95221 -0.676193 0
M  V30 17628 C 1776.84 -0.889349 -1.66995 0
M  V30 17629 O 1776.18 0.138825 -1.83175 0
M  V30 17630 C 1776.24 -3.28921 -1.45092 0
M  V30 17631 C 1775.91 -4.52815 -0.61707 0
M  V30 17632 C 1776.9 -5.19801 0.101686 0
M  V30 17633 C 1774.59 -4.99184 -0.558606 0
M  V30 17634 C 1776.58 -6.31466 0.86773 0
M  V30 17635 C 1774.27 -6.10735 0.211154 0
M  V30 17636 C 1775.27 -6.76734 0.923041 0
M  V30 17637 O 1774.95 -7.86145 1.68021 0
M  V30 17638 H 1774.69 -0.648074 -0.192293 0
M  V30 17639 H 1777.24 -2.05291 0.0668663 0
M  V30 17640 H 1775.47 -3.15301 -2.2388 0
M  V30 17641 H 1777.16 -3.51552 -2.02894 0
M  V30 17642 H 1777.93 -4.84955 0.0657637 0
M  V30 17643 H 1773.8 -4.47629 -1.10226 0
M  V30 17644 H 1777.35 -6.82913 1.42391 0
M  V30 17645 H 1773.25 -6.4502 0.248843 0
M  V30 17646 H 1774.01 -8.02739 1.5985 0
M  V30 17647 N 1776.68 0.257904 -1.55475 0
M  V30 17648 C 1777.62 1.33893 -1.90198 0
M  V30 17649 C 1778.62 1.50381 -0.779868 0
M  V30 17650 O 1779.82 1.51986 -0.964376 0
M  V30 17651 H 1776.2 0.448115 -0.603901 0
M  V30 17652 H 1778.17 1.01868 -2.80474 0
M  V30 17653 C 1776.92 2.68954 -2.20361 0
M  V30 17654 H 1776.24 2.57064 -3.062 0
M  V30 17655 H 1777.68 3.43498 -2.48567 0
M  V30 17656 C 1776.14 3.21208 -1.01623 0
M  V30 17657 O 1776.67 4.00867 -0.258567 0
M  V30 17658 N 1774.88 2.79088 -0.809825 0
M  V30 17659 H 1774.42 2.1442 -1.42764 0
M  V30 17660 H 1774.38 3.14395 -0.0170171 0
M  V30 17661 N 1778.15 1.48666 0.52309 0
M  V30 17662 C 1779.08 1.666 1.63605 0
M  V30 17663 C 1780.07 0.514803 1.62123 0
M  V30 17664 O 1781.25 0.748138 1.79211 0
M  V30 17665 C 1778.38 1.71199 3.02172 0
M  V30 17666 C 1777.33 2.85888 3.18515 0
M  V30 17667 C 1776.66 2.75582 4.58213 0
M  V30 17668 C 1777.96 4.27104 3.00631 0
M  V30 17669 H 1779.65 2.59776 1.48851 0
M  V30 17670 H 1777.2 1.25014 0.714667 0
M  V30 17671 H 1779.15 1.82333 3.79911 0
M  V30 17672 H 1777.88 0.746066 3.17964 0
M  V30 17673 H 1776.54 2.7432 2.43195 0
M  V30 17674 H 1776.18 1.76944 4.7085 0
M  V30 17675 H 1775.88 3.52545 4.70091 0
M  V30 17676 H 1777.41 2.88693 5.38041 0
M  V30 17677 H 1778.82 4.3947 3.68157 0
M  V30 17678 H 1777.22 5.05119 3.23999 0
M  V30 17679 H 1778.29 4.43087 1.96982 0
M  V30 17680 N 1779.63 -0.772489 1.37369 0
M  V30 17681 C 1781.04 -1.34873 1.29098 0
M  V30 17682 C 1781.39 -1.96103 -0.0617433 0
M  V30 17683 O 1780.52 -1.93764 -0.963562 0
M  V30 17684 C 1781.11 -2.45218 2.33781 0
M  V30 17685 C 1779.67 -2.98612 2.29146 0
M  V30 17686 C 1778.82 -1.71823 2.17651 0
M  V30 17687 H 1781.77 -0.572805 1.48002 0
M  V30 17688 H 1781.79 -3.24679 1.98404 0
M  V30 17689 H 1781.3 -2.00624 3.32222 0
M  V30 17690 H 1779.41 -3.47583 1.34225 0
M  V30 17691 H 1779.52 -3.54276 3.22529 0
M  V30 17692 H 1777.88 -1.94719 1.64185 0
M  V30 17693 H 1778.67 -1.29334 3.18006 0
M  V30 17694 N 1781.11 -1.21927 -0.998575 0
M  V30 17695 C 1782.34 -1.06501 -1.77034 0
M  V30 17696 C 1782.75 0.387776 -1.85184 0
M  V30 17697 O 1782.09 1.28067 -1.31699 0
M  V30 17698 C 1782.15 -1.59465 -3.22198 0
M  V30 17699 C 1781.82 -3.08008 -3.37609 0
M  V30 17700 C 1782.81 -4.05495 -3.25377 0
M  V30 17701 C 1780.5 -3.47347 -3.62843 0
M  V30 17702 C 1782.49 -5.40306 -3.38154 0
M  V30 17703 C 1780.18 -4.82309 -3.75262 0
M  V30 17704 C 1781.18 -5.78597 -3.62924 0
M  V30 17705 O 1780.87 -7.1111 -3.74938 0
M  V30 17706 H 1780.6 -0.374178 -0.562998 0
M  V30 17707 H 1783.15 -1.61859 -1.26455 0
M  V30 17708 H 1781.38 -0.98509 -3.73942 0
M  V30 17709 H 1783.07 -1.39785 -3.81071 0
M  V30 17710 H 1783.84 -3.76446 -3.05799 0
M  V30 17711 H 1779.72 -2.72928 -3.71526 0
M  V30 17712 H 1783.26 -6.15445 -3.28441 0
M  V30 17713 H 1779.16 -5.1104 -3.94345 0
M  V30 17714 H 1779.93 -7.18609 -3.91846 0
M  V30 17715 N 1782.59 1.19452 -1.02805 0
M  V30 17716 C 1783.83 1.89394 -0.725101 0
M  V30 17717 C 1784.17 1.79368 0.744361 0
M  V30 17718 O 1783.44 1.18548 1.54196 0
M  V30 17719 C 1783.73 3.40361 -1.17586 0
M  V30 17720 C 1783.58 3.59263 -2.70648 0
M  V30 17721 C 1784.9 4.33558 -0.756011 0
M  V30 17722 H 1782.02 0.687753 -0.264887 0
M  V30 17723 H 1784.66 1.40611 -1.27783 0
M  V30 17724 H 1782.81 3.82038 -0.70561 0
M  V30 17725 H 1784.48 3.26762 -3.25614 0
M  V30 17726 H 1782.72 3.02344 -3.1108 0
M  V30 17727 H 1783.39 4.65135 -2.97244 0
M  V30 17728 H 1785.87 3.9959 -1.16046 0
M  V30 17729 H 1784.75 5.37779 -1.09931 0
M  V30 17730 H 1785.01 4.40778 0.341677 0
M  V30 17731 N 1784.07 0.805805 1.35442 0
M  V30 17732 C 1785.31 0.391434 2.00617 0
M  V30 17733 C 1785.67 -1.022 1.6254 0
M  V30 17734 O 1786.87 -1.53834 2.20428 0
M  V30 17735 C 1785.14 0.568324 3.52852 0
M  V30 17736 S 1786.7 0.24426 4.3812 0
M  V30 17737 H 1783.52 0.148698 0.695277 0
M  V30 17738 H 1786.12 1.04788 1.65044 0
M  V30 17739 H 1784.83 1.59702 3.78052 0
M  V30 17740 H 1784.36 -0.103475 3.93264 0
M  V30 17741 H 1786.37 -0.948351 4.87053 0
M  V30 17742 N 1785.54 -1.47344 0.559239 0
M  V30 17743 C 1786.49 -2.30039 -0.187317 0
M  V30 17744 C 1787.46 -1.39186 -0.906443 0
M  V30 17745 O 1788.65 -1.68147 -0.901739 0
M  V30 17746 C 1785.79 -3.2319 -1.21004 0
M  V30 17747 C 1784.9 -4.29134 -0.496776 0
M  V30 17748 C 1784.03 -5.09435 -1.50497 0
M  V30 17749 C 1783.07 -6.07151 -0.776794 0
M  V30 17750 N 1782.21 -6.80404 -1.73192 0
M  V30 17751 H 1787.05 -2.93357 0.523978 0
M  V30 17752 H 1784.59 -1.44597 0.270225 0
M  V30 17753 H 1786.55 -3.75621 -1.81561 0
M  V30 17754 H 1785.18 -2.61732 -1.88935 0
M  V30 17755 H 1784.23 -3.79744 0.223359 0
M  V30 17756 H 1785.54 -4.98746 0.0735731 0
M  V30 17757 H 1784.69 -5.66026 -2.18402 0
M  V30 17758 H 1783.43 -4.3973 -2.10924 0
M  V30 17759 H 1782.44 -5.49736 -0.0838382 0
M  V30 17760 H 1783.66 -6.78866 -0.178239 0
M  V30 17761 H 1781.61 -6.13427 -2.32472 0
M  V30 17762 H 1781.53 -7.46193 -1.21377 0
M  V30 17763 H 1782.79 -7.41567 -2.40204 0
M  V30 17764 N 1787.02 -0.295795 -1.54799 0
M  V30 17765 C 1787.97 0.582614 -2.23325 0
M  V30 17766 C 1788.94 1.13365 -1.21398 0
M  V30 17767 O 1790.12 1.17914 -1.50003 0
M  V30 17768 C 1787.26 1.75112 -2.97371 0
M  V30 17769 C 1786.38 1.23197 -4.14061 0
M  V30 17770 C 1785.51 2.36393 -4.75701 0
M  V30 17771 C 1784.55 1.81585 -5.84545 0
M  V30 17772 N 1783.69 2.88334 -6.40162 0
M  V30 17773 H 1788.53 -0.00836451 -2.97999 0
M  V30 17774 H 1786.07 -0.0158966 -1.47091 0
M  V30 17775 H 1788.02 2.4383 -3.38531 0
M  V30 17776 H 1786.65 2.31381 -2.25084 0
M  V30 17777 H 1785.71 0.437226 -3.77879 0
M  V30 17778 H 1787.02 0.790706 -4.92493 0
M  V30 17779 H 1786.17 3.13067 -5.19687 0
M  V30 17780 H 1784.91 2.83844 -3.9659 0
M  V30 17781 H 1783.92 1.03399 -5.3999 0
M  V30 17782 H 1785.14 1.35045 -6.65537 0
M  V30 17783 H 1783.09 3.35129 -5.63937 0
M  V30 17784 H 1783 2.48687 -7.13926 0
M  V30 17785 H 1784.27 3.64921 -6.88805 0
M  V30 17786 N 1788.5 1.57583 -0.0234236 0
M  V30 17787 C 1789.75 1.91186 0.655152 0
M  V30 17788 C 1790.07 0.89988 1.72995 0
M  V30 17789 O 1789.34 -0.0594278 1.9581 0
M  V30 17790 H 1787.92 0.705686 0.244982 0
M  V30 17791 H 1790.58 1.94775 -0.0698824 0
M  V30 17792 H 1789.68 2.91636 1.11152 0
M  V30 17793 N 1789.98 -0.249655 1.5561 0
M  V30 17794 C 1791.21 -0.995707 1.81365 0
M  V30 17795 C 1791.62 -1.79054 0.598767 0
M  V30 17796 O 1790.98 -1.773 -0.432538 0
M  V30 17797 C 1791.03 -1.93577 3.05303 0
M  V30 17798 O 1790.75 -1.17311 4.22102 0
M  V30 17799 C 1792.25 -2.79804 3.43838 0
M  V30 17800 H 1789.47 -0.293118 0.603591 0
M  V30 17801 H 1792.02 -0.273374 2.02665 0
M  V30 17802 H 1790.17 -2.61242 2.86062 0
M  V30 17803 H 1790.59 -1.80875 4.92326 0
M  V30 17804 H 1792.06 -3.4152 4.33668 0
M  V30 17805 H 1792.54 -3.50776 2.64298 0
M  V30 17806 H 1793.14 -2.17596 3.6542 0
M  V30 17807 N 1791.46 -1.48941 -0.515198 0
M  V30 17808 C 1792.7 -1.57943 -1.27207 0
M  V30 17809 C 1793.04 -0.259011 -1.92465 0
M  V30 17810 O 1792.31 0.736277 -1.80026 0
M  V30 17811 C 1792.59 -2.72846 -2.35005 0
M  V30 17812 C 1792.45 -4.14639 -1.74341 0
M  V30 17813 C 1793.77 -2.83444 -3.36672 0
M  V30 17814 H 1790.89 -0.574909 -0.461138 0
M  V30 17815 H 1793.53 -1.81172 -0.572413 0
M  V30 17816 H 1791.68 -2.5317 -2.94681 0
M  V30 17817 H 1793.35 -4.45793 -1.18602 0
M  V30 17818 H 1791.59 -4.20948 -1.0481 0
M  V30 17819 H 1792.26 -4.90883 -2.52463 0
M  V30 17820 H 1794.74 -3.01311 -2.86969 0
M  V30 17821 H 1793.62 -3.65542 -4.09475 0
M  V30 17822 H 1793.88 -1.92208 -3.98131 0
M  V30 17823 N 1792.94 0.765193 -1.37777 0
M  V30 17824 C 1793.87 1.89247 -1.36777 0
M  V30 17825 C 1794.85 1.68463 -0.235389 0
M  V30 17826 O 1796.03 1.89225 -0.436733 0
M  V30 17827 C 1793.16 3.2662 -1.18053 0
M  V30 17828 C 1792.12 3.61981 -2.28372 0
M  V30 17829 C 1791.44 4.97967 -1.94765 0
M  V30 17830 C 1792.74 3.68053 -3.70587 0
M  V30 17831 H 1794.44 1.90341 -2.31108 0
M  V30 17832 H 1791.98 0.914355 -1.11245 0
M  V30 17833 H 1793.93 4.05125 -1.15982 0
M  V30 17834 H 1792.66 3.25976 -0.201803 0
M  V30 17835 H 1791.32 2.85788 -2.2961 0
M  V30 17836 H 1790.97 4.93869 -0.954052 0
M  V30 17837 H 1790.67 5.22594 -2.68642 0
M  V30 17838 H 1792.19 5.78864 -1.94292 0
M  V30 17839 H 1793.6 4.36696 -3.71443 0
M  V30 17840 H 1792 4.04183 -4.43572 0
M  V30 17841 H 1793.07 2.68556 -4.03739 0
M  V30 17842 N 1794.41 1.22455 0.992094 0
M  V30 17843 C 1795.65 1.06119 1.74694 0
M  V30 17844 C 1796.02 -0.396703 1.87857 0
M  V30 17845 O 1797.22 -0.680936 2.60032 0
M  V30 17846 C 1795.49 1.75374 3.11414 0
M  V30 17847 S 1797.05 1.74461 4.02627 0
M  V30 17848 H 1793.87 0.380011 0.600927 0
M  V30 17849 H 1796.47 1.55408 1.18611 0
M  V30 17850 H 1795.17 2.8061 2.99477 0
M  V30 17851 H 1794.7 1.26319 3.72568 0
M  V30 17852 H 1796.72 0.794871 4.89792 0
M  V30 17853 N 1795.89 -1.18905 1.03437 0
M  V30 17854 C 1797.14 -1.88354 0.732598 0
M  V30 17855 C 1797.46 -1.80353 -0.741474 0
M  V30 17856 O 1796.73 -1.21764 -1.53461 0
M  V30 17857 H 1795.31 -0.697272 0.267995 0
M  V30 17858 H 1797.97 -1.44329 1.30978 0
M  V30 17859 H 1797.07 -2.94551 1.03181 0
M  V30 17860 N 1797.37 -0.812977 -1.35013 0
M  V30 17861 C 1798.78 -0.45647 -1.81034 0
M  V30 17862 C 1799.13 1.02217 -1.6747 0
M  V30 17863 O 1798.26 1.79478 -1.20898 0
M  V30 17864 C 1798.85 -0.821773 -3.28683 0
M  V30 17865 C 1797.41 -0.517776 -3.72822 0
M  V30 17866 C 1796.56 -1.04399 -2.56897 0
M  V30 17867 H 1799.51 -1.00405 -1.22901 0
M  V30 17868 H 1799.53 -0.12173 -3.80305 0
M  V30 17869 H 1799.04 -1.89799 -3.38523 0
M  V30 17870 H 1797.14 0.549446 -3.68527 0
M  V30 17871 H 1797.26 -1.05488 -4.67343 0
M  V30 17872 H 1795.62 -0.466002 -2.50401 0
M  V30 17873 H 1796.4 -2.12645 -2.69512 0
M  V30 17874 N 1798.85 1.47045 -0.567045 0
M  V30 17875 C 1800.26 1.86202 -0.13627 0
M  V30 17876 C 1800.61 1.47252 1.29658 0
M  V30 17877 O 1799.73 0.880121 1.97694 0
M  V30 17878 C 1800.33 3.37945 -0.240528 0
M  V30 17879 C 1798.89 3.76157 0.135272 0
M  V30 17880 C 1798.04 2.71089 -0.583628 0
M  V30 17881 H 1800.99 1.38423 -0.776196 0
M  V30 17882 H 1801.01 3.76673 0.538293 0
M  V30 17883 H 1800.52 3.66263 -1.28348 0
M  V30 17884 H 1798.62 3.53456 1.17896 0
M  V30 17885 H 1798.73 4.78547 -0.230137 0
M  V30 17886 H 1797.1 2.54687 -0.0256067 0
M  V30 17887 H 1797.88 3.02247 -1.62792 0
M  V30 17888 N 1800.33 0.304 1.5464 0
M  V30 17889 C 1801.74 -0.188042 1.85751 0
M  V30 17890 C 1802.09 -1.53186 1.22591 0
M  V30 17891 O 1801.21 -2.09943 0.524696 0
M  V30 17892 C 1801.81 -0.347976 3.37008 0
M  V30 17893 C 1800.37 -0.784238 3.68139 0
M  V30 17894 C 1799.51 0.105654 2.77099 0
M  V30 17895 H 1802.46 0.524918 1.49767 0
M  V30 17896 H 1802.49 -1.18207 3.61673 0
M  V30 17897 H 1802 0.630227 3.82949 0
M  V30 17898 H 1800.1 -1.77288 3.27719 0
M  V30 17899 H 1800.21 -0.601546 4.75309 0
M  V30 17900 H 1798.58 -0.415561 2.51287 0
M  V30 17901 H 1799.36 1.08027 3.25861 0
M  V30 17902 N 1801.8 -1.57568 0.0317802 0
M  V30 17903 C 1802.77 -2.09296 -0.934239 0
M  V30 17904 C 1803.77 -1.00855 -1.25239 0
M  V30 17905 O 1804.96 -1.27004 -1.19229 0
M  V30 17906 C 1802.09 -2.56103 -2.24998 0
M  V30 17907 H 1803.28 -2.95933 -0.486183 0
M  V30 17908 H 1800.83 -1.54796 -0.2163 0
M  V30 17909 H 1801.57 -1.72803 -2.74426 0
M  V30 17910 H 1801.35 -3.35329 -2.03216 0
M  V30 17911 H 1802.84 -2.96339 -2.94233 0
M  V30 17912 N 1803.28 0.241399 -1.5574 0
M  V30 17913 C 1804.53 0.970098 -1.78093 0
M  V30 17914 C 1804.86 1.84763 -0.598005 0
M  V30 17915 O 1804.14 1.90268 0.403516 0
M  V30 17916 C 1804.42 1.82594 -3.10373 0
M  V30 17917 C 1804.27 0.976228 -4.39078 0
M  V30 17918 C 1805.59 2.80743 -3.38927 0
M  V30 17919 H 1802.71 0.35125 -0.647914 0
M  V30 17920 H 1805.35 0.240232 -1.88475 0
M  V30 17921 H 1803.5 2.44823 -3.01652 0
M  V30 17922 H 1805.17 0.37222 -4.59796 0
M  V30 17923 H 1803.42 0.280807 -4.3289 0
M  V30 17924 H 1804.09 1.60899 -5.2803 0
M  V30 17925 H 1806.56 2.28651 -3.47646 0
M  V30 17926 H 1805.44 3.37743 -4.3269 0
M  V30 17927 H 1805.7 3.57484 -2.6011 0
M  V30 17928 N 1804.76 1.49212 0.507292 0
M  V30 17929 C 1805.67 1.68141 1.63603 0
M  V30 17930 C 1806.69 0.563959 1.64607 0
M  V30 17931 O 1807.86 0.837885 1.83143 0
M  V30 17932 C 1804.93 1.73793 2.99995 0
M  V30 17933 C 1803.99 2.9733 3.09667 0
M  V30 17934 C 1803.22 3.02703 4.39553 0
M  V30 17935 O 1803.44 2.15844 5.27985 0
M  V30 17936 O 1802.38 3.95105 4.54066 0
M  V30 17937 H 1806.2 2.63749 1.50565 0
M  V30 17938 H 1803.79 1.32879 0.682893 0
M  V30 17939 H 1805.67 1.79901 3.81069 0
M  V30 17940 H 1804.35 0.813622 3.13308 0
M  V30 17941 H 1803.25 2.96743 2.27804 0
M  V30 17942 H 1804.59 3.8922 3.01278 0
M  V30 17943 N 1806.24 -0.757876 1.38181 0
M  V30 17944 C 1807.19 -1.8929 1.35174 0
M  V30 17945 C 1808.18 -1.67716 0.238284 0
M  V30 17946 O 1809.39 -1.75336 0.407085 0
M  V30 17947 H 1805.76 -0.622712 0.421585 0
M  V30 17948 H 1807.73 -1.88943 2.30961 0
M  V30 17949 C 1806.48 -3.26723 1.18942 0
M  V30 17950 H 1805.8 -3.43909 2.0388 0
M  V30 17951 H 1807.24 -4.06401 1.20891 0
M  V30 17952 C 1805.7 -3.3674 -0.103978 0
M  V30 17953 O 1806.23 -3.86838 -1.08256 0
M  V30 17954 N 1804.44 -2.90163 -0.159367 0
M  V30 17955 H 1803.99 -2.49583 0.637642 0
M  V30 17956 H 1803.94 -2.97245 -1.02435 0
M  V30 17957 N 1807.72 -1.22979 -0.985586 0
M  V30 17958 C 1808.68 -1.00763 -2.05862 0
M  V30 17959 C 1809.68 0.02864 -1.60774 0
M  V30 17960 O 1810.87 -0.210593 -1.72922 0
M  V30 17961 C 1808 -0.523547 -3.36856 0
M  V30 17962 H 1809.19 -1.95982 -2.27004 0
M  V30 17963 H 1806.75 -1.0495 -1.15824 0
M  V30 17964 H 1807.48 0.432658 -3.21401 0
M  V30 17965 H 1807.27 -1.27127 -3.70919 0
M  V30 17966 H 1808.76 -0.388591 -4.15788 0
M  V30 17967 N 1809.19 1.18355 -1.04066 0
M  V30 17968 C 1810.42 1.92816 -0.763979 0
M  V30 17969 C 1810.84 1.75658 0.672749 0
M  V30 17970 O 1810.2 1.06671 1.46598 0
M  V30 17971 C 1810.25 3.42267 -1.13516 0
M  V30 17972 O 1809.35 4.11576 -0.260646 0
M  V30 17973 H 1808.7 0.601532 -0.281167 0
M  V30 17974 H 1811.23 1.50087 -1.3905 0
M  V30 17975 H 1811.24 3.92973 -1.09709 0
M  V30 17976 H 1809.91 3.54076 -2.18181 0
M  V30 17977 H 1808.49 3.71174 -0.358342 0
M  V30 17978 N 1810.67 0.820125 1.3458 0
M  V30 17979 C 1811.6 0.254709 2.32107 0
M  V30 17980 C 1812.58 -0.6273 1.58111 0
M  V30 17981 O 1813.77 -0.554759 1.86108 0
M  V30 17982 C 1810.9 -0.586541 3.42311 0
M  V30 17983 C 1809.85 0.198096 4.27541 0
M  V30 17984 C 1809.18 -0.765718 5.29189 0
M  V30 17985 C 1810.48 1.40472 5.03056 0
M  V30 17986 H 1812.17 1.06955 2.79644 0
M  V30 17987 H 1809.72 0.515756 1.34447 0
M  V30 17988 H 1811.67 -0.992259 4.09551 0
M  V30 17989 H 1810.4 -1.4344 2.93415 0
M  V30 17990 H 1809.05 0.585149 3.619 0
M  V30 17991 H 1808.7 -1.60946 4.76556 0
M  V30 17992 H 1808.4 -0.244954 5.87089 0
M  V30 17993 H 1809.93 -1.16935 5.99298 0
M  V30 17994 H 1811.34 1.07316 5.63166 0
M  V30 17995 H 1809.74 1.86092 5.70517 0
M  V30 17996 H 1810.81 2.18437 4.32913 0
M  V30 17997 N 1812.15 -1.46743 0.574835 0
M  V30 17998 C 1813.4 -2.01625 0.0551724 0
M  V30 17999 C 1813.71 -1.4528 -1.3097 0
M  V30 18000 O 1814.92 -1.91932 -1.92026 0
M  V30 18001 C 1813.37 -3.59868 0.0480708 0
M  V30 18002 C 1812.98 -4.25207 1.41078 0
M  V30 18003 C 1814.73 -4.22436 -0.41806 0
M  V30 18004 C 1812.63 -5.75507 1.36183 0
M  V30 18005 H 1811.56 -0.753812 0.0168558 0
M  V30 18006 H 1814.21 -1.68557 0.725313 0
M  V30 18007 H 1812.6 -3.89976 -0.688076 0
M  V30 18008 H 1813.77 -4.06718 2.16603 0
M  V30 18009 H 1812.09 -3.747 1.81628 0
M  V30 18010 H 1814.68 -5.32601 -0.473353 0
M  V30 18011 H 1815.03 -3.90826 -1.43391 0
M  V30 18012 H 1815.56 -3.96925 0.263775 0
M  V30 18013 H 1812.3 -6.11765 2.35423 0
M  V30 18014 H 1811.82 -5.96282 0.648655 0
M  V30 18015 H 1813.5 -6.38068 1.07137 0
M  V30 18016 N 1813.63 -0.312197 -1.54477 0
M  V30 18017 C 1814.88 0.293192 -1.99962 0
M  V30 18018 C 1815.2 1.53544 -1.20205 0
M  V30 18019 O 1814.47 1.93575 -0.300901 0
M  V30 18020 H 1813.05 0.111325 -0.738658 0
M  V30 18021 H 1815.71 -0.426116 -1.90185 0
M  V30 18022 H 1814.81 0.557482 -3.07081 0
M  V30 18023 N 1815.11 1.57549 -0.040136 0
M  V30 18024 C 1816.07 2.09788 0.923126 0
M  V30 18025 C 1817.07 1.01518 1.24703 0
M  V30 18026 O 1818.26 1.27635 1.18554 0
M  V30 18027 C 1815.39 2.57293 2.23636 0
M  V30 18028 H 1816.58 2.96187 0.470482 0
M  V30 18029 H 1814.14 1.54909 0.208088 0
M  V30 18030 H 1814.87 1.74256 2.73506 0
M  V30 18031 H 1814.66 3.36402 2.01435 0
M  V30 18032 H 1816.15 2.97895 2.92658 0
M  V30 18033 N 1816.58 -0.233136 1.55866 0
M  V30 18034 C 1818 -0.582304 1.48598 0
M  V30 18035 C 1818.2 -1.87694 0.733016 0
M  V30 18036 O 1817.26 -2.51074 0.267959 0
M  V30 18037 C 1818.57 -0.67227 2.93089 0
M  V30 18038 C 1820.12 -0.763676 3.03541 0
M  V30 18039 C 1820.59 -0.885087 4.49366 0
M  V30 18040 N 1822.08 -0.949606 4.53362 0
M  V30 18041 C 1822.82 -1.06306 5.6346 0
M  V30 18042 N 1822.31 -1.14118 6.83337 0
M  V30 18043 N 1824.11 -1.09729 5.51286 0
M  V30 18044 H 1816.26 0.616568 2.03254 0
M  V30 18045 H 1818.52 0.214762 0.923353 0
M  V30 18046 H 1818.23 0.20923 3.51077 0
M  V30 18047 H 1818.1 -1.5397 3.44344 0
M  V30 18048 H 1820.49 -1.63562 2.45625 0
M  V30 18049 H 1820.57 0.129191 2.55474 0
M  V30 18050 H 1820.21 -0.017644 5.07897 0
M  V30 18051 H 1820.14 -1.7932 4.95128 0
M  V30 18052 H 1822.63 -0.900018 3.67026 0
M  V30 18053 H 1822.95 -1.2272 7.62994 0
M  V30 18054 H 1821.29 -1.11051 6.8607 0
M  V30 18055 H 1824.48 -1.03283 4.56563 0
M  V30 18056 H 1824.66 -1.18225 6.37124 0
M  V30 18057 N 1818.06 -1.49479 -0.499372 0
M  V30 18058 C 1819.01 -1.66268 -1.60073 0
M  V30 18059 C 1819.98 -0.504137 -1.58265 0
M  V30 18060 O 1821.17 -0.731358 -1.76227 0
M  V30 18061 C 1818.31 -1.73678 -2.98211 0
M  V30 18062 C 1817.42 -3.00848 -3.10023 0
M  V30 18063 C 1816.55 -2.99227 -4.38904 0
M  V30 18064 C 1815.59 -4.20969 -4.44355 0
M  V30 18065 N 1814.73 -4.17249 -5.64666 0
M  V30 18066 H 1819.57 -2.60308 -1.45065 0
M  V30 18067 H 1817.11 -1.29063 -0.705774 0
M  V30 18068 H 1819.06 -1.75956 -3.7828 0
M  V30 18069 H 1817.69 -0.831037 -3.11919 0
M  V30 18070 H 1816.75 -3.08175 -2.23008 0
M  V30 18071 H 1818.06 -3.90841 -3.09911 0
M  V30 18072 H 1817.21 -3.00076 -5.27294 0
M  V30 18073 H 1815.95 -2.07015 -4.41584 0
M  V30 18074 H 1814.96 -4.20362 -3.54366 0
M  V30 18075 H 1816.18 -5.14376 -4.4339 0
M  V30 18076 H 1814.13 -3.27875 -5.68185 0
M  V30 18077 H 1814.04 -5.00979 -5.66177 0
M  V30 18078 H 1815.31 -4.22203 -6.55259 0
M  V30 18079 N 1819.54 0.750537 -1.38581 0
M  V30 18080 C 1820.5 1.84599 -1.35852 0
M  V30 18081 C 1821.5 1.58709 -0.258462 0
M  V30 18082 O 1822.69 1.66397 -0.51552 0
M  V30 18083 C 1819.83 3.22124 -1.11573 0
M  V30 18084 H 1821.02 1.88426 -2.33314 0
M  V30 18085 H 1818.57 0.952564 -1.23919 0
M  V30 18086 H 1819.31 3.23965 -0.147295 0
M  V30 18087 H 1819.09 3.42311 -1.91221 0
M  V30 18088 H 1820.58 4.02198 -1.12367 0
M  V30 18089 N 1821.02 1.235 0.979051 0
M  V30 18090 C 1821.97 1.01737 2.07167 0
M  V30 18091 C 1822.94 -0.0656067 1.6597 0
M  V30 18092 O 1824.12 0.0867676 1.90603 0
M  V30 18093 C 1821.26 0.616104 3.39556 0
M  V30 18094 C 1820.37 1.77135 3.94014 0
M  V30 18095 C 1819.51 1.31674 5.14622 0
M  V30 18096 C 1818.55 2.44265 5.6125 0
M  V30 18097 N 1817.69 1.99752 6.73085 0
M  V30 18098 H 1822.53 1.9526 2.25117 0
M  V30 18099 H 1820.06 0.972707 1.10349 0
M  V30 18100 H 1822.02 0.364549 4.15604 0
M  V30 18101 H 1820.65 -0.282117 3.21565 0
M  V30 18102 H 1819.7 2.13687 3.14709 0
M  V30 18103 H 1821.01 2.61775 4.24588 0
M  V30 18104 H 1820.17 1.02339 5.98006 0
M  V30 18105 H 1818.91 0.440724 4.85705 0
M  V30 18106 H 1817.91 2.74373 4.76445 0
M  V30 18107 H 1819.14 3.32405 5.92186 0
M  V30 18108 H 1817.08 1.14532 6.45924 0
M  V30 18109 H 1817 2.77951 7.0305 0
M  V30 18110 H 1818.27 1.73525 7.5994 0
M  V30 18111 N 1822.5 -1.17802 1.04693 0
M  V30 18112 C 1823.73 -1.91589 0.773124 0
M  V30 18113 C 1824.14 -1.76773 -0.67438 0
M  V30 18114 O 1823.48 -1.09903 -1.47197 0
M  V30 18115 C 1823.54 -3.43279 1.06771 0
M  V30 18116 C 1823.2 -3.81875 2.51038 0
M  V30 18117 C 1824.2 -3.85138 3.49235 0
M  V30 18118 C 1821.89 -4.12986 2.85915 0
M  V30 18119 C 1823.88 -4.18972 4.80356 0
M  V30 18120 C 1821.57 -4.4649 4.17241 0
M  V30 18121 C 1822.57 -4.4946 5.14271 0
M  V30 18122 O 1822.25 -4.82178 6.43242 0
M  V30 18123 H 1821.99 -0.614869 0.280912 0
M  V30 18124 H 1824.54 -1.50352 1.39941 0
M  V30 18125 H 1822.77 -3.84786 0.384316 0
M  V30 18126 H 1824.46 -3.98321 0.780714 0
M  V30 18127 H 1825.22 -3.61232 3.2363 0
M  V30 18128 H 1821.1 -4.09848 2.11058 0
M  V30 18129 H 1824.65 -4.21205 5.56087 0
M  V30 18130 H 1820.54 -4.69857 4.42611 0
M  V30 18131 H 1821.31 -5.00055 6.47987 0
M  V30 18132 N 1823.98 -0.827251 -1.34143 0
M  V30 18133 C 1824.92 -0.240552 -2.31353 0
M  V30 18134 C 1825.92 0.62109 -1.57603 0
M  V30 18135 O 1827.12 0.511947 -1.72566 0
M  V30 18136 H 1823.5 -0.0590494 -0.749678 0
M  V30 18137 H 1825.47 -1.07518 -2.78357 0
M  V30 18138 C 1824.22 0.579321 -3.4284 0
M  V30 18139 H 1823.54 -0.0743746 -3.99731 0
M  V30 18140 H 1824.98 0.955871 -4.13085 0
M  V30 18141 C 1823.44 1.75345 -2.87673 0
M  V30 18142 O 1823.97 2.85178 -2.82907 0
M  V30 18143 N 1822.18 1.57158 -2.44437 0
M  V30 18144 H 1821.72 0.678148 -2.48513 0
M  V30 18145 H 1821.68 2.35869 -2.07877 0
M  V30 18146 N 1825.45 1.46436 -0.582609 0
M  V30 18147 C 1826.7 2.02685 -0.0682503 0
M  V30 18148 C 1827.03 1.45315 1.2883 0
M  V30 18149 O 1826.31 0.61821 1.84414 0
M  V30 18150 C 1826.59 3.601 -0.00237797 0
M  V30 18151 C 1826.44 4.27855 -1.38782 0
M  V30 18152 C 1827.76 4.34525 0.69829 0
M  V30 18153 H 1824.88 0.736531 -0.0262761 0
M  V30 18154 H 1827.52 1.7458 -0.749789 0
M  V30 18155 H 1825.67 3.84176 0.57803 0
M  V30 18156 H 1827.35 4.15043 -2.01339 0
M  V30 18157 H 1825.59 3.87221 -1.95557 0
M  V30 18158 H 1826.26 5.36614 -1.2942 0
M  V30 18159 H 1828.74 4.15594 0.205219 0
M  V30 18160 H 1827.61 5.44244 0.71341 0
M  V30 18161 H 1827.87 4.05575 1.75957 0
M  V30 18162 N 1826.93 0.320385 1.54309 0
M  V30 18163 C 1827.88 -0.562498 2.20952 0
M  V30 18164 C 1828.87 -1.08408 1.18897 0
M  V30 18165 O 1830.06 -1.02163 1.4454 0
M  V30 18166 C 1827.19 -1.72448 2.96845 0
M  V30 18167 C 1826.27 -1.21794 4.06235 0
M  V30 18168 N 1826.66 -0.43084 5.03962 0
M  V30 18169 C 1824.96 -1.49695 4.20128 0
M  V30 18170 C 1825.66 -0.158687 5.81484 0
M  V30 18171 N 1824.64 -0.74393 5.38486 0
M  V30 18172 H 1828.44 0.0461894 2.93864 0
M  V30 18173 H 1825.95 0.126085 1.6191 0
M  V30 18174 H 1827.95 -2.36871 3.43071 0
M  V30 18175 H 1826.61 -2.33667 2.25455 0
M  V30 18176 H 1827.62 -0.0739708 5.17847 0
M  V30 18177 H 1824.3 -2.11522 3.59951 0
M  V30 18178 H 1825.69 0.47475 6.70221 0
M  V30 18179 N 1828.41 -1.57525 0.0484906 0
M  V30 18180 C 1829.37 -2.10275 -0.911987 0
M  V30 18181 C 1830.37 -1.02178 -1.24163 0
M  V30 18182 O 1831.56 -1.28262 -1.17875 0
M  V30 18183 C 1828.69 -2.58475 -2.22269 0
M  V30 18184 H 1829.89 -2.96432 -0.454768 0
M  V30 18185 H 1827.44 -1.55017 -0.19987 0
M  V30 18186 H 1828.18 -1.75704 -2.72578 0
M  V30 18187 H 1827.96 -3.37466 -1.99648 0
M  V30 18188 H 1829.45 -2.99443 -2.91074 0
M  V30 18189 N 1829.89 0.224867 -1.55988 0
M  V30 18190 C 1831.12 0.966727 -1.82926 0
M  V30 18191 C 1831.53 1.78078 -0.627177 0
M  V30 18192 O 1830.89 1.77966 0.404277 0
M  V30 18193 C 1830.94 1.88696 -3.08344 0
M  V30 18194 O 1830.66 1.10581 -4.23914 0
M  V30 18195 C 1832.16 2.74299 -3.48246 0
M  V30 18196 H 1829.38 0.283479 -0.608178 0
M  V30 18197 H 1831.92 0.241097 -2.03074 0
M  V30 18198 H 1830.08 2.56658 -2.90182 0
M  V30 18199 H 1830.49 1.73019 -4.95141 0
M  V30 18200 H 1831.97 3.34577 -4.39047 0
M  V30 18201 H 1832.44 3.46526 -2.69845 0
M  V30 18202 H 1833.05 2.11755 -3.68836 0
M  V30 18203 N 1831.37 1.49742 0.491438 0
M  V30 18204 C 1832.61 1.59947 1.24679 0
M  V30 18205 C 1832.94 0.289598 1.92029 0
M  V30 18206 O 1832.22 -0.707544 1.81174 0
M  V30 18207 C 1832.5 2.7655 2.30634 0
M  V30 18208 C 1832.36 4.1736 1.67723 0
M  V30 18209 C 1833.67 2.88764 3.3212 0
M  V30 18210 H 1830.79 0.582173 0.451934 0
M  V30 18211 H 1833.44 1.8206 0.543517 0
M  V30 18212 H 1831.59 2.57826 2.90616 0
M  V30 18213 H 1833.26 4.47623 1.11495 0
M  V30 18214 H 1831.5 4.22562 0.981 0
M  V30 18215 H 1832.17 4.94838 2.44621 0
M  V30 18216 H 1834.65 3.05838 2.82139 0
M  V30 18217 H 1833.52 3.7201 4.03608 0
M  V30 18218 H 1833.78 1.98517 3.95023 0
M  V30 18219 N 1832.84 -0.743177 1.38977 0
M  V30 18220 C 1834.26 -1.04764 1.20402 0
M  V30 18221 C 1834.46 -2.01411 0.0599139 0
M  V30 18222 O 1833.52 -2.45485 -0.591026 0
M  V30 18223 C 1834.83 -1.61775 2.53474 0
M  V30 18224 C 1836.38 -1.73896 2.60248 0
M  V30 18225 C 1836.85 -2.34318 3.93522 0
M  V30 18226 N 1838.34 -2.41737 3.95117 0
M  V30 18227 C 1839.08 -2.89407 4.95006 0
M  V30 18228 N 1838.57 -3.37034 6.05293 0
M  V30 18229 N 1840.37 -2.88542 4.8239 0
M  V30 18230 H 1832.52 -0.102036 2.12155 0
M  V30 18231 H 1834.78 -0.107893 0.94184 0
M  V30 18232 H 1834.49 -0.982274 3.37704 0
M  V30 18233 H 1834.36 -2.60696 2.72612 0
M  V30 18234 H 1836.75 -2.36568 1.76407 0
M  V30 18235 H 1836.83 -0.736509 2.44968 0
M  V30 18236 H 1836.47 -1.72276 4.7779 0
M  V30 18237 H 1836.4 -3.35224 4.06119 0
M  V30 18238 H 1838.89 -2.08064 3.15464 0
M  V30 18239 H 1839.21 -3.71895 6.77432 0
M  V30 18240 H 1837.55 -3.35064 6.08898 0
M  V30 18241 H 1840.74 -2.50651 3.95337 0
M  V30 18242 H 1840.92 -3.25379 5.60386 0
M  V30 18243 N 1834.32 -1.24018 -0.972487 0
M  V30 18244 C 1835.55 -1.10232 -1.74736 0
M  V30 18245 C 1835.96 0.348409 -1.85964 0
M  V30 18246 O 1835.3 1.25245 -1.34386 0
M  V30 18247 C 1835.37 -1.66263 -3.18743 0
M  V30 18248 C 1835.03 -3.151 -3.31 0
M  V30 18249 C 1836.03 -4.12305 -3.16703 0
M  V30 18250 C 1833.71 -3.54965 -3.55394 0
M  V30 18251 C 1835.71 -5.47357 -3.26617 0
M  V30 18252 C 1833.39 -4.9016 -3.64947 0
M  V30 18253 C 1834.39 -5.86165 -3.5057 0
M  V30 18254 O 1834.08 -7.18903 -3.5977 0
M  V30 18255 H 1833.81 -0.386036 -0.554935 0
M  V30 18256 H 1836.36 -1.64505 -1.22993 0
M  V30 18257 H 1834.59 -1.06419 -3.71769 0
M  V30 18258 H 1836.28 -1.47837 -3.7802 0
M  V30 18259 H 1837.05 -3.82848 -2.97745 0
M  V30 18260 H 1832.93 -2.80747 -3.65653 0
M  V30 18261 H 1836.47 -6.22273 -3.15312 0
M  V30 18262 H 1832.37 -5.1929 -3.83416 0
M  V30 18263 H 1833.14 -7.26759 -3.76515 0
M  V30 18264 N 1835.8 1.17245 -1.05316 0
M  V30 18265 C 1836.73 2.20844 -0.613228 0
M  V30 18266 C 1837.75 1.5955 0.323671 0
M  V30 18267 O 1838.93 1.78121 0.116209 0
M  V30 18268 C 1836.03 3.38679 0.122482 0
M  V30 18269 C 1835.21 4.29541 -0.825429 0
M  V30 18270 C 1834.27 5.26038 -0.130752 0
M  V30 18271 O 1833.29 5.64032 -0.765248 0
M  V30 18272 N 1834.49 5.69369 1.13136 0
M  V30 18273 H 1837.26 2.5921 -1.50434 0
M  V30 18274 H 1834.82 1.32156 -0.935221 0
M  V30 18275 H 1836.81 4.00267 0.597368 0
M  V30 18276 H 1835.38 2.989 0.915278 0
M  V30 18277 H 1834.6 3.65366 -1.47991 0
M  V30 18278 H 1835.89 4.87138 -1.46882 0
M  V30 18279 H 1835.29 5.40576 1.66716 0
M  V30 18280 H 1833.85 6.33095 1.55029 0
M  V30 18281 N 1837.28 0.834353 1.33702 0
M  V30 18282 C 1838.52 0.4339 1.99742 0
M  V30 18283 C 1838.88 -0.987294 1.64671 0
M  V30 18284 O 1840.08 -1.49124 2.23642 0
M  V30 18285 C 1838.35 0.643042 3.51568 0
M  V30 18286 S 1839.91 0.337137 4.37503 0
M  V30 18287 H 1836.73 0.163412 0.691966 0
M  V30 18288 H 1839.33 1.08266 1.62785 0
M  V30 18289 H 1838.04 1.67685 3.7458 0
M  V30 18290 H 1837.57 -0.0200346 3.93395 0
M  V30 18291 H 1839.58 -0.844826 4.88955 0
M  V30 18292 N 1838.76 -1.46125 0.590367 0
M  V30 18293 C 1839.7 -2.32108 -0.151168 0
M  V30 18294 C 1840.7 -1.44943 -0.876804 0
M  V30 18295 O 1841.9 -1.61526 -0.794323 0
M  V30 18296 H 1838.28 -0.748954 -0.0676159 0
M  V30 18297 H 1840.25 -2.92454 0.592723 0
M  V30 18298 C 1839 -3.28253 -1.14653 0
M  V30 18299 H 1838.32 -3.95309 -0.597597 0
M  V30 18300 H 1839.76 -3.91181 -1.63564 0
M  V30 18301 C 1838.22 -2.54162 -2.21141 0
M  V30 18302 O 1838.75 -2.31029 -3.28616 0
M  V30 18303 N 1836.96 -2.14592 -1.95956 0
M  V30 18304 H 1836.5 -2.33606 -1.08564 0
M  V30 18305 H 1836.46 -1.65339 -2.67414 0
M  V30 18306 N 1840.23 -0.328564 -1.54137 0
M  V30 18307 C 1841.14 0.543922 -2.28207 0
M  V30 18308 C 1842.16 1.1249 -1.32748 0
M  V30 18309 O 1843.34 1.1438 -1.65769 0
M  V30 18310 C 1840.4 1.6864 -3.02922 0
M  V30 18311 C 1839.46 1.13672 -4.13977 0
M  V30 18312 C 1838.7 2.22474 -4.85119 0
M  V30 18313 O 1838.92 3.42914 -4.55813 0
M  V30 18314 O 1837.85 1.87611 -5.71914 0
M  V30 18315 H 1841.68 -0.0577601 -3.03645 0
M  V30 18316 H 1839.26 -0.0940895 -1.49103 0
M  V30 18317 H 1841.15 2.35143 -3.49693 0
M  V30 18318 H 1839.82 2.27417 -2.30355 0
M  V30 18319 H 1838.73 0.436625 -3.71543 0
M  V30 18320 H 1840.06 0.594012 -4.88602 0
M  V30 18321 N 1841.71 1.57497 -0.0568439 0
M  V30 18322 C 1842.96 1.92533 0.614452 0
M  V30 18323 C 1843.28 0.936373 1.71047 0
M  V30 18324 O 1842.55 -0.0178803 1.95892 0
M  V30 18325 H 1841.13 0.710724 0.229958 0
M  V30 18326 H 1843.79 1.94583 -0.111181 0
M  V30 18327 H 1842.89 2.93928 1.04941 0
M  V30 18328 N 1843.19 -0.216591 1.56105 0
M  V30 18329 C 1844.44 -0.940249 1.79348 0
M  V30 18330 C 1844.77 -1.84135 0.626451 0
M  V30 18331 O 1844.02 -1.91796 -0.388932 0
M  V30 18332 C 1844.32 -1.80637 3.08391 0
M  V30 18333 C 1843.99 -1.05808 4.3831 0
M  V30 18334 C 1842.65 -0.851392 4.73608 0
M  V30 18335 C 1845 -0.530015 5.18498 0
M  V30 18336 C 1842.33 -0.104822 5.86606 0
M  V30 18337 C 1844.68 0.203236 6.32273 0
M  V30 18338 C 1843.34 0.42113 6.6617 0
M  V30 18339 H 1842.61 -0.344062 0.656279 0
M  V30 18340 H 1845.26 -0.208069 1.90366 0
M  V30 18341 H 1843.57 -2.60656 2.92516 0
M  V30 18342 H 1845.26 -2.36852 3.23577 0
M  V30 18343 H 1841.85 -1.22915 4.10597 0
M  V30 18344 H 1846.04 -0.677154 4.91659 0
M  V30 18345 H 1841.29 0.074177 6.11355 0
M  V30 18346 H 1845.47 0.619898 6.93636 0
M  V30 18347 H 1843.09 1.00155 7.53573 0
M  V30 18348 N 1844.67 -1.5 -0.48349 0
M  V30 18349 C 1845.63 -1.6742 -1.56535 0
M  V30 18350 C 1846.63 -0.545311 -1.51271 0
M  V30 18351 O 1847.82 -0.812112 -1.54112 0
M  V30 18352 C 1844.95 -1.6879 -2.9618 0
M  V30 18353 H 1846.15 -2.6393 -1.42412 0
M  V30 18354 H 1843.7 -1.39295 -0.708991 0
M  V30 18355 H 1844.43 -0.739285 -3.15761 0
M  V30 18356 H 1844.22 -2.50789 -3.01408 0
M  V30 18357 H 1845.71 -1.84264 -3.74749 0
M  V30 18358 N 1846.15 0.735796 -1.39369 0
M  V30 18359 C 1847.08 1.86001 -1.33926 0
M  V30 18360 C 1848.09 1.60897 -0.24818 0
M  V30 18361 O 1849.28 1.71146 -0.507074 0
M  V30 18362 C 1846.38 3.2201 -1.05654 0
M  V30 18363 C 1845.55 3.74476 -2.26023 0
M  V30 18364 C 1844.61 4.89045 -1.94221 0
M  V30 18365 O 1843.64 5.02748 -2.66896 0
M  V30 18366 N 1844.84 5.73357 -0.907884 0
M  V30 18367 H 1847.61 1.91175 -2.30807 0
M  V30 18368 H 1845.17 0.916499 -1.33461 0
M  V30 18369 H 1847.16 3.96223 -0.824001 0
M  V30 18370 H 1845.73 3.12109 -0.175094 0
M  V30 18371 H 1844.95 2.91624 -2.65234 0
M  V30 18372 H 1846.24 4.06263 -3.06313 0
M  V30 18373 H 1845.63 5.64874 -0.305564 0
M  V30 18374 H 1844.19 6.4764 -0.735237 0
M  V30 18375 N 1847.63 1.24532 0.965897 0
M  V30 18376 C 1848.58 1.00627 2.04593 0
M  V30 18377 C 1849.56 -0.0529299 1.60813 0
M  V30 18378 O 1850.75 0.16102 1.76266 0
M  V30 18379 C 1847.88 0.614939 3.37748 0
M  V30 18380 C 1846.97 1.71031 3.88084 0
M  V30 18381 N 1847.36 2.94339 4.11337 0
M  V30 18382 C 1845.66 1.58823 4.16763 0
M  V30 18383 C 1846.36 3.65361 4.52644 0
M  V30 18384 N 1845.33 2.92931 4.57922 0
M  V30 18385 H 1849.13 1.94256 2.20549 0
M  V30 18386 H 1846.65 1.14685 1.14983 0
M  V30 18387 H 1848.65 0.424907 4.14729 0
M  V30 18388 H 1847.31 -0.314149 3.23177 0
M  V30 18389 H 1848.32 3.305 3.98736 0
M  V30 18390 H 1844.99 0.727304 4.11116 0
M  V30 18391 H 1846.38 4.71145 4.79032 0
M  V30 18392 N 1849.1 -1.16685 1.05936 0
M  V30 18393 C 1850.05 -2.18921 0.636999 0
M  V30 18394 C 1851.04 -1.5747 -0.330447 0
M  V30 18395 O 1852.23 -1.76393 -0.146469 0
M  V30 18396 C 1849.36 -3.43293 0.0211274 0
M  V30 18397 C 1848.44 -4.11828 1.01285 0
M  V30 18398 N 1848.84 -4.5607 2.18709 0
M  V30 18399 C 1847.13 -4.37961 0.842986 0
M  V30 18400 C 1847.83 -5.09046 2.81509 0
M  V30 18401 N 1846.81 -5.01709 2.09259 0
M  V30 18402 H 1850.61 -2.5084 1.53155 0
M  V30 18403 H 1848.13 -1.33096 0.930542 0
M  V30 18404 H 1850.12 -4.15824 -0.299267 0
M  V30 18405 H 1848.78 -3.12863 -0.868723 0
M  V30 18406 H 1849.79 -4.49918 2.56504 0
M  V30 18407 H 1846.47 -4.175 0.00481897 0
M  V30 18408 H 1847.86 -5.53344 3.81131 0
M  V30 18409 N 1850.58 -0.841432 -1.33258 0
M  V30 18410 C 1851.83 -0.439027 -1.97991 0
M  V30 18411 C 1852.16 0.999767 -1.66488 0
M  V30 18412 O 1851.44 1.69938 -0.94612 0
M  V30 18413 C 1851.72 -0.663137 -3.53941 0
M  V30 18414 C 1851.57 -2.14939 -3.95122 0
M  V30 18415 C 1852.89 -0.11094 -4.3996 0
M  V30 18416 H 1850.01 -0.160987 -0.719203 0
M  V30 18417 H 1852.65 -1.05742 -1.57856 0
M  V30 18418 H 1850.8 -0.136765 -3.88259 0
M  V30 18419 H 1852.47 -2.74082 -3.71048 0
M  V30 18420 H 1850.72 -2.63293 -3.4476 0
M  V30 18421 H 1851.39 -2.25694 -5.03752 0
M  V30 18422 H 1853.86 -0.560898 -4.12302 0
M  V30 18423 H 1852.74 -0.297416 -5.48094 0
M  V30 18424 H 1853 0.985446 -4.30977 0
M  V30 18425 N 1852.06 1.4581 -0.598108 0
M  V30 18426 C 1853.02 2.28905 0.11623 0
M  V30 18427 C 1854.02 1.39246 0.804187 0
M  V30 18428 O 1855.21 1.61466 0.653793 0
M  V30 18429 C 1852.34 3.20029 1.17449 0
M  V30 18430 H 1853.54 2.93543 -0.614217 0
M  V30 18431 H 1851.09 1.52175 -0.356735 0
M  V30 18432 H 1851.83 2.60171 1.93601 0
M  V30 18433 H 1851.61 3.86061 0.685508 0
M  V30 18434 H 1853.1 3.82533 1.67505 0
M  V30 18435 N 1853.54 0.336733 1.53961 0
M  V30 18436 C 1854.77 -0.263446 2.05216 0
M  V30 18437 C 1855.18 -1.44752 1.21212 0
M  V30 18438 O 1854.54 -1.80837 0.245844 0
M  V30 18439 C 1854.59 -0.685127 3.54948 0
M  V30 18440 O 1854.31 0.451854 4.35764 0
M  V30 18441 C 1855.81 -1.34674 4.22348 0
M  V30 18442 H 1853.03 -0.0520687 0.668977 0
M  V30 18443 H 1855.57 0.486744 1.98623 0
M  V30 18444 H 1853.73 -1.38527 3.61786 0
M  V30 18445 H 1854.14 0.117076 5.24369 0
M  V30 18446 H 1855.62 -1.59261 5.28526 0
M  V30 18447 H 1856.09 -2.29818 3.74273 0
M  V30 18448 H 1856.7 -0.688817 4.19685 0
M  V30 18449 N 1855.02 -1.57465 0.0651956 0
M  V30 18450 C 1856.26 -1.92414 -0.604961 0
M  V30 18451 C 1856.58 -0.946628 -1.71167 0
M  V30 18452 O 1857.78 -1.18869 -2.44095 0
M  V30 18453 C 1856.24 -3.41786 -1.12741 0
M  V30 18454 C 1855.85 -4.4797 -0.0520584 0
M  V30 18455 C 1857.59 -3.85746 -1.77201 0
M  V30 18456 C 1855.5 -5.88468 -0.588181 0
M  V30 18457 H 1854.43 -0.718147 -0.229742 0
M  V30 18458 H 1857.08 -1.82993 0.136361 0
M  V30 18459 H 1855.46 -3.46258 -1.92149 0
M  V30 18460 H 1856.64 -4.55105 0.722215 0
M  V30 18461 H 1854.95 -4.13436 0.495917 0
M  V30 18462 H 1857.55 -4.88093 -2.18332 0
M  V30 18463 H 1857.89 -3.22754 -2.62937 0
M  V30 18464 H 1858.42 -3.83849 -1.04426 0
M  V30 18465 H 1855.16 -6.5509 0.231865 0
M  V30 18466 H 1854.68 -5.84866 -1.33012 0
M  V30 18467 H 1856.36 -6.38147 -1.06667 0
M  V30 18468 N 1856.49 0.20831 -1.56217 0
M  V30 18469 C 1857.91 0.55859 -1.49506 0
M  V30 18470 C 1858.11 1.86504 -0.762784 0
M  V30 18471 O 1857.17 2.50616 -0.307868 0
M  V30 18472 C 1858.48 0.625557 -2.94121 0
M  V30 18473 C 1860.03 0.715289 -3.04717 0
M  V30 18474 C 1860.5 0.813485 -4.50718 0
M  V30 18475 N 1861.99 0.87736 -4.54815 0
M  V30 18476 C 1862.73 0.973279 -5.65079 0
M  V30 18477 N 1862.22 1.03232 -6.85066 0
M  V30 18478 N 1864.02 1.00944 -5.52962 0
M  V30 18479 H 1856.17 -0.648826 -2.02247 0
M  V30 18480 H 1858.43 -0.229425 -0.91982 0
M  V30 18481 H 1858.14 -0.265056 -3.507 0
M  V30 18482 H 1858.01 1.48473 -3.4675 0
M  V30 18483 H 1860.4 1.59634 -2.48196 0
M  V30 18484 H 1860.48 -0.169818 -2.55236 0
M  V30 18485 H 1860.12 -0.0631602 -5.07861 0
M  V30 18486 H 1860.05 1.7142 -4.97918 0
M  V30 18487 H 1862.54 0.841513 -3.68411 0
M  V30 18488 H 1862.86 1.10566 -7.6485 0
M  V30 18489 H 1861.2 1.00122 -6.8775 0
M  V30 18490 H 1864.39 0.960065 -4.58149 0
M  V30 18491 H 1864.57 1.08074 -6.38924 0
M  V30 18492 N 1857.97 1.50255 0.475528 0
M  V30 18493 C 1859.21 1.62657 1.23783 0
M  V30 18494 C 1859.58 0.317805 1.89352 0
M  V30 18495 O 1860.78 0.317219 2.66922 0
M  V30 18496 C 1859.05 2.77114 2.25704 0
M  V30 18497 S 1860.61 3.09623 3.10932 0
M  V30 18498 H 1857.42 0.573455 0.420321 0
M  V30 18499 H 1860.03 1.8802 0.535591 0
M  V30 18500 H 1858.73 3.70695 1.76107 0
M  V30 18501 H 1858.26 2.53823 3.00562 0
M  V30 18502 H 1860.28 2.53106 4.26792 0
M  V30 18503 N 1859.45 -0.728395 1.39758 0
M  V30 18504 C 1860.87 -1.03481 1.21506 0
M  V30 18505 C 1861.07 -2.01336 0.0812728 0
M  V30 18506 O 1860.12 -2.46099 -0.564956 0
M  V30 18507 C 1861.43 -1.59078 2.55176 0
M  V30 18508 C 1862.98 -1.71126 2.62078 0
M  V30 18509 C 1863.46 -2.30131 3.95985 0
M  V30 18510 N 1864.95 -2.37532 3.97659 0
M  V30 18511 C 1865.68 -2.8414 4.98048 0
M  V30 18512 N 1865.18 -3.30595 6.08834 0
M  V30 18513 N 1866.97 -2.83409 4.85423 0
M  V30 18514 H 1859.12 -0.0795283 2.12251 0
M  V30 18515 H 1861.39 -0.0978972 0.942932 0
M  V30 18516 H 1861.09 -0.946401 3.38727 0
M  V30 18517 H 1860.97 -2.5779 2.75362 0
M  V30 18518 H 1863.35 -2.34684 1.78906 0
M  V30 18519 H 1863.43 -0.710485 2.45735 0
M  V30 18520 H 1863.08 -1.67198 4.79591 0
M  V30 18521 H 1863.01 -3.30898 4.09651 0
M  V30 18522 H 1865.5 -2.04706 3.17654 0
M  V30 18523 H 1865.81 -3.64689 6.81338 0
M  V30 18524 H 1864.16 -3.28587 6.12418 0
M  V30 18525 H 1867.35 -2.46444 3.97974 0
M  V30 18526 H 1867.52 -3.19417 5.63806 0
M  V30 18527 N 1860.93 -1.25042 -0.959279 0
M  V30 18528 C 1862.15 -1.12339 -1.74341 0
M  V30 18529 C 1862.58 0.319342 -1.85369 0
M  V30 18530 O 1861.94 1.23129 -1.33075 0
M  V30 18531 C 1861.98 -1.77734 -3.13756 0
M  V30 18532 O 1861.09 -1.05383 -3.98708 0
M  V30 18533 H 1860.43 -0.392479 -0.535589 0
M  V30 18534 H 1862.96 -1.65516 -1.20274 0
M  V30 18535 H 1862.97 -1.83832 -3.64239 0
M  V30 18536 H 1861.64 -2.82702 -3.05045 0
M  V30 18537 H 1860.22 -1.07132 -3.57179 0
M  V30 18538 N 1862.41 1.16121 -1.06553 0
M  V30 18539 C 1863.35 2.22656 -0.672827 0
M  V30 18540 C 1864.35 1.66492 0.312509 0
M  V30 18541 O 1865.55 1.79127 0.17709 0
M  V30 18542 H 1861.93 0.725064 -0.199464 0
M  V30 18543 H 1863.9 2.53065 -1.58116 0
M  V30 18544 C 1862.65 3.47612 -0.0780782 0
M  V30 18545 H 1861.97 3.91145 -0.82739 0
M  V30 18546 H 1863.41 4.23701 0.159143 0
M  V30 18547 C 1861.87 3.15594 1.17906 0
M  V30 18548 O 1862.4 3.31641 2.26665 0
M  V30 18549 N 1860.61 2.69703 1.08206 0
M  V30 18550 H 1860.15 2.56846 0.196981 0
M  V30 18551 H 1860.11 2.48654 1.92402 0
M  V30 18552 N 1863.88 0.848487 1.3281 0
M  V30 18553 C 1865.13 0.44797 1.97073 0
M  V30 18554 C 1865.45 -0.998358 1.67505 0
M  V30 18555 O 1864.72 -1.69683 0.97901 0
M  V30 18556 H 1863.3 0.162663 0.729075 0
M  V30 18557 H 1865.97 1.08356 1.62003 0
M  V30 18558 H 1865.06 0.587939 3.06512 0
M  V30 18559 N 1865.36 -1.4549 0.605832 0
M  V30 18560 C 1866.31 -2.30518 -0.114038 0
M  V30 18561 C 1867.28 -1.42 -0.861703 0
M  V30 18562 O 1868.46 -1.7093 -0.847788 0
M  V30 18563 C 1865.6 -3.26876 -1.10661 0
M  V30 18564 C 1864.72 -4.30497 -0.359999 0
M  V30 18565 C 1863.85 -5.13965 -1.34214 0
M  V30 18566 C 1862.89 -6.09315 -0.58324 0
M  V30 18567 N 1862.03 -6.85569 -1.51457 0
M  V30 18568 H 1866.87 -2.91542 0.617043 0
M  V30 18569 H 1864.41 -1.43664 0.31609 0
M  V30 18570 H 1866.36 -3.81207 -1.69519 0
M  V30 18571 H 1864.99 -2.6761 -1.80512 0
M  V30 18572 H 1864.05 -3.78841 0.344058 0
M  V30 18573 H 1865.36 -4.98259 0.232208 0
M  V30 18574 H 1864.51 -5.72688 -2.00283 0
M  V30 18575 H 1863.25 -4.46218 -1.96828 0
M  V30 18576 H 1862.26 -5.49725 0.0910986 0
M  V30 18577 H 1863.48 -6.79089 0.0378268 0
M  V30 18578 H 1861.43 -6.20512 -2.12839 0
M  V30 18579 H 1861.34 -7.49677 -0.97576 0
M  V30 18580 H 1862.61 -7.48834 -2.1649 0
M  V30 18581 N 1866.84 -0.344893 -1.5378 0
M  V30 18582 C 1868.09 0.244249 -2.01928 0
M  V30 18583 C 1868.44 1.48091 -1.22829 0
M  V30 18584 O 1867.73 1.89109 -0.307945 0
M  V30 18585 C 1867.93 0.609495 -3.52165 0
M  V30 18586 C 1867.76 -0.590217 -4.4581 0
M  V30 18587 C 1866.53 -1.09594 -4.93272 0
M  V30 18588 C 1868.73 -1.44908 -4.93463 0
M  V30 18589 N 1866.71 -2.25784 -5.70872 0
M  V30 18590 C 1868.08 -2.45787 -5.692 0
M  V30 18591 C 1870.13 -1.47437 -4.7557 0
M  V30 18592 C 1868.84 -3.49026 -6.28946 0
M  V30 18593 C 1870.86 -2.49558 -5.36167 0
M  V30 18594 C 1870.22 -3.49162 -6.11772 0
M  V30 18595 H 1866.32 0.0526462 -0.780226 0
M  V30 18596 H 1868.91 -0.484763 -1.88569 0
M  V30 18597 H 1867.08 1.30761 -3.65727 0
M  V30 18598 H 1868.81 1.18194 -3.87056 0
M  V30 18599 H 1865.57 -0.663814 -4.68925 0
M  V30 18600 H 1865.99 -2.84451 -6.14342 0
M  V30 18601 H 1870.63 -0.717913 -4.1666 0
M  V30 18602 H 1868.35 -4.25566 -6.86964 0
M  V30 18603 H 1871.94 -2.52343 -5.24227 0
M  V30 18604 H 1870.82 -4.26887 -6.57827 0
M  V30 18605 N 1868.32 1.57428 -0.0735454 0
M  V30 18606 C 1869.6 1.84962 0.636265 0
M  V30 18607 C 1869.98 0.966341 1.87683 0
M  V30 18608 O 1869.32 0.0330837 2.28476 0
M  V30 18609 C 1869.53 3.35184 0.972251 0
M  V30 18610 C 1870.88 4.02735 1.34499 0
M  V30 18611 O 1871.91 3.3994 1.06393 0
M  V30 18612 O 1870.76 5.13495 1.87043 0
M  V30 18613 H 1867.86 0.764169 0.316187 0
M  V30 18614 H 1870.4 1.69377 -0.104609 0
M  V30 18615 H 1869.18 3.91194 0.0912319 0
M  V30 18616 H 1868.8 3.56038 1.76983 0
M  V30 18617 N 1869.8 -0.200022 1.56326 0
M  V30 18618 C 1871.21 -0.550653 1.498 0
M  V30 18619 C 1871.41 -1.86097 0.772664 0
M  V30 18620 O 1870.47 -2.50449 0.321155 0
M  V30 18621 C 1871.78 -0.60995 2.94449 0
M  V30 18622 C 1873.33 -0.699119 3.05092 0
M  V30 18623 C 1873.8 -0.78957 4.51143 0
M  V30 18624 N 1875.3 -0.853228 4.55274 0
M  V30 18625 C 1876.03 -0.943298 5.65588 0
M  V30 18626 N 1875.53 -0.995976 6.85603 0
M  V30 18627 N 1877.32 -0.980106 5.53489 0
M  V30 18628 H 1869.47 0.659543 2.019 0
M  V30 18629 H 1871.73 0.234299 0.91859 0
M  V30 18630 H 1871.44 0.283651 3.50554 0
M  V30 18631 H 1871.31 -1.46632 3.47533 0
M  V30 18632 H 1873.7 -1.58315 2.49039 0
M  V30 18633 H 1873.78 0.183351 2.55142 0
M  V30 18634 H 1873.43 0.0900924 5.0782 0
M  V30 18635 H 1873.36 -1.68777 4.9882 0
M  V30 18636 H 1875.85 -0.821964 3.68853 0
M  V30 18637 H 1876.16 -1.06508 7.65425 0
M  V30 18638 H 1874.5 -0.964738 6.88272 0
M  V30 18639 H 1877.7 -0.935755 4.58652 0
M  V30 18640 H 1877.87 -1.04684 6.39488 0
M  V30 18641 N 1871.27 -1.50505 -0.467553 0
M  V30 18642 C 1872.69 -1.54489 -1.04833 0
M  V30 18643 C 1873.04 -0.350468 -1.93044 0
M  V30 18644 O 1872.16 0.536238 -2.09651 0
M  V30 18645 C 1872.76 -2.79967 -1.90799 0
M  V30 18646 C 1871.32 -2.86621 -2.43979 0
M  V30 18647 C 1870.46 -2.48819 -1.22412 0
M  V30 18648 H 1873.41 -1.56718 -0.250025 0
M  V30 18649 H 1873.43 -2.62022 -2.75907 0
M  V30 18650 H 1872.95 -3.66881 -1.2657 0
M  V30 18651 H 1871.05 -2.04066 -3.11749 0
M  V30 18652 H 1871.16 -3.89594 -2.78843 0
M  V30 18653 H 1869.52 -2.01335 -1.56001 0
M  V30 18654 H 1870.31 -3.38044 -0.598405 0
M  V30 18655 N 1872.75 0.720973 -1.40142 0
M  V30 18656 C 1873.68 1.8457 -1.35891 0
M  V30 18657 C 1874.7 1.60625 -0.265232 0
M  V30 18658 O 1875.89 1.70599 -0.525198 0
M  V30 18659 C 1872.99 3.20871 -1.09064 0
M  V30 18660 C 1872.16 3.72058 -2.29982 0
M  V30 18661 C 1871.22 4.86957 -1.99397 0
M  V30 18662 O 1870.24 4.99888 -2.72213 0
M  V30 18663 N 1871.45 5.72361 -0.968645 0
M  V30 18664 H 1874.21 1.88717 -2.32822 0
M  V30 18665 H 1871.77 0.902293 -1.34426 0
M  V30 18666 H 1873.76 3.95326 -0.865979 0
M  V30 18667 H 1872.33 3.11906 -0.208188 0
M  V30 18668 H 1871.55 2.88795 -2.68312 0
M  V30 18669 H 1872.84 4.02991 -3.10605 0
M  V30 18670 H 1872.24 5.64518 -0.36546 0
M  V30 18671 H 1870.8 6.46824 -0.803886 0
M  V30 18672 N 1874.23 1.25549 0.952634 0
M  V30 18673 C 1875.48 1.09811 1.69188 0
M  V30 18674 C 1875.79 -0.360368 1.92252 0
M  V30 18675 O 1877 -0.638228 2.63892 0
M  V30 18676 C 1875.45 1.91693 3.04601 0
M  V30 18677 C 1875.06 3.42045 2.89326 0
M  V30 18678 C 1876.81 1.8453 3.82294 0
M  V30 18679 C 1874.71 4.16216 4.20141 0
M  V30 18680 H 1873.64 0.40733 0.634507 0
M  V30 18681 H 1876.29 1.49762 1.06035 0
M  V30 18682 H 1874.68 1.44566 3.68669 0
M  V30 18683 H 1875.85 3.96859 2.34178 0
M  V30 18684 H 1874.17 3.50322 2.25085 0
M  V30 18685 H 1876.76 2.37237 4.79189 0
M  V30 18686 H 1877.11 0.81361 4.08272 0
M  V30 18687 H 1877.64 2.29418 3.2498 0
M  V30 18688 H 1874.38 5.19806 3.99352 0
M  V30 18689 H 1873.9 3.66184 4.75047 0
M  V30 18690 H 1875.58 4.2404 4.88671 0
M  V30 18691 N 1875.71 -1.15554 1.07168 0
M  V30 18692 C 1876.95 -1.86572 0.794894 0
M  V30 18693 C 1877.29 -1.82007 -0.677276 0
M  V30 18694 O 1876.56 -1.2419 -1.4969 0
M  V30 18695 C 1876.85 -3.35762 1.30137 0
M  V30 18696 C 1876.7 -3.4897 2.83796 0
M  V30 18697 C 1878.02 -4.30453 0.916402 0
M  V30 18698 H 1875.14 -0.677448 0.29023 0
M  V30 18699 H 1877.78 -1.35772 1.32914 0
M  V30 18700 H 1875.93 -3.79156 0.846915 0
M  V30 18701 H 1877.6 -3.14452 3.37517 0
M  V30 18702 H 1875.84 -2.9059 3.22087 0
M  V30 18703 H 1876.51 -4.53782 3.14302 0
M  V30 18704 H 1878.99 -3.95008 1.30797 0
M  V30 18705 H 1877.87 -5.33329 1.29814 0
M  V30 18706 H 1878.13 -4.41742 -0.17785 0
M  V30 18707 N 1877.19 -0.855519 -1.32358 0
M  V30 18708 C 1878.43 -0.465622 -1.99026 0
M  V30 18709 C 1878.79 0.960971 -1.66221 0
M  V30 18710 O 1879.99 1.45547 -2.25986 0
M  V30 18711 C 1878.26 -0.698892 -3.505 0
M  V30 18712 S 1879.82 -0.406697 -4.36911 0
M  V30 18713 H 1876.64 -0.1744 -0.689279 0
M  V30 18714 H 1879.24 -1.10842 -1.61041 0
M  V30 18715 H 1877.95 -1.73623 -3.71865 0
M  V30 18716 H 1877.48 -0.0425537 -3.93377 0
M  V30 18717 H 1879.49 0.766931 -4.90237 0
M  V30 18718 N 1878.67 1.45167 -0.61354 0
M  V30 18719 C 1879.89 2.06565 -0.117608 0
M  V30 18720 C 1880.31 1.45716 1.20051 0
M  V30 18721 O 1879.67 0.573512 1.73254 0
M  V30 18722 C 1879.72 3.61493 0.0221474 0
M  V30 18723 O 1879.44 4.20072 -1.24383 0
M  V30 18724 C 1880.94 4.39889 0.548841 0
M  V30 18725 H 1878.16 0.667172 -0.0715756 0
M  V30 18726 H 1880.7 1.86318 -0.84296 0
M  V30 18727 H 1878.86 3.81063 0.697854 0
M  V30 18728 H 1879.27 5.13317 -1.07733 0
M  V30 18729 H 1880.75 5.48776 0.595696 0
M  V30 18730 H 1881.22 4.1009 1.57234 0
M  V30 18731 H 1881.83 4.25198 -0.0930203 0
M  V30 18732 N 1880.14 0.353044 1.53595 0
M  V30 18733 C 1881.09 -0.499326 2.25334 0
M  V30 18734 C 1882.06 -1.08781 1.25522 0
M  V30 18735 O 1883.25 -1.12265 1.54276 0
M  V30 18736 C 1880.39 -1.63955 3.03666 0
M  V30 18737 C 1879.5 -1.07745 4.18348 0
M  V30 18738 C 1878.63 -2.18575 4.84147 0
M  V30 18739 C 1877.67 -1.59765 5.90882 0
M  V30 18740 N 1876.81 -2.64376 6.50423 0
M  V30 18741 H 1881.65 0.118959 2.97762 0
M  V30 18742 H 1879.19 0.0704777 1.46931 0
M  V30 18743 H 1881.14 -2.31097 3.47347 0
M  V30 18744 H 1879.77 -2.22868 2.33516 0
M  V30 18745 H 1878.83 -0.296678 3.79241 0
M  V30 18746 H 1880.14 -0.607375 4.95088 0
M  V30 18747 H 1879.29 -2.93563 5.30948 0
M  V30 18748 H 1878.03 -2.68929 4.06852 0
M  V30 18749 H 1877.04 -0.832863 5.43455 0
M  V30 18750 H 1878.26 -1.10251 6.70091 0
M  V30 18751 H 1876.21 -3.13968 5.75986 0
M  V30 18752 H 1876.12 -2.22019 7.22664 0
M  V30 18753 H 1877.39 -3.39105 7.01875 0
M  V30 18754 N 1881.62 -1.57387 0.0818932 0
M  V30 18755 C 1883.03 -1.81214 -0.449254 0
M  V30 18756 C 1883.38 -0.996563 -1.69006 0
M  V30 18757 O 1882.51 -0.22203 -2.15258 0
M  V30 18758 C 1883.1 -3.28681 -0.821827 0
M  V30 18759 C 1881.66 -3.53319 -1.29779 0
M  V30 18760 C 1880.81 -2.75801 -0.287911 0
M  V30 18761 H 1883.76 -1.55693 0.307486 0
M  V30 18762 H 1883.78 -3.41283 -1.68245 0
M  V30 18763 H 1883.29 -3.88015 0.081441 0
M  V30 18764 H 1881.39 -2.99302 -2.21921 0
M  V30 18765 H 1881.51 -4.61996 -1.26874 0
M  V30 18766 H 1879.87 -2.42867 -0.76731 0
M  V30 18767 H 1880.65 -3.37877 0.607805 0
M  V30 18768 N 1883.1 0.191729 -1.56429 0
M  V30 18769 C 1884.52 0.542701 -1.5009 0
M  V30 18770 C 1884.72 1.85685 -0.782522 0
M  V30 18771 O 1883.77 2.50275 -0.334432 0
M  V30 18772 C 1885.08 0.594326 -2.94768 0
M  V30 18773 C 1886.63 0.682929 -3.05459 0
M  V30 18774 C 1887.11 0.765634 -4.51555 0
M  V30 18775 N 1888.6 0.829072 -4.5572 0
M  V30 18776 C 1889.33 0.91329 -5.6608 0
M  V30 18777 N 1888.83 0.959603 -6.86122 0
M  V30 18778 N 1890.62 0.950739 -5.54001 0
M  V30 18779 H 1882.77 -0.670241 -2.01548 0
M  V30 18780 H 1885.04 -0.239168 -0.917335 0
M  V30 18781 H 1884.74 -0.302238 -3.50399 0
M  V30 18782 H 1884.62 1.44787 -3.48305 0
M  V30 18783 H 1887 1.56992 -2.49875 0
M  V30 18784 H 1887.08 -0.19688 -2.55041 0
M  V30 18785 H 1886.73 -0.117022 -5.07765 0
M  V30 18786 H 1886.66 1.66129 -4.99709 0
M  V30 18787 H 1889.15 0.802391 -3.69283 0
M  V30 18788 H 1889.46 1.02447 -7.65979 0
M  V30 18789 H 1887.81 0.928223 -6.88774 0
M  V30 18790 H 1891 0.911418 -4.59141 0
M  V30 18791 H 1891.17 1.01291 -6.40034 0
M  V30 18792 N 1884.58 1.50751 0.459565 0
M  V30 18793 C 1885.99 1.38432 0.794269 0
M  V30 18794 C 1886.19 0.449353 1.96426 0
M  V30 18795 O 1885.25 -0.103761 2.52287 0
M  V30 18796 C 1886.56 2.80034 1.09551 0
M  V30 18797 C 1888.11 2.8903 1.20127 0
M  V30 18798 C 1888.59 4.3149 1.53558 0
M  V30 18799 N 1890.08 4.34494 1.60527 0
M  V30 18800 C 1890.81 5.41732 1.87921 0
M  V30 18801 N 1890.31 6.59161 2.13258 0
M  V30 18802 N 1892.1 5.29187 1.89519 0
M  V30 18803 H 1884.25 2.10106 -0.311312 0
M  V30 18804 H 1886.51 0.944884 -0.0767974 0
M  V30 18805 H 1886.22 3.50342 0.308751 0
M  V30 18806 H 1886.09 3.17992 2.02882 0
M  V30 18807 H 1888.48 2.18934 1.97869 0
M  V30 18808 H 1888.56 2.546 0.247486 0
M  V30 18809 H 1888.21 5.02128 0.763522 0
M  V30 18810 H 1888.14 4.63416 2.50106 0
M  V30 18811 H 1890.63 3.49824 1.42939 0
M  V30 18812 H 1890.94 7.3669 2.33468 0
M  V30 18813 H 1889.29 6.62315 2.10626 0
M  V30 18814 H 1892.48 4.36439 1.69229 0
M  V30 18815 H 1892.65 6.12846 2.10532 0
M  V30 18816 N 1886.06 -0.713531 1.40522 0
M  V30 18817 C 1887.28 -1.50766 1.42423 0
M  V30 18818 C 1887.71 -1.88082 0.0262417 0
M  V30 18819 O 1887.06 -1.5341 -0.966185 0
M  V30 18820 C 1887.11 -2.75813 2.32291 0
M  V30 18821 O 1886.22 -3.726 1.76758 0
M  V30 18822 H 1885.56 -0.454473 0.484098 0
M  V30 18823 H 1888.09 -0.878583 1.84776 0
M  V30 18824 H 1888.1 -3.2432 2.47549 0
M  V30 18825 H 1886.77 -2.47988 3.33878 0
M  V30 18826 H 1885.35 -3.31455 1.70857 0
M  V30 18827 N 1887.53 -1.26053 -0.945962 0
M  V30 18828 C 1888.48 -1.03869 -2.02966 0
M  V30 18829 C 1889.47 0.0273393 -1.60877 0
M  V30 18830 O 1890.66 -0.189042 -1.75988 0
M  V30 18831 C 1887.79 -0.668594 -3.36726 0
M  V30 18832 C 1886.87 -1.77183 -3.85314 0
M  V30 18833 N 1887.27 -3.00846 -4.06602 0
M  V30 18834 C 1885.56 -1.65434 -4.14183 0
M  V30 18835 C 1886.26 -3.72516 -4.46774 0
M  V30 18836 N 1885.24 -3.00179 -4.53204 0
M  V30 18837 H 1889.04 -1.9774 -2.1743 0
M  V30 18838 H 1886.56 -1.165 -1.13144 0
M  V30 18839 H 1888.55 -0.490833 -4.14001 0
M  V30 18840 H 1887.21 0.262695 -3.23636 0
M  V30 18841 H 1888.22 -3.36802 -3.93427 0
M  V30 18842 H 1884.9 -0.792617 -4.09907 0
M  V30 18843 H 1886.29 -4.78707 -4.71476 0
M  V30 18844 N 1889.01 1.14984 -1.07779 0
M  V30 18845 C 1890.43 1.3786 -0.804164 0
M  V30 18846 C 1890.63 1.92682 0.589572 0
M  V30 18847 O 1889.68 2.13537 1.34752 0
M  V30 18848 C 1891 2.34559 -1.88156 0
M  V30 18849 C 1892.54 2.48212 -1.90683 0
M  V30 18850 C 1893.02 3.48205 -2.97519 0
M  V30 18851 N 1894.51 3.55743 -2.96649 0
M  V30 18852 C 1895.25 4.32946 -3.75959 0
M  V30 18853 N 1894.74 5.13446 -4.65129 0
M  V30 18854 N 1896.53 4.28079 -3.64287 0
M  V30 18855 H 1888.69 0.777434 -1.97661 0
M  V30 18856 H 1890.95 0.404419 -0.857409 0
M  V30 18857 H 1890.65 2.014 -2.88324 0
M  V30 18858 H 1890.53 3.34389 -1.74539 0
M  V30 18859 H 1892.92 2.80665 -0.911642 0
M  V30 18860 H 1893 1.48365 -2.08378 0
M  V30 18861 H 1892.64 3.16485 -3.9724 0
M  V30 18862 H 1892.57 4.47817 -2.77069 0
M  V30 18863 H 1895.06 2.98291 -2.32014 0
M  V30 18864 H 1895.37 5.69612 -5.22267 0
M  V30 18865 H 1893.72 5.12737 -4.69176 0
M  V30 18866 H 1896.91 3.64257 -2.93997 0
M  V30 18867 H 1897.08 4.87996 -4.26337 0
M  V30 18868 N 1890.49 0.862526 1.31902 0
M  V30 18869 C 1891.42 0.257591 2.26742 0
M  V30 18870 C 1892.4 -0.60897 1.50766 0
M  V30 18871 O 1893.58 -0.564038 1.79863 0
M  V30 18872 C 1890.71 -0.635938 3.32676 0
M  V30 18873 C 1889.76 0.158282 4.26206 0
M  V30 18874 S 1890.59 1.53189 5.13121 0
M  V30 18875 C 1891.75 0.644287 6.22575 0
M  V30 18876 H 1891.98 1.06154 2.77702 0
M  V30 18877 H 1889.51 0.660611 1.39554 0
M  V30 18878 H 1891.47 -1.1458 3.94185 0
M  V30 18879 H 1890.13 -1.41377 2.80484 0
M  V30 18880 H 1889.32 -0.522612 5.01283 0
M  V30 18881 H 1888.93 0.599986 3.69156 0
M  V30 18882 H 1891.22 -0.148223 6.77338 0
M  V30 18883 H 1892.16 1.36595 6.948 0
M  V30 18884 H 1892.57 0.215137 5.6409 0
M  V30 18885 N 1891.97 -1.4484 0.62123 0
M  V30 18886 C 1893.38 -1.57016 0.286009 0
M  V30 18887 C 1893.58 -1.6104 -1.21113 0
M  V30 18888 O 1892.64 -1.54807 -1.99477 0
M  V30 18889 C 1893.95 -2.84652 0.969209 0
M  V30 18890 C 1895.5 -2.98349 0.946414 0
M  V30 18891 C 1895.98 -4.28773 1.60989 0
M  V30 18892 N 1897.47 -4.35564 1.57601 0
M  V30 18893 C 1898.2 -5.3518 2.0584 0
M  V30 18894 N 1897.7 -6.41256 2.62226 0
M  V30 18895 N 1899.49 -5.26625 1.96527 0
M  V30 18896 H 1891.64 -1.40471 1.59316 0
M  V30 18897 H 1893.91 -0.672493 0.668174 0
M  V30 18898 H 1893.61 -2.87629 2.02392 0
M  V30 18899 H 1893.49 -3.7386 0.500859 0
M  V30 18900 H 1895.87 -2.94931 -0.0997935 0
M  V30 18901 H 1895.95 -2.10516 1.45316 0
M  V30 18902 H 1895.6 -4.3295 2.65549 0
M  V30 18903 H 1895.53 -5.15447 1.07805 0
M  V30 18904 H 1898.02 -3.59519 1.16424 0
M  V30 18905 H 1898.33 -7.13536 2.96792 0
M  V30 18906 H 1896.68 -6.41969 2.66272 0
M  V30 18907 H 1899.87 -4.42664 1.52206 0
M  V30 18908 H 1900.04 -6.04107 2.34434 0
M  V30 18909 N 1893.45 -0.361184 -1.53405 0
M  V30 18910 C 1894.86 -0.00994785 -1.59597 0
M  V30 18911 C 1895.06 1.47156 -1.37649 0
M  V30 18912 O 1894.12 2.23259 -1.17947 0
M  V30 18913 C 1895.43 -0.461942 -2.97131 0
M  V30 18914 C 1896.98 -0.415787 -3.10226 0
M  V30 18915 C 1897.45 -0.843524 -4.50165 0
M  V30 18916 N 1898.95 -0.798408 -4.56267 0
M  V30 18917 C 1899.68 -1.10112 -5.62728 0
M  V30 18918 N 1899.18 -1.47288 -6.76962 0
M  V30 18919 N 1900.97 -1.0242 -5.5269 0
M  V30 18920 H 1893.12 -1.32601 -1.65924 0
M  V30 18921 H 1895.38 -0.541705 -0.777985 0
M  V30 18922 H 1895.09 -1.49559 -3.18316 0
M  V30 18923 H 1894.96 0.15373 -3.76887 0
M  V30 18924 H 1897.35 0.608719 -2.88754 0
M  V30 18925 H 1897.43 -1.0669 -2.32489 0
M  V30 18926 H 1897.08 -1.86612 -4.72375 0
M  V30 18927 H 1897.01 -0.16971 -5.26326 0
M  V30 18928 H 1899.5 -0.524463 -3.74243 0
M  V30 18929 H 1899.81 -1.68824 -7.54134 0
M  V30 18930 H 1898.15 -1.51149 -6.78365 0
M  V30 18931 H 1901.35 -0.732979 -4.62326 0
M  V30 18932 H 1901.52 -1.26344 -6.35564 0
M  V30 18933 N 1894.92 1.57341 -0.0902386 0
M  V30 18934 C 1895.87 2.10293 0.880961 0
M  V30 18935 C 1896.86 1.01683 1.24697 0
M  V30 18936 O 1898.05 1.27965 1.22286 0
M  V30 18937 C 1895.18 2.68293 2.14182 0
M  V30 18938 C 1894.27 3.83938 1.80146 0
M  V30 18939 N 1894.66 4.92166 1.16646 0
M  V30 18940 C 1892.95 3.93581 2.09785 0
M  V30 18941 C 1893.66 5.72845 1.01113 0
M  V30 18942 N 1892.63 5.21716 1.52686 0
M  V30 18943 H 1896.43 2.91354 0.385979 0
M  V30 18944 H 1893.95 1.62006 0.113118 0
M  V30 18945 H 1895.94 3.04555 2.84697 0
M  V30 18946 H 1894.6 1.88685 2.6425 0
M  V30 18947 H 1895.62 5.11143 0.833854 0
M  V30 18948 H 1892.29 3.24975 2.62102 0
M  V30 18949 H 1893.68 6.69924 0.514913 0
M  V30 18950 N 1896.4 -0.183431 1.56529 0
M  V30 18951 C 1897.35 -1.23162 1.91873 0
M  V30 18952 C 1898.34 -1.40413 0.785677 0
M  V30 18953 O 1899.53 -1.42588 1.0487 0
M  V30 18954 C 1896.66 -2.57382 2.27177 0
M  V30 18955 C 1895.74 -2.43875 3.46967 0
M  V30 18956 N 1896.13 -2.00063 4.64552 0
M  V30 18957 C 1894.43 -2.74736 3.51335 0
M  V30 18958 C 1895.13 -1.98728 5.46701 0
M  V30 18959 N 1894.11 -2.40674 4.87418 0
M  V30 18960 H 1897.91 -0.884396 2.80278 0
M  V30 18961 H 1895.43 -0.391791 1.57603 0
M  V30 18962 H 1897.42 -3.33109 2.50687 0
M  V30 18963 H 1896.08 -2.92918 1.40104 0
M  V30 18964 H 1897.09 -1.7059 4.88999 0
M  V30 18965 H 1893.77 -3.1439 2.74709 0
M  V30 18966 H 1895.16 -1.66657 6.50903 0
M  V30 18967 N 1897.88 -1.50992 -0.451564 0
M  V30 18968 C 1898.83 -1.67662 -1.5451 0
M  V30 18969 C 1899.81 -0.53081 -1.51892 0
M  V30 18970 O 1901.01 -0.786103 -1.58586 0
M  V30 18971 C 1898.14 -1.79204 -2.92815 0
M  V30 18972 C 1897.22 -2.99524 -3.00244 0
M  V30 18973 N 1897.61 -4.22917 -2.77443 0
M  V30 18974 C 1895.91 -2.98485 -3.31395 0
M  V30 18975 C 1896.61 -5.04058 -2.90346 0
M  V30 18976 N 1895.59 -4.3841 -3.21399 0
M  V30 18977 H 1899.39 -2.60742 -1.35612 0
M  V30 18978 H 1896.9 -1.48444 -0.658639 0
M  V30 18979 H 1898.9 -1.89254 -3.71468 0
M  V30 18980 H 1897.56 -0.872954 -3.12745 0
M  V30 18981 H 1898.57 -4.52096 -2.52645 0
M  V30 18982 H 1895.25 -2.16153 -3.57189 0
M  V30 18983 H 1896.64 -6.12238 -2.76792 0
M  V30 18984 N 1899.36 0.706069 -1.40899 0
M  V30 18985 C 1900.31 1.81196 -1.38391 0
M  V30 18986 C 1901.29 1.58787 -0.259924 0
M  V30 18987 O 1902.48 1.69798 -0.499779 0
M  V30 18988 C 1899.61 3.19411 -1.25823 0
M  V30 18989 C 1898.7 3.47551 -2.43042 0
M  V30 18990 N 1899.09 3.4645 -3.68519 0
M  V30 18991 C 1897.39 3.78052 -2.36627 0
M  V30 18992 C 1898.09 3.73201 -4.46202 0
M  V30 18993 N 1897.07 3.92424 -3.76171 0
M  V30 18994 H 1900.87 1.78692 -2.33338 0
M  V30 18995 H 1898.38 0.90561 -1.34805 0
M  V30 18996 H 1900.38 3.98617 -1.22108 0
M  V30 18997 H 1899.04 3.23134 -0.31852 0
M  V30 18998 H 1900.05 3.27076 -4.01549 0
M  V30 18999 H 1896.73 3.89208 -1.51074 0
M  V30 19000 H 1898.12 3.78574 -5.55096 0
M  V30 19001 N 1900.84 1.26553 0.939264 0
M  V30 19002 C 1901.79 1.04944 2.02412 0
M  V30 19003 C 1902.77 -0.0188072 1.60889 0
M  V30 19004 O 1903.96 0.198373 1.75885 0
M  V30 19005 C 1901.09 0.686442 3.36367 0
M  V30 19006 C 1900.18 1.79224 3.84369 0
M  V30 19007 N 1900.57 3.02998 4.05001 0
M  V30 19008 C 1898.87 1.67628 4.133 0
M  V30 19009 C 1899.57 3.7488 4.44792 0
M  V30 19010 N 1898.54 3.02578 4.51605 0
M  V30 19011 H 1902.35 1.98891 2.16379 0
M  V30 19012 H 1899.86 1.17098 1.12525 0
M  V30 19013 H 1901.86 0.512782 4.13734 0
M  V30 19014 H 1900.52 -0.245528 3.2377 0
M  V30 19015 H 1901.53 3.38883 3.91636 0
M  V30 19016 H 1898.2 0.814344 4.09481 0
M  V30 19017 H 1899.59 4.812 4.68931 0
M  V30 19018 N 1902.31 -1.14411 1.08387 0
M  V30 19019 C 1903.25 -2.19141 0.671565 0
M  V30 19020 C 1904.26 -1.60352 -0.281256 0
M  V30 19021 O 1905.45 -1.78367 -0.0689422 0
M  V30 19022 C 1902.55 -3.38884 -0.0326447 0
M  V30 19023 C 1901.72 -4.27201 0.939024 0
M  V30 19024 C 1900.78 -5.25506 0.270176 0
M  V30 19025 O 1899.81 -5.61805 0.914522 0
M  V30 19026 N 1901.01 -5.72168 -0.980002 0
M  V30 19027 H 1903.77 -2.5513 1.57254 0
M  V30 19028 H 1901.33 -1.2963 0.969931 0
M  V30 19029 H 1903.33 -4.0171 -0.491035 0
M  V30 19030 H 1901.9 -3.01222 -0.835708 0
M  V30 19031 H 1901.12 -3.61314 1.57626 0
M  V30 19032 H 1902.4 -4.83072 1.59746 0
M  V30 19033 H 1901.8 -5.44806 -1.52325 0
M  V30 19034 H 1900.36 -6.36983 -1.38189 0
M  V30 19035 N 1903.79 -0.869509 -1.31443 0
M  V30 19036 C 1904.74 -0.296524 -2.26064 0
M  V30 19037 C 1905.73 0.566171 -1.5061 0
M  V30 19038 O 1906.92 0.413124 -1.72111 0
M  V30 19039 C 1904.05 0.501397 -3.39619 0
M  V30 19040 C 1903.13 -0.374516 -4.22443 0
M  V30 19041 N 1903.52 -1.46777 -4.84035 0
M  V30 19042 C 1901.82 -0.16687 -4.45688 0
M  V30 19043 C 1902.52 -2.00787 -5.45948 0
M  V30 19044 N 1901.5 -1.30494 -5.27705 0
M  V30 19045 H 1905.3 -1.1321 -2.71221 0
M  V30 19046 H 1902.82 -0.71722 -1.45704 0
M  V30 19047 H 1904.81 0.928409 -4.06431 0
M  V30 19048 H 1903.47 1.33459 -2.96005 0
M  V30 19049 H 1904.48 -1.85069 -4.83704 0
M  V30 19050 H 1901.16 0.630411 -4.12713 0
M  V30 19051 H 1902.55 -2.9251 -6.04887 0
M  V30 19052 N 1905.27 1.44508 -0.628902 0
M  V30 19053 C 1906.22 2.27784 0.0991943 0
M  V30 19054 C 1907.2 1.38538 0.818285 0
M  V30 19055 O 1908.4 1.62364 0.704759 0
M  V30 19056 C 1905.53 3.25816 1.0816 0
M  V30 19057 C 1904.61 4.2255 0.362249 0
M  V30 19058 N 1905 5.02133 -0.607915 0
M  V30 19059 C 1903.3 4.4185 0.60699 0
M  V30 19060 C 1904 5.7246 -1.03271 0
M  V30 19061 N 1902.98 5.42326 -0.371966 0
M  V30 19062 H 1906.78 2.86721 -0.645621 0
M  V30 19063 H 1904.29 1.55918 -0.45423 0
M  V30 19064 H 1906.29 3.8423 1.6178 0
M  V30 19065 H 1904.95 2.6844 1.82674 0
M  V30 19066 H 1905.96 5.08435 -0.985626 0
M  V30 19067 H 1902.64 3.95575 1.33517 0
M  V30 19068 H 1904.03 6.46383 -1.83409 0
M  V30 19069 N 1906.75 0.369315 1.53212 0
M  V30 19070 C 1907.7 -0.491919 2.2263 0
M  V30 19071 C 1908.68 -1.0457 1.22286 0
M  V30 19072 O 1909.88 -0.975125 1.47717 0
M  V30 19073 C 1907 -1.62916 3.02181 0
M  V30 19074 C 1906.09 -1.08808 4.09904 0
M  V30 19075 N 1906.48 -0.270291 5.05077 0
M  V30 19076 C 1904.78 -1.36253 4.24678 0
M  V30 19077 C 1905.48 0.0263875 5.81694 0
M  V30 19078 N 1904.46 -0.572239 5.4058 0
M  V30 19079 H 1908.26 0.139657 2.93568 0
M  V30 19080 H 1905.77 0.177531 1.61427 0
M  V30 19081 H 1907.77 -2.25837 3.50433 0
M  V30 19082 H 1906.43 -2.26376 2.32774 0
M  V30 19083 H 1907.44 0.0908158 5.1782 0
M  V30 19084 H 1904.12 -1.99964 3.66498 0
M  V30 19085 H 1905.51 0.687735 6.68371 0
M  V30 19086 N 1908.23 -1.57291 0.0985816 0
M  V30 19087 C 1909.16 -2.11249 -0.889184 0
M  V30 19088 C 1910.17 -1.05051 -1.24371 0
M  V30 19089 O 1911.36 -1.32488 -1.19621 0
M  V30 19090 C 1908.46 -2.58021 -2.19724 0
M  V30 19091 C 1907.63 -3.88091 -2.01752 0
M  V30 19092 C 1906.69 -4.20674 -3.16101 0
M  V30 19093 O 1905.72 -4.89837 -2.89911 0
M  V30 19094 N 1906.92 -3.76356 -4.41969 0
M  V30 19095 H 1909.69 -2.96624 -0.42832 0
M  V30 19096 H 1907.25 -1.61669 -0.0864254 0
M  V30 19097 H 1909.24 -2.76861 -2.95178 0
M  V30 19098 H 1907.81 -1.77638 -2.57223 0
M  V30 19099 H 1907.03 -3.78364 -1.10608 0
M  V30 19100 H 1908.32 -4.7318 -1.87026 0
M  V30 19101 H 1907.72 -3.20533 -4.66128 0
M  V30 19102 H 1906.27 -4.00344 -5.14361 0
M  V30 19103 N 1909.71 0.175127 -1.56624 0
M  V30 19104 C 1910.66 1.22142 -1.92523 0
M  V30 19105 C 1911.64 1.39995 -0.793112 0
M  V30 19106 O 1912.83 1.4203 -1.05625 0
M  V30 19107 C 1909.96 2.56174 -2.28538 0
M  V30 19108 C 1909.05 2.42031 -3.48255 0
M  V30 19109 N 1909.44 1.97597 -4.65606 0
M  V30 19110 C 1907.74 2.72869 -3.52787 0
M  V30 19111 C 1908.44 1.95826 -5.47747 0
M  V30 19112 N 1907.41 2.38086 -4.88688 0
M  V30 19113 H 1911.21 0.869519 -2.80743 0
M  V30 19114 H 1908.73 0.383427 -1.57809 0
M  V30 19115 H 1910.73 3.31775 -2.5245 0
M  V30 19116 H 1909.39 2.92171 -1.41656 0
M  V30 19117 H 1910.4 1.67994 -4.89896 0
M  V30 19118 H 1907.07 3.12929 -2.76373 0
M  V30 19119 H 1908.46 1.63202 -6.51778 0
M  V30 19120 N 1911.18 1.5123 0.44355 0
M  V30 19121 C 1912.13 1.68479 1.53619 0
M  V30 19122 C 1913.12 0.538858 1.51608 0
M  V30 19123 O 1914.31 0.794502 1.58167 0
M  V30 19124 C 1911.44 1.80754 2.91861 0
M  V30 19125 C 1910.52 3.01112 2.98651 0
M  V30 19126 N 1910.92 4.24382 2.75197 0
M  V30 19127 C 1909.21 3.00239 3.29807 0
M  V30 19128 C 1909.91 5.0559 2.87668 0
M  V30 19129 N 1908.89 4.40109 3.1907 0
M  V30 19130 H 1912.69 2.61458 1.34227 0
M  V30 19131 H 1910.21 1.48791 0.650758 0
M  V30 19132 H 1912.2 1.91221 3.70459 0
M  V30 19133 H 1910.86 0.889528 3.12278 0
M  V30 19134 H 1911.87 4.53429 2.50244 0
M  V30 19135 H 1908.55 2.18044 3.56038 0
M  V30 19136 H 1909.94 6.13698 2.73541 0
M  V30 19137 N 1912.66 -0.698586 1.41271 0
M  V30 19138 C 1913.61 -1.80459 1.3935 0
M  V30 19139 C 1914.6 -1.58647 0.268341 0
M  V30 19140 O 1915.79 -1.6953 0.508777 0
M  V30 19141 C 1912.92 -3.18739 1.27515 0
M  V30 19142 C 1912 -3.46257 2.44881 0
M  V30 19143 N 1912.39 -3.44491 3.70351 0
M  V30 19144 C 1910.69 -3.76792 2.38629 0
M  V30 19145 C 1911.39 -3.70829 4.48175 0
M  V30 19146 N 1910.37 -3.90423 3.78247 0
M  V30 19147 H 1914.17 -1.77452 2.34282 0
M  V30 19148 H 1911.68 -0.898448 1.35284 0
M  V30 19149 H 1913.68 -3.97963 1.24221 0
M  V30 19150 H 1912.34 -3.2296 0.335652 0
M  V30 19151 H 1913.35 -3.24942 4.03278 0
M  V30 19152 H 1910.03 -3.88402 1.53136 0
M  V30 19153 H 1911.42 -3.75625 5.57096 0
M  V30 19154 N 1914.14 -1.27049 -0.93254 0
M  V30 19155 C 1915.09 -1.06016 -2.01853 0
M  V30 19156 C 1916.07 0.0102746 -1.60897 0
M  V30 19157 O 1917.27 -0.207698 -1.75777 0
M  V30 19158 C 1914.39 -0.704271 -3.35998 0
M  V30 19159 C 1913.48 -1.8126 -3.83413 0
M  V30 19160 N 1913.87 -3.05142 -4.03388 0
M  V30 19161 C 1912.17 -1.69817 -4.12405 0
M  V30 19162 C 1912.87 -3.77233 -4.42798 0
M  V30 19163 N 1911.85 -3.04969 -4.49994 0
M  V30 19164 H 1915.65 -2.00035 -2.15321 0
M  V30 19165 H 1913.16 -1.17693 -1.11902 0
M  V30 19166 H 1915.16 -0.534716 -4.13457 0
M  V30 19167 H 1913.82 0.228354 -3.23896 0
M  V30 19168 H 1914.83 -3.40955 -3.89833 0
M  V30 19169 H 1911.51 -0.836049 -4.09043 0
M  V30 19170 H 1912.9 -4.8368 -4.66372 0
M  V30 19171 N 1915.62 1.13835 -1.08993 0
M  V30 19172 C 1916.56 2.19107 -0.725298 0
M  V30 19173 C 1917.53 1.63524 0.291368 0
M  V30 19174 O 1918.72 1.90005 0.174014 0
M  V30 19175 C 1915.86 3.44786 -0.147212 0
M  V30 19176 C 1914.97 4.14492 -1.21738 0
M  V30 19177 C 1914.11 5.27772 -0.602519 0
M  V30 19178 C 1913.15 5.89321 -1.65431 0
M  V30 19179 N 1912.28 6.9404 -1.0608 0
M  V30 19180 H 1917.12 2.49646 -1.6273 0
M  V30 19181 H 1914.66 1.22585 -0.813108 0
M  V30 19182 H 1916.62 4.16692 0.205719 0
M  V30 19183 H 1915.25 3.14712 0.718077 0
M  V30 19184 H 1914.3 3.40914 -1.68766 0
M  V30 19185 H 1915.61 4.56325 -2.01417 0
M  V30 19186 H 1914.77 6.06376 -0.198177 0
M  V30 19187 H 1913.51 4.87177 0.225868 0
M  V30 19188 H 1912.51 5.09415 -2.06824 0
M  V30 19189 H 1913.74 6.3199 -2.48528 0
M  V30 19190 H 1911.68 6.5551 -0.253616 0
M  V30 19191 H 1911.6 7.34391 -1.79461 0
M  V30 19192 H 1912.87 7.76506 -0.682517 0
M  V30 19193 N 1917.1 0.876467 1.3098 0
M  V30 19194 C 1918.32 0.504524 2.0117 0
M  V30 19195 C 1918.75 -0.897295 1.65319 0
M  V30 19196 O 1918.1 -1.59321 0.865255 0
M  V30 19197 C 1918.15 0.676516 3.54197 0
M  V30 19198 O 1917.26 -0.28134 4.11439 0
M  V30 19199 H 1916.6 0.199855 0.633209 0
M  V30 19200 H 1919.13 1.18167 1.67026 0
M  V30 19201 H 1919.14 0.572273 4.03967 0
M  V30 19202 H 1917.81 1.69864 3.7963 0
M  V30 19203 H 1916.39 -0.131506 3.72668 0
M  V30 19204 N 1918.57 -1.44173 0.636557 0
M  V30 19205 C 1919.99 -1.56704 0.302646 0
M  V30 19206 C 1920.19 -1.62316 -1.19398 0
M  V30 19207 O 1919.25 -1.56914 -1.97824 0
M  V30 19208 C 1920.56 -2.83608 0.999346 0
M  V30 19209 C 1922.11 -2.97328 0.978005 0
M  V30 19210 C 1922.58 -4.27042 1.65527 0
M  V30 19211 N 1924.07 -4.33868 1.62212 0
M  V30 19212 C 1924.81 -5.32966 2.11505 0
M  V30 19213 N 1924.3 -6.38439 2.69012 0
M  V30 19214 N 1926.1 -5.24511 2.02102 0
M  V30 19215 H 1918.25 -1.38773 1.60797 0
M  V30 19216 H 1920.51 -0.665369 0.675269 0
M  V30 19217 H 1920.22 -2.85466 2.05432 0
M  V30 19218 H 1920.09 -3.73308 0.540484 0
M  V30 19219 H 1922.48 -2.9502 -0.0685065 0
M  V30 19220 H 1922.56 -2.08963 1.47541 0
M  V30 19221 H 1922.2 -4.30109 2.70126 0
M  V30 19222 H 1922.13 -5.14275 1.13266 0
M  V30 19223 H 1924.62 -3.58264 1.20231 0
M  V30 19224 H 1924.94 -7.10348 3.04344 0
M  V30 19225 H 1923.28 -6.39109 2.73066 0
M  V30 19226 H 1926.47 -4.41024 1.56892 0
M  V30 19227 H 1926.65 -6.01586 2.40828 0
M  V30 19228 N 1920.05 -0.377435 -1.53014 0
M  V30 19229 C 1921 0.463415 -2.261 0
M  V30 19230 C 1921.97 1.06771 -1.27237 0
M  V30 19231 O 1923.15 1.09797 -1.56043 0
M  V30 19232 C 1920.29 1.59103 -3.06236 0
M  V30 19233 C 1919.41 1.01076 -4.20009 0
M  V30 19234 C 1918.54 2.10845 -4.87563 0
M  V30 19235 C 1917.58 1.50345 -5.93349 0
M  V30 19236 N 1916.72 2.53995 -6.54546 0
M  V30 19237 H 1921.56 -0.166315 -2.97536 0
M  V30 19238 H 1919.09 -0.0938442 -1.468 0
M  V30 19239 H 1921.05 2.25542 -3.5098 0
M  V30 19240 H 1919.68 2.19125 -2.37032 0
M  V30 19241 H 1918.73 0.236306 -3.79665 0
M  V30 19242 H 1920.05 0.528534 -4.95992 0
M  V30 19243 H 1919.2 2.85079 -5.35551 0
M  V30 19244 H 1917.94 2.62423 -4.11079 0
M  V30 19245 H 1916.94 0.746299 -5.44711 0
M  V30 19246 H 1918.17 0.995763 -6.7176 0
M  V30 19247 H 1916.12 3.04765 -5.80908 0
M  V30 19248 H 1916.03 2.10494 -7.26105 0
M  V30 19249 H 1917.3 3.27896 -7.07181 0
M  V30 19250 N 1921.53 1.57237 -0.106922 0
M  V30 19251 C 1922.44 2.18202 0.861685 0
M  V30 19252 C 1923.46 1.15476 1.30159 0
M  V30 19253 O 1924.63 1.47896 1.36707 0
M  V30 19254 C 1921.7 2.7598 2.09847 0
M  V30 19255 C 1920.76 3.93702 1.71164 0
M  V30 19256 C 1919.99 4.48716 2.88946 0
M  V30 19257 O 1920.21 4.02645 4.04021 0
M  V30 19258 O 1919.15 5.39573 2.66729 0
M  V30 19259 H 1922.97 3.01402 0.372924 0
M  V30 19260 H 1920.56 1.48933 0.118058 0
M  V30 19261 H 1922.44 3.12861 2.82305 0
M  V30 19262 H 1921.12 1.9582 2.57753 0
M  V30 19263 H 1920.02 3.61613 0.958499 0
M  V30 19264 H 1921.36 4.75262 1.28011 0
M  V30 19265 N 1923.01 -0.166818 1.56715 0
M  V30 19266 C 1924.42 -0.518754 1.50934 0
M  V30 19267 C 1924.62 -1.84416 0.811964 0
M  V30 19268 O 1923.68 -2.49712 0.374207 0
M  V30 19269 C 1924.99 -0.547356 2.95676 0
M  V30 19270 C 1926.54 -0.634247 3.06507 0
M  V30 19271 C 1927.02 -0.693699 4.52716 0
M  V30 19272 N 1928.51 -0.756466 4.56981 0
M  V30 19273 C 1929.24 -0.823116 5.67461 0
M  V30 19274 N 1928.74 -0.850325 6.87562 0
M  V30 19275 N 1930.53 -0.862482 5.55444 0
M  V30 19276 H 1922.68 0.70222 2.00456 0
M  V30 19277 H 1924.95 0.253731 0.913414 0
M  V30 19278 H 1924.65 0.357945 3.49874 0
M  V30 19279 H 1924.53 -1.39227 3.50565 0
M  V30 19280 H 1926.91 -1.52997 2.52341 0
M  V30 19281 H 1926.99 0.23743 2.54696 0
M  V30 19282 H 1926.64 0.197788 5.07515 0
M  V30 19283 H 1926.57 -1.58158 5.02288 0
M  V30 19284 H 1929.06 -0.74354 3.70513 0
M  V30 19285 H 1929.37 -0.902481 7.67512 0
M  V30 19286 H 1927.72 -0.818528 6.90163 0
M  V30 19287 H 1930.91 -0.838257 4.60533 0
M  V30 19288 H 1931.08 -0.910962 6.41565 0
M  V30 19289 N 1924.49 -1.51463 -0.435524 0
M  V30 19290 C 1925.9 -1.39679 -0.772145 0
M  V30 19291 C 1926.1 -0.480546 -1.95686 0
M  V30 19292 O 1925.16 0.063611 -2.5242 0
M  V30 19293 C 1926.47 -2.81742 -1.05082 0
M  V30 19294 C 1928.02 -2.90905 -1.15514 0
M  V30 19295 C 1928.49 -4.33879 -1.46674 0
M  V30 19296 N 1929.99 -4.36993 -1.53594 0
M  V30 19297 C 1930.72 -5.44653 -1.79279 0
M  V30 19298 N 1930.22 -6.6247 -2.02744 0
M  V30 19299 N 1932.01 -5.32135 -1.81076 0
M  V30 19300 H 1924.16 -2.09584 0.344699 0
M  V30 19301 H 1926.42 -0.943543 0.0918199 0
M  V30 19302 H 1926.13 -3.50789 -0.252975 0
M  V30 19303 H 1926 -3.21179 -1.97798 0
M  V30 19304 H 1928.39 -2.22054 -1.94361 0
M  V30 19305 H 1928.47 -2.54961 -0.20695 0
M  V30 19306 H 1928.12 -5.03279 -0.683541 0
M  V30 19307 H 1928.05 -4.67337 -2.42702 0
M  V30 19308 H 1930.54 -3.52054 -1.37356 0
M  V30 19309 H 1930.85 -7.40311 -2.21718 0
M  V30 19310 H 1929.19 -6.65582 -2.00063 0
M  V30 19311 H 1932.39 -4.39076 -1.62264 0
M  V30 19312 H 1932.56 -6.16118 -2.00756 0
M  V30 19313 N 1925.96 0.691085 -1.4164 0
M  V30 19314 C 1926.91 1.80495 -1.43841 0
M  V30 19315 C 1927.88 1.63509 -0.292237 0
M  V30 19316 O 1929.07 1.84296 -0.493941 0
M  V30 19317 C 1926.21 3.18412 -1.33072 0
M  V30 19318 C 1925.32 3.46799 -2.57594 0
M  V30 19319 C 1924.45 4.74354 -2.39085 0
M  V30 19320 C 1923.49 4.95723 -3.59061 0
M  V30 19321 N 1922.63 6.14507 -3.39596 0
M  V30 19322 H 1927.47 1.77949 -2.39036 0
M  V30 19323 H 1925.01 0.86893 -1.18693 0
M  V30 19324 H 1926.97 3.98087 -1.24829 0
M  V30 19325 H 1925.6 3.20124 -0.414814 0
M  V30 19326 H 1924.65 2.61496 -2.76268 0
M  V30 19327 H 1925.96 3.58489 -3.46824 0
M  V30 19328 H 1925.11 5.62092 -2.28336 0
M  V30 19329 H 1923.85 4.64918 -1.47319 0
M  V30 19330 H 1922.86 4.06432 -3.70261 0
M  V30 19331 H 1924.08 5.07015 -4.51788 0
M  V30 19332 H 1922.03 6.06275 -2.50532 0
M  V30 19333 H 1921.95 6.26985 -4.22405 0
M  V30 19334 H 1923.21 7.04968 -3.32627 0
M  V30 19335 N 1927.44 1.27542 0.925789 0
M  V30 19336 C 1928.39 1.07085 2.01288 0
M  V30 19337 C 1929.38 -0.0017417 1.609 0
M  V30 19338 O 1930.57 0.217017 1.75665 0
M  V30 19339 C 1927.7 0.72208 3.3562 0
M  V30 19340 C 1926.78 1.83291 3.82446 0
M  V30 19341 N 1927.17 3.07277 4.01764 0
M  V30 19342 C 1925.47 1.72002 4.11499 0
M  V30 19343 C 1926.17 3.79576 4.40791 0
M  V30 19344 N 1925.15 3.07351 4.48371 0
M  V30 19345 H 1928.95 2.01175 2.14257 0
M  V30 19346 H 1926.47 1.18285 1.11277 0
M  V30 19347 H 1928.46 0.556635 4.13167 0
M  V30 19348 H 1927.12 -0.211174 3.24013 0
M  V30 19349 H 1928.13 3.43018 3.88019 0
M  V30 19350 H 1924.81 0.857729 4.08594 0
M  V30 19351 H 1926.2 4.86147 4.63801 0
M  V30 19352 N 1928.92 -1.13255 1.09595 0
M  V30 19353 C 1929.87 -2.1872 0.736907 0
M  V30 19354 C 1930.84 -1.63677 -0.282692 0
M  V30 19355 O 1932.02 -1.90094 -0.163936 0
M  V30 19356 C 1929.16 -3.44703 0.165494 0
M  V30 19357 C 1928.28 -4.13841 1.23934 0
M  V30 19358 C 1927.41 -5.27445 0.630499 0
M  V30 19359 C 1926.45 -5.88435 1.68554 0
M  V30 19360 N 1925.59 -6.93468 1.09759 0
M  V30 19361 H 1930.43 -2.48779 1.64052 0
M  V30 19362 H 1927.96 -1.22152 0.819597 0
M  V30 19363 H 1929.92 -4.16796 -0.183618 0
M  V30 19364 H 1928.55 -3.15088 -0.701377 0
M  V30 19365 H 1927.6 -3.40014 1.70571 0
M  V30 19366 H 1928.92 -4.5525 2.03834 0
M  V30 19367 H 1928.07 -6.06263 0.230332 0
M  V30 19368 H 1926.81 -4.8729 -0.200028 0
M  V30 19369 H 1925.81 -5.08311 2.09523 0
M  V30 19370 H 1927.04 -6.30663 2.51876 0
M  V30 19371 H 1924.98 -6.55366 0.288376 0
M  V30 19372 H 1924.9 -7.33429 1.83353 0
M  V30 19373 H 1926.17 -7.76133 0.723688 0
M  V30 19374 N 1930.4 -0.883401 -1.30514 0
M  V30 19375 C 1931.35 -0.347254 -2.28173 0
M  V30 19376 C 1932.32 0.561698 -1.56314 0
M  V30 19377 O 1933.5 0.490454 -1.84389 0
M  V30 19378 C 1930.64 0.433573 -3.42366 0
M  V30 19379 C 1929.75 -0.504417 -4.29045 0
M  V30 19380 C 1928.89 0.291853 -5.30398 0
M  V30 19381 C 1927.93 -0.641708 -6.08727 0
M  V30 19382 N 1927.06 0.119139 -7.01999 0
M  V30 19383 H 1931.9 -1.1852 -2.73417 0
M  V30 19384 H 1929.44 -0.595824 -1.34493 0
M  V30 19385 H 1931.4 0.902186 -4.07328 0
M  V30 19386 H 1930.03 1.23611 -2.98195 0
M  V30 19387 H 1929.08 -1.09152 -3.64404 0
M  V30 19388 H 1930.39 -1.21969 -4.83658 0
M  V30 19389 H 1929.55 0.822389 -6.011 0
M  V30 19390 H 1928.29 1.04035 -4.76475 0
M  V30 19391 H 1927.29 -1.18389 -5.36902 0
M  V30 19392 H 1928.52 -1.38927 -6.64738 0
M  V30 19393 H 1926.46 0.850204 -6.50467 0
M  V30 19394 H 1926.38 -0.536537 -7.54094 0
M  V30 19395 H 1927.65 0.63047 -7.76946 0
M  V30 19396 N 1931.88 1.43833 -0.644194 0
M  V30 19397 C 1932.83 2.27877 0.0750292 0
M  V30 19398 C 1933.81 1.39399 0.803545 0
M  V30 19399 O 1935 1.63103 0.687499 0
M  V30 19400 C 1932.13 3.26945 1.04698 0
M  V30 19401 C 1931.22 4.22911 0.317411 0
M  V30 19402 N 1931.61 5.0146 -0.661138 0
M  V30 19403 C 1929.91 4.42469 0.560091 0
M  V30 19404 C 1930.61 5.71332 -1.09337 0
M  V30 19405 N 1929.58 5.41901 -0.429466 0
M  V30 19406 H 1933.39 2.8602 -0.675995 0
M  V30 19407 H 1930.9 1.55428 -0.470742 0
M  V30 19408 H 1932.9 3.85924 1.57696 0
M  V30 19409 H 1931.56 2.70363 1.79817 0
M  V30 19410 H 1932.57 5.07361 -1.0395 0
M  V30 19411 H 1929.24 3.96969 1.29314 0
M  V30 19412 H 1930.63 6.44401 -1.90255 0
M  V30 19413 N 1933.35 0.385544 1.52811 0
M  V30 19414 C 1934.77 -0.0893152 1.86486 0
M  V30 19415 C 1935.12 -1.46473 1.30538 0
M  V30 19416 O 1934.24 -2.06866 0.635244 0
M  V30 19417 C 1934.84 -0.168846 3.38379 0
M  V30 19418 C 1933.4 -0.587992 3.71779 0
M  V30 19419 C 1932.54 0.252389 2.76149 0
M  V30 19420 H 1935.49 0.603569 1.46774 0
M  V30 19421 H 1935.51 -0.988694 3.6743 0
M  V30 19422 H 1935.03 0.832334 3.7907 0
M  V30 19423 H 1933.13 -1.59668 3.36656 0
M  V30 19424 H 1933.24 -0.34875 4.77829 0
M  V30 19425 H 1931.6 -0.281775 2.53137 0
M  V30 19426 H 1932.39 1.25148 3.19676 0
M  V30 19427 N 1934.83 -1.57178 0.115259 0
M  V30 19428 C 1936.06 -1.99415 -0.55147 0
M  V30 19429 C 1936.48 -0.994862 -1.60462 0
M  V30 19430 O 1935.83 0.0127831 -1.82496 0
M  V30 19431 C 1935.88 -3.41665 -1.18099 0
M  V30 19432 O 1935.6 -4.3777 -0.169944 0
M  V30 19433 C 1937.11 -3.99014 -1.9314 0
M  V30 19434 H 1934.33 -0.654856 -0.146302 0
M  V30 19435 H 1936.87 -2.03515 0.200495 0
M  V30 19436 H 1935.02 -3.38516 -1.88376 0
M  V30 19437 H 1935.44 -5.20741 -0.626853 0
M  V30 19438 H 1936.91 -5.00639 -2.32519 0
M  V30 19439 H 1937.39 -3.37947 -2.80515 0
M  V30 19440 H 1938 -4.05697 -1.27634 0
M  V30 19441 N 1936.31 0.158505 -1.56801 0
M  V30 19442 C 1937.22 1.2157 -2.00644 0
M  V30 19443 C 1938.24 1.47694 -0.919914 0
M  V30 19444 O 1939.41 1.59591 -1.22853 0
M  V30 19445 C 1936.48 2.53191 -2.36844 0
M  V30 19446 C 1935.54 2.34816 -3.59389 0
M  V30 19447 C 1934.77 3.60161 -3.93853 0
M  V30 19448 O 1935 4.65871 -3.29121 0
M  V30 19449 O 1933.93 3.53508 -4.8715 0
M  V30 19450 H 1937.76 0.873512 -2.90867 0
M  V30 19451 H 1935.34 0.366356 -1.44839 0
M  V30 19452 H 1937.22 3.30812 -2.6104 0
M  V30 19453 H 1935.9 2.86963 -1.4978 0
M  V30 19454 H 1934.8 1.55184 -3.40395 0
M  V30 19455 H 1936.14 2.05964 -4.47034 0
M  V30 19456 N 1937.79 1.51692 0.427485 0
M  V30 19457 C 1939.07 1.55395 1.18793 0
M  V30 19458 C 1939.45 0.324036 2.08598 0
M  V30 19459 O 1938.79 -0.690292 2.17824 0
M  V30 19460 C 1939 2.87313 1.98121 0
M  V30 19461 C 1940.35 3.39632 2.54824 0
M  V30 19462 O 1941.38 2.8893 2.08322 0
M  V30 19463 O 1940.24 4.28125 3.39664 0
M  V30 19464 H 1937.33 0.625173 0.541376 0
M  V30 19465 H 1939.88 1.6401 0.435754 0
M  V30 19466 H 1938.65 3.68284 1.32222 0
M  V30 19467 H 1938.27 2.81907 2.80383 0
M  V30 19468 N 1939.27 -0.683564 1.42004 0
M  V30 19469 C 1940.51 -1.44433 1.43215 0
M  V30 19470 C 1940.87 -1.92348 0.0445644 0
M  V30 19471 O 1940.16 -1.6742 -0.931726 0
M  V30 19472 C 1940.36 -2.66286 2.38383 0
M  V30 19473 C 1940.18 -2.30293 3.86258 0
M  V30 19474 C 1938.95 -2.20076 4.54857 0
M  V30 19475 C 1941.15 -1.92498 4.76916 0
M  V30 19476 N 1939.13 -1.77094 5.87802 0
M  V30 19477 C 1940.51 -1.60367 5.98901 0
M  V30 19478 C 1942.56 -1.79413 4.64452 0
M  V30 19479 C 1941.26 -1.16466 7.09809 0
M  V30 19480 C 1943.29 -1.36916 5.75333 0
M  V30 19481 C 1942.65 -1.05704 6.96424 0
M  V30 19482 H 1938.75 -0.525345 0.579255 0
M  V30 19483 H 1941.33 -0.789697 1.77966 0
M  V30 19484 H 1939.51 -3.29452 2.05708 0
M  V30 19485 H 1941.24 -3.32829 2.30233 0
M  V30 19486 H 1937.99 -2.38861 4.08953 0
M  V30 19487 H 1938.42 -1.58051 6.58292 0
M  V30 19488 H 1943.06 -2.02193 3.71319 0
M  V30 19489 H 1940.78 -0.924313 8.02796 0
M  V30 19490 H 1944.36 -1.27325 5.67697 0
M  V30 19491 H 1943.24 -0.733189 7.80765 0
M  V30 19492 N 1940.75 -1.28031 -0.919012 0
M  V30 19493 C 1941.66 -1.13341 -2.05404 0
M  V30 19494 C 1942.67 -0.0612715 -1.73892 0
M  V30 19495 O 1943.85 -0.26951 -1.99589 0
M  V30 19496 C 1940.91 -0.791143 -3.37553 0
M  V30 19497 C 1939.97 -1.94509 -3.82707 0
M  V30 19498 C 1939.21 -1.61905 -5.08549 0
M  V30 19499 O 1939.43 -0.530962 -5.67923 0
M  V30 19500 O 1938.36 -2.46102 -5.49288 0
M  V30 19501 H 1942.19 -2.08613 -2.20713 0
M  V30 19502 H 1939.77 -1.073 -1.03957 0
M  V30 19503 H 1941.66 -0.613981 -4.16903 0
M  V30 19504 H 1940.33 0.131966 -3.23431 0
M  V30 19505 H 1939.24 -2.17737 -3.04206 0
M  V30 19506 H 1940.57 -2.84871 -4.01384 0
M  V30 19507 N 1942.22 1.12672 -1.10194 0
M  V30 19508 C 1943.17 2.18326 -0.748496 0
M  V30 19509 C 1944.14 1.63824 0.274007 0
M  V30 19510 O 1945.33 1.90179 0.153852 0
M  V30 19511 C 1942.47 3.4461 -0.183772 0
M  V30 19512 C 1941.58 4.13178 -1.26127 0
M  V30 19513 C 1940.71 5.27103 -0.658462 0
M  V30 19514 C 1939.75 5.87533 -1.71672 0
M  V30 19515 N 1938.89 6.92876 -1.13435 0
M  V30 19516 H 1943.73 2.47906 -1.65369 0
M  V30 19517 H 1941.27 1.21715 -0.826064 0
M  V30 19518 H 1943.22 4.16887 0.161511 0
M  V30 19519 H 1941.85 3.15456 0.684657 0
M  V30 19520 H 1940.91 3.39105 -1.72372 0
M  V30 19521 H 1942.22 4.54163 -2.06246 0
M  V30 19522 H 1941.37 6.06132 -0.26248 0
M  V30 19523 H 1940.11 4.87389 0.174183 0
M  V30 19524 H 1939.12 5.07193 -2.12215 0
M  V30 19525 H 1940.34 6.29318 -2.55217 0
M  V30 19526 H 1938.29 6.55204 -0.323127 0
M  V30 19527 H 1938.2 7.32446 -1.8724 0
M  V30 19528 H 1939.47 7.75739 -0.764838 0
M  V30 19529 N 1943.7 0.89031 1.30043 0
M  V30 19530 C 1944.98 0.43131 1.90785 0
M  V30 19531 C 1945.36 -1.08836 1.80881 0
M  V30 19532 O 1944.71 -1.92605 1.22946 0
M  V30 19533 C 1944.92 0.935377 3.36232 0
M  V30 19534 C 1946.26 0.973504 4.13289 0
M  V30 19535 O 1947.29 0.882404 3.45097 0
M  V30 19536 O 1946.15 1.10893 5.35131 0
M  V30 19537 H 1943.24 0.132845 0.816261 0
M  V30 19538 H 1945.79 0.979561 1.38574 0
M  V30 19539 H 1944.56 1.97928 3.3755 0
M  V30 19540 H 1944.18 0.366596 3.95906 0
M  V30 19541 N 1945.18 -1.43489 0.651812 0
M  V30 19542 C 1946.09 -2.34564 -0.0413115 0
M  V30 19543 C 1947.11 -1.53803 -0.81368 0
M  V30 19544 O 1948.28 -1.86459 -0.761246 0
M  V30 19545 C 1945.35 -3.32063 -0.996745 0
M  V30 19546 C 1944.41 -4.28728 -0.221464 0
M  V30 19547 C 1943.64 -5.2157 -1.13139 0
M  V30 19548 O 1943.86 -5.18804 -2.37062 0
M  V30 19549 O 1942.8 -5.98856 -0.604552 0
M  V30 19550 H 1946.62 -2.95325 0.708295 0
M  V30 19551 H 1944.21 -1.43607 0.411999 0
M  V30 19552 H 1946.09 -3.92022 -1.54586 0
M  V30 19553 H 1944.77 -2.73807 -1.7266 0
M  V30 19554 H 1943.67 -3.72254 0.371205 0
M  V30 19555 H 1945.01 -4.89962 0.468797 0
M  V30 19556 N 1946.66 -0.393643 -1.52605 0
M  V30 19557 C 1947.91 0.186784 -2.01235 0
M  V30 19558 C 1948.23 1.46956 -1.28175 0
M  V30 19559 O 1947.5 1.91708 -0.403088 0
M  V30 19560 H 1946.08 0.0720137 -0.743521 0
M  V30 19561 H 1948.74 -0.52633 -1.87659 0
M  V30 19562 H 1947.83 0.393921 -3.09604 0
M  V30 19563 N 1948.14 1.57115 -0.123593 0
M  V30 19564 C 1949.08 2.16817 0.842196 0
M  V30 19565 C 1950.08 1.11865 1.27211 0
M  V30 19566 O 1951.28 1.3016 1.24331 0
M  V30 19567 H 1947.66 0.693949 0.289721 0
M  V30 19568 H 1949.63 2.96741 0.314221 0
M  V30 19569 C 1948.38 2.78577 2.08062 0
M  V30 19570 H 1947.7 3.59037 1.75876 0
M  V30 19571 H 1949.14 3.23884 2.73634 0
M  V30 19572 C 1947.6 1.75892 2.87339 0
M  V30 19573 O 1948.13 1.21508 3.82882 0
M  V30 19574 N 1946.34 1.45728 2.5142 0
M  V30 19575 H 1945.88 1.90143 1.73791 0
M  V30 19576 H 1945.84 0.772654 3.04758 0
M  V30 19577 N 1949.61 -0.150187 1.56883 0
M  V30 19578 C 1950.86 -0.863336 1.83174 0
M  V30 19579 C 1951.19 -1.81313 0.703986 0
M  V30 19580 O 1950.44 -1.93273 -0.307235 0
M  V30 19581 C 1950.74 -1.67394 3.15775 0
M  V30 19582 C 1950.41 -0.871221 4.42403 0
M  V30 19583 C 1949.07 -0.649752 4.76793 0
M  V30 19584 C 1951.42 -0.309625 5.2028 0
M  V30 19585 C 1948.75 0.144072 5.86523 0
M  V30 19586 C 1951.1 0.471222 6.30843 0
M  V30 19587 C 1949.77 0.703297 6.63785 0
M  V30 19588 H 1949.04 -0.315917 0.670282 0
M  V30 19589 H 1951.68 -0.127141 1.91077 0
M  V30 19590 H 1949.99 -2.48015 3.03308 0
M  V30 19591 H 1951.69 -2.22915 3.33332 0
M  V30 19592 H 1948.28 -1.0539 4.15441 0
M  V30 19593 H 1952.46 -0.468015 4.94088 0
M  V30 19594 H 1947.72 0.333407 6.1049 0
M  V30 19595 H 1951.89 0.913535 6.90382 0
M  V30 19596 H 1949.52 1.32027 7.48647 0
M  V30 19597 N 1951.09 -1.51916 -0.419434 0
M  V30 19598 C 1952.33 -1.67139 -1.17661 0
M  V30 19599 C 1952.7 -0.387862 -1.88042 0
M  V30 19600 O 1953.9 -0.416066 -2.6556 0
M  V30 19601 C 1952.17 -2.853 -2.15264 0
M  V30 19602 S 1953.73 -3.2095 -2.99227 0
M  V30 19603 H 1950.55 -0.58866 -0.398748 0
M  V30 19604 H 1953.15 -1.89879 -0.46544 0
M  V30 19605 H 1951.85 -3.76975 -1.62228 0
M  V30 19606 H 1951.38 -2.64803 -2.90935 0
M  V30 19607 H 1953.4 -2.68772 -4.17104 0
M  V30 19608 O 1952.61 0.565276 -1.51284 0
M  V30 19609 H 1953.3 1.22036 -1.50422 0
M  V30 END ATOM
M  V30 BEGIN BOND
M  V30 END BOND
M  V30 END CTAB
M  END
$$$$
