drugbank_target|P00519 Tyrosine-protein kinase ABL1 (DB00171; DB00619; DB01254; DB03878; DB04868; DB05184; DB06616; DB07831; DB08043; DB08231; DB08339; DB08350; DB08583; DB08896; DB08901; DB12010; DB12267; DB12323)
 OpenBabel12092119223D

  0  0  0     0  0            999 V3000
M  V30 BEGIN CTAB
M  V30 COUNTS 17227 17425 0 0 0
M  V30 BEGIN ATOM
M  V30 1 H -0.908 1.98254 -0.117106 0
M  V30 2 N 0 1.576 0 0
M  V30 3 C 0.933 2.03868 1.02534 0
M  V30 4 C 1.911 0.928543 1.3348 0
M  V30 5 O 3.095 1.19667 1.45644 0
M  V30 6 C 0.222 2.43627 2.35294 0
M  V30 7 C -0.732 3.65373 2.2001 0
M  V30 8 S 0.101 5.13292 1.52614 0
M  V30 9 C 1.257 5.56322 2.86805 0
M  V30 10 H 1.49 2.90518 0.631377 0
M  V30 11 H -0.977 1.52953 0.210867 0
M  V30 12 H 0.981 2.67203 3.11629 0
M  V30 13 H -0.358 1.57376 2.7183 0
M  V30 14 H -1.165 3.90944 3.18086 0
M  V30 15 H -1.563 3.418 1.51819 0
M  V30 16 H 0.729 5.58782 3.83104 0
M  V30 17 H 1.672 6.56266 2.65933 0
M  V30 18 H 2.08 4.83886 2.90714 0
M  V30 19 N 1.4781 -0.272755 1.55222 0
M  V30 20 C 2.4081 -1.34136 1.91127 0
M  V30 21 C 3.3891 -1.51513 0.773168 0
M  V30 22 O 4.5741 -1.64552 1.03132 0
M  V30 23 C 1.7041 -2.70083 2.1834 0
M  V30 24 C 0.6581 -2.67437 3.34158 0
M  V30 25 C -0.0159 -4.06938 3.46851 0
M  V30 26 C 1.2841 -2.26686 4.70543 0
M  V30 27 H 2.9781 -1.04333 2.80633 0
M  V30 28 H 0.5241 -0.500454 1.35024 0
M  V30 29 H 2.4771 -3.44952 2.42046 0
M  V30 30 H 1.2011 -3.01469 1.25634 0
M  V30 31 H -0.1399 -1.95026 3.1042 0
M  V30 32 H -0.4919 -4.35547 2.51611 0
M  V30 33 H -0.7919 -4.06062 4.2472 0
M  V30 34 H 0.7321 -4.83545 3.72849 0
M  V30 35 H 2.1461 -2.91277 4.93792 0
M  V30 36 H 0.5431 -2.36971 5.5133 0
M  V30 37 H 1.6131 -1.21818 4.69349 0
M  V30 38 N 2.9562 -1.48159 -0.537278 0
M  V30 39 C 3.8662 -1.64807 -1.6696 0
M  V30 40 C 4.8822 -0.530651 -1.65711 0
M  V30 41 O 6.0582 -0.800784 -1.84796 0
M  V30 42 C 3.1232 -1.67708 -3.03438 0
M  V30 43 C 2.1842 -2.91025 -3.156 0
M  V30 44 C 1.4172 -2.93778 -4.45567 0
M  V30 45 O 1.6402 -2.05153 -5.3223 0
M  V30 46 O 0.5742 -3.85868 -4.61941 0
M  V30 47 H 4.4002 -2.6066 -1.55853 0
M  V30 48 H 1.9852 -1.31475 -0.709549 0
M  V30 49 H 3.8672 -1.7218 -3.84619 0
M  V30 50 H 2.5422 -0.750278 -3.14885 0
M  V30 51 H 1.4492 -2.92089 -2.33741 0
M  V30 52 H 2.7822 -3.83065 -3.09066 0
M  V30 53 N 4.4343 0.785586 -1.36625 0
M  V30 54 C 5.6833 1.53883 -1.30396 0
M  V30 55 C 5.9963 1.95271 0.113452 0
M  V30 56 O 7.2023 2.69858 0.298142 0
M  V30 57 C 5.6583 2.77808 -2.28802 0
M  V30 58 C 5.2663 2.43574 -3.75999 0
M  V30 59 C 7.0103 3.55783 -2.31558 0
M  V30 60 C 4.9173 3.63919 -4.66173 0
M  V30 61 H 3.8473 0.577678 -0.484566 0
M  V30 62 H 6.4983 0.861705 -1.62009 0
M  V30 63 H 4.8803 3.47339 -1.90188 0
M  V30 64 H 6.0543 1.81916 -4.23371 0
M  V30 65 H 4.3693 1.78803 -3.76056 0
M  V30 66 H 6.9663 4.45205 -2.96137 0
M  V30 67 H 7.3093 3.94644 -1.3252 0
M  V30 68 H 7.8423 2.93235 -2.68809 0
M  V30 69 H 4.5813 3.3015 -5.66287 0
M  V30 70 H 4.1013 4.2473 -4.23515 0
M  V30 71 H 5.7803 4.30901 -4.82632 0
M  V30 72 N 5.9124 1.20967 1.01018 0
M  V30 73 C 7.1524 1.03511 1.76252 0
M  V30 74 C 7.5164 -0.42458 1.87247 0
M  V30 75 O 8.7174 -0.719508 2.58991 0
M  V30 76 C 6.9884 1.70726 3.13986 0
M  V30 77 S 8.5474 1.68458 4.05176 0
M  V30 78 H 5.3654 0.371037 0.606508 0
M  V30 79 H 7.9674 1.53628 1.20908 0
M  V30 80 H 6.6714 2.76128 3.03614 0
M  V30 81 H 6.2024 1.20767 3.74405 0
M  V30 82 H 8.2174 0.721987 4.90919 0
M  V30 83 N 7.3905 -1.2043 1.01659 0
M  V30 84 C 8.3205 -2.25466 0.607226 0
M  V30 85 C 9.3015 -1.65853 -0.377716 0
M  V30 86 O 10.4865 -1.92409 -0.263149 0
M  V30 87 C 7.6165 -3.47256 -0.0552949 0
M  V30 88 C 6.5705 -4.19462 0.850632 0
M  V30 89 C 5.8965 -5.34673 0.0538859 0
M  V30 90 C 7.1965 -4.75603 2.15868 0
M  V30 91 H 8.8905 -2.59962 1.48526 0
M  V30 92 H 6.4365 -1.2496 0.715605 0
M  V30 93 H 8.3895 -4.19917 -0.353233 0
M  V30 94 H 7.1135 -3.11924 -0.968045 0
M  V30 95 H 5.7725 -3.48667 1.13257 0
M  V30 96 H 5.4205 -4.95585 -0.860514 0
M  V30 97 H 5.1205 -5.83913 0.657192 0
M  V30 98 H 6.6445 -6.10138 -0.237598 0
M  V30 99 H 8.0585 -5.40083 1.92311 0
M  V30 100 H 6.4555 -5.3528 2.71284 0
M  V30 101 H 7.5255 -3.94346 2.82169 0
M  V30 102 N 8.8686 -0.792821 -1.36206 0
M  V30 103 C 9.8156 -0.191653 -2.30003 0
M  V30 104 C 10.7856 0.666453 -1.52143 0
M  V30 105 O 11.9706 0.61442 -1.80636 0
M  V30 106 C 9.1106 0.664848 -3.38635 0
M  V30 107 C 8.2236 -0.212175 -4.31479 0
M  V30 108 C 7.3586 0.651022 -5.27196 0
M  V30 109 C 6.3976 -0.227247 -6.11678 0
M  V30 110 N 5.5346 0.595127 -6.99573 0
M  V30 111 H 10.3746 -0.996978 -2.80828 0
M  V30 112 H 7.9116 -0.503206 -1.38225 0
M  V30 113 H 9.8696 1.17645 -4.00269 0
M  V30 114 H 8.4996 1.43557 -2.89122 0
M  V30 115 H 7.5516 -0.841777 -3.70969 0
M  V30 116 H 8.8636 -0.888751 -4.90818 0
M  V30 117 H 8.0176 1.2283 -5.94136 0
M  V30 118 H 6.7566 1.36121 -4.68319 0
M  V30 119 H 5.7616 -0.816904 -5.43697 0
M  V30 120 H 6.9866 -0.93509 -6.72631 0
M  V30 121 H 4.9326 1.28955 -6.432 0
M  V30 122 H 4.8496 -0.0236952 -7.55996 0
M  V30 123 H 6.1176 1.15613 -7.70879 0
M  V30 124 N 10.3467 1.47872 -0.545128 0
M  V30 125 C 11.2767 2.32661 0.197793 0
M  V30 126 C 12.2577 1.43041 0.920504 0
M  V30 127 O 13.4427 1.71912 0.90333 0
M  V30 128 C 10.5727 3.24569 1.23582 0
M  V30 129 C 9.5267 4.23333 0.630323 0
M  V30 130 C 8.8527 5.0448 1.77211 0
M  V30 131 C 10.1527 5.20704 -0.407974 0
M  V30 132 H 11.8467 2.95024 -0.510045 0
M  V30 133 H 9.3927 1.4187 -0.246731 0
M  V30 134 H 11.3457 3.8272 1.76362 0
M  V30 135 H 10.0697 2.60236 1.97344 0
M  V30 136 H 8.7287 3.6639 0.123922 0
M  V30 137 H 8.3767 4.36561 2.49847 0
M  V30 138 H 8.0767 5.71339 1.37281 0
M  V30 139 H 9.6007 5.65487 2.3034 0
M  V30 140 H 11.0147 5.7329 0.033305 0
M  V30 141 H 9.4117 5.95699 -0.725486 0
M  V30 142 H 10.4817 4.66917 -1.30828 0
M  V30 143 N 11.8248 0.280983 1.55075 0
M  V30 144 C 13.0708 -0.33461 2.00021 0
M  V30 145 C 13.4038 -1.55063 1.16915 0
M  V30 146 O 12.6788 -1.93006 0.240646 0
M  V30 147 C 12.9618 -0.711007 3.53011 0
M  V30 148 C 12.8148 0.512766 4.46868 0
M  V30 149 C 14.1338 -1.54522 4.12081 0
M  V30 150 H 11.2528 -0.120147 0.727141 0
M  V30 151 H 13.8948 0.389097 1.85973 0
M  V30 152 H 12.0448 -1.32761 3.65112 0
M  V30 153 H 13.7168 1.15131 4.46702 0
M  V30 154 H 11.9598 1.14975 4.18286 0
M  V30 155 H 12.6308 0.205556 5.51617 0
M  V30 156 H 15.1068 -1.02442 4.03293 0
M  V30 157 H 13.9828 -1.77739 5.19327 0
M  V30 158 H 14.2438 -2.52813 3.62682 0
M  V30 159 N 13.3029 -1.57598 0.00835791 0
M  V30 160 C 14.5509 -1.90551 -0.6734 0
M  V30 161 C 14.8719 -0.883301 -1.73847 0
M  V30 162 O 14.1419 0.0781442 -1.95744 0
M  V30 163 H 12.7219 -0.703312 -0.251717 0
M  V30 164 H 15.3839 -1.94833 0.0512592 0
M  V30 165 H 14.4799 -2.9056 -1.13935 0
M  V30 166 N 14.781 0.264519 -1.55364 0
M  V30 167 C 16.021 1.00254 -1.78125 0
M  V30 168 C 16.385 1.83187 -0.575017 0
M  V30 169 O 17.586 2.60029 -0.681042 0
M  V30 170 C 15.857 1.85478 -3.05504 0
M  V30 171 S 17.416 2.6543 -3.49417 0
M  V30 172 H 14.234 0.337522 -0.625779 0
M  V30 173 H 16.836 0.272111 -1.93597 0
M  V30 174 H 15.54 1.23491 -3.9138 0
M  V30 175 H 15.071 2.62827 -2.92721 0
M  V30 176 H 17.086 3.87958 -3.09359 0
M  V30 177 N 16.2591 1.48442 0.529413 0
M  V30 178 C 17.2061 1.63007 1.63394 0
M  V30 179 C 18.1761 0.47212 1.59249 0
M  V30 180 O 19.3611 0.695673 1.77666 0
M  V30 181 C 16.5011 1.6763 3.01653 0
M  V30 182 C 15.6141 2.94535 3.16027 0
M  V30 183 C 14.7491 2.90316 4.44849 0
M  V30 184 C 13.7881 4.11923 4.52754 0
M  V30 185 N 12.9251 4.05777 5.72965 0
M  V30 186 H 17.7651 2.5733 1.50285 0
M  V30 187 H 15.3021 1.27613 0.731656 0
M  V30 188 H 17.2601 1.68292 3.81751 0
M  V30 189 H 15.8901 0.76797 3.13532 0
M  V30 190 H 14.9421 3.03615 2.29177 0
M  V30 191 H 16.2541 3.84512 3.17729 0
M  V30 192 H 15.4081 2.89382 5.33238 0
M  V30 193 H 14.1471 1.98068 4.45668 0
M  V30 194 H 13.1521 4.13131 3.62771 0
M  V30 195 H 14.3771 5.0533 4.53672 0
M  V30 196 H 12.3231 3.16351 5.74681 0
M  V30 197 H 12.2401 4.8946 5.76164 0
M  V30 198 H 13.5081 4.08904 6.6364 0
M  V30 199 N 17.7372 -0.778329 1.37039 0
M  V30 200 C 18.9622 -1.57248 1.35233 0
M  V30 201 C 19.3872 -1.87999 -0.0615568 0
M  V30 202 O 18.7452 -1.48734 -1.03672 0
M  V30 203 C 18.7932 -2.86353 2.19167 0
M  V30 204 O 17.8972 -3.80442 1.59178 0
M  V30 205 H 17.2382 -0.476569 0.462362 0
M  V30 206 H 19.7682 -0.963853 1.80474 0
M  V30 207 H 19.7782 -3.35519 2.32145 0
M  V30 208 H 18.4532 -2.63299 3.21942 0
M  V30 209 H 17.0302 -3.39067 1.55203 0
M  V30 210 N 19.2153 -1.21501 -1.00376 0
M  V30 211 C 20.1623 -0.975387 -2.09177 0
M  V30 212 C 21.1323 0.0990615 -1.65804 0
M  V30 213 O 22.3173 -0.0483147 -1.90739 0
M  V30 214 C 19.4573 -0.547507 -3.40729 0
M  V30 215 C 18.5703 -1.69153 -3.97506 0
M  V30 216 C 17.7053 -1.2127 -5.17172 0
M  V30 217 C 16.7443 -2.32897 -5.66061 0
M  V30 218 N 15.8813 -1.86138 -6.76976 0
M  V30 219 H 20.7213 -1.9068 -2.29009 0
M  V30 220 H 18.2583 -0.950257 -1.12288 0
M  V30 221 H 20.2163 -0.280667 -4.16255 0
M  V30 222 H 18.8463 0.346904 -3.20931 0
M  V30 223 H 17.8983 -2.07298 -3.18954 0
M  V30 224 H 19.2103 -2.5316 -4.29781 0
M  V30 225 H 18.3643 -0.902591 -5.99948 0
M  V30 226 H 17.1033 -0.342692 -4.86495 0
M  V30 227 H 16.1083 -2.64709 -4.81881 0
M  V30 228 H 17.3333 -3.20396 -5.98768 0
M  V30 229 H 15.2793 -1.01484 -6.48103 0
M  V30 230 H 15.1963 -2.63717 -7.08512 0
M  V30 231 H 16.4643 -1.58165 -7.63285 0
M  V30 232 N 20.6934 1.19889 -1.02296 0
M  V30 233 C 21.6404 2.22901 -0.598651 0
M  V30 234 C 22.6104 1.61588 0.384521 0
M  V30 235 O 23.7954 1.88697 0.282522 0
M  V30 236 C 20.9354 3.45063 0.0504476 0
M  V30 237 C 20.0484 4.20783 -0.978053 0
M  V30 238 C 19.1834 5.30356 -0.299338 0
M  V30 239 C 18.2224 5.97826 -1.31416 0
M  V30 240 N 17.3594 6.98975 -0.661667 0
M  V30 241 H 22.1994 2.58554 -1.48169 0
M  V30 242 H 19.7364 1.27039 -0.741584 0
M  V30 243 H 21.6944 4.14831 0.443971 0
M  V30 244 H 20.3244 3.10084 0.897097 0
M  V30 245 H 19.3764 3.50018 -1.48969 0
M  V30 246 H 20.6884 4.67109 -1.74958 0
M  V30 247 H 19.8424 6.06516 0.149347 0
M  V30 248 H 18.5814 4.85084 0.504445 0
M  V30 249 H 17.5864 5.20422 -1.77317 0
M  V30 250 H 18.8114 6.45183 -2.11933 0
M  V30 251 H 16.7574 6.55886 0.122132 0
M  V30 252 H 16.6744 7.43461 -1.37117 0
M  V30 253 H 17.9424 7.7914 -0.236785 0
M  V30 254 N 22.1715 0.800033 1.35784 0
M  V30 255 C 23.4195 0.376597 1.9856 0
M  V30 256 C 23.7405 -1.05812 1.63795 0
M  V30 257 O 23.0105 -1.73103 0.917171 0
M  V30 258 H 21.5905 0.136261 0.734467 0
M  V30 259 H 24.2525 1.02442 1.65806 0
M  V30 260 H 23.3485 0.477002 3.08433 0
M  V30 261 N 23.6496 -1.47581 0.552962 0
M  V30 262 C 24.5796 -2.32762 -0.185451 0
M  V30 263 C 25.5606 -1.43527 -0.912905 0
M  V30 264 O 26.7456 -1.72388 -0.894201 0
M  V30 265 C 23.8756 -3.25219 -1.21859 0
M  V30 266 C 22.8296 -4.23661 -0.607864 0
M  V30 267 C 22.1556 -5.05413 -1.74533 0
M  V30 268 C 23.4556 -5.20481 0.435582 0
M  V30 269 H 25.1496 -2.94749 0.525684 0
M  V30 270 H 22.6956 -1.41738 0.254251 0
M  V30 271 H 24.6486 -3.8365 -1.7433 0
M  V30 272 H 23.3726 -2.61279 -1.95961 0
M  V30 273 H 22.0316 -3.66451 -0.104489 0
M  V30 274 H 21.6796 -4.3788 -2.47529 0
M  V30 275 H 21.3796 -5.72059 -1.34249 0
M  V30 276 H 22.9036 -5.66701 -2.27338 0
M  V30 277 H 24.3176 -5.733 -0.00290157 0
M  V30 278 H 22.7146 -5.95305 0.757067 0
M  V30 279 H 23.7846 -4.66217 1.33303 0
M  V30 280 N 25.1277 -0.289203 -1.54924 0
M  V30 281 C 26.3527 0.329299 -2.04769 0
M  V30 282 C 26.7777 1.4763 -1.16564 0
M  V30 283 O 26.1357 1.80527 -0.167186 0
M  V30 284 C 26.1837 0.774438 -3.52186 0
M  V30 285 O 25.2877 1.88038 -3.67036 0
M  V30 286 H 24.6287 0.0659259 -0.660719 0
M  V30 287 H 27.1587 -0.42761 -2.00082 0
M  V30 288 H 27.1687 1.06642 -3.93816 0
M  V30 289 H 25.8437 -0.0646707 -4.1585 0
M  V30 290 H 24.4207 1.58985 -3.3731 0
M  V30 291 N 26.6058 1.57591 -0.0167156 0
M  V30 292 C 27.8308 1.9598 0.67872 0
M  V30 293 C 28.2558 0.892546 1.65575 0
M  V30 294 O 27.6138 -0.147772 1.80697 0
M  V30 295 C 27.6618 3.33468 1.37227 0
M  V30 296 O 26.7658 3.28954 2.48722 0
M  V30 297 H 26.1068 0.639339 0.17928 0
M  V30 298 H 28.6368 2.04463 -0.0748802 0
M  V30 299 H 28.6468 3.69417 1.7319 0
M  V30 300 H 27.3218 4.10694 0.656007 0
M  V30 301 H 25.8988 3.04705 2.14963 0
M  V30 302 N 28.0839 -0.256276 1.55502 0
M  V30 303 C 29.3089 -1.00766 1.81276 0
M  V30 304 C 29.7339 -1.78524 0.59252 0
M  V30 305 O 29.0919 -1.75413 -0.45827 0
M  V30 306 C 29.1399 -1.92869 3.04687 0
M  V30 307 O 28.2439 -3.019 2.80945 0
M  V30 308 H 27.5849 -0.287224 0.598664 0
M  V30 309 H 30.1149 -0.280109 2.02674 0
M  V30 310 H 30.1249 -2.34511 3.33869 0
M  V30 311 H 28.7999 -1.35689 3.93143 0
M  V30 312 H 27.3769 -2.64454 2.62904 0
M  V30 313 N 29.562 -1.4872 -0.521534 0
M  V30 314 C 30.787 -1.61101 -1.30618 0
M  V30 315 C 31.212 -0.274611 -1.86085 0
M  V30 316 O 30.57 0.754937 -1.64834 0
M  V30 317 C 30.618 -2.66709 -2.4269 0
M  V30 318 O 29.722 -2.24456 -3.45967 0
M  V30 319 H 29.063 -0.539921 -0.386499 0
M  V30 320 H 31.593 -1.94767 -0.626645 0
M  V30 321 H 31.603 -2.88245 -2.88754 0
M  V30 322 H 30.278 -3.63727 -2.01682 0
M  V30 323 H 28.855 -2.13168 -3.05964 0
M  V30 324 N 31.0401 0.771051 -1.3745 0
M  V30 325 C 32.2651 1.56529 -1.36065 0
M  V30 326 C 32.6901 1.88029 0.0515859 0
M  V30 327 O 32.0481 1.49282 1.02882 0
M  V30 328 C 32.0961 2.85187 -2.20683 0
M  V30 329 O 31.2001 3.79593 -1.61193 0
M  V30 330 H 30.5411 0.47411 -0.464883 0
M  V30 331 H 33.0711 0.954269 -1.80983 0
M  V30 332 H 33.0811 3.34283 -2.33921 0
M  V30 333 H 31.7561 2.61588 -3.23334 0
M  V30 334 H 30.3331 3.38239 -1.56999 0
M  V30 335 N 32.5182 1.22032 0.997298 0
M  V30 336 C 33.7582 1.05375 1.75144 0
M  V30 337 C 34.1222 -0.404696 1.87686 0
M  V30 338 O 35.3232 -0.691998 2.5974 0
M  V30 339 C 33.5942 1.74046 3.12158 0
M  V30 340 S 35.1532 1.72745 4.03366 0
M  V30 341 H 31.9712 0.377449 0.602539 0
M  V30 342 H 34.5732 1.54902 1.19272 0
M  V30 343 H 33.2772 2.79332 3.00669 0
M  V30 344 H 32.8082 1.24731 3.73103 0
M  V30 345 H 34.8232 0.774015 4.90126 0
M  V30 346 N 33.9963 -1.19345 1.0293 0
M  V30 347 C 35.2263 -1.92717 0.744563 0
M  V30 348 C 35.6343 -1.75751 -0.700579 0
M  V30 349 O 34.9773 -1.07703 -1.48815 0
M  V30 350 C 35.0393 -3.44828 1.01657 0
M  V30 351 C 34.7033 -3.85564 2.45335 0
M  V30 352 C 35.7003 -3.90286 3.43472 0
M  V30 353 C 33.3853 -4.1719 2.79746 0
M  V30 354 C 35.3793 -4.26065 4.74075 0
M  V30 355 C 33.0663 -4.52642 4.10559 0
M  V30 356 C 34.0643 -4.57054 5.07534 0
M  V30 357 O 33.7523 -4.91685 6.36004 0
M  V30 358 H 33.4843 -0.618977 0.271742 0
M  V30 359 H 36.0383 -1.52415 1.37691 0
M  V30 360 H 34.2683 -3.85314 0.327084 0
M  V30 361 H 35.9573 -3.99437 0.721427 0
M  V30 362 H 36.7233 -3.66002 3.18225 0
M  V30 363 H 32.6023 -4.1294 2.04943 0
M  V30 364 H 36.1463 -4.29423 5.49765 0
M  V30 365 H 32.0433 -4.76383 4.35579 0
M  V30 366 H 32.8113 -5.09631 6.40483 0
M  V30 367 N 35.4744 -0.807222 -1.35358 0
M  V30 368 C 36.4044 -0.232509 -2.3234 0
M  V30 369 C 37.3854 0.642386 -1.57504 0
M  V30 370 O 38.5704 0.572526 -1.85569 0
M  V30 371 C 35.7004 0.619238 -3.41735 0
M  V30 372 C 34.6544 -0.157215 -4.27711 0
M  V30 373 C 33.9804 0.816273 -5.28433 0
M  V30 374 C 35.2804 -1.35656 -5.04376 0
M  V30 375 H 36.9744 -1.04276 -2.80654 0
M  V30 376 H 34.5204 -0.50288 -1.34934 0
M  V30 377 H 36.4734 1.03137 -4.08584 0
M  V30 378 H 35.1974 1.46239 -2.92031 0
M  V30 379 H 33.8564 -0.550525 -3.62443 0
M  V30 380 H 33.5044 1.65494 -4.74996 0
M  V30 381 H 33.2044 0.301067 -5.86828 0
M  V30 382 H 34.7284 1.22659 -5.98153 0
M  V30 383 H 36.1424 -1.01927 -5.64166 0
M  V30 384 H 34.5394 -1.8063 -5.7227 0
M  V30 385 H 35.6094 -2.14288 -4.34981 0
M  V30 386 N 36.9525 1.47285 -0.560781 0
M  V30 387 C 37.8625 2.33846 0.187954 0
M  V30 388 C 38.8785 1.48412 0.908293 0
M  V30 389 O 40.0545 1.81332 0.876388 0
M  V30 390 C 37.1195 3.25178 1.2025 0
M  V30 391 C 36.1805 4.26504 0.489208 0
M  V30 392 C 35.4135 5.13472 1.45542 0
M  V30 393 O 35.6365 5.02959 2.6905 0
M  V30 394 O 34.5705 5.93902 0.977963 0
M  V30 395 H 38.3965 2.99177 -0.522177 0
M  V30 396 H 35.9815 1.45903 -0.321364 0
M  V30 397 H 37.8635 3.81584 1.78805 0
M  V30 398 H 36.5385 2.6247 1.89449 0
M  V30 399 H 35.4455 3.73847 -0.137627 0
M  V30 400 H 36.7785 4.91935 -0.161399 0
M  V30 401 N 38.4306 0.297415 1.54768 0
M  V30 402 C 39.3406 -0.58983 2.27064 0
M  V30 403 C 40.3566 -1.15144 1.30453 0
M  V30 404 O 41.5326 -1.17699 1.63428 0
M  V30 405 C 38.5976 -1.74714 2.9946 0
M  V30 406 C 37.6586 -1.21997 4.11601 0
M  V30 407 C 36.8916 -2.32212 4.80535 0
M  V30 408 O 37.1146 -3.52036 4.48806 0
M  V30 409 O 36.0486 -1.99106 5.68014 0
M  V30 410 H 39.8746 -0.00348199 3.037 0
M  V30 411 H 37.4596 0.0640035 1.49263 0
M  V30 412 H 39.3416 -2.42147 3.44881 0
M  V30 413 H 38.0166 -2.32016 2.25722 0
M  V30 414 H 36.9236 -0.511458 3.70587 0
M  V30 415 H 38.2566 -0.692419 4.87305 0
M  V30 416 N 39.9087 -1.5758 0.0250728 0
M  V30 417 C 40.8717 -2.08896 -0.943139 0
M  V30 418 C 41.8717 -1.00321 -1.25668 0
M  V30 419 O 43.0617 -1.26495 -1.19769 0
M  V30 420 C 40.1937 -2.55143 -2.26086 0
M  V30 421 H 41.3867 -2.95723 -0.498775 0
M  V30 422 H 38.9397 -1.54703 -0.222888 0
M  V30 423 H 39.6747 -1.71633 -2.75159 0
M  V30 424 H 39.4597 -3.34461 -2.04641 0
M  V30 425 H 40.9497 -2.95083 -2.95492 0
M  V30 426 N 41.3868 0.248026 -1.55636 0
M  V30 427 C 42.3168 1.31079 -1.93237 0
M  V30 428 C 43.2978 1.50264 -0.797174 0
M  V30 429 O 44.4828 1.62891 -1.05737 0
M  V30 430 C 41.6128 2.66575 -2.22609 0
M  V30 431 C 40.5668 2.62087 -3.3837 0
M  V30 432 C 39.8928 4.01369 -3.53281 0
M  V30 433 C 41.1928 2.19171 -4.7409 0
M  V30 434 H 42.8868 0.998556 -2.82257 0
M  V30 435 H 40.4328 0.47891 -1.35803 0
M  V30 436 H 42.3858 3.41057 -2.47503 0
M  V30 437 H 41.1098 2.99432 -1.30414 0
M  V30 438 H 39.7688 1.90063 -3.13483 0
M  V30 439 H 39.4168 4.31489 -2.58508 0
M  V30 440 H 39.1168 3.99254 -4.31127 0
M  V30 441 H 40.6408 4.77552 -3.80495 0
M  V30 442 H 42.0548 2.83384 -4.98363 0
M  V30 443 H 40.4518 2.2817 -5.5503 0
M  V30 444 H 41.5218 1.14336 -4.71227 0
M  V30 445 N 42.8649 1.48995 0.513639 0
M  V30 446 C 43.7969 1.60836 1.63293 0
M  V30 447 C 44.8099 0.491701 1.55197 0
M  V30 448 O 45.9989 0.763238 1.6136 0
M  V30 449 C 43.0989 1.53731 3.02027 0
M  V30 450 C 42.2719 2.80715 3.35437 0
M  V30 451 C 41.3309 2.66837 4.53525 0
M  V30 452 O 40.3569 3.40753 4.55934 0
M  V30 453 N 41.5589 1.77539 5.52684 0
M  V30 454 H 44.3239 2.57366 1.53566 0
M  V30 455 H 41.8849 1.45925 0.701259 0
M  V30 456 H 43.8769 1.42118 3.78926 0
M  V30 457 H 42.4469 0.651092 3.05744 0
M  V30 458 H 41.6669 3.06772 2.47557 0
M  V30 459 H 42.9549 3.64927 3.54551 0
M  V30 460 H 42.3529 1.16719 5.53528 0
M  V30 461 H 40.9099 1.71856 6.28736 0
M  V30 462 N 44.343 -0.763751 1.37857 0
M  V30 463 C 45.759 -1.06542 1.18832 0
M  V30 464 C 45.959 -2.01478 0.0299722 0
M  V30 465 O 45.015 -2.4458 -0.627447 0
M  V30 466 C 46.328 -1.65525 2.51042 0
M  V30 467 C 47.876 -1.77745 2.57635 0
M  V30 468 C 48.351 -2.4014 3.89996 0
M  V30 469 N 49.842 -2.47582 3.91481 0
M  V30 470 C 50.577 -2.96732 4.9065 0
M  V30 471 N 50.073 -3.45993 6.00217 0
M  V30 472 N 51.866 -2.95679 4.78048 0
M  V30 473 H 44.017 -0.133556 2.1198 0
M  V30 474 H 46.28 -0.121879 0.940133 0
M  V30 475 H 45.986 -1.03236 3.36207 0
M  V30 476 H 45.86 -2.64719 2.68707 0
M  V30 477 H 48.247 -2.39164 1.72872 0
M  V30 478 H 48.328 -0.772836 2.43846 0
M  V30 479 H 47.972 -1.79358 4.75177 0
M  V30 480 H 47.902 -3.41223 4.01092 0
M  V30 481 H 50.393 -2.1273 3.12337 0
M  V30 482 H 50.706 -3.81922 6.7183 0
M  V30 483 H 49.051 -3.44077 6.03851 0
M  V30 484 H 52.242 -2.56499 3.91568 0
M  V30 485 H 52.415 -3.33672 5.55488 0
M  V30 486 N 45.8211 -1.22559 -0.990812 0
M  V30 487 C 47.2321 -1.04791 -1.54518 0
M  V30 488 C 47.5831 0.387998 -1.92325 0
M  V30 489 O 46.7081 1.27328 -1.74976 0
M  V30 490 C 47.3031 -1.896 -2.80779 0
M  V30 491 C 45.8621 -1.76124 -3.32652 0
M  V30 492 C 45.0091 -1.8594 -2.05722 0
M  V30 493 H 47.9601 -1.36374 -0.811662 0
M  V30 494 H 47.9811 -1.41464 -3.53225 0
M  V30 495 H 47.4931 -2.94101 -2.53231 0
M  V30 496 H 45.5941 -0.743643 -3.65104 0
M  V30 497 H 45.7071 -2.58913 -4.03114 0
M  V30 498 H 44.0711 -1.29403 -2.19379 0
M  V30 499 H 44.8541 -2.91976 -1.80568 0
M  V30 500 N 47.2992 1.18797 -1.03562 0
M  V30 501 C 48.5452 1.8893 -0.737113 0
M  V30 502 C 48.8782 1.79837 0.732956 0
M  V30 503 O 48.1532 1.19525 1.5344 0
M  V30 504 C 48.4362 3.39607 -1.19745 0
M  V30 505 C 48.2892 3.57537 -2.72924 0
M  V30 506 C 49.6082 4.33069 -0.783526 0
M  V30 507 H 46.7272 0.686057 -0.269249 0
M  V30 508 H 49.3692 1.39797 -1.28673 0
M  V30 509 H 47.5192 3.81583 -0.729855 0
M  V30 510 H 49.1912 3.24688 -3.27682 0
M  V30 511 H 47.4342 3.00363 -3.12993 0
M  V30 512 H 48.1052 4.63238 -3.00191 0
M  V30 513 H 50.5812 3.98846 -1.18581 0
M  V30 514 H 49.4572 5.3707 -1.13343 0
M  V30 515 H 49.7182 4.40986 0.313681 0
M  V30 516 N 48.7773 0.814389 1.34928 0
M  V30 517 C 49.7403 0.235759 2.27984 0
M  V30 518 C 50.7403 -0.581412 1.49921 0
M  V30 519 O 51.9303 -0.398758 1.69575 0
M  V30 520 C 49.0623 -0.670433 3.34242 0
M  V30 521 H 50.2553 1.05659 2.80671 0
M  V30 522 H 47.8083 0.585614 1.44915 0
M  V30 523 H 48.5433 -1.51466 2.86755 0
M  V30 524 H 48.3283 -0.0860822 3.92005 0
M  V30 525 H 49.8183 -1.06935 4.03676 0
M  V30 526 N 50.2554 -1.46986 0.568584 0
M  V30 527 C 51.4804 -2.07335 0.0520528 0
M  V30 528 C 51.9054 -1.41675 -1.23733 0
M  V30 529 O 51.2634 -0.495623 -1.74394 0
M  V30 530 C 51.3114 -3.60417 -0.11501 0
M  V30 531 O 50.4154 -3.95309 -1.17492 0
M  V30 532 H 49.7564 -0.661597 0.0564385 0
M  V30 533 H 52.2864 -1.88837 0.787507 0
M  V30 534 H 52.2964 -4.06698 -0.325644 0
M  V30 535 H 50.9714 -4.07601 0.826675 0
M  V30 536 H 49.5484 -3.60757 -0.943869 0
M  V30 537 N 51.7335 -0.305618 -1.54608 0
M  V30 538 C 53.0105 0.355652 -1.92339 0
M  V30 539 C 53.3905 1.71324 -1.23335 0
M  V30 540 O 52.7385 2.25473 -0.370702 0
M  V30 541 C 52.9485 0.46572 -3.45879 0
M  V30 542 C 54.2965 0.734426 -4.182 0
M  V30 543 O 55.3205 0.54935 -3.51938 0
M  V30 544 O 54.1795 1.09024 -5.35515 0
M  V30 545 H 51.2735 0.199666 -0.802535 0
M  V30 546 H 53.8195 -0.354017 -1.65966 0
M  V30 547 H 52.5915 -0.488461 -3.88239 0
M  V30 548 H 52.2145 1.22367 -3.78301 0
M  V30 549 N 53.2116 1.57565 -0.0334293 0
M  V30 550 C 54.4586 1.91978 0.644272 0
M  V30 551 C 54.7866 0.910231 1.71887 0
M  V30 552 O 54.0416 -0.0801961 1.95536 0
M  V30 553 C 54.3406 3.33112 1.29504 0
M  V30 554 C 54.0066 4.49537 0.350388 0
M  V30 555 C 52.6686 4.81115 0.0903974 0
M  V30 556 C 55.0206 5.20347 -0.298032 0
M  V30 557 C 52.3486 5.8086 -0.825746 0
M  V30 558 C 54.7006 6.2107 -1.20226 0
M  V30 559 C 53.3646 6.51088 -1.4711 0
M  V30 560 H 52.6346 0.702496 0.235756 0
M  V30 561 H 55.2816 1.91259 -0.0961176 0
M  V30 562 H 53.5866 3.30113 2.11028 0
M  V30 563 H 55.2836 3.57011 1.82603 0
M  V30 564 H 51.8736 4.24883 0.563205 0
M  V30 565 H 56.0576 4.96178 -0.110234 0
M  V30 566 H 51.3136 6.02461 -1.04169 0
M  V30 567 H 55.4876 6.75057 -1.71086 0
M  V30 568 H 53.1146 7.28193 -2.18264 0
M  V30 569 N 54.6897 -0.239769 1.55765 0
M  V30 570 C 55.5997 -1.31831 1.94056 0
M  V30 571 C 56.6157 -1.52275 0.841925 0
M  V30 572 O 57.7917 -1.65759 1.14394 0
M  V30 573 C 54.8567 -2.65156 2.23368 0
M  V30 574 C 53.9177 -2.53173 3.46701 0
M  V30 575 C 53.1507 -3.8014 3.74606 0
M  V30 576 O 53.3737 -4.82343 3.04469 0
M  V30 577 O 52.3077 -3.78344 4.68123 0
M  V30 578 H 56.1337 -1.02347 2.85935 0
M  V30 579 H 53.7187 -0.441123 1.42739 0
M  V30 580 H 55.6007 -3.43929 2.43497 0
M  V30 581 H 54.2757 -2.94358 1.34666 0
M  V30 582 H 53.1827 -1.72662 3.31871 0
M  V30 583 H 54.5157 -2.28915 4.35728 0
M  V30 584 N 56.1678 -1.49265 -0.50573 0
M  V30 585 C 57.5788 -1.51769 -1.08734 0
M  V30 586 C 57.9298 -0.301192 -1.93874 0
M  V30 587 O 57.0548 0.589456 -2.08217 0
M  V30 588 C 57.6498 -2.75017 -1.97867 0
M  V30 589 C 56.2088 -2.80314 -2.51199 0
M  V30 590 C 55.3558 -2.4562 -1.28709 0
M  V30 591 H 58.3068 -1.56031 -0.289855 0
M  V30 592 H 58.3278 -2.5491 -2.82491 0
M  V30 593 H 57.8398 -3.63539 -1.35873 0
M  V30 594 H 55.9408 -1.96061 -3.16845 0
M  V30 595 H 56.0538 -3.82366 -2.88675 0
M  V30 596 H 54.4178 -1.97297 -1.61078 0
M  V30 597 H 55.2008 -3.36411 -0.6843 0
M  V30 598 N 57.6459 0.756429 -1.3826 0
M  V30 599 C 58.5779 1.87971 -1.31147 0
M  V30 600 C 59.5909 1.61248 -0.224239 0
M  V30 601 O 60.7799 1.71881 -0.481581 0
M  V30 602 C 57.8799 3.23545 -1.00857 0
M  V30 603 C 57.0529 3.77794 -2.20432 0
M  V30 604 C 56.1119 4.91877 -1.86931 0
M  V30 605 O 55.1379 5.06659 -2.59395 0
M  V30 606 N 56.3399 5.74643 -0.822568 0
M  V30 607 H 59.1049 1.94585 -2.2794 0
M  V30 608 H 56.6659 0.936234 -1.32084 0
M  V30 609 H 58.6579 3.97403 -0.765021 0
M  V30 610 H 57.2279 3.12335 -0.128687 0
M  V30 611 H 56.4479 2.95534 -2.6087 0
M  V30 612 H 57.7359 4.10771 -3.00241 0
M  V30 613 H 57.1339 5.65266 -0.221575 0
M  V30 614 H 55.6909 6.48661 -0.638899 0
M  V30 615 N 59.124 1.23083 0.984299 0
M  V30 616 C 60.372 1.05848 1.72165 0
M  V30 617 C 60.693 -0.406049 1.90726 0
M  V30 618 O 59.963 -1.29139 1.47309 0
M  V30 619 H 58.543 0.388685 0.637913 0
M  V30 620 H 61.205 1.54736 1.18503 0
M  V30 621 H 60.301 1.54327 2.71274 0
M  V30 622 N 60.6021 -1.18246 1.0419 0
M  V30 623 C 61.5321 -2.24127 0.654914 0
M  V30 624 C 62.5131 -1.66617 -0.342451 0
M  V30 625 O 63.6981 -1.92924 -0.222277 0
M  V30 626 C 60.8281 -3.47295 0.0183757 0
M  V30 627 C 59.7821 -4.17563 0.939414 0
M  V30 628 C 59.1081 -5.34438 0.167286 0
M  V30 629 C 60.4081 -4.70917 2.25908 0
M  V30 630 H 62.1021 -2.56753 1.54007 0
M  V30 631 H 59.6481 -1.23414 0.74195 0
M  V30 632 H 61.6011 -4.20572 -0.264082 0
M  V30 633 H 60.3251 -3.13907 -0.901664 0
M  V30 634 H 58.9841 -3.46186 1.20628 0
M  V30 635 H 58.6321 -4.97298 -0.7552 0
M  V30 636 H 58.3321 -5.82388 0.780901 0
M  V30 637 H 59.8561 -6.10504 -0.108125 0
M  V30 638 H 61.2701 -5.35882 2.03724 0
M  V30 639 H 59.6671 -5.29406 2.82577 0
M  V30 640 H 60.7371 -3.88272 2.9047 0
M  V30 641 N 62.0802 -0.821533 -1.34494 0
M  V30 642 C 63.3052 -0.420873 -2.03085 0
M  V30 643 C 63.7302 0.964915 -1.61465 0
M  V30 644 O 63.0882 1.62763 -0.798607 0
M  V30 645 C 63.1362 -0.529414 -3.56693 0
M  V30 646 O 62.2402 0.451302 -4.09923 0
M  V30 647 H 61.5812 -0.173489 -0.640935 0
M  V30 648 H 64.1112 -1.11157 -1.71771 0
M  V30 649 H 64.1212 -0.404671 -4.05988 0
M  V30 650 H 62.7962 -1.54014 -3.86332 0
M  V30 651 H 61.3732 0.285558 -3.71805 0
M  V30 652 N 63.5583 1.46682 -0.576371 0
M  V30 653 C 64.4683 2.34032 0.163141 0
M  V30 654 C 65.4843 1.49367 0.892501 0
M  V30 655 O 66.6603 1.82252 0.857106 0
M  V30 656 C 63.7253 3.26435 1.16795 0
M  V30 657 C 62.7863 4.26998 0.443944 0
M  V30 658 C 62.0193 5.14986 1.40088 0
M  V30 659 O 62.2423 5.05785 2.637 0
M  V30 660 O 61.1763 5.94906 0.914917 0
M  V30 661 H 65.0023 2.98607 -0.55388 0
M  V30 662 H 62.5873 1.45554 -0.336821 0
M  V30 663 H 64.4693 3.83459 1.74748 0
M  V30 664 H 63.1443 2.64465 1.86655 0
M  V30 665 H 62.0513 3.7368 -0.177271 0
M  V30 666 H 63.3843 4.91736 -0.213566 0
M  V30 667 N 65.0364 0.313813 1.54444 0
M  V30 668 C 65.9994 -0.54379 2.22656 0
M  V30 669 C 66.9994 -1.05124 1.21678 0
M  V30 670 O 68.1894 -0.945225 1.46325 0
M  V30 671 C 65.3214 -1.75427 2.92298 0
M  V30 672 H 66.5144 0.0523599 2.99854 0
M  V30 673 H 64.0674 0.0647834 1.56166 0
M  V30 674 H 64.8024 -2.38991 2.19211 0
M  V30 675 H 64.5874 -1.39791 3.66334 0
M  V30 676 H 66.0774 -2.36325 3.44297 0
M  V30 677 N 66.5145 -1.57545 0.0417849 0
M  V30 678 C 67.4775 -2.09885 -0.92093 0
M  V30 679 C 68.4775 -1.01648 -1.24596 0
M  V30 680 O 69.6675 -1.27759 -1.1842 0
M  V30 681 C 66.7995 -2.57527 -2.23367 0
M  V30 682 H 67.9925 -2.96236 -0.467382 0
M  V30 683 H 65.5455 -1.5493 -0.206467 0
M  V30 684 H 66.2805 -1.74542 -2.73323 0
M  V30 685 H 66.0655 -3.36613 -2.01083 0
M  V30 686 H 67.5555 -2.98201 -2.92346 0
M  V30 687 N 67.9926 0.231505 -1.5589 0
M  V30 688 C 69.4086 0.580748 -1.48659 0
M  V30 689 C 69.6086 1.87617 -0.73498 0
M  V30 690 O 68.6646 2.51046 -0.270586 0
M  V30 691 C 69.9776 0.669202 -2.93159 0
M  V30 692 C 71.5256 0.760499 -3.03621 0
M  V30 693 C 72.0006 0.880383 -4.49459 0
M  V30 694 N 73.4916 0.944861 -4.53461 0
M  V30 695 C 74.2266 1.05716 -5.63571 0
M  V30 696 N 73.7226 1.13403 -6.83456 0
M  V30 697 N 75.5156 1.09152 -5.514 0
M  V30 698 H 67.6666 -0.618695 -2.03189 0
M  V30 699 H 69.9296 -0.215728 -0.923128 0
M  V30 700 H 69.6356 -0.212904 -3.51055 0
M  V30 701 H 69.5096 1.5361 -3.44505 0
M  V30 702 H 71.8966 1.63305 -2.45796 0
M  V30 703 H 71.9776 -0.131864 -2.5546 0
M  V30 704 H 71.6216 0.0123284 -5.07899 0
M  V30 705 H 71.5516 1.78802 -4.95316 0
M  V30 706 H 74.0426 0.896176 -3.6712 0
M  V30 707 H 74.3556 1.21921 -7.63122 0
M  V30 708 H 72.7006 1.10333 -6.86186 0
M  V30 709 H 75.8916 1.02805 -4.56671 0
M  V30 710 H 76.0646 1.17558 -6.37247 0
M  V30 711 N 69.4707 1.49531 0.497807 0
M  V30 712 C 70.7167 1.60388 1.25089 0
M  V30 713 C 71.0717 0.288328 1.90227 0
M  V30 714 O 70.3647 -0.711706 1.77891 0
M  V30 715 C 70.5587 2.70252 2.33878 0
M  V30 716 C 70.3877 4.12363 1.79408 0
M  V30 717 C 69.1577 4.7911 1.60566 0
M  V30 718 C 71.3557 4.97491 1.30412 0
M  V30 719 N 69.3377 6.05525 1.01059 0
M  V30 720 C 70.7087 6.14411 0.830595 0
M  V30 721 C 72.7637 4.83466 1.19015 0
M  V30 722 C 71.4667 7.1885 0.254371 0
M  V30 723 C 73.4927 5.88057 0.627892 0
M  V30 724 C 72.8547 7.04208 0.16461 0
M  V30 725 H 68.9537 0.641246 0.447579 0
M  V30 726 H 71.5377 1.86549 0.557441 0
M  V30 727 H 69.7087 2.45858 3.0068 0
M  V30 728 H 71.4407 2.70613 3.00917 0
M  V30 729 H 68.1957 4.35961 1.85026 0
M  V30 730 H 68.6197 6.73028 0.732236 0
M  V30 731 H 73.2617 3.93978 1.53431 0
M  V30 732 H 70.9797 8.08036 -0.102052 0
M  V30 733 H 74.5657 5.79266 0.542444 0
M  V30 734 H 73.4457 7.83757 -0.263669 0
M  V30 735 N 70.9488 -0.749086 1.3866 0
M  V30 736 C 71.8968 -1.88428 1.36373 0
M  V30 737 C 72.8908 -1.67561 0.248929 0
M  V30 738 O 74.0968 -1.75074 0.41821 0
M  V30 739 H 70.4718 -0.620023 0.42553 0
M  V30 740 H 72.4428 -1.87473 2.32156 0
M  V30 741 C 71.1918 -3.25961 1.21014 0
M  V30 742 H 70.5148 -3.42607 2.06059 0
M  V30 743 H 71.9548 -4.05625 1.23469 0
M  V30 744 C 70.4138 -3.36799 -0.0825941 0
M  V30 745 O 70.9438 -3.87517 -1.05797 0
M  V30 746 N 69.1498 -2.90258 -0.140939 0
M  V30 747 H 68.6968 -2.49174 0.653477 0
M  V30 748 H 68.6548 -2.97889 -1.00545 0
M  V30 749 N 72.4269 -1.23603 -0.977757 0
M  V30 750 C 73.6519 -1.09735 -1.75991 0
M  V30 751 C 74.0769 0.346858 -1.84874 0
M  V30 752 O 73.4349 1.25093 -1.3123 0
M  V30 753 C 73.4829 -1.73051 -3.16363 0
M  V30 754 O 72.5869 -0.994452 -4.0023 0
M  V30 755 H 71.9279 -0.384476 -0.541364 0
M  V30 756 H 74.4579 -1.6371 -1.2272 0
M  V30 757 H 74.4679 -1.78398 -3.66931 0
M  V30 758 H 73.1429 -2.78137 -3.09213 0
M  V30 759 H 71.7199 -1.01812 -3.58732 0
M  V30 760 N 73.905 1.17692 -1.04816 0
M  V30 761 C 74.852 2.21581 -0.645797 0
M  V30 762 C 75.822 1.62367 0.350159 0
M  V30 763 O 77.007 1.89254 0.242433 0
M  V30 764 C 74.147 3.45092 -0.0227568 0
M  V30 765 C 73.26 4.18613 -1.06709 0
M  V30 766 C 72.395 5.29602 -0.411767 0
M  V30 767 C 71.434 5.94904 -1.44067 0
M  V30 768 N 70.571 6.97414 -0.809781 0
M  V30 769 H 75.411 2.55353 -1.5362 0
M  V30 770 H 72.948 1.25438 -0.768364 0
M  V30 771 H 74.906 4.15679 0.35588 0
M  V30 772 H 73.536 3.11917 0.831122 0
M  V30 773 H 72.588 3.46779 -1.5636 0
M  V30 774 H 73.9 4.63293 -1.84827 0
M  V30 775 H 73.054 6.06696 0.0206623 0
M  V30 776 H 71.793 4.86045 0.401438 0
M  V30 777 H 70.798 5.16544 -1.88316 0
M  V30 778 H 72.023 6.40542 -2.25571 0
M  V30 779 H 69.969 6.55998 -0.0170186 0
M  V30 780 H 69.886 7.40386 -1.52856 0
M  V30 781 H 71.154 7.78463 -0.401999 0
M  V30 782 N 75.3831 0.828654 1.34056 0
M  V30 783 C 76.2931 0.256725 2.33191 0
M  V30 784 C 77.3091 -0.611898 1.62886 0
M  V30 785 O 78.4851 -0.51844 1.94613 0
M  V30 786 C 75.5501 -0.567238 3.42028 0
M  V30 787 C 74.6111 0.324458 4.28072 0
M  V30 788 C 73.8441 -0.460274 5.31712 0
M  V30 789 O 74.0671 -1.693 5.44696 0
M  V30 790 O 73.0011 0.160391 6.01686 0
M  V30 791 H 76.8271 1.07739 2.83947 0
M  V30 792 H 74.4121 0.59093 1.37217 0
M  V30 793 H 76.2941 -1.03582 4.08471 0
M  V30 794 H 74.9691 -1.36513 2.93506 0
M  V30 795 H 73.8761 0.840659 3.64532 0
M  V30 796 H 75.2091 1.08685 4.8005 0
M  V30 797 N 76.8612 -1.46375 0.584142 0
M  V30 798 C 77.8092 -2.32042 -0.161047 0
M  V30 799 C 78.8032 -1.44569 -0.882966 0
M  V30 800 O 80.0092 -1.61186 -0.801191 0
M  V30 801 H 76.3842 -0.748659 -0.0708033 0
M  V30 802 H 78.3552 -2.92704 0.580269 0
M  V30 803 C 77.1042 -3.27762 -1.1605 0
M  V30 804 H 76.4272 -3.95051 -0.614419 0
M  V30 805 H 77.8672 -3.90481 -1.65228 0
M  V30 806 C 76.3262 -2.53218 -2.22221 0
M  V30 807 O 76.8562 -2.29628 -3.29597 0
M  V30 808 N 75.0622 -2.13756 -1.96868 0
M  V30 809 H 74.6092 -2.33142 -1.09557 0
M  V30 810 H 74.5672 -1.642 -2.68115 0
M  V30 811 N 78.3393 -0.321999 -1.54275 0
M  V30 812 C 79.2693 0.537411 -2.27231 0
M  V30 813 C 80.2503 1.12064 -1.27968 0
M  V30 814 O 81.4353 1.14606 -1.56777 0
M  V30 815 C 78.5653 1.69919 -3.02894 0
M  V30 816 C 77.5193 1.24534 -4.09482 0
M  V30 817 C 76.8453 2.49394 -4.72977 0
M  V30 818 C 78.1453 0.361335 -5.21049 0
M  V30 819 H 79.8393 -0.0711406 -2.99315 0
M  V30 820 H 77.3853 -0.0356555 -1.43956 0
M  V30 821 H 79.3383 2.30668 -3.52662 0
M  V30 822 H 78.0623 2.33431 -2.28424 0
M  V30 823 H 76.7213 0.660782 -3.60596 0
M  V30 824 H 76.3693 3.11265 -3.95124 0
M  V30 825 H 76.0693 2.19718 -5.44975 0
M  V30 826 H 77.5933 3.10908 -5.25517 0
M  V30 827 H 79.0073 0.875072 -5.66582 0
M  V30 828 H 77.4043 0.157428 -5.99893 0
M  V30 829 H 78.4743 -0.60822 -4.8107 0
M  V30 830 N 79.8174 1.5752 -0.0501392 0
M  V30 831 C 80.7474 2.14502 0.922566 0
M  V30 832 C 81.7284 1.06642 1.3252 0
M  V30 833 O 82.9134 1.34577 1.4001 0
M  V30 834 C 80.0434 2.68916 2.19776 0
M  V30 835 C 78.9974 3.8175 1.93523 0
M  V30 836 C 78.3234 4.22677 3.27487 0
M  V30 837 C 79.6234 5.06932 1.25765 0
M  V30 838 H 81.3174 2.9603 0.447952 0
M  V30 839 H 78.8634 1.42401 0.214024 0
M  V30 840 H 80.8164 3.07419 2.88222 0
M  V30 841 H 79.5404 1.84578 2.69441 0
M  V30 842 H 78.1994 3.43718 1.27489 0
M  V30 843 H 77.8474 3.35291 3.74952 0
M  V30 844 H 77.5474 4.98725 3.1072 0
M  V30 845 H 79.0714 4.63779 3.97166 0
M  V30 846 H 80.4854 5.42888 1.84244 0
M  V30 847 H 78.8824 5.88116 1.19328 0
M  V30 848 H 79.9524 4.84337 0.233536 0
M  V30 849 N 81.2955 -0.223234 1.56011 0
M  V30 850 C 82.2585 -1.26014 1.9145 0
M  V30 851 C 83.2585 -1.3989 0.792937 0
M  V30 852 O 84.4485 -1.38184 1.0607 0
M  V30 853 C 81.5805 -2.63422 2.16383 0
M  V30 854 H 82.7735 -0.95796 2.84189 0
M  V30 855 H 80.3265 -0.463576 1.49267 0
M  V30 856 H 81.0615 -2.98741 1.2619 0
M  V30 857 H 80.8465 -2.54728 2.98088 0
M  V30 858 H 82.3365 -3.38249 2.44903 0
M  V30 859 N 82.7736 -1.49793 -0.48987 0
M  V30 860 C 84.0216 -1.59525 -1.24081 0
M  V30 861 C 84.3426 -0.288953 -1.92847 0
M  V30 862 O 83.6126 0.692436 -1.83254 0
M  V30 863 H 82.1926 -0.587796 -0.460983 0
M  V30 864 H 84.8546 -1.86477 -0.566778 0
M  V30 865 H 83.9506 -2.39696 -1.99881 0
M  V30 866 N 84.2517 0.741722 -1.39055 0
M  V30 867 C 85.6627 1.31966 -1.32068 0
M  V30 868 C 86.0137 1.96192 0.0180797 0
M  V30 869 O 85.1387 1.95861 0.920196 0
M  V30 870 C 85.7337 2.39954 -2.39181 0
M  V30 871 C 84.2927 2.93438 -2.35735 0
M  V30 872 C 83.4397 1.66936 -2.21422 0
M  V30 873 H 86.3907 0.539721 -1.4924 0
M  V30 874 H 86.4117 3.20182 -2.05581 0
M  V30 875 H 85.9237 1.9318 -3.36605 0
M  V30 876 H 84.0247 3.4451 -1.41929 0
M  V30 877 H 84.1377 3.4701 -3.30335 0
M  V30 878 H 82.5017 1.91016 -1.68478 0
M  V30 879 H 83.2847 1.22224 -3.20806 0
M  V30 880 N 85.7298 1.2412 0.971189 0
M  V30 881 C 86.9548 1.10667 1.75407 0
M  V30 882 C 87.3798 -0.337048 1.85056 0
M  V30 883 O 86.7378 -1.24396 1.31892 0
M  V30 884 C 86.7858 1.74726 3.15441 0
M  V30 885 O 85.8898 1.01566 3.99697 0
M  V30 886 H 85.2308 0.387341 0.539317 0
M  V30 887 H 87.7608 1.64358 1.2185 0
M  V30 888 H 87.7708 1.80341 3.6598 0
M  V30 889 H 86.4458 2.79773 3.07734 0
M  V30 890 H 85.0228 1.03713 3.58187 0
M  V30 891 N 87.2079 -1.17134 1.05439 0
M  V30 892 C 88.1179 -2.24878 0.668365 0
M  V30 893 C 89.1339 -1.71186 -0.311687 0
M  V30 894 O 90.3099 -2.00738 -0.163161 0
M  V30 895 C 87.3749 -3.46662 0.051648 0
M  V30 896 C 86.4359 -4.15429 1.08246 0
M  V30 897 C 85.6689 -5.31399 0.495082 0
M  V30 898 O 85.8919 -5.66153 -0.694743 0
M  V30 899 O 84.8259 -5.89187 1.23056 0
M  V30 900 H 88.6519 -2.60189 1.56637 0
M  V30 901 H 86.2369 -1.24482 0.826104 0
M  V30 902 H 88.1189 -4.20394 -0.290966 0
M  V30 903 H 86.7939 -3.13142 -0.819971 0
M  V30 904 H 85.7009 -3.43704 1.47711 0
M  V30 905 H 87.0339 -4.52982 1.92532 0
M  V30 906 N 88.686 -0.835752 -1.33615 0
M  V30 907 C 89.634 -0.255238 -2.31195 0
M  V30 908 C 90.628 0.61107 -1.57995 0
M  V30 909 O 91.834 0.500979 -1.72888 0
M  V30 910 H 88.209 -0.0638085 -0.749288 0
M  V30 911 H 90.18 -1.09283 -2.77669 0
M  V30 912 C 88.929 0.55754 -3.43201 0
M  V30 913 H 88.252 -0.0997553 -3.99676 0
M  V30 914 H 89.692 0.929622 -4.13683 0
M  V30 915 C 88.151 1.73515 -2.88781 0
M  V30 916 O 88.681 2.83376 -2.84712 0
M  V30 917 N 86.887 1.55603 -2.4543 0
M  V30 918 H 86.434 0.662354 -2.48939 0
M  V30 919 H 86.392 2.34545 -2.09371 0
M  V30 920 N 90.1641 1.46063 -0.591896 0
M  V30 921 C 91.4411 1.95595 -0.0137119 0
M  V30 922 C 91.8211 1.5345 1.4497 0
M  V30 923 O 91.1691 0.789543 2.14426 0
M  V30 924 C 91.3791 3.48453 -0.195373 0
M  V30 925 C 92.7271 4.24546 -0.0679765 0
M  V30 926 O 93.7511 3.55982 -0.124681 0
M  V30 927 O 92.6101 5.46467 0.0600579 0
M  V30 928 H 89.7041 0.825795 0.0446279 0
M  V30 929 H 92.2501 1.56303 -0.660859 0
M  V30 930 H 91.0221 3.72045 -1.21235 0
M  V30 931 H 90.6451 3.94597 0.487775 0
M  V30 932 N 91.6422 0.330177 1.54103 0
M  V30 933 C 93.0532 -0.15652 1.86043 0
M  V30 934 C 93.4042 -1.51086 1.2517 0
M  V30 935 O 92.5292 -2.09023 0.560217 0
M  V30 936 C 93.1242 -0.290784 3.3755 0
M  V30 937 C 91.6832 -0.721705 3.69416 0
M  V30 938 C 90.8302 0.152622 2.7688 0
M  V30 939 H 93.7812 0.550237 1.48856 0
M  V30 940 H 93.8022 -1.12058 3.63625 0
M  V30 941 H 93.3142 0.695068 3.81825 0
M  V30 942 H 91.4152 -1.71706 3.30678 0
M  V30 943 H 91.5282 -0.520869 4.7626 0
M  V30 944 H 89.8922 -0.372894 2.51956 0
M  V30 945 H 90.6752 1.13536 3.23982 0
M  V30 946 N 93.1203 -1.57491 0.0584922 0
M  V30 947 C 94.0683 -2.13148 -0.931168 0
M  V30 948 C 95.0623 -1.06507 -1.31729 0
M  V30 949 O 96.2683 -1.24906 -1.29609 0
M  V30 950 H 92.6433 -0.68137 -0.31818 0
M  V30 951 H 94.6143 -2.95187 -0.436707 0
M  V30 952 C 93.3633 -2.69732 -2.19408 0
M  V30 953 H 92.6863 -3.51454 -1.90578 0
M  V30 954 H 94.1263 -3.12287 -2.86798 0
M  V30 955 C 92.5853 -1.63855 -2.94369 0
M  V30 956 O 93.1153 -1.05565 -3.87581 0
M  V30 957 N 91.3213 -1.35202 -2.57233 0
M  V30 958 H 90.8683 -1.82791 -1.81508 0
M  V30 959 H 90.8263 -0.645922 -3.07693 0
M  V30 960 N 94.5984 0.214957 -1.56127 0
M  V30 961 C 95.5284 1.2695 -1.95974 0
M  V30 962 C 96.5094 1.48539 -0.828868 0
M  V30 963 O 97.6944 1.60611 -1.09168 0
M  V30 964 C 94.8244 2.61794 -2.28214 0
M  V30 965 C 93.7784 2.54851 -3.43853 0
M  V30 966 C 93.1044 3.93785 -3.61715 0
M  V30 967 C 94.4044 2.09065 -4.78632 0
M  V30 968 H 96.0984 0.93846 -2.84312 0
M  V30 969 H 93.6444 0.449996 -1.36788 0
M  V30 970 H 95.5974 3.35731 -2.54682 0
M  V30 971 H 94.3214 2.96599 -1.36736 0
M  V30 972 H 92.9804 1.8337 -3.17444 0
M  V30 973 H 92.6284 4.25908 -2.67602 0
M  V30 974 H 92.3284 3.90019 -4.39498 0
M  V30 975 H 93.8524 4.69374 -3.90539 0
M  V30 976 H 95.2664 2.7275 -5.04262 0
M  V30 977 H 93.6634 2.16346 -5.59745 0
M  V30 978 H 94.7334 1.04315 -4.73547 0
M  V30 979 N 96.0765 1.50051 0.48192 0
M  V30 980 C 97.3235 1.60498 1.23477 0
M  V30 981 C 97.6515 0.300331 1.92167 0
M  V30 982 O 96.9065 -0.713094 1.82246 0
M  V30 983 C 97.2055 2.72717 2.30998 0
M  V30 984 C 96.8715 4.13572 1.79636 0
M  V30 985 C 95.5335 4.519 1.65348 0
M  V30 986 C 97.8855 5.01649 1.41412 0
M  V30 987 C 95.2135 5.76057 1.11244 0
M  V30 988 C 97.5655 6.26343 0.887538 0
M  V30 989 C 96.2295 6.63483 0.731207 0
M  V30 990 H 95.4995 0.587303 0.451836 0
M  V30 991 H 98.1465 1.83948 0.532468 0
M  V30 992 H 96.4515 2.43312 3.07094 0
M  V30 993 H 98.1485 2.78006 2.88988 0
M  V30 994 H 94.7385 3.83329 1.91721 0
M  V30 995 H 98.9225 4.72679 1.51289 0
M  V30 996 H 94.1785 6.03516 0.978686 0
M  V30 997 H 98.3525 6.93958 0.582654 0
M  V30 998 H 95.9795 7.59568 0.309806 0
M  V30 999 N 97.5546 -0.734337 1.39446 0
M  V30 1000 C 98.8006 -1.49613 1.36908 0
M  V30 1001 C 99.1336 -1.94169 -0.0347829 0
M  V30 1002 O 98.4086 -1.66833 -0.999847 0
M  V30 1003 C 98.6916 -2.73534 2.34203 0
M  V30 1004 C 98.5446 -2.34993 3.83534 0
M  V30 1005 C 99.8636 -3.75635 2.29317 0
M  V30 1006 H 96.9826 -0.542714 0.498629 0
M  V30 1007 H 99.6246 -0.839597 1.70443 0
M  V30 1008 H 97.7746 -3.29553 2.05736 0
M  V30 1009 H 99.4466 -1.84601 4.22753 0
M  V30 1010 H 97.6896 -1.67213 4.00278 0
M  V30 1011 H 98.3606 -3.23738 4.47099 0
M  V30 1012 H 100.837 -3.29203 2.54489 0
M  V30 1013 H 99.7126 -4.60008 2.99472 0
M  V30 1014 H 99.9736 -4.22603 1.29842 0
M  V30 1015 N 99.0327 -1.24633 -0.964593 0
M  V30 1016 C 99.9957 -1.0424 -2.04124 0
M  V30 1017 C 100.996 0.00137563 -1.608 0
M  V30 1018 O 102.186 -0.239883 -1.7254 0
M  V30 1019 C 99.3177 -0.580588 -3.3592 0
M  V30 1020 H 100.511 -1.99803 -2.23649 0
M  V30 1021 H 98.0637 -1.06899 -1.14027 0
M  V30 1022 H 98.7987 0.3781 -3.22088 0
M  V30 1023 H 98.5837 -1.33398 -3.6871 0
M  V30 1024 H 100.074 -0.459034 -4.15069 0
M  V30 1025 N 100.511 1.16574 -1.06058 0
M  V30 1026 C 101.441 2.23057 -0.690488 0
M  V30 1027 C 102.422 1.67141 0.315901 0
M  V30 1028 O 103.607 1.93253 0.191556 0
M  V30 1029 C 100.737 3.47222 -0.073625 0
M  V30 1030 C 99.6908 4.16016 -1.00573 0
M  V30 1031 C 99.0168 5.34104 -0.252289 0
M  V30 1032 C 100.317 4.67264 -2.33371 0
M  V30 1033 H 102.011 2.54271 -1.58072 0
M  V30 1034 H 99.5568 1.22218 -0.76149 0
M  V30 1035 H 101.51 4.20939 0.19714 0
M  V30 1036 H 100.234 3.15302 0.85161 0
M  V30 1037 H 98.8928 3.44223 -1.2612 0
M  V30 1038 H 98.5408 4.98437 0.675988 0
M  V30 1039 H 98.2408 5.81072 -0.873455 0
M  V30 1040 H 99.7648 6.10599 0.0109857 0
M  V30 1041 H 101.179 5.32573 -2.12223 0
M  V30 1042 H 99.5758 5.24843 -2.90963 0
M  V30 1043 H 100.646 3.83602 -2.96611 0
M  V30 1044 N 101.989 0.842826 1.3317 0
M  V30 1045 C 103.219 0.453397 2.01564 0
M  V30 1046 C 103.627 -0.951147 1.63554 0
M  V30 1047 O 102.97 -1.63021 0.846746 0
M  V30 1048 C 103.032 0.499013 3.5602 0
M  V30 1049 C 102.696 1.86037 4.1742 0
M  V30 1050 C 103.693 2.82416 4.36506 0
M  V30 1051 C 101.378 2.15428 4.53757 0
M  V30 1052 C 103.372 4.06346 4.91082 0
M  V30 1053 C 101.059 3.39615 5.0804 0
M  V30 1054 C 102.057 4.3489 5.26649 0
M  V30 1055 O 101.745 5.5688 5.79776 0
M  V30 1056 H 101.477 0.177871 0.652179 0
M  V30 1057 H 104.031 1.13808 1.70988 0
M  V30 1058 H 102.261 -0.242467 3.85939 0
M  V30 1059 H 103.95 0.126852 4.05702 0
M  V30 1060 H 104.716 2.6101 4.08777 0
M  V30 1061 H 100.595 1.42061 4.38565 0
M  V30 1062 H 104.139 4.80722 5.05522 0
M  V30 1063 H 100.036 3.60876 5.352 0
M  V30 1064 H 100.804 5.58674 5.98185 0
M  V30 1065 N 103.467 -1.45747 0.599634 0
M  V30 1066 C 104.744 -1.95585 0.0240846 0
M  V30 1067 C 105.124 -1.54217 -1.44154 0
M  V30 1068 O 104.472 -0.800903 -2.14004 0
M  V30 1069 C 104.682 -3.48344 0.21385 0
M  V30 1070 C 106.03 -4.24504 0.0904902 0
M  V30 1071 O 107.054 -3.55911 0.143558 0
M  V30 1072 O 105.913 -5.46491 -0.0310766 0
M  V30 1073 H 103.007 -0.82602 -0.0402478 0
M  V30 1074 H 105.553 -1.55951 0.669139 0
M  V30 1075 H 104.325 -3.71397 1.23206 0
M  V30 1076 H 103.948 -3.9485 -0.466842 0
M  V30 1077 N 104.945 -0.338344 -1.53925 0
M  V30 1078 C 106.192 0.259758 -2.00827 0
M  V30 1079 C 106.52 1.50973 -1.22628 0
M  V30 1080 O 105.775 1.93379 -0.300509 0
M  V30 1081 C 106.074 0.62448 -3.51902 0
M  V30 1082 C 105.74 -0.528006 -4.47798 0
M  V30 1083 C 104.402 -0.844298 -4.73735 0
M  V30 1084 C 106.754 -1.30143 -5.0469 0
M  V30 1085 C 104.082 -1.93648 -5.53821 0
M  V30 1086 C 106.434 -2.38382 -5.85967 0
M  V30 1087 C 105.098 -2.70576 -6.10201 0
M  V30 1088 H 104.368 0.0950523 -0.734878 0
M  V30 1089 H 107.015 -0.465182 -1.85764 0
M  V30 1090 H 105.32 1.43006 -3.64769 0
M  V30 1091 H 107.017 1.09905 -3.85645 0
M  V30 1092 H 103.607 -0.271421 -4.2774 0
M  V30 1093 H 107.791 -1.07033 -4.84621 0
M  V30 1094 H 103.047 -2.19021 -5.70824 0
M  V30 1095 H 107.221 -2.98746 -6.29066 0
M  V30 1096 H 104.848 -3.55333 -6.72044 0
M  V30 1097 N 106.423 1.57458 -0.0668435 0
M  V30 1098 C 107.669 1.93587 0.6043 0
M  V30 1099 C 108.002 0.946722 1.69561 0
M  V30 1100 O 107.277 -0.0248516 1.94484 0
M  V30 1101 C 107.56 3.40014 1.18585 0
M  V30 1102 C 107.413 4.49685 0.101529 0
M  V30 1103 C 108.732 3.87154 2.09284 0
M  V30 1104 H 105.851 0.703958 0.218202 0
M  V30 1105 H 108.493 1.89542 -0.131804 0
M  V30 1106 H 106.643 3.43592 1.81319 0
M  V30 1107 H 108.315 4.5823 -0.531279 0
M  V30 1108 H 106.558 4.30059 -0.568487 0
M  V30 1109 H 107.229 5.49266 0.54874 0
M  V30 1110 H 109.705 3.85551 1.56491 0
M  V30 1111 H 108.581 4.90231 2.46911 0
M  V30 1112 H 108.842 3.2481 2.99918 0
M  V30 1113 N 107.901 -0.206675 1.56239 0
M  V30 1114 C 108.864 -1.23976 1.92776 0
M  V30 1115 C 109.864 -1.39041 0.807729 0
M  V30 1116 O 111.054 -1.37051 1.0753 0
M  V30 1117 C 108.186 -2.61112 2.19165 0
M  V30 1118 H 109.379 -0.927764 2.85189 0
M  V30 1119 H 106.932 -0.447718 1.4975 0
M  V30 1120 H 107.667 -2.97386 1.29352 0
M  V30 1121 H 107.452 -2.51552 3.00772 0
M  V30 1122 H 108.942 -3.35633 2.48476 0
M  V30 1123 N 109.379 -1.50304 -0.473955 0
M  V30 1124 C 110.604 -1.65175 -1.25427 0
M  V30 1125 C 111.029 -0.333673 -1.85117 0
M  V30 1126 O 110.387 0.702114 -1.67153 0
M  V30 1127 C 110.435 -2.74295 -2.34082 0
M  V30 1128 O 109.539 -2.35349 -3.38651 0
M  V30 1129 H 108.88 -0.551944 -0.369126 0
M  V30 1130 H 111.41 -1.96662 -0.564364 0
M  V30 1131 H 111.42 -2.97285 -2.79438 0
M  V30 1132 H 110.095 -3.69959 -1.90008 0
M  V30 1133 H 108.672 -2.22794 -2.99027 0
M  V30 1134 N 110.857 0.726932 -1.39834 0
M  V30 1135 C 112.105 1.4837 -1.37225 0
M  V30 1136 C 112.426 1.94979 0.0284857 0
M  V30 1137 O 111.696 1.69555 0.981213 0
M  V30 1138 H 110.276 0.55043 -0.505011 0
M  V30 1139 H 112.938 0.862468 -1.74778 0
M  V30 1140 H 112.034 2.36198 -2.04003 0
M  V30 1141 N 112.336 1.25143 0.95797 0
M  V30 1142 C 113.613 1.00472 1.67823 0
M  V30 1143 C 113.993 -0.470056 2.058 0
M  V30 1144 O 113.341 -1.44663 1.76875 0
M  V30 1145 C 113.551 1.9372 2.90299 0
M  V30 1146 C 114.899 2.21371 3.62326 0
M  V30 1147 O 115.923 1.91451 3.00375 0
M  V30 1148 O 114.782 2.72231 4.7387 0
M  V30 1149 H 111.876 0.380752 0.734137 0
M  V30 1150 H 114.422 1.36283 1.01119 0
M  V30 1151 H 113.194 2.93316 2.59001 0
M  V30 1152 H 112.817 1.58286 3.64735 0
M  V30 1153 N 113.814 -1.1601 1.06675 0
M  V30 1154 C 114.762 -2.22586 0.675157 0
M  V30 1155 C 115.756 -1.66525 -0.310766 0
M  V30 1156 O 116.962 -1.79145 -0.175215 0
M  V30 1157 H 113.337 -0.724855 0.200223 0
M  V30 1158 H 115.308 -2.52899 1.58381 0
M  V30 1159 C 114.057 -3.47604 0.0817162 0
M  V30 1160 H 113.38 -3.91058 0.831484 0
M  V30 1161 H 114.82 -4.23718 -0.154708 0
M  V30 1162 C 113.279 -3.15718 -1.17576 0
M  V30 1163 O 113.809 -3.31878 -2.26318 0
M  V30 1164 N 112.015 -2.69816 -1.07923 0
M  V30 1165 H 111.562 -2.56866 -0.194293 0
M  V30 1166 H 111.52 -2.48855 -1.92141 0
M  V30 1167 N 115.292 -0.849877 -1.32721 0
M  V30 1168 C 116.52 -0.464754 -2.01613 0
M  V30 1169 C 116.935 0.937191 -1.63897 0
M  V30 1170 O 116.292 1.61081 -0.857856 0
M  V30 1171 C 116.343 -0.588638 -3.56675 0
M  V30 1172 O 116.064 -1.93535 -3.93034 0
M  V30 1173 C 117.565 -0.2019 -4.4284 0
M  V30 1174 H 114.785 -0.183215 -0.645502 0
M  V30 1175 H 117.329 -1.1455 -1.69407 0
M  V30 1176 H 115.484 0.0443159 -3.87375 0
M  V30 1177 H 115.898 -1.92871 -4.87751 0
M  V30 1178 H 117.372 -0.339599 -5.50954 0
M  V30 1179 H 117.849 0.857224 -4.30753 0
M  V30 1180 H 118.455 -0.809733 -4.17521 0
M  V30 1181 N 116.77 1.45427 -0.607355 0
M  V30 1182 C 117.7 2.3329 0.0989352 0
M  V30 1183 C 118.681 1.46816 0.859007 0
M  V30 1184 O 119.866 1.75588 0.829604 0
M  V30 1185 C 116.996 3.29518 1.09705 0
M  V30 1186 C 115.95 4.25626 0.450206 0
M  V30 1187 C 115.276 5.11542 1.55655 0
M  V30 1188 C 116.576 5.18505 -0.628455 0
M  V30 1189 H 118.27 2.92595 -0.634716 0
M  V30 1190 H 115.816 1.40696 -0.306681 0
M  V30 1191 H 117.769 3.89855 1.59971 0
M  V30 1192 H 116.493 2.68372 1.86129 0
M  V30 1193 H 115.152 3.66586 -0.0315886 0
M  V30 1194 H 114.8 4.46765 2.31107 0
M  V30 1195 H 114.5 5.76647 1.12925 0
M  V30 1196 H 116.024 5.74748 2.06148 0
M  V30 1197 H 117.438 5.72916 -0.209877 0
M  V30 1198 H 115.835 5.92085 -0.977489 0
M  V30 1199 H 116.905 4.60948 -1.50514 0
M  V30 1200 N 118.248 0.346503 1.53744 0
M  V30 1201 C 119.473 -0.253074 2.0585 0
M  V30 1202 C 119.898 -1.43202 1.21962 0
M  V30 1203 O 119.256 -1.79783 0.234073 0
M  V30 1204 C 119.304 -0.643193 3.54817 0
M  V30 1205 O 118.408 -1.74286 3.73762 0
M  V30 1206 H 117.749 -0.0413583 0.662711 0
M  V30 1207 H 120.279 0.501574 1.98357 0
M  V30 1208 H 120.289 -0.919526 3.97503 0
M  V30 1209 H 118.964 0.218966 4.15323 0
M  V30 1210 H 117.541 -1.46356 3.42979 0
M  V30 1211 N 119.726 -1.57421 0.075193 0
M  V30 1212 C 120.975 -1.92794 -0.592731 0
M  V30 1213 C 121.288 -0.957478 -1.70563 0
M  V30 1214 O 122.494 -1.20417 -2.43335 0
M  V30 1215 C 120.95 -3.42495 -1.10569 0
M  V30 1216 C 120.558 -4.47994 -0.0236121 0
M  V30 1217 C 122.302 -3.86864 -1.74748 0
M  V30 1218 C 120.209 -5.88829 -0.550803 0
M  V30 1219 H 119.139 -0.719591 -0.225177 0
M  V30 1220 H 121.79 -1.82902 0.147978 0
M  V30 1221 H 120.172 -3.47471 -1.89947 0
M  V30 1222 H 121.346 -4.54637 0.751099 0
M  V30 1223 H 119.661 -4.13113 0.522159 0
M  V30 1224 H 122.258 -4.8947 -2.15229 0
M  V30 1225 H 122.601 -3.24417 -2.60882 0
M  V30 1226 H 123.134 -3.84504 -1.01986 0
M  V30 1227 H 119.873 -6.54929 0.273457 0
M  V30 1228 H 119.393 -5.85698 -1.29296 0
M  V30 1229 H 121.072 -6.38811 -1.02613 0
M  V30 1230 N 121.204 0.198386 -1.56346 0
M  V30 1231 C 122.432 0.935572 -1.84539 0
M  V30 1232 C 122.847 1.76989 -0.657281 0
M  V30 1233 O 122.204 1.78626 0.374043 0
M  V30 1234 C 122.255 1.8344 -3.11499 0
M  V30 1235 O 121.976 1.03377 -4.25728 0
M  V30 1236 C 123.477 2.68355 -3.52846 0
M  V30 1237 H 120.697 0.273126 -0.612897 0
M  V30 1238 H 123.241 0.20663 -2.03453 0
M  V30 1239 H 121.396 2.51701 -2.94492 0
M  V30 1240 H 121.81 1.64599 -4.98003 0
M  V30 1241 H 123.284 3.27085 -4.44657 0
M  V30 1242 H 123.761 3.41901 -2.75681 0
M  V30 1243 H 124.367 2.05471 -3.72373 0
M  V30 1244 N 122.682 1.50554 0.465978 0
M  V30 1245 C 123.629 1.6979 1.56333 0
M  V30 1246 C 124.599 0.539239 1.57103 0
M  V30 1247 O 125.784 0.770401 1.74555 0
M  V30 1248 C 122.924 1.80273 2.94271 0
M  V30 1249 C 122.037 3.07674 3.0325 0
M  V30 1250 C 121.172 3.08922 4.32135 0
M  V30 1251 C 120.211 4.30755 4.34875 0
M  V30 1252 N 119.348 4.29714 5.55239 0
M  V30 1253 H 124.188 2.63472 1.39235 0
M  V30 1254 H 121.725 1.30602 0.676873 0
M  V30 1255 H 123.683 1.84332 3.74269 0
M  V30 1256 H 122.313 0.900258 3.09992 0
M  V30 1257 H 121.365 3.13062 2.16094 0
M  V30 1258 H 122.677 3.97642 3.01135 0
M  V30 1259 H 121.831 3.11738 5.20485 0
M  V30 1260 H 120.57 2.16792 4.36866 0
M  V30 1261 H 119.575 4.28146 3.44922 0
M  V30 1262 H 120.8 5.24117 4.31831 0
M  V30 1263 H 118.746 3.4044 5.60746 0
M  V30 1264 H 118.663 5.13456 5.54886 0
M  V30 1265 H 119.931 4.36683 6.457 0
M  V30 1266 N 124.16 -0.719506 1.40217 0
M  V30 1267 C 125.408 -1.47641 1.3801 0
M  V30 1268 C 125.729 -1.94992 -0.018145 0
M  V30 1269 O 124.999 -1.70073 -0.972207 0
M  V30 1270 H 123.579 -0.547744 0.507923 0
M  V30 1271 H 126.241 -0.853187 1.75233 0
M  V30 1272 H 125.337 -2.35112 2.05253 0
M  V30 1273 N 125.638 -1.25649 -0.95132 0
M  V30 1274 C 126.548 -1.08073 -2.08224 0
M  V30 1275 C 127.564 -0.0169666 -1.73992 0
M  V30 1276 O 128.74 -0.218593 -2.0021 0
M  V30 1277 C 125.805 -0.704922 -3.39458 0
M  V30 1278 C 124.866 -1.84699 -3.87537 0
M  V30 1279 C 124.099 -1.48902 -5.12508 0
M  V30 1280 O 124.322 -0.386156 -5.69091 0
M  V30 1281 O 123.256 -2.32033 -5.55378 0
M  V30 1282 H 127.082 -2.02924 -2.25954 0
M  V30 1283 H 124.667 -1.04618 -1.06656 0
M  V30 1284 H 126.549 -0.507609 -4.18332 0
M  V30 1285 H 125.224 0.214291 -3.2299 0
M  V30 1286 H 124.131 -2.09919 -3.09653 0
M  V30 1287 H 125.464 -2.74557 -4.08509 0
M  V30 1288 N 127.117 1.15442 -1.07289 0
M  V30 1289 C 128.064 2.20161 -0.692653 0
M  V30 1290 C 129.034 1.63073 0.31564 0
M  V30 1291 O 130.219 1.89725 0.202235 0
M  V30 1292 C 127.359 3.44967 -0.0959509 0
M  V30 1293 C 126.472 4.16256 -1.15564 0
M  V30 1294 C 125.607 5.28609 -0.524011 0
M  V30 1295 C 124.646 5.91715 -1.56653 0
M  V30 1296 N 123.783 6.9554 -0.957531 0
M  V30 1297 H 128.623 2.52037 -1.59002 0
M  V30 1298 H 126.16 1.2378 -0.794798 0
M  V30 1299 H 128.118 4.16341 0.267628 0
M  V30 1300 H 126.748 3.1361 0.764772 0
M  V30 1301 H 125.8 3.43385 -1.6368 0
M  V30 1302 H 127.112 4.59268 -1.94613 0
M  V30 1303 H 126.266 6.06604 -0.108032 0
M  V30 1304 H 125.005 4.86787 0.29825 0
M  V30 1305 H 124.01 5.12433 -1.9923 0
M  V30 1306 H 125.235 6.35614 -2.39107 0
M  V30 1307 H 123.181 6.55814 -0.156162 0
M  V30 1308 H 123.098 7.36977 -1.68526 0
M  V30 1309 H 124.366 7.77435 -0.567032 0
M  V30 1310 N 128.595 0.856903 1.32268 0
M  V30 1311 C 129.525 0.31858 2.31316 0
M  V30 1312 C 130.506 -0.583487 1.59779 0
M  V30 1313 O 131.691 -0.503259 1.87566 0
M  V30 1314 C 128.821 -0.491979 3.43798 0
M  V30 1315 C 127.775 0.315849 4.26833 0
M  V30 1316 C 127.101 -0.619586 5.31098 0
M  V30 1317 C 128.401 1.54282 4.98993 0
M  V30 1318 H 130.095 1.14621 2.76591 0
M  V30 1319 H 127.641 0.552613 1.32974 0
M  V30 1320 H 129.594 -0.879012 4.1213 0
M  V30 1321 H 128.318 -1.35299 2.97257 0
M  V30 1322 H 126.977 0.684664 3.6015 0
M  V30 1323 H 126.625 -1.47751 4.8081 0
M  V30 1324 H 126.325 -0.0830621 5.87541 0
M  V30 1325 H 127.849 -1.00375 6.02293 0
M  V30 1326 H 129.263 1.22796 5.59995 0
M  V30 1327 H 127.66 2.01745 5.65172 0
M  V30 1328 H 128.73 2.30285 4.26728 0
M  V30 1329 N 130.073 -1.45103 0.615059 0
M  V30 1330 C 131.489 -1.57137 0.279322 0
M  V30 1331 C 131.689 -1.60523 -1.21797 0
M  V30 1332 O 130.745 -1.53956 -2.00134 0
M  V30 1333 C 132.058 -2.85062 0.957083 0
M  V30 1334 C 133.606 -2.98749 0.933706 0
M  V30 1335 C 134.081 -4.29455 1.59162 0
M  V30 1336 N 135.572 -4.36231 1.55746 0
M  V30 1337 C 136.307 -5.36051 2.0356 0
M  V30 1338 N 135.803 -6.42367 2.59494 0
M  V30 1339 N 137.596 -5.27456 1.94284 0
M  V30 1340 H 129.747 -1.41148 1.58717 0
M  V30 1341 H 132.01 -0.675331 0.665306 0
M  V30 1342 H 131.716 -2.88488 2.01166 0
M  V30 1343 H 131.59 -3.7407 0.48494 0
M  V30 1344 H 133.977 -2.94886 -0.112347 0
M  V30 1345 H 134.058 -2.11132 1.44419 0
M  V30 1346 H 133.702 -4.34077 2.63704 0
M  V30 1347 H 133.632 -5.15901 1.0561 0
M  V30 1348 H 136.123 -3.60011 1.14893 0
M  V30 1349 H 136.436 -7.14793 2.93752 0
M  V30 1350 H 134.781 -6.43097 2.63537 0
M  V30 1351 H 137.972 -4.43308 1.5032 0
M  V30 1352 H 138.145 -6.05099 2.3186 0
M  V30 1353 N 131.551 -0.354651 -1.53558 0
M  V30 1354 C 132.797 0.238797 -2.01389 0
M  V30 1355 C 133.13 1.49309 -1.2418 0
M  V30 1356 O 132.405 1.91638 -0.332457 0
M  V30 1357 C 132.688 0.541771 -3.56001 0
M  V30 1358 C 132.541 -0.725388 -4.43912 0
M  V30 1359 C 133.86 1.34685 -4.18984 0
M  V30 1360 H 130.979 0.0853177 -0.732045 0
M  V30 1361 H 133.621 -0.477384 -1.83905 0
M  V30 1362 H 131.771 1.15189 -3.71031 0
M  V30 1363 H 133.443 -1.36313 -4.407 0
M  V30 1364 H 131.686 -1.34801 -4.12324 0
M  V30 1365 H 132.357 -0.468505 -5.50008 0
M  V30 1366 H 134.833 0.830837 -4.07721 0
M  V30 1367 H 133.709 1.52759 -5.27215 0
M  V30 1368 H 133.97 2.35221 -3.74331 0
M  V30 1369 N 133.029 1.57378 -0.0835403 0
M  V30 1370 C 133.959 2.1641 0.87686 0
M  V30 1371 C 134.94 1.09429 1.30228 0
M  V30 1372 O 136.125 1.37516 1.37124 0
M  V30 1373 C 133.255 2.73517 2.14022 0
M  V30 1374 C 132.209 3.85769 1.85381 0
M  V30 1375 C 131.535 4.29529 3.18448 0
M  V30 1376 C 132.835 5.09486 1.14984 0
M  V30 1377 H 134.529 2.96914 0.385059 0
M  V30 1378 H 132.075 1.42823 0.18377 0
M  V30 1379 H 134.028 3.13463 2.81636 0
M  V30 1380 H 132.752 1.90252 2.65465 0
M  V30 1381 H 131.411 3.46345 1.20169 0
M  V30 1382 H 131.059 3.43169 3.67755 0
M  V30 1383 H 130.759 5.05204 3.00071 0
M  V30 1384 H 132.283 4.72099 3.8724 0
M  V30 1385 H 133.697 5.46674 1.72687 0
M  V30 1386 H 132.094 5.90515 1.06826 0
M  V30 1387 H 133.164 4.84724 0.130749 0
M  V30 1388 N 134.507 -0.190092 1.56449 0
M  V30 1389 C 135.755 -0.907908 1.80559 0
M  V30 1390 C 136.076 -1.83583 0.657438 0
M  V30 1391 O 135.346 -1.93203 -0.323924 0
M  V30 1392 H 133.926 -0.338247 0.666032 0
M  V30 1393 H 136.588 -0.194403 1.93928 0
M  V30 1394 H 135.684 -1.49604 2.73907 0
M  V30 1395 N 135.985 -1.50799 -0.457987 0
M  V30 1396 C 137.215 -1.65977 -1.23025 0
M  V30 1397 C 137.623 -0.347918 -1.85974 0
M  V30 1398 O 136.966 0.68148 -1.70592 0
M  V30 1399 C 137.028 -2.70309 -2.3701 0
M  V30 1400 C 136.692 -4.135 -1.94594 0
M  V30 1401 C 137.689 -4.98949 -1.46101 0
M  V30 1402 C 135.374 -4.5949 -2.02915 0
M  V30 1403 C 137.368 -6.28442 -1.06489 0
M  V30 1404 C 135.055 -5.88984 -1.62914 0
M  V30 1405 C 136.053 -6.73286 -1.1478 0
M  V30 1406 O 135.741 -8.00362 -0.75339 0
M  V30 1407 H 135.473 -0.56064 -0.377702 0
M  V30 1408 H 138.027 -1.97857 -0.551537 0
M  V30 1409 H 136.257 -2.337 -3.08093 0
M  V30 1410 H 137.946 -2.74574 -2.98938 0
M  V30 1411 H 138.712 -4.6463 -1.39084 0
M  V30 1412 H 134.591 -3.94009 -2.39328 0
M  V30 1413 H 138.135 -6.94194 -0.688488 0
M  V30 1414 H 134.032 -6.22822 -1.69595 0
M  V30 1415 H 134.8 -8.13744 -0.88108 0
M  V30 1416 N 137.463 0.71206 -1.40597 0
M  V30 1417 C 138.411 1.84746 -1.41321 0
M  V30 1418 C 139.405 1.66842 -0.293268 0
M  V30 1419 O 140.611 1.73904 -0.464481 0
M  V30 1420 H 136.986 0.608522 -0.441819 0
M  V30 1421 H 138.957 1.81252 -2.37045 0
M  V30 1422 C 137.706 3.22638 -1.29614 0
M  V30 1423 H 137.029 3.37023 -2.15071 0
M  V30 1424 H 138.469 4.02209 -1.3418 0
M  V30 1425 C 136.928 3.36899 -0.00673121 0
M  V30 1426 O 137.458 3.90186 0.954859 0
M  V30 1427 N 135.664 2.9053 0.0639327 0
M  V30 1428 H 135.211 2.47353 -0.719311 0
M  V30 1429 H 135.169 3.0045 0.926118 0
M  V30 1430 N 138.941 1.26152 0.944643 0
M  V30 1431 C 139.891 1.04081 2.02857 0
M  V30 1432 C 140.875 -0.0256555 1.6088 0
M  V30 1433 O 142.067 0.190884 1.75968 0
M  V30 1434 C 139.196 0.672118 3.36656 0
M  V30 1435 C 138.282 1.77586 3.85128 0
M  V30 1436 N 138.673 3.01272 4.06287 0
M  V30 1437 C 136.971 1.65867 4.1401 0
M  V30 1438 C 137.672 3.72983 4.46384 0
M  V30 1439 N 136.648 3.00653 4.52889 0
M  V30 1440 H 140.45 1.97968 2.17223 0
M  V30 1441 H 137.964 1.16618 1.13022 0
M  V30 1442 H 139.961 0.495166 4.13949 0
M  V30 1443 H 138.621 -0.259307 3.23663 0
M  V30 1444 H 139.632 3.37213 3.93075 0
M  V30 1445 H 136.309 0.796907 4.09824 0
M  V30 1446 H 137.699 4.792 4.70975 0
M  V30 1447 N 140.419 -1.14872 1.07899 0
M  V30 1448 C 141.367 -2.21857 0.698727 0
M  V30 1449 C 142.361 -1.66845 -0.293086 0
M  V30 1450 O 143.567 -1.79321 -0.156204 0
M  V30 1451 H 139.942 -0.722691 0.207899 0
M  V30 1452 H 141.913 -2.51205 1.61054 0
M  V30 1453 C 140.662 -3.47498 0.11858 0
M  V30 1454 H 139.985 -3.90154 0.872914 0
M  V30 1455 H 141.425 -4.23858 -0.109759 0
M  V30 1456 C 139.884 -3.16947 -1.1422 0
M  V30 1457 O 140.414 -3.3426 -2.22785 0
M  V30 1458 N 138.62 -2.70946 -1.05055 0
M  V30 1459 H 138.167 -2.57058 -0.167038 0
M  V30 1460 H 138.125 -2.50879 -1.89491 0
M  V30 1461 N 141.898 -0.863906 -1.31812 0
M  V30 1462 C 143.146 -0.470904 -1.96537 0
M  V30 1463 C 143.467 0.978771 -1.68657 0
M  V30 1464 O 142.737 1.6853 -0.998717 0
M  V30 1465 H 141.317 -0.171148 -0.72713 0
M  V30 1466 H 143.979 -1.10236 -1.60729 0
M  V30 1467 H 143.075 -0.623616 -3.05806 0
M  V30 1468 N 143.376 1.44774 -0.622745 0
M  V30 1469 C 144.286 2.34433 0.0886031 0
M  V30 1470 C 145.302 1.52131 0.844529 0
M  V30 1471 O 146.478 1.84886 0.798691 0
M  V30 1472 C 143.543 3.29986 1.0635 0
M  V30 1473 C 142.604 4.28195 0.307873 0
M  V30 1474 C 141.837 5.19183 1.23633 0
M  V30 1475 O 142.06 5.13918 2.47476 0
M  V30 1476 O 140.994 5.97515 0.725189 0
M  V30 1477 H 144.82 2.96693 -0.648599 0
M  V30 1478 H 142.405 1.44408 -0.382957 0
M  V30 1479 H 144.287 3.88825 1.6246 0
M  V30 1480 H 142.962 2.70269 1.78146 0
M  V30 1481 H 141.869 3.72927 -0.296064 0
M  V30 1482 H 143.202 4.90808 -0.3699 0
M  V30 1483 N 144.854 0.36279 1.53368 0
M  V30 1484 C 146.1 -0.220702 2.02199 0
M  V30 1485 C 146.455 -1.46649 1.24546 0
M  V30 1486 O 145.748 -1.88737 0.32996 0
M  V30 1487 C 145.942 -0.568417 3.52851 0
M  V30 1488 C 145.771 0.642126 4.45092 0
M  V30 1489 C 144.541 1.15335 4.91961 0
M  V30 1490 C 146.739 1.50649 4.91741 0
M  V30 1491 N 144.721 2.3242 5.68202 0
M  V30 1492 C 146.092 2.52404 5.66297 0
M  V30 1493 C 148.147 1.52969 4.73819 0
M  V30 1494 C 146.85 3.56331 6.24836 0
M  V30 1495 C 148.876 2.55789 5.33222 0
M  V30 1496 C 148.238 3.56268 6.07662 0
M  V30 1497 H 144.337 -0.0435508 0.780786 0
M  V30 1498 H 146.921 0.506704 1.87991 0
M  V30 1499 H 145.092 -1.2649 3.67226 0
M  V30 1500 H 146.824 -1.13676 3.88407 0
M  V30 1501 H 143.579 0.718412 4.68119 0
M  V30 1502 H 144.003 2.91591 6.10986 0
M  V30 1503 H 148.645 0.766418 4.15795 0
M  V30 1504 H 146.363 4.33543 6.81958 0
M  V30 1505 H 149.949 2.58435 5.21251 0
M  V30 1506 H 148.829 4.34524 6.52808 0
M  V30 1507 N 146.332 -1.57332 0.0918853 0
M  V30 1508 C 147.572 -1.96117 -0.575988 0
M  V30 1509 C 147.936 -0.972499 -1.65549 0
M  V30 1510 O 149.137 -1.24872 -2.38034 0
M  V30 1511 C 147.408 -3.39407 -1.11973 0
M  V30 1512 S 148.967 -4.00185 -1.79992 0
M  V30 1513 H 145.785 -0.685682 -0.188045 0
M  V30 1514 H 148.387 -1.94755 0.170525 0
M  V30 1515 H 147.091 -4.09131 -0.322504 0
M  V30 1516 H 146.622 -3.44358 -1.90214 0
M  V30 1517 H 148.637 -3.88728 -3.08391 0
M  V30 1518 N 147.81 0.181792 -1.56548 0
M  V30 1519 C 148.72 1.24538 -1.98815 0
M  V30 1520 C 149.736 1.49045 -0.897861 0
M  V30 1521 O 150.912 1.61399 -1.20467 0
M  V30 1522 C 147.977 2.56683 -2.33055 0
M  V30 1523 C 147.038 2.40131 -3.55859 0
M  V30 1524 C 146.271 3.65975 -3.88456 0
M  V30 1525 O 146.494 4.70711 -3.22161 0
M  V30 1526 O 145.428 3.6071 -4.81842 0
M  V30 1527 H 149.254 0.916647 -2.89536 0
M  V30 1528 H 146.839 0.387842 -1.44278 0
M  V30 1529 H 148.721 3.34655 -2.56094 0
M  V30 1530 H 147.396 2.89157 -1.45498 0
M  V30 1531 H 146.303 1.60226 -3.38051 0
M  V30 1532 H 147.636 2.12585 -4.43924 0
M  V30 1533 N 149.288 1.51039 0.449983 0
M  V30 1534 C 150.251 1.70863 1.5277 0
M  V30 1535 C 151.251 0.578846 1.5002 0
M  V30 1536 O 152.441 0.846213 1.52266 0
M  V30 1537 C 149.573 1.75341 2.9235 0
M  V30 1538 H 150.766 2.67034 1.36502 0
M  V30 1539 H 148.319 1.40838 0.677812 0
M  V30 1540 H 149.054 0.809383 3.14037 0
M  V30 1541 H 148.839 2.57436 2.95752 0
M  V30 1542 H 150.329 1.92559 3.70555 0
M  V30 1543 N 150.766 -0.704594 1.40972 0
M  V30 1544 C 151.698 -1.82974 1.38033 0
M  V30 1545 C 152.711 -1.60305 0.283931 0
M  V30 1546 O 153.9 -1.69975 0.545042 0
M  V30 1547 C 151 -3.19578 1.12795 0
M  V30 1548 C 150.173 -3.69352 2.34302 0
M  V30 1549 C 149.232 -4.84601 2.05058 0
M  V30 1550 O 148.258 -4.96682 2.7802 0
M  V30 1551 N 149.46 -5.71194 1.03528 0
M  V30 1552 H 152.225 -1.85991 2.35005 0
M  V30 1553 H 149.786 -0.886567 1.35468 0
M  V30 1554 H 151.778 -3.9429 0.911987 0
M  V30 1555 H 150.348 -3.11642 0.24452 0
M  V30 1556 H 149.568 -2.85649 2.71659 0
M  V30 1557 H 150.856 -3.99345 3.1528 0
M  V30 1558 H 150.254 -5.64054 0.431217 0
M  V30 1559 H 148.811 -6.45843 0.879205 0
M  V30 1560 N 152.244 -1.26651 -0.937939 0
M  V30 1561 C 153.472 -1.15173 -1.7188 0
M  V30 1562 C 153.887 0.292668 -1.86518 0
M  V30 1563 O 153.244 1.20014 -1.37488 0
M  V30 1564 C 153.295 -1.81925 -3.12387 0
M  V30 1565 O 153.016 -3.2072 -2.98446 0
M  V30 1566 C 154.517 -1.76442 -4.06673 0
M  V30 1567 H 151.737 -0.400911 -0.538063 0
M  V30 1568 H 154.281 -1.67332 -1.1756 0
M  V30 1569 H 152.436 -1.33696 -3.63599 0
M  V30 1570 H 152.85 -3.53802 -3.872 0
M  V30 1571 H 154.324 -2.27781 -5.02812 0
M  V30 1572 H 154.801 -0.731608 -4.33064 0
M  V30 1573 H 155.407 -2.24238 -3.61382 0
M  V30 1574 N 153.722 1.14298 -1.08507 0
M  V30 1575 C 154.669 2.19414 -0.715965 0
M  V30 1576 C 155.639 1.63399 0.298326 0
M  V30 1577 O 156.824 1.89929 0.182101 0
M  V30 1578 C 153.964 3.44845 -0.132534 0
M  V30 1579 C 153.077 4.15007 -1.19973 0
M  V30 1580 C 152.212 5.28024 -0.580048 0
M  V30 1581 C 151.251 5.9002 -1.62921 0
M  V30 1582 N 150.388 6.94485 -1.03125 0
M  V30 1583 H 155.228 2.50336 -1.61666 0
M  V30 1584 H 152.765 1.2293 -0.807882 0
M  V30 1585 H 154.723 4.16601 0.223454 0
M  V30 1586 H 153.353 3.14403 0.731467 0
M  V30 1587 H 152.405 3.41629 -1.67313 0
M  V30 1588 H 153.717 4.57178 -1.99473 0
M  V30 1589 H 152.871 6.06455 -0.172364 0
M  V30 1590 H 151.61 4.87076 0.246603 0
M  V30 1591 H 150.615 5.10291 -2.04654 0
M  V30 1592 H 151.84 6.33042 -2.45835 0
M  V30 1593 H 149.786 6.55612 -0.225711 0
M  V30 1594 H 149.703 7.35148 -1.76334 0
M  V30 1595 H 150.971 7.7679 -0.649458 0
M  V30 1596 N 155.201 0.870884 1.31352 0
M  V30 1597 C 156.149 0.316445 2.30437 0
M  V30 1598 C 157.143 -0.568965 1.59559 0
M  V30 1599 O 158.349 -0.454964 1.74155 0
M  V30 1600 H 154.724 0.0836521 0.747333 0
M  V30 1601 H 156.695 1.16606 2.74673 0
M  V30 1602 C 155.444 -0.46635 3.44558 0
M  V30 1603 H 154.767 0.205687 3.99271 0
M  V30 1604 H 156.207 -0.819614 4.16003 0
M  V30 1605 C 154.666 -1.65797 2.9328 0
M  V30 1606 O 155.196 -2.75728 2.92125 0
M  V30 1607 N 153.402 -1.49041 2.4947 0
M  V30 1608 H 152.949 -0.59612 2.50608 0
M  V30 1609 H 152.907 -2.28911 2.15516 0
M  V30 1610 N 156.679 -1.44442 0.630414 0
M  V30 1611 C 157.927 -2.01653 0.134351 0
M  V30 1612 C 158.248 -1.49836 -1.24796 0
M  V30 1613 O 157.518 -0.701684 -1.82902 0
M  V30 1614 H 156.098 -0.74554 0.0466769 0
M  V30 1615 H 158.76 -1.76952 0.816955 0
M  V30 1616 H 157.856 -3.11935 0.101498 0
M  V30 1617 N 158.157 -0.370918 -1.53173 0
M  V30 1618 C 159.089 0.507823 -2.23503 0
M  V30 1619 C 160.102 1.04182 -1.251 0
M  V30 1620 O 161.291 0.947286 -1.5129 0
M  V30 1621 C 158.391 1.71447 -2.92334 0
M  V30 1622 C 157.564 1.31105 -4.17289 0
M  V30 1623 C 156.623 2.38035 -4.69282 0
M  V30 1624 O 155.649 2.00204 -5.32829 0
M  V30 1625 N 156.851 3.69697 -4.47554 0
M  V30 1626 H 159.616 -0.0946382 -2.99551 0
M  V30 1627 H 157.177 -0.196358 -1.60705 0
M  V30 1628 H 159.169 2.42469 -3.24023 0
M  V30 1629 H 157.739 2.22368 -2.19707 0
M  V30 1630 H 156.959 0.430462 -3.91843 0
M  V30 1631 H 158.247 1.0179 -4.98514 0
M  V30 1632 H 157.645 4.03205 -3.9679 0
M  V30 1633 H 156.202 4.36807 -4.8378 0
M  V30 1634 N 159.635 1.57281 -0.100228 0
M  V30 1635 C 160.883 1.94153 0.561157 0
M  V30 1636 C 161.204 0.983157 1.68401 0
M  V30 1637 O 160.474 0.0361132 1.95867 0
M  V30 1638 H 159.054 0.716791 0.210283 0
M  V30 1639 H 161.716 1.94202 -0.164765 0
M  V30 1640 H 160.812 2.96709 0.968008 0
M  V30 1641 N 161.113 -0.173488 1.56642 0
M  V30 1642 C 162.359 -0.887108 1.83035 0
M  V30 1643 C 162.714 -1.79965 0.680461 0
M  V30 1644 O 162.007 -1.88854 -0.323225 0
M  V30 1645 C 162.201 -1.72069 3.13252 0
M  V30 1646 C 162.03 -0.89035 4.40798 0
M  V30 1647 C 160.8 -0.566282 5.02117 0
M  V30 1648 C 162.998 -0.232921 5.13772 0
M  V30 1649 N 160.98 0.280427 6.13259 0
M  V30 1650 C 162.351 0.475046 6.18177 0
M  V30 1651 C 164.406 -0.150863 4.97671 0
M  V30 1652 C 163.109 1.25729 7.08227 0
M  V30 1653 C 165.135 0.618039 5.88162 0
M  V30 1654 C 164.497 1.31438 6.92029 0
M  V30 1655 H 160.596 -0.303303 0.720785 0
M  V30 1656 H 163.18 -0.154244 1.94088 0
M  V30 1657 H 161.351 -2.42499 3.03395 0
M  V30 1658 H 163.083 -2.37545 3.2765 0
M  V30 1659 H 159.838 -0.895852 4.6505 0
M  V30 1660 H 160.262 0.694027 6.73433 0
M  V30 1661 H 164.904 -0.674868 4.17379 0
M  V30 1662 H 162.622 1.79265 7.87966 0
M  V30 1663 H 166.208 0.683173 5.77775 0
M  V30 1664 H 165.088 1.89981 7.6084 0
M  V30 1665 N 162.591 -1.51276 -0.441967 0
M  V30 1666 C 163.837 -1.63958 -1.19355 0
M  V30 1667 C 164.17 -0.352543 -1.90973 0
M  V30 1668 O 163.445 0.647627 -1.83401 0
M  V30 1669 C 163.728 -2.83979 -2.21422 0
M  V30 1670 C 163.581 -4.22646 -1.53918 0
M  V30 1671 C 164.9 -2.99521 -3.22451 0
M  V30 1672 H 162.019 -0.596709 -0.432559 0
M  V30 1673 H 164.661 -1.83748 -0.483398 0
M  V30 1674 H 162.811 -2.67237 -2.81987 0
M  V30 1675 H 164.483 -4.51045 -0.967256 0
M  V30 1676 H 162.726 -4.25558 -0.841615 0
M  V30 1677 H 163.397 -5.02609 -2.28229 0
M  V30 1678 H 165.873 -3.14944 -2.71937 0
M  V30 1679 H 164.749 -3.85072 -3.91166 0
M  V30 1680 H 165.01 -2.11391 -3.88287 0
M  V30 1681 N 164.069 0.697108 -1.41344 0
M  V30 1682 C 165.48 1.27697 -1.36199 0
M  V30 1683 C 165.831 1.9615 -0.0443463 0
M  V30 1684 O 164.956 1.98689 0.857419 0
M  V30 1685 C 165.551 2.32223 -2.46694 0
M  V30 1686 C 164.11 2.8579 -2.44952 0
M  V30 1687 C 163.257 1.59807 -2.26621 0
M  V30 1688 H 166.208 0.491968 -1.50882 0
M  V30 1689 H 166.229 3.1348 -2.15664 0
M  V30 1690 H 165.741 1.82373 -3.42581 0
M  V30 1691 H 163.842 3.3982 -1.52817 0
M  V30 1692 H 163.955 3.36325 -3.41207 0
M  V30 1693 H 162.319 1.8556 -1.7447 0
M  V30 1694 H 163.102 1.11956 -3.24532 0
M  V30 1695 N 165.547 1.27147 0.931209 0
M  V30 1696 C 166.772 1.16191 1.71797 0
M  V30 1697 C 167.197 -0.278004 1.86034 0
M  V30 1698 O 166.555 -1.20137 1.35782 0
M  V30 1699 C 166.603 1.84673 3.09723 0
M  V30 1700 O 165.707 1.14231 3.96264 0
M  V30 1701 H 165.048 0.404303 0.526721 0
M  V30 1702 H 167.578 1.68152 1.1656 0
M  V30 1703 H 167.588 1.91893 3.60057 0
M  V30 1704 H 166.263 2.89421 2.98677 0
M  V30 1705 H 164.84 1.15056 3.54706 0
M  V30 1706 N 167.025 -1.13721 1.09112 0
M  V30 1707 C 167.973 -2.21103 0.722219 0
M  V30 1708 C 168.967 -1.67147 -0.275374 0
M  V30 1709 O 170.173 -1.79477 -0.137176 0
M  V30 1710 H 166.548 -0.720445 0.215553 0
M  V30 1711 H 168.519 -2.49483 1.63709 0
M  V30 1712 C 167.268 -3.47352 0.15543 0
M  V30 1713 H 166.591 -3.89206 0.914246 0
M  V30 1714 H 168.031 -4.2395 -0.0647967 0
M  V30 1715 C 166.49 -3.1814 -1.10852 0
M  V30 1716 O 167.02 -3.36604 -2.19227 0
M  V30 1717 N 165.226 -2.72045 -1.02176 0
M  V30 1718 H 164.773 -2.57221 -0.139764 0
M  V30 1719 H 164.731 -2.52875 -1.8682 0
M  V30 1720 N 168.503 -0.877838 -1.30888 0
M  V30 1721 C 169.733 -0.506678 -2.00291 0
M  V30 1722 C 170.141 0.907449 -1.66018 0
M  V30 1723 O 169.484 1.60719 -0.88967 0
M  V30 1724 C 169.546 -0.59323 -3.54572 0
M  V30 1725 C 169.21 -1.97038 -4.12341 0
M  V30 1726 C 170.207 -2.93889 -4.28865 0
M  V30 1727 C 167.892 -2.27383 -4.47886 0
M  V30 1728 C 169.886 -4.19224 -4.80136 0
M  V30 1729 C 167.573 -3.52965 -4.98857 0
M  V30 1730 C 168.571 -4.48701 -5.14934 0
M  V30 1731 O 168.259 -5.72056 -5.64808 0
M  V30 1732 H 167.991 -0.1951 -0.647234 0
M  V30 1733 H 170.545 -1.18301 -1.6791 0
M  V30 1734 H 168.775 0.140057 -3.86446 0
M  V30 1735 H 170.464 -0.234372 -4.05223 0
M  V30 1736 H 171.23 -2.71756 -4.01714 0
M  V30 1737 H 167.109 -1.53639 -4.34645 0
M  V30 1738 H 170.653 -4.93956 -4.92599 0
M  V30 1739 H 166.55 -3.74939 -5.25443 0
M  V30 1740 H 167.318 -5.74337 -5.83163 0
M  V30 1741 N 169.982 1.44106 -0.638065 0
M  V30 1742 C 171.231 2.01194 -0.142744 0
M  V30 1743 C 171.544 1.50835 1.24532 0
M  V30 1744 O 172.75 2.00096 1.83504 0
M  V30 1745 C 171.206 3.59319 -0.20442 0
M  V30 1746 C 170.814 4.18674 -1.59423 0
M  V30 1747 C 172.558 4.23854 0.234079 0
M  V30 1748 C 170.465 5.69045 -1.61065 0
M  V30 1749 H 169.395 0.752367 -0.0495998 0
M  V30 1750 H 172.046 1.65246 -0.797881 0
M  V30 1751 H 170.428 3.92598 0.517946 0
M  V30 1752 H 171.602 3.96921 -2.34074 0
M  V30 1753 H 169.917 3.66453 -1.97741 0
M  V30 1754 H 172.514 5.34155 0.241443 0
M  V30 1755 H 172.857 3.96688 1.2627 0
M  V30 1756 H 173.39 3.95403 -0.436025 0
M  V30 1757 H 170.129 6.00956 -2.61787 0
M  V30 1758 H 169.649 5.929 -0.90718 0
M  V30 1759 H 171.328 6.32809 -1.34766 0
M  V30 1760 N 171.46 0.379036 1.52974 0
M  V30 1761 C 172.688 -0.20679 2.05864 0
M  V30 1762 C 173.103 -1.41356 1.25155 0
M  V30 1763 O 172.46 -1.8009 0.295588 0
M  V30 1764 C 172.511 -0.587045 3.56702 0
M  V30 1765 O 172.232 0.571776 4.34353 0
M  V30 1766 C 173.733 -1.22983 4.25899 0
M  V30 1767 H 170.953 -0.0336123 0.670158 0
M  V30 1768 H 173.497 0.541298 1.97206 0
M  V30 1769 H 171.652 -1.28504 3.65466 0
M  V30 1770 H 172.066 0.261544 5.23847 0
M  V30 1771 H 173.54 -1.44635 5.32715 0
M  V30 1772 H 174.017 -2.19416 3.80465 0
M  V30 1773 H 174.623 -0.572892 4.21424 0
M  V30 1774 N 172.938 -1.57226 0.108567 0
M  V30 1775 C 174.349 -1.8195 -0.418464 0
M  V30 1776 C 174.7 -1.02508 -1.67292 0
M  V30 1777 O 173.825 -0.258496 -2.14851 0
M  V30 1778 C 174.42 -3.30028 -0.765979 0
M  V30 1779 C 172.979 -3.55469 -1.23769 0
M  V30 1780 C 172.126 -2.7625 -0.241106 0
M  V30 1781 H 175.077 -1.55149 0.33384 0
M  V30 1782 H 175.098 -3.44086 -1.62434 0
M  V30 1783 H 174.61 -3.87821 0.147219 0
M  V30 1784 H 172.711 -3.03022 -2.16814 0
M  V30 1785 H 172.824 -4.6408 -1.19022 0
M  V30 1786 H 171.188 -2.44133 -0.72602 0
M  V30 1787 H 171.971 -3.36797 0.665007 0
M  V30 1788 N 174.416 0.165178 -1.56732 0
M  V30 1789 C 175.662 0.882112 -1.82611 0
M  V30 1790 C 175.995 1.81628 -0.687378 0
M  V30 1791 O 175.27 1.92009 0.310267 0
M  V30 1792 C 175.553 1.67245 -3.18906 0
M  V30 1793 C 175.406 0.760987 -4.43316 0
M  V30 1794 C 176.725 2.63884 -3.52212 0
M  V30 1795 H 173.844 0.319242 -0.664269 0
M  V30 1796 H 176.486 0.148052 -1.89422 0
M  V30 1797 H 174.636 2.29824 -3.1323 0
M  V30 1798 H 176.308 0.147596 -4.61064 0
M  V30 1799 H 174.551 0.0694102 -4.33744 0
M  V30 1800 H 175.222 1.34962 -5.35247 0
M  V30 1801 H 177.698 2.11429 -3.58381 0
M  V30 1802 H 176.574 3.16245 -4.48643 0
M  V30 1803 H 176.835 3.44377 -2.77231 0
M  V30 1804 N 175.894 1.51508 0.433938 0
M  V30 1805 C 176.842 1.73646 1.54757 0
M  V30 1806 C 177.836 0.602854 1.5831 0
M  V30 1807 O 179.042 0.784318 1.62014 0
M  V30 1808 H 175.417 0.548718 0.51421 0
M  V30 1809 H 177.388 2.66991 1.33261 0
M  V30 1810 C 176.137 1.88172 2.92381 0
M  V30 1811 H 175.46 2.74808 2.90381 0
M  V30 1812 H 176.9 2.07672 3.6966 0
M  V30 1813 C 175.359 0.64239 3.30719 0
M  V30 1814 O 175.889 -0.201362 4.01195 0
M  V30 1815 N 174.095 0.485489 2.86516 0
M  V30 1816 H 173.642 1.17318 2.29334 0
M  V30 1817 H 173.6 -0.342482 3.12529 0
M  V30 1818 N 177.372 -0.689602 1.41712 0
M  V30 1819 C 178.597 -1.48329 1.44959 0
M  V30 1820 C 179.022 -1.8801 0.0581283 0
M  V30 1821 O 178.38 -1.55026 -0.940035 0
M  V30 1822 C 178.428 -2.71835 2.36935 0
M  V30 1823 O 177.532 -3.69549 1.8305 0
M  V30 1824 H 176.873 -0.446199 0.491734 0
M  V30 1825 H 179.403 -0.847127 1.86239 0
M  V30 1826 H 179.413 -3.20076 2.53013 0
M  V30 1827 H 178.088 -2.42291 3.38035 0
M  V30 1828 H 176.665 -3.2851 1.76452 0
M  V30 1829 N 178.85 -1.27639 -0.924453 0
M  V30 1830 C 179.78 -1.13166 -2.04244 0
M  V30 1831 C 180.761 -0.032256 -1.70069 0
M  V30 1832 O 181.946 -0.207328 -1.9309 0
M  V30 1833 C 179.076 -0.781496 -3.38393 0
M  V30 1834 C 178.03 -1.83449 -3.86692 0
M  V30 1835 C 177.356 -1.33822 -5.17683 0
M  V30 1836 C 178.656 -3.23917 -4.09726 0
M  V30 1837 H 180.35 -2.06689 -2.1661 0
M  V30 1838 H 177.896 -0.995136 -1.04082 0
M  V30 1839 H 179.849 -0.667057 -4.16087 0
M  V30 1840 H 178.573 0.189439 -3.2605 0
M  V30 1841 H 177.232 -1.93789 -3.11193 0
M  V30 1842 H 176.88 -0.35665 -5.01734 0
M  V30 1843 H 176.58 -2.04224 -5.50968 0
M  V30 1844 H 178.104 -1.23679 -5.97943 0
M  V30 1845 H 179.518 -3.16559 -4.77978 0
M  V30 1846 H 177.915 -3.92059 -4.54324 0
M  V30 1847 H 178.985 -3.68729 -3.14908 0
M  V30 1848 N 180.328 1.1314 -1.09713 0
M  V30 1849 C 181.238 2.22242 -0.751367 0
M  V30 1850 C 182.254 1.72224 0.247938 0
M  V30 1851 O 183.43 2.01205 0.0885463 0
M  V30 1852 C 180.495 3.46231 -0.180274 0
M  V30 1853 C 179.556 4.11125 -1.2359 0
M  V30 1854 C 178.789 5.29195 -0.691966 0
M  V30 1855 O 179.012 5.68342 0.48414 0
M  V30 1856 O 177.946 5.84214 -1.44838 0
M  V30 1857 H 181.772 2.54197 -1.66186 0
M  V30 1858 H 179.357 1.21331 -0.871735 0
M  V30 1859 H 181.239 4.21185 0.134739 0
M  V30 1860 H 179.914 3.1597 0.703185 0
M  V30 1861 H 178.821 3.37985 -1.60366 0
M  V30 1862 H 180.154 4.45524 -2.09211 0
M  V30 1863 N 181.806 0.884767 1.30421 0
M  V30 1864 C 182.753 0.349642 2.28136 0
M  V30 1865 C 183.723 -0.560061 1.56373 0
M  V30 1866 O 184.908 -0.488524 1.8444 0
M  V30 1867 C 182.048 -0.42999 3.42411 0
M  V30 1868 C 181.161 0.508907 4.28992 0
M  V30 1869 C 180.296 -0.286301 5.30428 0
M  V30 1870 C 179.335 0.648079 6.08659 0
M  V30 1871 N 178.472 -0.111792 7.02011 0
M  V30 1872 H 183.312 1.18807 2.73293 0
M  V30 1873 H 180.849 0.597231 1.3443 0
M  V30 1874 H 182.807 -0.897923 4.07423 0
M  V30 1875 H 181.437 -1.23299 2.98324 0
M  V30 1876 H 180.489 1.09533 3.64289 0
M  V30 1877 H 181.801 1.22475 4.8353 0
M  V30 1878 H 180.955 -0.816098 6.01186 0
M  V30 1879 H 179.694 -1.03536 4.76583 0
M  V30 1880 H 178.699 1.18951 5.36778 0
M  V30 1881 H 179.924 1.39623 6.64592 0
M  V30 1882 H 177.87 -0.843395 6.50556 0
M  V30 1883 H 177.787 0.544429 7.54037 0
M  V30 1884 H 179.055 -0.622339 7.77012 0
M  V30 1885 N 183.284 -1.43765 0.645699 0
M  V30 1886 C 184.234 -2.27884 -0.0726442 0
M  V30 1887 C 185.218 -1.39483 -0.802086 0
M  V30 1888 O 186.41 -1.63174 -0.685791 0
M  V30 1889 C 183.539 -3.27055 -1.04356 0
M  V30 1890 C 182.625 -4.22944 -0.312985 0
M  V30 1891 N 183.016 -5.01391 0.666386 0
M  V30 1892 C 181.314 -4.42528 -0.55546 0
M  V30 1893 C 182.015 -5.71217 1.09935 0
M  V30 1894 N 180.991 -5.41856 0.435137 0
M  V30 1895 H 184.793 -2.85949 0.678988 0
M  V30 1896 H 182.307 -1.55378 0.472368 0
M  V30 1897 H 184.304 -3.86089 -1.57292 0
M  V30 1898 H 182.964 -2.70551 -1.79534 0
M  V30 1899 H 183.975 -5.07252 1.04481 0
M  V30 1900 H 180.652 -3.97104 -1.28899 0
M  V30 1901 H 182.042 -6.44202 1.90929 0
M  V30 1902 N 184.763 -0.387143 -1.52771 0
M  V30 1903 C 185.988 0.198407 -2.06449 0
M  V30 1904 C 186.413 1.39918 -1.25716 0
M  V30 1905 O 185.771 1.79099 -0.281657 0
M  V30 1906 C 185.819 0.548893 -3.56398 0
M  V30 1907 O 184.923 1.64315 -3.78252 0
M  V30 1908 H 184.264 0.0237731 -0.663574 0
M  V30 1909 H 186.794 -0.553989 -1.96957 0
M  V30 1910 H 186.804 0.813812 -3.99801 0
M  V30 1911 H 185.479 -0.329005 -4.14597 0
M  V30 1912 H 184.056 1.37211 -3.46738 0
M  V30 1913 N 186.241 1.57166 -0.116904 0
M  V30 1914 C 187.487 1.96206 0.536166 0
M  V30 1915 C 187.842 0.99915 1.64422 0
M  V30 1916 O 187.135 0.0288195 1.91578 0
M  V30 1917 C 187.329 3.39508 1.11664 0
M  V30 1918 C 187.158 4.49651 0.0663474 0
M  V30 1919 C 185.928 5.03982 -0.36474 0
M  V30 1920 C 188.126 5.09322 -0.713829 0
M  V30 1921 N 186.108 5.97699 -1.40102 0
M  V30 1922 C 187.479 5.98963 -1.60136 0
M  V30 1923 C 189.534 4.91989 -0.764948 0
M  V30 1924 C 188.237 6.73128 -2.53556 0
M  V30 1925 C 190.263 5.66833 -1.68685 0
M  V30 1926 C 189.625 6.56158 -2.56196 0
M  V30 1927 H 185.724 0.764203 0.165886 0
M  V30 1928 H 188.308 1.93623 -0.204535 0
M  V30 1929 H 186.479 3.42743 1.82707 0
M  V30 1930 H 188.211 3.65677 1.73386 0
M  V30 1931 H 184.966 4.73592 0.027252 0
M  V30 1932 H 185.39 6.49262 -1.91802 0
M  V30 1933 H 190.032 4.22676 -0.102501 0
M  V30 1934 H 187.75 7.41689 -3.20816 0
M  V30 1935 H 191.336 5.55427 -1.73181 0
M  V30 1936 H 190.216 7.13057 -3.26372 0
M  V30 1937 N 187.719 -0.156864 1.56817 0
M  V30 1938 C 188.949 -0.885031 1.86684 0
M  V30 1939 C 189.357 -1.75696 0.701954 0
M  V30 1940 O 188.7 -1.80569 -0.337732 0
M  V30 1941 C 188.762 -1.80092 3.11138 0
M  V30 1942 C 188.426 -1.10714 4.43386 0
M  V30 1943 C 189.423 -0.465714 5.1781 0
M  V30 1944 C 187.108 -1.09959 4.90117 0
M  V30 1945 C 189.102 0.174002 6.37162 0
M  V30 1946 C 186.789 -0.456055 6.09396 0
M  V30 1947 C 187.787 0.179622 6.82764 0
M  V30 1948 O 187.475 0.812975 7.99779 0
M  V30 1949 H 187.207 -0.261813 0.623242 0
M  V30 1950 H 189.761 -0.157383 2.04796 0
M  V30 1951 H 187.991 -2.56926 2.89009 0
M  V30 1952 H 189.68 -2.40018 3.27332 0
M  V30 1953 H 190.446 -0.463427 4.82781 0
M  V30 1954 H 186.325 -1.58378 4.3294 0
M  V30 1955 H 189.869 0.670765 6.94368 0
M  V30 1956 H 185.766 -0.455975 6.43888 0
M  V30 1957 H 186.534 0.71366 8.15383 0
M  V30 1958 N 189.197 -1.51736 -0.425897 0
M  V30 1959 C 190.147 -1.70258 -1.51645 0
M  V30 1960 C 191.131 -0.556488 -1.5097 0
M  V30 1961 O 192.323 -0.812879 -1.5723 0
M  V30 1962 C 189.452 -1.84143 -2.89735 0
M  V30 1963 C 188.538 -3.04572 -2.95122 0
M  V30 1964 N 188.929 -4.2756 -2.70233 0
M  V30 1965 C 187.227 -3.04061 -3.26286 0
M  V30 1966 C 187.928 -5.08908 -2.81757 0
M  V30 1967 N 186.904 -4.43797 -3.13919 0
M  V30 1968 H 190.706 -2.63004 -1.31172 0
M  V30 1969 H 188.22 -1.4954 -0.633375 0
M  V30 1970 H 190.217 -1.95525 -3.68206 0
M  V30 1971 H 188.877 -0.925857 -3.1122 0
M  V30 1972 H 189.888 -4.56315 -2.44943 0
M  V30 1973 H 186.565 -2.22179 -3.53473 0
M  V30 1974 H 187.955 -6.16843 -2.66372 0
M  V30 1975 N 190.675 0.682077 -1.42076 0
M  V30 1976 C 191.923 1.4393 -1.41876 0
M  V30 1977 C 192.244 1.94971 -0.0335599 0
M  V30 1978 O 191.514 1.72591 0.926773 0
M  V30 1979 H 190.094 0.534085 -0.522267 0
M  V30 1980 H 192.756 0.806427 -1.77434 0
M  V30 1981 H 191.852 2.29588 -2.11414 0
M  V30 1982 N 192.153 1.28127 0.917671 0
M  V30 1983 C 193.564 1.13622 1.48145 0
M  V30 1984 C 193.915 -0.275207 1.9426 0
M  V30 1985 O 193.04 -1.1691 1.82102 0
M  V30 1986 C 193.635 2.05648 2.69248 0
M  V30 1987 C 192.194 1.95219 3.21818 0
M  V30 1988 C 191.341 1.97618 1.94532 0
M  V30 1989 H 194.292 1.40874 0.730772 0
M  V30 1990 H 194.313 1.61818 3.44377 0
M  V30 1991 H 193.825 3.08365 2.35653 0
M  V30 1992 H 191.926 0.955244 3.60147 0
M  V30 1993 H 192.039 2.81976 3.87333 0
M  V30 1994 H 190.403 1.41973 2.11461 0
M  V30 1995 H 191.186 3.02007 1.63238 0
M  V30 1996 N 193.631 -1.12557 1.10312 0
M  V30 1997 C 194.877 -1.84311 0.846011 0
M  V30 1998 C 195.21 -1.83805 -0.626859 0
M  V30 1999 O 194.485 -1.28268 -1.46211 0
M  V30 2000 C 194.768 -3.32048 1.39341 0
M  V30 2001 C 194.621 -3.41016 2.93305 0
M  V30 2002 C 195.94 -4.27764 1.03468 0
M  V30 2003 H 193.059 -0.669192 0.30879 0
M  V30 2004 H 195.701 -1.32057 1.36605 0
M  V30 2005 H 193.851 -3.76678 0.951087 0
M  V30 2006 H 195.523 -3.05031 3.46055 0
M  V30 2007 H 193.766 -2.81603 3.29973 0
M  V30 2008 H 194.437 -4.44948 3.26689 0
M  V30 2009 H 196.913 -3.91253 1.41633 0
M  V30 2010 H 195.789 -5.29549 1.44463 0
M  V30 2011 H 196.05 -4.42064 -0.0560404 0
M  V30 2012 N 195.109 -0.891671 -1.2995 0
M  V30 2013 C 196.334 -0.527932 -2.00568 0
M  V30 2014 C 196.759 0.877969 -1.66353 0
M  V30 2015 O 196.117 1.58301 -0.883762 0
M  V30 2016 C 196.165 -0.717745 -3.53385 0
M  V30 2017 O 195.269 0.233376 -4.11739 0
M  V30 2018 H 194.61 -0.20722 -0.630837 0
M  V30 2019 H 197.14 -1.20105 -1.65638 0
M  V30 2020 H 197.15 -0.619307 -4.03272 0
M  V30 2021 H 195.825 -1.74276 -3.77625 0
M  V30 2022 H 194.402 0.0880706 -3.72796 0
M  V30 2023 N 196.587 1.43421 -0.653314 0
M  V30 2024 C 198.003 1.56341 -0.320886 0
M  V30 2025 C 198.203 1.63696 1.17499 0
M  V30 2026 O 197.259 1.59208 1.95982 0
M  V30 2027 C 198.572 2.82424 -1.03233 0
M  V30 2028 C 200.12 2.96168 -1.01259 0
M  V30 2029 C 200.595 4.25084 -1.70492 0
M  V30 2030 N 202.086 4.31948 -1.67257 0
M  V30 2031 C 202.821 5.30466 -2.17701 0
M  V30 2032 N 202.317 6.35261 -2.76434 0
M  V30 2033 N 204.11 5.2212 -2.082 0
M  V30 2034 H 196.261 1.3689 -1.62403 0
M  V30 2035 H 198.524 0.657455 -0.682977 0
M  V30 2036 H 198.23 2.83053 -2.08744 0
M  V30 2037 H 198.104 3.72653 -0.583948 0
M  V30 2038 H 200.491 2.9508 0.0341235 0
M  V30 2039 H 200.572 2.07229 -1.49966 0
M  V30 2040 H 200.216 4.26932 -2.7512 0
M  V30 2041 H 200.146 5.1292 -1.19251 0
M  V30 2042 H 202.637 3.56838 -1.24398 0
M  V30 2043 H 202.95 7.06754 -3.12601 0
M  V30 2044 H 201.295 6.35884 -2.80495 0
M  V30 2045 H 204.486 4.39166 -1.62021 0
M  V30 2046 H 204.659 5.98739 -2.47822 0
M  V30 2047 N 198.065 0.39524 1.52563 0
M  V30 2048 C 199.013 -0.451859 2.28169 0
M  V30 2049 C 200.007 -1.05792 1.32304 0
M  V30 2050 O 201.213 -0.997718 1.49818 0
M  V30 2051 H 197.588 -0.164481 0.733792 0
M  V30 2052 H 199.559 0.207199 2.9768 0
M  V30 2053 C 198.308 -1.56385 3.10546 0
M  V30 2054 H 197.631 -1.10682 3.84174 0
M  V30 2055 H 199.071 -2.13067 3.66577 0
M  V30 2056 C 197.53 -2.52328 2.23231 0
M  V30 2057 O 198.06 -3.5588 1.86312 0
M  V30 2058 N 196.266 -2.22209 1.87274 0
M  V30 2059 H 195.813 -1.38033 2.17496 0
M  V30 2060 H 195.771 -2.86652 1.29143 0
M  V30 2061 N 199.544 -1.57102 0.125237 0
M  V30 2062 C 200.507 -2.14471 -0.80838 0
M  V30 2063 C 201.507 -1.0811 -1.19033 0
M  V30 2064 O 202.697 -1.33856 -1.11482 0
M  V30 2065 C 199.829 -2.69005 -2.09402 0
M  V30 2066 H 201.022 -2.98297 -0.309696 0
M  V30 2067 H 198.575 -1.55807 -0.124051 0
M  V30 2068 H 199.31 -1.88785 -2.63687 0
M  V30 2069 H 199.095 -3.46799 -1.82957 0
M  V30 2070 H 200.585 -3.13278 -2.76128 0
M  V30 2071 N 201.022 0.148545 -1.56898 0
M  V30 2072 C 201.985 1.16736 -1.97244 0
M  V30 2073 C 202.985 1.35947 -0.858777 0
M  V30 2074 O 204.175 1.32966 -1.12542 0
M  V30 2075 C 201.307 2.52798 -2.28705 0
M  V30 2076 H 202.5 0.821279 -2.88435 0
M  V30 2077 H 200.053 0.391831 -1.51309 0
M  V30 2078 H 200.788 2.92381 -1.403 0
M  V30 2079 H 200.573 2.40216 -3.09901 0
M  V30 2080 H 202.063 3.26179 -2.60762 0
M  V30 2081 N 202.5 1.5196 0.417844 0
M  V30 2082 C 203.41 1.77554 1.53336 0
M  V30 2083 C 204.426 0.660655 1.6097 0
M  V30 2084 O 205.602 0.945099 1.77848 0
M  V30 2085 C 202.667 1.91291 2.89152 0
M  V30 2086 C 201.728 3.15183 2.91475 0
M  V30 2087 C 200.961 3.28256 4.20813 0
M  V30 2088 O 201.184 2.46798 5.14244 0
M  V30 2089 O 200.118 4.21356 4.29817 0
M  V30 2090 H 203.944 2.7222 1.34647 0
M  V30 2091 H 201.529 1.36698 0.602828 0
M  V30 2092 H 203.411 2.02199 3.69721 0
M  V30 2093 H 202.086 0.998129 3.07927 0
M  V30 2094 H 200.993 3.09739 2.09791 0
M  V30 2095 H 202.326 4.06414 2.77648 0
M  V30 2096 N 203.978 -0.674533 1.42435 0
M  V30 2097 C 205.208 -1.46071 1.46105 0
M  V30 2098 C 205.616 -1.89067 0.0709605 0
M  V30 2099 O 204.959 -1.58731 -0.924677 0
M  V30 2100 C 205.021 -2.74145 2.32561 0
M  V30 2101 C 204.685 -2.53224 3.8043 0
M  V30 2102 C 205.682 -2.17809 4.72075 0
M  V30 2103 C 203.367 -2.6821 4.24698 0
M  V30 2104 C 205.361 -1.97648 6.05982 0
M  V30 2105 C 203.048 -2.47665 5.58664 0
M  V30 2106 C 204.046 -2.12437 6.49122 0
M  V30 2107 O 203.734 -1.9209 7.80613 0
M  V30 2108 H 203.466 -0.455959 0.499076 0
M  V30 2109 H 206.02 -0.836193 1.87609 0
M  V30 2110 H 204.25 -3.3908 1.85908 0
M  V30 2111 H 205.939 -3.36028 2.27683 0
M  V30 2112 H 206.705 -2.05826 4.39159 0
M  V30 2113 H 202.584 -2.94609 3.54579 0
M  V30 2114 H 206.128 -1.70075 6.7655 0
M  V30 2115 H 202.025 -2.59244 5.91154 0
M  V30 2116 H 202.793 -2.06686 7.91974 0
M  V30 2117 N 205.456 -1.28612 -0.910864 0
M  V30 2118 C 206.386 -1.15326 -2.03032 0
M  V30 2119 C 207.367 -0.0502924 -1.70026 0
M  V30 2120 O 208.552 -0.227797 -1.92859 0
M  V30 2121 C 205.682 -0.817343 -3.37545 0
M  V30 2122 C 204.636 -1.8754 -3.84724 0
M  V30 2123 C 203.962 -1.39305 -5.16235 0
M  V30 2124 C 205.262 -3.28244 -4.06267 0
M  V30 2125 H 206.956 -2.08975 -2.14406 0
M  V30 2126 H 204.502 -1.00612 -1.03021 0
M  V30 2127 H 206.455 -0.711151 -4.15356 0
M  V30 2128 H 205.179 0.154846 -3.26233 0
M  V30 2129 H 203.838 -1.97079 -3.09121 0
M  V30 2130 H 203.486 -0.409846 -5.01328 0
M  V30 2131 H 203.186 -2.10057 -5.48771 0
M  V30 2132 H 204.71 -1.30014 -5.96598 0
M  V30 2133 H 206.124 -3.21611 -4.74594 0
M  V30 2134 H 204.521 -3.96855 -4.5014 0
M  V30 2135 H 205.591 -3.72048 -3.10979 0
M  V30 2136 N 206.934 1.1197 -1.10907 0
M  V30 2137 C 207.864 2.19928 -0.784473 0
M  V30 2138 C 208.845 1.6833 0.244726 0
M  V30 2139 O 210.03 1.93892 0.109418 0
M  V30 2140 C 207.16 3.46597 -0.220827 0
M  V30 2141 C 206.114 4.11376 -1.18127 0
M  V30 2142 C 205.44 5.32554 -0.478594 0
M  V30 2143 C 206.74 4.56945 -2.52979 0
M  V30 2144 H 208.434 2.47337 -1.68715 0
M  V30 2145 H 205.98 1.18879 -0.812642 0
M  V30 2146 H 207.933 4.21396 0.0184278 0
M  V30 2147 H 206.657 3.1863 0.717113 0
M  V30 2148 H 205.316 3.38564 -1.40606 0
M  V30 2149 H 204.964 5.00856 0.463976 0
M  V30 2150 H 204.664 5.76844 -1.11912 0
M  V30 2151 H 206.188 6.10096 -0.248 0
M  V30 2152 H 207.602 5.23093 -2.3462 0
M  V30 2153 H 205.999 5.1203 -3.12962 0
M  V30 2154 H 207.069 3.70676 -3.12614 0
M  V30 2155 N 208.412 0.89855 1.29475 0
M  V30 2156 C 209.637 0.538561 2.00285 0
M  V30 2157 C 210.062 -0.869135 1.66816 0
M  V30 2158 O 209.42 -1.57831 0.892145 0
M  V30 2159 C 209.468 0.736475 3.52999 0
M  V30 2160 O 208.572 -0.211537 4.11857 0
M  V30 2161 H 207.913 0.210563 0.62973 0
M  V30 2162 H 210.443 1.20982 1.64998 0
M  V30 2163 H 210.453 0.640685 4.02938 0
M  V30 2164 H 209.128 1.76276 3.76696 0
M  V30 2165 H 207.705 -0.0682991 3.72837 0
M  V30 2166 N 209.89 -1.43072 0.660911 0
M  V30 2167 C 211.115 -2.06584 0.183805 0
M  V30 2168 C 211.54 -1.49257 -1.14472 0
M  V30 2169 O 210.898 -0.605528 -1.70889 0
M  V30 2170 C 210.946 -3.60418 0.114434 0
M  V30 2171 O 210.05 -4.01981 -0.921137 0
M  V30 2172 H 209.391 -0.656669 0.0983994 0
M  V30 2173 H 211.921 -1.83447 0.906006 0
M  V30 2174 H 211.931 -4.07946 -0.0663394 0
M  V30 2175 H 210.606 -4.01519 1.08422 0
M  V30 2176 H 209.183 -3.66029 -0.71253 0
M  V30 2177 N 211.368 -0.403325 -1.52352 0
M  V30 2178 C 212.616 0.174003 -2.0135 0
M  V30 2179 C 212.937 1.46139 -1.29106 0
M  V30 2180 O 212.207 1.91448 -0.415253 0
M  V30 2181 H 210.787 0.0672911 -0.743963 0
M  V30 2182 H 213.449 -0.538235 -1.87321 0
M  V30 2183 H 212.545 0.374254 -3.09848 0
M  V30 2184 N 212.846 1.57033 -0.133567 0
M  V30 2185 C 214.095 1.94861 0.520768 0
M  V30 2186 C 214.408 1.02012 1.66892 0
M  V30 2187 O 215.614 1.29365 2.38699 0
M  V30 2188 C 214.07 3.46362 0.977809 0
M  V30 2189 C 213.678 4.47773 -0.142674 0
M  V30 2190 C 215.422 3.93083 1.60269 0
M  V30 2191 C 213.329 5.90468 0.331883 0
M  V30 2192 H 212.259 0.727453 0.198315 0
M  V30 2193 H 214.91 1.82227 -0.215759 0
M  V30 2194 H 213.292 3.54282 1.7692 0
M  V30 2195 H 214.466 4.51536 -0.919317 0
M  V30 2196 H 212.781 4.10891 -0.675124 0
M  V30 2197 H 215.378 4.97121 1.96914 0
M  V30 2198 H 215.721 3.33876 2.48662 0
M  V30 2199 H 216.254 3.88025 0.876453 0
M  V30 2200 H 212.993 6.53463 -0.516341 0
M  V30 2201 H 212.513 5.90094 1.07469 0
M  V30 2202 H 214.192 6.42179 0.788332 0
M  V30 2203 N 214.325 -0.140222 1.56975 0
M  V30 2204 C 215.273 -1.19207 1.99731 0
M  V30 2205 C 216.267 -1.44089 0.890777 0
M  V30 2206 O 217.473 -1.44301 1.07597 0
M  V30 2207 H 213.848 -0.40142 0.635898 0
M  V30 2208 H 215.819 -0.804813 2.87342 0
M  V30 2209 C 214.568 -2.51617 2.39967 0
M  V30 2210 H 213.891 -2.33303 3.24669 0
M  V30 2211 H 215.331 -3.23827 2.73701 0
M  V30 2212 C 213.79 -3.12654 1.25496 0
M  V30 2213 O 214.32 -3.97786 0.559371 0
M  V30 2214 N 212.526 -2.72206 1.01746 0
M  V30 2215 H 212.073 -2.03074 1.58489 0
M  V30 2216 H 212.031 -3.13377 0.253461 0
M  V30 2217 N 215.803 -1.52179 -0.40978 0
M  V30 2218 C 217.051 -1.65878 -1.15451 0
M  V30 2219 C 217.372 -0.390771 -1.91044 0
M  V30 2220 O 216.642 0.594323 -1.86667 0
M  V30 2221 H 215.222 -0.611405 -0.429177 0
M  V30 2222 H 217.884 -1.89219 -0.467134 0
M  V30 2223 H 216.98 -2.49954 -1.86894 0
M  V30 2224 N 217.281 0.66697 -1.42791 0
M  V30 2225 C 218.506 1.46004 -1.47301 0
M  V30 2226 C 218.931 1.87894 -0.0880317 0
M  V30 2227 O 218.289 1.56502 0.915253 0
M  V30 2228 C 218.337 2.68031 -2.41229 0
M  V30 2229 O 217.441 3.6659 -1.88906 0
M  V30 2230 H 216.782 0.43832 -0.49877 0
M  V30 2231 H 219.312 0.817391 -1.87563 0
M  V30 2232 H 219.322 3.1601 -2.58073 0
M  V30 2233 H 217.997 2.36883 -3.41847 0
M  V30 2234 H 216.574 3.25661 -1.81656 0
M  V30 2235 N 218.759 1.29093 0.90403 0
M  V30 2236 C 220.006 1.16813 1.65411 0
M  V30 2237 C 220.334 -0.28128 1.92455 0
M  V30 2238 O 219.589 -1.22006 1.53013 0
M  V30 2239 C 219.888 1.92224 3.01305 0
M  V30 2240 C 219.554 3.41968 2.93885 0
M  V30 2241 C 218.216 3.82807 2.91569 0
M  V30 2242 C 220.568 4.37409 2.83413 0
M  V30 2243 C 217.896 5.1741 2.76594 0
M  V30 2244 C 220.248 5.72097 2.69977 0
M  V30 2245 C 218.912 6.12199 2.66024 0
M  V30 2246 H 218.182 0.42745 0.605283 0
M  V30 2247 H 220.829 1.59981 1.05254 0
M  V30 2248 H 219.134 1.41635 3.65304 0
M  V30 2249 H 220.831 1.80131 3.58265 0
M  V30 2250 H 217.421 3.09504 2.96488 0
M  V30 2251 H 221.605 4.06813 2.84283 0
M  V30 2252 H 216.861 5.47596 2.71935 0
M  V30 2253 H 221.035 6.45704 2.60844 0
M  V30 2254 H 218.662 7.16448 2.54178 0
M  V30 2255 N 220.237 -1.11381 1.11499 0
M  V30 2256 C 221.167 -2.19509 0.796125 0
M  V30 2257 C 222.148 -1.68458 -0.235796 0
M  V30 2258 O 223.333 -1.93947 -0.0991344 0
M  V30 2259 C 220.463 -3.46475 0.239205 0
M  V30 2260 C 219.417 -4.10744 1.20307 0
M  V30 2261 C 218.743 -5.32293 0.50683 0
M  V30 2262 C 220.043 -4.55597 2.55399 0
M  V30 2263 H 221.737 -2.46439 1.70024 0
M  V30 2264 H 219.283 -1.18446 0.818935 0
M  V30 2265 H 221.236 -4.214 0.00392006 0
M  V30 2266 H 219.96 -3.19006 -0.700206 0
M  V30 2267 H 218.619 -3.37813 1.42399 0
M  V30 2268 H 218.267 -5.01095 -0.437408 0
M  V30 2269 H 217.967 -5.76243 1.1497 0
M  V30 2270 H 219.491 -6.09956 0.280351 0
M  V30 2271 H 220.905 -5.21841 2.37391 0
M  V30 2272 H 219.302 -5.10363 3.15673 0
M  V30 2273 H 220.372 -3.69013 3.14575 0
M  V30 2274 N 221.715 -0.905404 -1.28997 0
M  V30 2275 C 222.961 -0.535039 -1.95615 0
M  V30 2276 C 223.294 0.917404 -1.71165 0
M  V30 2277 O 222.569 1.65123 -1.02785 0
M  V30 2278 C 222.852 -0.834918 -3.50287 0
M  V30 2279 C 222.705 -2.33948 -3.84172 0
M  V30 2280 C 224.024 -0.325318 -4.38896 0
M  V30 2281 H 221.143 -0.195861 -0.710498 0
M  V30 2282 H 223.785 -1.13313 -1.52513 0
M  V30 2283 H 221.935 -0.325904 -3.87131 0
M  V30 2284 H 223.607 -2.91847 -3.57243 0
M  V30 2285 H 221.85 -2.79789 -3.31513 0
M  V30 2286 H 222.521 -2.49987 -4.92149 0
M  V30 2287 H 224.997 -0.761256 -4.09077 0
M  V30 2288 H 223.873 -0.564295 -5.45992 0
M  V30 2289 H 224.134 0.774144 -4.35269 0
M  V30 2290 N 223.193 1.4272 -0.668489 0
M  V30 2291 C 224.609 1.55992 -0.33745 0
M  V30 2292 C 224.809 1.64933 1.15756 0
M  V30 2293 O 223.865 1.61278 1.94282 0
M  V30 2294 C 225.178 2.81314 -1.06222 0
M  V30 2295 C 226.726 2.95078 -1.04394 0
M  V30 2296 C 227.201 4.23252 -1.74991 0
M  V30 2297 N 228.692 4.3015 -1.71829 0
M  V30 2298 C 229.427 5.28127 -2.23315 0
M  V30 2299 N 228.923 6.32293 -2.83156 0
M  V30 2300 N 230.716 5.19882 -2.13726 0
M  V30 2301 H 222.867 1.3516 -1.63846 0
M  V30 2302 H 225.13 0.650174 -0.689912 0
M  V30 2303 H 224.836 2.80823 -2.11734 0
M  V30 2304 H 224.71 3.72012 -0.62344 0
M  V30 2305 H 227.097 2.951 0.0028244 0
M  V30 2306 H 227.178 2.05627 -1.52155 0
M  V30 2307 H 226.822 4.2399 -2.79633 0
M  V30 2308 H 226.752 5.11626 -1.24685 0
M  V30 2309 H 229.243 3.55499 -1.28175 0
M  V30 2310 H 229.556 7.03398 -3.20079 0
M  V30 2311 H 227.901 6.32873 -2.87223 0
M  V30 2312 H 231.092 4.37423 -1.66669 0
M  V30 2313 H 231.265 5.96077 -2.54158 0
M  V30 2314 N 224.671 0.411399 1.52136 0
M  V30 2315 C 225.581 -0.419774 2.30814 0
M  V30 2316 C 226.597 -1.0515 1.38634 0
M  V30 2317 O 227.773 -1.05252 1.71709 0
M  V30 2318 C 224.838 -1.52019 3.11594 0
M  V30 2319 C 223.899 -0.91129 4.19516 0
M  V30 2320 C 223.132 -1.95927 4.96436 0
M  V30 2321 O 223.355 -3.17775 4.73683 0
M  V30 2322 O 222.289 -1.56423 5.81219 0
M  V30 2323 H 226.115 0.221805 3.02889 0
M  V30 2324 H 223.7 0.174547 1.48377 0
M  V30 2325 H 225.582 -2.15898 3.61892 0
M  V30 2326 H 224.257 -2.14633 2.42311 0
M  V30 2327 H 223.164 -0.235157 3.7336 0
M  V30 2328 H 224.497 -0.32904 4.91099 0
M  V30 2329 N 226.149 -1.5696 0.141893 0
M  V30 2330 C 227.374 -2.00754 -0.520838 0
M  V30 2331 C 227.799 -1.0213 -1.57959 0
M  V30 2332 O 227.157 0.00371324 -1.813 0
M  V30 2333 C 227.205 -3.43318 -1.10294 0
M  V30 2334 O 226.309 -3.47679 -2.21795 0
M  V30 2335 H 225.65 -0.651564 -0.127908 0
M  V30 2336 H 228.18 -2.03221 0.23712 0
M  V30 2337 H 228.19 -3.82012 -1.43287 0
M  V30 2338 H 226.865 -4.14608 -0.327574 0
M  V30 2339 H 225.442 -3.20824 -1.9007 0
M  V30 2340 N 227.627 0.131896 -1.57047 0
M  V30 2341 C 228.537 1.1815 -2.02676 0
M  V30 2342 C 229.553 1.46113 -0.944824 0
M  V30 2343 O 230.729 1.57485 -1.25541 0
M  V30 2344 C 227.794 2.49139 -2.41103 0
M  V30 2345 C 226.855 2.28688 -3.63318 0
M  V30 2346 C 226.088 3.53431 -3.99903 0
M  V30 2347 O 226.311 4.60223 -3.36973 0
M  V30 2348 O 225.245 3.45198 -4.93074 0
M  V30 2349 H 229.071 0.824069 -2.92306 0
M  V30 2350 H 226.656 0.341745 -1.45439 0
M  V30 2351 H 228.538 3.26338 -2.66611 0
M  V30 2352 H 227.213 2.84382 -1.54624 0
M  V30 2353 H 226.12 1.4939 -3.42977 0
M  V30 2354 H 227.453 1.98355 -4.50462 0
M  V30 2355 N 229.106 1.52395 0.401703 0
M  V30 2356 C 230.331 1.70972 1.17403 0
M  V30 2357 C 230.756 0.421615 1.83314 0
M  V30 2358 O 230.114 -0.621564 1.70312 0
M  V30 2359 C 230.162 2.85151 2.20728 0
M  V30 2360 O 229.266 2.51238 3.27037 0
M  V30 2361 H 228.607 0.568927 0.342372 0
M  V30 2362 H 231.137 1.99131 0.469891 0
M  V30 2363 H 231.147 3.10279 2.64936 0
M  V30 2364 H 229.822 3.78603 1.7214 0
M  V30 2365 H 228.399 2.36808 2.88057 0
M  V30 2366 N 230.584 -0.659388 1.43143 0
M  V30 2367 C 231.809 -1.45221 1.48073 0
M  V30 2368 C 232.234 -1.87845 0.097995 0
M  V30 2369 O 231.592 -1.56985 -0.90694 0
M  V30 2370 C 231.64 -2.66748 2.42647 0
M  V30 2371 O 230.744 -3.65583 1.90848 0
M  V30 2372 H 230.085 -0.435669 0.501088 0
M  V30 2373 H 232.615 -0.807432 1.87994 0
M  V30 2374 H 232.625 -3.14637 2.59745 0
M  V30 2375 H 231.3 -2.35067 3.43098 0
M  V30 2376 H 229.877 -3.24693 1.83381 0
M  V30 2377 N 232.062 -1.29571 -0.897171 0
M  V30 2378 C 233.473 -1.15964 -1.46319 0
M  V30 2379 C 233.824 0.244267 -1.94674 0
M  V30 2380 O 232.949 1.13998 -1.83939 0
M  V30 2381 C 233.544 -2.09906 -2.65942 0
M  V30 2382 C 232.103 -2.00314 -3.18671 0
M  V30 2383 C 231.25 -2.00687 -1.91363 0
M  V30 2384 H 234.201 -1.42019 -0.708268 0
M  V30 2385 H 234.222 -1.67276 -3.41759 0
M  V30 2386 H 233.734 -3.12075 -2.30718 0
M  V30 2387 H 231.835 -1.01242 -3.58582 0
M  V30 2388 H 231.948 -2.88102 -3.82798 0
M  V30 2389 H 230.312 -1.45319 -2.09175 0
M  V30 2390 H 231.095 -3.04566 -1.58413 0
M  V30 2391 N 233.54 1.10788 -1.12088 0
M  V30 2392 C 234.788 1.8231 -0.872205 0
M  V30 2393 C 235.109 1.85419 0.603709 0
M  V30 2394 O 234.379 1.32963 1.43867 0
M  V30 2395 H 232.959 0.675137 -0.319686 0
M  V30 2396 H 235.621 1.34068 -1.41463 0
M  V30 2397 H 234.717 2.85955 -1.25045 0
M  V30 2398 N 235.018 0.912232 1.28515 0
M  V30 2399 C 235.95 0.35676 2.26406 0
M  V30 2400 C 236.963 -0.503933 1.54804 0
M  V30 2401 O 238.152 -0.319059 1.75625 0
M  V30 2402 C 235.252 -0.508825 3.35058 0
M  V30 2403 C 234.425 0.329007 4.36161 0
M  V30 2404 C 233.484 -0.471422 5.24084 0
M  V30 2405 O 232.51 0.115482 5.69083 0
M  V30 2406 N 233.712 -1.77479 5.52704 0
M  V30 2407 H 236.477 1.19818 2.74707 0
M  V30 2408 H 234.038 0.778022 1.4198 0
M  V30 2409 H 236.03 -1.051 3.90815 0
M  V30 2410 H 234.6 -1.25095 2.86478 0
M  V30 2411 H 233.82 1.05256 3.79888 0
M  V30 2412 H 235.108 0.90234 5.00735 0
M  V30 2413 H 234.506 -2.27417 5.17975 0
M  V30 2414 H 233.063 -2.26382 6.11224 0
M  V30 2415 N 236.496 -1.42363 0.676048 0
M  V30 2416 C 237.912 -1.55811 0.345718 0
M  V30 2417 C 238.112 -1.65544 -1.14879 0
M  V30 2418 O 237.168 -1.62306 -1.93424 0
M  V30 2419 C 238.481 -2.80746 1.07713 0
M  V30 2420 C 240.029 -2.9452 1.05958 0
M  V30 2421 C 240.504 -4.22318 1.77233 0
M  V30 2422 N 241.995 -4.29233 1.74108 0
M  V30 2423 C 242.73 -5.26935 2.26113 0
M  V30 2424 N 242.226 -6.30783 2.86505 0
M  V30 2425 N 244.019 -5.18741 2.1648 0
M  V30 2426 H 236.17 -1.34289 1.6456 0
M  V30 2427 H 238.433 -0.646506 0.69335 0
M  V30 2428 H 238.139 -2.79696 2.13221 0
M  V30 2429 H 238.013 -3.71676 0.64316 0
M  V30 2430 H 240.4 -2.95097 0.0128255 0
M  V30 2431 H 240.481 -2.04817 1.53244 0
M  V30 2432 H 240.125 -4.22502 2.81877 0
M  V30 2433 H 240.055 -5.10958 1.27396 0
M  V30 2434 H 242.546 -3.54814 1.30059 0
M  V30 2435 H 242.859 -7.01691 3.23805 0
M  V30 2436 H 241.204 -6.31341 2.90575 0
M  V30 2437 H 244.395 -4.36533 1.68987 0
M  V30 2438 H 244.568 -5.94721 2.57316 0
M  V30 2439 N 237.974 -0.419461 -1.51915 0
M  V30 2440 C 239.199 0.154572 -2.06823 0
M  V30 2441 C 239.624 1.3722 -1.28656 0
M  V30 2442 O 238.982 1.78461 -0.319583 0
M  V30 2443 C 239.03 0.473172 -3.57482 0
M  V30 2444 O 238.134 1.56255 -3.81652 0
M  V30 2445 H 237.475 0.0096924 -0.663929 0
M  V30 2446 H 240.005 -0.595642 -1.95738 0
M  V30 2447 H 240.015 0.728825 -4.01438 0
M  V30 2448 H 238.69 -0.416873 -4.13805 0
M  V30 2449 H 237.267 1.29825 -3.49571 0
M  V30 2450 N 239.452 1.56882 -0.150215 0
M  V30 2451 C 240.701 1.95403 0.500071 0
M  V30 2452 C 241.014 1.03777 1.658 0
M  V30 2453 O 242.22 1.31889 2.37313 0
M  V30 2454 C 240.676 3.4738 0.941018 0
M  V30 2455 C 240.284 4.47596 -0.190158 0
M  V30 2456 C 242.028 3.9476 1.56091 0
M  V30 2457 C 239.935 5.90787 0.269237 0
M  V30 2458 H 238.865 0.729515 0.190588 0
M  V30 2459 H 241.516 1.81988 -0.235074 0
M  V30 2460 H 239.898 3.56138 1.73152 0
M  V30 2461 H 241.072 4.50536 -0.967157 0
M  V30 2462 H 239.387 4.10151 -0.718666 0
M  V30 2463 H 241.984 4.99181 1.9163 0
M  V30 2464 H 242.327 3.36494 2.45107 0
M  V30 2465 H 242.86 3.88932 0.835249 0
M  V30 2466 H 239.599 6.52879 -0.585621 0
M  V30 2467 H 239.119 5.912 1.01204 0
M  V30 2468 H 240.798 6.42979 0.720176 0
M  V30 2469 N 240.93 -0.123565 1.57115 0
M  V30 2470 C 242.155 -0.850398 1.89164 0
M  V30 2471 C 242.58 -1.7286 0.741688 0
M  V30 2472 O 241.938 -1.78665 -0.307958 0
M  V30 2473 C 241.986 -1.66353 3.19936 0
M  V30 2474 O 241.09 -2.77004 3.0552 0
M  V30 2475 H 240.431 -0.235454 0.620852 0
M  V30 2476 H 242.961 -0.107335 2.04318 0
M  V30 2477 H 242.971 -2.05372 3.52543 0
M  V30 2478 H 241.646 -1.01881 4.03228 0
M  V30 2479 H 240.223 -2.41221 2.84371 0
M  V30 2480 N 242.408 -1.52605 -0.393616 0
M  V30 2481 C 243.338 -1.80022 -1.48709 0
M  V30 2482 C 244.319 -0.651995 -1.57108 0
M  V30 2483 O 245.504 -0.89913 -1.72132 0
M  V30 2484 C 242.634 -1.96492 -2.86371 0
M  V30 2485 C 241.588 -3.12161 -2.92813 0
M  V30 2486 C 240.914 -3.13877 -4.3288 0
M  V30 2487 C 242.214 -4.51322 -2.6288 0
M  V30 2488 H 243.908 -2.71589 -1.26015 0
M  V30 2489 H 241.454 -1.30684 -0.604778 0
M  V30 2490 H 243.407 -2.14255 -3.62867 0
M  V30 2491 H 242.131 -1.01611 -3.10391 0
M  V30 2492 H 240.79 -2.94173 -2.18764 0
M  V30 2493 H 240.438 -2.16687 -4.53933 0
M  V30 2494 H 240.138 -3.91576 -4.38112 0
M  V30 2495 H 241.662 -3.33789 -5.1129 0
M  V30 2496 H 243.076 -4.69435 -3.29096 0
M  V30 2497 H 241.473 -5.31053 -2.79468 0
M  V30 2498 H 242.543 -4.58353 -1.58242 0
M  V30 2499 N 243.887 0.651787 -1.4349 0
M  V30 2500 C 245.303 0.96762 -1.26922 0
M  V30 2501 C 245.503 2.00602 -0.189982 0
M  V30 2502 O 244.559 2.48793 0.431107 0
M  V30 2503 C 245.872 1.45052 -2.63401 0
M  V30 2504 C 247.42 1.5671 -2.70945 0
M  V30 2505 C 247.895 2.0839 -4.07845 0
M  V30 2506 N 249.386 2.1569 -4.09917 0
M  V30 2507 C 250.121 2.56804 -5.12679 0
M  V30 2508 N 249.617 2.97203 -6.25813 0
M  V30 2509 N 251.41 2.56756 -5.00033 0
M  V30 2510 H 243.561 -0.0353158 -2.12371 0
M  V30 2511 H 245.824 0.0467858 -0.946845 0
M  V30 2512 H 245.53 0.761926 -3.43348 0
M  V30 2513 H 245.404 2.42529 -2.88894 0
M  V30 2514 H 247.791 2.2467 -1.9133 0
M  V30 2515 H 247.872 0.57662 -2.49216 0
M  V30 2516 H 247.516 1.41031 -4.87927 0
M  V30 2517 H 247.446 3.08271 -4.26938 0
M  V30 2518 H 249.937 1.87237 -3.28254 0
M  V30 2519 H 250.25 3.27328 -7.00055 0
M  V30 2520 H 248.595 2.95004 -6.29283 0
M  V30 2521 H 251.786 2.24572 -4.10713 0
M  V30 2522 H 251.959 2.88475 -5.80247 0
M  V30 2523 N 245.365 1.30045 0.890287 0
M  V30 2524 C 246.595 1.21296 1.67245 0
M  V30 2525 C 247.003 -0.227471 1.87828 0
M  V30 2526 O 246.346 -1.16296 1.422 0
M  V30 2527 C 246.408 1.86519 3.07329 0
M  V30 2528 C 246.072 3.35837 3.09939 0
M  V30 2529 C 247.069 4.31915 2.89389 0
M  V30 2530 C 244.754 3.77196 3.31706 0
M  V30 2531 C 246.748 5.67325 2.90552 0
M  V30 2532 C 244.435 5.12725 3.32499 0
M  V30 2533 C 245.433 6.076 3.11947 0
M  V30 2534 O 245.121 7.40655 3.12547 0
M  V30 2535 H 244.853 0.4211 0.528821 0
M  V30 2536 H 247.407 1.72111 1.12103 0
M  V30 2537 H 245.637 1.30228 3.64112 0
M  V30 2538 H 247.326 1.71963 3.67673 0
M  V30 2539 H 248.092 4.01294 2.72375 0
M  V30 2540 H 243.971 3.03796 3.4674 0
M  V30 2541 H 247.515 6.41354 2.74429 0
M  V30 2542 H 243.412 5.42988 3.49047 0
M  V30 2543 H 244.18 7.49577 3.28749 0
M  V30 2544 N 246.843 -1.10192 1.12674 0
M  V30 2545 C 247.753 -2.20172 0.810026 0
M  V30 2546 C 248.769 -1.72821 -0.202188 0
M  V30 2547 O 249.945 -2.01369 -0.0351691 0
M  V30 2548 C 247.01 -3.45631 0.272007 0
M  V30 2549 C 246.071 -4.07704 1.34447 0
M  V30 2550 C 245.304 -5.27175 0.832029 0
M  V30 2551 O 245.527 -5.69425 -0.333284 0
M  V30 2552 O 244.461 -5.80168 1.60277 0
M  V30 2553 H 248.287 -2.49701 1.72867 0
M  V30 2554 H 245.872 -1.18977 0.903597 0
M  V30 2555 H 247.754 -4.21394 -0.0230219 0
M  V30 2556 H 246.429 -3.17723 -0.619164 0
M  V30 2557 H 245.336 -3.33614 1.6927 0
M  V30 2558 H 246.669 -4.3982 2.2095 0
M  V30 2559 N 248.321 -0.919034 -1.28029 0
M  V30 2560 C 249.569 -0.553838 -1.94363 0
M  V30 2561 C 249.89 0.906357 -1.72656 0
M  V30 2562 O 249.16 1.64143 -1.0693 0
M  V30 2563 H 247.74 -0.201834 -0.719216 0
M  V30 2564 H 250.402 -1.16954 -1.55909 0
M  V30 2565 H 249.498 -0.752758 -3.02886 0
M  V30 2566 N 249.799 1.42003 -0.683588 0
M  V30 2567 C 251.215 1.55625 -0.353976 0
M  V30 2568 C 251.415 1.66151 1.14 0
M  V30 2569 O 250.471 1.63329 1.92561 0
M  V30 2570 C 251.784 2.80171 -1.092 0
M  V30 2571 C 253.332 2.93954 -1.07518 0
M  V30 2572 C 253.807 4.21372 -1.79471 0
M  V30 2573 N 255.298 4.28303 -1.76381 0
M  V30 2574 C 256.033 5.25729 -2.28904 0
M  V30 2575 N 255.529 6.29254 -2.89846 0
M  V30 2576 N 257.322 5.17586 -2.19228 0
M  V30 2577 H 249.473 1.33415 -1.6527 0
M  V30 2578 H 251.736 0.64282 -0.696769 0
M  V30 2579 H 251.442 2.78561 -2.14701 0
M  V30 2580 H 251.316 3.7133 -0.662862 0
M  V30 2581 H 253.703 2.95086 -0.028475 0
M  V30 2582 H 253.784 2.04002 -1.54328 0
M  V30 2583 H 253.428 4.21001 -2.84114 0
M  V30 2584 H 253.358 5.10275 -1.30104 0
M  V30 2585 H 255.849 3.54119 -1.31939 0
M  V30 2586 H 256.162 6.99964 -3.27522 0
M  V30 2587 H 254.507 6.29791 -2.93919 0
M  V30 2588 H 257.698 4.35631 -1.71299 0
M  V30 2589 H 257.871 5.93348 -2.60466 0
M  V30 2590 N 251.277 0.427512 1.51691 0
M  V30 2591 C 252.523 -0.142439 2.02299 0
M  V30 2592 C 252.856 -1.43214 1.31162 0
M  V30 2593 O 252.131 -1.89833 0.423511 0
M  V30 2594 C 252.414 -0.371301 3.58181 0
M  V30 2595 C 252.267 0.936358 4.39946 0
M  V30 2596 C 253.586 -1.14542 4.24933 0
M  V30 2597 H 250.705 -0.0502937 0.735282 0
M  V30 2598 H 253.347 0.564584 1.81418 0
M  V30 2599 H 251.497 -0.973559 3.76104 0
M  V30 2600 H 253.169 1.57184 4.33694 0
M  V30 2601 H 251.412 1.5432 4.05423 0
M  V30 2602 H 252.083 0.730388 5.47147 0
M  V30 2603 H 254.559 -0.635362 4.11221 0
M  V30 2604 H 253.435 -1.27431 5.33903 0
M  V30 2605 H 253.696 -2.17093 3.85127 0
M  V30 2606 N 252.755 -1.56801 0.158532 0
M  V30 2607 C 253.985 -2.00568 -0.495583 0
M  V30 2608 C 254.393 -1.03774 -1.58201 0
M  V30 2609 O 253.736 -0.0285797 -1.83678 0
M  V30 2610 C 253.798 -3.40768 -1.14532 0
M  V30 2611 C 253.462 -4.56553 -0.202101 0
M  V30 2612 C 254.459 -5.16714 0.574675 0
M  V30 2613 C 252.144 -5.02197 -0.101648 0
M  V30 2614 C 254.138 -6.20939 1.43924 0
M  V30 2615 C 251.825 -6.06274 0.766508 0
M  V30 2616 C 252.823 -6.65515 1.53555 0
M  V30 2617 O 252.511 -7.67575 2.38922 0
M  V30 2618 H 252.243 -0.662893 -0.13247 0
M  V30 2619 H 254.797 -2.03829 0.253559 0
M  V30 2620 H 253.027 -3.34381 -1.94233 0
M  V30 2621 H 254.716 -3.6857 -1.70033 0
M  V30 2622 H 255.482 -4.82341 0.507167 0
M  V30 2623 H 251.361 -4.55807 -0.689994 0
M  V30 2624 H 254.905 -6.67107 2.03996 0
M  V30 2625 H 250.802 -6.40073 0.835266 0
M  V30 2626 H 251.57 -7.84844 2.32296 0
M  V30 2627 N 254.233 0.115231 -1.57178 0
M  V30 2628 C 255.183 1.14707 -1.97044 0
M  V30 2629 C 256.167 1.36866 -0.845957 0
M  V30 2630 O 257.359 1.37895 -1.10968 0
M  V30 2631 C 254.488 2.47266 -2.38148 0
M  V30 2632 C 253.574 2.28566 -3.57237 0
M  V30 2633 N 253.965 1.79685 -4.72807 0
M  V30 2634 C 252.263 2.59208 -3.62943 0
M  V30 2635 C 252.964 1.74781 -5.54821 0
M  V30 2636 N 251.94 2.19264 -4.97417 0
M  V30 2637 H 255.742 0.761754 -2.83857 0
M  V30 2638 H 253.256 0.322928 -1.59157 0
M  V30 2639 H 255.253 3.219 -2.64927 0
M  V30 2640 H 253.913 2.86552 -1.52702 0
M  V30 2641 H 254.924 1.49177 -4.9595 0
M  V30 2642 H 251.601 3.02154 -2.88113 0
M  V30 2643 H 252.991 1.38212 -6.57531 0
M  V30 2644 N 255.711 1.52812 0.385517 0
M  V30 2645 C 256.941 1.71658 1.14966 0
M  V30 2646 C 257.349 0.436253 1.84102 0
M  V30 2647 O 256.692 -0.599313 1.73649 0
M  V30 2648 C 256.754 2.81309 2.23843 0
M  V30 2649 C 256.418 4.22313 1.74644 0
M  V30 2650 C 257.415 5.05352 1.22129 0
M  V30 2651 C 255.1 4.68648 1.80761 0
M  V30 2652 C 257.094 6.32807 0.763838 0
M  V30 2653 C 254.781 5.96086 1.34627 0
M  V30 2654 C 255.779 6.77996 0.825264 0
M  V30 2655 O 255.467 8.03045 0.370669 0
M  V30 2656 H 255.199 0.578022 0.350523 0
M  V30 2657 H 257.753 2.00263 0.456509 0
M  V30 2658 H 255.983 2.48133 2.96592 0
M  V30 2659 H 257.672 2.88524 2.85497 0
M  V30 2660 H 258.438 4.70736 1.16758 0
M  V30 2661 H 254.317 4.04979 2.20256 0
M  V30 2662 H 257.861 6.96689 0.356494 0
M  V30 2663 H 253.758 6.30205 1.39686 0
M  V30 2664 H 254.526 8.17021 0.491829 0
M  V30 2665 N 257.189 -0.644168 1.43834 0
M  V30 2666 C 258.605 -0.960875 1.27434 0
M  V30 2667 C 258.805 -2.00499 0.200618 0
M  V30 2668 O 257.861 -2.49018 -0.417906 0
M  V30 2669 C 259.174 -1.43653 2.64167 0
M  V30 2670 C 260.722 -1.55271 2.71772 0
M  V30 2671 C 261.197 -2.06224 4.08944 0
M  V30 2672 N 262.688 -2.13513 4.11055 0
M  V30 2673 C 263.423 -2.54081 5.14033 0
M  V30 2674 N 262.919 -2.9388 6.27381 0
M  V30 2675 N 264.712 -2.54101 5.01387 0
M  V30 2676 H 256.863 0.0465779 2.12349 0
M  V30 2677 H 259.126 -0.0417638 0.94708 0
M  V30 2678 H 258.832 -0.743706 3.43747 0
M  V30 2679 H 258.706 -2.40993 2.90176 0
M  V30 2680 H 261.093 -2.23653 1.92519 0
M  V30 2681 H 261.174 -0.563395 2.49519 0
M  V30 2682 H 260.818 -1.38441 4.88668 0
M  V30 2683 H 260.748 -3.06003 4.28567 0
M  V30 2684 H 263.239 -1.85493 3.29242 0
M  V30 2685 H 263.552 -3.2361 7.01781 0
M  V30 2686 H 261.897 -2.91663 6.30839 0
M  V30 2687 H 265.088 -2.22391 4.11898 0
M  V30 2688 H 265.261 -2.85394 5.81768 0
M  V30 2689 N 258.668 -1.30515 -0.883378 0
M  V30 2690 C 259.917 -1.18795 -1.63005 0
M  V30 2691 C 260.23 0.255923 -1.93919 0
M  V30 2692 O 261.436 0.494654 -2.66956 0
M  V30 2693 C 259.892 -2.07878 -2.93794 0
M  V30 2694 C 259.5 -3.57184 -2.70414 0
M  V30 2695 C 261.244 -2.04924 -3.71761 0
M  V30 2696 C 259.151 -4.38317 -3.97029 0
M  V30 2697 H 258.081 -0.441031 -0.611562 0
M  V30 2698 H 260.732 -1.55275 -0.977854 0
M  V30 2699 H 259.114 -1.64283 -3.60315 0
M  V30 2700 H 260.288 -4.08937 -2.12384 0
M  V30 2701 H 258.603 -3.61976 -2.0582 0
M  V30 2702 H 261.2 -2.62792 -4.65665 0
M  V30 2703 H 261.543 -1.0331 -4.03277 0
M  V30 2704 H 262.076 -2.46649 -3.12104 0
M  V30 2705 H 258.815 -5.40632 -3.70671 0
M  V30 2706 H 258.335 -3.91326 -4.54559 0
M  V30 2707 H 260.014 -4.49834 -4.65036 0
M  V30 2708 N 260.146 1.09593 -1.13257 0
M  V30 2709 C 261.094 2.18271 -0.803783 0
M  V30 2710 C 262.088 1.68054 0.213148 0
M  V30 2711 O 263.294 1.79862 0.0704699 0
M  V30 2712 H 259.669 0.711949 -0.242143 0
M  V30 2713 H 261.64 2.43235 -1.72856 0
M  V30 2714 C 260.389 3.46536 -0.28424 0
M  V30 2715 H 259.712 3.85545 -1.05807 0
M  V30 2716 H 261.152 4.23899 -0.0925945 0
M  V30 2717 C 259.611 3.22036 0.989684 0
M  V30 2718 O 260.141 3.44509 2.06584 0
M  V30 2719 N 258.347 2.7565 0.920086 0
M  V30 2720 H 257.894 2.57562 0.0442019 0
M  V30 2721 H 257.852 2.59635 1.77306 0
M  V30 2722 N 261.624 0.925811 1.2754 0
M  V30 2723 C 262.852 0.581509 1.9856 0
M  V30 2724 C 263.267 -0.840041 1.69082 0
M  V30 2725 O 262.624 -1.55805 0.950312 0
M  V30 2726 C 262.675 0.795589 3.52637 0
M  V30 2727 O 262.396 2.16121 3.81082 0
M  V30 2728 C 263.897 0.459744 4.4091 0
M  V30 2729 H 261.117 0.220538 0.633722 0
M  V30 2730 H 263.661 1.24232 1.6244 0
M  V30 2731 H 261.816 0.18161 3.86974 0
M  V30 2732 H 262.23 2.2098 4.75676 0
M  V30 2733 H 263.704 0.660244 5.48037 0
M  V30 2734 H 264.181 -0.604625 4.35018 0
M  V30 2735 H 264.787 1.05178 4.12089 0
M  V30 2736 N 263.102 -1.41638 0.69111 0
M  V30 2737 C 264.065 -2.29178 0.0319786 0
M  V30 2738 C 265.065 -1.44153 -0.712496 0
M  V30 2739 O 266.255 -1.65354 -0.548053 0
M  V30 2740 C 263.387 -3.26952 -0.965161 0
M  V30 2741 H 264.58 -2.88959 0.802681 0
M  V30 2742 H 262.133 -1.4955 0.454356 0
M  V30 2743 H 262.868 -2.72142 -1.76378 0
M  V30 2744 H 262.653 -3.89685 -0.434522 0
M  V30 2745 H 264.143 -3.92561 -1.42428 0
M  V30 2746 N 264.58 -0.43555 -1.51462 0
M  V30 2747 C 265.805 0.132627 -2.06976 0
M  V30 2748 C 266.23 1.35848 -1.30104 0
M  V30 2749 O 265.588 1.78112 -0.338493 0
M  V30 2750 C 265.636 0.43523 -3.57964 0
M  V30 2751 O 264.74 1.52198 -3.83288 0
M  V30 2752 H 264.081 0.00265 -0.663995 0
M  V30 2753 H 266.611 -0.616369 -1.95095 0
M  V30 2754 H 266.621 0.686206 -4.02188 0
M  V30 2755 H 265.296 -0.460739 -4.1334 0
M  V30 2756 H 263.873 1.2611 -3.50928 0
M  V30 2757 N 266.058 1.56714 -0.166846 0
M  V30 2758 C 267.335 1.88412 0.525373 0
M  V30 2759 C 267.715 1.07602 1.81618 0
M  V30 2760 O 267.063 0.168621 2.27877 0
M  V30 2761 C 267.273 3.40363 0.771613 0
M  V30 2762 C 268.621 4.10007 1.1036 0
M  V30 2763 O 269.645 3.45655 0.860304 0
M  V30 2764 O 268.504 5.2369 1.56239 0
M  V30 2765 H 265.598 0.781587 0.270278 0
M  V30 2766 H 268.144 1.68458 -0.204946 0
M  V30 2767 H 266.916 3.91046 -0.141093 0
M  V30 2768 H 266.539 3.65914 1.55541 0
M  V30 2769 N 267.536 -0.106894 1.57237 0
M  V30 2770 C 268.784 -0.810921 1.85117 0
M  V30 2771 C 269.105 -1.7984 0.753827 0
M  V30 2772 O 268.375 -1.94649 -0.221056 0
M  V30 2773 H 266.955 -0.302466 0.683025 0
M  V30 2774 H 269.617 -0.0913324 1.94686 0
M  V30 2775 H 268.713 -1.34875 2.81452 0
M  V30 2776 N 269.014 -1.53014 -0.377408 0
M  V30 2777 C 269.961 -1.78616 -1.46168 0
M  V30 2778 C 270.931 -0.629917 -1.53692 0
M  V30 2779 O 272.116 -0.870861 -1.69766 0
M  V30 2780 C 269.256 -1.97123 -2.8326 0
M  V30 2781 C 268.369 -3.24831 -2.84796 0
M  V30 2782 C 267.504 -3.33591 -4.13389 0
M  V30 2783 C 266.543 -4.55377 -4.09021 0
M  V30 2784 N 265.68 -4.61355 -5.29241 0
M  V30 2785 H 270.52 -2.71142 -1.23637 0
M  V30 2786 H 268.057 -1.34326 -0.599577 0
M  V30 2787 H 270.015 -2.05839 -3.62886 0
M  V30 2788 H 268.645 -1.07946 -3.04216 0
M  V30 2789 H 267.697 -3.25128 -1.97474 0
M  V30 2790 H 269.009 -4.14523 -2.77439 0
M  V30 2791 H 268.163 -3.41554 -5.01424 0
M  V30 2792 H 266.902 -2.41894 -4.23484 0
M  V30 2793 H 265.907 -4.47527 -3.19373 0
M  V30 2794 H 267.132 -5.48402 -4.00539 0
M  V30 2795 H 265.078 -3.72554 -5.39944 0
M  V30 2796 H 264.995 -5.44935 -5.24006 0
M  V30 2797 H 266.263 -4.73586 -6.19141 0
M  V30 2798 N 270.492 0.636531 -1.44174 0
M  V30 2799 C 271.422 1.76003 -1.53444 0
M  V30 2800 C 272.403 1.65619 -0.387841 0
M  V30 2801 O 273.588 1.84461 -0.607257 0
M  V30 2802 C 270.718 3.14511 -1.4731 0
M  V30 2803 C 269.672 3.39677 -2.60391 0
M  V30 2804 C 268.998 4.78159 -2.39308 0
M  V30 2805 C 270.298 3.32772 -4.02567 0
M  V30 2806 H 271.992 1.68501 -2.47483 0
M  V30 2807 H 269.538 0.809237 -1.19111 0
M  V30 2808 H 271.491 3.92878 -1.52397 0
M  V30 2809 H 270.215 3.22783 -0.49785 0
M  V30 2810 H 268.874 2.63688 -2.54684 0
M  V30 2811 H 268.522 4.83128 -1.39988 0
M  V30 2812 H 268.222 4.95956 -3.15122 0
M  V30 2813 H 269.746 5.58762 -2.46205 0
M  V30 2814 H 271.16 4.01051 -4.09672 0
M  V30 2815 H 269.557 3.62104 -4.7854 0
M  V30 2816 H 270.627 2.30669 -4.2652 0
M  V30 2817 N 271.97 1.30982 0.876444 0
M  V30 2818 C 273.2 1.23063 1.65949 0
M  V30 2819 C 273.608 -0.207537 1.88058 0
M  V30 2820 O 272.951 -1.14781 1.43426 0
M  V30 2821 C 273.013 1.89768 3.05333 0
M  V30 2822 C 272.677 3.39106 3.0636 0
M  V30 2823 C 273.674 4.3496 2.84791 0
M  V30 2824 C 271.359 3.80693 3.27686 0
M  V30 2825 C 273.353 5.70375 2.84519 0
M  V30 2826 C 271.04 5.16223 3.27043 0
M  V30 2827 C 272.038 6.10875 3.05485 0
M  V30 2828 O 271.726 7.43928 3.04674 0
M  V30 2829 H 271.458 0.426685 0.524324 0
M  V30 2830 H 274.012 1.7329 1.10271 0
M  V30 2831 H 272.242 1.34082 3.6271 0
M  V30 2832 H 273.931 1.75853 3.65829 0
M  V30 2833 H 274.697 4.0416 2.68103 0
M  V30 2834 H 270.576 3.07457 3.43499 0
M  V30 2835 H 274.12 6.44228 2.67611 0
M  V30 2836 H 270.017 5.4666 3.43269 0
M  V30 2837 H 270.785 7.53022 3.2078 0
M  V30 2838 N 273.449 -1.08991 1.13837 0
M  V30 2839 C 274.695 -1.81526 0.90422 0
M  V30 2840 C 275.028 -1.85706 -0.568066 0
M  V30 2841 O 274.303 -1.32855 -1.42056 0
M  V30 2842 C 274.586 -3.27447 1.49835 0
M  V30 2843 C 274.439 -3.31512 3.04006 0
M  V30 2844 C 275.758 -4.24256 1.17025 0
M  V30 2845 H 272.877 -0.659029 0.329923 0
M  V30 2846 H 275.519 -1.27644 1.40737 0
M  V30 2847 H 273.669 -3.73462 1.07044 0
M  V30 2848 H 275.341 -2.93867 3.55584 0
M  V30 2849 H 273.584 -2.70963 3.38765 0
M  V30 2850 H 274.255 -4.34329 3.40679 0
M  V30 2851 H 276.731 -3.86549 1.54009 0
M  V30 2852 H 275.607 -5.24684 1.61237 0
M  V30 2853 H 275.868 -4.42019 0.0846274 0
M  V30 2854 N 274.927 -0.932562 -1.27047 0
M  V30 2855 C 276.152 -0.591474 -1.98787 0
M  V30 2856 C 276.577 0.824601 -1.69062 0
M  V30 2857 O 275.935 1.5541 -0.933677 0
M  V30 2858 C 275.983 -0.829808 -3.50922 0
M  V30 2859 O 275.087 0.102266 -4.12273 0
M  V30 2860 H 274.428 -0.227185 -0.623926 0
M  V30 2861 H 276.958 -1.25314 -1.61733 0
M  V30 2862 H 276.968 -0.747292 -4.01098 0
M  V30 2863 H 275.643 -1.86201 -3.7189 0
M  V30 2864 H 274.22 -0.0305761 -3.72887 0
M  V30 2865 N 276.405 1.4127 -0.698611 0
M  V30 2866 C 277.63 2.06024 -0.238512 0
M  V30 2867 C 278.055 1.5224 1.10475 0
M  V30 2868 O 277.413 0.650623 1.69223 0
M  V30 2869 C 277.461 3.59988 -0.209952 0
M  V30 2870 O 276.565 4.04282 0.814235 0
M  V30 2871 H 275.906 0.653829 -0.115775 0
M  V30 2872 H 278.436 1.8098 -0.954326 0
M  V30 2873 H 278.446 4.07979 -0.0418436 0
M  V30 2874 H 277.121 3.98503 -1.1903 0
M  V30 2875 H 275.698 3.6779 0.615234 0
M  V30 2876 N 277.883 0.443576 1.51229 0
M  V30 2877 C 278.793 -0.370721 2.31652 0
M  V30 2878 C 279.809 -1.02186 1.40833 0
M  V30 2879 O 280.985 -1.01586 1.73903 0
M  V30 2880 C 278.05 -1.45376 3.14749 0
M  V30 2881 C 277.111 -0.822099 4.21355 0
M  V30 2882 C 276.344 -1.85353 5.0048 0
M  V30 2883 O 276.567 -3.07656 4.80316 0
M  V30 2884 O 275.501 -1.4406 5.84406 0
M  V30 2885 H 279.327 0.286002 3.0235 0
M  V30 2886 H 276.912 0.20598 1.47973 0
M  V30 2887 H 278.794 -2.08173 3.66391 0
M  V30 2888 H 277.469 -2.09445 2.46809 0
M  V30 2889 H 276.376 -0.155909 3.73775 0
M  V30 2890 H 277.709 -0.224797 4.91686 0
M  V30 2891 N 279.361 -1.56624 0.175154 0
M  V30 2892 C 280.586 -2.01813 -0.478137 0
M  V30 2893 C 281.011 -1.05457 -1.55757 0
M  V30 2894 O 280.369 -0.0347439 -1.81267 0
M  V30 2895 C 280.417 -3.45581 -1.02987 0
M  V30 2896 O 279.521 -3.52305 -2.14371 0
M  V30 2897 H 278.862 -0.65413 -0.114059 0
M  V30 2898 H 281.392 -2.02673 0.280173 0
M  V30 2899 H 281.402 -3.84965 -1.35151 0
M  V30 2900 H 280.077 -4.1521 -0.239556 0
M  V30 2901 H 278.654 -3.24783 -1.83222 0
M  V30 2902 N 280.839 0.0985539 -1.57292 0
M  V30 2903 C 282.255 0.45267 -1.53046 0
M  V30 2904 C 282.455 1.80713 -0.891342 0
M  V30 2905 O 281.511 2.4785 -0.482375 0
M  V30 2906 C 282.824 0.418341 -2.97776 0
M  V30 2907 C 284.372 0.500443 -3.08973 0
M  V30 2908 C 284.847 0.496297 -4.55303 0
M  V30 2909 N 286.338 0.557151 -4.59837 0
M  V30 2910 C 287.073 0.575726 -5.70502 0
M  V30 2911 N 286.569 0.550714 -6.90608 0
M  V30 2912 N 288.362 0.620277 -5.58667 0
M  V30 2913 H 280.513 -0.788673 -1.97215 0
M  V30 2914 H 282.776 -0.293188 -0.901524 0
M  V30 2915 H 282.482 -0.509659 -3.47988 0
M  V30 2916 H 282.356 1.2386 -3.56284 0
M  V30 2917 H 284.743 1.41886 -2.58751 0
M  V30 2918 H 284.824 -0.347894 -2.53423 0
M  V30 2919 H 284.468 -0.418162 -5.06176 0
M  V30 2920 H 284.398 1.3618 -5.08687 0
M  V30 2921 H 286.889 0.581816 -3.73394 0
M  V30 2922 H 287.202 0.568075 -7.70709 0
M  V30 2923 H 285.547 0.517816 -6.93068 0
M  V30 2924 H 288.738 0.637322 -4.63741 0
M  V30 2925 H 288.911 0.631283 -6.44918 0
M  V30 2926 N 282.317 1.53212 0.369288 0
M  V30 2927 C 283.564 1.69215 1.11232 0
M  V30 2928 C 283.892 0.442048 1.8941 0
M  V30 2929 O 283.147 -0.575944 1.87033 0
M  V30 2930 C 283.446 2.89101 2.10132 0
M  V30 2931 C 283.112 4.25758 1.48463 0
M  V30 2932 C 281.774 4.6292 1.31372 0
M  V30 2933 C 284.126 5.10757 1.03811 0
M  V30 2934 C 281.454 5.82722 0.68207 0
M  V30 2935 C 283.806 6.31201 0.420487 0
M  V30 2936 C 282.47 6.67079 0.237038 0
M  V30 2937 H 281.74 0.619201 0.407027 0
M  V30 2938 H 284.387 1.87391 0.394552 0
M  V30 2939 H 282.692 2.65421 2.88199 0
M  V30 2940 H 284.389 2.98676 2.6757 0
M  V30 2941 H 280.979 3.96494 1.62758 0
M  V30 2942 H 285.163 4.82599 1.1581 0
M  V30 2943 H 280.419 6.09113 0.528316 0
M  V30 2944 H 284.593 6.96368 0.0662874 0
M  V30 2945 H 282.22 7.59774 -0.254477 0
M  V30 2946 N 283.795 -0.628877 1.44509 0
M  V30 2947 C 284.743 -1.76193 1.51852 0
M  V30 2948 C 285.737 -1.64849 0.390042 0
M  V30 2949 O 286.943 -1.709 0.565082 0
M  V30 2950 H 283.318 -0.581728 0.476547 0
M  V30 2951 H 285.289 -1.67123 2.47209 0
M  V30 2952 C 284.038 -3.14533 1.48204 0
M  V30 2953 H 283.361 -3.23911 2.34354 0
M  V30 2954 H 284.801 -3.93701 1.57402 0
M  V30 2955 C 283.26 -3.36287 0.203142 0
M  V30 2956 O 283.79 -3.9509 -0.725745 0
M  V30 2957 N 281.996 -2.90408 0.105563 0
M  V30 2958 H 281.543 -2.42739 0.862301 0
M  V30 2959 H 281.501 -3.05339 -0.749371 0
M  V30 2960 N 285.273 -1.31445 -0.869486 0
M  V30 2961 C 286.501 -1.24122 -1.65534 0
M  V30 2962 C 286.916 0.193387 -1.87807 0
M  V30 2963 O 286.273 1.12557 -1.43656 0
M  V30 2964 C 286.324 -1.98229 -3.02304 0
M  V30 2965 O 286.045 -3.3609 -2.81026 0
M  V30 2966 C 287.546 -1.97751 -3.96749 0
M  V30 2967 H 284.766 -0.428868 -0.516055 0
M  V30 2968 H 287.31 -1.73328 -1.08525 0
M  V30 2969 H 285.465 -1.52782 -3.56001 0
M  V30 2970 H 285.879 -3.7383 -3.67902 0
M  V30 2971 H 287.353 -2.54114 -4.90031 0
M  V30 2972 H 287.83 -0.960137 -4.28577 0
M  V30 2973 H 288.436 -2.43079 -3.48988 0
M  V30 2974 N 286.751 1.08385 -1.14413 0
M  V30 2975 C 287.681 2.17321 -0.854044 0
M  V30 2976 C 288.662 1.69024 0.191049 0
M  V30 2977 O 289.847 1.94141 0.0476779 0
M  V30 2978 C 286.977 3.45719 -0.330983 0
M  V30 2979 C 285.931 4.07409 -1.31155 0
M  V30 2980 C 285.257 5.30762 -0.64778 0
M  V30 2981 C 286.557 4.48665 -2.67388 0
M  V30 2982 H 288.251 2.41845 -1.76498 0
M  V30 2983 H 285.797 1.16233 -0.850051 0
M  V30 2984 H 287.75 4.21241 -0.115645 0
M  V30 2985 H 286.474 3.2075 0.615381 0
M  V30 2986 H 285.133 3.33919 -1.51306 0
M  V30 2987 H 284.781 5.02078 0.304398 0
M  V30 2988 H 284.481 5.72992 -1.30207 0
M  V30 2989 H 286.005 6.08998 -0.441972 0
M  V30 2990 H 287.419 5.15364 -2.51143 0
M  V30 2991 H 285.816 5.01814 -3.29093 0
M  V30 2992 H 286.886 3.60543 -3.24248 0
M  V30 2993 N 288.23 0.939286 1.26551 0
M  V30 2994 C 289.193 0.451987 2.24699 0
M  V30 2995 C 290.193 -0.435869 1.5478 0
M  V30 2996 O 291.383 -0.235314 1.72603 0
M  V30 2997 C 288.515 -0.348801 3.39111 0
M  V30 2998 H 289.708 1.3193 2.69322 0
M  V30 2999 H 287.261 0.721072 1.38673 0
M  V30 3000 H 287.996 -1.23444 2.99887 0
M  V30 3001 H 287.781 0.287945 3.91041 0
M  V30 3002 H 289.271 -0.679726 4.12031 0
M  V30 3003 N 289.708 -1.40897 0.706093 0
M  V30 3004 C 290.618 -2.3455 0.0482286 0
M  V30 3005 C 291.634 -1.56796 -0.754396 0
M  V30 3006 O 292.81 -1.89228 -0.689538 0
M  V30 3007 C 289.875 -3.35625 -0.869303 0
M  V30 3008 C 288.936 -4.29261 -0.0576994 0
M  V30 3009 C 288.169 -5.25508 -0.931531 0
M  V30 3010 O 288.392 -5.27472 -2.17092 0
M  V30 3011 O 287.326 -6.00727 -0.375587 0
M  V30 3012 H 291.152 -2.92407 0.820476 0
M  V30 3013 H 288.737 -1.4193 0.4665 0
M  V30 3014 H 290.619 -3.97635 -1.39514 0
M  V30 3015 H 289.294 -2.80196 -1.62086 0
M  V30 3016 H 288.201 -3.70566 0.512988 0
M  V30 3017 H 289.534 -4.87817 0.655426 0
M  V30 3018 N 291.186 -0.45159 -1.50991 0
M  V30 3019 C 292.116 0.342898 -2.30969 0
M  V30 3020 C 293.097 1.00815 -1.37005 0
M  V30 3021 O 294.282 1.00907 -1.65926 0
M  V30 3022 C 291.412 1.43637 -3.16205 0
M  V30 3023 C 290.366 0.893818 -4.18563 0
M  V30 3024 C 289.692 2.08411 -4.92411 0
M  V30 3025 C 290.992 -0.0815568 -5.22236 0
M  V30 3026 H 292.686 -0.324556 -2.97636 0
M  V30 3027 H 290.232 -0.157531 -1.43136 0
M  V30 3028 H 292.185 1.9995 -3.70942 0
M  V30 3029 H 290.909 2.13232 -2.47386 0
M  V30 3030 H 289.568 0.352798 -3.64898 0
M  V30 3031 H 289.216 2.76658 -4.20082 0
M  V30 3032 H 288.916 1.72741 -5.61636 0
M  V30 3033 H 290.44 2.65251 -5.49976 0
M  V30 3034 H 291.854 0.391742 -5.7196 0
M  V30 3035 H 290.251 -0.351551 -5.99069 0
M  V30 3036 H 291.321 -1.01374 -4.74185 0
M  V30 3037 N 292.664 1.56529 -0.183458 0
M  V30 3038 C 293.91 1.97537 0.459036 0
M  V30 3039 C 294.243 1.06989 1.62071 0
M  V30 3040 O 293.518 0.11948 1.94133 0
M  V30 3041 C 293.801 3.47874 0.930368 0
M  V30 3042 C 293.654 4.492 -0.232317 0
M  V30 3043 C 294.973 4.01612 1.79989 0
M  V30 3044 H 292.092 0.718204 0.165383 0
M  V30 3045 H 294.734 1.88042 -0.272038 0
M  V30 3046 H 292.884 3.56095 1.55333 0
M  V30 3047 H 294.556 4.53027 -0.86972 0
M  V30 3048 H 292.799 4.24657 -0.885928 0
M  V30 3049 H 293.47 5.51823 0.139796 0
M  V30 3050 H 295.946 3.96097 1.27461 0
M  V30 3051 H 294.822 5.07195 2.09867 0
M  V30 3052 H 295.083 3.46163 2.74998 0
M  V30 3053 N 294.142 -0.090211 1.57342 0
M  V30 3054 C 295.092 -1.11557 1.98844 0
M  V30 3055 C 296.076 -1.35503 0.867624 0
M  V30 3056 O 297.268 -1.36113 1.13148 0
M  V30 3057 C 294.397 -2.43446 2.42051 0
M  V30 3058 C 293.483 -2.22853 3.60828 0
M  V30 3059 N 293.874 -1.72141 4.75606 0
M  V30 3060 C 292.172 -2.53401 3.67021 0
M  V30 3061 C 292.873 -1.65932 5.57531 0
M  V30 3062 N 291.849 -2.11323 5.00843 0
M  V30 3063 H 295.651 -0.716499 2.85032 0
M  V30 3064 H 293.165 -0.297567 1.59651 0
M  V30 3065 H 295.162 -3.17644 2.70014 0
M  V30 3066 H 293.822 -2.84087 1.57241 0
M  V30 3067 H 294.833 -1.41268 4.98261 0
M  V30 3068 H 291.51 -2.97532 2.92884 0
M  V30 3069 H 292.9 -1.27733 6.59647 0
M  V30 3070 N 295.62 -1.53406 -0.361157 0
M  V30 3071 C 296.57 -1.76536 -1.44287 0
M  V30 3072 C 297.554 -0.620019 -1.48474 0
M  V30 3073 O 298.746 -0.878834 -1.53641 0
M  V30 3074 C 295.875 -1.96266 -2.81664 0
M  V30 3075 C 294.961 -3.16815 -2.81938 0
M  V30 3076 N 295.352 -4.38637 -2.51855 0
M  V30 3077 C 293.65 -3.17627 -3.13096 0
M  V30 3078 C 294.351 -5.20401 -2.59919 0
M  V30 3079 N 293.327 -4.56712 -2.94814 0
M  V30 3080 H 297.129 -2.68331 -1.19899 0
M  V30 3081 H 294.643 -1.52091 -0.56938 0
M  V30 3082 H 296.64 -2.10966 -3.59582 0
M  V30 3083 H 295.3 -1.05702 -3.07013 0
M  V30 3084 H 296.311 -4.66293 -2.25369 0
M  V30 3085 H 292.988 -2.36971 -3.43731 0
M  V30 3086 H 294.378 -6.27586 -2.39969 0
M  V30 3087 N 297.098 0.621204 -1.44841 0
M  V30 3088 C 298.048 1.72663 -1.48901 0
M  V30 3089 C 299.032 1.56964 -0.353702 0
M  V30 3090 O 300.224 1.66532 -0.599669 0
M  V30 3091 C 297.353 3.11381 -1.44557 0
M  V30 3092 C 296.439 3.32514 -2.6324 0
M  V30 3093 N 296.83 3.23969 -3.8843 0
M  V30 3094 C 295.128 3.63343 -2.58647 0
M  V30 3095 C 295.829 3.46062 -4.67564 0
M  V30 3096 N 294.805 3.69407 -3.98797 0
M  V30 3097 H 298.607 1.64529 -2.43531 0
M  V30 3098 H 296.121 0.82401 -1.39942 0
M  V30 3099 H 298.118 3.90667 -1.4555 0
M  V30 3100 H 296.778 3.20674 -0.509731 0
M  V30 3101 H 297.789 3.02669 -4.20252 0
M  V30 3102 H 294.466 3.79556 -1.73906 0
M  V30 3103 H 295.856 3.44963 -5.76585 0
M  V30 3104 N 298.576 1.31904 0.862503 0
M  V30 3105 C 299.801 1.25135 1.65397 0
M  V30 3106 C 300.226 -0.179 1.87246 0
M  V30 3107 O 299.584 -1.1277 1.4196 0
M  V30 3108 C 299.632 2.00832 2.99498 0
M  V30 3109 O 298.736 1.35075 3.89652 0
M  V30 3110 H 298.077 0.431655 0.504549 0
M  V30 3111 H 300.607 1.74094 1.07483 0
M  V30 3112 H 300.617 2.10709 3.49379 0
M  V30 3113 H 299.292 3.04847 2.82916 0
M  V30 3114 H 297.869 1.33696 3.48109 0
M  V30 3115 N 300.054 -1.07777 1.14986 0
M  V30 3116 C 301.282 -1.84018 0.945773 0
M  V30 3117 C 301.697 -1.81897 -0.505863 0
M  V30 3118 O 301.054 -1.22726 -1.35072 0
M  V30 3119 C 301.105 -3.31287 1.44677 0
M  V30 3120 O 300.826 -3.33449 2.84154 0
M  V30 3121 C 302.327 -4.24311 1.28355 0
M  V30 3122 H 299.547 -0.580716 0.336169 0
M  V30 3123 H 302.091 -1.36077 1.52654 0
M  V30 3124 H 300.246 -3.76594 0.908625 0
M  V30 3125 H 300.66 -4.25427 3.06777 0
M  V30 3126 H 302.134 -5.2573 1.68261 0
M  V30 3127 H 302.611 -4.38612 0.227184 0
M  V30 3128 H 303.217 -3.84836 1.81056 0
M  V30 3129 N 301.532 -0.945985 -1.26051 0
M  V30 3130 C 302.778 -0.597002 -1.93814 0
M  V30 3131 C 303.111 0.862484 -1.73997 0
M  V30 3132 O 302.386 1.61769 -1.07986 0
M  V30 3133 C 302.669 -0.945937 -3.47454 0
M  V30 3134 C 302.522 -2.46052 -3.76535 0
M  V30 3135 C 303.841 -0.464785 -4.37639 0
M  V30 3136 H 300.96 -0.218366 -0.703907 0
M  V30 3137 H 303.602 -1.18107 -1.48831 0
M  V30 3138 H 301.752 -0.448902 -3.85898 0
M  V30 3139 H 303.424 -3.03065 -3.47778 0
M  V30 3140 H 301.667 -2.90194 -3.22444 0
M  V30 3141 H 302.338 -2.65517 -4.83947 0
M  V30 3142 H 304.814 -0.891016 -4.06448 0
M  V30 3143 H 303.69 -0.737712 -5.4392 0
M  V30 3144 H 303.951 0.635274 -4.37512 0
M  V30 3145 N 303.011 1.40521 -0.713556 0
M  V30 3146 C 303.974 2.29098 -0.0684347 0
M  V30 3147 C 304.974 1.45268 0.689472 0
M  V30 3148 O 306.164 1.66205 0.521677 0
M  V30 3149 C 303.296 3.28446 0.913024 0
M  V30 3150 H 304.489 2.87645 -0.84855 0
M  V30 3151 H 302.042 1.48809 -0.47809 0
M  V30 3152 H 302.777 2.74913 1.72027 0
M  V30 3153 H 302.562 3.90327 0.372472 0
M  V30 3154 H 304.052 3.94777 1.36165 0
M  V30 3155 N 304.489 0.459591 1.5075 0
M  V30 3156 C 305.766 -0.160371 1.94941 0
M  V30 3157 C 306.146 -1.58048 1.39943 0
M  V30 3158 O 305.494 -2.206 0.595629 0
M  V30 3159 C 305.704 -0.115432 3.48809 0
M  V30 3160 C 307.052 -0.310026 4.23467 0
M  V30 3161 O 308.076 -0.192543 3.55679 0
M  V30 3162 O 306.935 -0.546031 5.43765 0
M  V30 3163 H 304.029 -0.117925 0.818549 0
M  V30 3164 H 306.575 0.519169 1.61563 0
M  V30 3165 H 305.347 0.87652 3.81357 0
M  V30 3166 H 304.97 -0.836928 3.88692 0
M  V30 3167 N 305.967 -1.56429 0.191757 0
M  V30 3168 C 307.215 -1.97095 -0.447006 0
M  V30 3169 C 307.536 -1.07967 -1.62383 0
M  V30 3170 O 306.806 -0.150248 -1.95323 0
M  V30 3171 H 305.386 -0.727832 -0.168135 0
M  V30 3172 H 308.048 -1.92911 0.27771 0
M  V30 3173 H 307.144 -3.01848 -0.793371 0
M  V30 3174 N 307.445 0.0818655 -1.57387 0
M  V30 3175 C 308.375 1.09885 -2.06028 0
M  V30 3176 C 309.356 1.4098 -0.951774 0
M  V30 3177 O 310.541 1.50781 -1.22387 0
M  V30 3178 C 307.671 2.4151 -2.4958 0
M  V30 3179 C 306.625 2.24792 -3.64215 0
M  V30 3180 C 305.951 3.61712 -3.93787 0
M  V30 3181 C 307.251 1.67749 -4.94629 0
M  V30 3182 H 308.945 0.694128 -2.91243 0
M  V30 3183 H 306.491 0.332448 -1.4011 0
M  V30 3184 H 308.444 3.12939 -2.82219 0
M  V30 3185 H 307.168 2.83943 -1.61381 0
M  V30 3186 H 305.827 1.55807 -3.31843 0
M  V30 3187 H 305.475 4.01697 -3.02735 0
M  V30 3188 H 305.175 3.51368 -4.70971 0
M  V30 3189 H 306.699 4.34587 -4.28913 0
M  V30 3190 H 308.113 2.29032 -5.25564 0
M  V30 3191 H 306.51 1.68128 -5.76067 0
M  V30 3192 H 307.58 0.638059 -4.80684 0
M  V30 3193 N 308.923 1.53595 0.353017 0
M  V30 3194 C 310.172 1.69603 1.09168 0
M  V30 3195 C 310.485 0.460925 1.90092 0
M  V30 3196 O 311.691 0.501774 2.66823 0
M  V30 3197 C 310.147 2.99872 1.9901 0
M  V30 3198 C 309.755 4.30687 1.23339 0
M  V30 3199 C 311.499 3.25246 2.72792 0
M  V30 3200 C 309.406 5.52036 2.12156 0
M  V30 3201 H 308.336 0.631966 0.411261 0
M  V30 3202 H 310.987 1.80096 0.351802 0
M  V30 3203 H 309.369 2.83212 2.7678 0
M  V30 3204 H 310.543 4.58019 0.505456 0
M  V30 3205 H 308.858 4.11853 0.613663 0
M  V30 3206 H 311.455 4.13095 3.39495 0
M  V30 3207 H 311.798 2.41846 3.38846 0
M  V30 3208 H 312.331 3.42638 2.021 0
M  V30 3209 H 309.07 6.37951 1.50659 0
M  V30 3210 H 308.59 5.28966 2.82764 0
M  V30 3211 H 310.269 5.87313 2.71427 0
M  V30 3212 N 310.401 -0.613514 1.45168 0
M  V30 3213 C 311.629 -1.39946 1.5239 0
M  V30 3214 C 312.044 -1.88167 0.154531 0
M  V30 3215 O 311.401 -1.61872 -0.842843 0
M  V30 3216 C 311.452 -2.60795 2.50337 0
M  V30 3217 O 311.173 -2.1458 3.81952 0
M  V30 3218 C 312.674 -3.53723 2.67198 0
M  V30 3219 H 309.894 -0.428593 0.516284 0
M  V30 3220 H 312.438 -0.748753 1.903 0
M  V30 3221 H 310.593 -3.21919 2.15515 0
M  V30 3222 H 311.007 -2.93055 4.34993 0
M  V30 3223 H 312.481 -4.35079 3.39721 0
M  V30 3224 H 312.958 -4.0368 1.73029 0
M  V30 3225 H 313.564 -2.98456 3.02992 0
M  V30 3226 N 311.879 -1.3236 -0.855495 0
M  V30 3227 C 313.107 -1.2587 -1.64208 0
M  V30 3228 C 313.522 0.173457 -1.88002 0
M  V30 3229 O 312.879 1.11027 -1.44842 0
M  V30 3230 C 312.93 -2.01424 -3.00184 0
M  V30 3231 O 312.651 -3.39051 -2.77445 0
M  V30 3232 C 314.152 -2.01948 -3.94629 0
M  V30 3233 H 311.372 -0.434318 -0.511477 0
M  V30 3234 H 313.916 -1.74469 -1.0668 0
M  V30 3235 H 312.071 -1.56549 -3.5436 0
M  V30 3236 H 312.485 -3.77711 -3.63916 0
M  V30 3237 H 313.959 -2.59297 -4.87308 0
M  V30 3238 H 314.436 -1.00554 -4.27534 0
M  V30 3239 H 315.042 -2.46767 -3.4639 0
M  V30 3240 N 313.357 1.07166 -1.15556 0
M  V30 3241 C 314.287 2.16403 -0.877046 0
M  V30 3242 C 315.268 1.69217 0.173111 0
M  V30 3243 O 316.453 1.94181 0.027084 0
M  V30 3244 C 313.583 3.45349 -0.367632 0
M  V30 3245 C 312.537 4.05995 -1.35468 0
M  V30 3246 C 311.863 5.30045 -0.704038 0
M  V30 3247 C 313.163 4.45804 -2.72132 0
M  V30 3248 H 314.857 2.39959 -1.79053 0
M  V30 3249 H 312.403 1.15325 -0.862331 0
M  V30 3250 H 314.356 4.21095 -0.160317 0
M  V30 3251 H 313.08 3.21385 0.581326 0
M  V30 3252 H 311.739 3.32296 -1.54839 0
M  V30 3253 H 311.387 5.02373 0.251128 0
M  V30 3254 H 311.087 5.71579 -1.36277 0
M  V30 3255 H 312.611 6.08495 -0.50654 0
M  V30 3256 H 314.025 5.12671 -2.56595 0
M  V30 3257 H 312.422 4.98296 -3.34397 0
M  V30 3258 H 313.492 3.57083 -3.28054 0
M  V30 3259 N 314.835 0.952656 1.25548 0
M  V30 3260 C 315.785 0.442033 2.23674 0
M  V30 3261 C 316.769 -0.467632 1.53955 0
M  V30 3262 O 317.961 -0.301006 1.74422 0
M  V30 3263 C 315.09 -0.280816 3.4215 0
M  V30 3264 C 314.176 0.646803 4.19139 0
M  V30 3265 N 314.567 1.77759 4.73535 0
M  V30 3266 C 312.865 0.454617 4.43677 0
M  V30 3267 C 313.566 2.35658 5.31827 0
M  V30 3268 N 312.542 1.64333 5.18166 0
M  V30 3269 H 316.344 1.30505 2.63336 0
M  V30 3270 H 313.858 0.809904 1.40763 0
M  V30 3271 H 315.855 -0.663747 4.11582 0
M  V30 3272 H 314.515 -1.14046 3.04012 0
M  V30 3273 H 315.526 2.15949 4.7073 0
M  V30 3274 H 312.203 -0.362312 4.15925 0
M  V30 3275 H 313.593 3.30998 5.84713 0
M  V30 3276 N 316.313 -1.40141 0.720998 0
M  V30 3277 C 317.543 -2.04798 0.27226 0
M  V30 3278 C 317.951 -1.54442 -1.09289 0
M  V30 3279 O 317.294 -0.698342 -1.69908 0
M  V30 3280 C 317.356 -3.59048 0.18027 0
M  V30 3281 C 317.02 -4.32317 1.48159 0
M  V30 3282 C 318.017 -4.59902 2.42458 0
M  V30 3283 C 315.702 -4.71125 1.74202 0
M  V30 3284 C 317.696 -5.25288 3.61042 0
M  V30 3285 C 315.383 -5.36242 2.93066 0
M  V30 3286 C 316.381 -5.63254 3.86308 0
M  V30 3287 O 316.069 -6.27024 5.03086 0
M  V30 3288 H 315.801 -0.665419 0.119139 0
M  V30 3289 H 318.355 -1.80436 0.981432 0
M  V30 3290 H 316.585 -3.82251 -0.58489 0
M  V30 3291 H 318.274 -4.05221 -0.234618 0
M  V30 3292 H 319.04 -4.30379 2.23604 0
M  V30 3293 H 314.919 -4.49466 1.02477 0
M  V30 3294 H 318.463 -5.46289 4.33837 0
M  V30 3295 H 314.36 -5.65185 3.11826 0
M  V30 3296 H 315.128 -6.4552 5.03235 0
M  V30 3297 N 317.792 -0.46758 -1.50504 0
M  V30 3298 C 319.203 -0.0116166 -1.86696 0
M  V30 3299 C 319.554 1.39202 -1.38265 0
M  V30 3300 O 318.679 2.0313 -0.746132 0
M  V30 3301 C 319.274 -0.0143044 -3.38797 0
M  V30 3302 C 317.833 0.386175 -3.74414 0
M  V30 3303 C 316.98 -0.401287 -2.74381 0
M  V30 3304 H 319.931 -0.682022 -1.43297 0
M  V30 3305 H 319.952 0.788641 -3.72237 0
M  V30 3306 H 319.464 -1.03602 -3.74016 0
M  V30 3307 H 317.565 1.41237 -3.44794 0
M  V30 3308 H 317.678 0.0899596 -4.79016 0
M  V30 3309 H 316.042 0.144536 -2.5429 0
M  V30 3310 H 316.825 -1.42244 -3.12444 0
M  V30 3311 N 319.27 1.56325 -0.20005 0
M  V30 3312 C 320.233 2.18084 0.705132 0
M  V30 3313 C 321.233 1.13666 1.1374 0
M  V30 3314 O 322.423 1.39023 1.04968 0
M  V30 3315 C 319.555 2.78689 1.96329 0
M  V30 3316 H 320.748 2.99435 0.167023 0
M  V30 3317 H 318.301 1.56221 0.0495725 0
M  V30 3318 H 319.036 2.0115 2.5438 0
M  V30 3319 H 318.821 3.55133 1.66202 0
M  V30 3320 H 320.311 3.26096 2.60866 0
M  V30 3321 N 320.748 -0.0735177 1.57428 0
M  V30 3322 C 322.159 -0.625551 1.75908 0
M  V30 3323 C 322.51 -1.78 0.825261 0
M  V30 3324 O 321.635 -2.16398 0.00893964 0
M  V30 3325 C 322.23 -1.14155 3.18989 0
M  V30 3326 C 320.789 -1.63946 3.38819 0
M  V30 3327 C 319.936 -0.558151 2.71625 0
M  V30 3328 H 322.887 0.152647 1.57964 0
M  V30 3329 H 322.908 -2.0104 3.23053 0
M  V30 3330 H 322.42 -0.301116 3.8693 0
M  V30 3331 H 320.521 -2.50321 2.7599 0
M  V30 3332 H 320.634 -1.71759 4.47253 0
M  V30 3333 H 318.998 -1.00278 2.34129 0
M  V30 3334 H 319.781 0.272071 3.4222 0
M  V30 3335 N 322.226 -1.5378 -0.344866 0
M  V30 3336 C 323.173 -1.81676 -1.42346 0
M  V30 3337 C 324.143 -0.662376 -1.52321 0
M  V30 3338 O 325.328 -0.906675 -1.67881 0
M  V30 3339 C 322.468 -2.03087 -2.79015 0
M  V30 3340 C 321.581 -3.30799 -2.77842 0
M  V30 3341 C 320.716 -3.42285 -4.0622 0
M  V30 3342 C 319.755 -4.6395 -3.9927 0
M  V30 3343 N 318.892 -4.72477 -5.19336 0
M  V30 3344 H 323.732 -2.73703 -1.17858 0
M  V30 3345 H 321.269 -1.35568 -0.570949 0
M  V30 3346 H 323.227 -2.1349 -3.58438 0
M  V30 3347 H 321.857 -1.14375 -3.01858 0
M  V30 3348 H 320.909 -3.29244 -1.90533 0
M  V30 3349 H 322.221 -4.20314 -2.68584 0
M  V30 3350 H 321.375 -3.52113 -4.94066 0
M  V30 3351 H 320.114 -2.50823 -4.18258 0
M  V30 3352 H 319.119 -4.54201 -3.09809 0
M  V30 3353 H 320.344 -5.56775 -3.88817 0
M  V30 3354 H 318.29 -3.83924 -5.3192 0
M  V30 3355 H 318.207 -5.55927 -5.12329 0
M  V30 3356 H 319.475 -4.86613 -6.08957 0
M  V30 3357 N 323.704 0.605807 -1.45491 0
M  V30 3358 C 325.12 0.926751 -1.29936 0
M  V30 3359 C 325.32 1.99896 -0.253706 0
M  V30 3360 O 324.376 2.50038 0.351737 0
M  V30 3361 C 325.689 1.36599 -2.67883 0
M  V30 3362 C 327.237 1.4801 -2.75793 0
M  V30 3363 C 327.712 1.95309 -4.14268 0
M  V30 3364 N 329.203 2.0254 -4.16571 0
M  V30 3365 C 329.938 2.40363 -5.20589 0
M  V30 3366 N 329.434 2.77143 -6.34952 0
M  V30 3367 N 331.227 2.40718 -5.07948 0
M  V30 3368 H 323.378 -0.102862 -2.12151 0
M  V30 3369 H 325.641 0.016639 -0.947854 0
M  V30 3370 H 325.347 0.652306 -3.45598 0
M  V30 3371 H 325.221 2.33215 -2.96463 0
M  V30 3372 H 327.608 2.1847 -1.98381 0
M  V30 3373 H 327.689 0.497041 -2.50925 0
M  V30 3374 H 327.333 1.25436 -4.92167 0
M  V30 3375 H 327.263 2.94532 -4.3653 0
M  V30 3376 H 329.754 1.76699 -3.34045 0
M  V30 3377 H 330.067 3.0489 -7.10114 0
M  V30 3378 H 328.412 2.74834 -6.3835 0
M  V30 3379 H 331.603 2.11392 -4.1765 0
M  V30 3380 H 331.776 2.69869 -5.89131 0
M  V30 3381 N 325.182 1.32811 0.848464 0
M  V30 3382 C 326.13 1.22231 1.97895 0
M  V30 3383 C 327.124 0.125749 1.68933 0
M  V30 3384 O 328.33 0.289083 1.77663 0
M  V30 3385 H 324.705 0.379058 0.649476 0
M  V30 3386 H 326.676 2.17828 2.03945 0
M  V30 3387 C 325.425 0.968572 3.33937 0
M  V30 3388 H 324.748 1.80458 3.56756 0
M  V30 3389 H 326.188 0.934808 4.13567 0
M  V30 3390 C 324.647 -0.328628 3.35293 0
M  V30 3391 O 325.177 -1.33848 3.78745 0
M  V30 3392 N 323.383 -0.352788 2.88451 0
M  V30 3393 H 322.93 0.469541 2.53285 0
M  V30 3394 H 322.888 -1.22057 2.89741 0
M  V30 3395 N 326.66 -1.06551 1.16123 0
M  V30 3396 C 327.607 -2.13961 0.865414 0
M  V30 3397 C 328.577 -1.65066 -0.185055 0
M  V30 3398 O 329.762 -1.90732 -0.05083 0
M  V30 3399 C 326.902 -3.43113 0.369776 0
M  V30 3400 C 326.015 -4.05756 1.48276 0
M  V30 3401 C 325.15 -5.22773 0.942414 0
M  V30 3402 C 324.189 -5.77395 2.03179 0
M  V30 3403 N 323.326 -6.85731 1.50721 0
M  V30 3404 H 328.166 -2.38605 1.78527 0
M  V30 3405 H 325.703 -1.17072 0.890646 0
M  V30 3406 H 327.661 -4.17151 0.0640643 0
M  V30 3407 H 326.291 -3.18695 -0.513143 0
M  V30 3408 H 325.343 -3.29292 1.9045 0
M  V30 3409 H 326.655 -4.42351 2.30493 0
M  V30 3410 H 325.809 -6.03827 0.589729 0
M  V30 3411 H 324.548 -4.87618 0.0895191 0
M  V30 3412 H 323.553 -4.94981 2.3932 0
M  V30 3413 H 324.778 -6.14603 2.8886 0
M  V30 3414 H 322.724 -6.52499 0.676811 0
M  V30 3415 H 322.641 -7.21254 2.26557 0
M  V30 3416 H 323.909 -7.7047 1.18303 0
M  V30 3417 N 328.138 -0.959301 -1.25041 0
M  V30 3418 C 329.549 -0.65667 -1.74771 0
M  V30 3419 C 329.9 0.827852 -1.77879 0
M  V30 3420 O 329.025 1.64783 -1.40269 0
M  V30 3421 C 329.62 -1.1853 -3.1739 0
M  V30 3422 C 328.179 -0.932734 -3.6466 0
M  V30 3423 C 327.326 -1.32558 -2.43564 0
M  V30 3424 H 330.277 -1.13558 -1.10862 0
M  V30 3425 H 330.298 -0.547582 -3.76539 0
M  V30 3426 H 329.81 -2.26576 -3.15095 0
M  V30 3427 H 327.911 0.13257 -3.72364 0
M  V30 3428 H 328.024 -1.57248 -4.52559 0
M  V30 3429 H 326.388 -0.743956 -2.43593 0
M  V30 3430 H 327.171 -2.41537 -2.43957 0
M  V30 3431 N 329.616 1.39756 -0.72842 0
M  V30 3432 C 330.844 2.04948 -0.283528 0
M  V30 3433 C 331.259 1.54908 1.0793 0
M  V30 3434 O 330.616 0.711135 1.68075 0
M  V30 3435 C 330.667 3.60498 -0.268957 0
M  V30 3436 O 330.388 4.08695 -1.57798 0
M  V30 3437 C 331.889 4.4288 0.192912 0
M  V30 3438 H 329.109 0.659243 -0.125056 0
M  V30 3439 H 331.653 1.78927 -0.990226 0
M  V30 3440 H 329.808 3.85444 0.388801 0
M  V30 3441 H 330.222 5.02977 -1.48709 0
M  V30 3442 H 331.696 5.51791 0.151952 0
M  V30 3443 H 332.173 4.21418 1.23708 0
M  V30 3444 H 332.779 4.23069 -0.435039 0
M  V30 3445 N 331.094 0.475555 1.50254 0
M  V30 3446 C 332.34 -0.0780073 2.0265 0
M  V30 3447 C 332.673 -1.38968 1.35652 0
M  V30 3448 O 331.948 -1.8839 0.483691 0
M  V30 3449 C 332.231 -0.257161 3.59181 0
M  V30 3450 C 332.084 1.07585 4.36744 0
M  V30 3451 C 333.403 -1.00965 4.28362 0
M  V30 3452 H 330.522 -0.0268758 0.73651 0
M  V30 3453 H 333.164 0.622015 1.7953 0
M  V30 3454 H 331.314 -0.853412 3.79011 0
M  V30 3455 H 332.986 1.70902 4.28474 0
M  V30 3456 H 331.229 1.6714 4.00308 0
M  V30 3457 H 331.9 0.904088 5.44546 0
M  V30 3458 H 334.376 -0.504214 4.13034 0
M  V30 3459 H 333.252 -1.10381 5.37687 0
M  V30 3460 H 333.513 -2.04731 3.91839 0
M  V30 3461 N 332.573 -1.56217 0.208337 0
M  V30 3462 C 333.803 -2.02043 -0.431523 0
M  V30 3463 C 334.211 -1.08755 -1.54819 0
M  V30 3464 O 333.554 -0.0870009 -1.83494 0
M  V30 3465 C 333.616 -3.44239 -1.03633 0
M  V30 3466 C 333.28 -4.56965 -0.0567502 0
M  V30 3467 C 334.277 -5.14624 0.738773 0
M  V30 3468 C 331.962 -5.02266 0.0581736 0
M  V30 3469 C 333.956 -6.16045 1.63605 0
M  V30 3470 C 331.643 -6.03528 0.959001 0
M  V30 3471 C 332.641 -6.60293 1.7465 0
M  V30 3472 O 332.329 -7.59586 2.6322 0
M  V30 3473 H 332.061 -0.666772 -0.111313 0
M  V30 3474 H 334.615 -2.02919 0.318277 0
M  V30 3475 H 332.845 -3.40391 -1.83497 0
M  V30 3476 H 334.534 -3.73793 -1.58221 0
M  V30 3477 H 335.3 -4.80483 0.660364 0
M  V30 3478 H 331.179 -4.57771 -0.544633 0
M  V30 3479 H 334.723 -6.60279 2.25116 0
M  V30 3480 H 330.62 -6.37092 1.03848 0
M  V30 3481 H 331.388 -7.77057 2.57148 0
M  V30 3482 N 334.051 0.0651679 -1.57465 0
M  V30 3483 C 335.299 0.761555 -1.87202 0
M  V30 3484 C 335.62 1.77778 -0.801243 0
M  V30 3485 O 334.89 1.95166 0.16937 0
M  V30 3486 H 333.47 0.284251 -0.690804 0
M  V30 3487 H 336.132 0.0396827 -1.9486 0
M  V30 3488 H 335.228 1.27365 -2.84929 0
M  V30 3489 N 335.529 1.53961 0.336706 0
M  V30 3490 C 336.775 1.7179 1.07777 0
M  V30 3491 C 337.108 0.483263 1.88091 0
M  V30 3492 O 336.383 -0.519747 1.87427 0
M  V30 3493 C 336.666 2.98558 2.01334 0
M  V30 3494 C 336.519 4.32245 1.24437 0
M  V30 3495 C 337.838 3.21023 3.01052 0
M  V30 3496 H 334.957 0.625089 0.390426 0
M  V30 3497 H 337.599 1.86641 0.35567 0
M  V30 3498 H 335.749 2.86028 2.62908 0
M  V30 3499 H 337.421 4.56637 0.654243 0
M  V30 3500 H 335.664 4.30344 0.546458 0
M  V30 3501 H 336.335 5.17137 1.93063 0
M  V30 3502 H 338.811 3.32929 2.49595 0
M  V30 3503 H 337.687 4.11104 3.6371 0
M  V30 3504 H 337.948 2.37637 3.72802 0
M  V30 3505 N 337.007 -0.598083 1.45811 0
M  V30 3506 C 338.232 -1.3881 1.54099 0
M  V30 3507 C 338.657 -1.8726 0.177578 0
M  V30 3508 O 338.015 -1.6069 -0.839541 0
M  V30 3509 C 338.063 -2.56217 2.53743 0
M  V30 3510 O 337.167 -3.5716 2.06182 0
M  V30 3511 H 336.508 -0.414024 0.519115 0
M  V30 3512 H 339.038 -0.726971 1.91249 0
M  V30 3513 H 339.048 -3.03337 2.72856 0
M  V30 3514 H 337.723 -2.20303 3.5276 0
M  V30 3515 H 336.3 -3.16624 1.96987 0
M  V30 3516 N 338.485 -1.33259 -0.841409 0
M  V30 3517 C 339.896 -1.22066 -1.41269 0
M  V30 3518 C 340.247 0.161479 -1.95534 0
M  V30 3519 O 339.372 1.06094 -1.88608 0
M  V30 3520 C 339.967 -2.20996 -2.568 0
M  V30 3521 C 338.526 -2.13649 -3.09888 0
M  V30 3522 C 337.673 -2.08623 -1.82679 0
M  V30 3523 H 340.624 -1.44895 -0.647395 0
M  V30 3524 H 340.645 -1.81621 -3.34356 0
M  V30 3525 H 340.157 -3.2158 -2.17274 0
M  V30 3526 H 338.258 -1.16359 -3.53965 0
M  V30 3527 H 338.371 -3.04079 -3.70234 0
M  V30 3528 H 336.735 -1.54061 -2.02824 0
M  V30 3529 H 337.518 -3.1101 -1.45353 0
M  V30 3530 N 339.963 1.05934 -1.16686 0
M  V30 3531 C 340.911 2.15603 -0.872817 0
M  V30 3532 C 341.905 1.68647 0.159576 0
M  V30 3533 O 343.111 1.79995 0.0132125 0
M  V30 3534 H 339.486 0.703885 -0.264671 0
M  V30 3535 H 341.457 2.37613 -1.80507 0
M  V30 3536 C 340.206 3.45457 -0.394344 0
M  V30 3537 H 339.529 3.81984 -1.18019 0
M  V30 3538 H 340.969 4.2339 -0.227408 0
M  V30 3539 C 339.428 3.25021 0.88673 0
M  V30 3540 O 339.958 3.50906 1.95519 0
M  V30 3541 N 338.164 2.78437 0.831925 0
M  V30 3542 H 337.711 2.57572 -0.0377619 0
M  V30 3543 H 337.669 2.65144 1.68956 0
M  V30 3544 N 341.441 0.965919 1.2453 0
M  V30 3545 C 342.671 0.643451 1.96324 0
M  V30 3546 C 343.079 -0.790927 1.71875 0
M  V30 3547 O 342.422 -1.54208 0.998273 0
M  V30 3548 C 342.484 0.836078 3.49643 0
M  V30 3549 C 342.148 2.24975 3.97788 0
M  V30 3550 C 343.145 3.22735 4.07601 0
M  V30 3551 C 340.83 2.57697 4.31158 0
M  V30 3552 C 342.824 4.51303 4.50116 0
M  V30 3553 C 340.511 3.86492 4.73357 0
M  V30 3554 C 341.509 4.83107 4.828 0
M  V30 3555 O 341.197 6.09605 5.24058 0
M  V30 3556 H 340.929 0.239223 0.632257 0
M  V30 3557 H 343.483 1.29587 1.59362 0
M  V30 3558 H 341.713 0.12649 3.86493 0
M  V30 3559 H 343.402 0.512965 4.02646 0
M  V30 3560 H 344.168 2.98783 3.82039 0
M  V30 3561 H 340.047 1.83216 4.23028 0
M  V30 3562 H 343.591 5.26716 4.57401 0
M  V30 3563 H 339.488 4.10245 4.98366 0
M  V30 3564 H 340.256 6.13146 5.42213 0
M  V30 3565 N 342.919 -1.39368 0.735821 0
M  V30 3566 C 344.196 -1.94465 0.210395 0
M  V30 3567 C 344.576 -1.67254 -1.28799 0
M  V30 3568 O 343.924 -1.00123 -2.05396 0
M  V30 3569 C 344.134 -3.4472 0.544897 0
M  V30 3570 C 345.482 -4.21708 0.494689 0
M  V30 3571 O 346.506 -3.52922 0.482136 0
M  V30 3572 O 345.365 -5.44299 0.489947 0
M  V30 3573 H 342.459 -0.826096 0.0386666 0
M  V30 3574 H 345.005 -1.48863 0.814735 0
M  V30 3575 H 343.777 -3.57963 1.58045 0
M  V30 3576 H 343.4 -3.97502 -0.08837 0
M  V30 3577 N 344.397 -0.483516 -1.5 0
M  V30 3578 C 345.344 0.304164 -2.28787 0
M  V30 3579 C 346.314 0.976114 -1.34392 0
M  V30 3580 O 347.499 0.986156 -1.63339 0
M  V30 3581 C 344.639 1.37298 -3.16612 0
M  V30 3582 C 343.752 0.714561 -4.26049 0
M  V30 3583 C 342.887 1.76232 -5.01114 0
M  V30 3584 C 341.926 1.08483 -6.0241 0
M  V30 3585 N 341.063 2.076 -6.70706 0
M  V30 3586 H 345.903 -0.373981 -2.95644 0
M  V30 3587 H 343.44 -0.196275 -1.45785 0
M  V30 3588 H 345.398 2.00445 -3.65893 0
M  V30 3589 H 344.028 2.02012 -2.51776 0
M  V30 3590 H 343.08 -0.0297798 -3.80388 0
M  V30 3591 H 344.392 0.180383 -4.98474 0
M  V30 3592 H 343.546 2.46929 -5.54176 0
M  V30 3593 H 342.285 2.33033 -4.28424 0
M  V30 3594 H 341.29 0.363545 -5.48597 0
M  V30 3595 H 342.515 0.523551 -6.77079 0
M  V30 3596 H 340.461 2.63394 -6.00799 0
M  V30 3597 H 340.378 1.59201 -7.39047 0
M  V30 3598 H 341.646 2.77639 -7.2838 0
M  V30 3599 N 345.875 1.56104 -0.216619 0
M  V30 3600 C 347.121 1.99219 0.410301 0
M  V30 3601 C 347.476 1.10169 1.57735 0
M  V30 3602 O 346.769 0.150598 1.91007 0
M  V30 3603 C 346.963 3.45923 0.898464 0
M  V30 3604 C 346.792 4.49163 -0.219748 0
M  V30 3605 C 345.562 5.00642 -0.684516 0
M  V30 3606 C 347.76 5.03751 -1.03629 0
M  V30 3607 N 345.742 5.87579 -1.7783 0
M  V30 3608 C 347.113 5.87566 -1.97904 0
M  V30 3609 C 349.168 4.86128 -1.07629 0
M  V30 3610 C 347.871 6.5564 -2.95851 0
M  V30 3611 C 349.897 5.54958 -2.04392 0
M  V30 3612 C 349.259 6.38536 -2.97407 0
M  V30 3613 H 345.358 0.773206 0.11695 0
M  V30 3614 H 347.942 1.9193 -0.327258 0
M  V30 3615 H 346.113 3.53669 1.6054 0
M  V30 3616 H 347.845 3.75963 1.49779 0
M  V30 3617 H 344.6 4.72807 -0.27399 0
M  V30 3618 H 345.024 6.3575 -2.32705 0
M  V30 3619 H 349.666 4.21168 -0.371099 0
M  V30 3620 H 347.384 7.19785 -3.67335 0
M  V30 3621 H 350.97 5.43289 -2.08154 0
M  V30 3622 H 349.85 6.90858 -3.71059 0
M  V30 3623 N 347.353 -0.0568162 1.57498 0
M  V30 3624 C 348.263 -1.08346 2.08083 0
M  V30 3625 C 349.279 -1.41439 1.01346 0
M  V30 3626 O 350.455 -1.51316 1.32912 0
M  V30 3627 C 347.52 -2.37352 2.52715 0
M  V30 3628 C 346.581 -2.11093 3.73816 0
M  V30 3629 C 345.814 -3.33949 4.1631 0
M  V30 3630 O 346.037 -4.43622 3.58547 0
M  V30 3631 O 344.971 -3.21279 5.08983 0
M  V30 3632 H 348.797 -0.683667 2.95905 0
M  V30 3633 H 346.382 -0.271965 1.46904 0
M  V30 3634 H 348.264 -3.13246 2.81877 0
M  V30 3635 H 346.939 -2.76681 1.68016 0
M  V30 3636 H 345.846 -1.32856 3.49714 0
M  V30 3637 H 347.179 -1.76637 4.59413 0
M  V30 3638 N 348.832 -1.54138 -0.328536 0
M  V30 3639 C 349.765 -1.78014 -1.4278 0
M  V30 3640 C 350.743 -0.629889 -1.49904 0
M  V30 3641 O 351.927 -0.866763 -1.6739 0
M  V30 3642 C 349.054 -1.89225 -2.80912 0
M  V30 3643 C 348.1 -3.11483 -2.91343 0
M  V30 3644 S 348.933 -4.70201 -2.56263 0
M  V30 3645 C 350.089 -4.84312 -3.96476 0
M  V30 3646 H 350.322 -2.70974 -1.22313 0
M  V30 3647 H 347.855 -1.45197 -0.525084 0
M  V30 3648 H 349.813 -1.9637 -3.60485 0
M  V30 3649 H 348.474 -0.972518 -2.98665 0
M  V30 3650 H 347.667 -3.16046 -3.92595 0
M  V30 3651 H 347.269 -3.02642 -2.19736 0
M  V30 3652 H 349.561 -4.66643 -4.91173 0
M  V30 3653 H 350.504 -5.86411 -3.96898 0
M  V30 3654 H 350.912 -4.12652 -3.85199 0
M  V30 3655 N 350.31 0.590341 -1.46126 0
M  V30 3656 C 351.22 1.72793 -1.58681 0
M  V30 3657 C 352.236 1.67516 -0.470566 0
M  V30 3658 O 353.412 1.87562 -0.733642 0
M  V30 3659 C 350.477 3.09287 -1.5666 0
M  V30 3660 C 349.538 3.25886 -2.79458 0
M  V30 3661 C 348.771 4.55869 -2.77524 0
M  V30 3662 O 348.994 5.3928 -1.85832 0
M  V30 3663 O 347.928 4.75552 -3.68964 0
M  V30 3664 H 351.754 1.65149 -2.54872 0
M  V30 3665 H 349.339 0.756486 -1.28832 0
M  V30 3666 H 351.221 3.90577 -1.58202 0
M  V30 3667 H 349.896 3.17385 -0.636271 0
M  V30 3668 H 348.803 2.44119 -2.83472 0
M  V30 3669 H 350.136 3.22675 -3.71674 0
M  V30 3670 N 351.788 1.33704 0.83433 0
M  V30 3671 C 353.204 1.13137 1.12571 0
M  V30 3672 C 353.404 -0.0747261 2.01361 0
M  V30 3673 O 352.46 -0.753647 2.4099 0
M  V30 3674 C 353.773 2.42105 1.78342 0
M  V30 3675 C 355.321 2.48054 1.90888 0
M  V30 3676 C 355.796 3.76995 2.60075 0
M  V30 3677 N 357.287 3.78092 2.67584 0
M  V30 3678 C 358.022 4.74574 3.21818 0
M  V30 3679 N 357.518 5.81434 3.76705 0
M  V30 3680 N 359.311 4.62044 3.20112 0
M  V30 3681 H 351.462 2.11 0.243489 0
M  V30 3682 H 353.725 0.932532 0.17055 0
M  V30 3683 H 353.431 3.30391 1.20561 0
M  V30 3684 H 353.305 2.54594 2.7832 0
M  V30 3685 H 355.692 1.60215 2.47821 0
M  V30 3686 H 355.773 2.39502 0.898459 0
M  V30 3687 H 355.417 4.65219 2.03799 0
M  V30 3688 H 355.347 3.82825 3.61597 0
M  V30 3689 H 357.838 3.00865 2.28667 0
M  V30 3690 H 358.151 6.51084 4.16305 0
M  V30 3691 H 356.496 5.85163 3.7498 0
M  V30 3692 H 359.687 3.77716 2.76493 0
M  V30 3693 H 359.86 5.37406 3.62076 0
M  V30 3694 N 353.266 -1.05314 1.17247 0
M  V30 3695 C 354.494 -1.81971 0.984593 0
M  V30 3696 C 354.909 -1.82929 -0.467166 0
M  V30 3697 O 354.266 -1.25564 -1.32438 0
M  V30 3698 C 354.317 -3.28143 1.51672 0
M  V30 3699 O 354.038 -3.27347 2.91163 0
M  V30 3700 C 355.539 -4.21493 1.37326 0
M  V30 3701 H 352.759 -0.573455 0.348411 0
M  V30 3702 H 355.303 -1.32808 1.55506 0
M  V30 3703 H 353.458 -3.74582 0.988302 0
M  V30 3704 H 353.872 -4.18824 3.15732 0
M  V30 3705 H 355.346 -5.22043 1.79375 0
M  V30 3706 H 355.823 -4.38031 0.320169 0
M  V30 3707 H 356.429 -3.80909 1.89178 0
M  V30 3708 N 354.744 -0.972509 -1.24016 0
M  V30 3709 C 356.021 -0.553733 -1.87598 0
M  V30 3710 C 356.401 0.969158 -1.87538 0
M  V30 3711 O 355.749 1.84255 -1.35139 0
M  V30 3712 C 355.959 -1.15076 -3.29482 0
M  V30 3713 C 357.307 -1.23862 -4.06132 0
M  V30 3714 O 358.331 -1.10363 -3.38672 0
M  V30 3715 O 357.19 -1.45252 -5.26844 0
M  V30 3716 H 354.284 -0.185331 -0.805966 0
M  V30 3717 H 356.83 -1.06709 -1.31952 0
M  V30 3718 H 355.602 -2.19333 -3.2405 0
M  V30 3719 H 355.225 -0.621746 -3.92709 0
M  V30 3720 N 356.222 1.38976 -0.743202 0
M  V30 3721 C 357.471 1.99581 -0.291592 0
M  V30 3722 C 357.784 1.59656 1.13001 0
M  V30 3723 O 358.99 2.13157 1.68156 0
M  V30 3724 C 357.446 3.56813 -0.470391 0
M  V30 3725 C 357.054 4.05695 -1.90041 0
M  V30 3726 C 358.798 4.24423 -0.0809709 0
M  V30 3727 C 356.705 5.5553 -2.02832 0
M  V30 3728 H 355.635 0.746615 -0.105272 0
M  V30 3729 H 358.286 1.58872 -0.918258 0
M  V30 3730 H 356.668 3.95359 0.225299 0
M  V30 3731 H 357.842 3.78464 -2.62872 0
M  V30 3732 H 356.157 3.50775 -2.24379 0
M  V30 3733 H 358.754 5.34474 -0.155445 0
M  V30 3734 H 359.097 4.04962 0.96497 0
M  V30 3735 H 359.63 3.9108 -0.728124 0
M  V30 3736 H 356.369 5.79881 -3.05643 0
M  V30 3737 H 355.889 5.84537 -1.34448 0
M  V30 3738 H 357.568 6.21069 -1.81335 0
M  V30 3739 N 357.7 0.491464 1.49741 0
M  V30 3740 C 358.928 -0.0535151 2.06831 0
M  V30 3741 C 359.343 -1.31683 1.35296 0
M  V30 3742 O 358.7 -1.77402 0.42836 0
M  V30 3743 C 358.751 -0.320835 3.60073 0
M  V30 3744 O 358.472 0.892394 4.28915 0
M  V30 3745 C 359.973 -0.910519 4.33848 0
M  V30 3746 H 357.193 0.0161909 0.670805 0
M  V30 3747 H 359.737 0.68609 1.92647 0
M  V30 3748 H 357.892 -1.0104 3.73991 0
M  V30 3749 H 358.306 0.649401 5.20464 0
M  V30 3750 H 359.78 -1.04721 5.41976 0
M  V30 3751 H 360.257 -1.90589 3.95692 0
M  V30 3752 H 360.863 -0.258712 4.24512 0
M  V30 3753 N 359.178 -1.55987 0.224894 0
M  V30 3754 C 360.111 -2.16413 -0.723929 0
M  V30 3755 C 361.089 -1.10952 -1.18863 0
M  V30 3756 O 362.273 -1.39225 -1.27077 0
M  V30 3757 C 359.4 -2.74711 -1.98121 0
M  V30 3758 C 358.446 -3.9303 -1.6562 0
M  V30 3759 S 359.279 -5.29817 -0.778058 0
M  V30 3760 C 360.435 -5.91555 -2.04483 0
M  V30 3761 H 360.668 -2.96555 -0.210347 0
M  V30 3762 H 358.201 -1.54397 0.00955457 0
M  V30 3763 H 360.159 -3.08938 -2.70311 0
M  V30 3764 H 358.82 -1.94555 -2.46591 0
M  V30 3765 H 358.013 -4.32334 -2.59043 0
M  V30 3766 H 357.615 -3.59966 -1.01491 0
M  V30 3767 H 359.907 -6.07732 -2.99446 0
M  V30 3768 H 360.85 -6.87498 -1.69563 0
M  V30 3769 H 361.258 -5.20419 -2.18688 0
M  V30 3770 N 360.656 0.0484629 -1.57525 0
M  V30 3771 C 361.603 1.05504 -2.05275 0
M  V30 3772 C 362.573 1.37084 -0.937927 0
M  V30 3773 O 363.758 1.47754 -1.2072 0
M  V30 3774 C 360.898 2.35676 -2.52093 0
M  V30 3775 C 360.011 2.10423 -3.77288 0
M  V30 3776 C 359.146 3.34327 -4.12794 0
M  V30 3777 C 358.185 3.04542 -5.30962 0
M  V30 3778 N 357.322 4.20841 -5.61994 0
M  V30 3779 H 362.162 0.640885 -2.91027 0
M  V30 3780 H 359.699 0.304854 -1.43906 0
M  V30 3781 H 361.657 3.11709 -2.77297 0
M  V30 3782 H 360.287 2.7485 -1.69285 0
M  V30 3783 H 359.339 1.24976 -3.59284 0
M  V30 3784 H 360.651 1.84438 -4.63448 0
M  V30 3785 H 359.805 4.1874 -4.39024 0
M  V30 3786 H 358.544 3.63408 -3.25247 0
M  V30 3787 H 357.549 2.18528 -5.04505 0
M  V30 3788 H 358.774 2.76758 -6.20146 0
M  V30 3789 H 356.72 4.4991 -4.77406 0
M  V30 3790 H 356.637 3.98212 -6.42622 0
M  V30 3791 H 357.905 5.06184 -5.92789 0
M  V30 3792 N 362.134 1.5431 0.320358 0
M  V30 3793 C 363.084 1.803 1.39556 0
M  V30 3794 C 364.068 0.659166 1.46778 0
M  V30 3795 O 365.26 0.91926 1.51257 0
M  V30 3796 C 362.389 2.03665 2.76361 0
M  V30 3797 C 361.475 3.24178 2.73439 0
M  V30 3798 N 361.866 4.4516 2.40137 0
M  V30 3799 C 360.164 3.25816 3.04565 0
M  V30 3800 C 360.865 5.27109 2.4603 0
M  V30 3801 N 359.841 4.64368 2.82601 0
M  V30 3802 H 363.643 2.71416 1.12742 0
M  V30 3803 H 361.157 1.53548 0.528856 0
M  V30 3804 H 363.154 2.20425 3.53862 0
M  V30 3805 H 361.814 1.13805 3.04103 0
M  V30 3806 H 362.825 4.72104 2.12927 0
M  V30 3807 H 359.502 2.46001 3.37328 0
M  V30 3808 H 360.892 6.33728 2.23246 0
M  V30 3809 N 363.613 -0.582584 1.46437 0
M  V30 3810 C 364.56 -1.69164 1.5701 0
M  V30 3811 C 365.53 -1.60847 0.414403 0
M  V30 3812 O 366.715 -1.80058 0.631171 0
M  V30 3813 C 363.855 -3.075 1.56646 0
M  V30 3814 C 362.968 -3.2644 2.82951 0
M  V30 3815 C 362.103 -4.55026 2.7409 0
M  V30 3816 C 361.142 -4.6731 3.95333 0
M  V30 3817 N 360.279 -5.87221 3.84858 0
M  V30 3818 H 365.119 -1.59464 2.51744 0
M  V30 3819 H 362.656 -0.777186 1.24893 0
M  V30 3820 H 364.614 -3.8757 1.5442 0
M  V30 3821 H 363.244 -3.16096 0.654439 0
M  V30 3822 H 362.296 -2.39974 2.95155 0
M  V30 3823 H 363.608 -3.31385 3.72808 0
M  V30 3824 H 362.762 -5.43324 2.6997 0
M  V30 3825 H 361.501 -4.52519 1.81873 0
M  V30 3826 H 360.506 -3.77429 3.99784 0
M  V30 3827 H 361.731 -4.71595 4.88646 0
M  V30 3828 H 359.677 -5.85712 2.95427 0
M  V30 3829 H 359.594 -5.93435 4.6837 0
M  V30 3830 H 360.862 -6.7795 3.84713 0
M  V30 3831 N 365.091 -1.34144 -0.827227 0
M  V30 3832 C 366.021 -1.28005 -1.95287 0
M  V30 3833 C 367.002 -0.158321 -1.69362 0
M  V30 3834 O 368.187 -0.349987 -1.9102 0
M  V30 3835 C 365.317 -1.03036 -3.31664 0
M  V30 3836 C 364.271 -2.11628 -3.72019 0
M  V30 3837 C 363.597 -1.71854 -5.0633 0
M  V30 3838 C 364.897 -3.53417 -3.8457 0
M  V30 3839 H 366.591 -2.22187 -2.00682 0
M  V30 3840 H 364.137 -1.0696 -0.964135 0
M  V30 3841 H 366.09 -0.973863 -4.09993 0
M  V30 3842 H 364.814 -0.0529391 -3.26557 0
M  V30 3843 H 363.473 -2.16339 -2.95961 0
M  V30 3844 H 363.121 -0.727841 -4.97706 0
M  V30 3845 H 362.821 -2.44531 -5.34302 0
M  V30 3846 H 364.345 -1.67692 -5.87122 0
M  V30 3847 H 365.759 -3.51142 -4.5318 0
M  V30 3848 H 364.156 -4.24679 -4.2399 0
M  V30 3849 H 365.226 -3.91072 -2.86689 0
M  V30 3850 N 366.569 1.04691 -1.17803 0
M  V30 3851 C 367.817 1.7743 -0.967617 0
M  V30 3852 C 368.138 1.88359 0.504574 0
M  V30 3853 O 367.408 1.40402 1.36617 0
M  V30 3854 H 365.988 0.657242 -0.355024 0
M  V30 3855 H 368.65 1.2638 -1.48371 0
M  V30 3856 H 367.746 2.78924 -1.40027 0
M  V30 3857 N 368.047 0.979072 1.23499 0
M  V30 3858 C 369.295 0.645941 1.91499 0
M  V30 3859 C 369.616 -0.822948 1.76784 0
M  V30 3860 O 368.886 -1.58854 1.14639 0
M  V30 3861 H 367.466 0.235919 0.708767 0
M  V30 3862 H 370.128 1.2426 1.50152 0
M  V30 3863 H 369.224 0.896411 2.9895 0
M  V30 3864 N 369.525 -1.3858 0.750561 0
M  V30 3865 C 370.773 -1.99789 0.30477 0
M  V30 3866 C 371.094 -1.59874 -1.11649 0
M  V30 3867 O 370.364 -0.85417 -1.76297 0
M  V30 3868 H 368.944 -0.738902 0.109694 0
M  V30 3869 H 371.606 -1.69391 0.963983 0
M  V30 3870 H 370.702 -3.09952 0.365499 0
M  V30 3871 N 371.003 -0.499398 -1.49478 0
M  V30 3872 C 371.935 0.316575 -2.27003 0
M  V30 3873 C 372.948 0.932047 -1.33479 0
M  V30 3874 O 374.137 0.815658 -1.58774 0
M  V30 3875 C 371.237 1.46055 -3.05812 0
M  V30 3876 C 370.41 0.952679 -4.26899 0
M  V30 3877 C 369.469 1.97407 -4.87767 0
M  V30 3878 O 368.495 1.54326 -5.4788 0
M  V30 3879 N 369.697 3.30436 -4.77276 0
M  V30 3880 H 372.462 -0.348168 -2.97671 0
M  V30 3881 H 370.023 -0.33185 -1.58463 0
M  V30 3882 H 372.015 2.14135 -3.43407 0
M  V30 3883 H 370.585 2.02948 -2.37762 0
M  V30 3884 H 369.805 0.0968248 -3.94081 0
M  V30 3885 H 371.093 0.59174 -5.05347 0
M  V30 3886 H 370.491 3.68126 -4.29534 0
M  V30 3887 H 369.048 3.94235 -5.19059 0
M  V30 3888 N 372.481 1.55866 -0.233164 0
M  V30 3889 C 373.711 2.02704 0.399325 0
M  V30 3890 C 374.119 1.11204 1.53069 0
M  V30 3891 O 373.462 0.116182 1.83332 0
M  V30 3892 C 373.524 3.45844 0.981429 0
M  V30 3893 C 373.188 4.56997 -0.0159561 0
M  V30 3894 C 374.185 5.13384 -0.820552 0
M  V30 3895 C 371.87 5.0211 -0.138072 0
M  V30 3896 C 373.864 6.13365 -1.73386 0
M  V30 3897 C 371.551 6.01926 -1.0549 0
M  V30 3898 C 372.549 6.57431 -1.85132 0
M  V30 3899 O 372.237 7.55302 -2.75272 0
M  V30 3900 H 371.969 0.668459 0.100692 0
M  V30 3901 H 374.523 2.02387 -0.35052 0
M  V30 3902 H 372.753 3.43267 1.78058 0
M  V30 3903 H 374.442 3.76262 1.52255 0
M  V30 3904 H 375.208 4.79372 -0.736721 0
M  V30 3905 H 371.087 4.5858 0.471737 0
M  V30 3906 H 374.631 6.56614 -2.35592 0
M  V30 3907 H 370.528 6.35359 -1.1397 0
M  V30 3908 H 371.296 7.72867 -2.69477 0
M  V30 3909 N 373.959 -0.0401083 1.57549 0
M  V30 3910 C 375.207 -0.731677 1.8839 0
M  V30 3911 C 375.528 -1.76481 0.829425 0
M  V30 3912 O 374.798 -1.95411 -0.1383 0
M  V30 3913 H 373.378 -0.273225 0.695239 0
M  V30 3914 H 376.04 -0.00867725 1.94898 0
M  V30 3915 H 375.136 -1.22816 2.86919 0
M  V30 3916 N 375.437 -1.54477 -0.31217 0
M  V30 3917 C 376.347 -1.87695 -1.4074 0
M  V30 3918 C 377.363 -0.769975 -1.56036 0
M  V30 3919 O 378.539 -1.06537 -1.70915 0
M  V30 3920 C 375.604 -2.10755 -2.75287 0
M  V30 3921 C 374.665 -3.34514 -2.69071 0
M  V30 3922 C 373.898 -3.56465 -3.97201 0
M  V30 3923 O 374.121 -2.81637 -4.96021 0
M  V30 3924 O 373.055 -4.49964 -3.9977 0
M  V30 3925 H 376.881 -2.80849 -1.15574 0
M  V30 3926 H 374.466 -1.40526 -0.507228 0
M  V30 3927 H 376.348 -2.27188 -3.54913 0
M  V30 3928 H 375.023 -1.20788 -3.0032 0
M  V30 3929 H 373.93 -3.23456 -1.87955 0
M  V30 3930 H 375.263 -4.24575 -2.48992 0
M  V30 3931 N 376.915 0.57481 -1.46744 0
M  V30 3932 C 378.161 1.3347 -1.52688 0
M  V30 3933 C 378.494 1.93353 -0.181229 0
M  V30 3934 O 377.769 1.76912 0.808237 0
M  V30 3935 C 378.052 2.45811 -2.63152 0
M  V30 3936 C 377.905 1.90912 -4.07275 0
M  V30 3937 C 379.224 3.47822 -2.69644 0
M  V30 3938 H 376.343 0.483935 -0.555856 0
M  V30 3939 H 378.985 0.644968 -1.78718 0
M  V30 3940 H 377.135 3.04646 -2.41088 0
M  V30 3941 H 378.807 1.36473 -4.4065 0
M  V30 3942 H 377.05 1.21691 -4.16382 0
M  V30 3943 H 377.721 2.72042 -4.80309 0
M  V30 3944 H 380.197 2.9888 -2.895 0
M  V30 3945 H 379.073 4.23876 -3.48742 0
M  V30 3946 H 379.334 4.05555 -1.76005 0
M  V30 3947 N 378.394 1.34581 0.820102 0
M  V30 3948 C 379.624 1.29991 1.6058 0
M  V30 3949 C 380.032 -0.127588 1.88769 0
M  V30 3950 O 379.375 -1.08595 1.48165 0
M  V30 3951 C 379.437 2.02548 2.9701 0
M  V30 3952 C 379.101 3.51794 2.91701 0
M  V30 3953 C 380.098 4.46647 2.66087 0
M  V30 3954 C 377.783 3.94249 3.11245 0
M  V30 3955 C 379.777 5.81929 2.60071 0
M  V30 3956 C 377.464 5.2963 3.04853 0
M  V30 3957 C 378.462 6.23282 2.793 0
M  V30 3958 O 378.15 7.56181 2.72847 0
M  V30 3959 H 377.882 0.448539 0.505756 0
M  V30 3960 H 380.436 1.77811 1.02822 0
M  V30 3961 H 378.666 1.49345 3.56697 0
M  V30 3962 H 380.355 1.91211 3.58041 0
M  V30 3963 H 381.121 4.15168 2.5072 0
M  V30 3964 H 377 3.21749 3.30149 0
M  V30 3965 H 380.544 6.54999 2.40046 0
M  V30 3966 H 376.441 5.60727 3.19774 0
M  V30 3967 H 377.209 7.6595 2.88553 0
M  V30 3968 N 379.872 -1.04064 1.18357 0
M  V30 3969 C 380.782 -2.15569 0.925596 0
M  V30 3970 C 381.798 -1.7365 -0.110295 0
M  V30 3971 O 382.974 -2.01273 0.0716218 0
M  V30 3972 C 380.039 -3.43704 0.454836 0
M  V30 3973 C 379.1 -4.00004 1.55869 0
M  V30 3974 C 378.333 -5.22023 1.1103 0
M  V30 3975 O 378.556 -5.70392 -0.0309756 0
M  V30 3976 O 377.49 -5.70856 1.90805 0
M  V30 3977 H 381.316 -2.40187 1.8586 0
M  V30 3978 H 378.901 -1.1402 0.965394 0
M  V30 3979 H 380.783 -4.20923 0.200382 0
M  V30 3980 H 379.458 -3.20559 -0.449876 0
M  V30 3981 H 378.365 -3.24172 1.86716 0
M  V30 3982 H 379.698 -4.2749 2.43953 0
M  V30 3983 N 381.35 -0.985608 -1.22978 0
M  V30 3984 C 382.598 -0.656087 -1.91154 0
M  V30 3985 C 382.919 0.813561 -1.77218 0
M  V30 3986 O 382.189 1.58244 -1.1548 0
M  V30 3987 H 380.769 -0.239674 -0.707506 0
M  V30 3988 H 383.431 -1.25054 -1.49491 0
M  V30 3989 H 382.527 -0.912253 -2.9847 0
M  V30 3990 N 382.828 1.3818 -0.7579 0
M  V30 3991 C 384.074 2.00316 -0.316453 0
M  V30 3992 C 384.407 1.60026 1.10025 0
M  V30 3993 O 383.682 0.839835 1.75434 0
M  V30 3994 C 383.965 3.57349 -0.444245 0
M  V30 3995 C 383.818 4.07591 -1.90236 0
M  V30 3996 C 385.137 4.3981 0.1598 0
M  V30 3997 H 382.256 0.727741 -0.116459 0
M  V30 3998 H 384.898 1.6406 -0.958352 0
M  V30 3999 H 383.048 3.88365 0.102233 0
M  V30 4000 H 384.72 3.87199 -2.50748 0
M  V30 4001 H 382.963 3.60297 -2.41595 0
M  V30 4002 H 383.634 5.16677 -1.94291 0
M  V30 4003 H 386.11 4.14971 -0.306314 0
M  V30 4004 H 384.986 5.48885 0.0401675 0
M  V30 4005 H 385.247 4.24102 1.24859 0
M  V30 4006 N 384.306 0.507319 1.49211 0
M  V30 4007 C 385.552 -0.0269732 2.03382 0
M  V30 4008 C 385.907 -1.34111 1.37957 0
M  V30 4009 O 385.2 -1.84733 0.508351 0
M  V30 4010 C 385.394 -0.229513 3.56662 0
M  V30 4011 C 385.223 1.06344 4.36945 0
M  V30 4012 C 383.993 1.617 4.78729 0
M  V30 4013 C 386.191 1.96833 4.75143 0
M  V30 4014 N 384.173 2.8552 5.43463 0
M  V30 4015 C 385.544 3.0523 5.39661 0
M  V30 4016 C 387.599 1.97434 4.57082 0
M  V30 4017 C 386.302 4.14265 5.88028 0
M  V30 4018 C 388.328 3.05448 5.06414 0
M  V30 4019 C 387.69 4.12564 5.70938 0
M  V30 4020 H 383.789 0.0310673 0.781383 0
M  V30 4021 H 386.373 0.683579 1.82305 0
M  V30 4022 H 384.544 -0.909127 3.7761 0
M  V30 4023 H 386.276 -0.761377 3.97473 0
M  V30 4024 H 383.031 1.16132 4.59141 0
M  V30 4025 H 383.455 3.48499 5.80412 0
M  V30 4026 H 388.097 1.15924 4.06597 0
M  V30 4027 H 385.815 4.96569 6.3753 0
M  V30 4028 H 389.401 3.06941 4.94246 0
M  V30 4029 H 388.281 4.94767 6.0842 0
M  V30 4030 N 385.784 -1.5574 0.241426 0
M  V30 4031 C 386.731 -2.21149 -0.660432 0
M  V30 4032 C 387.701 -1.17356 -1.17545 0
M  V30 4033 O 388.886 -1.45784 -1.23093 0
M  V30 4034 C 386.026 -2.91059 -1.85414 0
M  V30 4035 C 385.139 -4.09495 -1.37616 0
M  V30 4036 C 384.274 -4.67135 -2.529 0
M  V30 4037 C 383.313 -5.77831 -2.01936 0
M  V30 4038 N 382.45 -6.29677 -3.10566 0
M  V30 4039 H 387.29 -2.97845 -0.095955 0
M  V30 4040 H 384.827 -1.47057 -0.0356024 0
M  V30 4041 H 386.785 -3.29788 -2.5553 0
M  V30 4042 H 385.415 -2.16846 -2.39118 0
M  V30 4043 H 384.467 -3.76117 -0.569235 0
M  V30 4044 H 385.779 -4.89423 -0.962618 0
M  V30 4045 H 384.933 -5.08409 -3.31067 0
M  V30 4046 H 383.672 -3.86411 -2.97553 0
M  V30 4047 H 382.677 -5.36039 -1.22238 0
M  V30 4048 H 383.902 -6.60402 -1.58259 0
M  V30 4049 H 381.848 -5.5186 -3.54664 0
M  V30 4050 H 381.765 -7.04783 -2.73526 0
M  V30 4051 H 383.033 -6.75609 -3.88809 0
M  V30 4052 N 387.262 0.0317525 -1.57568 0
M  V30 4053 C 388.209 1.0332 -2.06382 0
M  V30 4054 C 389.179 1.36082 -0.952414 0
M  V30 4055 O 390.364 1.46466 -1.2228 0
M  V30 4056 C 387.504 2.32989 -2.54578 0
M  V30 4057 C 386.617 2.0641 -3.79498 0
M  V30 4058 C 385.752 3.2993 -4.16317 0
M  V30 4059 C 384.791 2.98893 -5.34162 0
M  V30 4060 N 383.928 4.14857 -5.66426 0
M  V30 4061 H 388.768 0.609982 -2.9169 0
M  V30 4062 H 386.305 0.289573 -1.44222 0
M  V30 4063 H 388.263 3.0875 -2.80587 0
M  V30 4064 H 386.893 2.73039 -1.7219 0
M  V30 4065 H 385.945 1.21158 -3.6059 0
M  V30 4066 H 387.257 1.79513 -4.65378 0
M  V30 4067 H 386.411 4.1406 -4.4344 0
M  V30 4068 H 385.15 3.59938 -3.29083 0
M  V30 4069 H 384.155 2.13164 -5.06795 0
M  V30 4070 H 385.38 2.70165 -6.23047 0
M  V30 4071 H 383.326 4.44821 -4.82151 0
M  V30 4072 H 383.243 3.91374 -6.4681 0
M  V30 4073 H 384.511 4.99868 -5.98124 0
M  V30 4074 N 388.74 1.54641 0.303973 0
M  V30 4075 C 389.97 1.77511 1.05705 0
M  V30 4076 C 390.378 0.533228 1.81531 0
M  V30 4077 O 389.721 -0.506423 1.76582 0
M  V30 4078 C 389.783 2.92779 2.08617 0
M  V30 4079 C 389.447 4.30977 1.52013 0
M  V30 4080 C 390.444 5.11115 0.9517 0
M  V30 4081 C 388.129 4.77571 1.55665 0
M  V30 4082 C 390.123 6.35966 0.427327 0
M  V30 4083 C 387.81 6.02384 1.02841 0
M  V30 4084 C 388.808 6.81417 0.464713 0
M  V30 4085 O 388.496 8.03881 -0.0555283 0
M  V30 4086 H 388.228 0.59579 0.319391 0
M  V30 4087 H 390.782 2.02401 0.349712 0
M  V30 4088 H 389.012 2.63506 2.83022 0
M  V30 4089 H 390.701 3.03252 2.69802 0
M  V30 4090 H 391.467 4.76264 0.916407 0
M  V30 4091 H 387.346 4.16085 1.9848 0
M  V30 4092 H 390.89 6.97599 -0.0133062 0
M  V30 4093 H 386.787 6.36723 1.06084 0
M  V30 4094 H 387.555 8.18479 0.0580522 0
M  V30 4095 N 390.218 -0.567019 1.47046 0
M  V30 4096 C 391.443 -1.3551 1.57009 0
M  V30 4097 C 391.868 -1.86841 0.217259 0
M  V30 4098 O 391.226 -1.62435 -0.805268 0
M  V30 4099 C 391.274 -2.50777 2.5912 0
M  V30 4100 O 390.378 -3.52706 2.13711 0
M  V30 4101 H 389.719 -0.402919 0.52778 0
M  V30 4102 H 392.249 -0.686241 1.92748 0
M  V30 4103 H 392.259 -2.97481 2.79229 0
M  V30 4104 H 390.934 -2.12771 3.57353 0
M  V30 4105 H 389.511 -3.12374 2.03659 0
M  V30 4106 N 391.696 -1.35014 -0.812953 0
M  V30 4107 C 392.626 -1.30069 -1.93919 0
M  V30 4108 C 393.607 -0.176275 -1.69184 0
M  V30 4109 O 394.792 -0.370227 -1.90638 0
M  V30 4110 C 391.922 -1.06547 -3.30552 0
M  V30 4111 C 390.876 -2.15561 -3.69753 0
M  V30 4112 C 390.202 -1.77214 -5.04479 0
M  V30 4113 C 391.502 -3.57476 -3.808 0
M  V30 4114 H 393.196 -2.24303 -1.98314 0
M  V30 4115 H 390.742 -1.07977 -0.952736 0
M  V30 4116 H 392.695 -1.01729 -4.08937 0
M  V30 4117 H 391.419 -0.0875719 -3.26483 0
M  V30 4118 H 390.078 -2.19466 -2.9365 0
M  V30 4119 H 389.726 -0.780589 -4.96906 0
M  V30 4120 H 389.426 -2.50184 -5.31678 0
M  V30 4121 H 390.95 -1.7391 -5.8531 0
M  V30 4122 H 392.364 -3.55929 -4.4943 0
M  V30 4123 H 390.761 -4.29152 -4.19462 0
M  V30 4124 H 391.831 -3.94091 -2.82525 0
M  V30 4125 N 393.175 1.03435 -1.18907 0
M  V30 4126 C 394.403 1.80381 -1.01342 0
M  V30 4127 C 394.818 1.83649 0.438005 0
M  V30 4128 O 394.175 1.27655 1.30424 0
M  V30 4129 C 394.226 3.25689 -1.56873 0
M  V30 4130 O 393.947 3.22673 -2.96334 0
M  V30 4131 C 395.448 4.19255 -1.44014 0
M  V30 4132 H 392.668 0.56784 -0.35749 0
M  V30 4133 H 395.212 1.30317 -1.576 0
M  V30 4134 H 393.367 3.72962 -1.04777 0
M  V30 4135 H 393.781 4.13748 -3.22355 0
M  V30 4136 H 395.255 5.19123 -1.87657 0
M  V30 4137 H 395.732 4.37467 -0.389815 0
M  V30 4138 H 396.338 3.77851 -1.95214 0
M  V30 4139 N 394.653 0.992116 1.22453 0
M  V30 4140 C 395.899 0.668523 1.91464 0
M  V30 4141 C 396.232 -0.797313 1.77078 0
M  V30 4142 O 395.507 -1.5765 1.13916 0
M  V30 4143 C 395.79 1.07424 3.43703 0
M  V30 4144 C 395.643 2.59857 3.67143 0
M  V30 4145 C 396.962 0.626891 4.35612 0
M  V30 4146 H 394.081 0.244341 0.695318 0
M  V30 4147 H 396.723 1.2355 1.44345 0
M  V30 4148 H 394.873 0.591816 3.83966 0
M  V30 4149 H 396.545 3.15764 3.3629 0
M  V30 4150 H 394.788 3.01961 3.11451 0
M  V30 4151 H 395.459 2.83296 4.73759 0
M  V30 4152 H 397.935 1.04125 4.02861 0
M  V30 4153 H 396.811 0.939076 5.40807 0
M  V30 4154 H 397.072 -0.472457 4.39568 0
M  V30 4155 N 396.131 -1.37776 0.765217 0
M  V30 4156 C 397.094 -2.28686 0.153416 0
M  V30 4157 C 398.094 -1.47727 -0.635081 0
M  V30 4158 O 399.284 -1.68027 -0.459632 0
M  V30 4159 C 396.416 -3.31608 -0.790495 0
M  V30 4160 H 397.609 -2.84297 0.954723 0
M  V30 4161 H 395.162 -1.46932 0.53299 0
M  V30 4162 H 395.897 -2.81109 -1.61705 0
M  V30 4163 H 395.682 -3.9144 -0.227348 0
M  V30 4164 H 397.172 -3.99559 -1.21419 0
M  V30 4165 N 397.609 -0.515225 -1.4894 0
M  V30 4166 C 398.855 0.0242508 -2.02785 0
M  V30 4167 C 399.188 1.35323 -1.39289 0
M  V30 4168 O 398.463 1.87041 -0.533469 0
M  V30 4169 C 398.746 0.16184 -3.59736 0
M  V30 4170 C 398.599 -1.19127 -4.33738 0
M  V30 4171 C 399.918 0.895719 -4.30888 0
M  V30 4172 H 397.037 0.00733914 -0.736963 0
M  V30 4173 H 399.679 -0.669395 -1.77818 0
M  V30 4174 H 397.829 0.752624 -3.8114 0
M  V30 4175 H 399.501 -1.82202 -4.23792 0
M  V30 4176 H 397.744 -1.77695 -3.95736 0
M  V30 4177 H 398.415 -1.04815 -5.41957 0
M  V30 4178 H 400.891 0.394528 -4.14225 0
M  V30 4179 H 399.767 0.960859 -5.40425 0
M  V30 4180 H 400.028 1.9427 -3.97129 0
M  V30 4181 N 399.087 1.5561 -0.249682 0
M  V30 4182 C 400.034 2.21496 0.648694 0
M  V30 4183 C 401.004 1.17977 1.16921 0
M  V30 4184 O 402.189 1.46434 1.22318 0
M  V30 4185 C 399.329 2.92039 1.83868 0
M  V30 4186 C 398.442 4.10219 1.35442 0
M  V30 4187 C 397.577 4.6847 2.50419 0
M  V30 4188 C 396.616 5.78893 1.98869 0
M  V30 4189 N 395.753 6.31315 3.07223 0
M  V30 4190 H 400.593 2.97892 0.0801582 0
M  V30 4191 H 398.13 1.47074 0.0278031 0
M  V30 4192 H 400.088 3.31138 2.53778 0
M  V30 4193 H 398.718 2.18111 2.37965 0
M  V30 4194 H 397.77 3.76413 0.54928 0
M  V30 4195 H 399.082 4.89927 0.936649 0
M  V30 4196 H 398.236 5.10158 3.28366 0
M  V30 4197 H 396.975 3.87984 2.95499 0
M  V30 4198 H 395.98 5.3668 1.19393 0
M  V30 4199 H 397.205 6.61232 1.54755 0
M  V30 4200 H 395.151 5.53733 3.51732 0
M  V30 4201 H 395.068 7.06224 2.69784 0
M  V30 4202 H 396.336 6.77662 3.8522 0
M  V30 4203 N 400.565 -0.0233959 1.57583 0
M  V30 4204 C 401.793 -0.724682 1.93794 0
M  V30 4205 C 402.208 -1.68588 0.849912 0
M  V30 4206 O 401.565 -1.81676 -0.173204 0
M  V30 4207 C 401.616 -1.47684 3.29957 0
M  V30 4208 O 401.337 -0.554222 4.3458 0
M  V30 4209 C 402.838 -2.27477 3.80485 0
M  V30 4210 H 400.058 -0.203317 0.639455 0
M  V30 4211 H 402.602 0.0207653 2.04489 0
M  V30 4212 H 400.757 -2.17412 3.20641 0
M  V30 4213 H 401.171 -1.08232 5.13212 0
M  V30 4214 H 402.645 -2.7564 4.78254 0
M  V30 4215 H 403.122 -3.09144 3.11972 0
M  V30 4216 H 403.728 -1.62813 3.92902 0
M  V30 4217 N 402.043 -1.548 -0.295768 0
M  V30 4218 C 402.973 -1.89115 -1.36959 0
M  V30 4219 C 403.954 -0.75059 -1.52644 0
M  V30 4220 O 405.139 -1.00678 -1.66065 0
M  V30 4221 C 402.269 -2.14307 -2.73295 0
M  V30 4222 C 401.223 -3.30151 -2.72368 0
M  V30 4223 C 400.549 -3.40772 -4.12042 0
M  V30 4224 C 401.849 -4.67126 -2.33646 0
M  V30 4225 H 403.543 -2.79053 -1.08488 0
M  V30 4226 H 401.089 -1.34266 -0.520443 0
M  V30 4227 H 403.042 -2.36898 -3.48507 0
M  V30 4228 H 401.766 -1.21145 -3.03301 0
M  V30 4229 H 400.425 -3.0749 -1.99613 0
M  V30 4230 H 400.073 -2.45117 -4.39234 0
M  V30 4231 H 399.773 -4.18645 -4.12322 0
M  V30 4232 H 401.297 -3.6563 -4.89027 0
M  V30 4233 H 402.711 -4.89414 -2.98575 0
M  V30 4234 H 401.108 -5.47751 -2.45129 0
M  V30 4235 H 402.178 -4.67489 -1.28772 0
M  V30 4236 N 403.521 0.559213 -1.47345 0
M  V30 4237 C 404.468 1.66645 -1.59682 0
M  V30 4238 C 405.438 1.60168 -0.43994 0
M  V30 4239 O 406.623 1.79031 -0.659736 0
M  V30 4240 C 403.763 3.04969 -1.61518 0
M  V30 4241 C 402.876 3.21897 -2.88108 0
M  V30 4242 C 402.011 4.50608 -2.81294 0
M  V30 4243 C 401.05 4.60961 -4.02717 0
M  V30 4244 N 400.187 5.81024 -3.94151 0
M  V30 4245 H 405.027 1.55439 -2.54249 0
M  V30 4246 H 402.564 0.757219 -1.26113 0
M  V30 4247 H 404.522 3.85064 -1.60566 0
M  V30 4248 H 403.152 3.15015 -0.704645 0
M  V30 4249 H 402.204 2.35248 -2.98936 0
M  V30 4250 H 403.516 3.25412 -3.78032 0
M  V30 4251 H 402.67 5.3896 -2.7858 0
M  V30 4252 H 401.409 4.49568 -1.89049 0
M  V30 4253 H 400.414 3.71021 -4.05738 0
M  V30 4254 H 401.639 4.63761 -4.96087 0
M  V30 4255 H 399.585 5.80938 -3.04708 0
M  V30 4256 H 399.502 5.85909 -4.77752 0
M  V30 4257 H 400.77 6.71744 -3.9545 0
M  V30 4258 N 404.999 1.35443 0.805782 0
M  V30 4259 C 405.909 1.30546 1.94923 0
M  V30 4260 C 406.925 0.210233 1.72725 0
M  V30 4261 O 408.101 0.43975 1.9654 0
M  V30 4262 C 405.166 1.07782 3.29521 0
M  V30 4263 C 404.227 2.26625 3.64609 0
M  V30 4264 C 403.46 2.04938 4.92784 0
M  V30 4265 O 403.683 1.01624 5.61274 0
M  V30 4266 O 402.617 2.9232 5.26149 0
M  V30 4267 H 406.443 2.26779 2.02002 0
M  V30 4268 H 404.028 1.15823 0.943682 0
M  V30 4269 H 405.91 0.969392 4.10098 0
M  V30 4270 H 404.585 0.146003 3.23371 0
M  V30 4271 H 403.492 2.43033 2.84404 0
M  V30 4272 H 404.825 3.18257 3.75464 0
M  V30 4273 N 406.477 -1.02803 1.19454 0
M  V30 4274 C 407.754 -1.73299 0.907013 0
M  V30 4275 C 408.134 -2.02772 -0.587086 0
M  V30 4276 O 407.482 -1.68304 -1.54551 0
M  V30 4277 C 407.692 -3.00912 1.76785 0
M  V30 4278 C 409.04 -3.74403 2.00268 0
M  V30 4279 O 410.064 -3.10841 1.73943 0
M  V30 4280 O 408.923 -4.88675 2.4466 0
M  V30 4281 H 406.017 -0.754727 0.338106 0
M  V30 4282 H 408.563 -1.08754 1.30271 0
M  V30 4283 H 407.335 -2.75366 2.7801 0
M  V30 4284 H 406.958 -3.73197 1.37149 0
M  V30 4285 N 407.956 -0.998596 -1.21925 0
M  V30 4286 C 409.184 -0.696286 -1.94832 0
M  V30 4287 C 409.599 0.740032 -1.73692 0
M  V30 4288 O 408.956 1.5 -1.03953 0
M  V30 4289 C 409.007 -0.999833 -3.47398 0
M  V30 4290 O 408.728 -2.37972 -3.67833 0
M  V30 4291 C 410.229 -0.716025 -4.37479 0
M  V30 4292 H 407.449 -0.257111 -0.619786 0
M  V30 4293 H 409.993 -1.33491 -1.54921 0
M  V30 4294 H 408.148 -0.406918 -3.85257 0
M  V30 4295 H 408.562 -2.48338 -4.61983 0
M  V30 4296 H 410.036 -0.978642 -5.43256 0
M  V30 4297 H 410.513 0.349968 -4.37803 0
M  V30 4298 H 411.119 -1.29025 -4.05256 0
M  V30 4299 N 409.434 1.37368 -0.772513 0
M  V30 4300 C 410.367 2.27956 -0.105593 0
M  V30 4301 C 411.345 1.46362 0.708295 0
M  V30 4302 O 412.529 1.75695 0.682895 0
M  V30 4303 C 409.656 3.27687 0.856686 0
M  V30 4304 C 408.702 4.26312 0.1267 0
M  V30 4305 S 409.535 5.22206 -1.1858 0
M  V30 4306 C 410.691 6.25488 -0.227081 0
M  V30 4307 H 410.924 2.84171 -0.87372 0
M  V30 4308 H 408.457 1.43654 -0.565939 0
M  V30 4309 H 410.415 3.85653 1.40648 0
M  V30 4310 H 409.076 2.70417 1.59793 0
M  V30 4311 H 408.269 4.96674 0.856212 0
M  V30 4312 H 407.871 3.72339 -0.352117 0
M  V30 4313 H 410.163 6.74836 0.600231 0
M  V30 4314 H 411.106 7.02371 -0.898899 0
M  V30 4315 H 411.514 5.64267 0.162053 0
M  V30 4316 N 410.912 0.523116 1.48665 0
M  V30 4317 C 411.822 -0.247406 2.33292 0
M  V30 4318 C 412.838 -0.945769 1.46052 0
M  V30 4319 O 414.014 -0.922253 1.79043 0
M  V30 4320 C 411.079 -1.28487 3.22012 0
M  V30 4321 C 410.14 -0.597592 4.2512 0
M  V30 4322 C 409.373 -1.58563 5.09601 0
M  V30 4323 O 409.596 -2.81763 4.95949 0
M  V30 4324 O 408.53 -1.12879 5.91221 0
M  V30 4325 H 412.356 0.445869 3.00409 0
M  V30 4326 H 409.941 0.284128 1.46673 0
M  V30 4327 H 411.823 -1.88459 3.7691 0
M  V30 4328 H 410.498 -1.96068 2.57564 0
M  V30 4329 H 409.405 0.0424407 3.74076 0
M  V30 4330 H 410.738 0.0361517 4.92187 0
M  V30 4331 N 412.39 -1.55475 0.257931 0
M  V30 4332 C 413.636 -1.99502 -0.364266 0
M  V30 4333 C 413.969 -1.146 -1.56782 0
M  V30 4334 O 413.244 -0.211968 -1.93342 0
M  V30 4335 C 413.527 -3.51917 -0.763333 0
M  V30 4336 C 413.38 -4.4758 0.446371 0
M  V30 4337 C 414.699 -4.09742 -1.60623 0
M  V30 4338 H 411.818 -0.725277 -0.130929 0
M  V30 4339 H 414.46 -1.8653 0.361446 0
M  V30 4340 H 412.61 -3.63101 -1.38166 0
M  V30 4341 H 414.282 -4.48362 1.08487 0
M  V30 4342 H 412.525 -4.19947 1.08753 0
M  V30 4343 H 413.196 -5.51862 0.123645 0
M  V30 4344 H 415.672 -4.01727 -1.08418 0
M  V30 4345 H 414.548 -5.16631 -1.85429 0
M  V30 4346 H 414.809 -3.58889 -2.58169 0
M  V30 4347 N 413.868 0.0150385 -1.57593 0
M  V30 4348 C 414.778 1.02791 -2.10882 0
M  V30 4349 C 415.794 1.38702 -1.0506 0
M  V30 4350 O 416.97 1.47739 -1.36877 0
M  V30 4351 C 414.035 2.30568 -2.58919 0
M  V30 4352 C 413.096 2.01108 -3.79281 0
M  V30 4353 C 412.329 3.22794 -4.25018 0
M  V30 4354 O 412.552 4.33959 -3.70183 0
M  V30 4355 O 411.486 3.07672 -5.17322 0
M  V30 4356 H 415.312 0.604973 -2.97613 0
M  V30 4357 H 412.897 0.23292 -1.47573 0
M  V30 4358 H 414.779 3.05662 -2.90084 0
M  V30 4359 H 413.454 2.72129 -1.75293 0
M  V30 4360 H 412.361 1.23537 -3.53114 0
M  V30 4361 H 413.694 1.64394 -4.63935 0
M  V30 4362 N 415.346 1.54954 0.287554 0
M  V30 4363 C 416.256 1.8991 1.37736 0
M  V30 4364 C 417.272 0.794701 1.54792 0
M  V30 4365 O 418.448 1.09243 1.69198 0
M  V30 4366 C 415.513 2.15108 2.71899 0
M  V30 4367 C 414.574 3.38752 2.63715 0
M  V30 4368 C 413.807 3.62739 3.91479 0
M  V30 4369 O 414.03 2.89492 4.91478 0
M  V30 4370 O 412.964 4.56267 3.92561 0
M  V30 4371 H 416.79 2.82652 1.11092 0
M  V30 4372 H 414.375 1.41315 0.484807 0
M  V30 4373 H 416.257 2.32806 3.51254 0
M  V30 4374 H 414.932 1.25551 2.9836 0
M  V30 4375 H 413.839 3.26405 1.82786 0
M  V30 4376 H 415.172 4.28483 2.42205 0
M  V30 4377 N 416.824 -0.551391 1.4764 0
M  V30 4378 C 418.071 -1.3083 1.54563 0
M  V30 4379 C 418.399 -1.93359 0.210361 0
M  V30 4380 O 417.654 -1.78721 -0.797332 0
M  V30 4381 C 417.953 -2.43469 2.61644 0
M  V30 4382 C 417.619 -1.98732 4.04742 0
M  V30 4383 C 416.281 -1.86248 4.43695 0
M  V30 4384 C 418.633 -1.64659 4.94507 0
M  V30 4385 C 415.961 -1.37995 5.70241 0
M  V30 4386 C 418.313 -1.17875 6.21521 0
M  V30 4387 C 416.977 -1.03992 6.5935 0
M  V30 4388 H 416.247 -0.478741 0.565587 0
M  V30 4389 H 418.894 -0.617697 1.81264 0
M  V30 4390 H 417.199 -3.18109 2.28722 0
M  V30 4391 H 418.896 -3.01642 2.64222 0
M  V30 4392 H 415.486 -2.09393 3.73968 0
M  V30 4393 H 419.67 -1.73174 4.65107 0
M  V30 4394 H 414.926 -1.25915 5.98294 0
M  V30 4395 H 419.1 -0.905739 6.90485 0
M  V30 4396 H 416.727 -0.663794 7.57296 0
M  V30 4397 N 418.302 -1.35869 -0.798587 0
M  V30 4398 C 419.232 -1.32118 -1.92528 0
M  V30 4399 C 420.213 -0.194209 -1.68988 0
M  V30 4400 O 421.398 -0.390426 -1.90235 0
M  V30 4401 C 418.528 -1.10047 -3.29404 0
M  V30 4402 C 417.482 -2.19471 -3.67446 0
M  V30 4403 C 416.808 -1.82555 -5.02571 0
M  V30 4404 C 418.108 -3.61495 -3.76987 0
M  V30 4405 H 419.802 -2.26394 -1.95924 0
M  V30 4406 H 417.348 -1.08981 -0.94123 0
M  V30 4407 H 419.301 -1.06061 -4.07835 0
M  V30 4408 H 418.025 -0.122195 -3.26371 0
M  V30 4409 H 416.684 -2.22568 -2.91306 0
M  V30 4410 H 416.332 -0.833249 -4.9605 0
M  V30 4411 H 416.032 -2.5581 -5.28995 0
M  V30 4412 H 417.556 -1.80108 -5.83432 0
M  V30 4413 H 418.97 -3.60676 -4.4563 0
M  V30 4414 H 417.367 -4.33577 -4.14887 0
M  V30 4415 H 418.437 -3.97065 -2.78329 0
M  V30 4416 N 419.78 1.02168 -1.19998 0
M  V30 4417 C 420.727 2.10601 -0.944228 0
M  V30 4418 C 421.697 1.65639 0.123664 0
M  V30 4419 O 422.882 1.9079 -0.0199941 0
M  V30 4420 C 420.022 3.41504 -0.496865 0
M  V30 4421 C 419.135 3.99973 -1.63234 0
M  V30 4422 C 418.27 5.18915 -1.13579 0
M  V30 4423 C 417.309 5.69456 -2.24468 0
M  V30 4424 N 416.446 6.79665 -1.76068 0
M  V30 4425 H 421.286 2.31814 -1.8726 0
M  V30 4426 H 418.823 1.13686 -0.933483 0
M  V30 4427 H 420.781 4.16626 -0.218843 0
M  V30 4428 H 419.411 3.2038 0.394508 0
M  V30 4429 H 418.463 3.21997 -2.0254 0
M  V30 4430 H 419.775 4.33492 -2.46752 0
M  V30 4431 H 418.929 6.01222 -0.813429 0
M  V30 4432 H 417.668 4.8695 -0.270434 0
M  V30 4433 H 416.673 4.85757 -2.57526 0
M  V30 4434 H 417.898 6.03459 -3.11472 0
M  V30 4435 H 415.844 6.49538 -0.918516 0
M  V30 4436 H 415.761 7.12349 -2.5317 0
M  V30 4437 H 417.029 7.65549 -1.46817 0
M  V30 4438 N 421.258 1.00505 1.21394 0
M  V30 4439 C 422.168 0.574806 2.27449 0
M  V30 4440 C 423.184 -0.382206 1.6975 0
M  V30 4441 O 424.36 -0.246027 1.99892 0
M  V30 4442 C 421.425 -0.0917414 3.46579 0
M  V30 4443 C 420.486 0.909758 4.1955 0
M  V30 4444 C 419.719 0.274924 5.32991 0
M  V30 4445 O 419.942 -0.928254 5.62796 0
M  V30 4446 O 418.876 0.985877 5.93771 0
M  V30 4447 H 422.702 1.45744 2.66444 0
M  V30 4448 H 420.287 0.773923 1.27792 0
M  V30 4449 H 422.169 -0.464551 4.18832 0
M  V30 4450 H 420.844 -0.948755 3.09484 0
M  V30 4451 H 419.751 1.33372 3.49518 0
M  V30 4452 H 421.084 1.73636 4.60555 0
M  V30 4453 N 422.737 -1.36956 0.779787 0
M  V30 4454 C 423.7 -2.2851 0.177662 0
M  V30 4455 C 424.7 -1.48393 -0.619377 0
M  V30 4456 O 425.89 -1.68505 -0.441785 0
M  V30 4457 C 423.022 -3.32428 -0.755279 0
M  V30 4458 H 424.215 -2.83269 0.984823 0
M  V30 4459 H 421.768 -1.46358 0.548544 0
M  V30 4460 H 422.503 -2.82808 -1.58714 0
M  V30 4461 H 422.288 -3.91659 -0.185817 0
M  V30 4462 H 423.778 -4.00824 -1.17174 0
M  V30 4463 N 424.215 -0.530993 -1.48385 0
M  V30 4464 C 425.178 0.220497 -2.28137 0
M  V30 4465 C 426.178 0.866851 -1.35434 0
M  V30 4466 O 427.368 0.726746 -1.58316 0
M  V30 4467 C 424.5 1.31921 -3.1434 0
M  V30 4468 H 425.693 -0.479714 -2.96038 0
M  V30 4469 H 423.246 -0.286968 -1.53643 0
M  V30 4470 H 423.981 2.05264 -2.51072 0
M  V30 4471 H 423.766 0.86085 -3.82533 0
M  V30 4472 H 425.256 1.84776 -3.74497 0
M  V30 4473 N 425.693 1.55336 -0.266172 0
M  V30 4474 C 426.939 1.99692 0.353681 0
M  V30 4475 C 427.272 1.1543 1.56172 0
M  V30 4476 O 426.547 0.222218 1.93226 0
M  V30 4477 C 426.83 3.52316 0.74466 0
M  V30 4478 C 426.683 4.47337 -0.470101 0
M  V30 4479 C 428.002 4.10588 1.58447 0
M  V30 4480 H 425.121 0.725961 0.12708 0
M  V30 4481 H 427.763 1.86336 -0.371333 0
M  V30 4482 H 425.913 3.63829 1.36239 0
M  V30 4483 H 427.585 4.4778 -1.10864 0
M  V30 4484 H 425.828 4.19364 -1.10978 0
M  V30 4485 H 426.499 5.51788 -0.15291 0
M  V30 4486 H 428.975 4.02297 1.06286 0
M  V30 4487 H 427.851 5.17607 1.82686 0
M  V30 4488 H 428.112 3.60253 2.56262 0
M  V30 4489 N 427.171 -0.0066808 1.57599 0
M  V30 4490 C 428.104 -1.03397 2.03431 0
M  V30 4491 C 429.082 -1.33872 0.922877 0
M  V30 4492 O 430.266 -1.4615 1.19048 0
M  V30 4493 C 427.393 -2.36325 2.42628 0
M  V30 4494 C 426.439 -2.21557 3.64438 0
M  V30 4495 S 427.272 -1.54789 5.12641 0
M  V30 4496 C 428.428 -2.8916 5.55101 0
M  V30 4497 H 428.661 -0.643687 2.90248 0
M  V30 4498 H 426.194 -0.217349 1.52863 0
M  V30 4499 H 428.152 -3.12759 2.65879 0
M  V30 4500 H 426.813 -2.72495 1.56222 0
M  V30 4501 H 426.006 -3.1974 3.89592 0
M  V30 4502 H 425.608 -1.53267 3.41153 0
M  V30 4503 H 427.9 -3.8547 5.57153 0
M  V30 4504 H 428.843 -2.68713 6.55133 0
M  V30 4505 H 429.251 -2.92762 4.82649 0
M  V30 4506 N 428.649 -1.55105 -0.279332 0
M  V30 4507 C 429.596 -1.8755 -1.34513 0
M  V30 4508 C 430.566 -0.726384 -1.49375 0
M  V30 4509 O 431.751 -0.977063 -1.63884 0
M  V30 4510 C 428.891 -2.14738 -2.70151 0
M  V30 4511 C 428.004 -3.42285 -2.63562 0
M  V30 4512 C 427.139 -3.59206 -3.91337 0
M  V30 4513 C 426.178 -4.80467 -3.79233 0
M  V30 4514 N 425.315 -4.94079 -4.98829 0
M  V30 4515 H 430.155 -2.78456 -1.06143 0
M  V30 4516 H 427.692 -1.37867 -0.512936 0
M  V30 4517 H 429.65 -2.28501 -3.49061 0
M  V30 4518 H 428.28 -1.27075 -2.96735 0
M  V30 4519 H 427.332 -3.37029 -1.76397 0
M  V30 4520 H 428.644 -4.31328 -2.50515 0
M  V30 4521 H 427.798 -3.72751 -4.78687 0
M  V30 4522 H 426.537 -2.68337 -4.07243 0
M  V30 4523 H 425.542 -4.66932 -2.90266 0
M  V30 4524 H 426.767 -5.72765 -3.64852 0
M  V30 4525 H 424.713 -4.06139 -5.15158 0
M  V30 4526 H 424.63 -5.77156 -4.8829 0
M  V30 4527 H 425.898 -5.12003 -5.8777 0
M  V30 4528 N 430.127 0.543554 -1.4793 0
M  V30 4529 C 431.037 1.67657 -1.64098 0
M  V30 4530 C 432.053 1.65934 -0.523622 0
M  V30 4531 O 433.229 1.85133 -0.792943 0
M  V30 4532 C 430.294 3.04146 -1.66421 0
M  V30 4533 C 429.355 3.16831 -2.89684 0
M  V30 4534 C 428.588 4.46809 -2.91886 0
M  V30 4535 O 428.811 5.33095 -2.02895 0
M  V30 4536 O 427.745 4.63573 -3.83906 0
M  V30 4537 H 431.571 1.56957 -2.59997 0
M  V30 4538 H 429.156 0.715116 -1.31173 0
M  V30 4539 H 431.038 3.85346 -1.70548 0
M  V30 4540 H 429.713 3.152 -0.736923 0
M  V30 4541 H 428.62 2.34977 -2.91095 0
M  V30 4542 H 429.953 3.10687 -3.81752 0
M  V30 4543 N 431.605 1.3629 0.791371 0
M  V30 4544 C 432.854 1.29742 1.54434 0
M  V30 4545 C 433.167 -0.121729 1.95221 0
M  V30 4546 O 434.373 -0.309579 2.69729 0
M  V30 4547 C 432.829 2.27623 2.78776 0
M  V30 4548 C 432.437 3.74963 2.45166 0
M  V30 4549 C 434.181 2.30047 3.56761 0
M  V30 4550 C 432.088 4.64626 3.65891 0
M  V30 4551 H 431.018 0.482113 0.579727 0
M  V30 4552 H 433.669 1.61642 0.868565 0
M  V30 4553 H 432.051 1.88714 3.48142 0
M  V30 4554 H 433.225 4.22596 1.83709 0
M  V30 4555 H 431.54 3.75295 1.80396 0
M  V30 4556 H 434.137 2.94247 4.46456 0
M  V30 4557 H 434.48 1.30846 3.95203 0
M  V30 4558 H 435.013 2.67563 2.94372 0
M  V30 4559 H 431.752 5.64883 3.32547 0
M  V30 4560 H 431.272 4.2171 4.26521 0
M  V30 4561 H 432.951 4.80801 4.32943 0
M  V30 4562 N 433.083 -1.0153 1.20538 0
M  V30 4563 C 434.03 -2.10098 0.955383 0
M  V30 4564 C 435 -1.65702 -0.114878 0
M  V30 4565 O 436.185 -1.90776 0.0301118 0
M  V30 4566 C 433.325 -3.41236 0.514969 0
M  V30 4567 C 432.438 -3.99102 1.65353 0
M  V30 4568 C 431.573 -5.18306 1.16329 0
M  V30 4569 C 430.612 -5.68258 2.27485 0
M  V30 4570 N 429.749 -6.78722 1.7967 0
M  V30 4571 H 434.589 -2.30818 1.88486 0
M  V30 4572 H 432.126 -1.13189 0.939499 0
M  V30 4573 H 434.084 -4.16504 0.240935 0
M  V30 4574 H 432.714 -3.20585 -0.377512 0
M  V30 4575 H 431.766 -3.20918 2.04245 0
M  V30 4576 H 433.078 -4.32177 2.49047 0
M  V30 4577 H 432.232 -6.00782 0.845302 0
M  V30 4578 H 430.971 -4.86799 0.296254 0
M  V30 4579 H 429.976 -4.84385 2.60099 0
M  V30 4580 H 431.201 -6.01798 3.14667 0
M  V30 4581 H 429.147 -6.49042 0.95295 0
M  V30 4582 H 429.064 -7.10996 2.56944 0
M  V30 4583 H 430.332 -7.64759 1.50875 0
M  V30 4584 N 434.561 -1.01147 -1.20859 0
M  V30 4585 C 435.511 -0.548247 -2.2131 0
M  V30 4586 C 436.495 0.393646 -1.5601 0
M  V30 4587 O 437.687 0.217445 -1.75659 0
M  V30 4588 C 434.816 0.117252 -3.431 0
M  V30 4589 C 433.902 -0.846043 -4.15575 0
M  V30 4590 N 434.293 -2.00149 -4.64515 0
M  V30 4591 C 432.591 -0.665783 -4.41003 0
M  V30 4592 C 433.292 -2.60764 -5.19978 0
M  V30 4593 N 432.268 -1.88868 -5.09735 0
M  V30 4594 H 436.07 -1.42921 -2.56809 0
M  V30 4595 H 433.584 -0.876142 -1.36739 0
M  V30 4596 H 435.581 0.46662 -4.1428 0
M  V30 4597 H 434.241 0.994115 -3.09107 0
M  V30 4598 H 435.252 -2.38162 -4.5989 0
M  V30 4599 H 431.929 0.163456 -4.1718 0
M  V30 4600 H 433.319 -3.58519 -5.68255 0
M  V30 4601 N 436.039 1.36541 -0.78704 0
M  V30 4602 C 437.45 1.81873 -0.421807 0
M  V30 4603 C 437.801 1.65487 1.05397 0
M  V30 4604 O 436.926 1.17448 1.81755 0
M  V30 4605 C 437.521 3.30192 -0.758841 0
M  V30 4606 C 436.08 3.73743 -0.446468 0
M  V30 4607 C 435.227 2.58844 -0.994728 0
M  V30 4608 H 438.178 1.24796 -0.98039 0
M  V30 4609 H 438.199 3.80468 -0.0490648 0
M  V30 4610 H 437.711 3.42087 -1.83299 0
M  V30 4611 H 435.812 3.6741 0.619739 0
M  V30 4612 H 435.925 4.69272 -0.965415 0
M  V30 4613 H 434.289 2.51245 -0.418087 0
M  V30 4614 H 435.072 2.73525 -2.07458 0
M  V30 4615 N 437.518 0.538854 1.48102 0
M  V30 4616 C 438.466 -0.232325 2.31437 0
M  V30 4617 C 439.46 -0.927004 1.41785 0
M  V30 4618 O 440.666 -0.850378 1.58646 0
M  V30 4619 H 437.041 -0.0937916 0.746128 0
M  V30 4620 H 439.012 0.489986 2.9435 0
M  V30 4621 C 437.761 -1.26074 3.24038 0
M  V30 4622 H 437.084 -0.735609 3.92974 0
M  V30 4623 H 438.524 -1.77157 3.85216 0
M  V30 4624 C 436.983 -2.29902 2.46265 0
M  V30 4625 O 437.513 -3.36502 2.19384 0
M  V30 4626 N 435.719 -2.03348 2.07601 0
M  V30 4627 H 435.266 -1.16675 2.29662 0
M  V30 4628 H 435.224 -2.73038 1.55877 0
M  V30 4629 N 438.996 -1.55193 0.274407 0
M  V30 4630 C 439.926 -2.25471 -0.607032 0
M  V30 4631 C 440.907 -1.24461 -1.15946 0
M  V30 4632 O 442.092 -1.53179 -1.19373 0
M  V30 4633 C 439.222 -2.97526 -1.79153 0
M  V30 4634 C 438.176 -4.05459 -1.37067 0
M  V30 4635 C 437.502 -4.65084 -2.6382 0
M  V30 4636 C 438.802 -5.19691 -0.521389 0
M  V30 4637 H 440.496 -2.99393 -0.0209343 0
M  V30 4638 H 438.042 -1.43997 -0.00862866 0
M  V30 4639 H 439.995 -3.45402 -2.41404 0
M  V30 4640 H 438.719 -2.21138 -2.40344 0
M  V30 4641 H 437.378 -3.58393 -0.771355 0
M  V30 4642 H 437.026 -3.85365 -3.23268 0
M  V30 4643 H 436.726 -5.37961 -2.36372 0
M  V30 4644 H 438.25 -5.15708 -3.26921 0
M  V30 4645 H 439.664 -5.63623 -1.04889 0
M  V30 4646 H 438.061 -5.99126 -0.341825 0
M  V30 4647 H 439.131 -4.82713 0.46 0
M  V30 4648 N 440.474 -0.00167713 -1.576 0
M  V30 4649 C 441.72 0.683832 -1.90923 0
M  V30 4650 C 442.053 1.7333 -0.875799 0
M  V30 4651 O 441.328 1.94215 0.10525 0
M  V30 4652 C 441.611 1.32543 -3.3482 0
M  V30 4653 C 441.464 0.287387 -4.48881 0
M  V30 4654 C 442.783 2.25114 -3.78169 0
M  V30 4655 H 439.902 0.247125 -0.694333 0
M  V30 4656 H 442.544 -0.0533149 -1.89925 0
M  V30 4657 H 440.694 1.95372 -3.35801 0
M  V30 4658 H 442.366 -0.341346 -4.60035 0
M  V30 4659 H 440.609 -0.39017 -4.32042 0
M  V30 4660 H 441.28 0.775393 -5.46527 0
M  V30 4661 H 443.756 1.723 -3.7875 0
M  V30 4662 H 442.632 2.66971 -4.79602 0
M  V30 4663 H 442.893 3.13092 -3.12131 0
M  V30 4664 N 441.952 1.55251 0.271103 0
M  V30 4665 C 442.884 1.84675 1.35749 0
M  V30 4666 C 443.897 0.731366 1.45447 0
M  V30 4667 O 445.086 1.00924 1.4723 0
M  V30 4668 C 442.186 1.99638 2.73857 0
M  V30 4669 C 441.359 3.30312 2.86727 0
M  V30 4670 C 440.418 3.35318 4.05522 0
M  V30 4671 O 439.444 4.08682 3.96191 0
M  V30 4672 N 440.646 2.62857 5.17577 0
M  V30 4673 H 443.411 2.78445 1.10853 0
M  V30 4674 H 440.972 1.55191 0.461218 0
M  V30 4675 H 442.964 2.00355 3.51625 0
M  V30 4676 H 441.534 1.12725 2.91568 0
M  V30 4677 H 440.754 3.42118 1.95829 0
M  V30 4678 H 442.042 4.16488 2.92258 0
M  V30 4679 H 441.44 2.02939 5.28046 0
M  V30 4680 H 439.997 2.69295 5.93568 0
M  V30 4681 N 443.43 -0.535701 1.48216 0
M  V30 4682 C 444.36 -1.65014 1.65204 0
M  V30 4683 C 445.341 -1.62554 0.501011 0
M  V30 4684 O 446.526 -1.7984 0.732886 0
M  V30 4685 C 443.656 -3.03616 1.68626 0
M  V30 4686 C 442.61 -3.20932 2.83172 0
M  V30 4687 C 441.936 -4.60537 2.71679 0
M  V30 4688 C 443.236 -3.04249 4.24535 0
M  V30 4689 H 444.93 -1.51053 2.58502 0
M  V30 4690 H 442.476 -0.725262 1.24402 0
M  V30 4691 H 444.429 -3.81446 1.79099 0
M  V30 4692 H 443.153 -3.18587 0.719026 0
M  V30 4693 H 441.812 -2.45517 2.72244 0
M  V30 4694 H 441.46 -4.72336 1.72937 0
M  V30 4695 H 441.16 -4.73069 3.48538 0
M  V30 4696 H 442.684 -5.40475 2.84112 0
M  V30 4697 H 444.098 -3.71877 4.36326 0
M  V30 4698 H 442.495 -3.28278 5.02348 0
M  V30 4699 H 443.565 -2.00739 4.41397 0
M  V30 4700 N 444.908 -1.36708 -0.784132 0
M  V30 4701 C 445.838 -1.34153 -1.91116 0
M  V30 4702 C 446.819 -0.212121 -1.68772 0
M  V30 4703 O 448.004 -0.410581 -1.8981 0
M  V30 4704 C 445.134 -1.13535 -3.28218 0
M  V30 4705 C 444.088 -2.23356 -3.65097 0
M  V30 4706 C 443.414 -1.87875 -5.00607 0
M  V30 4707 C 444.714 -3.65473 -3.73131 0
M  V30 4708 H 446.408 -2.28459 -1.93512 0
M  V30 4709 H 443.954 -1.09973 -0.929618 0
M  V30 4710 H 445.907 -1.10381 -4.06687 0
M  V30 4711 H 444.631 -0.156804 -3.26223 0
M  V30 4712 H 443.29 -2.25645 -2.88929 0
M  V30 4713 H 442.938 -0.885814 -4.95139 0
M  V30 4714 H 442.638 -2.61406 -5.26252 0
M  V30 4715 H 444.162 -1.86286 -5.81489 0
M  V30 4716 H 445.576 -3.65382 -4.41779 0
M  V30 4717 H 443.973 -4.37953 -4.10265 0
M  V30 4718 H 445.043 -3.99995 -2.74102 0
M  V30 4719 N 446.386 1.0089 -1.21074 0
M  V30 4720 C 447.634 1.74262 -1.02358 0
M  V30 4721 C 447.955 1.89869 0.444393 0
M  V30 4722 O 447.225 1.44677 1.32081 0
M  V30 4723 H 445.805 0.645615 -0.375754 0
M  V30 4724 H 448.467 1.21596 -1.52317 0
M  V30 4725 H 447.563 2.74328 -1.4883 0
M  V30 4726 N 447.864 1.01787 1.20321 0
M  V30 4727 C 449.11 0.708985 1.90003 0
M  V30 4728 C 449.443 -0.759572 1.78729 0
M  V30 4729 O 448.718 -1.55198 1.17234 0
M  V30 4730 C 449.001 1.1469 3.41348 0
M  V30 4731 C 448.854 2.67586 3.61549 0
M  V30 4732 C 450.173 0.71915 4.34185 0
M  V30 4733 H 447.292 0.259034 0.689978 0
M  V30 4734 H 449.934 1.26584 1.41692 0
M  V30 4735 H 448.084 0.673128 3.82624 0
M  V30 4736 H 449.756 3.22826 3.29517 0
M  V30 4737 H 447.999 3.085 3.04976 0
M  V30 4738 H 448.67 2.93281 4.67643 0
M  V30 4739 H 451.146 1.12647 4.00562 0
M  V30 4740 H 450.022 1.05358 5.38694 0
M  V30 4741 H 450.283 -0.379111 4.40472 0
M  V30 4742 N 449.342 -1.36122 0.79427 0
M  V30 4743 C 450.582 -2.00942 0.374376 0
M  V30 4744 C 450.946 -1.61666 -1.03577 0
M  V30 4745 O 452.147 -2.19113 -1.55701 0
M  V30 4746 C 450.418 -3.53323 0.538327 0
M  V30 4747 S 451.977 -4.38311 0.20703 0
M  V30 4748 H 448.795 -0.696515 0.142785 0
M  V30 4749 H 451.397 -1.65929 1.03382 0
M  V30 4750 H 450.101 -3.79395 1.56484 0
M  V30 4751 H 449.632 -3.93162 -0.136882 0
M  V30 4752 H 451.647 -4.8623 -0.989695 0
M  V30 4753 N 450.82 -0.546701 -1.47814 0
M  V30 4754 C 452.048 -0.0232857 -2.06887 0
M  V30 4755 C 452.463 1.26571 -1.4009 0
M  V30 4756 O 451.82 1.7569 -0.493906 0
M  V30 4757 C 451.871 0.186975 -3.61016 0
M  V30 4758 O 451.592 -1.05097 -4.25307 0
M  V30 4759 C 453.093 0.748872 -4.36929 0
M  V30 4760 H 450.313 -0.0410763 -0.669742 0
M  V30 4761 H 452.857 -0.757117 -1.89968 0
M  V30 4762 H 451.012 0.870903 -3.77484 0
M  V30 4763 H 451.426 -0.842121 -5.17695 0
M  V30 4764 H 452.9 0.845334 -5.45489 0
M  V30 4765 H 453.377 1.75772 -4.02493 0
M  V30 4766 H 453.983 0.100979 -4.2518 0
M  V30 4767 N 452.299 1.55045 -0.282633 0
M  V30 4768 C 453.715 1.59441 0.0712997 0
M  V30 4769 C 453.915 1.2998 1.53972 0
M  V30 4770 O 452.971 1.06431 2.28973 0
M  V30 4771 C 454.284 2.99097 -0.310104 0
M  V30 4772 C 455.832 3.1194 -0.257343 0
M  V30 4773 C 456.307 4.53875 -0.613297 0
M  V30 4774 N 457.798 4.5974 -0.565134 0
M  V30 4775 C 458.533 5.67603 -0.81326 0
M  V30 4776 N 458.029 6.83582 -1.1264 0
M  V30 4777 N 459.822 5.57187 -0.741553 0
M  V30 4778 H 451.973 1.72458 -1.23984 0
M  V30 4779 H 454.236 0.804549 -0.501403 0
M  V30 4780 H 453.942 3.25516 -1.33163 0
M  V30 4781 H 453.816 3.75616 0.345366 0
M  V30 4782 H 456.203 2.85281 0.754905 0
M  V30 4783 H 456.284 2.37618 -0.947178 0
M  V30 4784 H 455.928 4.81261 -1.62327 0
M  V30 4785 H 455.858 5.26508 0.09841 0
M  V30 4786 H 458.349 3.76427 -0.333294 0
M  V30 4787 H 458.662 7.6175 -1.30219 0
M  V30 4788 H 457.007 6.85179 -1.16425 0
M  V30 4789 H 460.198 4.65457 -0.496705 0
M  V30 4790 H 460.371 6.41171 -0.938306 0
M  V30 4791 N 453.777 0.010035 1.57597 0
M  V30 4792 C 454.687 -0.994226 2.12491 0
M  V30 4793 C 455.703 -1.37013 1.07254 0
M  V30 4794 O 456.879 -1.45542 1.3921 0
M  V30 4795 C 453.944 -2.2642 2.62555 0
M  V30 4796 C 453.005 -1.95049 3.82432 0
M  V30 4797 C 452.238 -3.15991 4.30099 0
M  V30 4798 O 452.461 -4.28015 3.7704 0
M  V30 4799 O 451.395 -2.99403 5.22151 0
M  V30 4800 H 455.221 -0.557549 2.98538 0
M  V30 4801 H 452.806 -0.209413 1.47925 0
M  V30 4802 H 454.688 -3.01009 2.9491 0
M  V30 4803 H 453.363 -2.69306 1.796 0
M  V30 4804 H 452.27 -1.17904 3.55034 0
M  V30 4805 H 453.603 -1.56992 4.66491 0
M  V30 4806 N 455.255 -1.55392 -0.262866 0
M  V30 4807 C 456.666 -1.67079 -0.833158 0
M  V30 4808 C 457.017 -0.604539 -1.86654 0
M  V30 4809 O 456.142 0.252138 -2.14926 0
M  V30 4810 C 456.737 -3.02891 -1.51797 0
M  V30 4811 C 455.296 -3.16571 -2.03617 0
M  V30 4812 C 454.443 -2.62909 -0.881701 0
M  V30 4813 H 457.394 -1.58652 -0.0389986 0
M  V30 4814 H 457.415 -2.96445 -2.38538 0
M  V30 4815 H 456.927 -3.80473 -0.765619 0
M  V30 4816 H 455.028 -2.43782 -2.81782 0
M  V30 4817 H 455.141 -4.23271 -2.24452 0
M  V30 4818 H 453.505 -2.20324 -1.27786 0
M  V30 4819 H 454.288 -3.43003 -0.14269 0
M  V30 4820 N 456.733 0.527833 -1.48498 0
M  V30 4821 C 458.144 1.10975 -1.50138 0
M  V30 4822 C 458.495 1.943 -0.272378 0
M  V30 4823 O 457.62 2.07319 0.620301 0
M  V30 4824 C 458.215 2.01927 -2.72049 0
M  V30 4825 C 456.774 2.55332 -2.76554 0
M  V30 4826 C 455.921 1.32341 -2.43683 0
M  V30 4827 H 458.872 0.312986 -1.55583 0
M  V30 4828 H 458.893 2.86244 -2.50689 0
M  V30 4829 H 458.405 1.41254 -3.61481 0
M  V30 4830 H 456.506 3.19721 -1.91336 0
M  V30 4831 H 456.619 2.94319 -3.78038 0
M  V30 4832 H 454.983 1.63989 -1.94884 0
M  V30 4833 H 455.766 0.734165 -3.35358 0
M  V30 4834 N 458.211 1.37122 0.776871 0
M  V30 4835 C 459.458 1.32047 1.53524 0
M  V30 4836 C 459.786 -0.0965631 1.9426 0
M  V30 4837 O 459.041 -1.06866 1.63945 0
M  V30 4838 C 459.34 2.20068 2.81611 0
M  V30 4839 C 459.006 3.68423 2.59953 0
M  V30 4840 C 457.668 4.08854 2.53755 0
M  V30 4841 C 460.02 4.62431 2.40431 0
M  V30 4842 C 457.348 5.41417 2.26018 0
M  V30 4843 C 459.7 5.95225 2.14219 0
M  V30 4844 C 458.364 6.34767 2.06462 0
M  V30 4845 H 457.634 0.483196 0.561785 0
M  V30 4846 H 460.281 1.69284 0.895268 0
M  V30 4847 H 458.586 1.75809 3.50141 0
M  V30 4848 H 460.283 2.13458 3.39465 0
M  V30 4849 H 456.873 3.36354 2.65638 0
M  V30 4850 H 461.057 4.32057 2.44213 0
M  V30 4851 H 456.313 5.71022 2.18504 0
M  V30 4852 H 460.487 6.67626 1.98112 0
M  V30 4853 H 458.114 7.37413 1.84733 0
M  V30 4854 N 459.689 -1.00246 1.21608 0
M  V30 4855 C 460.919 -1.77373 1.05935 0
M  V30 4856 C 461.327 -1.85059 -0.393686 0
M  V30 4857 O 460.67 -1.31289 -1.28487 0
M  V30 4858 C 460.732 -3.22705 1.58435 0
M  V30 4859 C 460.396 -3.38591 3.06929 0
M  V30 4860 C 461.393 -3.2667 4.04454 0
M  V30 4861 C 459.078 -3.6395 3.46187 0
M  V30 4862 C 461.072 -3.39877 5.39224 0
M  V30 4863 C 458.759 -3.768 4.81108 0
M  V30 4864 C 459.757 -3.6477 5.77436 0
M  V30 4865 O 459.445 -3.77206 7.09909 0
M  V30 4866 H 459.177 -0.56419 0.372378 0
M  V30 4867 H 461.731 -1.26971 1.61454 0
M  V30 4868 H 459.961 -3.74255 0.973147 0
M  V30 4869 H 461.65 -3.81515 1.38568 0
M  V30 4870 H 462.416 -3.06999 3.75468 0
M  V30 4871 H 458.295 -3.72395 2.71741 0
M  V30 4872 H 461.839 -3.30404 6.14393 0
M  V30 4873 H 457.736 -3.95975 5.09779 0
M  V30 4874 H 458.504 -3.94138 7.17355 0
M  V30 4875 N 461.167 -1.02423 -1.1978 0
M  V30 4876 C 462.416 -0.713265 -1.88667 0
M  V30 4877 C 462.729 0.7609 -1.80193 0
M  V30 4878 O 463.935 1.18473 -2.44288 0
M  V30 4879 C 462.391 -1.22545 -3.38394 0
M  V30 4880 C 461.999 -2.72706 -3.55437 0
M  V30 4881 C 463.743 -0.990257 -4.12788 0
M  V30 4882 C 461.65 -3.17367 -4.99031 0
M  V30 4883 H 460.58 -0.263105 -0.706606 0
M  V30 4884 H 463.231 -1.23792 -1.35454 0
M  V30 4885 H 461.613 -0.628732 -3.90977 0
M  V30 4886 H 462.787 -3.37993 -3.13205 0
M  V30 4887 H 461.102 -2.94453 -2.94425 0
M  V30 4888 H 463.699 -1.29926 -5.18675 0
M  V30 4889 H 464.042 0.0730761 -4.16236 0
M  V30 4890 H 464.575 -1.55074 -3.66329 0
M  V30 4891 H 461.314 -4.23009 -5.00743 0
M  V30 4892 H 460.834 -2.56805 -5.42044 0
M  V30 4893 H 462.513 -3.10441 -5.67658 0
M  V30 4894 N 462.645 1.35699 -0.801477 0
M  V30 4895 C 463.894 1.98165 -0.375979 0
M  V30 4896 C 464.207 1.64306 1.06127 0
M  V30 4897 O 465.413 2.20097 1.58964 0
M  V30 4898 C 463.869 3.54497 -0.621305 0
M  V30 4899 C 463.477 3.9727 -2.07076 0
M  V30 4900 C 465.221 4.23697 -0.26091 0
M  V30 4901 C 463.128 5.46427 -2.26211 0
M  V30 4902 H 462.058 0.741478 -0.136844 0
M  V30 4903 H 464.709 1.54834 -0.984814 0
M  V30 4904 H 463.091 3.95958 0.0574112 0
M  V30 4905 H 464.265 3.66974 -2.78687 0
M  V30 4906 H 462.58 3.40943 -2.39054 0
M  V30 4907 H 465.177 5.33334 -0.381994 0
M  V30 4908 H 465.52 4.0869 0.792344 0
M  V30 4909 H 466.053 3.87639 -0.893339 0
M  V30 4910 H 462.792 5.66396 -3.29963 0
M  V30 4911 H 462.312 5.78309 -1.59119 0
M  V30 4912 H 463.991 6.12819 -2.07513 0
M  V30 4913 N 464.123 0.554532 1.47522 0
M  V30 4914 C 465.351 0.034257 2.06872 0
M  V30 4915 C 465.766 -1.25826 1.40759 0
M  V30 4916 O 465.123 -1.75425 0.503217 0
M  V30 4917 C 465.174 -0.167827 3.6111 0
M  V30 4918 O 464.895 1.07351 4.24744 0
M  V30 4919 C 466.396 -0.72569 4.3732 0
M  V30 4920 H 463.616 0.0446275 0.669514 0
M  V30 4921 H 466.16 0.767181 1.89564 0
M  V30 4922 H 464.315 -0.850872 3.7794 0
M  V30 4923 H 464.729 0.869563 5.17242 0
M  V30 4924 H 466.203 -0.816394 5.45929 0
M  V30 4925 H 466.68 -1.73635 4.0342 0
M  V30 4926 H 467.286 -0.0784292 4.25228 0
M  V30 4927 N 465.601 -1.54893 0.290851 0
M  V30 4928 C 466.511 -2.26812 -0.59945 0
M  V30 4929 C 467.527 -1.29963 -1.15696 0
M  V30 4930 O 468.703 -1.62928 -1.18391 0
M  V30 4931 C 465.768 -2.98716 -1.75982 0
M  V30 4932 C 464.829 -4.1108 -1.2374 0
M  V30 4933 C 464.062 -4.79546 -2.34246 0
M  V30 4934 O 464.285 -4.47309 -3.53936 0
M  V30 4935 O 463.219 -5.67165 -2.01512 0
M  V30 4936 H 467.045 -3.03696 -0.0163561 0
M  V30 4937 H 464.63 -1.49289 0.0576755 0
M  V30 4938 H 466.512 -3.43851 -2.43607 0
M  V30 4939 H 465.187 -2.24737 -2.3297 0
M  V30 4940 H 464.094 -3.70367 -0.527163 0
M  V30 4941 H 465.427 -4.87007 -0.71307 0
M  V30 4942 N 467.08 -0.0183926 -1.57589 0
M  V30 4943 C 468.327 0.662562 -1.91354 0
M  V30 4944 C 468.655 1.72747 -0.893788 0
M  V30 4945 O 467.91 1.9545 0.0988509 0
M  V30 4946 C 468.209 1.32676 -3.31861 0
M  V30 4947 C 467.875 0.393267 -4.49182 0
M  V30 4948 C 466.537 0.136302 -4.81007 0
M  V30 4949 C 468.889 -0.248366 -5.20608 0
M  V30 4950 C 466.217 -0.770282 -5.81621 0
M  V30 4951 C 468.569 -1.14294 -6.22189 0
M  V30 4952 C 467.233 -1.4089 -6.52462 0
M  V30 4953 H 466.503 0.242448 -0.700214 0
M  V30 4954 H 469.15 -0.0778629 -1.91342 0
M  V30 4955 H 467.455 2.14168 -3.28084 0
M  V30 4956 H 469.152 1.86001 -3.55253 0
M  V30 4957 H 465.742 0.603723 -4.24327 0
M  V30 4958 H 469.926 -0.062883 -4.9626 0
M  V30 4959 H 465.182 -0.984154 -6.03427 0
M  V30 4960 H 469.356 -1.64637 -6.76659 0
M  V30 4961 H 466.983 -2.11306 -7.30242 0
M  V30 4962 N 468.558 1.5553 0.254621 0
M  V30 4963 C 469.491 1.84624 1.34124 0
M  V30 4964 C 470.469 0.700693 1.46728 0
M  V30 4965 O 471.653 0.94564 1.63064 0
M  V30 4966 C 468.78 2.02412 2.71564 0
M  V30 4967 C 467.826 3.25028 2.7615 0
M  V30 4968 S 468.659 4.81893 2.33538 0
M  V30 4969 C 469.815 5.02677 3.72917 0
M  V30 4970 H 470.048 2.76501 1.09245 0
M  V30 4971 H 467.581 1.47537 0.455211 0
M  V30 4972 H 469.539 2.13345 3.50705 0
M  V30 4973 H 468.2 1.11391 2.93685 0
M  V30 4974 H 467.393 3.34418 3.77069 0
M  V30 4975 H 466.995 3.12781 2.05046 0
M  V30 4976 H 469.287 4.89546 4.68349 0
M  V30 4977 H 470.23 6.0468 3.68467 0
M  V30 4978 H 470.638 4.30561 3.65072 0
M  V30 4979 N 470.036 -0.519951 1.48776 0
M  V30 4980 C 471.264 -1.29971 1.60982 0
M  V30 4981 C 471.679 -1.86803 0.273885 0
M  V30 4982 O 471.036 -1.66904 -0.738193 0
M  V30 4983 C 471.087 -2.44346 2.66415 0
M  V30 4984 O 470.808 -1.89855 3.94825 0
M  V30 4985 C 472.309 -3.36014 2.89153 0
M  V30 4986 H 469.529 -0.394891 0.542496 0
M  V30 4987 H 472.073 -0.626214 1.94676 0
M  V30 4988 H 470.228 -3.07562 2.35552 0
M  V30 4989 H 470.642 -2.64798 4.5275 0
M  V30 4990 H 472.116 -4.12593 3.66703 0
M  V30 4991 H 472.593 -3.91859 1.98351 0
M  V30 4992 H 473.199 -2.78582 3.21359 0
M  V30 4993 N 471.514 -1.37532 -0.769588 0
M  V30 4994 C 472.744 -1.35861 -1.55645 0
M  V30 4995 C 473.152 0.0574398 -1.89113 0
M  V30 4996 O 472.495 1.03021 -1.52093 0
M  V30 4997 C 472.557 -2.13431 -2.89288 0
M  V30 4998 C 472.221 -3.62378 -2.78444 0
M  V30 4999 C 473.218 -4.56215 -2.49326 0
M  V30 5000 C 470.903 -4.05529 -2.96398 0
M  V30 5001 C 472.897 -5.91181 -2.38294 0
M  V30 5002 C 470.584 -5.40579 -2.84987 0
M  V30 5003 C 471.582 -6.33218 -2.55975 0
M  V30 5004 O 471.27 -7.65787 -2.44594 0
M  V30 5005 H 471.002 -0.467001 -0.48876 0
M  V30 5006 H 473.556 -1.81505 -0.961515 0
M  V30 5007 H 471.786 -1.62481 -3.50909 0
M  V30 5008 H 473.475 -2.04368 -3.50697 0
M  V30 5009 H 474.241 -4.24187 -2.35139 0
M  V30 5010 H 470.12 -3.33781 -3.1798 0
M  V30 5011 H 473.664 -6.63457 -2.15571 0
M  V30 5012 H 469.561 -5.72209 -2.98743 0
M  V30 5013 H 470.329 -7.76132 -2.59927 0
M  V30 5014 N 472.992 0.995999 -1.22138 0
M  V30 5015 C 474.24 1.73167 -1.042 0
M  V30 5016 C 474.561 1.90329 0.42423 0
M  V30 5017 O 473.831 1.4607 1.30539 0
M  V30 5018 H 472.411 0.641593 -0.38258 0
M  V30 5019 H 475.073 1.19974 -1.53598 0
M  V30 5020 H 474.169 2.72734 -1.51731 0
M  V30 5021 N 474.47 1.03057 1.19235 0
M  V30 5022 C 475.418 0.606391 2.24557 0
M  V30 5023 C 476.412 -0.361826 1.65491 0
M  V30 5024 O 477.618 -0.23022 1.78522 0
M  V30 5025 H 473.993 0.177838 0.730669 0
M  V30 5026 H 475.964 1.50529 2.5765 0
M  V30 5027 C 474.713 -0.0252127 3.47691 0
M  V30 5028 H 474.036 0.710838 3.9343 0
M  V30 5029 H 475.476 -0.284931 4.23042 0
M  V30 5030 C 473.935 -1.27229 3.11953 0
M  V30 5031 O 474.465 -2.36416 3.24762 0
M  V30 5032 N 472.671 -1.16169 2.6637 0
M  V30 5033 H 472.218 -0.273189 2.56147 0
M  V30 5034 H 472.176 -1.99703 2.42829 0
M  V30 5035 N 475.948 -1.35272 0.808662 0
M  V30 5036 C 476.878 -2.32315 0.234981 0
M  V30 5037 C 477.859 -1.57572 -0.64071 0
M  V30 5038 O 479.044 -1.8563 -0.570551 0
M  V30 5039 C 476.174 -3.41801 -0.615601 0
M  V30 5040 C 475.128 -4.27694 0.161767 0
M  V30 5041 C 474.454 -5.28519 -0.810649 0
M  V30 5042 C 475.754 -5.04231 1.36193 0
M  V30 5043 H 477.448 -2.80543 1.04575 0
M  V30 5044 H 474.994 -1.3488 0.504315 0
M  V30 5045 H 476.947 -4.08693 -1.02702 0
M  V30 5046 H 475.671 -2.92186 -1.45928 0
M  V30 5047 H 474.33 -3.62384 0.554382 0
M  V30 5048 H 473.978 -4.75171 -1.64988 0
M  V30 5049 H 473.678 -5.8686 -0.294822 0
M  V30 5050 H 475.202 -5.98283 -1.22023 0
M  V30 5051 H 476.616 -5.64058 1.02528 0
M  V30 5052 H 475.013 -5.72077 1.81239 0
M  V30 5053 H 476.083 -4.34753 2.14751 0
M  V30 5054 N 477.426 -0.562348 -1.47226 0
M  V30 5055 C 478.356 0.170627 -2.32876 0
M  V30 5056 C 479.337 0.903748 -1.44106 0
M  V30 5057 O 480.522 0.883206 -1.72954 0
M  V30 5058 C 477.652 1.19786 -3.25989 0
M  V30 5059 C 476.606 0.580875 -4.2404 0
M  V30 5060 C 475.932 1.71311 -5.06514 0
M  V30 5061 C 477.232 -0.468714 -5.20193 0
M  V30 5062 H 478.926 -0.544441 -2.94408 0
M  V30 5063 H 476.472 -0.263271 -1.41573 0
M  V30 5064 H 478.425 1.71884 -3.84752 0
M  V30 5065 H 477.149 1.94294 -2.62521 0
M  V30 5066 H 475.808 0.0811538 -3.6651 0
M  V30 5067 H 475.456 2.44736 -4.39447 0
M  V30 5068 H 475.156 1.30604 -5.72902 0
M  V30 5069 H 476.68 2.23725 -5.68137 0
M  V30 5070 H 478.094 -0.0336028 -5.7329 0
M  V30 5071 H 476.491 -0.794957 -5.94811 0
M  V30 5072 H 477.561 -1.36269 -4.65359 0
M  V30 5073 N 478.904 1.54736 -0.299062 0
M  V30 5074 C 480.181 1.92187 0.363802 0
M  V30 5075 C 480.561 1.22607 1.71845 0
M  V30 5076 O 479.909 0.361141 2.25628 0
M  V30 5077 C 480.119 3.45678 0.480377 0
M  V30 5078 C 481.467 4.17885 0.752147 0
M  V30 5079 O 482.491 3.51702 0.564264 0
M  V30 5080 O 481.35 5.35048 1.11294 0
M  V30 5081 H 478.444 0.801681 0.203066 0
M  V30 5082 H 480.99 1.66115 -0.346978 0
M  V30 5083 H 479.762 3.88443 -0.471999 0
M  V30 5084 H 479.385 3.77779 1.2397 0
M  V30 5085 N 480.382 0.0267497 1.57577 0
M  V30 5086 C 481.612 -0.6617 1.95717 0
M  V30 5087 C 482.02 -1.66331 0.901706 0
M  V30 5088 O 481.363 -1.83273 -0.125241 0
M  V30 5089 C 481.425 -1.42649 3.29987 0
M  V30 5090 C 481.089 -0.583482 4.5326 0
M  V30 5091 C 482.086 0.140221 5.19711 0
M  V30 5092 C 479.771 -0.521581 4.99585 0
M  V30 5093 C 481.765 0.914523 6.30805 0
M  V30 5094 C 479.452 0.256428 6.10562 0
M  V30 5095 C 480.45 0.973189 6.76031 0
M  V30 5096 O 480.138 1.73845 7.84878 0
M  V30 5097 H 479.87 -0.187483 0.649481 0
M  V30 5098 H 482.424 0.0820847 2.05236 0
M  V30 5099 H 480.654 -2.21536 3.16952 0
M  V30 5100 H 482.343 -2.00282 3.53047 0
M  V30 5101 H 483.109 0.101716 4.84893 0
M  V30 5102 H 478.988 -1.06904 4.48433 0
M  V30 5103 H 482.532 1.4745 6.81839 0
M  V30 5104 H 478.429 0.296657 6.44818 0
M  V30 5105 H 479.197 1.65797 8.01532 0
M  V30 5106 N 481.861 -1.55662 -0.24637 0
M  V30 5107 C 482.791 -1.93377 -1.30873 0
M  V30 5108 C 483.772 -0.798773 -1.50179 0
M  V30 5109 O 484.957 -1.0591 -1.62778 0
M  V30 5110 C 482.087 -2.22893 -2.66338 0
M  V30 5111 C 481.041 -3.38649 -2.61727 0
M  V30 5112 C 480.367 -3.53708 -4.00992 0
M  V30 5113 C 481.667 -4.74323 -2.18666 0
M  V30 5114 H 483.361 -2.82363 -0.995552 0
M  V30 5115 H 480.907 -1.35854 -0.477464 0
M  V30 5116 H 482.86 -2.47866 -3.40794 0
M  V30 5117 H 481.584 -1.30733 -2.99293 0
M  V30 5118 H 480.243 -3.13685 -1.89729 0
M  V30 5119 H 479.891 -2.58967 -4.31214 0
M  V30 5120 H 479.591 -4.31551 -3.98795 0
M  V30 5121 H 481.115 -3.81003 -4.77147 0
M  V30 5122 H 482.529 -4.98665 -2.82854 0
M  V30 5123 H 480.926 -5.55273 -2.27579 0
M  V30 5124 H 481.996 -4.71349 -1.13834 0
M  V30 5125 N 483.339 0.512053 -1.4905 0
M  V30 5126 C 484.755 0.84224 -1.35567 0
M  V30 5127 C 484.955 1.97878 -0.380319 0
M  V30 5128 O 484.011 2.51769 0.19201 0
M  V30 5129 C 485.324 1.19286 -2.76028 0
M  V30 5130 C 486.872 1.30171 -2.84648 0
M  V30 5131 C 487.347 1.68568 -4.25851 0
M  V30 5132 N 488.838 1.75638 -4.28609 0
M  V30 5133 C 489.573 2.06769 -5.34821 0
M  V30 5134 N 489.069 2.36201 -6.51292 0
M  V30 5135 N 490.862 2.07927 -5.22229 0
M  V30 5136 H 483.013 -0.237574 -2.11067 0
M  V30 5137 H 485.276 -0.0436747 -0.946993 0
M  V30 5138 H 484.982 0.431199 -3.49047 0
M  V30 5139 H 484.856 2.13889 -3.10695 0
M  V30 5140 H 487.243 2.05411 -2.11873 0
M  V30 5141 H 487.324 0.336457 -2.53578 0
M  V30 5142 H 486.968 0.938824 -4.99148 0
M  V30 5143 H 486.898 2.66174 -4.54377 0
M  V30 5144 H 489.389 1.55097 -3.44606 0
M  V30 5145 H 489.702 2.59112 -7.28066 0
M  V30 5146 H 488.047 2.33681 -6.54536 0
M  V30 5147 H 491.238 1.84403 -4.30248 0
M  V30 5148 H 491.411 2.31856 -6.05101 0
M  V30 5149 N 484.817 1.37938 0.762283 0
M  V30 5150 C 485.727 1.36681 1.90671 0
M  V30 5151 C 486.743 0.265078 1.71969 0
M  V30 5152 O 487.919 0.502055 1.95042 0
M  V30 5153 C 484.984 1.18211 3.25925 0
M  V30 5154 C 484.045 2.3811 3.57214 0
M  V30 5155 C 483.278 2.20512 4.86014 0
M  V30 5156 O 483.501 1.19429 5.57757 0
M  V30 5157 O 482.435 3.08911 5.16583 0
M  V30 5158 H 486.261 2.33091 1.94685 0
M  V30 5159 H 483.846 1.18767 0.906356 0
M  V30 5160 H 485.728 1.09937 4.06807 0
M  V30 5161 H 484.403 0.248807 3.22742 0
M  V30 5162 H 483.31 2.51958 2.76529 0
M  V30 5163 H 484.643 3.30041 3.65149 0
M  V30 5164 N 486.295 -0.989507 1.22664 0
M  V30 5165 C 487.535 -1.7447 1.06488 0
M  V30 5166 C 487.899 -1.8794 -0.392737 0
M  V30 5167 O 489.1 -2.60175 -0.675446 0
M  V30 5168 C 487.371 -3.11043 1.76031 0
M  V30 5169 S 488.93 -4.02258 1.7531 0
M  V30 5170 H 485.748 -0.600123 0.381278 0
M  V30 5171 H 488.35 -1.18283 1.55658 0
M  V30 5172 H 487.054 -2.98884 2.81241 0
M  V30 5173 H 486.585 -3.72301 1.27105 0
M  V30 5174 H 488.6 -4.89623 0.805208 0
M  V30 5175 N 487.773 -1.03688 -1.18687 0
M  V30 5176 C 488.721 -0.618292 -2.24232 0
M  V30 5177 C 489.715 0.353045 -1.6568 0
M  V30 5178 O 490.921 0.220749 -1.78641 0
M  V30 5179 H 487.296 -0.181711 -0.729716 0
M  V30 5180 H 489.267 -1.51893 -2.56848 0
M  V30 5181 C 488.016 0.00677342 -3.47699 0
M  V30 5182 H 487.339 -0.731692 -3.93047 0
M  V30 5183 H 488.779 0.262492 -4.23187 0
M  V30 5184 C 487.238 1.25572 -3.12623 0
M  V30 5185 O 487.768 2.34691 -3.26011 0
M  V30 5186 N 485.974 1.14755 -2.66982 0
M  V30 5187 H 485.521 0.259601 -2.56289 0
M  V30 5188 H 485.479 1.98412 -2.43885 0
M  V30 5189 N 489.251 1.34841 -0.815825 0
M  V30 5190 C 490.667 1.51543 -0.500697 0
M  V30 5191 C 490.867 1.76261 0.976444 0
M  V30 5192 O 489.923 1.8094 1.76117 0
M  V30 5193 C 491.236 2.68487 -1.35407 0
M  V30 5194 C 492.784 2.82368 -1.35046 0
M  V30 5195 C 493.259 4.02347 -2.18816 0
M  V30 5196 N 494.75 4.09542 -2.16402 0
M  V30 5197 C 495.485 5.01517 -2.77971 0
M  V30 5198 N 494.981 5.98763 -3.48503 0
M  V30 5199 N 496.774 4.94334 -2.67563 0
M  V30 5200 H 488.925 1.17055 -1.77234 0
M  V30 5201 H 491.188 0.573481 -0.754866 0
M  V30 5202 H 490.894 2.56829 -2.40274 0
M  V30 5203 H 490.768 3.63321 -1.01377 0
M  V30 5204 H 493.155 2.93471 -0.309604 0
M  V30 5205 H 493.236 1.88363 -1.73069 0
M  V30 5206 H 492.88 3.92004 -3.22948 0
M  V30 5207 H 492.81 4.95551 -1.78148 0
M  V30 5208 H 495.301 3.39932 -1.65091 0
M  V30 5209 H 495.614 6.6556 -3.92747 0
M  V30 5210 H 493.959 5.98909 -3.52609 0
M  V30 5211 H 497.15 4.1732 -2.12041 0
M  V30 5212 H 497.323 5.6582 -3.15834 0
M  V30 5213 N 490.729 0.570148 1.46925 0
M  V30 5214 C 491.661 -0.207909 2.28255 0
M  V30 5215 C 492.674 -0.867301 1.37774 0
M  V30 5216 O 493.863 -0.738976 1.62485 0
M  V30 5217 C 490.963 -1.31298 3.12433 0
M  V30 5218 C 490.136 -0.747915 4.30958 0
M  V30 5219 C 489.195 -1.7391 4.9663 0
M  V30 5220 O 488.221 -1.2801 5.54619 0
M  V30 5221 N 489.423 -3.07288 4.92498 0
M  V30 5222 H 492.188 0.489794 2.95671 0
M  V30 5223 H 489.749 0.407076 1.56699 0
M  V30 5224 H 491.741 -1.97507 3.53232 0
M  V30 5225 H 490.311 -1.91373 2.47175 0
M  V30 5226 H 489.531 0.0913066 3.94094 0
M  V30 5227 H 490.819 -0.349958 5.07595 0
M  V30 5228 H 490.217 -3.47213 4.46609 0
M  V30 5229 H 488.774 -3.69021 5.37277 0
M  V30 5230 N 492.207 -1.54576 0.307264 0
M  V30 5231 C 493.117 -2.27435 -0.57536 0
M  V30 5232 C 494.133 -1.31183 -1.14311 0
M  V30 5233 O 495.309 -1.64175 -1.16656 0
M  V30 5234 C 492.374 -3.00566 -1.72803 0
M  V30 5235 C 491.435 -4.12369 -1.19373 0
M  V30 5236 C 490.668 -4.82003 -2.29147 0
M  V30 5237 O 490.891 -4.51038 -3.49171 0
M  V30 5238 O 489.825 -5.69271 -1.95485 0
M  V30 5239 H 493.651 -3.03696 0.0158558 0
M  V30 5240 H 491.236 -1.49219 0.0735064 0
M  V30 5241 H 493.118 -3.46416 -2.39946 0
M  V30 5242 H 491.793 -2.27195 -2.30574 0
M  V30 5243 H 490.7 -3.70905 -0.487851 0
M  V30 5244 H 492.033 -4.87736 -0.661376 0
M  V30 5245 N 493.685 -0.035106 -1.57561 0
M  V30 5246 C 494.931 0.64318 -1.92331 0
M  V30 5247 C 495.264 1.71434 -0.912368 0
M  V30 5248 O 494.539 1.94395 0.0640303 0
M  V30 5249 C 494.822 1.25411 -3.37556 0
M  V30 5250 C 494.675 0.192109 -4.4939 0
M  V30 5251 C 495.994 2.17041 -3.82859 0
M  V30 5252 H 493.113 0.232341 -0.699419 0
M  V30 5253 H 495.755 -0.0935889 -1.89769 0
M  V30 5254 H 493.905 1.88205 -3.39869 0
M  V30 5255 H 495.577 -0.438849 -4.59208 0
M  V30 5256 H 493.82 -0.481725 -4.31117 0
M  V30 5257 H 494.491 0.659292 -5.48049 0
M  V30 5258 H 496.967 1.64228 -3.8232 0
M  V30 5259 H 495.843 2.56738 -4.85157 0
M  V30 5260 H 496.104 3.06401 -3.18702 0
M  V30 5261 N 495.163 1.55791 0.238111 0
M  V30 5262 C 496.111 1.91885 1.31464 0
M  V30 5263 C 497.105 0.798929 1.49377 0
M  V30 5264 O 498.311 0.983626 1.50747 0
M  V30 5265 H 494.686 0.609551 0.440399 0
M  V30 5266 H 496.657 2.81747 0.982925 0
M  V30 5267 C 495.406 2.23763 2.6613 0
M  V30 5268 H 494.729 3.09444 2.53149 0
M  V30 5269 H 496.169 2.52915 3.40309 0
M  V30 5270 C 494.628 1.05699 3.1989 0
M  V30 5271 O 495.158 0.309524 4.00506 0
M  V30 5272 N 493.364 0.845251 2.78036 0
M  V30 5273 H 492.911 1.4548 2.12588 0
M  V30 5274 H 492.869 0.0569973 3.14348 0
M  V30 5275 N 496.642 -0.504142 1.49319 0
M  V30 5276 C 497.605 -1.5883 1.65244 0
M  V30 5277 C 498.605 -1.52009 0.524386 0
M  V30 5278 O 499.795 -1.55218 0.79077 0
M  V30 5279 C 496.927 -2.98481 1.64687 0
M  V30 5280 H 498.12 -1.4604 2.61939 0
M  V30 5281 H 495.673 -0.728144 1.38303 0
M  V30 5282 H 496.408 -3.16751 0.695644 0
M  V30 5283 H 496.193 -3.0484 2.46607 0
M  V30 5284 H 497.683 -3.77256 1.79075 0
M  V30 5285 N 498.12 -1.38341 -0.754957 0
M  V30 5286 C 499.366 -1.34672 -1.51628 0
M  V30 5287 C 499.699 0.0636036 -1.94096 0
M  V30 5288 O 498.974 1.0245 -1.6533 0
M  V30 5289 C 499.257 -2.30116 -2.76981 0
M  V30 5290 C 499.11 -3.80003 -2.4066 0
M  V30 5291 C 500.429 -2.23715 -3.78998 0
M  V30 5292 H 497.548 -0.490517 -0.550056 0
M  V30 5293 H 500.19 -1.69178 -0.864807 0
M  V30 5294 H 498.34 -2.00821 -3.3257 0
M  V30 5295 H 500.012 -4.19966 -1.90856 0
M  V30 5296 H 498.255 -3.97751 -1.73137 0
M  V30 5297 H 498.926 -4.42244 -3.30339 0
M  V30 5298 H 501.402 -2.49574 -3.32945 0
M  V30 5299 H 500.278 -2.9261 -4.64403 0
M  V30 5300 H 500.539 -1.23554 -4.24484 0
M  V30 5301 N 499.598 0.982988 -1.23187 0
M  V30 5302 C 500.844 1.72648 -1.06398 0
M  V30 5303 C 501.177 1.90066 0.398561 0
M  V30 5304 O 500.452 1.45105 1.29518 0
M  V30 5305 C 500.735 3.12627 -1.78707 0
M  V30 5306 C 500.588 3.02795 -3.32618 0
M  V30 5307 C 501.907 4.11997 -1.54747 0
M  V30 5308 H 499.026 0.626649 -0.387918 0
M  V30 5309 H 501.668 1.14455 -1.51658 0
M  V30 5310 H 499.818 3.62308 -1.40234 0
M  V30 5311 H 501.49 2.60659 -3.80598 0
M  V30 5312 H 499.733 2.39362 -3.61785 0
M  V30 5313 H 500.404 4.01893 -3.78399 0
M  V30 5314 H 502.88 3.71114 -1.88186 0
M  V30 5315 H 501.756 5.08037 -2.07821 0
M  V30 5316 H 502.017 4.39462 -0.482249 0
M  V30 5317 N 501.076 1.04316 1.18135 0
M  V30 5318 C 502.006 0.657299 2.24058 0
M  V30 5319 C 502.987 -0.340678 1.66654 0
M  V30 5320 O 504.172 -0.220223 1.92947 0
M  V30 5321 C 501.302 0.0220715 3.47293 0
M  V30 5322 C 500.256 0.943857 4.17463 0
M  V30 5323 C 499.582 0.172973 5.3442 0
M  V30 5324 C 500.882 2.26409 4.70677 0
M  V30 5325 H 502.576 1.5428 2.56589 0
M  V30 5326 H 500.122 0.743263 1.23335 0
M  V30 5327 H 502.075 -0.259607 4.206 0
M  V30 5328 H 500.799 -0.898323 3.14003 0
M  V30 5329 H 499.458 1.20996 3.46057 0
M  V30 5330 H 499.106 -0.749907 4.97379 0
M  V30 5331 H 498.806 0.787098 5.82304 0
M  V30 5332 H 500.33 -0.101628 6.10515 0
M  V30 5333 H 501.744 2.04294 5.35665 0
M  V30 5334 H 500.141 2.8314 5.29105 0
M  V30 5335 H 501.211 2.90883 3.87962 0
M  V30 5336 N 502.554 -1.34406 0.822964 0
M  V30 5337 C 503.484 -2.32052 0.259608 0
M  V30 5338 C 504.465 -1.58243 -0.623961 0
M  V30 5339 O 505.65 -1.86224 -0.55083 0
M  V30 5340 C 502.78 -3.42434 -0.579314 0
M  V30 5341 C 501.734 -4.27499 0.20712 0
M  V30 5342 C 501.06 -5.29349 -0.754547 0
M  V30 5343 C 502.36 -5.02758 1.41533 0
M  V30 5344 H 504.054 -2.79418 1.07545 0
M  V30 5345 H 501.6 -1.34338 0.518593 0
M  V30 5346 H 503.553 -4.0976 -0.983612 0
M  V30 5347 H 502.277 -2.93717 -1.4282 0
M  V30 5348 H 500.936 -3.61776 0.592787 0
M  V30 5349 H 500.584 -4.76895 -1.59939 0
M  V30 5350 H 500.284 -5.8714 -0.232561 0
M  V30 5351 H 501.808 -5.99544 -1.1567 0
M  V30 5352 H 503.222 -5.62938 1.08504 0
M  V30 5353 H 501.619 -5.70123 1.87296 0
M  V30 5354 H 502.689 -4.32451 2.1935 0
M  V30 5355 N 504.032 -0.577932 -1.46621 0
M  V30 5356 C 505.262 -0.0670668 -2.06491 0
M  V30 5357 C 505.67 1.24119 -1.42798 0
M  V30 5358 O 505.013 1.76016 -0.525759 0
M  V30 5359 C 505.075 0.177995 -3.59059 0
M  V30 5360 C 504.739 -1.04394 -4.44917 0
M  V30 5361 C 505.736 -1.95479 -4.81751 0
M  V30 5362 C 503.421 -1.26444 -4.86125 0
M  V30 5363 C 505.415 -3.06965 -5.58615 0
M  V30 5364 C 503.102 -2.38237 -5.62749 0
M  V30 5365 C 504.1 -3.28327 -5.98908 0
M  V30 5366 O 503.788 -4.38179 -6.73984 0
M  V30 5367 H 503.52 -0.0523159 -0.673973 0
M  V30 5368 H 506.074 -0.796966 -1.89308 0
M  V30 5369 H 504.304 0.962451 -3.74531 0
M  V30 5370 H 505.993 0.636782 -4.00874 0
M  V30 5371 H 506.759 -1.79657 -4.50498 0
M  V30 5372 H 502.638 -0.572316 -4.57434 0
M  V30 5373 H 506.182 -3.77309 -5.86757 0
M  V30 5374 H 502.079 -2.54023 -5.93416 0
M  V30 5375 H 502.847 -4.36486 -6.92403 0
M  V30 5376 N 505.51 1.54411 -0.315457 0
M  V30 5377 C 506.443 2.20265 0.596522 0
M  V30 5378 C 507.421 1.17693 1.12192 0
M  V30 5379 O 508.605 1.46397 1.18744 0
M  V30 5380 C 505.732 2.85794 1.81767 0
M  V30 5381 C 504.778 4.02017 1.42424 0
M  V30 5382 S 505.611 5.33452 0.467836 0
M  V30 5383 C 506.767 6.02471 1.69645 0
M  V30 5384 H 507 2.97277 0.0370896 0
M  V30 5385 H 504.533 1.54079 -0.0995562 0
M  V30 5386 H 506.491 3.24172 2.51839 0
M  V30 5387 H 505.152 2.08601 2.34828 0
M  V30 5388 H 504.345 4.46701 2.33396 0
M  V30 5389 H 503.947 3.65271 0.803311 0
M  V30 5390 H 506.239 6.24157 2.63504 0
M  V30 5391 H 507.182 6.96215 1.29192 0
M  V30 5392 H 507.59 5.32284 1.87974 0
M  V30 5393 N 506.988 0.0434614 1.5754 0
M  V30 5394 C 507.951 -0.918696 2.09982 0
M  V30 5395 C 508.951 -1.24488 1.01781 0
M  V30 5396 O 510.141 -1.18284 1.27885 0
M  V30 5397 C 507.273 -2.23093 2.57764 0
M  V30 5398 H 508.466 -0.464229 2.96285 0
M  V30 5399 H 506.019 -0.204818 1.54952 0
M  V30 5400 H 506.754 -2.73137 1.74832 0
M  V30 5401 H 506.539 -2.00724 3.36827 0
M  V30 5402 H 508.029 -2.92028 2.98512 0
M  V30 5403 N 508.466 -1.55915 -0.229846 0
M  V30 5404 C 509.694 -1.82617 -0.972562 0
M  V30 5405 C 510.109 -0.621488 -1.78278 0
M  V30 5406 O 509.466 0.409956 -1.77836 0
M  V30 5407 C 509.517 -3.0774 -1.89679 0
M  V30 5408 O 509.238 -4.23559 -1.11934 0
M  V30 5409 C 510.739 -3.47368 -2.75409 0
M  V30 5410 H 507.959 -0.60727 -0.285419 0
M  V30 5411 H 510.503 -2.02996 -0.247579 0
M  V30 5412 H 508.658 -2.89361 -2.57583 0
M  V30 5413 H 509.072 -4.94586 -1.74599 0
M  V30 5414 H 510.546 -4.37977 -3.35977 0
M  V30 5415 H 511.023 -2.68737 -3.47386 0
M  V30 5416 H 511.629 -3.68158 -2.12931 0
M  V30 5417 N 509.944 0.496216 -1.49584 0
M  V30 5418 C 510.876 1.61404 -1.62731 0
M  V30 5419 C 511.889 1.54613 -0.50978 0
M  V30 5420 O 513.078 1.60458 -0.782017 0
M  V30 5421 C 510.178 3.00212 -1.57245 0
M  V30 5422 C 509.351 3.32138 -2.84611 0
M  V30 5423 C 508.41 4.5038 -2.72112 0
M  V30 5424 O 507.436 4.51926 -3.46051 0
M  V30 5425 N 508.638 5.50575 -1.83977 0
M  V30 5426 H 511.403 1.50552 -2.59141 0
M  V30 5427 H 508.964 0.684182 -1.46733 0
M  V30 5428 H 510.956 3.77241 -1.4653 0
M  V30 5429 H 509.526 3.04964 -0.686729 0
M  V30 5430 H 508.746 2.4396 -3.09641 0
M  V30 5431 H 510.034 3.50268 -3.69039 0
M  V30 5432 H 509.432 5.52128 -1.23171 0
M  V30 5433 H 507.989 6.26687 -1.79182 0
M  V30 5434 N 511.423 1.38739 0.74761 0
M  V30 5435 C 512.672 1.3459 1.50228 0
M  V30 5436 C 512.985 -0.0595592 1.95509 0
M  V30 5437 O 514.191 -0.22361 2.70578 0
M  V30 5438 C 512.647 2.36377 2.71393 0
M  V30 5439 C 512.255 3.82573 2.33113 0
M  V30 5440 C 513.999 2.41281 3.49262 0
M  V30 5441 C 511.906 4.76032 3.50924 0
M  V30 5442 H 510.836 0.500312 0.564096 0
M  V30 5443 H 513.487 1.64324 0.8167 0
M  V30 5444 H 511.869 1.99694 3.41962 0
M  V30 5445 H 513.043 4.28227 1.70171 0
M  V30 5446 H 511.358 3.80844 1.68365 0
M  V30 5447 H 513.955 3.08301 4.36869 0
M  V30 5448 H 514.298 1.43353 3.9084 0
M  V30 5449 H 514.831 2.76793 2.85711 0
M  V30 5450 H 511.57 5.75177 3.14408 0
M  V30 5451 H 511.09 4.35066 4.12889 0
M  V30 5452 H 512.769 4.94331 4.17427 0
M  V30 5453 N 512.901 -0.976442 1.23707 0
M  V30 5454 C 514.126 -1.75875 1.09922 0
M  V30 5455 C 514.551 -1.84911 -0.34489 0
M  V30 5456 O 513.909 -1.31363 -1.24954 0
M  V30 5457 C 513.957 -3.16179 1.73388 0
M  V30 5458 O 513.061 -4.00124 0.99871 0
M  V30 5459 H 512.402 -0.540954 0.385052 0
M  V30 5460 H 514.932 -1.22546 1.6384 0
M  V30 5461 H 514.942 -3.66741 1.78788 0
M  V30 5462 H 513.617 -3.08917 2.78466 0
M  V30 5463 H 512.194 -3.58624 1.02193 0
M  V30 5464 N 514.379 -1.04941 -1.1758 0
M  V30 5465 C 515.604 -0.778253 -1.92245 0
M  V30 5466 C 516.029 0.659707 -1.76152 0
M  V30 5467 O 515.387 1.45803 -1.07755 0
M  V30 5468 C 515.435 -1.16051 -3.41416 0
M  V30 5469 O 514.539 -0.291153 -4.11371 0
M  V30 5470 H 513.88 -0.285619 -0.599431 0
M  V30 5471 H 516.41 -1.40159 -1.49052 0
M  V30 5472 H 516.42 -1.12619 -3.92149 0
M  V30 5473 H 515.095 -2.208 -3.52449 0
M  V30 5474 H 513.672 -0.385851 -3.70898 0
M  V30 5475 N 515.857 1.33968 -0.830081 0
M  V30 5476 C 516.82 2.27694 -0.26235 0
M  V30 5477 C 517.82 1.50589 0.563876 0
M  V30 5478 O 519.01 1.70028 0.378941 0
M  V30 5479 C 516.142 3.35002 0.63138 0
M  V30 5480 H 517.335 2.79419 -1.08928 0
M  V30 5481 H 514.888 1.44221 -0.602486 0
M  V30 5482 H 515.623 2.88504 1.48109 0
M  V30 5483 H 515.408 3.92079 0.0403276 0
M  V30 5484 H 516.898 4.04897 1.02217 0
M  V30 5485 N 517.335 0.585699 1.46312 0
M  V30 5486 C 518.268 -0.194257 2.27372 0
M  V30 5487 C 519.246 -0.894116 1.3581 0
M  V30 5488 O 520.43 -0.907402 1.65222 0
M  V30 5489 C 517.557 -1.27901 3.13622 0
M  V30 5490 C 516.603 -0.684666 4.20969 0
M  V30 5491 S 517.436 0.490745 5.33247 0
M  V30 5492 C 518.592 -0.595137 6.23064 0
M  V30 5493 H 518.825 0.493515 2.93175 0
M  V30 5494 H 516.358 0.372666 1.49835 0
M  V30 5495 H 518.316 -1.90008 3.63878 0
M  V30 5496 H 516.977 -1.93875 2.47126 0
M  V30 5497 H 516.17 -1.50015 4.81156 0
M  V30 5498 H 515.772 -0.139204 3.73741 0
M  V30 5499 H 518.064 -1.48002 6.61137 0
M  V30 5500 H 519.007 -0.0299446 7.08094 0
M  V30 5501 H 519.415 -0.900627 5.57269 0
M  V30 5502 N 518.813 -1.54241 0.323641 0
M  V30 5503 C 519.723 -2.28033 -0.551205 0
M  V30 5504 C 520.739 -1.32388 -1.12913 0
M  V30 5505 O 521.915 -1.65403 -1.14908 0
M  V30 5506 C 518.98 -3.02382 -1.69606 0
M  V30 5507 C 518.041 -4.13612 -1.14993 0
M  V30 5508 C 517.274 -4.84407 -2.24022 0
M  V30 5509 O 517.497 -4.54716 -3.44368 0
M  V30 5510 O 516.431 -5.71312 -1.89436 0
M  V30 5511 H 520.257 -3.03662 0.048066 0
M  V30 5512 H 517.842 -1.49133 0.0893289 0
M  V30 5513 H 519.724 -3.48941 -2.36259 0
M  V30 5514 H 518.399 -2.29628 -2.28151 0
M  V30 5515 H 517.306 -3.71402 -0.448484 0
M  V30 5516 H 518.639 -4.8841 -0.609608 0
M  V30 5517 N 520.291 -0.0518155 -1.57515 0
M  V30 5518 C 521.521 0.63048 -1.96745 0
M  V30 5519 C 521.929 1.64875 -0.928054 0
M  V30 5520 O 521.272 1.83449 0.0960678 0
M  V30 5521 C 521.334 1.37381 -3.32215 0
M  V30 5522 C 520.998 0.511298 -4.54131 0
M  V30 5523 C 521.995 -0.222884 -5.19422 0
M  V30 5524 C 519.68 0.442035 -5.00351 0
M  V30 5525 C 521.674 -1.01476 -6.2927 0
M  V30 5526 C 519.361 -0.35353 -6.10077 0
M  V30 5527 C 520.359 -1.08062 -6.74397 0
M  V30 5528 O 520.047 -1.8631 -7.82013 0
M  V30 5529 H 519.779 0.177126 -0.652382 0
M  V30 5530 H 522.333 -0.114726 -2.05079 0
M  V30 5531 H 520.563 2.16466 -3.20436 0
M  V30 5532 H 522.252 1.9464 -3.56188 0
M  V30 5533 H 523.018 -0.178846 -4.8467 0
M  V30 5534 H 518.897 0.997562 -4.50077 0
M  V30 5535 H 522.441 -1.58279 -6.79407 0
M  V30 5536 H 518.338 -0.399205 -6.44264 0
M  V30 5537 H 519.106 -1.78528 -7.98793 0
M  V30 5538 N 521.769 1.56035 0.221574 0
M  V30 5539 C 522.699 1.95434 1.2778 0
M  V30 5540 C 523.68 0.822564 1.48889 0
M  V30 5541 O 524.865 1.08486 1.61072 0
M  V30 5542 C 521.995 2.27102 2.62759 0
M  V30 5543 C 520.949 3.4277 2.56306 0
M  V30 5544 C 520.275 3.60043 3.95314 0
M  V30 5545 C 521.575 4.77742 2.11093 0
M  V30 5546 H 523.269 2.83912 0.950504 0
M  V30 5547 H 520.815 1.36596 0.455791 0
M  V30 5548 H 522.768 2.53256 3.36807 0
M  V30 5549 H 521.492 1.35478 2.97176 0
M  V30 5550 H 520.151 3.16664 1.84715 0
M  V30 5551 H 519.799 2.65794 4.27039 0
M  V30 5552 H 519.499 4.37841 3.91879 0
M  V30 5553 H 521.023 3.88545 4.71025 0
M  V30 5554 H 522.437 5.03102 2.74885 0
M  V30 5555 H 520.834 5.58823 2.18716 0
M  V30 5556 H 521.904 4.731 1.06321 0
M  V30 5557 N 523.247 -0.488276 1.49845 0
M  V30 5558 C 524.157 -1.61451 1.70207 0
M  V30 5559 C 525.173 -1.63877 0.584846 0
M  V30 5560 O 526.349 -1.82063 0.861107 0
M  V30 5561 C 523.414 -2.9776 1.77594 0
M  V30 5562 C 522.475 -3.05861 3.01243 0
M  V30 5563 C 521.708 -4.35668 3.08268 0
M  V30 5564 O 521.931 -5.25197 2.22541 0
M  V30 5565 O 520.865 -4.49005 4.00847 0
M  V30 5566 H 524.691 -1.47199 2.65643 0
M  V30 5567 H 522.276 -0.665939 1.33737 0
M  V30 5568 H 524.158 -3.7875 1.84732 0
M  V30 5569 H 522.833 -3.12248 0.8534 0
M  V30 5570 H 521.74 -2.24012 2.99616 0
M  V30 5571 H 523.073 -2.96304 3.9302 0
M  V30 5572 N 524.725 -1.39134 -0.740242 0
M  V30 5573 C 525.672 -1.37434 -1.8542 0
M  V30 5574 C 526.642 -0.234822 -1.64432 0
M  V30 5575 O 527.827 -0.429125 -1.85912 0
M  V30 5576 C 524.967 -1.21844 -3.22875 0
M  V30 5577 C 524.08 -2.45296 -3.55603 0
M  V30 5578 C 523.215 -2.22334 -4.82432 0
M  V30 5579 C 522.254 -3.41488 -5.07988 0
M  V30 5580 N 521.391 -3.17877 -6.26018 0
M  V30 5581 H 526.231 -2.3266 -1.86207 0
M  V30 5582 H 523.768 -1.15578 -0.909946 0
M  V30 5583 H 525.726 -1.10818 -4.02213 0
M  V30 5584 H 524.356 -0.3025 -3.21379 0
M  V30 5585 H 523.408 -2.66945 -2.71006 0
M  V30 5586 H 524.72 -3.34063 -3.7041 0
M  V30 5587 H 523.874 -2.0852 -5.69741 0
M  V30 5588 H 522.613 -1.30954 -4.6979 0
M  V30 5589 H 521.618 -3.55807 -4.19144 0
M  V30 5590 H 522.843 -4.33763 -5.22519 0
M  V30 5591 H 520.789 -2.29156 -6.14673 0
M  V30 5592 H 520.706 -4.00198 -6.41387 0
M  V30 5593 H 521.974 -3.07746 -7.16179 0
M  V30 5594 N 526.204 0.969867 -1.24223 0
M  V30 5595 C 527.151 2.06407 -1.0327 0
M  V30 5596 C 528.121 1.66014 0.0533 0
M  V30 5597 O 529.306 1.90533 -0.100896 0
M  V30 5598 C 526.446 3.3909 -0.641262 0
M  V30 5599 C 525.559 3.9269 -1.80051 0
M  V30 5600 C 524.694 5.13631 -1.35486 0
M  V30 5601 C 523.733 5.59423 -2.48419 0
M  V30 5602 N 522.87 6.71586 -2.04737 0
M  V30 5603 H 527.71 2.23663 -1.96923 0
M  V30 5604 H 525.247 1.09624 -0.980862 0
M  V30 5605 H 527.205 4.15323 -0.395351 0
M  V30 5606 H 525.835 3.21765 0.258269 0
M  V30 5607 H 524.887 3.13116 -2.16014 0
M  V30 5608 H 526.199 4.22636 -2.64916 0
M  V30 5609 H 525.353 5.97231 -1.0677 0
M  V30 5610 H 524.092 4.85364 -0.476722 0
M  V30 5611 H 523.097 4.74398 -2.77897 0
M  V30 5612 H 524.322 5.89705 -3.36786 0
M  V30 5613 H 522.268 6.45058 -1.19318 0
M  V30 5614 H 522.185 7.0097 -2.83156 0
M  V30 5615 H 523.453 7.58633 -1.79154 0
M  V30 5616 N 527.682 1.05563 1.17022 0
M  V30 5617 C 528.63 0.653887 2.2322 0
M  V30 5618 C 529.624 -0.326642 1.66221 0
M  V30 5619 O 530.83 -0.192301 1.7897 0
M  V30 5620 H 527.205 0.193297 0.726733 0
M  V30 5621 H 529.176 1.5596 2.54399 0
M  V30 5622 C 527.925 0.0485434 3.47666 0
M  V30 5623 H 527.248 0.79413 3.91834 0
M  V30 5624 H 528.688 -0.195133 4.23551 0
M  V30 5625 C 527.147 -1.20583 3.14581 0
M  V30 5626 O 527.677 -2.29475 3.29703 0
M  V30 5627 N 525.883 -1.10493 2.68774 0
M  V30 5628 H 525.43 -0.218795 2.56669 0
M  V30 5629 H 525.388 -1.94507 2.47011 0
M  V30 5630 N 529.16 -1.33526 0.837174 0
M  V30 5631 C 530.407 -1.97837 0.432064 0
M  V30 5632 C 530.735 -1.66324 -1.00829 0
M  V30 5633 O 529.99 -0.93448 -1.71948 0
M  V30 5634 C 530.289 -3.52367 0.597675 0
M  V30 5635 C 529.955 -4.03826 2.00587 0
M  V30 5636 C 528.617 -4.1759 2.39106 0
M  V30 5637 C 530.969 -4.31333 2.92576 0
M  V30 5638 C 528.297 -4.56195 3.68921 0
M  V30 5639 C 530.649 -4.7139 4.2187 0
M  V30 5640 C 529.313 -4.8336 4.60347 0
M  V30 5641 H 528.583 -0.723937 0.158104 0
M  V30 5642 H 531.23 -1.5923 1.06387 0
M  V30 5643 H 529.535 -3.91624 -0.117452 0
M  V30 5644 H 531.232 -4.00126 0.26454 0
M  V30 5645 H 527.822 -3.93586 1.69671 0
M  V30 5646 H 532.006 -4.20224 2.64056 0
M  V30 5647 H 527.262 -4.63655 3.9854 0
M  V30 5648 H 531.436 -4.91631 4.93226 0
M  V30 5649 H 529.063 -5.1303 5.60985 0
M  V30 5650 N 530.638 -0.59345 -1.46 0
M  V30 5651 C 531.887 -0.0808084 -2.01538 0
M  V30 5652 C 532.2 1.29112 -1.46934 0
M  V30 5653 O 533.406 1.8957 -1.94359 0
M  V30 5654 C 531.862 -0.0938311 -3.59778 0
M  V30 5655 C 531.47 -1.46474 -4.23379 0
M  V30 5656 C 533.214 0.364306 -4.22934 0
M  V30 5657 C 531.121 -1.4349 -5.73729 0
M  V30 5658 H 530.051 -0.0264407 -0.753536 0
M  V30 5659 H 532.702 -0.746689 -1.67621 0
M  V30 5660 H 531.084 0.638427 -3.9082 0
M  V30 5661 H 532.258 -2.21758 -4.03931 0
M  V30 5662 H 530.573 -1.86379 -3.7236 0
M  V30 5663 H 533.17 0.405584 -5.3316 0
M  V30 5664 H 533.513 1.38409 -3.92618 0
M  V30 5665 H 534.046 -0.31423 -3.96557 0
M  V30 5666 H 530.785 -2.43184 -6.08722 0
M  V30 5667 H 530.305 -0.724431 -5.95409 0
M  V30 5668 H 531.984 -1.15243 -6.36654 0
M  V30 5669 N 532.116 1.54067 -0.331816 0
M  V30 5670 C 533.066 2.21363 0.546101 0
M  V30 5671 C 534.05 1.19698 1.07523 0
M  V30 5672 O 535.242 1.45293 1.01088 0
M  V30 5673 C 532.371 2.98115 1.70242 0
M  V30 5674 C 531.457 4.07127 1.18779 0
M  V30 5675 N 531.848 5.04267 0.393465 0
M  V30 5676 C 530.146 4.21226 1.46576 0
M  V30 5677 C 530.847 5.81585 0.115572 0
M  V30 5678 N 529.823 5.39022 0.703987 0
M  V30 5679 H 533.625 2.93821 -0.0679751 0
M  V30 5680 H 531.139 1.61812 -0.138085 0
M  V30 5681 H 533.136 3.44818 2.34321 0
M  V30 5682 H 531.796 2.27181 2.31989 0
M  V30 5683 H 532.807 5.17888 0.0355757 0
M  V30 5684 H 529.484 3.61509 2.08848 0
M  V30 5685 H 530.874 6.6985 -0.524426 0
M  V30 5686 N 533.594 0.0601682 1.57485 0
M  V30 5687 C 535.01 -0.296422 1.56823 0
M  V30 5688 C 535.21 -1.70831 1.0686 0
M  V30 5689 O 534.266 -2.4174 0.729245 0
M  V30 5690 C 535.579 -0.116681 3.00474 0
M  V30 5691 C 537.127 -0.187103 3.1244 0
M  V30 5692 C 537.602 -0.035783 4.57986 0
M  V30 5693 N 539.093 -0.0917676 4.63109 0
M  V30 5694 C 539.828 0.00107251 5.734 0
M  V30 5695 N 539.324 0.146773 6.92645 0
M  V30 5696 N 541.117 -0.0551577 5.62073 0
M  V30 5697 H 533.268 0.983055 1.88281 0
M  V30 5698 H 535.531 0.382386 0.867459 0
M  V30 5699 H 535.237 0.85712 3.41096 0
M  V30 5700 H 535.111 -0.873929 3.66936 0
M  V30 5701 H 537.498 -1.15138 2.71712 0
M  V30 5702 H 537.579 0.601052 2.48638 0
M  V30 5703 H 537.223 0.925212 4.99402 0
M  V30 5704 H 537.153 -0.843196 5.19806 0
M  V30 5705 H 539.644 -0.203261 3.77353 0
M  V30 5706 H 539.957 0.210076 7.72514 0
M  V30 5707 H 538.302 0.181979 6.94762 0
M  V30 5708 H 541.493 -0.167605 4.678 0
M  V30 5709 H 541.666 0.020652 6.47997 0
M  V30 5710 N 535.072 -1.5615 -0.213296 0
M  V30 5711 C 536.349 -1.70349 -0.961281 0
M  V30 5712 C 536.729 -0.609791 -2.02101 0
M  V30 5713 O 536.077 0.381987 -2.25285 0
M  V30 5714 C 536.287 -3.11982 -1.56424 0
M  V30 5715 C 537.635 -3.71649 -2.05334 0
M  V30 5716 O 538.659 -3.14995 -1.66302 0
M  V30 5717 O 537.518 -4.71038 -2.77102 0
M  V30 5718 H 534.612 -0.694121 -0.449582 0
M  V30 5719 H 537.158 -1.68464 -0.204426 0
M  V30 5720 H 535.93 -3.83046 -0.799457 0
M  V30 5721 H 535.553 -3.18019 -2.38641 0
M  V30 5722 N 536.55 0.480323 -1.50102 0
M  V30 5723 C 537.48 1.58769 -1.71215 0
M  V30 5724 C 538.461 1.60583 -0.560997 0
M  V30 5725 O 539.646 1.76996 -0.799127 0
M  V30 5726 C 536.776 2.97148 -1.79778 0
M  V30 5727 C 535.73 3.10201 -2.94888 0
M  V30 5728 C 535.056 4.50137 -2.88584 0
M  V30 5729 C 536.356 2.88283 -4.35534 0
M  V30 5730 H 538.05 1.41354 -2.6393 0
M  V30 5731 H 535.596 0.678591 -1.27008 0
M  V30 5732 H 537.549 3.74536 -1.93133 0
M  V30 5733 H 536.273 3.15699 -0.836772 0
M  V30 5734 H 534.932 2.35244 -2.81169 0
M  V30 5735 H 534.58 4.65593 -1.90349 0
M  V30 5736 H 534.28 4.59808 -3.65856 0
M  V30 5737 H 535.804 5.29558 -3.03976 0
M  V30 5738 H 537.218 3.55427 -4.49827 0
M  V30 5739 H 535.615 3.09408 -5.14186 0
M  V30 5740 H 536.685 1.84219 -4.48544 0
M  V30 5741 N 538.028 1.39524 0.732853 0
M  V30 5742 C 538.991 1.38189 1.82857 0
M  V30 5743 C 539.991 0.278624 1.58368 0
M  V30 5744 O 541.181 0.536639 1.65728 0
M  V30 5745 C 538.313 1.15661 3.2068 0
M  V30 5746 H 539.506 2.35692 1.85444 0
M  V30 5747 H 537.059 1.2512 0.936728 0
M  V30 5748 H 537.794 0.188482 3.23752 0
M  V30 5749 H 537.579 1.95559 3.39852 0
M  V30 5750 H 539.069 1.17472 4.00737 0
M  V30 5751 N 539.506 -0.963266 1.24736 0
M  V30 5752 C 540.469 -2.04013 1.04457 0
M  V30 5753 C 541.469 -1.608 0.000335555 0
M  V30 5754 O 542.659 -1.72515 0.241719 0
M  V30 5755 C 539.791 -3.35858 0.584162 0
M  V30 5756 H 540.984 -2.23436 2.00041 0
M  V30 5757 H 538.537 -1.13914 1.07021 0
M  V30 5758 H 539.272 -3.22128 -0.374673 0
M  V30 5759 H 539.057 -3.68568 1.3379 0
M  V30 5760 H 540.547 -4.1502 0.463451 0
M  V30 5761 N 540.985 -1.06182 -1.16461 0
M  V30 5762 C 542.401 -0.785065 -1.38956 0
M  V30 5763 C 542.601 0.616103 -1.9185 0
M  V30 5764 O 541.657 1.37686 -2.11657 0
M  V30 5765 C 542.97 -1.84902 -2.37132 0
M  V30 5766 C 544.518 -1.8724 -2.50819 0
M  V30 5767 C 544.993 -2.92686 -3.52277 0
M  V30 5768 N 546.484 -2.91712 -3.59803 0
M  V30 5769 C 547.219 -3.69949 -4.38093 0
M  V30 5770 N 546.715 -4.58 -5.19815 0
M  V30 5771 N 548.508 -3.58346 -4.33064 0
M  V30 5772 H 540.659 -1.96569 -0.804634 0
M  V30 5773 H 542.922 -0.851747 -0.416211 0
M  V30 5774 H 542.628 -2.85518 -2.0536 0
M  V30 5775 H 542.502 -1.69908 -3.36766 0
M  V30 5776 H 544.889 -0.872827 -2.81897 0
M  V30 5777 H 544.97 -2.06311 -1.51226 0
M  V30 5778 H 544.614 -3.92835 -3.21937 0
M  V30 5779 H 544.544 -2.70864 -4.51598 0
M  V30 5780 H 547.035 -2.27876 -3.01464 0
M  V30 5781 H 547.348 -5.14357 -5.76764 0
M  V30 5782 H 545.693 -4.62056 -5.19162 0
M  V30 5783 H 548.884 -2.88943 -3.68279 0
M  V30 5784 H 549.057 -4.19563 -4.93833 0
M  V30 5785 N 542.463 1.3308 -0.844243 0
M  V30 5786 C 543.411 2.31028 -0.269954 0
M  V30 5787 C 544.405 1.58381 0.600997 0
M  V30 5788 O 545.611 1.73203 0.48996 0
M  V30 5789 H 541.986 0.748866 -0.0685782 0
M  V30 5790 H 543.957 2.76967 -1.11049 0
M  V30 5791 C 542.706 3.43549 0.535676 0
M  V30 5792 H 542.029 3.99604 -0.125202 0
M  V30 5793 H 543.469 4.14267 0.903262 0
M  V30 5794 C 541.928 2.8988 1.71672 0
M  V30 5795 O 542.458 2.86511 2.81557 0
M  V30 5796 N 540.664 2.46416 1.54037 0
M  V30 5797 H 540.211 2.49356 0.64649 0
M  V30 5798 H 540.169 2.1086 2.33207 0
M  V30 5799 N 543.941 0.601185 1.45683 0
M  V30 5800 C 545.181 0.0968037 2.04171 0
M  V30 5801 C 545.545 -1.2466 1.46027 0
M  V30 5802 O 546.746 -1.84132 1.95829 0
M  V30 5803 C 545.017 0.051384 3.57363 0
M  V30 5804 S 546.576 -0.392737 4.37039 0
M  V30 5805 H 543.394 0.0464504 0.709481 0
M  V30 5806 H 545.996 0.797846 1.78479 0
M  V30 5807 H 544.7 1.03274 3.97193 0
M  V30 5808 H 544.231 -0.671853 3.87621 0
M  V30 5809 H 546.246 -1.64364 4.68187 0
M  V30 5810 N 545.419 -1.53889 0.339982 0
M  V30 5811 C 546.349 -2.27843 -0.510856 0
M  V30 5812 C 547.33 -1.29267 -1.10563 0
M  V30 5813 O 548.515 -1.58104 -1.12768 0
M  V30 5814 C 545.645 -3.04857 -1.66372 0
M  V30 5815 C 544.599 -4.10907 -1.19746 0
M  V30 5816 C 543.925 -4.75855 -2.43857 0
M  V30 5817 C 545.225 -5.21435 -0.300501 0
M  V30 5818 H 546.919 -2.99212 0.106067 0
M  V30 5819 H 544.465 -1.43904 0.0524533 0
M  V30 5820 H 546.418 -3.5533 -2.26537 0
M  V30 5821 H 545.142 -2.31133 -2.30749 0
M  V30 5822 H 543.801 -3.61342 -0.618654 0
M  V30 5823 H 543.449 -3.9873 -3.06633 0
M  V30 5824 H 543.149 -5.47502 -2.13343 0
M  V30 5825 H 544.673 -5.2911 -3.04754 0
M  V30 5826 H 546.087 -5.67565 -0.80889 0
M  V30 5827 H 544.484 -6.00036 -0.0874076 0
M  V30 5828 H 545.554 -4.80328 0.664321 0
M  V30 5829 N 546.897 -0.0685191 -1.57451 0
M  V30 5830 C 548.143 0.602239 -1.93652 0
M  V30 5831 C 548.476 1.6946 -0.948526 0
M  V30 5832 O 547.751 1.94487 0.022782 0
M  V30 5833 C 548.034 1.18223 -3.4014 0
M  V30 5834 C 547.887 0.0967431 -4.49696 0
M  V30 5835 C 549.206 2.08872 -3.87377 0
M  V30 5836 H 546.325 0.217453 -0.70419 0
M  V30 5837 H 548.967 -0.133821 -1.89528 0
M  V30 5838 H 547.117 1.80953 -3.43785 0
M  V30 5839 H 548.789 -0.536155 -4.58174 0
M  V30 5840 H 547.032 -0.573063 -4.29998 0
M  V30 5841 H 547.703 0.542894 -5.49324 0
M  V30 5842 H 550.179 1.56081 -3.85717 0
M  V30 5843 H 549.055 2.46389 -4.90493 0
M  V30 5844 H 549.316 2.99572 -3.25129 0
M  V30 5845 N 548.375 1.56261 0.205012 0
M  V30 5846 C 549.623 1.79684 0.925096 0
M  V30 5847 C 549.944 0.63989 1.84202 0
M  V30 5848 O 549.214 -0.342345 1.92885 0
M  V30 5849 H 547.794 0.662774 0.344587 0
M  V30 5850 H 550.456 1.93734 0.212899 0
M  V30 5851 H 549.552 2.72467 1.52211 0
M  V30 5852 N 549.853 -0.472356 1.50355 0
M  V30 5853 C 550.763 -1.59637 1.7191 0
M  V30 5854 C 551.779 -1.63247 0.602195 0
M  V30 5855 O 552.955 -1.81139 0.880369 0
M  V30 5856 C 550.02 -2.9586 1.80742 0
M  V30 5857 C 549.081 -3.02649 3.04471 0
M  V30 5858 C 548.314 -4.32374 3.12872 0
M  V30 5859 O 548.537 -5.22807 2.28099 0
M  V30 5860 O 547.471 -4.44728 4.05587 0
M  V30 5861 H 551.297 -1.44373 2.67189 0
M  V30 5862 H 548.882 -0.651717 1.34436 0
M  V30 5863 H 550.764 -3.7677 1.88739 0
M  V30 5864 H 549.439 -3.11325 0.88647 0
M  V30 5865 H 548.346 -2.20821 3.01975 0
M  V30 5866 H 549.679 -2.92119 3.9614 0
M  V30 5867 N 551.331 -1.39911 -0.725443 0
M  V30 5868 C 552.279 -1.39552 -1.86086 0
M  V30 5869 C 553.273 -0.277334 -1.67114 0
M  V30 5870 O 554.479 -0.447865 -1.74339 0
M  V30 5871 H 550.854 -0.435993 -0.612711 0
M  V30 5872 H 552.825 -2.35305 -1.83505 0
M  V30 5873 C 551.574 -1.26529 -3.2386 0
M  V30 5874 H 550.897 -2.11845 -3.3906 0
M  V30 5875 H 552.337 -1.30336 -4.03471 0
M  V30 5876 C 550.796 0.0254168 -3.3689 0
M  V30 5877 O 551.326 0.992048 -3.89257 0
M  V30 5878 N 549.532 0.0916528 -2.90455 0
M  V30 5879 H 549.079 -0.695675 -2.48028 0
M  V30 5880 H 549.037 0.954745 -2.99553 0
M  V30 5881 N 552.809 0.956637 -1.25245 0
M  V30 5882 C 553.759 2.03841 -1.02141 0
M  V30 5883 C 554.743 1.60848 0.0410058 0
M  V30 5884 O 555.935 1.76142 -0.174084 0
M  V30 5885 C 553.064 3.37282 -0.639963 0
M  V30 5886 C 552.15 3.86805 -1.73903 0
M  V30 5887 N 552.541 4.09143 -2.97381 0
M  V30 5888 C 550.839 4.15574 -1.61909 0
M  V30 5889 C 551.54 4.49923 -3.68707 0
M  V30 5890 N 550.516 4.55737 -2.96318 0
M  V30 5891 H 554.318 2.19102 -1.95886 0
M  V30 5892 H 551.832 1.1413 -1.15534 0
M  V30 5893 H 553.829 4.14403 -0.455643 0
M  V30 5894 H 552.489 3.23401 0.29018 0
M  V30 5895 H 553.5 3.96275 -3.33447 0
M  V30 5896 H 550.177 4.10566 -0.757764 0
M  V30 5897 H 551.567 4.75526 -4.74684 0
M  V30 5898 N 554.287 1.06798 1.15896 0
M  V30 5899 C 555.217 0.704677 2.22613 0
M  V30 5900 C 556.198 -0.305252 1.67339 0
M  V30 5901 O 557.383 -0.179247 1.93371 0
M  V30 5902 C 554.513 0.0957325 3.47168 0
M  V30 5903 C 553.467 1.0322 4.15367 0
M  V30 5904 C 552.793 0.286293 5.33933 0
M  V30 5905 C 554.093 2.36341 4.65768 0
M  V30 5906 H 555.787 1.59688 2.53259 0
M  V30 5907 H 553.333 0.769257 1.21731 0
M  V30 5908 H 555.286 -0.170333 4.21056 0
M  V30 5909 H 554.01 -0.831516 3.15838 0
M  V30 5910 H 552.669 1.28309 3.43413 0
M  V30 5911 H 552.317 -0.644237 4.98857 0
M  V30 5912 H 552.017 0.910436 5.80504 0
M  V30 5913 H 553.541 0.0278938 6.10594 0
M  V30 5914 H 554.955 2.1561 5.31211 0
M  V30 5915 H 553.352 2.94299 5.2298 0
M  V30 5916 H 554.422 2.99047 3.81705 0
M  V30 5917 N 555.766 -1.3263 0.851289 0
M  V30 5918 C 557.012 -1.9766 0.453694 0
M  V30 5919 C 557.345 -1.67225 -0.987396 0
M  V30 5920 O 556.62 -0.958693 -1.69232 0
M  V30 5921 C 556.903 -3.5344 0.68936 0
M  V30 5922 C 556.756 -3.93517 2.17862 0
M  V30 5923 C 558.075 -4.39866 0.143555 0
M  V30 5924 H 555.194 -0.717989 0.166314 0
M  V30 5925 H 557.836 -1.57068 1.06909 0
M  V30 5926 H 555.986 -3.88147 0.165546 0
M  V30 5927 H 557.658 -3.69006 2.76826 0
M  V30 5928 H 555.901 -3.42798 2.65841 0
M  V30 5929 H 556.572 -5.02065 2.29422 0
M  V30 5930 H 559.048 -4.11875 0.591451 0
M  V30 5931 H 557.924 -5.47858 0.338043 0
M  V30 5932 H 558.185 -4.31696 -0.953466 0
M  V30 5933 N 557.244 -0.608902 -1.45362 0
M  V30 5934 C 558.191 0.109172 -2.30542 0
M  V30 5935 C 559.161 0.858704 -1.42181 0
M  V30 5936 O 560.346 0.844178 -1.71109 0
M  V30 5937 C 557.486 1.09971 -3.27109 0
M  V30 5938 C 556.599 0.350911 -4.30572 0
M  V30 5939 C 555.734 1.33129 -5.14247 0
M  V30 5940 C 554.773 0.570377 -6.09437 0
M  V30 5941 N 553.91 1.5001 -6.85887 0
M  V30 5942 H 558.75 -0.623195 -2.91411 0
M  V30 5943 H 556.287 -0.319122 -1.43597 0
M  V30 5944 H 558.245 1.68714 -3.81564 0
M  V30 5945 H 556.875 1.79947 -2.67991 0
M  V30 5946 H 555.927 -0.352054 -3.78767 0
M  V30 5947 H 557.239 -0.242725 -4.98209 0
M  V30 5948 H 556.393 1.99074 -5.73109 0
M  V30 5949 H 555.132 1.95885 -4.46632 0
M  V30 5950 H 554.137 -0.102702 -5.49704 0
M  V30 5951 H 555.362 -0.0521607 -6.7908 0
M  V30 5952 H 553.308 2.11529 -6.2096 0
M  V30 5953 H 553.225 0.959934 -7.49881 0
M  V30 5954 H 554.493 2.14909 -7.49289 0
M  V30 5955 N 558.722 1.53707 -0.348139 0
M  V30 5956 C 559.968 2.01286 0.247332 0
M  V30 5957 C 560.301 1.23546 1.49834 0
M  V30 5958 O 559.576 0.324331 1.91777 0
M  V30 5959 C 559.859 3.55768 0.556858 0
M  V30 5960 C 559.712 4.44216 -0.706564 0
M  V30 5961 C 561.031 4.1841 1.3646 0
M  V30 5962 H 558.15 0.731677 0.0884201 0
M  V30 5963 H 560.792 1.84106 -0.469584 0
M  V30 5964 H 558.942 3.70539 1.16761 0
M  V30 5965 H 560.614 4.41274 -1.34444 0
M  V30 5966 H 558.857 4.12892 -1.33052 0
M  V30 5967 H 559.528 5.50202 -0.445186 0
M  V30 5968 H 562.004 4.07365 0.848113 0
M  V30 5969 H 560.88 5.26563 1.54992 0
M  V30 5970 H 561.141 3.7333 2.36805 0
M  V30 5971 N 560.2 0.0768682 1.57412 0
M  V30 5972 C 561.163 -0.873949 2.11884 0
M  V30 5973 C 562.163 -1.22301 1.04398 0
M  V30 5974 O 563.353 -1.15545 1.30365 0
M  V30 5975 C 560.485 -2.17575 2.62438 0
M  V30 5976 H 561.678 -0.401278 2.97203 0
M  V30 5977 H 559.231 -0.171904 1.55352 0
M  V30 5978 H 559.966 -2.69368 1.80587 0
M  V30 5979 H 559.751 -1.93534 3.41009 0
M  V30 5980 H 561.241 -2.85631 3.04639 0
M  V30 5981 N 561.678 -1.56367 -0.196722 0
M  V30 5982 C 562.955 -1.71359 -0.943159 0
M  V30 5983 C 563.335 -0.631192 -2.01443 0
M  V30 5984 O 562.683 0.358071 -2.25677 0
M  V30 5985 C 562.893 -3.13623 -1.53106 0
M  V30 5986 C 564.241 -3.73806 -2.01381 0
M  V30 5987 O 565.265 -3.16742 -1.62951 0
M  V30 5988 O 564.124 -4.73951 -2.7209 0
M  V30 5989 H 561.218 -0.698851 -0.442195 0
M  V30 5990 H 563.764 -1.68672 -0.186547 0
M  V30 5991 H 562.536 -3.83873 -0.758785 0
M  V30 5992 H 562.159 -3.20532 -2.35255 0
M  V30 5993 N 563.156 0.464375 -1.50603 0
M  V30 5994 C 564.403 1.21596 -1.61928 0
M  V30 5995 C 564.731 1.91804 -0.322737 0
M  V30 5996 O 563.986 1.83065 0.691776 0
M  V30 5997 C 564.285 2.278 -2.75394 0
M  V30 5998 C 563.951 1.74797 -4.1564 0
M  V30 5999 C 562.613 1.60063 -4.53799 0
M  V30 6000 C 564.965 1.35548 -5.03266 0
M  V30 6001 C 562.293 1.04514 -5.77316 0
M  V30 6002 C 564.645 0.814381 -6.27336 0
M  V30 6003 C 563.309 0.653726 -6.64291 0
M  V30 6004 H 562.579 0.444951 -0.592536 0
M  V30 6005 H 565.226 0.510964 -1.84557 0
M  V30 6006 H 563.531 3.04233 -2.46879 0
M  V30 6007 H 565.228 2.85723 -2.81359 0
M  V30 6008 H 561.818 1.87234 -3.8554 0
M  V30 6009 H 566.002 1.45763 -4.74412 0
M  V30 6010 H 561.258 0.908186 -6.04617 0
M  V30 6011 H 565.432 0.501626 -6.94591 0
M  V30 6012 H 563.059 0.22114 -7.59878 0
M  V30 6013 N 564.634 1.40294 0.718013 0
M  V30 6014 C 565.882 1.38167 1.47494 0
M  V30 6015 C 566.203 -0.01607 1.94993 0
M  V30 6016 O 565.473 -0.970396 1.70177 0
M  V30 6017 H 564.053 0.508505 0.547203 0
M  V30 6018 H 566.715 1.75324 0.851322 0
M  V30 6019 H 565.811 2.05503 2.34894 0
M  V30 6020 N 566.112 -0.949982 1.2575 0
M  V30 6021 C 567.042 -2.06483 1.09028 0
M  V30 6022 C 568.023 -1.701 -0.00201532 0
M  V30 6023 O 569.208 -1.93469 0.168383 0
M  V30 6024 C 566.338 -3.39899 0.71316 0
M  V30 6025 C 565.292 -3.90309 1.75621 0
M  V30 6026 C 564.618 -5.20274 1.23365 0
M  V30 6027 C 565.918 -4.16169 3.15596 0
M  V30 6028 H 567.612 -2.20731 2.02283 0
M  V30 6029 H 565.158 -1.06066 0.973964 0
M  V30 6030 H 567.111 -4.17346 0.58309 0
M  V30 6031 H 565.835 -3.25602 -0.255091 0
M  V30 6032 H 564.494 -3.15035 1.8748 0
M  V30 6033 H 564.142 -5.02351 0.255491 0
M  V30 6034 H 563.842 -5.54971 1.93082 0
M  V30 6035 H 565.366 -6.00314 1.11607 0
M  V30 6036 H 566.78 -4.84259 3.06864 0
M  V30 6037 H 565.177 -4.62131 3.82825 0
M  V30 6038 H 566.247 -3.22273 3.6231 0
M  V30 6039 N 567.59 -1.07411 -1.15328 0
M  V30 6040 C 568.815 -0.818856 -1.90551 0
M  V30 6041 C 569.24 0.622194 -1.77512 0
M  V30 6042 O 568.598 1.43484 -1.10824 0
M  V30 6043 C 568.646 -1.23267 -3.38877 0
M  V30 6044 O 567.75 -0.378345 -4.10661 0
M  V30 6045 H 567.091 -0.29827 -0.593238 0
M  V30 6046 H 569.621 -1.43289 -1.46046 0
M  V30 6047 H 569.631 -1.20912 -3.89672 0
M  V30 6048 H 568.306 -2.28226 -3.47686 0
M  V30 6049 H 566.883 -0.464437 -3.69996 0
M  V30 6050 N 569.068 1.32177 -0.85831 0
M  V30 6051 C 570.484 1.49873 -0.548656 0
M  V30 6052 C 570.684 1.79278 0.919874 0
M  V30 6053 O 569.74 1.86451 1.70271 0
M  V30 6054 C 571.053 2.64043 -1.4388 0
M  V30 6055 C 572.601 2.77928 -1.43961 0
M  V30 6056 C 573.076 3.95182 -2.31506 0
M  V30 6057 N 574.567 4.0245 -2.29321 0
M  V30 6058 C 575.302 4.9242 -2.93786 0
M  V30 6059 N 574.798 5.87373 -3.67376 0
M  V30 6060 N 576.591 4.85572 -2.83155 0
M  V30 6061 H 568.742 1.11357 -1.80868 0
M  V30 6062 H 571.005 0.549175 -0.772729 0
M  V30 6063 H 570.711 2.49055 -2.48324 0
M  V30 6064 H 570.585 3.59912 -1.12885 0
M  V30 6065 H 572.972 2.92338 -0.402813 0
M  V30 6066 H 573.053 1.82762 -1.78974 0
M  V30 6067 H 572.697 3.81531 -3.35256 0
M  V30 6068 H 572.627 4.89633 -1.93823 0
M  V30 6069 H 575.118 3.34507 -1.75822 0
M  V30 6070 H 575.431 6.52728 -4.13722 0
M  V30 6071 H 573.776 5.87388 -3.71484 0
M  V30 6072 H 576.967 4.10363 -2.25211 0
M  V30 6073 H 577.14 5.55486 -3.33676 0
M  V30 6074 N 570.547 0.616602 1.45037 0
M  V30 6075 C 571.477 -0.0840787 2.33349 0
M  V30 6076 C 572.458 -0.849641 1.4736 0
M  V30 6077 O 573.643 -0.818407 1.76113 0
M  V30 6078 C 570.773 -1.07604 3.3021 0
M  V30 6079 C 569.727 -0.423096 4.25904 0
M  V30 6080 C 569.053 -1.52394 5.12523 0
M  V30 6081 C 570.353 0.661457 5.18095 0
M  V30 6082 H 572.047 0.653333 2.92185 0
M  V30 6083 H 569.593 0.315634 1.40498 0
M  V30 6084 H 571.546 -1.57485 3.90866 0
M  V30 6085 H 570.27 -1.84416 2.69552 0
M  V30 6086 H 568.929 0.05493 3.66559 0
M  V30 6087 H 568.577 -2.28257 4.48227 0
M  V30 6088 H 568.277 -1.09251 5.77354 0
M  V30 6089 H 569.801 -2.02485 5.76049 0
M  V30 6090 H 571.215 0.246353 5.7277 0
M  V30 6091 H 569.612 1.01517 5.91451 0
M  V30 6092 H 570.682 1.53446 4.59981 0
M  V30 6093 N 572.025 -1.5352 0.356285 0
M  V30 6094 C 572.958 -2.2177 -0.537913 0
M  V30 6095 C 573.936 -1.20626 -1.09033 0
M  V30 6096 O 575.12 -1.49494 -1.1482 0
M  V30 6097 C 572.247 -2.90513 -1.74126 0
M  V30 6098 C 571.293 -4.05652 -1.31715 0
M  V30 6099 S 572.126 -5.34505 -0.326236 0
M  V30 6100 C 573.282 -6.06757 -1.53612 0
M  V30 6101 H 573.515 -2.97271 0.0417411 0
M  V30 6102 H 571.048 -1.53761 0.140372 0
M  V30 6103 H 573.006 -3.30735 -2.43155 0
M  V30 6104 H 571.667 -2.14754 -2.29215 0
M  V30 6105 H 570.86 -4.52733 -2.21471 0
M  V30 6106 H 570.462 -3.67272 -0.706183 0
M  V30 6107 H 572.754 -6.30924 -2.46863 0
M  V30 6108 H 573.697 -6.99395 -1.10687 0
M  V30 6109 H 574.105 -5.3708 -1.73796 0
M  V30 6110 N 573.503 -0.0852151 -1.57369 0
M  V30 6111 C 574.731 0.58946 -1.98325 0
M  V30 6112 C 575.146 1.62333 -0.96403 0
M  V30 6113 O 574.503 1.82438 0.0476395 0
M  V30 6114 C 574.554 1.24604 -3.39347 0
M  V30 6115 O 574.275 0.253532 -4.37366 0
M  V30 6116 C 575.776 2.00726 -3.95252 0
M  V30 6117 H 572.996 0.158783 -0.651942 0
M  V30 6118 H 575.54 -0.161584 -2.03861 0
M  V30 6119 H 573.695 1.94808 -3.34856 0
M  V30 6120 H 574.109 0.726207 -5.19448 0
M  V30 6121 H 575.583 2.42039 -4.96106 0
M  V30 6122 H 576.06 2.86919 -3.32527 0
M  V30 6123 H 576.666 1.3536 -4.03185 0
M  V30 6124 N 574.981 1.5647 0.188427 0
M  V30 6125 C 576.229 1.80655 0.905986 0
M  V30 6126 C 576.55 0.659391 1.83513 0
M  V30 6127 O 575.82 -0.321868 1.93238 0
M  V30 6128 H 574.4 0.666391 0.337538 0
M  V30 6129 H 577.062 1.93949 0.192339 0
M  V30 6130 H 576.158 2.74066 1.49313 0
M  V30 6131 N 576.459 -0.456382 1.50847 0
M  V30 6132 C 577.736 -1.21739 1.53098 0
M  V30 6133 C 578.116 -2.09179 0.284132 0
M  V30 6134 O 577.464 -2.16466 -0.731773 0
M  V30 6135 C 577.674 -2.03573 2.83477 0
M  V30 6136 C 579.022 -2.61264 3.34703 0
M  V30 6137 O 580.046 -2.13802 2.84898 0
M  V30 6138 O 578.905 -3.47779 4.21559 0
M  V30 6139 H 575.999 -0.553219 0.614718 0
M  V30 6140 H 578.545 -0.467003 1.63148 0
M  V30 6141 H 577.317 -1.39232 3.65691 0
M  V30 6142 H 576.94 -2.85716 2.76499 0
M  V30 6143 N 577.937 -1.40673 -0.710563 0
M  V30 6144 C 579.165 -1.42547 -1.4996 0
M  V30 6145 C 579.58 -0.0265485 -1.88781 0
M  V30 6146 O 578.937 0.950694 -1.55782 0
M  V30 6147 C 578.988 -2.32071 -2.77173 0
M  V30 6148 O 578.709 -3.66518 -2.39992 0
M  V30 6149 C 580.21 -2.42591 -3.71032 0
M  V30 6150 H 577.43 -0.486025 -0.462623 0
M  V30 6151 H 579.974 -1.84783 -0.876102 0
M  V30 6152 H 578.129 -1.93184 -3.35795 0
M  V30 6153 H 578.543 -4.14115 -3.21884 0
M  V30 6154 H 580.017 -3.09429 -4.57119 0
M  V30 6155 H 580.494 -1.4525 -4.14486 0
M  V30 6156 H 581.1 -2.82051 -3.18319 0
M  V30 6157 N 579.415 0.9433 -1.26252 0
M  V30 6158 C 580.645 1.72117 -1.14277 0
M  V30 6159 C 581.053 1.86726 0.304944 0
M  V30 6160 O 580.396 1.3727 1.22076 0
M  V30 6161 C 580.458 3.14778 -1.73651 0
M  V30 6162 C 580.122 3.23561 -3.22734 0
M  V30 6163 C 581.119 3.07001 -4.19579 0
M  V30 6164 C 578.804 3.47019 -3.63157 0
M  V30 6165 C 580.798 3.13763 -5.54826 0
M  V30 6166 C 578.485 3.53416 -4.98538 0
M  V30 6167 C 579.483 3.36804 -5.94182 0
M  V30 6168 O 579.171 3.42906 -7.27098 0
M  V30 6169 H 578.903 0.545781 -0.398873 0
M  V30 6170 H 581.457 1.19123 -1.67328 0
M  V30 6171 H 579.687 3.69186 -1.1506 0
M  V30 6172 H 581.376 3.74469 -1.56613 0
M  V30 6173 H 582.142 2.88736 -3.89688 0
M  V30 6174 H 578.021 3.59006 -2.89199 0
M  V30 6175 H 581.565 3.00714 -6.29458 0
M  V30 6176 H 577.462 3.71201 -5.28091 0
M  V30 6177 H 578.23 3.59463 -7.35342 0
M  V30 6178 N 580.893 1.08022 1.14757 0
M  V30 6179 C 582.121 0.828847 1.89572 0
M  V30 6180 C 582.536 -0.618621 1.78377 0
M  V30 6181 O 581.893 -1.42482 1.1404 0
M  V30 6182 C 581.944 1.23677 3.39685 0
M  V30 6183 O 581.665 2.62746 3.50566 0
M  V30 6184 C 583.166 1.01569 4.31507 0
M  V30 6185 H 580.386 0.299196 0.600602 0
M  V30 6186 H 582.93 1.43846 1.45357 0
M  V30 6187 H 581.085 0.671347 3.81539 0
M  V30 6188 H 581.499 2.79573 4.43778 0
M  V30 6189 H 582.973 1.35055 5.35223 0
M  V30 6190 H 583.45 -0.0475433 4.39174 0
M  V30 6191 H 584.056 1.56636 3.95405 0
M  V30 6192 N 582.371 -1.3172 0.865308 0
M  V30 6193 C 583.334 -2.26918 0.322627 0
M  V30 6194 C 584.334 -1.52031 -0.523751 0
M  V30 6195 O 585.524 -1.70973 -0.333727 0
M  V30 6196 C 582.656 -3.36558 -0.542338 0
M  V30 6197 H 583.849 -2.76432 1.16298 0
M  V30 6198 H 581.402 -1.42573 0.640512 0
M  V30 6199 H 582.137 -2.92329 -1.40407 0
M  V30 6200 H 581.922 -3.92048 0.0636395 0
M  V30 6201 H 583.412 -4.07465 -0.91446 0
M  V30 6202 N 583.85 -0.624285 -1.44708 0
M  V30 6203 C 584.8 0.106466 -2.27751 0
M  V30 6204 C 585.784 0.822703 -1.38277 0
M  V30 6205 O 586.976 0.709939 -1.62138 0
M  V30 6206 C 584.105 1.092 -3.25469 0
M  V30 6207 C 583.191 0.375737 -4.22432 0
M  V30 6208 N 583.582 -0.591881 -5.02325 0
M  V30 6209 C 581.88 0.621093 -4.41654 0
M  V30 6210 C 582.581 -1.01443 -5.72786 0
M  V30 6211 N 581.557 -0.354651 -5.42442 0
M  V30 6212 H 585.359 -0.636464 -2.86926 0
M  V30 6213 H 582.873 -0.44925 -1.56062 0
M  V30 6214 H 584.87 1.63006 -3.83712 0
M  V30 6215 H 583.529 1.8353 -2.67856 0
M  V30 6216 H 584.541 -0.969389 -5.08747 0
M  V30 6217 H 581.218 1.34779 -3.95147 0
M  V30 6218 H 582.608 -1.81345 -6.46965 0
M  V30 6219 N 585.328 1.53329 -0.364422 0
M  V30 6220 C 586.291 2.24323 0.470292 0
M  V30 6221 C 587.291 1.25068 1.01067 0
M  V30 6222 O 588.481 1.49354 0.896605 0
M  V30 6223 C 585.613 2.97908 1.65722 0
M  V30 6224 H 586.806 2.9952 -0.150917 0
M  V30 6225 H 584.359 1.55868 -0.116092 0
M  V30 6226 H 585.094 2.2695 2.31655 0
M  V30 6227 H 584.879 3.70732 1.27671 0
M  V30 6228 H 586.369 3.5188 2.24878 0
M  V30 6229 N 586.806 0.0935595 1.57322 0
M  V30 6230 C 588.054 -0.569383 1.93913 0
M  V30 6231 C 588.375 -1.68817 0.976009 0
M  V30 6232 O 587.645 -1.9588 0.0278099 0
M  V30 6233 H 586.225 -0.21332 0.715894 0
M  V30 6234 H 588.887 0.156531 1.9427 0
M  V30 6235 H 587.983 -0.980577 2.96296 0
M  V30 6236 N 588.284 -1.56567 -0.180126 0
M  V30 6237 C 589.247 -1.94852 -1.20686 0
M  V30 6238 C 590.247 -0.831212 -1.3765 0
M  V30 6239 O 591.437 -1.09841 -1.35206 0
M  V30 6240 C 588.569 -2.23565 -2.57355 0
M  V30 6241 H 589.762 -2.86722 -0.879225 0
M  V30 6242 H 587.315 -1.50489 -0.422237 0
M  V30 6243 H 588.05 -1.34381 -2.95148 0
M  V30 6244 H 587.835 -3.04999 -2.46411 0
M  V30 6245 H 589.325 -2.54137 -3.31367 0
M  V30 6246 N 589.762 0.448376 -1.51087 0
M  V30 6247 C 590.709 1.54341 -1.71603 0
M  V30 6248 C 591.679 1.56463 -0.557536 0
M  V30 6249 O 592.864 1.73644 -0.79072 0
M  V30 6250 C 590.004 2.92148 -1.83695 0
M  V30 6251 C 589.117 2.99639 -3.11192 0
M  V30 6252 C 588.252 4.285 -3.13944 0
M  V30 6253 C 587.291 4.29819 -4.35801 0
M  V30 6254 N 586.428 5.50186 -4.36164 0
M  V30 6255 H 591.268 1.36151 -2.65079 0
M  V30 6256 H 588.805 0.661585 -1.31383 0
M  V30 6257 H 590.763 3.72093 -1.88687 0
M  V30 6258 H 589.393 3.0892 -0.936374 0
M  V30 6259 H 588.445 2.12425 -3.15562 0
M  V30 6260 H 589.757 2.96474 -4.01129 0
M  V30 6261 H 588.911 5.16811 -3.17791 0
M  V30 6262 H 587.65 4.34307 -2.21876 0
M  V30 6263 H 586.655 3.39902 -4.32142 0
M  V30 6264 H 587.88 4.25685 -5.29121 0
M  V30 6265 H 585.826 5.56735 -3.46961 0
M  V30 6266 H 585.743 5.48856 -5.19897 0
M  V30 6267 H 587.011 6.40559 -4.44189 0
M  V30 6268 N 591.24 1.41047 0.703093 0
M  V30 6269 C 592.487 1.4 1.46309 0
M  V30 6270 C 592.815 0.00654574 1.94499 0
M  V30 6271 O 592.07 -0.980255 1.6938 0
M  V30 6272 C 592.369 2.34686 2.6955 0
M  V30 6273 C 592.035 3.81684 2.40058 0
M  V30 6274 C 590.697 4.21731 2.31725 0
M  V30 6275 C 593.049 4.74525 2.15581 0
M  V30 6276 C 590.377 5.52637 1.97001 0
M  V30 6277 C 592.729 6.05744 1.82366 0
M  V30 6278 C 591.393 6.44819 1.72524 0
M  V30 6279 H 590.663 0.512295 0.535382 0
M  V30 6280 H 593.31 1.73792 0.804275 0
M  V30 6281 H 591.615 1.94122 3.40329 0
M  V30 6282 H 593.312 2.31152 3.27673 0
M  V30 6283 H 589.902 3.49963 2.47435 0
M  V30 6284 H 594.086 4.44395 2.20968 0
M  V30 6285 H 589.342 5.81802 1.87928 0
M  V30 6286 H 593.516 6.77189 1.62444 0
M  V30 6287 H 591.143 7.46168 1.45385 0
M  V30 6288 N 592.718 -0.936591 1.26751 0
M  V30 6289 C 594.129 -1.49816 1.1141 0
M  V30 6290 C 594.48 -1.9383 -0.304015 0
M  V30 6291 O 593.605 -1.80346 -1.196 0
M  V30 6292 C 594.2 -2.72271 2.01629 0
M  V30 6293 C 592.759 -3.2468 1.9042 0
M  V30 6294 C 591.906 -1.97444 1.94708 0
M  V30 6295 H 594.857 -0.751604 1.39773 0
M  V30 6296 H 594.878 -3.46741 1.56688 0
M  V30 6297 H 594.39 -2.40205 3.04833 0
M  V30 6298 H 592.491 -3.61525 0.901674 0
M  V30 6299 H 592.604 -3.91476 2.76195 0
M  V30 6300 H 590.968 -2.13545 1.38818 0
M  V30 6301 H 591.751 -1.67703 2.9955 0
M  V30 6302 N 594.196 -1.08629 -1.14182 0
M  V30 6303 C 595.445 -0.812271 -1.84621 0
M  V30 6304 C 595.758 0.664313 -1.83973 0
M  V30 6305 O 596.964 1.05357 -2.50224 0
M  V30 6306 C 595.42 -1.4031 -3.31423 0
M  V30 6307 C 595.028 -2.91164 -3.40481 0
M  V30 6308 C 596.772 -1.20767 -4.06959 0
M  V30 6309 C 594.679 -3.43373 -4.81507 0
M  V30 6310 H 593.609 -0.30019 -0.691666 0
M  V30 6311 H 596.26 -1.30798 -1.28701 0
M  V30 6312 H 594.642 -0.835096 -3.87094 0
M  V30 6313 H 595.816 -3.5412 -2.94848 0
M  V30 6314 H 594.131 -3.09646 -2.78403 0
M  V30 6315 H 596.728 -1.57237 -5.11058 0
M  V30 6316 H 597.071 -0.147664 -4.16038 0
M  V30 6317 H 597.604 -1.74274 -3.57594 0
M  V30 6318 H 594.343 -4.48958 -4.77616 0
M  V30 6319 H 593.863 -2.85176 -5.27669 0
M  V30 6320 H 595.542 -3.40095 -5.50404 0
M  V30 6321 N 595.674 1.31259 -0.872281 0
M  V30 6322 C 596.621 2.28459 -0.327857 0
M  V30 6323 C 597.591 1.55831 0.574957 0
M  V30 6324 O 598.776 1.83965 0.506101 0
M  V30 6325 C 595.916 3.41985 0.462644 0
M  V30 6326 C 595.029 4.29458 -0.467949 0
M  V30 6327 C 594.164 5.30131 0.336903 0
M  V30 6328 C 593.203 6.0925 -0.58997 0
M  V30 6329 N 592.34 7.01872 0.178775 0
M  V30 6330 H 597.18 2.74414 -1.16193 0
M  V30 6331 H 594.717 1.34994 -0.584376 0
M  V30 6332 H 596.675 4.06547 0.936759 0
M  V30 6333 H 595.305 2.97134 1.2614 0
M  V30 6334 H 594.357 3.65318 -1.06052 0
M  V30 6335 H 595.669 4.84677 -1.17856 0
M  V30 6336 H 594.823 6.0038 0.873427 0
M  V30 6337 H 593.562 4.75573 1.08079 0
M  V30 6338 H 592.567 5.37889 -1.13823 0
M  V30 6339 H 593.792 6.65894 -1.33275 0
M  V30 6340 H 591.738 6.49721 0.905435 0
M  V30 6341 H 591.655 7.54522 -0.472452 0
M  V30 6342 H 592.923 7.76382 0.696454 0
M  V30 6343 N 597.152 0.631951 1.44375 0
M  V30 6344 C 598.398 0.145491 2.02879 0
M  V30 6345 C 598.753 -1.21936 1.48827 0
M  V30 6346 O 598.046 -1.7976 0.663085 0
M  V30 6347 C 598.24 0.0735861 3.57324 0
M  V30 6348 C 598.069 1.42992 4.2636 0
M  V30 6349 C 596.839 2.01691 4.63302 0
M  V30 6350 C 599.037 2.36393 4.56752 0
M  V30 6351 N 597.019 3.30551 5.17309 0
M  V30 6352 C 598.39 3.49869 5.11851 0
M  V30 6353 C 600.445 2.35462 4.38705 0
M  V30 6354 C 599.148 4.6261 5.50803 0
M  V30 6355 C 601.174 3.47268 4.78706 0
M  V30 6356 C 600.536 4.59467 5.33919 0
M  V30 6357 H 596.635 0.0971781 0.775938 0
M  V30 6358 H 599.219 0.835624 1.75856 0
M  V30 6359 H 597.39 -0.585829 3.83957 0
M  V30 6360 H 599.122 -0.421777 4.02496 0
M  V30 6361 H 595.877 1.54627 4.47647 0
M  V30 6362 H 596.301 3.96435 5.48788 0
M  V30 6363 H 600.943 1.49966 3.9531 0
M  V30 6364 H 598.661 5.48813 5.93152 0
M  V30 6365 H 602.247 3.47724 4.66454 0
M  V30 6366 H 601.127 5.44551 5.64299 0
M  V30 6367 N 598.631 -1.53133 0.372548 0
M  V30 6368 C 599.859 -2.05774 -0.215515 0
M  V30 6369 C 600.274 -1.24555 -1.41886 0
M  V30 6370 O 599.631 -0.287951 -1.80214 0
M  V30 6371 C 599.682 -3.5645 -0.602161 0
M  V30 6372 O 599.403 -4.34591 0.553359 0
M  V30 6373 C 600.904 -4.25374 -1.24787 0
M  V30 6374 H 598.124 -0.670009 -0.0364529 0
M  V30 6375 H 600.668 -1.97434 0.532934 0
M  V30 6376 H 598.823 -3.64918 -1.30052 0
M  V30 6377 H 599.237 -5.23954 0.239336 0
M  V30 6378 H 600.711 -5.32097 -1.46891 0
M  V30 6379 H 601.188 -3.79531 -2.21026 0
M  V30 6380 H 601.794 -4.21177 -0.590752 0
M  V30 6381 N 600.109 -0.101901 -1.5727 0
M  V30 6382 C 601.072 0.840129 -2.13247 0
M  V30 6383 C 602.072 1.20625 -1.06331 0
M  V30 6384 O 603.262 1.13456 -1.32186 0
M  V30 6385 C 600.394 2.13372 -2.65867 0
M  V30 6386 H 601.587 0.353945 -2.97804 0
M  V30 6387 H 599.14 0.147167 -1.55606 0
M  V30 6388 H 599.875 2.66461 -1.84849 0
M  V30 6389 H 599.66 1.88085 -3.44044 0
M  V30 6390 H 601.15 2.80748 -3.09145 0
M  V30 6391 N 601.587 1.56661 0.17182 0
M  V30 6392 C 602.998 1.71652 0.734329 0
M  V30 6393 C 603.349 0.712335 1.82812 0
M  V30 6394 O 602.474 -0.126401 2.16031 0
M  V30 6395 C 603.069 3.11226 1.3388 0
M  V30 6396 C 601.628 3.27904 1.84813 0
M  V30 6397 C 600.775 2.67603 0.726917 0
M  V30 6398 H 603.726 1.5861 -0.0535665 0
M  V30 6399 H 603.747 3.09849 2.20849 0
M  V30 6400 H 603.259 3.8429 0.54249 0
M  V30 6401 H 601.36 2.59796 2.6709 0
M  V30 6402 H 601.473 4.35637 1.99392 0
M  V30 6403 H 599.837 2.274 1.14723 0
M  V30 6404 H 600.62 3.43252 -0.0575334 0
M  V30 6405 N 603.065 -0.440357 1.51323 0
M  V30 6406 C 603.975 -1.55955 1.75258 0
M  V30 6407 C 604.991 -1.61933 0.636687 0
M  V30 6408 O 606.167 -1.79231 0.918593 0
M  V30 6409 C 603.232 -2.9196 1.86977 0
M  V30 6410 C 602.293 -2.96122 3.10822 0
M  V30 6411 C 601.526 -4.2564 3.21973 0
M  V30 6412 O 601.749 -5.17851 2.39137 0
M  V30 6413 O 600.683 -4.36025 4.14929 0
M  V30 6414 H 604.509 -1.38673 2.70191 0
M  V30 6415 H 602.094 -0.623055 1.35788 0
M  V30 6416 H 603.976 -3.72682 1.96688 0
M  V30 6417 H 602.651 -3.09375 0.952307 0
M  V30 6418 H 601.558 -2.14366 3.06591 0
M  V30 6419 H 602.891 -2.83651 4.02247 0
M  V30 6420 N 604.543 -1.41418 -0.695603 0
M  V30 6421 C 605.768 -1.44329 -1.48942 0
M  V30 6422 C 606.193 -0.0501579 -1.88033 0
M  V30 6423 O 605.551 0.946598 -1.54626 0
M  V30 6424 C 605.599 -2.3578 -2.72837 0
M  V30 6425 O 604.703 -1.81482 -3.70322 0
M  V30 6426 H 604.044 -0.489838 -0.44828 0
M  V30 6427 H 606.574 -1.85878 -0.855014 0
M  V30 6428 H 606.584 -2.51654 -3.21145 0
M  V30 6429 H 605.259 -3.37005 -2.43722 0
M  V30 6430 H 603.836 -1.75058 -3.29255 0
M  V30 6431 N 606.021 0.929856 -1.27246 0
M  V30 6432 C 606.951 2.04722 -1.12299 0
M  V30 6433 C 607.932 1.70082 -0.0250464 0
M  V30 6434 O 609.117 1.93176 -0.199141 0
M  V30 6435 C 606.247 3.38721 -0.767145 0
M  V30 6436 C 605.201 3.87466 -1.81808 0
M  V30 6437 C 604.527 5.18246 -1.31626 0
M  V30 6438 C 605.827 4.11095 -3.22177 0
M  V30 6439 H 607.521 2.17485 -2.05769 0
M  V30 6440 H 605.067 1.04503 -0.990715 0
M  V30 6441 H 607.02 4.16366 -0.649413 0
M  V30 6442 H 605.744 3.25967 0.203259 0
M  V30 6443 H 604.403 3.12012 -1.92468 0
M  V30 6444 H 604.051 5.01881 -0.335378 0
M  V30 6445 H 603.751 5.51829 -2.01887 0
M  V30 6446 H 605.275 5.98462 -1.21143 0
M  V30 6447 H 606.689 4.79316 -3.1453 0
M  V30 6448 H 605.086 4.55982 -3.90129 0
M  V30 6449 H 606.156 3.16468 -3.67391 0
M  V30 6450 N 607.499 1.09233 1.13605 0
M  V30 6451 C 608.462 0.733553 2.17144 0
M  V30 6452 C 609.462 -0.235873 1.59061 0
M  V30 6453 O 610.652 -0.0143167 1.74194 0
M  V30 6454 C 607.784 0.084471 3.40795 0
M  V30 6455 H 608.977 1.65049 2.50397 0
M  V30 6456 H 606.53 0.891264 1.28399 0
M  V30 6457 H 607.265 -0.843795 3.1313 0
M  V30 6458 H 607.05 0.781985 3.84223 0
M  V30 6459 H 608.54 -0.151216 4.17326 0
M  V30 6460 N 608.977 -1.30795 0.87923 0
M  V30 6461 C 610.207 -2.00237 0.50881 0
M  V30 6462 C 610.615 -1.66115 -0.905682 0
M  V30 6463 O 609.958 -0.89138 -1.60624 0
M  V30 6464 C 610.02 -3.54508 0.597003 0
M  V30 6465 C 609.684 -4.12131 1.97477 0
M  V30 6466 C 610.681 -4.28552 2.94346 0
M  V30 6467 C 608.366 -4.47644 2.2786 0
M  V30 6468 C 610.36 -4.79689 4.19735 0
M  V30 6469 C 608.047 -4.98481 3.53496 0
M  V30 6470 C 609.045 -5.14456 4.49248 0
M  V30 6471 O 608.733 -5.64199 5.72656 0
M  V30 6472 H 608.465 -0.647026 0.195788 0
M  V30 6473 H 611.019 -1.67785 1.1848 0
M  V30 6474 H 609.249 -3.86461 -0.135945 0
M  V30 6475 H 610.938 -4.05198 0.238684 0
M  V30 6476 H 611.704 -4.01424 2.72183 0
M  V30 6477 H 607.583 -4.34481 1.54102 0
M  V30 6478 H 611.127 -4.92073 4.9448 0
M  V30 6479 H 607.024 -5.25044 3.75498 0
M  V30 6480 H 607.792 -5.82551 5.74957 0
M  V30 6481 N 610.455 -0.639598 -1.44038 0
M  V30 6482 C 611.403 0.0723409 -2.32487 0
M  V30 6483 C 612.397 0.827129 -1.47834 0
M  V30 6484 O 613.603 0.73907 -1.64127 0
M  V30 6485 H 609.978 0.0421696 -0.750817 0
M  V30 6486 H 611.949 -0.691593 -2.90275 0
M  V30 6487 C 610.698 1.03452 -3.31953 0
M  V30 6488 H 610.021 0.46315 -3.97108 0
M  V30 6489 H 611.461 1.502 -3.96505 0
M  V30 6490 C 609.92 2.12392 -2.61518 0
M  V30 6491 O 610.45 3.2059 -2.42044 0
M  V30 6492 N 608.656 1.88563 -2.21116 0
M  V30 6493 H 608.203 1.00577 -2.37154 0
M  V30 6494 H 608.161 2.61651 -1.74316 0
M  V30 6495 N 611.933 1.52934 -0.380664 0
M  V30 6496 C 612.88 2.26197 0.458641 0
M  V30 6497 C 613.85 1.27462 1.06502 0
M  V30 6498 O 615.035 1.56274 1.09467 0
M  V30 6499 C 612.175 3.06571 1.58456 0
M  V30 6500 C 611.288 4.20222 1.00189 0
M  V30 6501 C 610.423 4.88007 2.09815 0
M  V30 6502 C 609.462 5.93665 1.49092 0
M  V30 6503 N 608.599 6.55081 2.52613 0
M  V30 6504 H 613.439 2.975 -0.172595 0
M  V30 6505 H 610.976 1.4678 -0.0969426 0
M  V30 6506 H 612.934 3.51455 2.24801 0
M  V30 6507 H 611.564 2.37494 2.18624 0
M  V30 6508 H 610.616 3.79714 0.228292 0
M  V30 6509 H 611.928 4.96102 0.518064 0
M  V30 6510 H 611.082 5.36151 2.83948 0
M  V30 6511 H 609.821 4.11632 2.61555 0
M  V30 6512 H 608.826 5.44868 0.7348 0
M  V30 6513 H 610.051 6.71969 0.981582 0
M  V30 6514 H 607.997 5.8155 3.03538 0
M  V30 6515 H 607.914 7.26548 2.08961 0
M  V30 6516 H 609.182 7.07871 3.26402 0
M  V30 6517 N 613.412 0.11024 1.57214 0
M  V30 6518 C 614.659 -0.54987 1.94891 0
M  V30 6519 C 614.987 -1.67243 0.992984 0
M  V30 6520 O 614.242 -1.95694 0.0152703 0
M  V30 6521 C 614.541 -1.13102 3.39032 0
M  V30 6522 C 614.207 -0.130713 4.5071 0
M  V30 6523 C 612.869 0.14437 4.80983 0
M  V30 6524 C 615.221 0.551472 5.18274 0
M  V30 6525 C 612.549 1.10807 5.76141 0
M  V30 6526 C 614.901 1.50375 6.14467 0
M  V30 6527 C 613.565 1.78691 6.43138 0
M  V30 6528 H 612.835 -0.201212 0.713158 0
M  V30 6529 H 615.482 0.189288 1.90562 0
M  V30 6530 H 613.787 -1.94675 3.40013 0
M  V30 6531 H 615.484 -1.64973 3.65493 0
M  V30 6532 H 612.074 -0.355301 4.27125 0
M  V30 6533 H 616.258 0.35211 4.95049 0
M  V30 6534 H 611.514 1.3343 5.96663 0
M  V30 6535 H 615.688 2.03808 6.65909 0
M  V30 6536 H 613.315 2.53522 7.1668 0
M  V30 6537 N 614.89 -1.56749 -0.16351 0
M  V30 6538 C 616.115 -1.86938 -0.898264 0
M  V30 6539 C 616.54 -0.697456 -1.74692 0
M  V30 6540 O 615.898 0.353327 -1.77824 0
M  V30 6541 C 615.946 -3.15599 -1.74441 0
M  V30 6542 O 615.05 -2.98371 -2.8469 0
M  V30 6543 H 614.391 -0.614659 -0.251178 0
M  V30 6544 H 616.921 -2.03979 -0.159298 0
M  V30 6545 H 616.931 -3.47202 -2.14277 0
M  V30 6546 H 615.606 -4.00505 -1.1211 0
M  V30 6547 H 614.183 -2.7814 -2.4838 0
M  V30 6548 N 616.368 0.432326 -1.51554 0
M  V30 6549 C 617.617 1.17831 -1.63703 0
M  V30 6550 C 617.93 1.92229 -0.36156 0
M  V30 6551 O 619.136 2.69069 -0.362495 0
M  V30 6552 C 617.592 2.14318 -2.89129 0
M  V30 6553 C 617.2 1.45544 -4.23699 0
M  V30 6554 C 618.944 2.89319 -3.10636 0
M  V30 6555 C 616.851 2.40545 -5.4027 0
M  V30 6556 H 615.781 0.443533 -0.60975 0
M  V30 6557 H 618.432 0.444878 -1.78026 0
M  V30 6558 H 616.814 2.91117 -2.68452 0
M  V30 6559 H 617.988 0.742693 -4.54775 0
M  V30 6560 H 616.303 0.826772 -4.0811 0
M  V30 6561 H 618.9 3.60495 -3.94902 0
M  V30 6562 H 619.243 3.50951 -2.23918 0
M  V30 6563 H 619.776 2.19625 -3.31677 0
M  V30 6564 H 616.515 1.83594 -6.29264 0
M  V30 6565 H 616.035 3.09859 -5.13563 0
M  V30 6566 H 617.714 3.01569 -5.72421 0
M  V30 6567 N 617.846 1.41785 0.688094 0
M  V30 6568 C 618.793 1.44221 1.80191 0
M  V30 6569 C 619.763 0.295688 1.63447 0
M  V30 6570 O 620.948 0.49783 1.84191 0
M  V30 6571 C 618.088 1.33743 3.1813 0
M  V30 6572 C 617.201 2.58325 3.46254 0
M  V30 6573 C 616.336 2.40086 4.73848 0
M  V30 6574 C 615.375 3.60107 4.94964 0
M  V30 6575 N 614.512 3.40892 6.13789 0
M  V30 6576 H 619.352 2.39411 1.77444 0
M  V30 6577 H 616.889 1.18876 0.866423 0
M  V30 6578 H 618.847 1.25669 3.97823 0
M  V30 6579 H 617.477 0.42157 3.20035 0
M  V30 6580 H 616.529 2.7682 2.60912 0
M  V30 6581 H 617.841 3.4758 3.57756 0
M  V30 6582 H 616.995 2.29522 5.61609 0
M  V30 6583 H 615.734 1.483 4.64606 0
M  V30 6584 H 614.739 3.71118 4.05649 0
M  V30 6585 H 615.964 4.52857 5.06061 0
M  V30 6586 H 613.91 2.51812 6.05745 0
M  V30 6587 H 613.827 4.23727 6.26092 0
M  V30 6588 H 615.095 3.34114 7.04264 0
M  V30 6589 N 619.324 -0.923095 1.27737 0
M  V30 6590 C 620.549 -1.71054 1.17283 0
M  V30 6591 C 620.974 -1.86208 -0.266153 0
M  V30 6592 O 620.332 -1.36545 -1.1927 0
M  V30 6593 C 620.38 -3.0854 1.86642 0
M  V30 6594 O 619.484 -3.95528 1.16752 0
M  V30 6595 H 618.825 -0.524136 0.407649 0
M  V30 6596 H 621.355 -1.15487 1.6889 0
M  V30 6597 H 621.365 -3.58828 1.94182 0
M  V30 6598 H 620.04 -2.96828 2.91317 0
M  V30 6599 H 618.617 -3.53967 1.17312 0
M  V30 6600 N 620.802 -1.09834 -1.13024 0
M  V30 6601 C 622.079 -0.749225 -1.80682 0
M  V30 6602 C 622.459 0.765171 -1.96744 0
M  V30 6603 O 621.807 1.68912 -1.53886 0
M  V30 6604 C 622.017 -1.49311 -3.15448 0
M  V30 6605 C 623.365 -1.66162 -3.90737 0
M  V30 6606 O 624.389 -1.45597 -3.25085 0
M  V30 6607 O 623.248 -2.00211 -5.08505 0
M  V30 6608 H 620.342 -0.269614 -0.781817 0
M  V30 6609 H 622.888 -1.20078 -1.19914 0
M  V30 6610 H 621.66 -2.52407 -2.99009 0
M  V30 6611 H 621.283 -1.034 -3.8392 0
M  V30 6612 N 622.28 1.30327 -0.886154 0
M  V30 6613 C 623.526 1.96388 -0.505941 0
M  V30 6614 C 623.859 1.69784 0.942712 0
M  V30 6615 O 623.134 1.00322 1.6663 0
M  V30 6616 C 623.417 3.51488 -0.782826 0
M  V30 6617 C 623.27 3.87603 -2.28219 0
M  V30 6618 C 624.589 4.39331 -0.260128 0
M  V30 6619 H 621.708 0.713327 -0.185292 0
M  V30 6620 H 624.35 1.54178 -1.11036 0
M  V30 6621 H 622.5 3.87572 -0.268399 0
M  V30 6622 H 624.172 3.61537 -2.86512 0
M  V30 6623 H 622.415 3.3563 -2.74837 0
M  V30 6624 H 623.086 4.95806 -2.42653 0
M  V30 6625 H 625.562 4.10162 -0.700444 0
M  V30 6626 H 624.438 5.46769 -0.483179 0
M  V30 6627 H 624.699 4.34072 0.838674 0
M  V30 6628 N 623.758 0.647228 1.43697 0
M  V30 6629 C 625.004 0.167001 2.02713 0
M  V30 6630 C 625.359 -1.20351 1.50111 0
M  V30 6631 O 624.652 -1.79047 0.682113 0
M  V30 6632 C 624.846 0.111481 3.57226 0
M  V30 6633 C 624.675 1.47507 4.2482 0
M  V30 6634 C 623.445 2.06594 4.61137 0
M  V30 6635 C 625.643 2.41224 4.54219 0
M  V30 6636 N 623.625 3.3602 5.13774 0
M  V30 6637 C 624.996 3.55278 5.08112 0
M  V30 6638 C 627.051 2.40102 4.36183 0
M  V30 6639 C 625.754 4.68426 5.45866 0
M  V30 6640 C 627.78 3.52326 4.74995 0
M  V30 6641 C 627.142 4.65104 5.29015 0
M  V30 6642 H 623.241 0.105402 0.774864 0
M  V30 6643 H 625.825 0.854229 1.7496 0
M  V30 6644 H 623.996 -0.545073 3.84556 0
M  V30 6645 H 625.728 -0.379063 4.02921 0
M  V30 6646 H 622.483 1.59366 4.45981 0
M  V30 6647 H 622.907 4.02233 5.44552 0
M  V30 6648 H 627.549 1.54151 3.93697 0
M  V30 6649 H 625.267 5.55074 5.87298 0
M  V30 6650 H 628.853 3.52652 4.6274 0
M  V30 6651 H 627.733 5.50506 5.58492 0
M  V30 6652 N 625.236 -1.5273 0.388769 0
M  V30 6653 C 626.199 -2.25043 -0.434544 0
M  V30 6654 C 627.199 -1.26661 -0.990644 0
M  V30 6655 O 628.389 -1.50762 -0.872731 0
M  V30 6656 C 625.521 -3.00507 -1.60961 0
M  V30 6657 H 626.714 -2.99242 0.198549 0
M  V30 6658 H 624.267 -1.55664 0.140875 0
M  V30 6659 H 625.002 -2.30607 -2.28015 0
M  V30 6660 H 624.787 -3.72716 -1.21757 0
M  V30 6661 H 626.277 -3.55413 -2.19251 0
M  V30 6662 N 626.714 -0.118576 -1.57153 0
M  V30 6663 C 627.961 0.539526 -1.9518 0
M  V30 6664 C 628.289 1.66714 -1.00184 0
M  V30 6665 O 627.544 1.95683 -0.0256482 0
M  V30 6666 C 627.843 1.11303 -3.39627 0
M  V30 6667 C 627.509 0.106809 -4.50773 0
M  V30 6668 C 626.171 -0.169876 -4.809 0
M  V30 6669 C 628.523 -0.57895 -5.17975 0
M  V30 6670 C 625.851 -1.13861 -5.75545 0
M  V30 6671 C 628.203 -1.53631 -6.13661 0
M  V30 6672 C 626.867 -1.82099 -6.42181 0
M  V30 6673 H 626.137 0.197427 -0.714215 0
M  V30 6674 H 628.784 -0.199391 -1.90459 0
M  V30 6675 H 627.089 1.92869 -3.4104 0
M  V30 6676 H 628.786 1.63032 -3.66363 0
M  V30 6677 H 625.376 0.332645 -4.27307 0
M  V30 6678 H 629.56 -0.378359 -4.94856 0
M  V30 6679 H 624.816 -1.36592 -5.95947 0
M  V30 6680 H 628.99 -2.07337 -6.64819 0
M  V30 6681 H 626.617 -2.57319 -7.15326 0
M  V30 6682 N 628.193 1.56834 0.155195 0
M  V30 6683 C 629.441 1.82536 0.867462 0
M  V30 6684 C 629.762 0.698168 1.82073 0
M  V30 6685 O 629.032 -0.280807 1.93877 0
M  V30 6686 H 627.612 0.673401 0.323327 0
M  V30 6687 H 630.274 1.94313 0.151156 0
M  V30 6688 H 629.37 2.77171 1.43466 0
M  V30 6689 N 629.671 -0.424282 1.51781 0
M  V30 6690 C 630.917 -1.17434 1.6534 0
M  V30 6691 C 631.25 -1.90549 0.374806 0
M  V30 6692 O 630.525 -1.84145 -0.626179 0
M  V30 6693 C 630.808 -2.18093 2.86544 0
M  V30 6694 C 630.661 -1.48975 4.24413 0
M  V30 6695 C 631.98 -3.18934 3.03264 0
M  V30 6696 H 629.099 -0.425566 0.601716 0
M  V30 6697 H 631.741 -0.461921 1.84299 0
M  V30 6698 H 629.891 -2.78849 2.7051 0
M  V30 6699 H 631.563 -0.914551 4.52143 0
M  V30 6700 H 629.806 -0.791893 4.26511 0
M  V30 6701 H 630.477 -2.22347 5.05238 0
M  V30 6702 H 632.953 -2.68243 3.18096 0
M  V30 6703 H 631.829 -3.86645 3.89611 0
M  V30 6704 H 632.09 -3.85793 2.15908 0
M  V30 6705 N 631.149 -1.42148 -0.680565 0
M  V30 6706 C 632.079 -1.4796 -1.80638 0
M  V30 6707 C 633.06 -0.336728 -1.66734 0
M  V30 6708 O 634.245 -0.550247 -1.86242 0
M  V30 6709 C 631.375 -1.37569 -3.18892 0
M  V30 6710 C 630.329 -2.49823 -3.47524 0
M  V30 6711 C 629.655 -2.24491 -4.85291 0
M  V30 6712 C 630.955 -3.92144 -3.44994 0
M  V30 6713 H 632.649 -2.42184 -1.76032 0
M  V30 6714 H 630.195 -1.16566 -0.845481 0
M  V30 6715 H 632.148 -1.40243 -3.97379 0
M  V30 6716 H 630.872 -0.398357 -3.24162 0
M  V30 6717 H 629.531 -2.46455 -2.71395 0
M  V30 6718 H 629.179 -1.25066 -4.87204 0
M  V30 6719 H 628.879 -2.99722 -5.05411 0
M  V30 6720 H 630.403 -2.28906 -5.66069 0
M  V30 6721 H 631.817 -3.97145 -4.13459 0
M  V30 6722 H 630.214 -4.67179 -3.76648 0
M  V30 6723 H 631.284 -4.19225 -2.43676 0
M  V30 6724 N 632.627 0.916307 -1.28225 0
M  V30 6725 C 633.557 2.0352 -1.14464 0
M  V30 6726 C 634.538 1.70045 -0.0430844 0
M  V30 6727 O 635.723 1.92954 -0.219619 0
M  V30 6728 C 632.853 3.37889 -0.803027 0
M  V30 6729 C 631.807 3.85516 -1.85908 0
M  V30 6730 C 631.133 5.1682 -1.37116 0
M  V30 6731 C 632.433 4.07655 -3.26519 0
M  V30 6732 H 634.127 2.1529 -2.08064 0
M  V30 6733 H 631.673 1.03446 -1.00174 0
M  V30 6734 H 633.626 4.15654 -0.693537 0
M  V30 6735 H 632.35 3.26164 0.168674 0
M  V30 6736 H 631.009 3.09953 -1.95767 0
M  V30 6737 H 630.657 5.01497 -0.38859 0
M  V30 6738 H 630.357 5.49657 -2.07728 0
M  V30 6739 H 631.881 5.97143 -1.27484 0
M  V30 6740 H 633.295 4.75953 -3.19596 0
M  V30 6741 H 631.692 4.51818 -3.94943 0
M  V30 6742 H 632.762 3.12553 -3.70727 0
M  V30 6743 N 634.105 1.10431 1.1244 0
M  V30 6744 C 635.351 0.857864 1.84424 0
M  V30 6745 C 635.706 -0.609995 1.82474 0
M  V30 6746 O 634.999 -1.44401 1.25932 0
M  V30 6747 C 635.193 1.34022 3.3132 0
M  V30 6748 C 635.022 2.85344 3.47576 0
M  V30 6749 C 633.792 3.53345 3.61213 0
M  V30 6750 C 635.99 3.83446 3.42744 0
M  V30 6751 N 633.972 4.92989 3.65834 0
M  V30 6752 C 635.343 5.09101 3.5386 0
M  V30 6753 C 637.398 3.76154 3.26209 0
M  V30 6754 C 636.101 6.28323 3.50146 0
M  V30 6755 C 638.127 4.94876 3.23809 0
M  V30 6756 C 637.489 6.19378 3.35485 0
M  V30 6757 H 633.588 0.366917 0.690577 0
M  V30 6758 H 636.172 1.40668 1.34613 0
M  V30 6759 H 634.343 0.818727 3.79673 0
M  V30 6760 H 636.075 1.03801 3.91162 0
M  V30 6761 H 632.83 3.03791 3.63329 0
M  V30 6762 H 633.254 5.65762 3.71809 0
M  V30 6763 H 637.896 2.80813 3.16076 0
M  V30 6764 H 635.614 7.23953 3.5905 0
M  V30 6765 H 639.2 4.90942 3.12197 0
M  V30 6766 H 638.08 7.09704 3.33602 0
M  V30 6767 N 635.583 -1.29855 0.893053 0
M  V30 6768 C 636.493 -2.31661 0.370157 0
M  V30 6769 C 637.509 -1.65677 -0.531723 0
M  V30 6770 O 638.685 -1.9691 -0.422902 0
M  V30 6771 C 635.75 -3.44388 -0.399741 0
M  V30 6772 C 634.811 -4.2598 0.532861 0
M  V30 6773 C 634.044 -5.33324 -0.200388 0
M  V30 6774 O 634.267 -5.52305 -1.42531 0
M  V30 6775 O 633.201 -6.00188 0.453668 0
M  V30 6776 H 637.027 -2.78354 1.2146 0
M  V30 6777 H 634.612 -1.34171 0.657153 0
M  V30 6778 H 636.494 -4.13037 -0.835358 0
M  V30 6779 H 635.169 -2.99815 -1.22035 0
M  V30 6780 H 634.076 -3.59998 1.01746 0
M  V30 6781 H 635.409 -4.74178 1.3197 0
M  V30 6782 N 637.061 -0.65484 -1.43351 0
M  V30 6783 C 638.31 -0.166215 -2.01014 0
M  V30 6784 C 638.623 1.22764 -1.52278 0
M  V30 6785 O 639.829 1.81156 -2.02224 0
M  V30 6786 C 638.285 -0.246341 -3.59056 0
M  V30 6787 C 637.893 -1.64299 -4.16785 0
M  V30 6788 C 639.637 0.184597 -4.24098 0
M  V30 6789 C 637.544 -1.67695 -5.67126 0
M  V30 6790 H 636.474 -0.0583769 -0.751737 0
M  V30 6791 H 639.125 -0.817111 -1.64303 0
M  V30 6792 H 637.507 0.472092 -3.93176 0
M  V30 6793 H 638.681 -2.3869 -3.94162 0
M  V30 6794 H 636.996 -2.02004 -3.6412 0
M  V30 6795 H 639.593 0.179088 -5.344 0
M  V30 6796 H 639.936 1.21632 -3.98135 0
M  V30 6797 H 640.469 -0.482141 -3.94867 0
M  V30 6798 H 637.208 -2.68783 -5.9786 0
M  V30 6799 H 636.728 -0.976313 -5.91801 0
M  V30 6800 H 638.407 -1.42142 -6.31193 0
M  V30 6801 N 638.539 1.52521 -0.396863 0
M  V30 6802 C 639.502 2.2527 0.422604 0
M  V30 6803 C 640.502 1.27184 0.983913 0
M  V30 6804 O 641.692 1.51222 0.864723 0
M  V30 6805 C 638.824 3.01356 1.59365 0
M  V30 6806 H 640.017 2.99133 -0.214416 0
M  V30 6807 H 637.57 1.55587 -0.149128 0
M  V30 6808 H 638.305 2.31813 2.26789 0
M  V30 6809 H 638.09 3.73357 1.19779 0
M  V30 6810 H 639.58 3.56571 2.17363 0
M  V30 6811 N 640.017 0.126909 1.57088 0
M  V30 6812 C 641.245 -0.53667 1.99819 0
M  V30 6813 C 641.66 -1.5972 1.00673 0
M  V30 6814 O 641.017 -1.825 0.000747365 0
M  V30 6815 C 641.068 -1.15563 3.42531 0
M  V30 6816 O 640.789 -0.137483 4.37884 0
M  V30 6817 C 642.29 -1.90176 4.00435 0
M  V30 6818 H 639.51 -0.141443 0.655923 0
M  V30 6819 H 642.054 0.215578 2.03361 0
M  V30 6820 H 640.209 -1.85861 3.39904 0
M  V30 6821 H 640.623 -0.588229 5.21191 0
M  V30 6822 H 642.097 -2.28801 5.02349 0
M  V30 6823 H 642.574 -2.78002 3.40017 0
M  V30 6824 H 643.18 -1.24623 4.06632 0
M  V30 6825 N 641.495 -1.56914 -0.146875 0
M  V30 6826 C 642.725 -1.87243 -0.873126 0
M  V30 6827 C 643.133 -0.713127 -1.75246 0
M  V30 6828 O 642.476 0.326228 -1.8078 0
M  V30 6829 C 642.538 -3.12279 -1.78107 0
M  V30 6830 C 642.202 -4.44082 -1.07889 0
M  V30 6831 C 643.199 -5.18096 -0.432734 0
M  V30 6832 C 640.884 -4.90807 -1.06836 0
M  V30 6833 C 642.878 -6.37039 0.214569 0
M  V30 6834 C 640.565 -6.09674 -0.417243 0
M  V30 6835 C 641.563 -6.82636 0.223093 0
M  V30 6836 O 641.251 -7.99245 0.863884 0
M  V30 6837 H 640.983 -0.624896 -0.257839 0
M  V30 6838 H 643.537 -2.04892 -0.14434 0
M  V30 6839 H 641.767 -2.90639 -2.5508 0
M  V30 6840 H 643.456 -3.28854 -2.37929 0
M  V30 6841 H 644.222 -4.83066 -0.432677 0
M  V30 6842 H 640.101 -4.3394 -1.55618 0
M  V30 6843 H 643.645 -6.93927 0.714965 0
M  V30 6844 H 639.542 -6.44165 -0.414967 0
M  V30 6845 H 640.31 -8.14912 0.765564 0
M  V30 6846 N 642.974 0.416227 -1.52004 0
M  V30 6847 C 644.222 1.16153 -1.65387 0
M  V30 6848 C 644.543 1.91208 -0.382669 0
M  V30 6849 O 643.813 1.86413 0.602231 0
M  V30 6850 H 642.393 0.431765 -0.60958 0
M  V30 6851 H 645.055 0.475151 -1.89019 0
M  V30 6852 H 644.151 1.87952 -2.4916 0
M  V30 6853 N 644.452 1.42507 0.673017 0
M  V30 6854 C 645.385 1.40557 1.79774 0
M  V30 6855 C 646.363 0.269606 1.60349 0
M  V30 6856 O 647.547 0.460105 1.82798 0
M  V30 6857 C 644.674 1.19815 3.168 0
M  V30 6858 C 643.72 2.36429 3.5497 0
M  V30 6859 S 644.553 3.98963 3.57196 0
M  V30 6860 C 645.709 3.80567 4.9691 0
M  V30 6861 H 645.942 2.35734 1.81154 0
M  V30 6862 H 643.475 1.293 0.843846 0
M  V30 6863 H 645.433 1.08535 3.95892 0
M  V30 6864 H 644.094 0.262215 3.13004 0
M  V30 6865 H 643.287 2.17669 4.54573 0
M  V30 6866 H 642.889 2.44233 2.83242 0
M  V30 6867 H 645.181 3.41668 5.85038 0
M  V30 6868 H 646.124 4.79852 5.20718 0
M  V30 6869 H 646.532 3.13399 4.69512 0
M  V30 6870 N 645.93 -0.909495 1.28709 0
M  V30 6871 C 647.155 -1.69801 1.1909 0
M  V30 6872 C 647.58 -1.86479 -0.246388 0
M  V30 6873 O 646.938 -1.37802 -1.17815 0
M  V30 6874 C 646.986 -3.06543 1.89904 0
M  V30 6875 O 646.09 -3.94268 1.2094 0
M  V30 6876 H 645.431 -0.519783 0.413185 0
M  V30 6877 H 647.961 -1.13689 1.70106 0
M  V30 6878 H 647.971 -3.56748 1.97977 0
M  V30 6879 H 646.646 -2.93722 2.94449 0
M  V30 6880 H 645.223 -3.52702 1.2106 0
M  V30 6881 N 647.408 -1.11026 -1.11852 0
M  V30 6882 C 648.819 -0.873203 -1.65021 0
M  V30 6883 C 649.17 0.595364 -1.86949 0
M  V30 6884 O 648.295 1.45645 -1.60051 0
M  V30 6885 C 648.89 -1.57859 -2.99777 0
M  V30 6886 C 647.449 -1.38807 -3.49871 0
M  V30 6887 C 646.596 -1.62403 -2.24768 0
M  V30 6888 H 649.547 -1.26712 -0.955503 0
M  V30 6889 H 649.568 -1.02111 -3.66543 0
M  V30 6890 H 649.08 -2.6474 -2.83786 0
M  V30 6891 H 647.181 -0.341163 -3.71035 0
M  V30 6892 H 647.294 -2.13421 -4.28938 0
M  V30 6893 H 645.658 -1.04714 -2.32179 0
M  V30 6894 H 646.441 -2.70549 -2.11324 0
M  V30 6895 N 648.886 1.2938 -0.899927 0
M  V30 6896 C 650.116 1.99402 -0.540601 0
M  V30 6897 C 650.524 1.67534 0.87914 0
M  V30 6898 O 649.867 0.916821 1.59186 0
M  V30 6899 C 649.929 3.53514 -0.653326 0
M  V30 6900 C 649.593 4.08937 -2.04009 0
M  V30 6901 C 650.59 4.23815 -3.01126 0
M  V30 6902 C 648.275 4.43962 -2.34953 0
M  V30 6903 C 650.269 4.72951 -4.27313 0
M  V30 6904 C 647.956 4.92795 -3.61382 0
M  V30 6905 C 648.954 5.07244 -4.57376 0
M  V30 6906 O 648.642 5.55017 -5.8156 0
M  V30 6907 H 648.374 0.64383 -0.206057 0
M  V30 6908 H 650.928 1.65878 -1.21134 0
M  V30 6909 H 649.158 3.86628 0.0744449 0
M  V30 6910 H 650.847 4.04767 -0.303118 0
M  V30 6911 H 651.613 3.97043 -2.78535 0
M  V30 6912 H 647.492 4.31974 -1.60994 0
M  V30 6913 H 651.036 4.84144 -5.02245 0
M  V30 6914 H 646.933 5.19004 -3.83804 0
M  V30 6915 H 647.701 5.73331 -5.84153 0
M  V30 6916 N 650.364 0.662433 1.43002 0
M  V30 6917 C 651.775 0.258315 1.84904 0
M  V30 6918 C 652.126 -1.19703 1.55453 0
M  V30 6919 O 651.251 -1.91484 1.00811 0
M  V30 6920 C 651.846 0.462047 3.35635 0
M  V30 6921 C 650.405 0.112165 3.76233 0
M  V30 6922 C 649.552 0.760479 2.66668 0
M  V30 6923 H 652.503 0.865467 1.33024 0
M  V30 6924 H 652.524 -0.289646 3.79396 0
M  V30 6925 H 652.036 1.52135 3.57039 0
M  V30 6926 H 650.137 -0.944179 3.60439 0
M  V30 6927 H 650.25 0.544058 4.76001 0
M  V30 6928 H 648.614 0.192887 2.53969 0
M  V30 6929 H 649.397 1.82299 2.90898 0
M  V30 6930 N 651.842 -1.52309 0.404946 0
M  V30 6931 C 653.09 -2.01368 -0.17186 0
M  V30 6932 C 653.411 -1.29261 -1.46002 0
M  V30 6933 O 652.681 -0.41729 -1.91404 0
M  V30 6934 H 651.261 -0.744034 -0.0664993 0
M  V30 6935 H 653.923 -1.87263 0.540228 0
M  V30 6936 H 653.019 -3.09888 -0.370957 0
M  V30 6937 N 653.32 -0.135238 -1.57019 0
M  V30 6938 C 654.569 0.518694 -1.94917 0
M  V30 6939 C 654.882 1.66783 -1.0219 0
M  V30 6940 O 656.088 2.38561 -1.29619 0
M  V30 6941 C 654.544 0.974123 -3.46466 0
M  V30 6942 C 654.152 -0.147439 -4.47757 0
M  V30 6943 C 655.896 1.59851 -3.93253 0
M  V30 6944 C 653.803 0.325599 -5.90503 0
M  V30 6945 H 652.733 0.19754 -0.727663 0
M  V30 6946 H 655.384 -0.217698 -1.82204 0
M  V30 6947 H 653.766 1.76542 -3.5447 0
M  V30 6948 H 654.94 -0.924122 -4.51438 0
M  V30 6949 H 653.255 -0.679496 -4.10818 0
M  V30 6950 H 655.852 1.96385 -4.9733 0
M  V30 6951 H 656.195 2.48306 -3.3414 0
M  V30 6952 H 656.728 0.872323 -3.88118 0
M  V30 6953 H 653.467 -0.523295 -6.53408 0
M  V30 6954 H 652.987 1.06841 -5.90208 0
M  V30 6955 H 654.666 0.781498 -6.42263 0
M  V30 6956 N 654.798 1.5699 0.138552 0
M  V30 6957 C 656.075 1.74741 0.87891 0
M  V30 6958 C 656.455 0.705522 1.98961 0
M  V30 6959 O 655.803 -0.274066 2.2685 0
M  V30 6960 C 656.013 3.1909 1.4136 0
M  V30 6961 C 657.361 3.81023 1.87368 0
M  V30 6962 O 658.385 3.22571 1.51084 0
M  V30 6963 O 657.244 4.83722 2.54312 0
M  V30 6964 H 654.338 0.714781 0.415953 0
M  V30 6965 H 656.884 1.69248 0.123817 0
M  V30 6966 H 655.656 3.86424 0.61579 0
M  V30 6967 H 655.279 3.29043 2.23196 0
M  V30 6968 N 656.276 -0.40816 1.52223 0
M  V30 6969 C 657.206 -1.5042 1.78595 0
M  V30 6970 C 658.187 -1.57723 0.636974 0
M  V30 6971 O 659.372 -1.72982 0.882664 0
M  V30 6972 C 656.502 -2.88232 1.93751 0
M  V30 6973 C 655.456 -2.95779 3.09352 0
M  V30 6974 C 654.782 -4.35855 3.09732 0
M  V30 6975 C 656.082 -2.67175 4.48793 0
M  V30 6976 H 657.776 -1.28601 2.70374 0
M  V30 6977 H 655.322 -0.617221 1.30101 0
M  V30 6978 H 657.275 -3.64895 2.10783 0
M  V30 6979 H 655.999 -3.11347 0.986443 0
M  V30 6980 H 654.658 -2.21561 2.92072 0
M  V30 6981 H 654.306 -4.55981 2.12346 0
M  V30 6982 H 654.006 -4.41829 3.87377 0
M  V30 6983 H 655.53 -5.14451 3.28895 0
M  V30 6984 H 656.944 -3.3356 4.66273 0
M  V30 6985 H 655.341 -2.84523 5.28362 0
M  V30 6986 H 656.411 -1.62609 4.56822 0
M  V30 6987 N 657.755 -1.42862 -0.66545 0
M  V30 6988 C 658.98 -1.47456 -1.45848 0
M  V30 6989 C 659.405 -0.0900312 -1.87884 0
M  V30 6990 O 658.763 0.913587 -1.56599 0
M  V30 6991 C 658.811 -2.41514 -2.67774 0
M  V30 6992 O 657.915 -1.89296 -3.66389 0
M  V30 6993 H 657.256 -0.499236 -0.437789 0
M  V30 6994 H 659.786 -1.8765 -0.815394 0
M  V30 6995 H 659.796 -2.58409 -3.15735 0
M  V30 6996 H 658.471 -3.42099 -2.36519 0
M  V30 6997 H 657.048 -1.82003 -3.25468 0
M  V30 6998 N 659.233 0.902656 -1.29189 0
M  V30 6999 C 660.165 2.01149 -1.09872 0
M  V30 7000 C 661.178 1.62732 -0.0471046 0
M  V30 7001 O 662.367 1.76107 -0.29132 0
M  V30 7002 C 659.467 3.32612 -0.649818 0
M  V30 7003 C 658.64 3.99574 -1.7793 0
M  V30 7004 C 657.699 5.09325 -1.32191 0
M  V30 7005 O 656.725 5.31919 -2.02611 0
M  V30 7006 N 657.927 5.80185 -0.191171 0
M  V30 7007 H 660.692 2.18276 -2.05368 0
M  V30 7008 H 658.253 1.07466 -1.2109 0
M  V30 7009 H 660.245 4.03375 -0.327199 0
M  V30 7010 H 658.815 3.11876 0.212597 0
M  V30 7011 H 658.035 3.22213 -2.27095 0
M  V30 7012 H 659.323 4.41056 -2.53668 0
M  V30 7013 H 658.721 5.64312 0.396016 0
M  V30 7014 H 657.278 6.5176 0.0721001 0
M  V30 7015 N 660.711 1.11618 1.11262 0
M  V30 7016 C 661.957 0.867463 1.83311 0
M  V30 7017 C 662.29 -0.605366 1.84524 0
M  V30 7018 O 661.565 -1.44704 1.29965 0
M  V30 7019 C 661.848 1.43207 3.30399 0
M  V30 7020 C 661.701 2.97265 3.3757 0
M  V30 7021 C 663.02 1.08454 4.26528 0
M  V30 7022 H 660.139 0.316578 0.665543 0
M  V30 7023 H 662.781 1.38137 1.30454 0
M  V30 7024 H 660.931 0.994982 3.75543 0
M  V30 7025 H 662.603 3.49591 3.00971 0
M  V30 7026 H 660.846 3.33237 2.77733 0
M  V30 7027 H 661.517 3.31859 4.41105 0
M  V30 7028 H 663.993 1.4619 3.89574 0
M  V30 7029 H 662.869 1.50633 5.27826 0
M  V30 7030 H 663.13 -0.00444568 4.421 0
M  V30 7031 N 662.189 -1.289 0.906776 0
M  V30 7032 C 663.419 -1.99112 0.551168 0
M  V30 7033 C 663.827 -1.67998 -0.870243 0
M  V30 7034 O 663.17 -0.92525 -1.58697 0
M  V30 7035 C 663.232 -3.53162 0.672065 0
M  V30 7036 C 662.896 -4.07849 2.06174 0
M  V30 7037 C 663.893 -4.22212 3.0337 0
M  V30 7038 C 661.578 -4.4271 2.37304 0
M  V30 7039 C 663.572 -4.70678 4.29815 0
M  V30 7040 C 661.259 -4.90871 3.6399 0
M  V30 7041 C 662.257 -5.04811 4.6006 0
M  V30 7042 O 661.945 -5.51925 5.84495 0
M  V30 7043 H 661.677 -0.642728 0.209469 0
M  V30 7044 H 664.231 -1.65234 1.22012 0
M  V30 7045 H 662.461 -3.86662 -0.05394 0
M  V30 7046 H 664.15 -4.046 0.324579 0
M  V30 7047 H 664.916 -3.9556 2.80637 0
M  V30 7048 H 660.795 -4.31114 1.63283 0
M  V30 7049 H 664.339 -4.81474 5.04806 0
M  V30 7050 H 660.236 -5.16961 3.86551 0
M  V30 7051 H 661.004 -5.70225 5.87185 0
M  V30 7052 N 663.667 -0.670007 -1.42649 0
M  V30 7053 C 664.577 0.0114788 -2.34597 0
M  V30 7054 C 665.593 0.794055 -1.54825 0
M  V30 7055 O 666.769 0.737472 -1.87412 0
M  V30 7056 C 663.834 0.954436 -3.33304 0
M  V30 7057 C 662.895 0.166925 -4.28975 0
M  V30 7058 C 662.128 1.06497 -5.22967 0
M  V30 7059 O 662.351 2.30446 -5.21777 0
M  V30 7060 O 661.285 0.528347 -5.99577 0
M  V30 7061 H 665.111 -0.745794 -2.944 0
M  V30 7062 H 662.696 -0.430228 -1.43071 0
M  V30 7063 H 664.578 1.49589 -3.93956 0
M  V30 7064 H 663.253 1.69164 -2.7598 0
M  V30 7065 H 662.16 -0.418515 -3.71752 0
M  V30 7066 H 663.493 -0.531067 -4.89327 0
M  V30 7067 N 665.145 1.52092 -0.413018 0
M  V30 7068 C 666.075 2.30021 0.401567 0
M  V30 7069 C 667.056 1.34395 1.04269 0
M  V30 7070 O 668.241 1.63304 1.05097 0
M  V30 7071 C 665.371 3.12447 1.51638 0
M  V30 7072 C 664.325 4.16153 1.00005 0
M  V30 7073 C 663.651 4.86948 2.20875 0
M  V30 7074 C 664.951 5.22275 0.0513757 0
M  V30 7075 H 666.645 2.98365 -0.248704 0
M  V30 7076 H 664.191 1.4349 -0.121052 0
M  V30 7077 H 666.144 3.65733 2.09326 0
M  V30 7078 H 664.868 2.41879 2.19458 0
M  V30 7079 H 663.527 3.63882 0.445549 0
M  V30 7080 H 663.175 4.12905 2.8726 0
M  V30 7081 H 662.875 5.57057 1.86978 0
M  V30 7082 H 664.399 5.43048 2.79162 0
M  V30 7083 H 665.813 5.70778 0.537176 0
M  V30 7084 H 664.21 5.9977 -0.198977 0
M  V30 7085 H 665.28 4.76611 -0.892736 0
M  V30 7086 N 666.623 0.143563 1.56945 0
M  V30 7087 C 667.553 -0.7936 2.196 0
M  V30 7088 C 668.534 -1.25955 1.14321 0
M  V30 7089 O 669.719 -1.31773 1.42651 0
M  V30 7090 C 666.849 -2.03424 2.81489 0
M  V30 7091 C 665.803 -1.70519 3.92565 0
M  V30 7092 C 665.129 -3.01817 4.41373 0
M  V30 7093 C 666.429 -0.95449 5.13504 0
M  V30 7094 H 668.123 -0.271423 2.98167 0
M  V30 7095 H 665.669 -0.12911 1.4342 0
M  V30 7096 H 667.622 -2.69463 3.23987 0
M  V30 7097 H 666.346 -2.58008 2.00248 0
M  V30 7098 H 665.005 -1.06859 3.5068 0
M  V30 7099 H 664.653 -3.54386 3.56959 0
M  V30 7100 H 664.353 -2.80565 5.16292 0
M  V30 7101 H 665.877 -3.68934 4.86539 0
M  V30 7102 H 667.291 -1.5169 5.52868 0
M  V30 7103 H 665.688 -0.842035 5.94163 0
M  V30 7104 H 666.758 0.0544033 4.84869 0
M  V30 7105 N 668.101 -1.57061 -0.130224 0
M  V30 7106 C 669.011 -2.02802 -1.17934 0
M  V30 7107 C 670.027 -0.946378 -1.46013 0
M  V30 7108 O 671.203 -1.25708 -1.57351 0
M  V30 7109 C 668.268 -2.41368 -2.48882 0
M  V30 7110 C 667.329 -3.63561 -2.28301 0
M  V30 7111 C 666.562 -4.00279 -3.53005 0
M  V30 7112 O 666.785 -3.37463 -4.59864 0
M  V30 7113 O 665.719 -4.93441 -3.44673 0
M  V30 7114 H 669.545 -2.92394 -0.820958 0
M  V30 7115 H 667.13 -1.45475 -0.340197 0
M  V30 7116 H 669.012 -2.66958 -3.26054 0
M  V30 7117 H 667.687 -1.54926 -2.84217 0
M  V30 7118 H 666.594 -3.43136 -1.49025 0
M  V30 7119 H 667.927 -4.50673 -1.97875 0
M  V30 7120 N 669.579 0.400081 -1.52437 0
M  V30 7121 C 670.526 1.48803 -1.76426 0
M  V30 7122 C 671.496 1.5461 -0.607032 0
M  V30 7123 O 672.681 1.71041 -0.845563 0
M  V30 7124 C 669.821 2.86156 -1.92896 0
M  V30 7125 C 668.934 2.89587 -3.20567 0
M  V30 7126 C 668.069 4.18296 -3.27417 0
M  V30 7127 C 667.108 4.15736 -4.49255 0
M  V30 7128 N 666.245 5.36032 -4.53447 0
M  V30 7129 H 671.085 1.27649 -2.69276 0
M  V30 7130 H 668.622 0.619451 -1.33421 0
M  V30 7131 H 670.58 3.65901 -2.00429 0
M  V30 7132 H 669.21 3.05785 -1.03418 0
M  V30 7133 H 668.262 2.02278 -3.22161 0
M  V30 7134 H 669.574 2.83562 -4.10358 0
M  V30 7135 H 668.728 5.06439 -3.34072 0
M  V30 7136 H 667.467 4.27028 -2.35581 0
M  V30 7137 H 666.472 3.25982 -4.42737 0
M  V30 7138 H 667.697 4.08636 -5.42396 0
M  V30 7139 H 665.643 5.45415 -3.64498 0
M  V30 7140 H 665.56 5.32038 -5.37096 0
M  V30 7141 H 666.828 6.26104 -4.64343 0
M  V30 7142 N 671.057 1.43213 0.657864 0
M  V30 7143 C 672.334 1.35063 1.41483 0
M  V30 7144 C 672.714 -0.0038314 2.111 0
M  V30 7145 O 672.062 -1.02018 2.04462 0
M  V30 7146 C 672.272 2.53061 2.40335 0
M  V30 7147 C 673.62 2.9594 3.04474 0
M  V30 7148 O 674.644 2.53074 2.50663 0
M  V30 7149 O 673.503 3.70184 4.02027 0
M  V30 7150 H 670.597 0.533517 0.631893 0
M  V30 7151 H 673.143 1.55253 0.685162 0
M  V30 7152 H 671.915 3.43283 1.87809 0
M  V30 7153 H 671.538 2.34945 3.20759 0
M  V30 7154 N 672.536 -0.895792 1.29666 0
M  V30 7155 C 673.766 -1.67757 1.20586 0
M  V30 7156 C 674.174 -1.87729 -0.235432 0
M  V30 7157 O 673.517 -1.41706 -1.16898 0
M  V30 7158 C 673.579 -3.08117 1.85215 0
M  V30 7159 C 673.243 -3.1136 3.3452 0
M  V30 7160 C 674.24 -2.91217 4.30684 0
M  V30 7161 C 671.925 -3.33302 3.75786 0
M  V30 7162 C 673.919 -2.92955 5.66089 0
M  V30 7163 C 671.606 -3.3467 5.11311 0
M  V30 7164 C 672.604 -3.14519 6.06273 0
M  V30 7165 O 672.292 -3.15684 7.39323 0
M  V30 7166 H 672.024 -0.530601 0.418854 0
M  V30 7167 H 674.578 -1.12831 1.71634 0
M  V30 7168 H 672.808 -3.64661 1.28683 0
M  V30 7169 H 674.497 -3.68399 1.70403 0
M  V30 7170 H 675.263 -2.74074 4.00136 0
M  V30 7171 H 671.142 -3.48025 3.02324 0
M  V30 7172 H 674.686 -2.77145 6.40185 0
M  V30 7173 H 670.583 -3.51346 5.41504 0
M  V30 7174 H 671.351 -3.31924 7.48177 0
M  V30 7175 N 674.014 -1.12206 -1.10668 0
M  V30 7176 C 675.43 -0.857619 -1.346 0
M  V30 7177 C 675.63 0.513542 -1.94846 0
M  V30 7178 O 674.686 1.26273 -2.18658 0
M  V30 7179 C 675.999 -1.97212 -2.26998 0
M  V30 7180 C 677.547 -2.00272 -2.40542 0
M  V30 7181 C 678.022 -3.10948 -3.36267 0
M  V30 7182 N 679.513 -3.10375 -3.43834 0
M  V30 7183 C 680.248 -3.92651 -4.17867 0
M  V30 7184 N 679.744 -4.84911 -4.94807 0
M  V30 7185 N 681.537 -3.80798 -4.1346 0
M  V30 7186 H 673.688 -2.00558 -0.699306 0
M  V30 7187 H 675.951 -0.872612 -0.370477 0
M  V30 7188 H 675.657 -2.96002 -1.89936 0
M  V30 7189 H 675.531 -1.87521 -3.27286 0
M  V30 7190 H 677.918 -1.02103 -2.76874 0
M  V30 7191 H 677.999 -2.14037 -1.40077 0
M  V30 7192 H 677.643 -4.09348 -3.00661 0
M  V30 7193 H 677.573 -2.94421 -4.36605 0
M  V30 7194 H 680.064 -2.43536 -2.88961 0
M  V30 7195 H 680.377 -5.44207 -5.48688 0
M  V30 7196 H 678.722 -4.88926 -4.93939 0
M  V30 7197 H 681.913 -3.08058 -3.52445 0
M  V30 7198 H 682.086 -4.4515 -4.70898 0
M  V30 7199 N 675.492 1.28418 -0.913599 0
M  V30 7200 C 676.425 2.25557 -0.346328 0
M  V30 7201 C 677.403 1.53038 0.549366 0
M  V30 7202 O 678.587 1.81937 0.493055 0
M  V30 7203 C 675.714 3.34915 0.504961 0
M  V30 7204 C 674.76 4.25257 -0.325334 0
M  V30 7205 S 675.593 5.06718 -1.73198 0
M  V30 7206 C 676.749 6.19569 -0.887988 0
M  V30 7207 H 676.982 2.73325 -1.16965 0
M  V30 7208 H 674.515 1.36855 -0.714841 0
M  V30 7209 H 676.473 3.98376 0.990301 0
M  V30 7210 H 675.134 2.85814 1.30267 0
M  V30 7211 H 674.327 5.02947 0.325589 0
M  V30 7212 H 673.929 3.66519 -0.744321 0
M  V30 7213 H 676.221 6.77398 -0.117568 0
M  V30 7214 H 677.164 6.88908 -1.63742 0
M  V30 7215 H 677.572 5.62812 -0.436228 0
M  V30 7216 N 676.97 0.677563 1.42291 0
M  V30 7217 C 677.88 0.000962654 2.346 0
M  V30 7218 C 678.896 -0.785833 1.55244 0
M  V30 7219 O 680.072 -0.727523 1.87801 0
M  V30 7220 C 677.137 -0.936746 3.33805 0
M  V30 7221 C 676.198 -0.144173 4.29058 0
M  V30 7222 C 675.431 -1.03722 5.23524 0
M  V30 7223 O 675.654 -2.27675 5.22992 0
M  V30 7224 O 674.588 -0.496542 5.99848 0
M  V30 7225 H 678.414 0.761397 2.94001 0
M  V30 7226 H 675.999 0.43781 1.42841 0
M  V30 7227 H 677.881 -1.47497 3.94744 0
M  V30 7228 H 676.556 -1.67698 2.76874 0
M  V30 7229 H 675.463 0.438224 3.71524 0
M  V30 7230 H 676.796 0.55701 4.89038 0
M  V30 7231 N 678.448 -1.51871 0.421078 0
M  V30 7232 C 679.864 -1.59435 0.0725398 0
M  V30 7233 C 680.064 -1.43315 -1.41644 0
M  V30 7234 O 679.12 -1.26614 -2.18461 0
M  V30 7235 C 680.433 -2.9509 0.578132 0
M  V30 7236 C 681.981 -3.08356 0.537149 0
M  V30 7237 C 682.456 -4.4651 1.01945 0
M  V30 7238 N 683.947 -4.52784 0.976758 0
M  V30 7239 C 684.682 -5.57976 1.32099 0
M  V30 7240 N 684.178 -6.70664 1.73727 0
M  V30 7241 N 685.971 -5.48248 1.2402 0
M  V30 7242 H 678.122 -1.60595 1.39007 0
M  V30 7243 H 680.385 -0.756138 0.571803 0
M  V30 7244 H 680.091 -3.12205 1.61929 0
M  V30 7245 H 679.965 -3.772 -0.00578374 0
M  V30 7246 H 682.352 -2.90919 -0.494991 0
M  V30 7247 H 682.433 -2.28125 1.15727 0
M  V30 7248 H 682.077 -4.64692 2.04997 0
M  V30 7249 H 682.007 -5.25256 0.376023 0
M  V30 7250 H 684.498 -3.71898 0.670851 0
M  V30 7251 H 684.811 -7.46932 1.98274 0
M  V30 7252 H 683.156 -6.71914 1.77641 0
M  V30 7253 H 686.347 -4.59095 0.913756 0
M  V30 7254 H 686.52 -6.30119 1.51176 0
M  V30 7255 N 679.926 -0.151884 -1.56866 0
M  V30 7256 C 681.337 0.368128 -1.83035 0
M  V30 7257 C 681.688 1.64402 -1.07082 0
M  V30 7258 O 680.813 2.14056 -0.317647 0
M  V30 7259 C 681.408 0.674676 -3.32014 0
M  V30 7260 C 679.967 1.13919 -3.58747 0
M  V30 7261 C 679.114 0.164833 -2.7681 0
M  V30 7262 H 682.065 -0.376499 -1.54169 0
M  V30 7263 H 682.086 1.52883 -3.48435 0
M  V30 7264 H 681.598 -0.254113 -3.87267 0
M  V30 7265 H 679.699 2.08375 -3.08886 0
M  V30 7266 H 679.812 1.06179 -4.67186 0
M  V30 7267 H 678.176 0.658419 -2.46043 0
M  V30 7268 H 678.959 -0.757633 -3.34836 0
M  V30 7269 N 681.404 1.57128 0.121893 0
M  V30 7270 C 682.314 2.03425 1.16857 0
M  V30 7271 C 683.33 0.954108 1.45509 0
M  V30 7272 O 684.506 1.26541 1.56682 0
M  V30 7273 C 681.571 2.42685 2.47599 0
M  V30 7274 C 680.632 3.64767 2.2637 0
M  V30 7275 C 679.865 4.02145 3.50878 0
M  V30 7276 O 680.088 3.39897 4.58068 0
M  V30 7277 O 679.022 4.95262 3.42051 0
M  V30 7278 H 682.848 2.92825 0.80544 0
M  V30 7279 H 680.433 1.45654 0.332477 0
M  V30 7280 H 682.315 2.68684 3.24634 0
M  V30 7281 H 680.99 1.56432 2.83392 0
M  V30 7282 H 679.897 3.43922 1.47203 0
M  V30 7283 H 681.23 4.51716 1.95482 0
M  V30 7284 N 682.882 -0.391992 1.52647 0
M  V30 7285 C 684.13 -1.13507 1.67214 0
M  V30 7286 C 684.451 -1.90575 0.41304 0
M  V30 7287 O 683.721 -1.87348 -0.572498 0
M  V30 7288 H 682.301 -0.422013 0.616372 0
M  V30 7289 H 684.963 -0.44502 1.89751 0
M  V30 7290 H 684.059 -1.83964 2.52118 0
M  V30 7291 N 684.36 -1.4356 -0.65026 0
M  V30 7292 C 685.6 -1.46839 -1.42188 0
M  V30 7293 C 685.964 -0.0911433 -1.91784 0
M  V30 7294 O 687.165 0.00137545 -2.688 0
M  V30 7295 C 685.436 -2.48411 -2.56957 0
M  V30 7296 S 686.995 -2.70589 -3.45438 0
M  V30 7297 H 683.813 -0.519596 -0.485325 0
M  V30 7298 H 686.415 -1.80347 -0.75466 0
M  V30 7299 H 685.119 -3.47209 -2.18801 0
M  V30 7300 H 684.65 -2.16411 -3.28527 0
M  V30 7301 H 686.665 -2.00738 -4.53782 0
M  V30 7302 N 685.838 0.888903 -1.30139 0
M  V30 7303 C 687.249 1.45578 -1.16893 0
M  V30 7304 C 687.6 1.94825 0.231866 0
M  V30 7305 O 686.725 1.84661 1.12824 0
M  V30 7306 C 687.32 2.646 -2.11595 0
M  V30 7307 C 685.879 3.17389 -2.02339 0
M  V30 7308 C 685.026 1.90081 -2.01902 0
M  V30 7309 H 687.977 0.69921 -1.42467 0
M  V30 7310 H 687.998 3.40687 -1.69449 0
M  V30 7311 H 687.51 2.28726 -3.13538 0
M  V30 7312 H 685.611 3.5793 -1.03523 0
M  V30 7313 H 685.724 3.80955 -2.90534 0
M  V30 7314 H 684.088 2.08246 -1.46648 0
M  V30 7315 H 684.871 1.5647 -3.05568 0
M  V30 7316 N 687.317 1.12792 1.10072 0
M  V30 7317 C 688.227 0.812369 2.20086 0
M  V30 7318 C 689.243 -0.200349 1.72843 0
M  V30 7319 O 690.419 -0.0330262 2.01373 0
M  V30 7320 C 687.484 0.275685 3.45602 0
M  V30 7321 C 686.545 1.34881 4.07561 0
M  V30 7322 C 685.778 0.837639 5.27086 0
M  V30 7323 O 686.001 -0.327224 5.69461 0
M  V30 7324 O 684.935 1.60894 5.79997 0
M  V30 7325 H 688.761 1.73133 2.49517 0
M  V30 7326 H 686.346 0.904863 1.18881 0
M  V30 7327 H 688.228 -0.0185375 4.21396 0
M  V30 7328 H 686.903 -0.615783 3.17789 0
M  V30 7329 H 685.81 1.69625 3.33434 0
M  V30 7330 H 687.143 2.21418 4.39585 0
M  V30 7331 N 688.795 -1.27931 0.920396 0
M  V30 7332 C 689.742 -2.27085 0.412422 0
M  V30 7333 C 690.712 -1.57858 -0.516725 0
M  V30 7334 O 691.897 -1.85717 -0.437475 0
M  V30 7335 C 689.037 -3.43466 -0.335399 0
M  V30 7336 C 688.15 -4.27425 0.627017 0
M  V30 7337 C 687.285 -5.31016 -0.139916 0
M  V30 7338 C 686.324 -6.06641 0.815683 0
M  V30 7339 N 685.461 -7.02052 0.0818439 0
M  V30 7340 H 690.301 -2.69913 1.26298 0
M  V30 7341 H 687.838 -1.32732 0.634076 0
M  V30 7342 H 689.796 -4.09744 -0.785226 0
M  V30 7343 H 688.426 -3.01611 -1.15025 0
M  V30 7344 H 687.478 -3.6113 1.19537 0
M  V30 7345 H 688.79 -4.79969 1.35763 0
M  V30 7346 H 687.944 -6.03208 -0.649998 0
M  V30 7347 H 686.683 -4.79257 -0.903543 0
M  V30 7348 H 685.688 -5.33294 1.33708 0
M  V30 7349 H 686.913 -6.60489 1.57897 0
M  V30 7350 H 684.859 -6.52634 -0.663671 0
M  V30 7351 H 684.776 -7.52249 0.752163 0
M  V30 7352 H 686.044 -7.78432 -0.407825 0
M  V30 7353 N 690.273 -0.685099 -1.4193 0
M  V30 7354 C 691.519 -0.211971 -2.01689 0
M  V30 7355 C 691.852 1.18189 -1.54094 0
M  V30 7356 O 691.127 1.79559 -0.747572 0
M  V30 7357 C 691.41 -0.258019 -3.59174 0
M  V30 7358 C 691.263 -1.68807 -4.16922 0
M  V30 7359 C 692.582 0.388044 -4.38386 0
M  V30 7360 H 689.701 -0.0784987 -0.732808 0
M  V30 7361 H 692.343 -0.871837 -1.68816 0
M  V30 7362 H 690.493 0.303832 -3.8731 0
M  V30 7363 H 692.165 -2.30296 -3.99702 0
M  V30 7364 H 690.408 -2.22553 -3.72361 0
M  V30 7365 H 691.079 -1.6719 -5.26072 0
M  V30 7366 H 693.555 -0.0903432 -4.16002 0
M  V30 7367 H 692.431 0.325232 -5.47936 0
M  V30 7368 H 692.692 1.4672 -4.17044 0
M  V30 7369 N 691.751 1.51645 -0.429126 0
M  V30 7370 C 692.981 2.06133 0.138793 0
M  V30 7371 C 693.389 1.29735 1.37716 0
M  V30 7372 O 692.732 0.347955 1.80375 0
M  V30 7373 C 692.794 3.55504 0.534493 0
M  V30 7374 C 692.458 4.53098 -0.595917 0
M  V30 7375 C 693.455 4.98815 -1.46558 0
M  V30 7376 C 691.14 4.96296 -0.774309 0
M  V30 7377 C 693.134 5.86394 -2.4984 0
M  V30 7378 C 690.821 5.83667 -1.81042 0
M  V30 7379 C 691.819 6.28613 -2.67086 0
M  V30 7380 O 691.507 7.14251 -3.68919 0
M  V30 7381 H 691.239 0.675833 0.0150263 0
M  V30 7382 H 693.793 1.96301 -0.604584 0
M  V30 7383 H 692.023 3.63092 1.33045 0
M  V30 7384 H 693.712 3.92545 1.03262 0
M  V30 7385 H 694.478 4.66143 -1.33925 0
M  V30 7386 H 690.357 4.60859 -0.114178 0
M  V30 7387 H 693.901 6.21398 -3.17034 0
M  V30 7388 H 689.798 6.15753 -1.93698 0
M  V30 7389 H 690.566 7.3241 -3.65402 0
M  V30 7390 N 693.229 0.160201 1.56784 0
M  V30 7391 C 694.139 -0.787167 2.21 0
M  V30 7392 C 695.155 -1.26167 1.19825 0
M  V30 7393 O 696.331 -1.31611 1.52448 0
M  V30 7394 C 693.396 -2.00364 2.8294 0
M  V30 7395 C 692.457 -1.5771 3.99282 0
M  V30 7396 C 691.69 -2.73558 4.58259 0
M  V30 7397 O 691.913 -3.90129 4.16119 0
M  V30 7398 O 690.847 -2.48271 5.48311 0
M  V30 7399 H 694.673 -0.270462 3.02493 0
M  V30 7400 H 692.258 -0.0674666 1.49248 0
M  V30 7401 H 694.14 -2.71529 3.22257 0
M  V30 7402 H 692.815 -2.50961 2.04451 0
M  V30 7403 H 691.722 -0.835274 3.64656 0
M  V30 7404 H 693.055 -1.11815 4.79331 0
M  V30 7405 N 694.707 -1.5719 -0.113559 0
M  V30 7406 C 695.637 -2.03772 -1.14013 0
M  V30 7407 C 696.618 -0.923176 -1.42869 0
M  V30 7408 O 697.803 -1.19325 -1.53216 0
M  V30 7409 C 694.933 -2.44663 -2.4649 0
M  V30 7410 C 693.887 -3.59612 -2.32085 0
M  V30 7411 C 693.213 -3.8642 -3.69573 0
M  V30 7412 C 694.513 -4.91149 -1.7768 0
M  V30 7413 H 696.207 -2.89785 -0.752665 0
M  V30 7414 H 693.753 -1.39412 -0.360609 0
M  V30 7415 H 695.706 -2.75857 -3.18561 0
M  V30 7416 H 694.43 -1.55628 -2.87137 0
M  V30 7417 H 693.089 -3.28636 -1.62461 0
M  V30 7418 H 692.737 -2.94581 -4.07715 0
M  V30 7419 H 692.437 -4.63797 -3.60786 0
M  V30 7420 H 693.961 -4.2007 -4.4314 0
M  V30 7421 H 695.375 -5.20843 -2.39574 0
M  V30 7422 H 693.772 -5.72562 -1.79701 0
M  V30 7423 H 694.842 -4.79301 -0.734776 0
M  V30 7424 N 696.185 0.383891 -1.52853 0
M  V30 7425 C 697.118 1.49105 -1.72751 0
M  V30 7426 C 698.096 1.52077 -0.575438 0
M  V30 7427 O 699.28 1.70406 -0.805854 0
M  V30 7428 C 696.407 2.87551 -1.78975 0
M  V30 7429 C 695.453 3.02383 -3.00777 0
M  V30 7430 S 696.286 2.73048 -4.60657 0
M  V30 7431 C 697.442 4.13678 -4.69704 0
M  V30 7432 H 697.675 1.32002 -2.66388 0
M  V30 7433 H 695.208 0.577088 -1.4321 0
M  V30 7434 H 697.166 3.6733 -1.83246 0
M  V30 7435 H 695.827 3.01977 -0.864215 0
M  V30 7436 H 695.02 4.03733 -3.01688 0
M  V30 7437 H 694.622 2.30504 -2.94523 0
M  V30 7438 H 696.914 5.07676 -4.48633 0
M  V30 7439 H 697.857 4.1778 -5.71721 0
M  V30 7440 H 698.265 3.99825 -3.98497 0
M  V30 7441 N 697.663 1.43903 0.642637 0
M  V30 7442 C 699.079 1.27536 0.959519 0
M  V30 7443 C 699.279 0.202751 2.00477 0
M  V30 7444 O 698.335 -0.415256 2.49062 0
M  V30 7445 C 699.648 2.6432 1.43372 0
M  V30 7446 C 701.196 2.71937 1.54981 0
M  V30 7447 C 701.671 4.09164 2.05789 0
M  V30 7448 N 703.162 4.11282 2.13076 0
M  V30 7449 C 703.897 5.14303 2.53534 0
M  V30 7450 N 703.393 6.27693 2.93212 0
M  V30 7451 N 705.186 5.01657 2.53567 0
M  V30 7452 H 697.337 2.12344 -0.0488376 0
M  V30 7453 H 699.6 0.947124 0.0407559 0
M  V30 7454 H 699.306 3.43826 0.740048 0
M  V30 7455 H 699.18 2.90432 2.40685 0
M  V30 7456 H 701.567 1.92757 2.23448 0
M  V30 7457 H 701.648 2.49578 0.560739 0
M  V30 7458 H 701.292 4.88815 1.37921 0
M  V30 7459 H 701.222 4.28893 3.05546 0
M  V30 7460 H 703.713 3.2944 1.85143 0
M  V30 7461 H 704.026 7.02125 3.22863 0
M  V30 7462 H 702.371 6.31149 2.90991 0
M  V30 7463 H 705.562 4.12134 2.21952 0
M  V30 7464 H 705.735 5.82072 2.84774 0
M  V30 7465 N 699.141 -0.881989 1.30609 0
M  V30 7466 C 700.104 -1.96957 1.1722 0
M  V30 7467 C 701.104 -1.60472 0.102598 0
M  V30 7468 O 702.294 -1.70628 0.350943 0
M  V30 7469 C 699.426 -3.31463 0.796572 0
M  V30 7470 H 700.619 -2.10262 2.13846 0
M  V30 7471 H 698.172 -1.06877 1.14048 0
M  V30 7472 H 698.907 -3.23859 -0.169053 0
M  V30 7473 H 698.692 -3.59314 1.56959 0
M  V30 7474 H 700.182 -4.11233 0.72645 0
M  V30 7475 N 700.619 -1.13374 -1.09472 0
M  V30 7476 C 701.859 -0.905422 -1.83252 0
M  V30 7477 C 702.223 0.558396 -1.83701 0
M  V30 7478 O 703.424 0.904254 -2.53134 0
M  V30 7479 C 701.695 -1.47658 -3.25472 0
M  V30 7480 S 703.254 -1.38825 -4.16261 0
M  V30 7481 H 700.072 -0.326371 -0.631667 0
M  V30 7482 H 702.674 -1.44517 -1.31663 0
M  V30 7483 H 701.378 -2.53533 -3.22722 0
M  V30 7484 H 700.909 -0.934756 -3.82133 0
M  V30 7485 H 702.924 -0.366379 -4.94846 0
M  V30 7486 N 702.098 1.27442 -0.927168 0
M  V30 7487 C 703.344 1.95025 -0.577651 0
M  V30 7488 C 703.699 1.71534 0.871421 0
M  V30 7489 O 702.992 1.03354 1.61333 0
M  V30 7490 C 703.186 3.47413 -0.838994 0
M  V30 7491 C 703.015 3.85721 -2.31192 0
M  V30 7492 C 701.785 4.09199 -2.96452 0
M  V30 7493 C 703.983 3.95352 -3.28939 0
M  V30 7494 N 701.965 4.34283 -4.33903 0
M  V30 7495 C 703.336 4.24805 -4.51598 0
M  V30 7496 C 705.391 3.77926 -3.24155 0
M  V30 7497 C 704.094 4.38645 -5.70073 0
M  V30 7498 C 706.12 3.9299 -4.41942 0
M  V30 7499 C 705.482 4.22829 -5.63379 0
M  V30 7500 H 701.581 0.736983 -0.261495 0
M  V30 7501 H 704.165 1.53816 -1.19368 0
M  V30 7502 H 702.336 3.87581 -0.252129 0
M  V30 7503 H 704.068 4.02166 -0.452158 0
M  V30 7504 H 700.823 4.04013 -2.47125 0
M  V30 7505 H 701.247 4.50883 -5.05008 0
M  V30 7506 H 705.889 3.53897 -2.31337 0
M  V30 7507 H 703.607 4.615 -6.63358 0
M  V30 7508 H 707.193 3.80926 -4.39757 0
M  V30 7509 H 706.073 4.34234 -6.53001 0
M  V30 7510 N 703.576 0.692616 1.41565 0
M  V30 7511 C 704.508 -0.0137132 2.29196 0
M  V30 7512 C 705.521 -0.747417 1.44629 0
M  V30 7513 O 706.71 -0.598611 1.68163 0
M  V30 7514 C 703.81 -1.04347 3.22436 0
M  V30 7515 C 702.983 -0.379985 4.35746 0
M  V30 7516 C 702.042 -1.31195 5.09583 0
M  V30 7517 O 701.068 -0.805455 5.63472 0
M  V30 7518 N 702.27 -2.64443 5.16769 0
M  V30 7519 H 705.035 0.738614 2.90456 0
M  V30 7520 H 702.596 0.538415 1.52685 0
M  V30 7521 H 704.588 -1.6686 3.687 0
M  V30 7522 H 703.158 -1.69736 2.62504 0
M  V30 7523 H 702.378 0.424975 3.91903 0
M  V30 7524 H 703.666 0.0814904 5.08735 0
M  V30 7525 H 703.064 -3.08114 4.74428 0
M  V30 7526 H 701.621 -3.22159 5.66619 0
M  V30 7527 N 705.054 -1.51416 0.437162 0
M  V30 7528 C 706.3 -2.03035 -0.121818 0
M  V30 7529 C 706.655 -1.31551 -1.404 0
M  V30 7530 O 705.948 -0.421623 -1.86903 0
M  V30 7531 C 706.142 -3.55203 -0.39564 0
M  V30 7532 C 705.971 -4.4143 0.858452 0
M  V30 7533 C 704.741 -4.85751 1.39192 0
M  V30 7534 C 706.939 -4.83808 1.74454 0
M  V30 7535 N 704.921 -5.5619 2.59857 0
M  V30 7536 C 706.292 -5.53312 2.79724 0
M  V30 7537 C 708.347 -4.65795 1.75897 0
M  V30 7538 C 707.05 -6.06713 3.86383 0
M  V30 7539 C 709.076 -5.20112 2.81492 0
M  V30 7540 C 708.438 -5.89562 3.85482 0
M  V30 7541 H 704.537 -0.781981 -0.00541671 0
M  V30 7542 H 707.121 -1.85296 0.597792 0
M  V30 7543 H 705.292 -3.72958 -1.08429 0
M  V30 7544 H 707.024 -3.93489 -0.945963 0
M  V30 7545 H 703.779 -4.64058 0.945879 0
M  V30 7546 H 704.203 -5.96037 3.21044 0
M  V30 7547 H 708.845 -4.11562 0.968306 0
M  V30 7548 H 706.563 -6.6 4.66288 0
M  V30 7549 H 710.149 -5.08026 2.83551 0
M  V30 7550 H 709.029 -6.30838 4.65847 0
M  V30 7551 N 706.532 -0.168513 -1.56696 0
M  V30 7552 C 707.48 0.779791 -2.19139 0
M  V30 7553 C 708.474 1.23957 -1.1546 0
M  V30 7554 O 709.68 1.20555 -1.33666 0
M  V30 7555 H 706.055 0.269739 -0.701958 0
M  V30 7556 H 708.026 0.229156 -2.97519 0
M  V30 7557 C 706.775 2.00003 -2.84419 0
M  V30 7558 H 706.098 1.65527 -3.63924 0
M  V30 7559 H 707.538 2.64251 -3.31583 0
M  V30 7560 C 705.997 2.82187 -1.84044 0
M  V30 7561 O 706.527 3.79247 -1.32418 0
M  V30 7562 N 704.733 2.47145 -1.52864 0
M  V30 7563 H 704.28 1.68277 -1.9504 0
M  V30 7564 H 704.238 3.02422 -0.859569 0
M  V30 7565 N 708.01 1.57248 0.105221 0
M  V30 7566 C 709.421 1.74612 0.660865 0
M  V30 7567 C 709.772 0.789231 1.79626 0
M  V30 7568 O 708.897 -0.0346611 2.16372 0
M  V30 7569 C 709.492 3.16624 1.20559 0
M  V30 7570 C 708.051 3.35447 1.7074 0
M  V30 7571 C 707.198 2.70445 0.612764 0
M  V30 7572 H 710.149 1.5824 -0.12079 0
M  V30 7573 H 710.17 3.18937 2.07508 0
M  V30 7574 H 709.682 3.86245 0.379012 0
M  V30 7575 H 707.783 2.7089 2.5583 0
M  V30 7576 H 707.896 4.43702 1.80736 0
M  V30 7577 H 706.26 2.32061 1.04975 0
M  V30 7578 H 707.043 3.42699 -0.203066 0
M  V30 7579 N 709.488 -0.375779 1.53054 0
M  V30 7580 C 710.713 -1.14484 1.7294 0
M  V30 7581 C 711.138 -1.82572 0.452668 0
M  V30 7582 O 710.496 -1.71343 -0.592567 0
M  V30 7583 C 710.544 -2.15857 2.88857 0
M  V30 7584 O 709.648 -3.22725 2.56753 0
M  V30 7585 H 708.989 -0.332666 0.574656 0
M  V30 7586 H 711.519 -0.436025 1.999 0
M  V30 7587 H 711.529 -2.59631 3.14731 0
M  V30 7588 H 710.204 -1.65689 3.81471 0
M  V30 7589 H 708.781 -2.83996 2.41663 0
M  V30 7590 N 710.966 -1.44241 -0.634997 0
M  V30 7591 C 712.243 -1.37296 -1.39317 0
M  V30 7592 C 712.623 -0.0297532 -2.11079 0
M  V30 7593 O 711.971 0.987524 -2.06059 0
M  V30 7594 C 712.181 -2.56853 -2.36279 0
M  V30 7595 C 713.529 -3.00747 -2.99728 0
M  V30 7596 O 714.553 -2.5703 -2.46605 0
M  V30 7597 O 713.412 -3.76533 -3.96087 0
M  V30 7598 H 710.506 -0.543503 -0.623325 0
M  V30 7599 H 713.052 -1.56324 -0.660376 0
M  V30 7600 H 711.824 -3.46228 -1.82324 0
M  V30 7601 H 711.447 -2.40019 -3.16981 0
M  V30 7602 N 712.444 0.87505 -1.31075 0
M  V30 7603 C 713.86 1.15997 -1.09622 0
M  V30 7604 C 714.06 2.01036 0.136611 0
M  V30 7605 O 713.116 2.38559 0.827397 0
M  V30 7606 C 714.429 1.85702 -2.36506 0
M  V30 7607 C 715.977 1.98425 -2.42067 0
M  V30 7608 C 716.452 2.71544 -3.68819 0
M  V30 7609 N 717.943 2.79084 -3.69684 0
M  V30 7610 C 718.678 3.36259 -4.64454 0
M  V30 7611 N 718.174 3.94406 -5.69575 0
M  V30 7612 N 719.967 3.34169 -4.51982 0
M  V30 7613 H 712.118 0.308258 -2.10151 0
M  V30 7614 H 714.381 0.199145 -0.926847 0
M  V30 7615 H 714.087 1.30663 -3.26527 0
M  V30 7616 H 713.961 2.86017 -2.45915 0
M  V30 7617 H 716.348 2.5263 -1.52518 0
M  V30 7618 H 716.429 0.971682 -2.36626 0
M  V30 7619 H 716.073 2.18008 -4.58732 0
M  V30 7620 H 716.003 3.73198 -3.71525 0
M  V30 7621 H 718.494 2.3781 -2.93691 0
M  V30 7622 H 718.807 4.36129 -6.37974 0
M  V30 7623 H 717.152 3.92797 -5.73355 0
M  V30 7624 H 720.343 2.87977 -3.69035 0
M  V30 7625 H 720.516 3.78431 -5.26017 0
M  V30 7626 N 713.922 1.13953 1.08869 0
M  V30 7627 C 715.333 0.916649 1.62648 0
M  V30 7628 C 715.684 -0.545589 1.88462 0
M  V30 7629 O 714.809 -1.41351 1.63856 0
M  V30 7630 C 715.404 1.65751 2.95486 0
M  V30 7631 C 713.963 1.48034 3.46068 0
M  V30 7632 C 713.11 1.68305 2.20383 0
M  V30 7633 H 716.061 1.292 0.921572 0
M  V30 7634 H 716.082 1.11794 3.63707 0
M  V30 7635 H 715.594 2.72171 2.76667 0
M  V30 7636 H 713.695 0.439416 3.7 0
M  V30 7637 H 713.808 2.24719 4.23129 0
M  V30 7638 H 712.172 1.10833 2.29321 0
M  V30 7639 H 712.955 2.76057 2.04077 0
M  V30 7640 N 715.4 -1.26948 0.933913 0
M  V30 7641 C 716.625 -1.98724 0.593589 0
M  V30 7642 C 717.05 -1.6915 -0.822801 0
M  V30 7643 O 716.408 -0.93533 -1.5531 0
M  V30 7644 C 716.456 -3.50834 0.833542 0
M  V30 7645 O 715.56 -4.12284 -0.0978788 0
M  V30 7646 H 714.901 -0.623683 0.227849 0
M  V30 7647 H 717.431 -1.61599 1.25486 0
M  V30 7648 H 717.441 -4.01018 0.75156 0
M  V30 7649 H 716.116 -3.71691 1.86597 0
M  V30 7650 H 714.693 -3.72884 0.0345443 0
M  V30 7651 N 716.879 -0.700114 -1.41195 0
M  V30 7652 C 718.126 -0.233006 -2.01155 0
M  V30 7653 C 718.454 1.16883 -1.55462 0
M  V30 7654 O 717.709 1.80395 -0.758695 0
M  V30 7655 C 718.008 -0.243986 -3.56566 0
M  V30 7656 C 717.674 -1.59397 -4.21786 0
M  V30 7657 C 716.336 -1.96355 -4.39316 0
M  V30 7658 C 718.688 -2.48192 -4.58312 0
M  V30 7659 C 716.016 -3.21683 -4.9065 0
M  V30 7660 C 718.368 -3.72857 -5.11039 0
M  V30 7661 C 717.032 -4.09951 -5.26779 0
M  V30 7662 H 716.302 -0.085263 -0.736078 0
M  V30 7663 H 718.949 -0.9001 -1.69028 0
M  V30 7664 H 717.254 0.506663 -3.8851 0
M  V30 7665 H 718.951 0.135031 -4.00773 0
M  V30 7666 H 715.541 -1.29654 -4.08519 0
M  V30 7667 H 719.725 -2.20918 -4.4442 0
M  V30 7668 H 714.981 -3.50412 -5.01021 0
M  V30 7669 H 719.155 -4.41844 -5.38282 0
M  V30 7670 H 716.782 -5.07136 -5.66319 0
M  V30 7671 N 718.357 1.51182 -0.445186 0
M  V30 7672 C 719.32 2.26501 0.350722 0
M  V30 7673 C 720.32 1.3025 0.942952 0
M  V30 7674 O 721.51 1.53897 0.816175 0
M  V30 7675 C 718.642 3.06274 1.49697 0
M  V30 7676 H 719.835 2.98299 -0.309474 0
M  V30 7677 H 717.388 1.55034 -0.198551 0
M  V30 7678 H 718.123 2.38911 2.19299 0
M  V30 7679 H 717.908 3.76979 1.0784 0
M  V30 7680 H 719.398 3.63306 2.05909 0
M  V30 7681 N 719.835 0.176821 1.56605 0
M  V30 7682 C 720.745 -0.763682 2.21822 0
M  V30 7683 C 721.761 -1.24889 1.21156 0
M  V30 7684 O 722.937 -1.29987 1.53836 0
M  V30 7685 C 720.002 -1.97352 2.8505 0
M  V30 7686 C 719.063 -1.53466 4.00932 0
M  V30 7687 C 718.296 -2.68682 4.61135 0
M  V30 7688 O 718.519 -3.85694 4.20234 0
M  V30 7689 O 717.453 -2.42442 5.50913 0
M  V30 7690 H 721.279 -0.238363 3.02763 0
M  V30 7691 H 718.864 -0.0516331 1.49311 0
M  V30 7692 H 720.746 -2.68096 3.25119 0
M  V30 7693 H 719.421 -2.48779 2.07101 0
M  V30 7694 H 718.328 -0.796551 3.65521 0
M  V30 7695 H 719.661 -1.06724 4.8049 0
M  V30 7696 N 721.313 -1.57302 -0.09688 0
M  V30 7697 C 722.562 -1.85183 -0.799388 0
M  V30 7698 C 722.875 -0.765818 -1.79985 0
M  V30 7699 O 724.081 -0.931696 -2.55013 0
M  V30 7700 C 722.537 -3.28399 -1.47249 0
M  V30 7701 C 722.145 -4.45066 -0.511888 0
M  V30 7702 C 723.889 -3.65506 -2.15883 0
M  V30 7703 C 721.796 -5.79315 -1.18948 0
M  V30 7704 H 720.726 -0.690752 -0.302287 0
M  V30 7705 H 723.377 -1.83425 -0.0523104 0
M  V30 7706 H 721.759 -3.24692 -2.26697 0
M  V30 7707 H 722.933 -4.60116 0.250962 0
M  V30 7708 H 721.248 -4.16343 0.0686576 0
M  V30 7709 H 723.845 -4.63087 -2.67309 0
M  V30 7710 H 724.188 -2.94041 -2.94696 0
M  V30 7711 H 724.721 -3.71094 -1.43298 0
M  V30 7712 H 721.46 -6.54007 -0.442198 0
M  V30 7713 H 720.98 -5.68111 -1.9238 0
M  V30 7714 H 722.659 -6.23816 -1.71646 0
M  V30 7715 N 722.791 0.367657 -1.53252 0
M  V30 7716 C 723.741 1.45035 -1.75923 0
M  V30 7717 C 724.725 1.48736 -0.613719 0
M  V30 7718 O 725.917 1.54012 -0.872313 0
M  V30 7719 C 723.046 2.82493 -1.9507 0
M  V30 7720 C 722.132 2.83279 -3.15617 0
M  V30 7721 N 722.523 2.53712 -4.37566 0
M  V30 7722 C 720.821 3.1444 -3.16297 0
M  V30 7723 C 721.522 2.62123 -5.19294 0
M  V30 7724 N 720.498 2.96747 -4.55458 0
M  V30 7725 H 724.3 1.21035 -2.6782 0
M  V30 7726 H 721.814 0.575822 -1.51849 0
M  V30 7727 H 723.811 3.60473 -2.0944 0
M  V30 7728 H 722.471 3.07459 -1.044 0
M  V30 7729 H 723.482 2.27344 -4.65333 0
M  V30 7730 H 720.159 3.44733 -2.35511 0
M  V30 7731 H 721.549 2.42628 -6.26563 0
M  V30 7732 N 724.269 1.44576 0.627338 0
M  V30 7733 C 725.201 1.47724 1.75243 0
M  V30 7734 C 726.214 0.370193 1.58535 0
M  V30 7735 O 727.403 0.636151 1.66779 0
M  V30 7736 C 724.503 1.2991 3.13012 0
M  V30 7737 C 723.676 2.5393 3.56143 0
M  V30 7738 C 722.735 2.30961 4.72804 0
M  V30 7739 O 721.761 3.04469 4.80923 0
M  V30 7740 N 722.963 1.34261 5.6476 0
M  V30 7741 H 725.728 2.44718 1.73012 0
M  V30 7742 H 723.289 1.40064 0.812022 0
M  V30 7743 H 725.281 1.12385 3.88782 0
M  V30 7744 H 723.851 0.412668 3.09864 0
M  V30 7745 H 723.071 2.86707 2.70542 0
M  V30 7746 H 724.359 3.36411 3.81713 0
M  V30 7747 H 723.757 0.735573 5.60897 0
M  V30 7748 H 722.314 1.22713 6.40144 0
M  V30 7749 N 725.747 -0.868086 1.31537 0
M  V30 7750 C 726.71 -1.95703 1.19302 0
M  V30 7751 C 727.71 -1.60355 0.119612 0
M  V30 7752 O 728.9 -1.70247 0.36902 0
M  V30 7753 C 726.032 -3.30599 0.831684 0
M  V30 7754 H 727.225 -2.07982 2.16064 0
M  V30 7755 H 724.778 -1.05661 1.15176 0
M  V30 7756 H 725.513 -3.2402 -0.134694 0
M  V30 7757 H 725.298 -3.57629 1.60761 0
M  V30 7758 H 726.788 -4.10439 0.770026 0
M  V30 7759 N 727.225 -1.14528 -1.08264 0
M  V30 7760 C 728.472 -0.914405 -1.80679 0
M  V30 7761 C 728.8 0.558952 -1.86295 0
M  V30 7762 O 728.055 1.43017 -1.33584 0
M  V30 7763 C 728.354 -1.46226 -3.26117 0
M  V30 7764 C 728.02 -2.95451 -3.40616 0
M  V30 7765 C 726.682 -3.36191 -3.4428 0
M  V30 7766 C 729.034 -3.91399 -3.44175 0
M  V30 7767 C 726.362 -4.71539 -3.49096 0
M  V30 7768 C 728.714 -5.26606 -3.50526 0
M  V30 7769 C 727.378 -5.66856 -3.52464 0
M  V30 7770 H 726.648 -0.334604 -0.661151 0
M  V30 7771 H 729.295 -1.4292 -1.27461 0
M  V30 7772 H 727.6 -0.868442 -3.82054 0
M  V30 7773 H 729.297 -1.25955 -3.80705 0
M  V30 7774 H 725.887 -2.62955 -3.38456 0
M  V30 7775 H 730.071 -3.61004 -3.40573 0
M  V30 7776 H 725.327 -5.02082 -3.4889 0
M  V30 7777 H 729.501 -6.00758 -3.52225 0
M  V30 7778 H 727.128 -6.71718 -3.55948 0
M  V30 7779 N 728.703 1.26451 -0.940633 0
M  V30 7780 C 729.613 2.30128 -0.455881 0
M  V30 7781 C 730.629 1.67536 0.469867 0
M  V30 7782 O 731.805 1.98344 0.349529 0
M  V30 7783 C 728.87 3.45634 0.271648 0
M  V30 7784 C 727.931 4.23709 -0.690594 0
M  V30 7785 C 727.164 5.337 0.00231047 0
M  V30 7786 O 727.387 5.57215 1.21935 0
M  V30 7787 O 726.321 5.98091 -0.676111 0
M  V30 7788 H 730.147 2.73655 -1.31707 0
M  V30 7789 H 727.732 1.3164 -0.706497 0
M  V30 7790 H 729.614 4.15853 0.681486 0
M  V30 7791 H 728.289 3.04138 1.10824 0
M  V30 7792 H 727.196 3.55974 -1.15037 0
M  V30 7793 H 728.529 4.68953 -1.49478 0
M  V30 7794 N 730.181 0.707592 1.40822 0
M  V30 7795 C 731.409 0.253073 2.05346 0
M  V30 7796 C 731.824 -1.10218 1.53289 0
M  V30 7797 O 731.181 -1.69112 0.686105 0
M  V30 7798 C 731.232 0.215411 3.60858 0
M  V30 7799 O 730.953 1.51714 4.10992 0
M  V30 7800 C 732.454 -0.258636 4.42545 0
M  V30 7801 H 729.674 0.115256 0.661027 0
M  V30 7802 H 732.218 0.963555 1.80377 0
M  V30 7803 H 730.373 -0.445978 3.84824 0
M  V30 7804 H 730.787 1.41226 5.05129 0
M  V30 7805 H 732.261 -0.233849 5.51504 0
M  V30 7806 H 732.738 -1.2995 4.19535 0
M  V30 7807 H 733.344 0.372186 4.23668 0
M  V30 7808 N 731.66 -1.50943 0.453197 0
M  V30 7809 C 732.593 -2.24742 -0.395787 0
M  V30 7810 C 733.571 -1.27316 -1.01141 0
M  V30 7811 O 734.755 -1.56494 -1.05081 0
M  V30 7812 C 731.882 -3.00999 -1.55298 0
M  V30 7813 C 730.928 -4.13207 -1.0565 0
M  V30 7814 S 731.761 -5.35498 0.01435 0
M  V30 7815 C 732.917 -6.15298 -1.14714 0
M  V30 7816 H 733.15 -2.96403 0.23071 0
M  V30 7817 H 730.683 -1.52557 0.237874 0
M  V30 7818 H 732.641 -3.45529 -2.2163 0
M  V30 7819 H 731.302 -2.28896 -2.15094 0
M  V30 7820 H 730.495 -4.65901 -1.9223 0
M  V30 7821 H 730.097 -3.7102 -0.471182 0
M  V30 7822 H 732.389 -6.45346 -2.06239 0
M  V30 7823 H 733.332 -7.05019 -0.659842 0
M  V30 7824 H 733.74 -5.47046 -1.39288 0
M  V30 7825 N 733.138 -0.185124 -1.56509 0
M  V30 7826 C 734.385 0.456258 -1.97293 0
M  V30 7827 C 734.713 1.62314 -1.07165 0
M  V30 7828 O 733.968 1.95398 -0.108621 0
M  V30 7829 C 734.267 0.967977 -3.44042 0
M  V30 7830 C 733.933 -0.084476 -4.50821 0
M  V30 7831 C 732.595 -0.373689 -4.79747 0
M  V30 7832 C 734.947 -0.79812 -5.15053 0
M  V30 7833 C 732.275 -1.3817 -5.70198 0
M  V30 7834 C 734.627 -1.79521 -6.06593 0
M  V30 7835 C 733.291 -2.09172 -6.3388 0
M  V30 7836 H 732.561 0.166957 -0.721946 0
M  V30 7837 H 735.208 -0.279992 -1.89442 0
M  V30 7838 H 733.513 1.78231 -3.48914 0
M  V30 7839 H 735.21 1.47347 -3.72948 0
M  V30 7840 H 731.8 0.15111 -4.28334 0
M  V30 7841 H 735.984 -0.587903 -4.92806 0
M  V30 7842 H 731.24 -1.61745 -5.89617 0
M  V30 7843 H 735.414 -2.35347 -6.55427 0
M  V30 7844 H 733.041 -2.87427 -7.03768 0
M  V30 7845 N 734.616 1.57351 0.0885366 0
M  V30 7846 C 735.548 1.99221 1.13329 0
M  V30 7847 C 736.561 0.895705 1.35945 0
M  V30 7848 O 737.75 1.17376 1.34481 0
M  V30 7849 C 734.85 2.3016 2.48756 0
M  V30 7850 C 734.023 3.61444 2.46327 0
M  V30 7851 C 733.082 3.80244 3.63732 0
M  V30 7852 O 732.108 4.52024 3.45924 0
M  V30 7853 N 733.31 3.2132 4.8346 0
M  V30 7854 H 736.075 2.89456 0.776862 0
M  V30 7855 H 733.636 1.59505 0.277428 0
M  V30 7856 H 735.628 2.39925 3.25911 0
M  V30 7857 H 734.198 1.459 2.76464 0
M  V30 7858 H 733.418 3.62588 1.54673 0
M  V30 7859 H 734.706 4.47678 2.41789 0
M  V30 7860 H 734.104 2.63028 5.00832 0
M  V30 7861 H 732.661 3.3656 5.58185 0
M  V30 7862 N 736.094 -0.359525 1.53444 0
M  V30 7863 C 737.004 -1.46445 1.83278 0
M  V30 7864 C 738.02 -1.5833 0.721629 0
M  V30 7865 O 739.196 -1.7411 1.01231 0
M  V30 7866 C 736.261 -2.81638 2.02191 0
M  V30 7867 C 735.322 -2.7923 3.26082 0
M  V30 7868 C 734.555 -4.07974 3.44082 0
M  V30 7869 O 734.778 -5.04447 2.66251 0
M  V30 7870 O 733.712 -4.13417 4.37458 0
M  V30 7871 H 737.538 -1.24156 2.77162 0
M  V30 7872 H 735.123 -0.550201 1.389 0
M  V30 7873 H 737.005 -3.61732 2.16167 0
M  V30 7874 H 735.68 -3.03892 1.11496 0
M  V30 7875 H 734.587 -1.97813 3.17523 0
M  V30 7876 H 735.92 -2.6193 4.16718 0
M  V30 7877 N 737.572 -1.44907 -0.619662 0
M  V30 7878 C 738.797 -1.52021 -1.41083 0
M  V30 7879 C 739.222 -0.14976 -1.87503 0
M  V30 7880 O 738.58 0.863303 -1.59426 0
M  V30 7881 C 738.628 -2.49911 -2.59955 0
M  V30 7882 O 737.732 -2.00857 -3.60181 0
M  V30 7883 H 737.073 -0.512912 -0.421684 0
M  V30 7884 H 739.603 -1.90149 -0.755282 0
M  V30 7885 H 739.613 -2.68323 -3.07354 0
M  V30 7886 H 738.288 -3.4945 -2.25516 0
M  V30 7887 H 736.865 -1.92265 -3.19513 0
M  V30 7888 N 739.05 0.861098 -1.31996 0
M  V30 7889 C 740.275 1.65264 -1.2531 0
M  V30 7890 C 740.7 1.87265 0.177007 0
M  V30 7891 O 740.058 1.4208 1.12619 0
M  V30 7892 C 740.106 2.99284 -2.0115 0
M  V30 7893 O 739.21 3.89508 -1.3549 0
M  V30 7894 H 738.551 0.50409 -0.432192 0
M  V30 7895 H 741.081 1.07297 -1.74208 0
M  V30 7896 H 741.091 3.49154 -2.11081 0
M  V30 7897 H 739.766 2.82591 -3.05148 0
M  V30 7898 H 738.343 3.47966 -1.34066 0
M  V30 7899 N 740.528 1.15101 1.07655 0
M  V30 7900 C 741.777 0.918528 1.79572 0
M  V30 7901 C 742.09 -0.555922 1.87534 0
M  V30 7902 O 743.296 -0.905893 2.55941 0
M  V30 7903 C 741.752 1.59394 3.22679 0
M  V30 7904 C 741.36 3.1052 3.22927 0
M  V30 7905 C 743.104 1.44289 3.99225 0
M  V30 7906 C 741.011 3.70862 4.60668 0
M  V30 7907 H 739.941 0.340006 0.672987 0
M  V30 7908 H 742.592 1.38079 1.20857 0
M  V30 7909 H 740.974 1.05936 3.81567 0
M  V30 7910 H 742.148 3.70708 2.737 0
M  V30 7911 H 740.463 3.25351 2.59876 0
M  V30 7912 H 743.06 1.86766 5.01022 0
M  V30 7913 H 743.403 0.389975 4.14469 0
M  V30 7914 H 743.936 1.94826 3.46825 0
M  V30 7915 H 740.675 4.7604 4.50628 0
M  V30 7916 H 740.195 3.15456 5.10145 0
M  V30 7917 H 741.874 3.71607 5.29639 0
M  V30 7918 N 742.006 -1.2595 0.947325 0
M  V30 7919 C 743.231 -1.98083 0.614633 0
M  V30 7920 C 743.656 -1.70013 -0.804815 0
M  V30 7921 O 743.014 -0.95175 -1.54309 0
M  V30 7922 C 743.062 -3.4993 0.870706 0
M  V30 7923 O 742.166 -4.12364 -0.0541451 0
M  V30 7924 H 741.507 -0.621232 0.234451 0
M  V30 7925 H 744.037 -1.60259 1.27193 0
M  V30 7926 H 744.047 -4.00198 0.794051 0
M  V30 7927 H 742.722 -3.69691 1.90529 0
M  V30 7928 H 741.299 -3.72826 0.0740917 0
M  V30 7929 N 743.484 -0.715051 -1.40445 0
M  V30 7930 C 744.761 -0.181503 -1.94756 0
M  V30 7931 C 745.141 1.31268 -1.65324 0
M  V30 7932 O 744.489 2.0686 -0.970631 0
M  V30 7933 C 744.699 -0.493663 -3.45491 0
M  V30 7934 C 746.047 -0.432032 -4.22396 0
M  V30 7935 O 747.071 -0.429692 -3.53599 0
M  V30 7936 O 745.93 -0.409091 -5.44967 0
M  V30 7937 H 743.024 -0.0263989 -0.826579 0
M  V30 7938 H 745.57 -0.792546 -1.50056 0
M  V30 7939 H 744.342 -1.52713 -3.6027 0
M  V30 7940 H 743.965 0.14737 -3.97327 0
M  V30 7941 N 744.962 1.50701 -0.461195 0
M  V30 7942 C 745.872 2.32069 0.343661 0
M  V30 7943 C 746.888 1.42016 1.00535 0
M  V30 7944 O 748.064 1.75077 0.995498 0
M  V30 7945 C 745.129 3.16424 1.41692 0
M  V30 7946 C 744.19 4.22286 0.772869 0
M  V30 7947 C 743.423 5.02609 1.79499 0
M  V30 7948 O 743.646 4.83874 3.0203 0
M  V30 7949 O 742.58 5.86047 1.3723 0
M  V30 7950 H 746.406 3.01996 -0.321268 0
M  V30 7951 H 743.991 1.47723 -0.223235 0
M  V30 7952 H 745.873 3.68795 2.03883 0
M  V30 7953 H 744.548 2.49236 2.0655 0
M  V30 7954 H 743.455 3.73931 0.112277 0
M  V30 7955 H 744.788 4.91915 0.167399 0
M  V30 7956 N 746.441 0.193421 1.56409 0
M  V30 7957 C 747.687 -0.446449 1.97825 0
M  V30 7958 C 748.02 -1.61386 1.08019 0
M  V30 7959 O 747.295 -1.94053 0.131839 0
M  V30 7960 C 747.578 -0.908199 3.48459 0
M  V30 7961 C 747.431 0.260914 4.49043 0
M  V30 7962 C 748.75 -1.77428 4.0275 0
M  V30 7963 H 745.869 -0.160807 0.719243 0
M  V30 7964 H 748.511 0.284006 1.87865 0
M  V30 7965 H 746.661 -1.53062 3.57077 0
M  V30 7966 H 748.333 0.898548 4.52464 0
M  V30 7967 H 746.576 0.912949 4.24085 0
M  V30 7968 H 747.247 -0.104657 5.51901 0
M  V30 7969 H 749.723 -1.24936 3.96901 0
M  V30 7970 H 748.599 -2.06633 5.08521 0
M  V30 7971 H 748.86 -2.72788 3.47907 0
M  V30 7972 N 747.919 -1.57396 -0.0801906 0
M  V30 7973 C 748.829 -2.06451 -1.11423 0
M  V30 7974 C 749.845 -0.992352 -1.42928 0
M  V30 7975 O 751.021 -1.30651 -1.53272 0
M  V30 7976 C 748.086 -2.49164 -2.41077 0
M  V30 7977 C 747.147 -3.70641 -2.16619 0
M  V30 7978 C 746.38 -4.11307 -3.40092 0
M  V30 7979 O 746.603 -3.51922 -4.48895 0
M  V30 7980 O 745.537 -5.04157 -3.288 0
M  V30 7981 H 749.363 -2.94857 -0.727519 0
M  V30 7982 H 746.948 -1.46484 -0.293743 0
M  V30 7983 H 748.83 -2.77196 -3.17396 0
M  V30 7984 H 747.505 -1.6389 -2.79145 0
M  V30 7985 H 746.412 -3.47703 -1.38033 0
M  V30 7986 H 747.745 -4.5674 -1.83437 0
M  V30 7987 N 749.397 0.351382 -1.53633 0
M  V30 7988 C 750.344 1.43115 -1.81071 0
M  V30 7989 C 751.314 1.52601 -0.655913 0
M  V30 7990 O 752.499 1.68264 -0.89955 0
M  V30 7991 C 749.639 2.79874 -2.01903 0
M  V30 7992 C 748.752 2.79242 -3.29618 0
M  V30 7993 C 747.887 4.07667 -3.40559 0
M  V30 7994 C 746.926 4.01233 -4.62254 0
M  V30 7995 N 746.063 5.21334 -4.70271 0
M  V30 7996 H 750.903 1.19017 -2.73201 0
M  V30 7997 H 748.44 0.576691 -1.35324 0
M  V30 7998 H 750.398 3.5934 -2.11969 0
M  V30 7999 H 749.028 3.0234 -1.13094 0
M  V30 8000 H 748.08 1.91927 -3.28433 0
M  V30 8001 H 749.392 2.70363 -4.19172 0
M  V30 8002 H 748.546 4.95555 -3.50015 0
M  V30 8003 H 747.285 4.19317 -2.49047 0
M  V30 8004 H 746.29 3.11732 -4.52884 0
M  V30 8005 H 747.515 3.91173 -5.55122 0
M  V30 8006 H 745.461 5.33543 -3.81665 0
M  V30 8007 H 745.378 5.14681 -5.5375 0
M  V30 8008 H 746.646 6.11014 -4.84027 0
M  V30 8009 N 750.875 1.45233 0.611969 0
M  V30 8010 C 751.785 1.56098 1.7513 0
M  V30 8011 C 752.801 0.445646 1.68196 0
M  V30 8012 O 753.977 0.705718 1.88631 0
M  V30 8013 C 751.042 1.52052 3.11579 0
M  V30 8014 C 750.103 2.74589 3.29999 0
M  V30 8015 C 749.336 2.70726 4.59938 0
M  V30 8016 O 749.559 1.77806 5.41979 0
M  V30 8017 O 748.493 3.61864 4.80976 0
M  V30 8018 H 752.319 2.52392 1.68914 0
M  V30 8019 H 749.904 1.27695 0.775528 0
M  V30 8020 H 751.786 1.52387 3.92882 0
M  V30 8021 H 750.461 0.589085 3.18295 0
M  V30 8022 H 749.368 2.79817 2.48301 0
M  V30 8023 H 750.701 3.66843 3.28157 0
M  V30 8024 N 752.353 -0.854086 1.3245 0
M  V30 8025 C 753.283 -1.97827 1.24044 0
M  V30 8026 C 754.264 -1.69646 0.124166 0
M  V30 8027 O 755.449 -1.91687 0.31143 0
M  V30 8028 C 752.579 -3.33673 0.963324 0
M  V30 8029 C 751.533 -3.76207 2.04089 0
M  V30 8030 C 750.859 -5.0969 1.61618 0
M  V30 8031 C 752.159 -3.91612 3.45597 0
M  V30 8032 H 753.853 -2.05118 2.18099 0
M  V30 8033 H 751.399 -0.985489 1.04996 0
M  V30 8034 H 753.352 -4.11871 0.891061 0
M  V30 8035 H 752.076 -3.26597 -0.0128649 0
M  V30 8036 H 750.735 -3.0026 2.10332 0
M  V30 8037 H 750.383 -4.99072 0.627418 0
M  V30 8038 H 750.083 -5.3912 2.33717 0
M  V30 8039 H 751.607 -5.90381 1.55829 0
M  V30 8040 H 753.021 -4.60163 3.4194 0
M  V30 8041 H 751.418 -4.3246 4.16051 0
M  V30 8042 H 752.488 -2.9451 3.85217 0
M  V30 8043 N 753.831 -1.1567 -1.07043 0
M  V30 8044 C 755.079 -0.931673 -1.79344 0
M  V30 8045 C 755.4 0.542421 -1.87304 0
M  V30 8046 O 754.67 1.39418 -1.37621 0
M  V30 8047 H 753.25 -0.34171 -0.664262 0
M  V30 8048 H 755.912 -1.45795 -1.29344 0
M  V30 8049 H 755.008 -1.34379 -2.81689 0
M  V30 8050 N 755.309 1.25446 -0.953992 0
M  V30 8051 C 756.256 2.25912 -0.472485 0
M  V30 8052 C 757.226 1.59173 0.47469 0
M  V30 8053 O 758.411 1.86812 0.388082 0
M  V30 8054 C 755.551 3.44235 0.244218 0
M  V30 8055 C 754.664 4.25613 -0.740121 0
M  V30 8056 C 753.799 5.312 -0.000922267 0
M  V30 8057 C 752.838 6.04265 -0.976236 0
M  V30 8058 N 751.975 7.01589 -0.267952 0
M  V30 8059 H 756.815 2.66469 -1.3341 0
M  V30 8060 H 754.352 1.31005 -0.669045 0
M  V30 8061 H 756.31 4.11682 0.676314 0
M  V30 8062 H 754.94 3.04554 1.06988 0
M  V30 8063 H 753.992 3.57834 -1.2907 0
M  V30 8064 H 755.304 4.762 -1.48441 0
M  V30 8065 H 754.458 6.04719 0.48984 0
M  V30 8066 H 753.197 4.81484 0.776159 0
M  V30 8067 H 752.202 5.29561 -1.478 0
M  V30 8068 H 753.427 6.5607 -1.75354 0
M  V30 8069 H 751.373 6.54164 0.490403 0
M  V30 8070 H 751.29 7.4999 -0.951344 0
M  V30 8071 H 752.558 7.7924 0.201294 0
M  V30 8072 N 756.787 0.722489 1.40064 0
M  V30 8073 C 757.719 0.0349057 2.29173 0
M  V30 8074 C 758.732 -0.716571 1.46182 0
M  V30 8075 O 759.921 -0.562806 1.69395 0
M  V30 8076 C 757.021 -0.974839 3.24577 0
M  V30 8077 C 756.194 -0.287471 4.36454 0
M  V30 8078 C 755.253 -1.20356 5.12251 0
M  V30 8079 O 754.279 -0.685753 5.65054 0
M  V30 8080 N 755.481 -2.53422 5.22262 0
M  V30 8081 H 758.246 0.800058 2.88824 0
M  V30 8082 H 755.807 0.57068 1.51509 0
M  V30 8083 H 757.799 -1.59002 3.72157 0
M  V30 8084 H 756.369 -1.6413 2.66046 0
M  V30 8085 H 755.589 0.508008 3.90913 0
M  V30 8086 H 756.877 0.189382 5.08447 0
M  V30 8087 H 756.275 -2.97981 4.80857 0
M  V30 8088 H 754.832 -3.10067 5.73325 0
M  V30 8089 N 758.265 -1.50454 0.469181 0
M  V30 8090 C 759.513 -2.01916 -0.0862982 0
M  V30 8091 C 759.834 -1.35337 -1.40388 0
M  V30 8092 O 759.104 -0.498096 -1.89462 0
M  V30 8093 H 757.684 -0.746185 -0.0348825 0
M  V30 8094 H 760.346 -1.84804 0.619167 0
M  V30 8095 H 759.442 -3.11182 -0.239189 0
M  V30 8096 N 759.743 -0.201713 -1.56304 0
M  V30 8097 C 760.989 0.435952 -1.98059 0
M  V30 8098 C 761.322 1.60811 -1.08873 0
M  V30 8099 O 760.597 1.9398 -0.142128 0
M  V30 8100 C 760.88 0.889706 -3.48936 0
M  V30 8101 C 760.733 -0.284725 -4.48898 0
M  V30 8102 C 762.052 1.7529 -4.03685 0
M  V30 8103 H 759.171 0.15699 -0.720085 0
M  V30 8104 H 761.813 -0.293965 -1.87712 0
M  V30 8105 H 759.963 1.51166 -3.57884 0
M  V30 8106 H 761.635 -0.922531 -4.51981 0
M  V30 8107 H 759.878 -0.935427 -4.23594 0
M  V30 8108 H 760.549 0.0753865 -5.51949 0
M  V30 8109 H 763.025 1.2283 -3.97558 0
M  V30 8110 H 761.901 2.03933 -5.0961 0
M  V30 8111 H 762.162 2.70939 -3.49348 0
M  V30 8112 N 761.222 1.57436 0.0718424 0
M  V30 8113 C 762.638 1.53792 0.426628 0
M  V30 8114 C 762.838 0.921887 1.79174 0
M  V30 8115 O 761.894 0.524374 2.46995 0
M  V30 8116 C 763.207 2.98443 0.367739 0
M  V30 8117 C 764.755 3.09778 0.447928 0
M  V30 8118 C 765.23 4.5608 0.418946 0
M  V30 8119 N 766.721 4.60716 0.479022 0
M  V30 8120 C 767.456 5.71397 0.47881 0
M  V30 8121 N 766.952 6.91443 0.433417 0
M  V30 8122 N 768.745 5.59639 0.525364 0
M  V30 8123 H 760.896 1.95848 -0.822033 0
M  V30 8124 H 763.159 0.896418 -0.308447 0
M  V30 8125 H 762.865 3.47072 -0.56865 0
M  V30 8126 H 762.739 3.58335 1.17795 0
M  V30 8127 H 765.126 2.61122 1.37474 0
M  V30 8128 H 765.207 2.52796 -0.390857 0
M  V30 8129 H 764.851 5.05393 -0.504016 0
M  V30 8130 H 764.781 5.10925 1.27526 0
M  V30 8131 H 767.272 3.74328 0.518355 0
M  V30 8132 H 767.585 7.71562 0.43718 0
M  V30 8133 H 765.93 6.93847 0.400106 0
M  V30 8134 H 769.121 4.64756 0.558519 0
M  V30 8135 H 769.294 6.45896 0.52173 0
M  V30 8136 N 762.7 -0.34323 1.53817 0
M  V30 8137 C 763.948 -1.0813 1.70741 0
M  V30 8138 C 764.269 -1.89165 0.473461 0
M  V30 8139 O 763.539 -1.89075 -0.512605 0
M  V30 8140 H 762.119 -0.40219 0.629486 0
M  V30 8141 H 764.781 -0.384426 1.91071 0
M  V30 8142 H 763.877 -1.7585 2.57843 0
M  V30 8143 N 764.178 -1.45556 -0.604258 0
M  V30 8144 C 765.141 -1.54091 -1.69672 0
M  V30 8145 C 766.141 -0.420076 -1.55216 0
M  V30 8146 O 767.331 -0.683671 -1.60224 0
M  V30 8147 C 764.463 -1.44063 -3.08964 0
M  V30 8148 H 765.656 -2.51431 -1.6347 0
M  V30 8149 H 763.209 -1.33046 -0.820273 0
M  V30 8150 H 763.944 -0.479201 -3.2074 0
M  V30 8151 H 763.729 -2.25362 -3.20865 0
M  V30 8152 H 765.219 -1.53075 -3.88533 0
M  V30 8153 N 765.656 0.84705 -1.32902 0
M  V30 8154 C 766.902 1.60414 -1.24078 0
M  V30 8155 C 767.235 1.93217 0.195105 0
M  V30 8156 O 766.51 1.58001 1.13428 0
M  V30 8157 C 766.793 2.91951 -2.108 0
M  V30 8158 C 766.646 2.6588 -3.62805 0
M  V30 8159 C 767.965 3.93299 -1.97494 0
M  V30 8160 H 765.084 0.58206 -0.452079 0
M  V30 8161 H 767.726 0.977562 -1.62922 0
M  V30 8162 H 765.876 3.45425 -1.77802 0
M  V30 8163 H 767.548 2.18902 -4.06054 0
M  V30 8164 H 765.791 1.99716 -3.85092 0
M  V30 8165 H 766.462 3.59574 -4.1882 0
M  V30 8166 H 768.938 3.49105 -2.26417 0
M  V30 8167 H 767.814 4.8318 -2.60438 0
M  V30 8168 H 768.075 4.31887 -0.944782 0
M  V30 8169 N 767.134 1.16236 1.06428 0
M  V30 8170 C 768.359 0.967688 1.83441 0
M  V30 8171 C 768.784 -0.479167 1.81894 0
M  V30 8172 O 768.142 -1.34224 1.21875 0
M  V30 8173 C 768.19 1.49806 3.2801 0
M  V30 8174 O 767.294 0.703481 4.06356 0
M  V30 8175 H 766.635 0.344468 0.56766 0
M  V30 8176 H 769.165 1.54442 1.34197 0
M  V30 8177 H 769.175 1.51495 3.78831 0
M  V30 8178 H 767.85 2.55133 3.2845 0
M  V30 8179 H 766.427 0.756986 3.65136 0
M  V30 8180 N 768.612 -1.24939 0.960631 0
M  V30 8181 C 769.84 -1.96881 0.636045 0
M  V30 8182 C 770.255 -1.71334 -0.793093 0
M  V30 8183 O 769.612 -0.992917 -1.53125 0
M  V30 8184 C 769.663 -3.50309 0.892533 0
M  V30 8185 O 769.384 -3.74977 2.26548 0
M  V30 8186 C 770.885 -4.39474 0.581159 0
M  V30 8187 H 768.105 -0.627399 0.237931 0
M  V30 8188 H 770.649 -1.58952 1.28664 0
M  V30 8189 H 768.804 -3.86326 0.288257 0
M  V30 8190 H 769.218 -4.69401 2.34014 0
M  V30 8191 H 770.692 -5.46008 0.811125 0
M  V30 8192 H 771.169 -4.3652 -0.48443 0
M  V30 8193 H 771.775 -4.09032 1.16502 0
M  V30 8194 N 770.09 -0.729906 -1.39679 0
M  V30 8195 C 771.02 -0.101618 -2.33279 0
M  V30 8196 C 772.001 0.729854 -1.53646 0
M  V30 8197 O 773.186 0.67587 -1.82059 0
M  V30 8198 C 770.316 0.81024 -3.37716 0
M  V30 8199 C 769.27 0.0833126 -4.27919 0
M  V30 8200 C 768.596 1.11185 -5.23012 0
M  V30 8201 C 769.896 -1.07107 -5.112 0
M  V30 8202 H 771.59 -0.883452 -2.86069 0
M  V30 8203 H 769.136 -0.426283 -1.37546 0
M  V30 8204 H 771.089 1.25927 -4.02145 0
M  V30 8205 H 769.813 1.62413 -2.83354 0
M  V30 8206 H 768.472 -0.346043 -3.64963 0
M  V30 8207 H 768.12 1.91917 -4.64948 0
M  V30 8208 H 767.82 0.63026 -5.8421 0
M  V30 8209 H 769.344 1.56068 -5.90318 0
M  V30 8210 H 770.758 -0.700726 -5.69002 0
M  V30 8211 H 769.155 -1.48196 -5.81514 0
M  V30 8212 H 770.225 -1.89513 -4.46332 0
M  V30 8213 N 771.568 1.50203 -0.477153 0
M  V30 8214 C 772.498 2.31517 0.303646 0
M  V30 8215 C 773.479 1.38696 0.984753 0
M  V30 8216 O 774.664 1.67615 0.980758 0
M  V30 8217 C 771.794 3.18598 1.38249 0
M  V30 8218 C 770.748 4.2002 0.822645 0
M  V30 8219 C 770.074 4.95878 2.00024 0
M  V30 8220 C 771.374 5.22023 -0.170185 0
M  V30 8221 H 773.068 2.97042 -0.375027 0
M  V30 8222 H 770.614 1.42848 -0.181802 0
M  V30 8223 H 772.567 3.74282 1.93625 0
M  V30 8224 H 771.291 2.5097 2.09002 0
M  V30 8225 H 769.95 3.65445 0.290813 0
M  V30 8226 H 769.598 4.24717 2.69489 0
M  V30 8227 H 769.298 5.64487 1.63183 0
M  V30 8228 H 770.822 5.54399 2.55878 0
M  V30 8229 H 772.236 5.72543 0.294606 0
M  V30 8230 H 770.633 5.98386 -0.453181 0
M  V30 8231 H 771.703 4.72396 -1.09408 0
M  V30 8232 N 773.046 0.209999 1.56195 0
M  V30 8233 C 773.978 -0.736967 2.17029 0
M  V30 8234 C 774.991 -1.16599 1.13616 0
M  V30 8235 O 776.18 -1.09914 1.40646 0
M  V30 8236 C 773.28 -2.00852 2.72969 0
M  V30 8237 C 772.453 -1.73691 4.01435 0
M  V30 8238 C 771.512 -2.85439 4.42053 0
M  V30 8239 O 770.538 -2.54405 5.09183 0
M  V30 8240 N 771.74 -4.14135 4.06783 0
M  V30 8241 H 774.505 -0.216656 2.98916 0
M  V30 8242 H 772.066 0.0285672 1.61875 0
M  V30 8243 H 774.058 -2.74778 2.97118 0
M  V30 8244 H 772.628 -2.43963 1.95451 0
M  V30 8245 H 771.848 -0.834676 3.85262 0
M  V30 8246 H 773.136 -1.52961 4.85263 0
M  V30 8247 H 772.534 -4.42196 3.52816 0
M  V30 8248 H 771.091 -4.84642 4.35851 0
M  V30 8249 N 774.524 -1.57472 -0.0634922 0
M  V30 8250 C 775.487 -2.03268 -1.059 0
M  V30 8251 C 776.487 -0.931028 -1.31105 0
M  V30 8252 O 777.677 -1.19567 -1.26686 0
M  V30 8253 C 774.809 -2.42039 -2.40062 0
M  V30 8254 H 776.002 -2.92454 -0.664119 0
M  V30 8255 H 773.555 -1.53206 -0.309444 0
M  V30 8256 H 774.29 -1.55904 -2.84367 0
M  V30 8257 H 774.075 -3.22437 -2.23108 0
M  V30 8258 H 775.565 -2.78017 -3.11603 0
M  V30 8259 N 776.003 0.335068 -1.53997 0
M  V30 8260 C 777.414 0.910191 -1.6301 0
M  V30 8261 C 777.765 1.89271 -0.516809 0
M  V30 8262 O 776.89 2.13516 0.352123 0
M  V30 8263 C 777.485 1.65761 -2.9548 0
M  V30 8264 C 776.044 2.18163 -3.06728 0
M  V30 8265 C 775.191 1.00338 -2.5851 0
M  V30 8266 H 778.142 0.112965 -1.58297 0
M  V30 8267 H 778.163 2.52107 -2.84995 0
M  V30 8268 H 777.675 0.94227 -3.76488 0
M  V30 8269 H 775.776 2.92847 -2.30372 0
M  V30 8270 H 775.889 2.43952 -4.1234 0
M  V30 8271 H 774.253 1.37925 -2.14124 0
M  V30 8272 H 775.036 0.30254 -3.41964 0
M  V30 8273 N 777.481 1.45874 0.596531 0
M  V30 8274 C 778.391 1.57947 1.73464 0
M  V30 8275 C 779.407 0.463461 1.67714 0
M  V30 8276 O 780.583 0.725685 1.87872 0
M  V30 8277 C 777.648 1.55348 3.09948 0
M  V30 8278 C 776.709 2.78074 3.27068 0
M  V30 8279 C 775.942 2.75589 4.57041 0
M  V30 8280 O 776.165 1.83545 5.40063 0
M  V30 8281 O 775.099 3.66945 4.77111 0
M  V30 8282 H 778.925 2.54169 1.66228 0
M  V30 8283 H 776.51 1.2851 0.76194 0
M  V30 8284 H 778.392 1.56545 3.91244 0
M  V30 8285 H 777.067 0.622811 3.17652 0
M  V30 8286 H 775.974 2.82435 2.45319 0
M  V30 8287 H 777.307 3.70303 3.24248 0
M  V30 8288 N 778.959 -0.83999 1.33349 0
M  V30 8289 C 779.889 -1.965 1.26135 0
M  V30 8290 C 780.87 -1.69505 0.142152 0
M  V30 8291 O 782.055 -1.91346 0.331743 0
M  V30 8292 C 779.185 -3.32632 0.99866 0
M  V30 8293 C 778.139 -3.74021 2.08068 0
M  V30 8294 C 777.465 -5.07947 1.67014 0
M  V30 8295 C 778.765 -3.87925 3.49731 0
M  V30 8296 H 780.459 -2.02793 2.20262 0
M  V30 8297 H 778.005 -0.974297 1.06035 0
M  V30 8298 H 779.958 -4.10903 0.934696 0
M  V30 8299 H 778.682 -3.26593 0.0217759 0
M  V30 8300 H 777.341 -2.98012 2.13505 0
M  V30 8301 H 776.989 -4.98378 0.680316 0
M  V30 8302 H 776.689 -5.36611 2.39422 0
M  V30 8303 H 778.213 -5.88695 1.62082 0
M  V30 8304 H 779.627 -4.5651 3.46802 0
M  V30 8305 H 778.024 -4.28023 4.20614 0
M  V30 8306 H 779.094 -2.90407 3.88319 0
M  V30 8307 N 780.437 -1.16799 -1.0581 0
M  V30 8308 C 781.848 -0.95945 -1.60161 0
M  V30 8309 C 782.199 0.49543 -1.89842 0
M  V30 8310 O 781.324 1.36957 -1.67546 0
M  V30 8311 C 781.919 -1.73527 -2.90987 0
M  V30 8312 C 780.478 -1.57158 -3.42021 0
M  V30 8313 C 779.625 -1.74089 -2.15843 0
M  V30 8314 H 782.576 -1.31598 -0.886992 0
M  V30 8315 H 782.597 -1.21397 -3.60615 0
M  V30 8316 H 782.109 -2.79411 -2.69353 0
M  V30 8317 H 780.21 -0.537361 -3.68705 0
M  V30 8318 H 780.323 -2.35858 -4.17022 0
M  V30 8319 H 778.687 -1.16874 -2.26302 0
M  V30 8320 H 779.47 -2.81371 -1.96686 0
M  V30 8321 N 781.915 1.24427 -0.967243 0
M  V30 8322 C 783.143 1.96541 -0.646477 0
M  V30 8323 C 783.558 1.71753 0.783996 0
M  V30 8324 O 782.915 1.00102 1.52597 0
M  V30 8325 C 782.966 3.4983 -0.911098 0
M  V30 8326 O 782.687 3.7377 -2.28534 0
M  V30 8327 C 784.188 4.3916 -0.604458 0
M  V30 8328 H 781.408 0.626129 -0.241255 0
M  V30 8329 H 783.952 1.58268 -1.29505 0
M  V30 8330 H 782.107 3.86168 -0.308741 0
M  V30 8331 H 782.521 4.68154 -2.365 0
M  V30 8332 H 783.995 5.4557 -0.840069 0
M  V30 8333 H 784.472 4.36771 0.461273 0
M  V30 8334 H 785.078 4.08409 -1.1867 0
M  V30 8335 N 783.393 0.737304 1.3929 0
M  V30 8336 C 784.34 0.0988364 2.30588 0
M  V30 8337 C 785.31 -0.727206 1.49335 0
M  V30 8338 O 786.495 -0.686694 1.78014 0
M  V30 8339 C 783.635 -0.800734 3.35682 0
M  V30 8340 C 782.748 0.0381731 4.31983 0
M  V30 8341 C 781.883 -0.862884 5.24145 0
M  V30 8342 C 780.922 -0.0193639 6.12097 0
M  V30 8343 N 780.059 -0.87648 6.96608 0
M  V30 8344 H 784.899 0.883031 2.84617 0
M  V30 8345 H 782.436 0.447111 1.4014 0
M  V30 8346 H 784.394 -1.33676 3.95205 0
M  V30 8347 H 783.024 -1.55088 2.83103 0
M  V30 8348 H 782.076 0.691641 3.74059 0
M  V30 8349 H 783.388 0.690294 4.94 0
M  V30 8350 H 782.542 -1.46667 5.88705 0
M  V30 8351 H 781.281 -1.54878 4.62454 0
M  V30 8352 H 780.286 0.597202 5.46547 0
M  V30 8353 H 781.511 0.663348 6.75852 0
M  V30 8354 H 779.457 -1.54762 6.37483 0
M  V30 8355 H 779.374 -0.280892 7.55478 0
M  V30 8356 H 780.642 -1.46575 7.65595 0
M  V30 8357 N 784.871 -1.49948 0.485112 0
M  V30 8358 C 786.099 -2.06806 -0.0622824 0
M  V30 8359 C 786.514 -1.34736 -1.32256 0
M  V30 8360 O 785.871 -0.420836 -1.77582 0
M  V30 8361 C 785.922 -3.59934 -0.336096 0
M  V30 8362 O 785.643 -4.29289 0.874203 0
M  V30 8363 C 787.144 -4.33459 -0.928903 0
M  V30 8364 H 784.364 -0.670867 0.0133472 0
M  V30 8365 H 786.908 -1.92937 0.677917 0
M  V30 8366 H 785.063 -3.7356 -1.02625 0
M  V30 8367 H 785.477 -5.20735 0.627332 0
M  V30 8368 H 786.951 -5.41527 -1.07017 0
M  V30 8369 H 787.428 -3.94881 -1.92265 0
M  V30 8370 H 788.034 -4.24399 -0.276705 0
M  V30 8371 N 786.349 -0.21828 -1.56081 0
M  V30 8372 C 787.765 0.137168 -1.59009 0
M  V30 8373 C 787.965 1.59215 -1.23503 0
M  V30 8374 O 787.021 2.33178 -0.968716 0
M  V30 8375 C 788.334 -0.186162 -3.00123 0
M  V30 8376 C 789.882 -0.128135 -3.12738 0
M  V30 8377 C 790.357 -0.425094 -4.56023 0
M  V30 8378 N 791.848 -0.374547 -4.61683 0
M  V30 8379 C 792.583 -0.57786 -5.70481 0
M  V30 8380 N 792.079 -0.842771 -6.87655 0
M  V30 8381 N 793.872 -0.510521 -5.59777 0
M  V30 8382 H 786.023 -1.16746 -1.77437 0
M  V30 8383 H 788.286 -0.467706 -0.824594 0
M  V30 8384 H 787.992 -1.19589 -3.30744 0
M  V30 8385 H 787.866 0.500388 -3.73866 0
M  V30 8386 H 790.253 0.872224 -2.81915 0
M  V30 8387 H 790.334 -0.848112 -2.41331 0
M  V30 8388 H 789.978 -1.42288 -4.87562 0
M  V30 8389 H 789.908 0.316038 -5.25651 0
M  V30 8390 H 792.399 -0.177356 -3.77484 0
M  V30 8391 H 792.712 -0.986095 -7.66483 0
M  V30 8392 H 791.057 -0.879929 -6.89407 0
M  V30 8393 H 794.248 -0.303813 -4.67113 0
M  V30 8394 H 794.421 -0.672378 -6.44502 0
M  V30 8395 N 787.827 1.57504 0.0551401 0
M  V30 8396 C 789.055 1.92294 0.76358 0
M  V30 8397 C 789.47 0.815774 1.70266 0
M  V30 8398 O 788.827 -0.209772 1.8129 0
M  V30 8399 C 788.878 3.26914 1.54302 0
M  V30 8400 O 788.599 4.33375 0.641666 0
M  V30 8401 C 790.1 3.75825 2.35097 0
M  V30 8402 H 787.32 0.635229 0.216159 0
M  V30 8403 H 789.864 2.0449 0.0204385 0
M  V30 8404 H 788.019 3.16196 2.23828 0
M  V30 8405 H 788.433 5.10927 1.1855 0
M  V30 8406 H 789.907 4.72603 2.8522 0
M  V30 8407 H 790.384 3.0568 3.15367 0
M  V30 8408 H 790.99 3.89542 1.70696 0
M  V30 8409 N 789.305 -0.326896 1.54172 0
M  V30 8410 C 790.53 -1.08924 1.76494 0
M  V30 8411 C 790.955 -1.81039 0.510523 0
M  V30 8412 O 790.313 -1.73141 -0.537756 0
M  V30 8413 C 790.361 -2.06558 2.95578 0
M  V30 8414 O 789.465 -3.14394 2.6689 0
M  V30 8415 H 788.806 -0.314216 0.584948 0
M  V30 8416 H 791.336 -0.372207 2.01186 0
M  V30 8417 H 791.346 -2.49487 3.22832 0
M  V30 8418 H 790.021 -1.53469 3.86549 0
M  V30 8419 H 788.598 -2.76164 2.50576 0
M  V30 8420 N 790.784 -1.46188 -0.588786 0
M  V30 8421 C 792.2 -1.31009 -0.911524 0
M  V30 8422 C 792.4 -0.277017 -1.99587 0
M  V30 8423 O 791.456 0.322532 -2.50432 0
M  V30 8424 C 792.769 -2.69459 -1.33463 0
M  V30 8425 C 794.317 -2.77502 -1.44782 0
M  V30 8426 C 794.792 -4.1652 -1.90461 0
M  V30 8427 N 796.283 -4.18907 -1.97665 0
M  V30 8428 C 797.018 -5.23359 -2.34271 0
M  V30 8429 N 796.514 -6.38143 -2.69714 0
M  V30 8430 N 798.307 -5.10723 -2.34774 0
M  V30 8431 H 790.458 -2.12016 0.127614 0
M  V30 8432 H 792.721 -0.947984 -0.00557599 0
M  V30 8433 H 792.427 -3.46336 -0.611929 0
M  V30 8434 H 792.301 -2.99165 -2.2974 0
M  V30 8435 H 794.688 -2.00917 -2.1614 0
M  V30 8436 H 794.769 -2.51488 -0.467724 0
M  V30 8437 H 794.413 -4.93597 -1.19684 0
M  V30 8438 H 794.343 -4.39937 -2.89418 0
M  V30 8439 H 796.834 -3.36084 -1.72789 0
M  V30 8440 H 797.147 -7.13624 -2.96582 0
M  V30 8441 H 795.492 -6.41514 -2.67366 0
M  V30 8442 H 798.683 -4.20088 -2.06503 0
M  V30 8443 H 798.856 -5.9224 -2.62975 0
M  V30 8444 N 792.262 0.832906 -1.33792 0
M  V30 8445 C 793.678 1.1245 -1.13257 0
M  V30 8446 C 793.878 2.01369 0.0725832 0
M  V30 8447 O 792.934 2.41071 0.751082 0
M  V30 8448 C 794.247 1.78084 -2.42294 0
M  V30 8449 C 795.795 1.90624 -2.48257 0
M  V30 8450 C 796.27 2.59673 -3.77271 0
M  V30 8451 N 797.761 2.67181 -3.78376 0
M  V30 8452 C 798.496 3.21313 -4.74916 0
M  V30 8453 N 797.992 3.76086 -5.81835 0
M  V30 8454 N 799.785 3.19621 -4.62384 0
M  V30 8455 H 791.936 0.241244 -2.11026 0
M  V30 8456 H 794.199 0.169557 -0.932713 0
M  V30 8457 H 793.905 1.20209 -3.30519 0
M  V30 8458 H 793.779 2.78049 -2.5489 0
M  V30 8459 H 796.166 2.4765 -1.60478 0
M  V30 8460 H 796.247 0.89591 -2.39598 0
M  V30 8461 H 795.891 2.03304 -4.65435 0
M  V30 8462 H 795.821 3.61189 -3.8321 0
M  V30 8463 H 798.312 2.28346 -3.01108 0
M  V30 8464 H 798.625 4.15612 -6.51526 0
M  V30 8465 H 796.97 3.74357 -5.85561 0
M  V30 8466 H 800.161 2.76091 -3.7801 0
M  V30 8467 H 800.334 3.61504 -5.37791 0
M  V30 8468 N 793.74 1.17359 1.05189 0
M  V30 8469 C 794.703 0.892604 2.11105 0
M  V30 8470 C 795.703 -0.117236 1.60372 0
M  V30 8471 O 796.893 0.114936 1.7382 0
M  V30 8472 C 794.025 0.337032 3.3923 0
M  V30 8473 H 795.218 1.83169 2.37464 0
M  V30 8474 H 792.771 0.984051 1.21434 0
M  V30 8475 H 793.506 -0.609198 3.18527 0
M  V30 8476 H 793.291 1.06484 3.77364 0
M  V30 8477 H 794.781 0.158763 4.17298 0
M  V30 8478 N 795.218 -1.23913 0.973828 0
M  V30 8479 C 796.181 -2.23367 0.51378 0
M  V30 8480 C 797.181 -1.55923 -0.39302 0
M  V30 8481 O 798.371 -1.73187 -0.187626 0
M  V30 8482 C 795.503 -3.39944 -0.255152 0
M  V30 8483 H 796.696 -2.65581 1.39307 0
M  V30 8484 H 794.249 -1.36632 0.759039 0
M  V30 8485 H 794.984 -3.03177 -1.15127 0
M  V30 8486 H 794.769 -3.90098 0.395673 0
M  V30 8487 H 796.259 -4.13749 -0.565842 0
M  V30 8488 N 796.696 -0.74468 -1.38897 0
M  V30 8489 C 797.606 -0.112892 -2.34328 0
M  V30 8490 C 798.622 0.71087 -1.58816 0
M  V30 8491 O 799.798 0.637092 -1.91058 0
M  V30 8492 C 796.863 0.776417 -3.37894 0
M  V30 8493 C 795.924 -0.0606999 -4.29257 0
M  V30 8494 C 795.157 0.786258 -5.27877 0
M  V30 8495 O 795.38 2.02463 -5.33259 0
M  V30 8496 O 794.314 0.209781 -6.01534 0
M  V30 8497 H 798.14 -0.900801 -2.90033 0
M  V30 8498 H 795.725 -0.505462 -1.4059 0
M  V30 8499 H 797.607 1.28496 -4.01331 0
M  V30 8500 H 796.282 1.54297 -2.84559 0
M  V30 8501 H 795.189 -0.614984 -3.69011 0
M  V30 8502 H 796.522 -0.789702 -4.85824 0
M  V30 8503 N 798.174 1.49689 -0.493057 0
M  V30 8504 C 799.124 2.25901 0.308682 0
M  V30 8505 C 800.108 1.30408 0.94247 0
M  V30 8506 O 801.3 1.55179 0.851384 0
M  V30 8507 C 798.429 3.14463 1.37725 0
M  V30 8508 C 797.515 4.17414 0.7501 0
M  V30 8509 N 797.906 5.05599 -0.142597 0
M  V30 8510 C 796.204 4.34377 1.01159 0
M  V30 8511 C 796.905 5.7954 -0.500782 0
M  V30 8512 N 795.881 5.43446 0.129386 0
M  V30 8513 H 799.683 2.91451 -0.378652 0
M  V30 8514 H 797.197 1.59441 -0.308614 0
M  V30 8515 H 799.194 3.67687 1.965 0
M  V30 8516 H 797.854 2.50464 2.06635 0
M  V30 8517 H 798.865 5.15354 -0.512894 0
M  V30 8518 H 795.542 3.81588 1.69402 0
M  V30 8519 H 796.932 6.60534 -1.23063 0
M  V30 8520 N 799.652 0.226554 1.55963 0
M  V30 8521 C 801.068 -0.128733 1.5908 0
M  V30 8522 C 801.268 -1.58558 1.24345 0
M  V30 8523 O 800.324 -2.32661 0.981069 0
M  V30 8524 C 801.637 0.202076 3.0002 0
M  V30 8525 C 803.185 0.144718 3.12665 0
M  V30 8526 C 803.66 0.449272 4.55791 0
M  V30 8527 N 805.151 0.399026 4.61478 0
M  V30 8528 C 805.886 0.608106 5.70166 0
M  V30 8529 N 805.382 0.879227 6.87198 0
M  V30 8530 N 807.175 0.5402 5.59498 0
M  V30 8531 H 799.326 1.17686 1.76816 0
M  V30 8532 H 801.589 0.472072 0.822102 0
M  V30 8533 H 801.295 1.21341 3.30105 0
M  V30 8534 H 801.169 -0.480554 3.74126 0
M  V30 8535 H 803.556 -0.857261 2.82374 0
M  V30 8536 H 803.637 0.860899 2.40878 0
M  V30 8537 H 803.281 1.44871 4.86801 0
M  V30 8538 H 803.211 -0.288157 5.25811 0
M  V30 8539 H 805.702 0.197372 3.77384 0
M  V30 8540 H 806.015 1.02673 7.65949 0
M  V30 8541 H 804.36 0.916477 6.88931 0
M  V30 8542 H 807.551 0.328581 4.66945 0
M  V30 8543 H 807.724 0.706548 6.44137 0
M  V30 8544 N 801.13 -1.57531 -0.0467866 0
M  V30 8545 C 802.407 -1.79568 -0.775536 0
M  V30 8546 C 802.787 -0.820322 -1.94509 0
M  V30 8547 O 802.135 0.14134 -2.28062 0
M  V30 8548 C 802.345 -3.26789 -1.22516 0
M  V30 8549 C 803.693 -3.91299 -1.64835 0
M  V30 8550 O 804.717 -3.30831 -1.3202 0
M  V30 8551 O 803.576 -4.97727 -2.25677 0
M  V30 8552 H 800.67 -0.737817 -0.373572 0
M  V30 8553 H 803.216 -1.69682 -0.0249302 0
M  V30 8554 H 801.988 -3.89357 -0.389446 0
M  V30 8555 H 801.611 -3.41496 -2.03633 0
M  V30 8556 N 802.608 0.318715 -1.54344 0
M  V30 8557 C 803.836 1.0755 -1.7675 0
M  V30 8558 C 804.251 1.81543 -0.518422 0
M  V30 8559 O 803.608 1.75198 0.511078 0
M  V30 8560 C 803.659 2.06983 -2.96378 0
M  V30 8561 O 803.38 1.35995 -4.16458 0
M  V30 8562 C 804.881 2.94841 -3.31034 0
M  V30 8563 H 802.101 0.319711 -0.589937 0
M  V30 8564 H 804.645 0.363369 -2.01246 0
M  V30 8565 H 802.8 2.73724 -2.74142 0
M  V30 8566 H 803.214 2.02623 -4.83781 0
M  V30 8567 H 804.688 3.60496 -4.18027 0
M  V30 8568 H 805.165 3.62199 -2.48412 0
M  V30 8569 H 805.771 2.33656 -3.55366 0
M  V30 8570 N 804.086 1.46499 0.581025 0
M  V30 8571 C 805.314 1.5547 1.36517 0
M  V30 8572 C 805.729 0.196407 1.87776 0
M  V30 8573 O 805.086 -0.806577 1.63709 0
M  V30 8574 C 805.137 2.56084 2.55154 0
M  V30 8575 O 804.858 3.86637 2.06018 0
M  V30 8576 C 806.359 2.75011 3.47683 0
M  V30 8577 H 803.579 0.525703 0.416986 0
M  V30 8578 H 806.123 1.9192 0.706177 0
M  V30 8579 H 804.278 2.22633 3.17039 0
M  V30 8580 H 804.692 4.41413 2.83292 0
M  V30 8581 H 806.166 3.49329 4.27403 0
M  V30 8582 H 806.643 1.81978 3.99726 0
M  V30 8583 H 807.249 3.09565 2.91632 0
M  V30 8584 N 805.565 -0.825799 1.34232 0
M  V30 8585 C 806.842 -1.56741 1.17011 0
M  V30 8586 C 807.222 -2.09512 -0.258425 0
M  V30 8587 O 806.57 -1.90664 -1.25935 0
M  V30 8588 C 806.78 -2.69104 2.22225 0
M  V30 8589 C 808.128 -3.37947 2.57055 0
M  V30 8590 O 809.152 -2.79358 2.20992 0
M  V30 8591 O 808.011 -4.43743 3.1899 0
M  V30 8592 H 805.105 -0.69163 0.453405 0
M  V30 8593 H 807.651 -0.867422 1.45856 0
M  V30 8594 H 806.423 -2.27844 3.18124 0
M  V30 8595 H 806.046 -3.46756 1.94541 0
M  V30 8596 N 807.043 -1.17915 -1.04565 0
M  V30 8597 C 808.289 -0.972863 -1.77942 0
M  V30 8598 C 808.622 0.496753 -1.87739 0
M  V30 8599 O 807.897 1.3688 -1.38181 0
M  V30 8600 C 808.18 -1.62227 -3.21488 0
M  V30 8601 C 808.033 -3.16441 -3.19664 0
M  V30 8602 C 809.352 -1.33137 -4.19479 0
M  V30 8603 H 806.471 -0.354843 -0.645953 0
M  V30 8604 H 809.113 -1.45508 -1.22178 0
M  V30 8605 H 807.263 -1.21224 -3.69103 0
M  V30 8606 H 808.935 -3.66544 -2.80077 0
M  V30 8607 H 807.178 -3.48863 -2.57832 0
M  V30 8608 H 807.849 -3.57012 -4.21006 0
M  V30 8609 H 810.325 -1.68654 -3.80388 0
M  V30 8610 H 809.201 -1.81151 -5.18146 0
M  V30 8611 H 809.462 -0.253319 -4.41374 0
M  V30 8612 N 808.521 1.23394 -0.980386 0
M  V30 8613 C 809.932 1.73631 -0.686239 0
M  V30 8614 C 810.283 1.79259 0.797541 0
M  V30 8615 O 809.408 1.43046 1.62379 0
M  V30 8616 C 810.003 3.15332 -1.239 0
M  V30 8617 C 808.562 3.63024 -0.994494 0
M  V30 8618 C 807.709 2.41279 -1.36673 0
M  V30 8619 H 810.66 1.08918 -1.15423 0
M  V30 8620 H 810.681 3.75556 -0.611414 0
M  V30 8621 H 810.193 3.11204 -2.31892 0
M  V30 8622 H 808.294 3.72535 0.0693492 0
M  V30 8623 H 808.407 4.49825 -1.64906 0
M  V30 8624 H 806.771 2.42295 -0.785195 0
M  V30 8625 H 807.554 2.39822 -2.45642 0
M  V30 8626 N 809.999 0.752036 1.385 0
M  V30 8627 C 810.909 0.125318 2.34265 0
M  V30 8628 C 811.925 -0.702437 1.59191 0
M  V30 8629 O 813.101 -0.626951 1.91393 0
M  V30 8630 C 810.166 -0.758486 3.38301 0
M  V30 8631 C 809.227 0.0834636 4.29219 0
M  V30 8632 C 808.46 -0.758252 5.28286 0
M  V30 8633 O 808.683 -1.99632 5.34325 0
M  V30 8634 O 807.617 -0.177878 6.01637 0
M  V30 8635 H 811.443 0.91617 2.89551 0
M  V30 8636 H 809.028 0.512911 1.4032 0
M  V30 8637 H 810.91 -1.26365 4.02007 0
M  V30 8638 H 809.585 -1.52786 2.85374 0
M  V30 8639 H 808.492 0.634545 3.68679 0
M  V30 8640 H 809.825 0.815455 4.85398 0
M  V30 8641 N 811.477 -1.49425 0.500989 0
M  V30 8642 C 812.41 -2.25887 -0.324087 0
M  V30 8643 C 813.388 -1.30469 -0.970388 0
M  V30 8644 O 814.572 -1.59758 -1.00049 0
M  V30 8645 C 811.699 -3.05787 -1.45643 0
M  V30 8646 C 810.745 -4.16359 -0.924508 0
M  V30 8647 S 811.578 -5.35181 0.184707 0
M  V30 8648 C 812.734 -6.18636 -0.950806 0
M  V30 8649 H 812.967 -2.95519 0.324891 0
M  V30 8650 H 810.5 -1.51723 0.286289 0
M  V30 8651 H 812.458 -3.52405 -2.10525 0
M  V30 8652 H 811.119 -2.35624 -2.07703 0
M  V30 8653 H 810.312 -4.71781 -1.77311 0
M  V30 8654 H 809.914 -3.72331 -0.352907 0
M  V30 8655 H 812.206 -6.51581 -1.85603 0
M  V30 8656 H 813.149 -7.06761 -0.435212 0
M  V30 8657 H 813.557 -5.512 -1.21813 0
M  V30 8658 N 812.955 -0.234822 -1.55841 0
M  V30 8659 C 814.366 0.270588 -1.84729 0
M  V30 8660 C 814.717 1.58494 -1.15646 0
M  V30 8661 O 813.842 2.12071 -0.430667 0
M  V30 8662 C 814.437 0.497733 -3.35124 0
M  V30 8663 C 812.996 0.947428 -3.64281 0
M  V30 8664 C 812.143 0.01787 -2.77294 0
M  V30 8665 H 815.094 -0.457691 -1.51957 0
M  V30 8666 H 815.115 1.34199 -3.56049 0
M  V30 8667 H 814.627 -0.459037 -3.85376 0
M  V30 8668 H 812.728 1.91709 -3.19497 0
M  V30 8669 H 812.841 0.812651 -4.72158 0
M  V30 8670 H 811.205 0.527071 -2.49187 0
M  V30 8671 H 811.988 -0.934056 -3.30349 0
M  V30 8672 N 814.433 1.57553 0.0384317 0
M  V30 8673 C 815.383 2.02404 1.0496 0
M  V30 8674 C 816.367 0.911705 1.32577 0
M  V30 8675 O 817.559 1.17561 1.32319 0
M  V30 8676 C 814.688 2.49924 2.35357 0
M  V30 8677 C 813.774 3.6796 2.1087 0
M  V30 8678 N 814.165 4.81009 1.56411 0
M  V30 8679 C 812.463 3.75153 2.41197 0
M  V30 8680 C 813.164 5.62686 1.47512 0
M  V30 8681 N 812.14 5.0752 1.94742 0
M  V30 8682 H 815.942 2.87234 0.622399 0
M  V30 8683 H 813.456 1.60543 0.244916 0
M  V30 8684 H 815.453 2.80312 3.08595 0
M  V30 8685 H 814.113 1.66496 2.78763 0
M  V30 8686 H 815.124 5.02636 1.2481 0
M  V30 8687 H 811.801 3.02507 2.87742 0
M  V30 8688 H 813.191 6.6349 1.05976 0
M  V30 8689 N 815.911 -0.310526 1.54511 0
M  V30 8690 C 817.136 -1.07046 1.7764 0
M  V30 8691 C 817.561 -1.80488 0.529696 0
M  V30 8692 O 816.919 -1.73702 -0.519361 0
M  V30 8693 C 816.967 -2.03411 2.97752 0
M  V30 8694 O 816.071 -3.11545 2.7021 0
M  V30 8695 H 815.412 -0.307994 0.588248 0
M  V30 8696 H 817.942 -0.350848 2.01569 0
M  V30 8697 H 817.952 -2.46048 3.2546 0
M  V30 8698 H 816.627 -1.49361 3.88155 0
M  V30 8699 H 815.204 -2.7349 2.53491 0
M  V30 8700 N 817.389 -1.46805 -0.573248 0
M  V30 8701 C 818.336 -1.58084 -1.68161 0
M  V30 8702 C 819.306 -0.424636 -1.6058 0
M  V30 8703 O 820.491 -0.642623 -1.79652 0
M  V30 8704 C 817.631 -1.58601 -3.06496 0
M  V30 8705 C 816.744 -2.85023 -3.24632 0
M  V30 8706 C 815.879 -2.76981 -4.53271 0
M  V30 8707 C 814.918 -3.983 -4.64783 0
M  V30 8708 N 814.055 -3.88589 -5.84759 0
M  V30 8709 H 818.895 -2.52755 -1.57858 0
M  V30 8710 H 816.432 -1.25385 -0.769218 0
M  V30 8711 H 818.39 -1.56885 -3.86579 0
M  V30 8712 H 817.02 -0.674553 -3.15673 0
M  V30 8713 H 816.072 -2.96678 -2.38089 0
M  V30 8714 H 817.384 -3.7491 -3.29004 0
M  V30 8715 H 816.538 -2.73424 -5.41594 0
M  V30 8716 H 815.277 -1.84751 -4.51352 0
M  V30 8717 H 814.282 -4.02179 -3.74876 0
M  V30 8718 H 815.507 -4.91639 -4.68474 0
M  V30 8719 H 813.453 -2.99151 -5.83819 0
M  V30 8720 H 813.37 -4.7214 -5.90441 0
M  V30 8721 H 814.638 -3.89022 -6.75486 0
M  V30 8722 N 818.867 0.818669 -1.34668 0
M  V30 8723 C 820.115 1.57201 -1.27013 0
M  V30 8724 C 820.436 1.94354 0.158599 0
M  V30 8725 O 819.706 1.62626 1.09223 0
M  V30 8726 H 818.286 0.582919 -0.467135 0
M  V30 8727 H 820.948 0.977234 -1.6863 0
M  V30 8728 H 820.044 2.49291 -1.87778 0
M  V30 8729 N 820.346 1.18468 1.03938 0
M  V30 8730 C 821.278 0.870615 2.12021 0
M  V30 8731 C 822.291 -0.132318 1.62261 0
M  V30 8732 O 823.48 0.0956901 1.78243 0
M  V30 8733 C 820.58 0.279727 3.37744 0
M  V30 8734 C 819.753 1.32863 4.16733 0
M  V30 8735 C 818.812 0.753204 5.20781 0
M  V30 8736 O 817.838 1.42825 5.5099 0
M  V30 8737 N 819.04 -0.448664 5.78764 0
M  V30 8738 H 821.805 1.80091 2.39556 0
M  V30 8739 H 819.366 1.08524 1.20142 0
M  V30 8740 H 821.358 -0.118829 4.04526 0
M  V30 8741 H 819.928 -0.554621 3.07641 0
M  V30 8742 H 819.148 1.90245 3.45254 0
M  V30 8743 H 820.436 2.03574 4.66299 0
M  V30 8744 H 819.834 -1.01481 5.56523 0
M  V30 8745 H 818.391 -0.789125 6.47005 0
M  V30 8746 N 821.824 -1.22873 0.986916 0
M  V30 8747 C 823.072 -1.91084 0.658121 0
M  V30 8748 C 823.393 -1.77304 -0.811675 0
M  V30 8749 O 822.663 -1.15649 -1.58121 0
M  V30 8750 H 821.243 -0.707251 0.240427 0
M  V30 8751 H 823.905 -1.49357 1.25213 0
M  V30 8752 H 823.001 -2.98373 0.915428 0
M  V30 8753 N 823.302 -0.75937 -1.38099 0
M  V30 8754 C 824.212 -0.13774 -2.34195 0
M  V30 8755 C 825.228 0.693985 -1.59561 0
M  V30 8756 O 826.404 0.616792 -1.91723 0
M  V30 8757 C 823.469 0.740535 -3.38699 0
M  V30 8758 C 822.53 -0.106225 -4.29169 0
M  V30 8759 C 821.763 0.730225 -5.28681 0
M  V30 8760 O 821.986 1.96796 -5.35376 0
M  V30 8761 O 820.92 0.145969 -6.01723 0
M  V30 8762 H 824.746 -0.931512 -2.89061 0
M  V30 8763 H 822.331 -0.520345 -1.40046 0
M  V30 8764 H 824.213 1.24232 -4.02672 0
M  V30 8765 H 822.888 1.51271 -2.8618 0
M  V30 8766 H 821.795 -0.654088 -3.68337 0
M  V30 8767 H 823.128 -0.841186 -4.84959 0
M  V30 8768 N 824.78 1.49157 -0.508906 0
M  V30 8769 C 826.005 2.07376 0.0315182 0
M  V30 8770 C 826.43 1.36575 1.2934 0
M  V30 8771 O 825.788 0.424963 1.76249 0
M  V30 8772 C 825.836 3.59661 0.260118 0
M  V30 8773 O 824.94 3.90255 1.33322 0
M  V30 8774 H 824.281 0.663334 -0.029739 0
M  V30 8775 H 826.811 1.91857 -0.710791 0
M  V30 8776 H 826.821 4.05056 0.489225 0
M  V30 8777 H 825.496 4.10601 -0.661794 0
M  V30 8778 H 824.073 3.56661 1.08844 0
M  V30 8779 N 826.258 0.243083 1.55714 0
M  V30 8780 C 827.535 -0.432851 1.90751 0
M  V30 8781 C 827.915 -1.76153 1.16333 0
M  V30 8782 O 827.263 -2.26783 0.279565 0
M  V30 8783 C 827.473 -0.604685 3.43722 0
M  V30 8784 C 828.821 -0.90231 4.14902 0
M  V30 8785 O 829.845 -0.690689 3.49439 0
M  V30 8786 O 828.704 -1.3051 5.30688 0
M  V30 8787 H 825.798 -0.231835 0.79384 0
M  V30 8788 H 828.344 0.286867 1.67258 0
M  V30 8789 H 827.116 0.331655 3.89892 0
M  V30 8790 H 826.739 -1.37509 3.73065 0
M  V30 8791 N 827.736 -1.57571 -0.0300757 0
M  V30 8792 C 829.147 -1.77567 -0.576802 0
M  V30 8793 C 829.498 -0.874034 -1.75656 0
M  V30 8794 O 828.623 -0.0686124 -2.16291 0
M  V30 8795 C 829.218 -3.22016 -1.05315 0
M  V30 8796 C 827.777 -3.43212 -1.5454 0
M  V30 8797 C 826.924 -2.73061 -0.483033 0
M  V30 8798 H 829.875 -1.57483 0.196151 0
M  V30 8799 H 829.896 -3.28474 -1.92055 0
M  V30 8800 H 829.408 -3.87613 -0.194298 0
M  V30 8801 H 827.509 -2.82788 -2.42615 0
M  V30 8802 H 827.622 -4.5182 -1.5936 0
M  V30 8803 H 825.986 -2.36805 -0.937835 0
M  V30 8804 H 826.769 -3.4134 0.366341 0
M  V30 8805 N 829.214 0.302327 -1.54673 0
M  V30 8806 C 830.144 1.37759 -1.88533 0
M  V30 8807 C 831.125 1.52961 -0.744113 0
M  V30 8808 O 832.31 1.6649 -0.999731 0
M  V30 8809 C 829.44 2.74201 -2.13146 0
M  V30 8810 C 828.394 2.73765 -3.28993 0
M  V30 8811 C 827.72 4.13483 -3.39022 0
M  V30 8812 C 829.02 2.35624 -4.66132 0
M  V30 8813 H 830.714 1.0967 -2.78591 0
M  V30 8814 H 828.26 0.52613 -1.34044 0
M  V30 8815 H 830.213 3.49508 -2.35419 0
M  V30 8816 H 828.937 3.03812 -1.19858 0
M  V30 8817 H 827.596 2.00914 -3.06642 0
M  V30 8818 H 827.244 4.40269 -2.43253 0
M  V30 8819 H 826.944 4.14093 -4.16894 0
M  V30 8820 H 828.468 4.90572 -3.63553 0
M  V30 8821 H 829.882 3.00647 -4.88143 0
M  V30 8822 H 828.279 2.47449 -5.46707 0
M  V30 8823 H 829.349 1.30753 -4.66939 0
M  V30 8824 N 830.692 1.47107 0.565454 0
M  V30 8825 C 831.969 1.43787 1.32607 0
M  V30 8826 C 832.349 0.130428 2.10697 0
M  V30 8827 O 831.697 -0.888086 2.10536 0
M  V30 8828 C 831.907 2.67833 2.23755 0
M  V30 8829 C 833.255 3.14704 2.85037 0
M  V30 8830 O 834.279 2.68503 2.34061 0
M  V30 8831 O 833.138 3.95002 3.77671 0
M  V30 8832 H 830.232 0.572623 0.596684 0
M  V30 8833 H 832.778 1.59296 0.58504 0
M  V30 8834 H 831.55 3.54532 1.65597 0
M  V30 8835 H 831.173 2.54869 3.05168 0
M  V30 8836 N 832.17 -0.811516 1.35101 0
M  V30 8837 C 833.12 -1.91227 1.24163 0
M  V30 8838 C 834.104 -1.60307 0.138012 0
M  V30 8839 O 835.296 -1.73116 0.368767 0
M  V30 8840 C 832.425 -3.2808 1.01085 0
M  V30 8841 C 831.511 -3.65082 2.15815 0
M  V30 8842 N 831.902 -3.73558 3.4101 0
M  V30 8843 C 830.2 -3.95005 2.07092 0
M  V30 8844 C 830.901 -4.06158 4.16426 0
M  V30 8845 N 829.877 -4.19982 3.45132 0
M  V30 8846 H 833.679 -1.95975 2.19023 0
M  V30 8847 H 831.193 -1.00583 1.27503 0
M  V30 8848 H 833.19 -4.06771 0.913382 0
M  V30 8849 H 831.85 -3.24622 0.0710406 0
M  V30 8850 H 832.861 -3.56761 3.75423 0
M  V30 8851 H 829.538 -3.99601 1.20937 0
M  V30 8852 H 830.928 -4.19824 5.24592 0
M  V30 8853 N 833.648 -1.19017 -1.03309 0
M  V30 8854 C 834.558 -0.939303 -2.14975 0
M  V30 8855 C 835.574 0.0992359 -1.73717 0
M  V30 8856 O 836.75 -0.0844362 -2.01223 0
M  V30 8857 C 833.815 -0.476712 -3.43407 0
M  V30 8858 C 832.876 -1.58413 -3.99003 0
M  V30 8859 C 832.109 -1.14352 -5.21305 0
M  V30 8860 O 832.332 -0.00534408 -5.704 0
M  V30 8861 O 831.266 -1.94436 -5.6963 0
M  V30 8862 H 835.092 -1.87386 -2.38998 0
M  V30 8863 H 832.677 -0.972635 -1.13403 0
M  V30 8864 H 834.559 -0.22718 -4.20787 0
M  V30 8865 H 833.234 0.429455 -3.20839 0
M  V30 8866 H 832.141 -1.88777 -3.22977 0
M  V30 8867 H 833.474 -2.4667 -4.25928 0
M  V30 8868 N 835.127 1.22348 -0.993418 0
M  V30 8869 C 836.538 1.72893 -0.704616 0
M  V30 8870 C 836.889 1.80095 0.778483 0
M  V30 8871 O 836.014 1.4476 1.60853 0
M  V30 8872 C 836.609 3.14 -1.27237 0
M  V30 8873 C 835.168 3.61949 -1.03294 0
M  V30 8874 C 834.315 2.39816 -1.39225 0
M  V30 8875 H 837.266 1.07688 -1.16572 0
M  V30 8876 H 837.287 3.74886 -0.651212 0
M  V30 8877 H 836.799 3.08727 -2.3518 0
M  V30 8878 H 834.9 3.72588 0.0298329 0
M  V30 8879 H 835.013 4.48051 -1.69668 0
M  V30 8880 H 833.377 2.41448 -0.810849 0
M  V30 8881 H 834.16 2.37203 -2.48172 0
M  V30 8882 N 836.605 0.766683 1.37694 0
M  V30 8883 C 837.568 0.155849 2.2867 0
M  V30 8884 C 838.568 -0.633509 1.47795 0
M  V30 8885 O 839.758 -0.457844 1.68076 0
M  V30 8886 C 836.89 -0.786965 3.31692 0
M  V30 8887 H 838.083 0.957748 2.84196 0
M  V30 8888 H 835.636 0.534554 1.46875 0
M  V30 8889 H 836.371 -1.61406 2.8128 0
M  V30 8890 H 836.156 -0.223182 3.91464 0
M  V30 8891 H 837.646 -1.20994 3.99688 0
M  V30 8892 N 838.083 -1.48885 0.516809 0
M  V30 8893 C 839.329 -2.02788 -0.0220928 0
M  V30 8894 C 839.662 -1.39433 -1.35175 0
M  V30 8895 O 838.937 -0.535459 -1.86984 0
M  V30 8896 C 839.22 -3.59753 -0.158012 0
M  V30 8897 C 839.073 -4.33611 1.19588 0
M  V30 8898 C 840.392 -4.30984 -0.891133 0
M  V30 8899 H 837.511 -0.736971 -0.00655488 0
M  V30 8900 H 840.153 -1.77746 0.671287 0
M  V30 8901 H 838.303 -3.8122 -0.748568 0
M  V30 8902 H 839.975 -4.23598 1.82653 0
M  V30 8903 H 838.218 -3.95547 1.78116 0
M  V30 8904 H 838.889 -5.41846 1.05391 0
M  V30 8905 H 841.365 -4.14267 -0.39012 0
M  V30 8906 H 840.241 -5.40527 -0.955107 0
M  V30 8907 H 840.502 -3.97336 -1.93847 0
M  V30 8908 N 839.561 -0.251338 -1.55583 0
M  V30 8909 C 840.786 0.379136 -2.03905 0
M  V30 8910 C 841.211 1.50428 -1.12929 0
M  V30 8911 O 840.569 1.80882 -0.123114 0
M  V30 8912 C 840.617 0.86009 -3.50193 0
M  V30 8913 O 839.721 1.96932 -3.62342 0
M  V30 8914 H 839.062 0.0820183 -0.658915 0
M  V30 8915 H 841.592 -0.378692 -2.01065 0
M  V30 8916 H 841.602 1.16214 -3.91099 0
M  V30 8917 H 840.277 0.0367559 -4.15884 0
M  V30 8918 H 838.854 1.67163 -3.33333 0
M  V30 8919 N 841.039 1.57585 0.0217189 0
M  V30 8920 C 842.45 1.7787 0.567377 0
M  V30 8921 C 842.801 0.883337 1.7519 0
M  V30 8922 O 841.926 0.0800819 2.16252 0
M  V30 8923 C 842.521 3.2257 1.03606 0
M  V30 8924 C 841.08 3.44026 1.52718 0
M  V30 8925 C 840.227 2.73313 0.468545 0
M  V30 8926 H 843.178 1.57377 -0.2045 0
M  V30 8927 H 843.199 3.29488 1.9031 0
M  V30 8928 H 842.711 3.87711 0.173739 0
M  V30 8929 H 840.812 2.8407 2.41111 0
M  V30 8930 H 840.925 4.52659 1.56962 0
M  V30 8931 H 839.289 2.37299 0.925263 0
M  V30 8932 H 840.072 3.41141 -0.384438 0
M  V30 8933 N 842.517 -0.29412 1.54831 0
M  V30 8934 C 843.447 -1.36757 1.89261 0
M  V30 8935 C 844.428 -1.52564 0.752214 0
M  V30 8936 O 845.613 -1.65958 1.00855 0
M  V30 8937 C 842.743 -2.73066 2.14597 0
M  V30 8938 C 841.697 -2.72017 3.3044 0
M  V30 8939 C 841.023 -4.11679 3.4121 0
M  V30 8940 C 842.323 -2.33149 4.67375 0
M  V30 8941 H 844.017 -1.08191 2.79169 0
M  V30 8942 H 841.563 -0.519014 1.34321 0
M  V30 8943 H 843.516 -3.48255 2.37269 0
M  V30 8944 H 842.24 -3.03172 1.21467 0
M  V30 8945 H 840.899 -1.99285 3.07703 0
M  V30 8946 H 840.547 -4.38973 2.45584 0
M  V30 8947 H 840.247 -4.11877 4.19084 0
M  V30 8948 H 841.771 -4.88637 3.6615 0
M  V30 8949 H 843.185 -2.98054 4.89731 0
M  V30 8950 H 841.582 -2.44546 5.48012 0
M  V30 8951 H 842.652 -1.28275 4.67626 0
M  V30 8952 N 843.995 -1.47404 -0.557645 0
M  V30 8953 C 844.925 -1.62736 -1.67449 0
M  V30 8954 C 845.906 -0.476824 -1.6328 0
M  V30 8955 O 847.091 -0.706108 -1.80908 0
M  V30 8956 C 844.221 -1.641 -3.06086 0
M  V30 8957 C 843.175 -2.78377 -3.25101 0
M  V30 8958 C 842.501 -2.64812 -4.6452 0
M  V30 8959 C 843.801 -4.19971 -3.10518 0
M  V30 8960 H 845.495 -2.56232 -1.54873 0
M  V30 8961 H 843.041 -1.23312 -0.743649 0
M  V30 8962 H 844.994 -1.73417 -3.84063 0
M  V30 8963 H 843.718 -0.671652 -3.19619 0
M  V30 8964 H 842.377 -2.6857 -2.49531 0
M  V30 8965 H 842.025 -1.65906 -4.74852 0
M  V30 8966 H 841.725 -3.41477 -4.78191 0
M  V30 8967 H 843.249 -2.76057 -5.44633 0
M  V30 8968 H 844.663 -4.30757 -3.78313 0
M  V30 8969 H 843.06 -4.97419 -3.35699 0
M  V30 8970 H 844.13 -4.38369 -2.0727 0
M  V30 8971 N 845.473 0.80434 -1.35529 0
M  V30 8972 C 846.884 1.37849 -1.25915 0
M  V30 8973 C 847.235 1.95905 0.107495 0
M  V30 8974 O 846.36 1.91462 1.00852 0
M  V30 8975 C 846.955 2.50608 -2.27994 0
M  V30 8976 C 845.514 3.03879 -2.22114 0
M  V30 8977 C 844.661 1.76856 -2.13582 0
M  V30 8978 H 847.612 0.607192 -1.46625 0
M  V30 8979 H 847.633 3.29221 -1.90772 0
M  V30 8980 H 847.145 2.08323 -3.27449 0
M  V30 8981 H 845.246 3.50622 -1.26077 0
M  V30 8982 H 845.359 3.61707 -3.14173 0
M  V30 8983 H 843.723 1.98498 -1.59595 0
M  V30 8984 H 844.506 1.36721 -3.14901 0
M  V30 8985 N 846.951 1.19563 1.02676 0
M  V30 8986 C 848.367 0.948304 1.28372 0
M  V30 8987 C 848.567 -0.378096 1.97921 0
M  V30 8988 O 847.623 -1.1091 2.26838 0
M  V30 8989 C 848.936 2.12381 2.12873 0
M  V30 8990 C 850.484 2.16366 2.26174 0
M  V30 8991 C 850.959 3.33374 3.14048 0
M  V30 8992 N 852.45 3.33323 3.21636 0
M  V30 8993 C 853.185 4.20504 3.89825 0
M  V30 8994 N 852.681 5.17845 4.60227 0
M  V30 8995 N 854.474 4.08375 3.86246 0
M  V30 8996 H 846.625 2.04899 0.559485 0
M  V30 8997 H 848.888 0.89606 0.309484 0
M  V30 8998 H 848.594 3.08383 1.69094 0
M  V30 8999 H 848.468 2.09621 3.1359 0
M  V30 9000 H 850.855 1.20933 2.69182 0
M  V30 9001 H 850.936 2.23179 1.25 0
M  V30 9002 H 850.58 4.29087 2.71747 0
M  V30 9003 H 850.51 3.23798 4.15286 0
M  V30 9004 H 853.001 2.62863 2.71498 0
M  V30 9005 H 853.314 5.80712 5.09896 0
M  V30 9006 H 851.659 5.21791 4.59085 0
M  V30 9007 H 854.85 3.31606 3.30386 0
M  V30 9008 H 855.023 4.76532 4.39114 0
M  V30 9009 N 848.429 -1.21819 0.999893 0
M  V30 9010 C 849.376 -2.24003 0.556005 0
M  V30 9011 C 850.346 -1.60825 -0.415287 0
M  V30 9012 O 851.531 -1.88123 -0.318481 0
M  V30 9013 C 848.671 -3.44904 -0.116289 0
M  V30 9014 C 847.784 -4.22573 0.897574 0
M  V30 9015 C 846.919 -5.30831 0.198073 0
M  V30 9016 C 845.958 -6.00225 1.19983 0
M  V30 9017 N 845.095 -7.00111 0.528157 0
M  V30 9018 H 849.935 -2.61334 1.43208 0
M  V30 9019 H 847.472 -1.28431 0.717205 0
M  V30 9020 H 849.43 -4.13908 -0.523055 0
M  V30 9021 H 848.06 -3.08315 -0.956108 0
M  V30 9022 H 847.112 -3.52797 1.42262 0
M  V30 9023 H 848.424 -4.70363 1.66013 0
M  V30 9024 H 847.578 -6.06121 -0.265065 0
M  V30 9025 H 846.317 -4.84033 -0.596924 0
M  V30 9026 H 845.322 -5.23711 1.67353 0
M  V30 9027 H 846.547 -6.4911 1.99582 0
M  V30 9028 H 844.493 -6.55534 -0.247276 0
M  V30 9029 H 844.41 -7.45943 1.22904 0
M  V30 9030 H 845.678 -7.7945 0.0880543 0
M  V30 9031 N 849.908 -0.773975 -1.37286 0
M  V30 9032 C 850.818 -0.162571 -2.34036 0
M  V30 9033 C 851.834 0.677022 -1.60289 0
M  V30 9034 O 853.01 0.596423 -1.92366 0
M  V30 9035 C 850.075 0.70457 -3.39465 0
M  V30 9036 C 849.136 -0.151738 -4.29032 0
M  V30 9037 C 848.369 0.674111 -5.29426 0
M  V30 9038 O 848.592 1.91107 -5.37433 0
M  V30 9039 O 847.526 0.0821398 -6.01844 0
M  V30 9040 H 851.352 -0.962119 -2.88057 0
M  V30 9041 H 848.937 -0.53517 -1.39486 0
M  V30 9042 H 850.819 1.19954 -4.03967 0
M  V30 9043 H 849.494 1.48227 -2.87768 0
M  V30 9044 H 848.401 -0.693118 -3.67623 0
M  V30 9045 H 849.734 -0.892575 -4.84039 0
M  V30 9046 N 851.386 1.48609 -0.524698 0
M  V30 9047 C 852.802 1.58557 -0.182199 0
M  V30 9048 C 853.002 1.52732 1.31435 0
M  V30 9049 O 852.058 1.41362 2.0922 0
M  V30 9050 C 853.371 2.90406 -0.78004 0
M  V30 9051 C 854.919 3.03924 -0.748293 0
M  V30 9052 C 855.394 4.38427 -1.32462 0
M  V30 9053 N 856.885 4.4498 -1.28635 0
M  V30 9054 C 857.62 5.47551 -1.70223 0
M  V30 9055 N 857.116 6.57103 -2.19515 0
M  V30 9056 N 858.909 5.38402 -1.61493 0
M  V30 9057 H 851.06 1.50638 -1.4974 0
M  V30 9058 H 853.323 0.714952 -0.622533 0
M  V30 9059 H 853.029 3.00308 -1.83052 0
M  V30 9060 H 852.903 3.76343 -0.254075 0
M  V30 9061 H 855.29 2.93638 0.293407 0
M  V30 9062 H 855.371 2.19611 -1.31167 0
M  V30 9063 H 855.015 4.49466 -2.36522 0
M  V30 9064 H 854.945 5.21418 -0.736967 0
M  V30 9065 H 857.436 3.66393 -0.92545 0
M  V30 9066 H 857.749 7.31499 -2.49257 0
M  V30 9067 H 856.094 6.58081 -2.23506 0
M  V30 9068 H 859.285 4.5171 -1.22785 0
M  V30 9069 H 859.458 6.18208 -1.94225 0
M  V30 9070 N 852.864 0.259585 1.55447 0
M  V30 9071 C 854.112 -0.360893 1.98852 0
M  V30 9072 C 854.433 -1.57535 1.14924 0
M  V30 9073 O 853.703 -1.94485 0.235025 0
M  V30 9074 H 852.283 -0.136332 0.734454 0
M  V30 9075 H 854.945 0.361319 1.91522 0
M  V30 9076 H 854.041 -0.661388 3.05012 0
M  V30 9077 N 854.342 -1.57594 -0.0133615 0
M  V30 9078 C 855.753 -1.78168 -0.557937 0
M  V30 9079 C 856.104 -0.892616 -1.74719 0
M  V30 9080 O 855.229 -0.0915491 -2.16206 0
M  V30 9081 C 855.824 -3.23115 -1.01894 0
M  V30 9082 C 854.383 -3.44831 -1.50892 0
M  V30 9083 C 853.53 -2.73558 -0.454044 0
M  V30 9084 H 856.481 -1.57266 0.212843 0
M  V30 9085 H 856.502 -3.30493 -1.8856 0
M  V30 9086 H 856.014 -3.87798 -0.153175 0
M  V30 9087 H 854.115 -2.85345 -2.39602 0
M  V30 9088 H 854.228 -4.53485 -1.54559 0
M  V30 9089 H 852.592 -2.37787 -0.912666 0
M  V30 9090 H 853.375 -3.40932 0.402524 0
M  V30 9091 N 855.82 0.285905 -1.54985 0
M  V30 9092 C 857.231 0.857869 -1.65824 0
M  V30 9093 C 857.582 1.87531 -0.576763 0
M  V30 9094 O 856.707 2.14528 0.284016 0
M  V30 9095 C 857.302 1.56277 -3.00604 0
M  V30 9096 C 855.861 2.08294 -3.13513 0
M  V30 9097 C 855.008 0.920633 -2.61571 0
M  V30 9098 H 857.959 0.0625463 -1.58577 0
M  V30 9099 H 857.98 2.42912 -2.92872 0
M  V30 9100 H 857.492 0.822017 -3.79295 0
M  V30 9101 H 855.593 2.8537 -2.39572 0
M  V30 9102 H 855.706 2.3071 -4.19892 0
M  V30 9103 H 854.07 1.31043 -2.18403 0
M  V30 9104 H 854.853 0.193594 -3.42754 0
M  V30 9105 N 857.298 1.47698 0.54982 0
M  V30 9106 C 858.208 1.63386 1.68351 0
M  V30 9107 C 859.224 0.516583 1.66155 0
M  V30 9108 O 860.4 0.785088 1.85468 0
M  V30 9109 C 857.465 1.6513 3.04849 0
M  V30 9110 C 856.526 2.88338 3.18056 0
M  V30 9111 C 855.759 2.8999 4.48042 0
M  V30 9112 O 855.982 2.00633 5.3395 0
M  V30 9113 O 854.916 3.81938 4.65196 0
M  V30 9114 H 858.742 2.59329 1.58057 0
M  V30 9115 H 856.327 1.30869 0.72067 0
M  V30 9116 H 858.209 1.68913 3.86065 0
M  V30 9117 H 856.884 0.723555 3.1551 0
M  V30 9118 H 855.791 2.90097 2.36209 0
M  V30 9119 H 857.124 3.80431 3.12302 0
M  V30 9120 N 858.776 -0.797141 1.35954 0
M  V30 9121 C 860.024 -1.55161 1.29497 0
M  V30 9122 C 860.345 -1.94582 -0.127659 0
M  V30 9123 O 859.615 -1.64343 -1.06622 0
M  V30 9124 H 858.195 -0.575413 0.47635 0
M  V30 9125 H 860.857 -0.950282 1.70164 0
M  V30 9126 H 859.953 -2.46272 1.9172 0
M  V30 9127 N 860.254 -1.20106 -1.0204 0
M  V30 9128 C 861.502 -1.0069 -1.75231 0
M  V30 9129 C 861.823 0.462491 -1.89436 0
M  V30 9130 O 861.093 1.33455 -1.4341 0
M  V30 9131 H 859.673 -0.369576 -0.649171 0
M  V30 9132 H 862.335 -1.51149 -1.23044 0
M  V30 9133 H 861.431 -1.46205 -2.75736 0
M  V30 9134 N 861.732 1.21287 -1.00634 0
M  V30 9135 C 862.662 2.25973 -0.588089 0
M  V30 9136 C 863.643 1.65527 0.391764 0
M  V30 9137 O 864.828 1.92179 0.279452 0
M  V30 9138 C 861.958 3.47197 0.0847336 0
M  V30 9139 C 860.912 4.20168 -0.815039 0
M  V30 9140 C 860.238 5.34699 -0.00855393 0
M  V30 9141 C 861.538 4.77416 -2.11828 0
M  V30 9142 H 863.232 2.61212 -1.46317 0
M  V30 9143 H 860.778 1.25563 -0.704985 0
M  V30 9144 H 862.731 4.19602 0.388821 0
M  V30 9145 H 861.455 3.11092 0.994456 0
M  V30 9146 H 860.114 3.49614 -1.10297 0
M  V30 9147 H 859.762 4.94837 0.902499 0
M  V30 9148 H 859.462 5.84449 -0.607664 0
M  V30 9149 H 860.986 6.09914 0.289317 0
M  V30 9150 H 862.4 5.41694 -1.87725 0
M  V30 9151 H 860.797 5.37561 -2.66736 0
M  V30 9152 H 861.867 3.96724 -2.78816 0
M  V30 9153 N 863.21 0.781244 1.36873 0
M  V30 9154 C 864.158 0.161889 2.32036 0
M  V30 9155 C 865.152 -0.674225 1.55405 0
M  V30 9156 O 866.358 -0.570223 1.70729 0
M  V30 9157 H 862.733 0.0335702 0.75125 0
M  V30 9158 H 864.704 0.980078 2.81846 0
M  V30 9159 C 863.453 -0.695352 3.40676 0
M  V30 9160 H 862.776 -0.0613425 3.99753 0
M  V30 9161 H 864.216 -1.09553 4.09602 0
M  V30 9162 C 862.675 -1.85008 2.81556 0
M  V30 9163 O 863.205 -2.94616 2.73065 0
M  V30 9164 N 861.411 -1.65364 2.38962 0
M  V30 9165 H 860.958 -0.762106 2.46068 0
M  V30 9166 H 860.916 -2.42789 1.99752 0
M  V30 9167 N 864.689 -1.48329 0.532571 0
M  V30 9168 C 865.599 -2.33445 -0.232546 0
M  V30 9169 C 866.615 -1.46651 -0.93645 0
M  V30 9170 O 867.791 -1.79627 -0.910834 0
M  V30 9171 C 864.856 -3.22824 -1.26434 0
M  V30 9172 C 863.917 -4.25492 -0.570511 0
M  V30 9173 C 863.15 -5.10601 -1.55315 0
M  V30 9174 O 863.373 -4.97733 -2.78599 0
M  V30 9175 O 862.307 -5.91927 -1.09112 0
M  V30 9176 H 866.133 -3.00119 0.464988 0
M  V30 9177 H 863.718 -1.46489 0.293462 0
M  V30 9178 H 865.6 -3.78103 -1.86055 0
M  V30 9179 H 864.275 -2.58807 -1.94424 0
M  V30 9180 H 863.182 -3.74041 0.0662587 0
M  V30 9181 H 864.515 -4.92154 0.0674904 0
M  V30 9182 N 866.167 -0.267825 -1.55308 0
M  V30 9183 C 867.444 0.402449 -1.91415 0
M  V30 9184 C 867.824 1.7428 -1.1912 0
M  V30 9185 O 867.172 2.2631 -0.315609 0
M  V30 9186 C 867.382 0.549926 -3.4464 0
M  V30 9187 C 868.73 0.836188 -4.16285 0
M  V30 9188 O 869.754 0.635009 -3.50494 0
M  V30 9189 O 868.613 1.22051 -5.32697 0
M  V30 9190 H 865.707 0.219177 -0.797427 0
M  V30 9191 H 868.253 -0.313439 -1.6678 0
M  V30 9192 H 867.025 -0.393641 -3.89315 0
M  V30 9193 H 866.648 1.31556 -3.75205 0
M  V30 9194 N 867.645 1.57599 0.00500368 0
M  V30 9195 C 868.555 2.11532 1.01446 0
M  V30 9196 C 869.571 1.05941 1.3803 0
M  V30 9197 O 870.747 1.37815 1.46864 0
M  V30 9198 C 867.812 2.60382 2.28915 0
M  V30 9199 C 866.873 3.80554 1.98689 0
M  V30 9200 C 866.106 4.27064 3.20081 0
M  V30 9201 O 866.329 3.72939 4.31593 0
M  V30 9202 O 865.263 5.1927 3.04371 0
M  V30 9203 H 869.089 2.97993 0.586011 0
M  V30 9204 H 866.674 1.47718 0.223519 0
M  V30 9205 H 868.556 2.92024 3.03809 0
M  V30 9206 H 867.231 1.77022 2.71007 0
M  V30 9207 H 866.138 3.53893 1.21286 0
M  V30 9208 H 867.471 4.64972 1.61437 0
M  V30 9209 N 869.123 -0.277682 1.55134 0
M  V30 9210 C 870.539 -0.624625 1.46869 0
M  V30 9211 C 870.739 -1.89717 0.678958 0
M  V30 9212 O 869.795 -2.51739 0.195939 0
M  V30 9213 C 871.108 -0.755937 2.91043 0
M  V30 9214 C 872.656 -0.850299 3.01229 0
M  V30 9215 C 873.131 -1.01343 4.46647 0
M  V30 9216 N 874.622 -1.07906 4.50456 0
M  V30 9217 C 875.357 -1.224 5.60184 0
M  V30 9218 N 874.853 -1.33642 6.79788 0
M  V30 9219 N 876.646 -1.25473 5.47917 0
M  V30 9220 H 868.797 0.558102 2.04937 0
M  V30 9221 H 871.06 0.188228 0.929125 0
M  V30 9222 H 870.766 0.108593 3.51532 0
M  V30 9223 H 870.64 -1.6377 3.39793 0
M  V30 9224 H 873.027 -1.7053 2.40839 0
M  V30 9225 H 873.108 0.0559681 2.55739 0
M  V30 9226 H 872.752 -0.163102 5.07638 0
M  V30 9227 H 872.682 -1.93427 4.89789 0
M  V30 9228 H 875.173 -1.00477 3.64298 0
M  V30 9229 H 875.486 -1.44522 7.59166 0
M  V30 9230 H 873.831 -1.30655 6.82608 0
M  V30 9231 H 877.022 -1.16317 4.53418 0
M  V30 9232 H 877.195 -1.36424 6.33476 0
M  V30 9233 N 870.601 -1.47988 -0.541979 0
M  V30 9234 C 871.531 -1.64503 -1.65713 0
M  V30 9235 C 872.512 -0.494116 -1.62765 0
M  V30 9236 O 873.697 -0.725256 -1.80149 0
M  V30 9237 C 870.827 -1.67337 -3.04328 0
M  V30 9238 C 869.781 -2.81809 -3.2213 0
M  V30 9239 C 869.107 -2.69724 -4.61685 0
M  V30 9240 C 870.407 -4.23241 -3.06046 0
M  V30 9241 H 872.101 -2.5786 -1.52147 0
M  V30 9242 H 869.647 -1.24094 -0.730529 0
M  V30 9243 H 871.6 -1.77481 -3.82202 0
M  V30 9244 H 870.324 -0.705514 -3.18889 0
M  V30 9245 H 868.983 -2.71201 -2.46669 0
M  V30 9246 H 868.631 -1.70934 -4.73065 0
M  V30 9247 H 868.331 -3.4653 -4.74543 0
M  V30 9248 H 869.855 -2.81818 -5.41674 0
M  V30 9249 H 871.269 -4.34746 -3.73723 0
M  V30 9250 H 869.666 -5.00952 -3.30405 0
M  V30 9251 H 870.736 -4.40543 -2.02609 0
M  V30 9252 N 872.079 0.78992 -1.36375 0
M  V30 9253 C 873.009 1.91683 -1.33341 0
M  V30 9254 C 873.99 1.68861 -0.204965 0
M  V30 9255 O 875.175 1.89982 -0.402531 0
M  V30 9256 C 872.305 3.28696 -1.12143 0
M  V30 9257 C 871.259 3.66041 -2.21806 0
M  V30 9258 C 870.585 5.01399 -1.85751 0
M  V30 9259 C 871.885 3.74677 -3.63888 0
M  V30 9260 H 873.579 1.94478 -2.27637 0
M  V30 9261 H 871.125 0.934271 -1.09578 0
M  V30 9262 H 873.078 4.07151 -1.08656 0
M  V30 9263 H 871.802 3.26287 -0.142974 0
M  V30 9264 H 870.461 2.89883 -2.24418 0
M  V30 9265 H 870.109 4.9551 -0.864817 0
M  V30 9266 H 869.809 5.27355 -2.59173 0
M  V30 9267 H 871.333 5.82274 -1.83819 0
M  V30 9268 H 872.747 4.43324 -3.63506 0
M  V30 9269 H 871.144 4.12118 -4.3621 0
M  V30 9270 H 872.214 2.75795 -3.9883 0
M  V30 9271 N 873.557 1.20646 1.01402 0
M  V30 9272 C 874.968 1.01823 1.56489 0
M  V30 9273 C 875.319 -0.42463 1.9155 0
M  V30 9274 O 874.444 -1.30644 1.72514 0
M  V30 9275 C 875.039 1.84208 2.84347 0
M  V30 9276 C 873.598 1.69743 3.35953 0
M  V30 9277 C 872.745 1.8198 2.09233 0
M  V30 9278 H 875.696 1.348 0.837539 0
M  V30 9279 H 875.717 1.34698 3.55861 0
M  V30 9280 H 875.229 2.89215 2.58798 0
M  V30 9281 H 873.33 0.673833 3.66456 0
M  V30 9282 H 873.443 2.51173 4.07981 0
M  V30 9283 H 871.807 1.25193 2.21808 0
M  V30 9284 H 872.59 2.88477 1.86107 0
M  V30 9285 N 875.035 -1.20752 1.01276 0
M  V30 9286 C 875.982 -2.234 0.579732 0
M  V30 9287 C 876.952 -1.61256 -0.398206 0
M  V30 9288 O 878.137 -1.8845 -0.29851 0
M  V30 9289 C 875.277 -3.45008 -0.0797006 0
M  V30 9290 C 874.39 -4.21597 0.942343 0
M  V30 9291 C 873.525 -5.30591 0.254364 0
M  V30 9292 C 872.564 -5.98919 1.26343 0
M  V30 9293 N 871.701 -6.99511 0.602384 0
M  V30 9294 H 876.541 -2.59801 1.45971 0
M  V30 9295 H 874.078 -1.27663 0.730787 0
M  V30 9296 H 876.036 -4.1444 -0.479125 0
M  V30 9297 H 874.666 -3.09312 -0.923354 0
M  V30 9298 H 873.718 -3.51268 1.45996 0
M  V30 9299 H 875.03 -4.68576 1.70992 0
M  V30 9300 H 874.184 -6.06368 -0.200763 0
M  V30 9301 H 872.923 -4.84639 -0.545553 0
M  V30 9302 H 871.928 -5.21906 1.72898 0
M  V30 9303 H 873.153 -6.46957 2.06456 0
M  V30 9304 H 871.099 -6.55759 -0.177734 0
M  V30 9305 H 871.016 -7.44597 1.30809 0
M  V30 9306 H 872.284 -7.79313 0.17072 0
M  V30 9307 N 876.513 -0.788492 -1.36457 0
M  V30 9308 C 877.79 -0.284484 -1.9352 0
M  V30 9309 C 878.17 1.2232 -1.7205 0
M  V30 9310 O 877.518 2.01424 -1.07892 0
M  V30 9311 C 877.728 -0.676106 -3.42388 0
M  V30 9312 C 879.076 -0.655327 -4.19512 0
M  V30 9313 O 880.1 -0.616523 -3.50824 0
M  V30 9314 O 878.959 -0.697391 -5.42032 0
M  V30 9315 H 876.053 -0.0701769 -0.824017 0
M  V30 9316 H 878.599 -0.870974 -1.45644 0
M  V30 9317 H 877.371 -1.71596 -3.51668 0
M  V30 9318 H 876.994 -0.0634517 -3.97549 0
M  V30 9319 N 877.991 1.48044 -0.54043 0
M  V30 9320 C 878.938 2.29781 0.216597 0
M  V30 9321 C 879.908 1.38021 0.924094 0
M  V30 9322 O 881.093 1.66985 0.923078 0
M  V30 9323 C 878.233 3.21623 1.2511 0
M  V30 9324 C 877.346 4.28467 0.551384 0
M  V30 9325 C 876.481 5.07477 1.56972 0
M  V30 9326 C 875.52 6.06113 0.854048 0
M  V30 9327 N 874.657 6.78143 1.81842 0
M  V30 9328 H 879.497 2.94001 -0.486578 0
M  V30 9329 H 877.034 1.44929 -0.251789 0
M  V30 9330 H 878.992 3.73279 1.8633 0
M  V30 9331 H 877.622 2.59305 1.92252 0
M  V30 9332 H 876.674 3.79997 -0.174982 0
M  V30 9333 H 877.986 4.98799 -0.0100542 0
M  V30 9334 H 877.14 5.63199 2.25592 0
M  V30 9335 H 875.879 4.37008 2.16507 0
M  V30 9336 H 874.884 5.49585 0.153838 0
M  V30 9337 H 876.109 6.78584 0.264675 0
M  V30 9338 H 874.055 6.10417 2.40265 0
M  V30 9339 H 873.972 7.44587 1.3087 0
M  V30 9340 H 875.24 7.38448 2.49628 0
M  V30 9341 N 879.47 0.276058 1.55163 0
M  V30 9342 C 880.417 -0.611006 2.22565 0
M  V30 9343 C 881.387 -1.14902 1.19945 0
M  V30 9344 O 882.572 -1.19815 1.48489 0
M  V30 9345 C 879.712 -1.78885 2.95117 0
M  V30 9346 C 878.825 -1.2846 4.12458 0
M  V30 9347 C 877.96 -2.42432 4.72652 0
M  V30 9348 C 876.999 -1.89015 5.82185 0
M  V30 9349 N 876.136 -2.96463 6.36439 0
M  V30 9350 H 880.976 -0.0295849 2.97985 0
M  V30 9351 H 878.513 -0.00283607 1.471 0
M  V30 9352 H 880.471 -2.48121 3.35398 0
M  V30 9353 H 879.101 -2.34229 2.22119 0
M  V30 9354 H 878.153 -0.485312 3.77292 0
M  V30 9355 H 879.465 -0.853358 4.91446 0
M  V30 9356 H 878.619 -3.19659 5.15658 0
M  V30 9357 H 877.358 -2.88872 3.92943 0
M  V30 9358 H 876.363 -1.10267 5.38629 0
M  V30 9359 H 877.588 -1.43509 6.63763 0
M  V30 9360 H 875.534 -3.42283 5.59623 0
M  V30 9361 H 875.451 -2.57759 7.10701 0
M  V30 9362 H 876.719 -3.73663 6.84103 0
M  V30 9363 N 880.948 -1.576 0.00335426 0
M  V30 9364 C 882.176 -1.94996 -0.691685 0
M  V30 9365 C 882.591 -0.878405 -1.67121 0
M  V30 9366 O 881.948 0.142343 -1.81944 0
M  V30 9367 C 881.999 -3.32416 -1.42063 0
M  V30 9368 O 881.72 -4.35458 -0.48038 0
M  V30 9369 C 883.221 -3.84291 -2.20987 0
M  V30 9370 H 880.441 -0.642814 -0.192434 0
M  V30 9371 H 882.985 -2.04425 0.0554706 0
M  V30 9372 H 881.14 -3.24285 -2.11939 0
M  V30 9373 H 881.554 -5.14975 -0.995054 0
M  V30 9374 H 883.028 -4.82863 -2.67483 0
M  V30 9375 H 883.505 -3.17174 -3.03805 0
M  V30 9376 H 884.111 -3.95609 -1.56121 0
M  V30 9377 N 882.426 0.269451 -1.5528 0
M  V30 9378 C 883.374 1.35303 -1.89198 0
M  V30 9379 C 884.368 1.50956 -0.768671 0
M  V30 9380 O 885.574 1.52699 -0.953054 0
M  V30 9381 H 881.949 0.452591 -0.600554 0
M  V30 9382 H 883.92 1.03949 -2.79709 0
M  V30 9383 C 882.669 2.70585 -2.18356 0
M  V30 9384 H 881.992 2.59332 -3.04281 0
M  V30 9385 H 883.432 3.45335 -2.46007 0
M  V30 9386 C 881.891 3.21954 -0.992327 0
M  V30 9387 O 882.421 4.01048 -0.228769 0
M  V30 9388 N 880.627 2.79682 -0.789062 0
M  V30 9389 H 880.174 2.15475 -1.41167 0
M  V30 9390 H 880.132 3.14399 0.00634776 0
M  V30 9391 N 883.904 1.48273 0.534124 0
M  V30 9392 C 884.834 1.6538 1.64839 0
M  V30 9393 C 885.815 0.502741 1.62501 0
M  V30 9394 O 887 0.734799 1.79762 0
M  V30 9395 C 884.13 1.68949 3.03436 0
M  V30 9396 C 883.084 2.83513 3.20631 0
M  V30 9397 C 882.41 2.72169 4.60248 0
M  V30 9398 C 883.71 4.24858 3.03797 0
M  V30 9399 H 885.404 2.58663 1.50777 0
M  V30 9400 H 882.95 1.24479 0.723937 0
M  V30 9401 H 884.903 1.79505 3.81256 0
M  V30 9402 H 883.627 0.722415 3.1851 0
M  V30 9403 H 882.286 2.72505 2.45227 0
M  V30 9404 H 881.934 1.7344 4.72152 0
M  V30 9405 H 881.634 3.49042 4.72698 0
M  V30 9406 H 883.158 2.84687 5.40172 0
M  V30 9407 H 884.572 4.36721 3.71413 0
M  V30 9408 H 882.969 5.02697 3.27743 0
M  V30 9409 H 884.039 4.41611 2.0027 0
M  V30 9410 N 885.382 -0.782676 1.36792 0
M  V30 9411 C 886.629 -1.54083 1.31395 0
M  V30 9412 C 886.957 -1.94217 -0.104797 0
M  V30 9413 O 886.212 -1.63491 -1.0756 0
M  V30 9414 C 886.511 -2.82542 2.18872 0
M  V30 9415 C 886.177 -2.61512 3.67317 0
M  V30 9416 C 884.839 -2.55486 4.07775 0
M  V30 9417 C 887.191 -2.42389 4.61407 0
M  V30 9418 C 884.519 -2.28311 5.40454 0
M  V30 9419 C 886.871 -2.1674 5.94312 0
M  V30 9420 C 885.535 -2.09151 6.33887 0
M  V30 9421 H 884.805 -0.563829 0.48081 0
M  V30 9422 H 887.452 -0.902436 1.68903 0
M  V30 9423 H 885.757 -3.50883 1.74323 0
M  V30 9424 H 887.454 -3.40367 2.12017 0
M  V30 9425 H 884.044 -2.67062 3.35225 0
M  V30 9426 H 888.228 -2.46043 4.31018 0
M  V30 9427 H 883.484 -2.20922 5.70091 0
M  V30 9428 H 887.658 -2.0094 6.6678 0
M  V30 9429 H 885.285 -1.87857 7.36623 0
M  V30 9430 N 886.86 -1.21182 -1.00761 0
M  V30 9431 C 888.085 -1.05411 -1.78615 0
M  V30 9432 C 888.51 0.391837 -1.83973 0
M  V30 9433 O 887.868 1.28256 -1.28141 0
M  V30 9434 C 887.916 -1.65285 -3.20489 0
M  V30 9435 O 887.02 -0.896558 -4.02536 0
M  V30 9436 H 886.361 -0.37116 -0.550578 0
M  V30 9437 H 888.891 -1.60669 -1.26676 0
M  V30 9438 H 888.901 -1.69397 -3.71172 0
M  V30 9439 H 887.576 -2.70514 -3.15904 0
M  V30 9440 H 886.153 -0.930335 -3.61108 0
M  V30 9441 N 888.338 1.20213 -1.01915 0
M  V30 9442 C 889.301 2.21307 -0.596327 0
M  V30 9443 C 890.301 1.57274 0.334879 0
M  V30 9444 O 891.491 1.73764 0.12322 0
M  V30 9445 C 888.623 3.40657 0.128808 0
M  V30 9446 H 889.816 2.60228 -1.49068 0
M  V30 9447 H 887.369 1.33721 -0.809226 0
M  V30 9448 H 888.104 3.07241 1.03796 0
M  V30 9449 H 887.889 3.88361 -0.540183 0
M  V30 9450 H 889.379 4.15564 0.411892 0
M  V30 9451 N 889.816 0.795718 1.36037 0
M  V30 9452 C 890.746 0.212803 2.32528 0
M  V30 9453 C 891.727 -0.655716 1.56953 0
M  V30 9454 O 892.912 -0.588238 1.85077 0
M  V30 9455 C 890.042 -0.648189 3.41198 0
M  V30 9456 C 888.996 0.120948 4.27829 0
M  V30 9457 C 888.322 -0.861044 5.27722 0
M  V30 9458 C 889.622 1.31375 5.05508 0
M  V30 9459 H 891.316 1.01893 2.81528 0
M  V30 9460 H 888.862 0.491422 1.35355 0
M  V30 9461 H 890.815 -1.06597 4.07695 0
M  V30 9462 H 889.539 -1.48709 2.9078 0
M  V30 9463 H 888.198 0.519777 3.62897 0
M  V30 9464 H 887.846 -1.69515 4.73575 0
M  V30 9465 H 887.546 -0.350808 5.86552 0
M  V30 9466 H 889.07 -1.27726 5.97092 0
M  V30 9467 H 890.484 0.971406 5.6501 0
M  V30 9468 H 888.881 1.75772 5.73781 0
M  V30 9469 H 889.951 2.10593 4.36782 0
M  V30 9470 N 891.294 -1.47756 0.548274 0
M  V30 9471 C 892.543 -2.01691 0.0187961 0
M  V30 9472 C 892.856 -1.42894 -1.33569 0
M  V30 9473 O 894.062 -1.88438 -1.95457 0
M  V30 9474 C 892.518 -3.59896 -0.016847 0
M  V30 9475 C 892.126 -4.27683 1.33385 0
M  V30 9476 C 893.87 -4.21614 -0.494188 0
M  V30 9477 C 891.777 -5.7787 1.2578 0
M  V30 9478 H 890.707 -0.753993 0.00325648 0
M  V30 9479 H 893.358 -1.69838 0.694792 0
M  V30 9480 H 891.74 -3.88672 -0.758304 0
M  V30 9481 H 892.914 -4.10559 2.09232 0
M  V30 9482 H 891.229 -3.77915 1.7484 0
M  V30 9483 H 893.826 -5.3166 -0.569342 0
M  V30 9484 H 894.169 -3.88176 -1.50417 0
M  V30 9485 H 894.702 -3.97336 0.192138 0
M  V30 9486 H 891.441 -6.15912 2.2435 0
M  V30 9487 H 890.961 -5.97355 0.540997 0
M  V30 9488 H 892.64 -6.39897 0.956109 0
M  V30 9489 N 892.772 -0.284283 -1.55015 0
M  V30 9490 C 893.719 0.599194 -2.22886 0
M  V30 9491 C 894.689 1.14264 -1.20553 0
M  V30 9492 O 895.874 1.19025 -1.49123 0
M  V30 9493 C 893.014 1.77317 -2.96062 0
M  V30 9494 C 892.127 1.26271 -4.13134 0
M  V30 9495 C 891.262 2.39922 -4.73931 0
M  V30 9496 C 890.301 1.85925 -5.8318 0
M  V30 9497 N 889.438 2.93084 -6.38002 0
M  V30 9498 H 894.278 0.0137816 -2.97997 0
M  V30 9499 H 891.815 -0.00496503 -1.47099 0
M  V30 9500 H 893.773 2.46339 -3.36709 0
M  V30 9501 H 892.403 2.33047 -2.23358 0
M  V30 9502 H 891.455 0.465296 -3.77544 0
M  V30 9503 H 892.767 0.827284 -4.91892 0
M  V30 9504 H 891.921 3.1692 -5.17346 0
M  V30 9505 H 890.66 2.86784 -3.9447 0
M  V30 9506 H 889.665 1.07409 -5.39206 0
M  V30 9507 H 890.89 1.39987 -6.64515 0
M  V30 9508 H 888.836 3.3931 -5.61431 0
M  V30 9509 H 888.753 2.53986 -7.12058 0
M  V30 9510 H 890.021 3.7003 -6.86075 0
M  V30 9511 N 894.251 1.57596 -0.0117121 0
M  V30 9512 C 895.198 2.09153 0.975897 0
M  V30 9513 C 896.168 0.989579 1.33404 0
M  V30 9514 O 897.353 1.26273 1.43038 0
M  V30 9515 C 894.493 2.60906 2.2588 0
M  V30 9516 C 893.606 3.85046 1.95866 0
M  V30 9517 C 892.741 4.25257 3.18323 0
M  V30 9518 C 891.78 5.42202 2.84049 0
M  V30 9519 N 890.917 5.77651 3.99079 0
M  V30 9520 H 895.757 2.93261 0.52931 0
M  V30 9521 H 893.294 1.44965 0.249691 0
M  V30 9522 H 895.252 2.88995 3.00895 0
M  V30 9523 H 893.882 1.79654 2.68187 0
M  V30 9524 H 892.934 3.63794 1.11168 0
M  V30 9525 H 894.246 4.70151 1.66611 0
M  V30 9526 H 893.4 4.5469 4.01674 0
M  V30 9527 H 892.139 3.38884 3.50726 0
M  V30 9528 H 891.144 5.1248 1.99107 0
M  V30 9529 H 892.369 6.3026 2.52881 0
M  V30 9530 H 890.315 4.94235 4.31356 0
M  V30 9531 H 890.232 6.57356 3.73388 0
M  V30 9532 H 891.5 6.11681 4.83183 0
M  V30 9533 N 895.729 -0.261212 1.5542 0
M  V30 9534 C 896.676 -1.32315 1.89107 0
M  V30 9535 C 897.646 -1.48517 0.743767 0
M  V30 9536 O 898.831 -1.62733 0.996123 0
M  V30 9537 C 895.971 -2.67626 2.17877 0
M  V30 9538 C 895.084 -2.59549 3.45338 0
M  V30 9539 C 894.219 -3.87118 3.63748 0
M  V30 9540 C 893.258 -3.736 4.8486 0
M  V30 9541 N 892.395 -4.93029 4.99867 0
M  V30 9542 H 897.235 -1.02886 2.79675 0
M  V30 9543 H 894.772 -0.496812 1.38456 0
M  V30 9544 H 896.73 -3.4637 2.32559 0
M  V30 9545 H 895.36 -2.95232 1.30529 0
M  V30 9546 H 894.412 -1.72452 3.39064 0
M  V30 9547 H 895.724 -2.45465 4.34222 0
M  V30 9548 H 894.878 -4.74305 3.78312 0
M  V30 9549 H 893.617 -4.04084 2.73071 0
M  V30 9550 H 892.622 -2.84797 4.70288 0
M  V30 9551 H 893.847 -3.58143 5.76984 0
M  V30 9552 H 891.793 -5.10383 4.12123 0
M  V30 9553 H 891.71 -4.81521 5.82815 0
M  V30 9554 H 892.978 -5.81754 5.18828 0
M  V30 9555 N 897.207 -1.48554 -0.526253 0
M  V30 9556 C 898.154 -1.63354 -1.63046 0
M  V30 9557 C 899.124 -0.475509 -1.59148 0
M  V30 9558 O 900.309 -0.699453 -1.77517 0
M  V30 9559 C 897.449 -1.68271 -3.01295 0
M  V30 9560 C 896.562 -2.95207 -3.15399 0
M  V30 9561 C 895.697 -2.91262 -4.4423 0
M  V30 9562 C 894.736 -4.12886 -4.51876 0
M  V30 9563 N 893.873 -4.06996 -5.721 0
M  V30 9564 H 898.713 -2.57649 -1.49737 0
M  V30 9565 H 896.25 -1.27769 -0.728938 0
M  V30 9566 H 898.208 -1.69104 -3.81392 0
M  V30 9567 H 896.838 -0.774641 -3.13367 0
M  V30 9568 H 895.89 -3.04102 -2.2853 0
M  V30 9569 H 897.202 -3.85187 -3.1691 0
M  V30 9570 H 896.356 -2.90516 -5.32621 0
M  V30 9571 H 895.095 -1.99016 -4.45246 0
M  V30 9572 H 894.1 -4.13902 -3.61891 0
M  V30 9573 H 895.325 -5.06294 -4.52596 0
M  V30 9574 H 893.271 -3.17573 -5.74006 0
M  V30 9575 H 893.188 -4.90685 -5.75121 0
M  V30 9576 H 894.456 -4.10315 -6.62768 0
M  V30 9577 N 898.685 0.775411 -1.37205 0
M  V30 9578 C 899.632 1.88857 -1.32671 0
M  V30 9579 C 900.602 1.64976 -0.192899 0
M  V30 9580 O 901.787 1.86944 -0.381673 0
M  V30 9581 C 898.927 3.25871 -1.13588 0
M  V30 9582 C 898.04 3.61731 -2.36167 0
M  V30 9583 C 897.175 4.87934 -2.09985 0
M  V30 9584 C 896.214 5.16514 -3.2845 0
M  V30 9585 N 895.351 6.33905 -3.01842 0
M  V30 9586 H 900.191 1.92068 -2.27846 0
M  V30 9587 H 897.728 0.939066 -1.13225 0
M  V30 9588 H 899.686 4.04903 -1.00546 0
M  V30 9589 H 898.316 3.22045 -0.220613 0
M  V30 9590 H 897.368 2.77712 -2.59962 0
M  V30 9591 H 898.68 3.78792 -3.24528 0
M  V30 9592 H 897.834 5.74863 -1.93953 0
M  V30 9593 H 896.573 4.7297 -1.18956 0
M  V30 9594 H 895.578 4.28063 -3.45025 0
M  V30 9595 H 896.803 5.33389 -4.20325 0
M  V30 9596 H 894.749 6.20306 -2.13439 0
M  V30 9597 H 894.666 6.51364 -3.83746 0
M  V30 9598 H 895.934 7.23779 -2.8942 0
M  V30 9599 N 900.163 1.21714 1.00117 0
M  V30 9600 C 901.391 1.06278 1.77518 0
M  V30 9601 C 901.806 -0.387193 1.84787 0
M  V30 9602 O 901.163 -1.26854 1.31203 0
M  V30 9603 C 901.214 1.65795 3.21239 0
M  V30 9604 O 900.935 3.05119 3.14378 0
M  V30 9605 C 902.436 1.55521 4.15124 0
M  V30 9606 H 899.656 0.373013 0.557765 0
M  V30 9607 H 902.2 1.61133 1.25922 0
M  V30 9608 H 900.355 1.15022 3.69931 0
M  V30 9609 H 900.769 3.33643 4.04701 0
M  V30 9610 H 902.243 2.01902 5.13751 0
M  V30 9611 H 902.72 0.510307 4.36225 0
M  V30 9612 H 903.326 2.0556 3.72324 0
M  V30 9613 N 901.641 -1.19671 1.02551 0
M  V30 9614 C 902.604 -2.20987 0.608055 0
M  V30 9615 C 903.604 -1.5745 -0.326534 0
M  V30 9616 O 904.794 -1.73827 -0.114003 0
M  V30 9617 C 901.926 -3.4072 -0.11074 0
M  V30 9618 H 903.119 -2.59434 1.50446 0
M  V30 9619 H 900.672 -1.3329 0.816307 0
M  V30 9620 H 901.407 -3.07787 -1.02165 0
M  V30 9621 H 901.192 -3.88069 0.560772 0
M  V30 9622 H 902.682 -4.15776 -0.389848 0
M  V30 9623 N 903.119 -0.802921 -1.35613 0
M  V30 9624 C 904.53 -0.443004 -1.81368 0
M  V30 9625 C 904.881 1.03459 -1.66706 0
M  V30 9626 O 904.006 1.80372 -1.19561 0
M  V30 9627 C 904.601 -0.797324 -3.29284 0
M  V30 9628 C 903.16 -0.490055 -3.73196 0
M  V30 9629 C 902.307 -1.02487 -2.57666 0
M  V30 9630 H 905.258 -0.994888 -1.23643 0
M  V30 9631 H 905.279 -0.0934638 -3.80385 0
M  V30 9632 H 904.791 -1.87278 -3.39924 0
M  V30 9633 H 902.892 0.576818 -3.68108 0
M  V30 9634 H 903.005 -1.02012 -4.68114 0
M  V30 9635 H 901.369 -0.44738 -2.5074 0
M  V30 9636 H 902.152 -2.10636 -2.71085 0
M  V30 9637 N 904.597 1.47463 -0.556102 0
M  V30 9638 C 905.825 2.06868 -0.0364585 0
M  V30 9639 C 906.24 1.40893 1.25677 0
M  V30 9640 O 905.597 0.505083 1.75371 0
M  V30 9641 C 905.648 3.61128 0.163984 0
M  V30 9642 O 905.369 4.24629 -1.07803 0
M  V30 9643 C 906.87 4.37397 0.721036 0
M  V30 9644 H 904.09 0.669466 -0.0453399 0
M  V30 9645 H 906.634 1.89482 -0.769198 0
M  V30 9646 H 904.789 3.78031 0.84685 0
M  V30 9647 H 905.203 5.17149 -0.875067 0
M  V30 9648 H 906.677 5.46016 0.810584 0
M  V30 9649 H 907.154 4.03604 1.73206 0
M  V30 9650 H 907.76 4.25236 0.073904 0
M  V30 9651 N 906.075 0.2925 1.54862 0
M  V30 9652 C 907.486 -0.201841 1.85606 0
M  V30 9653 C 907.837 -1.54093 1.21449 0
M  V30 9654 O 906.962 -2.10327 0.509079 0
M  V30 9655 C 907.557 -0.373011 3.3674 0
M  V30 9656 C 906.116 -0.811574 3.67547 0
M  V30 9657 C 905.263 0.0850583 2.7717 0
M  V30 9658 H 908.214 0.513774 1.50153 0
M  V30 9659 H 908.235 -1.20892 3.60785 0
M  V30 9660 H 907.747 0.601751 3.83407 0
M  V30 9661 H 905.848 -1.79719 3.26392 0
M  V30 9662 H 905.961 -0.636853 4.74848 0
M  V30 9663 H 904.325 -0.434224 2.50971 0
M  V30 9664 H 905.108 1.05602 3.26654 0
M  V30 9665 N 907.553 -1.57587 0.0200696 0
M  V30 9666 C 908.964 -1.79312 -0.520019 0
M  V30 9667 C 909.315 -0.929475 -1.72787 0
M  V30 9668 O 908.44 -0.137389 -2.15963 0
M  V30 9669 C 909.035 -3.25203 -0.950172 0
M  V30 9670 C 907.594 -3.47954 -1.43543 0
M  V30 9671 C 906.741 -2.74459 -0.395917 0
M  V30 9672 H 909.692 -1.56779 0.246153 0
M  V30 9673 H 909.713 -3.34418 -1.81508 0
M  V30 9674 H 909.225 -3.88035 -0.070883 0
M  V30 9675 H 907.326 -2.90363 -2.33495 0
M  V30 9676 H 907.439 -4.56661 -1.44905 0
M  V30 9677 H 905.803 -2.39669 -0.862022 0
M  V30 9678 H 906.586 -3.40001 0.47475 0
M  V30 9679 N 909.032 0.252966 -1.55557 0
M  V30 9680 C 909.979 1.3131 -1.89806 0
M  V30 9681 C 910.949 1.48121 -0.751633 0
M  V30 9682 O 912.134 1.62202 -1.00474 0
M  V30 9683 C 909.274 2.66467 -2.19293 0
M  V30 9684 C 908.387 2.57714 -3.46709 0
M  V30 9685 C 907.522 3.85184 -3.65796 0
M  V30 9686 C 906.561 3.71023 -4.86835 0
M  V30 9687 N 905.698 4.90371 -5.02474 0
M  V30 9688 H 910.538 1.01402 -2.80217 0
M  V30 9689 H 908.075 0.489462 -1.38718 0
M  V30 9690 H 910.033 3.45132 -2.34392 0
M  V30 9691 H 908.663 2.94536 -1.32093 0
M  V30 9692 H 907.715 1.70651 -3.39974 0
M  V30 9693 H 909.027 2.43158 -4.35517 0
M  V30 9694 H 908.181 4.72292 -3.80822 0
M  V30 9695 H 906.92 4.0263 -2.7521 0
M  V30 9696 H 905.925 2.82299 -4.71792 0
M  V30 9697 H 907.15 3.55078 -5.78875 0
M  V30 9698 H 905.096 5.0819 -4.14824 0
M  V30 9699 H 905.013 4.78423 -5.85361 0
M  V30 9700 H 906.281 5.78995 -5.21905 0
M  V30 9701 N 910.51 1.48831 0.518367 0
M  V30 9702 C 911.926 1.35209 0.847979 0
M  V30 9703 C 912.126 0.371927 1.98038 0
M  V30 9704 O 911.182 -0.202681 2.51685 0
M  V30 9705 C 912.495 2.7552 1.20455 0
M  V30 9706 C 914.043 2.84094 1.31377 0
M  V30 9707 C 914.518 4.25132 1.70372 0
M  V30 9708 N 916.009 4.27861 1.77453 0
M  V30 9709 C 916.744 5.3394 2.09035 0
M  V30 9710 N 916.24 6.50285 2.3896 0
M  V30 9711 N 918.033 5.21343 2.10139 0
M  V30 9712 H 910.184 2.11166 -0.228624 0
M  V30 9713 H 912.447 0.94717 -0.0396599 0
M  V30 9714 H 912.153 3.48861 0.445991 0
M  V30 9715 H 912.027 3.09785 2.15204 0
M  V30 9716 H 914.414 2.11001 2.06307 0
M  V30 9717 H 914.495 2.53433 0.347203 0
M  V30 9718 H 914.139 4.98745 0.959975 0
M  V30 9719 H 914.069 4.53245 2.68098 0
M  V30 9720 H 916.56 3.43945 1.56557 0
M  V30 9721 H 916.873 7.26961 2.62196 0
M  V30 9722 H 915.218 6.5354 2.36454 0
M  V30 9723 H 918.409 4.29462 1.86225 0
M  V30 9724 H 918.582 6.04112 2.34419 0
M  V30 9725 N 911.988 -0.768124 1.37614 0
M  V30 9726 C 913.213 -1.56239 1.36397 0
M  V30 9727 C 913.638 -1.8804 -0.0475839 0
M  V30 9728 O 912.996 -1.495 -1.02564 0
M  V30 9729 C 913.044 -2.84716 2.21289 0
M  V30 9730 O 912.148 -3.79249 1.62001 0
M  V30 9731 H 911.489 -0.473119 0.465891 0
M  V30 9732 H 914.019 -0.950415 1.81186 0
M  V30 9733 H 914.029 -3.33784 2.34632 0
M  V30 9734 H 912.704 -2.60899 3.2389 0
M  V30 9735 H 911.281 -3.37904 1.57719 0
M  V30 9736 N 913.466 -1.22244 -0.994698 0
M  V30 9737 C 914.691 -1.07299 -1.77487 0
M  V30 9738 C 915.116 0.372302 -1.84379 0
M  V30 9739 O 914.474 1.2689 -1.29494 0
M  V30 9740 C 914.522 -1.68675 -3.18718 0
M  V30 9741 O 913.626 -0.939202 -4.01563 0
M  V30 9742 H 912.967 -0.376979 -0.546611 0
M  V30 9743 H 915.497 -1.62003 -1.24965 0
M  V30 9744 H 915.507 -1.73324 -3.69354 0
M  V30 9745 H 914.182 -2.73849 -3.13017 0
M  V30 9746 H 912.759 -0.968583 -3.60101 0
M  V30 9747 N 914.944 1.19125 -1.03184 0
M  V30 9748 C 916.169 1.93379 -0.749628 0
M  V30 9749 C 916.594 1.75153 0.685785 0
M  V30 9750 O 915.952 1.05579 1.47386 0
M  V30 9751 C 916 3.43101 -1.1097 0
M  V30 9752 O 915.104 4.11758 -0.230053 0
M  V30 9753 H 914.445 0.603605 -0.276689 0
M  V30 9754 H 916.975 1.51116 -1.37931 0
M  V30 9755 H 916.985 3.93778 -1.06785 0
M  V30 9756 H 915.66 3.55688 -2.15544 0
M  V30 9757 H 914.237 3.7143 -0.330748 0
M  V30 9758 N 916.422 0.810101 1.35185 0
M  V30 9759 C 917.669 0.392117 1.98667 0
M  V30 9760 C 917.997 -1.0416 1.64259 0
M  V30 9761 O 917.252 -1.73795 0.899647 0
M  V30 9762 C 917.551 0.526561 3.535 0
M  V30 9763 C 917.217 1.92411 4.07785 0
M  V30 9764 C 915.879 2.30644 4.22323 0
M  V30 9765 C 918.231 2.83827 4.37141 0
M  V30 9766 C 915.559 3.59655 4.63536 0
M  V30 9767 C 917.911 4.12287 4.79794 0
M  V30 9768 C 916.575 4.50515 4.92536 0
M  V30 9769 H 915.845 0.143486 0.726975 0
M  V30 9770 H 918.492 1.03157 1.61341 0
M  V30 9771 H 916.797 -0.19633 3.91308 0
M  V30 9772 H 918.494 0.183871 4.00578 0
M  V30 9773 H 915.084 1.61707 3.96924 0
M  V30 9774 H 919.268 2.55536 4.25459 0
M  V30 9775 H 914.524 3.89117 4.71591 0
M  V30 9776 H 918.698 4.83221 5.01468 0
M  V30 9777 H 916.325 5.50535 5.24229 0
M  V30 9778 N 917.9 -1.47166 0.563914 0
M  V30 9779 C 919.316 -1.58018 0.224173 0
M  V30 9780 C 919.516 -1.56163 -1.27339 0
M  V30 9781 O 918.572 -1.4686 -2.05398 0
M  V30 9782 C 919.885 -2.88236 0.856762 0
M  V30 9783 C 921.433 -3.01833 0.82861 0
M  V30 9784 C 921.908 -4.34761 1.44039 0
M  V30 9785 N 923.399 -4.41413 1.40388 0
M  V30 9786 C 924.134 -5.42845 1.84681 0
M  V30 9787 N 923.63 -6.51052 2.3686 0
M  V30 9788 N 925.423 -5.33931 1.75711 0
M  V30 9789 H 917.574 -1.46615 1.53681 0
M  V30 9790 H 919.837 -0.698195 0.64127 0
M  V30 9791 H 919.543 -2.95349 1.90949 0
M  V30 9792 H 919.417 -3.75537 0.353766 0
M  V30 9793 H 921.804 -2.94312 -0.215451 0
M  V30 9794 H 921.885 -2.16056 1.36943 0
M  V30 9795 H 921.529 -4.43037 2.48355 0
M  V30 9796 H 921.459 -5.1928 0.874953 0
M  V30 9797 H 923.95 -3.63811 1.02227 0
M  V30 9798 H 924.263 -7.24633 2.68564 0
M  V30 9799 H 922.608 -6.51924 2.40875 0
M  V30 9800 H 925.799 -4.48295 1.34718 0
M  V30 9801 H 925.972 -6.12841 2.10547 0
M  V30 9802 N 919.378 -0.300708 -1.54705 0
M  V30 9803 C 920.288 0.584996 -2.27189 0
M  V30 9804 C 921.304 1.14866 -1.30697 0
M  V30 9805 O 922.48 1.17351 -1.63679 0
M  V30 9806 C 919.545 1.74076 -2.99831 0
M  V30 9807 C 918.606 1.2112 -4.1186 0
M  V30 9808 C 917.839 2.31188 -4.81028 0
M  V30 9809 O 918.062 3.5108 -4.49554 0
M  V30 9810 O 916.996 1.97897 -5.68437 0
M  V30 9811 H 920.822 -0.00298177 -3.037 0
M  V30 9812 H 918.407 -0.0671802 -1.49249 0
M  V30 9813 H 920.289 2.41413 -3.45395 0
M  V30 9814 H 918.964 2.31535 -2.26215 0
M  V30 9815 H 917.871 0.50357 -3.70695 0
M  V30 9816 H 919.204 0.682046 -4.87452 0
M  V30 9817 N 920.856 1.57574 -0.0284266 0
M  V30 9818 C 921.789 2.05684 0.988401 0
M  V30 9819 C 922.767 0.952468 1.31783 0
M  V30 9820 O 923.951 1.22274 1.43462 0
M  V30 9821 C 921.078 2.47832 2.30862 0
M  V30 9822 C 920.124 3.69282 2.13384 0
M  V30 9823 S 920.957 5.15962 1.43331 0
M  V30 9824 C 922.113 5.61404 2.76723 0
M  V30 9825 H 922.346 2.9161 0.578873 0
M  V30 9826 H 919.879 1.53309 0.183244 0
M  V30 9827 H 921.837 2.7278 3.06759 0
M  V30 9828 H 920.498 1.62253 2.68947 0
M  V30 9829 H 919.691 3.96618 3.10983 0
M  V30 9830 H 919.293 3.44482 1.45629 0
M  V30 9831 H 921.585 5.65601 3.72963 0
M  V30 9832 H 922.528 6.60956 2.54053 0
M  V30 9833 H 922.936 4.89051 2.81939 0
M  V30 9834 N 922.334 -0.244713 1.55689 0
M  V30 9835 C 923.611 -0.995407 1.68378 0
M  V30 9836 C 923.991 -2.03288 0.568949 0
M  V30 9837 O 923.339 -2.24469 -0.427299 0
M  V30 9838 C 923.549 -1.62678 3.08767 0
M  V30 9839 C 924.897 -2.1278 3.67437 0
M  V30 9840 O 925.921 -1.72614 3.11581 0
M  V30 9841 O 924.78 -2.86536 4.65359 0
M  V30 9842 H 921.874 -0.463476 0.684923 0
M  V30 9843 H 924.42 -0.238326 1.68018 0
M  V30 9844 H 923.192 -0.876469 3.81358 0
M  V30 9845 H 922.815 -2.45 3.13146 0
M  V30 9846 N 923.813 -1.49104 -0.510467 0
M  V30 9847 C 925.061 -1.578 -1.26268 0
M  V30 9848 C 925.382 -0.262349 -1.93227 0
M  V30 9849 O 924.652 0.717624 -1.82283 0
M  V30 9850 H 923.232 -0.581387 -0.46904 0
M  V30 9851 H 925.894 -1.85678 -0.592423 0
M  V30 9852 H 924.99 -2.36919 -2.03165 0
M  V30 9853 N 925.291 0.760815 -1.38019 0
M  V30 9854 C 926.223 1.88387 -1.30549 0
M  V30 9855 C 927.236 1.61319 -0.219119 0
M  V30 9856 O 928.425 1.72033 -0.476122 0
M  V30 9857 C 925.525 3.23863 -0.998291 0
M  V30 9858 C 924.698 3.78492 -2.19232 0
M  V30 9859 C 923.757 4.92468 -1.85368 0
M  V30 9860 O 922.783 5.0748 -2.57785 0
M  V30 9861 N 923.985 5.74901 -0.804319 0
M  V30 9862 H 926.75 1.95308 -2.27322 0
M  V30 9863 H 924.311 0.940423 -1.31786 0
M  V30 9864 H 926.303 3.97644 -0.7524 0
M  V30 9865 H 924.873 3.12374 -0.11877 0
M  V30 9866 H 924.093 2.96361 -2.5993 0
M  V30 9867 H 925.381 4.11722 -2.98935 0
M  V30 9868 H 924.779 5.65333 -0.203628 0
M  V30 9869 H 923.336 6.48861 -0.618301 0
M  V30 9870 N 926.769 1.22769 0.988202 0
M  V30 9871 C 928.18 1.0512 1.54294 0
M  V30 9872 C 928.531 -0.383904 1.92407 0
M  V30 9873 O 927.656 -1.26955 1.75246 0
M  V30 9874 C 928.251 1.90198 2.80375 0
M  V30 9875 C 926.81 1.76831 3.32276 0
M  V30 9876 C 925.957 1.86377 2.05326 0
M  V30 9877 H 928.908 1.36546 0.808758 0
M  V30 9878 H 928.929 1.42216 3.52923 0
M  V30 9879 H 928.441 2.9464 2.52605 0
M  V30 9880 H 926.542 0.751412 3.64945 0
M  V30 9881 H 926.655 2.59771 4.02562 0
M  V30 9882 H 925.019 1.2987 2.19103 0
M  V30 9883 H 925.802 2.9236 1.79946 0
M  V30 9884 N 928.247 -1.18576 1.03814 0
M  V30 9885 C 929.157 -2.25778 0.637311 0
M  V30 9886 C 930.173 -1.7074 -0.335248 0
M  V30 9887 O 931.349 -2.00494 -0.19081 0
M  V30 9888 C 928.414 -3.467 0.00386953 0
M  V30 9889 C 927.475 -4.16881 1.02511 0
M  V30 9890 C 926.708 -5.32031 0.421802 0
M  V30 9891 O 926.931 -5.65142 -0.772699 0
M  V30 9892 O 925.865 -5.90826 1.14925 0
M  V30 9893 H 929.691 -2.62323 1.53037 0
M  V30 9894 H 927.276 -1.25609 0.80887 0
M  V30 9895 H 929.158 -4.19953 -0.348873 0
M  V30 9896 H 927.833 -3.11983 -0.863047 0
M  V30 9897 H 926.74 -3.45707 1.4296 0
M  V30 9898 H 928.073 -4.55592 1.86271 0
M  V30 9899 N 929.725 -0.817259 -1.34754 0
M  V30 9900 C 931.141 -0.502309 -1.51489 0
M  V30 9901 C 931.341 0.974568 -1.76364 0
M  V30 9902 O 930.397 1.75924 -1.81127 0
M  V30 9903 C 931.71 -1.35693 -2.68343 0
M  V30 9904 C 933.258 -1.35347 -2.82224 0
M  V30 9905 C 933.733 -2.19244 -4.02114 0
M  V30 9906 N 935.224 -2.16837 -4.09311 0
M  V30 9907 C 935.959 -2.78505 -5.01221 0
M  V30 9908 N 935.455 -3.4914 -5.98392 0
M  V30 9909 N 937.248 -2.68089 -4.94049 0
M  V30 9910 H 929.399 -1.77359 -1.16866 0
M  V30 9911 H 931.662 -0.755476 -0.572678 0
M  V30 9912 H 931.368 -2.40548 -2.56573 0
M  V30 9913 H 931.242 -1.01764 -3.63213 0
M  V30 9914 H 933.629 -0.312727 -2.93438 0
M  V30 9915 H 933.71 -1.7327 -1.88179 0
M  V30 9916 H 933.354 -3.23365 -3.9166 0
M  V30 9917 H 933.284 -1.78675 -4.95361 0
M  V30 9918 H 935.775 -1.65452 -3.39756 0
M  V30 9919 H 936.088 -3.93455 -6.65141 0
M  V30 9920 H 934.433 -3.53246 -5.98533 0
M  V30 9921 H 937.624 -2.12485 -4.17094 0
M  V30 9922 H 937.797 -3.16436 -5.65484 0
M  V30 9923 N 931.203 1.46865 -0.571711 0
M  V30 9924 C 932.619 1.57897 -0.23255 0
M  V30 9925 C 932.819 1.56836 1.26509 0
M  V30 9926 O 931.875 1.47947 2.04617 0
M  V30 9927 C 933.188 2.87778 -0.872036 0
M  V30 9928 C 934.736 3.01389 -0.844605 0
M  V30 9929 C 935.211 4.33991 -1.46343 0
M  V30 9930 N 936.702 4.40662 -1.42727 0
M  V30 9931 C 937.437 5.41858 -1.87557 0
M  V30 9932 N 936.933 6.49787 -2.4031 0
M  V30 9933 N 938.726 5.32992 -1.7854 0
M  V30 9934 H 930.877 1.45798 -1.54457 0
M  V30 9935 H 933.14 0.694785 -0.644964 0
M  V30 9936 H 932.846 2.94332 -1.92513 0
M  V30 9937 H 932.72 3.75345 -0.373677 0
M  V30 9938 H 935.107 2.94423 0.19984 0
M  V30 9939 H 935.188 2.15327 -1.38087 0
M  V30 9940 H 934.832 4.41714 -2.50701 0
M  V30 9941 H 934.762 5.18809 -0.902479 0
M  V30 9942 H 937.253 3.63263 -1.04155 0
M  V30 9943 H 937.566 7.23199 -2.72403 0
M  V30 9944 H 935.911 6.50637 -2.44329 0
M  V30 9945 H 939.102 4.47575 -1.37093 0
M  V30 9946 H 939.275 6.11716 -2.13794 0
M  V30 9947 N 932.681 0.308908 1.54543 0
M  V30 9948 C 933.929 -0.297447 1.99899 0
M  V30 9949 C 934.25 -1.53799 1.19878 0
M  V30 9950 O 933.52 -1.93639 0.29678 0
M  V30 9951 H 932.1 -0.112897 0.738419 0
M  V30 9952 H 934.762 0.422067 1.90275 0
M  V30 9953 H 933.858 -0.564016 3.06961 0
M  V30 9954 N 934.159 -1.57557 0.0367827 0
M  V30 9955 C 935.122 -2.09591 -0.927589 0
M  V30 9956 C 936.122 -1.01252 -1.24919 0
M  V30 9957 O 937.312 -1.27382 -1.18825 0
M  V30 9958 C 934.444 -2.56816 -2.24184 0
M  V30 9959 H 935.637 -2.96086 -0.476784 0
M  V30 9960 H 933.19 -1.54864 -0.211385 0
M  V30 9961 H 933.925 -1.73673 -2.73876 0
M  V30 9962 H 933.71 -3.35973 -2.0215 0
M  V30 9963 H 935.2 -2.97271 -2.93291 0
M  V30 9964 N 935.637 0.236453 -1.55816 0
M  V30 9965 C 936.885 0.96111 -1.77784 0
M  V30 9966 C 937.206 1.85454 -0.602648 0
M  V30 9967 O 936.476 1.92157 0.381137 0
M  V30 9968 H 935.056 0.35787 -0.655697 0
M  V30 9969 H 937.718 0.251888 -1.93265 0
M  V30 9970 H 936.814 1.5767 -2.69345 0
M  V30 9971 N 937.115 1.49373 0.502552 0
M  V30 9972 C 938.025 1.68659 1.63068 0
M  V30 9973 C 939.041 0.569182 1.64427 0
M  V30 9974 O 940.217 0.843695 1.82876 0
M  V30 9975 C 937.282 1.74745 2.99441 0
M  V30 9976 C 936.343 2.98311 3.08721 0
M  V30 9977 C 935.576 3.04097 4.38589 0
M  V30 9978 O 935.799 2.17519 5.27297 0
M  V30 9979 O 934.733 3.96544 4.52809 0
M  V30 9980 H 938.559 2.64226 1.49727 0
M  V30 9981 H 936.144 1.33096 0.67867 0
M  V30 9982 H 938.026 1.8111 3.80496 0
M  V30 9983 H 936.701 0.823565 3.13048 0
M  V30 9984 H 935.608 2.97465 2.2686 0
M  V30 9985 H 936.941 3.90174 3.00041 0
M  V30 9986 N 938.594 -0.753485 1.38421 0
M  V30 9987 C 939.504 -1.89797 1.37892 0
M  V30 9988 C 940.52 -1.71797 0.276023 0
M  V30 9989 O 941.696 -1.94718 0.514464 0
M  V30 9990 C 938.761 -3.25166 1.20284 0
M  V30 9991 C 937.822 -3.55691 2.4038 0
M  V30 9992 C 937.055 -4.84601 2.23602 0
M  V30 9993 O 937.278 -5.56985 1.22979 0
M  V30 9994 O 936.212 -5.14605 3.12194 0
M  V30 9995 H 940.038 -1.93197 2.34326 0
M  V30 9996 H 937.623 -0.898775 1.19342 0
M  V30 9997 H 939.505 -4.06099 1.12525 0
M  V30 9998 H 938.18 -3.22577 0.269352 0
M  V30 9999 H 937.087 -2.74919 2.53714 0
M  V30 10000 H 938.42 -3.6304 3.32359 0
M  V30 10001 N 940.072 -1.23292 -0.981677 0
M  V30 10002 C 940.982 -1.02964 -2.10798 0
M  V30 10003 C 941.998 0.0254674 -1.73981 0
M  V30 10004 O 943.174 -0.169706 -2.00684 0
M  V30 10005 C 940.239 -0.621934 -3.41076 0
M  V30 10006 C 939.3 -1.75194 -3.91926 0
M  V30 10007 C 938.533 -1.36359 -5.15986 0
M  V30 10008 O 938.756 -0.247265 -5.69864 0
M  V30 10009 O 937.69 -2.18421 -5.60871 0
M  V30 10010 H 941.516 -1.97354 -2.30836 0
M  V30 10011 H 939.101 -1.01986 -1.09175 0
M  V30 10012 H 940.983 -0.405446 -4.19445 0
M  V30 10013 H 939.658 0.29299 -3.22371 0
M  V30 10014 H 938.565 -2.02305 -3.1468 0
M  V30 10015 H 939.898 -2.64513 -4.15083 0
M  V30 10016 N 941.55 1.18024 -1.04442 0
M  V30 10017 C 942.798 1.87727 -0.74854 0
M  V30 10018 C 943.119 1.80975 0.726156 0
M  V30 10019 O 942.389 1.23061 1.52423 0
M  V30 10020 H 940.969 0.694974 -0.273897 0
M  V30 10021 H 943.631 1.43213 -1.32197 0
M  V30 10022 H 942.727 2.93665 -1.05674 0
M  V30 10023 N 943.028 0.824394 1.34319 0
M  V30 10024 C 944.444 0.510336 1.51221 0
M  V30 10025 C 944.644 -0.965201 1.76879 0
M  V30 10026 O 943.7 -1.74961 1.82057 0
M  V30 10027 C 945.013 1.37114 2.6762 0
M  V30 10028 C 946.561 1.36842 2.81502 0
M  V30 10029 C 947.036 2.21374 4.00946 0
M  V30 10030 N 948.527 2.19005 4.08156 0
M  V30 10031 C 949.262 2.81159 4.99737 0
M  V30 10032 N 948.758 3.52309 5.96532 0
M  V30 10033 N 950.551 2.70706 4.9262 0
M  V30 10034 H 942.702 1.77976 1.15924 0
M  V30 10035 H 944.965 0.758503 0.568663 0
M  V30 10036 H 944.671 2.41905 2.55294 0
M  V30 10037 H 944.545 1.03689 3.62669 0
M  V30 10038 H 946.932 0.328284 2.93268 0
M  V30 10039 H 947.013 1.74265 1.87257 0
M  V30 10040 H 946.657 3.25437 3.8994 0
M  V30 10041 H 946.587 1.813 4.94407 0
M  V30 10042 H 949.078 1.67252 3.38874 0
M  V30 10043 H 949.391 3.96977 6.63045 0
M  V30 10044 H 947.736 3.56415 5.96652 0
M  V30 10045 H 950.927 2.14694 4.15962 0
M  V30 10046 H 951.1 3.19431 5.63798 0
M  V30 10047 N 944.506 -1.46559 0.579492 0
M  V30 10048 C 945.783 -1.956 -0.00287136 0
M  V30 10049 C 946.163 -1.52215 -1.46266 0
M  V30 10050 O 945.511 -0.771335 -2.15088 0
M  V30 10051 C 945.721 -3.48606 0.165824 0
M  V30 10052 C 947.069 -4.24588 0.0319807 0
M  V30 10053 O 948.093 -3.56075 0.094496 0
M  V30 10054 O 946.952 -5.46396 -0.106386 0
M  V30 10055 H 944.046 -0.825387 -0.0516274 0
M  V30 10056 H 946.592 -1.56858 0.647584 0
M  V30 10057 H 945.364 -3.7306 1.18076 0
M  V30 10058 H 944.987 -3.94169 -0.521212 0
M  V30 10059 N 945.984 -0.3171 -1.54377 0
M  V30 10060 C 947.233 0.288271 -1.99629 0
M  V30 10061 C 947.546 1.53754 -1.2091 0
M  V30 10062 O 948.752 2.2185 -1.56508 0
M  V30 10063 C 947.208 0.564188 -3.5545 0
M  V30 10064 C 946.816 -0.667659 -4.42997 0
M  V30 10065 C 948.56 1.12987 -4.09187 0
M  V30 10066 C 946.467 -0.364003 -5.90279 0
M  V30 10067 H 945.397 0.111492 -0.745711 0
M  V30 10068 H 948.048 -0.428317 -1.78431 0
M  V30 10069 H 946.43 1.34079 -3.72611 0
M  V30 10070 H 947.604 -1.44335 -4.37612 0
M  V30 10071 H 945.919 -1.1531 -4.00116 0
M  V30 10072 H 948.516 1.37157 -5.1681 0
M  V30 10073 H 948.859 2.07722 -3.60773 0
M  V30 10074 H 949.392 0.414595 -3.95634 0
M  V30 10075 H 946.131 -1.28035 -6.42874 0
M  V30 10076 H 945.651 0.374102 -5.98632 0
M  V30 10077 H 947.33 0.0285433 -6.46994 0
M  V30 10078 N 947.462 1.57535 -0.0451378 0
M  V30 10079 C 948.687 1.97172 0.64326 0
M  V30 10080 C 949.112 0.922266 1.63939 0
M  V30 10081 O 948.47 -0.115155 1.80934 0
M  V30 10082 C 948.518 3.35889 1.3119 0
M  V30 10083 O 947.622 3.33387 2.42748 0
M  V30 10084 H 946.963 0.642469 0.167719 0
M  V30 10085 H 949.493 2.04295 -0.111747 0
M  V30 10086 H 949.503 3.72481 1.66499 0
M  V30 10087 H 948.178 4.1181 0.581823 0
M  V30 10088 H 946.755 3.08533 2.09432 0
M  V30 10089 N 948.94 -0.228186 1.55939 0
M  V30 10090 C 949.888 -1.30239 1.92719 0
M  V30 10091 C 950.882 -1.48865 0.808424 0
M  V30 10092 O 952.088 -1.50118 0.993204 0
M  V30 10093 H 948.463 -0.436509 0.612343 0
M  V30 10094 H 950.434 -0.964965 2.82367 0
M  V30 10095 C 949.183 -2.647 2.25453 0
M  V30 10096 H 948.506 -2.51173 3.1105 0
M  V30 10097 H 949.946 -3.38691 2.55077 0
M  V30 10098 C 948.405 -3.1921 1.07734 0
M  V30 10099 O 948.935 -4.00301 0.335019 0
M  V30 10100 N 947.141 -2.77492 0.862938 0
M  V30 10101 H 946.688 -2.11657 1.4683 0
M  V30 10102 H 946.646 -3.14306 0.0770119 0
M  V30 10103 N 950.418 -1.49637 -0.494624 0
M  V30 10104 C 951.666 -1.5913 -1.24587 0
M  V30 10105 C 951.987 -0.282828 -1.92938 0
M  V30 10106 O 951.257 0.69825 -1.83034 0
M  V30 10107 H 949.837 -0.586329 -0.462847 0
M  V30 10108 H 952.499 -1.86296 -0.572696 0
M  V30 10109 H 951.595 -2.3906 -2.00641 0
M  V30 10110 N 951.896 0.746133 -1.38819 0
M  V30 10111 C 952.859 1.84167 -1.36437 0
M  V30 10112 C 953.859 1.58626 -0.263499 0
M  V30 10113 O 955.049 1.66233 -0.520801 0
M  V30 10114 C 952.181 3.21769 -1.12596 0
M  V30 10115 H 953.374 1.87684 -2.33912 0
M  V30 10116 H 950.927 0.948625 -1.24221 0
M  V30 10117 H 951.662 3.23917 -0.15758 0
M  V30 10118 H 951.447 3.41702 -1.92307 0
M  V30 10119 H 952.937 4.0184 -1.13643 0
M  V30 10120 N 953.375 1.23811 0.975125 0
M  V30 10121 C 954.305 1.04846 2.08638 0
M  V30 10122 C 955.286 -0.0362859 1.70061 0
M  V30 10123 O 956.471 0.12937 1.93769 0
M  V30 10124 C 953.601 0.644534 3.41267 0
M  V30 10125 C 952.555 1.67722 3.93768 0
M  V30 10126 C 951.881 1.12857 5.22654 0
M  V30 10127 C 953.181 3.07147 4.22443 0
M  V30 10128 H 954.875 1.97795 2.24761 0
M  V30 10129 H 952.421 0.952397 1.08006 0
M  V30 10130 H 954.374 0.498887 4.18436 0
M  V30 10131 H 953.098 -0.320641 3.25022 0
M  V30 10132 H 951.757 1.81095 3.18748 0
M  V30 10133 H 951.405 0.154227 5.02764 0
M  V30 10134 H 951.105 1.81862 5.58749 0
M  V30 10135 H 952.629 0.994891 6.0244 0
M  V30 10136 H 954.043 2.97045 4.90344 0
M  V30 10137 H 952.44 3.73437 4.6975 0
M  V30 10138 H 953.51 3.55743 3.29507 0
M  V30 10139 N 954.853 -1.17469 1.05066 0
M  V30 10140 C 955.816 -2.19648 0.654793 0
M  V30 10141 C 956.816 -1.58107 -0.293063 0
M  V30 10142 O 958.006 -1.74029 -0.077106 0
M  V30 10143 C 955.138 -3.40878 -0.0384437 0
M  V30 10144 H 956.331 -2.56184 1.55915 0
M  V30 10145 H 953.884 -1.31528 0.844396 0
M  V30 10146 H 954.619 -3.09885 -0.956133 0
M  V30 10147 H 954.404 -3.86792 0.642961 0
M  V30 10148 H 955.894 -4.1651 -0.301568 0
M  V30 10149 N 956.331 -0.831506 -1.3388 0
M  V30 10150 C 957.578 -0.423674 -1.98018 0
M  V30 10151 C 957.906 1.01533 -1.65895 0
M  V30 10152 O 957.161 1.72342 -0.927183 0
M  V30 10153 C 957.46 -0.582733 -3.52617 0
M  V30 10154 C 957.126 -1.98874 -4.04673 0
M  V30 10155 C 955.788 -2.37334 -4.186 0
M  V30 10156 C 958.14 -2.90745 -4.3257 0
M  V30 10157 C 955.468 -3.66984 -4.57755 0
M  V30 10158 C 957.82 -4.19868 -4.73174 0
M  V30 10159 C 956.484 -4.58294 -4.85307 0
M  V30 10160 H 955.754 -0.155033 -0.7246 0
M  V30 10161 H 958.401 -1.05711 -1.59679 0
M  V30 10162 H 956.706 0.134052 -3.91571 0
M  V30 10163 H 958.403 -0.247576 -4.00235 0
M  V30 10164 H 954.993 -1.68001 -3.94301 0
M  V30 10165 H 959.177 -2.62272 -4.2134 0
M  V30 10166 H 954.433 -3.9657 -4.65341 0
M  V30 10167 H 958.607 -4.91138 -4.93717 0
M  V30 10168 H 956.234 -5.58805 -5.15404 0
M  V30 10169 N 957.809 1.4625 -0.587256 0
M  V30 10170 C 959.037 2.06744 -0.08033 0
M  V30 10171 C 959.452 1.43527 1.2266 0
M  V30 10172 O 958.809 0.542168 1.74261 0
M  V30 10173 C 958.86 3.61394 0.0873469 0
M  V30 10174 O 958.581 4.22247 -1.16785 0
M  V30 10175 C 960.082 4.38828 0.628095 0
M  V30 10176 H 957.302 0.668354 -0.0595301 0
M  V30 10177 H 959.846 1.87808 -0.809217 0
M  V30 10178 H 958.001 3.79742 0.766473 0
M  V30 10179 H 958.415 5.15176 -0.984565 0
M  V30 10180 H 959.889 5.47613 0.694583 0
M  V30 10181 H 960.366 4.07188 1.64606 0
M  V30 10182 H 960.972 4.25297 -0.0163115 0
M  V30 10183 N 959.287 0.325282 1.54207 0
M  V30 10184 C 960.698 -0.162426 1.85992 0
M  V30 10185 C 961.049 -1.51482 1.2469 0
M  V30 10186 O 960.174 -2.092 0.553578 0
M  V30 10187 C 960.769 -0.3015 3.37456 0
M  V30 10188 C 959.328 -0.73343 3.69185 0
M  V30 10189 C 958.475 0.143831 2.76927 0
M  V30 10190 H 961.426 0.545508 1.4903 0
M  V30 10191 H 961.447 -1.13212 3.63268 0
M  V30 10192 H 960.959 0.682942 3.82044 0
M  V30 10193 H 959.06 -1.72755 3.30131 0
M  V30 10194 H 959.173 -0.535987 4.76092 0
M  V30 10195 H 957.537 -0.380892 2.51836 0
M  V30 10196 H 958.32 1.12507 3.24341 0
M  V30 10197 N 960.765 -1.57509 0.0534917 0
M  V30 10198 C 961.695 -2.14698 -0.917999 0
M  V30 10199 C 962.676 -1.06924 -1.32292 0
M  V30 10200 O 963.861 -1.34875 -1.39723 0
M  V30 10201 C 960.991 -2.69383 -2.19203 0
M  V30 10202 C 959.945 -3.82161 -1.9271 0
M  V30 10203 C 959.271 -4.23373 -3.26587 0
M  V30 10204 C 960.571 -5.07199 -1.24686 0
M  V30 10205 H 962.265 -2.96125 -0.44165 0
M  V30 10206 H 959.811 -1.42446 -0.210993 0
M  V30 10207 H 961.764 -3.08031 -2.87567 0
M  V30 10208 H 960.488 -1.85151 -2.69048 0
M  V30 10209 H 959.147 -3.43989 -1.26757 0
M  V30 10210 H 958.795 -3.36089 -3.74237 0
M  V30 10211 H 958.495 -4.99385 -3.09658 0
M  V30 10212 H 960.019 -4.64623 -3.96178 0
M  V30 10213 H 961.433 -5.43279 -1.83088 0
M  V30 10214 H 959.83 -5.88369 -1.18076 0
M  V30 10215 H 960.9 -4.84386 -0.223227 0
M  V30 10216 N 962.243 0.219913 -1.56058 0
M  V30 10217 C 963.52 0.968493 -1.6994 0
M  V30 10218 C 963.9 2.02358 -0.601219 0
M  V30 10219 O 963.248 2.25121 0.391534 0
M  V30 10220 C 963.458 1.57745 -3.11316 0
M  V30 10221 C 964.806 2.06908 -3.70775 0
M  V30 10222 O 965.83 1.67636 -3.14288 0
M  V30 10223 O 964.689 2.79096 -4.69859 0
M  V30 10224 H 961.783 0.452521 -0.692209 0
M  V30 10225 H 964.329 0.211566 -1.68376 0
M  V30 10226 H 963.101 0.815687 -3.82704 0
M  V30 10227 H 962.724 2.39987 -3.17005 0
M  V30 10228 N 963.721 1.49897 0.486681 0
M  V30 10229 C 964.949 1.63837 1.26353 0
M  V30 10230 C 965.364 0.315428 1.86146 0
M  V30 10231 O 964.721 -0.700831 1.68507 0
M  V30 10232 C 964.772 2.71792 2.38351 0
M  V30 10233 O 964.493 3.98956 1.81013 0
M  V30 10234 C 965.994 2.96566 3.2949 0
M  V30 10235 H 963.214 0.551158 0.382709 0
M  V30 10236 H 965.758 1.96023 0.582694 0
M  V30 10237 H 963.913 2.42344 3.02238 0
M  V30 10238 H 964.327 4.58536 2.54647 0
M  V30 10239 H 965.801 3.75803 4.04322 0
M  V30 10240 H 966.278 2.07031 3.87343 0
M  V30 10241 H 966.884 3.27485 2.71355 0
M  V30 10242 N 965.199 -0.738761 1.39212 0
M  V30 10243 C 966.162 -1.83441 1.37412 0
M  V30 10244 C 967.162 -1.58484 0.271908 0
M  V30 10245 O 968.352 -1.65954 0.529609 0
M  V30 10246 C 965.484 -3.21167 1.143 0
M  V30 10247 H 966.677 -1.86441 2.34904 0
M  V30 10248 H 964.23 -0.942023 1.24722 0
M  V30 10249 H 964.965 -3.23829 0.174756 0
M  V30 10250 H 964.75 -3.40678 1.94116 0
M  V30 10251 H 966.24 -4.01231 1.15773 0
M  V30 10252 N 966.677 -1.24326 -0.968545 0
M  V30 10253 C 967.954 -0.990459 -1.68669 0
M  V30 10254 C 968.334 0.487487 -2.05394 0
M  V30 10255 O 967.682 1.46158 -1.75642 0
M  V30 10256 C 967.892 -1.91251 -2.91931 0
M  V30 10257 C 969.24 -2.18291 -3.6419 0
M  V30 10258 O 970.264 -1.88897 -3.01987 0
M  V30 10259 O 969.123 -2.68204 -4.76161 0
M  V30 10260 H 966.217 -0.374515 -0.737338 0
M  V30 10261 H 968.763 -1.35421 -1.02271 0
M  V30 10262 H 967.535 -2.9111 -2.61478 0
M  V30 10263 H 967.158 -1.55188 -3.66064 0
M  V30 10264 N 968.156 1.1691 -1.05688 0
M  V30 10265 C 969.567 1.68915 -0.795273 0
M  V30 10266 C 969.918 1.83968 0.681925 0
M  V30 10267 O 969.043 1.53083 1.52953 0
M  V30 10268 C 969.638 3.06814 -1.43703 0
M  V30 10269 C 968.197 3.55965 -1.22335 0
M  V30 10270 C 967.344 2.32099 -1.51741 0
M  V30 10271 H 970.295 1.01357 -1.22116 0
M  V30 10272 H 970.316 3.70907 -0.849016 0
M  V30 10273 H 969.828 2.95826 -2.51214 0
M  V30 10274 H 967.929 3.72222 -0.16771 0
M  V30 10275 H 968.042 4.38427 -1.9318 0
M  V30 10276 H 966.406 2.36811 -0.937696 0
M  V30 10277 H 967.189 2.23715 -2.60397 0
M  V30 10278 N 969.634 0.838594 1.33437 0
M  V30 10279 C 970.597 0.276843 2.27522 0
M  V30 10280 C 971.597 -0.554275 1.50945 0
M  V30 10281 O 972.787 -0.368107 1.70266 0
M  V30 10282 C 969.919 -0.610036 3.35397 0
M  V30 10283 H 971.112 1.10705 2.78719 0
M  V30 10284 H 968.665 0.611657 1.43835 0
M  V30 10285 H 969.4 -1.46269 2.89441 0
M  V30 10286 H 969.185 -0.0153615 3.92097 0
M  V30 10287 H 970.675 -0.996368 4.05539 0
M  V30 10288 N 971.112 -1.45937 0.595003 0
M  V30 10289 C 972.059 -2.30427 -0.131165 0
M  V30 10290 C 973.029 -1.41355 -0.872232 0
M  V30 10291 O 974.214 -1.70296 -0.860467 0
M  V30 10292 C 971.354 -3.26045 -1.13087 0
M  V30 10293 C 970.467 -4.30218 -0.391982 0
M  V30 10294 C 969.602 -5.12953 -1.3803 0
M  V30 10295 C 968.641 -6.08865 -0.628505 0
M  V30 10296 N 967.778 -6.84425 -1.56548 0
M  V30 10297 H 972.618 -2.91992 0.595359 0
M  V30 10298 H 970.155 -1.43895 0.305405 0
M  V30 10299 H 972.113 -3.79937 -1.72348 0
M  V30 10300 H 970.743 -2.66261 -1.82496 0
M  V30 10301 H 969.795 -3.79086 0.315895 0
M  V30 10302 H 971.107 -4.98418 0.195173 0
M  V30 10303 H 970.261 -5.71184 -2.04534 0
M  V30 10304 H 969 -4.44743 -2.00138 0
M  V30 10305 H 968.005 -5.49777 0.0502431 0
M  V30 10306 H 969.23 -6.79099 -0.012641 0
M  V30 10307 H 967.176 -6.18913 -2.17444 0
M  V30 10308 H 967.093 -7.48931 -1.03145 0
M  V30 10309 H 968.361 -7.47204 -2.22049 0
M  V30 10310 N 972.59 -0.333456 -1.54032 0
M  V30 10311 C 973.815 0.270517 -2.05628 0
M  V30 10312 C 974.24 1.44231 -1.20744 0
M  V30 10313 O 973.598 1.79975 -0.218822 0
M  V30 10314 C 973.646 0.673251 -3.54259 0
M  V30 10315 O 972.75 1.77448 -3.72271 0
M  V30 10316 H 972.091 0.0469753 -0.662336 0
M  V30 10317 H 974.621 -0.484739 -1.98775 0
M  V30 10318 H 974.631 0.953194 -3.96709 0
M  V30 10319 H 973.306 -0.183747 -4.15494 0
M  V30 10320 H 971.883 1.49259 -3.41725 0
M  V30 10321 N 974.068 1.57479 -0.061844 0
M  V30 10322 C 975.479 1.80627 0.472295 0
M  V30 10323 C 975.83 0.97496 1.70261 0
M  V30 10324 O 974.955 0.1946 2.15523 0
M  V30 10325 C 975.55 3.27608 0.863616 0
M  V30 10326 C 974.109 3.51638 1.34267 0
M  V30 10327 C 973.256 2.75412 0.323009 0
M  V30 10328 H 976.207 1.56072 -0.287634 0
M  V30 10329 H 976.228 3.39113 1.72577 0
M  V30 10330 H 975.74 3.88087 -0.0320226 0
M  V30 10331 H 973.841 2.96452 2.25714 0
M  V30 10332 H 973.954 4.60342 1.32747 0
M  V30 10333 H 972.318 2.4187 0.798175 0
M  V30 10334 H 973.101 3.38623 -0.564729 0
M  V30 10335 N 975.546 -0.211634 1.56173 0
M  V30 10336 C 976.493 -1.26231 1.93221 0
M  V30 10337 C 977.463 -1.46076 0.790641 0
M  V30 10338 O 978.648 -1.59482 1.04739 0
M  V30 10339 C 975.788 -2.60559 2.26281 0
M  V30 10340 C 974.901 -2.48431 3.5342 0
M  V30 10341 C 974.036 -3.7535 3.7588 0
M  V30 10342 C 973.075 -3.57985 4.96501 0
M  V30 10343 N 972.212 -4.76877 5.15299 0
M  V30 10344 H 977.052 -0.939367 2.82807 0
M  V30 10345 H 974.589 -0.452511 1.39967 0
M  V30 10346 H 976.547 -3.38796 2.43461 0
M  V30 10347 H 975.177 -2.9093 1.39855 0
M  V30 10348 H 974.229 -1.61577 3.44379 0
M  V30 10349 H 975.541 -2.31526 4.41811 0
M  V30 10350 H 974.695 -4.62029 3.9321 0
M  V30 10351 H 973.434 -3.95191 2.85788 0
M  V30 10352 H 972.439 -2.69691 4.79111 0
M  V30 10353 H 973.664 -3.39605 5.88086 0
M  V30 10354 H 971.61 -4.97013 4.28152 0
M  V30 10355 H 971.527 -4.62735 5.9784 0
M  V30 10356 H 972.795 -5.64954 5.37073 0
M  V30 10357 N 977.024 -1.50153 -0.478725 0
M  V30 10358 C 978.435 -1.53706 -1.05978 0
M  V30 10359 C 978.786 -0.336112 -1.933 0
M  V30 10360 O 977.911 0.551803 -2.09246 0
M  V30 10361 C 978.506 -2.78541 -1.92874 0
M  V30 10362 C 977.065 -2.848 -2.46102 0
M  V30 10363 C 976.212 -2.47902 -1.24257 0
M  V30 10364 H 979.163 -1.56528 -0.261664 0
M  V30 10365 H 979.184 -2.59964 -2.77847 0
M  V30 10366 H 978.696 -3.6593 -1.29293 0
M  V30 10367 H 976.797 -2.01744 -3.13257 0
M  V30 10368 H 976.91 -3.87511 -2.81731 0
M  V30 10369 H 975.274 -2.0017 -1.57493 0
M  V30 10370 H 976.057 -3.3759 -0.62351 0
M  V30 10371 N 978.502 0.731368 -1.39602 0
M  V30 10372 C 979.727 1.52567 -1.40492 0
M  V30 10373 C 980.152 1.881 -0.00228828 0
M  V30 10374 O 979.51 1.52167 0.985643 0
M  V30 10375 C 979.558 2.78749 -2.2876 0
M  V30 10376 O 978.662 3.7482 -1.71999 0
M  V30 10377 H 978.003 0.460601 -0.478271 0
M  V30 10378 H 980.533 0.902042 -1.83642 0
M  V30 10379 H 980.543 3.27446 -2.43399 0
M  V30 10380 H 979.218 2.5222 -3.30693 0
M  V30 10381 H 977.795 3.33604 -1.66622 0
M  V30 10382 N 979.98 1.24838 0.961938 0
M  V30 10383 C 980.928 1.0436 2.07874 0
M  V30 10384 C 981.922 -0.0232531 1.69384 0
M  V30 10385 O 983.128 0.131773 1.79517 0
M  V30 10386 H 979.503 0.320492 0.680286 0
M  V30 10387 H 981.474 1.99055 2.22306 0
M  V30 10388 C 980.223 0.671246 3.41159 0
M  V30 10389 H 979.546 1.48395 3.7124 0
M  V30 10390 H 980.986 0.567608 4.20184 0
M  V30 10391 C 979.445 -0.622124 3.31106 0
M  V30 10392 O 979.975 -1.66627 3.65511 0
M  V30 10393 N 978.181 -0.605009 2.84232 0
M  V30 10394 H 977.728 0.245052 2.56432 0
M  V30 10395 H 977.686 -1.47056 2.77888 0
M  V30 10396 N 981.458 -1.16348 1.06306 0
M  V30 10397 C 982.706 -1.86512 0.778311 0
M  V30 10398 C 983.027 -1.82107 -0.697273 0
M  V30 10399 O 982.297 -1.2547 -1.50446 0
M  V30 10400 H 980.877 -0.690529 0.284919 0
M  V30 10401 H 983.539 -1.41092 1.34458 0
M  V30 10402 H 982.635 -2.91947 1.10333 0
M  V30 10403 N 982.937 -0.845659 -1.3299 0
M  V30 10404 C 983.9 -0.288905 -2.27372 0
M  V30 10405 C 984.9 0.546263 -1.51237 0
M  V30 10406 O 986.09 0.359072 -1.70459 0
M  V30 10407 C 983.222 0.59224 -3.35716 0
M  V30 10408 H 984.415 -1.12181 -2.78128 0
M  V30 10409 H 981.968 -0.619276 -1.43508 0
M  V30 10410 H 982.703 1.44732 -2.90212 0
M  V30 10411 H 982.488 -0.00543255 -3.921 0
M  V30 10412 H 983.978 0.974848 -4.06062 0
M  V30 10413 N 984.415 1.45619 -0.602734 0
M  V30 10414 C 985.663 2.01873 -0.095844 0
M  V30 10415 C 985.984 1.47427 1.27633 0
M  V30 10416 O 985.254 0.666652 1.84208 0
M  V30 10417 H 983.834 0.746295 -0.0324408 0
M  V30 10418 H 986.496 1.78478 -0.783037 0
M  V30 10419 H 985.592 3.12072 -0.0419507 0
M  V30 10420 N 985.893 0.34162 1.53853 0
M  V30 10421 C 987.139 -0.255862 2.01179 0
M  V30 10422 C 987.472 -1.50356 1.22909 0
M  V30 10423 O 986.747 -1.91913 0.316198 0
M  V30 10424 C 987.03 -0.571934 3.55529 0
M  V30 10425 C 986.883 0.687727 4.44511 0
M  V30 10426 C 988.202 -1.38233 4.17827 0
M  V30 10427 H 985.321 -0.091521 0.731295 0
M  V30 10428 H 987.963 0.461775 1.84303 0
M  V30 10429 H 986.113 -1.18331 3.70041 0
M  V30 10430 H 987.785 1.32572 4.4184 0
M  V30 10431 H 986.028 1.313 4.13452 0
M  V30 10432 H 986.699 0.421858 5.50386 0
M  V30 10433 H 989.175 -0.865374 4.07002 0
M  V30 10434 H 988.051 -1.57223 5.25901 0
M  V30 10435 H 988.312 -2.38386 3.72323 0
M  V30 10436 N 987.371 -1.57444 0.0701946 0
M  V30 10437 C 988.782 -1.80875 -0.462709 0
M  V30 10438 C 989.133 -0.983975 -1.69742 0
M  V30 10439 O 988.258 -0.206027 -2.15417 0
M  V30 10440 C 988.853 -3.28062 -0.84623 0
M  V30 10441 C 987.412 -3.52345 -1.32401 0
M  V30 10442 C 986.559 -2.7558 -0.308399 0
M  V30 10443 H 989.51 -1.55917 0.295907 0
M  V30 10444 H 989.531 -3.40023 -1.70776 0
M  V30 10445 H 989.043 -3.88064 0.0526033 0
M  V30 10446 H 987.144 -2.97645 -2.24139 0
M  V30 10447 H 987.257 -4.6104 -1.30304 0
M  V30 10448 H 985.621 -2.4229 -0.785337 0
M  V30 10449 H 986.404 -3.38319 0.582679 0
M  V30 10450 N 988.849 0.203349 -1.56283 0
M  V30 10451 C 989.797 1.27157 -1.94766 0
M  V30 10452 C 990.791 1.4756 -0.832005 0
M  V30 10453 O 991.997 1.48519 -1.01696 0
M  V30 10454 H 988.372 0.426712 -0.61921 0
M  V30 10455 H 990.343 0.919921 -2.83866 0
M  V30 10456 C 989.092 2.6108 -2.29636 0
M  V30 10457 H 988.415 2.46193 -3.15006 0
M  V30 10458 H 989.855 3.34591 -2.60433 0
M  V30 10459 C 988.314 3.17456 -1.12799 0
M  V30 10460 O 988.844 3.99717 -0.398661 0
M  V30 10461 N 987.05 2.76084 -0.906975 0
M  V30 10462 H 986.597 2.09294 -1.50179 0
M  V30 10463 H 986.555 3.14143 -0.127005 0
M  V30 10464 N 990.327 1.50405 0.470755 0
M  V30 10465 C 991.575 1.61092 1.2204 0
M  V30 10466 C 991.896 0.313487 1.92464 0
M  V30 10467 O 991.166 -0.669043 1.84121 0
M  V30 10468 H 989.746 0.593618 0.45346 0
M  V30 10469 H 992.408 1.87184 0.542985 0
M  V30 10470 H 991.504 2.42222 1.96812 0
M  V30 10471 N 991.805 -0.723954 1.39988 0
M  V30 10472 C 992.768 -1.81973 1.3935 0
M  V30 10473 C 993.768 -1.58187 0.288702 0
M  V30 10474 O 994.958 -1.65383 0.547181 0
M  V30 10475 C 992.09 -3.19937 1.177 0
M  V30 10476 H 993.283 -1.83939 2.36868 0
M  V30 10477 H 990.836 -0.928742 1.25714 0
M  V30 10478 H 991.571 -3.23625 0.209093 0
M  V30 10479 H 991.356 -3.386 1.97719 0
M  V30 10480 H 992.846 -3.99981 1.20022 0
M  V30 10481 N 993.283 -1.25346 -0.955304 0
M  V30 10482 C 994.213 -1.08152 -2.06943 0
M  V30 10483 C 995.194 0.00922598 -1.70097 0
M  V30 10484 O 996.379 -0.160181 -1.93538 0
M  V30 10485 C 993.509 -0.698745 -3.40198 0
M  V30 10486 C 992.463 -1.73965 -3.9105 0
M  V30 10487 C 991.789 -1.21158 -5.20792 0
M  V30 10488 C 993.089 -3.13829 -4.17503 0
M  V30 10489 H 994.783 -2.01345 -2.21586 0
M  V30 10490 H 992.329 -0.969459 -1.06478 0
M  V30 10491 H 994.282 -0.565394 -4.1759 0
M  V30 10492 H 993.006 0.268892 -3.25491 0
M  V30 10493 H 991.665 -1.86143 -3.15827 0
M  V30 10494 H 991.313 -0.234193 -5.02455 0
M  V30 10495 H 991.013 -1.90728 -5.55785 0
M  V30 10496 H 992.537 -1.09061 -6.00781 0
M  V30 10497 H 993.951 -3.04809 -4.85556 0
M  V30 10498 H 992.348 -3.80863 -4.63749 0
M  V30 10499 H 993.418 -3.6094 -3.23806 0
M  V30 10500 N 994.761 1.15782 -1.06922 0
M  V30 10501 C 996.177 1.38454 -0.793896 0
M  V30 10502 C 996.377 1.92238 0.603875 0
M  V30 10503 O 995.433 2.1253 1.36335 0
M  V30 10504 C 996.746 2.3595 -1.86408 0
M  V30 10505 C 998.294 2.49622 -1.88833 0
M  V30 10506 C 998.769 3.50406 -2.94923 0
M  V30 10507 N 1000.26 3.57938 -2.93997 0
M  V30 10508 C 1001 4.35728 -3.72731 0
M  V30 10509 N 1000.49 5.16888 -4.61301 0
M  V30 10510 N 1002.28 4.30774 -3.61096 0
M  V30 10511 H 994.435 0.792101 -1.97077 0
M  V30 10512 H 996.698 0.410779 -0.85438 0
M  V30 10513 H 996.404 2.03537 -2.86819 0
M  V30 10514 H 996.278 3.35677 -1.72049 0
M  V30 10515 H 998.665 2.81335 -0.890759 0
M  V30 10516 H 998.746 1.49909 -2.0727 0
M  V30 10517 H 998.39 3.19429 -3.94877 0
M  V30 10518 H 998.32 4.49864 -2.73734 0
M  V30 10519 H 1000.81 3.00007 -2.29791 0
M  V30 10520 H 1001.12 5.73477 -5.18019 0
M  V30 10521 H 999.469 5.16209 -4.65353 0
M  V30 10522 H 1002.66 3.66432 -2.91282 0
M  V30 10523 H 1002.83 4.91151 -4.22699 0
M  V30 10524 N 996.239 0.8527 1.3254 0
M  V30 10525 C 997.149 0.298744 2.3269 0
M  V30 10526 C 998.165 -0.582418 1.63963 0
M  V30 10527 O 999.341 -0.483253 1.95516 0
M  V30 10528 C 996.406 -0.505453 3.42996 0
M  V30 10529 C 995.467 0.401618 4.27417 0
M  V30 10530 C 994.7 -0.364294 5.32455 0
M  V30 10531 O 994.923 -1.59448 5.47661 0
M  V30 10532 O 993.857 0.268892 6.01299 0
M  V30 10533 H 997.683 1.12843 2.81958 0
M  V30 10534 H 995.268 0.615584 1.36128 0
M  V30 10535 H 997.15 -0.961974 4.10273 0
M  V30 10536 H 995.825 -1.31197 2.95921 0
M  V30 10537 H 994.732 0.906274 3.62957 0
M  V30 10538 H 996.065 1.17327 4.78012 0
M  V30 10539 N 997.718 -1.45297 0.610449 0
M  V30 10540 C 998.943 -2.07101 0.111414 0
M  V30 10541 C 999.368 -1.45161 -1.19625 0
M  V30 10542 O 998.726 -0.545368 -1.72903 0
M  V30 10543 C 998.774 -3.60598 -0.0117372 0
M  V30 10544 O 997.878 -3.98512 -1.06122 0
M  V30 10545 H 997.219 -0.659709 0.075364 0
M  V30 10546 H 999.749 -1.86504 0.841269 0
M  V30 10547 H 999.759 -4.07464 -0.209028 0
M  V30 10548 H 998.434 -4.05067 0.943076 0
M  V30 10549 H 997.011 -3.63312 -0.840158 0
M  V30 10550 N 999.196 -0.349774 -1.5367 0
M  V30 10551 C 1000.44 0.244343 -2.00617 0
M  V30 10552 C 1000.76 1.50567 -1.23914 0
M  V30 10553 O 1000.03 1.92784 -0.348016 0
M  V30 10554 H 998.615 0.0932792 -0.741153 0
M  V30 10555 H 1001.28 -0.472367 -1.89089 0
M  V30 10556 H 1000.37 0.482433 -3.08349 0
M  V30 10557 N 1000.67 1.57404 -0.0785433 0
M  V30 10558 C 1001.92 1.93361 0.58786 0
M  V30 10559 C 1002.24 0.959856 1.6974 0
M  V30 10560 O 1001.51 0.0091173 1.95898 0
M  V30 10561 H 1000.09 0.713825 0.220141 0
M  V30 10562 H 1002.75 1.94411 -0.137986 0
M  V30 10563 H 1001.85 2.95346 1.00881 0
M  V30 10564 N 1002.15 -0.195058 1.56388 0
M  V30 10565 C 1003.38 -0.935745 1.85091 0
M  V30 10566 C 1003.8 -1.76061 0.662118 0
M  V30 10567 O 1003.16 -1.77076 -0.389083 0
M  V30 10568 C 1003.21 -1.80764 3.1202 0
M  V30 10569 O 1002.31 -2.90643 2.92575 0
M  V30 10570 H 1001.65 -0.26351 0.609474 0
M  V30 10571 H 1004.18 -0.200362 2.03617 0
M  V30 10572 H 1004.19 -2.21229 3.42815 0
M  V30 10573 H 1002.87 -1.20157 3.98165 0
M  V30 10574 H 1001.44 -2.53934 2.73079 0
M  V30 10575 N 1003.63 -1.50653 -0.462772 0
M  V30 10576 C 1004.88 -1.61737 -1.21184 0
M  V30 10577 C 1005.2 -0.32369 -1.92295 0
M  V30 10578 O 1004.47 0.659269 -1.84473 0
M  V30 10579 H 1003.05 -0.596015 -0.450306 0
M  V30 10580 H 1005.71 -1.87469 -0.533051 0
M  V30 10581 H 1004.81 -2.43262 -1.95525 0
M  V30 10582 N 1005.11 0.71652 -1.4037 0
M  V30 10583 C 1006.36 1.47638 -1.38597 0
M  V30 10584 C 1006.68 1.94496 0.0120141 0
M  V30 10585 O 1005.94 1.68437 0.996373 0
M  V30 10586 C 1006.24 2.71777 -2.32103 0
M  V30 10587 C 1005.9 2.43689 -3.79376 0
M  V30 10588 C 1004.57 2.35739 -4.195 0
M  V30 10589 C 1006.92 2.20099 -4.72447 0
M  V30 10590 C 1004.25 2.02265 -5.50732 0
M  V30 10591 C 1006.6 1.88138 -6.03976 0
M  V30 10592 C 1005.26 1.78669 -6.43143 0
M  V30 10593 H 1004.53 0.540246 -0.507163 0
M  V30 10594 H 1007.18 0.820822 -1.73017 0
M  V30 10595 H 1005.48 3.42166 -1.90865 0
M  V30 10596 H 1007.18 3.29864 -2.28015 0
M  V30 10597 H 1003.77 2.50763 -3.47585 0
M  V30 10598 H 1007.95 2.25198 -4.42266 0
M  V30 10599 H 1003.21 1.93471 -5.79982 0
M  V30 10600 H 1007.38 1.68898 -6.75608 0
M  V30 10601 H 1005.01 1.52498 -7.44747 0
M  V30 10602 N 1006.59 1.25851 0.948643 0
M  V30 10603 C 1008 1.02802 1.22081 0
M  V30 10604 C 1008.2 -0.251461 1.99925 0
M  V30 10605 O 1007.26 -0.962592 2.33432 0
M  V30 10606 C 1008.57 2.25489 1.98936 0
M  V30 10607 C 1010.12 2.30312 2.11956 0
M  V30 10608 C 1010.59 3.52671 2.92211 0
M  V30 10609 N 1012.09 3.53103 2.99787 0
M  V30 10610 C 1012.82 4.44445 3.62294 0
M  V30 10611 N 1012.32 5.46065 4.26362 0
M  V30 10612 N 1014.11 4.32113 3.59493 0
M  V30 10613 H 1006.26 2.08042 0.428044 0
M  V30 10614 H 1008.52 0.913928 0.251872 0
M  V30 10615 H 1008.23 3.18513 1.4914 0
M  V30 10616 H 1008.1 2.2914 2.99624 0
M  V30 10617 H 1010.49 1.37808 2.60946 0
M  V30 10618 H 1010.57 2.30676 1.10554 0
M  V30 10619 H 1010.22 4.45501 2.43909 0
M  V30 10620 H 1010.15 3.49554 3.93853 0
M  V30 10621 H 1012.64 2.79597 2.54232 0
M  V30 10622 H 1012.95 6.11964 4.71932 0
M  V30 10623 H 1011.29 5.49931 4.24972 0
M  V30 10624 H 1014.49 3.51946 3.08629 0
M  V30 10625 H 1014.66 5.03493 4.0792 0
M  V30 10626 N 1008.06 -1.15214 1.07534 0
M  V30 10627 C 1009.29 -1.90463 0.820883 0
M  V30 10628 C 1009.71 -1.77578 -0.620305 0
M  V30 10629 O 1009.07 -1.10976 -1.43366 0
M  V30 10630 C 1009.12 -3.38746 1.23627 0
M  V30 10631 O 1008.22 -4.1062 0.382715 0
M  V30 10632 H 1007.57 -0.59292 0.298901 0
M  V30 10633 H 1010.1 -1.45893 1.43445 0
M  V30 10634 H 1010.11 -3.89543 1.21327 0
M  V30 10635 H 1008.78 -3.47443 2.28596 0
M  V30 10636 H 1007.36 -3.69947 0.468374 0
M  V30 10637 N 1009.54 -0.859717 -1.32086 0
M  V30 10638 C 1010.95 -0.519529 -1.79326 0
M  V30 10639 C 1011.3 0.96295 -1.70944 0
M  V30 10640 O 1010.43 1.75139 -1.27104 0
M  V30 10641 C 1011.02 -0.936267 -3.25606 0
M  V30 10642 C 1009.58 -0.647899 -3.70782 0
M  V30 10643 C 1008.73 -1.13323 -2.53087 0
M  V30 10644 H 1011.68 -1.04643 -1.19312 0
M  V30 10645 H 1011.7 -0.254714 -3.79646 0
M  V30 10646 H 1011.21 -2.01527 -3.31675 0
M  V30 10647 H 1009.32 0.420172 -3.70223 0
M  V30 10648 H 1009.43 -1.21774 -4.63366 0
M  V30 10649 H 1007.79 -0.553325 -2.48617 0
M  V30 10650 H 1008.58 -2.21945 -2.61907 0
M  V30 10651 N 1011.02 1.44971 -0.618145 0
M  V30 10652 C 1011.97 2.27704 0.116119 0
M  V30 10653 C 1012.95 1.37927 0.828558 0
M  V30 10654 O 1014.15 1.61836 0.716806 0
M  V30 10655 C 1011.28 3.25004 1.10578 0
M  V30 10656 C 1010.36 4.22269 0.39364 0
M  V30 10657 N 1010.75 5.02571 -0.570581 0
M  V30 10658 C 1009.05 4.41387 0.639809 0
M  V30 10659 C 1009.75 5.73211 -0.990144 0
M  V30 10660 N 1008.73 5.42587 -0.331653 0
M  V30 10661 H 1012.53 2.87193 -0.624295 0
M  V30 10662 H 1010.04 1.56252 -0.442631 0
M  V30 10663 H 1012.04 3.83017 1.64631 0
M  V30 10664 H 1010.7 2.67075 1.84664 0
M  V30 10665 H 1011.71 5.09153 -0.947814 0
M  V30 10666 H 1008.39 3.94572 1.36453 0
M  V30 10667 H 1009.78 6.47728 -1.78601 0
M  V30 10668 N 1012.5 0.357919 1.53482 0
M  V30 10669 C 1013.43 -0.484231 2.28424 0
M  V30 10670 C 1014.41 -1.09046 1.30548 0
M  V30 10671 O 1015.59 -1.10916 1.59409 0
M  V30 10672 C 1012.72 -1.62803 3.06778 0
M  V30 10673 C 1011.68 -1.14943 4.12277 0
M  V30 10674 C 1011 -2.38287 4.78669 0
M  V30 10675 C 1012.3 -0.239627 5.2175 0
M  V30 10676 H 1014 0.140979 2.99068 0
M  V30 10677 H 1011.54 0.069244 1.43833 0
M  V30 10678 H 1013.5 -2.22374 3.57949 0
M  V30 10679 H 1012.22 -2.28036 2.3381 0
M  V30 10680 H 1010.88 -0.576442 3.6204 0
M  V30 10681 H 1010.53 -3.01959 4.02281 0
M  V30 10682 H 1010.23 -2.06939 5.49955 0
M  V30 10683 H 1011.75 -2.98558 5.32631 0
M  V30 10684 H 1013.17 -0.742597 5.6847 0
M  V30 10685 H 1011.56 -0.0173747 6.00097 0
M  V30 10686 H 1012.63 0.720333 4.7952 0
M  V30 10687 N 1013.98 -1.5736 0.0868897 0
M  V30 10688 C 1015.22 -1.95147 -0.573512 0
M  V30 10689 C 1015.58 -0.967591 -1.66299 0
M  V30 10690 O 1014.87 0.00774571 -1.91598 0
M  V30 10691 C 1015.06 -3.37316 -1.18123 0
M  V30 10692 C 1014.89 -4.49443 -0.152145 0
M  V30 10693 C 1013.66 -5.04586 0.268496 0
M  V30 10694 C 1015.86 -5.10592 0.616502 0
M  V30 10695 N 1013.84 -6.00264 1.28671 0
M  V30 10696 C 1015.21 -6.0191 1.48677 0
M  V30 10697 C 1017.27 -4.93359 0.67092 0
M  V30 10698 C 1015.97 -6.77844 2.40664 0
M  V30 10699 C 1018 -5.69949 1.57837 0
M  V30 10700 C 1017.36 -6.60927 2.43628 0
M  V30 10701 H 1013.46 -0.760898 -0.180439 0
M  V30 10702 H 1016.04 -1.93978 0.167548 0
M  V30 10703 H 1014.21 -3.39194 -1.89214 0
M  V30 10704 H 1015.95 -3.62301 -1.80332 0
M  V30 10705 H 1012.7 -4.73454 -0.117625 0
M  V30 10706 H 1013.13 -6.52804 1.79377 0
M  V30 10707 H 1017.77 -4.22794 0.0218207 0
M  V30 10708 H 1015.49 -7.47677 3.06603 0
M  V30 10709 H 1019.07 -5.58631 1.6255 0
M  V30 10710 H 1017.95 -7.19156 3.12705 0
M  V30 10711 N 1015.45 0.186762 -1.56489 0
M  V30 10712 C 1016.4 1.23141 -1.95205 0
M  V30 10713 C 1017.37 1.44799 -0.81378 0
M  V30 10714 O 1018.56 1.57795 -1.07263 0
M  V30 10715 C 1015.7 2.56926 -2.30397 0
M  V30 10716 C 1014.81 2.42777 -3.57328 0
M  V30 10717 C 1013.94 3.69323 -3.81804 0
M  V30 10718 C 1012.98 3.50041 -5.02133 0
M  V30 10719 N 1012.12 4.68619 -5.2282 0
M  V30 10720 H 1016.96 0.894256 -2.84266 0
M  V30 10721 H 1014.5 0.430187 -1.40669 0
M  V30 10722 H 1016.46 3.3488 -2.4882 0
M  V30 10723 H 1015.09 2.88668 -1.44466 0
M  V30 10724 H 1014.14 1.56078 -3.46906 0
M  V30 10725 H 1015.45 2.24468 -4.45439 0
M  V30 10726 H 1014.6 4.55715 -4.00511 0
M  V30 10727 H 1013.34 3.90595 -2.92039 0
M  V30 10728 H 1012.35 2.62034 -4.8334 0
M  V30 10729 H 1013.57 3.30206 -5.93414 0
M  V30 10730 H 1011.52 4.90139 -4.36005 0
M  V30 10731 H 1011.44 4.53165 -6.05126 0
M  V30 10732 H 1012.7 5.56338 -5.45993 0
M  V30 10733 N 1016.93 1.50896 0.454776 0
M  V30 10734 C 1017.88 1.70947 1.55067 0
M  V30 10735 C 1018.85 0.550899 1.56698 0
M  V30 10736 O 1020.03 0.783352 1.73978 0
M  V30 10737 C 1017.17 1.82455 2.92924 0
M  V30 10738 C 1016.29 3.09919 3.00956 0
M  V30 10739 C 1015.42 3.12125 4.29827 0
M  V30 10740 C 1014.46 4.33975 4.31662 0
M  V30 10741 N 1013.6 4.33828 5.5203 0
M  V30 10742 H 1018.44 2.645 1.37273 0
M  V30 10743 H 1015.98 1.31101 0.667148 0
M  V30 10744 H 1017.93 1.87108 3.72889 0
M  V30 10745 H 1016.56 0.92327 3.09315 0
M  V30 10746 H 1015.62 3.14659 2.13761 0
M  V30 10747 H 1016.93 3.99869 2.98172 0
M  V30 10748 H 1016.08 3.15598 5.18154 0
M  V30 10749 H 1014.82 2.20033 4.35243 0
M  V30 10750 H 1013.83 4.30697 3.41731 0
M  V30 10751 H 1015.05 5.27312 4.27924 0
M  V30 10752 H 1013 3.44598 5.58201 0
M  V30 10753 H 1012.91 5.17566 5.51055 0
M  V30 10754 H 1014.18 4.4147 6.42437 0
M  V30 10755 N 1018.41 -0.709066 1.40748 0
M  V30 10756 C 1019.64 -1.50313 1.42901 0
M  V30 10757 C 1020.06 -1.88072 0.032213 0
M  V30 10758 O 1019.42 -1.53716 -0.96131 0
M  V30 10759 C 1019.47 -2.75074 2.33166 0
M  V30 10760 O 1018.57 -3.72036 1.7794 0
M  V30 10761 H 1017.91 -0.452934 0.485538 0
M  V30 10762 H 1020.44 -0.872712 1.85054 0
M  V30 10763 H 1020.45 -3.23532 2.48578 0
M  V30 10764 H 1019.13 -2.46927 3.34664 0
M  V30 10765 H 1017.7 -3.30911 1.71908 0
M  V30 10766 N 1019.89 -1.26353 -0.941956 0
M  V30 10767 C 1021.11 -1.14731 -1.72776 0
M  V30 10768 C 1021.54 0.293766 -1.85792 0
M  V30 10769 O 1020.9 1.21284 -1.34759 0
M  V30 10770 C 1020.95 -1.82041 -3.11277 0
M  V30 10771 O 1020.05 -1.10867 -3.97218 0
M  V30 10772 H 1019.39 -0.399823 -0.53013 0
M  V30 10773 H 1021.92 -1.67157 -1.17981 0
M  V30 10774 H 1021.93 -1.88834 -3.61671 0
M  V30 10775 H 1020.61 -2.86879 -3.0112 0
M  V30 10776 H 1019.18 -1.12044 -3.55669 0
M  V30 10777 N 1021.37 1.14642 -1.08144 0
M  V30 10778 C 1022.6 1.89484 -0.830864 0
M  V30 10779 C 1023.01 1.78443 0.616722 0
M  V30 10780 O 1022.37 1.14191 1.42361 0
M  V30 10781 C 1022.42 3.39554 -1.24039 0
M  V30 10782 O 1022.14 3.50286 -2.63119 0
M  V30 10783 C 1023.64 4.31399 -1.02029 0
M  V30 10784 H 1020.86 0.600283 -0.299835 0
M  V30 10785 H 1023.4 1.45204 -1.44001 0
M  V30 10786 H 1021.56 3.81467 -0.675407 0
M  V30 10787 H 1021.97 4.43481 -2.80045 0
M  V30 10788 H 1023.45 5.35079 -1.35625 0
M  V30 10789 H 1023.92 4.39179 0.0428697 0
M  V30 10790 H 1024.53 3.95238 -1.57057 0
M  V30 10791 N 1022.85 0.866709 1.31628 0
M  V30 10792 C 1023.78 0.335762 2.31073 0
M  V30 10793 C 1024.76 -0.571597 1.60209 0
M  V30 10794 O 1025.94 -0.489306 1.87935 0
M  V30 10795 C 1023.07 -0.466416 3.44154 0
M  V30 10796 C 1022.03 0.347561 4.26586 0
M  V30 10797 C 1021.35 -0.5801 5.31544 0
M  V30 10798 C 1022.65 1.57986 4.97833 0
M  V30 10799 H 1024.35 1.16673 2.75731 0
M  V30 10800 H 1021.89 0.56248 1.3256 0
M  V30 10801 H 1023.84 -0.84836 4.12772 0
M  V30 10802 H 1022.57 -1.33086 2.98254 0
M  V30 10803 H 1021.23 0.71141 3.59631 0
M  V30 10804 H 1020.88 -1.44174 4.81895 0
M  V30 10805 H 1020.58 -0.0393965 5.87587 0
M  V30 10806 H 1022.1 -0.958958 6.03023 0
M  V30 10807 H 1023.51 1.26954 5.59067 0
M  V30 10808 H 1021.91 2.05939 5.63657 0
M  V30 10809 H 1022.98 2.3345 4.25005 0
M  V30 10810 N 1024.32 -1.44642 0.625825 0
M  V30 10811 C 1025.55 -2.06458 0.135116 0
M  V30 10812 C 1025.97 -1.46729 -1.18811 0
M  V30 10813 O 1025.32 -0.58818 -1.72762 0
M  V30 10814 C 1025.37 -3.61499 0.00850114 0
M  V30 10815 O 1025.1 -4.19002 1.2794 0
M  V30 10816 C 1026.6 -4.40339 -0.511527 0
M  V30 10817 H 1023.82 -0.666541 0.0772294 0
M  V30 10818 H 1026.36 -1.85597 0.858726 0
M  V30 10819 H 1024.52 -3.81641 -0.665522 0
M  V30 10820 H 1024.93 -5.12385 1.12081 0
M  V30 10821 H 1026.4 -5.49262 -0.549149 0
M  V30 10822 H 1026.88 -4.11409 -1.53752 0
M  V30 10823 H 1027.49 -4.25104 0.129066 0
M  V30 10824 N 1025.8 -0.366053 -1.5329 0
M  V30 10825 C 1027.03 0.226839 -2.06156 0
M  V30 10826 C 1027.45 1.41637 -1.23776 0
M  V30 10827 O 1026.81 1.7947 -0.256948 0
M  V30 10828 C 1026.86 0.597956 -3.55608 0
M  V30 10829 O 1025.96 1.69512 -3.75951 0
M  V30 10830 H 1025.3 0.0329156 -0.663184 0
M  V30 10831 H 1027.83 -0.526793 -1.97702 0
M  V30 10832 H 1027.84 0.868831 -3.98642 0
M  V30 10833 H 1026.52 -0.271838 -4.15011 0
M  V30 10834 H 1025.09 1.41976 -3.44815 0
M  V30 10835 N 1027.28 1.57312 -0.0952337 0
M  V30 10836 C 1028.5 1.99119 0.580206 0
M  V30 10837 C 1028.93 0.973955 1.60922 0
M  V30 10838 O 1028.29 -0.0575338 1.81209 0
M  V30 10839 C 1028.34 3.39893 1.20438 0
M  V30 10840 O 1027.44 3.40941 2.32019 0
M  V30 10841 H 1026.78 0.64748 0.147195 0
M  V30 10842 H 1029.31 2.03836 -0.176686 0
M  V30 10843 H 1029.32 3.7759 1.54564 0
M  V30 10844 H 1028 4.13453 0.450514 0
M  V30 10845 H 1026.57 3.1504 1.9951 0
M  V30 10846 N 1028.76 -0.17846 1.56586 0
M  V30 10847 C 1030.17 -0.529957 1.50544 0
M  V30 10848 C 1030.37 -1.85015 0.798237 0
M  V30 10849 O 1029.43 -2.49983 0.355639 0
M  V30 10850 C 1030.74 -0.569314 2.95261 0
M  V30 10851 C 1032.29 -0.657008 3.06027 0
M  V30 10852 C 1032.77 -0.727323 4.52188 0
M  V30 10853 N 1034.26 -0.790406 4.56406 0
M  V30 10854 C 1034.99 -0.865265 5.66834 0
M  V30 10855 N 1034.49 -0.901398 6.86911 0
M  V30 10856 N 1036.28 -0.903736 5.54787 0
M  V30 10857 H 1028.43 0.687304 2.00972 0
M  V30 10858 H 1030.69 0.246936 0.915274 0
M  V30 10859 H 1030.4 0.331934 3.5013 0
M  V30 10860 H 1030.27 -1.41828 3.4952 0
M  V30 10861 H 1032.66 -1.54868 2.51197 0
M  V30 10862 H 1032.74 0.218495 2.54865 0
M  V30 10863 H 1032.39 0.160067 5.07648 0
M  V30 10864 H 1032.32 -1.61887 5.01099 0
M  V30 10865 H 1034.81 -0.771054 3.6995 0
M  V30 10866 H 1035.12 -0.959494 7.6682 0
M  V30 10867 H 1033.47 -0.869795 6.89536 0
M  V30 10868 H 1036.66 -0.872459 4.59898 0
M  V30 10869 H 1036.83 -0.958615 6.4087 0
M  V30 10870 N 1030.24 -1.51135 -0.446768 0
M  V30 10871 C 1031.17 -1.74709 -1.54916 0
M  V30 10872 C 1032.15 -0.596628 -1.59293 0
M  V30 10873 O 1033.33 -0.838356 -1.75172 0
M  V30 10874 C 1030.46 -1.86353 -2.9307 0
M  V30 10875 C 1029.42 -3.01725 -3.03556 0
M  V30 10876 C 1028.74 -2.9854 -4.43597 0
M  V30 10877 C 1030.04 -4.41848 -2.7851 0
M  V30 10878 H 1031.74 -2.67014 -1.3544 0
M  V30 10879 H 1029.28 -1.28489 -0.650131 0
M  V30 10880 H 1031.23 -2.01428 -3.70141 0
M  V30 10881 H 1029.96 -0.906887 -3.13756 0
M  V30 10882 H 1028.62 -2.86339 -2.28922 0
M  V30 10883 H 1028.27 -2.00673 -4.61237 0
M  V30 10884 H 1027.97 -3.76008 -4.51544 0
M  V30 10885 H 1029.49 -3.15696 -5.22655 0
M  V30 10886 H 1030.9 -4.57633 -3.45319 0
M  V30 10887 H 1029.3 -5.2095 -2.97877 0
M  V30 10888 H 1030.37 -4.52536 -1.74182 0
M  V30 10889 N 1031.71 0.701592 -1.41122 0
M  V30 10890 C 1032.68 1.79733 -1.42227 0
M  V30 10891 C 1033.68 1.57708 -0.313831 0
M  V30 10892 O 1034.87 1.64492 -0.573423 0
M  V30 10893 C 1032 3.18024 -1.22775 0
M  V30 10894 H 1033.19 1.80148 -2.39764 0
M  V30 10895 H 1030.74 0.908624 -1.27176 0
M  V30 10896 H 1031.48 3.23252 -0.260552 0
M  V30 10897 H 1031.26 3.35411 -2.0308 0
M  V30 10898 H 1032.75 3.98021 -1.2637 0
M  V30 10899 N 1033.19 1.2685 0.935242 0
M  V30 10900 C 1034.42 1.15538 1.71635 0
M  V30 10901 C 1034.83 -0.288698 1.8658 0
M  V30 10902 O 1034.19 -1.19721 1.37743 0
M  V30 10903 C 1034.24 1.8259 3.11999 0
M  V30 10904 O 1033.96 3.21355 2.97763 0
M  V30 10905 C 1035.46 1.77307 4.06297 0
M  V30 10906 H 1032.68 0.402055 0.537208 0
M  V30 10907 H 1035.23 1.67582 1.17203 0
M  V30 10908 H 1033.38 1.3447 3.63313 0
M  V30 10909 H 1033.8 3.54626 3.86446 0
M  V30 10910 H 1035.27 2.28851 5.02326 0
M  V30 10911 H 1035.75 0.740823 4.32907 0
M  V30 10912 H 1036.35 2.25007 3.60904 0
M  V30 10913 N 1034.67 -1.14067 1.0875 0
M  V30 10914 C 1035.92 -1.84819 0.817698 0
M  V30 10915 C 1036.24 -1.83545 -0.658488 0
M  V30 10916 O 1035.51 -1.28633 -1.47751 0
M  V30 10917 H 1034.09 -0.68433 0.299502 0
M  V30 10918 H 1036.75 -1.38208 1.37421 0
M  V30 10919 H 1035.85 -2.89541 1.16501 0
M  V30 10920 N 1036.15 -0.873678 -1.31166 0
M  V30 10921 C 1037.06 -0.335726 -2.32185 0
M  V30 10922 C 1038.07 0.556259 -1.64869 0
M  V30 10923 O 1039.25 0.452087 -1.9626 0
M  V30 10924 C 1036.32 0.450822 -3.43756 0
M  V30 10925 C 1035.38 -0.469565 -4.26724 0
M  V30 10926 C 1034.61 0.279538 -5.32967 0
M  V30 10927 O 1034.83 1.50715 -5.50128 0
M  V30 10928 O 1033.77 -0.36452 -6.00795 0
M  V30 10929 H 1037.59 -1.17314 -2.80127 0
M  V30 10930 H 1035.18 -0.637163 -1.35132 0
M  V30 10931 H 1037.06 0.896582 -4.11752 0
M  V30 10932 H 1035.73 1.26472 -2.9797 0
M  V30 10933 H 1034.64 -0.963902 -3.61469 0
M  V30 10934 H 1035.97 -1.24916 -4.76085 0
M  V30 10935 N 1037.63 1.44308 -0.633487 0
M  V30 10936 C 1038.54 2.34492 0.0711787 0
M  V30 10937 C 1039.55 1.52754 0.8332 0
M  V30 10938 O 1040.73 1.85475 0.784929 0
M  V30 10939 C 1037.79 3.30767 1.03895 0
M  V30 10940 C 1036.85 4.28412 0.276043 0
M  V30 10941 C 1036.09 5.20087 1.19772 0
M  V30 10942 O 1036.31 5.15743 2.4365 0
M  V30 10943 O 1035.24 5.98038 0.680764 0
M  V30 10944 H 1039.07 2.96203 -0.67063 0
M  V30 10945 H 1036.66 1.4412 -0.393678 0
M  V30 10946 H 1038.54 3.90021 1.59566 0
M  V30 10947 H 1037.21 2.71586 1.76133 0
M  V30 10948 H 1036.12 3.72696 -0.32377 0
M  V30 10949 H 1037.45 4.9052 -0.406364 0
M  V30 10950 N 1039.1 0.374177 1.53094 0
M  V30 10951 C 1040.01 -0.475935 2.29722 0
M  V30 10952 C 1041.03 -1.085 1.36029 0
M  V30 10953 O 1042.21 -1.09408 1.69091 0
M  V30 10954 C 1039.27 -1.59572 3.07795 0
M  V30 10955 C 1038.33 -1.01332 4.17169 0
M  V30 10956 C 1037.57 -2.07975 4.9151 0
M  V30 10957 O 1037.79 -3.29232 4.65793 0
M  V30 10958 O 1036.72 -1.7055 5.77232 0
M  V30 10959 H 1040.55 0.147877 3.0334 0
M  V30 10960 H 1038.13 0.138312 1.48758 0
M  V30 10961 H 1040.02 -2.24658 3.5652 0
M  V30 10962 H 1038.69 -2.20478 2.37005 0
M  V30 10963 H 1037.6 -0.326133 3.72676 0
M  V30 10964 H 1038.93 -0.4487 4.90151 0
M  V30 10965 N 1040.58 -1.57259 0.103575 0
M  V30 10966 C 1041.83 -1.94272 -0.557024 0
M  V30 10967 C 1042.15 -0.986739 -1.68192 0
M  V30 10968 O 1041.42 -0.0402818 -1.95859 0
M  V30 10969 H 1040 -0.717237 -0.208757 0
M  V30 10970 H 1042.66 -1.94167 0.168898 0
M  V30 10971 H 1041.76 -2.96914 -0.961691 0
M  V30 10972 N 1042.06 0.170153 -1.56679 0
M  V30 10973 C 1043.31 0.884841 -1.817 0
M  V30 10974 C 1043.63 1.82731 -0.680763 0
M  V30 10975 O 1042.9 1.936 0.299294 0
M  V30 10976 H 1041.48 0.329738 -0.670285 0
M  V30 10977 H 1044.14 0.169691 -1.9416 0
M  V30 10978 H 1043.24 1.46104 -2.7579 0
M  V30 10979 N 1043.54 1.5137 0.438746 0
M  V30 10980 C 1044.79 1.63645 1.18595 0
M  V30 10981 C 1045.11 0.354241 1.91755 0
M  V30 10982 O 1044.38 -0.629838 1.85499 0
M  V30 10983 H 1042.96 0.603103 0.440767 0
M  V30 10984 H 1045.62 1.88293 0.503159 0
M  V30 10985 H 1044.72 2.46342 1.9163 0
M  V30 10986 N 1045.02 -0.694098 1.41492 0
M  V30 10987 C 1046.24 -1.48789 1.44488 0
M  V30 10988 C 1046.67 -1.88028 0.0521588 0
M  V30 10989 O 1046.02 -1.54727 -0.944952 0
M  V30 10990 C 1046.07 -2.72586 2.3607 0
M  V30 10991 O 1045.18 -3.70128 1.81876 0
M  V30 10992 H 1044.52 -0.447758 0.490315 0
M  V30 10993 H 1047.05 -0.853036 1.85969 0
M  V30 10994 H 1047.06 -3.20877 2.51995 0
M  V30 10995 H 1045.73 -2.43363 3.37264 0
M  V30 10996 H 1044.31 -3.29069 1.75408 0
M  V30 10997 N 1046.49 -1.27344 -0.928501 0
M  V30 10998 C 1047.72 -1.16557 -1.7155 0
M  V30 10999 C 1048.14 0.274044 -1.86093 0
M  V30 11000 O 1047.5 1.19847 -1.36038 0
M  V30 11001 C 1047.55 -1.85332 -3.09329 0
M  V30 11002 O 1046.65 -1.15074 -3.9602 0
M  V30 11003 H 1046 -0.405423 -0.525859 0
M  V30 11004 H 1048.53 -1.68399 -1.16202 0
M  V30 11005 H 1048.54 -1.92659 -3.59648 0
M  V30 11006 H 1047.21 -2.90056 -2.98061 0
M  V30 11007 H 1045.79 -1.1581 -3.54461 0
M  V30 11008 N 1047.97 1.13488 -1.09353 0
M  V30 11009 C 1049.2 1.89133 -0.85108 0
M  V30 11010 C 1049.62 1.78542 0.591976 0
M  V30 11011 O 1048.98 1.13243 1.41583 0
M  V30 11012 C 1049.03 3.36736 -1.29001 0
M  V30 11013 O 1048.13 4.09959 -0.447993 0
M  V30 11014 H 1047.47 0.58809 -0.308296 0
M  V30 11015 H 1050 1.43593 -1.45747 0
M  V30 11016 H 1050.01 3.87564 -1.27508 0
M  V30 11017 H 1048.69 3.43762 -2.34095 0
M  V30 11018 H 1047.27 3.69155 -0.52717 0
M  V30 11019 N 1049.45 0.880621 1.30701 0
M  V30 11020 C 1050.4 0.342397 2.28246 0
M  V30 11021 C 1051.37 -0.565023 1.56194 0
M  V30 11022 O 1052.55 -0.494377 1.84284 0
M  V30 11023 C 1049.69 -0.440859 3.42272 0
M  V30 11024 C 1048.81 0.495284 4.29151 0
M  V30 11025 C 1047.94 -0.303141 5.30334 0
M  V30 11026 C 1046.98 0.628751 6.08862 0
M  V30 11027 N 1046.12 -0.13408 7.01972 0
M  V30 11028 H 1050.96 1.17938 2.73669 0
M  V30 11029 H 1048.49 0.59296 1.34619 0
M  V30 11030 H 1050.45 -0.910854 4.07135 0
M  V30 11031 H 1049.08 -1.24245 2.97931 0
M  V30 11032 H 1048.13 1.08376 3.64635 0
M  V30 11033 H 1049.45 1.2094 4.83916 0
M  V30 11034 H 1048.6 -0.835181 6.00924 0
M  V30 11035 H 1047.34 -1.05049 4.76252 0
M  V30 11036 H 1046.34 1.17246 5.37153 0
M  V30 11037 H 1047.57 1.37512 6.65032 0
M  V30 11038 H 1045.52 -0.864046 6.50285 0
M  V30 11039 H 1045.43 0.520486 7.54206 0
M  V30 11040 H 1046.7 -0.647005 7.7681 0
M  V30 11041 N 1050.93 -1.4397 0.641131 0
M  V30 11042 C 1052.35 -1.56607 0.30762 0
M  V30 11043 C 1052.55 -1.62694 -1.18882 0
M  V30 11044 O 1051.6 -1.57541 -1.97325 0
M  V30 11045 C 1052.91 -2.83289 1.00834 0
M  V30 11046 C 1054.46 -2.97016 0.98744 0
M  V30 11047 C 1054.94 -4.26514 1.66882 0
M  V30 11048 N 1056.43 -4.33351 1.63589 0
M  V30 11049 C 1057.16 -5.32292 2.13196 0
M  V30 11050 N 1056.66 -6.37582 2.71038 0
M  V30 11051 N 1058.45 -5.23866 2.03766 0
M  V30 11052 H 1050.6 -1.38262 1.61237 0
M  V30 11053 H 1052.87 -0.663221 0.677378 0
M  V30 11054 H 1052.57 -2.84812 2.06337 0
M  V30 11055 H 1052.45 -3.73134 0.552333 0
M  V30 11056 H 1054.83 -2.95041 -0.0591395 0
M  V30 11057 H 1054.91 -2.08493 1.48203 0
M  V30 11058 H 1054.56 -4.2925 2.71491 0
M  V30 11059 H 1054.49 -5.13912 1.14898 0
M  V30 11060 H 1056.98 -3.5788 1.21368 0
M  V30 11061 H 1057.29 -7.09378 3.06597 0
M  V30 11062 H 1055.64 -6.38239 2.75093 0
M  V30 11063 H 1058.83 -4.40524 1.58291 0
M  V30 11064 H 1059 -6.00819 2.42737 0
M  V30 11065 N 1052.41 -0.382291 -1.52893 0
M  V30 11066 C 1053.65 0.202133 -2.01489 0
M  V30 11067 C 1053.98 1.47399 -1.26901 0
M  V30 11068 O 1053.24 1.92439 -0.355771 0
M  V30 11069 C 1053.54 0.523437 -3.53546 0
M  V30 11070 C 1053.2 -0.656042 -4.46102 0
M  V30 11071 C 1051.86 -0.979633 -4.71123 0
M  V30 11072 C 1054.22 -1.44545 -5.00756 0
M  V30 11073 C 1051.54 -2.0943 -5.48047 0
M  V30 11074 C 1053.9 -2.55066 -5.78899 0
M  V30 11075 C 1052.56 -2.87942 -6.02201 0
M  V30 11076 H 1051.83 0.0739659 -0.737299 0
M  V30 11077 H 1054.48 -0.518196 -1.84356 0
M  V30 11078 H 1052.78 1.325 -3.68715 0
M  V30 11079 H 1054.48 0.988148 -3.88634 0
M  V30 11080 H 1051.07 -0.393818 -4.26787 0
M  V30 11081 H 1055.25 -1.20869 -4.81357 0
M  V30 11082 H 1050.51 -2.3528 -5.64317 0
M  V30 11083 H 1054.68 -3.1664 -6.20252 0
M  V30 11084 H 1052.31 -3.74435 -6.61591 0
M  V30 11085 N 1053.89 1.57202 -0.111913 0
M  V30 11086 C 1054.82 2.17957 0.837683 0
M  V30 11087 C 1055.8 1.1176 1.28233 0
M  V30 11088 O 1056.98 1.39967 1.34621 0
M  V30 11089 C 1054.11 2.77333 2.09054 0
M  V30 11090 C 1053.07 3.8905 1.78393 0
M  V30 11091 C 1052.39 4.35203 3.10649 0
M  V30 11092 C 1053.69 5.11477 1.05775 0
M  V30 11093 H 1055.39 2.9756 0.331441 0
M  V30 11094 H 1052.93 1.43131 0.157979 0
M  V30 11095 H 1054.88 3.18492 2.75936 0
M  V30 11096 H 1053.61 1.95009 2.6199 0
M  V30 11097 H 1052.27 3.48456 1.13903 0
M  V30 11098 H 1051.92 3.49747 3.61506 0
M  V30 11099 H 1051.62 5.10534 2.9091 0
M  V30 11100 H 1053.14 4.79007 3.78661 0
M  V30 11101 H 1054.55 5.497 1.62798 0
M  V30 11102 H 1052.95 5.92346 0.961573 0
M  V30 11103 H 1054.02 4.84881 0.043297 0
M  V30 11104 N 1055.36 -0.161842 1.56767 0
M  V30 11105 C 1056.78 -0.51396 1.51098 0
M  V30 11106 C 1056.98 -1.84158 0.817815 0
M  V30 11107 O 1056.04 -2.49592 0.382133 0
M  V30 11108 C 1057.35 -0.537966 2.95849 0
M  V30 11109 C 1058.9 -0.624512 3.06706 0
M  V30 11110 C 1059.37 -0.679322 4.52934 0
M  V30 11111 N 1060.86 -0.741953 4.57219 0
M  V30 11112 C 1061.6 -0.805096 5.6772 0
M  V30 11113 N 1061.09 -0.828492 6.87828 0
M  V30 11114 N 1062.89 -0.844843 5.55715 0
M  V30 11115 H 1055.04 0.708581 2.00232 0
M  V30 11116 H 1057.3 0.25663 0.912603 0
M  V30 11117 H 1057.01 0.369052 3.49758 0
M  V30 11118 H 1056.88 -1.38113 3.51005 0
M  V30 11119 H 1059.27 -1.52195 2.52825 0
M  V30 11120 H 1059.35 0.245515 2.54619 0
M  V30 11121 H 1058.99 0.213901 5.07449 0
M  V30 11122 H 1058.92 -1.56563 5.02788 0
M  V30 11123 H 1061.41 -0.731772 3.70747 0
M  V30 11124 H 1061.73 -0.878109 7.67795 0
M  V30 11125 H 1060.07 -0.796612 6.9042 0
M  V30 11126 H 1063.26 -0.823632 4.60797 0
M  V30 11127 H 1063.44 -0.890588 6.41851 0
M  V30 11128 N 1056.84 -1.516 -0.430713 0
M  V30 11129 C 1058.07 -1.687 -1.20644 0
M  V30 11130 C 1058.49 -0.386555 -1.84085 0
M  V30 11131 O 1057.85 0.653952 -1.69095 0
M  V30 11132 C 1057.9 -2.80887 -2.2613 0
M  V30 11133 O 1057 -2.44952 -3.31772 0
M  V30 11134 H 1056.34 -0.562289 -0.353167 0
M  V30 11135 H 1058.87 -1.98198 -0.507807 0
M  V30 11136 H 1058.88 -3.05167 -2.70809 0
M  V30 11137 H 1057.56 -3.75249 -1.79334 0
M  V30 11138 H 1056.13 -2.31267 -2.92523 0
M  V30 11139 N 1058.32 0.686584 -1.41858 0
M  V30 11140 C 1059.56 1.45879 -1.43173 0
M  V30 11141 C 1059.92 1.91953 -0.0423059 0
M  V30 11142 O 1061.12 2.68709 0.069783 0
M  V30 11143 C 1059.4 2.63196 -2.41791 0
M  V30 11144 S 1060.95 3.52212 -2.6171 0
M  V30 11145 H 1057.77 0.498391 -0.507077 0
M  V30 11146 H 1060.37 0.800313 -1.78368 0
M  V30 11147 H 1059.08 2.27566 -3.41529 0
M  V30 11148 H 1058.61 3.33928 -2.0798 0
M  V30 11149 H 1060.62 4.58744 -1.89125 0
M  V30 11150 N 1059.8 1.27835 0.921735 0
M  V30 11151 C 1061.02 1.17465 1.70929 0
M  V30 11152 C 1061.45 -0.264171 1.86236 0
M  V30 11153 O 1060.81 -1.19124 1.36671 0
M  V30 11154 C 1060.85 1.8697 3.08342 0
M  V30 11155 O 1059.96 1.17173 3.95404 0
M  V30 11156 H 1059.3 0.408206 0.523702 0
M  V30 11157 H 1061.83 1.69013 1.15307 0
M  V30 11158 H 1061.84 1.94564 3.58621 0
M  V30 11159 H 1060.51 2.91633 2.96518 0
M  V30 11160 H 1059.09 1.17688 3.53842 0
M  V30 11161 N 1061.28 -1.12907 1.09954 0
M  V30 11162 C 1062.24 -2.16673 0.747364 0
M  V30 11163 C 1063.24 -1.59208 -0.225741 0
M  V30 11164 O 1064.43 -1.742 -0.00322482 0
M  V30 11165 C 1061.56 -3.40735 0.106169 0
M  V30 11166 H 1062.75 -2.49341 1.6664 0
M  V30 11167 H 1060.31 -1.27828 0.899421 0
M  V30 11168 H 1061.04 -3.13661 -0.82384 0
M  V30 11169 H 1060.83 -3.83717 0.806434 0
M  V30 11170 H 1062.32 -4.17414 -0.12464 0
M  V30 11171 N 1062.75 -0.88754 -1.30232 0
M  V30 11172 C 1063.98 -0.521562 -2.00735 0
M  V30 11173 C 1064.4 0.883247 -1.66073 0
M  V30 11174 O 1063.76 1.58581 -0.878731 0
M  V30 11175 C 1063.81 -0.706521 -3.53611 0
M  V30 11176 O 1062.91 0.246447 -4.11663 0
M  V30 11177 H 1062.25 -0.205216 -0.631492 0
M  V30 11178 H 1064.78 -1.19579 -1.66018 0
M  V30 11179 H 1064.79 -0.606501 -4.03467 0
M  V30 11180 H 1063.47 -1.73076 -3.78177 0
M  V30 11181 H 1062.05 0.0999062 -3.72766 0
M  V30 11182 N 1064.23 1.43628 -0.648757 0
M  V30 11183 C 1065.47 2.03742 -0.163878 0
M  V30 11184 C 1065.84 1.50047 1.19791 0
M  V30 11185 O 1067.04 2.01777 1.77594 0
M  V30 11186 C 1065.31 3.57001 -0.168849 0
M  V30 11187 S 1066.87 4.38094 0.248835 0
M  V30 11188 H 1063.69 0.70757 -0.0697515 0
M  V30 11189 H 1066.29 1.75759 -0.856094 0
M  V30 11190 H 1064.99 3.93583 -1.16277 0
M  V30 11191 H 1064.52 3.8962 0.544048 0
M  V30 11192 H 1066.54 4.73338 1.48882 0
M  V30 11193 N 1065.71 0.390394 1.52688 0
M  V30 11194 C 1066.96 -0.191729 2.01892 0
M  V30 11195 C 1067.29 -1.4637 1.27631 0
M  V30 11196 O 1066.56 -1.90809 0.377094 0
M  V30 11197 C 1066.85 -0.458535 3.57169 0
M  V30 11198 C 1066.7 0.828796 4.42098 0
M  V30 11199 C 1068.02 -1.2487 4.22014 0
M  V30 11200 H 1065.14 -0.0682091 0.733837 0
M  V30 11201 H 1067.78 0.520176 1.82741 0
M  V30 11202 H 1065.93 -1.06498 3.73618 0
M  V30 11203 H 1067.6 1.46562 4.37398 0
M  V30 11204 H 1065.85 1.44388 4.09066 0
M  V30 11205 H 1066.52 0.596746 5.48765 0
M  V30 11206 H 1068.99 -0.735452 4.09549 0
M  V30 11207 H 1067.87 -1.40412 5.30637 0
M  V30 11208 H 1068.13 -2.2642 3.79719 0
M  V30 11209 N 1067.19 -1.57141 0.120249 0
M  V30 11210 C 1068.6 -1.82256 -0.404931 0
M  V30 11211 C 1068.95 -1.03748 -1.66526 0
M  V30 11212 O 1068.08 -0.274456 -2.14653 0
M  V30 11213 C 1068.67 -3.30588 -0.741431 0
M  V30 11214 C 1067.23 -3.56379 -1.21124 0
M  V30 11215 C 1066.38 -2.76421 -0.220569 0
M  V30 11216 H 1069.33 -1.54897 0.345361 0
M  V30 11217 H 1069.35 -3.45284 -1.59872 0
M  V30 11218 H 1068.86 -3.87701 0.176036 0
M  V30 11219 H 1066.96 -3.04625 -2.14556 0
M  V30 11220 H 1067.07 -4.64952 -1.1557 0
M  V30 11221 H 1065.44 -2.44666 -0.707857 0
M  V30 11222 H 1066.22 -3.36294 0.690018 0
M  V30 11223 N 1068.67 0.153526 -1.5685 0
M  V30 11224 C 1069.62 1.19478 -1.94188 0
M  V30 11225 C 1070.6 1.38889 -0.812329 0
M  V30 11226 O 1071.79 1.4056 -1.07572 0
M  V30 11227 C 1068.92 2.53 -2.32047 0
M  V30 11228 C 1068.01 2.37209 -3.51557 0
M  V30 11229 N 1068.4 1.91162 -4.68285 0
M  V30 11230 C 1066.7 2.67981 -3.56514 0
M  V30 11231 C 1067.4 1.88259 -5.50394 0
M  V30 11232 N 1066.37 2.31329 -4.91923 0
M  V30 11233 H 1070.18 0.830748 -2.81915 0
M  V30 11234 H 1067.69 0.361643 -1.58322 0
M  V30 11235 H 1069.69 3.28264 -2.56998 0
M  V30 11236 H 1068.35 2.90191 -1.45669 0
M  V30 11237 H 1069.36 1.61227 -4.92165 0
M  V30 11238 H 1066.03 3.0909 -2.80659 0
M  V30 11239 H 1067.42 1.54205 -6.53965 0
M  V30 11240 N 1070.14 1.51827 0.422667 0
M  V30 11241 C 1071.39 1.64893 1.16853 0
M  V30 11242 C 1071.71 0.37456 1.91369 0
M  V30 11243 O 1070.98 -0.610128 1.86157 0
M  V30 11244 H 1069.56 0.607744 0.434345 0
M  V30 11245 H 1072.23 1.88816 0.483159 0
M  V30 11246 H 1071.32 2.48361 1.89006 0
M  V30 11247 N 1071.62 -0.679052 1.4222 0
M  V30 11248 C 1072.59 -1.77448 1.45069 0
M  V30 11249 C 1073.59 -1.57189 0.338882 0
M  V30 11250 O 1074.78 -1.63559 0.599519 0
M  V30 11251 C 1071.91 -3.1603 1.27819 0
M  V30 11252 H 1073.1 -1.7631 2.426 0
M  V30 11253 H 1070.65 -0.888277 1.28605 0
M  V30 11254 H 1071.39 -3.22796 0.311946 0
M  V30 11255 H 1071.17 -3.32138 2.08391 0
M  V30 11256 H 1072.66 -3.9596 1.32686 0
M  V30 11257 N 1073.1 -1.28322 -0.914942 0
M  V30 11258 C 1074.05 -1.12146 -2.01722 0
M  V30 11259 C 1075.02 -0.0189279 -1.66089 0
M  V30 11260 O 1076.2 -0.183638 -1.89914 0
M  V30 11261 C 1073.34 -0.78808 -3.35981 0
M  V30 11262 C 1072.46 -1.96954 -3.84491 0
M  V30 11263 C 1071.59 -1.57688 -5.07255 0
M  V30 11264 C 1070.63 -2.72506 -5.48094 0
M  V30 11265 N 1069.77 -2.33741 -6.62049 0
M  V30 11266 H 1074.61 -2.06461 -2.1489 0
M  V30 11267 H 1072.14 -1.0276 -1.05256 0
M  V30 11268 H 1074.1 -0.575546 -4.13211 0
M  V30 11269 H 1072.73 0.118132 -3.22584 0
M  V30 11270 H 1071.78 -2.29423 -3.03429 0
M  V30 11271 H 1073.1 -2.8304 -4.10719 0
M  V30 11272 H 1072.25 -1.32634 -5.92025 0
M  V30 11273 H 1070.99 -0.687291 -4.82833 0
M  V30 11274 H 1069.99 -2.9826 -4.61867 0
M  V30 11275 H 1071.22 -3.62106 -5.74505 0
M  V30 11276 H 1069.16 -1.4725 -6.3926 0
M  V30 11277 H 1069.08 -3.13364 -6.87997 0
M  V30 11278 H 1070.35 -2.11968 -7.50127 0
M  V30 11279 N 1074.58 1.12322 -1.10551 0
M  V30 11280 C 1075.86 1.80201 -0.760715 0
M  V30 11281 C 1076.24 1.97228 0.752628 0
M  V30 11282 O 1075.58 1.54958 1.67929 0
M  V30 11283 C 1075.79 3.14491 -1.51316 0
M  V30 11284 C 1077.14 3.89671 -1.68647 0
M  V30 11285 O 1078.17 3.24151 -1.47664 0
M  V30 11286 O 1077.02 5.0722 -2.03445 0
M  V30 11287 H 1074.12 0.780084 -0.274587 0
M  V30 11288 H 1076.66 1.19147 -1.20839 0
M  V30 11289 H 1075.44 2.97396 -2.54306 0
M  V30 11290 H 1075.06 3.83253 -1.05842 0
M  V30 11291 N 1076.06 0.894434 1.2976 0
M  V30 11292 C 1077.28 0.532916 1.99919 0
M  V30 11293 C 1077.7 -0.881022 1.66983 0
M  V30 11294 O 1077.06 -1.58076 0.912035 0
M  V30 11295 C 1077.11 0.70936 3.54472 0
M  V30 11296 O 1076.83 2.06764 3.86239 0
M  V30 11297 C 1078.33 0.352089 4.419 0
M  V30 11298 H 1075.55 0.205019 0.638912 0
M  V30 11299 H 1078.09 1.20233 1.65421 0
M  V30 11300 H 1076.25 0.0871901 3.87302 0
M  V30 11301 H 1076.66 2.09315 4.80924 0
M  V30 11302 H 1078.14 0.526405 5.49484 0
M  V30 11303 H 1078.61 -0.710527 4.33415 0
M  V30 11304 H 1079.22 0.950979 4.14532 0
M  V30 11305 N 1077.53 -1.43282 0.656365 0
M  V30 11306 C 1078.44 -2.34576 -0.033864 0
M  V30 11307 C 1079.46 -1.5406 -0.808793 0
M  V30 11308 O 1080.64 -1.867 -0.755322 0
M  V30 11309 C 1077.7 -3.32378 -0.986197 0
M  V30 11310 C 1076.76 -4.28797 -0.207851 0
M  V30 11311 C 1076 -5.21927 -1.11482 0
M  V30 11312 O 1076.22 -5.19554 -2.35414 0
M  V30 11313 O 1075.15 -5.99045 -0.585536 0
M  V30 11314 H 1078.98 -2.95099 0.717668 0
M  V30 11315 H 1076.56 -1.43475 0.416556 0
M  V30 11316 H 1078.45 -3.9251 -1.53341 0
M  V30 11317 H 1077.12 -2.74354 -1.7179 0
M  V30 11318 H 1076.03 -3.72134 0.383022 0
M  V30 11319 H 1077.36 -4.89811 0.48435 0
M  V30 11320 N 1079.01 -0.398486 -1.52479 0
M  V30 11321 C 1080.26 0.17345 -2.02659 0
M  V30 11322 C 1080.61 1.43702 -1.27935 0
M  V30 11323 O 1079.91 1.87916 -0.37392 0
M  V30 11324 C 1080.1 0.485909 -3.54081 0
M  V30 11325 C 1079.93 -0.745833 -4.43472 0
M  V30 11326 C 1078.7 -1.26785 -4.89136 0
M  V30 11327 C 1080.9 -1.62085 -4.88091 0
M  V30 11328 N 1078.88 -2.45619 -5.62623 0
M  V30 11329 C 1080.25 -2.65552 -5.60252 0
M  V30 11330 C 1082.31 -1.63986 -4.7012 0
M  V30 11331 C 1081.01 -3.70818 -6.1635 0
M  V30 11332 C 1083.04 -2.68164 -5.27107 0
M  V30 11333 C 1082.4 -3.70353 -5.99181 0
M  V30 11334 H 1078.5 0.0253159 -0.78159 0
M  V30 11335 H 1081.08 -0.550442 -1.86757 0
M  V30 11336 H 1079.25 1.17885 -3.70078 0
M  V30 11337 H 1080.98 1.0458 -3.90954 0
M  V30 11338 H 1077.74 -0.827472 -4.66315 0
M  V30 11339 H 1078.16 -3.05771 -6.04014 0
M  V30 11340 H 1082.8 -0.863253 -4.13893 0
M  V30 11341 H 1080.52 -4.49341 -6.71653 0
M  V30 11342 H 1084.11 -2.7053 -5.15077 0
M  V30 11343 H 1082.99 -4.49642 -6.42489 0
M  V30 11344 N 1080.49 1.57075 -0.12858 0
M  V30 11345 C 1081.91 1.57964 0.227961 0
M  V30 11346 C 1082.11 1.14186 1.66023 0
M  V30 11347 O 1081.16 0.833655 2.38341 0
M  V30 11348 C 1082.48 3.00697 -0.0140648 0
M  V30 11349 C 1084.02 3.12958 0.0510876 0
M  V30 11350 C 1084.5 4.57709 -0.163368 0
M  V30 11351 N 1085.99 4.6307 -0.109663 0
M  V30 11352 C 1086.73 5.72853 -0.250366 0
M  V30 11353 N 1086.22 6.91351 -0.447772 0
M  V30 11354 N 1088.01 5.61781 -0.189265 0
M  V30 11355 H 1080.17 1.83829 -1.06398 0
M  V30 11356 H 1082.43 0.850014 -0.419739 0
M  V30 11357 H 1082.13 3.37047 -1.00461 0
M  V30 11358 H 1082.01 3.70389 0.713571 0
M  V30 11359 H 1084.4 2.7646 1.03216 0
M  V30 11360 H 1084.48 2.4579 -0.708583 0
M  V30 11361 H 1084.12 4.94907 -1.14146 0
M  V30 11362 H 1084.05 5.2298 0.616405 0
M  V30 11363 H 1086.54 3.7788 0.0390086 0
M  V30 11364 H 1086.85 7.70871 -0.54574 0
M  V30 11365 H 1085.2 6.93314 -0.483866 0
M  V30 11366 H 1088.39 4.68086 -0.0359374 0
M  V30 11367 H 1088.56 6.47294 -0.302359 0
M  V30 11368 N 1081.97 -0.145205 1.5693 0
M  V30 11369 C 1083.19 -0.876386 1.87974 0
M  V30 11370 C 1083.62 -1.73866 0.717795 0
M  V30 11371 O 1082.98 -1.78224 -0.332551 0
M  V30 11372 C 1083.03 -1.70746 3.17613 0
M  V30 11373 O 1082.13 -2.81188 3.01674 0
M  V30 11374 H 1081.47 -0.243987 0.617549 0
M  V30 11375 H 1084 -0.135482 2.04151 0
M  V30 11376 H 1084.01 -2.1021 3.49679 0
M  V30 11377 H 1082.69 -1.07429 4.01786 0
M  V30 11378 H 1081.26 -2.45117 2.81019 0
M  V30 11379 N 1083.45 -1.52049 -0.414609 0
M  V30 11380 C 1084.69 -1.66084 -1.16379 0
M  V30 11381 C 1085.03 -0.386932 -1.90306 0
M  V30 11382 O 1084.3 0.614441 -1.8454 0
M  V30 11383 C 1084.58 -2.87927 -2.16264 0
M  V30 11384 C 1084.44 -4.25353 -1.46269 0
M  V30 11385 C 1085.76 -3.05289 -3.16996 0
M  V30 11386 H 1082.88 -0.604414 -0.421726 0
M  V30 11387 H 1085.52 -1.8459 -0.450177 0
M  V30 11388 H 1083.67 -2.7228 -2.77121 0
M  V30 11389 H 1085.34 -4.52717 -0.885743 0
M  V30 11390 H 1083.58 -4.27006 -0.76472 0
M  V30 11391 H 1084.25 -5.06644 -2.19126 0
M  V30 11392 H 1086.73 -3.19798 -2.66212 0
M  V30 11393 H 1085.61 -3.92065 -3.84156 0
M  V30 11394 H 1085.87 -2.1836 -3.84411 0
M  V30 11395 N 1084.93 0.6715 -1.42579 0
M  V30 11396 C 1086.15 1.45972 -1.46628 0
M  V30 11397 C 1086.57 1.88636 -0.0785986 0
M  V30 11398 O 1085.93 1.58345 0.907372 0
M  V30 11399 C 1085.98 2.70668 -2.39627 0
M  V30 11400 O 1085.7 2.29793 -3.72997 0
M  V30 11401 C 1087.2 3.64201 -2.52731 0
M  V30 11402 H 1084.42 0.449044 -0.498598 0
M  V30 11403 H 1086.96 0.824811 -1.87129 0
M  V30 11404 H 1085.12 3.3034 -2.02371 0
M  V30 11405 H 1085.53 3.10341 -4.22834 0
M  V30 11406 H 1087.01 4.48412 -3.21918 0
M  V30 11407 H 1087.48 4.10323 -1.56626 0
M  V30 11408 H 1088.09 3.1042 -2.90722 0
M  V30 11409 N 1086.4 1.28806 0.908124 0
M  V30 11410 C 1087.33 1.15758 2.02787 0
M  V30 11411 C 1088.31 0.053911 1.70015 0
M  V30 11412 O 1089.5 0.231901 1.9281 0
M  V30 11413 C 1086.63 0.824526 3.37371 0
M  V30 11414 C 1085.58 1.88359 3.84324 0
M  V30 11415 C 1084.91 1.40404 5.15937 0
M  V30 11416 C 1086.21 3.29108 4.05568 0
M  V30 11417 H 1087.9 2.09431 2.13961 0
M  V30 11418 H 1085.45 1.00831 1.02806 0
M  V30 11419 H 1087.4 0.71999 4.15204 0
M  V30 11420 H 1086.13 -0.147902 3.26265 0
M  V30 11421 H 1084.79 1.97736 3.087 0
M  V30 11422 H 1084.43 0.420515 5.01239 0
M  V30 11423 H 1084.13 2.11224 5.48323 0
M  V30 11424 H 1085.66 1.31283 5.9632 0
M  V30 11425 H 1087.07 3.2262 4.73909 0
M  V30 11426 H 1085.47 3.97812 4.49294 0
M  V30 11427 H 1086.54 3.72709 3.10187 0
M  V30 11428 N 1087.88 -1.11734 1.11145 0
M  V30 11429 C 1089.29 -1.64928 0.874959 0
M  V30 11430 C 1089.64 -1.87012 -0.593375 0
M  V30 11431 O 1088.77 -1.60206 -1.45475 0
M  V30 11432 C 1089.36 -2.99608 1.58178 0
M  V30 11433 C 1087.92 -3.49723 1.39179 0
M  V30 11434 C 1087.07 -2.24595 1.62642 0
M  V30 11435 H 1090.02 -0.954154 1.26813 0
M  V30 11436 H 1090.04 -3.66434 1.02501 0
M  V30 11437 H 1089.55 -2.83504 2.65042 0
M  V30 11438 H 1087.65 -3.70998 0.345111 0
M  V30 11439 H 1087.77 -4.28711 2.13878 0
M  V30 11440 H 1086.13 -2.32067 1.04961 0
M  V30 11441 H 1086.91 -2.11036 2.70774 0
M  V30 11442 N 1089.36 -0.901303 -1.29284 0
M  V30 11443 C 1090.78 -0.597634 -1.47988 0
M  V30 11444 C 1090.98 0.860434 -1.82205 0
M  V30 11445 O 1090.03 1.64049 -1.91948 0
M  V30 11446 C 1091.34 -1.52484 -2.5917 0
M  V30 11447 C 1092.89 -1.53021 -2.73045 0
M  V30 11448 C 1093.37 -2.44373 -3.87357 0
M  V30 11449 N 1094.86 -2.42429 -3.94693 0
M  V30 11450 C 1095.59 -3.09817 -4.82495 0
M  V30 11451 N 1095.09 -3.86489 -5.74976 0
M  V30 11452 N 1096.88 -2.98966 -4.76 0
M  V30 11453 H 1089.03 -1.84432 -1.0535 0
M  V30 11454 H 1091.3 -0.790367 -0.523473 0
M  V30 11455 H 1091 -2.56378 -2.40756 0
M  V30 11456 H 1090.88 -1.24657 -3.56006 0
M  V30 11457 H 1093.26 -0.498709 -2.90855 0
M  V30 11458 H 1093.34 -1.84886 -1.76779 0
M  V30 11459 H 1092.99 -3.47618 -3.70302 0
M  V30 11460 H 1092.92 -2.09817 -4.82995 0
M  V30 11461 H 1095.41 -1.86724 -3.28546 0
M  V30 11462 H 1095.72 -4.34959 -6.38773 0
M  V30 11463 H 1094.07 -3.90596 -5.74857 0
M  V30 11464 H 1097.26 -2.38581 -4.02737 0
M  V30 11465 H 1097.43 -3.51758 -5.44215 0
M  V30 11466 N 1090.84 1.42931 -0.663954 0
M  V30 11467 C 1092.11 1.95284 -0.111174 0
M  V30 11468 C 1092.49 1.60484 1.37142 0
M  V30 11469 O 1091.84 0.895425 2.10225 0
M  V30 11470 C 1092.05 3.47046 -0.368789 0
M  V30 11471 C 1093.4 4.23679 -0.279473 0
M  V30 11472 O 1094.42 3.54918 -0.301937 0
M  V30 11473 O 1093.28 5.46087 -0.21236 0
M  V30 11474 H 1090.38 0.826993 0.00341718 0
M  V30 11475 H 1092.92 1.52816 -0.737935 0
M  V30 11476 H 1091.7 3.65541 -1.39626 0
M  V30 11477 H 1091.32 3.96537 0.290514 0
M  V30 11478 N 1092.32 0.406567 1.52266 0
M  V30 11479 C 1093.25 -0.411314 2.29849 0
M  V30 11480 C 1094.23 -1.04838 1.33952 0
M  V30 11481 O 1095.41 -1.05788 1.62857 0
M  V30 11482 C 1092.54 -1.52961 3.11802 0
M  V30 11483 C 1091.5 -1.01768 4.15725 0
M  V30 11484 C 1090.82 -2.22938 4.86007 0
M  V30 11485 C 1092.12 -0.073515 5.22248 0
M  V30 11486 H 1093.82 0.236054 2.98468 0
M  V30 11487 H 1091.36 0.114968 1.4354 0
M  V30 11488 H 1093.31 -2.10874 3.64843 0
M  V30 11489 H 1092.04 -2.20482 2.40947 0
M  V30 11490 H 1090.7 -0.46097 3.6369 0
M  V30 11491 H 1090.35 -2.89007 4.11684 0
M  V30 11492 H 1090.05 -1.89338 5.5626 0
M  V30 11493 H 1091.57 -2.81462 5.41859 0
M  V30 11494 H 1092.98 -0.561367 5.70545 0
M  V30 11495 H 1091.38 0.173551 5.99849 0
M  V30 11496 H 1092.45 0.872524 4.76985 0
M  V30 11497 N 1093.79 -1.57004 0.136909 0
M  V30 11498 C 1094.73 -2.13355 -0.837405 0
M  V30 11499 C 1095.74 -1.08053 -1.21772 0
M  V30 11500 O 1096.93 -1.35365 -1.16355 0
M  V30 11501 C 1094.03 -2.63302 -2.13366 0
M  V30 11502 C 1093.2 -3.92896 -1.92228 0
M  V30 11503 C 1092.26 -4.28257 -3.05749 0
M  V30 11504 O 1091.29 -4.96761 -2.7788 0
M  V30 11505 N 1092.49 -3.87021 -4.3266 0
M  V30 11506 H 1095.25 -2.9758 -0.35586 0
M  V30 11507 H 1092.81 -1.61832 -0.0469758 0
M  V30 11508 H 1094.81 -2.83977 -2.88339 0
M  V30 11509 H 1093.38 -1.83858 -2.52814 0
M  V30 11510 H 1092.6 -3.80949 -1.01349 0
M  V30 11511 H 1093.88 -4.776 -1.75431 0
M  V30 11512 H 1093.28 -3.31804 -4.58173 0
M  V30 11513 H 1091.84 -4.12768 -5.04446 0
M  V30 11514 N 1095.27 0.136881 -1.57004 0
M  V30 11515 C 1096.5 0.866405 -1.88436 0
M  V30 11516 C 1096.92 1.73483 -0.727006 0
M  V30 11517 O 1096.28 1.78398 0.323094 0
M  V30 11518 C 1096.33 1.69059 -3.18514 0
M  V30 11519 O 1095.43 2.79584 -3.03161 0
M  V30 11520 H 1094.77 0.240709 -0.618834 0
M  V30 11521 H 1097.3 0.124653 -2.0422 0
M  V30 11522 H 1097.31 2.08353 -3.50789 0
M  V30 11523 H 1095.99 1.05296 -4.0235 0
M  V30 11524 H 1094.57 2.43623 -2.82315 0
M  V30 11525 N 1096.75 1.52266 0.40654 0
M  V30 11526 C 1097.98 1.70304 1.17491 0
M  V30 11527 C 1098.39 0.413656 1.84213 0
M  V30 11528 O 1097.75 -0.610524 1.71985 0
M  V30 11529 C 1097.8 2.84045 2.23609 0
M  V30 11530 O 1097.52 4.0799 1.5961 0
M  V30 11531 C 1099.02 3.13614 3.13306 0
M  V30 11532 H 1096.24 0.570669 0.352955 0
M  V30 11533 H 1098.79 1.98836 0.477967 0
M  V30 11534 H 1096.94 2.58025 2.88967 0
M  V30 11535 H 1097.36 4.7139 2.29983 0
M  V30 11536 H 1098.83 3.96707 3.83833 0
M  V30 11537 H 1099.31 2.27272 3.75824 0
M  V30 11538 H 1099.91 3.41409 2.53614 0
M  V30 11539 N 1098.23 -0.663929 1.42933 0
M  V30 11540 C 1099.48 -1.42111 1.43697 0
M  V30 11541 C 1099.8 -1.94913 0.0583858 0
M  V30 11542 O 1099.07 -1.73757 -0.904719 0
M  V30 11543 H 1097.65 -0.527391 0.529026 0
M  V30 11544 H 1100.31 -0.783766 1.78446 0
M  V30 11545 H 1099.41 -2.26877 2.1432 0
M  V30 11546 N 1099.71 -1.29285 -0.901281 0
M  V30 11547 C 1101.12 -1.07263 -1.18182 0
M  V30 11548 C 1101.32 0.177087 -2.0072 0
M  V30 11549 O 1100.38 0.875292 -2.36844 0
M  V30 11550 C 1101.69 -2.32717 -1.9043 0
M  V30 11551 C 1103.24 -2.3802 -2.03262 0
M  V30 11552 C 1103.71 -3.63273 -2.7892 0
M  V30 11553 N 1105.21 -3.63986 -2.86475 0
M  V30 11554 C 1105.94 -4.57585 -3.45549 0
M  V30 11555 N 1105.44 -5.61513 -4.05801 0
M  V30 11556 N 1107.23 -4.45157 -3.43208 0
M  V30 11557 H 1099.38 -2.09487 -0.350536 0
M  V30 11558 H 1101.64 -0.922647 -0.217778 0
M  V30 11559 H 1101.35 -3.23828 -1.37216 0
M  V30 11560 H 1101.22 -2.40102 -2.90913 0
M  V30 11561 H 1103.61 -1.47398 -2.55652 0
M  V30 11562 H 1103.69 -2.3462 -1.01916 0
M  V30 11563 H 1103.34 -4.54246 -2.27206 0
M  V30 11564 H 1103.27 -3.6393 -3.80608 0
M  V30 11565 H 1105.76 -2.8884 -2.43679 0
M  V30 11566 H 1106.07 -6.29058 -4.48894 0
M  V30 11567 H 1104.41 -5.65325 -4.04268 0
M  V30 11568 H 1107.61 -3.63158 -2.95354 0
M  V30 11569 H 1107.78 -5.18286 -3.88952 0
M  V30 11570 N 1101.18 1.11143 -1.11736 0
M  V30 11571 C 1102.12 2.1705 -0.736325 0
M  V30 11572 C 1103.13 1.61116 0.233528 0
M  V30 11573 O 1104.32 1.78493 0.0159602 0
M  V30 11574 C 1101.42 3.38832 -0.067974 0
M  V30 11575 C 1100.59 4.24226 -1.06543 0
M  V30 11576 C 1099.65 5.24472 -0.426063 0
M  V30 11577 O 1098.68 5.58843 -1.0809 0
M  V30 11578 N 1099.88 5.74825 0.809711 0
M  V30 11579 H 1102.64 2.50349 -1.64758 0
M  V30 11580 H 1100.2 1.26693 -1.00799 0
M  V30 11581 H 1102.2 4.02991 0.371563 0
M  V30 11582 H 1100.77 3.0357 0.745917 0
M  V30 11583 H 1099.99 3.56475 -1.68283 0
M  V30 11584 H 1101.27 4.78117 -1.74016 0
M  V30 11585 H 1100.67 5.49088 1.36084 0
M  V30 11586 H 1099.23 6.40804 1.19218 0
M  V30 11587 N 1102.66 0.908147 1.28804 0
M  V30 11588 C 1103.91 0.538404 1.95211 0
M  V30 11589 C 1104.24 -0.916886 1.71533 0
M  V30 11590 O 1103.49 -1.66643 1.02609 0
M  V30 11591 C 1103.79 0.787327 3.4862 0
M  V30 11592 C 1103.46 2.22129 3.92389 0
M  V30 11593 C 1102.12 2.61336 4.04051 0
M  V30 11594 C 1104.47 3.15471 4.14883 0
M  V30 11595 C 1101.8 3.93048 4.3558 0
M  V30 11596 C 1104.15 4.46741 4.47889 0
M  V30 11597 C 1102.82 4.85809 4.57761 0
M  V30 11598 H 1102.09 0.197016 0.714329 0
M  V30 11599 H 1104.73 1.14841 1.53244 0
M  V30 11600 H 1103.04 0.0944731 3.91686 0
M  V30 11601 H 1104.73 0.480503 3.98111 0
M  V30 11602 H 1101.32 1.90704 3.83836 0
M  V30 11603 H 1105.51 2.86391 4.05332 0
M  V30 11604 H 1100.76 4.23027 4.41428 0
M  V30 11605 H 1104.94 5.19087 4.64243 0
M  V30 11606 H 1102.57 5.87904 4.81947 0
M  V30 11607 N 1104.14 -1.42577 0.671525 0
M  V30 11608 C 1105.42 -1.95222 0.121529 0
M  V30 11609 C 1105.8 -1.61209 -1.36289 0
M  V30 11610 O 1105.15 -0.906561 -2.09747 0
M  V30 11611 C 1105.36 -3.46846 0.387189 0
M  V30 11612 C 1106.7 -4.23525 0.301938 0
M  V30 11613 O 1107.73 -3.54753 0.320755 0
M  V30 11614 O 1106.59 -5.45967 0.241317 0
M  V30 11615 H 1103.68 -0.826999 0.000968615 0
M  V30 11616 H 1106.23 -1.52422 0.746029 0
M  V30 11617 H 1105 -3.64795 1.41563 0
M  V30 11618 H 1104.62 -3.96686 -0.26948 0
M  V30 11619 N 1105.62 -0.414636 -1.52048 0
M  V30 11620 C 1106.84 0.161137 -2.06773 0
M  V30 11621 C 1107.27 1.37628 -1.2822 0
M  V30 11622 O 1106.63 1.78562 -0.313915 0
M  V30 11623 C 1106.67 0.48452 -3.5733 0
M  V30 11624 O 1105.78 1.57466 -3.81154 0
M  V30 11625 H 1105.12 0.0118003 -0.663895 0
M  V30 11626 H 1107.65 -0.589424 -1.95926 0
M  V30 11627 H 1107.66 0.741567 -4.01204 0
M  V30 11628 H 1106.33 -0.403733 -4.13936 0
M  V30 11629 H 1104.91 1.30935 -3.49157 0
M  V30 11630 N 1107.1 1.56929 -0.145233 0
M  V30 11631 C 1108.32 2.00864 0.516564 0
M  V30 11632 C 1108.75 1.02466 1.57741 0
M  V30 11633 O 1108.1 0.000145439 1.813 0
M  V30 11634 C 1108.15 3.43552 1.09563 0
M  V30 11635 O 1107.26 3.4815 2.21055 0
M  V30 11636 H 1106.6 0.651835 0.126521 0
M  V30 11637 H 1109.13 2.0317 -0.241445 0
M  V30 11638 H 1109.14 3.82316 1.42473 0
M  V30 11639 H 1107.81 4.14677 0.318749 0
M  V30 11640 H 1106.39 3.21228 1.89387 0
M  V30 11641 N 1108.58 -0.128553 1.57075 0
M  V30 11642 C 1109.8 -0.85245 1.88523 0
M  V30 11643 C 1110.22 -1.73886 0.735459 0
M  V30 11644 O 1109.58 -1.80114 -0.294113 0
M  V30 11645 C 1109.63 -1.69384 3.19361 0
M  V30 11646 O 1109.35 -0.84313 4.2991 0
M  V30 11647 C 1110.85 -2.52373 3.64449 0
M  V30 11648 H 1108.07 -0.245556 0.624454 0
M  V30 11649 H 1110.61 -0.115807 2.04172 0
M  V30 11650 H 1108.77 -2.38335 3.0541 0
M  V30 11651 H 1109.18 -1.42255 5.0484 0
M  V30 11652 H 1110.66 -3.06955 4.58784 0
M  V30 11653 H 1111.13 -3.29283 2.90636 0
M  V30 11654 H 1111.74 -1.88681 3.81155 0
M  V30 11655 N 1110.05 -1.5248 -0.398459 0
M  V30 11656 C 1111.3 -1.67061 -1.14441 0
M  V30 11657 C 1111.63 -0.405821 -1.90219 0
M  V30 11658 O 1110.88 0.611532 -1.859 0
M  V30 11659 C 1111.18 -2.85038 -2.15611 0
M  V30 11660 C 1110.85 -4.22847 -1.56561 0
M  V30 11661 C 1109.51 -4.60329 -1.40182 0
M  V30 11662 C 1111.86 -5.08683 -1.1354 0
M  V30 11663 C 1109.19 -5.81314 -0.793149 0
M  V30 11664 C 1111.54 -6.30284 -0.540866 0
M  V30 11665 C 1110.21 -6.66505 -0.364297 0
M  V30 11666 H 1109.48 -0.611321 -0.418769 0
M  V30 11667 H 1112.12 -1.86604 -0.430241 0
M  V30 11668 H 1110.43 -2.59873 -2.93212 0
M  V30 11669 H 1112.13 -2.93516 -2.73221 0
M  V30 11670 H 1108.72 -3.93316 -1.70295 0
M  V30 11671 H 1112.9 -4.80301 -1.24999 0
M  V30 11672 H 1108.16 -6.07994 -0.64446 0
M  V30 11673 H 1112.33 -6.96115 -0.199167 0
M  V30 11674 H 1109.96 -7.60121 0.109439 0
M  V30 11675 N 1111.53 0.65634 -1.43283 0
M  V30 11676 C 1112.78 1.41347 -1.44449 0
M  V30 11677 C 1113.1 1.94879 -0.0687217 0
M  V30 11678 O 1112.37 1.74235 0.895492 0
M  V30 11679 H 1110.95 0.524578 -0.531815 0
M  V30 11680 H 1113.61 0.774292 -1.7886 0
M  V30 11681 H 1112.71 2.25737 -2.15521 0
M  V30 11682 N 1113.01 1.29761 0.894412 0
M  V30 11683 C 1114.26 1.17806 1.64214 0
M  V30 11684 C 1114.58 -0.269588 1.93127 0
M  V30 11685 O 1113.85 -1.18352 1.56107 0
M  V30 11686 H 1112.43 0.433002 0.608702 0
M  V30 11687 H 1115.09 1.6276 1.07216 0
M  V30 11688 H 1114.19 1.73201 2.5963 0
M  V30 11689 N 1114.49 -1.10549 1.12324 0
M  V30 11690 C 1115.44 -2.14997 0.758979 0
M  V30 11691 C 1116.42 -1.59078 -0.241461 0
M  V30 11692 O 1117.61 -1.76937 -0.0471439 0
M  V30 11693 C 1114.74 -3.42633 0.21395 0
M  V30 11694 C 1113.83 -4.05487 1.24261 0
M  V30 11695 N 1114.22 -4.43064 2.43984 0
M  V30 11696 C 1112.52 -4.32534 1.08769 0
M  V30 11697 C 1113.22 -4.92427 3.09662 0
M  V30 11698 N 1112.19 -4.89161 2.37114 0
M  V30 11699 H 1116 -2.4184 1.67005 0
M  V30 11700 H 1113.51 -1.27659 1.00384 0
M  V30 11701 H 1115.51 -4.16849 -0.0651928 0
M  V30 11702 H 1114.17 -3.17249 -0.691591 0
M  V30 11703 H 1115.18 -4.34797 2.81375 0
M  V30 11704 H 1111.86 -4.16813 0.239354 0
M  V30 11705 H 1113.25 -5.31059 4.11614 0
M  V30 11706 N 1115.97 -0.914965 -1.28321 0
M  V30 11707 C 1116.91 -0.402792 -2.27258 0
M  V30 11708 C 1117.88 0.523412 -1.57638 0
M  V30 11709 O 1119.07 0.445344 -1.8553 0
M  V30 11710 C 1116.21 0.349956 -3.43321 0
M  V30 11711 C 1115.32 -0.608892 -4.27687 0
M  V30 11712 C 1114.46 0.162425 -5.30952 0
M  V30 11713 C 1113.49 -0.789959 -6.06981 0
M  V30 11714 N 1112.63 -0.0520826 -7.02081 0
M  V30 11715 H 1117.47 -1.25153 -2.70446 0
M  V30 11716 H 1115.01 -0.628444 -1.33 0
M  V30 11717 H 1116.97 0.802589 -4.09407 0
M  V30 11718 H 1115.6 1.16303 -3.01121 0
M  V30 11719 H 1114.65 -1.18005 -3.61634 0
M  V30 11720 H 1115.96 -1.33727 -4.8054 0
M  V30 11721 H 1115.11 0.675563 -6.02927 0
M  V30 11722 H 1113.85 0.923851 -4.7887 0
M  V30 11723 H 1112.86 -1.31446 -5.33856 0
M  V30 11724 H 1114.08 -1.55096 -6.61152 0
M  V30 11725 H 1112.03 0.691331 -6.52347 0
M  V30 11726 H 1111.95 -0.720267 -7.52561 0
M  V30 11727 H 1113.21 0.44082 -7.78253 0
M  V30 11728 N 1117.44 1.42219 -0.679077 0
M  V30 11729 C 1118.67 2.06333 -0.210097 0
M  V30 11730 C 1119.09 1.50703 1.12562 0
M  V30 11731 O 1118.45 0.627241 1.70104 0
M  V30 11732 C 1118.5 3.60243 -0.160322 0
M  V30 11733 O 1117.6 4.03122 0.869872 0
M  V30 11734 H 1116.94 0.655362 -0.106754 0
M  V30 11735 H 1119.47 1.82278 -0.929294 0
M  V30 11736 H 1119.48 4.07997 0.014384 0
M  V30 11737 H 1118.16 4.00106 -1.13526 0
M  V30 11738 H 1116.74 3.66907 0.66586 0
M  V30 11739 N 1118.92 0.422693 1.51826 0
M  V30 11740 C 1119.83 -0.40261 2.31119 0
M  V30 11741 C 1120.85 -1.04117 1.39412 0
M  V30 11742 O 1122.02 -1.03973 1.72486 0
M  V30 11743 C 1119.09 -1.49699 3.12716 0
M  V30 11744 C 1118.15 -0.880088 4.20182 0
M  V30 11745 C 1117.38 -1.92232 4.97878 0
M  V30 11746 O 1117.61 -3.14246 4.76031 0
M  V30 11747 O 1116.54 -1.521 5.82365 0
M  V30 11748 H 1120.37 0.244308 3.02716 0
M  V30 11749 H 1117.95 0.185569 1.48243 0
M  V30 11750 H 1119.83 -2.13202 3.63487 0
M  V30 11751 H 1118.51 -2.12826 2.43899 0
M  V30 11752 H 1117.41 -0.207404 3.73525 0
M  V30 11753 H 1118.75 -0.292535 4.9133 0
M  V30 11754 N 1120.4 -1.5685 0.153553 0
M  V30 11755 C 1121.35 -2.1709 -0.783626 0
M  V30 11756 C 1122.32 -1.10567 -1.23952 0
M  V30 11757 O 1123.5 -1.38638 -1.31088 0
M  V30 11758 C 1120.64 -2.80183 -2.01473 0
M  V30 11759 C 1119.75 -4.01117 -1.60403 0
M  V30 11760 C 1118.89 -4.5219 -2.78743 0
M  V30 11761 C 1117.93 -5.65574 -2.34079 0
M  V30 11762 N 1117.07 -6.11235 -3.4545 0
M  V30 11763 H 1121.91 -2.96836 -0.263127 0
M  V30 11764 H 1119.44 -1.46625 -0.11816 0
M  V30 11765 H 1121.4 -3.14912 -2.73654 0
M  V30 11766 H 1120.03 -2.03071 -2.50923 0
M  V30 11767 H 1119.08 -3.72325 -0.779631 0
M  V30 11768 H 1120.39 -4.83243 -1.23605 0
M  V30 11769 H 1119.55 -4.89008 -3.59105 0
M  V30 11770 H 1118.29 -3.69085 -3.18791 0
M  V30 11771 H 1117.29 -5.28326 -1.52158 0
M  V30 11772 H 1118.52 -6.50468 -1.95109 0
M  V30 11773 H 1116.46 -5.31064 -3.85106 0
M  V30 11774 H 1116.38 -6.88304 -3.12687 0
M  V30 11775 H 1117.65 -6.527 -4.26149 0
M  V30 11776 N 1121.88 0.120221 -1.57141 0
M  V30 11777 C 1123.29 0.677497 -1.73974 0
M  V30 11778 C 1123.64 1.80371 -0.772055 0
M  V30 11779 O 1122.76 2.16329 0.0553062 0
M  V30 11780 C 1123.36 1.23575 -3.1546 0
M  V30 11781 C 1121.92 1.73933 -3.33803 0
M  V30 11782 C 1121.07 0.638542 -2.69848 0
M  V30 11783 H 1124.02 -0.105685 -1.58348 0
M  V30 11784 H 1124.04 2.10542 -3.16942 0
M  V30 11785 H 1123.55 0.415851 -3.85866 0
M  V30 11786 H 1121.65 2.58404 -2.68437 0
M  V30 11787 H 1121.76 1.84961 -4.41957 0
M  V30 11788 H 1120.13 1.07185 -2.31049 0
M  V30 11789 H 1120.91 -0.170356 -3.42877 0
M  V30 11790 N 1123.36 1.52689 0.390367 0
M  V30 11791 C 1124.32 1.76726 1.45947 0
M  V30 11792 C 1125.32 0.637269 1.47633 0
M  V30 11793 O 1126.51 0.905312 1.48828 0
M  V30 11794 C 1123.64 1.86678 2.85244 0
M  V30 11795 H 1124.83 2.72185 1.25918 0
M  V30 11796 H 1122.39 1.4339 0.622023 0
M  V30 11797 H 1123.12 0.931991 3.10619 0
M  V30 11798 H 1122.91 2.68843 2.85422 0
M  V30 11799 H 1124.4 2.06952 3.62713 0
M  V30 11800 N 1124.83 -0.648732 1.43629 0
M  V30 11801 C 1125.76 -1.77298 1.51947 0
M  V30 11802 C 1126.75 -1.65942 0.373785 0
M  V30 11803 O 1127.93 -1.8497 0.591596 0
M  V30 11804 C 1125.06 -3.15749 1.44638 0
M  V30 11805 C 1124.01 -3.41872 2.57502 0
M  V30 11806 C 1123.34 -4.8017 2.35246 0
M  V30 11807 C 1124.64 -3.36173 3.99731 0
M  V30 11808 H 1126.33 -1.70594 2.46045 0
M  V30 11809 H 1123.88 -0.819306 1.1842 0
M  V30 11810 H 1125.83 -3.94156 1.4906 0
M  V30 11811 H 1124.56 -3.23194 0.470466 0
M  V30 11812 H 1123.22 -2.65838 2.5244 0
M  V30 11813 H 1122.86 -4.84297 1.35887 0
M  V30 11814 H 1122.56 -4.9861 3.10906 0
M  V30 11815 H 1124.09 -5.6083 2.41459 0
M  V30 11816 H 1125.5 -4.0451 4.06257 0
M  V30 11817 H 1123.9 -3.66148 4.75453 0
M  V30 11818 H 1124.97 -2.34277 4.24549 0
M  V30 11819 N 1126.31 -1.30234 -0.887518 0
M  V30 11820 C 1127.72 -1.17048 -1.45453 0
M  V30 11821 C 1128.07 0.229793 -1.9485 0
M  V30 11822 O 1127.2 1.12628 -1.84781 0
M  V30 11823 C 1127.79 -2.11876 -2.64375 0
M  V30 11824 C 1126.35 -2.02676 -3.17174 0
M  V30 11825 C 1125.5 -2.02104 -1.89866 0
M  V30 11826 H 1128.45 -1.42541 -0.697694 0
M  V30 11827 H 1128.47 -1.69811 -3.40506 0
M  V30 11828 H 1127.98 -3.13781 -2.28392 0
M  V30 11829 H 1126.09 -1.03904 -3.57819 0
M  V30 11830 H 1126.2 -2.90939 -3.80646 0
M  V30 11831 H 1124.56 -1.4687 -2.0809 0
M  V30 11832 H 1125.35 -3.05735 -1.56145 0
M  V30 11833 N 1127.79 1.09952 -1.12909 0
M  V30 11834 C 1129.21 1.34051 -0.866172 0
M  V30 11835 C 1129.41 1.95169 0.501125 0
M  V30 11836 O 1128.46 2.19458 1.24878 0
M  V30 11837 C 1129.78 2.25738 -1.98653 0
M  V30 11838 C 1131.32 2.39261 -2.01799 0
M  V30 11839 C 1131.8 3.3428 -3.13083 0
M  V30 11840 N 1133.29 3.41851 -3.12558 0
M  V30 11841 C 1134.02 4.15358 -3.95304 0
M  V30 11842 N 1133.52 4.91709 -4.88051 0
M  V30 11843 N 1135.31 4.11027 -3.83423 0
M  V30 11844 H 1127.46 0.686521 -2.00999 0
M  V30 11845 H 1129.73 0.364913 -0.874953 0
M  V30 11846 H 1129.43 1.88048 -2.97205 0
M  V30 11847 H 1129.31 3.26085 -1.89601 0
M  V30 11848 H 1131.69 2.76218 -1.03864 0
M  V30 11849 H 1131.78 1.38712 -2.14925 0
M  V30 11850 H 1131.42 2.98048 -4.11254 0
M  V30 11851 H 1131.35 4.34721 -2.97195 0
M  V30 11852 H 1133.84 2.87405 -2.45371 0
M  V30 11853 H 1134.15 5.45212 -5.47689 0
M  V30 11854 H 1132.5 4.90816 -4.92061 0
M  V30 11855 H 1135.69 3.50477 -3.10296 0
M  V30 11856 H 1135.86 4.68054 -4.4814 0
M  V30 11857 N 1129.27 0.921757 1.27833 0
M  V30 11858 C 1130.22 0.414838 2.27041 0
M  V30 11859 C 1131.19 -0.515045 1.57913 0
M  V30 11860 O 1132.37 -0.435499 1.85763 0
M  V30 11861 C 1129.51 -0.331744 3.43502 0
M  V30 11862 C 1128.62 0.631565 4.27358 0
M  V30 11863 C 1127.76 -0.134265 5.3103 0
M  V30 11864 C 1126.8 0.822138 6.06554 0
M  V30 11865 N 1125.93 0.0893149 7.02043 0
M  V30 11866 H 1130.77 1.26585 2.69778 0
M  V30 11867 H 1128.31 0.635488 1.32665 0
M  V30 11868 H 1130.27 -0.780866 4.09827 0
M  V30 11869 H 1128.9 -1.14704 3.01733 0
M  V30 11870 H 1127.95 1.19922 3.61003 0
M  V30 11871 H 1129.26 1.36274 4.79824 0
M  V30 11872 H 1128.42 -0.643579 6.03277 0
M  V30 11873 H 1127.16 -0.898443 4.79353 0
M  V30 11874 H 1126.16 1.34275 5.33151 0
M  V30 11875 H 1127.39 1.586 6.6032 0
M  V30 11876 H 1125.33 -0.656725 6.52704 0
M  V30 11877 H 1125.25 0.760167 7.52169 0
M  V30 11878 H 1126.52 -0.399541 7.78475 0
M  V30 11879 N 1130.75 -1.41857 0.686609 0
M  V30 11880 C 1132.16 -1.55549 0.357288 0
M  V30 11881 C 1132.36 -1.66394 -1.13646 0
M  V30 11882 O 1131.42 -1.63739 -1.92213 0
M  V30 11883 C 1132.73 -2.79938 1.09796 0
M  V30 11884 C 1134.28 -2.93724 1.08143 0
M  V30 11885 C 1134.75 -4.20989 1.80367 0
M  V30 11886 N 1136.25 -4.27927 1.77293 0
M  V30 11887 C 1136.98 -5.2524 2.30022 0
M  V30 11888 N 1136.48 -6.28636 2.91185 0
M  V30 11889 N 1138.27 -5.17118 2.20329 0
M  V30 11890 H 1130.42 -1.33063 1.65554 0
M  V30 11891 H 1132.68 -0.641335 0.698135 0
M  V30 11892 H 1132.39 -2.78104 2.15293 0
M  V30 11893 H 1132.26 -3.71188 0.670763 0
M  V30 11894 H 1134.65 -2.9508 0.0347554 0
M  V30 11895 H 1134.73 -2.03673 1.54761 0
M  V30 11896 H 1134.38 -4.20395 2.85009 0
M  V30 11897 H 1134.31 -5.09997 1.3119 0
M  V30 11898 H 1136.8 -3.53838 1.32692 0
M  V30 11899 H 1137.11 -6.99265 3.29011 0
M  V30 11900 H 1135.45 -6.29164 2.95259 0
M  V30 11901 H 1138.65 -4.35265 1.72226 0
M  V30 11902 H 1138.82 -5.92792 2.61728 0
M  V30 11903 N 1132.22 -0.430739 -1.51599 0
M  V30 11904 C 1133.19 0.372319 -2.26156 0
M  V30 11905 C 1134.19 0.955338 -1.29344 0
M  V30 11906 O 1135.38 0.830823 -1.53111 0
M  V30 11907 C 1132.51 1.52613 -3.04831 0
M  V30 11908 H 1133.7 -0.280996 -2.98581 0
M  V30 11909 H 1131.26 -0.183749 -1.55216 0
M  V30 11910 H 1131.99 2.21569 -2.36807 0
M  V30 11911 H 1131.78 1.11433 -3.75932 0
M  V30 11912 H 1133.27 2.09366 -3.61325 0
M  V30 11913 N 1133.7 1.56767 -0.161869 0
M  V30 11914 C 1134.95 1.96206 0.484537 0
M  V30 11915 C 1135.27 1.04848 1.64414 0
M  V30 11916 O 1134.54 0.112946 1.95574 0
M  V30 11917 H 1133.12 0.724491 0.181994 0
M  V30 11918 H 1135.78 1.93406 -0.240845 0
M  V30 11919 H 1134.88 3.00279 0.85083 0
M  V30 11920 N 1135.18 -0.111886 1.57202 0
M  V30 11921 C 1136.09 -1.1556 2.04165 0
M  V30 11922 C 1137.11 -1.44898 0.963354 0
M  V30 11923 O 1138.28 -1.55873 1.27536 0
M  V30 11924 C 1135.35 -2.46048 2.44256 0
M  V30 11925 C 1134.41 -2.24043 3.66201 0
M  V30 11926 C 1133.64 -3.4831 4.04371 0
M  V30 11927 O 1133.86 -4.55895 3.42806 0
M  V30 11928 O 1132.8 -3.38891 4.9743 0
M  V30 11929 H 1136.62 -0.786778 2.93332 0
M  V30 11930 H 1134.21 -0.323196 1.45862 0
M  V30 11931 H 1136.09 -3.22916 2.70745 0
M  V30 11932 H 1134.77 -2.8239 1.58233 0
M  V30 11933 H 1133.67 -1.4501 3.44852 0
M  V30 11934 H 1135.01 -1.92602 4.52952 0
M  V30 11935 N 1136.66 -1.52894 -0.382264 0
M  V30 11936 C 1137.61 -1.78799 -1.48774 0
M  V30 11937 C 1138.6 -0.65624 -1.56173 0
M  V30 11938 O 1139.81 -0.838856 -1.59258 0
M  V30 11939 H 1136.18 -0.565855 -0.49529 0
M  V30 11940 H 1138.15 -2.7136 -1.24122 0
M  V30 11941 C 1136.9 -1.97987 -2.85826 0
M  V30 11942 H 1136.22 -2.84505 -2.80886 0
M  V30 11943 H 1137.66 -2.20099 -3.62398 0
M  V30 11944 C 1136.12 -0.75427 -3.28348 0
M  V30 11945 O 1136.65 0.0650749 -4.01647 0
M  V30 11946 N 1134.86 -0.582457 -2.84703 0
M  V30 11947 H 1134.41 -1.25034 -2.2522 0
M  V30 11948 H 1134.36 0.236208 -3.13511 0
M  V30 11949 N 1138.14 0.641106 -1.43971 0
M  V30 11950 C 1139.55 0.958161 -1.27638 0
M  V30 11951 C 1139.75 2.00456 -0.204885 0
M  V30 11952 O 1138.81 2.49106 0.412606 0
M  V30 11953 C 1140.12 1.43091 -2.64472 0
M  V30 11954 C 1141.67 1.54692 -2.72102 0
M  V30 11955 C 1142.15 2.05353 -4.09382 0
M  V30 11956 N 1143.64 2.12638 -4.11509 0
M  V30 11957 C 1144.37 2.52987 -5.14573 0
M  V30 11958 N 1143.87 2.92544 -6.28005 0
M  V30 11959 N 1145.66 2.53033 -5.01927 0
M  V30 11960 H 1137.81 -0.0510973 -2.12339 0
M  V30 11961 H 1140.07 0.039748 -0.947166 0
M  V30 11962 H 1139.78 0.736389 -3.43904 0
M  V30 11963 H 1139.65 2.40375 -2.90688 0
M  V30 11964 H 1142.04 2.23242 -1.92994 0
M  V30 11965 H 1142.12 0.558083 -2.49638 0
M  V30 11966 H 1141.77 1.37401 -4.88962 0
M  V30 11967 H 1141.7 3.0509 -4.29218 0
M  V30 11968 H 1144.19 1.84792 -3.29636 0
M  V30 11969 H 1144.5 3.22116 -7.02468 0
M  V30 11970 H 1142.85 2.90319 -6.31458 0
M  V30 11971 H 1146.04 2.21514 -4.1237 0
M  V30 11972 H 1146.21 2.84155 -5.82375 0
M  V30 11973 N 1139.62 1.30703 0.880598 0
M  V30 11974 C 1140.84 1.22843 1.67106 0
M  V30 11975 C 1141.27 -0.204788 1.86982 0
M  V30 11976 O 1140.62 -1.14716 1.40392 0
M  V30 11977 C 1140.67 1.96685 3.02237 0
M  V30 11978 O 1139.78 1.29693 3.91476 0
M  V30 11979 H 1139.12 0.424661 0.51045 0
M  V30 11980 H 1141.65 1.72596 1.09871 0
M  V30 11981 H 1141.66 2.05874 3.52249 0
M  V30 11982 H 1140.33 3.00919 2.8709 0
M  V30 11983 H 1138.91 1.28886 3.49918 0
M  V30 11984 N 1141.09 -1.09351 1.1349 0
M  V30 11985 C 1142.37 -1.78121 0.808225 0
M  V30 11986 C 1142.75 -1.99154 -0.700072 0
M  V30 11987 O 1142.1 -1.59356 -1.63762 0
M  V30 11988 C 1142.31 -3.10368 1.59601 0
M  V30 11989 C 1143.66 -3.85063 1.78919 0
M  V30 11990 O 1144.68 -3.20122 1.56206 0
M  V30 11991 O 1143.54 -5.01648 2.16821 0
M  V30 11992 H 1140.63 -0.77253 0.295173 0
M  V30 11993 H 1143.18 -1.15901 1.23956 0
M  V30 11994 H 1141.95 -2.90549 2.62101 0
M  V30 11995 H 1141.57 -3.80312 1.15967 0
M  V30 11996 N 1142.57 -0.928524 -1.27343 0
M  V30 11997 C 1143.5 -0.385563 -2.25934 0
M  V30 11998 C 1144.52 0.484178 -1.55433 0
M  V30 11999 O 1145.71 0.296668 -1.76017 0
M  V30 12000 C 1142.81 0.466116 -3.35679 0
M  V30 12001 C 1141.98 -0.384523 -4.35707 0
M  V30 12002 C 1141.04 0.404644 -5.24642 0
M  V30 12003 O 1140.06 -0.187943 -5.6889 0
M  V30 12004 N 1141.27 1.70426 -5.54919 0
M  V30 12005 H 1144.03 -1.23306 -2.73159 0
M  V30 12006 H 1141.59 -0.796039 -1.40978 0
M  V30 12007 H 1143.58 1.00115 -3.92121 0
M  V30 12008 H 1142.15 1.21437 -2.88048 0
M  V30 12009 H 1141.37 -1.10085 -3.78517 0
M  V30 12010 H 1142.66 -0.966033 -4.99545 0
M  V30 12011 H 1142.06 2.20802 -5.20829 0
M  V30 12012 H 1140.62 2.1858 -6.14057 0
M  V30 12013 N 1144.05 1.41491 -0.694123 0
M  V30 12014 C 1145.3 2.0155 -0.224809 0
M  V30 12015 C 1145.63 1.54844 1.17205 0
M  V30 12016 O 1144.9 0.75899 1.7908 0
M  V30 12017 C 1145.19 3.59003 -0.280884 0
M  V30 12018 C 1145.04 4.15839 -1.71458 0
M  V30 12019 C 1146.36 4.38624 0.360122 0
M  V30 12020 H 1143.48 0.732293 -0.0831632 0
M  V30 12021 H 1146.12 1.68258 -0.882569 0
M  V30 12022 H 1144.27 3.87496 0.279164 0
M  V30 12023 H 1145.94 3.98227 -2.32837 0
M  V30 12024 H 1144.18 3.70936 -2.2492 0
M  V30 12025 H 1144.86 5.24997 -1.70536 0
M  V30 12026 H 1147.33 4.15936 -0.11683 0
M  V30 12027 H 1146.21 5.48132 0.290337 0
M  V30 12028 H 1146.47 4.1797 1.44062 0
M  V30 12029 N 1145.53 0.438773 1.51369 0
M  V30 12030 C 1146.76 -0.125847 2.06517 0
M  V30 12031 C 1147.17 -1.36336 1.30606 0
M  V30 12032 O 1146.53 -1.78792 0.36603 0
M  V30 12033 C 1146.58 -0.446619 3.5873 0
M  V30 12034 O 1146.3 0.741781 4.31775 0
M  V30 12035 C 1147.8 -1.06175 4.30397 0
M  V30 12036 H 1145.02 -0.00728868 0.67096 0
M  V30 12037 H 1147.56 0.618267 1.9493 0
M  V30 12038 H 1145.72 -1.14064 3.70227 0
M  V30 12039 H 1146.13 0.466907 5.22418 0
M  V30 12040 H 1147.61 -1.23619 5.3798 0
M  V30 12041 H 1148.08 -2.04317 3.88782 0
M  V30 12042 H 1148.69 -0.40708 4.23347 0
M  V30 12043 N 1147.01 -1.56678 0.170181 0
M  V30 12044 C 1148.42 -1.58512 -0.185999 0
M  V30 12045 C 1148.62 -1.18548 -1.62937 0
M  V30 12046 O 1147.68 -0.896554 -2.36047 0
M  V30 12047 C 1148.99 -3.00554 0.0937842 0
M  V30 12048 C 1150.54 -3.12984 0.0319057 0
M  V30 12049 C 1151.01 -4.57115 0.284664 0
M  V30 12050 N 1152.5 -4.62617 0.2324 0
M  V30 12051 C 1153.24 -5.71988 0.40216 0
M  V30 12052 N 1152.74 -6.89921 0.630915 0
M  V30 12053 N 1154.53 -5.61082 0.338144 0
M  V30 12054 H 1146.68 -1.80944 1.11235 0
M  V30 12055 H 1148.94 -0.838586 0.442128 0
M  V30 12056 H 1148.65 -3.34265 1.09362 0
M  V30 12057 H 1148.52 -3.72151 -0.615118 0
M  V30 12058 H 1150.91 -2.791 -0.958502 0
M  V30 12059 H 1150.99 -2.43825 0.773501 0
M  V30 12060 H 1150.63 -4.91707 1.27227 0
M  V30 12061 H 1150.56 -5.2443 -0.477529 0
M  V30 12062 H 1153.06 -3.7785 0.0611933 0
M  V30 12063 H 1153.37 -7.69153 0.749931 0
M  V30 12064 H 1151.71 -6.91787 0.667516 0
M  V30 12065 H 1154.9 -4.67826 0.16003 0
M  V30 12066 H 1155.08 -6.46265 0.473872 0
M  V30 12067 N 1148.48 0.103547 -1.57259 0
M  V30 12068 C 1149.73 0.806979 -1.8529 0
M  V30 12069 C 1150.05 1.79679 -0.757653 0
M  V30 12070 O 1149.32 1.94695 0.216913 0
M  V30 12071 H 1147.9 0.301012 -0.683667 0
M  V30 12072 H 1150.56 0.0871886 -1.94705 0
M  V30 12073 H 1149.66 1.34275 -2.81738 0
M  V30 12074 N 1149.96 1.53094 0.37415 0
M  V30 12075 C 1151.19 1.72758 1.13852 0
M  V30 12076 C 1151.6 0.452638 1.83294 0
M  V30 12077 O 1150.96 -0.573906 1.73241 0
M  V30 12078 C 1151.01 2.88724 2.17534 0
M  V30 12079 O 1150.73 4.11284 1.5092 0
M  V30 12080 C 1152.23 3.2019 3.06584 0
M  V30 12081 H 1149.45 0.578028 0.340771 0
M  V30 12082 H 1152 1.99805 0.435683 0
M  V30 12083 H 1150.15 2.64096 2.83429 0
M  V30 12084 H 1150.57 4.76162 2.19932 0
M  V30 12085 H 1152.04 4.04759 3.75332 0
M  V30 12086 H 1152.52 2.35193 3.70919 0
M  V30 12087 H 1153.12 3.46712 2.46315 0
M  V30 12088 N 1151.44 -0.633461 1.44309 0
M  V30 12089 C 1152.69 -1.39513 1.47187 0
M  V30 12090 C 1153.02 -1.93926 0.103186 0
M  V30 12091 O 1152.29 -1.73512 -0.878853 0
M  V30 12092 C 1152.58 -2.56213 2.53036 0
M  V30 12093 C 1152.43 -2.07164 3.99253 0
M  V30 12094 C 1153.75 -3.58403 2.55412 0
M  V30 12095 H 1150.87 -0.505936 0.535908 0
M  V30 12096 H 1153.51 -0.716445 1.75975 0
M  V30 12097 H 1151.66 -3.14111 2.28619 0
M  V30 12098 H 1153.33 -1.54115 4.34795 0
M  V30 12099 H 1151.57 -1.38367 4.11141 0
M  V30 12100 H 1152.25 -2.91172 4.6896 0
M  V30 12101 H 1154.72 -3.103 2.77224 0
M  V30 12102 H 1153.6 -4.37581 3.31382 0
M  V30 12103 H 1153.86 -4.12316 1.59523 0
M  V30 12104 N 1152.92 -1.31168 -0.873655 0
M  V30 12105 C 1154.15 -1.23595 -1.65927 0
M  V30 12106 C 1154.56 0.199349 -1.87745 0
M  V30 12107 O 1153.92 1.13013 -1.43298 0
M  V30 12108 C 1153.97 -1.97268 -3.02932 0
M  V30 12109 O 1153.69 -3.35196 -2.82091 0
M  V30 12110 C 1155.19 -1.9649 -3.97374 0
M  V30 12111 H 1152.41 -0.427228 -0.517414 0
M  V30 12112 H 1154.96 -1.72983 -1.09074 0
M  V30 12113 H 1153.11 -1.51651 -3.56484 0
M  V30 12114 H 1153.52 -3.7266 -3.69087 0
M  V30 12115 H 1155 -2.52557 -4.90835 0
M  V30 12116 H 1155.48 -0.946525 -4.28879 0
M  V30 12117 H 1156.08 -2.4197 -3.49758 0
M  V30 12118 N 1154.4 1.08748 -1.14068 0
M  V30 12119 C 1155.81 1.62551 -0.918379 0
M  V30 12120 C 1156.16 1.8852 0.543583 0
M  V30 12121 O 1155.28 1.64007 1.41176 0
M  V30 12122 C 1155.88 2.95309 -1.66066 0
M  V30 12123 C 1154.44 3.4591 -1.48403 0
M  V30 12124 C 1153.58 2.20204 -1.6854 0
M  V30 12125 H 1156.54 0.920196 -1.29298 0
M  V30 12126 H 1156.56 3.63587 -1.12181 0
M  V30 12127 H 1156.07 2.76377 -2.72465 0
M  V30 12128 H 1154.17 3.69953 -0.443353 0
M  V30 12129 H 1154.28 4.2289 -2.25169 0
M  V30 12130 H 1152.65 2.29203 -1.11077 0
M  V30 12131 H 1153.43 2.03783 -2.76274 0
M  V30 12132 N 1155.87 0.935264 1.26849 0
M  V30 12133 C 1157.29 0.623198 1.75992 0
M  V30 12134 C 1157.64 -0.861647 1.76267 0
M  V30 12135 O 1156.76 -1.6743 1.37099 0
M  V30 12136 C 1157.36 1.12451 3.19594 0
M  V30 12137 C 1155.92 0.862974 3.66374 0
M  V30 12138 C 1155.06 1.27886 2.4605 0
M  V30 12139 H 1158.01 1.11422 1.13008 0
M  V30 12140 H 1158.03 0.475626 3.77516 0
M  V30 12141 H 1157.55 2.20522 3.19361 0
M  V30 12142 H 1155.65 -0.203606 3.72043 0
M  V30 12143 H 1155.76 1.48582 4.55478 0
M  V30 12144 H 1154.12 0.697335 2.44968 0
M  V30 12145 H 1154.91 2.36837 2.48522 0
M  V30 12146 N 1157.35 -1.41121 0.701616 0
M  V30 12147 C 1158.76 -1.84122 0.309208 0
M  V30 12148 C 1159.11 -1.58695 -1.15371 0
M  V30 12149 O 1158.24 -1.06053 -1.88631 0
M  V30 12150 C 1158.83 -3.34233 0.554429 0
M  V30 12151 C 1157.39 -3.7578 0.215876 0
M  V30 12152 C 1156.54 -2.6447 0.833729 0
M  V30 12153 H 1159.49 -1.30587 0.901822 0
M  V30 12154 H 1159.51 -3.8005 -0.18491 0
M  V30 12155 H 1159.02 -3.52707 1.61923 0
M  V30 12156 H 1157.13 -3.62905 -0.844421 0
M  V30 12157 H 1157.24 -4.74319 0.675118 0
M  V30 12158 H 1155.6 -2.5334 0.262851 0
M  V30 12159 H 1156.39 -2.85761 1.90252 0
M  V30 12160 N 1158.83 -0.446794 -1.51134 0
M  V30 12161 C 1160.25 -0.0995905 -1.59289 0
M  V30 12162 C 1160.45 1.39191 -1.45699 0
M  V30 12163 O 1159.5 2.1628 -1.30303 0
M  V30 12164 C 1160.82 -0.628135 -2.94066 0
M  V30 12165 C 1162.36 -0.589409 -3.074 0
M  V30 12166 C 1162.84 -1.09509 -4.44715 0
M  V30 12167 N 1164.33 -1.05347 -4.51061 0
M  V30 12168 C 1165.06 -1.41551 -5.55654 0
M  V30 12169 N 1164.56 -1.85086 -6.67619 0
M  V30 12170 N 1166.35 -1.33307 -5.46064 0
M  V30 12171 H 1158.5 -1.41713 -1.58213 0
M  V30 12172 H 1160.77 -0.584555 -0.746324 0
M  V30 12173 H 1160.47 -1.67205 -3.09411 0
M  V30 12174 H 1160.35 -0.0582398 -3.77155 0
M  V30 12175 H 1162.73 0.445541 -2.91717 0
M  V30 12176 H 1162.82 -1.19582 -2.26128 0
M  V30 12177 H 1162.46 -2.12855 -4.61146 0
M  V30 12178 H 1162.39 -0.465122 -5.24542 0
M  V30 12179 H 1164.88 -0.733877 -3.70706 0
M  V30 12180 H 1165.19 -2.10923 -7.43459 0
M  V30 12181 H 1163.54 -1.8902 -6.68802 0
M  V30 12182 H 1166.73 -0.991547 -4.57478 0
M  V30 12183 H 1166.9 -1.6185 -6.27462 0
M  V30 12184 N 1160.31 1.56586 -0.178487 0
M  V30 12185 C 1161.24 2.21313 0.744486 0
M  V30 12186 C 1162.22 1.17098 1.23377 0
M  V30 12187 O 1163.4 1.45551 1.28563 0
M  V30 12188 C 1160.53 2.8595 1.97103 0
M  V30 12189 C 1159.49 3.96266 1.61732 0
M  V30 12190 C 1158.81 4.47987 2.91911 0
M  V30 12191 C 1160.11 5.15503 0.839868 0
M  V30 12192 H 1161.81 2.98698 0.204938 0
M  V30 12193 H 1159.35 1.43672 0.0971306 0
M  V30 12194 H 1161.31 3.29909 2.6218 0
M  V30 12195 H 1160.03 2.05946 2.53484 0
M  V30 12196 H 1158.69 3.52974 0.990208 0
M  V30 12197 H 1158.34 3.64765 3.46346 0
M  V30 12198 H 1158.04 5.22413 2.68995 0
M  V30 12199 H 1159.56 4.94637 3.58004 0
M  V30 12200 H 1160.98 5.5611 1.39337 0
M  V30 12201 H 1159.37 5.95891 0.709473 0
M  V30 12202 H 1160.44 4.84628 -0.162396 0
M  V30 12203 N 1161.79 -0.095206 1.57312 0
M  V30 12204 C 1163.03 -0.799903 1.86358 0
M  V30 12205 C 1163.37 -1.78386 0.767593 0
M  V30 12206 O 1162.64 -1.93201 -0.224439 0
M  V30 12207 C 1162.92 -1.52875 3.26039 0
M  V30 12208 C 1162.78 -0.562781 4.46265 0
M  V30 12209 C 1164.1 -2.47935 3.63616 0
M  V30 12210 H 1161.21 -0.289339 0.677829 0
M  V30 12211 H 1163.86 -0.0635369 1.89894 0
M  V30 12212 H 1162.01 -2.15645 3.23156 0
M  V30 12213 H 1163.68 0.0579068 4.61264 0
M  V30 12214 H 1161.92 0.123847 4.33623 0
M  V30 12215 H 1162.59 -1.10989 5.40727 0
M  V30 12216 H 1165.07 -1.95257 3.67442 0
M  V30 12217 H 1163.94 -2.95948 4.62283 0
M  V30 12218 H 1164.21 -3.31687 2.92294 0
M  V30 12219 N 1163.26 -1.53291 -0.366026 0
M  V30 12220 C 1164.21 -1.79697 -1.44836 0
M  V30 12221 C 1165.18 -0.641321 -1.5322 0
M  V30 12222 O 1166.37 -0.883453 -1.69115 0
M  V30 12223 C 1163.51 -1.99223 -2.81788 0
M  V30 12224 C 1162.62 -3.26938 -2.82375 0
M  V30 12225 C 1161.75 -3.36654 -4.10898 0
M  V30 12226 C 1160.79 -4.58404 -4.05626 0
M  V30 12227 N 1159.93 -4.65275 -5.25798 0
M  V30 12228 H 1164.77 -2.72053 -1.21619 0
M  V30 12229 H 1162.31 -1.34768 -0.589577 0
M  V30 12230 H 1164.27 -2.0853 -3.61346 0
M  V30 12231 H 1162.9 -1.10204 -3.03406 0
M  V30 12232 H 1161.95 -3.26587 -1.95052 0
M  V30 12233 H 1163.26 -4.16573 -2.74351 0
M  V30 12234 H 1162.41 -3.4527 -4.98872 0
M  V30 12235 H 1161.15 -2.45035 -4.21674 0
M  V30 12236 H 1160.16 -4.49888 -3.16039 0
M  V30 12237 H 1161.38 -5.51364 -3.96453 0
M  V30 12238 H 1159.33 -3.76557 -5.3716 0
M  V30 12239 H 1159.25 -5.48814 -5.19942 0
M  V30 12240 H 1160.51 -4.78175 -6.15605 0
M  V30 12241 N 1164.74 0.6258 -1.44643 0
M  V30 12242 C 1165.69 1.73751 -1.51919 0
M  V30 12243 C 1166.66 1.62007 -0.36647 0
M  V30 12244 O 1167.84 1.81852 -0.577439 0
M  V30 12245 C 1164.98 3.12015 -1.47448 0
M  V30 12246 C 1164.1 3.34696 -2.73135 0
M  V30 12247 C 1163.23 4.62962 -2.6046 0
M  V30 12248 C 1162.27 4.7884 -3.81286 0
M  V30 12249 N 1161.41 5.98388 -3.67255 0
M  V30 12250 H 1166.25 1.66867 -2.46899 0
M  V30 12251 H 1163.79 0.813921 -1.22531 0
M  V30 12252 H 1165.74 3.91983 -1.42846 0
M  V30 12253 H 1164.37 3.179 -0.560312 0
M  V30 12254 H 1163.43 2.4863 -2.87901 0
M  V30 12255 H 1164.74 3.42306 -3.62806 0
M  V30 12256 H 1163.89 5.51099 -2.53722 0
M  V30 12257 H 1162.63 4.57719 -1.68359 0
M  V30 12258 H 1161.64 3.89131 -3.88403 0
M  V30 12259 H 1162.86 4.85893 -4.74431 0
M  V30 12260 H 1160.81 5.94224 -2.77909 0
M  V30 12261 H 1160.72 6.07078 -4.50547 0
M  V30 12262 H 1161.99 6.89072 -3.64417 0
M  V30 12263 N 1166.22 1.31629 0.866686 0
M  V30 12264 C 1167.17 1.19492 1.99561 0
M  V30 12265 C 1168.16 0.102456 1.6909 0
M  V30 12266 O 1169.37 0.264571 1.78045 0
M  V30 12267 H 1165.74 0.370071 0.654638 0
M  V30 12268 H 1167.71 2.14996 2.06928 0
M  V30 12269 C 1166.46 0.92246 3.3524 0
M  V30 12270 H 1165.79 1.75524 3.59209 0
M  V30 12271 H 1167.23 0.877726 4.14816 0
M  V30 12272 C 1165.69 -0.374803 3.34809 0
M  V30 12273 O 1166.22 -1.39055 3.76864 0
M  V30 12274 N 1164.42 -0.392506 2.87937 0
M  V30 12275 H 1163.97 0.434591 2.53908 0
M  V30 12276 H 1163.93 -1.26038 2.88031 0
M  V30 12277 N 1167.7 -1.08142 1.14644 0
M  V30 12278 C 1168.61 -2.18675 0.849607 0
M  V30 12279 C 1169.63 -1.73158 -0.170983 0
M  V30 12280 O 1170.8 -2.014 0.0011579 0
M  V30 12281 C 1167.87 -3.45084 0.334305 0
M  V30 12282 C 1166.93 -4.05213 1.41779 0
M  V30 12283 C 1166.16 -5.25588 0.926981 0
M  V30 12284 O 1166.38 -5.69934 -0.230522 0
M  V30 12285 O 1165.32 -5.77183 1.70715 0
M  V30 12286 H 1169.14 -2.46542 1.77343 0
M  V30 12287 H 1166.73 -1.17328 0.924911 0
M  V30 12288 H 1168.61 -4.21367 0.0529893 0
M  V30 12289 H 1167.29 -3.18788 -0.561755 0
M  V30 12290 H 1166.19 -3.30507 1.7526 0
M  V30 12291 H 1167.53 -4.35764 2.28847 0
M  V30 12292 N 1169.18 -0.941978 -1.26351 0
M  V30 12293 C 1170.09 -0.45833 -2.30079 0
M  V30 12294 C 1171.1 0.468084 -1.67586 0
M  V30 12295 O 1172.28 0.347418 -1.98381 0
M  V30 12296 C 1169.34 0.26797 -3.45663 0
M  V30 12297 C 1168.41 -0.695102 -4.23635 0
M  V30 12298 C 1167.64 -0.003369 -5.337 0
M  V30 12299 O 1167.86 1.21342 -5.57344 0
M  V30 12300 O 1166.8 -0.682476 -5.98018 0
M  V30 12301 H 1170.62 -1.31998 -2.73514 0
M  V30 12302 H 1168.21 -0.707897 -1.31564 0
M  V30 12303 H 1170.09 0.677061 -4.15925 0
M  V30 12304 H 1168.76 1.105 -3.04256 0
M  V30 12305 H 1167.67 -1.15415 -3.55851 0
M  V30 12306 H 1169 -1.49977 -4.68794 0
M  V30 12307 N 1170.66 1.40747 -0.709091 0
M  V30 12308 C 1171.62 2.29118 -0.0611607 0
M  V30 12309 C 1172.62 1.45049 0.694081 0
M  V30 12310 O 1173.81 1.66039 0.526952 0
M  V30 12311 C 1170.94 3.28154 0.923447 0
M  V30 12312 H 1172.13 2.87913 -0.839413 0
M  V30 12313 H 1169.69 1.4896 -0.473363 0
M  V30 12314 H 1170.42 2.74366 1.72899 0
M  V30 12315 H 1170.21 3.90207 0.384862 0
M  V30 12316 H 1171.7 3.94343 1.37417 0
M  V30 12317 N 1172.13 0.454803 1.50895 0
M  V30 12318 C 1173.1 -0.336293 2.26719 0
M  V30 12319 C 1174.1 -0.93464 1.30848 0
M  V30 12320 O 1175.29 -0.80636 1.54413 0
M  V30 12321 C 1172.42 -1.47744 3.07221 0
M  V30 12322 H 1173.61 0.328462 2.98096 0
M  V30 12323 H 1171.16 0.208419 1.54904 0
M  V30 12324 H 1171.9 -2.17773 2.40302 0
M  V30 12325 H 1171.68 -1.05438 3.77658 0
M  V30 12326 H 1173.17 -2.03592 3.6461 0
M  V30 12327 N 1173.61 -1.56489 0.186789 0
M  V30 12328 C 1174.89 -1.89066 -0.501337 0
M  V30 12329 C 1175.27 -1.09906 -1.80233 0
M  V30 12330 O 1174.62 -0.197626 -2.27644 0
M  V30 12331 C 1174.83 -3.41318 -0.728207 0
M  V30 12332 C 1176.17 -4.11379 -1.0513 0
M  V30 12333 O 1177.2 -3.46722 -0.816216 0
M  V30 12334 O 1176.06 -5.25638 -1.49557 0
M  V30 12335 H 1173.15 -0.784966 -0.260303 0
M  V30 12336 H 1175.7 -1.68183 0.226382 0
M  V30 12337 H 1174.47 -3.90834 0.19088 0
M  V30 12338 H 1174.09 -3.67865 -1.50869 0
M  V30 12339 N 1175.09 0.086862 -1.5736 0
M  V30 12340 C 1176 1.12297 -2.05977 0
M  V30 12341 C 1177.02 1.43347 -0.986284 0
M  V30 12342 O 1178.19 1.53825 -1.3 0
M  V30 12343 C 1175.26 2.42131 -2.4814 0
M  V30 12344 C 1174.32 2.18189 -3.69719 0
M  V30 12345 C 1173.55 3.41833 -4.09861 0
M  V30 12346 O 1173.77 4.50383 -3.50016 0
M  V30 12347 O 1172.71 3.30934 -5.02759 0
M  V30 12348 H 1176.53 0.740012 -2.94546 0
M  V30 12349 H 1174.12 0.29995 -1.46358 0
M  V30 12350 H 1176 3.18568 -2.75848 0
M  V30 12351 H 1174.68 2.79837 -1.62705 0
M  V30 12352 H 1173.58 1.39506 -3.47115 0
M  V30 12353 H 1174.92 1.85372 -4.55959 0
M  V30 12354 N 1176.57 1.53483 0.357892 0
M  V30 12355 C 1177.81 1.70289 1.10134 0
M  V30 12356 C 1178.15 0.457296 1.88739 0
M  V30 12357 O 1177.42 -0.545527 1.86693 0
M  V30 12358 C 1177.7 2.95755 2.05429 0
M  V30 12359 C 1177.56 4.30489 1.30382 0
M  V30 12360 C 1178.88 3.16844 3.05447 0
M  V30 12361 H 1176 0.61965 0.399003 0
M  V30 12362 H 1178.64 1.86133 0.381357 0
M  V30 12363 H 1176.79 2.82377 2.66825 0
M  V30 12364 H 1178.46 4.55692 0.71711 0
M  V30 12365 H 1176.7 4.2955 0.605712 0
M  V30 12366 H 1177.37 5.14427 2.00171 0
M  V30 12367 H 1179.85 3.29458 2.54159 0
M  V30 12368 H 1178.73 4.06053 3.69341 0
M  V30 12369 H 1178.99 2.32476 3.76041 0
M  V30 12370 N 1178.05 -0.61812 1.44973 0
M  V30 12371 C 1179.29 -1.3774 1.48439 0
M  V30 12372 C 1179.62 -1.94117 0.121999 0
M  V30 12373 O 1178.88 -1.749 -0.877974 0
M  V30 12374 C 1179.17 -2.55143 2.50274 0
M  V30 12375 C 1178.84 -2.16976 3.95262 0
M  V30 12376 C 1177.5 -2.06281 4.34743 0
M  V30 12377 C 1179.85 -1.8703 4.86486 0
M  V30 12378 C 1177.18 -1.63846 5.63357 0
M  V30 12379 C 1179.53 -1.46085 6.15501 0
M  V30 12380 C 1178.2 -1.3394 6.53924 0
M  V30 12381 H 1177.47 -0.504026 0.543175 0
M  V30 12382 H 1180.12 -0.699685 1.7826 0
M  V30 12383 H 1178.42 -3.28205 2.13983 0
M  V30 12384 H 1180.12 -3.13373 2.50197 0
M  V30 12385 H 1176.71 -2.26223 3.64034 0
M  V30 12386 H 1180.89 -1.94196 4.56729 0
M  V30 12387 H 1176.15 -1.53058 5.91932 0
M  V30 12388 H 1180.32 -1.21956 6.85638 0
M  V30 12389 H 1177.95 -1.00832 7.53483 0
M  V30 12390 N 1179.52 -1.32087 -0.859693 0
M  V30 12391 C 1180.47 -1.20601 -1.96784 0
M  V30 12392 C 1181.44 -0.089355 -1.65859 0
M  V30 12393 O 1182.63 -0.264022 -1.88964 0
M  V30 12394 C 1179.77 -0.929872 -3.32336 0
M  V30 12395 C 1178.88 -2.13084 -3.75791 0
M  V30 12396 C 1178.01 -1.79061 -5.00111 0
M  V30 12397 C 1177.05 -2.95507 -5.36043 0
M  V30 12398 N 1176.19 -2.61611 -6.5154 0
M  V30 12399 H 1181.03 -2.1539 -2.0594 0
M  V30 12400 H 1178.57 -1.07131 -1.00803 0
M  V30 12401 H 1180.52 -0.750285 -4.10398 0
M  V30 12402 H 1179.15 -0.0187929 -3.22795 0
M  V30 12403 H 1178.21 -2.42086 -2.93425 0
M  V30 12404 H 1179.52 -3.00205 -3.98344 0
M  V30 12405 H 1178.67 -1.57625 -5.85866 0
M  V30 12406 H 1177.41 -0.891459 -4.79483 0
M  V30 12407 H 1176.42 -3.17581 -4.48801 0
M  V30 12408 H 1177.64 -3.86147 -5.5863 0
M  V30 12409 H 1175.59 -1.74231 -6.32439 0
M  V30 12410 H 1175.5 -3.42262 -6.74087 0
M  V30 12411 H 1176.77 -2.43592 -7.40461 0
M  V30 12412 N 1181 1.07532 -1.15215 0
M  V30 12413 C 1182.28 1.76813 -0.83646 0
M  V30 12414 C 1182.66 2.00242 0.6683 0
M  V30 12415 O 1182.01 1.61941 1.61206 0
M  V30 12416 C 1182.22 3.0779 -1.64519 0
M  V30 12417 C 1183.56 3.82168 -1.85022 0
M  V30 12418 O 1184.59 3.17596 -1.61279 0
M  V30 12419 O 1183.45 4.98135 -2.24775 0
M  V30 12420 H 1180.54 0.767736 -0.307426 0
M  V30 12421 H 1183.09 1.13914 -1.25784 0
M  V30 12422 H 1181.86 2.86342 -2.6669 0
M  V30 12423 H 1181.48 3.78419 -1.22002 0
M  V30 12424 N 1182.48 0.948665 1.2585 0
M  V30 12425 C 1183.73 0.595938 1.92695 0
M  V30 12426 C 1184.04 -0.870229 1.75175 0
M  V30 12427 O 1185.25 -1.33266 2.36543 0
M  V30 12428 C 1183.7 1.01511 3.45288 0
M  V30 12429 C 1183.31 2.50341 3.71528 0
M  V30 12430 C 1185.06 0.734635 4.18095 0
M  V30 12431 C 1182.96 2.8609 5.17597 0
M  V30 12432 H 1181.89 0.219171 0.721443 0
M  V30 12433 H 1184.54 1.15231 1.42807 0
M  V30 12434 H 1182.93 0.387201 3.94102 0
M  V30 12435 H 1184.1 3.18101 3.3339 0
M  V30 12436 H 1182.42 2.75797 3.11969 0
M  V30 12437 H 1185.01 0.977962 5.25681 0
M  V30 12438 H 1185.36 -0.328807 4.14999 0
M  V30 12439 H 1185.89 1.32262 3.75169 0
M  V30 12440 H 1182.63 3.91427 5.25799 0
M  V30 12441 H 1182.15 2.22999 5.56805 0
M  V30 12442 H 1183.83 2.74959 5.85668 0
M  V30 12443 N 1183.96 -1.40369 0.716545 0
M  V30 12444 C 1184.89 -2.28196 0.013671 0
M  V30 12445 C 1185.87 -1.4339 -0.766685 0
M  V30 12446 O 1187.05 -1.72801 -0.753123 0
M  V30 12447 C 1184.18 -3.23969 -0.988006 0
M  V30 12448 C 1183.23 -4.25455 -0.298345 0
M  V30 12449 S 1184.06 -5.26559 0.974456 0
M  V30 12450 C 1185.22 -6.25895 -0.0250932 0
M  V30 12451 H 1185.45 -2.87461 0.758526 0
M  V30 12452 H 1182.98 -1.45817 0.507606 0
M  V30 12453 H 1184.94 -3.79674 -1.56071 0
M  V30 12454 H 1183.6 -2.63759 -1.70557 0
M  V30 12455 H 1182.79 -4.92821 -1.05561 0
M  V30 12456 H 1182.4 -3.73455 0.201828 0
M  V30 12457 H 1184.69 -6.7187 -0.871615 0
M  V30 12458 H 1185.63 -7.05422 0.615206 0
M  V30 12459 H 1186.04 -5.63156 -0.389248 0
M  V30 12460 N 1185.44 -0.462799 -1.50652 0
M  V30 12461 C 1186.35 0.341191 -2.32106 0
M  V30 12462 C 1187.36 1.00384 -1.42123 0
M  V30 12463 O 1188.54 0.993635 -1.75182 0
M  V30 12464 C 1185.6 1.41356 -3.16575 0
M  V30 12465 C 1184.66 0.768375 -4.22368 0
M  V30 12466 C 1183.9 1.78964 -5.028 0
M  V30 12467 O 1184.12 3.01515 -4.84195 0
M  V30 12468 O 1183.05 1.36606 -5.86193 0
M  V30 12469 H 1186.88 -0.324482 -3.01962 0
M  V30 12470 H 1184.47 -0.224807 -1.47699 0
M  V30 12471 H 1186.35 2.0349 -3.69012 0
M  V30 12472 H 1185.02 2.06285 -2.49456 0
M  V30 12473 H 1183.93 0.108297 -3.73943 0
M  V30 12474 H 1185.26 0.162164 -4.91933 0
M  V30 12475 N 1186.91 1.56388 -0.195085 0
M  V30 12476 C 1188.14 2.02406 0.452399 0
M  V30 12477 C 1188.56 1.07432 1.54402 0
M  V30 12478 O 1187.92 0.0578246 1.81208 0
M  V30 12479 C 1187.97 3.46864 0.985778 0
M  V30 12480 O 1187.07 3.55007 2.09867 0
M  V30 12481 H 1186.42 0.65553 0.105719 0
M  V30 12482 H 1188.95 2.02299 -0.30596 0
M  V30 12483 H 1188.96 3.86655 1.30238 0
M  V30 12484 H 1187.63 4.15481 0.186662 0
M  V30 12485 H 1186.21 3.2709 1.79071 0
M  V30 12486 N 1188.39 -0.0785156 1.57404 0
M  V30 12487 C 1189.62 -0.795871 1.91522 0
M  V30 12488 C 1190.04 -1.70665 0.790892 0
M  V30 12489 O 1189.4 -1.79474 -0.25666 0
M  V30 12490 C 1189.45 -1.57121 3.24569 0
M  V30 12491 O 1188.55 -2.6814 3.13328 0
M  V30 12492 H 1187.89 -0.217575 0.627341 0
M  V30 12493 H 1190.42 -0.0487724 2.04542 0
M  V30 12494 H 1190.43 -1.9519 3.5828 0
M  V30 12495 H 1189.11 -0.902909 4.05981 0
M  V30 12496 H 1187.69 -2.32978 2.91163 0
M  V30 12497 N 1189.87 -1.5367 -0.349747 0
M  V30 12498 C 1191.28 -1.62135 -0.925704 0
M  V30 12499 C 1191.63 -0.498725 -1.89756 0
M  V30 12500 O 1190.76 0.372481 -2.1317 0
M  V30 12501 C 1191.35 -2.93885 -1.68573 0
M  V30 12502 C 1189.91 -3.04632 -2.2108 0
M  V30 12503 C 1189.06 -2.57541 -1.02801 0
M  V30 12504 H 1192.01 -1.58182 -0.128065 0
M  V30 12505 H 1192.03 -2.82577 -2.54815 0
M  V30 12506 H 1191.54 -3.75571 -0.978153 0
M  V30 12507 H 1189.64 -2.27567 -2.95032 0
M  V30 12508 H 1189.76 -4.09993 -2.47876 0
M  V30 12509 H 1188.12 -2.12798 -1.39962 0
M  V30 12510 H 1188.9 -3.4166 -0.335157 0
M  V30 12511 N 1191.35 0.610423 -1.45298 0
M  V30 12512 C 1192.6 1.3668 -1.48872 0
M  V30 12513 C 1192.92 1.94562 -0.130686 0
M  V30 12514 O 1192.19 1.76996 0.839607 0
M  V30 12515 H 1190.77 0.507393 -0.548235 0
M  V30 12516 H 1193.43 0.716997 -1.81232 0
M  V30 12517 H 1192.53 2.18766 -2.22593 0
M  V30 12518 N 1192.83 1.32541 0.852676 0
M  V30 12519 C 1194.05 1.2636 1.64462 0
M  V30 12520 C 1194.48 -0.16508 1.87374 0
M  V30 12521 O 1193.83 -1.11712 1.42794 0
M  V30 12522 C 1193.88 2.03052 2.97997 0
M  V30 12523 O 1192.99 1.37967 3.88637 0
M  V30 12524 H 1192.33 0.435393 0.501327 0
M  V30 12525 H 1194.86 1.74888 1.06186 0
M  V30 12526 H 1194.87 2.133 3.47803 0
M  V30 12527 H 1193.54 3.06941 2.80642 0
M  V30 12528 H 1192.12 1.36279 3.47106 0
M  V30 12529 N 1194.3 -1.0692 1.15784 0
M  V30 12530 C 1195.53 -1.83849 0.959903 0
M  V30 12531 C 1195.95 -1.8169 -0.486873 0
M  V30 12532 O 1195.31 -1.21305 -1.34739 0
M  V30 12533 C 1195.36 -3.28642 1.48414 0
M  V30 12534 O 1194.46 -4.0665 0.686249 0
M  V30 12535 H 1193.81 -0.569115 0.342059 0
M  V30 12536 H 1196.34 -1.34851 1.53871 0
M  V30 12537 H 1196.35 -3.7947 1.49888 0
M  V30 12538 H 1195.02 -3.29529 2.53739 0
M  V30 12539 H 1193.6 -3.65453 0.741501 0
M  V30 12540 N 1195.78 -0.955326 -1.25345 0
M  V30 12541 C 1197.19 -0.651118 -1.74978 0
M  V30 12542 C 1197.54 0.833495 -1.77616 0
M  V30 12543 O 1196.67 1.65228 -1.39745 0
M  V30 12544 C 1197.26 -1.17521 -3.17764 0
M  V30 12545 C 1195.82 -0.921151 -3.64954 0
M  V30 12546 C 1194.97 -1.31784 -2.43984 0
M  V30 12547 H 1197.92 -1.13205 -1.11222 0
M  V30 12548 H 1197.94 -0.535625 -3.76711 0
M  V30 12549 H 1197.45 -2.25575 -3.15813 0
M  V30 12550 H 1195.56 0.144392 -3.7232 0
M  V30 12551 H 1195.67 -1.5581 -4.53056 0
M  V30 12552 H 1194.03 -0.736219 -2.43828 0
M  V30 12553 H 1194.82 -2.40761 -2.44723 0
M  V30 12554 N 1197.26 1.39987 -0.723979 0
M  V30 12555 C 1198.67 1.83606 -0.338461 0
M  V30 12556 C 1199.02 1.6051 1.12831 0
M  V30 12557 O 1198.15 1.09041 1.8692 0
M  V30 12558 C 1198.74 3.33308 -0.607533 0
M  V30 12559 C 1197.3 3.75389 -0.275632 0
M  V30 12560 C 1196.45 2.6311 -0.875699 0
M  V30 12561 H 1199.4 1.29135 -0.922483 0
M  V30 12562 H 1199.42 3.80297 0.124424 0
M  V30 12563 H 1198.93 3.50087 -1.67514 0
M  V30 12564 H 1197.03 3.64203 0.786579 0
M  V30 12565 H 1197.15 4.73185 -0.750492 0
M  V30 12566 H 1195.51 2.5289 -0.303122 0
M  V30 12567 H 1196.29 2.82698 -1.94774 0
M  V30 12568 N 1198.74 0.470782 1.50404 0
M  V30 12569 C 1199.69 -0.337584 2.30137 0
M  V30 12570 C 1200.68 -0.990673 1.37412 0
M  V30 12571 O 1201.89 -0.921813 1.54605 0
M  V30 12572 H 1198.26 -0.127707 0.741077 0
M  V30 12573 H 1200.23 0.355297 2.96277 0
M  V30 12574 C 1198.98 -1.40714 3.17954 0
M  V30 12575 H 1198.31 -0.913982 3.89213 0
M  V30 12576 H 1199.75 -1.94533 3.7674 0
M  V30 12577 C 1198.2 -2.40889 2.35529 0
M  V30 12578 O 1198.73 -3.46153 2.03816 0
M  V30 12579 N 1196.94 -2.126 1.98115 0
M  V30 12580 H 1196.49 -1.27023 2.24105 0
M  V30 12581 H 1196.45 -2.7986 1.43269 0
M  V30 12582 N 1200.22 -1.56282 0.203376 0
M  V30 12583 C 1201.15 -2.2247 -0.709183 0
M  V30 12584 C 1202.13 -1.19046 -1.21499 0
M  V30 12585 O 1203.31 -1.47578 -1.26231 0
M  V30 12586 C 1200.44 -2.8905 -1.92529 0
M  V30 12587 C 1199.4 -3.98789 -1.55407 0
M  V30 12588 C 1198.72 -4.52574 -2.84747 0
M  V30 12589 C 1200.02 -5.16774 -0.75775 0
M  V30 12590 H 1201.72 -2.98986 -0.157392 0
M  V30 12591 H 1199.26 -1.43808 -0.0742613 0
M  V30 12592 H 1201.22 -3.34038 -2.56898 0
M  V30 12593 H 1199.94 -2.09952 -2.50175 0
M  V30 12594 H 1198.6 -3.54504 -0.933928 0
M  V30 12595 H 1198.25 -3.70229 -3.40499 0
M  V30 12596 H 1197.95 -5.26627 -2.6065 0
M  V30 12597 H 1199.47 -5.00269 -3.5009 0
M  V30 12598 H 1200.89 -5.58256 -1.30472 0
M  V30 12599 H 1199.28 -5.96945 -0.614583 0
M  V30 12600 H 1200.35 -4.84308 0.239476 0
M  V30 12601 N 1201.7 0.070167 -1.57444 0
M  V30 12602 C 1202.92 0.781894 -1.91557 0
M  V30 12603 C 1203.34 1.71037 -0.799489 0
M  V30 12604 O 1202.7 1.81082 0.227062 0
M  V30 12605 C 1202.75 1.57415 -3.25427 0
M  V30 12606 O 1202.47 0.682991 -4.32743 0
M  V30 12607 C 1203.97 2.38673 -3.73564 0
M  V30 12608 H 1201.19 0.222211 -0.633138 0
M  V30 12609 H 1203.73 0.0399504 -2.04461 0
M  V30 12610 H 1201.89 2.26835 -3.14045 0
M  V30 12611 H 1202.3 1.2342 -5.09772 0
M  V30 12612 H 1203.78 2.89716 -4.6986 0
M  V30 12613 H 1204.25 3.18269 -3.02657 0
M  V30 12614 H 1204.86 1.74405 -3.87896 0
M  V30 12615 N 1203.17 1.53854 0.341593 0
M  V30 12616 C 1204.58 1.62623 0.917093 0
M  V30 12617 C 1204.94 0.508781 1.89488 0
M  V30 12618 O 1204.06 -0.361171 2.13365 0
M  V30 12619 C 1204.66 2.94775 1.67012 0
M  V30 12620 C 1203.21 3.058 2.19461 0
M  V30 12621 C 1202.36 2.58082 1.01433 0
M  V30 12622 H 1205.31 1.58248 0.119674 0
M  V30 12623 H 1205.33 2.83924 2.53313 0
M  V30 12624 H 1204.85 3.76085 0.958221 0
M  V30 12625 H 1202.95 2.29128 2.93821 0
M  V30 12626 H 1203.06 4.11302 2.45698 0
M  V30 12627 H 1201.42 2.13537 1.38831 0
M  V30 12628 H 1202.21 3.41833 0.317033 0
M  V30 12629 N 1204.65 -0.602709 1.4562 0
M  V30 12630 C 1205.6 -1.71312 1.54664 0
M  V30 12631 C 1206.57 -1.61403 0.392197 0
M  V30 12632 O 1207.75 -1.80911 0.606297 0
M  V30 12633 C 1204.89 -3.09629 1.52393 0
M  V30 12634 C 1204.01 -3.30308 2.78425 0
M  V30 12635 C 1203.14 -4.5876 2.67793 0
M  V30 12636 C 1202.18 -4.72713 3.88855 0
M  V30 12637 N 1201.32 -5.92469 3.76729 0
M  V30 12638 H 1206.16 -1.62918 2.49523 0
M  V30 12639 H 1203.69 -0.794324 1.2381 0
M  V30 12640 H 1205.65 -3.89661 1.49064 0
M  V30 12641 H 1204.28 -3.16968 0.610816 0
M  V30 12642 H 1203.33 -2.44018 2.9182 0
M  V30 12643 H 1204.65 -3.36491 3.68205 0
M  V30 12644 H 1203.8 -5.46993 2.62457 0
M  V30 12645 H 1202.54 -4.54983 1.75619 0
M  V30 12646 H 1201.54 -3.82903 3.94545 0
M  V30 12647 H 1202.77 -4.78284 4.82101 0
M  V30 12648 H 1200.72 -5.89728 2.87328 0
M  V30 12649 H 1200.63 -5.99833 4.60148 0
M  V30 12650 H 1201.9 -6.83187 3.75334 0
M  V30 12651 N 1206.13 -1.32992 -0.845635 0
M  V30 12652 C 1207.54 -1.21616 -1.41656 0
M  V30 12653 C 1207.89 0.167687 -1.95482 0
M  V30 12654 O 1207.02 1.06692 -1.8827 0
M  V30 12655 C 1207.61 -2.2018 -2.575 0
M  V30 12656 C 1206.17 -2.12664 -3.10565 0
M  V30 12657 C 1205.32 -2.08042 -1.83341 0
M  V30 12658 H 1208.27 -1.44688 -0.651993 0
M  V30 12659 H 1208.29 -1.80558 -3.34931 0
M  V30 12660 H 1207.8 -3.20888 -2.18294 0
M  V30 12661 H 1205.9 -1.15235 -3.54333 0
M  V30 12662 H 1206.02 -3.02902 -3.71197 0
M  V30 12663 H 1204.38 -1.53416 -2.03312 0
M  V30 12664 H 1205.16 -3.10547 -1.46339 0
M  V30 12665 N 1207.61 1.06304 -1.1635 0
M  V30 12666 C 1208.54 2.15745 -0.893103 0
M  V30 12667 C 1209.52 1.69341 0.160531 0
M  V30 12668 O 1210.7 1.94196 0.0126526 0
M  V30 12669 C 1207.83 3.45066 -0.393287 0
M  V30 12670 C 1206.79 4.04978 -1.38482 0
M  V30 12671 C 1206.11 5.29507 -0.743409 0
M  V30 12672 C 1207.41 4.4377 -2.75438 0
M  V30 12673 H 1209.11 2.38622 -1.80831 0
M  V30 12674 H 1206.65 1.14681 -0.870878 0
M  V30 12675 H 1208.61 4.20964 -0.191607 0
M  V30 12676 H 1207.33 3.21808 0.557426 0
M  V30 12677 H 1205.99 3.31136 -1.57304 0
M  V30 12678 H 1205.64 5.02545 0.213787 0
M  V30 12679 H 1205.34 5.7055 -1.40521 0
M  V30 12680 H 1206.86 6.08102 -0.551746 0
M  V30 12681 H 1208.28 5.1075 -2.60398 0
M  V30 12682 H 1206.67 4.95797 -3.38091 0
M  V30 12683 H 1207.74 3.54636 -3.30699 0
M  V30 12684 N 1209.09 0.96196 1.24836 0
M  V30 12685 C 1210.5 0.667561 1.44968 0
M  V30 12686 C 1210.7 -0.772521 1.86103 0
M  V30 12687 O 1209.76 -1.54704 1.99557 0
M  V30 12688 C 1211.07 1.64675 2.516 0
M  V30 12689 C 1212.62 1.65874 2.65433 0
M  V30 12690 C 1213.09 2.62576 3.75257 0
M  V30 12691 N 1214.58 2.60984 3.82677 0
M  V30 12692 C 1215.32 3.32484 4.67163 0
M  V30 12693 N 1214.82 4.13482 5.55882 0
M  V30 12694 N 1216.61 3.21336 4.61193 0
M  V30 12695 H 1208.76 1.89248 0.964307 0
M  V30 12696 H 1211.02 0.814443 0.485167 0
M  V30 12697 H 1210.73 2.67572 2.2825 0
M  V30 12698 H 1210.6 1.415 3.49653 0
M  V30 12699 H 1212.99 0.636912 2.88145 0
M  V30 12700 H 1213.07 1.9311 1.67756 0
M  V30 12701 H 1212.71 3.6489 3.53295 0
M  V30 12702 H 1212.64 2.32622 4.72435 0
M  V30 12703 H 1215.14 2.02187 3.19263 0
M  V30 12704 H 1215.45 4.6494 6.17293 0
M  V30 12705 H 1213.79 4.17578 5.55566 0
M  V30 12706 H 1216.98 2.57524 3.90895 0
M  V30 12707 H 1217.16 3.77323 5.26812 0
M  V30 12708 N 1210.56 -1.39601 0.731392 0
M  V30 12709 C 1211.98 -1.54334 0.406594 0
M  V30 12710 C 1212.18 -1.69925 -1.08295 0
M  V30 12711 O 1211.24 -1.69771 -1.86906 0
M  V30 12712 C 1212.55 -2.76303 1.18647 0
M  V30 12713 C 1214.1 -2.90135 1.17433 0
M  V30 12714 C 1214.57 -4.15038 1.93669 0
M  V30 12715 N 1216.06 -4.2207 1.90817 0
M  V30 12716 C 1216.8 -5.17656 2.46616 0
M  V30 12717 N 1216.29 -6.19054 3.11037 0
M  V30 12718 N 1218.09 -5.09847 2.3667 0
M  V30 12719 H 1210.24 -1.27728 1.69703 0
M  V30 12720 H 1212.5 -0.6188 0.718186 0
M  V30 12721 H 1212.21 -2.71113 2.24032 0
M  V30 12722 H 1212.08 -3.68866 0.788514 0
M  V30 12723 H 1214.47 -2.9482 0.128615 0
M  V30 12724 H 1214.55 -1.98646 1.61163 0
M  V30 12725 H 1214.19 -4.11115 2.9824 0
M  V30 12726 H 1214.12 -5.05565 1.47349 0
M  V30 12727 H 1216.61 -3.49437 1.43882 0
M  V30 12728 H 1216.93 -6.88444 3.51091 0
M  V30 12729 H 1215.27 -6.19452 3.15126 0
M  V30 12730 H 1218.46 -4.29566 1.85987 0
M  V30 12731 H 1218.64 -5.84165 2.80455 0
M  V30 12732 N 1212.04 -0.478751 -1.50152 0
M  V30 12733 C 1212.97 0.347829 -2.26545 0
M  V30 12734 C 1213.99 0.950354 -1.32182 0
M  V30 12735 O 1215.18 0.837462 -1.57635 0
M  V30 12736 C 1212.28 1.50255 -3.0377 0
M  V30 12737 C 1211.45 1.01142 -4.25546 0
M  V30 12738 C 1210.51 2.0411 -4.85 0
M  V30 12739 O 1209.53 1.61862 -5.45701 0
M  V30 12740 N 1210.74 3.36982 -4.72677 0
M  V30 12741 H 1213.5 -0.307113 -2.98122 0
M  V30 12742 H 1211.06 -0.309981 -1.58905 0
M  V30 12743 H 1213.05 2.18848 -3.40423 0
M  V30 12744 H 1211.62 2.06205 -2.34943 0
M  V30 12745 H 1210.84 0.151124 -3.9391 0
M  V30 12746 H 1212.13 0.661326 -5.04484 0
M  V30 12747 H 1211.53 3.74011 -4.2442 0
M  V30 12748 H 1210.09 4.0135 -5.13577 0
M  V30 12749 N 1213.52 1.56172 -0.211661 0
M  V30 12750 C 1214.77 1.98332 0.423332 0
M  V30 12751 C 1215.1 1.09895 1.60115 0
M  V30 12752 O 1214.37 0.154477 1.93886 0
M  V30 12753 C 1214.66 3.49495 0.86747 0
M  V30 12754 C 1214.51 4.48708 -0.313302 0
M  V30 12755 C 1215.83 4.04793 1.72716 0
M  V30 12756 H 1212.95 0.72107 0.152402 0
M  V30 12757 H 1215.59 1.87521 -0.305912 0
M  V30 12758 H 1213.74 3.58839 1.48885 0
M  V30 12759 H 1215.41 4.51385 -0.951291 0
M  V30 12760 H 1213.66 4.2299 -0.96238 0
M  V30 12761 H 1214.33 5.51985 0.0402402 0
M  V30 12762 H 1216.8 3.98332 1.20296 0
M  V30 12763 H 1215.68 5.10898 2.00684 0
M  V30 12764 H 1215.94 3.51067 2.68709 0
M  V30 12765 N 1215 -0.0618163 1.57479 0
M  V30 12766 C 1216.23 -0.771724 1.91969 0
M  V30 12767 C 1216.64 -1.7061 0.808549 0
M  V30 12768 O 1216 -1.812 -0.217455 0
M  V30 12769 C 1216.05 -1.55687 3.26257 0
M  V30 12770 O 1215.77 -0.660032 4.331 0
M  V30 12771 C 1217.27 -2.36688 3.74825 0
M  V30 12772 H 1214.49 -0.21885 0.634307 0
M  V30 12773 H 1217.04 -0.0291068 2.04479 0
M  V30 12774 H 1215.19 -2.25167 3.15244 0
M  V30 12775 H 1215.6 -1.20715 5.1042 0
M  V30 12776 H 1217.08 -2.8722 4.7139 0
M  V30 12777 H 1217.56 -3.1666 3.0434 0
M  V30 12778 H 1218.16 -1.72346 3.88815 0
M  V30 12779 N 1216.48 -1.54033 -0.333429 0
M  V30 12780 C 1217.72 -1.72019 -1.07411 0
M  V30 12781 C 1218.06 -0.487265 -1.87988 0
M  V30 12782 O 1217.33 0.515757 -1.87537 0
M  V30 12783 C 1217.61 -2.98986 -2.00698 0
M  V30 12784 C 1217.47 -4.32509 -1.23517 0
M  V30 12785 C 1218.79 -3.21663 -3.00368 0
M  V30 12786 H 1215.9 -0.625919 -0.389094 0
M  V30 12787 H 1218.55 -1.86717 -0.351697 0
M  V30 12788 H 1216.7 -2.86586 -2.62298 0
M  V30 12789 H 1218.37 -4.56775 -0.644522 0
M  V30 12790 H 1216.61 -4.3046 -0.537298 0
M  V30 12791 H 1217.28 -5.17547 -1.91962 0
M  V30 12792 H 1219.76 -3.33459 -2.48886 0
M  V30 12793 H 1218.63 -4.11877 -3.62834 0
M  V30 12794 H 1218.9 -2.3843 -3.72295 0
M  V30 12795 N 1217.95 0.594978 -1.45938 0
M  V30 12796 C 1218.92 1.68688 -1.55168 0
M  V30 12797 C 1219.92 1.54945 -0.429951 0
M  V30 12798 O 1221.11 1.59785 -0.693859 0
M  V30 12799 C 1218.24 3.0804 -1.46027 0
M  V30 12800 H 1219.43 1.61866 -2.52467 0
M  V30 12801 H 1216.99 0.811785 -1.33565 0
M  V30 12802 H 1217.72 3.20428 -0.499614 0
M  V30 12803 H 1217.51 3.19423 -2.27401 0
M  V30 12804 H 1219 3.8755 -1.55546 0
M  V30 12805 N 1219.43 1.33438 0.838571 0
M  V30 12806 C 1220.84 1.22366 1.41009 0
M  V30 12807 C 1221.19 -0.157317 1.95568 0
M  V30 12808 O 1220.32 -1.05692 1.88834 0
M  V30 12809 C 1220.91 2.21542 2.56329 0
M  V30 12810 C 1219.47 2.14309 3.09433 0
M  V30 12811 C 1218.62 2.09012 1.82235 0
M  V30 12812 H 1221.57 1.45032 0.64431 0
M  V30 12813 H 1221.59 1.82332 3.33969 0
M  V30 12814 H 1221.1 3.22042 2.16589 0
M  V30 12815 H 1219.21 1.17113 3.53717 0
M  V30 12816 H 1219.32 3.04866 3.69586 0
M  V30 12817 H 1217.68 1.54492 2.02495 0
M  V30 12818 H 1218.47 3.11319 1.4469 0
M  V30 12819 N 1220.91 -1.05686 1.16912 0
M  V30 12820 C 1221.87 -2.11481 0.883647 0
M  V30 12821 C 1222.87 -1.60321 -0.124034 0
M  V30 12822 O 1224.06 -1.73868 0.107566 0
M  V30 12823 C 1221.2 -3.3937 0.322649 0
M  V30 12824 H 1222.39 -2.38239 1.8216 0
M  V30 12825 H 1219.94 -1.2185 0.978895 0
M  V30 12826 H 1220.68 -3.18266 -0.622695 0
M  V30 12827 H 1220.46 -3.77812 1.04883 0
M  V30 12828 H 1221.95 -4.17362 0.141072 0
M  V30 12829 N 1222.39 -0.968567 -1.24324 0
M  V30 12830 C 1223.61 -0.648166 -1.97012 0
M  V30 12831 C 1224.04 0.775842 -1.71354 0
M  V30 12832 O 1223.4 1.52672 -0.977804 0
M  V30 12833 C 1223.44 -0.929974 -3.48402 0
M  V30 12834 O 1222.55 -0.015854 -4.12397 0
M  V30 12835 H 1221.89 -0.244961 -0.617163 0
M  V30 12836 H 1224.42 -1.29895 -1.58077 0
M  V30 12837 H 1224.43 -0.861863 -3.98793 0
M  V30 12838 H 1223.1 -1.96776 -3.66404 0
M  V30 12839 H 1221.68 -0.137361 -3.72647 0
M  V30 12840 N 1223.87 1.39211 -0.738786 0
M  V30 12841 C 1225.11 2.0004 -0.28782 0
M  V30 12842 C 1225.44 1.58921 1.13 0
M  V30 12843 O 1224.71 0.839193 1.77015 0
M  V30 12844 H 1223.29 0.739805 -0.103425 0
M  V30 12845 H 1225.95 1.70202 -0.949587 0
M  V30 12846 H 1225.04 3.10251 -0.339208 0
M  V30 12847 N 1225.34 0.486708 1.49896 0
M  V30 12848 C 1226.27 -0.288898 2.31706 0
M  V30 12849 C 1227.26 -0.975901 1.3932 0
M  V30 12850 O 1228.44 -0.970065 1.68236 0
M  V30 12851 C 1225.57 -1.36218 3.19471 0
M  V30 12852 C 1224.52 -0.795884 4.20535 0
M  V30 12853 C 1223.85 -1.96862 4.97141 0
M  V30 12854 C 1225.15 0.203421 5.21904 0
M  V30 12855 H 1226.84 0.393934 2.96797 0
M  V30 12856 H 1224.39 0.190894 1.42729 0
M  V30 12857 H 1226.34 -1.91238 3.75508 0
M  V30 12858 H 1225.07 -2.074 2.52295 0
M  V30 12859 H 1223.73 -0.267538 3.65622 0
M  V30 12860 H 1223.37 -2.66779 4.26425 0
M  V30 12861 H 1223.07 -1.59585 5.65514 0
M  V30 12862 H 1224.6 -2.52343 5.56017 0
M  V30 12863 H 1226.01 -0.258144 5.72719 0
M  V30 12864 H 1224.41 0.491273 5.98086 0
M  V30 12865 H 1225.48 1.12414 4.7169 0
M  V30 12866 N 1226.82 -1.56058 0.219941 0
M  V30 12867 C 1228.23 -1.84462 -0.288203 0
M  V30 12868 C 1228.59 -1.14128 -1.59591 0
M  V30 12869 O 1227.71 -0.410411 -2.12473 0
M  V30 12870 C 1228.31 -3.34634 -0.529689 0
M  V30 12871 C 1226.86 -3.63361 -0.982145 0
M  V30 12872 C 1226.01 -2.77265 -0.0443292 0
M  V30 12873 H 1228.96 -1.52387 0.44317 0
M  V30 12874 H 1228.98 -3.54752 -1.3759 0
M  V30 12875 H 1228.5 -3.85796 0.422243 0
M  V30 12876 H 1226.6 -3.17653 -1.94749 0
M  V30 12877 H 1226.71 -4.71361 -0.857668 0
M  V30 12878 H 1225.07 -2.48672 -0.550825 0
M  V30 12879 H 1225.86 -3.31225 0.902491 0
M  V30 12880 N 1228.3 0.053464 -1.57509 0
M  V30 12881 C 1229.25 1.06886 -2.01394 0
M  V30 12882 C 1230.24 1.33441 -0.899013 0
M  V30 12883 O 1231.43 1.33435 -1.16293 0
M  V30 12884 C 1228.56 2.37731 -2.47667 0
M  V30 12885 C 1227.64 2.14371 -3.65931 0
M  V30 12886 N 1228.03 1.60994 -4.79494 0
M  V30 12887 C 1226.33 2.44766 -3.72835 0
M  V30 12888 C 1227.03 1.52875 -5.61252 0
M  V30 12889 N 1226.01 1.99576 -5.05638 0
M  V30 12890 H 1229.81 0.649779 -2.86627 0
M  V30 12891 H 1227.32 0.260224 -1.60302 0
M  V30 12892 H 1229.32 3.11256 -2.77354 0
M  V30 12893 H 1227.98 2.80339 -1.63829 0
M  V30 12894 H 1228.99 1.296 -5.01422 0
M  V30 12895 H 1225.67 2.90616 -2.99748 0
M  V30 12896 H 1227.06 1.12303 -6.62448 0
M  V30 12897 N 1229.78 1.54207 0.325255 0
M  V30 12898 C 1230.73 1.83474 1.40021 0
M  V30 12899 C 1231.7 0.681719 1.51466 0
M  V30 12900 O 1232.88 0.92798 1.66713 0
M  V30 12901 C 1230.02 2.06624 2.76407 0
M  V30 12902 C 1229.13 3.3431 2.73607 0
M  V30 12903 C 1228.27 3.4743 4.01828 0
M  V30 12904 C 1227.31 4.68997 3.93329 0
M  V30 12905 N 1226.45 4.79052 5.13277 0
M  V30 12906 H 1231.29 2.75182 1.14363 0
M  V30 12907 H 1228.82 1.36284 0.553639 0
M  V30 12908 H 1230.78 2.18037 3.5569 0
M  V30 12909 H 1229.41 1.18209 3.00377 0
M  V30 12910 H 1228.46 3.31643 1.86324 0
M  V30 12911 H 1229.77 4.237 2.6321 0
M  V30 12912 H 1228.93 3.58376 4.89542 0
M  V30 12913 H 1227.67 2.56128 4.1503 0
M  V30 12914 H 1226.67 4.58109 3.04 0
M  V30 12915 H 1227.9 5.61681 3.81695 0
M  V30 12916 H 1225.84 3.90666 5.26988 0
M  V30 12917 H 1225.76 5.62406 5.05208 0
M  V30 12918 H 1227.03 4.94328 6.02711 0
M  V30 12919 N 1231.26 -0.58723 1.46251 0
M  V30 12920 C 1232.17 -1.72455 1.59048 0
M  V30 12921 C 1233.18 -1.67416 0.47413 0
M  V30 12922 O 1234.36 -1.87406 0.737633 0
M  V30 12923 C 1231.42 -3.08953 1.57318 0
M  V30 12924 C 1230.49 -3.25291 2.80151 0
M  V30 12925 C 1229.72 -4.55277 2.78493 0
M  V30 12926 O 1229.94 -5.38883 1.8698 0
M  V30 12927 O 1228.88 -4.74765 3.69975 0
M  V30 12928 H 1232.7 -1.64606 2.55223 0
M  V30 12929 H 1230.29 -0.753742 1.28993 0
M  V30 12930 H 1232.17 -3.90239 1.59033 0
M  V30 12931 H 1230.84 -3.17249 0.643025 0
M  V30 12932 H 1229.75 -2.43515 2.83991 0
M  V30 12933 H 1231.08 -3.21883 3.7236 0
M  V30 12934 N 1232.74 -1.33881 -0.831482 0
M  V30 12935 C 1233.65 -1.26802 -1.97379 0
M  V30 12936 C 1234.66 -0.177233 -1.73095 0
M  V30 12937 O 1235.84 -0.402163 -1.97344 0
M  V30 12938 C 1232.9 -1.01474 -3.31517 0
M  V30 12939 C 1231.96 -2.19626 -3.68867 0
M  V30 12940 C 1231.2 -1.95497 -4.96605 0
M  V30 12941 O 1231.42 -0.908948 -5.63111 0
M  V30 12942 O 1230.35 -2.82226 -5.31632 0
M  V30 12943 H 1234.18 -2.22883 -2.06293 0
M  V30 12944 H 1231.76 -1.14001 -0.965613 0
M  V30 12945 H 1233.65 -0.890954 -4.11874 0
M  V30 12946 H 1232.32 -0.0842656 -3.2359 0
M  V30 12947 H 1231.23 -2.37561 -2.88991 0
M  V30 12948 H 1232.56 -3.11034 -3.81469 0
M  V30 12949 N 1234.21 1.05064 -1.1747 0
M  V30 12950 C 1235.18 2.1101 -0.89485 0
M  V30 12951 C 1236.18 1.60384 0.11553 0
M  V30 12952 O 1237.37 1.73808 -0.116785 0
M  V30 12953 C 1234.5 3.39194 -0.340642 0
M  V30 12954 H 1235.69 2.37269 -1.83421 0
M  V30 12955 H 1233.24 1.21329 -0.985343 0
M  V30 12956 H 1233.98 3.18591 0.605808 0
M  V30 12957 H 1233.76 3.77251 -1.06885 0
M  V30 12958 H 1235.25 4.17281 -0.163204 0
M  V30 12959 N 1235.69 0.975146 1.23809 0
M  V30 12960 C 1236.94 0.639858 1.91704 0
M  V30 12961 C 1237.26 -0.828557 1.76522 0
M  V30 12962 O 1236.53 -1.59217 1.14135 0
M  V30 12963 H 1235.11 0.233667 0.709513 0
M  V30 12964 H 1237.77 1.23782 1.50545 0
M  V30 12965 H 1236.87 0.886915 2.99233 0
M  V30 12966 N 1237.17 -1.38817 0.746158 0
M  V30 12967 C 1238.12 -2.30521 0.113517 0
M  V30 12968 C 1239.09 -1.49795 -0.717682 0
M  V30 12969 O 1240.27 -1.78448 -0.675345 0
M  V30 12970 C 1237.41 -3.36185 -0.779343 0
M  V30 12971 C 1236.52 -4.3195 0.0656784 0
M  V30 12972 C 1235.66 -5.24684 -0.829492 0
M  V30 12973 C 1234.7 -6.12097 0.0196112 0
M  V30 12974 N 1233.84 -6.97152 -0.832107 0
M  V30 12975 H 1238.68 -2.84048 0.901136 0
M  V30 12976 H 1236.21 -1.39853 0.456025 0
M  V30 12977 H 1238.17 -3.96048 -1.31156 0
M  V30 12978 H 1236.8 -2.84085 -1.53282 0
M  V30 12979 H 1235.85 -3.73611 0.715445 0
M  V30 12980 H 1237.16 -4.93551 0.721735 0
M  V30 12981 H 1236.32 -5.89627 -1.42915 0
M  V30 12982 H 1235.06 -4.63431 -1.5193 0
M  V30 12983 H 1234.06 -5.46156 0.631991 0
M  V30 12984 H 1235.29 -6.75416 0.706369 0
M  V30 12985 H 1233.23 -6.38456 -1.507 0
M  V30 12986 H 1233.15 -7.55642 -0.232782 0
M  V30 12987 H 1234.42 -7.66513 -1.41697 0
M  V30 12988 N 1238.65 -0.49465 -1.49636 0
M  V30 12989 C 1239.9 0.0520143 -2.02033 0
M  V30 12990 C 1240.22 1.38071 -1.37701 0
M  V30 12991 O 1239.49 1.88589 -0.530181 0
M  V30 12992 H 1238.07 0.0222123 -0.74667 0
M  V30 12993 H 1240.73 -0.650445 -1.83726 0
M  V30 12994 H 1239.82 0.186337 -3.11543 0
M  V30 12995 N 1240.13 1.55939 -0.228214 0
M  V30 12996 C 1241.35 2.0332 0.409364 0
M  V30 12997 C 1241.78 1.10683 1.52088 0
M  V30 12998 O 1241.13 0.0962484 1.81044 0
M  V30 12999 C 1241.18 3.48877 0.911981 0
M  V30 13000 O 1240.29 3.59378 2.02289 0
M  V30 13001 H 1239.63 0.657625 0.0917909 0
M  V30 13002 H 1242.16 2.01605 -0.348802 0
M  V30 13003 H 1242.17 3.89331 1.22007 0
M  V30 13004 H 1240.84 4.15783 0.0984902 0
M  V30 13005 H 1239.42 3.30815 1.72093 0
M  V30 13006 N 1241.6 -0.0451101 1.57535 0
M  V30 13007 C 1242.57 -1.03521 2.0449 0
M  V30 13008 C 1243.57 -1.30009 0.946265 0
M  V30 13009 O 1244.76 -1.25282 1.21038 0
M  V30 13010 C 1241.89 -2.37221 2.44824 0
M  V30 13011 H 1243.08 -0.629943 2.93209 0
M  V30 13012 H 1240.64 -0.291544 1.53557 0
M  V30 13013 H 1241.37 -2.82528 1.59212 0
M  V30 13014 H 1241.16 -2.19329 3.25018 0
M  V30 13015 H 1242.65 -3.08337 2.81635 0
M  V30 13016 N 1243.08 -1.54377 -0.317073 0
M  V30 13017 C 1244.01 -1.8721 -1.39552 0
M  V30 13018 C 1244.99 -0.729483 -1.53664 0
M  V30 13019 O 1246.18 -0.983799 -1.67437 0
M  V30 13020 C 1243.31 -2.1052 -2.76222 0
M  V30 13021 C 1242.26 -3.26366 -2.76892 0
M  V30 13022 C 1241.59 -3.35061 -4.16699 0
M  V30 13023 C 1242.89 -4.63862 -2.40061 0
M  V30 13024 H 1244.58 -2.77532 -1.12323 0
M  V30 13025 H 1242.13 -1.33536 -0.538897 0
M  V30 13026 H 1244.08 -2.32073 -3.51739 0
M  V30 13027 H 1242.81 -1.16953 -3.04942 0
M  V30 13028 H 1241.46 -3.0471 -2.03831 0
M  V30 13029 H 1241.11 -2.39041 -4.4257 0
M  V30 13030 H 1240.81 -4.12923 -4.18053 0
M  V30 13031 H 1242.34 -3.58856 -4.94019 0
M  V30 13032 H 1243.75 -4.85252 -3.05292 0
M  V30 13033 H 1242.15 -5.44321 -2.52655 0
M  V30 13034 H 1243.22 -4.6567 -1.35202 0
M  V30 13035 N 1244.56 0.579466 -1.4656 0
M  V30 13036 C 1245.81 1.33492 -1.51738 0
M  V30 13037 C 1246.13 1.94241 -0.171926 0
M  V30 13038 O 1245.4 1.78737 0.801875 0
M  V30 13039 H 1243.98 0.49565 -0.558874 0
M  V30 13040 H 1246.64 0.678394 -1.82712 0
M  V30 13041 H 1245.74 2.13995 -2.27183 0
M  V30 13042 N 1246.04 1.3432 0.824371 0
M  V30 13043 C 1247.27 1.29669 1.61226 0
M  V30 13044 C 1247.68 -0.129532 1.88355 0
M  V30 13045 O 1247.04 -1.07616 1.47394 0
M  V30 13046 C 1247.09 2.08375 2.95402 0
M  V30 13047 O 1246.81 3.45434 2.69456 0
M  V30 13048 C 1248.31 2.11103 3.89808 0
M  V30 13049 H 1245.53 0.446137 0.501201 0
M  V30 13050 H 1248.08 1.76912 1.02579 0
M  V30 13051 H 1246.23 1.64777 3.5061 0
M  V30 13052 H 1246.64 3.86101 3.55001 0
M  V30 13053 H 1248.12 2.706 4.81124 0
M  V30 13054 H 1248.6 1.10505 4.25071 0
M  V30 13055 H 1249.2 2.54784 3.40537 0
M  V30 13056 N 1247.52 -1.0444 1.18026 0
M  V30 13057 C 1248.93 -1.5903 0.978076 0
M  V30 13058 C 1249.28 -1.90407 -0.473241 0
M  V30 13059 O 1248.4 -1.69133 -1.34992 0
M  V30 13060 C 1249 -2.88942 1.76912 0
M  V30 13061 C 1247.56 -3.40164 1.61139 0
M  V30 13062 C 1246.7 -2.13797 1.76596 0
M  V30 13063 H 1249.66 -0.871574 1.32625 0
M  V30 13064 H 1249.68 -3.59173 1.25598 0
M  V30 13065 H 1249.19 -2.66074 2.82535 0
M  V30 13066 H 1247.29 -3.68053 0.580353 0
M  V30 13067 H 1247.4 -4.14241 2.40709 0
M  V30 13068 H 1245.77 -2.24922 1.19507 0
M  V30 13069 H 1246.55 -1.93389 2.83647 0
M  V30 13070 N 1248.99 -0.981699 -1.2329 0
M  V30 13071 C 1249.96 -0.527992 -2.23036 0
M  V30 13072 C 1250.96 0.383083 -1.5617 0
M  V30 13073 O 1252.15 0.176595 -1.73303 0
M  V30 13074 C 1249.28 0.233501 -3.40099 0
M  V30 13075 H 1250.47 -1.40995 -2.64689 0
M  V30 13076 H 1248.03 -0.767724 -1.36146 0
M  V30 13077 H 1248.76 1.13194 -3.03904 0
M  V30 13078 H 1248.55 -0.420505 -3.89839 0
M  V30 13079 H 1250.04 0.539485 -4.14101 0
M  V30 13080 N 1250.47 1.3842 -0.753509 0
M  V30 13081 C 1251.44 2.28808 -0.134022 0
M  V30 13082 C 1252.44 1.47184 0.647583 0
M  V30 13083 O 1253.63 1.67631 0.473861 0
M  V30 13084 C 1250.76 3.30926 0.81858 0
M  V30 13085 H 1251.95 2.85097 -0.930586 0
M  V30 13086 H 1249.5 1.47378 -0.520514 0
M  V30 13087 H 1250.24 2.79728 1.64082 0
M  V30 13088 H 1250.02 3.91234 0.260526 0
M  V30 13089 H 1251.51 3.98515 1.24802 0
M  V30 13090 N 1251.95 0.502579 1.49372 0
M  V30 13091 C 1252.91 -0.263993 2.27675 0
M  V30 13092 C 1253.91 -0.892538 1.33755 0
M  V30 13093 O 1255.1 -0.756826 1.56901 0
M  V30 13094 C 1252.24 -1.37895 3.11765 0
M  V30 13095 H 1253.43 0.423132 2.969 0
M  V30 13096 H 1250.98 0.257595 1.54163 0
M  V30 13097 H 1251.72 -2.10018 2.47109 0
M  V30 13098 H 1251.5 -0.933694 3.80821 0
M  V30 13099 H 1252.99 -1.91889 3.70902 0
M  V30 13100 N 1253.43 -1.55816 0.23648 0
M  V30 13101 C 1254.34 -2.24576 -0.678439 0
M  V30 13102 C 1255.35 -1.25836 -1.20172 0
M  V30 13103 O 1256.53 -1.58686 -1.24019 0
M  V30 13104 C 1253.6 -2.92376 -1.86325 0
M  V30 13105 C 1252.66 -4.06499 -1.38047 0
M  V30 13106 C 1251.89 -4.71057 -2.50881 0
M  V30 13107 O 1252.11 -4.34652 -3.69369 0
M  V30 13108 O 1251.05 -5.59768 -2.21232 0
M  V30 13109 H 1254.87 -3.03452 -0.122601 0
M  V30 13110 H 1252.46 -1.49399 0.00540803 0
M  V30 13111 H 1254.34 -3.35117 -2.55488 0
M  V30 13112 H 1253.01 -2.16448 -2.40691 0
M  V30 13113 H 1251.92 -3.68296 -0.656422 0
M  V30 13114 H 1253.25 -4.84214 -0.883024 0
M  V30 13115 N 1254.91 0.036755 -1.57557 0
M  V30 13116 C 1256.32 0.584324 -1.7732 0
M  V30 13117 C 1256.67 1.76025 -0.86658 0
M  V30 13118 O 1255.79 2.16318 -0.059443 0
M  V30 13119 C 1256.39 1.06679 -3.21566 0
M  V30 13120 C 1254.95 1.55994 -3.42553 0
M  V30 13121 C 1254.09 0.494604 -2.72853 0
M  V30 13122 H 1257.05 -0.189473 -1.57565 0
M  V30 13123 H 1257.07 1.93446 -3.27657 0
M  V30 13124 H 1256.58 0.210727 -3.87527 0
M  V30 13125 H 1254.68 2.43811 -2.81757 0
M  V30 13126 H 1254.79 1.61274 -4.5114 0
M  V30 13127 H 1253.16 0.947865 -2.36406 0
M  V30 13128 H 1253.94 -0.351868 -3.41492 0
M  V30 13129 N 1256.39 1.54543 0.308881 0
M  V30 13130 C 1257.63 1.73706 1.04661 0
M  V30 13131 C 1257.96 0.517111 1.87189 0
M  V30 13132 O 1257.24 -0.485856 1.88334 0
M  V30 13133 C 1257.52 3.02141 1.95916 0
M  V30 13134 C 1257.38 4.34419 1.1662 0
M  V30 13135 C 1258.69 3.26401 2.95213 0
M  V30 13136 H 1255.81 0.63203 0.379087 0
M  V30 13137 H 1258.46 1.87253 0.321947 0
M  V30 13138 H 1256.61 2.90723 2.57706 0
M  V30 13139 H 1258.28 4.57743 0.571772 0
M  V30 13140 H 1256.52 4.3126 0.468747 0
M  V30 13141 H 1257.19 5.20535 1.83704 0
M  V30 13142 H 1259.67 3.37377 2.43549 0
M  V30 13143 H 1258.54 4.17597 3.56235 0
M  V30 13144 H 1258.8 2.44322 3.68455 0
M  V30 13145 N 1257.86 -0.571685 1.46866 0
M  V30 13146 C 1259.09 -1.35524 1.56336 0
M  V30 13147 C 1259.51 -1.87647 0.208359 0
M  V30 13148 O 1258.86 -1.64219 -0.796136 0
M  V30 13149 C 1258.91 -2.53518 2.57703 0
M  V30 13150 O 1258.64 -2.03552 3.87941 0
M  V30 13151 C 1260.14 -3.45925 2.77219 0
M  V30 13152 H 1257.36 -0.41363 0.528348 0
M  V30 13153 H 1259.9 -0.693943 1.92366 0
M  V30 13154 H 1258.06 -3.15615 2.24647 0
M  V30 13155 H 1258.47 -2.80476 4.43208 0
M  V30 13156 H 1259.94 -4.2517 3.52043 0
M  V30 13157 H 1260.42 -3.98559 1.8452 0
M  V30 13158 H 1261.03 -2.89655 3.11416 0
M  V30 13159 N 1259.34 -1.34755 -0.817236 0
M  V30 13160 C 1260.75 -1.24594 -1.39044 0
M  V30 13161 C 1261.1 0.126184 -1.95794 0
M  V30 13162 O 1260.23 1.02675 -1.90491 0
M  V30 13163 C 1260.82 -2.25592 -2.52772 0
M  V30 13164 C 1259.38 -2.19204 -3.05984 0
M  V30 13165 C 1258.53 -2.11884 -1.78886 0
M  V30 13166 H 1261.48 -1.46039 -0.621155 0
M  V30 13167 H 1261.5 -1.87622 -3.31026 0
M  V30 13168 H 1261.01 -3.25447 -2.11438 0
M  V30 13169 H 1259.11 -1.22725 -3.51809 0
M  V30 13170 H 1259.23 -3.10707 -3.64689 0
M  V30 13171 H 1257.59 -1.57694 -2.00012 0
M  V30 13172 H 1258.37 -3.13582 -1.39719 0
M  V30 13173 N 1260.82 1.03812 -1.18578 0
M  V30 13174 C 1262.05 1.80702 -1.00769 0
M  V30 13175 C 1262.46 1.83509 0.443833 0
M  V30 13176 O 1261.82 1.2724 1.30829 0
M  V30 13177 C 1261.87 3.26185 -1.55838 0
M  V30 13178 O 1261.59 3.23612 -2.95308 0
M  V30 13179 C 1263.09 4.1971 -1.42682 0
M  V30 13180 H 1260.31 0.568972 -0.355685 0
M  V30 13181 H 1262.86 1.30817 -1.57185 0
M  V30 13182 H 1261.01 3.73293 -1.03592 0
M  V30 13183 H 1261.43 4.14769 -3.2104 0
M  V30 13184 H 1262.9 5.19716 -1.86008 0
M  V30 13185 H 1263.38 4.37588 -0.375924 0
M  V30 13186 H 1263.98 3.78469 -1.94013 0
M  V30 13187 N 1262.3 0.988223 1.22768 0
M  V30 13188 C 1263.52 0.679426 1.95955 0
M  V30 13189 C 1263.95 -0.748483 1.72567 0
M  V30 13190 O 1263.31 -1.51097 1.00197 0
M  V30 13191 C 1263.35 0.985284 3.46878 0
M  V30 13192 O 1262.46 0.0814607 4.1232 0
M  V30 13193 H 1261.8 0.254749 0.613188 0
M  V30 13194 H 1264.33 1.32393 1.55991 0
M  V30 13195 H 1264.34 0.925198 3.97371 0
M  V30 13196 H 1263.01 2.02581 3.63227 0
M  V30 13197 H 1261.59 0.196629 3.72381 0
M  V30 13198 N 1263.78 -1.38018 0.760839 0
M  V30 13199 C 1264.72 -2.30387 0.13796 0
M  V30 13200 C 1265.69 -1.50548 -0.701754 0
M  V30 13201 O 1266.88 -1.79154 -0.656381 0
M  V30 13202 C 1264.02 -3.36993 -0.743642 0
M  V30 13203 C 1263.13 -4.31856 0.111489 0
M  V30 13204 C 1262.27 -5.25534 -0.773796 0
M  V30 13205 C 1261.3 -6.12042 0.0845311 0
M  V30 13206 N 1260.44 -6.97995 -0.758118 0
M  V30 13207 H 1265.28 -2.83077 0.931212 0
M  V30 13208 H 1262.82 -1.39361 0.470833 0
M  V30 13209 H 1264.78 -3.97417 -1.26948 0
M  V30 13210 H 1263.41 -2.85695 -1.50261 0
M  V30 13211 H 1262.46 -3.72832 0.755031 0
M  V30 13212 H 1263.77 -4.92758 0.774042 0
M  V30 13213 H 1262.92 -5.9111 -1.36653 0
M  V30 13214 H 1261.66 -4.65017 -1.47006 0
M  V30 13215 H 1260.67 -5.45455 0.689883 0
M  V30 13216 H 1261.89 -6.74629 0.777966 0
M  V30 13217 H 1259.84 -6.40018 -1.4392 0
M  V30 13218 H 1259.76 -7.55846 -0.152623 0
M  V30 13219 H 1261.02 -7.67973 -1.33559 0
M  V30 13220 N 1265.25 -0.510493 -1.49103 0
M  V30 13221 C 1266.22 0.251915 -2.27811 0
M  V30 13222 C 1267.22 0.885432 -1.34226 0
M  V30 13223 O 1268.41 0.748494 -1.573 0
M  V30 13224 C 1265.54 1.3624 -3.12492 0
M  V30 13225 H 1266.73 -0.438872 -2.96671 0
M  V30 13226 H 1264.28 -0.265767 -1.54024 0
M  V30 13227 H 1265.02 2.08705 -2.48219 0
M  V30 13228 H 1264.8 0.913485 -3.81311 0
M  V30 13229 H 1266.29 1.89919 -3.71915 0
M  V30 13230 N 1266.73 1.55688 -0.24474 0
M  V30 13231 C 1267.98 1.98498 0.379852 0
M  V30 13232 C 1268.3 1.13416 1.58625 0
M  V30 13233 O 1267.57 0.216456 1.947 0
M  V30 13234 H 1266.15 0.73312 0.143334 0
M  V30 13235 H 1268.81 1.91858 -0.343027 0
M  V30 13236 H 1267.91 3.04367 0.690463 0
M  V30 13237 N 1268.21 -0.0283989 1.57574 0
M  V30 13238 C 1269.43 -0.734537 1.93957 0
M  V30 13239 C 1269.86 -1.68062 0.844787 0
M  V30 13240 O 1269.22 -1.802 -0.199432 0
M  V30 13241 C 1269.27 -1.46716 3.29404 0
M  V30 13242 O 1268.37 -2.58036 3.217 0
M  V30 13243 H 1267.71 -0.197507 0.633946 0
M  V30 13244 H 1270.24 0.0163258 2.04593 0
M  V30 13245 H 1270.25 -1.83693 3.64309 0
M  V30 13246 H 1268.93 -0.773292 4.08648 0
M  V30 13247 H 1267.5 -2.23597 2.98427 0
M  V30 13248 N 1269.69 -1.54705 -0.300681 0
M  V30 13249 C 1270.94 -1.73658 -1.0338 0
M  V30 13250 C 1271.26 -0.525447 -1.87787 0
M  V30 13251 O 1270.53 0.460269 -1.90416 0
M  V30 13252 H 1269.11 -0.640338 -0.384677 0
M  V30 13253 H 1271.77 -1.92059 -0.331588 0
M  V30 13254 H 1270.86 -2.62595 -1.68672 0
M  V30 13255 N 1271.17 0.563888 -1.47167 0
M  V30 13256 C 1272.13 1.65359 -1.58711 0
M  V30 13257 C 1273.13 1.53999 -0.46272 0
M  V30 13258 O 1274.32 1.58277 -0.727595 0
M  V30 13259 C 1271.45 3.04874 -1.52529 0
M  V30 13260 H 1272.64 1.56475 -2.55843 0
M  V30 13261 H 1270.2 0.783271 -1.35257 0
M  V30 13262 H 1270.93 3.19297 -0.56747 0
M  V30 13263 H 1270.72 3.14528 -2.34125 0
M  V30 13264 H 1272.21 3.84164 -1.63731 0
M  V30 13265 N 1272.64 1.35187 0.810078 0
M  V30 13266 C 1274.06 1.25329 1.38381 0
M  V30 13267 C 1274.41 -0.115799 1.95858 0
M  V30 13268 O 1273.53 -1.01663 1.91033 0
M  V30 13269 C 1274.13 2.2693 2.51572 0
M  V30 13270 C 1272.69 2.20824 3.04818 0
M  V30 13271 C 1271.83 2.1283 1.7776 0
M  V30 13272 H 1274.78 1.46366 0.613402 0
M  V30 13273 H 1274.8 1.89375 3.30026 0
M  V30 13274 H 1274.32 3.26563 2.09709 0
M  V30 13275 H 1272.42 1.24589 3.51153 0
M  V30 13276 H 1272.53 3.12637 3.63036 0
M  V30 13277 H 1270.89 1.58752 1.99173 0
M  V30 13278 H 1271.68 3.14318 1.38054 0
M  V30 13279 N 1274.12 -1.03182 1.19127 0
M  V30 13280 C 1275.37 -1.76184 0.990134 0
M  V30 13281 C 1275.69 -1.88986 -0.480546 0
M  V30 13282 O 1274.96 -1.4213 -1.34817 0
M  V30 13283 H 1273.54 -0.652668 0.363364 0
M  V30 13284 H 1276.2 -1.24481 1.49968 0
M  V30 13285 H 1275.3 -2.77119 1.43568 0
M  V30 13286 N 1275.6 -0.99472 -1.22242 0
M  V30 13287 C 1276.85 -0.670275 -1.90661 0
M  V30 13288 C 1277.17 0.800369 -1.77818 0
M  V30 13289 O 1276.44 1.57381 -1.16653 0
M  V30 13290 H 1275.02 -0.244925 -0.705706 0
M  V30 13291 H 1277.68 -1.26162 -1.48557 0
M  V30 13292 H 1276.78 -0.934408 -2.97784 0
M  V30 13293 N 1277.08 1.37613 -0.768148 0
M  V30 13294 C 1278.31 2.04052 -0.342111 0
M  V30 13295 C 1278.72 1.57936 1.03449 0
M  V30 13296 O 1278.08 0.758981 1.65969 0
M  V30 13297 C 1278.13 3.5958 -0.372096 0
M  V30 13298 O 1277.85 4.04008 -1.69439 0
M  V30 13299 C 1279.35 4.43251 0.0659884 0
M  V30 13300 H 1276.57 0.655391 -0.143886 0
M  V30 13301 H 1279.12 1.76017 -1.04107 0
M  V30 13302 H 1277.27 3.86399 0.278248 0
M  V30 13303 H 1277.68 4.98511 -1.63054 0
M  V30 13304 H 1279.16 5.52 -0.00614775 0
M  V30 13305 H 1279.64 4.24788 1.11588 0
M  V30 13306 H 1280.24 4.2165 -0.55603 0
M  V30 13307 N 1278.56 0.518393 1.4883 0
M  V30 13308 C 1279.78 -0.0183131 2.07392 0
M  V30 13309 C 1280.21 -1.28468 1.37396 0
M  V30 13310 O 1279.56 -1.75975 0.436177 0
M  V30 13311 C 1279.61 -0.237211 3.59819 0
M  V30 13312 O 1278.72 -1.30835 3.91096 0
M  V30 13313 H 1278.06 0.0339621 0.663131 0
M  V30 13314 H 1280.59 0.722993 1.914 0
M  V30 13315 H 1280.6 -0.463424 4.0536 0
M  V30 13316 H 1279.27 0.687925 4.10171 0
M  V30 13317 H 1277.85 -1.06571 3.57347 0
M  V30 13318 N 1280.03 -1.55556 0.252993 0
M  V30 13319 C 1280.98 -2.21634 -0.643979 0
M  V30 13320 C 1281.95 -1.18226 -1.1667 0
M  V30 13321 O 1283.14 -1.46694 -1.22006 0
M  V30 13322 C 1280.28 -2.92429 -1.83246 0
M  V30 13323 C 1279.39 -4.10506 -1.34569 0
M  V30 13324 C 1278.52 -4.69001 -2.49421 0
M  V30 13325 C 1277.56 -5.79315 -1.97636 0
M  V30 13326 N 1276.7 -6.31967 -3.05878 0
M  V30 13327 H 1281.54 -2.97909 -0.0738178 0
M  V30 13328 H 1279.08 -1.47079 -0.0246728 0
M  V30 13329 H 1281.04 -3.31678 -2.53072 0
M  V30 13330 H 1279.67 -2.18617 -2.375 0
M  V30 13331 H 1278.72 -3.76529 -0.541268 0
M  V30 13332 H 1280.03 -4.90125 -0.92622 0
M  V30 13333 H 1279.18 -5.10855 -3.27279 0
M  V30 13334 H 1277.92 -3.88612 -2.94673 0
M  V30 13335 H 1276.93 -5.36933 -1.18251 0
M  V30 13336 H 1278.15 -6.6156 -1.53347 0
M  V30 13337 H 1276.1 -5.5448 -3.50553 0
M  V30 13338 H 1276.02 -7.06797 -2.68281 0
M  V30 13339 H 1277.28 -6.7848 -3.83777 0
M  V30 13340 N 1281.51 0.0200419 -1.57587 0
M  V30 13341 C 1282.76 0.707627 -1.89307 0
M  V30 13342 C 1283.08 1.7541 -0.851831 0
M  V30 13343 O 1282.35 1.95571 0.113404 0
M  V30 13344 H 1280.93 0.264349 -0.698662 0
M  V30 13345 H 1283.59 -0.0161428 -1.94893 0
M  V30 13346 H 1282.69 1.19152 -2.8846 0
M  V30 13347 N 1282.99 1.54862 0.292472 0
M  V30 13348 C 1284.4 1.65459 0.864891 0
M  V30 13349 C 1284.75 0.568808 1.87774 0
M  V30 13350 O 1283.88 -0.293107 2.14406 0
M  V30 13351 C 1284.47 2.99939 1.5755 0
M  V30 13352 C 1283.03 3.12628 2.09621 0
M  V30 13353 C 1282.18 2.61179 0.931713 0
M  V30 13354 H 1285.13 1.58549 0.0692679 0
M  V30 13355 H 1285.15 2.91839 2.44152 0
M  V30 13356 H 1284.66 3.78943 0.838088 0
M  V30 13357 H 1282.76 2.3836 2.86383 0
M  V30 13358 H 1282.88 4.18911 2.32488 0
M  V30 13359 H 1281.24 2.17846 1.31967 0
M  V30 13360 H 1282.02 3.42669 0.208121 0
M  V30 13361 N 1284.47 -0.556076 1.47464 0
M  V30 13362 C 1285.43 -1.64515 1.59586 0
M  V30 13363 C 1286.43 -1.53751 0.470881 0
M  V30 13364 O 1287.62 -1.57889 0.735979 0
M  V30 13365 C 1284.75 -3.0406 1.54143 0
M  V30 13366 H 1285.95 -1.55116 2.56669 0
M  V30 13367 H 1283.5 -0.776087 1.35671 0
M  V30 13368 H 1284.23 -3.18991 0.584395 0
M  V30 13369 H 1284.02 -3.13282 2.3579 0
M  V30 13370 H 1285.51 -3.8329 1.65766 0
M  V30 13371 N 1285.95 -1.35615 -0.802897 0
M  V30 13372 C 1286.86 -1.3096 -1.94645 0
M  V30 13373 C 1287.87 -0.213909 -1.7268 0
M  V30 13374 O 1289.05 -0.443932 -1.96446 0
M  V30 13375 C 1286.11 -1.08483 -3.2929 0
M  V30 13376 C 1285.18 -2.27401 -3.64126 0
M  V30 13377 C 1284.41 -2.05987 -4.92347 0
M  V30 13378 O 1284.63 -1.02819 -5.61057 0
M  V30 13379 O 1283.57 -2.93439 -5.25526 0
M  V30 13380 H 1287.39 -2.27209 -2.01519 0
M  V30 13381 H 1284.98 -1.16024 -0.941214 0
M  V30 13382 H 1286.86 -0.978118 -4.09891 0
M  V30 13383 H 1285.53 -0.152885 -3.23339 0
M  V30 13384 H 1284.44 -2.43638 -2.83886 0
M  V30 13385 H 1285.77 -3.19055 -3.74786 0
M  V30 13386 N 1287.43 1.02549 -1.19673 0
M  V30 13387 C 1288.34 2.14373 -0.952972 0
M  V30 13388 C 1289.35 1.73776 0.0881727 0
M  V30 13389 O 1290.53 2.01165 -0.0972471 0
M  V30 13390 C 1287.59 3.43096 -0.498569 0
M  V30 13391 C 1286.65 3.97987 -1.60951 0
M  V30 13392 C 1285.89 5.20567 -1.17669 0
M  V30 13393 O 1286.11 5.70385 -0.0416636 0
M  V30 13394 O 1285.04 5.6838 -1.98059 0
M  V30 13395 H 1288.87 2.378 -1.88904 0
M  V30 13396 H 1286.45 1.12781 -0.979836 0
M  V30 13397 H 1288.34 4.20634 -0.253968 0
M  V30 13398 H 1287.01 3.21105 0.409018 0
M  V30 13399 H 1285.92 3.21768 -1.90829 0
M  V30 13400 H 1287.25 4.24349 -2.49377 0
M  V30 13401 N 1288.9 1.00119 1.21713 0
M  V30 13402 C 1290.13 0.700172 1.95224 0
M  V30 13403 C 1290.55 -0.730138 1.73351 0
M  V30 13404 O 1289.91 -1.50026 1.01794 0
M  V30 13405 C 1289.96 1.02202 3.45814 0
M  V30 13406 O 1289.06 0.125188 4.1221 0
M  V30 13407 H 1288.4 0.261238 0.610451 0
M  V30 13408 H 1290.93 1.34041 1.54578 0
M  V30 13409 H 1290.94 0.967293 3.96368 0
M  V30 13410 H 1289.62 2.06422 3.61058 0
M  V30 13411 H 1288.2 0.236114 3.72152 0
M  V30 13412 N 1290.38 -1.37203 0.775435 0
M  V30 13413 C 1291.8 -1.52962 0.455488 0
M  V30 13414 C 1292 -1.73284 -1.02834 0
M  V30 13415 O 1291.05 -1.75631 -1.81411 0
M  V30 13416 C 1292.37 -2.72389 1.27377 0
M  V30 13417 C 1293.91 -2.86252 1.26604 0
M  V30 13418 C 1294.39 -4.08666 2.06775 0
M  V30 13419 N 1295.88 -4.15786 2.04148 0
M  V30 13420 C 1296.62 -5.09548 2.6296 0
M  V30 13421 N 1296.11 -6.08845 3.30574 0
M  V30 13422 N 1297.9 -5.02059 2.5277 0
M  V30 13423 H 1290.06 -1.22265 1.73681 0
M  V30 13424 H 1292.32 -0.595638 0.737509 0
M  V30 13425 H 1292.02 -2.63849 2.32544 0
M  V30 13426 H 1291.9 -3.66171 0.905467 0
M  V30 13427 H 1294.29 -2.94261 0.222345 0
M  V30 13428 H 1294.37 -1.93418 1.67401 0
M  V30 13429 H 1294.01 -4.01419 3.11168 0
M  V30 13430 H 1293.94 -5.00621 1.63358 0
M  V30 13431 H 1296.43 -3.44683 1.54926 0
M  V30 13432 H 1296.74 -6.76926 3.72815 0
M  V30 13433 H 1295.09 -6.09113 3.34674 0
M  V30 13434 H 1298.28 -4.23431 1.99559 0
M  V30 13435 H 1298.45 -5.74947 2.98898 0
M  V30 13436 N 1291.86 -0.526279 -1.48553 0
M  V30 13437 C 1293.11 0.00918008 -2.02798 0
M  V30 13438 C 1293.44 1.34284 -1.4029 0
M  V30 13439 O 1292.71 1.86639 -0.547355 0
M  V30 13440 C 1293 0.135102 -3.59846 0
M  V30 13441 C 1292.85 -1.22347 -4.32841 0
M  V30 13442 C 1294.17 0.863673 -4.31542 0
M  V30 13443 H 1291.29 0.00186216 -0.736998 0
M  V30 13444 H 1293.93 -0.682591 -1.77315 0
M  V30 13445 H 1292.08 0.724279 -3.81689 0
M  V30 13446 H 1293.75 -1.85347 -4.22427 0
M  V30 13447 H 1291.99 -1.80631 -3.94405 0
M  V30 13448 H 1292.67 -1.08839 -5.41164 0
M  V30 13449 H 1295.14 0.363734 -4.14507 0
M  V30 13450 H 1294.02 0.92067 -5.41124 0
M  V30 13451 H 1294.28 1.91313 -3.98562 0
M  V30 13452 N 1293.34 1.5542 -0.261239 0
M  V30 13453 C 1294.75 1.59327 0.0932655 0
M  V30 13454 C 1294.95 1.27846 1.55748 0
M  V30 13455 O 1294.01 1.03265 2.30418 0
M  V30 13456 C 1295.32 2.99496 -0.268856 0
M  V30 13457 C 1296.87 3.12265 -0.21433 0
M  V30 13458 C 1297.35 4.54677 -0.55069 0
M  V30 13459 N 1298.84 4.60475 -0.501723 0
M  V30 13460 C 1299.57 5.6867 -0.734961 0
M  V30 13461 N 1299.07 6.85069 -1.03209 0
M  V30 13462 N 1300.86 5.58156 -0.664696 0
M  V30 13463 H 1293.01 1.7415 -1.21595 0
M  V30 13464 H 1295.27 0.811382 -0.490268 0
M  V30 13465 H 1294.98 3.2732 -1.28664 0
M  V30 13466 H 1294.85 3.75104 0.397097 0
M  V30 13467 H 1297.24 2.84213 0.794148 0
M  V30 13468 H 1297.32 2.389 -0.914342 0
M  V30 13469 H 1296.97 4.83453 -1.55679 0
M  V30 13470 H 1296.9 5.26322 0.170959 0
M  V30 13471 H 1299.39 3.76851 -0.281387 0
M  V30 13472 H 1299.7 7.63472 -1.19709 0
M  V30 13473 H 1298.05 6.86718 -1.06971 0
M  V30 13474 H 1301.24 4.66098 -0.432513 0
M  V30 13475 H 1301.41 6.42403 -0.849857 0
M  V30 13476 N 1294.82 -0.0116844 1.57596 0
M  V30 13477 C 1296.23 -0.367602 1.55309 0
M  V30 13478 C 1296.43 -1.75524 0.98962 0
M  V30 13479 O 1295.49 -2.44813 0.618289 0
M  V30 13480 C 1296.8 -0.253532 2.99629 0
M  V30 13481 C 1298.35 -0.329335 3.11263 0
M  V30 13482 C 1298.82 -0.24452 4.57347 0
M  V30 13483 N 1300.31 -0.302782 4.62209 0
M  V30 13484 C 1301.05 -0.260315 5.72809 0
M  V30 13485 N 1300.55 -0.169124 6.92594 0
M  V30 13486 N 1302.34 -0.311323 5.61237 0
M  V30 13487 H 1294.49 0.896204 1.92567 0
M  V30 13488 H 1296.75 0.342445 0.883988 0
M  V30 13489 H 1296.46 0.70074 3.44648 0
M  V30 13490 H 1296.33 -1.04029 3.62571 0
M  V30 13491 H 1298.72 -1.27405 2.66181 0
M  V30 13492 H 1298.8 0.487084 2.5112 0
M  V30 13493 H 1298.44 0.696597 5.031 0
M  V30 13494 H 1298.37 -1.07927 5.15421 0
M  V30 13495 H 1300.87 -0.375067 3.76034 0
M  V30 13496 H 1301.18 -0.142296 7.72669 0
M  V30 13497 H 1299.52 -0.134919 6.94869 0
M  V30 13498 H 1302.71 -0.380678 4.6655 0
M  V30 13499 H 1302.89 -0.274761 6.47417 0
M  V30 13500 N 1296.29 -1.55015 -0.284256 0
M  V30 13501 C 1297.24 -1.83508 -1.3531 0
M  V30 13502 C 1298.23 -0.693244 -1.452 0
M  V30 13503 O 1299.42 -0.954312 -1.4907 0
M  V30 13504 C 1296.55 -2.10059 -2.71533 0
M  V30 13505 C 1295.63 -3.30472 -2.65799 0
M  V30 13506 N 1296.03 -4.50644 -2.29682 0
M  V30 13507 C 1294.32 -3.32836 -2.96878 0
M  V30 13508 C 1295.02 -5.32708 -2.33661 0
M  V30 13509 N 1294 -4.70837 -2.71687 0
M  V30 13510 H 1297.8 -2.73973 -1.06377 0
M  V30 13511 H 1295.32 -1.5474 -0.492875 0
M  V30 13512 H 1297.31 -2.28624 -3.48621 0
M  V30 13513 H 1295.97 -1.20872 -3.01364 0
M  V30 13514 H 1296.98 -4.76945 -2.0185 0
M  V30 13515 H 1293.66 -2.53807 -3.31494 0
M  V30 13516 H 1295.05 -6.38766 -2.08394 0
M  V30 13517 N 1297.77 0.548248 -1.47757 0
M  V30 13518 C 1298.72 1.65453 -1.60916 0
M  V30 13519 C 1299.69 1.59836 -0.451831 0
M  V30 13520 O 1300.87 1.78536 -0.673023 0
M  V30 13521 C 1298.01 3.0376 -1.6378 0
M  V30 13522 C 1297.13 3.19747 -2.90492 0
M  V30 13523 C 1296.26 4.48505 -2.84635 0
M  V30 13524 C 1295.3 4.57956 -4.06132 0
M  V30 13525 N 1294.44 5.78079 -3.98458 0
M  V30 13526 H 1299.28 1.53545 -2.55398 0
M  V30 13527 H 1296.81 0.747826 -1.26673 0
M  V30 13528 H 1298.77 3.8386 -1.63424 0
M  V30 13529 H 1297.4 3.14483 -0.728036 0
M  V30 13530 H 1296.45 2.3302 -3.00676 0
M  V30 13531 H 1297.77 3.22594 -3.8044 0
M  V30 13532 H 1296.92 5.36875 -2.82577 0
M  V30 13533 H 1295.66 4.48151 -1.92385 0
M  V30 13534 H 1294.66 3.67995 -4.08484 0
M  V30 13535 H 1295.89 4.60062 -4.9952 0
M  V30 13536 H 1293.84 5.78657 -3.09017 0
M  V30 13537 H 1293.75 5.82342 -4.82093 0
M  V30 13538 H 1295.02 6.68786 -4.00431 0
M  V30 13539 N 1299.25 1.36039 0.795694 0
M  V30 13540 C 1300.2 1.26386 1.89765 0
M  V30 13541 C 1301.18 0.156711 1.60135 0
M  V30 13542 O 1302.38 0.388946 1.72674 0
M  V30 13543 C 1299.5 1.04907 3.26878 0
M  V30 13544 C 1298.59 2.20061 3.62538 0
M  V30 13545 N 1298.98 3.45347 3.69553 0
M  V30 13546 C 1297.28 2.11688 3.92561 0
M  V30 13547 C 1297.98 4.21138 4.0127 0
M  V30 13548 N 1296.96 3.5001 4.15925 0
M  V30 13549 H 1300.76 2.21295 1.93405 0
M  V30 13550 H 1298.27 1.28668 0.990877 0
M  V30 13551 H 1300.27 0.960791 4.05678 0
M  V30 13552 H 1298.93 0.108921 3.24517 0
M  V30 13553 H 1299.94 3.79561 3.52355 0
M  V30 13554 H 1296.62 1.25592 3.98162 0
M  V30 13555 H 1298.01 5.29456 4.13673 0
M  V30 13556 N 1300.73 -1.01913 1.20215 0
M  V30 13557 C 1301.95 -1.79613 1.03702 0
M  V30 13558 C 1302.38 -1.83591 -0.409374 0
M  V30 13559 O 1301.74 -1.26911 -1.29473 0
M  V30 13560 C 1301.78 -3.22052 1.62219 0
M  V30 13561 O 1300.89 -4.03374 0.858106 0
M  V30 13562 H 1300.23 -0.554095 0.365889 0
M  V30 13563 H 1302.76 -1.28203 1.59452 0
M  V30 13564 H 1302.77 -3.72772 1.65847 0
M  V30 13565 H 1301.44 -3.18471 2.67487 0
M  V30 13566 H 1300.02 -3.6198 0.895835 0
M  V30 13567 N 1302.21 -1.00763 -1.2118 0
M  V30 13568 C 1303.43 -0.710515 -1.9485 0
M  V30 13569 C 1303.86 0.720934 -1.73736 0
M  V30 13570 O 1303.21 1.49484 -1.02588 0
M  V30 13571 C 1303.26 -1.04035 -3.45267 0
M  V30 13572 O 1302.37 -0.147047 -4.12138 0
M  V30 13573 H 1301.71 -0.264472 -0.609057 0
M  V30 13574 H 1304.24 -1.34858 -1.53865 0
M  V30 13575 H 1304.25 -0.9883 -3.95849 0
M  V30 13576 H 1302.92 -2.08334 -3.59958 0
M  V30 13577 H 1301.5 -0.255847 -3.72021 0
M  V30 13578 N 1303.68 1.3679 -0.7827 0
M  V30 13579 C 1304.59 2.33928 -0.17747 0
M  V30 13580 C 1305.61 1.60716 0.666802 0
M  V30 13581 O 1306.79 1.92742 0.584162 0
M  V30 13582 C 1303.85 3.39907 0.68294 0
M  V30 13583 C 1302.91 4.28926 -0.179053 0
M  V30 13584 C 1302.15 5.29844 0.640386 0
M  V30 13585 O 1302.37 5.38639 1.87681 0
M  V30 13586 O 1301.3 6.01884 0.0438164 0
M  V30 13587 H 1305.13 2.87439 -0.980441 0
M  V30 13588 H 1302.71 1.39142 -0.54404 0
M  V30 13589 H 1304.6 4.04722 1.17379 0
M  V30 13590 H 1303.27 2.88706 1.46391 0
M  V30 13591 H 1302.18 3.67174 -0.716512 0
M  V30 13592 H 1303.51 4.83461 -0.923377 0
M  V30 13593 N 1305.16 0.53415 1.48272 0
M  V30 13594 C 1306.39 0.00368464 2.074 0
M  V30 13595 C 1306.81 -1.27003 1.38751 0
M  V30 13596 O 1306.17 -1.75502 0.454817 0
M  V30 13597 C 1306.22 -0.199034 3.6005 0
M  V30 13598 O 1305.32 -1.26679 3.92462 0
M  V30 13599 H 1304.66 0.0409936 0.662733 0
M  V30 13600 H 1307.19 0.743253 1.90622 0
M  V30 13601 H 1307.2 -0.420404 4.05828 0
M  V30 13602 H 1305.88 0.731391 4.09418 0
M  V30 13603 H 1304.46 -1.02775 3.58457 0
M  V30 13604 N 1306.64 -1.55279 0.269478 0
M  V30 13605 C 1308.05 -1.85286 -0.229372 0
M  V30 13606 C 1308.4 -1.19148 -1.55879 0
M  V30 13607 O 1307.53 -0.4778 -2.11059 0
M  V30 13608 C 1308.12 -3.3615 -0.42296 0
M  V30 13609 C 1306.68 -3.66301 -0.866047 0
M  V30 13610 C 1305.83 -2.77265 0.0439028 0
M  V30 13611 H 1308.78 -1.509 0.491427 0
M  V30 13612 H 1308.8 -3.5895 -1.26234 0
M  V30 13613 H 1308.31 -3.84258 0.544768 0
M  V30 13614 H 1306.41 -3.23688 -1.84545 0
M  V30 13615 H 1306.53 -4.73851 -0.707274 0
M  V30 13616 H 1304.89 -2.50299 -0.471433 0
M  V30 13617 H 1305.67 -3.28186 1.00741 0
M  V30 13618 N 1308.12 0.00332656 -1.576 0
M  V30 13619 C 1309.37 0.687508 -1.90047 0
M  V30 13620 C 1309.69 1.74497 -0.870388 0
M  V30 13621 O 1308.96 1.95681 0.0926544 0
M  V30 13622 H 1307.54 0.256924 -0.701426 0
M  V30 13623 H 1310.2 -0.0368129 -1.94865 0
M  V30 13624 H 1309.3 1.16086 -2.89707 0
M  V30 13625 N 1309.6 1.55164 0.276031 0
M  V30 13626 C 1311.01 1.46936 0.623061 0
M  V30 13627 C 1311.21 0.680977 1.89644 0
M  V30 13628 O 1310.27 0.198618 2.51718 0
M  V30 13629 C 1311.58 2.91123 0.752839 0
M  V30 13630 C 1313.13 3.01319 0.847093 0
M  V30 13631 C 1313.6 4.46755 1.00867 0
M  V30 13632 N 1315.1 4.5057 1.07427 0
M  V30 13633 C 1315.83 5.60314 1.21804 0
M  V30 13634 N 1315.33 6.7993 1.32919 0
M  V30 13635 N 1317.12 5.4805 1.2489 0
M  V30 13636 H 1309.27 2.04877 -0.560282 0
M  V30 13637 H 1311.53 0.928925 -0.189217 0
M  V30 13638 H 1311.24 3.51521 -0.112333 0
M  V30 13639 H 1311.11 3.39967 1.63408 0
M  V30 13640 H 1313.5 2.41021 1.70274 0
M  V30 13641 H 1313.58 2.55733 -0.0586896 0
M  V30 13642 H 1313.23 5.07655 0.1577 0
M  V30 13643 H 1313.16 4.89995 1.92906 0
M  V30 13644 H 1315.65 3.64404 1.00089 0
M  V30 13645 H 1315.96 7.59319 1.43714 0
M  V30 13646 H 1314.3 6.82747 1.29929 0
M  V30 13647 H 1317.5 4.53542 1.15834 0
M  V30 13648 H 1317.67 6.33621 1.3575 0
M  V30 13649 N 1311.07 -0.540404 1.48045 0
M  V30 13650 C 1312.35 -1.30148 1.46017 0
M  V30 13651 C 1312.73 -2.10445 0.166171 0
M  V30 13652 O 1312.08 -2.12013 -0.852223 0
M  V30 13653 C 1312.29 -2.19177 2.71593 0
M  V30 13654 C 1313.64 -2.79655 3.19497 0
M  V30 13655 O 1314.66 -2.2947 2.72437 0
M  V30 13656 O 1313.52 -3.70912 4.01356 0
M  V30 13657 H 1310.61 -0.586879 0.582668 0
M  V30 13658 H 1313.16 -0.557918 1.60267 0
M  V30 13659 H 1311.93 -1.59556 3.57292 0
M  V30 13660 H 1311.56 -3.00798 2.60012 0
M  V30 13661 N 1312.55 -1.36459 -0.788468 0
M  V30 13662 C 1313.5 -1.30863 -1.90115 0
M  V30 13663 C 1314.47 -0.177148 -1.65153 0
M  V30 13664 O 1315.65 -0.363817 -1.87299 0
M  V30 13665 C 1312.79 -1.10473 -3.2694 0
M  V30 13666 C 1311.91 -2.32704 -3.63968 0
M  V30 13667 C 1311.04 -2.05319 -4.89916 0
M  V30 13668 C 1310.08 -3.23506 -5.19625 0
M  V30 13669 N 1309.22 -2.9578 -6.36756 0
M  V30 13670 H 1314.06 -2.26003 -1.94233 0
M  V30 13671 H 1311.6 -1.12324 -0.949827 0
M  V30 13672 H 1313.55 -0.966773 -4.05844 0
M  V30 13673 H 1312.18 -0.189873 -3.22241 0
M  V30 13674 H 1311.24 -2.573 -2.8018 0
M  V30 13675 H 1312.55 -3.20899 -3.81871 0
M  V30 13676 H 1311.7 -1.88459 -5.76687 0
M  V30 13677 H 1310.44 -1.14437 -4.74084 0
M  V30 13678 H 1309.45 -3.40924 -4.31336 0
M  V30 13679 H 1310.67 -4.15216 -5.37376 0
M  V30 13680 H 1308.62 -2.0751 -6.22315 0
M  V30 13681 H 1308.53 -3.77513 -6.54996 0
M  V30 13682 H 1309.8 -2.825 -7.26508 0
M  V30 13683 N 1314.03 1.01274 -1.20754 0
M  V30 13684 C 1315.28 1.74586 -1.01804 0
M  V30 13685 C 1315.6 1.89727 0.450419 0
M  V30 13686 O 1314.87 1.44257 1.32539 0
M  V30 13687 H 1313.45 0.646804 -0.373702 0
M  V30 13688 H 1316.11 1.22079 -1.5193 0
M  V30 13689 H 1315.21 2.748 -1.47958 0
M  V30 13690 N 1315.51 1.01404 1.20644 0
M  V30 13691 C 1316.46 0.582109 2.23339 0
M  V30 13692 C 1317.43 -0.39649 1.61298 0
M  V30 13693 O 1318.61 -0.296504 1.88482 0
M  V30 13694 C 1315.75 -0.076029 3.45016 0
M  V30 13695 C 1314.86 0.946829 4.21496 0
M  V30 13696 C 1314 0.26001 5.30563 0
M  V30 13697 C 1313.04 1.2698 5.98784 0
M  V30 13698 N 1312.18 0.609827 6.99447 0
M  V30 13699 H 1317.02 1.46248 2.59645 0
M  V30 13700 H 1314.55 0.732145 1.27585 0
M  V30 13701 H 1316.51 -0.474714 4.1449 0
M  V30 13702 H 1315.14 -0.920062 3.0941 0
M  V30 13703 H 1314.19 1.4637 3.51113 0
M  V30 13704 H 1315.5 1.71491 4.68393 0
M  V30 13705 H 1314.66 -0.19431 6.06389 0
M  V30 13706 H 1313.4 -0.540395 4.84697 0
M  V30 13707 H 1312.4 1.73453 5.21722 0
M  V30 13708 H 1313.63 2.07144 6.46737 0
M  V30 13709 H 1311.57 -0.170756 6.55778 0
M  V30 13710 H 1311.49 1.31601 7.44458 0
M  V30 13711 H 1312.76 0.179014 7.79294 0
M  V30 13712 N 1316.99 -1.36373 0.789944 0
M  V30 13713 C 1317.92 -2.32616 0.202944 0
M  V30 13714 C 1318.9 -1.56674 -0.662364 0
M  V30 13715 O 1320.08 -1.84826 -0.596078 0
M  V30 13716 C 1317.21 -3.4092 -0.662646 0
M  V30 13717 C 1316.17 -4.27877 0.102811 0
M  V30 13718 C 1315.49 -5.27352 -0.883407 0
M  V30 13719 C 1316.79 -5.0606 1.29231 0
M  V30 13720 H 1318.49 -2.81958 1.00699 0
M  V30 13721 H 1316.03 -1.35562 0.48568 0
M  V30 13722 H 1317.99 -4.07239 -1.08324 0
M  V30 13723 H 1316.71 -2.90147 -1.4994 0
M  V30 13724 H 1315.37 -3.63114 0.504389 0
M  V30 13725 H 1315.02 -4.72853 -1.71521 0
M  V30 13726 H 1314.72 -5.86398 -0.375669 0
M  V30 13727 H 1316.24 -5.96545 -1.30256 0
M  V30 13728 H 1317.66 -5.65417 0.947446 0
M  V30 13729 H 1316.05 -5.74521 1.73338 0
M  V30 13730 H 1317.12 -4.37671 2.08739 0
M  V30 13731 N 1318.47 -0.542005 -1.47987 0
M  V30 13732 C 1319.69 -0.0146835 -2.07395 0
M  V30 13733 C 1320.12 1.26266 -1.39422 0
M  V30 13734 O 1319.47 1.75259 -0.464118 0
M  V30 13735 C 1319.52 0.179937 -3.60151 0
M  V30 13736 O 1318.63 1.24596 -3.93128 0
M  V30 13737 H 1317.97 -0.0445076 -0.662507 0
M  V30 13738 H 1320.5 -0.753352 -1.90226 0
M  V30 13739 H 1320.51 0.398876 -4.06046 0
M  V30 13740 H 1319.18 -0.753093 -4.09025 0
M  V30 13741 H 1317.76 1.00872 -3.58997 0
M  V30 13742 N 1319.94 1.55134 -0.277709 0
M  V30 13743 C 1321.36 1.59417 0.0763615 0
M  V30 13744 C 1321.56 1.29491 1.54384 0
M  V30 13745 O 1320.62 1.05703 2.2931 0
M  V30 13746 C 1321.93 2.99194 -0.300607 0
M  V30 13747 C 1323.48 3.1202 -0.247438 0
M  V30 13748 C 1323.95 4.54068 -0.598884 0
M  V30 13749 N 1325.44 4.59917 -0.550534 0
M  V30 13750 C 1326.18 5.67859 -0.795235 0
M  V30 13751 N 1325.67 6.83936 -1.10469 0
M  V30 13752 N 1327.47 5.5742 -0.723859 0
M  V30 13753 H 1319.62 1.72851 -1.23435 0
M  V30 13754 H 1321.88 0.806137 -0.498846 0
M  V30 13755 H 1321.59 3.25937 -1.32129 0
M  V30 13756 H 1321.46 3.75504 0.35729 0
M  V30 13757 H 1323.85 2.8504 0.763959 0
M  V30 13758 H 1323.93 2.37917 -0.939629 0
M  V30 13759 H 1323.57 4.81774 -1.60798 0
M  V30 13760 H 1323.5 5.26474 0.115126 0
M  V30 13761 H 1325.99 3.76531 -0.321341 0
M  V30 13762 H 1326.31 7.62159 -1.278 0
M  V30 13763 H 1324.65 6.85545 -1.14249 0
M  V30 13764 H 1327.84 4.65613 -0.481925 0
M  V30 13765 H 1328.02 6.41465 -0.917944 0
M  V30 13766 N 1321.42 0.00503138 1.57599 0
M  V30 13767 C 1322.35 -0.983586 2.11773 0
M  V30 13768 C 1323.33 -1.35518 1.02805 0
M  V30 13769 O 1324.52 -1.43804 1.30514 0
M  V30 13770 C 1321.65 -2.27383 2.62515 0
M  V30 13771 C 1320.6 -2.0437 3.76054 0
M  V30 13772 C 1319.93 -3.39451 4.1313 0
M  V30 13773 C 1321.23 -1.40223 5.03125 0
M  V30 13774 H 1322.92 -0.532501 2.94627 0
M  V30 13775 H 1320.47 -0.254696 1.4173 0
M  V30 13776 H 1322.42 -2.96903 2.99043 0
M  V30 13777 H 1321.14 -2.74614 1.7679 0
M  V30 13778 H 1319.8 -1.37275 3.39928 0
M  V30 13779 H 1319.45 -3.84395 3.24422 0
M  V30 13780 H 1319.15 -3.24868 4.89627 0
M  V30 13781 H 1320.68 -4.10279 4.52221 0
M  V30 13782 H 1322.09 -1.99708 5.37392 0
M  V30 13783 H 1320.49 -1.36112 5.8446 0
M  V30 13784 H 1321.56 -0.372073 4.8347 0
M  V30 13785 N 1322.9 -1.55308 -0.267798 0
M  V30 13786 C 1323.85 -1.88544 -1.33115 0
M  V30 13787 C 1324.82 -0.737465 -1.48831 0
M  V30 13788 O 1326 -0.989215 -1.63154 0
M  V30 13789 C 1323.14 -2.1674 -2.68547 0
M  V30 13790 C 1322.25 -3.44234 -2.61011 0
M  V30 13791 C 1321.39 -3.62104 -3.88657 0
M  V30 13792 C 1320.43 -4.83272 -3.75652 0
M  V30 13793 N 1319.57 -4.97772 -4.95144 0
M  V30 13794 H 1324.41 -2.79237 -1.04071 0
M  V30 13795 H 1321.94 -1.38245 -0.502677 0
M  V30 13796 H 1323.9 -2.31088 -3.47353 0
M  V30 13797 H 1322.53 -1.29276 -2.95783 0
M  V30 13798 H 1321.58 -3.3833 -1.73887 0
M  V30 13799 H 1322.89 -4.33177 -2.47303 0
M  V30 13800 H 1322.05 -3.76298 -4.75904 0
M  V30 13801 H 1320.79 -2.71356 -4.05238 0
M  V30 13802 H 1319.79 -4.69076 -2.86788 0
M  V30 13803 H 1321.02 -5.75461 -3.60585 0
M  V30 13804 H 1318.96 -4.09956 -5.12125 0
M  V30 13805 H 1318.88 -5.80769 -4.83987 0
M  V30 13806 H 1320.15 -5.16357 -5.83949 0
M  V30 13807 N 1324.38 0.532545 -1.4833 0
M  V30 13808 C 1325.79 1.11451 -1.49785 0
M  V30 13809 C 1326.14 1.94386 -0.266207 0
M  V30 13810 O 1325.26 2.07121 0.62688 0
M  V30 13811 C 1325.86 2.0279 -2.71407 0
M  V30 13812 C 1324.42 2.56209 -2.75742 0
M  V30 13813 C 1323.57 1.33114 -2.43261 0
M  V30 13814 H 1326.52 0.317924 -1.55483 0
M  V30 13815 H 1326.54 2.87038 -2.49779 0
M  V30 13816 H 1326.05 1.42401 -3.61031 0
M  V30 13817 H 1324.15 3.20327 -1.9032 0
M  V30 13818 H 1324.26 2.95518 -3.77102 0
M  V30 13819 H 1322.63 1.64607 -1.94362 0
M  V30 13820 H 1323.41 0.744809 -3.35123 0
M  V30 13821 N 1325.86 1.36875 0.78122 0
M  V30 13822 C 1326.82 1.31706 1.8758 0
M  V30 13823 C 1327.82 0.223044 1.59246 0
M  V30 13824 O 1329.01 0.478327 1.67504 0
M  V30 13825 C 1326.14 1.0437 3.2453 0
M  V30 13826 H 1327.33 2.29059 1.93576 0
M  V30 13827 H 1324.89 1.21766 0.979931 0
M  V30 13828 H 1325.62 0.0750941 3.24213 0
M  V30 13829 H 1325.41 1.83548 3.46486 0
M  V30 13830 H 1326.9 1.0338 4.04602 0
M  V30 13831 N 1327.33 -1.00632 1.21289 0
M  V30 13832 C 1328.74 -1.55838 1.02817 0
M  V30 13833 C 1329.1 -1.91816 -0.412425 0
M  V30 13834 O 1328.22 -1.73342 -1.29543 0
M  V30 13835 C 1328.82 -2.83168 1.86014 0
M  V30 13836 C 1327.37 -3.34865 1.71879 0
M  V30 13837 C 1326.52 -2.0807 1.83309 0
M  V30 13838 H 1329.47 -0.828939 1.3533 0
M  V30 13839 H 1329.49 -3.54996 1.36961 0
M  V30 13840 H 1329.01 -2.56951 2.90857 0
M  V30 13841 H 1327.11 -3.6602 0.697153 0
M  V30 13842 H 1327.22 -4.06374 2.53766 0
M  V30 13843 H 1325.58 -2.21006 1.26603 0
M  V30 13844 H 1326.37 -1.84267 2.89656 0
M  V30 13845 N 1328.81 -1.02043 -1.20104 0
M  V30 13846 C 1330.22 -0.742954 -1.71281 0
M  V30 13847 C 1330.57 0.738173 -1.81784 0
M  V30 13848 O 1329.7 1.57588 -1.48307 0
M  V30 13849 C 1330.29 -1.342 -3.11088 0
M  V30 13850 C 1328.85 -1.11331 -3.59559 0
M  V30 13851 C 1328 -1.44532 -2.36655 0
M  V30 13852 H 1330.95 -1.18942 -1.05064 0
M  V30 13853 H 1330.97 -0.734558 -3.73342 0
M  V30 13854 H 1330.48 -2.41998 -3.03411 0
M  V30 13855 H 1328.58 -0.05317 -3.72562 0
M  V30 13856 H 1328.7 -1.79606 -4.4416 0
M  V30 13857 H 1327.06 -0.864431 -2.39582 0
M  V30 13858 H 1327.84 -2.53394 -2.31616 0
M  V30 13859 N 1330.29 1.35952 -0.797165 0
M  V30 13860 C 1331.7 1.81554 -0.435311 0
M  V30 13861 C 1332.05 1.66266 1.04164 0
M  V30 13862 O 1331.18 1.18796 1.80877 0
M  V30 13863 C 1331.77 3.29619 -0.783358 0
M  V30 13864 C 1330.33 3.73401 -0.47423 0
M  V30 13865 C 1329.48 2.58098 -1.01394 0
M  V30 13866 H 1332.43 1.24064 -0.989638 0
M  V30 13867 H 1332.45 3.80421 -0.0773381 0
M  V30 13868 H 1331.96 3.40715 -1.85836 0
M  V30 13869 H 1330.06 3.6786 0.592418 0
M  V30 13870 H 1330.18 4.68542 -1.00026 0
M  V30 13871 H 1328.54 2.50927 -0.436747 0
M  V30 13872 H 1329.32 2.71976 -2.09485 0
M  V30 13873 N 1331.77 0.549846 1.47697 0
M  V30 13874 C 1333.18 0.11453 1.86348 0
M  V30 13875 C 1333.53 -1.31368 1.45729 0
M  V30 13876 O 1332.66 -1.98707 0.856989 0
M  V30 13877 C 1333.25 0.201072 3.38203 0
M  V30 13878 C 1331.81 -0.179162 3.75973 0
M  V30 13879 C 1330.96 0.551951 2.71751 0
M  V30 13880 H 1333.91 0.759989 1.39319 0
M  V30 13881 H 1333.93 -0.582216 3.76019 0
M  V30 13882 H 1333.44 1.24065 3.67736 0
M  V30 13883 H 1331.54 -1.22013 3.52056 0
M  V30 13884 H 1331.65 0.174273 4.78783 0
M  V30 13885 H 1330.02 -0.00411819 2.547 0
M  V30 13886 H 1330.8 1.59254 3.04127 0
M  V30 13887 N 1333.25 -1.54984 0.285932 0
M  V30 13888 C 1334.66 -1.85519 -0.209707 0
M  V30 13889 C 1335.01 -1.20794 -1.54606 0
M  V30 13890 O 1334.13 -0.500159 -2.10541 0
M  V30 13891 C 1334.73 -3.36579 -0.387283 0
M  V30 13892 C 1333.29 -3.67199 -0.827148 0
M  V30 13893 C 1332.43 -2.77203 0.073308 0
M  V30 13894 H 1335.39 -1.5037 0.507404 0
M  V30 13895 H 1335.41 -3.60269 -1.2242 0
M  V30 13896 H 1334.92 -3.83658 0.585493 0
M  V30 13897 H 1333.02 -3.25627 -1.81101 0
M  V30 13898 H 1333.13 -4.74574 -0.656976 0
M  V30 13899 H 1331.5 -2.50785 -0.444859 0
M  V30 13900 H 1332.28 -3.27099 1.04216 0
M  V30 13901 N 1334.72 -0.0133892 -1.57594 0
M  V30 13902 C 1335.69 0.958601 -2.08191 0
M  V30 13903 C 1336.69 1.26408 -0.993865 0
M  V30 13904 O 1337.88 1.20703 -1.25604 0
M  V30 13905 C 1335.01 2.27971 -2.5346 0
M  V30 13906 H 1336.2 0.520686 -2.95345 0
M  V30 13907 H 1333.76 0.234351 -1.54533 0
M  V30 13908 H 1334.49 2.76424 -1.69588 0
M  V30 13909 H 1334.28 2.07116 -3.32935 0
M  V30 13910 H 1335.77 2.97672 -2.92884 0
M  V30 13911 N 1336.2 1.55448 0.259558 0
M  V30 13912 C 1337.17 1.88459 1.30445 0
M  V30 13913 C 1338.17 0.760096 1.41701 0
M  V30 13914 O 1339.36 1.02819 1.4062 0
M  V30 13915 C 1336.49 2.10181 2.68397 0
M  V30 13916 H 1337.68 2.81877 1.02398 0
M  V30 13917 H 1335.23 1.48145 0.498262 0
M  V30 13918 H 1335.97 1.19189 3.01603 0
M  V30 13919 H 1335.75 2.92066 2.6161 0
M  V30 13920 H 1337.24 2.36947 3.43869 0
M  V30 13921 N 1337.68 -0.524672 1.4861 0
M  V30 13922 C 1338.91 -1.30958 1.60825 0
M  V30 13923 C 1339.33 -1.86142 0.270682 0
M  V30 13924 O 1338.69 -1.64675 -0.758415 0
M  V30 13925 C 1338.74 -2.43252 2.66197 0
M  V30 13926 O 1337.84 -3.4644 2.23725 0
M  V30 13927 H 1337.18 -0.387638 0.539104 0
M  V30 13928 H 1339.71 -0.630755 1.94635 0
M  V30 13929 H 1339.72 -2.89362 2.87635 0
M  V30 13930 H 1338.4 -2.02449 3.63301 0
M  V30 13931 H 1336.97 -3.06413 2.12522 0
M  V30 13932 N 1339.16 -1.37287 -0.77395 0
M  V30 13933 C 1340.12 -1.32699 -1.86878 0
M  V30 13934 C 1341.12 -0.231486 -1.59125 0
M  V30 13935 O 1342.31 -0.487203 -1.67248 0
M  V30 13936 C 1339.44 -1.0609 -3.23972 0
M  V30 13937 H 1340.64 -2.30083 -1.92359 0
M  V30 13938 H 1338.19 -1.22284 -0.973459 0
M  V30 13939 H 1338.92 -0.0922868 -3.24169 0
M  V30 13940 H 1338.71 -1.85383 -3.45508 0
M  V30 13941 H 1340.2 -1.05524 -4.04048 0
M  V30 13942 N 1340.64 0.999871 -1.21821 0
M  V30 13943 C 1341.88 1.73497 -1.0365 0
M  V30 13944 C 1342.21 1.90194 0.430271 0
M  V30 13945 O 1341.48 1.45655 1.31002 0
M  V30 13946 H 1340.06 0.642804 -0.380541 0
M  V30 13947 H 1342.72 1.20461 -1.53216 0
M  V30 13948 H 1341.81 2.73215 -1.50864 0
M  V30 13949 N 1342.11 1.02678 1.19562 0
M  V30 13950 C 1343.06 0.605764 2.22709 0
M  V30 13951 C 1344.03 -0.37936 1.6171 0
M  V30 13952 O 1345.22 -0.276496 1.88786 0
M  V30 13953 C 1342.36 -0.0394312 3.45077 0
M  V30 13954 C 1341.47 0.991481 4.20468 0
M  V30 13955 C 1340.6 0.316269 5.30258 0
M  V30 13956 C 1339.64 1.33324 5.97404 0
M  V30 13957 N 1338.78 0.683979 6.9876 0
M  V30 13958 H 1343.62 1.48994 2.58079 0
M  V30 13959 H 1341.16 0.745636 1.26802 0
M  V30 13960 H 1343.12 -0.430726 4.14971 0
M  V30 13961 H 1341.75 -0.887193 3.10369 0
M  V30 13962 H 1340.8 1.50085 3.49541 0
M  V30 13963 H 1342.11 1.76449 4.66548 0
M  V30 13964 H 1341.26 -0.129983 6.06561 0
M  V30 13965 H 1340 -0.488956 4.85243 0
M  V30 13966 H 1339.01 1.78977 5.19853 0
M  V30 13967 H 1340.23 2.13992 6.44503 0
M  V30 13968 H 1338.18 -0.101192 6.55922 0
M  V30 13969 H 1338.1 1.3949 7.4302 0
M  V30 13970 H 1339.36 0.261658 7.79061 0
M  V30 13971 N 1343.59 -1.35528 0.804364 0
M  V30 13972 C 1344.56 -2.28153 0.21885 0
M  V30 13973 C 1345.56 -1.49486 -0.592511 0
M  V30 13974 O 1346.75 -1.69274 -0.411319 0
M  V30 13975 C 1343.88 -3.33736 -0.695195 0
M  V30 13976 H 1345.07 -2.81446 1.03576 0
M  V30 13977 H 1342.62 -1.45345 0.574854 0
M  V30 13978 H 1343.36 -2.85625 -1.53587 0
M  V30 13979 H 1343.14 -3.91931 -0.115143 0
M  V30 13980 H 1344.63 -4.02872 -1.09925 0
M  V30 13981 N 1345.07 -0.557671 -1.47404 0
M  V30 13982 C 1346.32 -0.0337216 -2.02072 0
M  V30 13983 C 1346.64 1.32106 -1.43433 0
M  V30 13984 O 1345.91 1.86171 -0.609692 0
M  V30 13985 H 1344.49 -0.00947648 -0.74694 0
M  V30 13986 H 1347.15 -0.727784 -1.80802 0
M  V30 13987 H 1346.25 0.0540331 -3.12053 0
M  V30 13988 N 1346.55 1.54831 -0.294147 0
M  V30 13989 C 1347.8 1.99606 0.316509 0
M  V30 13990 C 1348.12 1.18405 1.54936 0
M  V30 13991 O 1347.39 0.278289 1.93913 0
M  V30 13992 H 1345.97 0.737309 0.119938 0
M  V30 13993 H 1348.63 1.90669 -0.403891 0
M  V30 13994 H 1347.73 3.06409 0.593282 0
M  V30 13995 N 1348.03 0.0217466 1.57585 0
M  V30 13996 C 1348.97 -0.962559 2.0977 0
M  V30 13997 C 1349.94 -1.32771 0.998053 0
M  V30 13998 O 1351.13 -1.42231 1.27181 0
M  V30 13999 C 1348.27 -2.24214 2.62339 0
M  V30 14000 C 1347.38 -1.9341 3.86286 0
M  V30 14001 C 1346.52 -3.15609 4.27275 0
M  V30 14002 C 1345.56 -2.8059 5.43999 0
M  V30 14003 N 1344.69 -3.95392 5.8018 0
M  V30 14004 H 1349.53 -0.510626 2.93593 0
M  V30 14005 H 1347.07 -0.240456 1.45121 0
M  V30 14006 H 1349.03 -2.99049 2.90905 0
M  V30 14007 H 1347.66 -2.67037 1.81358 0
M  V30 14008 H 1346.71 -1.08849 3.64494 0
M  V30 14009 H 1348.02 -1.63614 4.71203 0
M  V30 14010 H 1347.18 -3.9877 4.57239 0
M  V30 14011 H 1345.92 -3.48561 3.41111 0
M  V30 14012 H 1344.92 -1.9584 5.13738 0
M  V30 14013 H 1346.15 -2.48863 6.31858 0
M  V30 14014 H 1344.09 -4.282 4.96971 0
M  V30 14015 H 1344.01 -3.69195 6.59721 0
M  V30 14016 H 1345.28 -4.79279 6.14746 0
M  V30 14017 N 1349.51 -1.55583 -0.251311 0
M  V30 14018 C 1350.92 -1.67693 -0.820719 0
M  V30 14019 C 1351.27 -0.618393 -1.862 0
M  V30 14020 O 1350.39 0.236158 -2.15108 0
M  V30 14021 C 1350.99 -3.04011 -1.49542 0
M  V30 14022 C 1349.55 -3.18075 -2.01259 0
M  V30 14023 C 1348.69 -2.63557 -0.862138 0
M  V30 14024 H 1351.64 -1.58677 -0.0272072 0
M  V30 14025 H 1351.67 -2.9821 -2.36328 0
M  V30 14026 H 1351.18 -3.81032 -0.737323 0
M  V30 14027 H 1349.28 -2.45869 -2.79963 0
M  V30 14028 H 1349.39 -4.24927 -2.213 0
M  V30 14029 H 1347.76 -2.21268 -1.26145 0
M  V30 14030 H 1348.54 -3.431 -0.117196 0
M  V30 14031 N 1350.98 0.516783 -1.48886 0
M  V30 14032 C 1352.21 1.30103 -1.61518 0
M  V30 14033 C 1352.63 1.85996 -0.28055 0
M  V30 14034 O 1351.99 1.65075 0.749671 0
M  V30 14035 C 1352.04 2.41837 -2.67483 0
M  V30 14036 O 1351.14 3.45249 -2.25559 0
M  V30 14037 H 1350.48 0.384774 -0.541152 0
M  V30 14038 H 1353.01 0.620424 -1.94966 0
M  V30 14039 H 1353.02 2.87832 -2.89165 0
M  V30 14040 H 1351.7 2.00519 -3.64369 0
M  V30 14041 H 1350.28 3.05281 -2.14144 0
M  V30 14042 N 1352.46 1.37696 0.766659 0
M  V30 14043 C 1353.39 1.2975 1.88938 0
M  V30 14044 C 1354.41 0.212278 1.6141 0
M  V30 14045 O 1355.6 0.468825 1.72233 0
M  V30 14046 C 1352.7 0.984553 3.24283 0
M  V30 14047 C 1351.87 2.17625 3.79418 0
M  V30 14048 C 1350.93 1.83279 4.9325 0
M  V30 14049 O 1349.95 2.55631 5.08568 0
M  V30 14050 N 1351.16 0.779941 5.75237 0
M  V30 14051 H 1353.92 2.26492 1.96269 0
M  V30 14052 H 1351.48 1.31387 0.946001 0
M  V30 14053 H 1353.47 0.735536 3.9796 0
M  V30 14054 H 1352.04 0.105527 3.12422 0
M  V30 14055 H 1351.26 2.58672 2.9746 0
M  V30 14056 H 1352.55 2.97187 4.12986 0
M  V30 14057 H 1351.95 0.179661 5.65415 0
M  V30 14058 H 1350.51 0.59079 6.49117 0
M  V30 14059 N 1353.94 -0.993397 1.22349 0
M  V30 14060 C 1355.16 -1.77373 1.07488 0
M  V30 14061 C 1355.59 -1.84418 -0.37034 0
M  V30 14062 O 1354.95 -1.29629 -1.26752 0
M  V30 14063 C 1355 -3.18538 1.69014 0
M  V30 14064 O 1354.1 -4.01463 0.943474 0
M  V30 14065 H 1353.44 -0.546209 0.37756 0
M  V30 14066 H 1355.97 -1.24792 1.62136 0
M  V30 14067 H 1355.98 -3.6917 1.73717 0
M  V30 14068 H 1354.66 -3.12725 2.74182 0
M  V30 14069 H 1353.23 -3.59998 0.972415 0
M  V30 14070 N 1355.42 -1.03311 -1.19015 0
M  V30 14071 C 1356.83 -0.761079 -1.70483 0
M  V30 14072 C 1357.18 0.718851 -1.82557 0
M  V30 14073 O 1356.3 1.56006 -1.4997 0
M  V30 14074 C 1356.9 -1.37492 -3.09647 0
M  V30 14075 C 1355.46 -1.15138 -3.58358 0
M  V30 14076 C 1354.61 -1.47034 -2.35109 0
M  V30 14077 H 1357.56 -1.2005 -1.03797 0
M  V30 14078 H 1357.58 -0.774115 -3.72542 0
M  V30 14079 H 1357.09 -2.45203 -3.00828 0
M  V30 14080 H 1355.19 -0.0926822 -3.72485 0
M  V30 14081 H 1355.3 -1.84307 -4.4223 0
M  V30 14082 H 1353.67 -0.889794 -2.38652 0
M  V30 14083 H 1354.45 -2.55837 -2.28916 0
M  V30 14084 N 1356.9 1.35099 -0.81154 0
M  V30 14085 C 1358.12 2.03391 -0.405805 0
M  V30 14086 C 1358.55 1.60745 0.97686 0
M  V30 14087 O 1357.9 0.786518 1.63351 0
M  V30 14088 C 1357.95 3.57075 -0.502954 0
M  V30 14089 O 1357.06 4.09577 0.481681 0
M  V30 14090 H 1356.4 0.642203 -0.168733 0
M  V30 14091 H 1358.93 1.72591 -1.0988 0
M  V30 14092 H 1358.94 4.06277 -0.37456 0
M  V30 14093 H 1357.61 3.87463 -1.51145 0
M  V30 14094 H 1356.19 3.71583 0.313115 0
M  V30 14095 N 1358.37 0.56548 1.47106 0
M  V30 14096 C 1359.31 -0.215154 2.28188 0
M  V30 14097 C 1360.32 -0.871671 1.37498 0
M  V30 14098 O 1361.51 -0.744131 1.6225 0
M  V30 14099 C 1358.61 -1.32289 3.12014 0
M  V30 14100 C 1357.78 -0.761594 4.30719 0
M  V30 14101 C 1356.84 -1.75486 4.96076 0
M  V30 14102 O 1355.87 -1.29771 5.5421 0
M  V30 14103 N 1357.07 -3.0885 4.9152 0
M  V30 14104 H 1359.83 0.480405 2.95825 0
M  V30 14105 H 1357.39 0.402099 1.56827 0
M  V30 14106 H 1359.39 -1.98628 3.52603 0
M  V30 14107 H 1357.96 -1.92156 2.46566 0
M  V30 14108 H 1357.18 0.078794 3.94121 0
M  V30 14109 H 1358.46 -0.366072 5.07481 0
M  V30 14110 H 1357.86 -3.4863 4.45504 0
M  V30 14111 H 1356.42 -3.70725 5.36103 0
M  V30 14112 N 1359.85 -1.54672 0.302354 0
M  V30 14113 C 1360.76 -2.27251 -0.582578 0
M  V30 14114 C 1361.78 -1.30819 -1.14727 0
M  V30 14115 O 1362.95 -1.63803 -1.17177 0
M  V30 14116 C 1360.02 -3.00016 -1.73757 0
M  V30 14117 C 1359.08 -4.11988 -1.20682 0
M  V30 14118 C 1358.31 -4.81273 -2.30676 0
M  V30 14119 O 1358.54 -4.49927 -3.50602 0
M  V30 14120 O 1357.47 -5.68647 -1.97291 0
M  V30 14121 H 1361.3 -3.03699 0.00621365 0
M  V30 14122 H 1358.88 -1.49242 0.0687684 0
M  V30 14123 H 1360.76 -3.45652 -2.41045 0
M  V30 14124 H 1359.44 -2.26462 -2.31294 0
M  V30 14125 H 1358.35 -3.70749 -0.499625 0
M  V30 14126 H 1359.68 -4.87524 -0.676858 0
M  V30 14127 N 1361.33 -0.0301034 -1.57571 0
M  V30 14128 C 1362.29 0.936465 -2.09196 0
M  V30 14129 C 1363.29 1.25347 -1.00722 0
M  V30 14130 O 1364.48 1.19364 -1.26877 0
M  V30 14131 C 1361.62 2.2527 -2.55864 0
M  V30 14132 H 1362.81 0.489332 -2.95881 0
M  V30 14133 H 1360.36 0.217948 -1.54773 0
M  V30 14134 H 1361.1 2.7461 -1.72511 0
M  V30 14135 H 1360.88 2.03573 -3.35113 0
M  V30 14136 H 1362.37 2.94549 -2.96025 0
M  V30 14137 N 1362.81 1.55714 0.243056 0
M  V30 14138 C 1363.77 1.89832 1.28438 0
M  V30 14139 C 1364.77 0.775083 1.40887 0
M  V30 14140 O 1365.96 1.04304 1.39521 0
M  V30 14141 C 1363.09 2.13016 2.66153 0
M  V30 14142 H 1364.29 2.82947 0.994022 0
M  V30 14143 H 1361.84 1.48665 0.482521 0
M  V30 14144 H 1362.57 1.22381 3.00322 0
M  V30 14145 H 1362.36 2.94824 2.58498 0
M  V30 14146 H 1363.85 2.40581 3.41336 0
M  V30 14147 N 1364.29 -0.50888 1.49158 0
M  V30 14148 C 1365.53 -1.261 1.57934 0
M  V30 14149 C 1365.86 -1.93199 0.264405 0
M  V30 14150 O 1365.13 -1.82359 -0.715684 0
M  V30 14151 H 1363.71 -0.468421 0.581886 0
M  V30 14152 H 1366.37 -0.590447 1.85741 0
M  V30 14153 H 1365.46 -2.02913 2.37135 0
M  V30 14154 N 1365.76 -1.381 -0.759346 0
M  V30 14155 C 1366.67 -1.37086 -1.9038 0
M  V30 14156 C 1367.69 -0.268738 -1.71912 0
M  V30 14157 O 1368.87 -0.506205 -1.94935 0
M  V30 14158 C 1365.93 -1.18905 -3.25672 0
M  V30 14159 C 1364.99 -2.3887 -3.56707 0
M  V30 14160 C 1364.23 -2.21546 -4.85544 0
M  V30 14161 O 1364.45 -1.20616 -5.57501 0
M  V30 14162 O 1363.38 -3.10009 -5.15924 0
M  V30 14163 H 1367.21 -2.33505 -1.94188 0
M  V30 14164 H 1364.79 -1.18959 -0.903826 0
M  V30 14165 H 1366.68 -1.10803 -4.06572 0
M  V30 14166 H 1365.35 -0.255675 -3.22689 0
M  V30 14167 H 1364.26 -2.52546 -2.75992 0
M  V30 14168 H 1365.59 -3.30817 -3.64446 0
M  V30 14169 N 1367.24 0.986894 -1.22875 0
M  V30 14170 C 1368.21 2.0597 -1.00544 0
M  V30 14171 C 1369.21 1.60771 0.0303509 0
M  V30 14172 O 1370.4 1.72945 -0.208753 0
M  V30 14173 C 1367.53 3.36911 -0.519962 0
M  V30 14174 H 1368.72 2.27213 -1.9574 0
M  V30 14175 H 1366.27 1.15935 -1.04827 0
M  V30 14176 H 1367.01 3.21355 0.436078 0
M  V30 14177 H 1366.79 3.71054 -1.26732 0
M  V30 14178 H 1368.28 4.15829 -0.384166 0
M  V30 14179 N 1368.72 1.0394 1.18466 0
M  V30 14180 C 1369.97 0.743141 1.88694 0
M  V30 14181 C 1370.3 -0.727211 1.8007 0
M  V30 14182 O 1369.57 -1.53058 1.20014 0
M  V30 14183 C 1369.86 1.20829 3.39223 0
M  V30 14184 C 1369.71 2.74064 3.56664 0
M  V30 14185 C 1371.03 0.797348 4.32817 0
M  V30 14186 H 1368.15 0.271437 0.685194 0
M  V30 14187 H 1370.79 1.29119 1.39386 0
M  V30 14188 H 1368.94 0.742033 3.81348 0
M  V30 14189 H 1370.61 3.28717 3.2364 0
M  V30 14190 H 1368.86 3.1395 2.99362 0
M  V30 14191 H 1369.53 3.01668 4.62277 0
M  V30 14192 H 1372 1.19854 3.98465 0
M  V30 14193 H 1370.88 1.15057 5.36706 0
M  V30 14194 H 1371.14 -0.299601 4.41084 0
M  V30 14195 N 1370.2 -1.34667 0.818693 0
M  V30 14196 C 1371.13 -2.32134 0.252239 0
M  V30 14197 C 1372.11 -1.58044 -0.628982 0
M  V30 14198 O 1373.29 -1.86049 -0.55674 0
M  V30 14199 C 1370.42 -3.42249 -0.590183 0
M  V30 14200 C 1369.38 -4.27562 0.193547 0
M  V30 14201 C 1368.7 -5.29107 -0.771349 0
M  V30 14202 C 1370 -5.03205 1.39936 0
M  V30 14203 H 1371.7 -2.79758 1.06657 0
M  V30 14204 H 1369.24 -1.34502 0.514325 0
M  V30 14205 H 1371.2 -4.09445 -0.996616 0
M  V30 14206 H 1369.92 -2.93262 -1.43752 0
M  V30 14207 H 1368.58 -3.61962 0.581297 0
M  V30 14208 H 1368.23 -4.76384 -1.61453 0
M  V30 14209 H 1367.93 -5.87063 -0.251201 0
M  V30 14210 H 1369.45 -5.99174 -1.17573 0
M  V30 14211 H 1370.87 -5.6328 1.06717 0
M  V30 14212 H 1369.26 -5.70715 1.85485 0
M  V30 14213 H 1370.33 -4.33145 2.17976 0
M  V30 14214 N 1371.68 -0.573274 -1.46804 0
M  V30 14215 C 1372.92 -0.0551522 -2.02025 0
M  V30 14216 C 1373.25 1.30577 -1.44826 0
M  V30 14217 O 1372.52 1.85514 -0.629403 0
M  V30 14218 H 1371.1 -0.0173982 -0.746797 0
M  V30 14219 H 1373.76 -0.746919 -1.8002 0
M  V30 14220 H 1372.85 0.0209326 -3.12093 0
M  V30 14221 N 1373.15 1.5451 -0.310553 0
M  V30 14222 C 1374.12 2.2254 0.548489 0
M  V30 14223 C 1375.12 1.21456 1.05381 0
M  V30 14224 O 1376.31 1.46126 0.948311 0
M  V30 14225 C 1373.44 2.91927 1.76043 0
M  V30 14226 H 1374.63 2.99865 -0.0460306 0
M  V30 14227 H 1372.19 1.56179 -0.061487 0
M  V30 14228 H 1372.92 2.18706 2.39454 0
M  V30 14229 H 1372.71 3.66038 1.40564 0
M  V30 14230 H 1374.2 3.43797 2.37051 0
M  V30 14231 N 1374.63 0.0384594 1.57553 0
M  V30 14232 C 1375.58 -0.940256 2.10779 0
M  V30 14233 C 1376.55 -1.31705 1.01208 0
M  V30 14234 O 1377.74 -1.40874 1.28683 0
M  V30 14235 C 1374.88 -2.21419 2.64703 0
M  V30 14236 C 1373.99 -1.89302 3.88315 0
M  V30 14237 C 1373.12 -3.1106 4.30599 0
M  V30 14238 C 1372.16 -2.74805 5.46945 0
M  V30 14239 N 1371.3 -3.89217 5.84341 0
M  V30 14240 H 1376.14 -0.479458 2.94118 0
M  V30 14241 H 1373.68 -0.22505 1.45368 0
M  V30 14242 H 1375.63 -2.95946 2.94061 0
M  V30 14243 H 1374.26 -2.65099 1.84181 0
M  V30 14244 H 1373.32 -1.04977 3.65628 0
M  V30 14245 H 1374.63 -1.58607 4.72912 0
M  V30 14246 H 1373.78 -3.93898 4.61442 0
M  V30 14247 H 1372.52 -3.44924 3.44788 0
M  V30 14248 H 1371.53 -1.9038 5.15786 0
M  V30 14249 H 1372.75 -2.42147 6.34462 0
M  V30 14250 H 1370.7 -4.22905 5.01485 0
M  V30 14251 H 1370.61 -3.62177 6.63599 0
M  V30 14252 H 1371.88 -4.72732 6.19794 0
M  V30 14253 N 1376.11 -1.55841 -0.234795 0
M  V30 14254 C 1377.34 -1.82307 -0.978355 0
M  V30 14255 C 1377.75 -0.615825 -1.78474 0
M  V30 14256 O 1377.11 0.4156 -1.77705 0
M  V30 14257 C 1377.16 -3.07136 -1.90655 0
M  V30 14258 O 1376.88 -4.23202 -1.13278 0
M  V30 14259 C 1378.38 -3.46492 -2.76511 0
M  V30 14260 H 1375.6 -0.606361 -0.287345 0
M  V30 14261 H 1378.15 -2.02916 -0.254023 0
M  V30 14262 H 1376.3 -2.88542 -2.58501 0
M  V30 14263 H 1376.72 -4.94029 -1.76168 0
M  V30 14264 H 1378.19 -4.36908 -3.37366 0
M  V30 14265 H 1378.67 -2.67633 -3.48238 0
M  V30 14266 H 1379.27 -3.6748 -2.14099 0
M  V30 14267 N 1377.59 0.500963 -1.49426 0
M  V30 14268 C 1378.54 1.6025 -1.66098 0
M  V30 14269 C 1379.51 1.58318 -0.502453 0
M  V30 14270 O 1380.69 1.76304 -0.729482 0
M  V30 14271 C 1377.83 2.98396 -1.73361 0
M  V30 14272 C 1376.94 3.10343 -3.00518 0
M  V30 14273 C 1376.08 4.39222 -2.9876 0
M  V30 14274 C 1375.12 4.44803 -4.20496 0
M  V30 14275 N 1374.26 5.6511 -4.16648 0
M  V30 14276 H 1379.1 1.45342 -2.60153 0
M  V30 14277 H 1376.63 0.707147 -1.28988 0
M  V30 14278 H 1378.59 3.78467 -1.75553 0
M  V30 14279 H 1377.22 3.12007 -0.827718 0
M  V30 14280 H 1376.27 2.23336 -3.07937 0
M  V30 14281 H 1377.58 3.10327 -3.90511 0
M  V30 14282 H 1376.74 5.27613 -2.99515 0
M  V30 14283 H 1375.48 4.41804 -2.06545 0
M  V30 14284 H 1374.48 3.54814 -4.19985 0
M  V30 14285 H 1375.71 4.43937 -5.13903 0
M  V30 14286 H 1373.65 5.68533 -3.2727 0
M  V30 14287 H 1373.57 5.6671 -5.00376 0
M  V30 14288 H 1374.84 6.55708 -4.21506 0
M  V30 14289 N 1379.07 1.38501 0.752011 0
M  V30 14290 C 1380.03 1.35655 1.84744 0
M  V30 14291 C 1381.03 0.256772 1.58737 0
M  V30 14292 O 1382.22 0.513749 1.66452 0
M  V30 14293 C 1379.35 1.11231 3.22243 0
M  V30 14294 H 1380.55 2.33114 1.88674 0
M  V30 14295 H 1378.1 1.23818 0.953882 0
M  V30 14296 H 1378.83 0.143848 3.23981 0
M  V30 14297 H 1378.62 1.90857 3.42515 0
M  V30 14298 H 1380.11 1.11939 4.02318 0
M  V30 14299 N 1380.55 -0.980364 1.23396 0
M  V30 14300 C 1381.77 -1.75689 1.09275 0
M  V30 14301 C 1382.19 -1.85418 -0.355773 0
M  V30 14302 O 1381.55 -1.33337 -1.24609 0
M  V30 14303 C 1381.6 -3.18378 1.71223 0
M  V30 14304 O 1381.32 -3.09154 3.10411 0
M  V30 14305 C 1382.82 -4.12425 1.62545 0
M  V30 14306 H 1380.04 -0.551354 0.382427 0
M  V30 14307 H 1382.58 -1.23169 1.63247 0
M  V30 14308 H 1380.74 -3.67925 1.21285 0
M  V30 14309 H 1381.15 -3.9898 3.40464 0
M  V30 14310 H 1382.63 -5.1025 2.10592 0
M  V30 14311 H 1383.1 -4.35296 0.584275 0
M  V30 14312 H 1383.71 -3.68782 2.1185 0
M  V30 14313 N 1382.02 -1.04567 -1.17913 0
M  V30 14314 C 1383.25 -0.772146 -1.92491 0
M  V30 14315 C 1383.67 0.665297 -1.75942 0
M  V30 14316 O 1383.03 1.46144 -1.07292 0
M  V30 14317 C 1383.08 -1.14966 -3.41782 0
M  V30 14318 O 1382.18 -0.278091 -4.11461 0
M  V30 14319 H 1381.52 -0.283715 -0.600335 0
M  V30 14320 H 1384.05 -1.39685 -1.49496 0
M  V30 14321 H 1384.06 -1.11374 -3.92505 0
M  V30 14322 H 1382.74 -2.1968 -3.53148 0
M  V30 14323 H 1381.32 -0.374073 -3.71019 0
M  V30 14324 N 1383.5 1.34231 -0.825823 0
M  V30 14325 C 1384.43 2.31997 -0.264546 0
M  V30 14326 C 1385.41 1.58375 0.620592 0
M  V30 14327 O 1386.6 1.86341 0.546865 0
M  V30 14328 C 1383.73 3.42557 0.572025 0
M  V30 14329 C 1382.68 4.27454 -0.216219 0
M  V30 14330 C 1382.01 5.29509 0.743279 0
M  V30 14331 C 1383.31 5.02456 -1.42603 0
M  V30 14332 H 1385 2.79189 -1.08139 0
M  V30 14333 H 1382.55 1.34227 -0.521451 0
M  V30 14334 H 1384.5 4.09968 0.974889 0
M  V30 14335 H 1383.22 2.94021 1.42195 0
M  V30 14336 H 1381.88 3.61649 -0.600485 0
M  V30 14337 H 1381.53 4.77234 1.58924 0
M  V30 14338 H 1381.23 5.87188 0.220064 0
M  V30 14339 H 1382.76 5.99789 1.14394 0
M  V30 14340 H 1384.17 5.62706 -1.09702 0
M  V30 14341 H 1382.57 5.69723 -1.88509 0
M  V30 14342 H 1383.64 4.31983 -2.2027 0
M  V30 14343 N 1384.98 0.581051 1.46498 0
M  V30 14344 C 1386.23 0.0660934 2.02692 0
M  V30 14345 C 1386.56 -1.28985 1.45178 0
M  V30 14346 O 1385.83 -1.84479 0.616247 0
M  V30 14347 C 1386.12 -0.00145411 3.601 0
M  V30 14348 C 1385.97 1.38327 4.28002 0
M  V30 14349 C 1387.29 -0.702914 4.3445 0
M  V30 14350 H 1384.41 0.0254923 0.736559 0
M  V30 14351 H 1387.05 0.74793 1.7466 0
M  V30 14352 H 1385.2 -0.582118 3.84114 0
M  V30 14353 H 1386.87 2.00897 4.15257 0
M  V30 14354 H 1385.11 1.95144 3.87429 0
M  V30 14355 H 1385.79 1.28849 5.36751 0
M  V30 14356 H 1388.26 -0.209641 4.15572 0
M  V30 14357 H 1387.14 -0.719202 5.44168 0
M  V30 14358 H 1387.4 -1.76389 4.05388 0
M  V30 14359 N 1386.46 -1.54343 0.318742 0
M  V30 14360 C 1387.73 -1.92635 -0.339299 0
M  V30 14361 C 1388.11 -1.24786 -1.7027 0
M  V30 14362 O 1387.46 -0.389844 -2.2515 0
M  V30 14363 C 1387.67 -3.46262 -0.436318 0
M  V30 14364 C 1389.02 -4.18809 -0.698871 0
M  V30 14365 O 1390.04 -3.52392 -0.519431 0
M  V30 14366 O 1388.9 -5.36422 -1.04471 0
M  V30 14367 H 1386 -0.804202 -0.192841 0
M  V30 14368 H 1388.54 -1.6566 0.368104 0
M  V30 14369 H 1387.32 -3.8781 0.521427 0
M  V30 14370 H 1386.94 -3.79327 -1.19149 0
M  V30 14371 N 1387.94 -0.0468143 -1.5753 0
M  V30 14372 C 1388.9 0.914225 -2.10177 0
M  V30 14373 C 1389.9 1.24271 -1.02045 0
M  V30 14374 O 1391.09 1.18012 -1.28136 0
M  V30 14375 C 1388.22 2.22544 -2.58238 0
M  V30 14376 H 1389.41 0.457922 -2.96383 0
M  V30 14377 H 1386.97 0.20152 -1.54995 0
M  V30 14378 H 1387.7 2.72765 -1.75413 0
M  V30 14379 H 1387.49 2.00007 -3.37253 0
M  V30 14380 H 1388.98 2.91392 -2.99133 0
M  V30 14381 N 1389.41 1.55964 0.226527 0
M  V30 14382 C 1390.66 1.7901 0.95306 0
M  V30 14383 C 1390.99 0.615608 1.84184 0
M  V30 14384 O 1390.27 -0.385341 1.90645 0
M  V30 14385 C 1390.55 3.12101 1.79624 0
M  V30 14386 C 1390.4 4.3999 0.934286 0
M  V30 14387 C 1391.72 3.4159 2.77496 0
M  V30 14388 H 1388.84 0.651236 0.345052 0
M  V30 14389 H 1391.48 1.88696 0.222236 0
M  V30 14390 H 1389.63 3.03975 2.41933 0
M  V30 14391 H 1391.31 4.6013 0.328328 0
M  V30 14392 H 1389.55 4.33138 0.239487 0
M  V30 14393 H 1390.22 5.29541 1.55853 0
M  V30 14394 H 1392.7 3.49812 2.25323 0
M  V30 14395 H 1391.57 4.35894 3.33599 0
M  V30 14396 H 1391.83 2.6351 3.54986 0
M  V30 14397 N 1390.89 -0.493031 1.4969 0
M  V30 14398 C 1391.84 -1.61449 1.67442 0
M  V30 14399 C 1392.83 -1.60553 0.540296 0
M  V30 14400 O 1394.04 -1.64965 0.720167 0
M  V30 14401 H 1390.42 -0.535337 0.528127 0
M  V30 14402 H 1392.39 -1.43631 2.61558 0
M  V30 14403 C 1391.14 -2.99537 1.76559 0
M  V30 14404 H 1390.46 -3.00936 2.63206 0
M  V30 14405 H 1391.9 -3.77521 1.93013 0
M  V30 14406 C 1390.36 -3.32984 0.512176 0
M  V30 14407 O 1390.89 -4.00096 -0.35857 0
M  V30 14408 N 1389.09 -2.882 0.372734 0
M  V30 14409 H 1388.64 -2.3376 1.08232 0
M  V30 14410 H 1388.6 -3.10945 -0.464804 0
M  V30 14411 N 1392.37 -1.38898 -0.744656 0
M  V30 14412 C 1393.6 -1.3903 -1.53901 0
M  V30 14413 C 1394.02 0.0156607 -1.88093 0
M  V30 14414 O 1393.38 1.00012 -1.51219 0
M  V30 14415 C 1393.43 -2.2609 -2.80919 0
M  V30 14416 O 1392.53 -1.68414 -3.76444 0
M  V30 14417 H 1391.87 -0.473854 -0.465144 0
M  V30 14418 H 1394.4 -1.82773 -0.919525 0
M  V30 14419 H 1394.41 -2.40264 -3.29754 0
M  V30 14420 H 1393.09 -3.28271 -2.55364 0
M  V30 14421 H 1391.66 -1.63431 -3.35179 0
M  V30 14422 N 1393.85 0.973806 -1.23914 0
M  V30 14423 C 1395.13 1.69087 -0.9833 0
M  V30 14424 C 1395.51 2.05186 0.49619 0
M  V30 14425 O 1394.85 1.75021 1.46901 0
M  V30 14426 C 1395.06 2.92739 -1.90012 0
M  V30 14427 C 1396.41 3.65112 -2.16745 0
M  V30 14428 O 1397.44 3.02785 -1.87616 0
M  V30 14429 O 1396.29 4.77293 -2.66183 0
M  V30 14430 H 1393.39 0.738919 -0.371386 0
M  V30 14431 H 1395.93 1.02844 -1.34986 0
M  V30 14432 H 1394.71 2.6271 -2.89999 0
M  V30 14433 H 1394.33 3.66718 -1.53635 0
M  V30 14434 N 1395.33 1.05191 1.17357 0
M  V30 14435 C 1396.29 0.65713 2.19578 0
M  V30 14436 C 1397.29 -0.29138 1.58138 0
M  V30 14437 O 1398.48 -0.075254 1.74037 0
M  V30 14438 C 1395.61 -0.0348162 3.40882 0
M  V30 14439 H 1396.8 1.56188 2.56018 0
M  V30 14440 H 1394.36 0.845795 1.31438 0
M  V30 14441 H 1395.09 -0.952835 3.09986 0
M  V30 14442 H 1394.88 0.647076 3.86724 0
M  V30 14443 H 1396.37 -0.297135 4.16542 0
M  V30 14444 N 1396.8 -1.33791 0.83293 0
M  V30 14445 C 1397.77 -2.27637 0.267196 0
M  V30 14446 C 1398.77 -1.50709 -0.560669 0
M  V30 14447 O 1399.96 -1.70109 -0.375321 0
M  V30 14448 C 1397.09 -3.35136 -0.624248 0
M  V30 14449 H 1398.28 -2.79186 1.09522 0
M  V30 14450 H 1395.84 -1.44093 0.605554 0
M  V30 14451 H 1396.57 -2.88818 -1.47494 0
M  V30 14452 H 1396.36 -3.92087 -0.0319827 0
M  V30 14453 H 1397.85 -4.05113 -1.01355 0
M  V30 14454 N 1398.28 -0.588812 -1.46187 0
M  V30 14455 C 1399.23 0.140932 -2.30369 0
M  V30 14456 C 1400.2 0.878216 -1.40984 0
M  V30 14457 O 1401.38 0.867678 -1.69929 0
M  V30 14458 C 1398.52 1.14468 -3.25563 0
M  V30 14459 C 1397.64 0.410215 -4.30048 0
M  V30 14460 C 1396.77 1.40203 -5.12364 0
M  V30 14461 C 1395.81 0.65431 -6.08593 0
M  V30 14462 N 1394.95 1.59448 -6.83755 0
M  V30 14463 H 1399.79 -0.582976 -2.92242 0
M  V30 14464 H 1397.33 -0.299302 -1.44023 0
M  V30 14465 H 1399.28 1.73957 -3.79203 0
M  V30 14466 H 1397.91 1.83623 -2.65485 0
M  V30 14467 H 1396.97 -0.299822 -3.79217 0
M  V30 14468 H 1398.28 -0.174043 -4.98496 0
M  V30 14469 H 1397.43 2.06953 -5.70312 0
M  V30 14470 H 1396.17 2.02022 -4.4389 0
M  V30 14471 H 1395.18 -0.0269371 -5.49793 0
M  V30 14472 H 1396.4 0.0414285 -6.79087 0
M  V30 14473 H 1394.35 2.20066 -6.17986 0
M  V30 14474 H 1394.26 1.06318 -7.48487 0
M  V30 14475 H 1395.53 2.25215 -7.46256 0
M  V30 14476 N 1399.76 1.54172 -0.326923 0
M  V30 14477 C 1401.17 1.86009 0.160446 0
M  V30 14478 C 1401.52 1.24851 1.51349 0
M  V30 14479 O 1400.65 0.555804 2.09141 0
M  V30 14480 C 1401.24 3.37488 0.297909 0
M  V30 14481 C 1399.8 3.69263 0.7295 0
M  V30 14482 C 1398.95 2.76911 -0.146778 0
M  V30 14483 H 1401.9 1.48972 -0.547093 0
M  V30 14484 H 1401.92 3.63388 1.12825 0
M  V30 14485 H 1401.43 3.81971 -0.687007 0
M  V30 14486 H 1399.53 3.30314 1.72404 0
M  V30 14487 H 1399.65 4.76149 0.53092 0
M  V30 14488 H 1398.01 2.51876 0.378212 0
M  V30 14489 H 1398.79 3.24221 -1.12852 0
M  V30 14490 N 1401.24 0.0551678 1.57503 0
M  V30 14491 C 1402.46 -0.630692 1.97578 0
M  V30 14492 C 1402.89 -1.63348 0.932686 0
M  V30 14493 O 1402.25 -1.81004 -0.103632 0
M  V30 14494 C 1402.29 -1.29049 3.36718 0
M  V30 14495 O 1401.4 -2.40621 3.34926 0
M  V30 14496 H 1400.74 -0.163625 0.643524 0
M  V30 14497 H 1403.27 0.124753 2.04219 0
M  V30 14498 H 1403.28 -1.64124 3.73534 0
M  V30 14499 H 1401.95 -0.55559 4.12172 0
M  V30 14500 H 1400.53 -2.07463 3.0986 0
M  V30 14501 N 1402.72 -1.56081 -0.218252 0
M  V30 14502 C 1403.65 -1.89176 -1.29403 0
M  V30 14503 C 1404.66 -0.780312 -1.42881 0
M  V30 14504 O 1405.85 -1.05863 -1.4372 0
M  V30 14505 C 1402.95 -2.08818 -2.66923 0
M  V30 14506 C 1402.12 -3.39854 -2.75351 0
M  V30 14507 C 1401.18 -3.48889 -3.93908 0
M  V30 14508 O 1400.21 -4.21894 -3.82091 0
M  V30 14509 N 1401.41 -2.80273 -5.08357 0
M  V30 14510 H 1404.18 -2.82047 -1.01338 0
M  V30 14511 H 1401.74 -1.56667 -0.408278 0
M  V30 14512 H 1403.73 -2.12175 -3.44622 0
M  V30 14513 H 1402.3 -1.22557 -2.87574 0
M  V30 14514 H 1401.52 -3.48568 -1.84104 0
M  V30 14515 H 1402.81 -4.26168 -2.77954 0
M  V30 14516 H 1402.2 -2.20744 -5.20854 0
M  V30 14517 H 1400.76 -2.89286 -5.84086 0
M  V30 14518 N 1404.2 0.485086 -1.49949 0
M  V30 14519 C 1405.61 1.06629 -1.53255 0
M  V30 14520 C 1405.96 1.9344 -0.327915 0
M  V30 14521 O 1405.08 2.09011 0.560669 0
M  V30 14522 C 1405.68 1.94053 -2.77721 0
M  V30 14523 C 1404.24 2.47307 -2.83754 0
M  V30 14524 C 1403.38 1.25307 -2.47373 0
M  V30 14525 H 1406.33 0.268297 -1.56416 0
M  V30 14526 H 1406.36 2.78946 -2.58784 0
M  V30 14527 H 1405.87 1.30843 -3.65379 0
M  V30 14528 H 1403.97 3.1411 -2.00414 0
M  V30 14529 H 1404.08 2.83371 -3.86313 0
M  V30 14530 H 1402.45 1.5834 -1.99501 0
M  V30 14531 H 1403.23 0.637815 -3.37323 0
M  V30 14532 N 1405.67 1.39291 0.737279 0
M  V30 14533 C 1406.92 1.36121 1.49384 0
M  V30 14534 C 1407.24 -0.0429406 1.94953 0
M  V30 14535 O 1406.51 -0.993756 1.68823 0
M  V30 14536 H 1405.09 0.500916 0.554159 0
M  V30 14537 H 1407.75 1.74134 0.875402 0
M  V30 14538 H 1406.85 2.02246 2.37704 0
M  V30 14539 N 1407.15 -0.967221 1.24429 0
M  V30 14540 C 1408.06 -2.09582 1.05417 0
M  V30 14541 C 1409.08 -1.73999 -0.00516127 0
M  V30 14542 O 1410.25 -2.00472 0.193115 0
M  V30 14543 C 1407.32 -3.40327 0.661697 0
M  V30 14544 C 1406.38 -3.89854 1.79756 0
M  V30 14545 C 1405.61 -5.1436 1.42372 0
M  V30 14546 O 1405.84 -5.69536 0.313754 0
M  V30 14547 O 1404.77 -5.58283 2.24952 0
M  V30 14548 H 1408.6 -2.28517 2.00034 0
M  V30 14549 H 1406.18 -1.07978 1.03253 0
M  V30 14550 H 1408.06 -4.18943 0.454369 0
M  V30 14551 H 1406.74 -3.22691 -0.255348 0
M  V30 14552 H 1405.64 -3.12297 2.05964 0
M  V30 14553 H 1406.98 -4.11967 2.69339 0
M  V30 14554 N 1408.63 -1.05812 -1.16797 0
M  V30 14555 C 1409.88 -0.770398 -1.8684 0
M  V30 14556 C 1410.2 0.704986 -1.8181 0
M  V30 14557 O 1409.47 1.50977 -1.24832 0
M  V30 14558 H 1408.05 -0.281989 -0.691731 0
M  V30 14559 H 1410.71 -1.33859 -1.41661 0
M  V30 14560 H 1409.81 -1.09094 -2.92412 0
M  V30 14561 N 1410.11 1.33347 -0.840014 0
M  V30 14562 C 1411.04 2.31703 -0.289138 0
M  V30 14563 C 1412.02 1.59024 0.603759 0
M  V30 14564 O 1413.2 1.86911 0.527071 0
M  V30 14565 C 1410.33 3.43144 0.53566 0
M  V30 14566 C 1409.29 4.272 -0.261544 0
M  V30 14567 C 1408.61 5.30267 0.687075 0
M  V30 14568 C 1409.91 5.00915 -1.47924 0
M  V30 14569 H 1411.61 2.78026 -1.11094 0
M  V30 14570 H 1409.15 1.33666 -0.535658 0
M  V30 14571 H 1411.11 4.10979 0.931351 0
M  V30 14572 H 1409.83 2.95512 1.39069 0
M  V30 14573 H 1408.49 3.60991 -0.638809 0
M  V30 14574 H 1408.14 4.78893 1.53853 0
M  V30 14575 H 1407.84 5.87388 0.157773 0
M  V30 14576 H 1409.36 6.00968 1.08026 0
M  V30 14577 H 1410.78 5.61511 -1.15664 0
M  V30 14578 H 1409.17 5.67692 -1.94541 0
M  V30 14579 H 1410.24 4.29622 -2.24839 0
M  V30 14580 N 1411.59 0.596556 1.45873 0
M  V30 14581 C 1412.53 -0.128713 2.30441 0
M  V30 14582 C 1413.5 -0.870727 1.41448 0
M  V30 14583 O 1414.69 -0.858654 1.70387 0
M  V30 14584 C 1411.83 -1.1274 3.26165 0
M  V30 14585 C 1410.94 -0.387403 4.30259 0
M  V30 14586 C 1410.08 -1.37484 5.131 0
M  V30 14587 C 1409.11 -0.622025 6.08931 0
M  V30 14588 N 1408.25 -1.5582 6.84591 0
M  V30 14589 H 1413.09 0.598466 2.91929 0
M  V30 14590 H 1410.63 0.306936 1.43862 0
M  V30 14591 H 1412.59 -1.71943 3.8012 0
M  V30 14592 H 1411.22 -1.82213 2.66455 0
M  V30 14593 H 1410.27 0.319929 3.79052 0
M  V30 14594 H 1411.58 0.200477 4.98397 0
M  V30 14595 H 1410.73 -2.03926 5.71401 0
M  V30 14596 H 1409.47 -1.99665 4.44955 0
M  V30 14597 H 1408.48 0.0560936 5.49771 0
M  V30 14598 H 1409.7 -0.00541426 6.791 0
M  V30 14599 H 1407.65 -2.16786 6.19145 0
M  V30 14600 H 1407.57 -1.02347 7.4904 0
M  V30 14601 H 1408.83 -2.21254 7.4744 0
M  V30 14602 N 1413.06 -1.53996 0.335095 0
M  V30 14603 C 1414.01 -2.24736 -0.52559 0
M  V30 14604 C 1414.98 -1.24244 -1.10239 0
M  V30 14605 O 1416.17 -1.52955 -1.14058 0
M  V30 14606 C 1413.31 -3.01732 -1.67487 0
M  V30 14607 C 1412.42 -4.17062 -1.1262 0
M  V30 14608 C 1411.55 -4.81563 -2.2421 0
M  V30 14609 C 1410.59 -5.88977 -1.6665 0
M  V30 14610 N 1409.73 -6.47293 -2.71949 0
M  V30 14611 H 1414.57 -2.97881 0.0842008 0
M  V30 14612 H 1412.11 -1.47003 0.0533254 0
M  V30 14613 H 1414.06 -3.44626 -2.35135 0
M  V30 14614 H 1412.69 -2.30899 -2.25578 0
M  V30 14615 H 1411.75 -3.78869 -0.340917 0
M  V30 14616 H 1413.06 -4.94346 -0.665113 0
M  V30 14617 H 1412.21 -5.27486 -2.9974 0
M  V30 14618 H 1410.95 -4.03685 -2.73659 0
M  V30 14619 H 1409.96 -5.42446 -0.89623 0
M  V30 14620 H 1411.18 -6.68758 -1.18064 0
M  V30 14621 H 1409.13 -5.72283 -3.20668 0
M  V30 14622 H 1409.04 -7.20024 -2.30438 0
M  V30 14623 H 1410.31 -6.97869 -3.47273 0
M  V30 14624 N 1414.54 -0.0635198 -1.57472 0
M  V30 14625 C 1415.95 0.470372 -1.80678 0
M  V30 14626 C 1416.3 1.70158 -0.976771 0
M  V30 14627 O 1415.43 2.15502 -0.196893 0
M  V30 14628 C 1416.02 0.860129 -3.277 0
M  V30 14629 C 1414.58 1.33893 -3.51781 0
M  V30 14630 C 1413.73 0.320078 -2.75447 0
M  V30 14631 H 1416.68 -0.289295 -1.56041 0
M  V30 14632 H 1416.7 1.72216 -3.39296 0
M  V30 14633 H 1416.21 -0.0361525 -3.88083 0
M  V30 14634 H 1414.31 2.25399 -2.96692 0
M  V30 14635 H 1414.43 1.32257 -4.60483 0
M  V30 14636 H 1412.79 0.795601 -2.41955 0
M  V30 14637 H 1413.57 -0.568332 -3.38563 0
M  V30 14638 N 1416.02 1.56195 0.209972 0
M  V30 14639 C 1417.27 1.80011 0.93402 0
M  V30 14640 C 1417.6 0.635109 1.83521 0
M  V30 14641 O 1416.87 -0.365099 1.91043 0
M  V30 14642 C 1417.16 3.13989 1.76304 0
M  V30 14643 C 1417.01 4.40956 0.887567 0
M  V30 14644 C 1418.33 3.44514 2.73857 0
M  V30 14645 H 1415.45 0.654859 0.338125 0
M  V30 14646 H 1418.09 1.88921 0.20221 0
M  V30 14647 H 1416.24 3.06524 2.38695 0
M  V30 14648 H 1417.91 4.60452 0.279507 0
M  V30 14649 H 1416.15 4.33368 0.193533 0
M  V30 14650 H 1416.83 5.31164 1.50228 0
M  V30 14651 H 1419.3 3.52182 2.216 0
M  V30 14652 H 1418.18 4.39407 3.28957 0
M  V30 14653 H 1418.44 2.6726 3.52171 0
M  V30 14654 N 1417.5 -0.477127 1.50204 0
M  V30 14655 C 1418.43 -1.58405 1.71552 0
M  V30 14656 C 1419.41 -1.60463 0.564413 0
M  V30 14657 O 1420.59 -1.76826 0.802893 0
M  V30 14658 C 1417.72 -2.96765 1.8041 0
M  V30 14659 C 1416.68 -3.09573 2.95548 0
M  V30 14660 C 1416 -4.49522 2.89542 0
M  V30 14661 C 1417.3 -2.87356 4.36147 0
M  V30 14662 H 1419 -1.40792 2.64231 0
M  V30 14663 H 1416.54 -0.675886 1.27153 0
M  V30 14664 H 1418.5 -3.74125 1.9393 0
M  V30 14665 H 1417.22 -3.1552 0.843489 0
M  V30 14666 H 1415.88 -2.34645 2.81669 0
M  V30 14667 H 1415.53 -4.65186 1.91339 0
M  V30 14668 H 1415.23 -4.59028 3.66834 0
M  V30 14669 H 1416.75 -5.28909 3.05102 0
M  V30 14670 H 1418.17 -3.54469 4.50583 0
M  V30 14671 H 1416.56 -3.08313 5.14843 0
M  V30 14672 H 1417.63 -1.83264 4.48935 0
M  V30 14673 N 1418.98 -1.3968 -0.729882 0
M  V30 14674 C 1420.39 -1.33184 -1.30839 0
M  V30 14675 C 1420.74 0.00141129 -1.962 0
M  V30 14676 O 1419.86 0.903523 -1.96635 0
M  V30 14677 C 1420.46 -2.41211 -2.37913 0
M  V30 14678 C 1419.02 -2.3822 -2.91424 0
M  V30 14679 C 1418.16 -2.22832 -1.65049 0
M  V30 14680 H 1421.12 -1.49694 -0.527023 0
M  V30 14681 H 1421.14 -2.08294 -3.18424 0
M  V30 14682 H 1420.65 -3.38234 -1.90313 0
M  V30 14683 H 1418.75 -1.4485 -3.43292 0
M  V30 14684 H 1418.86 -3.33271 -3.44191 0
M  V30 14685 H 1417.23 -1.70095 -1.89578 0
M  V30 14686 H 1418.01 -3.21832 -1.19494 0
M  V30 14687 N 1420.45 0.960609 -1.2494 0
M  V30 14688 C 1421.42 2.03791 -1.04891 0
M  V30 14689 C 1422.42 1.608 -0.00375792 0
M  V30 14690 O 1423.61 1.72463 -0.24539 0
M  V30 14691 C 1420.74 3.35733 -0.591309 0
M  V30 14692 H 1421.93 2.2301 -2.00516 0
M  V30 14693 H 1419.49 1.13686 -1.07263 0
M  V30 14694 H 1420.22 3.22207 0.367816 0
M  V30 14695 H 1420.01 3.68283 -1.34574 0
M  V30 14696 H 1421.5 4.14921 -0.472283 0
M  V30 14697 N 1421.93 1.0643 1.16234 0
M  V30 14698 C 1423.16 0.802644 1.90697 0
M  V30 14699 C 1423.58 -0.643145 1.77508 0
M  V30 14700 O 1422.93 -1.4404 1.12065 0
M  V30 14701 C 1422.98 1.18984 3.41358 0
M  V30 14702 O 1422.7 2.5789 3.54153 0
M  V30 14703 C 1424.21 0.956132 4.32866 0
M  V30 14704 H 1421.43 0.290891 0.604668 0
M  V30 14705 H 1423.97 1.41829 1.47325 0
M  V30 14706 H 1422.12 0.618703 3.82428 0
M  V30 14707 H 1422.54 2.73431 4.47589 0
M  V30 14708 H 1424.01 1.27667 5.37034 0
M  V30 14709 H 1424.49 -0.108062 4.39067 0
M  V30 14710 H 1425.1 1.51172 3.97526 0
M  V30 14711 N 1423.41 -1.329 0.847073 0
M  V30 14712 C 1424.82 -1.79813 0.502394 0
M  V30 14713 C 1425.17 -1.70017 -0.979218 0
M  V30 14714 O 1424.3 -1.25427 -1.76344 0
M  V30 14715 C 1424.89 -3.26485 0.905154 0
M  V30 14716 C 1423.45 -3.71383 0.612489 0
M  V30 14717 C 1422.6 -2.54157 1.10903 0
M  V30 14718 H 1425.55 -1.20306 1.035 0
M  V30 14719 H 1425.57 -3.79872 0.218476 0
M  V30 14720 H 1425.08 -3.33583 1.98353 0
M  V30 14721 H 1423.18 -3.69806 -0.45548 0
M  V30 14722 H 1423.3 -4.64507 1.17347 0
M  V30 14723 H 1421.66 -2.49134 0.529576 0
M  V30 14724 H 1422.44 -2.64013 2.19435 0
M  V30 14725 N 1424.89 -0.604284 -1.45555 0
M  V30 14726 C 1425.84 0.116491 -2.30506 0
M  V30 14727 C 1426.81 0.863214 -1.41908 0
M  V30 14728 O 1427.99 0.849606 -1.7084 0
M  V30 14729 C 1425.13 1.11009 -3.26758 0
M  V30 14730 C 1424.24 0.36458 -4.30459 0
M  V30 14731 C 1423.38 1.34761 -5.13822 0
M  V30 14732 C 1422.42 0.589724 -6.09253 0
M  V30 14733 N 1421.55 1.52187 -6.85408 0
M  V30 14734 H 1426.39 -0.61394 -2.91607 0
M  V30 14735 H 1423.93 -0.314561 -1.43697 0
M  V30 14736 H 1425.89 1.69925 -3.81027 0
M  V30 14737 H 1424.52 1.80797 -2.67418 0
M  V30 14738 H 1423.57 -0.340026 -3.78877 0
M  V30 14739 H 1424.88 -0.226906 -4.98284 0
M  V30 14740 H 1424.04 2.00893 -5.72474 0
M  V30 14741 H 1422.78 1.97302 -4.46008 0
M  V30 14742 H 1421.78 -0.0852486 -5.49734 0
M  V30 14743 H 1423.01 -0.0306001 -6.79093 0
M  V30 14744 H 1420.95 2.13499 -6.20286 0
M  V30 14745 H 1420.87 0.983737 -7.49572 0
M  V30 14746 H 1422.14 2.17287 -7.48603 0
M  V30 14747 N 1426.37 1.53816 -0.343257 0
M  V30 14748 C 1427.78 1.86169 0.140709 0
M  V30 14749 C 1428.13 1.26449 1.50017 0
M  V30 14750 O 1427.25 0.577955 2.08539 0
M  V30 14751 C 1427.85 3.37785 0.262097 0
M  V30 14752 C 1426.41 3.70016 0.690294 0
M  V30 14753 C 1425.55 2.7674 -0.17614 0
M  V30 14754 H 1428.51 1.48383 -0.562863 0
M  V30 14755 H 1428.53 3.64564 1.08964 0
M  V30 14756 H 1428.04 3.81221 -0.727481 0
M  V30 14757 H 1426.14 3.32124 1.68891 0
M  V30 14758 H 1426.25 4.76686 0.480388 0
M  V30 14759 H 1424.62 2.52263 0.351476 0
M  V30 14760 H 1425.4 3.23006 -1.16285 0
M  V30 14761 N 1427.84 0.0718701 1.57436 0
M  V30 14762 C 1428.78 -0.924911 2.09709 0
M  V30 14763 C 1429.79 -1.26136 1.02925 0
M  V30 14764 O 1430.98 -1.21853 1.30438 0
M  V30 14765 C 1428.08 -2.24072 2.54254 0
M  V30 14766 C 1427.25 -2.0831 3.84611 0
M  V30 14767 C 1426.31 -3.23196 4.15248 0
M  V30 14768 O 1425.34 -2.98184 4.84846 0
M  V30 14769 N 1426.54 -4.48293 3.688 0
M  V30 14770 H 1429.3 -0.478605 2.95854 0
M  V30 14771 H 1426.86 -0.113853 1.61499 0
M  V30 14772 H 1428.86 -2.99835 2.71811 0
M  V30 14773 H 1427.43 -2.60201 1.73246 0
M  V30 14774 H 1426.65 -1.17014 3.76432 0
M  V30 14775 H 1427.93 -1.9503 4.69937 0
M  V30 14776 H 1427.33 -4.71501 3.12575 0
M  V30 14777 H 1425.89 -5.21082 3.91556 0
M  V30 14778 N 1429.32 -1.56304 -0.201686 0
M  V30 14779 C 1430.55 -1.84692 -0.943583 0
M  V30 14780 C 1430.97 -0.654649 -1.7634 0
M  V30 14781 O 1430.33 0.396586 -1.76909 0
M  V30 14782 C 1430.38 -3.11251 -1.82085 0
M  V30 14783 O 1429.48 -2.9134 -2.91881 0
M  V30 14784 H 1428.82 -0.608351 -0.266092 0
M  V30 14785 H 1431.35 -2.0353 -0.208992 0
M  V30 14786 H 1431.36 -3.41874 -2.2268 0
M  V30 14787 H 1430.04 -3.97652 -1.21844 0
M  V30 14788 H 1428.62 -2.72 -2.55089 0
M  V30 14789 N 1430.8 0.469154 -1.50455 0
M  V30 14790 C 1431.76 1.5493 -1.68906 0
M  V30 14791 C 1432.76 1.50744 -0.559721 0
M  V30 14792 O 1433.95 1.5333 -0.826781 0
M  V30 14793 C 1431.09 2.94556 -1.71609 0
M  V30 14794 H 1432.28 1.39887 -2.65276 0
M  V30 14795 H 1429.83 0.695667 -1.39965 0
M  V30 14796 H 1430.57 3.15041 -0.769382 0
M  V30 14797 H 1430.35 2.99002 -2.53654 0
M  V30 14798 H 1431.84 3.72973 -1.87831 0
M  V30 14799 N 1432.28 1.40065 0.722464 0
M  V30 14800 C 1433.23 1.39784 1.83655 0
M  V30 14801 C 1434.2 0.255743 1.64119 0
M  V30 14802 O 1435.38 0.452766 1.8535 0
M  V30 14803 C 1432.52 1.25946 3.21297 0
M  V30 14804 C 1431.63 2.49805 3.52451 0
M  V30 14805 C 1430.77 2.2846 4.79562 0
M  V30 14806 C 1429.81 3.4793 5.03598 0
M  V30 14807 N 1428.94 3.25823 6.21919 0
M  V30 14808 H 1433.78 2.35013 1.83229 0
M  V30 14809 H 1431.32 1.16728 0.895154 0
M  V30 14810 H 1433.28 1.15931 4.00769 0
M  V30 14811 H 1431.91 0.343402 3.20968 0
M  V30 14812 H 1430.96 2.70375 2.67585 0
M  V30 14813 H 1432.27 3.38753 3.66126 0
M  V30 14814 H 1431.43 2.15758 5.67039 0
M  V30 14815 H 1430.17 1.36926 4.68084 0
M  V30 14816 H 1429.17 3.61116 4.14579 0
M  V30 14817 H 1430.4 4.40382 5.16953 0
M  V30 14818 H 1428.34 2.36965 6.11705 0
M  V30 14819 H 1428.26 4.08333 6.36239 0
M  V30 14820 H 1429.53 3.16841 7.12202 0
M  V30 14821 N 1433.76 -0.95397 1.25448 0
M  V30 14822 C 1435.17 -1.51337 1.09335 0
M  V30 14823 C 1435.52 -1.93393 -0.330698 0
M  V30 14824 O 1434.64 -1.78681 -1.22074 0
M  V30 14825 C 1435.24 -2.75024 1.97857 0
M  V30 14826 C 1433.8 -3.27274 1.85927 0
M  V30 14827 C 1432.95 -2.00108 1.91969 0
M  V30 14828 H 1435.9 -0.770795 1.38724 0
M  V30 14829 H 1435.92 -3.48867 1.51894 0
M  V30 14830 H 1435.43 -2.44383 3.01494 0
M  V30 14831 H 1433.53 -3.62734 0.851767 0
M  V30 14832 H 1433.64 -3.95245 2.70773 0
M  V30 14833 H 1432.01 -2.15438 1.35862 0
M  V30 14834 H 1432.79 -1.71816 2.97211 0
M  V30 14835 N 1435.24 -1.07045 -1.15668 0
M  V30 14836 C 1436.46 -0.812802 -1.9081 0
M  V30 14837 C 1436.89 0.627827 -1.77313 0
M  V30 14838 O 1436.24 1.43836 -1.10368 0
M  V30 14839 C 1436.29 -1.2219 -3.39267 0
M  V30 14840 O 1435.4 -0.365305 -4.10779 0
M  V30 14841 H 1434.74 -0.296385 -0.594182 0
M  V30 14842 H 1437.27 -1.42825 -1.465 0
M  V30 14843 H 1437.28 -1.19674 -3.90054 0
M  V30 14844 H 1435.95 -2.27121 -3.48409 0
M  V30 14845 H 1434.53 -0.452687 -3.70142 0
M  V30 14846 N 1436.71 1.32449 -0.85411 0
M  V30 14847 C 1437.96 1.96881 -0.45632 0
M  V30 14848 C 1438.28 1.67926 0.991248 0
M  V30 14849 O 1437.55 0.986195 1.69266 0
M  V30 14850 H 1436.13 0.728378 -0.165752 0
M  V30 14851 H 1438.79 1.61542 -1.09042 0
M  V30 14852 H 1437.89 3.0626 -0.600927 0
M  V30 14853 N 1438.19 0.611994 1.45232 0
M  V30 14854 C 1439.42 0.115409 2.06578 0
M  V30 14855 C 1439.83 -1.20206 1.45588 0
M  V30 14856 O 1439.19 -1.73315 0.571668 0
M  V30 14857 C 1439.24 -0.0259943 3.61491 0
M  V30 14858 O 1438.96 1.23936 4.20204 0
M  V30 14859 C 1440.46 -0.553522 4.39831 0
M  V30 14860 H 1437.68 0.0708656 0.667247 0
M  V30 14861 H 1440.23 0.840977 1.86408 0
M  V30 14862 H 1438.38 -0.701909 3.80988 0
M  V30 14863 H 1438.8 1.07187 5.13431 0
M  V30 14864 H 1440.27 -0.601536 5.48713 0
M  V30 14865 H 1440.75 -1.57671 4.09923 0
M  V30 14866 H 1441.35 0.0884954 4.25208 0
M  V30 14867 N 1439.67 -1.53632 0.351409 0
M  V30 14868 C 1441.08 -1.86241 -0.130834 0
M  V30 14869 C 1441.43 -1.27243 -1.49344 0
M  V30 14870 O 1440.56 -0.589006 -2.0823 0
M  V30 14871 C 1441.15 -3.37919 -0.244179 0
M  V30 14872 C 1439.71 -3.70377 -0.670662 0
M  V30 14873 C 1438.86 -2.76643 0.190813 0
M  V30 14874 H 1441.81 -1.48083 0.570724 0
M  V30 14875 H 1441.83 -3.65137 -1.07029 0
M  V30 14876 H 1441.34 -3.8083 0.747688 0
M  V30 14877 H 1439.44 -3.33015 -1.67127 0
M  V30 14878 H 1439.56 -4.76934 -0.455102 0
M  V30 14879 H 1437.92 -2.52446 -0.338092 0
M  V30 14880 H 1438.7 -3.22385 1.17996 0
M  V30 14881 N 1441.15 -0.0802183 -1.57396 0
M  V30 14882 C 1442.4 0.586573 -1.92982 0
M  V30 14883 C 1442.71 1.70256 -0.962918 0
M  V30 14884 O 1443.92 2.4295 -1.21193 0
M  V30 14885 C 1442.37 1.09475 -3.42846 0
M  V30 14886 C 1441.98 0.0093098 -4.47999 0
M  V30 14887 C 1443.72 1.73512 -3.87419 0
M  V30 14888 C 1441.63 0.532002 -5.89002 0
M  V30 14889 H 1440.56 0.222878 -0.720306 0
M  V30 14890 H 1443.21 -0.153816 -1.82854 0
M  V30 14891 H 1441.59 1.88836 -3.48076 0
M  V30 14892 H 1442.77 -0.765609 -4.54395 0
M  V30 14893 H 1441.08 -0.535345 -4.12944 0
M  V30 14894 H 1443.68 2.13665 -4.90154 0
M  V30 14895 H 1444.02 2.59845 -3.25248 0
M  V30 14896 H 1444.56 1.00758 -3.84828 0
M  V30 14897 H 1441.29 -0.294364 -6.54839 0
M  V30 14898 H 1440.81 1.27425 -5.86108 0
M  V30 14899 H 1442.49 1.00573 -6.39135 0
M  V30 14900 N 1442.63 1.56409 0.193394 0
M  V30 14901 C 1443.85 1.8519 0.933775 0
M  V30 14902 C 1444.28 0.663991 1.75991 0
M  V30 14903 O 1443.63 -0.387198 1.77117 0
M  V30 14904 C 1443.68 3.12212 1.80432 0
M  V30 14905 O 1442.79 2.92884 2.90332 0
M  V30 14906 H 1442.13 0.609754 0.262862 0
M  V30 14907 H 1444.66 2.03638 0.198195 0
M  V30 14908 H 1444.67 3.4305 2.20864 0
M  V30 14909 H 1443.34 3.98292 1.19733 0
M  V30 14910 H 1441.92 2.73349 2.53643 0
M  V30 14911 N 1444.1 -0.461169 1.50702 0
M  V30 14912 C 1445.51 -1.04177 1.54932 0
M  V30 14913 C 1445.87 -1.92894 0.358648 0
M  V30 14914 O 1444.99 -2.09876 -0.527346 0
M  V30 14915 C 1445.59 -1.8961 2.80773 0
M  V30 14916 C 1444.14 -2.42761 2.87652 0
M  V30 14917 C 1443.29 -1.21356 2.49335 0
M  V30 14918 H 1446.24 -0.243379 1.56823 0
M  V30 14919 H 1446.26 -2.74794 2.63189 0
M  V30 14920 H 1445.78 -1.25014 3.67414 0
M  V30 14921 H 1443.88 -3.10881 2.05386 0
M  V30 14922 H 1443.99 -2.77189 3.90772 0
M  V30 14923 H 1442.35 -1.55146 2.01995 0
M  V30 14924 H 1443.14 -0.584069 3.38295 0
M  V30 14925 N 1445.58 -1.40446 -0.715026 0
M  V30 14926 C 1446.54 -1.40506 -1.81082 0
M  V30 14927 C 1447.54 -0.298768 -1.58 0
M  V30 14928 O 1448.73 -0.5577 -1.65031 0
M  V30 14929 C 1445.87 -1.19735 -3.19181 0
M  V30 14930 H 1447.06 -2.38034 -1.82427 0
M  V30 14931 H 1444.61 -1.26303 -0.920718 0
M  V30 14932 H 1445.35 -0.229695 -3.23486 0
M  V30 14933 H 1445.13 -1.99871 -3.37334 0
M  V30 14934 H 1446.62 -1.22566 -3.99208 0
M  V30 14935 N 1447.06 0.947303 -1.25952 0
M  V30 14936 C 1448.47 1.50755 -1.10136 0
M  V30 14937 C 1448.82 1.93566 0.320437 0
M  V30 14938 O 1447.95 1.79326 1.21125 0
M  V30 14939 C 1448.54 2.7397 -1.99313 0
M  V30 14940 C 1447.1 3.26283 -1.8766 0
M  V30 14941 C 1446.25 1.99088 -1.93027 0
M  V30 14942 H 1449.2 0.763427 -1.39131 0
M  V30 14943 H 1449.22 3.48057 -1.53742 0
M  V30 14944 H 1448.73 2.42781 -3.02785 0
M  V30 14945 H 1446.83 3.62277 -0.870992 0
M  V30 14946 H 1446.95 3.93803 -2.72866 0
M  V30 14947 H 1445.31 2.14714 -1.37003 0
M  V30 14948 H 1446.09 1.70237 -2.98118 0
M  V30 14949 N 1448.54 1.07657 1.15099 0
M  V30 14950 C 1449.78 0.802796 1.86234 0
M  V30 14951 C 1450.12 -0.669555 1.82293 0
M  V30 14952 O 1449.39 -1.49162 1.24823 0
M  V30 14953 C 1449.68 1.3156 3.35208 0
M  V30 14954 C 1449.53 2.85272 3.47764 0
M  V30 14955 C 1450.85 0.934641 4.30061 0
M  V30 14956 H 1447.97 0.293099 0.676212 0
M  V30 14957 H 1450.61 1.33488 1.35207 0
M  V30 14958 H 1448.76 0.86298 3.78794 0
M  V30 14959 H 1450.43 3.38847 3.13018 0
M  V30 14960 H 1448.67 3.23316 2.89222 0
M  V30 14961 H 1449.34 3.16223 4.52446 0
M  V30 14962 H 1451.82 1.3247 3.9445 0
M  V30 14963 H 1450.7 1.32074 5.32774 0
M  V30 14964 H 1450.96 -0.159122 4.41814 0
M  V30 14965 N 1450.02 -1.31994 0.861122 0
M  V30 14966 C 1451.43 -1.79271 0.521437 0
M  V30 14967 C 1451.78 -1.71046 -0.96113 0
M  V30 14968 O 1450.9 -1.2729 -1.75003 0
M  V30 14969 C 1451.5 -3.25507 0.939731 0
M  V30 14970 C 1450.06 -3.70713 0.651845 0
M  V30 14971 C 1449.2 -2.52967 1.13592 0
M  V30 14972 H 1452.16 -1.19201 1.0477 0
M  V30 14973 H 1452.18 -3.79619 0.258754 0
M  V30 14974 H 1451.69 -3.3146 2.0188 0
M  V30 14975 H 1449.79 -3.70268 -0.416232 0
M  V30 14976 H 1449.9 -4.63236 1.22267 0
M  V30 14977 H 1448.27 -2.48558 0.555971 0
M  V30 14978 H 1449.05 -2.61671 2.22223 0
M  V30 14979 N 1451.49 -0.619688 -1.44906 0
M  V30 14980 C 1452.72 -0.124598 -2.07025 0
M  V30 14981 C 1453.14 1.18698 -1.45919 0
M  V30 14982 O 1452.5 1.72552 -0.556366 0
M  V30 14983 C 1452.55 -0.0112238 -3.60598 0
M  V30 14984 O 1451.65 1.03582 -3.9918 0
M  V30 14985 H 1451 -0.0795631 -0.659216 0
M  V30 14986 H 1453.53 -0.853127 -1.85965 0
M  V30 14987 H 1453.54 0.183079 -4.07589 0
M  V30 14988 H 1452.21 -0.968849 -4.04458 0
M  V30 14989 H 1450.79 0.817008 -3.6384 0
M  V30 14990 N 1452.97 1.53444 -0.359552 0
M  V30 14991 C 1454.2 2.05584 0.232953 0
M  V30 14992 C 1454.62 1.23347 1.42937 0
M  V30 14993 O 1453.97 0.272662 1.80452 0
M  V30 14994 C 1454.02 3.55926 0.632359 0
M  V30 14995 O 1453.74 4.35045 -0.516494 0
M  V30 14996 C 1455.25 4.24301 1.28389 0
M  V30 14997 H 1452.47 0.669676 0.042132 0
M  V30 14998 H 1455.01 1.97878 -0.516176 0
M  V30 14999 H 1453.16 3.63802 1.33141 0
M  V30 15000 H 1453.58 5.24138 -0.194906 0
M  V30 15001 H 1455.05 5.30832 1.51397 0
M  V30 15002 H 1455.53 3.77644 2.24236 0
M  V30 15003 H 1456.14 4.20661 0.626438 0
M  V30 15004 N 1454.45 0.0885642 1.57351 0
M  V30 15005 C 1455.38 -0.869946 2.16689 0
M  V30 15006 C 1456.36 -1.29878 1.09844 0
M  V30 15007 O 1457.55 -1.36684 1.37954 0
M  V30 15008 C 1454.68 -2.13148 2.74199 0
M  V30 15009 C 1453.63 -1.84149 3.86359 0
M  V30 15010 C 1452.96 -3.17075 4.30543 0
M  V30 15011 C 1454.26 -1.13357 5.09851 0
M  V30 15012 H 1455.95 -0.375578 2.97035 0
M  V30 15013 H 1453.5 -0.17921 1.42881 0
M  V30 15014 H 1455.45 -2.80634 3.14361 0
M  V30 15015 H 1454.17 -2.64856 1.91098 0
M  V30 15016 H 1452.83 -1.19063 3.46727 0
M  V30 15017 H 1452.48 -3.66658 3.44342 0
M  V30 15018 H 1452.18 -2.98457 5.06159 0
M  V30 15019 H 1453.7 -3.85731 4.73333 0
M  V30 15020 H 1455.12 -1.70941 5.47222 0
M  V30 15021 H 1453.52 -1.0494 5.90853 0
M  V30 15022 H 1454.59 -0.115273 4.84763 0
M  V30 15023 N 1455.93 -1.56509 -0.185096 0
M  V30 15024 C 1457.34 -1.71024 -0.748856 0
M  V30 15025 C 1457.69 -0.69681 -1.83409 0
M  V30 15026 O 1456.82 0.144711 -2.15916 0
M  V30 15027 C 1457.41 -3.1008 -1.36513 0
M  V30 15028 C 1455.97 -3.26325 -1.87587 0
M  V30 15029 C 1455.12 -2.66977 -0.749579 0
M  V30 15030 H 1458.07 -1.58649 0.0401175 0
M  V30 15031 H 1458.09 -3.07965 -2.23468 0
M  V30 15032 H 1457.6 -3.83816 -0.575051 0
M  V30 15033 H 1455.7 -2.57522 -2.69283 0
M  V30 15034 H 1455.81 -4.33931 -2.03078 0
M  V30 15035 H 1454.18 -2.26419 -1.16647 0
M  V30 15036 H 1454.96 -3.43288 0.0284301 0
M  V30 15037 N 1457.41 0.45317 -1.50944 0
M  V30 15038 C 1458.63 1.23136 -1.6689 0
M  V30 15039 C 1459.06 1.84639 -0.359185 0
M  V30 15040 O 1458.41 1.68106 0.678983 0
M  V30 15041 C 1458.46 2.30275 -2.77499 0
M  V30 15042 O 1457.57 3.35371 -2.39999 0
M  V30 15043 H 1456.91 0.361475 -0.556984 0
M  V30 15044 H 1459.44 0.537174 -1.97422 0
M  V30 15045 H 1459.45 2.75309 -3.01113 0
M  V30 15046 H 1458.12 1.84885 -3.72546 0
M  V30 15047 H 1456.7 2.95924 -2.26899 0
M  V30 15048 N 1458.88 1.40823 0.707568 0
M  V30 15049 C 1459.85 1.41464 1.80334 0
M  V30 15050 C 1460.85 0.307143 1.57839 0
M  V30 15051 O 1462.04 0.566444 1.64733 0
M  V30 15052 C 1459.17 1.21426 3.18541 0
M  V30 15053 H 1460.36 2.38998 1.81162 0
M  V30 15054 H 1457.92 1.2679 0.914007 0
M  V30 15055 H 1458.65 0.246847 3.23359 0
M  V30 15056 H 1458.44 2.01657 3.36269 0
M  V30 15057 H 1459.93 1.24681 3.98553 0
M  V30 15058 N 1460.36 -0.94061 1.26453 0
M  V30 15059 C 1461.59 -1.72654 1.14914 0
M  V30 15060 C 1462.01 -1.85823 -0.291789 0
M  V30 15061 O 1461.37 -1.34888 -1.2114 0
M  V30 15062 C 1461.42 -3.11083 1.82372 0
M  V30 15063 O 1460.52 -3.971 1.1129 0
M  V30 15064 H 1459.86 -0.529704 0.400387 0
M  V30 15065 H 1462.39 -1.17803 1.67283 0
M  V30 15066 H 1462.4 -3.6147 1.89219 0
M  V30 15067 H 1461.08 -3.00815 2.87199 0
M  V30 15068 H 1459.66 -3.5555 1.12423 0
M  V30 15069 N 1461.84 -1.08266 -1.14527 0
M  V30 15070 C 1463.07 -0.832994 -1.89937 0
M  V30 15071 C 1463.49 0.608985 -1.77969 0
M  V30 15072 O 1462.85 1.42657 -1.11887 0
M  V30 15073 C 1462.9 -1.25782 -3.37952 0
M  V30 15074 O 1462 -0.408853 -4.10368 0
M  V30 15075 H 1461.34 -0.30267 -0.591005 0
M  V30 15076 H 1463.87 -1.44371 -1.44977 0
M  V30 15077 H 1463.88 -1.23804 -3.88763 0
M  V30 15078 H 1462.56 -2.30804 -3.4598 0
M  V30 15079 H 1461.13 -0.49192 -3.69641 0
M  V30 15080 N 1463.32 1.31536 -0.86811 0
M  V30 15081 C 1464.28 2.26849 -0.327456 0
M  V30 15082 C 1465.28 1.52142 0.520514 0
M  V30 15083 O 1466.47 1.71044 0.330088 0
M  V30 15084 C 1463.6 3.36673 0.535174 0
M  V30 15085 H 1464.8 2.76184 -1.16886 0
M  V30 15086 H 1462.35 1.42437 -0.643545 0
M  V30 15087 H 1463.09 2.92627 1.39785 0
M  V30 15088 H 1462.87 3.92034 -0.0719835 0
M  V30 15089 H 1464.36 4.07658 0.905786 0
M  V30 15090 N 1464.8 0.627364 1.44575 0
M  V30 15091 C 1465.73 -0.066735 2.33405 0
M  V30 15092 C 1466.71 -0.838666 1.47988 0
M  V30 15093 O 1467.89 -0.805296 1.76716 0
M  V30 15094 C 1465.02 -1.05148 3.31 0
M  V30 15095 C 1463.98 -0.391433 4.26206 0
M  V30 15096 C 1463.3 -1.48581 5.13642 0
M  V30 15097 C 1464.6 0.699942 5.17589 0
M  V30 15098 H 1466.3 0.675029 2.91691 0
M  V30 15099 H 1463.84 0.326066 1.4026 0
M  V30 15100 H 1465.8 -1.54576 3.92026 0
M  V30 15101 H 1464.52 -1.82408 2.70915 0
M  V30 15102 H 1463.18 0.0821694 3.66508 0
M  V30 15103 H 1462.83 -2.2492 4.49911 0
M  V30 15104 H 1462.53 -1.04957 5.7815 0
M  V30 15105 H 1464.05 -1.98198 5.77538 0
M  V30 15106 H 1465.47 0.288911 5.72572 0
M  V30 15107 H 1463.86 1.0591 5.9068 0
M  V30 15108 H 1464.93 1.5686 4.58828 0
M  V30 15109 N 1466.28 -1.53251 0.367684 0
M  V30 15110 C 1467.24 -2.24423 -0.465516 0
M  V30 15111 C 1468.24 -1.25283 -1.00801 0
M  V30 15112 O 1469.43 -1.49545 -0.893424 0
M  V30 15113 C 1466.56 -2.9826 -1.65087 0
M  V30 15114 H 1467.75 -2.99487 0.157292 0
M  V30 15115 H 1465.31 -1.55843 0.119409 0
M  V30 15116 H 1466.04 -2.27443 -2.31171 0
M  V30 15117 H 1465.83 -3.71003 -1.26882 0
M  V30 15118 H 1467.32 -3.52358 -2.24128 0
M  V30 15119 N 1467.75 -0.0969077 -1.57302 0
M  V30 15120 C 1469 0.565254 -1.94034 0
M  V30 15121 C 1469.32 1.68609 -0.9796 0
M  V30 15122 O 1468.59 1.95874 -0.0319788 0
M  V30 15123 H 1467.17 0.211796 -0.716346 0
M  V30 15124 H 1469.83 -0.160665 -1.94237 0
M  V30 15125 H 1468.93 0.974268 -2.96504 0
M  V30 15126 N 1469.23 1.56605 0.176793 0
M  V30 15127 C 1470.51 1.72546 0.921261 0
M  V30 15128 C 1470.89 0.656794 2.00623 0
M  V30 15129 O 1470.24 -0.329303 2.26115 0
M  V30 15130 C 1470.45 3.15548 1.491 0
M  V30 15131 C 1471.79 3.7634 1.96604 0
M  V30 15132 O 1472.82 3.18791 1.58905 0
M  V30 15133 O 1471.68 4.77377 2.66033 0
M  V30 15134 H 1468.77 0.704425 0.43326 0
M  V30 15135 H 1471.32 1.68895 0.165052 0
M  V30 15136 H 1470.09 3.84808 0.709839 0
M  V30 15137 H 1469.71 3.23502 2.31154 0
M  V30 15138 N 1470.71 -0.445159 1.51182 0
M  V30 15139 C 1471.64 -1.55788 1.68115 0
M  V30 15140 C 1472.65 -1.52793 0.561964 0
M  V30 15141 O 1473.84 -1.57711 0.836029 0
M  V30 15142 C 1470.94 -2.94702 1.67344 0
M  V30 15143 C 1470.12 -3.22286 2.9572 0
M  V30 15144 C 1469.18 -4.40884 2.87241 0
M  V30 15145 O 1468.2 -4.3992 3.61191 0
M  V30 15146 N 1469.4 -5.44013 2.02558 0
M  V30 15147 H 1472.17 -1.4167 2.64102 0
M  V30 15148 H 1469.73 -0.633984 1.48971 0
M  V30 15149 H 1471.72 -3.7205 1.5925 0
M  V30 15150 H 1470.29 -3.02457 0.789842 0
M  V30 15151 H 1469.51 -2.33309 3.17743 0
M  V30 15152 H 1470.8 -3.3754 3.80715 0
M  V30 15153 H 1470.2 -5.47629 1.4184 0
M  V30 15154 H 1468.75 -6.20245 2.0035 0
M  V30 15155 N 1472.19 -1.41197 -0.700089 0
M  V30 15156 C 1473.6 -1.3593 -1.27985 0
M  V30 15157 C 1473.95 -0.0402059 -1.96159 0
M  V30 15158 O 1473.07 0.861611 -1.98508 0
M  V30 15159 C 1473.67 -2.46203 -2.32743 0
M  V30 15160 C 1472.23 -2.44348 -2.86306 0
M  V30 15161 C 1471.38 -2.26283 -1.60285 0
M  V30 15162 H 1474.33 -1.50778 -0.495152 0
M  V30 15163 H 1474.35 -2.15001 -3.13934 0
M  V30 15164 H 1473.86 -3.42195 -1.83096 0
M  V30 15165 H 1471.96 -1.521 -3.40142 0
M  V30 15166 H 1472.07 -3.40497 -3.37044 0
M  V30 15167 H 1470.44 -1.74078 -1.85928 0
M  V30 15168 H 1471.22 -3.24295 -1.1264 0
M  V30 15169 N 1473.67 0.933891 -1.2695 0
M  V30 15170 C 1474.89 1.72042 -1.15828 0
M  V30 15171 C 1475.32 1.85975 0.28193 0
M  V30 15172 O 1474.67 1.35528 1.20423 0
M  V30 15173 C 1474.72 3.10112 -1.84019 0
M  V30 15174 O 1473.83 3.96504 -1.13394 0
M  V30 15175 H 1473.17 0.527573 -0.40319 0
M  V30 15176 H 1475.7 1.16914 -1.67905 0
M  V30 15177 H 1475.71 3.60461 -1.91133 0
M  V30 15178 H 1474.38 2.99287 -2.8879 0
M  V30 15179 H 1472.96 3.54948 -1.14307 0
M  V30 15180 N 1475.14 1.08871 1.13951 0
M  V30 15181 C 1476.37 0.843055 1.89492 0
M  V30 15182 C 1476.79 -0.599539 1.78289 0
M  V30 15183 O 1476.15 -1.42062 1.12642 0
M  V30 15184 C 1476.2 1.27572 3.3728 0
M  V30 15185 O 1475.3 0.430611 4.10146 0
M  V30 15186 H 1474.64 0.3058 0.589391 0
M  V30 15187 H 1477.17 1.45137 1.44209 0
M  V30 15188 H 1477.18 1.25864 3.88101 0
M  V30 15189 H 1475.86 2.32635 3.44751 0
M  V30 15190 H 1474.44 0.511516 3.69375 0
M  V30 15191 N 1476.62 -1.31073 0.875073 0
M  V30 15192 C 1477.85 -2.00688 0.503179 0
M  V30 15193 C 1478.26 -1.65657 -0.905714 0
M  V30 15194 O 1477.62 -0.888468 -1.59413 0
M  V30 15195 C 1477.67 -3.55486 0.65666 0
M  V30 15196 O 1477.39 -3.89265 2.01007 0
M  V30 15197 C 1478.89 -4.42374 0.28645 0
M  V30 15198 H 1476.11 -0.641885 0.195512 0
M  V30 15199 H 1478.66 -1.67188 1.17765 0
M  V30 15200 H 1476.81 -3.87389 0.0296852 0
M  V30 15201 H 1477.23 -4.83978 2.02153 0
M  V30 15202 H 1478.7 -5.50205 0.444776 0
M  V30 15203 H 1479.18 -4.32312 -0.774789 0
M  V30 15204 H 1479.78 -4.15898 0.889336 0
M  V30 15205 N 1478.1 -0.635022 -1.4424 0
M  V30 15206 C 1479.06 0.0579377 -2.29127 0
M  V30 15207 C 1480.06 0.768489 -1.41248 0
M  V30 15208 O 1481.25 0.612489 -1.63077 0
M  V30 15209 C 1478.39 1.09266 -3.22914 0
M  V30 15210 H 1479.58 -0.688723 -2.91885 0
M  V30 15211 H 1477.13 -0.395347 -1.51217 0
M  V30 15212 H 1477.87 1.86917 -2.65014 0
M  V30 15213 H 1477.65 0.587036 -3.87681 0
M  V30 15214 H 1479.14 1.57716 -3.86672 0
M  V30 15215 N 1479.58 1.53054 -0.375806 0
M  V30 15216 C 1480.83 2.01401 0.210673 0
M  V30 15217 C 1481.15 1.26275 1.47935 0
M  V30 15218 O 1480.41 0.347611 1.92588 0
M  V30 15219 C 1480.71 3.53321 0.538419 0
M  V30 15220 C 1480.37 4.46376 -0.637126 0
M  V30 15221 C 1479.04 4.71534 -0.959653 0
M  V30 15222 C 1481.39 5.01364 -1.42421 0
M  V30 15223 C 1478.72 5.4893 -2.07105 0
M  V30 15224 C 1481.07 5.79975 -2.5261 0
M  V30 15225 C 1479.73 6.03416 -2.85386 0
M  V30 15226 H 1479 0.736979 0.0770907 0
M  V30 15227 H 1481.65 1.84574 -0.510376 0
M  V30 15228 H 1479.95 3.6815 1.34062 0
M  V30 15229 H 1481.65 3.88212 1.00461 0
M  V30 15230 H 1478.24 4.2695 -0.375722 0
M  V30 15231 H 1482.42 4.81865 -1.18828 0
M  V30 15232 H 1477.68 5.65309 -2.32886 0
M  V30 15233 H 1481.85 6.21588 -3.14008 0
M  V30 15234 H 1479.48 6.63172 -3.71627 0
M  V30 15235 N 1481.06 0.105248 1.57248 0
M  V30 15236 C 1482.31 -0.555797 1.93891 0
M  V30 15237 C 1482.62 -1.68703 0.989883 0
M  V30 15238 O 1483.82 -2.40991 1.25043 0
M  V30 15239 C 1482.28 -1.04006 3.44544 0
M  V30 15240 C 1481.89 0.0619641 4.47957 0
M  V30 15241 C 1483.63 -1.67327 3.90131 0
M  V30 15242 C 1481.54 -0.438229 5.89774 0
M  V30 15243 H 1480.47 -0.211391 0.723761 0
M  V30 15244 H 1483.12 0.182887 1.82586 0
M  V30 15245 H 1481.5 -1.83275 3.51036 0
M  V30 15246 H 1482.68 0.837803 4.5312 0
M  V30 15247 H 1480.99 0.600973 4.1204 0
M  V30 15248 H 1483.59 -2.0584 4.93492 0
M  V30 15249 H 1483.93 -2.54638 3.29341 0
M  V30 15250 H 1484.46 -0.946231 3.86382 0
M  V30 15251 H 1481.2 0.398506 6.54288 0
M  V30 15252 H 1480.72 -1.18085 5.88061 0
M  V30 15253 H 1482.4 -0.903922 6.40655 0
M  V30 15254 N 1482.53 -1.56697 -0.168486 0
M  V30 15255 C 1483.95 -1.71808 -0.730674 0
M  V30 15256 C 1484.3 -0.716224 -1.8266 0
M  V30 15257 O 1483.42 0.121803 -2.16057 0
M  V30 15258 C 1484.02 -3.1151 -1.33217 0
M  V30 15259 C 1482.58 -3.28297 -1.84115 0
M  V30 15260 C 1481.72 -2.67757 -0.72122 0
M  V30 15261 H 1484.67 -1.58598 0.0569421 0
M  V30 15262 H 1484.69 -3.10318 -2.20189 0
M  V30 15263 H 1484.21 -3.84404 -0.53431 0
M  V30 15264 H 1482.31 -2.60364 -2.66536 0
M  V30 15265 H 1482.42 -4.3606 -1.98464 0
M  V30 15266 H 1480.78 -2.27644 -1.14239 0
M  V30 15267 H 1481.57 -3.43239 0.0648388 0
M  V30 15268 N 1484.01 0.437135 -1.51416 0
M  V30 15269 C 1484.94 1.538 -1.75692 0
M  V30 15270 C 1485.92 1.5891 -0.606759 0
M  V30 15271 O 1487.11 1.74635 -0.849492 0
M  V30 15272 C 1484.24 2.91877 -1.88215 0
M  V30 15273 C 1483.19 3.01628 -3.03652 0
M  V30 15274 C 1482.52 4.41687 -3.01358 0
M  V30 15275 C 1483.82 2.75691 -4.43612 0
M  V30 15276 H 1485.51 1.33737 -2.67871 0
M  V30 15277 H 1483.06 0.641936 -1.289 0
M  V30 15278 H 1485.01 3.68851 -2.03781 0
M  V30 15279 H 1483.74 3.13173 -0.926847 0
M  V30 15280 H 1482.39 2.27094 -2.87791 0
M  V30 15281 H 1482.04 4.5995 -2.03605 0
M  V30 15282 H 1481.74 4.49141 -3.78875 0
M  V30 15283 H 1483.27 5.20634 -3.19018 0
M  V30 15284 H 1484.68 3.42398 -4.59822 0
M  V30 15285 H 1483.08 2.94554 -5.22836 0
M  V30 15286 H 1484.15 1.71297 -4.53636 0
M  V30 15287 N 1485.49 1.41566 0.692592 0
M  V30 15288 C 1486.74 1.40381 1.44831 0
M  V30 15289 C 1487.05 0.0172068 1.95592 0
M  V30 15290 O 1488.26 -0.11726 2.71247 0
M  V30 15291 C 1486.71 2.46844 2.61908 0
M  V30 15292 C 1486.32 3.91426 2.17921 0
M  V30 15293 C 1488.07 2.548 3.39525 0
M  V30 15294 C 1485.97 4.89436 3.31974 0
M  V30 15295 H 1484.9 0.522062 0.544028 0
M  V30 15296 H 1487.55 1.67402 0.751589 0
M  V30 15297 H 1485.94 2.12959 3.33863 0
M  V30 15298 H 1487.11 4.34575 1.53236 0
M  V30 15299 H 1485.43 3.87158 1.5329 0
M  V30 15300 H 1488.02 3.25207 4.24434 0
M  V30 15301 H 1488.37 1.58579 3.84913 0
M  V30 15302 H 1488.9 2.87791 2.74629 0
M  V30 15303 H 1485.64 5.87071 2.91595 0
M  V30 15304 H 1485.16 4.50933 3.95499 0
M  V30 15305 H 1486.84 5.10331 3.97708 0
M  V30 15306 N 1486.97 -0.927146 1.27443 0
M  V30 15307 C 1488.19 -1.71426 1.16739 0
M  V30 15308 C 1488.62 -1.86122 -0.272063 0
M  V30 15309 O 1487.98 -1.36165 -1.19703 0
M  V30 15310 C 1488.02 -3.09131 1.85661 0
M  V30 15311 O 1487.13 -3.95897 1.15495 0
M  V30 15312 H 1486.47 -0.525428 0.405983 0
M  V30 15313 H 1489 -1.16022 1.68523 0
M  V30 15314 H 1489.01 -3.59442 1.93042 0
M  V30 15315 H 1487.68 -2.97752 2.90373 0
M  V30 15316 H 1486.26 -3.54337 1.16187 0
M  V30 15317 N 1488.45 -1.09474 -1.13372 0
M  V30 15318 C 1489.67 -0.852921 -1.88502 0
M  V30 15319 C 1490.09 0.595855 -1.79151 0
M  V30 15320 O 1489.45 1.41019 -1.15845 0
M  V30 15321 C 1489.5 -1.27993 -3.38083 0
M  V30 15322 O 1489.22 -2.67189 -3.47191 0
M  V30 15323 C 1490.72 -1.07056 -4.30179 0
M  V30 15324 H 1487.94 -0.30682 -0.596743 0
M  V30 15325 H 1490.48 -1.45685 -1.43513 0
M  V30 15326 H 1488.64 -0.719879 -3.80653 0
M  V30 15327 H 1489.05 -2.85202 -4.40182 0
M  V30 15328 H 1490.53 -1.4186 -5.3346 0
M  V30 15329 H 1491 -0.00838732 -4.39199 0
M  V30 15330 H 1491.61 -1.61659 -3.93378 0
M  V30 15331 N 1489.92 1.30607 -0.882012 0
M  V30 15332 C 1491.34 1.48859 -0.575599 0
M  V30 15333 C 1491.54 1.80908 0.887388 0
M  V30 15334 O 1490.6 1.89492 1.6688 0
M  V30 15335 C 1491.91 2.61405 -1.48619 0
M  V30 15336 C 1493.46 2.75286 -1.48951 0
M  V30 15337 C 1493.93 3.90942 -2.38596 0
M  V30 15338 N 1495.42 3.98248 -2.36543 0
M  V30 15339 C 1496.16 4.87041 -3.0262 0
M  V30 15340 N 1495.65 5.80651 -3.77911 0
M  V30 15341 N 1497.45 4.80385 -2.91867 0
M  V30 15342 H 1489.6 1.08076 -1.82848 0
M  V30 15343 H 1491.86 0.535148 -0.782509 0
M  V30 15344 H 1491.57 2.44535 -2.52775 0
M  V30 15345 H 1491.44 3.57818 -1.19358 0
M  V30 15346 H 1493.83 2.91564 -0.455477 0
M  V30 15347 H 1493.91 1.79504 -1.82242 0
M  V30 15348 H 1493.55 3.75422 -3.42083 0
M  V30 15349 H 1493.48 4.86057 -2.02623 0
M  V30 15350 H 1495.97 3.31282 -1.81827 0
M  V30 15351 H 1496.29 6.45159 -4.25428 0
M  V30 15352 H 1494.63 5.80592 -3.82019 0
M  V30 15353 H 1497.82 4.06234 -2.32576 0
M  V30 15354 H 1498 5.49377 -3.43641 0
M  V30 15355 N 1491.4 0.642663 1.43901 0
M  V30 15356 C 1492.65 0.152003 2.0223 0
M  V30 15357 C 1492.98 -1.22711 1.50518 0
M  V30 15358 O 1492.26 -1.817 0.693937 0
M  V30 15359 C 1492.54 0.151278 3.59782 0
M  V30 15360 C 1492.39 1.56356 4.2175 0
M  V30 15361 C 1493.71 -0.518016 4.37041 0
M  V30 15362 H 1490.83 0.0567094 0.734815 0
M  V30 15363 H 1493.47 0.821337 1.7133 0
M  V30 15364 H 1491.62 -0.418679 3.86237 0
M  V30 15365 H 1493.29 2.18329 4.06362 0
M  V30 15366 H 1491.54 2.11401 3.78803 0
M  V30 15367 H 1492.21 1.51499 5.30803 0
M  V30 15368 H 1494.68 -0.0331947 4.16087 0
M  V30 15369 H 1493.56 -0.487754 5.46729 0
M  V30 15370 H 1493.82 -1.59036 4.12504 0
M  V30 15371 N 1492.88 -1.52852 0.383918 0
M  V30 15372 C 1494.11 -2.06406 -0.202764 0
M  V30 15373 C 1494.53 -1.25421 -1.40183 0
M  V30 15374 O 1493.89 -0.277876 -1.79158 0
M  V30 15375 C 1493.94 -3.56281 -0.556414 0
M  V30 15376 O 1493.04 -3.77904 -1.65113 0
M  V30 15377 H 1492.38 -0.663523 -0.0251737 0
M  V30 15378 H 1494.91 -1.97074 0.54983 0
M  V30 15379 H 1494.92 -3.99629 -0.822249 0
M  V30 15380 H 1493.6 -4.14665 0.320253 0
M  V30 15381 H 1492.17 -3.46448 -1.37943 0
M  V30 15382 N 1494.36 -0.113586 -1.5719 0
M  V30 15383 C 1495.29 0.835363 -2.18046 0
M  V30 15384 C 1496.27 1.28114 -1.11897 0
M  V30 15385 O 1497.46 1.34472 -1.40111 0
M  V30 15386 C 1494.59 2.08759 -2.77556 0
M  V30 15387 C 1493.54 1.77979 -3.8924 0
M  V30 15388 C 1492.87 3.10185 -4.35533 0
M  V30 15389 C 1494.17 1.05231 -5.11589 0
M  V30 15390 H 1495.86 0.328275 -2.97595 0
M  V30 15391 H 1493.41 0.156456 -1.43148 0
M  V30 15392 H 1495.36 2.75597 -3.18785 0
M  V30 15393 H 1494.08 2.61783 -1.95288 0
M  V30 15394 H 1492.74 1.13532 -3.48577 0
M  V30 15395 H 1492.39 3.61133 -3.50131 0
M  V30 15396 H 1492.09 2.90367 -5.10843 0
M  V30 15397 H 1493.61 3.78151 -4.7941 0
M  V30 15398 H 1495.03 1.62213 -5.49872 0
M  V30 15399 H 1493.42 0.955269 -5.92448 0
M  V30 15400 H 1494.49 0.038137 -4.84885 0
M  V30 15401 N 1495.84 1.56784 0.160173 0
M  V30 15402 C 1497.25 1.51153 0.512352 0
M  V30 15403 C 1497.45 0.819774 1.84071 0
M  V30 15404 O 1496.51 0.384789 2.49551 0
M  V30 15405 C 1497.82 2.95906 0.534817 0
M  V30 15406 C 1499.37 3.06773 0.621248 0
M  V30 15407 C 1499.85 4.53006 0.674501 0
M  V30 15408 N 1501.34 4.57298 0.737087 0
M  V30 15409 C 1502.07 5.67805 0.799054 0
M  V30 15410 N 1501.57 6.87916 0.821171 0
M  V30 15411 N 1503.36 5.55804 0.838928 0
M  V30 15412 H 1495.51 2.00157 -0.710712 0
M  V30 15413 H 1497.77 0.91233 -0.257601 0
M  V30 15414 H 1497.48 3.49719 -0.372773 0
M  V30 15415 H 1497.35 3.51152 1.3774 0
M  V30 15416 H 1499.74 2.52987 1.51926 0
M  V30 15417 H 1499.82 2.54593 -0.248224 0
M  V30 15418 H 1499.47 5.07426 -0.219301 0
M  V30 15419 H 1499.4 5.02954 1.56028 0
M  V30 15420 H 1501.89 3.70825 0.727827 0
M  V30 15421 H 1502.2 7.67888 0.869938 0
M  V30 15422 H 1500.55 6.90504 0.789264 0
M  V30 15423 H 1503.74 4.60884 0.818728 0
M  V30 15424 H 1503.91 6.41945 0.883757 0
M  V30 15425 N 1497.32 -0.429099 1.51646 0
M  V30 15426 C 1498.26 -1.52143 1.73554 0
M  V30 15427 C 1499.23 -1.55741 0.577416 0
M  V30 15428 O 1500.42 -1.72623 0.812768 0
M  V30 15429 C 1497.56 -2.89785 1.874 0
M  V30 15430 C 1496.67 -2.95652 3.14982 0
M  V30 15431 C 1495.81 -4.24468 3.19375 0
M  V30 15432 C 1494.84 -4.24234 4.41239 0
M  V30 15433 N 1493.98 -5.44587 4.43135 0
M  V30 15434 H 1498.82 -1.32764 2.66791 0
M  V30 15435 H 1496.36 -0.6448 1.32215 0
M  V30 15436 H 1498.32 -3.6966 1.9341 0
M  V30 15437 H 1496.95 -3.07703 0.975638 0
M  V30 15438 H 1496 -2.0839 3.18242 0
M  V30 15439 H 1497.31 -2.91342 4.04872 0
M  V30 15440 H 1496.46 -5.12722 3.24347 0
M  V30 15441 H 1495.2 -4.31446 2.27389 0
M  V30 15442 H 1494.21 -3.34371 4.36435 0
M  V30 15443 H 1495.43 -4.18913 5.34499 0
M  V30 15444 H 1493.38 -5.52271 3.54023 0
M  V30 15445 H 1493.3 -5.42191 5.26845 0
M  V30 15446 H 1494.56 -6.34851 4.5231 0
M  V30 15447 N 1498.79 -1.41931 -0.685074 0
M  V30 15448 C 1500.02 -1.45229 -1.47364 0
M  V30 15449 C 1500.44 -0.060595 -1.88703 0
M  V30 15450 O 1499.79 0.92244 -1.57472 0
M  V30 15451 C 1499.84 -2.37033 -2.72942 0
M  V30 15452 O 1499.57 -3.70787 -2.33342 0
M  V30 15453 C 1501.07 -2.49244 -3.66596 0
M  V30 15454 H 1498.29 -0.494291 -0.453781 0
M  V30 15455 H 1500.83 -1.86333 -0.84263 0
M  V30 15456 H 1498.99 -1.9921 -3.32256 0
M  V30 15457 H 1499.4 -4.19853 -3.14362 0
M  V30 15458 H 1500.87 -3.17624 -4.51463 0
M  V30 15459 H 1501.35 -1.52703 -4.11799 0
M  V30 15460 H 1501.96 -2.87747 -3.1318 0
M  V30 15461 N 1500.27 0.920374 -1.27933 0
M  V30 15462 C 1501.69 1.19761 -1.05496 0
M  V30 15463 C 1501.89 2.00435 0.206864 0
M  V30 15464 O 1500.94 2.35518 0.910356 0
M  V30 15465 C 1502.26 1.93863 -2.29864 0
M  V30 15466 C 1503.8 2.06773 -2.34976 0
M  V30 15467 C 1504.28 2.84282 -3.59093 0
M  V30 15468 N 1505.77 2.91847 -3.59694 0
M  V30 15469 C 1506.51 3.52303 -4.52404 0
M  V30 15470 N 1506 4.14092 -5.55427 0
M  V30 15471 N 1507.79 3.49778 -4.40013 0
M  V30 15472 H 1499.95 0.381596 -2.08944 0
M  V30 15473 H 1502.21 0.231451 -0.919312 0
M  V30 15474 H 1501.91 1.42008 -3.21756 0
M  V30 15475 H 1501.79 2.94446 -2.35757 0
M  V30 15476 H 1504.18 2.57812 -1.43586 0
M  V30 15477 H 1504.26 1.05388 -2.33082 0
M  V30 15478 H 1503.9 2.33925 -4.50823 0
M  V30 15479 H 1503.83 3.85968 -3.5824 0
M  V30 15480 H 1506.32 2.4794 -2.85191 0
M  V30 15481 H 1506.63 4.58183 -6.22325 0
M  V30 15482 H 1504.98 4.12616 -5.59261 0
M  V30 15483 H 1508.17 3.00712 -3.58733 0
M  V30 15484 H 1508.34 3.96603 -5.12455 0
M  V30 15485 N 1501.75 1.10074 1.1279 0
M  V30 15486 C 1502.68 0.704023 2.1812 0
M  V30 15487 C 1503.69 -0.25742 1.60752 0
M  V30 15488 O 1504.88 -0.0424559 1.7845 0
M  V30 15489 C 1501.98 0.0176666 3.38895 0
M  V30 15490 C 1501.16 1.00234 4.2576 0
M  V30 15491 C 1500.22 0.348158 5.25047 0
M  V30 15492 O 1499.24 0.997821 5.60386 0
M  V30 15493 N 1500.44 -0.894955 5.7356 0
M  V30 15494 H 1503.21 1.61024 2.52767 0
M  V30 15495 H 1500.77 0.989068 1.28176 0
M  V30 15496 H 1502.76 -0.431346 4.02395 0
M  V30 15497 H 1501.33 -0.7909 3.02429 0
M  V30 15498 H 1500.55 1.62972 3.58934 0
M  V30 15499 H 1501.84 1.669 4.80647 0
M  V30 15500 H 1501.24 -1.4422 5.47007 0
M  V30 15501 H 1499.79 -1.28718 6.38964 0
M  V30 15502 N 1503.23 -1.30138 0.888926 0
M  V30 15503 C 1504.64 -1.78124 0.559346 0
M  V30 15504 C 1504.99 -1.73046 -0.924633 0
M  V30 15505 O 1504.11 -1.30974 -1.72264 0
M  V30 15506 C 1504.71 -3.2344 1.00856 0
M  V30 15507 C 1503.27 -3.69247 0.730332 0
M  V30 15508 C 1502.42 -2.505 1.18933 0
M  V30 15509 H 1505.37 -1.16952 1.07275 0
M  V30 15510 H 1505.39 -3.78985 0.339219 0
M  V30 15511 H 1504.9 -3.27104 2.08865 0
M  V30 15512 H 1503 -3.71067 -0.337599 0
M  V30 15513 H 1503.11 -4.60538 1.32066 0
M  V30 15514 H 1501.48 -2.47323 0.608568 0
M  V30 15515 H 1502.26 -2.56899 2.27724 0
M  V30 15516 N 1504.71 -0.650285 -1.43559 0
M  V30 15517 C 1506.12 -0.24263 -1.85117 0
M  V30 15518 C 1506.47 1.21017 -1.54432 0
M  V30 15519 O 1505.59 1.92332 -0.991839 0
M  V30 15520 C 1506.19 -0.433575 -3.36014 0
M  V30 15521 C 1504.75 -0.0802635 -3.76314 0
M  V30 15522 C 1503.89 -0.737844 -2.67303 0
M  V30 15523 H 1506.84 -0.854158 -1.33753 0
M  V30 15524 H 1506.87 0.321801 -3.79137 0
M  V30 15525 H 1506.38 -1.49102 -3.58316 0
M  V30 15526 H 1504.48 0.974703 -3.59625 0
M  V30 15527 H 1504.59 -0.503683 -4.76445 0
M  V30 15528 H 1502.96 -0.171349 -2.54123 0
M  V30 15529 H 1503.74 -1.79826 -2.92434 0
M  V30 15530 N 1506.18 1.52647 -0.392018 0
M  V30 15531 C 1507.09 2.30261 0.449093 0
M  V30 15532 C 1508.11 1.37286 1.06905 0
M  V30 15533 O 1509.29 1.70357 1.07427 0
M  V30 15534 C 1506.35 3.09636 1.55969 0
M  V30 15535 C 1505.41 4.18324 0.964566 0
M  V30 15536 C 1504.64 4.93904 2.02224 0
M  V30 15537 O 1504.87 4.69603 3.23773 0
M  V30 15538 O 1503.8 5.79183 1.63802 0
M  V30 15539 H 1507.63 3.03147 -0.183269 0
M  V30 15540 H 1505.21 1.48587 -0.155664 0
M  V30 15541 H 1507.09 3.59118 2.20482 0
M  V30 15542 H 1505.77 2.39561 2.17697 0
M  V30 15543 H 1504.68 3.73031 0.282618 0
M  V30 15544 H 1506.01 4.90641 0.391466 0
M  V30 15545 N 1507.66 0.121921 1.57128 0
M  V30 15546 C 1509.08 -0.234655 1.57866 0
M  V30 15547 C 1509.28 -1.66506 1.13482 0
M  V30 15548 O 1508.33 -2.38692 0.823544 0
M  V30 15549 C 1509.65 0.00131784 3.007 0
M  V30 15550 C 1511.2 -0.0643537 3.12934 0
M  V30 15551 C 1511.67 0.143964 4.57774 0
M  V30 15552 N 1513.16 0.0900323 4.63112 0
M  V30 15553 C 1513.9 0.22608 5.72954 0
M  V30 15554 N 1513.39 0.418461 6.91535 0
M  V30 15555 N 1515.19 0.165449 5.61856 0
M  V30 15556 H 1507.34 1.05618 1.84279 0
M  V30 15557 H 1509.6 0.416132 0.851785 0
M  V30 15558 H 1509.31 0.99031 3.3747 0
M  V30 15559 H 1509.18 -0.729266 3.70083 0
M  V30 15560 H 1511.57 -1.04387 2.7602 0
M  V30 15561 H 1511.65 0.698157 2.46088 0
M  V30 15562 H 1511.29 1.12047 4.95387 0
M  V30 15563 H 1511.22 -0.638569 5.22714 0
M  V30 15564 H 1513.71 -0.0550269 3.7786 0
M  V30 15565 H 1514.03 0.513057 7.71095 0
M  V30 15566 H 1512.37 0.454471 6.93512 0
M  V30 15567 H 1515.56 0.0160945 4.68097 0
M  V30 15568 H 1515.73 0.274917 6.47417 0
M  V30 15569 N 1509.14 -1.56867 -0.151857 0
M  V30 15570 C 1510.39 -1.82273 -0.863689 0
M  V30 15571 C 1510.7 -0.702377 -1.82554 0
M  V30 15572 O 1511.91 -0.841903 -2.58117 0
M  V30 15573 C 1510.36 -3.23046 -1.58649 0
M  V30 15574 C 1509.97 -4.43003 -0.667292 0
M  V30 15575 C 1511.72 -3.57729 -2.28539 0
M  V30 15576 C 1509.62 -5.74798 -1.39144 0
M  V30 15577 H 1508.55 -0.679753 -0.326269 0
M  V30 15578 H 1511.2 -1.8313 -0.116454 0
M  V30 15579 H 1509.59 -3.16561 -2.37918 0
M  V30 15580 H 1510.76 -4.60712 0.0898254 0
M  V30 15581 H 1509.08 -4.16329 -0.0770521 0
M  V30 15582 H 1511.67 -4.53451 -2.83348 0
M  V30 15583 H 1512.02 -2.8355 -3.04803 0
M  V30 15584 H 1512.55 -3.65853 -1.56194 0
M  V30 15585 H 1509.29 -6.52059 -0.670747 0
M  V30 15586 H 1508.81 -5.61032 -2.12139 0
M  V30 15587 H 1510.49 -6.17429 -1.93367 0
M  V30 15588 N 1510.62 0.421051 -1.51871 0
M  V30 15589 C 1511.58 1.49478 -1.73749 0
M  V30 15590 C 1512.58 1.48887 -0.607395 0
M  V30 15591 O 1513.77 1.50622 -0.875143 0
M  V30 15592 C 1510.9 2.88947 -1.80893 0
M  V30 15593 H 1512.1 1.31377 -2.69593 0
M  V30 15594 H 1509.65 0.650786 -1.42107 0
M  V30 15595 H 1510.38 3.12434 -0.86922 0
M  V30 15596 H 1510.17 2.90781 -2.63038 0
M  V30 15597 H 1511.66 3.66809 -1.99602 0
M  V30 15598 N 1512.1 1.42293 0.677538 0
M  V30 15599 C 1513.32 1.46214 1.47092 0
M  V30 15600 C 1513.75 0.0740989 1.87954 0
M  V30 15601 O 1513.1 -0.926831 1.55819 0
M  V30 15602 C 1513.15 2.39236 2.69812 0
M  V30 15603 O 1512.26 1.86183 3.6798 0
M  V30 15604 H 1511.6 0.495507 0.442006 0
M  V30 15605 H 1514.13 1.86952 0.831274 0
M  V30 15606 H 1514.14 2.55723 3.17915 0
M  V30 15607 H 1512.81 3.40081 2.39411 0
M  V30 15608 H 1511.39 1.79237 3.26999 0
M  V30 15609 N 1513.57 -0.913576 1.28419 0
M  V30 15610 C 1514.82 -1.65944 1.15355 0
M  V30 15611 C 1515.14 -1.92706 -0.298228 0
M  V30 15612 O 1514.41 -1.54333 -1.20657 0
M  V30 15613 H 1512.99 -0.615063 0.423919 0
M  V30 15614 H 1515.66 -1.0962 1.6115 0
M  V30 15615 H 1514.75 -2.62173 1.69327 0
M  V30 15616 N 1515.05 -1.1067 -1.12204 0
M  V30 15617 C 1516.02 -0.761145 -2.16193 0
M  V30 15618 C 1517.02 0.215599 -1.59348 0
M  V30 15619 O 1518.21 -0.00786723 -1.74198 0
M  V30 15620 C 1515.34 -0.127863 -3.4066 0
M  V30 15621 H 1516.53 -1.68225 -2.48275 0
M  V30 15622 H 1514.08 -0.907542 -1.27253 0
M  V30 15623 H 1514.82 0.803851 -3.14179 0
M  V30 15624 H 1514.6 -0.83085 -3.83196 0
M  V30 15625 H 1516.09 0.0980593 -4.17485 0
M  V30 15626 N 1516.53 1.29665 -0.895815 0
M  V30 15627 C 1517.78 1.94995 -0.515749 0
M  V30 15628 C 1518.09 1.71427 0.94192 0
M  V30 15629 O 1519.3 2.3083 1.42933 0
M  V30 15630 C 1517.75 3.4919 -0.871468 0
M  V30 15631 C 1517.36 3.81562 -2.34764 0
M  V30 15632 C 1519.11 4.20775 -0.561123 0
M  V30 15633 C 1517.01 5.28984 -2.64442 0
M  V30 15634 H 1515.94 0.729889 -0.189151 0
M  V30 15635 H 1518.59 1.4745 -1.09228 0
M  V30 15636 H 1516.98 3.95366 -0.223908 0
M  V30 15637 H 1518.15 3.46258 -3.04043 0
M  V30 15638 H 1516.47 3.23107 -2.62661 0
M  V30 15639 H 1519.06 5.29275 -0.759755 0
M  V30 15640 H 1519.41 4.13285 0.500129 0
M  V30 15641 H 1519.94 3.80317 -1.16635 0
M  V30 15642 H 1516.68 5.41535 -3.69351 0
M  V30 15643 H 1516.2 5.6555 -1.99784 0
M  V30 15644 H 1517.88 5.96536 -2.50506 0
M  V30 15645 N 1518.01 0.657889 1.43212 0
M  V30 15646 C 1519.24 0.181072 2.06106 0
M  V30 15647 C 1519.65 -1.15513 1.49339 0
M  V30 15648 O 1519.01 -1.71409 0.626517 0
M  V30 15649 C 1519.06 0.0890244 3.6139 0
M  V30 15650 O 1518.78 1.37241 4.16049 0
M  V30 15651 C 1520.28 -0.413313 4.41369 0
M  V30 15652 H 1517.5 0.0920577 0.664655 0
M  V30 15653 H 1520.05 0.899855 1.83638 0
M  V30 15654 H 1518.2 -0.580345 3.83028 0
M  V30 15655 H 1518.61 1.23467 5.09761 0
M  V30 15656 H 1520.09 -0.426663 5.50349 0
M  V30 15657 H 1520.57 -1.44549 4.14731 0
M  V30 15658 H 1521.17 0.223727 4.24711 0
M  V30 15659 N 1519.49 -1.52437 0.400108 0
M  V30 15660 C 1520.43 -2.26763 -0.429799 0
M  V30 15661 C 1521.4 -1.28808 -1.0487 0
M  V30 15662 O 1522.59 -1.57655 -1.07468 0
M  V30 15663 C 1519.73 -3.08564 -1.54539 0
M  V30 15664 C 1518.84 -4.21463 -0.948294 0
M  V30 15665 C 1517.98 -4.9064 -2.03584 0
M  V30 15666 C 1517.02 -5.95515 -1.4152 0
M  V30 15667 N 1516.15 -6.58245 -2.4425 0
M  V30 15668 H 1520.99 -2.97256 0.210467 0
M  V30 15669 H 1518.53 -1.46645 0.115627 0
M  V30 15670 H 1520.49 -3.54289 -2.20307 0
M  V30 15671 H 1519.12 -2.40259 -2.15582 0
M  V30 15672 H 1518.17 -3.79974 -0.179918 0
M  V30 15673 H 1519.48 -4.96722 -0.454845 0
M  V30 15674 H 1518.64 -5.39724 -2.77097 0
M  V30 15675 H 1517.37 -4.14929 -2.56291 0
M  V30 15676 H 1516.38 -5.45759 -0.665354 0
M  V30 15677 H 1517.6 -6.73164 -0.89593 0
M  V30 15678 H 1515.55 -5.85369 -2.96107 0
M  V30 15679 H 1515.47 -7.2915 -1.99692 0
M  V30 15680 H 1516.74 -7.1197 -3.17362 0
M  V30 15681 N 1520.96 -0.130252 -1.57061 0
M  V30 15682 C 1522.21 0.523969 -1.9519 0
M  V30 15683 C 1522.53 1.66493 -1.01514 0
M  V30 15684 O 1521.8 1.95762 -0.0735194 0
M  V30 15685 H 1520.38 0.196553 -0.720677 0
M  V30 15686 H 1523.05 -0.20183 -1.93852 0
M  V30 15687 H 1522.14 0.911156 -2.98504 0
M  V30 15688 N 1522.44 1.56945 0.143535 0
M  V30 15689 C 1523.69 1.8381 0.856831 0
M  V30 15690 C 1524.02 0.712375 1.80662 0
M  V30 15691 O 1523.3 -0.283743 1.92419 0
M  V30 15692 C 1523.58 3.21184 1.62828 0
M  V30 15693 C 1523.43 4.44324 0.699744 0
M  V30 15694 C 1524.75 3.5582 2.58999 0
M  V30 15695 H 1521.87 0.668611 0.310046 0
M  V30 15696 H 1524.51 1.89609 0.1219 0
M  V30 15697 H 1522.66 3.16372 2.2548 0
M  V30 15698 H 1524.34 4.61224 0.0839619 0
M  V30 15699 H 1522.58 4.33799 0.0095529 0
M  V30 15700 H 1523.25 5.37058 1.27564 0
M  V30 15701 H 1525.73 3.61264 2.06464 0
M  V30 15702 H 1524.6 4.52964 3.10024 0
M  V30 15703 H 1524.86 2.81956 3.40519 0
M  V30 15704 N 1523.92 -0.412991 1.52093 0
M  V30 15705 C 1525.17 -1.16202 1.66208 0
M  V30 15706 C 1525.5 -1.90265 0.388957 0
M  V30 15707 O 1524.78 -1.84605 -0.612477 0
M  V30 15708 C 1525.06 -2.15958 2.88157 0
M  V30 15709 C 1524.91 -1.45817 4.25509 0
M  V30 15710 C 1526.23 -3.16671 3.05626 0
M  V30 15711 H 1523.35 -0.421083 0.604862 0
M  V30 15712 H 1525.99 -0.448212 1.84638 0
M  V30 15713 H 1524.14 -2.76831 2.72574 0
M  V30 15714 H 1525.81 -0.880925 4.52811 0
M  V30 15715 H 1524.06 -0.760175 4.27088 0
M  V30 15716 H 1524.73 -2.18587 5.06877 0
M  V30 15717 H 1527.2 -2.65871 3.20081 0
M  V30 15718 H 1526.08 -3.83739 3.92474 0
M  V30 15719 H 1526.34 -3.84178 2.18769 0
M  V30 15720 N 1525.4 -1.4265 -0.669982 0
M  V30 15721 C 1526.33 -1.49298 -1.79534 0
M  V30 15722 C 1527.31 -0.34911 -1.66479 0
M  V30 15723 O 1528.5 -0.564072 -1.85828 0
M  V30 15724 C 1525.63 -1.39935 -3.17861 0
M  V30 15725 C 1524.58 -2.52398 -3.45657 0
M  V30 15726 C 1523.91 -2.28092 -4.8361 0
M  V30 15727 C 1525.21 -3.94697 -3.4207 0
M  V30 15728 H 1526.9 -2.43486 -1.74227 0
M  V30 15729 H 1524.45 -1.17191 -0.836796 0
M  V30 15730 H 1526.4 -1.43193 -3.96325 0
M  V30 15731 H 1525.12 -0.422436 -3.23857 0
M  V30 15732 H 1523.78 -2.48465 -2.69556 0
M  V30 15733 H 1523.43 -1.28683 -4.86261 0
M  V30 15734 H 1523.13 -3.03469 -5.0317 0
M  V30 15735 H 1524.65 -2.33107 -5.64352 0
M  V30 15736 H 1526.07 -4.00207 -4.10496 0
M  V30 15737 H 1524.46 -4.69965 -3.73166 0
M  V30 15738 H 1525.53 -4.21025 -2.40554 0
M  V30 15739 N 1526.88 0.906753 -1.28902 0
M  V30 15740 C 1528.15 1.63637 -1.07155 0
M  V30 15741 C 1528.53 2.07527 0.386727 0
M  V30 15742 O 1527.88 1.82562 1.37417 0
M  V30 15743 C 1528.09 2.82256 -2.05263 0
M  V30 15744 C 1529.44 3.53109 -2.35794 0
M  V30 15745 O 1530.46 2.92414 -2.03402 0
M  V30 15746 O 1529.32 4.62512 -2.91109 0
M  V30 15747 H 1526.42 0.718194 -0.410032 0
M  V30 15748 H 1528.96 0.955442 -1.40248 0
M  V30 15749 H 1527.74 2.46968 -3.03517 0
M  V30 15750 H 1527.36 3.58059 -1.72857 0
M  V30 15751 N 1528.36 1.11264 1.11616 0
M  V30 15752 C 1529.58 0.88306 1.87661 0
M  V30 15753 C 1530.01 -0.561586 1.79521 0
M  V30 15754 O 1529.36 -1.3964 1.1563 0
M  V30 15755 C 1529.41 1.34698 3.34498 0
M  V30 15756 O 1528.52 0.517512 4.0914 0
M  V30 15757 H 1527.86 0.318233 0.582772 0
M  V30 15758 H 1530.39 1.48164 1.41098 0
M  V30 15759 H 1530.4 1.34068 3.85344 0
M  V30 15760 H 1529.07 2.39896 3.39739 0
M  V30 15761 H 1527.65 0.589751 3.68207 0
M  V30 15762 N 1529.83 -1.29188 0.902679 0
M  V30 15763 C 1531.06 -1.99576 0.545635 0
M  V30 15764 C 1531.48 -1.67541 -0.870372 0
M  V30 15765 O 1530.83 -0.922082 -1.57493 0
M  V30 15766 C 1530.88 -3.54013 0.731916 0
M  V30 15767 O 1530.61 -3.84914 2.09219 0
M  V30 15768 C 1532.11 -4.41666 0.38022 0
M  V30 15769 H 1529.33 -0.637593 0.209083 0
M  V30 15770 H 1531.87 -1.64652 1.21284 0
M  V30 15771 H 1530.03 -3.87239 0.111849 0
M  V30 15772 H 1530.44 -4.79581 2.12373 0
M  V30 15773 H 1531.91 -5.49138 0.561382 0
M  V30 15774 H 1532.39 -4.33858 -0.682915 0
M  V30 15775 H 1533 -4.13918 0.977354 0
M  V30 15776 N 1531.31 -0.665475 -1.42861 0
M  V30 15777 C 1532.22 0.018927 -2.34592 0
M  V30 15778 C 1533.24 0.798967 -1.54572 0
M  V30 15779 O 1534.41 0.743419 -1.87177 0
M  V30 15780 C 1531.48 0.965013 -3.32999 0
M  V30 15781 C 1530.54 0.180544 -4.2892 0
M  V30 15782 C 1529.77 1.08157 -5.22626 0
M  V30 15783 O 1530 2.32101 -5.21043 0
M  V30 15784 O 1528.93 0.54738 -5.99406 0
M  V30 15785 H 1532.76 -0.736444 -2.94636 0
M  V30 15786 H 1530.34 -0.425684 -1.43207 0
M  V30 15787 H 1532.22 1.50839 -3.93479 0
M  V30 15788 H 1530.9 1.7004 -2.75442 0
M  V30 15789 H 1529.8 -0.40671 -3.71883 0
M  V30 15790 H 1531.14 -0.515529 -4.89493 0
M  V30 15791 N 1532.79 1.52222 -0.408187 0
M  V30 15792 C 1533.75 2.25578 0.405851 0
M  V30 15793 C 1534.75 1.27912 0.974434 0
M  V30 15794 O 1535.94 1.51861 0.853461 0
M  V30 15795 C 1533.07 3.02532 1.57122 0
M  V30 15796 H 1534.27 2.98965 -0.23664 0
M  V30 15797 H 1531.82 1.55472 -0.160687 0
M  V30 15798 H 1532.56 2.33492 2.2506 0
M  V30 15799 H 1532.34 3.74237 1.17001 0
M  V30 15800 H 1533.83 3.58177 2.14707 0
M  V30 15801 N 1534.27 0.138579 1.5699 0
M  V30 15802 C 1535.2 -0.800568 2.19347 0
M  V30 15803 C 1536.18 -1.26318 1.13921 0
M  V30 15804 O 1537.36 -1.32226 1.42232 0
M  V30 15805 C 1534.49 -2.04317 2.80842 0
M  V30 15806 C 1533.45 -1.71764 3.92022 0
M  V30 15807 C 1532.77 -3.03217 4.40413 0
M  V30 15808 C 1534.07 -0.970789 5.13199 0
M  V30 15809 H 1535.77 -0.280888 2.98079 0
M  V30 15810 H 1533.31 -0.133663 1.43378 0
M  V30 15811 H 1535.27 -2.70491 3.2313 0
M  V30 15812 H 1533.99 -2.58643 1.99428 0
M  V30 15813 H 1532.65 -1.07972 3.50339 0
M  V30 15814 H 1532.3 -3.55517 3.55832 0
M  V30 15815 H 1532 -2.82203 5.15398 0
M  V30 15816 H 1533.52 -3.70477 4.85365 0
M  V30 15817 H 1534.94 -1.53445 5.52384 0
M  V30 15818 H 1533.33 -0.860895 5.93893 0
M  V30 15819 H 1534.4 0.0390088 4.84884 0
M  V30 15820 N 1535.75 -1.57019 -0.13521 0
M  V30 15821 C 1536.99 -1.85801 -0.851896 0
M  V30 15822 C 1537.35 -0.724449 -1.77808 0
M  V30 15823 O 1538.55 -0.893619 -2.53511 0
M  V30 15824 C 1536.82 -3.19788 -1.59595 0
M  V30 15825 S 1538.38 -3.70159 -2.35644 0
M  V30 15826 H 1535.2 -0.651534 -0.284649 0
M  V30 15827 H 1537.8 -1.95184 -0.111177 0
M  V30 15828 H 1536.5 -4.00247 -0.907221 0
M  V30 15829 H 1536.04 -3.13441 -2.37735 0
M  V30 15830 H 1538.05 -3.40364 -3.61063 0
M  V30 15831 N 1537.22 0.404919 -1.52309 0
M  V30 15832 C 1538.15 1.50039 -1.78915 0
M  V30 15833 C 1539.14 1.57587 -0.640329 0
M  V30 15834 O 1540.32 1.72793 -0.886344 0
M  V30 15835 C 1537.45 2.87819 -1.94364 0
M  V30 15836 C 1536.4 2.9512 -3.09981 0
M  V30 15837 C 1535.73 4.35195 -3.10659 0
M  V30 15838 C 1537.03 2.66219 -4.4936 0
M  V30 15839 H 1538.72 1.28025 -2.70647 0
M  V30 15840 H 1536.27 0.61445 -1.30233 0
M  V30 15841 H 1538.22 3.64446 -2.11559 0
M  V30 15842 H 1536.95 3.11136 -0.993067 0
M  V30 15843 H 1535.61 2.20939 -2.92543 0
M  V30 15844 H 1535.25 4.55528 -2.13316 0
M  V30 15845 H 1534.95 4.41003 -3.88317 0
M  V30 15846 H 1536.48 5.1375 -3.29989 0
M  V30 15847 H 1537.89 3.32567 -4.66982 0
M  V30 15848 H 1536.29 2.83398 -5.28967 0
M  V30 15849 H 1537.36 1.61636 -4.57167 0
M  V30 15850 N 1538.7 1.43003 0.662408 0
M  V30 15851 C 1539.67 1.4713 1.75743 0
M  V30 15852 C 1540.67 0.357203 1.56782 0
M  V30 15853 O 1541.86 0.618566 1.62848 0
M  V30 15854 C 1538.99 1.31499 3.14517 0
M  V30 15855 H 1540.18 2.44641 1.73467 0
M  V30 15856 H 1537.73 1.29633 0.873208 0
M  V30 15857 H 1538.47 0.349596 3.2241 0
M  V30 15858 H 1538.25 2.12253 3.29683 0
M  V30 15859 H 1539.74 1.37298 3.94384 0
M  V30 15860 N 1540.18 -0.899904 1.29381 0
M  V30 15861 C 1541.43 -1.64502 1.16713 0
M  V30 15862 C 1541.74 -1.93577 -0.280563 0
M  V30 15863 O 1542.95 -2.66305 -0.528563 0
M  V30 15864 C 1541.4 -2.96414 2.04125 0
M  V30 15865 C 1541.01 -2.74935 3.53716 0
M  V30 15866 C 1542.76 -3.74337 2.0018 0
M  V30 15867 C 1540.66 -4.02571 4.33232 0
M  V30 15868 H 1539.59 -0.617121 0.433218 0
M  V30 15869 H 1542.24 -0.997521 1.54019 0
M  V30 15870 H 1540.63 -3.62375 1.59687 0
M  V30 15871 H 1541.8 -2.17567 4.06203 0
M  V30 15872 H 1540.12 -2.10407 3.5933 0
M  V30 15873 H 1542.71 -4.6897 2.56849 0
M  V30 15874 H 1543.06 -4.04559 0.981735 0
M  V30 15875 H 1543.59 -3.15216 2.4266 0
M  V30 15876 H 1540.33 -3.77516 5.35875 0
M  V30 15877 H 1539.85 -4.59499 3.85514 0
M  V30 15878 H 1541.53 -4.70719 4.43884 0
M  V30 15879 N 1541.66 -1.11854 -1.11024 0
M  V30 15880 C 1542.88 -0.892999 -1.8719 0
M  V30 15881 C 1543.31 0.552058 -1.79816 0
M  V30 15882 O 1542.67 1.39025 -1.16369 0
M  V30 15883 C 1542.71 -1.3647 -3.33779 0
M  V30 15884 O 1541.82 -0.539202 -4.0886 0
M  V30 15885 H 1541.16 -0.321319 -0.581076 0
M  V30 15886 H 1543.69 -1.4891 -1.4031 0
M  V30 15887 H 1543.7 -1.3611 -3.84627 0
M  V30 15888 H 1542.37 -2.41694 -3.38462 0
M  V30 15889 H 1540.95 -0.60927 -3.67889 0
M  V30 15890 N 1543.14 1.28707 -0.909517 0
M  V30 15891 C 1544.55 1.47605 -0.607045 0
M  V30 15892 C 1544.75 1.8275 0.848815 0
M  V30 15893 O 1543.81 1.92989 1.62823 0
M  V30 15894 C 1545.12 2.58194 -1.54131 0
M  V30 15895 C 1546.67 2.72065 -1.54757 0
M  V30 15896 C 1547.14 3.85793 -2.46835 0
M  V30 15897 N 1548.64 3.93141 -2.44937 0
M  V30 15898 C 1549.37 4.80512 -3.12883 0
M  V30 15899 N 1548.87 5.72504 -3.90142 0
M  V30 15900 N 1550.66 4.74086 -3.01991 0
M  V30 15901 H 1542.81 1.04174 -1.85099 0
M  V30 15902 H 1545.07 0.51843 -0.793684 0
M  V30 15903 H 1544.78 2.39119 -2.57905 0
M  V30 15904 H 1544.65 3.55205 -1.26921 0
M  V30 15905 H 1547.04 2.90532 -0.517219 0
M  V30 15906 H 1547.12 1.75598 -1.86008 0
M  V30 15907 H 1546.77 3.68082 -3.49969 0
M  V30 15908 H 1546.7 4.8165 -2.12888 0
M  V30 15909 H 1549.19 3.2735 -1.88813 0
M  V30 15910 H 1549.5 6.3599 -4.39017 0
M  V30 15911 H 1547.84 5.72358 -3.94248 0
M  V30 15912 H 1551.04 4.01209 -2.4114 0
M  V30 15913 H 1551.21 5.41964 -3.55217 0
M  V30 15914 N 1544.61 0.673042 1.42506 0
M  V30 15915 C 1545.56 -0.0180603 2.32593 0
M  V30 15916 C 1546.56 -0.7924 1.49724 0
M  V30 15917 O 1547.76 -0.700563 1.65807 0
M  V30 15918 H 1544.14 -0.0246346 0.751596 0
M  V30 15919 H 1546.11 0.759153 2.88582 0
M  V30 15920 C 1544.86 -0.95676 3.34277 0
M  V30 15921 H 1544.18 -0.370341 3.98081 0
M  V30 15922 H 1545.62 -1.40905 3.99902 0
M  V30 15923 C 1544.08 -2.0623 2.66403 0
M  V30 15924 O 1544.61 -3.14853 2.4946 0
M  V30 15925 N 1542.82 -1.83351 2.25457 0
M  V30 15926 H 1542.36 -0.950141 2.39437 0
M  V30 15927 H 1542.32 -2.57511 1.80375 0
M  V30 15928 N 1546.09 -1.52004 0.416254 0
M  V30 15929 C 1547.32 -2.0679 -0.158937 0
M  V30 15930 C 1547.74 -1.28366 -1.37491 0
M  V30 15931 O 1547.1 -0.315815 -1.78528 0
M  V30 15932 C 1547.15 -3.57381 -0.480717 0
M  V30 15933 O 1546.25 -3.81321 -1.5706 0
M  V30 15934 H 1545.59 -0.663907 -0.0110938 0
M  V30 15935 H 1548.12 -1.95863 0.591509 0
M  V30 15936 H 1548.13 -4.01283 -0.737297 0
M  V30 15937 H 1546.81 -4.13893 0.408137 0
M  V30 15938 H 1545.39 -3.49296 -1.30563 0
M  V30 15939 N 1547.57 -0.146903 -1.56914 0
M  V30 15940 C 1548.48 0.805875 -2.20324 0
M  V30 15941 C 1549.5 1.27178 -1.18751 0
M  V30 15942 O 1550.67 1.32899 -1.51327 0
M  V30 15943 C 1547.74 2.02755 -2.81232 0
M  V30 15944 C 1546.8 1.61089 -3.97931 0
M  V30 15945 C 1546.03 2.77433 -4.55924 0
M  V30 15946 O 1546.25 3.93643 -4.12797 0
M  V30 15947 O 1545.19 2.52911 -5.46187 0
M  V30 15948 H 1549.01 0.296098 -3.02253 0
M  V30 15949 H 1546.6 0.0801175 -1.49185 0
M  V30 15950 H 1548.48 2.74252 -3.19944 0
M  V30 15951 H 1547.16 2.52686 -2.02316 0
M  V30 15952 H 1546.06 0.86616 -3.63935 0
M  V30 15953 H 1547.4 1.15874 -4.78366 0
M  V30 15954 N 1549.05 1.57088 0.126881 0
M  V30 15955 C 1549.98 1.96399 1.18153 0
M  V30 15956 C 1550.99 0.862288 1.38089 0
M  V30 15957 O 1552.18 1.14062 1.37303 0
M  V30 15958 C 1549.28 2.24026 2.54295 0
M  V30 15959 C 1548.46 3.5533 2.55068 0
M  V30 15960 C 1547.51 3.71261 3.72896 0
M  V30 15961 O 1546.54 4.43454 3.56844 0
M  V30 15962 N 1547.74 3.09435 4.91152 0
M  V30 15963 H 1550.51 2.87476 0.847217 0
M  V30 15964 H 1548.07 1.58781 0.316242 0
M  V30 15965 H 1550.06 2.31906 3.31665 0
M  V30 15966 H 1548.63 1.39114 2.79939 0
M  V30 15967 H 1547.85 3.58708 1.63468 0
M  V30 15968 H 1549.14 4.41649 2.52634 0
M  V30 15969 H 1548.54 2.50736 5.07097 0
M  V30 15970 H 1547.09 3.22848 5.66226 0
M  V30 15971 N 1550.53 -0.396836 1.52522 0
M  V30 15972 C 1551.46 -1.50564 1.71481 0
M  V30 15973 C 1552.44 -1.5256 0.562524 0
M  V30 15974 O 1553.62 -1.71083 0.791378 0
M  V30 15975 C 1550.75 -2.89058 1.76531 0
M  V30 15976 C 1549.79 -3.04922 2.98202 0
M  V30 15977 S 1550.63 -2.76944 4.58326 0
M  V30 15978 C 1551.78 -4.17645 4.66179 0
M  V30 15979 H 1552.02 -1.34256 2.6526 0
M  V30 15980 H 1549.55 -0.589208 1.42715 0
M  V30 15981 H 1551.51 -3.6887 1.80125 0
M  V30 15982 H 1550.17 -3.02699 0.838582 0
M  V30 15983 H 1549.36 -4.06277 2.98254 0
M  V30 15984 H 1548.96 -2.32992 2.92559 0
M  V30 15985 H 1551.26 -5.11461 4.44312 0
M  V30 15986 H 1552.2 -4.22612 5.68159 0
M  V30 15987 H 1552.61 -4.03189 3.95093 0
M  V30 15988 N 1552.01 -1.43353 -0.654814 0
M  V30 15989 C 1552.97 -1.4806 -1.7496 0
M  V30 15990 C 1553.97 -0.365513 -1.56591 0
M  V30 15991 O 1555.16 -0.627194 -1.62517 0
M  V30 15992 C 1552.29 -1.33165 -3.13815 0
M  V30 15993 H 1553.48 -2.45557 -1.72167 0
M  V30 15994 H 1551.04 -1.30094 -0.86632 0
M  V30 15995 H 1551.77 -0.366689 -3.2222 0
M  V30 15996 H 1551.56 -2.13998 -3.28553 0
M  V30 15997 H 1553.05 -1.39388 -3.93651 0
M  V30 15998 N 1553.48 0.89303 -1.29857 0
M  V30 15999 C 1554.71 1.6827 -1.21243 0
M  V30 16000 C 1555.13 1.86778 0.222621 0
M  V30 16001 O 1554.49 1.39291 1.1605 0
M  V30 16002 C 1554.54 3.041 -1.93792 0
M  V30 16003 O 1553.64 3.92696 -1.25951 0
M  V30 16004 H 1552.98 0.514479 -0.419771 0
M  V30 16005 H 1555.51 1.11513 -1.7154 0
M  V30 16006 H 1555.52 3.54198 -2.02504 0
M  V30 16007 H 1554.2 2.89948 -2.98166 0
M  V30 16008 H 1552.78 3.51132 -1.25541 0
M  V30 16009 N 1554.96 1.12442 1.10429 0
M  V30 16010 C 1555.91 0.761266 2.14916 0
M  V30 16011 C 1556.9 -0.239768 1.59103 0
M  V30 16012 O 1558.09 -0.045261 1.76942 0
M  V30 16013 C 1555.22 0.217596 3.4261 0
M  V30 16014 C 1554.3 1.24692 4.05355 0
M  V30 16015 N 1554.69 2.44456 4.42804 0
M  V30 16016 C 1552.99 1.09229 4.32418 0
M  V30 16017 C 1553.69 3.10186 4.92097 0
M  V30 16018 N 1552.67 2.37634 4.88908 0
M  V30 16019 H 1556.47 1.67262 2.41662 0
M  V30 16020 H 1553.98 1.0052 1.27552 0
M  V30 16021 H 1555.98 -0.0607568 4.16856 0
M  V30 16022 H 1554.64 -0.688215 3.17323 0
M  V30 16023 H 1555.65 2.81837 4.34498 0
M  V30 16024 H 1552.33 0.24379 4.16788 0
M  V30 16025 H 1553.72 4.12179 5.3062 0
M  V30 16026 N 1556.44 -1.28223 0.91633 0
M  V30 16027 C 1557.66 -1.99523 0.566147 0
M  V30 16028 C 1558.09 -1.68 -0.846034 0
M  V30 16029 O 1557.45 -0.913838 -1.56584 0
M  V30 16030 C 1557.5 -3.51949 0.785114 0
M  V30 16031 O 1556.6 -4.1211 -0.154686 0
M  V30 16032 H 1555.94 -0.626764 0.219232 0
M  V30 16033 H 1558.47 -1.63313 1.23247 0
M  V30 16034 H 1558.48 -4.02016 0.696224 0
M  V30 16035 H 1557.16 -3.74227 1.81457 0
M  V30 16036 H 1555.73 -3.72896 -0.0168463 0
M  V30 16037 N 1557.92 -0.68059 -1.42147 0
M  V30 16038 C 1558.88 -0.0149865 -2.29195 0
M  V30 16039 C 1559.88 0.723163 -1.43621 0
M  V30 16040 O 1561.07 0.560297 -1.64943 0
M  V30 16041 C 1558.2 0.989375 -3.26227 0
M  V30 16042 H 1559.4 -0.781236 -2.89546 0
M  V30 16043 H 1556.95 -0.443256 -1.49883 0
M  V30 16044 H 1557.68 1.78391 -2.70827 0
M  V30 16045 H 1557.47 0.463401 -3.89352 0
M  V30 16046 H 1558.96 1.45334 -3.91494 0
M  V30 16047 N 1559.4 1.51781 -0.424309 0
M  V30 16048 C 1560.64 2.02269 0.146709 0
M  V30 16049 C 1560.97 1.30859 1.4349 0
M  V30 16050 O 1560.25 0.419504 1.89922 0
M  V30 16051 C 1560.53 3.58101 0.378861 0
M  V30 16052 C 1560.39 4.40143 -0.92707 0
M  V30 16053 C 1561.7 4.2469 1.15438 0
M  V30 16054 H 1558.82 0.735174 0.0518456 0
M  V30 16055 H 1561.47 1.81537 -0.560753 0
M  V30 16056 H 1559.62 3.75897 0.981496 0
M  V30 16057 H 1561.29 4.34025 -1.56268 0
M  V30 16058 H 1559.53 4.05748 -1.53464 0
M  V30 16059 H 1560.2 5.47299 -0.718837 0
M  V30 16060 H 1562.68 4.11086 0.644041 0
M  V30 16061 H 1561.55 5.33633 1.28557 0
M  V30 16062 H 1561.81 3.84668 2.17905 0
M  V30 16063 N 1560.87 0.155222 1.56834 0
M  V30 16064 C 1561.8 -0.777258 2.20184 0
M  V30 16065 C 1562.78 -1.25102 1.15254 0
M  V30 16066 O 1563.97 -1.3071 1.43627 0
M  V30 16067 C 1561.1 -2.01326 2.82993 0
M  V30 16068 C 1560.05 -1.67596 3.93822 0
M  V30 16069 C 1559.38 -2.98529 4.43604 0
M  V30 16070 C 1560.68 -0.916302 5.142 0
M  V30 16071 H 1562.37 -0.249257 2.98361 0
M  V30 16072 H 1559.92 -0.118448 1.43512 0
M  V30 16073 H 1561.87 -2.67048 3.2598 0
M  V30 16074 H 1560.6 -2.56513 2.0216 0
M  V30 16075 H 1559.26 -1.0425 3.51465 0
M  V30 16076 H 1558.9 -3.51723 3.59583 0
M  V30 16077 H 1558.6 -2.76721 5.18362 0
M  V30 16078 H 1560.13 -3.65308 4.89267 0
M  V30 16079 H 1561.54 -1.47577 5.5398 0
M  V30 16080 H 1559.94 -0.797856 5.94772 0
M  V30 16081 H 1561.01 0.0904351 4.84816 0
M  V30 16082 N 1562.35 -1.57153 -0.118549 0
M  V30 16083 C 1563.26 -2.03673 -1.16424 0
M  V30 16084 C 1564.28 -0.957203 -1.45305 0
M  V30 16085 O 1565.45 -1.26874 -1.56413 0
M  V30 16086 C 1562.52 -2.43211 -2.47082 0
M  V30 16087 C 1561.58 -3.65248 -2.25593 0
M  V30 16088 C 1560.81 -4.02891 -3.50021 0
M  V30 16089 O 1561.04 -3.40871 -4.57344 0
M  V30 16090 O 1559.97 -4.95989 -3.40996 0
M  V30 16091 H 1563.8 -2.92996 -0.799206 0
M  V30 16092 H 1561.38 -1.45724 -0.329376 0
M  V30 16093 H 1563.26 -2.69374 -3.24061 0
M  V30 16094 H 1561.94 -1.57034 -2.83058 0
M  V30 16095 H 1560.84 -3.44234 -1.46471 0
M  V30 16096 H 1562.18 -4.52131 -1.94521 0
M  V30 16097 N 1563.83 0.388742 -1.5273 0
M  V30 16098 C 1564.79 1.45759 -1.76881 0
M  V30 16099 C 1565.79 1.47565 -0.63884 0
M  V30 16100 O 1566.98 1.48731 -0.906895 0
M  V30 16101 C 1564.11 2.85045 -1.86981 0
M  V30 16102 H 1565.31 1.25629 -2.72319 0
M  V30 16103 H 1562.86 0.620497 -1.43456 0
M  V30 16104 H 1563.6 3.1052 -0.935296 0
M  V30 16105 H 1563.38 2.85136 -2.69147 0
M  V30 16106 H 1564.87 3.62492 -2.07338 0
M  V30 16107 N 1565.31 1.43698 0.647203 0
M  V30 16108 C 1566.56 1.45346 1.40425 0
M  V30 16109 C 1566.88 0.081129 1.94831 0
M  V30 16110 O 1566.15 -0.884379 1.74801 0
M  V30 16111 H 1564.73 0.535145 0.521181 0
M  V30 16112 H 1567.39 1.79349 0.762887 0
M  V30 16113 H 1566.48 2.16954 2.2436 0
M  V30 16114 N 1566.79 -0.886131 1.30328 0
M  V30 16115 C 1567.73 -1.99174 1.16612 0
M  V30 16116 C 1568.7 -1.66006 0.0559202 0
M  V30 16117 O 1569.89 -1.89458 0.225897 0
M  V30 16118 C 1567.03 -3.34142 0.862726 0
M  V30 16119 C 1566.14 -3.80008 2.05469 0
M  V30 16120 C 1565.28 -5.03617 1.68949 0
M  V30 16121 C 1564.32 -5.41888 2.84647 0
M  V30 16122 N 1563.45 -6.56678 2.48431 0
M  V30 16123 H 1568.29 -2.10238 2.11197 0
M  V30 16124 H 1565.83 -1.02941 1.05079 0
M  V30 16125 H 1567.79 -4.11826 0.667447 0
M  V30 16126 H 1566.42 -3.22767 -0.0462461 0
M  V30 16127 H 1565.47 -2.98243 2.36126 0
M  V30 16128 H 1566.78 -4.04312 2.92119 0
M  V30 16129 H 1565.94 -5.88923 1.45789 0
M  V30 16130 H 1564.67 -4.81182 0.794674 0
M  V30 16131 H 1563.68 -4.55109 3.08474 0
M  V30 16132 H 1564.9 -5.66296 3.74813 0
M  V30 16133 H 1562.85 -6.35821 1.61453 0
M  V30 16134 H 1562.77 -6.80846 3.28611 0
M  V30 16135 H 1564.04 -7.45219 2.28624 0
M  V30 16136 N 1568.26 -1.13026 -1.09832 0
M  V30 16137 C 1569.21 -0.799174 -2.1844 0
M  V30 16138 C 1570.21 0.216695 -1.68008 0
M  V30 16139 O 1571.41 0.0742662 -1.79847 0
M  V30 16140 H 1567.79 -0.24064 -0.712458 0
M  V30 16141 H 1569.76 -1.72342 -2.436 0
M  V30 16142 C 1568.51 -0.276925 -3.46595 0
M  V30 16143 H 1567.83 -1.04993 -3.85768 0
M  V30 16144 H 1569.27 -0.0836468 -4.23917 0
M  V30 16145 C 1567.73 0.996479 -3.21826 0
M  V30 16146 O 1568.26 2.0731 -3.44072 0
M  V30 16147 N 1566.47 0.925903 -2.75455 0
M  V30 16148 H 1566.01 0.0496383 -2.57552 0
M  V30 16149 H 1565.97 1.77853 -2.5926 0
M  V30 16150 N 1569.74 1.27735 -0.923117 0
M  V30 16151 C 1570.67 2.29395 -0.435907 0
M  V30 16152 C 1571.65 1.62542 0.501403 0
M  V30 16153 O 1572.84 1.89884 0.407135 0
M  V30 16154 C 1569.97 3.45856 0.316348 0
M  V30 16155 C 1568.92 4.24672 -0.532697 0
M  V30 16156 C 1568.25 5.33563 0.348454 0
M  V30 16157 C 1569.55 4.90494 -1.79481 0
M  V30 16158 H 1571.24 2.70398 -1.28551 0
M  V30 16159 H 1568.79 1.29989 -0.619581 0
M  V30 16160 H 1570.74 4.1607 0.668098 0
M  V30 16161 H 1569.47 3.03758 1.19994 0
M  V30 16162 H 1568.12 3.56198 -0.867093 0
M  V30 16163 H 1567.77 4.87708 1.23086 0
M  V30 16164 H 1567.47 5.87202 -0.216104 0
M  V30 16165 H 1569 6.06622 0.695878 0
M  V30 16166 H 1570.41 5.53019 -1.5114 0
M  V30 16167 H 1568.81 5.5417 -2.30251 0
M  V30 16168 H 1569.88 4.14454 -2.51707 0
M  V30 16169 N 1571.22 0.688118 1.41784 0
M  V30 16170 C 1572.45 0.224424 2.05377 0
M  V30 16171 C 1572.86 -1.12862 1.51852 0
M  V30 16172 O 1572.2 -1.71491 0.658526 0
M  V30 16173 C 1572.26 0.0964852 3.5937 0
M  V30 16174 C 1571.93 1.38037 4.35655 0
M  V30 16175 C 1572.92 2.31666 4.65432 0
M  V30 16176 C 1570.61 1.63167 4.7506 0
M  V30 16177 C 1572.6 3.48693 5.33565 0
M  V30 16178 C 1570.29 2.8048 5.42931 0
M  V30 16179 C 1571.29 3.73067 5.7211 0
M  V30 16180 O 1570.98 4.88326 6.38587 0
M  V30 16181 H 1570.71 0.103587 0.668016 0
M  V30 16182 H 1573.26 0.939084 1.82676 0
M  V30 16183 H 1571.49 -0.673878 3.80783 0
M  V30 16184 H 1573.18 -0.329059 4.04564 0
M  V30 16185 H 1573.95 2.13506 4.35477 0
M  V30 16186 H 1569.83 0.919669 4.51733 0
M  V30 16187 H 1573.37 4.20979 5.56258 0
M  V30 16188 H 1569.27 2.9856 5.72304 0
M  V30 16189 H 1570.04 4.88044 6.57081 0
M  V30 16190 N 1572.7 -1.51554 0.432352 0
M  V30 16191 C 1573.93 -2.06462 -0.1346 0
M  V30 16192 C 1574.34 -1.30027 -1.36889 0
M  V30 16193 O 1573.7 -0.358447 -1.78945 0
M  V30 16194 C 1573.75 -3.58538 -0.461822 0
M  V30 16195 O 1573.47 -4.32085 0.723471 0
M  V30 16196 C 1574.97 -4.29943 -1.07999 0
M  V30 16197 H 1572.19 -0.670923 -0.0101329 0
M  V30 16198 H 1574.74 -1.9519 0.609999 0
M  V30 16199 H 1572.89 -3.6974 -1.15632 0
M  V30 16200 H 1573.3 -5.22611 0.444757 0
M  V30 16201 H 1574.78 -5.37451 -1.25898 0
M  V30 16202 H 1575.26 -3.87912 -2.05963 0
M  V30 16203 H 1575.86 -4.23171 -0.425022 0
M  V30 16204 N 1574.18 -0.163538 -1.56749 0
M  V30 16205 C 1575.42 0.483404 -1.96646 0
M  V30 16206 C 1575.75 1.63776 -1.04918 0
M  V30 16207 O 1575.01 1.95529 -0.0816828 0
M  V30 16208 C 1575.31 1.0153 -3.42675 0
M  V30 16209 C 1574.97 -0.0223402 -4.50894 0
M  V30 16210 C 1573.63 -0.30754 -4.80216 0
M  V30 16211 C 1575.99 -0.727064 -5.16104 0
M  V30 16212 C 1573.31 -1.30299 -5.72048 0
M  V30 16213 C 1575.67 -1.71144 -6.09009 0
M  V30 16214 C 1574.33 -2.00417 -6.36702 0
M  V30 16215 H 1573.6 0.17689 -0.719577 0
M  V30 16216 H 1576.25 -0.253859 -1.8981 0
M  V30 16217 H 1574.55 1.83023 -3.46425 0
M  V30 16218 H 1576.25 1.52472 -3.70882 0
M  V30 16219 H 1572.84 0.210124 -4.28085 0
M  V30 16220 H 1577.02 -0.519934 -4.93569 0
M  V30 16221 H 1572.28 -1.53604 -5.9179 0
M  V30 16222 H 1576.45 -2.26292 -6.58608 0
M  V30 16223 H 1574.08 -2.77701 -7.07663 0
M  V30 16224 N 1575.65 1.57214 0.110213 0
M  V30 16225 C 1576.89 1.87133 0.822229 0
M  V30 16226 C 1577.26 0.752645 1.76633 0
M  V30 16227 O 1578.46 0.933837 2.52057 0
M  V30 16228 C 1576.73 3.22286 1.54487 0
M  V30 16229 S 1578.29 3.73861 2.29725 0
M  V30 16230 H 1575.11 0.65598 0.274248 0
M  V30 16231 H 1577.71 1.95336 0.0801112 0
M  V30 16232 H 1576.41 4.0164 0.84343 0
M  V30 16233 H 1575.94 3.17184 2.32719 0
M  V30 16234 H 1577.96 3.46066 3.55602 0
M  V30 16235 N 1577.13 -0.380637 1.52934 0
M  V30 16236 C 1578.38 -1.1265 1.68635 0
M  V30 16237 C 1578.71 -1.89397 0.429227 0
M  V30 16238 O 1577.99 -1.85863 -0.573182 0
M  V30 16239 C 1578.27 -2.09797 2.92673 0
M  V30 16240 C 1578.12 -1.36758 4.28506 0
M  V30 16241 C 1579.44 -3.10117 3.12274 0
M  V30 16242 H 1576.56 -0.408158 0.613658 0
M  V30 16243 H 1579.2 -0.408947 1.85547 0
M  V30 16244 H 1577.35 -2.70987 2.78385 0
M  V30 16245 H 1579.02 -0.784679 4.54577 0
M  V30 16246 H 1577.27 -0.669413 4.28604 0
M  V30 16247 H 1577.94 -2.07786 5.11399 0
M  V30 16248 H 1580.41 -2.59022 3.25648 0
M  V30 16249 H 1579.29 -3.75328 4.00525 0
M  V30 16250 H 1579.55 -3.79451 2.26868 0
M  V30 16251 N 1578.61 -1.44039 -0.639573 0
M  V30 16252 C 1579.84 -1.50063 -1.43164 0
M  V30 16253 C 1580.26 -0.123906 -1.87691 0
M  V30 16254 O 1579.62 0.885192 -1.58221 0
M  V30 16255 C 1579.67 -2.46305 -2.63375 0
M  V30 16256 O 1578.77 -1.95874 -3.62915 0
M  V30 16257 H 1578.11 -0.507052 -0.428713 0
M  V30 16258 H 1580.64 -1.8909 -0.781415 0
M  V30 16259 H 1580.65 -2.64062 -3.11023 0
M  V30 16260 H 1579.33 -3.46309 -2.3031 0
M  V30 16261 H 1577.9 -1.87844 -3.22132 0
M  V30 16262 N 1580.09 0.879207 -1.30796 0
M  V30 16263 C 1581.32 1.66208 -1.22713 0
M  V30 16264 C 1581.73 1.88014 0.211506 0
M  V30 16265 O 1581.07 1.43183 1.15084 0
M  V30 16266 C 1581.13 3.05733 -1.89123 0
M  V30 16267 C 1580.8 3.07075 -3.38458 0
M  V30 16268 C 1581.79 2.85709 -4.34358 0
M  V30 16269 C 1579.48 3.28489 -3.8 0
M  V30 16270 C 1581.47 2.85722 -5.69773 0
M  V30 16271 C 1579.16 3.28131 -5.15532 0
M  V30 16272 C 1580.16 3.06773 -6.10229 0
M  V30 16273 O 1579.84 3.06243 -7.43283 0
M  V30 16274 H 1579.58 0.525224 -0.425577 0
M  V30 16275 H 1582.13 1.10636 -1.73057 0
M  V30 16276 H 1580.36 3.62993 -1.33316 0
M  V30 16277 H 1582.05 3.66199 -1.7508 0
M  V30 16278 H 1582.82 2.68956 -4.03593 0
M  V30 16279 H 1578.69 3.44147 -3.06731 0
M  V30 16280 H 1582.24 2.6897 -6.43662 0
M  V30 16281 H 1578.14 3.44422 -5.45934 0
M  V30 16282 H 1578.9 3.22369 -7.52343 0
M  V30 16283 N 1581.57 1.13606 1.09231 0
M  V30 16284 C 1582.81 0.900386 1.81717 0
M  V30 16285 C 1583.15 -0.571984 1.85586 0
M  V30 16286 O 1582.42 -1.42336 1.32554 0
M  V30 16287 C 1582.7 1.49143 3.27763 0
M  V30 16288 C 1582.56 3.03306 3.32153 0
M  V30 16289 C 1583.88 1.16129 4.24502 0
M  V30 16290 H 1581 0.328531 0.659724 0
M  V30 16291 H 1583.64 1.40467 1.27941 0
M  V30 16292 H 1581.79 1.06256 3.73687 0
M  V30 16293 H 1583.46 3.54963 2.94617 0
M  V30 16294 H 1581.7 3.38192 2.71677 0
M  V30 16295 H 1582.37 3.39761 4.35047 0
M  V30 16296 H 1584.85 1.53193 3.86874 0
M  V30 16297 H 1583.73 1.60129 5.25024 0
M  V30 16298 H 1583.99 0.0752973 4.42036 0
M  V30 16299 N 1583.05 -1.27244 0.929878 0
M  V30 16300 C 1584.32 -1.89369 0.489774 0
M  V30 16301 C 1584.7 -1.84142 -1.03222 0
M  V30 16302 O 1584.05 -1.2881 -1.88733 0
M  V30 16303 C 1584.26 -3.33196 1.03833 0
M  V30 16304 C 1585.61 -4.101 1.10013 0
M  V30 16305 O 1586.63 -3.42221 0.988106 0
M  V30 16306 O 1585.49 -5.31468 1.27296 0
M  V30 16307 H 1582.59 -0.811789 0.157882 0
M  V30 16308 H 1585.13 -1.35496 1.02171 0
M  V30 16309 H 1583.9 -3.31304 2.08214 0
M  V30 16310 H 1583.53 -3.94592 0.488167 0
M  V30 16311 N 1584.52 -0.695628 -1.41417 0
M  V30 16312 C 1585.75 -0.234163 -2.06074 0
M  V30 16313 C 1586.17 1.10796 -1.52006 0
M  V30 16314 O 1585.53 1.6936 -0.64705 0
M  V30 16315 C 1585.58 -0.202353 -3.60032 0
M  V30 16316 O 1584.68 0.822767 -4.04109 0
M  V30 16317 H 1584.02 -0.114395 -0.654072 0
M  V30 16318 H 1586.55 -0.950503 -1.81181 0
M  V30 16319 H 1586.56 -0.0332321 -4.07986 0
M  V30 16320 H 1585.24 -1.18188 -3.98754 0
M  V30 16321 H 1583.82 0.622995 -3.67659 0
M  V30 16322 N 1586 1.51322 -0.440383 0
M  V30 16323 C 1587.25 2.01302 0.126581 0
M  V30 16324 C 1587.56 1.32898 1.43518 0
M  V30 16325 O 1588.77 1.73864 2.08527 0
M  V30 16326 C 1587.23 3.58839 0.276126 0
M  V30 16327 C 1586.83 4.36182 -1.02222 0
M  V30 16328 C 1588.58 4.16957 0.796697 0
M  V30 16329 C 1586.48 5.85431 -0.838148 0
M  V30 16330 H 1585.41 0.752268 0.0510809 0
M  V30 16331 H 1588.07 1.74403 -0.570609 0
M  V30 16332 H 1586.45 3.82198 1.03639 0
M  V30 16333 H 1587.62 4.24568 -1.79105 0
M  V30 16334 H 1585.94 3.89531 -1.47155 0
M  V30 16335 H 1588.53 5.26176 0.95095 0
M  V30 16336 H 1588.88 3.76329 1.77996 0
M  V30 16337 H 1589.41 3.97687 0.0946613 0
M  V30 16338 H 1586.15 6.30476 -1.79387 0
M  V30 16339 H 1585.67 5.99701 -0.109167 0
M  V30 16340 H 1587.35 6.45122 -0.492547 0
M  V30 16341 N 1587.48 0.171848 1.5666 0
M  V30 16342 C 1588.41 -0.789671 2.15167 0
M  V30 16343 C 1589.42 -1.19335 1.10739 0
M  V30 16344 O 1590.61 -1.13311 1.37924 0
M  V30 16345 C 1587.71 -2.07448 2.6799 0
M  V30 16346 C 1586.89 -1.83429 3.9708 0
M  V30 16347 C 1585.95 -2.96134 4.34961 0
M  V30 16348 O 1584.97 -2.66746 5.02827 0
M  V30 16349 N 1586.17 -4.23932 3.96563 0
M  V30 16350 H 1588.94 -0.289484 2.98299 0
M  V30 16351 H 1586.5 -0.0109154 1.61896 0
M  V30 16352 H 1588.49 -2.81941 2.90329 0
M  V30 16353 H 1587.06 -2.48656 1.89444 0
M  V30 16354 H 1586.28 -0.928376 3.83112 0
M  V30 16355 H 1587.57 -1.64749 4.81389 0
M  V30 16356 H 1586.97 -4.50668 3.41928 0
M  V30 16357 H 1585.52 -4.95126 4.23903 0
M  V30 16358 N 1588.96 -1.5727 -0.101874 0
M  V30 16359 C 1589.89 -1.98253 -1.15014 0
M  V30 16360 C 1590.9 -0.884147 -1.36699 0
M  V30 16361 O 1592.09 -1.16232 -1.35471 0
M  V30 16362 C 1589.19 -2.28043 -2.50698 0
M  V30 16363 C 1588.36 -3.59343 -2.49383 0
M  V30 16364 C 1587.42 -3.77147 -3.66943 0
M  V30 16365 O 1586.45 -4.49075 -3.49744 0
M  V30 16366 N 1587.65 -3.1721 -4.86167 0
M  V30 16367 H 1590.42 -2.88787 -0.801375 0
M  V30 16368 H 1587.98 -1.59264 -0.290941 0
M  V30 16369 H 1589.97 -2.37153 -3.27934 0
M  V30 16370 H 1588.54 -1.4355 -2.77691 0
M  V30 16371 H 1587.76 -3.61264 -1.57741 0
M  V30 16372 H 1589.05 -4.45612 -2.45576 0
M  V30 16373 H 1588.45 -2.58772 -5.03044 0
M  V30 16374 H 1587 -3.31816 -5.61018 0
M  V30 16375 N 1590.44 0.372521 -1.53134 0
M  V30 16376 C 1591.37 1.47817 -1.73855 0
M  V30 16377 C 1592.35 1.51645 -0.586723 0
M  V30 16378 O 1593.53 1.69803 -0.818496 0
M  V30 16379 C 1590.66 2.86213 -1.81107 0
M  V30 16380 C 1589.7 3.00139 -3.03016 0
M  V30 16381 S 1590.54 2.69617 -4.62674 0
M  V30 16382 C 1591.69 4.10176 -4.72765 0
M  V30 16383 H 1591.93 1.30019 -2.67362 0
M  V30 16384 H 1589.46 0.566429 -1.43635 0
M  V30 16385 H 1591.42 3.65958 -1.85971 0
M  V30 16386 H 1590.08 3.01326 -0.886632 0
M  V30 16387 H 1589.27 4.0148 -3.0468 0
M  V30 16388 H 1588.87 2.28309 -2.96228 0
M  V30 16389 H 1591.16 5.04328 -4.52393 0
M  V30 16390 H 1592.11 4.1352 -5.7481 0
M  V30 16391 H 1592.52 3.96853 -4.01458 0
M  V30 16392 N 1591.91 1.44376 0.631925 0
M  V30 16393 C 1593.33 1.28245 0.950014 0
M  V30 16394 C 1593.53 0.217644 2.00321 0
M  V30 16395 O 1592.59 -0.396736 2.49364 0
M  V30 16396 C 1593.9 2.65378 1.41404 0
M  V30 16397 C 1595.45 2.73081 1.52956 0
M  V30 16398 C 1595.92 4.10682 2.02742 0
M  V30 16399 N 1597.41 4.12854 2.10014 0
M  V30 16400 C 1598.15 5.16173 2.49705 0
M  V30 16401 N 1597.64 6.29855 2.88539 0
M  V30 16402 N 1599.44 5.03528 2.49832 0
M  V30 16403 H 1591.59 2.12302 -0.0646167 0
M  V30 16404 H 1593.85 0.9474 0.0337162 0
M  V30 16405 H 1593.56 3.44366 0.714476 0
M  V30 16406 H 1593.43 2.92213 2.3852 0
M  V30 16407 H 1595.82 1.94412 2.22009 0
M  V30 16408 H 1595.9 2.49988 0.542176 0
M  V30 16409 H 1595.54 4.89827 1.34285 0
M  V30 16410 H 1595.47 4.31152 3.02351 0
M  V30 16411 H 1597.96 3.30806 1.8269 0
M  V30 16412 H 1598.28 7.04505 3.17637 0
M  V30 16413 H 1596.62 6.33294 2.86293 0
M  V30 16414 H 1599.81 4.13773 2.18883 0
M  V30 16415 H 1599.99 5.84172 2.80441 0
M  V30 16416 N 1593.39 -0.872258 1.31261 0
M  V30 16417 C 1594.34 -2.00065 1.18645 0
M  V30 16418 C 1595.33 -1.69132 0.0952872 0
M  V30 16419 O 1596.54 -1.78156 0.257022 0
M  V30 16420 H 1592.91 -0.656201 0.367293 0
M  V30 16421 H 1594.89 -2.07837 2.14117 0
M  V30 16422 C 1593.63 -3.35628 0.908241 0
M  V30 16423 H 1592.96 -3.5995 1.74 0
M  V30 16424 H 1594.4 -4.15184 0.860134 0
M  V30 16425 C 1592.86 -3.34647 -0.388993 0
M  V30 16426 O 1593.39 -3.76271 -1.40651 0
M  V30 16427 N 1591.59 -2.87768 -0.404708 0
M  V30 16428 H 1591.14 -2.5409 0.423824 0
M  V30 16429 H 1591.1 -2.87494 -1.27258 0
M  V30 16430 N 1594.87 -1.14184 -1.08627 0
M  V30 16431 C 1595.82 -0.826718 -2.15486 0
M  V30 16432 C 1596.79 0.214769 -1.64706 0
M  V30 16433 O 1597.97 0.0851909 -1.9061 0
M  V30 16434 C 1595.11 -0.307888 -3.43724 0
M  V30 16435 C 1594.22 -1.40941 -4.08362 0
M  V30 16436 C 1593.36 -0.848059 -5.24387 0
M  V30 16437 C 1592.4 -1.92741 -5.80962 0
M  V30 16438 N 1591.54 -1.3834 -6.88336 0
M  V30 16439 H 1596.38 -1.74198 -2.41783 0
M  V30 16440 H 1593.91 -0.869406 -1.18658 0
M  V30 16441 H 1595.87 0.0111149 -4.17199 0
M  V30 16442 H 1594.5 0.570488 -3.17719 0
M  V30 16443 H 1593.55 -1.84485 -3.3267 0
M  V30 16444 H 1594.86 -2.22485 -4.46433 0
M  V30 16445 H 1594.02 -0.480826 -6.04792 0
M  V30 16446 H 1592.76 -0.00163783 -4.877 0
M  V30 16447 H 1591.76 -2.30362 -4.99213 0
M  V30 16448 H 1592.99 -2.77738 -6.19708 0
M  V30 16449 H 1590.93 -0.559124 -6.53613 0
M  V30 16450 H 1590.85 -2.13524 -7.2522 0
M  V30 16451 H 1592.12 -1.044 -7.72477 0
M  V30 16452 N 1596.35 1.26749 -0.936613 0
M  V30 16453 C 1597.6 1.93964 -0.581754 0
M  V30 16454 C 1597.92 1.73532 0.878449 0
M  V30 16455 O 1597.18 1.06295 1.64316 0
M  V30 16456 C 1597.48 3.4678 -0.864789 0
M  V30 16457 C 1597.14 3.87344 -2.30815 0
M  V30 16458 C 1595.81 3.98129 -2.70271 0
M  V30 16459 C 1598.16 4.07752 -3.24634 0
M  V30 16460 C 1595.49 4.26717 -4.02653 0
M  V30 16461 C 1597.84 4.37827 -4.56607 0
M  V30 16462 C 1596.5 4.46826 -4.95886 0
M  V30 16463 H 1595.77 0.709763 -0.212879 0
M  V30 16464 H 1598.42 1.50648 -1.18226 0
M  V30 16465 H 1596.72 3.91378 -0.181699 0
M  V30 16466 H 1598.42 3.96942 -0.569065 0
M  V30 16467 H 1595.01 3.79492 -1.99207 0
M  V30 16468 H 1599.19 3.98852 -2.95349 0
M  V30 16469 H 1594.45 4.31895 -4.32755 0
M  V30 16470 H 1598.62 4.52565 -5.293 0
M  V30 16471 H 1596.25 4.68732 -5.98494 0
M  V30 16472 N 1597.83 0.703118 1.41046 0
M  V30 16473 C 1598.79 0.0514476 2.29142 0
M  V30 16474 C 1599.79 -0.700223 1.44753 0
M  V30 16475 O 1600.98 -0.533985 1.65814 0
M  V30 16476 C 1598.11 -0.93735 3.2776 0
M  V30 16477 H 1599.3 0.827201 2.88266 0
M  V30 16478 H 1596.86 0.467045 1.49159 0
M  V30 16479 H 1597.59 -1.7406 2.7363 0
M  V30 16480 H 1597.38 -0.4014 3.9004 0
M  V30 16481 H 1598.87 -1.39088 3.93757 0
M  V30 16482 N 1599.3 -1.51086 0.448402 0
M  V30 16483 C 1600.55 -2.02177 -0.114342 0
M  V30 16484 C 1600.88 -1.3319 -1.41742 0
M  V30 16485 O 1600.13 -0.439101 -1.9071 0
M  V30 16486 C 1600.43 -3.55488 -0.369232 0
M  V30 16487 C 1600.1 -4.42828 0.849372 0
M  V30 16488 C 1598.76 -4.66418 1.18354 0
M  V30 16489 C 1601.11 -4.93998 1.66179 0
M  V30 16490 C 1598.44 -5.38424 2.33059 0
M  V30 16491 C 1600.79 -5.67262 2.79994 0
M  V30 16492 C 1599.46 -5.89113 3.13851 0
M  V30 16493 H 1598.73 -0.739818 -0.0418407 0
M  V30 16494 H 1601.37 -1.81928 0.597857 0
M  V30 16495 H 1599.68 -3.74127 -1.16344 0
M  V30 16496 H 1601.38 -3.92563 -0.818248 0
M  V30 16497 H 1597.97 -4.24671 0.578998 0
M  V30 16498 H 1602.15 -4.75647 1.41683 0
M  V30 16499 H 1597.41 -5.53554 2.59592 0
M  V30 16500 H 1601.58 -6.05899 3.43307 0
M  V30 16501 H 1599.21 -6.44686 4.02844 0
M  V30 16502 N 1600.78 -0.180154 -1.56567 0
M  V30 16503 C 1602.2 0.175902 -1.58628 0
M  V30 16504 C 1602.4 1.62179 -1.19583 0
M  V30 16505 O 1601.45 2.35471 -0.911566 0
M  V30 16506 C 1602.77 -0.11292 -3.00488 0
M  V30 16507 C 1604.32 -0.051834 -3.12957 0
M  V30 16508 C 1604.79 -0.313764 -4.56924 0
M  V30 16509 N 1606.28 -0.261852 -4.62459 0
M  V30 16510 C 1607.02 -0.438573 -5.7172 0
M  V30 16511 N 1606.51 -0.674832 -6.89506 0
M  V30 16512 N 1608.31 -0.373864 -5.60855 0
M  V30 16513 H 1600.46 -1.12385 -1.80232 0
M  V30 16514 H 1602.72 -0.447459 -0.835754 0
M  V30 16515 H 1602.43 -1.11488 -3.33562 0
M  V30 16516 H 1602.3 0.591409 -3.72535 0
M  V30 16517 H 1604.69 0.940711 -2.79705 0
M  V30 16518 H 1604.77 -0.78901 -2.43327 0
M  V30 16519 H 1604.41 -1.30356 -4.90887 0
M  V30 16520 H 1604.34 0.444127 -5.24724 0
M  V30 16521 H 1606.83 -0.0852513 -3.77804 0
M  V30 16522 H 1607.15 -0.798891 -7.6866 0
M  V30 16523 H 1605.49 -0.711551 -6.91348 0
M  V30 16524 H 1608.68 -0.189815 -4.67715 0
M  V30 16525 H 1608.85 -0.515012 -6.4595 0
M  V30 16526 N 1602.26 1.57322 0.0935319 0
M  V30 16527 C 1603.17 2.05499 1.13169 0
M  V30 16528 C 1604.19 0.980199 1.43764 0
M  V30 16529 O 1605.36 1.29347 1.54374 0
M  V30 16530 C 1602.43 2.47111 2.43181 0
M  V30 16531 C 1601.49 3.68791 2.19754 0
M  V30 16532 C 1600.72 4.08408 3.43567 0
M  V30 16533 O 1600.94 3.48104 4.51863 0
M  V30 16534 O 1599.88 5.01351 3.33062 0
M  V30 16535 H 1603.7 2.9423 0.752491 0
M  V30 16536 H 1601.29 1.4623 0.306151 0
M  V30 16537 H 1603.17 2.74495 3.19735 0
M  V30 16538 H 1601.85 1.61518 2.80524 0
M  V30 16539 H 1600.75 3.46521 1.40976 0
M  V30 16540 H 1602.09 4.55169 1.87303 0
M  V30 16541 N 1603.74 -0.364395 1.53329 0
M  V30 16542 C 1604.7 -1.42927 1.79178 0
M  V30 16543 C 1605.7 -1.4653 0.662235 0
M  V30 16544 O 1606.89 -1.4727 0.930442 0
M  V30 16545 C 1604.02 -2.82035 1.91492 0
M  V30 16546 H 1605.22 -1.21281 2.74283 0
M  V30 16547 H 1602.77 -0.597596 1.44425 0
M  V30 16548 H 1603.5 -3.08993 0.984579 0
M  V30 16549 H 1603.29 -2.80818 2.73649 0
M  V30 16550 H 1604.78 -3.59148 2.13078 0
M  V30 16551 N 1605.22 -1.44709 -0.62426 0
M  V30 16552 C 1606.47 -1.47131 -1.37968 0
M  V30 16553 C 1606.78 -0.110507 -1.95288 0
M  V30 16554 O 1607.98 -0.0122892 -2.71497 0
M  V30 16555 C 1606.44 -2.59059 -2.49833 0
M  V30 16556 C 1606.05 -4.01378 -1.98997 0
M  V30 16557 C 1607.79 -2.70709 -3.26981 0
M  V30 16558 C 1605.7 -5.04717 -3.08244 0
M  V30 16559 H 1604.63 -0.547424 -0.5185 0
M  V30 16560 H 1607.28 -1.70797 -0.670863 0
M  V30 16561 H 1605.66 -2.28646 -3.23322 0
M  V30 16562 H 1606.84 -4.41391 -1.32327 0
M  V30 16563 H 1605.15 -3.9403 -1.34644 0
M  V30 16564 H 1607.75 -3.45087 -4.08435 0
M  V30 16565 H 1608.09 -1.76763 -3.76909 0
M  V30 16566 H 1608.62 -3.00566 -2.60585 0
M  V30 16567 H 1605.36 -6.00315 -2.63253 0
M  V30 16568 H 1604.88 -4.6929 -3.73534 0
M  V30 16569 H 1606.56 -5.28725 -3.72906 0
M  V30 16570 N 1606.69 0.865285 -1.31722 0
M  V30 16571 C 1607.64 1.99433 -1.19704 0
M  V30 16572 C 1608.64 1.69079 -0.104255 0
M  V30 16573 O 1609.84 1.78017 -0.266466 0
M  V30 16574 H 1606.22 0.654244 -0.370768 0
M  V30 16575 H 1608.19 2.06699 -2.15216 0
M  V30 16576 C 1606.94 3.35142 -0.926027 0
M  V30 16577 H 1606.26 3.59022 -1.75906 0
M  V30 16578 H 1607.7 4.14722 -0.88214 0
M  V30 16579 C 1606.16 3.34848 0.37124 0
M  V30 16580 O 1606.69 3.77012 1.38654 0
M  V30 16581 N 1604.9 2.87979 0.389441 0
M  V30 16582 H 1604.44 2.53861 -0.437293 0
M  V30 16583 H 1604.4 2.88165 1.25731 0
M  V30 16584 N 1608.17 1.14759 1.0802 0
M  V30 16585 C 1609.12 0.838134 2.15044 0
M  V30 16586 C 1610.09 -0.206031 1.64817 0
M  V30 16587 O 1611.27 -0.0750812 1.90652 0
M  V30 16588 C 1608.41 0.326112 3.43556 0
M  V30 16589 C 1607.53 1.43104 4.07609 0
M  V30 16590 C 1606.66 0.875857 5.2393 0
M  V30 16591 C 1605.7 1.9582 5.79932 0
M  V30 16592 N 1604.84 1.41989 6.87593 0
M  V30 16593 H 1609.68 1.75478 2.40856 0
M  V30 16594 H 1607.22 0.875686 1.18195 0
M  V30 16595 H 1609.17 0.0110103 4.17199 0
M  V30 16596 H 1607.8 -0.55363 3.18017 0
M  V30 16597 H 1606.86 1.86247 3.31687 0
M  V30 16598 H 1608.17 2.24849 4.45246 0
M  V30 16599 H 1607.32 0.512893 6.04528 0
M  V30 16600 H 1606.06 0.0275017 4.87692 0
M  V30 16601 H 1605.07 2.33006 4.97984 0
M  V30 16602 H 1606.29 2.81021 6.18227 0
M  V30 16603 H 1604.24 0.593779 6.53307 0
M  V30 16604 H 1604.15 2.17367 7.24077 0
M  V30 16605 H 1605.42 1.08495 7.71913 0
M  V30 16606 N 1609.65 -1.26251 0.943322 0
M  V30 16607 C 1610.58 -2.28673 0.472347 0
M  V30 16608 C 1611.56 -1.63319 -0.475481 0
M  V30 16609 O 1612.75 -1.90508 -0.376875 0
M  V30 16610 C 1609.88 -3.46316 -0.261286 0
M  V30 16611 C 1608.83 -4.23771 0.600192 0
M  V30 16612 C 1608.16 -5.3405 -0.263525 0
M  V30 16613 C 1609.46 -4.87576 1.87262 0
M  V30 16614 H 1611.15 -2.68319 1.32836 0
M  V30 16615 H 1608.7 -1.28987 0.640182 0
M  V30 16616 H 1610.65 -4.1708 -0.601821 0
M  V30 16617 H 1609.37 -3.05629 -1.15146 0
M  V30 16618 H 1608.03 -3.54774 0.923651 0
M  V30 16619 H 1607.68 -4.89604 -1.15312 0
M  V30 16620 H 1607.38 -5.86784 0.309495 0
M  V30 16621 H 1608.9 -6.07652 -0.599281 0
M  V30 16622 H 1610.32 -5.50544 1.59919 0
M  V30 16623 H 1608.72 -5.50437 2.39038 0
M  V30 16624 H 1609.79 -4.10397 2.58268 0
M  V30 16625 N 1611.13 -0.710588 -1.40671 0
M  V30 16626 C 1612.04 -0.0557164 -2.34534 0
M  V30 16627 C 1613.06 0.749387 -1.57036 0
M  V30 16628 O 1614.23 0.683493 -1.89447 0
M  V30 16629 C 1611.3 0.858583 -3.35901 0
M  V30 16630 C 1610.36 0.043995 -4.29277 0
M  V30 16631 C 1609.59 0.91475 -5.25802 0
M  V30 16632 O 1609.81 2.15407 -5.28163 0
M  V30 16633 O 1608.75 0.356407 -6.00844 0
M  V30 16634 H 1612.57 -0.829807 -2.92144 0
M  V30 16635 H 1610.16 -0.471028 -1.4178 0
M  V30 16636 H 1612.04 1.38244 -3.98079 0
M  V30 16637 H 1610.72 1.61191 -2.80712 0
M  V30 16638 H 1609.62 -0.524815 -3.704 0
M  V30 16639 H 1610.96 -0.670996 -4.87605 0
M  V30 16640 N 1612.61 1.50847 -0.456408 0
M  V30 16641 C 1613.56 2.29805 0.359529 0
M  V30 16642 C 1614.55 1.3646 1.00374 0
M  V30 16643 O 1615.76 1.53718 0.936524 0
M  V30 16644 H 1612.13 0.739825 0.134772 0
M  V30 16645 H 1614.1 2.96603 -0.327009 0
M  V30 16646 C 1612.85 3.16597 1.43741 0
M  V30 16647 H 1612.17 3.88323 0.95108 0
M  V30 16648 H 1613.61 3.74866 1.98119 0
M  V30 16649 C 1612.07 2.3322 2.43126 0
M  V30 16650 O 1612.6 2.00504 3.48082 0
M  V30 16651 N 1610.81 1.96078 2.1448 0
M  V30 16652 H 1610.36 2.22883 1.29155 0
M  V30 16653 H 1610.31 1.40592 2.81214 0
M  V30 16654 N 1614.09 0.188454 1.56469 0
M  V30 16655 C 1615.03 -0.751822 2.20115 0
M  V30 16656 C 1616.03 -1.22476 1.1703 0
M  V30 16657 O 1617.23 -1.18843 1.3519 0
M  V30 16658 H 1613.61 -0.260778 0.705336 0
M  V30 16659 H 1615.58 -0.191249 2.97786 0
M  V30 16660 C 1614.33 -1.96365 2.86943 0
M  V30 16661 H 1613.65 -1.60879 3.66003 0
M  V30 16662 H 1615.09 -2.60007 3.34921 0
M  V30 16663 C 1613.55 -2.7982 1.87623 0
M  V30 16664 O 1614.08 -3.7753 1.37237 0
M  V30 16665 N 1612.29 -2.45179 1.55999 0
M  V30 16666 H 1611.83 -1.6578 1.97167 0
M  V30 16667 H 1611.79 -3.01302 0.898012 0
M  V30 16668 N 1615.56 -1.5737 -0.0851874 0
M  V30 16669 C 1616.49 -2.05796 -1.10319 0
M  V30 16670 C 1617.47 -0.948796 -1.4118 0
M  V30 16671 O 1618.66 -1.22069 -1.51039 0
M  V30 16672 C 1615.79 -2.49069 -2.42037 0
M  V30 16673 C 1614.74 -3.6374 -2.25561 0
M  V30 16674 C 1614.07 -3.93023 -3.62543 0
M  V30 16675 C 1615.37 -4.94274 -1.68793 0
M  V30 16676 H 1617.06 -2.91095 -0.700274 0
M  V30 16677 H 1614.61 -1.40039 -0.335405 0
M  V30 16678 H 1616.56 -2.81558 -3.13534 0
M  V30 16679 H 1615.29 -1.60781 -2.84283 0
M  V30 16680 H 1613.95 -3.31513 -1.56507 0
M  V30 16681 H 1613.59 -3.01887 -4.02335 0
M  V30 16682 H 1613.29 -4.70229 -3.52362 0
M  V30 16683 H 1614.82 -4.27995 -4.35491 0
M  V30 16684 H 1616.23 -5.25079 -2.30141 0
M  V30 16685 H 1614.63 -5.75711 -1.69344 0
M  V30 16686 H 1615.7 -4.80548 -0.648204 0
M  V30 16687 N 1617.04 0.356258 -1.53521 0
M  V30 16688 C 1618.46 0.698546 -1.43501 0
M  V30 16689 C 1618.66 1.92926 -0.581547 0
M  V30 16690 O 1617.71 2.5241 -0.0675947 0
M  V30 16691 C 1619.03 0.903047 -2.8682 0
M  V30 16692 C 1620.57 1.00247 -2.96512 0
M  V30 16693 C 1621.05 1.23938 -4.40912 0
M  V30 16694 N 1622.54 1.30687 -4.44382 0
M  V30 16695 C 1623.28 1.50745 -5.5323 0
M  V30 16696 N 1622.77 1.68058 -6.72107 0
M  V30 16697 N 1624.56 1.5319 -5.40823 0
M  V30 16698 H 1616.72 -0.453102 -2.07511 0
M  V30 16699 H 1618.98 -0.140708 -0.937499 0
M  V30 16700 H 1618.68 0.070416 -3.5163 0
M  V30 16701 H 1618.56 1.80847 -3.3102 0
M  V30 16702 H 1620.95 1.82564 -2.3185 0
M  V30 16703 H 1621.03 0.0742303 -2.55692 0
M  V30 16704 H 1620.67 0.421189 -5.06151 0
M  V30 16705 H 1620.6 2.18098 -4.79313 0
M  V30 16706 H 1623.09 1.18883 -3.58713 0
M  V30 16707 H 1623.4 1.82963 -7.50829 0
M  V30 16708 H 1621.75 1.65219 -6.75076 0
M  V30 16709 H 1624.94 1.39237 -4.46912 0
M  V30 16710 H 1625.11 1.6848 -6.25714 0
M  V30 16711 N 1618.52 1.45038 0.616577 0
M  V30 16712 C 1619.43 1.55542 1.75624 0
M  V30 16713 C 1620.45 0.440304 1.68337 0
M  V30 16714 O 1621.62 0.699725 1.88854 0
M  V30 16715 C 1618.69 1.51062 3.1206 0
M  V30 16716 C 1617.75 2.7354 3.30869 0
M  V30 16717 C 1616.98 2.69264 4.60796 0
M  V30 16718 O 1617.2 1.76085 5.42541 0
M  V30 16719 O 1616.14 3.60335 4.82123 0
M  V30 16720 H 1619.96 2.51854 1.69715 0
M  V30 16721 H 1617.55 1.27448 0.779578 0
M  V30 16722 H 1619.43 1.51138 3.93364 0
M  V30 16723 H 1618.11 0.578976 3.1848 0
M  V30 16724 H 1617.01 2.79027 2.49188 0
M  V30 16725 H 1618.35 3.65799 3.2932 0
M  V30 16726 N 1620 -0.858287 1.32179 0
M  V30 16727 C 1620.93 -1.98219 1.23415 0
M  V30 16728 C 1621.91 -1.69685 0.118779 0
M  V30 16729 O 1623.09 -1.91785 0.305342 0
M  V30 16730 C 1620.22 -3.33977 0.952725 0
M  V30 16731 C 1619.18 -3.76853 2.02894 0
M  V30 16732 C 1618.5 -5.10201 1.59999 0
M  V30 16733 C 1619.8 -3.92707 3.44352 0
M  V30 16734 H 1621.5 -2.05809 2.17446 0
M  V30 16735 H 1619.04 -0.988817 1.04682 0
M  V30 16736 H 1621 -4.12152 0.87798 0
M  V30 16737 H 1619.72 -3.26592 -0.023234 0
M  V30 16738 H 1618.38 -3.00926 2.09378 0
M  V30 16739 H 1618.03 -4.99268 0.61157 0
M  V30 16740 H 1617.73 -5.39859 2.32004 0
M  V30 16741 H 1619.25 -5.90873 1.53954 0
M  V30 16742 H 1620.67 -4.61246 3.40477 0
M  V30 16743 H 1619.06 -4.33779 4.14675 0
M  V30 16744 H 1620.13 -2.95731 3.8428 0
M  V30 16745 N 1621.48 -1.1533 -1.07409 0
M  V30 16746 C 1622.41 -0.807289 -2.14512 0
M  V30 16747 C 1623.42 0.18043 -1.61797 0
M  V30 16748 O 1624.61 -0.042733 -1.78449 0
M  V30 16749 C 1621.71 -0.179338 -3.38425 0
M  V30 16750 C 1620.88 -1.20433 -4.20493 0
M  V30 16751 C 1619.94 -0.598268 -5.22788 0
M  V30 16752 O 1618.97 -1.26405 -5.54987 0
M  V30 16753 N 1620.17 0.620283 -5.77177 0
M  V30 16754 H 1622.93 -1.729 -2.44797 0
M  V30 16755 H 1620.5 -1.0491 -1.23311 0
M  V30 16756 H 1622.49 0.238867 -4.03994 0
M  V30 16757 H 1621.06 0.645706 -3.05858 0
M  V30 16758 H 1620.28 -1.79912 -3.5075 0
M  V30 16759 H 1621.57 -1.89642 -4.72137 0
M  V30 16760 H 1620.96 1.17958 -5.53265 0
M  V30 16761 H 1619.52 0.980853 -6.44378 0
M  V30 16762 N 1622.95 1.25748 -0.950004 0
M  V30 16763 C 1624.2 1.92632 -0.597988 0
M  V30 16764 C 1624.52 1.75268 0.868365 0
M  V30 16765 O 1625.72 2.36684 1.33014 0
M  V30 16766 C 1624.18 3.45179 -1.01879 0
M  V30 16767 C 1623.79 3.71262 -2.50736 0
M  V30 16768 C 1625.53 4.18017 -0.739084 0
M  V30 16769 C 1623.44 5.17292 -2.8664 0
M  V30 16770 H 1622.37 0.72121 -0.219938 0
M  V30 16771 H 1625.02 1.42685 -1.15383 0
M  V30 16772 H 1623.4 3.94061 -0.391395 0
M  V30 16773 H 1624.57 3.33051 -3.18455 0
M  V30 16774 H 1622.89 3.11676 -2.76129 0
M  V30 16775 H 1625.49 5.25576 -0.983555 0
M  V30 16776 H 1625.83 4.15034 0.32439 0
M  V30 16777 H 1626.36 3.75028 -1.32661 0
M  V30 16778 H 1623.1 5.25383 -3.91987 0
M  V30 16779 H 1622.62 5.56567 -2.23591 0
M  V30 16780 H 1624.3 5.85375 -2.75582 0
M  V30 16781 N 1624.43 0.718038 1.40292 0
M  V30 16782 C 1625.67 0.263057 2.027 0
M  V30 16783 C 1626.04 -1.1233 1.55711 0
M  V30 16784 O 1627.24 -1.67541 2.10199 0
M  V30 16785 C 1625.51 0.342773 3.55752 0
M  V30 16786 S 1627.07 -0.0348622 4.38786 0
M  V30 16787 H 1623.88 0.10418 0.703326 0
M  V30 16788 H 1626.49 0.940801 1.71374 0
M  V30 16789 H 1625.19 1.35336 3.87443 0
M  V30 16790 H 1624.72 -0.353367 3.9181 0
M  V30 16791 H 1626.74 -1.25618 4.80036 0
M  V30 16792 N 1625.91 -1.50602 0.464402 0
M  V30 16793 C 1627.32 -1.86698 0.00767586 0
M  V30 16794 C 1627.67 -1.37971 -1.39494 0
M  V30 16795 O 1626.8 -0.741843 -2.03287 0
M  V30 16796 C 1627.39 -3.38799 0.00715323 0
M  V30 16797 C 1625.95 -3.74331 -0.394077 0
M  V30 16798 C 1625.1 -2.74465 0.395495 0
M  V30 16799 H 1628.05 -1.43441 0.678996 0
M  V30 16800 H 1628.07 -3.7207 -0.796497 0
M  V30 16801 H 1627.58 -3.74234 1.02812 0
M  V30 16802 H 1625.68 -3.44495 -1.41964 0
M  V30 16803 H 1625.8 -4.78995 -0.10007 0
M  V30 16804 H 1624.16 -2.54258 -0.149903 0
M  V30 16805 H 1624.94 -3.12744 1.41585 0
M  V30 16806 N 1627.39 -0.19675 -1.56367 0
M  V30 16807 C 1628.35 0.709734 -2.17934 0
M  V30 16808 C 1629.35 1.13979 -1.13426 0
M  V30 16809 O 1630.54 1.05261 -1.38801 0
M  V30 16810 C 1627.67 1.96917 -2.78274 0
M  V30 16811 H 1628.87 0.173342 -2.99399 0
M  V30 16812 H 1626.42 0.0528698 -1.56211 0
M  V30 16813 H 1627.15 2.54804 -2.00613 0
M  V30 16814 H 1626.94 1.66951 -3.54781 0
M  V30 16815 H 1628.43 2.61554 -3.25545 0
M  V30 16816 N 1628.87 1.57413 0.0768405 0
M  V30 16817 C 1630.09 1.91224 0.790007 0
M  V30 16818 C 1630.51 0.792232 1.71374 0
M  V30 16819 O 1629.87 -0.234736 1.80984 0
M  V30 16820 C 1629.92 3.24757 1.58793 0
M  V30 16821 O 1629.64 4.3245 0.701329 0
M  V30 16822 C 1631.14 3.72549 2.40254 0
M  V30 16823 H 1628.36 0.63219 0.224893 0
M  V30 16824 H 1630.9 2.04442 0.0486173 0
M  V30 16825 H 1629.06 3.13081 2.28165 0
M  V30 16826 H 1629.47 5.09245 1.2558 0
M  V30 16827 H 1630.95 4.68628 2.91705 0
M  V30 16828 H 1631.42 3.01305 3.1955 0
M  V30 16829 H 1632.03 3.87153 1.76048 0
M  V30 16830 N 1630.34 -0.348112 1.53707 0
M  V30 16831 C 1631.31 -1.41018 1.80683 0
M  V30 16832 C 1632.31 -1.4582 0.67774 0
M  V30 16833 O 1633.5 -1.46275 0.94601 0
M  V30 16834 C 1630.63 -2.79988 1.94473 0
M  V30 16835 H 1631.82 -1.18365 2.75554 0
M  V30 16836 H 1629.38 -0.582244 1.4505 0
M  V30 16837 H 1630.11 -3.07931 1.0173 0
M  V30 16838 H 1629.9 -2.77899 2.76612 0
M  V30 16839 H 1631.39 -3.56868 2.16876 0
M  V30 16840 N 1631.82 -1.45363 -0.608876 0
M  V30 16841 C 1633.07 -1.49018 -1.36522 0
M  V30 16842 C 1633.39 -0.132757 -1.94548 0
M  V30 16843 O 1632.66 0.837723 -1.77085 0
M  V30 16844 H 1631.24 -0.548775 -0.506809 0
M  V30 16845 H 1633.9 -1.81309 -0.715068 0
M  V30 16846 H 1633 -2.22826 -2.18529 0
M  V30 16847 N 1633.3 0.851265 -1.32632 0
M  V30 16848 C 1634.53 1.64328 -1.26535 0
M  V30 16849 C 1634.95 1.87392 0.163086 0
M  V30 16850 O 1634.31 1.42913 1.1156 0
M  V30 16851 C 1634.36 2.97781 -2.03369 0
M  V30 16852 O 1633.46 3.8849 -1.38381 0
M  V30 16853 H 1632.8 0.500864 -0.435926 0
M  V30 16854 H 1635.33 1.06 -1.75001 0
M  V30 16855 H 1635.34 3.47576 -2.1367 0
M  V30 16856 H 1634.02 2.80316 -3.07239 0
M  V30 16857 H 1632.59 3.4696 -1.36649 0
M  V30 16858 N 1634.78 1.15898 1.06796 0
M  V30 16859 C 1636.03 0.935488 1.79145 0
M  V30 16860 C 1636.35 -0.538433 1.87419 0
M  V30 16861 O 1635.62 -1.39124 1.37917 0
M  V30 16862 H 1634.2 0.343123 0.663533 0
M  V30 16863 H 1636.86 1.4607 1.29034 0
M  V30 16864 H 1635.96 1.34978 2.81402 0
M  V30 16865 N 1636.26 -1.25243 0.956659 0
M  V30 16866 C 1637.67 -1.74909 0.652979 0
M  V30 16867 C 1638.02 -1.77704 -0.831605 0
M  V30 16868 O 1637.14 -1.39921 -1.65079 0
M  V30 16869 C 1637.74 -3.17639 1.1786 0
M  V30 16870 C 1636.3 -3.64856 0.925034 0
M  V30 16871 C 1635.44 -2.43844 1.32044 0
M  V30 16872 H 1638.4 -1.11101 1.13324 0
M  V30 16873 H 1638.42 -3.76654 0.539633 0
M  V30 16874 H 1637.93 -3.15572 2.25911 0
M  V30 16875 H 1636.03 -3.72335 -0.14043 0
M  V30 16876 H 1636.14 -4.5289 1.56292 0
M  V30 16877 H 1634.51 -2.43749 0.738813 0
M  V30 16878 H 1635.29 -2.44466 2.41021 0
M  V30 16879 N 1637.73 -0.725468 -1.3991 0
M  V30 16880 C 1638.7 -0.0878956 -2.29031 0
M  V30 16881 C 1639.7 0.677105 -1.45849 0
M  V30 16882 O 1640.89 0.507538 -1.66642 0
M  V30 16883 C 1638.02 0.885087 -3.2921 0
M  V30 16884 H 1639.21 -0.872957 -2.86914 0
M  V30 16885 H 1636.77 -0.490715 -1.48397 0
M  V30 16886 H 1637.5 1.69685 -2.76365 0
M  V30 16887 H 1637.29 0.339297 -3.90629 0
M  V30 16888 H 1638.78 1.32806 -3.9592 0
M  V30 16889 N 1639.21 1.50354 -0.472382 0
M  V30 16890 C 1640.18 2.27096 0.30981 0
M  V30 16891 C 1641.18 1.3193 0.919306 0
M  V30 16892 O 1642.37 1.55344 0.788284 0
M  V30 16893 C 1639.5 3.08924 1.44149 0
M  V30 16894 H 1640.69 2.97692 -0.363228 0
M  V30 16895 H 1638.24 1.5465 -0.226483 0
M  V30 16896 H 1638.98 2.42828 2.14954 0
M  V30 16897 H 1638.76 3.78862 1.01023 0
M  V30 16898 H 1640.25 3.66961 1.99323 0
M  V30 16899 N 1640.69 0.205039 1.56261 0
M  V30 16900 C 1641.92 -0.43642 2.02245 0
M  V30 16901 C 1642.33 -1.54504 1.08508 0
M  V30 16902 O 1641.69 -1.82269 0.0916991 0
M  V30 16903 C 1641.74 -0.983483 3.47865 0
M  V30 16904 O 1641.46 0.0809166 4.38025 0
M  V30 16905 C 1642.96 -1.69983 4.09415 0
M  V30 16906 H 1640.18 -0.108577 0.662157 0
M  V30 16907 H 1642.73 0.316659 2.02033 0
M  V30 16908 H 1640.88 -1.6869 3.48744 0
M  V30 16909 H 1641.3 -0.327751 5.23475 0
M  V30 16910 H 1642.77 -2.03481 5.13127 0
M  V30 16911 H 1643.25 -2.60711 3.5345 0
M  V30 16912 H 1643.85 -1.04202 4.12337 0
M  V30 16913 N 1642.17 -1.57451 -0.0684915 0
M  V30 16914 C 1643.1 -2.00648 -1.10783 0
M  V30 16915 C 1644.11 -0.912944 -1.34793 0
M  V30 16916 O 1645.3 -1.19079 -1.32975 0
M  V30 16917 C 1642.4 -2.33309 -2.45805 0
M  V30 16918 C 1641.58 -3.64551 -2.41704 0
M  V30 16919 C 1640.64 -3.84845 -3.5886 0
M  V30 16920 O 1639.66 -4.56392 -3.40139 0
M  V30 16921 N 1640.86 -3.27451 -4.79329 0
M  V30 16922 H 1643.63 -2.90422 -0.739938 0
M  V30 16923 H 1641.19 -1.59846 -0.257093 0
M  V30 16924 H 1643.18 -2.44056 -3.22829 0
M  V30 16925 H 1641.75 -1.49408 -2.74583 0
M  V30 16926 H 1640.97 -3.64528 -1.50043 0
M  V30 16927 H 1642.26 -4.50721 -2.36068 0
M  V30 16928 H 1641.66 -2.69384 -4.97442 0
M  V30 16929 H 1640.21 -3.43641 -5.53854 0
M  V30 16930 N 1643.65 0.339955 -1.5389 0
M  V30 16931 C 1644.92 1.09703 -1.6194 0
M  V30 16932 C 1645.3 2.06401 -0.442907 0
M  V30 16933 O 1644.65 2.21418 0.564477 0
M  V30 16934 C 1644.86 1.8135 -2.98183 0
M  V30 16935 C 1646.21 2.34965 -3.53662 0
M  V30 16936 O 1647.23 1.91442 -3.00381 0
M  V30 16937 O 1646.09 3.14601 -4.46865 0
M  V30 16938 H 1643.19 0.504703 -0.655136 0
M  V30 16939 H 1645.73 0.34116 -1.66235 0
M  V30 16940 H 1644.51 1.10924 -3.75249 0
M  V30 16941 H 1644.13 2.63787 -2.97494 0
M  V30 16942 N 1645.13 1.45684 0.601159 0
M  V30 16943 C 1646.37 1.50036 1.35998 0
M  V30 16944 C 1646.7 0.144645 1.93961 0
M  V30 16945 O 1645.96 -0.857502 1.75913 0
M  V30 16946 C 1646.25 2.53235 2.52204 0
M  V30 16947 C 1645.92 3.97767 2.12348 0
M  V30 16948 C 1644.58 4.37121 2.01193 0
M  V30 16949 C 1646.93 4.88636 1.8134 0
M  V30 16950 C 1644.26 5.65231 1.5726 0
M  V30 16951 C 1646.61 6.17164 1.38892 0
M  V30 16952 C 1645.28 6.55442 1.26299 0
M  V30 16953 H 1644.55 0.54902 0.497652 0
M  V30 16954 H 1647.2 1.79065 0.678833 0
M  V30 16955 H 1645.5 2.17799 3.25685 0
M  V30 16956 H 1647.2 2.53837 3.10431 0
M  V30 16957 H 1643.79 3.6665 2.21959 0
M  V30 16958 H 1647.97 4.58964 1.88853 0
M  V30 16959 H 1643.23 5.93678 1.46139 0
M  V30 16960 H 1647.4 6.87015 1.13946 0
M  V30 16961 H 1645.03 7.54609 0.920316 0
M  V30 16962 N 1646.6 -0.84422 1.33082 0
M  V30 16963 C 1647.83 -1.63654 1.27405 0
M  V30 16964 C 1648.25 -1.87476 -0.153146 0
M  V30 16965 O 1647.61 -1.43502 -1.10801 0
M  V30 16966 C 1647.66 -2.96698 2.04945 0
M  V30 16967 O 1646.76 -3.87751 1.40439 0
M  V30 16968 H 1646.1 -0.498545 0.438576 0
M  V30 16969 H 1648.63 -1.0507 1.7556 0
M  V30 16970 H 1648.64 -3.46438 2.1551 0
M  V30 16971 H 1647.32 -2.78682 3.08722 0
M  V30 16972 H 1645.9 -3.46231 1.38487 0
M  V30 16973 N 1648.08 -1.16463 -1.0618 0
M  V30 16974 C 1649.03 -0.87224 -2.13683 0
M  V30 16975 C 1650 0.179784 -1.65124 0
M  V30 16976 O 1651.18 0.0447406 -1.90748 0
M  V30 16977 C 1648.32 -0.380728 -3.42993 0
M  V30 16978 C 1647.44 -1.49571 -4.05281 0
M  V30 16979 C 1646.57 -0.959099 -5.2247 0
M  V30 16980 C 1645.61 -2.05021 -5.76743 0
M  V30 16981 N 1644.75 -1.5291 -6.85247 0
M  V30 16982 H 1649.59 -1.79288 -2.38033 0
M  V30 16983 H 1647.12 -0.894379 -1.16787 0
M  V30 16984 H 1649.08 -0.0773816 -4.17128 0
M  V30 16985 H 1647.71 0.502966 -3.18857 0
M  V30 16986 H 1646.76 -1.915 -3.28682 0
M  V30 16987 H 1648.08 -2.31904 -4.41613 0
M  V30 16988 H 1647.23 -0.609003 -6.03636 0
M  V30 16989 H 1645.97 -0.105086 -4.87587 0
M  V30 16990 H 1644.97 -2.40899 -4.94214 0
M  V30 16991 H 1646.2 -2.90821 -6.13678 0
M  V30 16992 H 1644.15 -0.697639 -6.5228 0
M  V30 16993 H 1644.06 -2.28859 -7.20527 0
M  V30 16994 H 1645.33 -1.20762 -7.70089 0
M  V30 16995 N 1649.56 1.24734 -0.963288 0
M  V30 16996 C 1650.49 2.27892 -0.508667 0
M  V30 16997 C 1651.47 1.64055 0.449438 0
M  V30 16998 O 1652.66 1.91083 0.346519 0
M  V30 16999 C 1649.79 3.46688 0.206157 0
M  V30 17000 C 1648.74 4.22762 -0.667534 0
M  V30 17001 C 1648.07 5.34402 0.178529 0
M  V30 17002 C 1649.37 4.84535 -1.94995 0
M  V30 17003 H 1651.06 2.66171 -1.37088 0
M  V30 17004 H 1648.61 1.27952 -0.660622 0
M  V30 17005 H 1650.56 4.17985 0.535391 0
M  V30 17006 H 1649.28 3.07422 1.10269 0
M  V30 17007 H 1647.94 3.53259 -0.979976 0
M  V30 17008 H 1647.59 4.91377 1.07508 0
M  V30 17009 H 1647.29 5.86218 -0.402808 0
M  V30 17010 H 1648.81 6.08529 0.502533 0
M  V30 17011 H 1650.23 5.4793 -1.68658 0
M  V30 17012 H 1648.62 5.46564 -2.47765 0
M  V30 17013 H 1649.69 4.06236 -2.64765 0
M  V30 17014 N 1651.04 0.732878 1.39523 0
M  V30 17015 C 1651.97 0.106583 2.33257 0
M  V30 17016 C 1652.95 -0.726582 1.53801 0
M  V30 17017 O 1654.13 -0.671994 1.82203 0
M  V30 17018 C 1651.26 -0.803051 3.37888 0
M  V30 17019 C 1650.22 -0.0742048 4.27936 0
M  V30 17020 C 1649.54 -1.10071 5.23248 0
M  V30 17021 C 1650.84 1.08195 5.10971 0
M  V30 17022 H 1652.54 0.889539 2.8588 0
M  V30 17023 H 1650.08 0.429209 1.37455 0
M  V30 17024 H 1652.04 -1.25071 4.02412 0
M  V30 17025 H 1650.76 -1.6181 2.83699 0
M  V30 17026 H 1649.42 0.35381 3.64889 0
M  V30 17027 H 1649.07 -1.90927 4.65356 0
M  V30 17028 H 1648.77 -0.617825 5.84343 0
M  V30 17029 H 1650.29 -1.54812 5.90649 0
M  V30 17030 H 1651.71 0.712835 5.68851 0
M  V30 17031 H 1650.1 1.49433 5.81197 0
M  V30 17032 H 1651.17 1.90463 4.45928 0
M  V30 17033 N 1652.52 -1.50101 0.480349 0
M  V30 17034 C 1653.74 -2.07278 -0.0710872 0
M  V30 17035 C 1654.17 -1.34082 -1.31923 0
M  V30 17036 O 1653.52 -0.391251 -1.77028 0
M  V30 17037 C 1653.57 -3.59099 -0.328706 0
M  V30 17038 O 1652.68 -3.8764 -1.40745 0
M  V30 17039 H 1652.02 -0.66378 0.0170748 0
M  V30 17040 H 1654.55 -1.93178 0.674049 0
M  V30 17041 H 1654.56 -4.04049 -0.566435 0
M  V30 17042 H 1653.23 -4.11789 0.583316 0
M  V30 17043 H 1651.81 -3.54519 -1.15631 0
M  V30 17044 N 1653.99 -0.213323 -1.5615 0
M  V30 17045 C 1655.22 0.428746 -2.0292 0
M  V30 17046 C 1655.64 1.53137 -1.09227 0
M  V30 17047 O 1655 1.81128 -0.0789684 0
M  V30 17048 C 1655.05 0.945231 -3.47991 0
M  V30 17049 O 1654.15 2.05709 -3.57432 0
M  V30 17050 H 1653.49 0.0980619 -0.656719 0
M  V30 17051 H 1656.02 -0.329548 -2.01929 0
M  V30 17052 H 1656.03 1.25717 -3.88149 0
M  V30 17053 H 1654.71 0.138161 -4.1567 0
M  V30 17054 H 1653.29 1.75242 -3.29158 0
M  V30 17055 N 1655.47 1.57485 0.0601405 0
M  V30 17056 C 1656.72 1.88094 0.758192 0
M  V30 17057 C 1657.05 0.807138 1.76632 0
M  V30 17058 O 1656.33 -0.181347 1.93653 0
M  V30 17059 C 1656.61 3.29363 1.45574 0
M  V30 17060 C 1656.46 4.47408 0.463233 0
M  V30 17061 C 1657.78 3.69048 2.39773 0
M  V30 17062 H 1654.9 0.684106 0.274169 0
M  V30 17063 H 1657.54 1.89988 0.0212215 0
M  V30 17064 H 1655.69 3.27879 2.08393 0
M  V30 17065 H 1657.36 4.6102 -0.160641 0
M  V30 17066 H 1655.61 4.3324 -0.220408 0
M  V30 17067 H 1656.28 5.43065 0.989164 0
M  V30 17068 H 1658.75 3.71701 1.87024 0
M  V30 17069 H 1657.63 4.68761 2.85577 0
M  V30 17070 H 1657.89 2.9961 3.25094 0
M  V30 17071 N 1656.95 -0.331789 1.54068 0
M  V30 17072 C 1657.9 -1.40798 1.82879 0
M  V30 17073 C 1658.87 -1.51753 0.675292 0
M  V30 17074 O 1660.05 -1.67105 0.920905 0
M  V30 17075 C 1657.19 -2.7728 2.0545 0
M  V30 17076 C 1656.31 -2.75022 3.33147 0
M  V30 17077 C 1655.44 -4.03297 3.45723 0
M  V30 17078 C 1654.48 -3.95314 4.67326 0
M  V30 17079 N 1653.62 -5.15303 4.76872 0
M  V30 17080 H 1658.46 -1.15529 2.74695 0
M  V30 17081 H 1655.99 -0.559411 1.36048 0
M  V30 17082 H 1657.95 -3.56611 2.16528 0
M  V30 17083 H 1656.58 -3.00875 1.16935 0
M  V30 17084 H 1655.63 -1.87729 3.30851 0
M  V30 17085 H 1656.95 -2.65003 4.22581 0
M  V30 17086 H 1656.1 -4.91057 3.56297 0
M  V30 17087 H 1654.84 -4.16112 2.54367 0
M  V30 17088 H 1653.84 -3.05939 4.56817 0
M  V30 17089 H 1655.07 -3.84072 5.60058 0
M  V30 17090 H 1653.01 -5.28639 3.88429 0
M  V30 17091 H 1652.93 -5.07588 5.60259 0
M  V30 17092 H 1654.2 -6.04801 4.91769 0
M  V30 17093 N 1658.43 -1.46001 -0.593424 0
M  V30 17094 C 1659.34 -1.58316 -1.73128 0
M  V30 17095 C 1660.35 -0.467029 -1.67615 0
M  V30 17096 O 1661.53 -0.729682 -1.87717 0
M  V30 17097 C 1658.6 -1.56007 -3.09617 0
M  V30 17098 C 1657.66 -2.78769 -3.26475 0
M  V30 17099 C 1656.89 -2.76561 -4.56453 0
M  V30 17100 O 1657.11 -1.84694 -5.39671 0
M  V30 17101 O 1656.05 -3.67959 -4.76329 0
M  V30 17102 H 1659.87 -2.54522 -1.65686 0
M  V30 17103 H 1657.46 -1.28672 -0.759204 0
M  V30 17104 H 1659.34 -1.57377 -3.9091 0
M  V30 17105 H 1658.01 -0.629571 -3.17519 0
M  V30 17106 H 1656.92 -2.82956 -2.44717 0
M  V30 17107 H 1658.25 -3.70992 -3.23459 0
M  V30 17108 N 1659.91 0.83715 -1.33527 0
M  V30 17109 C 1661.16 1.58747 -1.24428 0
M  V30 17110 C 1661.47 1.94696 0.187885 0
M  V30 17111 O 1662.67 2.68524 0.400903 0
M  V30 17112 C 1661.13 2.86337 -2.18035 0
M  V30 17113 C 1660.74 2.57745 -3.66431 0
M  V30 17114 C 1662.48 3.6436 -2.17812 0
M  V30 17115 C 1660.39 3.81443 -4.51946 0
M  V30 17116 H 1659.32 0.595749 -0.462168 0
M  V30 17117 H 1661.97 0.922901 -1.58603 0
M  V30 17118 H 1660.35 3.54344 -1.76795 0
M  V30 17119 H 1661.53 1.97939 -4.16121 0
M  V30 17120 H 1659.84 1.93023 -3.68959 0
M  V30 17121 H 1662.44 4.56181 -2.78932 0
M  V30 17122 H 1662.78 3.99414 -1.17364 0
M  V30 17123 H 1663.31 3.03279 -2.57423 0
M  V30 17124 H 1660.05 3.51519 -5.53276 0
M  V30 17125 H 1659.57 4.40582 -4.06998 0
M  V30 17126 H 1661.25 4.49004 -4.65837 0
M  V30 17127 N 1661.38 1.17024 1.05561 0
M  V30 17128 C 1662.61 0.981293 1.82717 0
M  V30 17129 C 1663.03 -0.465636 1.82246 0
M  V30 17130 O 1662.39 -1.33315 1.22869 0
M  V30 17131 C 1662.44 1.52239 3.26888 0
M  V30 17132 O 1661.54 0.73366 4.05822 0
M  V30 17133 H 1660.89 0.348677 0.565084 0
M  V30 17134 H 1663.42 1.55435 1.33046 0
M  V30 17135 H 1663.43 1.54306 3.77695 0
M  V30 17136 H 1662.1 2.57567 3.26545 0
M  V30 17137 H 1660.68 0.784101 3.64563 0
M  V30 17138 N 1662.86 -1.24221 0.969889 0
M  V30 17139 C 1664.14 -1.87715 0.549772 0
M  V30 17140 C 1664.52 -1.87333 -0.973114 0
M  V30 17141 O 1663.87 -1.3475 -1.84539 0
M  V30 17142 C 1664.08 -3.29724 1.14381 0
M  V30 17143 C 1665.43 -4.06393 1.23005 0
M  V30 17144 O 1666.45 -3.38904 1.09648 0
M  V30 17145 O 1665.31 -5.27149 1.4414 0
M  V30 17146 H 1662.4 -0.806356 0.183629 0
M  V30 17147 H 1664.95 -1.32177 1.0643 0
M  V30 17148 H 1663.72 -3.24513 2.18649 0
M  V30 17149 H 1663.34 -3.92839 0.613456 0
M  V30 17150 N 1664.34 -0.740267 -1.39132 0
M  V30 17151 C 1665.59 -0.287379 -1.99642 0
M  V30 17152 C 1665.9 1.13337 -1.59418 0
M  V30 17153 O 1667.11 1.68605 -2.12802 0
M  V30 17154 C 1665.56 -0.462859 -3.56911 0
M  V30 17155 C 1665.17 -1.89184 -4.06095 0
M  V30 17156 C 1666.92 -0.0720122 -4.24439 0
M  V30 17157 C 1664.82 -2.01659 -5.55957 0
M  V30 17158 H 1663.75 -0.103696 -0.746835 0
M  V30 17159 H 1666.4 -0.914902 -1.59065 0
M  V30 17160 H 1664.79 0.233644 -3.9531 0
M  V30 17161 H 1665.96 -2.62072 -3.79018 0
M  V30 17162 H 1664.28 -2.23638 -3.51248 0
M  V30 17163 H 1666.87 -0.144163 -5.34506 0
M  V30 17164 H 1667.22 0.973516 -4.04757 0
M  V30 17165 H 1667.75 -0.719868 -3.91232 0
M  V30 17166 H 1664.49 -3.04419 -5.80525 0
M  V30 17167 H 1664.01 -1.33214 -5.8482 0
M  V30 17168 H 1665.69 -1.80023 -6.2145 0
M  V30 17169 N 1665.82 1.49844 -0.488302 0
M  V30 17170 C 1667.06 2.02709 0.060788 0
M  V30 17171 C 1667.4 1.36828 1.37811 0
M  V30 17172 O 1666.67 0.499679 1.87972 0
M  V30 17173 C 1666.96 3.59386 0.226637 0
M  V30 17174 C 1666.81 4.35814 -1.11292 0
M  V30 17175 C 1668.13 4.29204 0.973218 0
M  V30 17176 H 1665.25 0.736712 0.0206177 0
M  V30 17177 H 1667.89 1.78995 -0.637245 0
M  V30 17178 H 1666.04 3.79722 0.821182 0
M  V30 17179 H 1667.71 4.27007 -1.74536 0
M  V30 17180 H 1665.95 3.98874 -1.70535 0
M  V30 17181 H 1666.62 5.43758 -0.950319 0
M  V30 17182 H 1669.1 4.13447 0.469106 0
M  V30 17183 H 1667.98 5.38605 1.05809 0
M  V30 17184 H 1668.24 3.93564 2.01394 0
M  V30 17185 N 1667.3 0.221601 1.56034 0
M  V30 17186 C 1668.23 -0.720818 2.1757 0
M  V30 17187 C 1669.24 -1.15751 1.14479 0
M  V30 17188 O 1670.43 -1.08865 1.41459 0
M  V30 17189 C 1667.53 -1.98817 2.74454 0
M  V30 17190 C 1666.7 -1.70703 4.02715 0
M  V30 17191 C 1665.76 -2.82146 4.44162 0
M  V30 17192 O 1664.79 -2.50614 5.11059 0
M  V30 17193 N 1665.99 -4.11101 4.09849 0
M  V30 17194 H 1668.76 -0.194436 2.99069 0
M  V30 17195 H 1666.32 0.0405962 1.61849 0
M  V30 17196 H 1668.31 -2.72562 2.99152 0
M  V30 17197 H 1666.88 -2.42503 1.97258 0
M  V30 17198 H 1666.1 -0.806022 3.85872 0
M  V30 17199 H 1667.39 -1.49351 4.86387 0
M  V30 17200 H 1666.78 -4.39562 3.56092 0
M  V30 17201 H 1665.34 -4.81389 4.3944 0
M  V30 17202 N 1668.77 -1.57515 -0.0517878 0
M  V30 17203 C 1670.19 -1.54323 -0.407009 0
M  V30 17204 C 1670.39 -0.944629 -1.77986 0
M  V30 17205 O 1669.45 -0.555785 -2.46307 0
M  V30 17206 C 1670.76 -2.98887 -0.329703 0
M  V30 17207 C 1672.31 -3.10324 -0.408443 0
M  V30 17208 C 1672.78 -4.56576 -0.360833 0
M  V30 17209 N 1674.27 -4.61289 -0.420313 0
M  V30 17210 C 1675.01 -5.71961 -0.406007 0
M  V30 17211 N 1674.5 -6.91939 -0.34533 0
M  V30 17212 N 1676.3 -5.60263 -0.454054 0
M  V30 17213 H 1668.45 -1.94785 0.846907 0
M  V30 17214 H 1670.71 -0.892417 0.319838 0
M  V30 17215 H 1670.42 -3.4632 0.612802 0
M  V30 17216 H 1670.29 -3.59806 -1.13222 0
M  V30 17217 H 1672.68 -2.62852 -1.34138 0
M  V30 17218 H 1672.76 -2.52278 0.423018 0
M  V30 17219 H 1672.4 -5.0471 0.568335 0
M  V30 17220 H 1672.33 -5.12508 -1.2101 0
M  V30 17221 H 1674.82 -3.74958 -0.470644 0
M  V30 17222 H 1675.14 -7.72057 -0.338889 0
M  V30 17223 H 1673.48 -6.94301 -0.311715 0
M  V30 17224 H 1676.67 -4.6543 -0.499289 0
M  V30 17225 H 1676.85 -6.46508 -0.439435 0
M  V30 17226 O 1670.29 0.195051 -1.60318 0
M  V30 17227 H 1670.98 0.833919 -1.7483 0
M  V30 END ATOM
M  V30 BEGIN BOND
M  V30 END BOND
M  V30 END CTAB
M  END
$$$$
