drugbank_drug|DB00111 Humanized Anti-CD25 Heavy Chain 1
 OpenBabel12092119123D

  0  0  0     0  0            999 V3000
M  V30 BEGIN CTAB
M  V30 COUNTS 6754 6847 0 0 0
M  V30 BEGIN ATOM
M  V30 1 H -0.908 1.98254 -0.117106 0
M  V30 2 N 0 1.576 0 0
M  V30 3 C 0.932 2.05273 1.01958 0
M  V30 4 C 1.945 0.970662 1.30698 0
M  V30 5 O 3.134 1.24746 1.27674 0
M  V30 6 C 0.234 2.43771 2.35433 0
M  V30 7 C -0.593 3.74711 2.25633 0
M  V30 8 C -1.534 4.00077 3.41796 0
M  V30 9 O -2.508 4.70743 3.19984 0
M  V30 10 N -1.306 3.47973 4.64645 0
M  V30 11 H 1.459 2.93363 0.613025 0
M  V30 12 H -0.98 1.60812 0.187383 0
M  V30 13 H 1.012 2.57855 3.11918 0
M  V30 14 H -0.418 1.612 2.67831 0
M  V30 15 H -1.198 3.70705 1.34059 0
M  V30 16 H 0.09 4.60554 2.16258 0
M  V30 17 H -0.512 2.90748 4.85265 0
M  V30 18 H -1.955 3.67386 5.38396 0
M  V30 19 N 1.4781 -0.272755 1.55222 0
M  V30 20 C 2.7241 -1.00581 1.761 0
M  V30 21 C 3.0571 -1.85932 0.560625 0
M  V30 22 O 2.3321 -1.89416 -0.441801 0
M  V30 23 C 2.6151 -1.88816 3.06628 0
M  V30 24 C 2.4681 -1.06457 4.37021 0
M  V30 25 C 3.7871 -2.8752 3.33197 0
M  V30 26 H 0.9061 -0.364244 0.640699 0
M  V30 27 H 3.5481 -0.278189 1.87952 0
M  V30 28 H 1.6981 -2.50856 2.96654 0
M  V30 29 H 3.3701 -0.464863 4.58952 0
M  V30 30 H 1.6131 -0.368043 4.32236 0
M  V30 31 H 2.2841 -1.71514 5.24678 0
M  V30 32 H 4.7601 -2.35615 3.42965 0
M  V30 33 H 3.6361 -3.46399 4.25792 0
M  V30 34 H 3.8971 -3.62657 2.52849 0
M  V30 35 N 2.9562 -1.48159 -0.537278 0
M  V30 36 C 3.8882 -1.58218 -1.65831 0
M  V30 37 C 4.9012 -0.466948 -1.5596 0
M  V30 38 O 6.0902 -0.73747 -1.62553 0
M  V30 39 C 3.1902 -1.48906 -3.04434 0
M  V30 40 C 2.3632 -2.75343 -3.3986 0
M  V30 41 C 1.4222 -2.59588 -4.57712 0
M  V30 42 O 0.4482 -3.33457 -4.61297 0
M  V30 43 N 1.6502 -1.68724 -5.55439 0
M  V30 44 H 4.4152 -2.54891 -1.57641 0
M  V30 45 H 1.9762 -1.4479 -0.724386 0
M  V30 46 H 3.9682 -1.36072 -3.81139 0
M  V30 47 H 2.5382 -0.602368 -3.06741 0
M  V30 48 H 1.7582 -3.02795 -2.52406 0
M  V30 49 H 3.0462 -3.5924 -3.60311 0
M  V30 50 H 2.4442 -1.07898 -5.55315 0
M  V30 51 H 1.0012 -1.61832 -6.3139 0
M  V30 52 N 4.4343 0.785586 -1.36625 0
M  V30 53 C 5.3643 1.91259 -1.33949 0
M  V30 54 C 6.3453 1.68795 -0.210325 0
M  V30 55 O 7.5303 1.89854 -0.408561 0
M  V30 56 C 4.6603 3.28339 -1.13186 0
M  V30 57 C 3.6143 3.65335 -2.22967 0
M  V30 58 C 2.9403 5.00806 -1.87342 0
M  V30 59 C 4.2403 3.7352 -3.65075 0
M  V30 60 H 5.9343 1.93755 -2.28253 0
M  V30 61 H 3.4803 0.930788 -1.09874 0
M  V30 62 H 5.4333 4.06804 -1.09948 0
M  V30 63 H 4.1573 3.2624 -0.153332 0
M  V30 64 H 2.8163 2.89169 -2.25337 0
M  V30 65 H 2.4643 4.95233 -0.880545 0
M  V30 66 H 2.1643 5.26529 -2.60846 0
M  V30 67 H 3.6883 5.81687 -1.85667 0
M  V30 68 H 5.1023 4.42168 -3.64911 0
M  V30 69 H 3.4993 4.10731 -4.37516 0
M  V30 70 H 4.5693 2.74527 -3.99703 0
M  V30 71 N 5.9124 1.20967 1.01018 0
M  V30 72 C 7.1584 1.02526 1.74975 0
M  V30 73 C 7.4914 -0.4408 1.89131 0
M  V30 74 O 6.7664 -1.32718 1.42184 0
M  V30 75 C 7.0494 1.71699 3.1653 0
M  V30 76 C 6.9024 3.25791 3.10129 0
M  V30 77 C 8.2214 1.45531 4.15342 0
M  V30 78 H 5.3404 0.373863 0.635134 0
M  V30 79 H 7.9824 1.49071 1.17805 0
M  V30 80 H 6.1324 1.32128 3.65341 0
M  V30 81 H 7.8044 3.74697 2.69072 0
M  V30 82 H 6.0474 3.56363 2.47362 0
M  V30 83 H 6.7184 3.69353 4.10222 0
M  V30 84 H 9.1944 1.79872 3.75213 0
M  V30 85 H 8.0704 1.96453 5.1254 0
M  V30 86 H 8.3314 0.384237 4.40427 0
M  V30 87 N 7.3905 -1.2043 1.01659 0
M  V30 88 C 8.3225 -2.22626 0.544988 0
M  V30 89 C 9.3355 -1.58479 -0.372609 0
M  V30 90 O 10.5245 -1.77679 -0.170958 0
M  V30 91 C 7.6245 -3.38141 -0.22663 0
M  V30 92 C 6.7975 -4.31877 0.692876 0
M  V30 93 C 5.8565 -5.26191 -0.0311616 0
M  V30 94 O 4.8825 -5.6612 0.591343 0
M  V30 95 N 6.0845 -5.65618 -1.30601 0
M  V30 96 H 8.8495 -2.63716 1.42388 0
M  V30 97 H 6.4105 -1.34971 0.894116 0
M  V30 98 H 8.4025 -3.98239 -0.72024 0
M  V30 99 H 6.9725 -2.95943 -1.00681 0
M  V30 100 H 6.1925 -3.69746 1.36679 0
M  V30 101 H 7.4805 -4.91426 1.31824 0
M  V30 102 H 6.8785 -5.3519 -1.83269 0
M  V30 103 H 5.4355 -6.28025 -1.74435 0
M  V30 104 N 8.8686 -0.792821 -1.36206 0
M  V30 105 C 10.0936 -0.377701 -2.03932 0
M  V30 106 C 10.5186 0.998947 -1.59382 0
M  V30 107 O 9.8766 1.64421 -0.763903 0
M  V30 108 C 9.9246 -0.453635 -3.57735 0
M  V30 109 O 9.0286 0.538151 -4.08874 0
M  V30 110 H 8.3696 -0.159855 -0.644471 0
M  V30 111 H 10.8996 -1.07488 -1.7409 0
M  V30 112 H 10.9096 -0.318464 -4.06755 0
M  V30 113 H 9.5846 -1.45784 -3.89512 0
M  V30 114 H 8.1616 0.364359 -3.71116 0
M  V30 115 N 10.3467 1.47872 -0.545128 0
M  V30 116 C 11.5947 2.02093 -0.016553 0
M  V30 117 C 11.9157 1.42305 1.3332 0
M  V30 118 O 11.1857 0.593853 1.86682 0
M  V30 119 H 9.7657 0.746993 -0.00313038 0
M  V30 120 H 12.4277 1.81414 -0.712397 0
M  V30 121 H 11.5237 3.11996 0.0805422 0
M  V30 122 N 11.8248 0.280983 1.55075 0
M  V30 123 C 12.7878 -0.590896 2.21452 0
M  V30 124 C 13.7878 -1.07682 1.19421 0
M  V30 125 O 14.9778 -0.97605 1.44288 0
M  V30 126 C 12.1098 -1.81587 2.88511 0
M  V30 127 H 13.3028 -0.0112554 2.99898 0
M  V30 128 H 10.8558 0.0316438 1.56268 0
M  V30 129 H 11.5908 -2.43587 2.14093 0
M  V30 130 H 11.3758 -1.4753 3.63287 0
M  V30 131 H 12.8658 -2.43575 3.39206 0
M  V30 132 N 13.3029 -1.57598 0.00835791 0
M  V30 133 C 14.2129 -2.12385 -0.996487 0
M  V30 134 C 15.2289 -1.07108 -1.37127 0
M  V30 135 O 16.4049 -1.39055 -1.4569 0
M  V30 136 C 13.4699 -2.62314 -2.26699 0
M  V30 137 C 12.5309 -3.82225 -1.95456 0
M  V30 138 C 11.7639 -4.29763 -3.16449 0
M  V30 139 O 11.9869 -3.76584 -4.28416 0
M  V30 140 O 10.9209 -5.21832 -2.99958 0
M  V30 141 H 14.7469 -2.98479 -0.560725 0
M  V30 142 H 12.3319 -1.47903 -0.210987 0
M  V30 143 H 14.2139 -2.94589 -3.01322 0
M  V30 144 H 12.8889 -1.79313 -2.69497 0
M  V30 145 H 11.7959 -3.54909 -1.18282 0
M  V30 146 H 13.1289 -4.66324 -1.57489 0
M  V30 147 N 14.781 0.264519 -1.55364 0
M  V30 148 C 16.027 0.99646 -1.76631 0
M  V30 149 C 16.36 1.85632 -0.570478 0
M  V30 150 O 15.635 1.89647 0.43175 0
M  V30 151 C 15.918 1.87187 -3.07625 0
M  V30 152 C 15.771 1.04138 -4.37579 0
M  V30 153 C 17.09 2.85749 -3.34717 0
M  V30 154 H 14.209 0.360841 -0.642622 0
M  V30 155 H 16.851 0.268218 -1.88097 0
M  V30 156 H 15.001 2.49279 -2.9798 0
M  V30 157 H 16.673 0.440517 -4.59192 0
M  V30 158 H 14.916 0.345115 -4.32425 0
M  V30 159 H 15.587 1.68729 -5.2558 0
M  V30 160 H 18.063 2.33793 -3.4421 0
M  V30 161 H 16.939 3.44136 -4.27623 0
M  V30 162 H 17.2 3.61311 -2.54768 0
M  V30 163 N 16.2591 1.48442 0.529413 0
M  V30 164 C 17.2061 1.63007 1.63394 0
M  V30 165 C 18.1761 0.47212 1.59249 0
M  V30 166 O 19.3611 0.695673 1.77666 0
M  V30 167 C 16.5011 1.6763 3.01653 0
M  V30 168 C 15.6141 2.94535 3.16027 0
M  V30 169 C 14.7491 2.90316 4.44849 0
M  V30 170 C 13.7881 4.11923 4.52754 0
M  V30 171 N 12.9251 4.05777 5.72965 0
M  V30 172 H 17.7651 2.5733 1.50285 0
M  V30 173 H 15.3021 1.27613 0.731656 0
M  V30 174 H 17.2601 1.68292 3.81751 0
M  V30 175 H 15.8901 0.76797 3.13532 0
M  V30 176 H 14.9421 3.03615 2.29177 0
M  V30 177 H 16.2541 3.84512 3.17729 0
M  V30 178 H 15.4081 2.89382 5.33238 0
M  V30 179 H 14.1471 1.98068 4.45668 0
M  V30 180 H 13.1521 4.13131 3.62771 0
M  V30 181 H 14.3771 5.0533 4.53672 0
M  V30 182 H 12.3231 3.16351 5.74681 0
M  V30 183 H 12.2401 4.8946 5.76164 0
M  V30 184 H 13.5081 4.08904 6.6364 0
M  V30 185 N 17.7372 -0.778329 1.37039 0
M  V30 186 C 18.6842 -1.89139 1.32269 0
M  V30 187 C 19.6542 -1.65017 0.189387 0
M  V30 188 O 20.8392 -1.87024 0.377693 0
M  V30 189 C 17.9792 -3.26112 1.12894 0
M  V30 190 C 17.0922 -3.62233 2.35396 0
M  V30 191 C 16.2272 -4.8838 2.08946 0
M  V30 192 C 15.2662 -5.17212 3.2735 0
M  V30 193 N 14.4032 -6.34546 3.00492 0
M  V30 194 H 19.2432 -1.92552 2.27437 0
M  V30 195 H 16.7802 -0.941473 1.13025 0
M  V30 196 H 18.7382 -4.05116 0.996835 0
M  V30 197 H 17.3682 -3.22091 0.213758 0
M  V30 198 H 16.4202 -2.78265 2.5937 0
M  V30 199 H 17.7322 -3.79481 3.23721 0
M  V30 200 H 16.8862 -5.75274 1.92729 0
M  V30 201 H 15.6252 -4.73222 1.17949 0
M  V30 202 H 14.6302 -4.28796 3.44113 0
M  V30 203 H 15.8552 -5.34283 4.19188 0
M  V30 204 H 13.8012 -6.20759 2.12118 0
M  V30 205 H 13.7182 -6.52179 3.82358 0
M  V30 206 H 14.9862 -7.24394 2.87879 0
M  V30 207 N 19.2153 -1.21501 -1.00376 0
M  V30 208 C 20.6263 -1.03146 -1.55621 0
M  V30 209 C 20.9773 0.408375 -1.91903 0
M  V30 210 O 20.1023 1.29177 -1.73616 0
M  V30 211 C 20.6973 -1.86612 -2.82775 0
M  V30 212 C 19.2563 -1.72586 -3.34501 0
M  V30 213 C 18.4033 -1.83747 -2.07683 0
M  V30 214 H 21.3543 -1.35505 -0.826081 0
M  V30 215 H 21.3753 -1.3771 -3.54706 0
M  V30 216 H 20.8873 -2.91399 -2.56336 0
M  V30 217 H 18.9883 -0.704877 -3.65872 0
M  V30 218 H 19.1013 -2.54623 -4.05837 0
M  V30 219 H 17.4653 -1.27069 -2.20739 0
M  V30 220 H 18.2483 -2.90044 -1.83655 0
M  V30 221 N 20.6934 1.19889 -1.02296 0
M  V30 222 C 21.9414 1.89046 -0.714558 0
M  V30 223 C 22.2624 1.79636 0.758681 0
M  V30 224 O 21.5324 1.20292 1.54618 0
M  V30 225 H 20.1124 0.699802 -0.261317 0
M  V30 226 H 22.7744 1.45574 -1.29592 0
M  V30 227 H 21.8704 2.95524 -1.0036 0
M  V30 228 N 22.1715 0.800033 1.35784 0
M  V30 229 C 23.3965 0.388511 2.03729 0
M  V30 230 C 23.8215 -0.990481 1.5991 0
M  V30 231 O 23.1795 -1.64013 0.772612 0
M  V30 232 C 23.2275 0.4726 3.5749 0
M  V30 233 O 22.3315 -0.51646 4.09153 0
M  V30 234 H 21.6725 0.163271 0.643614 0
M  V30 235 H 24.2025 1.0841 1.73518 0
M  V30 236 H 24.2125 0.34003 4.06581 0
M  V30 237 H 22.8875 1.47848 3.88734 0
M  V30 238 H 21.4645 -0.344673 3.71304 0
M  V30 239 N 23.6496 -1.47581 0.552962 0
M  V30 240 C 24.8746 -2.07378 0.0300593 0
M  V30 241 C 25.2996 -1.40355 -1.25229 0
M  V30 242 O 24.6576 -0.477099 -1.7491 0
M  V30 243 C 24.7056 -3.60274 -0.153231 0
M  V30 244 O 23.8096 -3.94041 -1.21678 0
M  V30 245 H 23.1506 -0.662158 0.0494182 0
M  V30 246 H 25.6806 -1.89662 0.767434 0
M  V30 247 H 25.6906 -4.0633 -0.368761 0
M  V30 248 H 24.3656 -4.08455 0.783397 0
M  V30 249 H 22.9426 -3.59735 -0.982079 0
M  V30 250 N 25.1277 -0.289203 -1.54924 0
M  V30 251 C 26.3737 0.323998 -2.00195 0
M  V30 252 C 26.7067 1.54441 -1.17735 0
M  V30 253 O 25.9817 1.92875 -0.250878 0
M  V30 254 C 26.2647 0.692276 -3.53383 0
M  V30 255 C 26.1177 -0.536457 -4.46589 0
M  V30 256 C 27.4367 1.52335 -4.12895 0
M  V30 257 H 24.5557 0.116289 -0.727768 0
M  V30 258 H 27.1977 -0.398954 -1.85764 0
M  V30 259 H 25.3477 1.30822 -3.65811 0
M  V30 260 H 27.0197 -1.17499 -4.46085 0
M  V30 261 H 25.2627 -1.17192 -4.1767 0
M  V30 262 H 25.9337 -0.234806 -5.515 0
M  V30 263 H 28.4097 1.00302 -4.0383 0
M  V30 264 H 27.2857 1.74982 -5.20262 0
M  V30 265 H 27.5467 2.50886 -3.64018 0
M  V30 266 N 26.6058 1.57591 -0.0167156 0
M  V30 267 C 27.5528 2.09462 0.969251 0
M  V30 268 C 28.5228 0.99381 1.33089 0
M  V30 269 O 29.7078 1.26726 1.42636 0
M  V30 270 C 26.8478 2.61622 2.25051 0
M  V30 271 C 25.9608 3.85666 1.94642 0
M  V30 272 C 25.0958 4.26266 3.16972 0
M  V30 273 C 24.1348 5.43101 2.82326 0
M  V30 274 N 23.2718 5.78915 3.97243 0
M  V30 275 H 28.1118 2.93428 0.519997 0
M  V30 276 H 25.6488 1.45044 0.245087 0
M  V30 277 H 27.6068 2.89949 2.99976 0
M  V30 278 H 26.2368 1.80505 2.67615 0
M  V30 279 H 25.2888 3.64145 1.10013 0
M  V30 280 H 26.6008 4.70678 1.65117 0
M  V30 281 H 25.7548 4.55963 4.00228 0
M  V30 282 H 24.4938 3.39996 3.49648 0
M  V30 283 H 23.4988 5.1311 1.97479 0
M  V30 284 H 24.7238 6.3106 2.50879 0
M  V30 285 H 22.6698 4.95602 4.29785 0
M  V30 286 H 22.5868 6.58539 3.71299 0
M  V30 287 H 23.8548 6.13212 4.81239 0
M  V30 288 N 28.0839 -0.256276 1.55502 0
M  V30 289 C 29.3299 -0.987079 1.77157 0
M  V30 290 C 29.6629 -1.85327 0.580315 0
M  V30 291 O 28.9379 -1.89874 -0.421686 0
M  V30 292 C 29.2209 -1.85553 3.08613 0
M  V30 293 C 29.0739 -1.01816 4.38125 0
M  V30 294 C 30.3929 -2.8397 3.36228 0
M  V30 295 H 27.5119 -0.357428 0.644526 0
M  V30 296 H 30.1539 -0.258239 1.88237 0
M  V30 297 H 28.3039 -2.47695 2.99298 0
M  V30 298 H 29.9759 -0.416159 4.59419 0
M  V30 299 H 28.2189 -0.322178 4.32602 0
M  V30 300 H 28.8899 -1.65939 5.26468 0
M  V30 301 H 31.3659 -2.31964 3.45445 0
M  V30 302 H 30.2419 -3.41864 4.29442 0
M  V30 303 H 30.5029 -3.59955 2.56681 0
M  V30 304 N 29.562 -1.4872 -0.521534 0
M  V30 305 C 30.787 -1.61101 -1.30618 0
M  V30 306 C 31.212 -0.274611 -1.86085 0
M  V30 307 O 30.57 0.754937 -1.64834 0
M  V30 308 C 30.618 -2.66709 -2.4269 0
M  V30 309 O 29.722 -2.24456 -3.45967 0
M  V30 310 H 29.063 -0.539921 -0.386499 0
M  V30 311 H 31.593 -1.94767 -0.626645 0
M  V30 312 H 31.603 -2.88245 -2.88754 0
M  V30 313 H 30.278 -3.63727 -2.01682 0
M  V30 314 H 28.855 -2.13168 -3.05964 0
M  V30 315 N 31.0401 0.771051 -1.3745 0
M  V30 316 C 32.2801 1.54264 -1.34096 0
M  V30 317 C 32.6441 1.91858 0.0737639 0
M  V30 318 O 33.8451 2.67797 0.23203 0
M  V30 319 C 32.1161 2.77326 -2.25445 0
M  V30 320 S 33.6751 3.67383 -2.39948 0
M  V30 321 H 30.4931 0.528122 -0.476034 0
M  V30 322 H 33.0951 0.906633 -1.73206 0
M  V30 323 H 31.7991 2.47788 -3.27153 0
M  V30 324 H 31.3301 3.45886 -1.87421 0
M  V30 325 H 33.3451 4.69334 -1.61059 0
M  V30 326 N 32.5182 1.22032 0.997298 0
M  V30 327 C 33.4652 0.986467 2.08656 0
M  V30 328 C 34.4352 -0.0902671 1.65855 0
M  V30 329 O 35.6202 0.0584294 1.90711 0
M  V30 330 C 32.7602 0.565569 3.40434 0
M  V30 331 C 31.8732 1.71259 3.96604 0
M  V30 332 C 31.0082 1.24011 5.16522 0
M  V30 333 C 30.0472 2.35896 5.64818 0
M  V30 334 N 29.1842 1.89726 6.7598 0
M  V30 335 H 34.0242 1.91892 2.27994 0
M  V30 336 H 31.5612 0.956199 1.11782 0
M  V30 337 H 33.5192 0.302738 4.161 0
M  V30 338 H 32.1492 -0.329879 3.2111 0
M  V30 339 H 31.2012 2.08986 3.17851 0
M  V30 340 H 32.5132 2.55436 4.28432 0
M  V30 341 H 31.6672 0.934395 5.99461 0
M  V30 342 H 30.4062 0.368487 4.86306 0
M  V30 343 H 29.4112 2.67261 4.8047 0
M  V30 344 H 30.6362 3.23567 5.97061 0
M  V30 345 H 28.5822 1.0492 6.47555 0
M  V30 346 H 28.4992 2.67471 7.07103 0
M  V30 347 H 29.7672 1.62211 7.62435 0
M  V30 348 N 33.9963 -1.19345 1.0293 0
M  V30 349 C 34.9593 -2.20793 0.615069 0
M  V30 350 C 35.9593 -1.57553 -0.321533 0
M  V30 351 O 37.1493 -1.73862 -0.108483 0
M  V30 352 C 34.2813 -3.40754 -0.0999222 0
M  V30 353 H 35.4743 -2.58955 1.51269 0
M  V30 354 H 33.0273 -1.3303 0.820534 0
M  V30 355 H 33.7623 -3.0811 -1.01187 0
M  V30 356 H 33.5473 -3.87889 0.57309 0
M  V30 357 H 35.0373 -4.15898 -0.376645 0
M  V30 358 N 35.4744 -0.807222 -1.35358 0
M  V30 359 C 36.6994 -0.399309 -2.0352 0
M  V30 360 C 37.1244 0.981986 -1.60433 0
M  V30 361 O 36.4824 1.63601 -0.781299 0
M  V30 362 C 36.5304 -0.491552 -3.57234 0
M  V30 363 O 35.6344 0.494754 -4.09421 0
M  V30 364 H 34.9754 -0.166682 -0.642739 0
M  V30 365 H 37.5054 -1.09328 -1.72941 0
M  V30 366 H 37.5154 -0.361588 -4.06395 0
M  V30 367 H 36.1904 -1.49907 -3.87944 0
M  V30 368 H 34.7674 0.324977 -3.71481 0
M  V30 369 N 36.9525 1.47285 -0.560781 0
M  V30 370 C 38.2005 2.02064 -0.0379868 0
M  V30 371 C 38.5215 1.43711 1.31803 0
M  V30 372 O 37.7915 0.61362 1.86042 0
M  V30 373 H 36.3715 0.746918 -0.0110531 0
M  V30 374 H 39.0335 1.80648 -0.731598 0
M  V30 375 H 38.1295 3.12064 0.0474463 0
M  V30 376 N 38.4306 0.297415 1.54768 0
M  V30 377 C 39.6606 -0.315165 2.04182 0
M  V30 378 C 40.0686 -1.4834 1.17439 0
M  V30 379 O 39.4116 -1.82695 0.191891 0
M  V30 380 C 39.4736 -0.837583 3.49607 0
M  V30 381 C 39.1376 0.204912 4.5654 0
M  V30 382 C 40.1346 1.03214 5.09552 0
M  V30 383 C 37.8196 0.345578 5.0111 0
M  V30 384 C 39.8136 1.986 6.05671 0
M  V30 385 C 37.5006 1.30289 5.97049 0
M  V30 386 C 38.4986 2.12159 6.49213 0
M  V30 387 O 38.1866 3.06268 7.43273 0
M  V30 388 H 37.9186 -0.0729646 0.672051 0
M  V30 389 H 40.4726 0.433907 2.00765 0
M  V30 390 H 38.7026 -1.63712 3.50336 0
M  V30 391 H 40.3916 -1.36566 3.82236 0
M  V30 392 H 41.1576 0.934312 4.75916 0
M  V30 393 H 37.0366 -0.28171 4.60138 0
M  V30 394 H 40.5806 2.62542 6.46311 0
M  V30 395 H 36.4776 1.40145 6.30103 0
M  V30 396 H 37.2456 3.01205 7.61064 0
M  V30 397 N 39.9087 -1.5758 0.0250728 0
M  V30 398 C 41.1367 -1.9593 -0.664747 0
M  V30 399 C 41.5517 -0.901352 -1.65895 0
M  V30 400 O 40.9087 0.117255 -1.82123 0
M  V30 401 C 40.9597 -3.34342 -1.37468 0
M  V30 402 O 40.6807 -4.36079 -0.420324 0
M  V30 403 C 42.1817 -3.873 -2.1567 0
M  V30 404 H 39.4017 -0.645405 -0.183557 0
M  V30 405 H 41.9457 -2.04329 0.0836372 0
M  V30 406 H 40.1007 -3.27175 -2.0745 0
M  V30 407 H 40.5147 -5.16297 -0.923991 0
M  V30 408 H 41.9887 -4.86504 -2.60803 0
M  V30 409 H 42.4657 -3.21331 -2.99405 0
M  V30 410 H 43.0717 -3.97723 -1.50654 0
M  V30 411 N 41.3868 0.248026 -1.55636 0
M  V30 412 C 42.6338 0.976224 -1.77415 0
M  V30 413 C 42.9618 1.85361 -0.589193 0
M  V30 414 O 42.2168 1.90973 0.427529 0
M  V30 415 C 42.5158 1.86819 -3.04686 0
M  V30 416 C 42.1818 1.14625 -4.36087 0
M  V30 417 C 40.8438 0.946723 -4.71795 0
M  V30 418 C 43.1958 0.634463 -5.17324 0
M  V30 419 C 40.5238 0.223091 -5.86276 0
M  V30 420 C 42.8758 -0.0756959 -6.32555 0
M  V30 421 C 41.5398 -0.286711 -6.66884 0
M  V30 422 H 40.8098 0.357226 -0.649208 0
M  V30 423 H 43.4568 0.246415 -1.89908 0
M  V30 424 H 41.7618 2.66502 -2.872 0
M  V30 425 H 43.4588 2.43329 -3.18735 0
M  V30 426 H 40.0488 1.3117 -4.08035 0
M  V30 427 H 44.2328 0.77616 -4.90193 0
M  V30 428 H 39.4888 0.0491185 -6.1138 0
M  V30 429 H 43.6628 -0.479899 -6.94745 0
M  V30 430 H 41.2898 -0.849389 -7.5544 0
M  V30 431 N 42.8649 1.48995 0.513639 0
M  V30 432 C 44.0929 1.61531 1.29288 0
M  V30 433 C 44.5079 0.281801 1.86685 0
M  V30 434 O 43.8649 -0.731111 1.67215 0
M  V30 435 C 43.9159 2.67449 2.43215 0
M  V30 436 O 43.6369 3.95626 1.88179 0
M  V30 437 C 45.1379 2.90575 3.34785 0
M  V30 438 H 42.3579 0.544165 0.392588 0
M  V30 439 H 44.9019 1.9494 0.617956 0
M  V30 440 H 43.0569 2.36853 3.0656 0
M  V30 441 H 43.4709 4.53868 2.62876 0
M  V30 442 H 44.9449 3.68449 4.11035 0
M  V30 443 H 45.4219 2.00011 3.91015 0
M  V30 444 H 46.0279 3.22538 2.77218 0
M  V30 445 N 44.343 -0.763751 1.37857 0
M  V30 446 C 45.568 -1.55805 1.36893 0
M  V30 447 C 45.993 -1.88054 -0.0416135 0
M  V30 448 O 45.351 -1.49825 -1.02089 0
M  V30 449 C 45.399 -2.84012 2.22192 0
M  V30 450 O 44.503 -3.78732 1.63204 0
M  V30 451 H 43.844 -0.471638 0.46739 0
M  V30 452 H 46.374 -0.944657 1.81487 0
M  V30 453 H 46.384 -3.33037 2.35691 0
M  V30 454 H 45.059 -2.59869 3.24716 0
M  V30 455 H 43.636 -3.37402 1.58791 0
M  V30 456 N 45.8211 -1.22559 -0.990812 0
M  V30 457 C 47.0511 -1.07623 -1.76355 0
M  V30 458 C 47.4591 0.37601 -1.85426 0
M  V30 459 O 46.8021 1.27228 -1.32509 0
M  V30 460 C 46.8641 -1.61507 -3.21179 0
M  V30 461 C 46.5281 -3.10146 -3.35646 0
M  V30 462 C 47.5251 -4.07553 -3.22796 0
M  V30 463 C 45.2101 -3.49644 -3.60631 0
M  V30 464 C 47.2041 -5.42442 -3.34716 0
M  V30 465 C 44.8911 -4.84682 -3.72192 0
M  V30 466 C 45.8891 -5.8089 -3.59243 0
M  V30 467 O 45.5771 -7.13476 -3.70415 0
M  V30 468 H 45.3091 -0.377745 -0.560611 0
M  V30 469 H 47.8631 -1.62658 -1.25425 0
M  V30 470 H 46.0931 -1.00881 -3.73309 0
M  V30 471 H 47.7821 -1.42202 -3.80175 0
M  V30 472 H 48.5481 -3.78381 -3.03403 0
M  V30 473 H 44.4271 -2.75282 -3.69785 0
M  V30 474 H 47.9711 -6.17518 -3.24526 0
M  V30 475 H 43.8681 -5.13534 -3.91092 0
M  V30 476 H 44.6361 -7.21083 -3.87275 0
M  V30 477 N 47.2992 1.18797 -1.03562 0
M  V30 478 C 48.7152 1.40671 -0.753917 0
M  V30 479 C 48.9152 1.9043 0.658686 0
M  V30 480 O 47.9712 2.08538 1.42366 0
M  V30 481 C 49.2842 2.41192 -1.79574 0
M  V30 482 C 50.8322 2.54928 -1.81606 0
M  V30 483 C 51.3072 3.58709 -2.84766 0
M  V30 484 N 52.7982 3.66212 -2.83625 0
M  V30 485 C 53.5332 4.46225 -3.60098 0
M  V30 486 N 53.0292 5.29888 -4.46308 0
M  V30 487 N 54.8222 4.40939 -3.4861 0
M  V30 488 H 46.9732 0.848221 -1.94728 0
M  V30 489 H 49.2362 0.435081 -0.842264 0
M  V30 490 H 48.9422 2.11669 -2.80872 0
M  V30 491 H 48.8162 3.40467 -1.62365 0
M  V30 492 H 51.2032 2.83771 -0.809817 0
M  V30 493 H 51.2842 1.55784 -2.02891 0
M  V30 494 H 50.9282 3.30607 -3.85566 0
M  V30 495 H 50.8582 4.57519 -2.60737 0
M  V30 496 H 53.3492 3.06466 -2.21105 0
M  V30 497 H 53.6622 5.88078 -5.01382 0
M  V30 498 H 52.0072 5.29326 -4.50377 0
M  V30 499 H 55.1982 3.74624 -2.80668 0
M  V30 500 H 55.3712 5.03056 -4.08459 0
M  V30 501 N 48.7773 0.814389 1.34928 0
M  V30 502 C 49.7103 0.175641 2.27523 0
M  V30 503 C 50.6883 -0.662953 1.48471 0
M  V30 504 O 51.8723 -0.628545 1.77712 0
M  V30 505 C 48.9993 -0.755516 3.30166 0
M  V30 506 C 48.0453 0.00445305 4.265 0
M  V30 507 S 48.8783 1.34582 5.18313 0
M  V30 508 C 50.0343 0.419315 6.24494 0
M  V30 509 H 50.2673 0.960691 2.8135 0
M  V30 510 H 47.8003 0.609846 1.41846 0
M  V30 511 H 49.7583 -1.28723 3.89796 0
M  V30 512 H 48.4193 -1.51402 2.75202 0
M  V30 513 H 47.6123 -0.703077 4.99072 0
M  V30 514 H 47.2143 0.466447 3.7108 0
M  V30 515 H 49.5063 -0.392432 6.76362 0
M  V30 516 H 50.4493 1.11446 6.99275 0
M  V30 517 H 50.8573 0.0115389 5.64499 0
M  V30 518 N 50.2554 -1.46986 0.568584 0
M  V30 519 C 51.2054 -2.27179 -0.193339 0
M  V30 520 C 52.1894 -1.35035 -0.874895 0
M  V30 521 O 53.3814 -1.5931 -0.771322 0
M  V30 522 C 50.5104 -3.21063 -1.21546 0
M  V30 523 C 49.5964 -4.2069 -0.536738 0
M  V30 524 N 49.9874 -5.04218 0.399673 0
M  V30 525 C 48.2854 -4.38961 -0.789254 0
M  V30 526 C 48.9864 -5.76242 0.795017 0
M  V30 527 N 47.9624 -5.434 0.1473 0
M  V30 528 H 51.7644 -2.89146 0.526458 0
M  V30 529 H 49.2784 -1.57664 0.389342 0
M  V30 530 H 51.2754 -3.77209 -1.77536 0
M  V30 531 H 49.9354 -2.60654 -1.93623 0
M  V30 532 H 50.9464 -5.12077 0.774454 0
M  V30 533 H 47.6234 -3.89713 -1.49767 0
M  V30 534 H 49.0134 -6.53417 1.56513 0
M  V30 535 N 51.7335 -0.305618 -1.54608 0
M  V30 536 C 52.9795 0.295595 -2.01241 0
M  V30 537 C 53.3345 1.51171 -1.19018 0
M  V30 538 O 52.6275 1.89832 -0.259684 0
M  V30 539 C 52.8215 0.698983 -3.50498 0
M  V30 540 C 52.6505 -0.476491 -4.47168 0
M  V30 541 C 51.4205 -0.969963 -4.95903 0
M  V30 542 C 53.6185 -1.32294 -4.96994 0
M  V30 543 N 51.6005 -2.11172 -5.76437 0
M  V30 544 C 52.9715 -2.31212 -5.75275 0
M  V30 545 C 55.0265 -1.35278 -4.7917 0
M  V30 546 C 53.7295 -3.32896 -6.37631 0
M  V30 547 C 55.7555 -2.35823 -5.42348 0
M  V30 548 C 55.1175 -3.33469 -6.20466 0
M  V30 549 H 51.2165 0.0724992 -0.778632 0
M  V30 550 H 53.8005 -0.436583 -1.89742 0
M  V30 551 H 51.9715 1.40032 -3.62278 0
M  V30 552 H 53.7035 1.28013 -3.8392 0
M  V30 553 H 50.4585 -0.544178 -4.70463 0
M  V30 554 H 50.8825 -2.68714 -6.21387 0
M  V30 555 H 55.5245 -0.61157 -4.18354 0
M  V30 556 H 53.2425 -4.07933 -6.97579 0
M  V30 557 H 56.8285 -2.38911 -5.30484 0
M  V30 558 H 55.7085 -4.09996 -6.68485 0
M  V30 559 N 53.2116 1.57565 -0.0334293 0
M  V30 560 C 54.4576 1.92262 0.645226 0
M  V30 561 C 54.7906 0.910543 1.71531 0
M  V30 562 O 54.0656 -0.066099 1.94388 0
M  V30 563 C 54.3486 3.37422 1.2577 0
M  V30 564 C 54.2016 4.49369 0.196891 0
M  V30 565 C 55.5206 3.82628 2.17449 0
M  V30 566 H 52.6396 0.699171 0.233085 0
M  V30 567 H 55.2816 1.89779 -0.0915694 0
M  V30 568 H 53.4316 3.39669 1.88566 0
M  V30 569 H 55.1036 4.59254 -0.433962 0
M  V30 570 H 53.3466 4.31168 -0.477137 0
M  V30 571 H 54.0176 5.47978 0.665124 0
M  V30 572 H 56.4936 3.82145 1.64634 0
M  V30 573 H 55.3696 4.84883 2.57254 0
M  V30 574 H 55.6306 3.18376 3.0674 0
M  V30 575 N 54.6897 -0.239769 1.55765 0
M  V30 576 C 56.1057 -0.588624 1.48349 0
M  V30 577 C 56.3057 -1.88005 0.72502 0
M  V30 578 O 55.3617 -2.51186 0.257269 0
M  V30 579 C 56.6747 -0.68474 2.928 0
M  V30 580 C 58.2227 -0.77659 3.03213 0
M  V30 581 C 58.6977 -0.904207 4.48986 0
M  V30 582 N 60.1887 -0.968896 4.52953 0
M  V30 583 C 60.9237 -1.08703 5.63002 0
M  V30 584 N 60.4197 -1.17026 6.82845 0
M  V30 585 N 62.2127 -1.12074 5.50814 0
M  V30 586 H 54.3637 0.607911 2.03515 0
M  V30 587 H 56.6267 0.21083 0.924259 0
M  V30 588 H 56.3327 0.194284 3.51163 0
M  V30 589 H 56.2067 -1.55435 3.43686 0
M  V30 590 H 58.5937 -1.64606 2.44926 0
M  V30 591 H 58.6747 0.118315 2.55526 0
M  V30 592 H 58.3187 -0.0392633 5.07885 0
M  V30 593 H 58.2487 -1.81426 4.9436 0
M  V30 594 H 60.7397 -0.915633 3.6664 0
M  V30 595 H 61.0527 -1.25966 7.62465 0
M  V30 596 H 59.3977 -1.13971 6.85591 0
M  V30 597 H 62.5887 -1.05226 4.5612 0
M  V30 598 H 62.7617 -1.20936 6.36615 0
M  V30 599 N 56.1678 -1.49265 -0.50573 0
M  V30 600 C 57.0998 -1.617 -1.62437 0
M  V30 601 C 58.1128 -0.499924 -1.54934 0
M  V30 602 O 59.3018 -0.771785 -1.60953 0
M  V30 603 C 56.4018 -1.5533 -3.01207 0
M  V30 604 C 55.5748 -2.8249 -3.33943 0
M  V30 605 C 54.6338 -2.69238 -4.52103 0
M  V30 606 O 53.6598 -3.43167 -4.5412 0
M  V30 607 N 54.8618 -1.80468 -5.51735 0
M  V30 608 H 57.6268 -2.58177 -1.52199 0
M  V30 609 H 55.1878 -1.46294 -0.693511 0
M  V30 610 H 57.1798 -1.44125 -3.78167 0
M  V30 611 H 55.7498 -0.667297 -3.05395 0
M  V30 612 H 54.9698 -3.08081 -2.45926 0
M  V30 613 H 56.2578 -3.66802 -3.5261 0
M  V30 614 H 55.6558 -1.19653 -5.52901 0
M  V30 615 H 54.2128 -1.75188 -6.27816 0
M  V30 616 N 57.6459 0.756429 -1.3826 0
M  V30 617 C 58.6089 1.85176 -1.35065 0
M  V30 618 C 59.6089 1.58818 -0.251703 0
M  V30 619 O 60.7989 1.66615 -0.508433 0
M  V30 620 C 57.9309 3.22596 -1.10201 0
M  V30 621 H 59.1239 1.89417 -2.3251 0
M  V30 622 H 56.6769 0.95783 -1.23512 0
M  V30 623 H 57.4119 3.24025 -0.133504 0
M  V30 624 H 57.1969 3.43122 -1.89762 0
M  V30 625 H 58.6869 4.02673 -1.10654 0
M  V30 626 N 59.124 1.23083 0.984299 0
M  V30 627 C 60.535 1.05609 1.5396 0
M  V30 628 C 60.886 -0.377793 1.92528 0
M  V30 629 O 60.011 -1.26398 1.75649 0
M  V30 630 C 60.606 1.91087 2.7977 0
M  V30 631 C 59.165 1.77885 3.31713 0
M  V30 632 C 58.312 1.87028 2.04733 0
M  V30 633 H 61.263 1.36802 0.804419 0
M  V30 634 H 61.284 1.43336 3.5247 0
M  V30 635 H 60.796 2.9544 2.51668 0
M  V30 636 H 58.897 0.762995 3.64704 0
M  V30 637 H 59.01 2.61047 4.01735 0
M  V30 638 H 57.374 1.30565 2.18689 0
M  V30 639 H 58.157 2.92929 1.79017 0
M  V30 640 N 60.6021 -1.18246 1.0419 0
M  V30 641 C 61.8501 -1.87886 0.744543 0
M  V30 642 C 62.1711 -1.8082 -0.730006 0
M  V30 643 O 61.4411 -1.22736 -1.52685 0
M  V30 644 H 60.0211 -0.695556 0.272417 0
M  V30 645 H 62.6831 -1.43494 1.31892 0
M  V30 646 H 61.7791 -2.9389 1.05049 0
M  V30 647 N 62.0802 -0.821533 -1.34494 0
M  V30 648 C 63.0122 -0.199946 -2.28326 0
M  V30 649 C 64.0252 0.609377 -1.50965 0
M  V30 650 O 65.2142 0.439285 -1.7301 0
M  V30 651 C 62.3142 0.738431 -3.30757 0
M  V30 652 C 61.4872 -0.0277632 -4.37391 0
M  V30 653 C 60.5462 0.831332 -5.19591 0
M  V30 654 O 59.5722 0.276822 -5.68526 0
M  V30 655 N 60.7742 2.15132 -5.39165 0
M  V30 656 H 63.5392 -1.00609 -2.82308 0
M  V30 657 H 61.1002 -0.678366 -1.47003 0
M  V30 658 H 63.0922 1.31773 -3.82646 0
M  V30 659 H 61.6622 1.44533 -2.7718 0
M  V30 660 H 60.8822 -0.788359 -3.86236 0
M  V30 661 H 62.1702 -0.555251 -5.05761 0
M  V30 662 H 61.5682 2.62559 -5.01078 0
M  V30 663 H 60.1252 2.6795 -5.94177 0
M  V30 664 N 63.5583 1.46682 -0.576371 0
M  V30 665 C 64.8063 2.02013 -0.0594163 0
M  V30 666 C 65.1273 1.45101 1.30271 0
M  V30 667 O 64.3973 0.633317 1.8538 0
M  V30 668 H 62.9773 0.746759 -0.0189745 0
M  V30 669 H 65.6393 1.79862 -0.750717 0
M  V30 670 H 64.7353 3.12097 0.014345 0
M  V30 671 N 65.0364 0.313813 1.54444 0
M  V30 672 C 65.9664 -0.549454 2.26943 0
M  V30 673 C 66.9474 -1.12741 1.27372 0
M  V30 674 O 68.1324 -1.15436 1.56167 0
M  V30 675 C 65.2624 -1.71523 3.01989 0
M  V30 676 C 64.2164 -1.26703 4.08816 0
M  V30 677 C 63.5424 -2.51898 4.71647 0
M  V30 678 C 64.8424 -0.388962 5.2085 0
M  V30 679 H 66.5364 0.0552661 2.99349 0
M  V30 680 H 64.0824 0.0280207 1.43973 0
M  V30 681 H 66.0354 -2.32535 3.51433 0
M  V30 682 H 64.7594 -2.34639 2.27183 0
M  V30 683 H 63.4184 -0.679896 3.6024 0
M  V30 684 H 63.0664 -3.13356 3.93468 0
M  V30 685 H 62.7664 -2.22605 5.43802 0
M  V30 686 H 64.2904 -3.1369 5.23861 0
M  V30 687 H 65.7044 -0.905107 5.6611 0
M  V30 688 H 64.1014 -0.18924 5.99802 0
M  V30 689 H 65.1714 0.582699 4.81386 0
M  V30 690 N 66.5145 -1.57545 0.0417849 0
M  V30 691 C 67.4245 -2.14451 -0.951213 0
M  V30 692 C 68.4405 -1.09992 -1.34825 0
M  V30 693 O 69.6165 -1.42114 -1.42708 0
M  V30 694 C 66.6815 -2.67063 -2.21084 0
M  V30 695 C 65.7425 -3.86284 -1.87304 0
M  V30 696 C 64.9755 -4.36378 -3.07261 0
M  V30 697 O 65.1985 -3.85587 -4.20332 0
M  V30 698 O 64.1325 -5.28077 -2.88822 0
M  V30 699 H 67.9585 -2.99601 -0.497287 0
M  V30 700 H 65.5435 -1.48317 -0.179567 0
M  V30 701 H 67.4255 -3.00914 -2.95006 0
M  V30 702 H 66.1005 -1.84989 -2.65633 0
M  V30 703 H 65.0075 -3.57338 -1.10727 0
M  V30 704 H 66.3405 -4.6956 -1.47562 0
M  V30 705 N 67.9926 0.231505 -1.5589 0
M  V30 706 C 69.2386 0.954429 -1.79617 0
M  V30 707 C 69.5936 1.82367 -0.613199 0
M  V30 708 O 68.8866 1.87524 0.393094 0
M  V30 709 C 69.0806 1.83577 -3.0665 0
M  V30 710 C 68.9096 1.05334 -4.3719 0
M  V30 711 C 67.6796 0.75225 -4.99669 0
M  V30 712 C 69.8776 0.423444 -5.12554 0
M  V30 713 N 67.8596 -0.052627 -6.13877 0
M  V30 714 C 69.2306 -0.245287 -6.19515 0
M  V30 715 C 71.2856 0.335466 -4.96769 0
M  V30 716 C 69.9886 -0.993566 -7.12405 0
M  V30 717 C 72.0146 -0.399321 -5.9005 0
M  V30 718 C 71.3766 -1.05663 -6.9643 0
M  V30 719 H 67.4756 0.329846 -0.709031 0
M  V30 720 H 70.0596 0.226172 -1.93382 0
M  V30 721 H 68.2306 2.53592 -2.94186 0
M  V30 722 H 69.9626 2.49541 -3.18608 0
M  V30 723 H 66.7176 1.06783 -4.61405 0
M  V30 724 H 67.1416 -0.443609 -6.75545 0
M  V30 725 H 71.7836 0.829311 -4.14587 0
M  V30 726 H 69.5016 -1.49896 -7.94076 0
M  V30 727 H 73.0876 -0.468265 -5.79913 0
M  V30 728 H 71.9676 -1.61612 -7.67366 0
M  V30 729 N 69.4707 1.49531 0.497807 0
M  V30 730 C 70.7197 1.58426 1.24837 0
M  V30 731 C 71.0327 0.277643 1.93619 0
M  V30 732 O 72.2387 0.24517 2.70391 0
M  V30 733 C 70.6947 2.79538 2.26686 0
M  V30 734 C 70.3027 4.16971 1.63828 0
M  V30 735 C 72.0467 2.97764 3.0255 0
M  V30 736 C 69.9537 5.29301 2.63807 0
M  V30 737 H 68.8837 0.58989 0.469623 0
M  V30 738 H 71.5347 1.75923 0.521857 0
M  V30 739 H 69.9167 2.55542 3.02514 0
M  V30 740 H 71.0907 4.51116 0.939711 0
M  V30 741 H 69.4057 4.04129 1.00342 0
M  V30 742 H 72.0027 3.78856 3.77323 0
M  V30 743 H 72.3457 2.08448 3.60354 0
M  V30 744 H 72.8787 3.21815 2.33838 0
M  V30 745 H 69.6177 6.20687 2.10779 0
M  V30 746 H 69.1377 4.99606 3.31894 0
M  V30 747 H 70.8167 5.58768 3.2617 0
M  V30 748 N 70.9488 -0.749086 1.3866 0
M  V30 749 C 72.1968 -1.50535 1.34847 0
M  V30 750 C 72.5178 -1.94909 -0.0595016 0
M  V30 751 O 71.7878 -1.67973 -1.00806 0
M  V30 752 H 70.3678 -0.558395 0.49619 0
M  V30 753 H 73.0298 -0.890165 1.73384 0
M  V30 754 H 72.1258 -2.39413 2.00219 0
M  V30 755 N 72.4269 -1.23603 -0.977757 0
M  V30 756 C 73.6569 -1.09487 -1.75203 0
M  V30 757 C 74.0649 0.356321 -1.85814 0
M  V30 758 O 73.4079 1.25816 -1.33851 0
M  V30 759 C 73.4699 -1.64905 -3.19447 0
M  V30 760 C 73.1339 -3.13688 -3.32338 0
M  V30 761 C 74.1309 -4.10953 -3.18455 0
M  V30 762 C 71.8159 -3.53449 -3.56902 0
M  V30 763 C 73.8099 -5.45962 -3.28944 0
M  V30 764 C 71.4969 -4.88602 -3.6703 0
M  V30 765 C 72.4949 -5.84668 -3.53062 0
M  V30 766 O 72.1829 -7.17365 -3.62826 0
M  V30 767 H 71.9149 -0.38367 -0.556573 0
M  V30 768 H 74.4689 -1.6398 -1.23693 0
M  V30 769 H 72.6989 -1.04835 -3.72218 0
M  V30 770 H 74.3879 -1.46226 -3.78646 0
M  V30 771 H 75.1539 -3.81577 -2.99372 0
M  V30 772 H 71.0329 -2.79188 -3.66844 0
M  V30 773 H 74.5769 -6.20925 -3.17958 0
M  V30 774 H 70.4739 -5.17653 -3.85623 0
M  V30 775 H 71.2419 -7.2515 -3.79605 0
M  V30 776 N 73.905 1.17692 -1.04816 0
M  V30 777 C 75.154 1.87192 -0.751132 0
M  V30 778 C 75.467 1.8169 0.724441 0
M  V30 779 O 76.673 2.46625 1.13527 0
M  V30 780 C 75.129 3.35857 -1.29338 0
M  V30 781 C 74.737 3.4987 -2.79812 0
M  V30 782 C 76.481 4.10709 -1.07322 0
M  V30 783 C 74.388 4.92536 -3.27356 0
M  V30 784 H 73.318 0.701162 -0.277288 0
M  V30 785 H 75.969 1.32932 -1.26496 0
M  V30 786 H 74.351 3.89631 -0.707376 0
M  V30 787 H 75.525 3.06332 -3.44235 0
M  V30 788 H 73.84 2.88433 -3.00325 0
M  V30 789 H 76.437 5.15952 -1.4035 0
M  V30 790 H 76.78 4.16299 -0.0108001 0
M  V30 791 H 77.313 3.6313 -1.62423 0
M  V30 792 H 74.052 4.92119 -4.33012 0
M  V30 793 H 73.572 5.3676 -2.67673 0
M  V30 794 H 75.251 5.61288 -3.21815 0
M  V30 795 N 75.3831 0.828654 1.34056 0
M  V30 796 C 76.3311 0.242973 2.31327 0
M  V30 797 C 77.3251 -0.61944 1.57668 0
M  V30 798 O 78.5311 -0.51014 1.7262 0
M  V30 799 H 74.9061 0.059834 0.749616 0
M  V30 800 H 76.8771 1.07809 2.78244 0
M  V30 801 C 75.6261 -0.575733 3.429 0
M  V30 802 H 74.9491 0.0785582 3.99723 0
M  V30 803 H 76.3891 -0.951547 4.13185 0
M  V30 804 C 74.8481 -1.75044 2.87856 0
M  V30 805 O 75.3781 -2.84882 2.83205 0
M  V30 806 N 73.5841 -1.56903 2.44602 0
M  V30 807 H 73.1311 -0.675547 2.48584 0
M  V30 808 H 73.0891 -2.35652 2.08124 0
M  V30 809 N 76.8612 -1.46375 0.584142 0
M  V30 810 C 78.2722 -1.86031 0.157959 0
M  V30 811 C 78.6232 -1.48753 -1.27933 0
M  V30 812 O 77.7482 -0.903098 -1.96655 0
M  V30 813 C 78.3432 -3.37642 0.279892 0
M  V30 814 C 76.9022 -3.76289 -0.09143 0
M  V30 815 C 76.0492 -2.7039 0.615178 0
M  V30 816 H 79.0002 -1.37509 0.792274 0
M  V30 817 H 79.0212 -3.77275 -0.494364 0
M  V30 818 H 78.5332 -3.64742 1.32607 0
M  V30 819 H 76.6342 -3.54806 -1.13769 0
M  V30 820 H 76.7472 -4.78246 0.285886 0
M  V30 821 H 75.1112 -2.5464 0.0552833 0
M  V30 822 H 75.8942 -3.0033 1.66303 0
M  V30 823 N 78.3393 -0.321999 -1.54275 0
M  V30 824 C 79.5643 0.285791 -2.05422 0
M  V30 825 C 79.9893 1.45124 -1.19669 0
M  V30 826 O 79.3473 1.80132 -0.205441 0
M  V30 827 C 79.3953 0.69956 -3.53749 0
M  V30 828 O 78.4993 1.8021 -3.70942 0
M  V30 829 H 77.8403 0.0518962 -0.661969 0
M  V30 830 H 80.3703 -0.469954 -1.9913 0
M  V30 831 H 80.3803 0.982649 -3.9599 0
M  V30 832 H 79.0553 -0.152864 -4.15619 0
M  V30 833 H 77.6323 1.51794 -3.40607 0
M  V30 834 N 79.8174 1.5752 -0.0501392 0
M  V30 835 C 81.0454 1.96963 0.633492 0
M  V30 836 C 81.4604 0.927631 1.6444 0
M  V30 837 O 80.8174 -0.0882665 1.82286 0
M  V30 838 C 80.8684 3.36487 1.32132 0
M  V30 839 O 80.5894 4.36693 0.350894 0
M  V30 840 C 82.0904 3.90682 2.09481 0
M  V30 841 H 79.3104 0.648244 0.173266 0
M  V30 842 H 81.8544 2.0417 -0.116134 0
M  V30 843 H 80.0094 3.30434 2.02218 0
M  V30 844 H 80.4234 5.17702 0.841735 0
M  V30 845 H 81.8974 4.90591 2.5303 0
M  V30 846 H 82.3744 3.26053 2.94255 0
M  V30 847 H 82.9804 4.00069 1.44307 0
M  V30 848 N 81.2955 -0.223234 1.56011 0
M  V30 849 C 82.5435 -0.946003 1.78592 0
M  V30 850 C 82.8645 -1.84936 0.618349 0
M  V30 851 O 82.1345 -1.92473 -0.364833 0
M  V30 852 H 80.7145 -0.352298 0.658707 0
M  V30 853 H 83.3765 -0.235494 1.93472 0
M  V30 854 H 82.4725 -1.55381 2.70672 0
M  V30 855 N 82.7736 -1.49793 -0.48987 0
M  V30 856 C 84.0036 -1.6333 -1.26518 0
M  V30 857 C 84.4116 -0.308392 -1.8667 0
M  V30 858 O 83.7546 0.717512 -1.69108 0
M  V30 859 C 83.8166 -2.6522 -2.4269 0
M  V30 860 C 83.4806 -4.09279 -2.03321 0
M  V30 861 C 84.4776 -4.95738 -1.56652 0
M  V30 862 C 82.1626 -4.55082 -2.12616 0
M  V30 863 C 84.1566 -6.26041 -1.19795 0
M  V30 864 C 81.8436 -5.85396 -1.75371 0
M  V30 865 C 82.8416 -6.707 -1.29036 0
M  V30 866 O 82.5296 -7.98584 -0.92299 0
M  V30 867 H 82.2616 -0.552502 -0.389509 0
M  V30 868 H 84.8156 -1.96642 -0.593381 0
M  V30 869 H 83.0456 -2.27112 -3.12981 0
M  V30 870 H 84.7346 -2.68171 -3.04695 0
M  V30 871 H 85.5006 -4.61575 -1.48908 0
M  V30 872 H 81.3796 -3.88844 -2.47631 0
M  V30 873 H 84.9236 -6.92578 -0.835582 0
M  V30 874 H 80.8206 -6.19085 -1.82768 0
M  V30 875 H 81.5886 -8.11692 -1.05349 0
M  V30 876 N 84.2517 0.741722 -1.39055 0
M  V30 877 C 85.4797 1.53098 -1.39171 0
M  V30 878 C 85.8947 1.88794 0.0155099 0
M  V30 879 O 85.2517 1.53626 0.985159 0
M  V30 880 C 85.3027 2.82274 -2.2584 0
M  V30 881 O 85.0237 2.48097 -3.61081 0
M  V30 882 C 86.5247 3.76343 -2.34266 0
M  V30 883 H 83.7447 0.473335 -0.4756 0
M  V30 884 H 86.2887 0.917045 -1.82785 0
M  V30 885 H 84.4437 3.40015 -1.85656 0
M  V30 886 H 84.8577 3.31029 -4.06842 0
M  V30 887 H 86.3317 4.63898 -2.9917 0
M  V30 888 H 86.8087 4.17619 -1.35982 0
M  V30 889 H 87.4147 3.24523 -2.74891 0
M  V30 890 N 85.7298 1.2412 0.971189 0
M  V30 891 C 86.6398 1.04747 2.09917 0
M  V30 892 C 87.6558 -0.0107162 1.73997 0
M  V30 893 O 88.8318 0.186714 2.00533 0
M  V30 894 C 85.8968 0.650828 3.40537 0
M  V30 895 C 84.9578 1.7851 3.90426 0
M  V30 896 C 84.1908 1.40729 5.14812 0
M  V30 897 O 84.4138 0.29557 5.69634 0
M  V30 898 O 83.3478 2.23168 5.58999 0
M  V30 899 H 87.1738 1.99304 2.29154 0
M  V30 900 H 84.7588 1.02908 1.08307 0
M  V30 901 H 86.6408 0.440992 4.19086 0
M  V30 902 H 85.3158 -0.265649 3.22608 0
M  V30 903 H 84.2228 2.04966 3.12953 0
M  V30 904 H 85.5558 2.68023 4.12825 0
M  V30 905 N 87.2079 -1.17134 1.05439 0
M  V30 906 C 88.4379 -1.91094 0.785274 0
M  V30 907 C 88.8459 -1.77198 -0.663142 0
M  V30 908 O 88.1889 -1.10835 -1.46497 0
M  V30 909 C 88.2509 -3.42594 1.08949 0
M  V30 910 C 87.9149 -3.80274 2.53458 0
M  V30 911 C 88.9119 -3.82912 3.51673 0
M  V30 912 C 86.5969 -4.11162 2.88532 0
M  V30 913 C 88.5909 -4.15913 4.83006 0
M  V30 914 C 86.2779 -4.43831 4.20068 0
M  V30 915 C 87.2759 -4.46185 5.17115 0
M  V30 916 O 86.9639 -4.78083 6.46291 0
M  V30 917 H 86.6959 -0.613073 0.284811 0
M  V30 918 H 89.2499 -1.49461 1.40893 0
M  V30 919 H 87.4799 -3.84534 0.408741 0
M  V30 920 H 89.1689 -3.97817 0.805991 0
M  V30 921 H 89.9349 -3.5917 3.25917 0
M  V30 922 H 85.8139 -4.085 2.13656 0
M  V30 923 H 89.3579 -4.17665 5.5875 0
M  V30 924 H 85.2549 -4.67037 4.45586 0
M  V30 925 H 86.0229 -4.9593 6.51149 0
M  V30 926 N 88.686 -0.835752 -1.33615 0
M  V30 927 C 89.634 -0.255238 -2.31195 0
M  V30 928 C 90.628 0.61107 -1.57995 0
M  V30 929 O 91.834 0.500979 -1.72888 0
M  V30 930 H 88.209 -0.0638085 -0.749288 0
M  V30 931 H 90.18 -1.09283 -2.77669 0
M  V30 932 C 88.929 0.55754 -3.43201 0
M  V30 933 H 88.252 -0.0997553 -3.99676 0
M  V30 934 H 89.692 0.929622 -4.13683 0
M  V30 935 C 88.151 1.73515 -2.88781 0
M  V30 936 O 88.681 2.83376 -2.84712 0
M  V30 937 N 86.887 1.55603 -2.4543 0
M  V30 938 H 86.434 0.662354 -2.48939 0
M  V30 939 H 86.392 2.34545 -2.09371 0
M  V30 940 N 90.1641 1.46063 -0.591896 0
M  V30 941 C 91.0961 2.28539 0.174001 0
M  V30 942 C 92.1091 1.39047 0.846753 0
M  V30 943 O 93.2981 1.63564 0.714774 0
M  V30 944 C 90.3981 3.14347 1.26645 0
M  V30 945 C 89.5711 4.32021 0.683856 0
M  V30 946 C 88.6301 4.99157 1.66518 0
M  V30 947 O 87.6561 5.56458 1.19763 0
M  V30 948 N 88.8581 4.97005 2.99943 0
M  V30 949 H 91.6231 2.94911 -0.533633 0
M  V30 950 H 89.1841 1.56077 -0.430294 0
M  V30 951 H 91.1761 3.56125 1.92242 0
M  V30 952 H 89.7461 2.49988 1.87682 0
M  V30 953 H 88.9661 3.93915 -0.1498 0
M  V30 954 H 90.2541 5.08059 0.274567 0
M  V30 955 H 89.6521 4.51714 3.40545 0
M  V30 956 H 88.2091 5.42696 3.61004 0
M  V30 957 N 91.6422 0.330177 1.54103 0
M  V30 958 C 92.5892 -0.532762 2.24567 0
M  V30 959 C 93.5592 -1.10635 1.23892 0
M  V30 960 O 94.7442 -1.14546 1.5259 0
M  V30 961 C 91.8842 -1.6845 3.01195 0
M  V30 962 C 90.9972 -1.13951 4.167 0
M  V30 963 C 90.1322 -2.25746 4.80845 0
M  V30 964 C 89.1712 -1.6853 5.88442 0
M  V30 965 N 88.3082 -2.74014 6.46421 0
M  V30 966 H 93.1482 0.0746905 2.97906 0
M  V30 967 H 90.6852 0.048632 1.4702 0
M  V30 968 H 92.6432 -2.36234 3.43874 0
M  V30 969 H 91.2732 -2.26314 2.30178 0
M  V30 970 H 90.3252 -0.35301 3.78758 0
M  V30 971 H 91.6372 -0.680892 4.94131 0
M  V30 972 H 90.7912 -3.01422 5.26526 0
M  V30 973 H 89.5302 -2.74947 4.0281 0
M  V30 974 H 88.5352 -0.913543 5.42157 0
M  V30 975 H 89.7602 -1.20198 6.68378 0
M  V30 976 H 87.7062 -3.22494 5.71256 0
M  V30 977 H 87.6232 -2.32735 7.19285 0
M  V30 978 H 88.8912 -3.49499 6.96757 0
M  V30 979 N 93.1203 -1.57491 0.0584922 0
M  V30 980 C 94.3673 -1.92978 -0.613648 0
M  V30 981 C 94.6953 -0.937461 -1.70417 0
M  V30 982 O 93.9503 0.049078 -1.95638 0
M  V30 983 C 94.2493 -3.3513 -1.24188 0
M  V30 984 C 93.9153 -4.50037 -0.278826 0
M  V30 985 C 92.5773 -4.81198 -0.0138447 0
M  V30 986 C 94.9293 -5.19807 0.380777 0
M  V30 987 C 92.2573 -5.79473 0.918052 0
M  V30 988 C 94.6093 -6.19079 1.30091 0
M  V30 989 C 93.2733 -6.48665 1.57449 0
M  V30 990 H 92.5433 -0.706157 -0.22455 0
M  V30 991 H 95.1903 -1.91082 0.126533 0
M  V30 992 H 93.4953 -3.33429 -2.05749 0
M  V30 993 H 95.1923 -3.59871 -1.769 0
M  V30 994 H 91.7823 -4.25726 -0.495539 0
M  V30 995 H 95.9663 -4.95939 0.189158 0
M  V30 996 H 91.2223 -6.00727 1.1374 0
M  V30 997 H 95.3963 -6.7225 1.81804 0
M  V30 998 H 93.0233 -7.24628 2.29822 0
M  V30 999 N 94.5984 0.214957 -1.56127 0
M  V30 1000 C 95.5454 1.26642 -1.92952 0
M  V30 1001 C 96.5154 1.46244 -0.78753 0
M  V30 1002 O 97.7004 1.59704 -1.04399 0
M  V30 1003 C 94.8404 2.6104 -2.25726 0
M  V30 1004 C 93.9534 2.49183 -3.52891 0
M  V30 1005 C 93.0884 3.76149 -3.7508 0
M  V30 1006 C 92.1274 3.59041 -4.95738 0
M  V30 1007 N 91.2644 4.77972 -5.14283 0
M  V30 1008 H 96.1044 0.945384 -2.82607 0
M  V30 1009 H 93.6414 0.455489 -1.3987 0
M  V30 1010 H 95.5994 3.39313 -2.42739 0
M  V30 1011 H 94.2294 2.91227 -1.39236 0
M  V30 1012 H 93.2814 1.6231 -3.44034 0
M  V30 1013 H 94.5934 2.32466 -4.41318 0
M  V30 1014 H 93.7474 4.62865 -3.92226 0
M  V30 1015 H 92.4864 3.95799 -2.84947 0
M  V30 1016 H 91.4914 2.7071 -4.78535 0
M  V30 1017 H 92.7164 3.40856 -5.87362 0
M  V30 1018 H 90.6624 4.97923 -4.27093 0
M  V30 1019 H 90.5794 4.64006 -5.96853 0
M  V30 1020 H 91.8474 5.66096 -5.35869 0
M  V30 1021 N 96.0765 1.50051 0.48192 0
M  V30 1022 C 97.3535 1.51009 1.2432 0
M  V30 1023 C 97.7335 0.248587 2.09631 0
M  V30 1024 O 97.0815 -0.768409 2.15192 0
M  V30 1025 C 97.2915 2.79981 2.08355 0
M  V30 1026 C 98.6395 3.3022 2.66908 0
M  V30 1027 O 99.6635 2.81228 2.18607 0
M  V30 1028 O 98.5225 4.15595 3.54884 0
M  V30 1029 H 95.6165 0.605239 0.563573 0
M  V30 1030 H 98.1625 1.62332 0.494627 0
M  V30 1031 H 96.9345 3.63275 1.45419 0
M  V30 1032 H 96.5575 2.7161 2.90368 0
M  V30 1033 N 97.5546 -0.734337 1.39446 0
M  V30 1034 C 98.5016 -1.84835 1.38219 0
M  V30 1035 C 99.4716 -1.64331 0.24179 0
M  V30 1036 O 100.657 -1.85728 0.437002 0
M  V30 1037 C 97.7966 -3.22355 1.23212 0
M  V30 1038 C 96.9096 -3.5456 2.46801 0
M  V30 1039 C 96.0446 -4.81485 2.24377 0
M  V30 1040 C 95.0836 -5.06536 3.43639 0
M  V30 1041 N 94.2206 -6.24665 3.20528 0
M  V30 1042 H 99.0606 -1.85219 2.33448 0
M  V30 1043 H 96.5976 -0.905039 1.15963 0
M  V30 1044 H 98.5556 -4.0174 1.12522 0
M  V30 1045 H 97.1856 -3.21248 0.316121 0
M  V30 1046 H 96.2376 -2.69872 2.68092 0
M  V30 1047 H 97.5496 -3.6899 3.3563 0
M  V30 1048 H 96.7036 -5.68852 2.10933 0
M  V30 1049 H 95.4426 -4.6923 1.32944 0
M  V30 1050 H 94.4476 -4.17632 3.5758 0
M  V30 1051 H 95.6726 -5.20676 4.35974 0
M  V30 1052 H 93.6186 -6.13696 2.3176 0
M  V30 1053 H 93.5356 -6.39685 4.02913 0
M  V30 1054 H 94.8036 -7.14868 3.10779 0
M  V30 1055 N 99.0327 -1.24633 -0.964593 0
M  V30 1056 C 99.9957 -1.0424 -2.04124 0
M  V30 1057 C 100.996 0.00137563 -1.608 0
M  V30 1058 O 102.186 -0.239883 -1.7254 0
M  V30 1059 C 99.3177 -0.580588 -3.3592 0
M  V30 1060 H 100.511 -1.99803 -2.23649 0
M  V30 1061 H 98.0637 -1.06899 -1.14027 0
M  V30 1062 H 98.7987 0.3781 -3.22088 0
M  V30 1063 H 98.5837 -1.33398 -3.6871 0
M  V30 1064 H 100.074 -0.459034 -4.15069 0
M  V30 1065 N 100.511 1.16574 -1.06058 0
M  V30 1066 C 101.739 1.90952 -0.796552 0
M  V30 1067 C 102.154 1.77302 0.648808 0
M  V30 1068 O 101.511 1.11605 1.44397 0
M  V30 1069 C 101.562 3.41736 -1.17894 0
M  V30 1070 O 101.283 3.54975 -2.56758 0
M  V30 1071 C 102.784 4.33169 -0.942308 0
M  V30 1072 H 100.004 0.605594 -0.288959 0
M  V30 1073 H 102.548 1.47777 -1.41358 0
M  V30 1074 H 100.703 3.82623 -0.606491 0
M  V30 1075 H 101.117 4.4846 -2.72 0
M  V30 1076 H 102.591 5.37439 -1.25952 0
M  V30 1077 H 103.068 4.3903 0.122078 0
M  V30 1078 H 103.674 3.98007 -1.49902 0
M  V30 1079 N 101.989 0.842826 1.3317 0
M  V30 1080 C 103.238 0.436738 1.96915 0
M  V30 1081 C 103.551 -1.01025 1.67491 0
M  V30 1082 O 104.757 -1.5212 2.24881 0
M  V30 1083 C 103.213 0.730021 3.52418 0
M  V30 1084 C 102.821 2.19195 3.90714 0
M  V30 1085 C 104.565 0.391076 4.22695 0
M  V30 1086 C 102.472 2.42907 5.39212 0
M  V30 1087 H 101.402 0.15958 0.736919 0
M  V30 1088 H 104.053 1.03196 1.51733 0
M  V30 1089 H 102.435 0.0643755 3.95948 0
M  V30 1090 H 103.609 2.8984 3.58231 0
M  V30 1091 H 101.924 2.49425 3.33431 0
M  V30 1092 H 104.521 0.545817 5.31907 0
M  V30 1093 H 104.864 -0.666294 4.10933 0
M  V30 1094 H 105.397 1.01212 3.84709 0
M  V30 1095 H 102.136 3.47224 5.55982 0
M  V30 1096 H 101.656 1.76827 5.73142 0
M  V30 1097 H 103.335 2.2626 6.06148 0
M  V30 1098 N 103.467 -1.45747 0.599634 0
M  V30 1099 C 104.695 -2.06668 0.0978551 0
M  V30 1100 C 105.11 -1.44562 -1.21439 0
M  V30 1101 O 104.467 -0.556923 -1.73795 0
M  V30 1102 C 104.518 -3.61456 -0.0567044 0
M  V30 1103 O 104.239 -4.21242 1.20361 0
M  V30 1104 C 105.74 -4.39345 -0.590869 0
M  V30 1105 H 102.96 -0.667825 0.0651943 0
M  V30 1106 H 105.504 -1.87115 0.82511 0
M  V30 1107 H 103.659 -3.80378 -0.734251 0
M  V30 1108 H 104.073 -5.14323 1.02821 0
M  V30 1109 H 105.547 -5.48182 -0.648131 0
M  V30 1110 H 106.024 -4.08568 -1.61147 0
M  V30 1111 H 106.63 -4.25268 0.0523679 0
M  V30 1112 N 104.945 -0.338344 -1.53925 0
M  V30 1113 C 105.908 0.508299 -2.23493 0
M  V30 1114 C 106.908 1.03175 -1.23335 0
M  V30 1115 O 108.098 0.921826 -1.47811 0
M  V30 1116 C 105.23 1.70754 -2.95052 0
M  V30 1117 H 106.423 -0.100058 -2.99733 0
M  V30 1118 H 103.976 -0.0896198 -1.56043 0
M  V30 1119 H 104.711 2.35474 -2.22986 0
M  V30 1120 H 104.496 1.33946 -3.68512 0
M  V30 1121 H 105.986 2.30818 -3.48013 0
M  V30 1122 N 106.423 1.57458 -0.0668435 0
M  V30 1123 C 107.7 1.8469 0.644132 0
M  V30 1124 C 108.08 0.958343 1.88093 0
M  V30 1125 O 107.428 0.0233579 2.28488 0
M  V30 1126 C 107.638 3.34767 0.986509 0
M  V30 1127 C 108.986 4.02159 1.36212 0
M  V30 1128 O 110.01 3.39484 1.07839 0
M  V30 1129 O 108.869 5.12694 1.89227 0
M  V30 1130 H 105.963 0.762816 0.319437 0
M  V30 1131 H 108.509 1.6942 -0.0973986 0
M  V30 1132 H 107.281 3.91151 0.107883 0
M  V30 1133 H 106.904 3.55281 1.78497 0
M  V30 1134 N 107.901 -0.206675 1.56239 0
M  V30 1135 C 108.811 -1.27686 1.96808 0
M  V30 1136 C 109.827 -1.50455 0.874035 0
M  V30 1137 O 111.003 -1.63295 1.17884 0
M  V30 1138 C 108.068 -2.60358 2.28942 0
M  V30 1139 C 107.129 -2.45762 3.51994 0
M  V30 1140 C 106.362 -3.72108 3.82585 0
M  V30 1141 O 106.585 -4.75776 3.14631 0
M  V30 1142 O 105.519 -3.6833 4.76043 0
M  V30 1143 H 109.345 -0.962593 2.88041 0
M  V30 1144 H 106.93 -0.410746 1.43643 0
M  V30 1145 H 108.812 -3.38687 2.50737 0
M  V30 1146 H 107.487 -2.91435 1.4088 0
M  V30 1147 H 106.394 -1.65584 3.35459 0
M  V30 1148 H 107.727 -2.19621 4.40486 0
M  V30 1149 N 109.379 -1.50304 -0.473955 0
M  V30 1150 C 110.604 -1.65175 -1.25427 0
M  V30 1151 C 111.029 -0.333673 -1.85117 0
M  V30 1152 O 110.387 0.702114 -1.67153 0
M  V30 1153 C 110.435 -2.74295 -2.34082 0
M  V30 1154 O 109.539 -2.35349 -3.38651 0
M  V30 1155 H 108.88 -0.551944 -0.369126 0
M  V30 1156 H 111.41 -1.96662 -0.564364 0
M  V30 1157 H 111.42 -2.97285 -2.79438 0
M  V30 1158 H 110.095 -3.69959 -1.90008 0
M  V30 1159 H 108.672 -2.22794 -2.99027 0
M  V30 1160 N 110.857 0.726932 -1.39834 0
M  V30 1161 C 112.085 1.51613 -1.40787 0
M  V30 1162 C 112.5 1.88799 -0.00451505 0
M  V30 1163 O 111.857 1.54662 0.968809 0
M  V30 1164 C 111.908 2.79863 -2.28821 0
M  V30 1165 O 111.629 2.44253 -3.63692 0
M  V30 1166 C 113.13 3.73837 -2.38245 0
M  V30 1167 H 110.35 0.468264 -0.480593 0
M  V30 1168 H 112.894 0.897607 -1.83748 0
M  V30 1169 H 111.049 3.38027 -1.89252 0
M  V30 1170 H 111.463 3.26695 -4.1033 0
M  V30 1171 H 112.937 4.60699 -3.04073 0
M  V30 1172 H 113.414 4.16153 -1.40403 0
M  V30 1173 H 114.02 3.21589 -2.78317 0
M  V30 1174 N 112.336 1.25143 0.95797 0
M  V30 1175 C 113.284 1.05019 2.07542 0
M  V30 1176 C 114.278 -0.0178751 1.69391 0
M  V30 1177 O 115.484 0.137472 1.79474 0
M  V30 1178 H 111.859 0.32265 0.679265 0
M  V30 1179 H 113.83 1.99759 2.21673 0
M  V30 1180 C 112.579 0.682074 3.40944 0
M  V30 1181 H 111.902 1.49573 3.70767 0
M  V30 1182 H 113.342 0.580945 4.20001 0
M  V30 1183 C 111.801 -0.611608 3.31302 0
M  V30 1184 O 112.331 -1.65465 3.66038 0
M  V30 1185 N 110.537 -0.595982 2.84423 0
M  V30 1186 H 110.084 0.253192 2.56353 0
M  V30 1187 H 110.042 -1.46173 2.78354 0
M  V30 1188 N 113.814 -1.1601 1.06675 0
M  V30 1189 C 115.042 -1.90527 0.806667 0
M  V30 1190 C 115.457 -1.77643 -0.639396 0
M  V30 1191 O 114.814 -1.12369 -1.43803 0
M  V30 1192 C 114.865 -3.41106 1.19705 0
M  V30 1193 O 114.586 -3.53608 2.58636 0
M  V30 1194 C 116.087 -4.32663 0.965266 0
M  V30 1195 H 113.307 -0.604053 0.292166 0
M  V30 1196 H 115.851 -1.47026 1.4214 0
M  V30 1197 H 114.006 -3.82296 0.626774 0
M  V30 1198 H 114.42 -4.47011 2.74375 0
M  V30 1199 H 115.894 -5.36763 1.288 0
M  V30 1200 H 116.371 -4.39089 -0.0987936 0
M  V30 1201 H 116.977 -3.97206 1.52011 0
M  V30 1202 N 115.292 -0.849877 -1.32721 0
M  V30 1203 C 116.255 -0.296122 -2.27279 0
M  V30 1204 C 117.255 0.541458 -1.5141 0
M  V30 1205 O 118.445 0.353658 -1.70572 0
M  V30 1206 C 115.577 0.581579 -3.35902 0
M  V30 1207 H 116.77 -1.13064 -2.77771 0
M  V30 1208 H 114.323 -0.62383 -1.43311 0
M  V30 1209 H 115.058 1.43809 -2.9067 0
M  V30 1210 H 114.843 -0.0178814 -3.92096 0
M  V30 1211 H 116.333 0.961951 -4.0637 0
M  V30 1212 N 116.77 1.45427 -0.607355 0
M  V30 1213 C 118 2.06314 -0.108656 0
M  V30 1214 C 118.408 1.45269 1.21217 0
M  V30 1215 O 117.751 0.561115 1.74921 0
M  V30 1216 C 117.813 3.59345 0.105618 0
M  V30 1217 C 117.477 4.42723 -1.13337 0
M  V30 1218 C 118.474 4.77715 -2.05145 0
M  V30 1219 C 116.159 4.83478 -1.36213 0
M  V30 1220 C 118.153 5.52317 -3.18158 0
M  V30 1221 C 115.84 5.57835 -2.49527 0
M  V30 1222 C 116.838 5.92171 -3.40327 0
M  V30 1223 O 116.526 6.65019 -4.51669 0
M  V30 1224 H 116.258 0.672782 -0.0658842 0
M  V30 1225 H 118.812 1.87664 -0.834945 0
M  V30 1226 H 117.042 3.76394 0.886796 0
M  V30 1227 H 118.731 4.02076 0.555886 0
M  V30 1228 H 119.497 4.46787 -1.88697 0
M  V30 1229 H 115.376 4.56188 -0.664362 0
M  V30 1230 H 118.92 5.79036 -3.89054 0
M  V30 1231 H 114.817 5.88177 -2.65928 0
M  V30 1232 H 115.585 6.83469 -4.50348 0
M  V30 1233 N 118.248 0.346503 1.53744 0
M  V30 1234 C 119.181 -0.552023 2.21423 0
M  V30 1235 C 120.159 -1.09798 1.19929 0
M  V30 1236 O 121.343 -1.1577 1.4876 0
M  V30 1237 C 118.47 -1.75972 2.89398 0
M  V30 1238 C 117.516 -1.34295 4.04805 0
M  V30 1239 S 118.349 -0.360263 5.34287 0
M  V30 1240 C 119.505 -1.57473 6.05767 0
M  V30 1241 H 119.738 0.0228119 2.97291 0
M  V30 1242 H 117.271 0.130579 1.53847 0
M  V30 1243 H 119.229 -2.45256 3.2918 0
M  V30 1244 H 117.89 -2.30578 2.1329 0
M  V30 1245 H 117.083 -2.24349 4.51313 0
M  V30 1246 H 116.685 -0.729555 3.66815 0
M  V30 1247 H 118.977 -2.50875 6.29339 0
M  V30 1248 H 119.92 -1.15138 6.98676 0
M  V30 1249 H 120.328 -1.77212 5.35963 0
M  V30 1250 N 119.726 -1.57421 0.075193 0
M  V30 1251 C 120.636 -2.1642 -0.905511 0
M  V30 1252 C 121.652 -1.12828 -1.32461 0
M  V30 1253 O 122.828 -1.45109 -1.39661 0
M  V30 1254 C 119.893 -2.71693 -2.15369 0
M  V30 1255 C 118.954 -3.90171 -1.79068 0
M  V30 1256 C 118.187 -4.42798 -2.97936 0
M  V30 1257 O 118.41 -3.94416 -4.12058 0
M  V30 1258 O 117.344 -5.34085 -2.77555 0
M  V30 1259 H 121.17 -3.00588 -0.433626 0
M  V30 1260 H 118.755 -1.48664 -0.148067 0
M  V30 1261 H 120.637 -3.07104 -2.88557 0
M  V30 1262 H 119.312 -1.90582 -2.61649 0
M  V30 1263 H 118.219 -3.59606 -1.03122 0
M  V30 1264 H 119.552 -4.72584 -1.37569 0
M  V30 1265 N 121.204 0.198386 -1.56346 0
M  V30 1266 C 122.134 1.24865 -1.9731 0
M  V30 1267 C 123.115 1.47651 -0.844576 0
M  V30 1268 O 124.3 1.59444 -1.10866 0
M  V30 1269 C 121.43 2.59358 -2.30977 0
M  V30 1270 C 120.384 2.5119 -3.46537 0
M  V30 1271 C 119.71 3.89926 -3.65871 0
M  V30 1272 C 121.01 2.03977 -4.80823 0
M  V30 1273 H 122.704 0.908252 -2.85291 0
M  V30 1274 H 120.25 0.435462 -1.37258 0
M  V30 1275 H 122.203 3.33011 -2.58228 0
M  V30 1276 H 120.927 2.95132 -1.39874 0
M  V30 1277 H 119.586 1.79993 -3.19371 0
M  V30 1278 H 119.234 4.23046 -2.72105 0
M  V30 1279 H 118.934 3.85336 -4.4361 0
M  V30 1280 H 120.458 4.65205 -3.95495 0
M  V30 1281 H 121.872 2.67386 -5.07127 0
M  V30 1282 H 120.269 2.10397 -5.62008 0
M  V30 1283 H 121.339 0.992861 -4.74626 0
M  V30 1284 N 122.682 1.50554 0.465978 0
M  V30 1285 C 123.907 1.65838 1.24549 0
M  V30 1286 C 124.332 0.343486 1.84937 0
M  V30 1287 O 123.69 -0.69324 1.67523 0
M  V30 1288 C 123.738 2.75533 2.32624 0
M  V30 1289 O 122.842 2.37142 3.37398 0
M  V30 1290 H 122.183 0.553893 0.366194 0
M  V30 1291 H 124.713 1.96959 0.553927 0
M  V30 1292 H 124.723 2.98763 2.77857 0
M  V30 1293 H 123.398 3.70962 1.88043 0
M  V30 1294 H 121.975 2.24377 2.97841 0
M  V30 1295 N 124.16 -0.719506 1.40217 0
M  V30 1296 C 125.385 -1.51371 1.4178 0
M  V30 1297 C 125.81 -1.88091 0.0182355 0
M  V30 1298 O 125.168 -1.52997 -0.972707 0
M  V30 1299 C 125.216 -2.768 2.31115 0
M  V30 1300 O 124.32 -3.73349 1.7517 0
M  V30 1301 H 123.661 -0.456529 0.482159 0
M  V30 1302 H 126.191 -0.88644 1.844 0
M  V30 1303 H 126.201 -3.25371 2.46167 0
M  V30 1304 H 124.876 -2.49407 3.3282 0
M  V30 1305 H 123.453 -3.32179 1.69444 0
M  V30 1306 N 125.638 -1.25649 -0.95132 0
M  V30 1307 C 126.568 -1.08808 -2.06599 0
M  V30 1308 C 127.549 0.00382547 -1.701 0
M  V30 1309 O 128.734 -0.166325 -1.93486 0
M  V30 1310 C 125.864 -0.709542 -3.39975 0
M  V30 1311 C 124.818 -1.75206 -3.90496 0
M  V30 1312 C 124.144 -1.22811 -5.20405 0
M  V30 1313 C 125.444 -3.15153 -4.16504 0
M  V30 1314 H 127.138 -2.02048 -2.20946 0
M  V30 1315 H 124.684 -0.972835 -1.06169 0
M  V30 1316 H 126.637 -0.578649 -4.17408 0
M  V30 1317 H 125.361 0.258556 -3.25575 0
M  V30 1318 H 124.02 -1.87145 -3.15234 0
M  V30 1319 H 123.668 -0.250145 -5.02378 0
M  V30 1320 H 123.368 -1.92492 -5.55176 0
M  V30 1321 H 124.892 -1.10968 -6.00432 0
M  V30 1322 H 126.306 -3.06349 -4.84586 0
M  V30 1323 H 124.703 -3.82333 -4.62538 0
M  V30 1324 H 125.773 -3.61966 -3.22658 0
M  V30 1325 N 127.117 1.15442 -1.07289 0
M  V30 1326 C 128.533 1.38201 -0.798288 0
M  V30 1327 C 128.733 1.92429 0.597769 0
M  V30 1328 O 127.789 2.12962 1.3566 0
M  V30 1329 C 129.102 2.35357 -1.87156 0
M  V30 1330 C 130.65 2.49021 -1.89624 0
M  V30 1331 C 131.125 3.49468 -2.96034 0
M  V30 1332 N 132.616 3.57003 -2.95132 0
M  V30 1333 C 133.351 4.34543 -3.74112 0
M  V30 1334 N 132.847 5.15421 -4.6294 0
M  V30 1335 N 134.64 4.29625 -3.62462 0
M  V30 1336 H 126.791 0.78584 -1.97328 0
M  V30 1337 H 129.054 0.408065 -0.855679 0
M  V30 1338 H 128.76 2.02626 -2.87464 0
M  V30 1339 H 128.634 3.35129 -1.73114 0
M  V30 1340 H 131.021 2.81051 -0.899687 0
M  V30 1341 H 131.102 1.4925 -2.07745 0
M  V30 1342 H 130.746 3.18173 -3.95889 0
M  V30 1343 H 130.676 4.48992 -2.75161 0
M  V30 1344 H 133.167 2.99276 -2.30743 0
M  V30 1345 H 133.48 5.7183 -5.19837 0
M  V30 1346 H 131.825 5.14729 -4.66989 0
M  V30 1347 H 135.016 3.65505 -2.92444 0
M  V30 1348 H 135.189 4.89807 -4.24256 0
M  V30 1349 N 128.595 0.856903 1.32268 0
M  V30 1350 C 129.82 0.474569 2.01897 0
M  V30 1351 C 130.245 -0.921766 1.63967 0
M  V30 1352 O 129.603 -1.60589 0.84148 0
M  V30 1353 C 129.651 0.623799 3.55164 0
M  V30 1354 O 128.755 -0.342459 4.10976 0
M  V30 1355 H 128.096 0.190422 0.63611 0
M  V30 1356 H 130.626 1.15672 1.68764 0
M  V30 1357 H 130.636 0.512169 4.04773 0
M  V30 1358 H 129.311 1.64202 3.82113 0
M  V30 1359 H 127.888 -0.18688 3.72431 0
M  V30 1360 N 130.073 -1.45103 0.615059 0
M  V30 1361 C 130.983 -2.34382 -0.101034 0
M  V30 1362 C 131.999 -1.51681 -0.852585 0
M  V30 1363 O 133.175 -1.8446 -0.808484 0
M  V30 1364 C 130.24 -3.29417 -1.08099 0
M  V30 1365 C 129.301 -4.28025 -0.330577 0
M  V30 1366 C 128.534 -5.1852 -1.26385 0
M  V30 1367 O 128.757 -5.12598 -2.50198 0
M  V30 1368 O 127.691 -5.97122 -0.756866 0
M  V30 1369 H 131.517 -2.97033 0.632855 0
M  V30 1370 H 129.102 -1.4461 0.375293 0
M  V30 1371 H 130.984 -3.87958 -1.6452 0
M  V30 1372 H 129.659 -2.69321 -1.79577 0
M  V30 1373 H 128.566 -3.73078 0.276283 0
M  V30 1374 H 129.899 -4.90997 0.343866 0
M  V30 1375 N 131.551 -0.354651 -1.53558 0
M  V30 1376 C 132.828 0.294281 -1.93374 0
M  V30 1377 C 133.208 1.67313 -1.28723 0
M  V30 1378 O 132.556 2.24179 -0.442247 0
M  V30 1379 C 132.766 0.355445 -3.47185 0
M  V30 1380 C 134.114 0.601007 -4.20325 0
M  V30 1381 O 135.138 0.437106 -3.53508 0
M  V30 1382 O 133.997 0.919322 -5.38712 0
M  V30 1383 H 131.091 0.174033 -0.808481 0
M  V30 1384 H 133.637 -0.406638 -1.64756 0
M  V30 1385 H 132.409 -0.611729 -3.86489 0
M  V30 1386 H 132.032 1.1027 -3.82003 0
M  V30 1387 N 133.029 1.57378 -0.0835403 0
M  V30 1388 C 134.257 1.98263 0.59157 0
M  V30 1389 C 134.672 0.962302 1.62435 0
M  V30 1390 O 134.029 -0.049581 1.82433 0
M  V30 1391 C 134.08 3.39214 1.24965 0
M  V30 1392 O 133.801 4.37339 0.258186 0
M  V30 1393 C 135.302 3.95038 2.01147 0
M  V30 1394 H 132.522 0.651773 0.159477 0
M  V30 1395 H 135.066 2.03878 -0.159415 0
M  V30 1396 H 133.221 3.34649 1.95164 0
M  V30 1397 H 133.635 5.19371 0.731734 0
M  V30 1398 H 135.109 4.95848 2.42567 0
M  V30 1399 H 135.586 3.32222 2.87272 0
M  V30 1400 H 136.192 4.0304 1.35789 0
M  V30 1401 N 134.507 -0.190092 1.56449 0
M  V30 1402 C 135.47 -1.21925 1.9408 0
M  V30 1403 C 136.47 -1.38176 0.822431 0
M  V30 1404 O 137.66 -1.35903 1.08977 0
M  V30 1405 C 134.792 -2.58773 2.21922 0
M  V30 1406 H 135.985 -0.897464 2.86157 0
M  V30 1407 H 133.538 -0.43181 1.50217 0
M  V30 1408 H 134.273 -2.95998 1.32499 0
M  V30 1409 H 134.058 -2.48348 3.03424 0
M  V30 1410 H 135.548 -3.32978 2.52022 0
M  V30 1411 N 135.985 -1.50799 -0.457987 0
M  V30 1412 C 137.231 -1.62683 -1.21088 0
M  V30 1413 C 137.564 -0.332268 -1.91336 0
M  V30 1414 O 136.839 0.667043 -1.82704 0
M  V30 1415 C 137.122 -2.81615 -2.24422 0
M  V30 1416 C 136.975 -4.20989 -1.58392 0
M  V30 1417 C 138.294 -2.96085 -3.2561 0
M  V30 1418 H 135.413 -0.592087 -0.438864 0
M  V30 1419 H 138.055 -1.83225 -0.50286 0
M  V30 1420 H 136.205 -2.64231 -2.84806 0
M  V30 1421 H 137.877 -4.49994 -1.01504 0
M  V30 1422 H 136.12 -4.24641 -0.886704 0
M  V30 1423 H 136.791 -5.0016 -2.33547 0
M  V30 1424 H 139.267 -3.12042 -2.75262 0
M  V30 1425 H 138.143 -3.80902 -3.95228 0
M  V30 1426 H 138.404 -2.0726 -3.90507 0
M  V30 1427 N 137.463 0.71206 -1.40597 0
M  V30 1428 C 138.693 1.49894 -1.42181 0
M  V30 1429 C 139.101 1.89189 -0.0208078 0
M  V30 1430 O 138.444 1.56223 0.966436 0
M  V30 1431 C 138.506 2.80215 -2.25211 0
M  V30 1432 C 138.17 2.63221 -3.73582 0
M  V30 1433 C 139.167 2.30249 -4.66135 0
M  V30 1434 C 136.852 2.79376 -4.17438 0
M  V30 1435 C 138.846 2.13645 -6.00529 0
M  V30 1436 C 136.533 2.6239 -5.51901 0
M  V30 1437 C 137.531 2.29573 -6.43262 0
M  V30 1438 O 137.219 2.12719 -7.75246 0
M  V30 1439 H 136.951 0.469031 -0.486812 0
M  V30 1440 H 139.505 0.88564 -1.85326 0
M  V30 1441 H 137.735 3.4389 -1.76852 0
M  V30 1442 H 139.424 3.41947 -2.18694 0
M  V30 1443 H 140.19 2.17398 -4.33547 0
M  V30 1444 H 136.069 3.03906 -3.46644 0
M  V30 1445 H 139.613 1.87953 -6.71803 0
M  V30 1446 H 135.51 2.74826 -5.84073 0
M  V30 1447 H 136.278 2.27611 -7.86216 0
M  V30 1448 N 138.941 1.26152 0.944643 0
M  V30 1449 C 140.171 1.14094 1.72239 0
M  V30 1450 C 140.579 -0.306931 1.86694 0
M  V30 1451 O 139.922 -1.22222 1.3714 0
M  V30 1452 C 139.984 1.73316 3.14963 0
M  V30 1453 C 139.648 3.2239 3.23904 0
M  V30 1454 C 140.645 4.19252 3.07447 0
M  V30 1455 C 138.33 3.62788 3.47405 0
M  V30 1456 C 140.324 5.54491 3.14353 0
M  V30 1457 C 138.011 4.98162 3.53947 0
M  V30 1458 C 139.009 5.93823 3.37436 0
M  V30 1459 O 138.697 7.26732 3.43679 0
M  V30 1460 H 138.429 0.398292 0.546205 0
M  V30 1461 H 140.983 1.67201 1.19301 0
M  V30 1462 H 139.213 1.14667 3.69308 0
M  V30 1463 H 140.902 1.56214 3.74636 0
M  V30 1464 H 141.668 3.8938 2.8915 0
M  V30 1465 H 137.547 2.88816 3.59313 0
M  V30 1466 H 141.091 6.29137 3.01384 0
M  V30 1467 H 136.988 5.27695 3.71763 0
M  V30 1468 H 137.756 7.3496 3.60245 0
M  V30 1469 N 140.419 -1.14872 1.07899 0
M  V30 1470 C 141.659 -1.8745 0.814965 0
M  V30 1471 C 142.023 -1.80758 -0.64733 0
M  V30 1472 O 143.224 -2.48422 -1.02664 0
M  V30 1473 C 141.495 -3.32286 1.31607 0
M  V30 1474 S 143.054 -4.22537 1.18357 0
M  V30 1475 H 139.872 -0.646833 0.295174 0
M  V30 1476 H 142.474 -1.38555 1.37923 0
M  V30 1477 H 141.178 -3.34703 2.37491 0
M  V30 1478 H 140.709 -3.86238 0.747261 0
M  V30 1479 H 142.724 -4.96044 0.124586 0
M  V30 1480 N 141.898 -0.863906 -1.31812 0
M  V30 1481 C 142.861 -0.320212 -2.26952 0
M  V30 1482 C 143.861 0.525369 -1.51975 0
M  V30 1483 O 145.051 0.335547 -1.70938 0
M  V30 1484 C 142.183 0.545919 -3.365 0
M  V30 1485 H 143.376 -1.16004 -2.76556 0
M  V30 1486 H 140.929 -0.638995 -1.42641 0
M  V30 1487 H 141.664 1.40718 -2.92179 0
M  V30 1488 H 141.449 -0.0594674 -3.92055 0
M  V30 1489 H 142.939 0.918796 -4.07367 0
M  V30 1490 N 143.376 1.44774 -0.622745 0
M  V30 1491 C 144.792 1.56986 -0.287652 0
M  V30 1492 C 144.992 1.61167 1.20944 0
M  V30 1493 O 144.048 1.55015 1.99315 0
M  V30 1494 C 145.361 2.84551 -0.972188 0
M  V30 1495 C 146.909 2.9825 -0.949536 0
M  V30 1496 C 147.384 4.28605 -1.61437 0
M  V30 1497 N 148.875 4.35399 -1.58057 0
M  V30 1498 C 149.61 5.34964 -2.064 0
M  V30 1499 N 149.106 6.40981 -2.62897 0
M  V30 1500 N 150.899 5.26419 -1.97078 0
M  V30 1501 H 143.05 1.40304 -1.59463 0
M  V30 1502 H 145.313 0.671794 -0.668878 0
M  V30 1503 H 145.019 2.87417 -2.02693 0
M  V30 1504 H 144.893 3.73807 -0.504771 0
M  V30 1505 H 147.28 2.94941 0.0967067 0
M  V30 1506 H 147.361 2.10364 -1.45536 0
M  V30 1507 H 147.005 4.32672 -2.66002 0
M  V30 1508 H 146.935 5.15334 -1.08344 0
M  V30 1509 H 149.426 3.59397 -1.16801 0
M  V30 1510 H 149.739 7.13225 -2.97539 0
M  V30 1511 H 148.084 6.4169 -2.66943 0
M  V30 1512 H 151.275 4.42504 -1.52669 0
M  V30 1513 H 151.448 6.03861 -2.35066 0
M  V30 1514 N 144.854 0.36279 1.53368 0
M  V30 1515 C 146.102 -0.227326 2.00817 0
M  V30 1516 C 146.423 -1.49511 1.25186 0
M  V30 1517 O 145.693 -1.92482 0.364348 0
M  V30 1518 H 144.273 -0.0869923 0.741917 0
M  V30 1519 H 146.935 0.488381 1.88682 0
M  V30 1520 H 146.031 -0.456273 3.08747 0
M  V30 1521 N 146.332 -1.57332 0.0918853 0
M  V30 1522 C 147.58 -1.93853 -0.571446 0
M  V30 1523 C 147.901 -0.974212 -1.6892 0
M  V30 1524 O 147.171 -0.0257254 -1.95883 0
M  V30 1525 H 145.751 -0.715666 -0.214082 0
M  V30 1526 H 148.413 -1.94287 0.154464 0
M  V30 1527 H 147.509 -2.96191 -0.983729 0
M  V30 1528 N 147.81 0.181792 -1.56548 0
M  V30 1529 C 149.058 0.89832 -1.81038 0
M  V30 1530 C 149.379 1.83232 -0.667164 0
M  V30 1531 O 148.649 1.93372 0.313673 0
M  V30 1532 H 147.229 0.33471 -0.667816 0
M  V30 1533 H 149.891 0.184116 -1.94028 0
M  V30 1534 H 148.987 1.4815 -2.74696 0
M  V30 1535 N 149.288 1.51039 0.449983 0
M  V30 1536 C 150.534 1.63322 1.20223 0
M  V30 1537 C 150.867 0.34241 1.91158 0
M  V30 1538 O 150.142 -0.657344 1.83055 0
M  V30 1539 C 150.425 2.82801 2.22925 0
M  V30 1540 C 150.278 4.21823 1.56157 0
M  V30 1541 C 151.597 2.97807 3.24035 0
M  V30 1542 H 148.716 0.594407 0.435718 0
M  V30 1543 H 151.358 1.83489 0.493136 0
M  V30 1544 H 149.508 2.65738 2.834 0
M  V30 1545 H 151.18 4.50526 0.991162 0
M  V30 1546 H 149.423 4.25105 0.864172 0
M  V30 1547 H 150.094 5.01391 2.30891 0
M  V30 1548 H 152.57 3.13497 2.73603 0
M  V30 1549 H 151.446 3.82992 3.93202 0
M  V30 1550 H 151.707 2.09328 3.89402 0
M  V30 1551 N 150.766 -0.704594 1.40972 0
M  V30 1552 C 152.013 -1.46458 1.39844 0
M  V30 1553 C 152.341 -1.94499 0.00447594 0
M  V30 1554 O 151.596 -1.69275 -0.982057 0
M  V30 1555 C 151.895 -2.698 2.34399 0
M  V30 1556 C 151.561 -2.40464 3.81429 0
M  V30 1557 C 150.223 -2.32174 4.21484 0
M  V30 1558 C 152.575 -2.16086 4.74296 0
M  V30 1559 C 149.903 -1.97589 5.52427 0
M  V30 1560 C 152.255 -1.83011 6.05549 0
M  V30 1561 C 150.919 -1.7321 6.44635 0
M  V30 1562 H 150.189 -0.535927 0.511725 0
M  V30 1563 H 152.836 -0.806124 1.73706 0
M  V30 1564 H 151.141 -3.40536 1.93759 0
M  V30 1565 H 152.838 -3.27919 2.30804 0
M  V30 1566 H 149.428 -2.47808 3.49699 0
M  V30 1567 H 153.612 -2.2144 4.4416 0
M  V30 1568 H 148.868 -1.88547 5.81601 0
M  V30 1569 H 153.042 -1.63164 6.77016 0
M  V30 1570 H 150.669 -1.46179 7.46013 0
M  V30 1571 N 152.244 -1.26651 -0.937939 0
M  V30 1572 C 153.521 -1.0313 -1.66204 0
M  V30 1573 C 153.901 0.437256 -2.06522 0
M  V30 1574 O 153.249 1.41831 -1.79154 0
M  V30 1575 C 153.459 -1.98314 -2.87181 0
M  V30 1576 C 154.807 -2.27107 -3.58758 0
M  V30 1577 O 155.831 -1.96205 -2.97291 0
M  V30 1578 O 154.69 -2.79736 -4.69479 0
M  V30 1579 H 151.784 -0.392384 -0.727986 0
M  V30 1580 H 154.33 -1.37874 -0.989382 0
M  V30 1581 H 153.102 -2.97399 -2.54302 0
M  V30 1582 H 152.725 -1.64068 -3.6217 0
M  V30 1583 N 153.722 1.14298 -1.08507 0
M  V30 1584 C 154.952 1.88945 -0.835663 0
M  V30 1585 C 155.36 1.78894 0.615928 0
M  V30 1586 O 154.703 1.1468 1.43506 0
M  V30 1587 C 154.765 3.39585 -1.17994 0
M  V30 1588 C 154.429 3.7342 -2.63451 0
M  V30 1589 C 155.426 3.73454 -3.61702 0
M  V30 1590 C 153.111 4.03368 -2.99332 0
M  V30 1591 C 155.105 4.02961 -4.93864 0
M  V30 1592 C 152.792 4.32538 -4.31687 0
M  V30 1593 C 153.79 4.32318 -5.28763 0
M  V30 1594 O 153.478 4.6078 -6.58739 0
M  V30 1595 H 153.21 0.605307 -0.300965 0
M  V30 1596 H 155.764 1.45673 -1.44806 0
M  V30 1597 H 153.994 3.83315 -0.51055 0
M  V30 1598 H 155.683 3.9554 -0.911182 0
M  V30 1599 H 156.449 3.50403 -3.35325 0
M  V30 1600 H 152.328 4.02692 -2.24411 0
M  V30 1601 H 155.872 4.02704 -5.69627 0
M  V30 1602 H 151.769 4.55059 -4.57812 0
M  V30 1603 H 152.537 4.78492 -6.64069 0
M  V30 1604 N 155.201 0.870884 1.31352 0
M  V30 1605 C 156.447 0.492314 1.97352 0
M  V30 1606 C 156.802 -0.945174 1.67583 0
M  V30 1607 O 156.095 -1.65674 0.962423 0
M  V30 1608 C 156.289 0.687157 3.50732 0
M  V30 1609 C 156.118 2.14203 3.95407 0
M  V30 1610 C 154.888 2.78382 4.21701 0
M  V30 1611 C 157.086 3.1144 4.09279 0
M  V30 1612 N 155.068 4.14611 4.52737 0
M  V30 1613 C 156.439 4.32702 4.44037 0
M  V30 1614 C 158.494 3.07418 3.91661 0
M  V30 1615 C 157.197 5.50463 4.63015 0
M  V30 1616 C 159.223 4.24438 4.11833 0
M  V30 1617 C 158.585 5.44463 4.46923 0
M  V30 1618 H 154.684 0.229206 0.747655 0
M  V30 1619 H 157.268 1.12568 1.5886 0
M  V30 1620 H 155.439 0.083384 3.8831 0
M  V30 1621 H 157.171 0.276883 4.03752 0
M  V30 1622 H 153.926 2.29326 4.14375 0
M  V30 1623 H 154.35 4.84928 4.72413 0
M  V30 1624 H 158.992 2.15732 3.6362 0
M  V30 1625 H 156.71 6.42666 4.89904 0
M  V30 1626 H 160.296 4.2278 3.99685 0
M  V30 1627 H 159.176 6.33504 4.62214 0
M  V30 1628 N 156.679 -1.44442 0.630414 0
M  V30 1629 C 157.927 -2.01653 0.134351 0
M  V30 1630 C 158.248 -1.49836 -1.24796 0
M  V30 1631 O 157.518 -0.701684 -1.82902 0
M  V30 1632 H 156.098 -0.74554 0.0466769 0
M  V30 1633 H 158.76 -1.76952 0.816955 0
M  V30 1634 H 157.856 -3.11935 0.101498 0
M  V30 1635 N 158.157 -0.370918 -1.53173 0
M  V30 1636 C 159.089 0.507823 -2.23503 0
M  V30 1637 C 160.102 1.04182 -1.251 0
M  V30 1638 O 161.291 0.947286 -1.5129 0
M  V30 1639 C 158.391 1.71447 -2.92334 0
M  V30 1640 C 157.564 1.31105 -4.17289 0
M  V30 1641 C 156.623 2.38035 -4.69282 0
M  V30 1642 O 155.649 2.00204 -5.32829 0
M  V30 1643 N 156.851 3.69697 -4.47554 0
M  V30 1644 H 159.616 -0.0946382 -2.99551 0
M  V30 1645 H 157.177 -0.196358 -1.60705 0
M  V30 1646 H 159.169 2.42469 -3.24023 0
M  V30 1647 H 157.739 2.22368 -2.19707 0
M  V30 1648 H 156.959 0.430462 -3.91843 0
M  V30 1649 H 158.247 1.0179 -4.98514 0
M  V30 1650 H 157.645 4.03205 -3.9679 0
M  V30 1651 H 156.202 4.36807 -4.8378 0
M  V30 1652 N 159.635 1.57281 -0.100228 0
M  V30 1653 C 160.883 1.94153 0.561157 0
M  V30 1654 C 161.204 0.983157 1.68401 0
M  V30 1655 O 160.474 0.0361132 1.95867 0
M  V30 1656 H 159.054 0.716791 0.210283 0
M  V30 1657 H 161.716 1.94202 -0.164765 0
M  V30 1658 H 160.812 2.96709 0.968008 0
M  V30 1659 N 161.113 -0.173488 1.56642 0
M  V30 1660 C 162.341 -0.906095 1.86004 0
M  V30 1661 C 162.756 -1.75921 0.685355 0
M  V30 1662 O 162.113 -1.79198 -0.345578 0
M  V30 1663 C 162.164 -1.78462 3.14378 0
M  V30 1664 O 161.885 -0.965914 4.27319 0
M  V30 1665 C 163.386 -2.62707 3.57071 0
M  V30 1666 H 160.606 -0.263341 0.617165 0
M  V30 1667 H 163.15 -0.174236 2.03756 0
M  V30 1668 H 161.305 -2.46984 2.98459 0
M  V30 1669 H 161.719 -1.56655 5.00559 0
M  V30 1670 H 163.193 -3.19969 4.49804 0
M  V30 1671 H 163.67 -3.37472 2.81086 0
M  V30 1672 H 164.276 -1.99521 3.75595 0
M  V30 1673 N 162.591 -1.51276 -0.441967 0
M  V30 1674 C 163.819 -1.67516 -1.21434 0
M  V30 1675 C 164.234 -0.37055 -1.85128 0
M  V30 1676 O 163.591 0.650498 -1.70513 0
M  V30 1677 C 163.642 -2.78748 -2.30177 0
M  V30 1678 O 163.363 -4.04154 -1.69089 0
M  V30 1679 C 164.864 -3.06217 -3.20541 0
M  V30 1680 H 162.084 -0.562276 -0.366178 0
M  V30 1681 H 164.628 -1.97666 -0.524244 0
M  V30 1682 H 162.783 -2.5121 -2.94911 0
M  V30 1683 H 163.197 -4.65894 -2.40922 0
M  V30 1684 H 164.671 -3.8764 -3.92987 0
M  V30 1685 H 165.148 -2.18439 -3.81026 0
M  V30 1686 H 165.754 -3.35397 -2.61513 0
M  V30 1687 N 164.069 0.697108 -1.41344 0
M  V30 1688 C 164.999 1.82353 -1.45841 0
M  V30 1689 C 165.98 1.67115 -0.317247 0
M  V30 1690 O 167.165 1.86871 -0.528474 0
M  V30 1691 C 164.295 3.20476 -1.33838 0
M  V30 1692 C 163.249 3.50415 -2.4575 0
M  V30 1693 C 162.575 4.87878 -2.18813 0
M  V30 1694 C 163.875 3.49546 -3.88091 0
M  V30 1695 H 165.569 1.78846 -2.40113 0
M  V30 1696 H 163.115 0.859028 -1.15571 0
M  V30 1697 H 165.068 3.98988 -1.35596 0
M  V30 1698 H 163.792 3.24604 -0.360498 0
M  V30 1699 H 162.451 2.74253 -2.43271 0
M  V30 1700 H 162.099 4.8863 -1.19371 0
M  V30 1701 H 161.799 5.08875 -2.93803 0
M  V30 1702 H 163.323 5.68702 -2.22284 0
M  V30 1703 H 164.737 4.18066 -3.92293 0
M  V30 1704 H 163.134 3.82075 -4.62751 0
M  V30 1705 H 164.204 2.48552 -4.16353 0
M  V30 1706 N 165.547 1.27147 0.931209 0
M  V30 1707 C 166.775 1.16082 1.71267 0
M  V30 1708 C 167.19 -0.282772 1.8667 0
M  V30 1709 O 166.547 -1.19283 1.38122 0
M  V30 1710 C 166.598 1.8358 3.11417 0
M  V30 1711 O 166.319 3.22299 2.96741 0
M  V30 1712 C 167.82 1.78597 4.05732 0
M  V30 1713 H 165.04 0.403758 0.535929 0
M  V30 1714 H 167.584 1.67953 1.16671 0
M  V30 1715 H 165.739 1.35623 3.62885 0
M  V30 1716 H 166.153 3.55851 3.85319 0
M  V30 1717 H 167.627 2.30444 5.01597 0
M  V30 1718 H 168.104 0.754564 4.3267 0
M  V30 1719 H 168.71 2.26152 3.60188 0
M  V30 1720 N 167.025 -1.13721 1.09112 0
M  V30 1721 C 168.271 -1.85198 0.826414 0
M  V30 1722 C 168.604 -1.83129 -0.646319 0
M  V30 1723 O 167.879 -1.2671 -1.47563 0
M  V30 1724 C 168.162 -3.33507 1.35812 0
M  V30 1725 C 168.015 -3.44108 2.89672 0
M  V30 1726 C 169.334 -4.28838 0.989256 0
M  V30 1727 H 166.453 -0.67243 0.301675 0
M  V30 1728 H 169.095 -1.33499 1.35197 0
M  V30 1729 H 167.245 -3.77666 0.911082 0
M  V30 1730 H 168.917 -3.08684 3.428 0
M  V30 1731 H 167.16 -2.85087 3.26967 0
M  V30 1732 H 167.831 -4.48388 3.21951 0
M  V30 1733 H 170.307 -3.92734 1.37475 0
M  V30 1734 H 169.183 -5.31051 1.38838 0
M  V30 1735 H 169.444 -4.4198 -0.102924 0
M  V30 1736 N 168.503 -0.877838 -1.30888 0
M  V30 1737 C 169.728 -0.506629 -2.01117 0
M  V30 1738 C 170.153 0.895564 -1.65412 0
M  V30 1739 O 169.511 1.5923 -0.866922 0
M  V30 1740 C 169.559 -0.680223 -3.54126 0
M  V30 1741 O 168.663 0.277033 -4.11468 0
M  V30 1742 H 168.004 -0.200518 -0.633 0
M  V30 1743 H 170.534 -1.18342 -1.66902 0
M  V30 1744 H 170.544 -0.5765 -4.03907 0
M  V30 1745 H 169.219 -1.70261 -3.79452 0
M  V30 1746 H 167.796 0.127606 -3.72682 0
M  V30 1747 N 169.982 1.44106 -0.638065 0
M  V30 1748 C 171.207 2.0685 -0.150916 0
M  V30 1749 C 171.632 1.47417 1.16833 0
M  V30 1750 O 170.99 0.578264 1.71831 0
M  V30 1751 C 171.038 3.60555 -0.05708 0
M  V30 1752 O 170.142 4.00465 0.984972 0
M  V30 1753 H 169.483 0.658151 -0.0879399 0
M  V30 1754 H 172.013 1.84865 -0.876707 0
M  V30 1755 H 172.023 4.07789 0.131232 0
M  V30 1756 H 170.698 4.03193 -1.02021 0
M  V30 1757 H 169.275 3.64849 0.770672 0
M  V30 1758 N 171.46 0.379036 1.52974 0
M  V30 1759 C 172.708 -0.206014 2.01047 0
M  V30 1760 C 173.029 -1.48175 1.26765 0
M  V30 1761 O 172.299 -1.92085 0.384743 0
M  V30 1762 H 170.879 -0.0791184 0.742798 0
M  V30 1763 H 173.541 0.508366 1.88153 0
M  V30 1764 H 172.637 -0.423501 3.09213 0
M  V30 1765 N 172.938 -1.57226 0.108567 0
M  V30 1766 C 174.349 -1.8195 -0.418464 0
M  V30 1767 C 174.7 -1.02508 -1.67292 0
M  V30 1768 O 173.825 -0.258496 -2.14851 0
M  V30 1769 C 174.42 -3.30028 -0.765979 0
M  V30 1770 C 172.979 -3.55469 -1.23769 0
M  V30 1771 C 172.126 -2.7625 -0.241106 0
M  V30 1772 H 175.077 -1.55149 0.33384 0
M  V30 1773 H 175.098 -3.44086 -1.62434 0
M  V30 1774 H 174.61 -3.87821 0.147219 0
M  V30 1775 H 172.711 -3.03022 -2.16814 0
M  V30 1776 H 172.824 -4.6408 -1.19022 0
M  V30 1777 H 171.188 -2.44133 -0.72602 0
M  V30 1778 H 171.971 -3.36797 0.665007 0
M  V30 1779 N 174.416 0.165178 -1.56732 0
M  V30 1780 C 175.641 0.900253 -1.86843 0
M  V30 1781 C 176.066 1.74766 -0.695596 0
M  V30 1782 O 175.424 1.77786 0.35522 0
M  V30 1783 C 175.472 1.74777 -3.15413 0
M  V30 1784 O 174.576 2.85007 -2.98068 0
M  V30 1785 H 173.917 0.251832 -0.614391 0
M  V30 1786 H 176.447 0.161468 -2.03962 0
M  V30 1787 H 176.457 2.14646 -3.46974 0
M  V30 1788 H 175.132 1.12537 -4.00385 0
M  V30 1789 H 173.709 2.48676 -2.77875 0
M  V30 1790 N 175.894 1.51508 0.433938 0
M  V30 1791 C 177.14 1.64588 1.18484 0
M  V30 1792 C 177.473 0.362666 1.90784 0
M  V30 1793 O 176.748 -0.637892 1.83742 0
M  V30 1794 C 177.031 2.85149 2.19913 0
M  V30 1795 C 176.884 4.23456 1.51674 0
M  V30 1796 C 178.203 3.01227 3.20858 0
M  V30 1797 H 175.322 0.598994 0.429389 0
M  V30 1798 H 177.964 1.84002 0.473647 0
M  V30 1799 H 176.114 2.68729 2.80566 0
M  V30 1800 H 177.786 4.51552 0.943322 0
M  V30 1801 H 176.029 4.25998 0.819035 0
M  V30 1802 H 176.7 5.03812 2.2556 0
M  V30 1803 H 179.176 3.16382 2.70263 0
M  V30 1804 H 178.052 3.87141 3.89118 0
M  V30 1805 H 178.313 2.13447 3.8716 0
M  V30 1806 N 177.372 -0.689602 1.41712 0
M  V30 1807 C 178.619 -1.44966 1.4139 0
M  V30 1808 C 178.947 -1.94484 0.025105 0
M  V30 1809 O 178.202 -1.70307 -0.964048 0
M  V30 1810 C 178.501 -2.67298 2.37247 0
M  V30 1811 C 178.167 -2.36405 3.83958 0
M  V30 1812 C 176.829 -2.27691 4.23923 0
M  V30 1813 C 179.181 -2.11043 4.76561 0
M  V30 1814 C 176.509 -1.91719 5.54492 0
M  V30 1815 C 178.861 -1.76578 6.07456 0
M  V30 1816 C 177.525 -1.66363 6.46436 0
M  V30 1817 H 176.795 -0.53047 0.517381 0
M  V30 1818 H 179.442 -0.787655 1.74552 0
M  V30 1819 H 177.747 -3.38461 1.9736 0
M  V30 1820 H 179.444 -3.25452 2.34269 0
M  V30 1821 H 176.034 -2.44085 3.52308 0
M  V30 1822 H 180.218 -2.16717 4.46483 0
M  V30 1823 H 175.474 -1.82367 5.83568 0
M  V30 1824 H 179.648 -1.55974 6.78708 0
M  V30 1825 H 177.275 -1.38258 7.47522 0
M  V30 1826 N 178.85 -1.27639 -0.924453 0
M  V30 1827 C 180.261 -1.12834 -1.48746 0
M  V30 1828 C 180.612 0.285505 -1.94112 0
M  V30 1829 O 179.737 1.17874 -1.81479 0
M  V30 1830 C 180.332 -2.04217 -2.70334 0
M  V30 1831 C 178.891 -1.93509 -3.22848 0
M  V30 1832 C 178.038 -1.96583 -1.95577 0
M  V30 1833 H 180.989 -1.40484 -0.738233 0
M  V30 1834 H 181.01 -1.59989 -3.4523 0
M  V30 1835 H 180.522 -3.07111 -2.37285 0
M  V30 1836 H 178.623 -0.936131 -3.60649 0
M  V30 1837 H 178.736 -2.79917 -3.88823 0
M  V30 1838 H 177.1 -1.4085 -2.12211 0
M  V30 1839 H 177.883 -3.01137 -1.64837 0
M  V30 1840 N 180.328 1.1314 -1.09713 0
M  V30 1841 C 181.258 2.20748 -0.761102 0
M  V30 1842 C 182.239 1.68061 0.262566 0
M  V30 1843 O 183.424 1.93765 0.129977 0
M  V30 1844 C 180.554 3.46812 -0.184054 0
M  V30 1845 C 179.508 4.12606 -1.13757 0
M  V30 1846 C 178.834 5.33031 -0.422083 0
M  V30 1847 C 180.134 4.59603 -2.48118 0
M  V30 1848 H 181.828 2.49113 -1.66082 0
M  V30 1849 H 179.374 1.19734 -0.799987 0
M  V30 1850 H 181.327 4.21353 0.0631215 0
M  V30 1851 H 180.051 3.17851 0.750868 0
M  V30 1852 H 178.71 3.40036 -1.37007 0
M  V30 1853 H 178.358 5.00335 0.517072 0
M  V30 1854 H 178.058 5.77999 -1.05788 0
M  V30 1855 H 179.582 6.10325 -0.183277 0
M  V30 1856 H 180.996 5.25552 -2.29059 0
M  V30 1857 H 179.393 5.15321 -3.07514 0
M  V30 1858 H 180.463 3.73971 -3.08665 0
M  V30 1859 N 181.806 0.884767 1.30421 0
M  V30 1860 C 182.769 0.356277 2.26414 0
M  V30 1861 C 183.769 -0.501124 1.52792 0
M  V30 1862 O 184.959 -0.30831 1.7145 0
M  V30 1863 C 182.091 -0.492316 3.37326 0
M  V30 1864 H 183.284 1.20389 2.74675 0
M  V30 1865 H 180.837 0.661607 1.41607 0
M  V30 1866 H 181.572 -1.36052 2.94381 0
M  V30 1867 H 181.357 0.121832 3.91911 0
M  V30 1868 H 182.847 -0.853871 4.08777 0
M  V30 1869 N 183.284 -1.43765 0.645699 0
M  V30 1870 C 184.695 -1.85193 0.236719 0
M  V30 1871 C 185.046 -1.54045 -1.21509 0
M  V30 1872 O 184.171 -0.985694 -1.92647 0
M  V30 1873 C 184.766 -3.36151 0.422845 0
M  V30 1874 C 183.325 -3.76338 0.0682492 0
M  V30 1875 C 182.472 -2.67538 0.729306 0
M  V30 1876 H 185.423 -1.34025 0.849883 0
M  V30 1877 H 185.444 -3.79032 -0.333904 0
M  V30 1878 H 184.956 -3.5879 1.47958 0
M  V30 1879 H 183.057 -3.59312 -0.986179 0
M  V30 1880 H 183.17 -4.76603 0.488469 0
M  V30 1881 H 181.534 -2.54176 0.163235 0
M  V30 1882 H 182.317 -2.93006 1.78892 0
M  V30 1883 N 184.763 -0.387143 -1.52771 0
M  V30 1884 C 185.988 0.198407 -2.06449 0
M  V30 1885 C 186.413 1.39918 -1.25716 0
M  V30 1886 O 185.771 1.79099 -0.281657 0
M  V30 1887 C 185.819 0.548893 -3.56398 0
M  V30 1888 O 184.923 1.64315 -3.78252 0
M  V30 1889 H 184.264 0.0237731 -0.663574 0
M  V30 1890 H 186.794 -0.553989 -1.96957 0
M  V30 1891 H 186.804 0.813812 -3.99801 0
M  V30 1892 H 185.479 -0.329005 -4.14597 0
M  V30 1893 H 184.056 1.37211 -3.46738 0
M  V30 1894 N 186.241 1.57166 -0.116904 0
M  V30 1895 C 187.466 1.999 0.55271 0
M  V30 1896 C 187.891 0.996039 1.59564 0
M  V30 1897 O 187.249 -0.032556 1.81271 0
M  V30 1898 C 187.297 3.4152 1.15742 0
M  V30 1899 O 186.401 3.44106 2.27299 0
M  V30 1900 H 185.742 0.649447 0.138258 0
M  V30 1901 H 188.272 2.03573 -0.204759 0
M  V30 1902 H 188.282 3.79684 1.49346 0
M  V30 1903 H 186.957 4.14034 0.393493 0
M  V30 1904 H 185.534 3.17759 1.9515 0
M  V30 1905 N 187.719 -0.156864 1.56817 0
M  V30 1906 C 188.666 -1.19394 1.97519 0
M  V30 1907 C 189.636 -1.4322 0.841265 0
M  V30 1908 O 190.821 -1.55719 1.10255 0
M  V30 1909 C 187.961 -2.52483 2.35258 0
M  V30 1910 C 187.074 -2.35914 3.61896 0
M  V30 1911 C 186.209 -3.61969 3.88782 0
M  V30 1912 C 185.248 -3.40395 5.08722 0
M  V30 1913 N 184.385 -4.58556 5.31668 0
M  V30 1914 H 189.225 -0.839845 2.85921 0
M  V30 1915 H 186.762 -0.403264 1.41464 0
M  V30 1916 H 188.72 -3.30071 2.55165 0
M  V30 1917 H 187.35 -2.85859 1.49949 0
M  V30 1918 H 186.402 -1.49429 3.49821 0
M  V30 1919 H 187.714 -2.15926 4.49641 0
M  V30 1920 H 186.868 -4.47989 4.09135 0
M  V30 1921 H 185.607 -3.84951 2.9944 0
M  V30 1922 H 184.612 -2.52763 4.88253 0
M  V30 1923 H 185.837 -3.18822 5.99608 0
M  V30 1924 H 183.783 -4.81729 4.45279 0
M  V30 1925 H 183.7 -4.41535 6.13664 0
M  V30 1926 H 184.968 -5.45817 5.5651 0
M  V30 1927 N 189.197 -1.51736 -0.425897 0
M  V30 1928 C 190.422 -1.69082 -1.20108 0
M  V30 1929 C 190.847 -0.392398 -1.83962 0
M  V30 1930 O 190.205 0.64858 -1.69302 0
M  V30 1931 C 190.253 -2.81604 -2.25237 0
M  V30 1932 O 189.357 -2.46004 -3.30992 0
M  V30 1933 H 188.698 -0.563408 -0.35138 0
M  V30 1934 H 191.228 -1.98358 -0.501512 0
M  V30 1935 H 191.238 -3.06025 -2.69838 0
M  V30 1936 H 189.913 -3.75817 -1.78142 0
M  V30 1937 H 188.49 -2.32195 -2.91787 0
M  V30 1938 N 190.675 0.682077 -1.42076 0
M  V30 1939 C 191.903 1.47057 -1.4554 0
M  V30 1940 C 192.318 1.8869 -0.0645779 0
M  V30 1941 O 191.675 1.57666 0.919115 0
M  V30 1942 C 191.726 2.72442 -2.37609 0
M  V30 1943 O 191.447 2.32559 -3.71279 0
M  V30 1944 C 192.948 3.66069 -2.50017 0
M  V30 1945 H 190.168 0.452737 -0.495248 0
M  V30 1946 H 192.712 0.838695 -1.8651 0
M  V30 1947 H 190.867 3.31835 -1.9991 0
M  V30 1948 H 191.281 3.13475 -4.20516 0
M  V30 1949 H 192.755 4.50792 -3.18576 0
M  V30 1950 H 193.232 4.11476 -1.53572 0
M  V30 1951 H 193.838 3.12572 -2.88407 0
M  V30 1952 N 192.153 1.28127 0.917671 0
M  V30 1953 C 193.378 1.18007 1.70555 0
M  V30 1954 C 193.803 -0.258257 1.86319 0
M  V30 1955 O 193.161 -1.1869 1.37049 0
M  V30 1956 C 193.209 1.87948 3.07746 0
M  V30 1957 O 192.313 1.18427 3.9503 0
M  V30 1958 H 191.654 0.409867 0.522403 0
M  V30 1959 H 194.184 1.69379 1.1477 0
M  V30 1960 H 194.194 1.95701 3.58001 0
M  V30 1961 H 192.869 2.92573 2.95591 0
M  V30 1962 H 191.446 1.18811 3.53466 0
M  V30 1963 N 193.631 -1.12557 1.10312 0
M  V30 1964 C 194.879 -1.83675 0.843091 0
M  V30 1965 C 195.2 -1.84435 -0.633131 0
M  V30 1966 O 194.47 -1.30657 -1.45964 0
M  V30 1967 H 193.05 -0.680138 0.308904 0
M  V30 1968 H 195.712 -1.36301 1.39313 0
M  V30 1969 H 194.808 -2.87908 1.2048 0
M  V30 1970 N 195.109 -0.891671 -1.2995 0
M  V30 1971 C 196.357 -0.512486 -1.95494 0
M  V30 1972 C 196.678 0.942776 -1.70695 0
M  V30 1973 O 195.948 1.66374 -1.03424 0
M  V30 1974 H 194.528 -0.186533 -0.723336 0
M  V30 1975 H 197.19 -1.13621 -1.58355 0
M  V30 1976 H 196.286 -0.688342 -3.04415 0
M  V30 1977 N 196.587 1.43421 -0.653314 0
M  V30 1978 C 197.815 2.06163 -0.174491 0
M  V30 1979 C 198.23 1.48969 1.1599 0
M  V30 1980 O 197.587 0.621042 1.71608 0
M  V30 1981 C 197.638 3.61417 -0.0774865 0
M  V30 1982 O 197.359 4.16485 -1.35912 0
M  V30 1983 C 198.86 4.41235 0.427402 0
M  V30 1984 H 196.08 0.664946 -0.0899353 0
M  V30 1985 H 198.624 1.83924 -0.893988 0
M  V30 1986 H 196.779 3.82841 0.59257 0
M  V30 1987 H 197.193 5.10153 -1.21839 0
M  V30 1988 H 198.667 5.5021 0.44423 0
M  V30 1989 H 199.144 4.14268 1.45873 0
M  V30 1990 H 199.75 4.2478 -0.210167 0
M  V30 1991 N 198.065 0.39524 1.52563 0
M  V30 1992 C 199.028 -0.425001 2.25225 0
M  V30 1993 C 200.028 -0.985266 1.27079 0
M  V30 1994 O 201.218 -0.866332 1.5113 0
M  V30 1995 C 198.35 -1.59686 3.01186 0
M  V30 1996 H 199.543 0.211233 2.99155 0
M  V30 1997 H 197.096 0.147472 1.55603 0
M  V30 1998 H 197.831 -2.27035 2.31572 0
M  V30 1999 H 197.616 -1.20176 3.73229 0
M  V30 2000 H 199.106 -2.17743 3.5634 0
M  V30 2001 N 199.544 -1.57102 0.125237 0
M  V30 2002 C 200.507 -2.14471 -0.80838 0
M  V30 2003 C 201.507 -1.0811 -1.19033 0
M  V30 2004 O 202.697 -1.33856 -1.11482 0
M  V30 2005 C 199.829 -2.69005 -2.09402 0
M  V30 2006 H 201.022 -2.98297 -0.309696 0
M  V30 2007 H 198.575 -1.55807 -0.124051 0
M  V30 2008 H 199.31 -1.88785 -2.63687 0
M  V30 2009 H 199.095 -3.46799 -1.82957 0
M  V30 2010 H 200.585 -3.13278 -2.76128 0
M  V30 2011 N 201.022 0.148545 -1.56898 0
M  V30 2012 C 201.952 1.18524 -2.01182 0
M  V30 2013 C 202.933 1.4489 -0.891123 0
M  V30 2014 O 204.118 1.55836 -1.15882 0
M  V30 2015 C 201.248 2.51879 -2.39112 0
M  V30 2016 C 200.202 2.40038 -3.54353 0
M  V30 2017 C 199.528 3.78089 -3.78091 0
M  V30 2018 C 200.828 1.88577 -4.87069 0
M  V30 2019 H 202.522 0.817029 -2.88036 0
M  V30 2020 H 200.068 0.391575 -1.38574 0
M  V30 2021 H 202.021 3.24627 -2.68692 0
M  V30 2022 H 200.745 2.90532 -1.49193 0
M  V30 2023 H 199.404 1.69742 -3.24936 0
M  V30 2024 H 199.052 4.14175 -2.85426 0
M  V30 2025 H 198.752 3.71028 -4.55645 0
M  V30 2026 H 200.276 4.52387 -4.10095 0
M  V30 2027 H 201.69 2.51117 -5.15377 0
M  V30 2028 H 200.087 1.9241 -5.68417 0
M  V30 2029 H 201.157 0.84136 -4.77545 0
M  V30 2030 N 202.5 1.5196 0.417844 0
M  V30 2031 C 203.748 1.65263 1.16329 0
M  V30 2032 C 204.069 0.380634 1.91249 0
M  V30 2033 O 203.339 -0.604214 1.86349 0
M  V30 2034 H 201.919 0.60912 0.432414 0
M  V30 2035 H 204.581 1.88969 0.477162 0
M  V30 2036 H 203.677 2.4896 1.88217 0
M  V30 2037 N 203.978 -0.674533 1.42435 0
M  V30 2038 C 205.218 -1.4466 1.44405 0
M  V30 2039 C 205.582 -1.91911 0.0585784 0
M  V30 2040 O 206.783 -2.68759 -0.0469991 0
M  V30 2041 C 205.054 -2.61136 2.44013 0
M  V30 2042 S 206.613 -3.49981 2.64687 0
M  V30 2043 H 203.431 -0.494074 0.511284 0
M  V30 2044 H 206.033 -0.785162 1.7904 0
M  V30 2045 H 204.737 -2.24662 3.43446 0
M  V30 2046 H 204.268 -3.32153 2.10803 0
M  V30 2047 H 206.283 -4.57124 1.93007 0
M  V30 2048 N 205.456 -1.28612 -0.910864 0
M  V30 2049 C 206.386 -1.15326 -2.03032 0
M  V30 2050 C 207.367 -0.0502924 -1.70026 0
M  V30 2051 O 208.552 -0.227797 -1.92859 0
M  V30 2052 C 205.682 -0.817343 -3.37545 0
M  V30 2053 C 204.636 -1.8754 -3.84724 0
M  V30 2054 C 203.962 -1.39305 -5.16235 0
M  V30 2055 C 205.262 -3.28244 -4.06267 0
M  V30 2056 H 206.956 -2.08975 -2.14406 0
M  V30 2057 H 204.502 -1.00612 -1.03021 0
M  V30 2058 H 206.455 -0.711151 -4.15356 0
M  V30 2059 H 205.179 0.154846 -3.26233 0
M  V30 2060 H 203.838 -1.97079 -3.09121 0
M  V30 2061 H 203.486 -0.409846 -5.01328 0
M  V30 2062 H 203.186 -2.10057 -5.48771 0
M  V30 2063 H 204.71 -1.30014 -5.96598 0
M  V30 2064 H 206.124 -3.21611 -4.74594 0
M  V30 2065 H 204.521 -3.96855 -4.5014 0
M  V30 2066 H 205.591 -3.72048 -3.10979 0
M  V30 2067 N 206.934 1.1197 -1.10907 0
M  V30 2068 C 208.18 1.8386 -0.855773 0
M  V30 2069 C 208.513 1.84134 0.617103 0
M  V30 2070 O 207.788 1.29041 1.45529 0
M  V30 2071 C 208.071 3.31305 -1.411 0
M  V30 2072 C 207.924 3.39456 -2.9511 0
M  V30 2073 C 209.243 4.2721 -1.05736 0
M  V30 2074 H 206.362 0.667545 -0.312334 0
M  V30 2075 H 209.004 1.31331 -1.37303 0
M  V30 2076 H 207.154 3.76169 -0.97105 0
M  V30 2077 H 208.826 3.03191 -3.47668 0
M  V30 2078 H 207.069 2.79849 -3.31462 0
M  V30 2079 H 207.74 4.43209 -3.29044 0
M  V30 2080 H 210.216 3.90497 -1.43706 0
M  V30 2081 H 209.092 5.28775 -1.47269 0
M  V30 2082 H 209.353 4.42088 0.0325958 0
M  V30 2083 N 208.412 0.89855 1.29475 0
M  V30 2084 C 209.359 0.373819 2.27753 0
M  V30 2085 C 210.329 -0.543444 1.56958 0
M  V30 2086 O 211.514 -0.468934 1.84948 0
M  V30 2087 C 208.654 -0.393648 3.42848 0
M  V30 2088 C 207.767 0.554379 4.28428 0
M  V30 2089 C 206.902 -0.230026 5.30702 0
M  V30 2090 C 205.941 0.712599 6.07938 0
M  V30 2091 N 205.078 -0.0373283 7.0209 0
M  V30 2092 H 209.918 1.21699 2.72017 0
M  V30 2093 H 207.455 0.611456 1.33789 0
M  V30 2094 H 209.413 -0.85466 4.08352 0
M  V30 2095 H 208.043 -1.20128 2.99615 0
M  V30 2096 H 207.095 1.13391 3.63107 0
M  V30 2097 H 208.407 1.27597 4.82204 0
M  V30 2098 H 207.561 -0.752288 6.02018 0
M  V30 2099 H 206.3 -0.984758 4.77654 0
M  V30 2100 H 205.305 1.24637 5.35486 0
M  V30 2101 H 206.53 1.46664 6.63074 0
M  V30 2102 H 204.476 -0.774348 6.51414 0
M  V30 2103 H 204.393 0.624374 7.53417 0
M  V30 2104 H 205.661 -0.539891 7.77628 0
M  V30 2105 N 209.89 -1.43072 0.660911 0
M  V30 2106 C 211.167 -1.95307 0.107017 0
M  V30 2107 C 211.547 -1.60192 -1.37484 0
M  V30 2108 O 210.895 -0.890949 -2.10415 0
M  V30 2109 C 211.105 -3.47124 0.361402 0
M  V30 2110 C 212.453 -4.23738 0.270455 0
M  V30 2111 O 213.477 -3.54981 0.294382 0
M  V30 2112 O 212.336 -5.46131 0.200737 0
M  V30 2113 H 209.43 -0.826984 -0.00517729 0
M  V30 2114 H 211.976 -1.52972 0.734681 0
M  V30 2115 H 210.748 -3.65837 1.38848 0
M  V30 2116 H 210.371 -3.96475 -0.298953 0
M  V30 2117 N 211.368 -0.403325 -1.52352 0
M  V30 2118 C 212.598 0.17376 -2.05868 0
M  V30 2119 C 213.006 1.39898 -1.27378 0
M  V30 2120 O 212.349 1.80939 -0.31729 0
M  V30 2121 C 212.411 0.594756 -3.54546 0
M  V30 2122 C 212.075 -0.518926 -4.54044 0
M  V30 2123 C 213.072 -1.3807 -5.01231 0
M  V30 2124 C 210.757 -0.689961 -4.97539 0
M  V30 2125 C 212.751 -2.39852 -5.90551 0
M  V30 2126 C 210.438 -1.71109 -5.86656 0
M  V30 2127 C 211.436 -2.56378 -6.33056 0
M  V30 2128 O 211.124 -3.56743 -7.20409 0
M  V30 2129 H 210.856 0.0264951 -0.675481 0
M  V30 2130 H 213.41 -0.571179 -1.97299 0
M  V30 2131 H 211.64 1.39189 -3.60782 0
M  V30 2132 H 213.329 1.0991 -3.90736 0
M  V30 2133 H 214.095 -1.25994 -4.68349 0
M  V30 2134 H 209.974 -0.035939 -4.60986 0
M  V30 2135 H 213.518 -3.06441 -6.26689 0
M  V30 2136 H 209.415 -1.83218 -6.18952 0
M  V30 2137 H 210.183 -3.52918 -7.38506 0
M  V30 2138 N 212.846 1.57033 -0.133567 0
M  V30 2139 C 214.093 1.95686 0.520877 0
M  V30 2140 C 214.421 1.0177 1.6575 0
M  V30 2141 O 213.676 0.0443195 1.9565 0
M  V30 2142 C 213.975 3.40674 1.08057 0
M  V30 2143 C 213.641 4.50855 0.0637899 0
M  V30 2144 C 212.303 4.80716 -0.215757 0
M  V30 2145 C 214.655 5.17398 -0.62835 0
M  V30 2146 C 211.983 5.74433 -1.19348 0
M  V30 2147 C 214.335 6.12167 -1.5948 0
M  V30 2148 C 212.999 6.40414 -1.88218 0
M  V30 2149 H 212.269 0.716067 0.190602 0
M  V30 2150 H 214.916 1.9026 -0.217556 0
M  V30 2151 H 213.221 3.42865 1.89606 0
M  V30 2152 H 214.918 3.67902 1.59529 0
M  V30 2153 H 211.508 4.27605 0.291855 0
M  V30 2154 H 215.692 4.94472 -0.425562 0
M  V30 2155 H 210.948 5.94616 -1.42272 0
M  V30 2156 H 215.122 6.6281 -2.13671 0
M  V30 2157 H 212.749 7.12838 -2.64133 0
M  V30 2158 N 214.325 -0.140222 1.56975 0
M  V30 2159 C 215.736 -0.699596 1.73097 0
M  V30 2160 C 216.087 -1.8134 0.749022 0
M  V30 2161 O 215.212 -2.16241 -0.0828503 0
M  V30 2162 C 215.807 -1.27582 3.1386 0
M  V30 2163 C 214.366 -1.78169 3.31561 0
M  V30 2164 C 213.513 -0.672855 2.69013 0
M  V30 2165 H 216.464 0.0855115 1.58469 0
M  V30 2166 H 216.485 -2.14561 3.14235 0
M  V30 2167 H 215.997 -0.464955 3.85305 0
M  V30 2168 H 214.098 -2.61801 2.65124 0
M  V30 2169 H 214.211 -1.90574 4.39566 0
M  V30 2170 H 212.575 -1.10118 2.29665 0
M  V30 2171 H 213.358 0.126679 3.43066 0
M  V30 2172 N 215.803 -1.52179 -0.40978 0
M  V30 2173 C 216.713 -1.78364 -1.52392 0
M  V30 2174 C 217.729 -0.669183 -1.60617 0
M  V30 2175 O 218.905 -0.954518 -1.77344 0
M  V30 2176 C 215.97 -1.92822 -2.88133 0
M  V30 2177 C 215.031 -3.16725 -2.898 0
M  V30 2178 C 214.264 -3.30483 -4.19067 0
M  V30 2179 O 214.487 -2.49522 -5.12928 0
M  V30 2180 O 213.421 -4.2363 -4.27576 0
M  V30 2181 H 217.247 -2.72931 -1.33201 0
M  V30 2182 H 214.832 -1.37016 -0.59557 0
M  V30 2183 H 216.714 -2.04157 -3.68643 0
M  V30 2184 H 215.389 -1.01444 -3.07393 0
M  V30 2185 H 214.296 -3.10848 -2.08146 0
M  V30 2186 H 215.629 -4.07881 -2.75489 0
M  V30 2187 N 217.281 0.66697 -1.42791 0
M  V30 2188 C 218.692 1.2478 -1.38877 0
M  V30 2189 C 219.043 1.96012 -0.0859426 0
M  V30 2190 O 218.168 2.00463 0.815081 0
M  V30 2191 C 218.763 2.26938 -2.51564 0
M  V30 2192 C 217.322 2.80529 -2.50959 0
M  V30 2193 C 216.469 1.54965 -2.29959 0
M  V30 2194 H 219.42 0.459853 -1.51892 0
M  V30 2195 H 219.441 3.08834 -2.22265 0
M  V30 2196 H 218.953 1.75065 -3.46372 0
M  V30 2197 H 217.054 3.36502 -1.59991 0
M  V30 2198 H 217.167 3.29012 -3.48265 0
M  V30 2199 H 215.531 1.81817 -1.78366 0
M  V30 2200 H 216.314 1.05047 -3.26833 0
M  V30 2201 N 218.759 1.29093 0.90403 0
M  V30 2202 C 220.005 1.16986 1.65656 0
M  V30 2203 C 220.338 -0.278925 1.92186 0
M  V30 2204 O 219.613 -1.2019 1.5292 0
M  V30 2205 C 219.896 1.97908 3.0084 0
M  V30 2206 C 219.749 3.50903 2.81403 0
M  V30 2207 C 221.068 1.80208 4.01513 0
M  V30 2208 H 218.187 0.426346 0.601164 0
M  V30 2209 H 220.829 1.58518 1.04747 0
M  V30 2210 H 218.979 1.62616 3.52829 0
M  V30 2211 H 220.651 3.96153 2.36348 0
M  V30 2212 H 218.894 3.76045 2.1627 0
M  V30 2213 H 219.565 4.02791 3.77443 0
M  V30 2214 H 222.041 2.11025 3.58619 0
M  V30 2215 H 220.917 2.39184 4.94047 0
M  V30 2216 H 221.178 0.756119 4.35586 0
M  V30 2217 N 220.237 -1.11381 1.11499 0
M  V30 2218 C 221.465 -1.86934 0.88675 0
M  V30 2219 C 221.88 -1.80195 -0.563476 0
M  V30 2220 O 221.237 -1.18367 -1.38908 0
M  V30 2221 C 221.288 -3.35722 1.34064 0
M  V30 2222 O 221.009 -3.4232 2.73401 0
M  V30 2223 C 222.51 -4.2818 1.14791 0
M  V30 2224 H 219.73 -0.591117 0.317523 0
M  V30 2225 H 222.274 -1.40865 1.48248 0
M  V30 2226 H 220.429 -3.79294 0.788355 0
M  V30 2227 H 220.843 -4.34971 2.93087 0
M  V30 2228 H 222.317 -5.30817 1.5145 0
M  V30 2229 H 222.794 -4.39113 0.0875279 0
M  V30 2230 H 223.4 -3.90402 1.68721 0
M  V30 2231 N 221.715 -0.905404 -1.28997 0
M  V30 2232 C 222.961 -0.535039 -1.95615 0
M  V30 2233 C 223.294 0.917404 -1.71165 0
M  V30 2234 O 222.569 1.65123 -1.02785 0
M  V30 2235 C 222.852 -0.834918 -3.50287 0
M  V30 2236 C 222.705 -2.33948 -3.84172 0
M  V30 2237 C 224.024 -0.325318 -4.38896 0
M  V30 2238 H 221.143 -0.195861 -0.710498 0
M  V30 2239 H 223.785 -1.13313 -1.52513 0
M  V30 2240 H 221.935 -0.325904 -3.87131 0
M  V30 2241 H 223.607 -2.91847 -3.57243 0
M  V30 2242 H 221.85 -2.79789 -3.31513 0
M  V30 2243 H 222.521 -2.49987 -4.92149 0
M  V30 2244 H 224.997 -0.761256 -4.09077 0
M  V30 2245 H 223.873 -0.564295 -5.45992 0
M  V30 2246 H 224.134 0.774144 -4.35269 0
M  V30 2247 N 223.193 1.4272 -0.668489 0
M  V30 2248 C 224.418 2.06484 -0.194758 0
M  V30 2249 C 224.843 1.49862 1.13679 0
M  V30 2250 O 224.201 0.614582 1.70565 0
M  V30 2251 C 224.249 3.60353 -0.133546 0
M  V30 2252 O 223.353 4.02464 0.899806 0
M  V30 2253 H 222.694 0.656137 -0.10188 0
M  V30 2254 H 225.224 1.82964 -0.915722 0
M  V30 2255 H 225.234 4.07976 0.0447041 0
M  V30 2256 H 223.909 4.00938 -1.1055 0
M  V30 2257 H 222.486 3.66402 0.693109 0
M  V30 2258 N 224.671 0.411399 1.52136 0
M  V30 2259 C 225.917 -0.156262 2.02799 0
M  V30 2260 C 226.272 -1.42613 1.29149 0
M  V30 2261 O 225.565 -1.87592 0.389839 0
M  V30 2262 C 225.759 -0.455872 3.54481 0
M  V30 2263 C 225.588 0.783404 4.42824 0
M  V30 2264 C 224.358 1.30928 4.88043 0
M  V30 2265 C 226.556 1.66217 4.86699 0
M  V30 2266 N 224.538 2.5038 5.6052 0
M  V30 2267 C 225.909 2.70292 5.5798 0
M  V30 2268 C 227.964 1.67966 4.68713 0
M  V30 2269 C 226.667 3.7603 6.13184 0
M  V30 2270 C 228.693 2.72624 5.24815 0
M  V30 2271 C 228.055 3.7542 5.9602 0
M  V30 2272 H 224.154 -0.0186886 0.781777 0
M  V30 2273 H 226.738 0.566255 1.86284 0
M  V30 2274 H 224.909 -1.14743 3.71064 0
M  V30 2275 H 226.641 -1.01261 3.91827 0
M  V30 2276 H 223.396 0.866977 4.65597 0
M  V30 2277 H 223.82 3.10881 6.014 0
M  V30 2278 H 228.462 0.898312 4.13147 0
M  V30 2279 H 226.18 4.55019 6.6782 0
M  V30 2280 H 229.766 2.74887 5.12765 0
M  V30 2281 H 228.646 4.55073 6.38654 0
M  V30 2282 N 226.149 -1.5696 0.141893 0
M  V30 2283 C 227.097 -2.17784 -0.816874 0
M  V30 2284 C 228.091 -1.1334 -1.25899 0
M  V30 2285 O 229.297 -1.316 -1.22806 0
M  V30 2286 H 225.672 -0.697278 -0.281615 0
M  V30 2287 H 227.643 -2.97087 -0.279621 0
M  V30 2288 C 226.392 -2.80983 -2.04802 0
M  V30 2289 H 225.715 -3.61062 -1.7168 0
M  V30 2290 H 227.155 -3.2705 -2.69841 0
M  V30 2291 C 225.614 -1.79228 -2.8527 0
M  V30 2292 O 226.144 -1.25962 -3.8144 0
M  V30 2293 N 224.35 -1.48647 -2.49704 0
M  V30 2294 H 223.897 -1.92155 -1.71564 0
M  V30 2295 H 223.855 -0.808115 -3.03837 0
M  V30 2296 N 227.627 0.131896 -1.57047 0
M  V30 2297 C 228.852 0.860418 -1.8871 0
M  V30 2298 C 229.277 1.73251 -0.73251 0
M  V30 2299 O 228.635 1.785 0.317429 0
M  V30 2300 C 228.683 1.68047 -3.19049 0
M  V30 2301 O 227.787 2.7862 -3.04047 0
M  V30 2302 H 227.128 0.238743 -0.619595 0
M  V30 2303 H 229.658 0.118169 -2.04258 0
M  V30 2304 H 229.668 2.07238 -3.51449 0
M  V30 2305 H 228.343 1.04018 -4.02682 0
M  V30 2306 H 226.92 2.42726 -2.83088 0
M  V30 2307 N 229.106 1.52395 0.401703 0
M  V30 2308 C 230.354 1.66488 1.14569 0
M  V30 2309 C 230.675 0.400897 1.90835 0
M  V30 2310 O 229.945 -0.584415 1.8698 0
M  V30 2311 H 228.525 0.613672 0.425929 0
M  V30 2312 H 231.187 1.89464 0.457093 0
M  V30 2313 H 230.283 2.50942 1.85566 0
M  V30 2314 N 230.584 -0.659388 1.43143 0
M  V30 2315 C 231.547 -1.75432 1.47501 0
M  V30 2316 C 232.547 -1.56707 0.360512 0
M  V30 2317 O 233.737 -1.62717 0.622002 0
M  V30 2318 C 230.869 -3.14239 1.32162 0
M  V30 2319 H 232.062 -1.7295 2.45006 0
M  V30 2320 H 229.615 -0.870469 1.29817 0
M  V30 2321 H 230.35 -3.22336 0.356401 0
M  V30 2322 H 230.135 -3.29235 2.12948 0
M  V30 2323 H 231.625 -3.94094 1.3813 0
M  V30 2324 N 232.062 -1.29571 -0.897171 0
M  V30 2325 C 232.992 -1.17473 -2.01798 0
M  V30 2326 C 233.973 -0.068323 -1.69963 0
M  V30 2327 O 235.158 -0.248239 -1.92607 0
M  V30 2328 C 232.288 -0.853099 -3.36659 0
M  V30 2329 C 231.242 -1.9161 -3.82713 0
M  V30 2330 C 230.568 -1.44773 -5.14728 0
M  V30 2331 C 231.868 -3.32535 -4.02763 0
M  V30 2332 H 233.562 -2.11237 -2.12177 0
M  V30 2333 H 231.108 -1.01699 -1.01948 0
M  V30 2334 H 233.061 -0.755165 -4.14578 0
M  V30 2335 H 231.785 0.120236 -3.26379 0
M  V30 2336 H 230.444 -2.00346 -3.07013 0
M  V30 2337 H 230.092 -0.462995 -5.00865 0
M  V30 2338 H 229.792 -2.15865 -5.46513 0
M  V30 2339 H 231.316 -1.36334 -5.95185 0
M  V30 2340 H 232.73 -3.26626 -4.71156 0
M  V30 2341 H 231.127 -4.01607 -4.45905 0
M  V30 2342 H 232.197 -3.75326 -3.07016 0
M  V30 2343 N 233.54 1.10788 -1.12088 0
M  V30 2344 C 234.768 1.86461 -0.896651 0
M  V30 2345 C 235.183 1.80492 0.553912 0
M  V30 2346 O 234.54 1.19102 1.38278 0
M  V30 2347 C 234.591 3.35006 -1.35843 0
M  V30 2348 O 234.312 3.40866 -2.75213 0
M  V30 2349 C 235.813 4.27565 -1.1706 0
M  V30 2350 H 233.033 0.589425 -0.320654 0
M  V30 2351 H 235.577 1.40076 -1.48993 0
M  V30 2352 H 233.732 3.7887 -0.808458 0
M  V30 2353 H 234.146 4.33411 -2.9539 0
M  V30 2354 H 235.62 5.30007 -1.54263 0
M  V30 2355 H 236.097 4.3906 -0.110814 0
M  V30 2356 H 236.703 3.89501 -1.70789 0
M  V30 2357 N 235.018 0.912232 1.28515 0
M  V30 2358 C 236.243 0.559774 1.99703 0
M  V30 2359 C 236.668 -0.851393 1.67729 0
M  V30 2360 O 236.026 -1.56875 0.908834 0
M  V30 2361 C 236.074 0.773874 3.52198 0
M  V30 2362 O 235.178 -0.167842 4.12058 0
M  V30 2363 H 234.519 0.21723 0.627461 0
M  V30 2364 H 237.049 1.22725 1.63706 0
M  V30 2365 H 237.059 0.683386 4.02236 0
M  V30 2366 H 235.734 1.80261 3.74805 0
M  V30 2367 H 234.311 -0.0287509 3.72889 0
M  V30 2368 N 236.496 -1.42363 0.676048 0
M  V30 2369 C 237.744 -2.01123 0.198437 0
M  V30 2370 C 238.065 -1.53731 -1.19966 0
M  V30 2371 O 237.335 -0.759518 -1.80577 0
M  V30 2372 H 235.915 -0.743678 0.0703721 0
M  V30 2373 H 238.577 -1.74263 0.872837 0
M  V30 2374 H 237.673 -3.11454 0.200686 0
M  V30 2375 N 237.974 -0.419461 -1.51915 0
M  V30 2376 C 239.22 0.153166 -2.02221 0
M  V30 2377 C 239.553 1.43907 -1.30401 0
M  V30 2378 O 238.828 1.90055 -0.413438 0
M  V30 2379 C 239.111 0.390291 -3.57979 0
M  V30 2380 C 238.964 -0.913014 -4.40436 0
M  V30 2381 C 240.283 1.16794 -4.2432 0
M  V30 2382 H 237.402 0.0541924 -0.735005 0
M  V30 2383 H 240.044 -0.554955 -1.81715 0
M  V30 2384 H 238.194 0.993491 -3.75582 0
M  V30 2385 H 239.866 -1.54882 -4.34522 0
M  V30 2386 H 238.109 -1.52168 -4.06236 0
M  V30 2387 H 238.78 -0.701361 -5.47526 0
M  V30 2388 H 241.256 0.657161 -4.10878 0
M  V30 2389 H 240.132 1.3026 -5.3322 0
M  V30 2390 H 240.393 2.19132 -3.83971 0
M  V30 2391 N 239.452 1.56882 -0.150215 0
M  V30 2392 C 240.402 2.13501 0.800071 0
M  V30 2393 C 241.386 1.06368 1.20726 0
M  V30 2394 O 242.578 1.32538 1.17314 0
M  V30 2395 C 239.707 2.76271 2.03787 0
M  V30 2396 C 238.793 3.90533 1.65364 0
M  V30 2397 N 239.184 4.96259 0.977794 0
M  V30 2398 C 237.482 4.013 1.94613 0
M  V30 2399 C 238.183 5.76286 0.791794 0
M  V30 2400 N 237.159 5.27163 1.32666 0
M  V30 2401 H 240.961 2.92615 0.274517 0
M  V30 2402 H 238.475 1.62319 0.0512144 0
M  V30 2403 H 240.472 3.15197 2.72867 0
M  V30 2404 H 239.132 1.98631 2.56857 0
M  V30 2405 H 240.143 5.13953 0.638193 0
M  V30 2406 H 236.82 3.3474 2.4951 0
M  V30 2407 H 238.21 6.71401 0.258894 0
M  V30 2408 N 240.93 -0.123565 1.57115 0
M  V30 2409 C 242.158 -0.846461 1.88793 0
M  V30 2410 C 242.573 -1.73652 0.740976 0
M  V30 2411 O 241.93 -1.80207 -0.288393 0
M  V30 2412 C 241.981 -1.6837 3.19897 0
M  V30 2413 O 241.702 -0.829477 4.30176 0
M  V30 2414 C 243.203 -2.51214 3.65248 0
M  V30 2415 H 240.423 -0.243573 0.625231 0
M  V30 2416 H 242.967 -0.109324 2.04208 0
M  V30 2417 H 241.122 -2.37364 3.06165 0
M  V30 2418 H 241.536 -1.40651 5.0529 0
M  V30 2419 H 243.01 -3.05497 4.59756 0
M  V30 2420 H 243.487 -3.28359 2.9168 0
M  V30 2421 H 244.093 -1.8747 3.81752 0
M  V30 2422 N 242.408 -1.52605 -0.393616 0
M  V30 2423 C 243.655 -1.67424 -1.1391 0
M  V30 2424 C 243.983 -0.411859 -1.90089 0
M  V30 2425 O 243.238 0.605626 -1.86093 0
M  V30 2426 C 243.537 -2.85721 -2.14705 0
M  V30 2427 C 243.203 -4.23342 -1.55218 0
M  V30 2428 C 241.865 -4.60771 -1.3872 0
M  V30 2429 C 244.217 -5.09041 -1.11924 0
M  V30 2430 C 241.545 -5.81563 -0.774689 0
M  V30 2431 C 243.897 -6.30452 -0.520853 0
M  V30 2432 C 242.561 -6.66617 -0.343134 0
M  V30 2433 H 241.831 -0.612648 -0.416826 0
M  V30 2434 H 244.478 -1.8674 -0.424315 0
M  V30 2435 H 242.783 -2.60803 -2.92385 0
M  V30 2436 H 244.48 -2.94382 -2.72288 0
M  V30 2437 H 241.07 -3.93855 -1.69045 0
M  V30 2438 H 245.254 -4.80695 -1.23473 0
M  V30 2439 H 240.51 -6.08196 -0.625154 0
M  V30 2440 H 244.684 -6.96175 -0.177065 0
M  V30 2441 H 242.311 -7.60083 0.133571 0
M  V30 2442 N 243.887 0.651787 -1.4349 0
M  V30 2443 C 245.298 1.233 -1.40193 0
M  V30 2444 C 245.649 1.9591 -0.106727 0
M  V30 2445 O 244.774 2.01316 0.793773 0
M  V30 2446 C 245.369 2.24257 -2.53957 0
M  V30 2447 C 243.928 2.77852 -2.5392 0
M  V30 2448 C 243.075 1.52517 -2.3159 0
M  V30 2449 H 246.026 0.443717 -1.52371 0
M  V30 2450 H 246.047 3.0646 -2.25528 0
M  V30 2451 H 245.559 1.71382 -3.4821 0
M  V30 2452 H 243.66 3.34786 -1.63551 0
M  V30 2453 H 243.773 3.25299 -3.51735 0
M  V30 2454 H 242.137 1.79915 -1.80285 0
M  V30 2455 H 242.92 1.01574 -3.27929 0
M  V30 2456 N 245.365 1.30045 0.890287 0
M  V30 2457 C 246.328 1.15963 1.977 0
M  V30 2458 C 247.328 0.0923777 1.60534 0
M  V30 2459 O 248.518 0.340071 1.70848 0
M  V30 2460 C 245.65 0.775451 3.31963 0
M  V30 2461 H 246.843 2.12502 2.11619 0
M  V30 2462 H 244.396 1.13366 1.07601 0
M  V30 2463 H 245.131 -0.189671 3.23745 0
M  V30 2464 H 244.916 1.54668 3.60306 0
M  V30 2465 H 246.406 0.700251 4.11687 0
M  V30 2466 N 246.843 -1.10192 1.12674 0
M  V30 2467 C 248.089 -1.82475 0.884915 0
M  V30 2468 C 248.422 -1.85093 -0.58773 0
M  V30 2469 O 247.697 -1.3134 -1.43457 0
M  V30 2470 C 247.98 -3.29018 1.46353 0
M  V30 2471 C 247.833 -3.34718 3.00473 0
M  V30 2472 C 249.152 -4.25473 1.12519 0
M  V30 2473 H 246.271 -0.662492 0.322915 0
M  V30 2474 H 248.913 -1.2913 1.39375 0
M  V30 2475 H 247.063 -3.74576 1.03077 0
M  V30 2476 H 248.735 -2.97622 3.52447 0
M  V30 2477 H 246.978 -2.74541 3.35872 0
M  V30 2478 H 247.649 -4.37918 3.36053 0
M  V30 2479 H 250.125 -3.88161 1.499 0
M  V30 2480 H 249.001 -5.26365 1.55663 0
M  V30 2481 H 249.262 -4.42084 0.0377407 0
M  V30 2482 N 248.321 -0.919034 -1.28029 0
M  V30 2483 C 249.251 -0.428581 -2.29533 0
M  V30 2484 C 250.232 0.50659 -1.62381 0
M  V30 2485 O 251.417 0.413195 -1.89753 0
M  V30 2486 C 248.547 0.327388 -3.45753 0
M  V30 2487 C 247.501 -0.519137 -4.2484 0
M  V30 2488 C 246.827 0.365486 -5.33449 0
M  V30 2489 C 248.127 -1.77914 -4.91064 0
M  V30 2490 H 249.821 -1.27687 -2.70807 0
M  V30 2491 H 247.367 -0.615428 -1.30186 0
M  V30 2492 H 249.32 0.681378 -4.15855 0
M  V30 2493 H 248.044 1.20963 -3.03374 0
M  V30 2494 H 246.703 -0.855717 -3.56473 0
M  V30 2495 H 246.351 1.24642 -4.87312 0
M  V30 2496 H 246.051 -0.197356 -5.87268 0
M  V30 2497 H 247.575 0.715241 -6.06396 0
M  V30 2498 H 248.989 -1.49374 -5.53498 0
M  V30 2499 H 247.386 -2.2848 -5.54903 0
M  V30 2500 H 248.456 -2.50382 -4.15255 0
M  V30 2501 N 249.799 1.42003 -0.683588 0
M  V30 2502 C 250.731 2.29183 0.0283068 0
M  V30 2503 C 251.744 1.4415 0.756611 0
M  V30 2504 O 252.933 1.67779 0.609306 0
M  V30 2505 C 250.033 3.21765 1.06398 0
M  V30 2506 C 249.206 4.35496 0.407723 0
M  V30 2507 C 248.265 5.08737 1.34437 0
M  V30 2508 O 247.291 5.62948 0.841318 0
M  V30 2509 N 248.493 5.15075 2.67728 0
M  V30 2510 H 251.258 2.9092 -0.720105 0
M  V30 2511 H 248.819 1.53025 -0.528682 0
M  V30 2512 H 250.811 3.6763 1.69204 0
M  V30 2513 H 249.381 2.61418 1.71404 0
M  V30 2514 H 248.601 3.92165 -0.400012 0
M  V30 2515 H 249.889 5.08776 -0.0490956 0
M  V30 2516 H 249.287 4.72457 3.11129 0
M  V30 2517 H 247.844 5.64556 3.2576 0
M  V30 2518 N 251.277 0.427512 1.51691 0
M  V30 2519 C 252.502 -0.143601 2.06902 0
M  V30 2520 C 252.927 -1.36536 1.29382 0
M  V30 2521 O 252.285 -1.78289 0.329043 0
M  V30 2522 C 252.333 -0.454207 3.57728 0
M  V30 2523 O 251.437 -1.54228 3.82475 0
M  V30 2524 H 250.778 -0.00617128 0.663971 0
M  V30 2525 H 253.308 0.606014 1.95419 0
M  V30 2526 H 253.318 -0.707525 4.01818 0
M  V30 2527 H 251.993 0.438812 4.13579 0
M  V30 2528 H 250.57 -1.2797 3.50254 0
M  V30 2529 N 252.755 -1.56801 0.158532 0
M  V30 2530 C 253.98 -2.01295 -0.499516 0
M  V30 2531 C 254.405 -1.03799 -1.56867 0
M  V30 2532 O 253.763 -0.0155162 -1.81293 0
M  V30 2533 C 253.811 -3.44469 -1.06647 0
M  V30 2534 O 252.915 -3.50012 -2.18095 0
M  V30 2535 H 252.256 -0.652884 -0.12099 0
M  V30 2536 H 254.786 -2.02958 0.258661 0
M  V30 2537 H 254.796 -3.8351 -1.39227 0
M  V30 2538 H 253.471 -4.14932 -0.283581 0
M  V30 2539 H 252.048 -3.22822 -1.86656 0
M  V30 2540 N 254.233 0.115231 -1.57178 0
M  V30 2541 C 255.481 0.820727 -1.84685 0
M  V30 2542 C 255.802 1.80237 -0.744279 0
M  V30 2543 O 255.072 1.94529 0.231375 0
M  V30 2544 H 253.652 0.306084 -0.681411 0
M  V30 2545 H 256.314 0.101656 -1.94635 0
M  V30 2546 H 255.41 1.36366 -2.80733 0
M  V30 2547 N 255.711 1.52812 0.385517 0
M  V30 2548 C 256.641 1.80808 1.47752 0
M  V30 2549 C 257.622 0.660318 1.5676 0
M  V30 2550 O 258.807 0.908246 1.71652 0
M  V30 2551 C 255.937 1.98008 2.85324 0
M  V30 2552 C 254.891 3.13709 2.91154 0
M  V30 2553 C 254.217 3.16169 4.31209 0
M  V30 2554 C 255.517 4.52709 2.60483 0
M  V30 2555 H 257.211 2.72253 1.24573 0
M  V30 2556 H 254.757 1.31003 0.597839 0
M  V30 2557 H 256.71 2.16176 3.61726 0
M  V30 2558 H 255.434 1.03255 3.09848 0
M  V30 2559 H 254.093 2.95329 2.17201 0
M  V30 2560 H 253.741 2.19092 4.52778 0
M  V30 2561 H 253.441 3.93894 4.36029 0
M  V30 2562 H 254.965 3.36496 5.09512 0
M  V30 2563 H 256.379 4.71173 3.26602 0
M  V30 2564 H 254.776 5.32528 2.76648 0
M  V30 2565 H 255.846 4.59186 1.55809 0
M  V30 2566 N 257.189 -0.644168 1.43834 0
M  V30 2567 C 258.419 -1.42939 1.49171 0
M  V30 2568 C 258.827 -1.88874 0.111048 0
M  V30 2569 O 258.17 -1.60656 -0.8908 0
M  V30 2570 C 258.232 -2.69151 2.38324 0
M  V30 2571 C 257.896 -2.45097 3.85715 0
M  V30 2572 C 258.893 -2.07747 4.76589 0
M  V30 2573 C 256.578 -2.59141 4.30292 0
M  V30 2574 C 258.572 -1.8475 6.10038 0
M  V30 2575 C 256.259 -2.35759 5.63792 0
M  V30 2576 C 257.257 -1.9862 6.53482 0
M  V30 2577 O 256.945 -1.75489 7.84512 0
M  V30 2578 H 256.677 -0.445271 0.508635 0
M  V30 2579 H 259.231 -0.79621 1.8934 0
M  V30 2580 H 257.461 -3.3506 1.93058 0
M  V30 2581 H 259.15 -3.31123 2.3476 0
M  V30 2582 H 259.916 -1.96465 4.43426 0
M  V30 2583 H 255.795 -2.87022 3.60749 0
M  V30 2584 H 259.339 -1.55686 6.80006 0
M  V30 2585 H 255.236 -2.46646 5.9652 0
M  V30 2586 H 256.004 -1.89841 7.9618 0
M  V30 2587 N 258.668 -1.30515 -0.883378 0
M  V30 2588 C 259.893 -1.22487 -1.67367 0
M  V30 2589 C 260.318 0.208767 -1.86938 0
M  V30 2590 O 259.676 1.15015 -1.40148 0
M  V30 2591 C 259.724 -1.96041 -3.02655 0
M  V30 2592 O 258.828 -1.28859 -3.91751 0
M  V30 2593 H 258.169 -0.423573 -0.511353 0
M  V30 2594 H 260.699 -1.72362 -1.10239 0
M  V30 2595 H 260.709 -2.05124 -3.52687 0
M  V30 2596 H 259.384 -3.00307 -2.8773 0
M  V30 2597 H 257.961 -1.28141 -3.50192 0
M  V30 2598 N 260.146 1.09593 -1.13257 0
M  V30 2599 C 261.076 2.18214 -0.830946 0
M  V30 2600 C 262.057 1.68812 0.208966 0
M  V30 2601 O 263.242 1.9408 0.0682666 0
M  V30 2602 C 260.372 3.46051 -0.294296 0
M  V30 2603 C 259.326 4.08778 -1.26826 0
M  V30 2604 C 258.652 5.31419 -0.591449 0
M  V30 2605 C 259.952 4.51476 -2.62615 0
M  V30 2606 H 261.646 2.43703 -1.73923 0
M  V30 2607 H 259.192 1.17128 -0.837675 0
M  V30 2608 H 261.145 4.2134 -0.0709606 0
M  V30 2609 H 259.869 3.20079 0.649366 0
M  V30 2610 H 258.528 3.35505 -1.47756 0
M  V30 2611 H 258.176 5.01727 0.357633 0
M  V30 2612 H 257.876 5.74341 -1.24123 0
M  V30 2613 H 259.4 6.09433 -0.377355 0
M  V30 2614 H 260.814 5.17999 -2.45663 0
M  V30 2615 H 259.211 5.05277 -3.23752 0
M  V30 2616 H 260.281 3.63962 -3.20406 0
M  V30 2617 N 261.624 0.925811 1.2754 0
M  V30 2618 C 262.849 0.580924 1.99098 0
M  V30 2619 C 263.274 -0.833555 1.68622 0
M  V30 2620 O 262.632 -1.55903 0.925422 0
M  V30 2621 C 262.68 0.811186 3.51358 0
M  V30 2622 O 261.784 -0.124129 4.12213 0
M  V30 2623 H 261.125 0.223873 0.625122 0
M  V30 2624 H 263.655 1.24455 1.62395 0
M  V30 2625 H 263.665 0.72601 4.01489 0
M  V30 2626 H 262.34 1.84227 3.72872 0
M  V30 2627 H 260.917 0.0108006 3.72898 0
M  V30 2628 N 263.102 -1.41638 0.69111 0
M  V30 2629 C 264.327 -2.06148 0.227583 0
M  V30 2630 C 264.752 -1.51652 -1.11281 0
M  V30 2631 O 264.11 -0.64164 -1.69566 0
M  V30 2632 C 264.158 -3.60095 0.190858 0
M  V30 2633 O 263.262 -4.03845 -0.835664 0
M  V30 2634 H 262.603 -0.654434 0.112306 0
M  V30 2635 H 265.133 -1.81484 0.944714 0
M  V30 2636 H 265.143 -4.07995 0.020207 0
M  V30 2637 H 263.818 -3.99129 1.16915 0
M  V30 2638 H 262.395 -3.67458 -0.63473 0
M  V30 2639 N 264.58 -0.43555 -1.51462 0
M  V30 2640 C 265.826 0.131709 -2.02372 0
M  V30 2641 C 266.159 1.42516 -1.3192 0
M  V30 2642 O 265.434 1.89606 -0.433573 0
M  V30 2643 C 265.717 0.352301 -3.58373 0
M  V30 2644 C 265.57 -0.959676 -4.39443 0
M  V30 2645 C 266.889 1.12286 -4.25535 0
M  V30 2646 H 264.008 0.0463936 -0.735538 0
M  V30 2647 H 266.65 -0.574197 -1.81116 0
M  V30 2648 H 264.8 0.9536 -3.76615 0
M  V30 2649 H 266.472 -1.59482 -4.32855 0
M  V30 2650 H 264.715 -1.56468 -4.04599 0
M  V30 2651 H 265.386 -0.759394 -5.46752 0
M  V30 2652 H 267.862 0.613545 -4.11552 0
M  V30 2653 H 266.738 1.24598 -5.34571 0
M  V30 2654 H 266.999 2.15048 -3.86273 0
M  V30 2655 N 266.058 1.56714 -0.166846 0
M  V30 2656 C 267.304 1.97039 0.479962 0
M  V30 2657 C 267.637 1.05264 1.63197 0
M  V30 2658 O 266.912 0.0988833 1.94248 0
M  V30 2659 C 267.195 3.46867 0.967212 0
M  V30 2660 C 267.048 4.49421 -0.18466 0
M  V30 2661 C 268.367 3.9968 1.84238 0
M  V30 2662 H 265.486 0.71641 0.172992 0
M  V30 2663 H 268.128 1.8832 -0.252079 0
M  V30 2664 H 266.278 3.54428 1.59101 0
M  V30 2665 H 267.95 4.53924 -0.821621 0
M  V30 2666 H 266.193 4.25573 -0.840837 0
M  V30 2667 H 266.864 5.51644 0.198317 0
M  V30 2668 H 269.34 3.94723 1.31655 0
M  V30 2669 H 268.216 5.04941 2.15234 0
M  V30 2670 H 268.477 3.43226 2.78654 0
M  V30 2671 N 267.536 -0.106894 1.57237 0
M  V30 2672 C 268.764 -0.826389 1.8968 0
M  V30 2673 C 269.179 -1.72856 0.759353 0
M  V30 2674 O 268.536 -1.80503 -0.269263 0
M  V30 2675 C 268.587 -1.64967 3.21665 0
M  V30 2676 O 268.308 -0.783804 4.31031 0
M  V30 2677 C 269.809 -2.47326 3.67892 0
M  V30 2678 H 267.029 -0.236927 0.627779 0
M  V30 2679 H 269.573 -0.0876593 2.04312 0
M  V30 2680 H 267.728 -2.34103 3.08666 0
M  V30 2681 H 268.142 -1.35284 5.06753 0
M  V30 2682 H 269.616 -3.00604 4.6297 0
M  V30 2683 H 270.093 -3.25247 2.95146 0
M  V30 2684 H 270.699 -1.83411 3.83719 0
M  V30 2685 N 269.014 -1.53014 -0.377408 0
M  V30 2686 C 270.26 -1.68872 -1.12294 0
M  V30 2687 C 270.593 -0.433224 -1.89306 0
M  V30 2688 O 269.868 0.569258 -1.85983 0
M  V30 2689 C 270.151 -2.93115 -2.09179 0
M  V30 2690 C 270.004 -4.28794 -1.35853 0
M  V30 2691 C 271.323 -3.12928 -3.09458 0
M  V30 2692 H 268.442 -0.614518 -0.406862 0
M  V30 2693 H 271.084 -1.85633 -0.40503 0
M  V30 2694 H 269.234 -2.78956 -2.70399 0
M  V30 2695 H 270.906 -4.54742 -0.775082 0
M  V30 2696 H 269.149 -4.28744 -0.660364 0
M  V30 2697 H 269.82 -5.11837 -2.06706 0
M  V30 2698 H 272.296 -3.26194 -2.58334 0
M  V30 2699 H 271.172 -4.01316 -3.74482 0
M  V30 2700 H 271.433 -2.27669 -3.78971 0
M  V30 2701 N 270.492 0.636531 -1.44174 0
M  V30 2702 C 271.903 1.21806 -1.41493 0
M  V30 2703 C 272.254 1.95785 -0.1275 0
M  V30 2704 O 271.379 2.02147 0.772376 0
M  V30 2705 C 271.974 2.21551 -2.56321 0
M  V30 2706 C 270.533 2.75143 -2.56853 0
M  V30 2707 C 269.68 1.50052 -2.33195 0
M  V30 2708 H 272.631 0.427531 -1.52833 0
M  V30 2709 H 272.652 3.0405 -2.28765 0
M  V30 2710 H 272.164 1.67679 -3.50008 0
M  V30 2711 H 270.265 3.33033 -1.67093 0
M  V30 2712 H 270.378 3.2155 -3.55165 0
M  V30 2713 H 268.742 1.77993 -1.82183 0
M  V30 2714 H 269.525 0.980903 -3.28988 0
M  V30 2715 N 271.97 1.30982 0.876444 0
M  V30 2716 C 273.195 1.23373 1.66715 0
M  V30 2717 C 273.62 -0.19885 1.87046 0
M  V30 2718 O 272.978 -1.1427 1.40756 0
M  V30 2719 C 273.026 1.97644 3.01611 0
M  V30 2720 O 272.13 1.30935 3.91062 0
M  V30 2721 H 271.471 0.426279 0.509099 0
M  V30 2722 H 274.001 1.72944 1.09323 0
M  V30 2723 H 274.011 2.06992 3.51594 0
M  V30 2724 H 272.686 3.01829 2.86133 0
M  V30 2725 H 271.263 1.29996 3.49507 0
M  V30 2726 N 273.449 -1.08991 1.13837 0
M  V30 2727 C 274.674 -1.85551 0.926585 0
M  V30 2728 C 275.099 -1.80782 -0.519566 0
M  V30 2729 O 274.457 -1.18855 -1.36906 0
M  V30 2730 C 274.505 -3.31266 1.42462 0
M  V30 2731 O 273.609 -4.07822 0.612789 0
M  V30 2732 H 272.95 -0.575192 0.331738 0
M  V30 2733 H 275.48 -1.37604 1.51414 0
M  V30 2734 H 275.49 -3.82112 1.43019 0
M  V30 2735 H 274.165 -3.34052 2.47754 0
M  V30 2736 H 272.742 -3.66731 0.675463 0
M  V30 2737 N 274.927 -0.932562 -1.27047 0
M  V30 2738 C 276.152 -0.591474 -1.98787 0
M  V30 2739 C 276.577 0.824601 -1.69062 0
M  V30 2740 O 275.935 1.5541 -0.933677 0
M  V30 2741 C 275.983 -0.829808 -3.50922 0
M  V30 2742 O 275.087 0.102266 -4.12273 0
M  V30 2743 H 274.428 -0.227185 -0.623926 0
M  V30 2744 H 276.958 -1.25314 -1.61733 0
M  V30 2745 H 276.968 -0.747292 -4.01098 0
M  V30 2746 H 275.643 -1.86201 -3.7189 0
M  V30 2747 H 274.22 -0.0305761 -3.72887 0
M  V30 2748 N 276.405 1.4127 -0.698611 0
M  V30 2749 C 277.335 2.33447 -0.049629 0
M  V30 2750 C 278.316 1.51982 0.763898 0
M  V30 2751 O 279.501 1.80509 0.716257 0
M  V30 2752 C 276.631 3.35828 0.885267 0
M  V30 2753 C 275.585 4.27627 0.178613 0
M  V30 2754 C 274.911 5.20406 1.22807 0
M  V30 2755 C 276.211 5.13459 -0.956933 0
M  V30 2756 H 277.905 2.87966 -0.81951 0
M  V30 2757 H 275.451 1.38461 -0.395538 0
M  V30 2758 H 277.404 3.9924 1.34854 0
M  V30 2759 H 276.128 2.79666 1.68685 0
M  V30 2760 H 274.787 3.65643 -0.26466 0
M  V30 2761 H 274.435 4.60558 2.02226 0
M  V30 2762 H 274.135 5.82661 0.760239 0
M  V30 2763 H 275.659 5.86695 1.69179 0
M  V30 2764 H 277.073 5.70421 -0.573805 0
M  V30 2765 H 275.47 5.8467 -1.35205 0
M  V30 2766 H 276.54 4.50443 -1.79524 0
M  V30 2767 N 277.883 0.443576 1.51229 0
M  V30 2768 C 279.131 -0.120557 2.0174 0
M  V30 2769 C 279.452 -1.42665 1.32935 0
M  V30 2770 O 278.722 -1.9028 0.465866 0
M  V30 2771 H 277.302 -0.0475426 0.745486 0
M  V30 2772 H 279.964 0.587711 1.85828 0
M  V30 2773 H 279.06 -0.291972 3.10731 0
M  V30 2774 N 279.361 -1.56624 0.175154 0
M  V30 2775 C 280.589 -2.01374 -0.474971 0
M  V30 2776 C 281.004 -1.05537 -1.56548 0
M  V30 2777 O 280.361 -0.0568668 -1.82411 0
M  V30 2778 C 280.412 -3.45923 -1.04975 0
M  V30 2779 O 280.133 -4.381 -0.00276605 0
M  V30 2780 C 281.634 -4.06093 -1.77773 0
M  V30 2781 H 278.854 -0.659962 -0.121206 0
M  V30 2782 H 281.398 -2.02601 0.27801 0
M  V30 2783 H 279.553 -3.45458 -1.75321 0
M  V30 2784 H 279.967 -5.22753 -0.427681 0
M  V30 2785 H 281.441 -5.09147 -2.13245 0
M  V30 2786 H 281.918 -3.48405 -2.67414 0
M  V30 2787 H 282.524 -4.10272 -1.12059 0
M  V30 2788 N 280.839 0.0985539 -1.57292 0
M  V30 2789 C 281.771 1.14595 -1.98496 0
M  V30 2790 C 282.784 1.36512 -0.887031 0
M  V30 2791 O 283.973 1.35225 -1.16518 0
M  V30 2792 C 281.073 2.50216 -2.28572 0
M  V30 2793 C 280.246 2.48624 -3.59868 0
M  V30 2794 C 279.305 3.66146 -3.7792 0
M  V30 2795 O 278.331 3.48795 -4.49812 0
M  V30 2796 N 279.533 4.85496 -3.18235 0
M  V30 2797 H 282.298 0.795277 -2.88956 0
M  V30 2798 H 279.859 0.287579 -1.59325 0
M  V30 2799 H 281.851 3.27432 -2.37845 0
M  V30 2800 H 280.421 2.77387 -1.44136 0
M  V30 2801 H 279.641 1.56978 -3.61596 0
M  V30 2802 H 280.929 2.44635 -4.46129 0
M  V30 2803 H 280.327 5.02497 -2.59833 0
M  V30 2804 H 278.884 5.60317 -3.32999 0
M  V30 2805 N 282.317 1.53212 0.369288 0
M  V30 2806 C 283.545 1.73119 1.13303 0
M  V30 2807 C 283.96 0.458455 1.83149 0
M  V30 2808 O 283.317 -0.568403 1.73423 0
M  V30 2809 C 283.368 2.89413 2.16616 0
M  V30 2810 O 283.089 4.11761 1.49614 0
M  V30 2811 C 284.59 3.21161 3.05566 0
M  V30 2812 H 281.81 0.579107 0.338934 0
M  V30 2813 H 284.354 1.99942 0.429338 0
M  V30 2814 H 282.509 2.64994 2.82589 0
M  V30 2815 H 282.923 4.76858 2.18419 0
M  V30 2816 H 284.397 4.05949 3.74045 0
M  V30 2817 H 284.874 2.36369 3.70171 0
M  V30 2818 H 285.48 3.47492 2.45213 0
M  V30 2819 N 283.795 -0.628877 1.44509 0
M  V30 2820 C 285.025 -1.41349 1.50678 0
M  V30 2821 C 285.433 -1.88745 0.131075 0
M  V30 2822 O 284.776 -1.61592 -0.87371 0
M  V30 2823 C 284.838 -2.66608 2.41165 0
M  V30 2824 C 284.502 -2.40993 3.88293 0
M  V30 2825 C 285.499 -2.0268 4.78766 0
M  V30 2826 C 283.184 -2.54563 4.33016 0
M  V30 2827 C 285.178 -1.78269 6.11963 0
M  V30 2828 C 282.865 -2.29766 5.6626 0
M  V30 2829 C 283.863 -1.91678 6.55552 0
M  V30 2830 O 283.551 -1.67158 7.86329 0
M  V30 2831 H 283.283 -0.439851 0.51333 0
M  V30 2832 H 285.837 -0.776084 1.90174 0
M  V30 2833 H 284.067 -3.32994 1.96601 0
M  V30 2834 H 285.756 -3.28615 2.38259 0
M  V30 2835 H 286.522 -1.91751 4.45485 0
M  V30 2836 H 282.401 -2.83179 3.63773 0
M  V30 2837 H 285.945 -1.48465 6.81619 0
M  V30 2838 H 281.842 -2.40306 5.99102 0
M  V30 2839 H 282.61 -1.81386 7.98149 0
M  V30 2840 N 285.273 -1.31445 -0.869486 0
M  V30 2841 C 286.522 -1.20517 -1.61736 0
M  V30 2842 C 286.835 0.235341 -1.94179 0
M  V30 2843 O 288.041 0.466312 -2.67465 0
M  V30 2844 C 286.497 -2.10982 -2.91573 0
M  V30 2845 C 286.105 -3.60032 -2.66611 0
M  V30 2846 C 287.849 -2.08856 -3.69567 0
M  V30 2847 C 285.756 -4.42503 -3.92358 0
M  V30 2848 H 284.686 -0.447493 -0.606849 0
M  V30 2849 H 287.337 -1.56303 -0.96133 0
M  V30 2850 H 285.719 -1.68095 -3.58553 0
M  V30 2851 H 286.893 -4.11167 -2.08035 0
M  V30 2852 H 285.208 -3.64139 -2.0197 0
M  V30 2853 H 287.805 -2.67716 -4.62852 0
M  V30 2854 H 288.148 -1.07582 -4.02159 0
M  V30 2855 H 288.681 -2.49945 -3.09471 0
M  V30 2856 H 285.42 -5.44533 -3.64916 0
M  V30 2857 H 284.94 -3.96125 -4.50383 0
M  V30 2858 H 286.619 -4.54741 -4.60238 0
M  V30 2859 N 286.751 1.08385 -1.14413 0
M  V30 2860 C 287.991 1.8238 -0.922868 0
M  V30 2861 C 288.355 1.84225 0.540842 0
M  V30 2862 O 289.556 2.53985 0.880058 0
M  V30 2863 C 287.827 3.24048 -1.50757 0
M  V30 2864 S 289.386 4.14917 -1.4279 0
M  V30 2865 H 286.204 0.628524 -0.332384 0
M  V30 2866 H 288.806 1.30278 -1.45766 0
M  V30 2867 H 287.51 3.20288 -2.56601 0
M  V30 2868 H 287.041 3.81224 -0.971178 0
M  V30 2869 H 289.056 4.94473 -0.413582 0
M  V30 2870 N 288.23 0.939286 1.26551 0
M  V30 2871 C 289.178 0.43815 2.28436 0
M  V30 2872 C 290.172 -0.483587 1.62351 0
M  V30 2873 O 291.378 -0.362009 1.76322 0
M  V30 2874 H 287.753 0.123149 0.741848 0
M  V30 2875 H 289.724 1.31002 2.68106 0
M  V30 2876 C 288.473 -0.283052 3.46546 0
M  V30 2877 H 287.796 0.417043 3.97619 0
M  V30 2878 H 289.236 -0.597948 4.19763 0
M  V30 2879 C 287.695 -1.50018 3.01656 0
M  V30 2880 O 288.225 -2.59855 3.0633 0
M  V30 2881 N 286.431 -1.35608 2.57019 0
M  V30 2882 H 285.978 -0.46244 2.53415 0
M  V30 2883 H 285.936 -2.17165 2.27347 0
M  V30 2884 N 289.708 -1.40897 0.706093 0
M  V30 2885 C 290.954 -2.01352 0.241889 0
M  V30 2886 C 291.287 -1.55832 -1.15888 0
M  V30 2887 O 290.562 -0.774145 -1.7843 0
M  V30 2888 C 290.845 -3.58752 0.311311 0
M  V30 2889 C 290.698 -4.1437 1.74978 0
M  V30 2890 C 292.017 -4.38914 -0.322922 0
M  V30 2891 H 289.136 -0.731562 0.0893687 0
M  V30 2892 H 291.778 -1.67504 0.896802 0
M  V30 2893 H 289.928 -3.87718 -0.246302 0
M  V30 2894 H 291.6 -3.96239 2.36205 0
M  V30 2895 H 289.843 -3.69016 2.28057 0
M  V30 2896 H 290.514 -5.23532 1.74981 0
M  V30 2897 H 292.99 -4.15822 0.152089 0
M  V30 2898 H 291.866 -5.48358 -0.243855 0
M  V30 2899 H 292.127 -4.19176 -1.40513 0
M  V30 2900 N 291.186 -0.45159 -1.50991 0
M  V30 2901 C 292.134 0.366864 -2.29689 0
M  V30 2902 C 293.128 1.00809 -1.36139 0
M  V30 2903 O 294.334 0.941427 -1.53418 0
M  V30 2904 H 290.709 0.137133 -0.739391 0
M  V30 2905 H 292.68 -0.317538 -2.96706 0
M  V30 2906 C 291.429 1.44751 -3.16137 0
M  V30 2907 H 290.752 0.963473 -3.88017 0
M  V30 2908 H 292.192 1.99315 -3.74232 0
M  V30 2909 C 290.651 2.43869 -2.32442 0
M  V30 2910 O 291.181 3.4872 -1.99392 0
M  V30 2911 N 289.387 2.15105 -1.95392 0
M  V30 2912 H 288.934 1.29866 -2.22469 0
M  V30 2913 H 288.892 2.81661 -1.39693 0
M  V30 2914 N 292.664 1.56529 -0.183458 0
M  V30 2915 C 293.614 2.1515 0.754605 0
M  V30 2916 C 294.598 1.08904 1.18443 0
M  V30 2917 O 295.79 1.34997 1.14476 0
M  V30 2918 C 292.919 2.80531 1.97881 0
M  V30 2919 C 292.005 3.93952 1.57043 0
M  V30 2920 N 292.396 4.98221 0.87231 0
M  V30 2921 C 290.694 4.05338 1.86057 0
M  V30 2922 C 291.395 5.77836 0.669377 0
M  V30 2923 N 290.371 5.29858 1.21454 0
M  V30 2924 H 294.173 2.93132 0.212387 0
M  V30 2925 H 291.687 1.62391 0.0167725 0
M  V30 2926 H 293.684 3.20914 2.6612 0
M  V30 2927 H 292.344 2.04035 2.52586 0
M  V30 2928 H 293.355 5.15191 0.529033 0
M  V30 2929 H 290.032 3.39957 2.42354 0
M  V30 2930 H 291.422 6.71799 0.116422 0
M  V30 2931 N 294.142 -0.090211 1.57342 0
M  V30 2932 C 295.089 -1.10909 2.02405 0
M  V30 2933 C 296.059 -1.39523 0.901252 0
M  V30 2934 O 297.244 -1.50903 1.1676 0
M  V30 2935 C 294.384 -2.42277 2.45755 0
M  V30 2936 C 293.497 -2.20352 3.71576 0
M  V30 2937 C 292.632 -3.45154 4.03785 0
M  V30 2938 C 291.671 -3.18512 5.22701 0
M  V30 2939 N 290.808 -4.35593 5.50639 0
M  V30 2940 H 295.648 -0.71782 2.89225 0
M  V30 2941 H 293.185 -0.342901 1.43048 0
M  V30 2942 H 295.143 -3.18951 2.68935 0
M  V30 2943 H 293.773 -2.79242 1.61938 0
M  V30 2944 H 292.825 -1.34458 3.55844 0
M  V30 2945 H 294.137 -1.96661 4.58395 0
M  V30 2946 H 293.291 -4.30233 4.27767 0
M  V30 2947 H 292.03 -3.71904 3.15498 0
M  V30 2948 H 291.035 -2.31827 4.98534 0
M  V30 2949 H 292.26 -2.93103 6.12591 0
M  V30 2950 H 290.206 -4.6241 4.6531 0
M  V30 2951 H 290.123 -4.1511 6.31838 0
M  V30 2952 H 291.391 -5.21723 5.7916 0
M  V30 2953 N 295.62 -1.53406 -0.361157 0
M  V30 2954 C 297.031 -1.61442 -0.937728 0
M  V30 2955 C 297.382 -0.48461 -1.90121 0
M  V30 2956 O 296.507 0.388312 -2.12888 0
M  V30 2957 C 297.102 -2.92624 -1.70753 0
M  V30 2958 C 295.661 -3.02981 -2.23337 0
M  V30 2959 C 294.808 -2.5677 -1.04712 0
M  V30 2960 H 297.759 -1.58083 -0.139816 0
M  V30 2961 H 297.78 -2.80675 -2.56908 0
M  V30 2962 H 297.292 -3.74834 -1.00604 0
M  V30 2963 H 295.393 -2.25368 -2.96715 0
M  V30 2964 H 295.506 -4.0814 -2.50916 0
M  V30 2965 H 293.87 -2.11752 -1.41539 0
M  V30 2966 H 294.653 -3.41402 -0.360539 0
M  V30 2967 N 297.098 0.621204 -1.44841 0
M  V30 2968 C 298.323 1.41244 -1.51871 0
M  V30 2969 C 298.748 1.87519 -0.147764 0
M  V30 2970 O 298.106 1.59334 0.865 0
M  V30 2971 C 298.154 2.60221 -2.49634 0
M  V30 2972 O 297.258 3.60395 -2.00473 0
M  V30 2973 H 296.599 0.42223 -0.512463 0
M  V30 2974 H 299.129 0.757305 -1.90069 0
M  V30 2975 H 299.139 3.0764 -2.67996 0
M  V30 2976 H 297.814 2.25887 -3.4921 0
M  V30 2977 H 296.391 3.19717 -1.91925 0
M  V30 2978 N 298.576 1.31904 0.862503 0
M  V30 2979 C 299.524 1.20125 1.9918 0
M  V30 2980 C 300.518 0.107824 1.69056 0
M  V30 2981 O 301.724 0.270223 1.7796 0
M  V30 2982 H 298.099 0.372148 0.65346 0
M  V30 2983 H 300.07 2.15652 2.06244 0
M  V30 2984 C 298.819 0.933099 3.34946 0
M  V30 2985 H 298.142 1.76664 3.5865 0
M  V30 2986 H 299.582 0.890892 4.14535 0
M  V30 2987 C 298.041 -0.364172 3.34926 0
M  V30 2988 O 298.571 -1.37858 3.77304 0
M  V30 2989 N 296.777 -0.383362 2.8806 0
M  V30 2990 H 296.324 0.442651 2.53768 0
M  V30 2991 H 296.282 -1.25123 2.8843 0
M  V30 2992 N 300.054 -1.07777 1.14986 0
M  V30 2993 C 301.282 -1.84018 0.945773 0
M  V30 2994 C 301.697 -1.81897 -0.505863 0
M  V30 2995 O 301.054 -1.22726 -1.35072 0
M  V30 2996 C 301.105 -3.31287 1.44677 0
M  V30 2997 O 300.826 -3.33449 2.84154 0
M  V30 2998 C 302.327 -4.24311 1.28355 0
M  V30 2999 H 299.547 -0.580716 0.336169 0
M  V30 3000 H 302.091 -1.36077 1.52654 0
M  V30 3001 H 300.246 -3.76594 0.908625 0
M  V30 3002 H 300.66 -4.25427 3.06777 0
M  V30 3003 H 302.134 -5.2573 1.68261 0
M  V30 3004 H 302.611 -4.38612 0.227184 0
M  V30 3005 H 303.217 -3.84836 1.81056 0
M  V30 3006 N 301.532 -0.945985 -1.26051 0
M  V30 3007 C 302.479 -0.45809 -2.26208 0
M  V30 3008 C 303.449 0.484816 -1.58867 0
M  V30 3009 O 304.634 0.399969 -1.86561 0
M  V30 3010 C 301.774 0.266131 -3.44072 0
M  V30 3011 C 300.887 -0.713005 -4.26075 0
M  V30 3012 C 300.022 0.0329013 -5.3119 0
M  V30 3013 C 299.061 -0.93774 -6.04874 0
M  V30 3014 N 298.198 -0.223274 -7.01745 0
M  V30 3015 H 303.038 -1.3171 -2.67313 0
M  V30 3016 H 300.575 -0.66069 -1.31428 0
M  V30 3017 H 302.533 0.702514 -4.11243 0
M  V30 3018 H 301.163 1.08925 -3.03867 0
M  V30 3019 H 300.215 -1.26789 -3.58648 0
M  V30 3020 H 301.527 -1.45406 -4.77136 0
M  V30 3021 H 300.681 0.528335 -6.04395 0
M  V30 3022 H 299.42 0.806801 -4.8098 0
M  V30 3023 H 298.425 -1.44425 -5.30492 0
M  V30 3024 H 299.65 -1.71172 -6.57173 0
M  V30 3025 H 297.596 0.532046 -6.53839 0
M  V30 3026 H 297.513 -0.90357 -7.50581 0
M  V30 3027 H 298.781 0.250907 -7.79096 0
M  V30 3028 N 303.011 1.40521 -0.713556 0
M  V30 3029 C 304.257 2.01221 -0.252564 0
M  V30 3030 C 304.59 1.56444 1.1506 0
M  V30 3031 O 303.865 0.783597 1.78017 0
M  V30 3032 C 304.148 3.58582 -0.330332 0
M  V30 3033 C 304.001 4.13437 -1.77173 0
M  V30 3034 C 305.32 4.39079 0.299641 0
M  V30 3035 H 302.439 0.731077 -0.0932471 0
M  V30 3036 H 305.081 1.67026 -0.905673 0
M  V30 3037 H 303.231 3.87844 0.225737 0
M  V30 3038 H 304.903 3.9498 -2.38303 0
M  V30 3039 H 303.146 3.67801 -2.3001 0
M  V30 3040 H 303.817 5.22597 -1.77755 0
M  V30 3041 H 306.293 4.15735 -0.174139 0
M  V30 3042 H 305.169 5.4848 0.214771 0
M  V30 3043 H 305.43 4.19915 1.38288 0
M  V30 3044 N 304.489 0.459591 1.5075 0
M  V30 3045 C 305.766 -0.160371 1.94941 0
M  V30 3046 C 306.146 -1.58048 1.39943 0
M  V30 3047 O 305.494 -2.206 0.595629 0
M  V30 3048 C 305.704 -0.115432 3.48809 0
M  V30 3049 C 307.052 -0.310026 4.23467 0
M  V30 3050 O 308.076 -0.192543 3.55679 0
M  V30 3051 O 306.935 -0.546031 5.43765 0
M  V30 3052 H 304.029 -0.117925 0.818549 0
M  V30 3053 H 306.575 0.519169 1.61563 0
M  V30 3054 H 305.347 0.87652 3.81357 0
M  V30 3055 H 304.97 -0.836928 3.88692 0
M  V30 3056 N 305.967 -1.56429 0.191757 0
M  V30 3057 C 306.914 -2.18936 -0.730454 0
M  V30 3058 C 307.884 -1.13557 -1.21219 0
M  V30 3059 O 309.069 -1.41794 -1.27668 0
M  V30 3060 C 306.209 -2.85013 -1.9458 0
M  V30 3061 C 305.322 -4.04909 -1.50574 0
M  V30 3062 C 304.457 -4.58853 -2.67634 0
M  V30 3063 C 303.496 -5.71114 -2.20217 0
M  V30 3064 N 302.633 -6.19478 -3.30442 0
M  V30 3065 H 307.473 -2.97389 -0.190664 0
M  V30 3066 H 305.01 -1.46869 -0.0823694 0
M  V30 3067 H 306.968 -3.21492 -2.65893 0
M  V30 3068 H 305.598 -2.09129 -2.45896 0
M  V30 3069 H 304.65 -3.74115 -0.688605 0
M  V30 3070 H 305.962 -4.86113 -1.11784 0
M  V30 3071 H 305.116 -4.97619 -3.47074 0
M  V30 3072 H 303.855 -3.76749 -3.09696 0
M  V30 3073 H 302.86 -5.31879 -1.3923 0
M  V30 3074 H 304.085 -6.55033 -1.79189 0
M  V30 3075 H 302.031 -5.40297 -3.72041 0
M  V30 3076 H 301.948 -6.95725 -2.9581 0
M  V30 3077 H 303.216 -6.62898 -4.10106 0
M  V30 3078 N 307.445 0.0818655 -1.57387 0
M  V30 3079 C 308.392 1.09834 -2.0299 0
M  V30 3080 C 309.362 1.39043 -0.908639 0
M  V30 3081 O 310.547 1.50282 -1.17559 0
M  V30 3082 C 307.687 2.40971 -2.47037 0
M  V30 3083 C 306.8 2.18379 -3.7274 0
M  V30 3084 C 305.935 3.43008 -4.0561 0
M  V30 3085 C 304.974 3.15736 -5.24383 0
M  V30 3086 N 304.111 4.32667 -5.52941 0
M  V30 3087 H 308.951 0.702472 -2.89602 0
M  V30 3088 H 306.488 0.33531 -1.43227 0
M  V30 3089 H 308.446 3.1752 -2.70623 0
M  V30 3090 H 307.076 2.78379 -1.63417 0
M  V30 3091 H 306.128 1.32569 -3.56552 0
M  V30 3092 H 307.44 1.94227 -4.59431 0
M  V30 3093 H 306.594 4.27958 -4.30043 0
M  V30 3094 H 305.333 3.70225 -3.17466 0
M  V30 3095 H 304.338 2.2918 -4.99757 0
M  V30 3096 H 305.563 2.8985 -6.14136 0
M  V30 3097 H 303.509 4.59935 -4.67756 0
M  V30 3098 H 303.426 4.11753 -6.34031 0
M  V30 3099 H 304.694 5.18644 -5.81918 0
M  V30 3100 N 308.923 1.53595 0.353017 0
M  V30 3101 C 309.886 1.80232 1.41594 0
M  V30 3102 C 310.886 0.673081 1.46035 0
M  V30 3103 O 312.076 0.941335 1.46576 0
M  V30 3104 C 309.208 1.93578 2.80607 0
M  V30 3105 H 310.401 2.75174 1.19244 0
M  V30 3106 H 307.954 1.44864 0.586872 0
M  V30 3107 H 308.689 1.00746 3.08254 0
M  V30 3108 H 308.474 2.75724 2.78781 0
M  V30 3109 H 309.964 2.15735 3.57558 0
M  V30 3110 N 310.401 -0.613514 1.45168 0
M  V30 3111 C 311.311 -1.75296 1.55912 0
M  V30 3112 C 312.327 -1.68244 0.443856 0
M  V30 3113 O 313.503 -1.88706 0.70371 0
M  V30 3114 C 310.568 -3.1174 1.5172 0
M  V30 3115 C 309.629 -3.30291 2.74238 0
M  V30 3116 C 308.862 -4.60226 2.70236 0
M  V30 3117 O 309.085 -5.42168 1.77229 0
M  V30 3118 O 308.019 -4.81361 3.61352 0
M  V30 3119 H 311.845 -1.69183 2.52212 0
M  V30 3120 H 309.43 -0.776886 1.27612 0
M  V30 3121 H 311.312 -3.93044 1.51968 0
M  V30 3122 H 309.987 -3.18357 0.585697 0
M  V30 3123 H 308.894 -2.48598 2.79553 0
M  V30 3124 H 310.227 -3.28547 3.66494 0
M  V30 3125 N 311.879 -1.3236 -0.855495 0
M  V30 3126 C 313.29 -1.2056 -1.42556 0
M  V30 3127 C 313.641 0.182209 -1.95352 0
M  V30 3128 O 312.766 1.08088 -1.87472 0
M  V30 3129 C 313.361 -2.1826 -2.59129 0
M  V30 3130 C 311.92 -2.10351 -3.12137 0
M  V30 3131 C 311.067 -2.06674 -1.84882 0
M  V30 3132 H 314.018 -1.442 -0.662727 0
M  V30 3133 H 314.039 -1.78064 -3.36264 0
M  V30 3134 H 313.551 -3.19257 -2.20673 0
M  V30 3135 H 311.652 -1.12599 -3.55179 0
M  V30 3136 H 311.765 -3.00135 -3.73438 0
M  V30 3137 H 310.129 -1.51901 -2.04446 0
M  V30 3138 H 310.912 -3.09451 -1.48643 0
M  V30 3139 N 313.357 1.07166 -1.15556 0
M  V30 3140 C 314.304 2.14417 -0.854055 0
M  V30 3141 C 315.274 1.64965 0.193806 0
M  V30 3142 O 316.459 1.90703 0.0609443 0
M  V30 3143 C 313.599 3.43304 -0.351574 0
M  V30 3144 C 312.712 4.06537 -1.46123 0
M  V30 3145 C 311.847 5.23266 -0.914677 0
M  V30 3146 C 310.886 5.78464 -2.00114 0
M  V30 3147 N 310.023 6.86521 -1.47083 0
M  V30 3148 H 314.863 2.39548 -1.77259 0
M  V30 3149 H 312.4 1.17543 -0.884425 0
M  V30 3150 H 314.358 4.17179 -0.0419409 0
M  V30 3151 H 312.988 3.18419 0.530037 0
M  V30 3152 H 312.04 3.30297 -1.88701 0
M  V30 3153 H 313.352 4.43567 -2.28144 0
M  V30 3154 H 312.506 6.04131 -0.557698 0
M  V30 3155 H 311.245 4.87658 -0.0636583 0
M  V30 3156 H 310.25 4.96243 -2.36692 0
M  V30 3157 H 311.475 6.16126 -2.85597 0
M  V30 3158 H 309.421 6.52849 -0.642198 0
M  V30 3159 H 309.338 7.22446 -2.22729 0
M  V30 3160 H 310.606 7.71087 -1.14215 0
M  V30 3161 N 314.835 0.952656 1.25548 0
M  V30 3162 C 316.06 0.623025 1.97821 0
M  V30 3163 C 316.485 -0.7976 1.70352 0
M  V30 3164 O 315.843 -1.53905 0.958283 0
M  V30 3165 C 315.891 0.885532 3.49558 0
M  V30 3166 O 314.995 -0.0366641 4.12384 0
M  V30 3167 H 314.336 0.237082 0.620232 0
M  V30 3168 H 316.866 1.27871 1.59719 0
M  V30 3169 H 316.876 0.811009 3.99858 0
M  V30 3170 H 315.551 1.92094 3.6888 0
M  V30 3171 H 314.128 0.0898954 3.72792 0
M  V30 3172 N 316.313 -1.40141 0.720998 0
M  V30 3173 C 317.553 -2.02644 0.267335 0
M  V30 3174 C 317.917 -1.55948 -1.12001 0
M  V30 3175 O 319.118 -2.10552 -1.67097 0
M  V30 3176 C 317.389 -3.55679 0.350281 0
M  V30 3177 S 318.948 -4.38793 -0.0256004 0
M  V30 3178 H 315.766 -0.703105 0.105664 0
M  V30 3179 H 318.368 -1.71175 0.944416 0
M  V30 3180 H 317.072 -3.87157 1.36153 0
M  V30 3181 H 316.603 -3.91883 -0.345096 0
M  V30 3182 H 318.618 -4.803 -1.24604 0
M  V30 3183 N 317.792 -0.46758 -1.50504 0
M  V30 3184 C 319.069 0.15003 -1.95024 0
M  V30 3185 C 319.449 1.57304 -1.40779 0
M  V30 3186 O 318.797 2.20281 -0.607319 0
M  V30 3187 C 319.007 0.0969324 -3.48865 0
M  V30 3188 C 320.355 0.287565 -4.23625 0
M  V30 3189 O 321.379 0.173678 -3.55776 0
M  V30 3190 O 320.238 0.517186 -5.44047 0
M  V30 3191 H 317.332 0.113582 -0.819163 0
M  V30 3192 H 319.878 -0.52773 -1.61286 0
M  V30 3193 H 318.65 -0.896732 -3.80886 0
M  V30 3194 H 318.273 0.816303 -3.8913 0
M  V30 3195 N 319.27 1.56325 -0.20005 0
M  V30 3196 C 320.217 2.1932 0.718833 0
M  V30 3197 C 321.187 1.14198 1.20615 0
M  V30 3198 O 322.372 1.42469 1.26914 0
M  V30 3199 C 319.512 2.86041 1.93066 0
M  V30 3200 C 318.625 4.05702 1.48425 0
M  V30 3201 C 317.76 4.60266 2.65196 0
M  V30 3202 C 316.799 5.72273 2.17185 0
M  V30 3203 N 315.936 6.21221 3.27152 0
M  V30 3204 H 320.776 2.97486 0.17489 0
M  V30 3205 H 318.313 1.46911 0.0745794 0
M  V30 3206 H 320.271 3.22897 2.64184 0
M  V30 3207 H 318.901 2.1043 2.44783 0
M  V30 3208 H 317.953 3.74475 0.668755 0
M  V30 3209 H 319.265 4.86699 1.09204 0
M  V30 3210 H 318.419 4.99453 3.4443 0
M  V30 3211 H 317.158 3.78386 3.07693 0
M  V30 3212 H 316.163 5.3261 1.36407 0
M  V30 3213 H 317.388 6.55974 1.75713 0
M  V30 3214 H 315.334 5.42263 3.69171 0
M  V30 3215 H 315.251 6.97284 2.92116 0
M  V30 3216 H 316.519 6.65063 4.06585 0
M  V30 3217 N 320.748 -0.0735177 1.57428 0
M  V30 3218 C 321.976 -0.785969 1.9139 0
M  V30 3219 C 322.391 -1.71207 0.795847 0
M  V30 3220 O 321.748 -1.81033 -0.230915 0
M  V30 3221 C 321.799 -1.58107 3.25091 0
M  V30 3222 O 321.52 -0.6922 4.32597 0
M  V30 3223 C 323.021 -2.39467 3.73055 0
M  V30 3224 H 320.241 -0.223558 0.632663 0
M  V30 3225 H 322.785 -0.044302 2.04452 0
M  V30 3226 H 320.94 -2.27503 3.13562 0
M  V30 3227 H 321.354 -1.24504 5.09508 0
M  V30 3228 H 322.828 -2.90716 4.69242 0
M  V30 3229 H 323.305 -3.18913 3.01979 0
M  V30 3230 H 323.911 -1.7523 3.87523 0
M  V30 3231 N 322.226 -1.5378 -0.344866 0
M  V30 3232 C 323.176 -1.78057 -1.42407 0
M  V30 3233 C 324.16 -0.635732 -1.47808 0
M  V30 3234 O 325.352 -0.89508 -1.527 0
M  V30 3235 C 322.481 -1.99242 -2.79566 0
M  V30 3236 C 321.567 -3.19787 -2.78562 0
M  V30 3237 N 321.958 -4.41284 -2.47189 0
M  V30 3238 C 320.256 -3.2093 -3.0971 0
M  V30 3239 C 320.957 -5.23128 -2.54385 0
M  V30 3240 N 319.933 -4.59813 -2.89953 0
M  V30 3241 H 323.735 -2.69588 -1.17046 0
M  V30 3242 H 321.249 -1.52687 -0.553217 0
M  V30 3243 H 323.246 -2.14768 -3.57324 0
M  V30 3244 H 321.906 -1.08953 -3.05875 0
M  V30 3245 H 322.917 -4.68657 -2.20411 0
M  V30 3246 H 319.594 -2.40603 -3.41199 0
M  V30 3247 H 320.984 -6.30096 -2.333 0
M  V30 3248 N 323.704 0.605807 -1.45491 0
M  V30 3249 C 324.932 1.39136 -1.5313 0
M  V30 3250 C 325.347 1.88082 -0.164507 0
M  V30 3251 O 324.704 1.62316 0.834247 0
M  V30 3252 C 324.755 2.59463 -2.51716 0
M  V30 3253 O 324.476 2.12551 -3.83084 0
M  V30 3254 C 325.977 3.52301 -2.6907 0
M  V30 3255 H 323.197 0.425849 -0.51855 0
M  V30 3256 H 325.741 0.73865 -1.90694 0
M  V30 3257 H 323.896 3.20772 -2.17219 0
M  V30 3258 H 324.31 2.90744 -4.36541 0
M  V30 3259 H 325.784 4.33271 -3.42024 0
M  V30 3260 H 326.261 4.02757 -1.75167 0
M  V30 3261 H 326.867 2.96845 -3.04571 0
M  V30 3262 N 325.182 1.32811 0.848464 0
M  V30 3263 C 326.422 1.25046 1.61687 0
M  V30 3264 C 326.786 -0.183464 1.91121 0
M  V30 3265 O 327.987 -0.384937 2.66029 0
M  V30 3266 C 326.258 2.09201 2.89775 0
M  V30 3267 S 327.817 2.18526 3.80515 0
M  V30 3268 H 324.635 0.445023 0.554505 0
M  V30 3269 H 327.237 1.67733 1.00429 0
M  V30 3270 H 325.941 3.12433 2.66108 0
M  V30 3271 H 325.472 1.67315 3.56047 0
M  V30 3272 H 327.487 1.3393 4.77784 0
M  V30 3273 N 326.66 -1.06551 1.16123 0
M  V30 3274 C 328.071 -1.60768 0.949232 0
M  V30 3275 C 328.422 -1.89523 -0.507508 0
M  V30 3276 O 327.547 -1.66671 -1.38021 0
M  V30 3277 C 328.142 -2.92086 1.71671 0
M  V30 3278 C 326.701 -3.43015 1.54977 0
M  V30 3279 C 325.848 -2.16947 1.72711 0
M  V30 3280 H 328.799 -0.895354 1.31031 0
M  V30 3281 H 328.82 -3.6138 1.19099 0
M  V30 3282 H 328.332 -2.71127 2.7769 0
M  V30 3283 H 326.433 -3.69039 0.513873 0
M  V30 3284 H 326.546 -4.18516 2.33198 0
M  V30 3285 H 324.91 -2.27041 1.15431 0
M  V30 3286 H 325.693 -1.98473 2.80113 0
M  V30 3287 N 328.138 -0.959301 -1.25041 0
M  V30 3288 C 329.549 -0.65667 -1.74771 0
M  V30 3289 C 329.9 0.827852 -1.77879 0
M  V30 3290 O 329.025 1.64783 -1.40269 0
M  V30 3291 C 329.62 -1.1853 -3.1739 0
M  V30 3292 C 328.179 -0.932734 -3.6466 0
M  V30 3293 C 327.326 -1.32558 -2.43564 0
M  V30 3294 H 330.277 -1.13558 -1.10862 0
M  V30 3295 H 330.298 -0.547582 -3.76539 0
M  V30 3296 H 329.81 -2.26576 -3.15095 0
M  V30 3297 H 327.911 0.13257 -3.72364 0
M  V30 3298 H 328.024 -1.57248 -4.52559 0
M  V30 3299 H 326.388 -0.743956 -2.43593 0
M  V30 3300 H 327.171 -2.41537 -2.43957 0
M  V30 3301 N 329.616 1.39756 -0.72842 0
M  V30 3302 C 330.856 2.025 -0.278078 0
M  V30 3303 C 331.22 1.5654 1.11173 0
M  V30 3304 O 332.421 2.11435 1.65978 0
M  V30 3305 C 330.692 3.55489 -0.369139 0
M  V30 3306 S 332.251 4.388 0.00232983 0
M  V30 3307 H 329.069 0.702534 -0.109391 0
M  V30 3308 H 331.671 1.70672 -0.95348 0
M  V30 3309 H 330.375 3.86429 -1.38204 0
M  V30 3310 H 329.906 3.92061 0.324308 0
M  V30 3311 H 331.921 4.80954 1.22055 0
M  V30 3312 N 331.094 0.475555 1.50254 0
M  V30 3313 C 332.505 0.0215174 1.86688 0
M  V30 3314 C 332.856 -1.38467 1.39001 0
M  V30 3315 O 331.981 -2.02732 0.756894 0
M  V30 3316 C 332.576 0.0322715 3.38785 0
M  V30 3317 C 331.135 -0.366314 3.74613 0
M  V30 3318 C 330.282 0.415832 2.74164 0
M  V30 3319 H 333.233 0.689612 1.42934 0
M  V30 3320 H 333.254 -0.76889 3.7265 0
M  V30 3321 H 332.766 1.05584 3.73462 0
M  V30 3322 H 330.867 -1.39406 3.45538 0
M  V30 3323 H 330.98 -0.064555 4.79057 0
M  V30 3324 H 329.344 -0.131048 2.54363 0
M  V30 3325 H 330.127 1.43899 3.11686 0
M  V30 3326 N 332.573 -1.56217 0.208337 0
M  V30 3327 C 333.536 -2.18455 -0.693557 0
M  V30 3328 C 334.536 -1.14268 -1.13135 0
M  V30 3329 O 335.726 -1.39577 -1.0423 0
M  V30 3330 C 332.858 -2.79727 -1.94848 0
M  V30 3331 H 334.051 -2.99519 -0.15114 0
M  V30 3332 H 331.604 -1.56245 -0.041287 0
M  V30 3333 H 332.339 -2.02497 -2.53309 0
M  V30 3334 H 332.124 -3.56009 -1.64316 0
M  V30 3335 H 333.614 -3.27475 -2.59133 0
M  V30 3336 N 334.051 0.0651679 -1.57465 0
M  V30 3337 C 335.462 0.616213 -1.76238 0
M  V30 3338 C 335.813 1.7756 -0.834689 0
M  V30 3339 O 334.938 2.1639 -0.0204156 0
M  V30 3340 C 335.533 1.12462 -3.1959 0
M  V30 3341 C 334.092 1.62147 -3.39684 0
M  V30 3342 C 333.239 0.543739 -2.71917 0
M  V30 3343 H 336.19 -0.161022 -1.57881 0
M  V30 3344 H 336.211 1.99324 -3.24114 0
M  V30 3345 H 335.723 0.280592 -3.87084 0
M  V30 3346 H 333.824 2.48854 -2.77313 0
M  V30 3347 H 333.937 1.69385 -4.48158 0
M  V30 3348 H 332.301 0.990352 -2.34657 0
M  V30 3349 H 333.084 -0.290216 -3.42071 0
M  V30 3350 N 335.529 1.53961 0.336706 0
M  V30 3351 C 336.439 1.85432 1.43708 0
M  V30 3352 C 337.455 0.745053 1.57242 0
M  V30 3353 O 338.631 1.03804 1.72588 0
M  V30 3354 C 335.696 2.06349 2.78605 0
M  V30 3355 C 334.757 3.30191 2.74358 0
M  V30 3356 C 333.99 3.50101 4.02822 0
M  V30 3357 O 334.213 2.7371 5.00439 0
M  V30 3358 O 333.147 4.43547 4.06878 0
M  V30 3359 H 336.973 2.78975 1.20028 0
M  V30 3360 H 334.558 1.39701 0.52952 0
M  V30 3361 H 336.44 2.21513 3.58483 0
M  V30 3362 H 335.115 1.15995 3.02203 0
M  V30 3363 H 334.022 3.20425 1.93078 0
M  V30 3364 H 335.355 4.2056 2.55715 0
M  V30 3365 N 337.007 -0.598083 1.45811 0
M  V30 3366 C 337.937 -1.71873 1.58057 0
M  V30 3367 C 338.918 -1.64533 0.431615 0
M  V30 3368 O 340.103 -1.82787 0.65595 0
M  V30 3369 C 337.233 -3.10495 1.55597 0
M  V30 3370 C 336.187 -3.32654 2.69305 0
M  V30 3371 C 335.513 -4.71646 2.51902 0
M  V30 3372 C 336.813 -3.21981 4.11248 0
M  V30 3373 H 338.507 -1.61881 2.51863 0
M  V30 3374 H 336.053 -0.777372 1.21214 0
M  V30 3375 H 338.006 -3.88699 1.6276 0
M  V30 3376 H 336.73 -3.2135 0.583255 0
M  V30 3377 H 335.389 -2.56843 2.61586 0
M  V30 3378 H 335.037 -4.79246 1.52748 0
M  V30 3379 H 334.737 -4.87426 3.2816 0
M  V30 3380 H 336.261 -5.52038 2.60933 0
M  V30 3381 H 337.675 -3.90049 4.20161 0
M  V30 3382 H 336.072 -3.49289 4.87972 0
M  V30 3383 H 337.142 -2.1928 4.32486 0
M  V30 3384 N 338.485 -1.33259 -0.841409 0
M  V30 3385 C 339.415 -1.25926 -1.96634 0
M  V30 3386 C 340.396 -0.140349 -1.6952 0
M  V30 3387 O 341.581 -0.329707 -1.91381 0
M  V30 3388 C 338.711 -0.99512 -3.32738 0
M  V30 3389 C 337.665 -2.0767 -3.74242 0
M  V30 3390 C 336.991 -1.66474 -5.08125 0
M  V30 3391 C 338.291 -3.49318 -3.88297 0
M  V30 3392 H 339.985 -2.20046 -2.03027 0
M  V30 3393 H 337.531 -1.05931 -0.975425 0
M  V30 3394 H 339.484 -0.930323 -4.11002 0
M  V30 3395 H 338.208 -0.0183004 -3.26595 0
M  V30 3396 H 336.867 -2.13187 -2.98239 0
M  V30 3397 H 336.515 -0.675012 -4.9845 0
M  V30 3398 H 336.215 -2.3885 -5.36865 0
M  V30 3399 H 337.739 -1.61455 -5.88867 0
M  V30 3400 H 339.153 -3.46316 -4.56879 0
M  V30 3401 H 337.55 -4.20158 -4.28471 0
M  V30 3402 H 338.62 -3.8801 -2.9082 0
M  V30 3403 N 339.963 1.05934 -1.16686 0
M  V30 3404 C 341.211 1.78447 -0.948744 0
M  V30 3405 C 341.532 1.87813 0.524523 0
M  V30 3406 O 340.802 1.38945 1.38098 0
M  V30 3407 H 339.382 0.660971 -0.348033 0
M  V30 3408 H 342.044 1.27947 -1.47022 0
M  V30 3409 H 341.14 2.80394 -1.37061 0
M  V30 3410 N 341.441 0.965919 1.2453 0
M  V30 3411 C 342.689 0.625593 1.92174 0
M  V30 3412 C 343.01 -0.841652 1.75901 0
M  V30 3413 O 342.28 -1.60061 1.12948 0
M  V30 3414 H 340.86 0.228388 0.71123 0
M  V30 3415 H 343.522 1.2266 1.51461 0
M  V30 3416 H 342.618 0.864653 2.99884 0
M  V30 3417 N 342.919 -1.39368 0.735821 0
M  V30 3418 C 344.33 -1.83313 0.354015 0
M  V30 3419 C 344.681 -1.61461 -1.11466 0
M  V30 3420 O 343.806 -1.10621 -1.85989 0
M  V30 3421 C 344.401 -3.32781 0.635769 0
M  V30 3422 C 342.96 -3.75142 0.307448 0
M  V30 3423 C 342.107 -2.62358 0.897974 0
M  V30 3424 H 345.058 -1.28349 0.933398 0
M  V30 3425 H 345.079 -3.80388 -0.0921773 0
M  V30 3426 H 344.591 -3.48654 1.70476 0
M  V30 3427 H 342.692 -3.64857 -0.755674 0
M  V30 3428 H 342.805 -4.72532 0.790583 0
M  V30 3429 H 341.169 -2.52624 0.324551 0
M  V30 3430 H 341.952 -2.81036 1.97164 0
M  V30 3431 N 344.397 -0.483516 -1.5 0
M  V30 3432 C 345.622 0.0667119 -2.07293 0
M  V30 3433 C 346.047 1.3164 -1.3436 0
M  V30 3434 O 345.405 1.76945 -0.394987 0
M  V30 3435 C 345.453 0.321126 -3.59167 0
M  V30 3436 O 344.557 1.39927 -3.87936 0
M  V30 3437 H 343.898 -0.0184758 -0.663743 0
M  V30 3438 H 346.428 -0.678125 -1.93035 0
M  V30 3439 H 346.438 0.557906 -4.04168 0
M  V30 3440 H 345.113 -0.592007 -4.11665 0
M  V30 3441 H 343.69 1.14882 -3.54763 0
M  V30 3442 N 345.875 1.56104 -0.216619 0
M  V30 3443 C 347.121 1.98466 0.417033 0
M  V30 3444 C 347.454 1.10403 1.59765 0
M  V30 3445 O 346.729 0.160632 1.93836 0
M  V30 3446 C 347.012 3.49769 0.85637 0
M  V30 3447 C 346.865 4.48606 -0.327546 0
M  V30 3448 C 348.184 4.05339 1.7143 0
M  V30 3449 H 345.303 0.721551 0.150112 0
M  V30 3450 H 347.945 1.87423 -0.311864 0
M  V30 3451 H 346.095 3.5931 1.47745 0
M  V30 3452 H 347.767 4.5108 -0.965618 0
M  V30 3453 H 346.01 4.22682 -0.975805 0
M  V30 3454 H 346.681 5.51995 0.0227149 0
M  V30 3455 H 349.157 3.98712 1.19031 0
M  V30 3456 H 348.033 5.11533 1.99061 0
M  V30 3457 H 348.294 3.51918 2.67593 0
M  V30 3458 N 347.353 -0.0568162 1.57498 0
M  V30 3459 C 348.6 -0.753104 1.87975 0
M  V30 3460 C 348.928 -1.76815 0.81035 0
M  V30 3461 O 348.183 -1.94756 -0.19199 0
M  V30 3462 C 348.482 -1.48359 3.25153 0
M  V30 3463 C 348.148 -0.60713 4.46794 0
M  V30 3464 C 346.81 -0.365642 4.79809 0
M  V30 3465 C 349.162 -0.000305978 5.212 0
M  V30 3466 C 346.49 0.491905 5.84634 0
M  V30 3467 C 348.842 0.844781 6.26934 0
M  V30 3468 C 347.506 1.096 6.58441 0
M  V30 3469 H 346.776 -0.27558 0.687849 0
M  V30 3470 H 349.423 -0.0135173 1.91495 0
M  V30 3471 H 347.728 -2.29577 3.17492 0
M  V30 3472 H 349.425 -2.02739 3.45974 0
M  V30 3473 H 346.015 -0.805487 4.20963 0
M  V30 3474 H 350.199 -0.173961 4.95995 0
M  V30 3475 H 345.455 0.695131 6.07436 0
M  V30 3476 H 349.629 1.32165 6.83744 0
M  V30 3477 H 347.256 1.76224 7.39492 0
M  V30 3478 N 348.832 -1.54138 -0.328536 0
M  V30 3479 C 349.762 -1.86167 -1.40939 0
M  V30 3480 C 350.743 -0.718044 -1.54202 0
M  V30 3481 O 351.928 -0.971328 -1.68163 0
M  V30 3482 C 349.058 -2.08461 -2.77779 0
M  V30 3483 C 348.012 -3.24299 -2.7931 0
M  V30 3484 C 347.338 -3.31955 -4.19178 0
M  V30 3485 C 348.638 -4.62065 -2.43502 0
M  V30 3486 H 350.332 -2.76689 -1.14383 0
M  V30 3487 H 347.878 -1.33132 -0.548806 0
M  V30 3488 H 349.831 -2.29453 -3.53454 0
M  V30 3489 H 348.555 -1.14684 -3.05802 0
M  V30 3490 H 347.214 -3.03187 -2.0609 0
M  V30 3491 H 346.862 -2.35745 -4.44335 0
M  V30 3492 H 346.562 -4.09805 -4.2111 0
M  V30 3493 H 348.086 -3.55175 -4.96672 0
M  V30 3494 H 349.5 -4.8297 -3.08889 0
M  V30 3495 H 347.897 -5.42429 -2.56693 0
M  V30 3496 H 348.967 -4.64652 -1.38659 0
M  V30 3497 N 350.31 0.590341 -1.46126 0
M  V30 3498 C 351.557 1.34882 -1.5104 0
M  V30 3499 C 351.885 1.93849 -0.159021 0
M  V30 3500 O 351.14 1.76544 0.844436 0
M  V30 3501 C 351.439 2.5032 -2.55097 0
M  V30 3502 C 351.105 2.09394 -3.99331 0
M  V30 3503 C 349.767 1.97947 -4.38601 0
M  V30 3504 C 352.119 1.77712 -4.89967 0
M  V30 3505 C 349.447 1.53065 -5.66381 0
M  V30 3506 C 351.799 1.34312 -6.18177 0
M  V30 3507 C 350.463 1.21436 -6.56361 0
M  V30 3508 H 349.733 0.493568 -0.552695 0
M  V30 3509 H 352.38 0.665539 -1.79563 0
M  V30 3510 H 350.685 3.24062 -2.20207 0
M  V30 3511 H 352.382 3.08541 -2.56132 0
M  V30 3512 H 348.972 2.19235 -3.68285 0
M  V30 3513 H 353.156 1.85445 -4.60352 0
M  V30 3514 H 348.412 1.41733 -5.94745 0
M  V30 3515 H 352.586 1.08849 -6.87841 0
M  V30 3516 H 350.213 0.864345 -7.5527 0
M  V30 3517 N 351.788 1.33704 0.83433 0
M  V30 3518 C 353.199 1.22813 1.4062 0
M  V30 3519 C 353.55 -0.151107 1.95617 0
M  V30 3520 O 352.675 -1.05092 1.89168 0
M  V30 3521 C 353.27 2.22355 2.55624 0
M  V30 3522 C 351.829 2.1529 3.08751 0
M  V30 3523 C 350.976 2.09589 1.8157 0
M  V30 3524 H 353.927 1.45236 0.639702 0
M  V30 3525 H 353.948 1.83391 3.33389 0
M  V30 3526 H 353.46 3.22728 2.15566 0
M  V30 3527 H 351.561 1.18235 3.53343 0
M  V30 3528 H 351.674 3.06038 3.68616 0
M  V30 3529 H 350.038 1.55134 2.02004 0
M  V30 3530 H 350.821 3.11777 1.43701 0
M  V30 3531 N 353.266 -1.05314 1.17247 0
M  V30 3532 C 354.677 -1.59753 0.96623 0
M  V30 3533 C 355.028 -1.9005 -0.487378 0
M  V30 3534 O 354.153 -1.68126 -1.36245 0
M  V30 3535 C 354.748 -2.90249 1.74759 0
M  V30 3536 C 353.307 -3.41352 1.58606 0
M  V30 3537 C 352.454 -2.15103 1.75002 0
M  V30 3538 H 355.405 -0.881406 1.31973 0
M  V30 3539 H 355.426 -3.60097 1.22925 0
M  V30 3540 H 354.938 -2.68166 2.8055 0
M  V30 3541 H 353.039 -3.68474 0.552985 0
M  V30 3542 H 353.152 -4.16019 2.37624 0
M  V30 3543 H 351.516 -2.25804 1.17833 0
M  V30 3544 H 352.299 -1.95491 2.82202 0
M  V30 3545 N 354.744 -0.972509 -1.24016 0
M  V30 3546 C 355.691 -0.505969 -2.25186 0
M  V30 3547 C 356.661 0.451009 -1.5986 0
M  V30 3548 O 357.846 0.360307 -1.87367 0
M  V30 3549 C 354.986 0.193089 -3.44559 0
M  V30 3550 C 354.099 -0.803222 -4.24467 0
M  V30 3551 C 353.234 -0.0797793 -5.3114 0
M  V30 3552 C 352.273 -1.06583 -6.02749 0
M  V30 3553 N 351.41 -0.372074 -7.01113 0
M  V30 3554 H 356.25 -1.37351 -2.64459 0
M  V30 3555 H 353.787 -0.688419 -1.29997 0
M  V30 3556 H 355.745 0.615125 -4.1264 0
M  V30 3557 H 354.375 1.02455 -3.06109 0
M  V30 3558 H 353.427 -1.34368 -3.55878 0
M  V30 3559 H 354.739 -1.55494 -4.73944 0
M  V30 3560 H 353.893 0.400015 -6.0538 0
M  V30 3561 H 352.632 0.704597 -4.82583 0
M  V30 3562 H 351.637 -1.55645 -5.27309 0
M  V30 3563 H 352.862 -1.85074 -6.53395 0
M  V30 3564 H 350.808 0.393238 -6.5482 0
M  V30 3565 H 350.725 -1.06258 -7.48495 0
M  V30 3566 H 351.993 0.0855932 -7.79453 0
M  V30 3567 N 356.222 1.38976 -0.743202 0
M  V30 3568 C 357.633 1.83123 -0.363732 0
M  V30 3569 C 357.984 1.6205 1.10609 0
M  V30 3570 O 357.109 1.11606 1.854 0
M  V30 3571 C 357.704 3.32439 -0.653408 0
M  V30 3572 C 356.263 3.74974 -0.327338 0
M  V30 3573 C 355.41 2.61878 -0.911875 0
M  V30 3574 H 358.361 1.27852 -0.940191 0
M  V30 3575 H 358.382 3.80432 0.0720031 0
M  V30 3576 H 357.894 3.47745 -1.72323 0
M  V30 3577 H 355.995 3.65252 0.736314 0
M  V30 3578 H 356.108 4.72106 -0.815631 0
M  V30 3579 H 354.472 2.52448 -0.337944 0
M  V30 3580 H 355.255 2.79987 -1.98651 0
M  V30 3581 N 357.7 0.491464 1.49741 0
M  V30 3582 C 358.647 -0.292027 2.28945 0
M  V30 3583 C 359.617 -0.968973 1.34908 0
M  V30 3584 O 360.802 -0.97748 1.6386 0
M  V30 3585 C 357.942 -1.35617 3.17336 0
M  V30 3586 C 357.055 -0.691957 4.26422 0
M  V30 3587 C 356.19 -1.73572 5.02042 0
M  V30 3588 C 355.229 -1.05286 6.02977 0
M  V30 3589 N 354.366 -2.0404 6.71798 0
M  V30 3590 H 359.206 0.389654 2.95442 0
M  V30 3591 H 356.743 0.204003 1.45679 0
M  V30 3592 H 358.701 -1.98502 3.66951 0
M  V30 3593 H 357.331 -2.00674 2.52844 0
M  V30 3594 H 356.383 0.0499523 3.80367 0
M  V30 3595 H 357.695 -0.153946 4.98562 0
M  V30 3596 H 356.849 -2.43987 5.55478 0
M  V30 3597 H 355.588 -2.30757 4.29654 0
M  V30 3598 H 354.593 -0.334446 5.48782 0
M  V30 3599 H 355.818 -0.487636 6.77347 0
M  V30 3600 H 353.764 -2.60205 6.02187 0
M  V30 3601 H 353.681 -1.55279 7.39881 0
M  V30 3602 H 354.949 -2.73772 7.29842 0
M  V30 3603 N 359.178 -1.55987 0.224894 0
M  V30 3604 C 360.455 -1.90232 -0.455083 0
M  V30 3605 C 360.835 -1.14269 -1.77499 0
M  V30 3606 O 360.183 -0.253079 -2.27094 0
M  V30 3607 C 360.393 -3.42993 -0.644758 0
M  V30 3608 C 361.741 -4.13821 -0.950669 0
M  V30 3609 O 362.765 -3.4861 -0.731423 0
M  V30 3610 O 361.624 -5.29128 -1.36695 0
M  V30 3611 H 358.718 -0.79108 -0.241084 0
M  V30 3612 H 361.264 -1.67581 0.267327 0
M  V30 3613 H 360.036 -3.90252 0.28613 0
M  V30 3614 H 359.659 -3.71434 -1.41853 0
M  V30 3615 N 360.656 0.0484629 -1.57525 0
M  V30 3616 C 361.884 0.755421 -1.92616 0
M  V30 3617 C 362.299 1.69919 -0.822984 0
M  V30 3618 O 361.656 1.81378 0.202085 0
M  V30 3619 C 361.707 1.52915 -3.27566 0
M  V30 3620 O 361.428 0.62329 -4.33644 0
M  V30 3621 C 362.929 2.33502 -3.76818 0
M  V30 3622 H 360.149 0.213465 -0.63614 0
M  V30 3623 H 362.693 0.0117698 -2.04497 0
M  V30 3624 H 360.848 2.22486 -3.17142 0
M  V30 3625 H 361.262 1.16383 -5.11425 0
M  V30 3626 H 362.736 2.83214 -4.73808 0
M  V30 3627 H 363.213 3.14068 -3.07014 0
M  V30 3628 H 363.819 1.69043 -3.90262 0
M  V30 3629 N 362.134 1.5431 0.320358 0
M  V30 3630 C 363.064 1.86912 1.3995 0
M  V30 3631 C 364.045 0.726211 1.53819 0
M  V30 3632 O 365.23 0.980233 1.67646 0
M  V30 3633 C 362.36 2.09932 2.7667 0
M  V30 3634 C 361.314 3.25776 2.77586 0
M  V30 3635 C 360.64 3.34173 4.17412 0
M  V30 3636 C 361.94 4.6335 2.41048 0
M  V30 3637 H 363.634 2.77292 1.12914 0
M  V30 3638 H 361.18 1.33421 0.541738 0
M  V30 3639 H 363.133 2.31324 3.52232 0
M  V30 3640 H 361.857 1.16304 3.0519 0
M  V30 3641 H 360.516 3.04276 2.04479 0
M  V30 3642 H 360.164 2.38098 4.43078 0
M  V30 3643 H 359.864 4.12033 4.18931 0
M  V30 3644 H 361.388 3.57803 4.94782 0
M  V30 3645 H 362.802 4.84602 3.06324 0
M  V30 3646 H 361.199 5.43782 2.53813 0
M  V30 3647 H 362.269 4.65381 1.36193 0
M  V30 3648 N 363.613 -0.582584 1.46437 0
M  V30 3649 C 364.546 -1.70633 1.51524 0
M  V30 3650 C 365.524 -1.58349 0.369351 0
M  V30 3651 O 366.708 -1.79563 0.573516 0
M  V30 3652 C 363.835 -3.08687 1.39392 0
M  V30 3653 C 362.881 -3.3949 2.58164 0
M  V30 3654 S 363.714 -3.31548 4.20519 0
M  V30 3655 C 364.87 -4.72139 4.10896 0
M  V30 3656 H 365.103 -1.66058 2.46601 0
M  V30 3657 H 362.636 -0.761337 1.34324 0
M  V30 3658 H 364.594 -3.8833 1.33079 0
M  V30 3659 H 363.255 -3.10751 0.457436 0
M  V30 3660 H 362.448 -4.40071 2.45669 0
M  V30 3661 H 362.05 -2.67415 2.61468 0
M  V30 3662 H 364.342 -5.62527 3.77584 0
M  V30 3663 H 365.285 -4.89692 5.11476 0
M  V30 3664 H 365.693 -4.48995 3.42146 0
M  V30 3665 N 365.091 -1.34144 -0.827227 0
M  V30 3666 C 366.34 -1.25602 -1.5782 0
M  V30 3667 C 366.653 0.173445 -1.94829 0
M  V30 3668 O 367.859 0.380984 -2.68814 0
M  V30 3669 C 366.315 -2.20151 -2.84713 0
M  V30 3670 C 365.923 -3.68331 -2.55021 0
M  V30 3671 C 367.667 -2.20508 -3.62735 0
M  V30 3672 C 365.574 -4.54762 -3.78082 0
M  V30 3673 H 364.504 -0.466573 -0.592306 0
M  V30 3674 H 367.155 -1.59283 -0.911116 0
M  V30 3675 H 365.537 -1.79417 -3.53023 0
M  V30 3676 H 366.711 -4.17577 -1.94849 0
M  V30 3677 H 365.026 -3.7038 -1.90283 0
M  V30 3678 H 367.623 -2.82306 -4.54101 0
M  V30 3679 H 367.966 -1.20322 -3.98533 0
M  V30 3680 H 368.499 -2.59664 -3.01362 0
M  V30 3681 H 365.238 -5.55867 -3.47407 0
M  V30 3682 H 364.758 -4.10254 -4.37552 0
M  V30 3683 H 366.437 -4.69153 -4.45538 0
M  V30 3684 N 366.569 1.04691 -1.17803 0
M  V30 3685 C 367.794 1.81984 -0.994813 0
M  V30 3686 C 368.219 1.82586 0.452112 0
M  V30 3687 O 367.577 1.23854 1.324 0
M  V30 3688 C 367.625 3.2575 -1.54659 0
M  V30 3689 O 366.729 4.05267 -0.763728 0
M  V30 3690 H 366.07 0.562483 -0.352857 0
M  V30 3691 H 368.6 1.3189 -1.56417 0
M  V30 3692 H 368.61 3.76541 -1.57102 0
M  V30 3693 H 367.285 3.24627 -2.59981 0
M  V30 3694 H 365.862 3.63972 -0.811108 0
M  V30 3695 N 368.047 0.979072 1.23499 0
M  V30 3696 C 369.463 0.687475 1.44034 0
M  V30 3697 C 369.663 -0.746801 1.8715 0
M  V30 3698 O 368.719 -1.51939 2.0167 0
M  V30 3699 C 370.032 1.68127 2.49307 0
M  V30 3700 C 371.58 1.69516 2.63122 0
M  V30 3701 C 372.055 2.67723 3.71603 0
M  V30 3702 N 373.546 2.66233 3.79044 0
M  V30 3703 C 374.281 3.38891 4.62537 0
M  V30 3704 N 373.777 4.21103 5.50131 0
M  V30 3705 N 375.57 3.27661 4.56721 0
M  V30 3706 H 367.721 1.90559 0.938135 0
M  V30 3707 H 369.984 0.821051 0.473897 0
M  V30 3708 H 369.69 2.70693 2.2454 0
M  V30 3709 H 369.564 1.46306 3.4767 0
M  V30 3710 H 371.951 0.676561 2.8724 0
M  V30 3711 H 372.032 1.95404 1.65079 0
M  V30 3712 H 371.676 3.69724 3.48233 0
M  V30 3713 H 371.606 2.39111 4.69184 0
M  V30 3714 H 374.097 2.06568 3.16446 0
M  V30 3715 H 374.41 4.73403 6.10827 0
M  V30 3716 H 372.755 4.25195 5.49759 0
M  V30 3717 H 375.946 2.62887 3.87309 0
M  V30 3718 H 376.119 3.84547 5.21562 0
M  V30 3719 N 369.525 -1.3858 0.750561 0
M  V30 3720 C 370.753 -2.04471 0.316098 0
M  V30 3721 C 371.168 -1.56606 -1.05452 0
M  V30 3722 O 370.525 -0.737784 -1.66922 0
M  V30 3723 C 370.576 -3.60025 0.326275 0
M  V30 3724 O 370.297 -4.06133 1.6428 0
M  V30 3725 C 371.798 -4.43131 -0.122429 0
M  V30 3726 H 369.018 -0.65717 0.135528 0
M  V30 3727 H 371.562 -1.77329 1.01857 0
M  V30 3728 H 369.717 -3.86014 -0.327431 0
M  V30 3729 H 370.131 -5.00547 1.56693 0
M  V30 3730 H 371.605 -5.51963 -0.0641473 0
M  V30 3731 H 372.082 -4.23333 -1.16988 0
M  V30 3732 H 372.688 -4.22323 0.50229 0
M  V30 3733 N 371.003 -0.499398 -1.49478 0
M  V30 3734 C 372.414 -0.051215 -1.8663 0
M  V30 3735 C 372.765 1.36238 -1.41186 0
M  V30 3736 O 371.89 2.01502 -0.789051 0
M  V30 3737 C 372.485 -0.0861651 -3.3869 0
M  V30 3738 C 371.044 0.30667 -3.75149 0
M  V30 3739 C 370.191 -0.459397 -2.73468 0
M  V30 3740 H 373.142 -0.712264 -1.41818 0
M  V30 3741 H 373.163 0.709507 -3.73826 0
M  V30 3742 H 372.675 -1.11512 -3.71735 0
M  V30 3743 H 370.776 1.33892 -3.47712 0
M  V30 3744 H 370.889 -0.0116669 -4.79099 0
M  V30 3745 H 369.253 0.0905645 -2.54539 0
M  V30 3746 H 370.036 -1.4884 -3.09357 0
M  V30 3747 N 372.481 1.55866 -0.233164 0
M  V30 3748 C 373.391 2.24431 0.683217 0
M  V30 3749 C 374.407 1.2558 1.2044 0
M  V30 3750 O 375.583 1.58422 1.24356 0
M  V30 3751 C 372.648 2.91979 1.86947 0
M  V30 3752 C 371.709 4.06204 1.38912 0
M  V30 3753 C 370.942 4.70522 2.51883 0
M  V30 3754 O 371.165 4.33865 3.70293 0
M  V30 3755 O 370.099 5.59296 2.22423 0
M  V30 3756 H 373.925 3.03426 0.129059 0
M  V30 3757 H 371.51 1.494 -0.0022283 0
M  V30 3758 H 373.392 3.34573 2.56201 0
M  V30 3759 H 372.067 2.15935 2.41151 0
M  V30 3760 H 370.974 3.68155 0.664259 0
M  V30 3761 H 372.307 4.84025 0.893328 0
M  V30 3762 N 373.959 -0.0401083 1.57549 0
M  V30 3763 C 375.205 -0.734211 1.89043 0
M  V30 3764 C 375.538 -1.75591 0.829535 0
M  V30 3765 O 374.813 -1.93868 -0.156706 0
M  V30 3766 C 375.096 -1.41374 3.31188 0
M  V30 3767 C 374.949 -0.406299 4.47961 0
M  V30 3768 C 376.268 -2.35061 3.72068 0
M  V30 3769 H 373.387 -0.265447 0.687537 0
M  V30 3770 H 376.029 0.00294087 1.9 0
M  V30 3771 H 374.179 -2.04206 3.30503 0
M  V30 3772 H 375.851 0.219255 4.60779 0
M  V30 3773 H 374.094 0.275485 4.32924 0
M  V30 3774 H 374.765 -0.920022 5.44279 0
M  V30 3775 H 377.241 -1.82282 3.74049 0
M  V30 3776 H 376.117 -2.79593 4.72355 0
M  V30 3777 H 376.378 -3.21258 3.0372 0
M  V30 3778 N 375.437 -1.54477 -0.31217 0
M  V30 3779 C 376.665 -1.77205 -1.068 0
M  V30 3780 C 377.08 -0.526114 -1.81321 0
M  V30 3781 O 376.437 0.503647 -1.75413 0
M  V30 3782 C 376.488 -2.97253 -2.05725 0
M  V30 3783 O 376.209 -4.1703 -1.34228 0
M  V30 3784 C 377.71 -3.32281 -2.93435 0
M  V30 3785 H 374.93 -0.591287 -0.317208 0
M  V30 3786 H 377.474 -2.01398 -0.354834 0
M  V30 3787 H 375.629 -2.753 -2.72559 0
M  V30 3788 H 376.043 -4.84636 -2.00571 0
M  V30 3789 H 377.517 -4.19551 -3.58721 0
M  V30 3790 H 377.994 -2.49945 -3.61143 0
M  V30 3791 H 378.6 -3.56353 -2.32147 0
M  V30 3792 N 376.915 0.57481 -1.46744 0
M  V30 3793 C 378.155 1.34369 -1.54027 0
M  V30 3794 C 378.519 1.91051 -0.190642 0
M  V30 3795 O 379.72 2.68444 -0.138255 0
M  V30 3796 C 377.991 2.43706 -2.61423 0
M  V30 3797 S 379.55 3.30915 -2.88167 0
M  V30 3798 H 376.368 0.45768 -0.544105 0
M  V30 3799 H 378.97 0.659959 -1.84024 0
M  V30 3800 H 377.674 2.0047 -3.58106 0
M  V30 3801 H 377.205 3.16842 -2.33184 0
M  V30 3802 H 379.22 4.42742 -2.24039 0
M  V30 3803 N 378.394 1.34581 0.820102 0
M  V30 3804 C 379.64 1.27285 1.57881 0
M  V30 3805 C 379.973 -0.156137 1.93571 0
M  V30 3806 O 379.248 -1.10222 1.60254 0
M  V30 3807 C 379.531 2.16639 2.87645 0
M  V30 3808 C 379.384 3.68088 2.58517 0
M  V30 3809 C 380.703 2.05378 3.8924 0
M  V30 3810 H 377.822 0.463714 0.572833 0
M  V30 3811 H 380.464 1.64859 0.944539 0
M  V30 3812 H 378.614 1.84725 3.41773 0
M  V30 3813 H 380.286 4.10382 2.10676 0
M  V30 3814 H 378.529 3.89038 1.91917 0
M  V30 3815 H 379.2 4.2598 3.51063 0
M  V30 3816 H 381.676 2.33404 3.44473 0
M  V30 3817 H 380.552 2.7012 4.77835 0
M  V30 3818 H 380.813 1.0316 4.29896 0
M  V30 3819 N 379.872 -1.04064 1.18357 0
M  V30 3820 C 381.118 -1.77528 0.980397 0
M  V30 3821 C 381.451 -1.87948 -0.48879 0
M  V30 3822 O 380.726 -1.3876 -1.36293 0
M  V30 3823 C 381.009 -3.20797 1.63588 0
M  V30 3824 C 380.862 -3.1832 3.17793 0
M  V30 3825 C 382.181 -4.18911 1.34914 0
M  V30 3826 H 379.3 -0.644443 0.357578 0
M  V30 3827 H 381.942 -1.2156 1.46024 0
M  V30 3828 H 380.092 -3.68586 1.22788 0
M  V30 3829 H 381.764 -2.78521 3.67728 0
M  V30 3830 H 380.007 -2.56351 3.49952 0
M  V30 3831 H 380.678 -4.19489 3.58794 0
M  V30 3832 H 383.154 -3.7967 1.70265 0
M  V30 3833 H 382.03 -5.17374 1.83346 0
M  V30 3834 H 382.291 -4.41262 0.272027 0
M  V30 3835 N 381.35 -0.985608 -1.22978 0
M  V30 3836 C 382.596 -0.65836 -1.91816 0
M  V30 3837 C 382.929 0.806692 -1.76653 0
M  V30 3838 O 382.204 1.58252 -1.13078 0
M  V30 3839 C 382.487 -1.056 -3.44268 0
M  V30 3840 C 382.34 -2.57906 -3.68516 0
M  V30 3841 C 383.659 -0.603781 -4.35939 0
M  V30 3842 H 380.778 -0.24065 -0.696604 0
M  V30 3843 H 383.42 -1.22783 -1.44998 0
M  V30 3844 H 381.57 -0.571445 -3.84274 0
M  V30 3845 H 383.242 -3.13976 -3.3796 0
M  V30 3846 H 381.485 -3.00305 -3.13048 0
M  V30 3847 H 382.156 -2.80779 -4.75255 0
M  V30 3848 H 384.632 -1.01987 -4.03408 0
M  V30 3849 H 383.508 -0.910383 -5.41298 0
M  V30 3850 H 383.769 0.495761 -4.39312 0
M  V30 3851 N 382.828 1.3818 -0.7579 0
M  V30 3852 C 384.105 1.94106 -0.241306 0
M  V30 3853 C 384.485 1.69282 1.26122 0
M  V30 3854 O 383.833 1.03378 2.03777 0
M  V30 3855 C 384.043 3.43809 -0.59967 0
M  V30 3856 C 385.391 4.20868 -0.561717 0
M  V30 3857 O 386.415 3.5211 -0.538222 0
M  V30 3858 O 385.274 5.43451 -0.576478 0
M  V30 3859 H 382.368 0.825376 -0.0518042 0
M  V30 3860 H 384.914 1.47548 -0.838315 0
M  V30 3861 H 383.686 3.55403 -1.6372 0
M  V30 3862 H 383.309 3.97592 0.0251197 0
M  V30 3863 N 384.306 0.507319 1.49211 0
M  V30 3864 C 385.552 -0.0350047 2.0277 0
M  V30 3865 C 385.885 -1.3606 1.38569 0
M  V30 3866 O 385.16 -1.87321 0.523542 0
M  V30 3867 C 385.443 -0.180916 3.59645 0
M  V30 3868 C 385.296 1.16825 4.34364 0
M  V30 3869 C 386.615 -0.918558 4.30407 0
M  V30 3870 H 383.734 -0.0112473 0.736914 0
M  V30 3871 H 386.376 0.659956 1.7817 0
M  V30 3872 H 384.526 -0.772826 3.80736 0
M  V30 3873 H 386.198 1.79952 4.24753 0
M  V30 3874 H 384.441 1.75594 3.96673 0
M  V30 3875 H 385.112 1.01939 5.42506 0
M  V30 3876 H 387.588 -0.41649 4.1401 0
M  V30 3877 H 386.464 -0.989505 5.39907 0
M  V30 3878 H 386.725 -1.96373 3.96093 0
M  V30 3879 N 385.784 -1.5574 0.241426 0
M  V30 3880 C 387.009 -2.0366 -0.392111 0
M  V30 3881 C 387.434 -1.11969 -1.51144 0
M  V30 3882 O 386.792 -0.111594 -1.80956 0
M  V30 3883 C 386.84 -3.49638 -0.882371 0
M  V30 3884 O 385.944 -3.6108 -1.99235 0
M  V30 3885 H 385.285 -0.658379 -0.0862122 0
M  V30 3886 H 387.815 -2.01302 0.365881 0
M  V30 3887 H 387.825 -3.90351 -1.18702 0
M  V30 3888 H 386.5 -4.15852 -0.0632361 0
M  V30 3889 H 385.077 -3.32262 -1.69282 0
M  V30 3890 N 387.262 0.0317525 -1.57568 0
M  V30 3891 C 388.212 1.04101 -2.02847 0
M  V30 3892 C 389.196 1.3219 -0.917317 0
M  V30 3893 O 390.388 1.31819 -1.18121 0
M  V30 3894 C 387.517 2.34295 -2.5092 0
M  V30 3895 C 386.603 2.09308 -3.68851 0
M  V30 3896 N 386.994 1.5437 -4.81667 0
M  V30 3897 C 385.292 2.39604 -3.76172 0
M  V30 3898 C 385.993 1.45126 -5.63306 0
M  V30 3899 N 384.969 1.92589 -5.08341 0
M  V30 3900 H 388.771 0.610217 -2.87495 0
M  V30 3901 H 386.285 0.238108 -1.60645 0
M  V30 3902 H 388.282 3.07404 -2.81617 0
M  V30 3903 H 386.942 2.78055 -1.67677 0
M  V30 3904 H 387.953 1.22678 -5.03161 0
M  V30 3905 H 384.63 2.86457 -3.03724 0
M  V30 3906 H 386.02 1.03163 -6.63933 0
M  V30 3907 N 388.74 1.54641 0.303973 0
M  V30 3908 C 389.65 1.88439 1.39743 0
M  V30 3909 C 390.666 0.778239 1.55626 0
M  V30 3910 O 391.842 1.07442 1.70347 0
M  V30 3911 C 388.907 2.12212 2.74166 0
M  V30 3912 C 387.968 3.35936 2.67293 0
M  V30 3913 C 387.201 3.58566 3.95305 0
M  V30 3914 O 387.424 2.84263 4.9452 0
M  V30 3915 O 386.358 4.52078 3.97378 0
M  V30 3916 H 390.184 2.81458 1.14083 0
M  V30 3917 H 387.769 1.40793 0.499768 0
M  V30 3918 H 389.651 2.29067 3.53704 0
M  V30 3919 H 388.326 1.22379 2.99675 0
M  V30 3920 H 387.233 3.24448 1.86237 0
M  V30 3921 H 388.566 4.2589 2.46736 0
M  V30 3922 N 390.218 -0.567019 1.47046 0
M  V30 3923 C 391.495 -1.3276 1.43646 0
M  V30 3924 C 391.875 -2.1071 0.128186 0
M  V30 3925 O 391.223 -2.10441 -0.890326 0
M  V30 3926 C 391.433 -2.2404 2.67595 0
M  V30 3927 C 392.781 -2.85372 3.14401 0
M  V30 3928 O 393.805 -2.34346 2.68254 0
M  V30 3929 O 392.664 -3.78091 3.946 0
M  V30 3930 H 389.758 -0.597293 0.571988 0
M  V30 3931 H 392.304 -0.586735 1.59234 0
M  V30 3932 H 391.076 -1.65975 3.54356 0
M  V30 3933 H 390.699 -3.05439 2.54544 0
M  V30 3934 N 391.696 -1.35014 -0.812953 0
M  V30 3935 C 393.107 -1.25035 -1.38648 0
M  V30 3936 C 393.458 0.119967 -1.95833 0
M  V30 3937 O 392.583 1.02069 -1.90816 0
M  V30 3938 C 393.178 -2.26394 -2.52054 0
M  V30 3939 C 391.737 -2.20175 -3.05287 0
M  V30 3940 C 390.884 -2.12451 -1.78213 0
M  V30 3941 H 393.835 -1.46235 -0.616516 0
M  V30 3942 H 393.856 -1.88672 -3.30429 0
M  V30 3943 H 393.368 -3.26116 -2.10404 0
M  V30 3944 H 391.469 -1.23841 -3.51417 0
M  V30 3945 H 391.582 -3.11863 -3.63701 0
M  V30 3946 H 389.946 -1.58328 -1.9951 0
M  V30 3947 H 390.729 -3.14024 -1.38723 0
M  V30 3948 N 393.175 1.03435 -1.18907 0
M  V30 3949 C 394.085 2.15075 -0.937015 0
M  V30 3950 C 395.101 1.73706 0.101085 0
M  V30 3951 O 396.277 2.01232 -0.0822948 0
M  V30 3952 C 393.342 3.43458 -0.473057 0
M  V30 3953 C 392.403 3.99172 -1.57989 0
M  V30 3954 C 391.636 5.21427 -1.13797 0
M  V30 3955 O 391.859 5.704 0.000725941 0
M  V30 3956 O 390.793 5.69837 -1.9383 0
M  V30 3957 H 394.619 2.39198 -1.87131 0
M  V30 3958 H 392.204 1.13506 -0.971427 0
M  V30 3959 H 394.086 4.20811 -0.222702 0
M  V30 3960 H 392.761 3.20793 0.432869 0
M  V30 3961 H 391.668 3.23178 -1.88433 0
M  V30 3962 H 393.001 4.2619 -2.46217 0
M  V30 3963 N 394.653 0.992116 1.22453 0
M  V30 3964 C 395.899 0.668523 1.91464 0
M  V30 3965 C 396.232 -0.797313 1.77078 0
M  V30 3966 O 395.507 -1.5765 1.13916 0
M  V30 3967 C 395.79 1.07424 3.43703 0
M  V30 3968 C 395.643 2.59857 3.67143 0
M  V30 3969 C 396.962 0.626891 4.35612 0
M  V30 3970 H 394.081 0.244341 0.695318 0
M  V30 3971 H 396.723 1.2355 1.44345 0
M  V30 3972 H 394.873 0.591816 3.83966 0
M  V30 3973 H 396.545 3.15764 3.3629 0
M  V30 3974 H 394.788 3.01961 3.11451 0
M  V30 3975 H 395.459 2.83296 4.73759 0
M  V30 3976 H 397.935 1.04125 4.02861 0
M  V30 3977 H 396.811 0.939076 5.40807 0
M  V30 3978 H 397.072 -0.472457 4.39568 0
M  V30 3979 N 396.131 -1.37776 0.765217 0
M  V30 3980 C 397.078 -2.30342 0.145274 0
M  V30 3981 C 398.048 -1.5077 -0.696971 0
M  V30 3982 O 399.233 -1.79362 -0.650689 0
M  V30 3983 C 396.373 -3.37227 -0.732939 0
M  V30 3984 C 395.486 -4.31819 0.125199 0
M  V30 3985 C 394.621 -5.25777 -0.757107 0
M  V30 3986 C 393.66 -6.12012 0.103963 0
M  V30 3987 N 392.797 -6.98232 -0.735953 0
M  V30 3988 H 397.637 -2.8278 0.940195 0
M  V30 3989 H 395.174 -1.39211 0.475255 0
M  V30 3990 H 397.132 -3.97818 -1.25686 0
M  V30 3991 H 395.762 -2.86171 -1.49353 0
M  V30 3992 H 394.814 -3.7259 0.766865 0
M  V30 3993 H 396.126 -4.92509 0.789683 0
M  V30 3994 H 395.28 -5.91541 -1.34776 0
M  V30 3995 H 394.019 -4.65481 -1.45529 0
M  V30 3996 H 393.024 -5.45233 0.707197 0
M  V30 3997 H 394.249 -6.74379 0.799381 0
M  V30 3998 H 392.195 -6.40472 -1.41887 0
M  V30 3999 H 392.112 -7.55891 -0.128624 0
M  V30 4000 H 393.38 -7.68393 -1.31121 0
M  V30 4001 N 397.609 -0.515225 -1.4894 0
M  V30 4002 C 398.856 0.024215 -2.02486 0
M  V30 4003 C 399.184 1.35671 -1.39368 0
M  V30 4004 O 398.439 1.88566 -0.523574 0
M  V30 4005 C 398.738 0.210595 -3.56779 0
M  V30 4006 C 398.404 -1.04569 -4.38607 0
M  V30 4007 C 397.066 -1.39002 -4.60686 0
M  V30 4008 C 399.418 -1.88008 -4.86109 0
M  V30 4009 C 396.746 -2.568 -5.27514 0
M  V30 4010 C 399.098 -3.04972 -5.54234 0
M  V30 4011 C 397.762 -3.39768 -5.74555 0
M  V30 4012 H 397.032 0.00886088 -0.740947 0
M  V30 4013 H 399.679 -0.678263 -1.79086 0
M  V30 4014 H 397.984 0.99572 -3.78936 0
M  V30 4015 H 399.681 0.642659 -3.95817 0
M  V30 4016 H 396.271 -0.767497 -4.21672 0
M  V30 4017 H 400.455 -1.62719 -4.68867 0
M  V30 4018 H 395.711 -2.8398 -5.41447 0
M  V30 4019 H 399.885 -3.69943 -5.90013 0
M  V30 4020 H 397.512 -4.31148 -6.26112 0
M  V30 4021 N 399.087 1.5561 -0.249682 0
M  V30 4022 C 400.035 2.22894 0.664906 0
M  V30 4023 C 401.029 1.21743 1.17792 0
M  V30 4024 O 402.235 1.39748 1.13449 0
M  V30 4025 H 398.61 0.715022 0.232912 0
M  V30 4026 H 400.581 2.98307 0.0742998 0
M  V30 4027 C 399.33 2.94424 1.84959 0
M  V30 4028 H 398.653 3.72031 1.46399 0
M  V30 4029 H 400.093 3.44862 2.4667 0
M  V30 4030 C 398.552 1.98454 2.72245 0
M  V30 4031 O 399.082 1.51939 3.71857 0
M  V30 4032 N 397.288 1.65496 2.38871 0
M  V30 4033 H 396.835 2.03517 1.57919 0
M  V30 4034 H 396.793 1.0155 2.97548 0
M  V30 4035 N 400.565 -0.0233959 1.57583 0
M  V30 4036 C 401.811 -0.708611 1.90657 0
M  V30 4037 C 402.166 -1.7266 0.848895 0
M  V30 4038 O 401.459 -1.91075 -0.141749 0
M  V30 4039 C 401.653 -1.41428 3.28227 0
M  V30 4040 C 401.482 -0.466155 4.47277 0
M  V30 4041 C 400.252 -0.085117 5.05228 0
M  V30 4042 C 402.45 0.257836 5.13653 0
M  V30 4043 N 400.432 0.863672 6.07794 0
M  V30 4044 C 401.803 1.06209 6.10835 0
M  V30 4045 C 403.858 0.324174 4.96844 0
M  V30 4046 C 402.561 1.9266 6.93018 0
M  V30 4047 C 404.587 1.17583 5.79593 0
M  V30 4048 C 403.949 1.96799 6.7635 0
M  V30 4049 H 400.048 -0.233222 0.746412 0
M  V30 4050 H 402.632 0.0314512 1.94675 0
M  V30 4051 H 400.803 -2.12477 3.25128 0
M  V30 4052 H 402.535 -2.05233 3.488 0
M  V30 4053 H 399.29 -0.448516 4.71471 0
M  V30 4054 H 399.714 1.33274 6.63752 0
M  V30 4055 H 404.356 -0.273975 4.21911 0
M  V30 4056 H 402.074 2.53552 7.67292 0
M  V30 4057 H 405.66 1.23076 5.68633 0
M  V30 4058 H 404.54 2.61635 7.39268 0
M  V30 4059 N 402.043 -1.548 -0.295768 0
M  V30 4060 C 403.273 -1.78069 -1.04762 0
M  V30 4061 C 403.681 -0.542847 -1.81245 0
M  V30 4062 O 403.024 0.497051 -1.76848 0
M  V30 4063 C 403.086 -2.93881 -2.07061 0
M  V30 4064 C 402.75 -4.31777 -1.49725 0
M  V30 4065 C 403.747 -5.11613 -0.924581 0
M  V30 4066 C 401.432 -4.78389 -1.5313 0
M  V30 4067 C 403.426 -6.36184 -0.393594 0
M  V30 4068 C 401.113 -6.02921 -0.996447 0
M  V30 4069 C 402.111 -6.81654 -0.428569 0
M  V30 4070 O 401.799 -8.0384 0.0981593 0
M  V30 4071 H 401.531 -0.597475 -0.316226 0
M  V30 4072 H 404.085 -2.02584 -0.338973 0
M  V30 4073 H 402.315 -2.65003 -2.81621 0
M  V30 4074 H 404.004 -3.04679 -2.6819 0
M  V30 4075 H 404.77 -4.76743 -0.891136 0
M  V30 4076 H 400.649 -4.17132 -1.9627 0
M  V30 4077 H 404.193 -6.97582 0.0503014 0
M  V30 4078 H 400.09 -6.37277 -1.02706 0
M  V30 4079 H 400.858 -8.18499 -0.0146455 0
M  V30 4080 N 403.521 0.559213 -1.47345 0
M  V30 4081 C 404.767 1.31843 -1.54095 0
M  V30 4082 C 405.1 1.93149 -0.201726 0
M  V30 4083 O 404.375 1.77759 0.789428 0
M  V30 4084 C 404.658 2.43006 -2.65744 0
M  V30 4085 C 404.511 1.86581 -4.09277 0
M  V30 4086 C 405.83 3.44943 -2.73318 0
M  V30 4087 H 402.949 0.478012 -0.560957 0
M  V30 4088 H 405.591 0.625977 -1.79392 0
M  V30 4089 H 403.741 3.02072 -2.44305 0
M  V30 4090 H 405.413 1.31792 -4.42073 0
M  V30 4091 H 403.656 1.17268 -4.17649 0
M  V30 4092 H 404.327 2.66933 -4.83168 0
M  V30 4093 H 406.803 2.95793 -2.92653 0
M  V30 4094 H 405.679 4.20153 -3.53218 0
M  V30 4095 H 405.94 4.03665 -1.80296 0
M  V30 4096 N 404.999 1.35443 0.805782 0
M  V30 4097 C 406.276 1.19325 1.54987 0
M  V30 4098 C 406.656 -0.227294 2.09873 0
M  V30 4099 O 406.004 -1.2309 1.92512 0
M  V30 4100 C 406.214 2.26196 2.65775 0
M  V30 4101 C 407.562 2.62043 3.34094 0
M  V30 4102 O 408.586 2.25115 2.76046 0
M  V30 4103 O 407.445 3.25542 4.38958 0
M  V30 4104 H 404.539 0.463623 0.684823 0
M  V30 4105 H 407.085 1.47127 0.845674 0
M  V30 4106 H 405.857 3.21471 2.23096 0
M  V30 4107 H 405.48 1.99667 3.43829 0
M  V30 4108 N 406.477 -1.02803 1.19454 0
M  V30 4109 C 407.725 -1.75869 0.995722 0
M  V30 4110 C 408.046 -1.89138 -0.474543 0
M  V30 4111 O 407.316 -1.42558 -1.34366 0
M  V30 4112 H 405.896 -0.651511 0.365435 0
M  V30 4113 H 408.558 -1.24004 1.50363 0
M  V30 4114 H 407.654 -2.76661 1.44447 0
M  V30 4115 N 407.956 -0.998596 -1.21925 0
M  V30 4116 C 409.202 -0.678667 -1.91107 0
M  V30 4117 C 409.535 0.78791 -1.77498 0
M  V30 4118 O 408.81 1.57043 -1.1475 0
M  V30 4119 C 409.093 -1.09245 -3.43129 0
M  V30 4120 C 408.946 -2.61801 -3.6576 0
M  V30 4121 C 410.265 -0.649984 -4.35274 0
M  V30 4122 H 407.384 -0.248025 -0.694012 0
M  V30 4123 H 410.026 -1.24314 -1.43688 0
M  V30 4124 H 408.176 -0.612171 -3.83647 0
M  V30 4125 H 409.848 -3.17543 -3.34611 0
M  V30 4126 H 408.091 -3.03609 -3.09845 0
M  V30 4127 H 408.762 -2.85804 -4.7225 0
M  V30 4128 H 411.238 -1.0626 -4.02303 0
M  V30 4129 H 410.114 -0.967743 -5.40302 0
M  V30 4130 H 410.375 0.449139 -4.39813 0
M  V30 4131 N 409.434 1.37368 -0.772513 0
M  V30 4132 C 410.344 2.34053 -0.160081 0
M  V30 4133 C 411.36 1.60216 0.678728 0
M  V30 4134 O 412.536 1.92303 0.59847 0
M  V30 4135 C 409.601 3.3939 0.708182 0
M  V30 4136 C 408.662 4.29048 -0.147172 0
M  V30 4137 C 407.895 5.29354 0.679744 0
M  V30 4138 O 408.118 5.3723 1.91678 0
M  V30 4139 O 407.052 6.01835 0.0885444 0
M  V30 4140 H 410.878 2.88159 -0.959053 0
M  V30 4141 H 408.463 1.39543 -0.533685 0
M  V30 4142 H 410.345 4.03839 1.20384 0
M  V30 4143 H 409.02 2.8761 1.48533 0
M  V30 4144 H 407.927 3.67697 -0.689205 0
M  V30 4145 H 409.26 4.84134 -0.887423 0
M  V30 4146 N 410.912 0.523116 1.48665 0
M  V30 4147 C 412.158 -0.0134963 2.02796 0
M  V30 4148 C 412.491 -1.34582 1.40004 0
M  V30 4149 O 411.766 -1.86756 0.543381 0
M  V30 4150 C 412.049 -0.14276 3.59817 0
M  V30 4151 C 411.902 1.21425 4.331 0
M  V30 4152 C 413.221 -0.872856 4.31357 0
M  V30 4153 H 410.34 -0.00343074 0.736992 0
M  V30 4154 H 412.982 0.678816 1.7746 0
M  V30 4155 H 411.132 -0.732401 3.81534 0
M  V30 4156 H 412.804 1.84447 4.2282 0
M  V30 4157 H 411.047 1.79791 3.94788 0
M  V30 4158 H 411.718 1.07687 5.41394 0
M  V30 4159 H 414.194 -0.372555 4.14429 0
M  V30 4160 H 413.07 -0.932185 5.40927 0
M  V30 4161 H 413.331 -1.92161 3.98154 0
M  V30 4162 N 412.39 -1.55475 0.257931 0
M  V30 4163 C 413.34 -2.18506 -0.651094 0
M  V30 4164 C 414.324 -1.14431 -1.13112 0
M  V30 4165 O 415.516 -1.40305 -1.07905 0
M  V30 4166 C 412.645 -2.89653 -1.84272 0
M  V30 4167 C 411.731 -4.00996 -1.38068 0
M  V30 4168 N 412.122 -5.01816 -0.633609 0
M  V30 4169 C 410.42 -4.13753 -1.66506 0
M  V30 4170 C 411.121 -5.80371 -0.392922 0
M  V30 4171 N 410.097 -5.3505 -0.960359 0
M  V30 4172 H 413.899 -2.93811 -0.0722883 0
M  V30 4173 H 411.413 -1.62286 0.0607256 0
M  V30 4174 H 413.41 -3.33245 -2.50506 0
M  V30 4175 H 412.07 -2.15854 -2.42564 0
M  V30 4176 H 413.081 -5.17128 -0.282626 0
M  V30 4177 H 409.758 -3.51133 -2.25858 0
M  V30 4178 H 411.148 -6.7159 0.204235 0
M  V30 4179 N 413.868 0.0150385 -1.57593 0
M  V30 4180 C 414.816 1.02958 -2.08572 0
M  V30 4181 C 415.81 1.36554 -1.00246 0
M  V30 4182 O 417.016 1.35295 -1.18724 0
M  V30 4183 H 413.391 0.349619 -0.665786 0
M  V30 4184 H 415.362 0.573932 -2.92829 0
M  V30 4185 C 414.111 2.31752 -2.59203 0
M  V30 4186 H 413.434 2.06765 -3.42182 0
M  V30 4187 H 414.874 3.01053 -2.98568 0
M  V30 4188 C 413.333 3.01692 -1.49945 0
M  V30 4189 O 413.863 3.92083 -0.873704 0
M  V30 4190 N 412.069 2.6326 -1.23056 0
M  V30 4191 H 411.616 1.89838 -1.74125 0
M  V30 4192 H 411.574 3.10372 -0.501685 0
M  V30 4193 N 415.346 1.54954 0.287554 0
M  V30 4194 C 416.309 1.86076 1.33823 0
M  V30 4195 C 417.309 0.734414 1.43049 0
M  V30 4196 O 418.499 1.00266 1.42452 0
M  V30 4197 C 415.631 2.05305 2.72144 0
M  V30 4198 H 416.824 2.79984 1.07465 0
M  V30 4199 H 414.377 1.47223 0.524902 0
M  V30 4200 H 415.112 1.1373 3.03704 0
M  V30 4201 H 414.897 2.873 2.66836 0
M  V30 4202 H 416.387 2.30706 3.48087 0
M  V30 4203 N 416.824 -0.551391 1.4764 0
M  V30 4204 C 417.771 -1.65796 1.60563 0
M  V30 4205 C 418.741 -1.59932 0.448428 0
M  V30 4206 O 419.926 -1.78679 0.669222 0
M  V30 4207 C 417.066 -3.04108 1.63133 0
M  V30 4208 C 416.179 -3.20365 2.89811 0
M  V30 4209 C 415.314 -4.49109 2.8368 0
M  V30 4210 C 414.353 -4.58819 4.05156 0
M  V30 4211 N 413.49 -5.78926 3.97227 0
M  V30 4212 H 418.33 -1.54088 2.5507 0
M  V30 4213 H 415.867 -0.75052 1.26513 0
M  V30 4214 H 417.825 -3.84207 1.62606 0
M  V30 4215 H 416.455 -3.14637 0.721341 0
M  V30 4216 H 415.507 -2.33659 3.00179 0
M  V30 4217 H 416.819 -3.23402 3.79753 0
M  V30 4218 H 415.973 -5.37475 2.81434 0
M  V30 4219 H 414.712 -4.4856 1.91431 0
M  V30 4220 H 413.717 -3.68864 4.077 0
M  V30 4221 H 414.942 -4.61124 4.98539 0
M  V30 4222 H 412.888 -5.79314 3.07785 0
M  V30 4223 H 412.805 -5.83367 4.80853 0
M  V30 4224 H 414.073 -6.69637 3.99007 0
M  V30 4225 N 418.302 -1.35869 -0.798587 0
M  V30 4226 C 419.53 -1.32722 -1.58722 0
M  V30 4227 C 419.945 0.0935631 -1.88568 0
M  V30 4228 O 419.302 1.04784 -1.49421 0
M  V30 4229 C 419.353 -2.13974 -2.91371 0
M  V30 4230 O 419.074 -3.50514 -2.62815 0
M  V30 4231 C 420.575 -2.18504 -3.85708 0
M  V30 4232 H 417.795 -0.45562 -0.492596 0
M  V30 4233 H 420.339 -1.78837 -0.991843 0
M  V30 4234 H 418.494 -1.71438 -3.47402 0
M  V30 4235 H 418.908 -3.92806 -3.47568 0
M  V30 4236 H 420.382 -2.79732 -4.75872 0
M  V30 4237 H 420.859 -1.18597 -4.22885 0
M  V30 4238 H 421.465 -2.61236 -3.35612 0
M  V30 4239 N 419.78 1.02168 -1.19998 0
M  V30 4240 C 420.727 2.10601 -0.944228 0
M  V30 4241 C 421.697 1.65639 0.123664 0
M  V30 4242 O 422.882 1.9079 -0.0199941 0
M  V30 4243 C 420.022 3.41504 -0.496865 0
M  V30 4244 C 419.135 3.99973 -1.63234 0
M  V30 4245 C 418.27 5.18915 -1.13579 0
M  V30 4246 C 417.309 5.69456 -2.24468 0
M  V30 4247 N 416.446 6.79665 -1.76068 0
M  V30 4248 H 421.286 2.31814 -1.8726 0
M  V30 4249 H 418.823 1.13686 -0.933483 0
M  V30 4250 H 420.781 4.16626 -0.218843 0
M  V30 4251 H 419.411 3.2038 0.394508 0
M  V30 4252 H 418.463 3.21997 -2.0254 0
M  V30 4253 H 419.775 4.33492 -2.46752 0
M  V30 4254 H 418.929 6.01222 -0.813429 0
M  V30 4255 H 417.668 4.8695 -0.270434 0
M  V30 4256 H 416.673 4.85757 -2.57526 0
M  V30 4257 H 417.898 6.03459 -3.11472 0
M  V30 4258 H 415.844 6.49538 -0.918516 0
M  V30 4259 H 415.761 7.12349 -2.5317 0
M  V30 4260 H 417.029 7.65549 -1.46817 0
M  V30 4261 N 421.258 1.00505 1.21394 0
M  V30 4262 C 422.669 0.721082 1.72213 0
M  V30 4263 C 423.02 -0.761263 1.80829 0
M  V30 4264 O 422.145 -1.59464 1.46288 0
M  V30 4265 C 422.74 1.30228 3.12772 0
M  V30 4266 C 421.299 1.06743 3.60947 0
M  V30 4267 C 420.446 1.41507 2.38477 0
M  V30 4268 H 423.397 1.17594 1.06571 0
M  V30 4269 H 423.418 0.686955 3.74247 0
M  V30 4270 H 422.93 2.38115 3.06468 0
M  V30 4271 H 421.031 0.00572162 3.726 0
M  V30 4272 H 421.144 1.73936 4.46411 0
M  V30 4273 H 419.508 0.833852 2.40664 0
M  V30 4274 H 420.291 2.50424 2.34824 0
M  V30 4275 N 422.737 -1.36956 0.779787 0
M  V30 4276 C 424.153 -1.52817 0.460342 0
M  V30 4277 C 424.353 -1.7361 -1.02283 0
M  V30 4278 O 423.409 -1.76207 -1.80852 0
M  V30 4279 C 424.722 -2.71983 1.28241 0
M  V30 4280 C 426.27 -2.85849 1.27512 0
M  V30 4281 C 426.745 -4.08008 2.08072 0
M  V30 4282 N 428.236 -4.15135 2.05467 0
M  V30 4283 C 428.971 -5.08711 2.64577 0
M  V30 4284 N 428.467 -6.07792 3.32506 0
M  V30 4285 N 430.26 -5.01254 2.54363 0
M  V30 4286 H 422.411 -1.21713 1.74068 0
M  V30 4287 H 424.674 -0.593294 0.739396 0
M  V30 4288 H 424.38 -2.63109 2.33381 0
M  V30 4289 H 424.254 -3.65882 0.917088 0
M  V30 4290 H 426.641 -2.94189 0.231686 0
M  V30 4291 H 426.722 -1.92886 1.68014 0
M  V30 4292 H 426.366 -4.00429 3.12441 0
M  V30 4293 H 426.296 -5.001 1.64947 0
M  V30 4294 H 428.787 -3.44189 1.5602 0
M  V30 4295 H 429.1 -6.75739 3.74963 0
M  V30 4296 H 427.445 -6.08047 3.36606 0
M  V30 4297 H 430.636 -4.22795 2.00902 0
M  V30 4298 H 430.809 -5.73995 3.00722 0
M  V30 4299 N 424.215 -0.530993 -1.48385 0
M  V30 4300 C 425.125 0.23503 -2.3342 0
M  V30 4301 C 426.141 0.93801 -1.46552 0
M  V30 4302 O 427.317 0.912745 -1.7953 0
M  V30 4303 C 424.382 1.26778 -3.22689 0
M  V30 4304 C 423.443 0.575038 -4.25431 0
M  V30 4305 C 422.676 1.55858 -5.10435 0
M  V30 4306 O 422.899 2.79129 -4.97437 0
M  V30 4307 O 421.833 1.09742 -5.91811 0
M  V30 4308 H 425.659 -0.461794 -3.00169 0
M  V30 4309 H 423.244 -0.291903 -1.46521 0
M  V30 4310 H 425.126 1.86457 -3.77904 0
M  V30 4311 H 423.801 1.94699 -2.586 0
M  V30 4312 H 422.708 -0.0622782 -3.74048 0
M  V30 4313 H 424.041 -0.062253 -4.92161 0
M  V30 4314 N 425.693 1.55336 -0.266172 0
M  V30 4315 C 426.603 2.2583 0.635458 0
M  V30 4316 C 427.619 1.28106 1.17749 0
M  V30 4317 O 428.795 1.61024 1.20968 0
M  V30 4318 C 425.86 2.95879 1.80712 0
M  V30 4319 C 424.921 4.09059 1.30265 0
M  V30 4320 C 424.154 4.75759 2.41846 0
M  V30 4321 O 424.377 4.41622 3.61007 0
M  V30 4322 O 423.311 5.63888 2.1051 0
M  V30 4323 H 427.137 3.03631 0.0646693 0
M  V30 4324 H 424.722 1.49361 -0.0339177 0
M  V30 4325 H 426.604 3.39932 2.49047 0
M  V30 4326 H 425.279 2.21002 2.36516 0
M  V30 4327 H 424.186 3.69482 0.586019 0
M  V30 4328 H 425.519 4.85811 0.790458 0
M  V30 4329 N 427.171 -0.0066808 1.57599 0
M  V30 4330 C 428.103 -1.02827 2.04839 0
M  V30 4331 C 429.116 -1.31108 0.965113 0
M  V30 4332 O 430.305 -1.28202 1.24203 0
M  V30 4333 C 427.405 -2.36464 2.42771 0
M  V30 4334 C 426.578 -2.27219 3.73751 0
M  V30 4335 C 425.637 -3.43489 3.98625 0
M  V30 4336 O 424.663 -3.21976 4.69382 0
M  V30 4337 N 425.865 -4.66116 3.46 0
M  V30 4338 H 428.63 -0.625455 2.93101 0
M  V30 4339 H 426.191 -0.194198 1.60731 0
M  V30 4340 H 428.183 -3.13008 2.56531 0
M  V30 4341 H 426.753 -2.68512 1.60063 0
M  V30 4342 H 425.973 -1.35629 3.70133 0
M  V30 4343 H 427.261 -2.18208 4.59633 0
M  V30 4344 H 426.659 -4.86493 2.88688 0
M  V30 4345 H 425.216 -5.39949 3.65101 0
M  V30 4346 N 428.649 -1.55105 -0.279332 0
M  V30 4347 C 429.879 -1.7917 -1.02867 0
M  V30 4348 C 430.287 -0.56204 -1.80659 0
M  V30 4349 O 429.63 0.478266 -1.77365 0
M  V30 4350 C 429.692 -2.96061 -2.03932 0
M  V30 4351 C 429.356 -4.33341 -1.45137 0
M  V30 4352 C 430.353 -5.12565 -0.870266 0
M  V30 4353 C 428.038 -4.79987 -1.48048 0
M  V30 4354 C 430.032 -6.36565 -0.326097 0
M  V30 4355 C 427.719 -6.03944 -0.932443 0
M  V30 4356 C 428.717 -6.8207 -0.356247 0
M  V30 4357 O 428.405 -8.03691 0.183412 0
M  V30 4358 H 428.137 -0.600796 -0.309872 0
M  V30 4359 H 430.691 -2.02932 -0.317468 0
M  V30 4360 H 428.921 -2.67975 -2.78794 0
M  V30 4361 H 430.61 -3.07506 -2.64943 0
M  V30 4362 H 431.376 -4.77661 -0.840521 0
M  V30 4363 H 427.255 -4.1919 -1.91835 0
M  V30 4364 H 430.799 -6.97489 0.124286 0
M  V30 4365 H 426.696 -6.3833 -0.959407 0
M  V30 4366 H 427.464 -8.18468 0.0721681 0
M  V30 4367 N 430.127 0.543554 -1.4793 0
M  V30 4368 C 431.075 1.67039 -1.61866 0
M  V30 4369 C 432.069 1.62294 -0.48549 0
M  V30 4370 O 433.275 1.67315 -0.66376 0
M  V30 4371 H 429.65 0.552954 -0.509652 0
M  V30 4372 H 431.621 1.52426 -2.56533 0
M  V30 4373 C 430.37 3.05357 -1.6629 0
M  V30 4374 H 429.693 3.09696 -2.5284 0
M  V30 4375 H 431.133 3.83855 -1.80088 0
M  V30 4376 C 429.592 3.34531 -0.398861 0
M  V30 4377 O 430.122 3.98649 0.494162 0
M  V30 4378 N 428.328 2.89299 -0.2747 0
M  V30 4379 H 427.875 2.37298 -1.00236 0
M  V30 4380 H 427.833 3.09188 0.570075 0
M  V30 4381 N 431.605 1.3629 0.791371 0
M  V30 4382 C 432.83 1.33726 1.58531 0
M  V30 4383 C 433.255 -0.0794933 1.87932 0
M  V30 4384 O 432.613 -1.05087 1.47738 0
M  V30 4385 C 432.661 2.16425 2.88431 0
M  V30 4386 O 431.765 1.5554 3.81944 0
M  V30 4387 H 431.106 0.457793 0.480959 0
M  V30 4388 H 433.636 1.79547 0.981031 0
M  V30 4389 H 433.646 2.28933 3.37718 0
M  V30 4390 H 432.321 3.19415 2.66359 0
M  V30 4391 H 430.898 1.51961 3.40532 0
M  V30 4392 N 433.083 -1.0153 1.20538 0
M  V30 4393 C 434.311 -1.78746 1.04199 0
M  V30 4394 C 434.726 -1.84323 -0.408733 0
M  V30 4395 O 434.083 -1.29714 -1.28377 0
M  V30 4396 C 434.134 -3.23152 1.62035 0
M  V30 4397 O 433.855 -3.17918 3.0143 0
M  V30 4398 C 435.356 -4.16911 1.50666 0
M  V30 4399 H 432.576 -0.56208 0.366479 0
M  V30 4400 H 435.12 -1.27794 1.59653 0
M  V30 4401 H 433.275 -3.71248 1.10697 0
M  V30 4402 H 433.689 -4.08567 3.28897 0
M  V30 4403 H 435.163 -5.16072 1.95892 0
M  V30 4404 H 435.64 -4.36791 0.459363 0
M  V30 4405 H 436.246 -3.74698 2.01201 0
M  V30 4406 N 434.561 -1.01147 -1.20859 0
M  V30 4407 C 435.791 -0.715872 -1.93801 0
M  V30 4408 C 436.199 0.726592 -1.74692 0
M  V30 4409 O 435.542 1.50397 -1.05482 0
M  V30 4410 C 435.604 -0.965269 -3.46299 0
M  V30 4411 C 435.268 -2.39584 -3.89164 0
M  V30 4412 C 436.265 -3.3764 -3.95342 0
M  V30 4413 C 433.95 -2.73522 -4.21297 0
M  V30 4414 C 435.944 -4.67698 -4.33056 0
M  V30 4415 C 433.631 -4.03794 -4.58687 0
M  V30 4416 C 434.629 -5.00693 -4.64538 0
M  V30 4417 O 434.317 -6.28635 -5.01072 0
M  V30 4418 H 434.049 -0.262524 -0.622942 0
M  V30 4419 H 436.603 -1.35413 -1.54443 0
M  V30 4420 H 434.833 -0.269847 -3.85757 0
M  V30 4421 H 436.522 -0.662051 -4.00464 0
M  V30 4422 H 437.288 -3.12757 -3.70686 0
M  V30 4423 H 433.167 -1.9879 -4.15937 0
M  V30 4424 H 436.711 -5.4333 -4.37537 0
M  V30 4425 H 432.608 -4.28459 -4.82797 0
M  V30 4426 H 433.376 -6.32847 -5.19083 0
M  V30 4427 N 436.039 1.36541 -0.78704 0
M  V30 4428 C 437.455 1.52571 -0.46844 0
M  V30 4429 C 437.655 1.7415 1.01361 0
M  V30 4430 O 436.711 1.77163 1.79915 0
M  V30 4431 C 438.024 2.71299 -1.29682 0
M  V30 4432 C 439.572 2.85169 -1.29027 0
M  V30 4433 C 440.047 4.06898 -2.10233 0
M  V30 4434 N 441.538 4.1404 -2.07666 0
M  V30 4435 C 442.273 5.07301 -2.67271 0
M  V30 4436 N 441.769 6.06021 -3.35724 0
M  V30 4437 N 443.562 4.99898 -2.57018 0
M  V30 4438 H 435.713 1.20788 -1.74711 0
M  V30 4439 H 437.976 0.589364 -0.742532 0
M  V30 4440 H 437.682 2.61868 -2.34773 0
M  V30 4441 H 437.556 3.6539 -0.936479 0
M  V30 4442 H 439.943 2.94062 -0.247284 0
M  V30 4443 H 440.024 1.91992 -1.69035 0
M  V30 4444 H 439.668 3.98766 -3.1456 0
M  V30 4445 H 439.598 4.99218 -1.67597 0
M  V30 4446 H 442.089 3.43357 -1.57843 0
M  V30 4447 H 442.402 6.73741 -3.78541 0
M  V30 4448 H 440.747 6.06253 -3.39826 0
M  V30 4449 H 443.938 4.21724 -2.03142 0
M  V30 4450 H 444.111 5.72392 -3.03761 0
M  V30 4451 N 437.518 0.538854 1.48102 0
M  V30 4452 C 438.764 0.00801365 2.02798 0
M  V30 4453 C 439.097 -1.3309 1.41424 0
M  V30 4454 O 438.372 -1.86169 0.563158 0
M  V30 4455 C 438.655 -0.104589 3.59948 0
M  V30 4456 C 438.508 1.26012 4.31788 0
M  V30 4457 C 439.827 -0.827055 4.32259 0
M  V30 4458 H 436.946 0.00438624 0.736987 0
M  V30 4459 H 439.588 0.6976 1.7673 0
M  V30 4460 H 437.738 -0.691893 3.82289 0
M  V30 4461 H 439.41 1.88922 4.2084 0
M  V30 4462 H 437.653 1.83968 3.92859 0
M  V30 4463 H 438.324 1.13424 5.40221 0
M  V30 4464 H 440.8 -0.328578 4.14801 0
M  V30 4465 H 439.676 -0.87476 5.41885 0
M  V30 4466 H 439.937 -1.87927 4.0017 0
M  V30 4467 N 438.996 -1.55193 0.274407 0
M  V30 4468 C 440.242 -1.99877 -0.343086 0
M  V30 4469 C 440.575 -1.16256 -1.55558 0
M  V30 4470 O 439.85 -0.232462 -1.93106 0
M  V30 4471 C 440.133 -3.52706 -0.725965 0
M  V30 4472 C 439.986 -4.47081 0.493818 0
M  V30 4473 C 441.305 -4.11422 -1.56268 0
M  V30 4474 H 438.424 -0.726625 -0.123229 0
M  V30 4475 H 441.066 -1.86136 0.38121 0
M  V30 4476 H 439.216 -3.64546 -1.34307 0
M  V30 4477 H 440.888 -4.47186 1.13237 0
M  V30 4478 H 439.131 -4.1877 1.13201 0
M  V30 4479 H 439.802 -5.51699 0.18217 0
M  V30 4480 H 442.278 -4.02855 -1.04151 0
M  V30 4481 H 441.154 -5.18568 -1.79939 0
M  V30 4482 H 441.415 -3.61607 -2.54348 0
M  V30 4483 N 440.474 -0.00167713 -1.576 0
M  V30 4484 C 441.699 0.69739 -1.95323 0
M  V30 4485 C 442.124 1.6642 -0.876706 0
M  V30 4486 O 441.482 1.80548 0.165007 0
M  V30 4487 C 441.53 1.40403 -3.32144 0
M  V30 4488 O 440.634 2.5185 -3.26566 0
M  V30 4489 H 439.975 0.185373 -0.637599 0
M  V30 4490 H 442.505 -0.0553665 -2.04525 0
M  V30 4491 H 442.515 1.76707 -3.67748 0
M  V30 4492 H 441.19 0.695167 -4.10049 0
M  V30 4493 H 439.767 2.17861 -3.0264 0
M  V30 4494 N 441.952 1.55251 0.271103 0
M  V30 4495 C 443.198 1.76207 1.00394 0
M  V30 4496 C 443.531 0.562604 1.85872 0
M  V30 4497 O 442.806 -0.439785 1.89463 0
M  V30 4498 C 443.089 3.06828 1.8849 0
M  V30 4499 C 442.942 4.37134 1.05992 0
M  V30 4500 C 444.261 3.33503 2.87165 0
M  V30 4501 H 441.38 0.641086 0.363562 0
M  V30 4502 H 444.022 1.87982 0.276189 0
M  V30 4503 H 442.172 2.96921 2.5054 0
M  V30 4504 H 443.844 4.59001 0.459978 0
M  V30 4505 H 442.087 4.32275 0.363443 0
M  V30 4506 H 442.758 5.2486 1.70955 0
M  V30 4507 H 445.234 3.43215 2.3525 0
M  V30 4508 H 444.11 4.2616 3.45946 0
M  V30 4509 H 444.371 2.53235 3.62387 0
M  V30 4510 N 443.43 -0.535701 1.48216 0
M  V30 4511 C 444.36 -1.65014 1.65204 0
M  V30 4512 C 445.341 -1.62554 0.501011 0
M  V30 4513 O 446.526 -1.7984 0.732886 0
M  V30 4514 C 443.656 -3.03616 1.68626 0
M  V30 4515 C 442.61 -3.20932 2.83172 0
M  V30 4516 C 441.936 -4.60537 2.71679 0
M  V30 4517 C 443.236 -3.04249 4.24535 0
M  V30 4518 H 444.93 -1.51053 2.58502 0
M  V30 4519 H 442.476 -0.725262 1.24402 0
M  V30 4520 H 444.429 -3.81446 1.79099 0
M  V30 4521 H 443.153 -3.18587 0.719026 0
M  V30 4522 H 441.812 -2.45517 2.72244 0
M  V30 4523 H 441.46 -4.72336 1.72937 0
M  V30 4524 H 441.16 -4.73069 3.48538 0
M  V30 4525 H 442.684 -5.40475 2.84112 0
M  V30 4526 H 444.098 -3.71877 4.36326 0
M  V30 4527 H 442.495 -3.28278 5.02348 0
M  V30 4528 H 443.565 -2.00739 4.41397 0
M  V30 4529 N 444.908 -1.36708 -0.784132 0
M  V30 4530 C 446.136 -1.34398 -1.57305 0
M  V30 4531 C 446.551 0.0735577 -1.88657 0
M  V30 4532 O 445.908 1.03193 -1.50524 0
M  V30 4533 C 445.959 -2.17053 -2.89085 0
M  V30 4534 O 445.68 -3.53281 -2.59083 0
M  V30 4535 C 447.181 -2.22583 -3.83369 0
M  V30 4536 H 444.401 -0.460819 -0.487736 0
M  V30 4537 H 446.945 -1.79879 -0.972819 0
M  V30 4538 H 445.1 -1.75113 -3.45564 0
M  V30 4539 H 445.514 -3.9647 -3.43383 0
M  V30 4540 H 446.988 -2.84763 -4.72878 0
M  V30 4541 H 447.465 -1.23075 -4.21603 0
M  V30 4542 H 448.071 -2.64781 -3.32823 0
M  V30 4543 N 446.386 1.0089 -1.21074 0
M  V30 4544 C 447.632 1.74866 -1.02712 0
M  V30 4545 C 447.965 1.89178 0.438787 0
M  V30 4546 O 447.24 1.42325 1.32567 0
M  V30 4547 C 447.523 3.16347 -1.72036 0
M  V30 4548 C 447.376 3.09782 -3.26121 0
M  V30 4549 C 448.695 4.15187 -1.45973 0
M  V30 4550 H 445.814 0.634736 -0.374539 0
M  V30 4551 H 448.456 1.17646 -1.49196 0
M  V30 4552 H 446.606 3.65201 -1.32517 0
M  V30 4553 H 448.278 2.68673 -3.74983 0
M  V30 4554 H 446.521 2.46982 -3.56626 0
M  V30 4555 H 447.192 4.09829 -3.6979 0
M  V30 4556 H 449.668 3.75022 -1.80272 0
M  V30 4557 H 448.544 5.12331 -1.96999 0
M  V30 4558 H 448.805 4.40386 -0.388924 0
M  V30 4559 N 447.864 1.01787 1.20321 0
M  V30 4560 C 448.794 0.609625 2.25401 0
M  V30 4561 C 449.775 -0.375951 1.65893 0
M  V30 4562 O 450.96 -0.261101 1.92437 0
M  V30 4563 C 448.09 -0.0515995 3.47262 0
M  V30 4564 C 447.044 0.855095 4.19371 0
M  V30 4565 C 446.37 0.0595757 5.34667 0
M  V30 4566 C 447.67 2.16374 4.75373 0
M  V30 4567 H 449.364 1.48803 2.59804 0
M  V30 4568 H 446.91 0.716934 1.24884 0
M  V30 4569 H 448.863 -0.348764 4.19954 0
M  V30 4570 H 447.587 -0.964726 3.12027 0
M  V30 4571 H 446.246 1.13628 3.48546 0
M  V30 4572 H 445.894 -0.85524 4.95676 0
M  V30 4573 H 445.594 0.663406 5.83843 0
M  V30 4574 H 447.118 -0.231105 6.10162 0
M  V30 4575 H 448.532 1.92885 5.39878 0
M  V30 4576 H 446.929 2.71853 5.34991 0
M  V30 4577 H 447.999 2.82589 3.94045 0
M  V30 4578 N 449.342 -1.36122 0.79427 0
M  V30 4579 C 450.292 -2.27373 0.169017 0
M  V30 4580 C 451.276 -1.4719 -0.649913 0
M  V30 4581 O 452.468 -1.69518 -0.50919 0
M  V30 4582 C 449.597 -3.36264 -0.691455 0
M  V30 4583 C 448.683 -4.2388 0.13653 0
M  V30 4584 N 449.074 -4.91519 1.19345 0
M  V30 4585 C 447.372 -4.45921 -0.0838499 0
M  V30 4586 C 448.073 -5.56369 1.6979 0
M  V30 4587 N 447.049 -5.34204 1.00634 0
M  V30 4588 H 450.851 -2.77154 0.977897 0
M  V30 4589 H 448.365 -1.49504 0.634208 0
M  V30 4590 H 450.362 -4.00572 -1.15534 0
M  V30 4591 H 449.022 -2.88037 -1.49883 0
M  V30 4592 H 450.033 -4.9334 1.57594 0
M  V30 4593 H 446.71 -4.08518 -0.861341 0
M  V30 4594 H 448.1 -6.20368 2.58055 0
M  V30 4595 N 450.82 -0.546701 -1.47814 0
M  V30 4596 C 451.752 0.244196 -2.27895 0
M  V30 4597 C 452.765 0.88911 -1.36377 0
M  V30 4598 O 453.954 0.764733 -1.61289 0
M  V30 4599 C 451.054 1.36252 -3.10304 0
M  V30 4600 C 450.227 0.816382 -4.29714 0
M  V30 4601 C 449.286 1.81789 -4.93801 0
M  V30 4602 O 448.312 1.36818 -5.52512 0
M  V30 4603 N 449.514 3.15085 -4.87547 0
M  V30 4604 H 452.279 -0.442694 -2.96412 0
M  V30 4605 H 449.84 -0.382095 -1.57327 0
M  V30 4606 H 451.832 2.03102 -3.50045 0
M  V30 4607 H 450.402 1.95281 -2.44099 0
M  V30 4608 H 449.622 -0.0285981 -3.9419 0
M  V30 4609 H 450.91 0.430668 -5.06974 0
M  V30 4610 H 450.308 3.54275 -4.41028 0
M  V30 4611 H 448.865 3.77522 -5.31339 0
M  V30 4612 N 452.299 1.55045 -0.282633 0
M  V30 4613 C 453.576 1.9179 0.384166 0
M  V30 4614 C 453.956 1.20778 1.73136 0
M  V30 4615 O 453.304 0.33719 2.25998 0
M  V30 4616 C 453.514 3.45149 0.517014 0
M  V30 4617 C 454.862 4.17064 0.796427 0
M  V30 4618 O 455.886 3.51084 0.601535 0
M  V30 4619 O 454.745 5.33837 1.16962 0
M  V30 4620 H 451.839 0.799483 0.211558 0
M  V30 4621 H 454.385 1.66474 -0.32934 0
M  V30 4622 H 453.157 3.88922 -0.430772 0
M  V30 4623 H 452.78 3.76443 1.2797 0
M  V30 4624 N 453.777 0.010035 1.57597 0
M  V30 4625 C 455.023 -0.668011 1.92118 0
M  V30 4626 C 455.378 -1.70821 0.885328 0
M  V30 4627 O 454.671 -1.91333 -0.101187 0
M  V30 4628 C 454.865 -1.34434 3.31153 0
M  V30 4629 C 454.694 -0.371176 4.48166 0
M  V30 4630 C 453.464 0.0220686 5.05295 0
M  V30 4631 C 455.662 0.366731 5.12991 0
M  V30 4632 N 453.644 0.9924 6.05826 0
M  V30 4633 C 455.015 1.19142 6.08445 0
M  V30 4634 C 457.07 0.429489 4.96044 0
M  V30 4635 C 455.773 2.07317 6.88776 0
M  V30 4636 C 457.799 1.2985 5.76969 0
M  V30 4637 C 457.161 2.11101 6.72023 0
M  V30 4638 H 453.26 -0.217337 0.751192 0
M  V30 4639 H 455.844 0.0727375 1.94564 0
M  V30 4640 H 454.015 -2.05533 3.29561 0
M  V30 4641 H 455.747 -1.97789 3.53075 0
M  V30 4642 H 452.502 -0.348409 4.72317 0
M  V30 4643 H 452.926 1.47324 6.60776 0
M  V30 4644 H 457.568 -0.18442 4.22398 0
M  V30 4645 H 455.286 2.69771 7.61741 0
M  V30 4646 H 458.872 1.3511 5.65894 0
M  V30 4647 H 457.752 2.77257 7.33552 0
M  V30 4648 N 455.255 -1.55392 -0.262866 0
M  V30 4649 C 456.185 -1.91978 -1.32917 0
M  V30 4650 C 457.166 -0.7828 -1.51017 0
M  V30 4651 O 458.351 -1.04178 -1.63892 0
M  V30 4652 C 455.481 -2.20055 -2.68687 0
M  V30 4653 C 454.435 -3.35854 -2.65304 0
M  V30 4654 C 453.761 -3.49435 -4.04721 0
M  V30 4655 C 455.061 -4.71977 -2.23685 0
M  V30 4656 H 456.755 -2.81292 -1.02544 0
M  V30 4657 H 454.301 -1.3534 -0.491846 0
M  V30 4658 H 456.254 -2.44237 -3.43404 0
M  V30 4659 H 454.978 -1.27551 -3.00663 0
M  V30 4660 H 453.637 -3.11655 -1.93045 0
M  V30 4661 H 453.285 -2.54379 -4.33936 0
M  V30 4662 H 452.985 -4.27297 -4.0335 0
M  V30 4663 H 454.509 -3.7592 -4.81161 0
M  V30 4664 H 455.923 -4.95637 -2.88127 0
M  V30 4665 H 454.32 -5.52828 -2.33456 0
M  V30 4666 H 455.39 -4.70115 -1.18827 0
M  V30 4667 N 456.733 0.527833 -1.48498 0
M  V30 4668 C 457.681 1.65313 -1.63628 0
M  V30 4669 C 458.675 1.6177 -0.502676 0
M  V30 4670 O 459.881 1.66601 -0.681469 0
M  V30 4671 H 456.256 0.547518 -0.515488 0
M  V30 4672 H 458.227 1.49696 -2.58135 0
M  V30 4673 C 456.976 3.03576 -1.6952 0
M  V30 4674 H 456.299 3.06997 -2.56111 0
M  V30 4675 H 457.739 3.81923 -1.84149 0
M  V30 4676 C 456.198 3.34089 -0.43432 0
M  V30 4677 O 456.728 3.99151 0.451852 0
M  V30 4678 N 454.934 2.88991 -0.305368 0
M  V30 4679 H 454.481 2.36222 -1.02747 0
M  V30 4680 H 454.439 3.09776 0.537249 0
M  V30 4681 N 458.211 1.37122 0.776871 0
M  V30 4682 C 459.459 1.31787 1.53221 0
M  V30 4683 C 459.78 -0.0987589 1.9475 0
M  V30 4684 O 459.05 -1.0417 1.65908 0
M  V30 4685 H 457.63 0.484839 0.568278 0
M  V30 4686 H 460.292 1.71556 0.924917 0
M  V30 4687 H 459.388 1.95355 2.43398 0
M  V30 4688 N 459.689 -1.00246 1.21608 0
M  V30 4689 C 460.636 -2.09073 0.977613 0
M  V30 4690 C 461.606 -1.65815 -0.097297 0
M  V30 4691 O 462.791 -1.90734 0.0503445 0
M  V30 4692 C 459.931 -3.40671 0.551133 0
M  V30 4693 C 459.044 -3.97326 1.69576 0
M  V30 4694 C 458.179 -5.17043 1.2182 0
M  V30 4695 C 457.218 -5.65813 2.335 0
M  V30 4696 N 456.355 -6.76778 1.86859 0
M  V30 4697 H 461.195 -2.28806 1.90924 0
M  V30 4698 H 458.732 -1.12186 0.951452 0
M  V30 4699 H 460.69 -4.16225 0.285097 0
M  V30 4700 H 459.32 -3.20967 -0.343489 0
M  V30 4701 H 458.372 -3.18734 2.07637 0
M  V30 4702 H 459.684 -4.29511 2.53617 0
M  V30 4703 H 458.838 -5.99852 0.908975 0
M  V30 4704 H 457.577 -4.86458 0.347869 0
M  V30 4705 H 456.582 -4.81599 2.65222 0
M  V30 4706 H 457.807 -5.98427 3.21033 0
M  V30 4707 H 455.753 -6.47994 1.02174 0
M  V30 4708 H 455.67 -7.08231 2.64471 0
M  V30 4709 H 456.938 -7.63116 1.58978 0
M  V30 4710 N 461.167 -1.02423 -1.1978 0
M  V30 4711 C 462.077 -0.610919 -2.26506 0
M  V30 4712 C 463.093 0.355152 -1.70337 0
M  V30 4713 O 464.269 0.214195 -2.00258 0
M  V30 4714 C 461.334 0.0365921 -3.46681 0
M  V30 4715 C 460.395 -0.976389 -4.18049 0
M  V30 4716 C 459.628 -0.359683 -5.32487 0
M  V30 4717 O 459.851 0.838601 -5.64202 0
M  V30 4718 O 458.785 -1.08022 -5.92127 0
M  V30 4719 H 462.611 -1.49965 -2.64091 0
M  V30 4720 H 460.196 -0.794156 -1.26545 0
M  V30 4721 H 462.078 0.39786 -4.19518 0
M  V30 4722 H 460.753 0.899398 -3.10954 0
M  V30 4723 H 459.66 -1.38916 -3.47352 0
M  V30 4724 H 460.993 -1.80941 -4.57735 0
M  V30 4725 N 462.645 1.35699 -0.801477 0
M  V30 4726 C 463.875 2.02862 -0.3912 0
M  V30 4727 C 464.283 1.60552 1.00099 0
M  V30 4728 O 463.626 0.796215 1.65548 0
M  V30 4729 C 463.688 3.57386 -0.389299 0
M  V30 4730 C 463.352 4.22943 -1.73113 0
M  V30 4731 C 464.349 4.44984 -2.68859 0
M  V30 4732 C 462.034 4.60167 -2.01373 0
M  V30 4733 C 464.028 5.03345 -3.91053 0
M  V30 4734 C 461.715 5.18243 -3.23832 0
M  V30 4735 C 462.713 5.39773 -4.1849 0
M  V30 4736 O 462.401 5.96626 -5.38788 0
M  V30 4737 H 462.133 0.657341 -0.157732 0
M  V30 4738 H 464.687 1.74407 -1.08496 0
M  V30 4739 H 462.917 3.85011 0.361031 0
M  V30 4740 H 464.606 4.059 -0.0020365 0
M  V30 4741 H 465.372 4.1661 -2.48316 0
M  V30 4742 H 461.251 4.42726 -1.28508 0
M  V30 4743 H 464.795 5.20065 -4.64949 0
M  V30 4744 H 460.692 5.46044 -3.44248 0
M  V30 4745 H 461.46 6.15082 -5.40015 0
M  V30 4746 N 464.123 0.554532 1.47522 0
M  V30 4747 C 465.07 -0.19466 2.29978 0
M  V30 4748 C 466.04 -0.910882 1.38896 0
M  V30 4749 O 467.225 -0.907102 1.67858 0
M  V30 4750 C 464.365 -1.22035 3.22802 0
M  V30 4751 C 463.478 -0.510474 4.28973 0
M  V30 4752 C 462.613 -1.52123 5.08952 0
M  V30 4753 C 461.652 -0.796173 6.069 0
M  V30 4754 N 460.789 -1.75363 6.79847 0
M  V30 4755 H 465.629 0.51461 2.93523 0
M  V30 4756 H 463.166 0.265607 1.44682 0
M  V30 4757 H 465.124 -1.8276 3.7504 0
M  V30 4758 H 463.754 -1.89769 2.61127 0
M  V30 4759 H 462.806 0.211234 3.79813 0
M  V30 4760 H 464.118 0.0576503 4.98767 0
M  V30 4761 H 463.272 -2.20207 5.65326 0
M  V30 4762 H 462.011 -2.12327 4.39054 0
M  V30 4763 H 461.016 -0.101388 5.49707 0
M  V30 4764 H 462.241 -0.199911 6.78806 0
M  V30 4765 H 460.187 -2.3443 6.12682 0
M  V30 4766 H 460.104 -1.23759 7.45801 0
M  V30 4767 H 461.372 -2.4257 7.40797 0
M  V30 4768 N 465.601 -1.54893 0.290851 0
M  V30 4769 C 466.841 -2.01842 -0.322388 0
M  V30 4770 C 467.205 -1.17477 -1.51865 0
M  V30 4771 O 468.406 -1.54077 -2.20258 0
M  V30 4772 C 466.677 -3.50874 -0.679844 0
M  V30 4773 S 468.236 -4.19796 -1.27739 0
M  V30 4774 H 465.054 -0.704005 -0.0994866 0
M  V30 4775 H 467.656 -1.91015 0.416358 0
M  V30 4776 H 466.36 -4.09915 0.199435 0
M  V30 4777 H 465.891 -3.65717 -1.44964 0
M  V30 4778 H 467.906 -4.24729 -2.56554 0
M  V30 4779 N 467.08 -0.0183926 -1.57589 0
M  V30 4780 C 468.027 0.967022 -2.09565 0
M  V30 4781 C 468.997 1.32983 -0.995225 0
M  V30 4782 O 470.182 1.42501 -1.26878 0
M  V30 4783 C 467.322 2.24772 -2.61861 0
M  V30 4784 C 466.435 1.94232 -3.85873 0
M  V30 4785 C 465.57 3.16518 -4.26603 0
M  V30 4786 C 464.609 2.81748 -5.43401 0
M  V30 4787 N 463.746 3.96626 -5.79338 0
M  V30 4788 H 468.586 0.516874 -2.93483 0
M  V30 4789 H 466.123 0.243544 -1.4507 0
M  V30 4790 H 468.081 2.99667 -2.90268 0
M  V30 4791 H 466.711 2.67423 -1.8079 0
M  V30 4792 H 465.763 1.09625 -3.64262 0
M  V30 4793 H 467.075 1.64616 -4.70853 0
M  V30 4794 H 466.229 3.99743 -4.56389 0
M  V30 4795 H 464.968 3.49286 -3.40368 0
M  V30 4796 H 463.973 1.96933 -5.1332 0
M  V30 4797 H 465.198 2.50207 -6.31327 0
M  V30 4798 H 463.144 4.29257 -4.96059 0
M  V30 4799 H 463.061 3.70598 -6.58933 0
M  V30 4800 H 464.329 4.80586 -6.13724 0
M  V30 4801 N 468.558 1.5553 0.254621 0
M  V30 4802 C 469.804 1.77262 0.985193 0
M  V30 4803 C 470.137 0.582286 1.85265 0
M  V30 4804 O 469.412 -0.419666 1.89919 0
M  V30 4805 C 469.695 3.0881 1.85225 0
M  V30 4806 C 469.548 4.38233 1.0135 0
M  V30 4807 C 470.867 3.3653 2.83612 0
M  V30 4808 H 467.986 0.644906 0.356742 0
M  V30 4809 H 470.628 1.88264 0.256236 0
M  V30 4810 H 468.778 2.99562 2.47376 0
M  V30 4811 H 470.45 4.59463 0.411269 0
M  V30 4812 H 468.693 4.32636 0.317574 0
M  V30 4813 H 469.364 5.26644 1.65379 0
M  V30 4814 H 471.84 3.45691 2.31596 0
M  V30 4815 H 470.716 4.29805 3.41407 0
M  V30 4816 H 470.977 2.57064 3.59681 0
M  V30 4817 N 470.036 -0.519951 1.48776 0
M  V30 4818 C 471.261 -1.30447 1.6124 0
M  V30 4819 C 471.686 -1.86055 0.276591 0
M  V30 4820 O 471.044 -1.64915 -0.753183 0
M  V30 4821 C 471.092 -2.42406 2.66967 0
M  V30 4822 O 470.196 -3.45728 2.24824 0
M  V30 4823 H 469.537 -0.385924 0.540332 0
M  V30 4824 H 472.067 -0.624572 1.94834 0
M  V30 4825 H 472.077 -2.88447 2.88552 0
M  V30 4826 H 470.752 -2.01294 3.63941 0
M  V30 4827 H 469.329 -3.05737 2.13494 0
M  V30 4828 N 471.514 -1.37532 -0.769588 0
M  V30 4829 C 472.462 -1.33561 -1.90432 0
M  V30 4830 C 473.456 -0.224027 -1.67912 0
M  V30 4831 O 474.662 -0.392174 -1.75676 0
M  V30 4832 H 471.037 -0.416279 -0.626271 0
M  V30 4833 H 473.008 -2.29348 -1.90899 0
M  V30 4834 C 471.757 -1.16162 -3.27722 0
M  V30 4835 H 471.08 -2.00951 -3.45628 0
M  V30 4836 H 472.52 -1.17434 -4.07413 0
M  V30 4837 C 470.979 0.132583 -3.36639 0
M  V30 4838 O 471.509 1.11539 -3.85904 0
M  V30 4839 N 469.715 0.184013 -2.90017 0
M  V30 4840 H 469.262 -0.616415 -2.50116 0
M  V30 4841 H 469.22 1.04956 -2.96364 0
M  V30 4842 N 472.992 0.995999 -1.22138 0
M  V30 4843 C 473.939 2.08551 -0.988687 0
M  V30 4844 C 474.909 1.65864 0.0885021 0
M  V30 4845 O 476.094 1.90704 -0.0604589 0
M  V30 4846 C 473.234 3.40374 -0.569191 0
M  V30 4847 C 472.347 3.96421 -1.71681 0
M  V30 4848 C 471.482 5.1639 -1.2456 0
M  V30 4849 C 470.521 5.64567 -2.36497 0
M  V30 4850 N 469.658 6.75777 -1.90445 0
M  V30 4851 H 474.498 2.2779 -1.92135 0
M  V30 4852 H 472.035 1.1168 -0.957388 0
M  V30 4853 H 473.993 4.16068 -0.307166 0
M  V30 4854 H 472.623 3.21145 0.326462 0
M  V30 4855 H 471.675 3.17628 -2.09324 0
M  V30 4856 H 472.987 4.2816 -2.55891 0
M  V30 4857 H 472.141 5.99362 -0.940774 0
M  V30 4858 H 470.88 4.86266 -0.373662 0
M  V30 4859 H 469.885 4.80185 -2.67772 0
M  V30 4860 H 471.11 5.96716 -3.24202 0
M  V30 4861 H 469.056 6.47443 -1.05609 0
M  V30 4862 H 468.973 7.06818 -2.68223 0
M  V30 4863 H 470.241 7.62262 -1.63022 0
M  V30 4864 N 474.47 1.03057 1.19235 0
M  V30 4865 C 475.433 0.617418 2.20727 0
M  V30 4866 C 476.433 -0.319856 1.57587 0
M  V30 4867 O 477.623 -0.106633 1.73873 0
M  V30 4868 C 474.755 -0.096296 3.40764 0
M  V30 4869 H 475.948 1.51544 2.58794 0
M  V30 4870 H 473.501 0.821949 1.32942 0
M  V30 4871 H 474.236 -1.00859 3.08217 0
M  V30 4872 H 474.021 0.577217 3.87828 0
M  V30 4873 H 475.511 -0.372219 4.15938 0
M  V30 4874 N 475.948 -1.35272 0.808662 0
M  V30 4875 C 476.878 -2.32315 0.234981 0
M  V30 4876 C 477.859 -1.57572 -0.64071 0
M  V30 4877 O 479.044 -1.8563 -0.570551 0
M  V30 4878 C 476.174 -3.41801 -0.615601 0
M  V30 4879 C 475.128 -4.27694 0.161767 0
M  V30 4880 C 474.454 -5.28519 -0.810649 0
M  V30 4881 C 475.754 -5.04231 1.36193 0
M  V30 4882 H 477.448 -2.80543 1.04575 0
M  V30 4883 H 474.994 -1.3488 0.504315 0
M  V30 4884 H 476.947 -4.08693 -1.02702 0
M  V30 4885 H 475.671 -2.92186 -1.45928 0
M  V30 4886 H 474.33 -3.62384 0.554382 0
M  V30 4887 H 473.978 -4.75171 -1.64988 0
M  V30 4888 H 473.678 -5.8686 -0.294822 0
M  V30 4889 H 475.202 -5.98283 -1.22023 0
M  V30 4890 H 476.616 -5.64058 1.02528 0
M  V30 4891 H 475.013 -5.72077 1.81239 0
M  V30 4892 H 476.083 -4.34753 2.14751 0
M  V30 4893 N 477.426 -0.562348 -1.47226 0
M  V30 4894 C 478.837 -0.130325 -1.86245 0
M  V30 4895 C 479.188 1.30128 -1.46838 0
M  V30 4896 O 478.313 1.97974 -0.873805 0
M  V30 4897 C 478.908 -0.229738 -3.3802 0
M  V30 4898 C 477.467 0.14728 -3.76112 0
M  V30 4899 C 476.614 -0.574971 -2.71274 0
M  V30 4900 H 479.565 -0.771773 -1.3867 0
M  V30 4901 H 479.586 0.550316 -3.76499 0
M  V30 4902 H 479.098 -1.27178 -3.66671 0
M  V30 4903 H 477.199 1.19023 -3.53078 0
M  V30 4904 H 477.312 -0.214858 -4.78618 0
M  V30 4905 H 475.676 -0.0174756 -2.54694 0
M  V30 4906 H 476.459 -1.61827 -3.02766 0
M  V30 4907 N 478.904 1.54736 -0.299062 0
M  V30 4908 C 479.867 2.22127 0.565012 0
M  V30 4909 C 480.867 1.20669 1.06281 0
M  V30 4910 O 482.057 1.45417 0.959145 0
M  V30 4911 C 479.189 2.90611 1.78208 0
M  V30 4912 H 480.382 2.99891 -0.0237448 0
M  V30 4913 H 477.935 1.5622 -0.0498788 0
M  V30 4914 H 478.67 2.16921 2.41072 0
M  V30 4915 H 478.455 3.64984 1.43281 0
M  V30 4916 H 479.945 3.42026 2.396 0
M  V30 4917 N 480.382 0.0267497 1.57577 0
M  V30 4918 C 481.793 -0.512413 1.79531 0
M  V30 4919 C 482.144 -1.72391 0.936791 0
M  V30 4920 O 481.269 -2.15903 0.146543 0
M  V30 4921 C 481.864 -0.936378 3.25603 0
M  V30 4922 C 480.423 -1.42067 3.4856 0
M  V30 4923 C 479.57 -0.384278 2.74624 0
M  V30 4924 H 482.521 0.252797 1.56674 0
M  V30 4925 H 482.542 -1.80088 3.35184 0
M  V30 4926 H 482.054 -0.0544332 3.88062 0
M  V30 4927 H 480.155 -2.32262 2.9135 0
M  V30 4928 H 480.268 -1.42968 4.57271 0
M  V30 4929 H 478.632 -0.851855 2.40032 0
M  V30 4930 H 479.415 0.489159 3.39797 0
M  V30 4931 N 481.861 -1.55662 -0.24637 0
M  V30 4932 C 483.11 -1.7672 -0.972254 0
M  V30 4933 C 483.423 -0.59078 -1.86465 0
M  V30 4934 O 484.629 -0.684391 -2.62732 0
M  V30 4935 C 483.085 -3.12869 -1.7788 0
M  V30 4936 C 482.693 -4.38161 -0.933768 0
M  V30 4937 C 484.437 -3.43265 -2.49738 0
M  V30 4938 C 482.344 -5.6534 -1.73623 0
M  V30 4939 H 481.274 -0.658795 -0.366749 0
M  V30 4940 H 483.925 -1.82092 -0.226902 0
M  V30 4941 H 482.307 -3.01606 -2.56612 0
M  V30 4942 H 483.481 -4.60413 -0.188736 0
M  V30 4943 H 481.796 -4.15102 -0.328488 0
M  V30 4944 H 484.393 -4.35501 -3.10231 0
M  V30 4945 H 484.736 -2.64614 -3.2138 0
M  V30 4946 H 485.269 -3.55746 -1.78016 0
M  V30 4947 H 482.008 -6.46814 -1.06354 0
M  V30 4948 H 481.528 -5.47188 -2.45653 0
M  V30 4949 H 483.207 -6.04616 -2.30323 0
M  V30 4950 N 483.339 0.512053 -1.4905 0
M  V30 4951 C 484.249 1.64139 -1.67617 0
M  V30 4952 C 485.265 1.64786 -0.558701 0
M  V30 4953 O 486.441 1.8341 -0.832034 0
M  V30 4954 C 483.506 3.00548 -1.72835 0
M  V30 4955 C 482.567 3.10615 -2.96339 0
M  V30 4956 C 481.8 4.40517 -3.01298 0
M  V30 4957 O 482.023 5.28671 -2.14157 0
M  V30 4958 O 480.957 4.55325 -3.93653 0
M  V30 4959 H 484.783 1.51407 -2.63267 0
M  V30 4960 H 482.368 0.687131 -1.32661 0
M  V30 4961 H 484.25 3.81641 -1.78683 0
M  V30 4962 H 482.925 3.13566 -0.803616 0
M  V30 4963 H 481.832 2.2875 -2.96014 0
M  V30 4964 H 483.165 3.0252 -3.88256 0
M  V30 4965 N 484.817 1.37938 0.762283 0
M  V30 4966 C 485.764 1.34467 1.87583 0
M  V30 4967 C 486.734 0.208633 1.64785 0
M  V30 4968 O 487.919 0.399494 1.86571 0
M  V30 4969 C 485.059 1.16692 3.24772 0
M  V30 4970 C 484.172 2.39608 3.59461 0
M  V30 4971 C 483.307 2.14631 4.85908 0
M  V30 4972 C 482.346 3.33364 5.13357 0
M  V30 4973 N 481.483 3.07877 6.30996 0
M  V30 4974 H 486.323 2.29669 1.89885 0
M  V30 4975 H 483.86 1.14116 0.928219 0
M  V30 4976 H 485.818 1.04405 4.03925 0
M  V30 4977 H 484.448 0.251333 3.2182 0
M  V30 4978 H 483.5 2.626 2.75219 0
M  V30 4979 H 484.812 3.28128 3.75678 0
M  V30 4980 H 483.966 1.99429 5.72986 0
M  V30 4981 H 482.705 1.23463 4.71814 0
M  V30 4982 H 481.71 3.49094 4.24751 0
M  V30 4983 H 482.935 4.25395 5.29354 0
M  V30 4984 H 480.881 2.19348 6.18241 0
M  V30 4985 H 480.798 3.89944 6.47673 0
M  V30 4986 H 482.066 2.96313 7.20985 0
M  V30 4987 N 486.295 -0.989507 1.22664 0
M  V30 4988 C 487.523 -1.76496 1.07967 0
M  V30 4989 C 487.938 -1.85148 -0.369543 0
M  V30 4990 O 487.295 -1.32408 -1.25596 0
M  V30 4991 C 487.346 -3.19642 1.68853 0
M  V30 4992 O 487.067 -3.11453 3.08105 0
M  V30 4993 C 488.568 -4.13621 1.59475 0
M  V30 4994 H 485.788 -0.55418 0.378319 0
M  V30 4995 H 488.332 -1.24378 1.62328 0
M  V30 4996 H 486.487 -3.68816 1.18547 0
M  V30 4997 H 486.901 -4.01499 3.37489 0
M  V30 4998 H 488.375 -5.11801 2.06795 0
M  V30 4999 H 488.852 -4.35718 0.55191 0
M  V30 5000 H 489.458 -3.70346 2.09103 0
M  V30 5001 N 487.773 -1.03688 -1.18687 0
M  V30 5002 C 489.022 -0.733235 -1.879 0
M  V30 5003 C 489.335 0.741745 -1.8099 0
M  V30 5004 O 490.541 1.15875 -2.4553 0
M  V30 5005 C 488.997 -1.26127 -3.37076 0
M  V30 5006 C 488.605 -2.76461 -3.52524 0
M  V30 5007 C 490.349 -1.03398 -4.11715 0
M  V30 5008 C 488.256 -3.22642 -4.95637 0
M  V30 5009 H 487.186 -0.270584 -0.703776 0
M  V30 5010 H 489.837 -1.25222 -1.34133 0
M  V30 5011 H 488.219 -0.670165 -3.90288 0
M  V30 5012 H 489.393 -3.41296 -3.09602 0
M  V30 5013 H 487.708 -2.97559 -2.91286 0
M  V30 5014 H 490.305 -1.3542 -5.17267 0
M  V30 5015 H 490.648 0.0289246 -4.1629 0
M  V30 5016 H 491.181 -1.5895 -3.64664 0
M  V30 5017 H 487.92 -4.28296 -4.96228 0
M  V30 5018 H 487.44 -2.62539 -5.39289 0
M  V30 5019 H 489.119 -3.16444 -5.64333 0
M  V30 5020 N 489.251 1.34841 -0.815825 0
M  V30 5021 C 490.476 2.03261 -0.41226 0
M  V30 5022 C 490.901 1.61055 0.971751 0
M  V30 5023 O 490.259 0.7917 1.63101 0
M  V30 5024 C 490.307 3.56914 -0.514289 0
M  V30 5025 O 489.411 4.09728 0.468675 0
M  V30 5026 H 488.752 0.641664 -0.170771 0
M  V30 5027 H 491.282 1.72241 -1.10427 0
M  V30 5028 H 491.292 4.06156 -0.387457 0
M  V30 5029 H 489.967 3.86982 -1.52375 0
M  V30 5030 H 488.544 3.71681 0.301316 0
M  V30 5031 N 490.729 0.570148 1.46925 0
M  V30 5032 C 491.676 -0.170257 2.30171 0
M  V30 5033 C 492.646 -0.896099 1.39855 0
M  V30 5034 O 493.831 -0.889248 1.68811 0
M  V30 5035 C 490.971 -1.18605 3.24079 0
M  V30 5036 C 490.084 -0.464947 4.29491 0
M  V30 5037 C 489.219 -1.46716 5.10537 0
M  V30 5038 C 488.258 -0.731758 6.0771 0
M  V30 5039 N 487.395 -1.68142 6.81669 0
M  V30 5040 H 492.235 0.545713 2.92961 0
M  V30 5041 H 489.772 0.280938 1.44392 0
M  V30 5042 H 491.73 -1.78771 3.76957 0
M  V30 5043 H 490.36 -1.86989 2.63125 0
M  V30 5044 H 489.412 0.251506 3.79568 0
M  V30 5045 H 490.724 0.110548 4.98677 0
M  V30 5046 H 489.878 -2.14199 5.6763 0
M  V30 5047 H 488.617 -2.07658 4.41282 0
M  V30 5048 H 487.622 -0.0430787 5.49783 0
M  V30 5049 H 488.847 -0.127904 6.7898 0
M  V30 5050 H 486.793 -2.27918 6.15134 0
M  V30 5051 H 486.71 -1.15841 7.47072 0
M  V30 5052 H 487.978 -2.347 7.43328 0
M  V30 5053 N 492.207 -1.54576 0.307264 0
M  V30 5054 C 493.17 -2.22423 -0.553224 0
M  V30 5055 C 494.17 -1.21231 -1.05639 0
M  V30 5056 O 495.36 -1.45923 -0.951419 0
M  V30 5057 C 492.492 -2.91552 -1.76664 0
M  V30 5058 H 493.685 -2.99874 0.0396484 0
M  V30 5059 H 491.238 -1.56192 0.0581629 0
M  V30 5060 H 491.973 -2.18196 -2.39918 0
M  V30 5061 H 491.758 -3.65738 -1.41343 0
M  V30 5062 H 493.248 -3.43292 -2.37783 0
M  V30 5063 N 493.685 -0.035106 -1.57561 0
M  V30 5064 C 494.632 0.94474 -2.10578 0
M  V30 5065 C 495.602 1.3192 -1.00927 0
M  V30 5066 O 496.787 1.41147 -1.28382 0
M  V30 5067 C 493.927 2.21982 -2.64231 0
M  V30 5068 C 493.04 1.90128 -3.87911 0
M  V30 5069 C 492.175 3.11975 -4.29936 0
M  V30 5070 C 491.214 2.75968 -5.46359 0
M  V30 5071 N 490.351 3.90459 -5.83512 0
M  V30 5072 H 495.191 0.485717 -2.94015 0
M  V30 5073 H 492.728 0.228143 -1.4532 0
M  V30 5074 H 494.686 2.96572 -2.9343 0
M  V30 5075 H 493.316 2.6549 -1.83616 0
M  V30 5076 H 492.368 1.05755 -3.65404 0
M  V30 5077 H 493.68 1.59613 -4.72573 0
M  V30 5078 H 492.834 3.9488 -4.60603 0
M  V30 5079 H 491.573 3.45657 -3.44053 0
M  V30 5080 H 490.578 1.91478 -5.1538 0
M  V30 5081 H 491.803 2.43497 -6.33945 0
M  V30 5082 H 489.749 4.23971 -5.00584 0
M  V30 5083 H 489.666 3.63588 -6.62827 0
M  V30 5084 H 490.934 4.7405 -6.18787 0
M  V30 5085 N 495.163 1.55791 0.238111 0
M  V30 5086 C 496.411 1.77681 0.963001 0
M  V30 5087 C 496.732 0.600674 1.85518 0
M  V30 5088 O 496.002 -0.383182 1.92116 0
M  V30 5089 H 494.582 0.655315 0.358568 0
M  V30 5090 H 497.244 1.93239 0.253945 0
M  V30 5091 H 496.34 2.69177 1.57956 0
M  V30 5092 N 496.642 -0.504142 1.49319 0
M  V30 5093 C 497.574 -1.62265 1.61872 0
M  V30 5094 C 498.587 -1.54881 0.501573 0
M  V30 5095 O 499.776 -1.6087 0.773497 0
M  V30 5096 C 496.876 -3.01042 1.55651 0
M  V30 5097 C 496.049 -3.33642 2.82845 0
M  V30 5098 C 495.108 -4.51816 2.69719 0
M  V30 5099 O 494.134 -4.53755 3.4365 0
M  V30 5100 N 495.336 -5.51543 1.81055 0
M  V30 5101 H 498.101 -1.51924 2.58339 0
M  V30 5102 H 495.662 -0.691954 1.46368 0
M  V30 5103 H 497.654 -3.78013 1.44528 0
M  V30 5104 H 496.224 -3.05323 0.670546 0
M  V30 5105 H 495.444 -2.45598 3.08343 0
M  V30 5106 H 496.732 -3.5222 3.67177 0
M  V30 5107 H 496.13 -5.52774 1.20241 0
M  V30 5108 H 494.687 -6.27629 1.75856 0
M  V30 5109 N 498.12 -1.38341 -0.754957 0
M  V30 5110 C 499.531 -1.30803 -1.3322 0
M  V30 5111 C 499.882 0.0368 -1.96165 0
M  V30 5112 O 499.007 0.938844 -1.94974 0
M  V30 5113 C 499.602 -2.3688 -2.42225 0
M  V30 5114 C 498.161 -2.32925 -2.95674 0
M  V30 5115 C 497.308 -2.19819 -1.69042 0
M  V30 5116 H 500.259 -1.48719 -0.553937 0
M  V30 5117 H 500.28 -2.02517 -3.22129 0
M  V30 5118 H 499.792 -3.34747 -1.96383 0
M  V30 5119 H 497.893 -1.38635 -3.45848 0
M  V30 5120 H 498.006 -3.27008 -3.50146 0
M  V30 5121 H 496.37 -1.66648 -1.92615 0
M  V30 5122 H 497.153 -3.19625 -1.25279 0
M  V30 5123 N 499.598 0.982988 -1.23187 0
M  V30 5124 C 501.014 1.2487 -0.993967 0
M  V30 5125 C 501.214 1.99155 0.306498 0
M  V30 5126 O 500.27 2.30688 1.0266 0
M  V30 5127 C 501.583 2.05078 -2.19917 0
M  V30 5128 C 503.131 2.18227 -2.2438 0
M  V30 5129 C 503.606 3.01825 -3.44479 0
M  V30 5130 N 505.097 3.09411 -3.44702 0
M  V30 5131 C 505.832 3.74412 -4.34285 0
M  V30 5132 N 505.328 4.41259 -5.341 0
M  V30 5133 N 507.121 3.71273 -4.22035 0
M  V30 5134 H 499.272 0.485253 -2.06783 0
M  V30 5135 H 501.535 0.276979 -0.906635 0
M  V30 5136 H 501.241 1.57867 -3.14279 0
M  V30 5137 H 501.115 3.05829 -2.2079 0
M  V30 5138 H 503.502 2.64648 -1.30559 0
M  V30 5139 H 503.583 1.16873 -2.2754 0
M  V30 5140 H 503.227 2.56102 -4.38605 0
M  V30 5141 H 503.157 4.03342 -3.38559 0
M  V30 5142 H 505.648 2.61845 -2.7248 0
M  V30 5143 H 505.961 4.88629 -5.98717 0
M  V30 5144 H 504.306 4.39975 -5.38002 0
M  V30 5145 H 507.497 3.18217 -3.43301 0
M  V30 5146 H 507.67 4.21649 -4.92053 0
M  V30 5147 N 501.076 1.04316 1.18135 0
M  V30 5148 C 501.986 0.646876 2.25505 0
M  V30 5149 C 503.002 -0.328008 1.7088 0
M  V30 5150 O 504.178 -0.182309 2.00573 0
M  V30 5151 C 501.243 0.0185664 3.46695 0
M  V30 5152 C 500.304 1.04277 4.16443 0
M  V30 5153 C 499.537 0.444352 5.31847 0
M  V30 5154 O 499.76 -0.748735 5.65465 0
M  V30 5155 O 498.694 1.17428 5.90334 0
M  V30 5156 H 502.52 1.54147 2.61672 0
M  V30 5157 H 500.105 0.814188 1.25265 0
M  V30 5158 H 501.987 -0.331068 4.20097 0
M  V30 5159 H 500.662 -0.849814 3.12346 0
M  V30 5160 H 499.569 1.44425 3.45098 0
M  V30 5161 H 500.902 1.882 4.54798 0
M  V30 5162 N 502.554 -1.34406 0.822964 0
M  V30 5163 C 503.965 -1.8069 0.469879 0
M  V30 5164 C 504.316 -1.68223 -1.00972 0
M  V30 5165 O 503.441 -1.22226 -1.78577 0
M  V30 5166 C 504.036 -3.28064 0.846118 0
M  V30 5167 C 502.595 -3.72428 0.545402 0
M  V30 5168 C 501.742 -2.56116 1.06301 0
M  V30 5169 H 504.693 -1.22153 1.01313 0
M  V30 5170 H 504.714 -3.80205 0.149922 0
M  V30 5171 H 504.226 -3.37107 1.92304 0
M  V30 5172 H 502.327 -3.68924 -0.522109 0
M  V30 5173 H 502.44 -4.66548 1.0895 0
M  V30 5174 H 500.804 -2.50048 0.484554 0
M  V30 5175 H 501.587 -2.67928 2.14638 0
M  V30 5176 N 504.032 -0.577932 -1.46621 0
M  V30 5177 C 504.964 0.195801 -2.28362 0
M  V30 5178 C 505.977 0.859983 -1.38232 0
M  V30 5179 O 507.166 0.730349 -1.62875 0
M  V30 5180 C 504.266 1.29639 -3.13124 0
M  V30 5181 C 503.439 0.725049 -4.31349 0
M  V30 5182 C 502.498 1.71274 -4.97546 0
M  V30 5183 O 501.524 1.25067 -5.5529 0
M  V30 5184 N 502.726 3.04672 -4.94121 0
M  V30 5185 H 505.491 -0.505468 -2.95407 0
M  V30 5186 H 503.052 -0.415381 -1.56481 0
M  V30 5187 H 505.044 1.95631 -3.54275 0
M  V30 5188 H 503.614 1.90059 -2.48186 0
M  V30 5189 H 502.834 -0.112205 -3.9404 0
M  V30 5190 H 504.122 0.323034 -5.07774 0
M  V30 5191 H 503.52 3.4484 -4.48444 0
M  V30 5192 H 502.077 3.66166 -5.39227 0
M  V30 5193 N 505.51 1.54411 -0.315457 0
M  V30 5194 C 506.756 2.00716 0.289972 0
M  V30 5195 C 507.089 1.2034 1.5242 0
M  V30 5196 O 506.364 0.283579 1.92422 0
M  V30 5197 C 506.647 3.54507 0.632196 0
M  V30 5198 C 506.5 4.45615 -0.61218 0
M  V30 5199 C 507.819 4.15421 1.45305 0
M  V30 5200 H 504.938 0.729637 0.10392 0
M  V30 5201 H 507.58 1.8506 -0.430427 0
M  V30 5202 H 505.73 3.67979 1.24595 0
M  V30 5203 H 507.402 4.44026 -1.25053 0
M  V30 5204 H 505.645 4.15621 -1.24264 0
M  V30 5205 H 506.316 5.51022 -0.328379 0
M  V30 5206 H 508.792 4.05474 0.934331 0
M  V30 5207 H 507.668 5.23157 1.66127 0
M  V30 5208 H 507.929 3.68223 2.44671 0
M  V30 5209 N 506.988 0.0434614 1.5754 0
M  V30 5210 C 508.218 -0.640905 1.96408 0
M  V30 5211 C 508.626 -1.65365 0.919297 0
M  V30 5212 O 507.969 -1.83395 -0.105795 0
M  V30 5213 C 508.031 -1.39141 3.31482 0
M  V30 5214 C 507.695 -0.535375 4.53853 0
M  V30 5215 C 508.692 0.195335 5.19533 0
M  V30 5216 C 506.377 -0.468564 5.0011 0
M  V30 5217 C 508.371 0.981377 6.298 0
M  V30 5218 C 506.058 0.321171 6.10255 0
M  V30 5219 C 507.056 1.04484 6.74961 0
M  V30 5220 O 506.744 1.8216 7.8299 0
M  V30 5221 H 506.476 -0.180584 0.651433 0
M  V30 5222 H 509.03 0.103848 2.05137 0
M  V30 5223 H 507.26 -2.18162 3.19284 0
M  V30 5224 H 508.949 -1.96526 3.55151 0
M  V30 5225 H 509.715 0.15314 4.84758 0
M  V30 5226 H 505.594 -1.02142 4.49542 0
M  V30 5227 H 509.138 1.54674 6.80237 0
M  V30 5228 H 505.035 0.365032 6.44467 0
M  V30 5229 H 505.803 1.74289 7.99728 0
M  V30 5230 N 508.466 -1.55915 -0.229846 0
M  V30 5231 C 509.694 -1.82617 -0.972562 0
M  V30 5232 C 510.109 -0.621488 -1.78278 0
M  V30 5233 O 509.466 0.409956 -1.77836 0
M  V30 5234 C 509.517 -3.0774 -1.89679 0
M  V30 5235 O 509.238 -4.23559 -1.11934 0
M  V30 5236 C 510.739 -3.47368 -2.75409 0
M  V30 5237 H 507.959 -0.60727 -0.285419 0
M  V30 5238 H 510.503 -2.02996 -0.247579 0
M  V30 5239 H 508.658 -2.89361 -2.57583 0
M  V30 5240 H 509.072 -4.94586 -1.74599 0
M  V30 5241 H 510.546 -4.37977 -3.35977 0
M  V30 5242 H 511.023 -2.68737 -3.47386 0
M  V30 5243 H 511.629 -3.68158 -2.12931 0
M  V30 5244 N 509.944 0.496216 -1.49584 0
M  V30 5245 C 510.874 1.60576 -1.69521 0
M  V30 5246 C 511.855 1.61169 -0.543933 0
M  V30 5247 O 513.04 1.77834 -0.78031 0
M  V30 5248 C 510.17 2.99038 -1.76616 0
M  V30 5249 C 509.124 3.13312 -2.91581 0
M  V30 5250 C 508.45 4.53172 -2.83794 0
M  V30 5251 C 509.75 2.92886 -4.32452 0
M  V30 5252 H 511.444 1.44146 -2.62416 0
M  V30 5253 H 508.99 0.692024 -1.26282 0
M  V30 5254 H 510.943 3.76564 -1.8915 0
M  V30 5255 H 509.667 3.16568 -0.80324 0
M  V30 5256 H 508.326 2.38213 -2.78658 0
M  V30 5257 H 507.974 4.67585 -1.854 0
M  V30 5258 H 507.674 4.63662 -3.60958 0
M  V30 5259 H 509.198 5.32752 -2.98342 0
M  V30 5260 H 510.612 3.60178 -4.46032 0
M  V30 5261 H 509.009 3.14844 -5.10875 0
M  V30 5262 H 510.079 1.88966 -4.46565 0
M  V30 5263 N 511.423 1.38739 0.74761 0
M  V30 5264 C 512.834 1.31507 1.32524 0
M  V30 5265 C 513.185 -0.0263963 1.96182 0
M  V30 5266 O 512.31 -0.92849 1.95469 0
M  V30 5267 C 512.905 2.38162 2.40966 0
M  V30 5268 C 511.464 2.34489 2.94434 0
M  V30 5269 C 510.611 2.20712 1.67873 0
M  V30 5270 H 513.562 1.4901 0.546043 0
M  V30 5271 H 513.583 2.04222 3.21051 0
M  V30 5272 H 513.095 3.35783 1.94605 0
M  V30 5273 H 511.196 1.40467 3.45108 0
M  V30 5274 H 511.309 3.28861 3.48407 0
M  V30 5275 H 509.673 1.67667 1.91729 0
M  V30 5276 H 510.456 3.20285 1.23582 0
M  V30 5277 N 512.901 -0.976442 1.23707 0
M  V30 5278 C 514.312 -1.53284 1.06587 0
M  V30 5279 C 514.663 -1.92765 -0.365526 0
M  V30 5280 O 513.788 -1.7645 -1.25277 0
M  V30 5281 C 514.383 -2.78548 1.92864 0
M  V30 5282 C 512.942 -3.30574 1.79994 0
M  V30 5283 C 512.089 -2.03538 1.88328 0
M  V30 5284 H 515.04 -0.795692 1.37311 0
M  V30 5285 H 515.061 -3.5155 1.45577 0
M  V30 5286 H 514.573 -2.49782 2.97037 0
M  V30 5287 H 512.674 -3.64211 0.786202 0
M  V30 5288 H 512.787 -4.00065 2.636 0
M  V30 5289 H 511.151 -2.17853 1.31954 0
M  V30 5290 H 511.934 -1.77149 2.94063 0
M  V30 5291 N 514.379 -1.04941 -1.1758 0
M  V30 5292 C 515.604 -0.778253 -1.92245 0
M  V30 5293 C 516.029 0.659707 -1.76152 0
M  V30 5294 O 515.387 1.45803 -1.07755 0
M  V30 5295 C 515.435 -1.16051 -3.41416 0
M  V30 5296 O 514.539 -0.291153 -4.11371 0
M  V30 5297 H 513.88 -0.285619 -0.599431 0
M  V30 5298 H 516.41 -1.40159 -1.49052 0
M  V30 5299 H 516.42 -1.12619 -3.92149 0
M  V30 5300 H 515.095 -2.208 -3.52449 0
M  V30 5301 H 513.672 -0.385851 -3.70898 0
M  V30 5302 N 515.857 1.33968 -0.830081 0
M  V30 5303 C 517.273 1.51003 -0.516742 0
M  V30 5304 C 517.473 1.77286 0.957694 0
M  V30 5305 O 516.529 1.82797 1.74188 0
M  V30 5306 C 517.842 2.67036 -1.38247 0
M  V30 5307 C 519.39 2.80919 -1.38034 0
M  V30 5308 C 519.865 4.00004 -2.23071 0
M  V30 5309 N 521.356 4.07224 -2.20733 0
M  V30 5310 C 522.091 4.98541 -2.83275 0
M  V30 5311 N 521.587 5.95033 -3.54835 0
M  V30 5312 N 523.38 4.91469 -2.72791 0
M  V30 5313 H 515.531 1.15168 -1.78466 0
M  V30 5314 H 517.794 0.565443 -0.760906 0
M  V30 5315 H 517.5 2.54266 -2.42985 0
M  V30 5316 H 517.374 3.62226 -1.05225 0
M  V30 5317 H 519.761 2.93127 -0.340713 0
M  V30 5318 H 519.842 1.86517 -1.75057 0
M  V30 5319 H 519.486 3.88557 -3.27087 0
M  V30 5320 H 519.416 4.93634 -1.83394 0
M  V30 5321 H 521.907 3.38162 -1.68687 0
M  V30 5322 H 522.22 6.61357 -3.99784 0
M  V30 5323 H 520.565 5.95135 -3.58942 0
M  V30 5324 H 523.756 4.15048 -2.16456 0
M  V30 5325 H 523.929 5.62439 -3.21818 0
M  V30 5326 N 517.335 0.585699 1.46312 0
M  V30 5327 C 518.612 0.00542031 1.95599 0
M  V30 5328 C 518.992 -1.45619 1.52834 0
M  V30 5329 O 518.34 -2.14759 0.780446 0
M  V30 5330 C 518.55 0.180601 3.48532 0
M  V30 5331 C 519.898 0.049979 4.24571 0
M  V30 5332 O 520.922 0.109589 3.56031 0
M  V30 5333 O 519.781 -0.0832226 5.46437 0
M  V30 5334 H 516.875 -0.0481281 0.825598 0
M  V30 5335 H 519.421 0.654227 1.56582 0
M  V30 5336 H 518.193 1.19657 3.72556 0
M  V30 5337 H 517.816 -0.504498 3.94386 0
M  V30 5338 N 518.813 -1.54241 0.323641 0
M  V30 5339 C 519.723 -2.28033 -0.551205 0
M  V30 5340 C 520.739 -1.32388 -1.12913 0
M  V30 5341 O 521.915 -1.65403 -1.14908 0
M  V30 5342 C 518.98 -3.02382 -1.69606 0
M  V30 5343 C 518.041 -4.13612 -1.14993 0
M  V30 5344 C 517.274 -4.84407 -2.24022 0
M  V30 5345 O 517.497 -4.54716 -3.44368 0
M  V30 5346 O 516.431 -5.71312 -1.89436 0
M  V30 5347 H 520.257 -3.03662 0.048066 0
M  V30 5348 H 517.842 -1.49133 0.0893289 0
M  V30 5349 H 519.724 -3.48941 -2.36259 0
M  V30 5350 H 518.399 -2.29628 -2.28151 0
M  V30 5351 H 517.306 -3.71402 -0.448484 0
M  V30 5352 H 518.639 -4.8841 -0.609608 0
M  V30 5353 N 520.291 -0.0518155 -1.57515 0
M  V30 5354 C 521.221 0.920283 -2.146 0
M  V30 5355 C 522.202 1.32406 -1.06783 0
M  V30 5356 O 523.387 1.39866 -1.34726 0
M  V30 5357 C 520.517 2.1949 -2.6915 0
M  V30 5358 C 519.471 1.93116 -3.81956 0
M  V30 5359 C 518.797 3.27037 -4.23026 0
M  V30 5360 C 520.097 1.25225 -5.07066 0
M  V30 5361 H 521.791 0.444801 -2.96077 0
M  V30 5362 H 519.337 0.212508 -1.42423 0
M  V30 5363 H 521.29 2.87894 -3.07725 0
M  V30 5364 H 520.014 2.69244 -1.84865 0
M  V30 5365 H 518.673 1.27123 -3.43854 0
M  V30 5366 H 518.321 3.74595 -3.3569 0
M  V30 5367 H 518.021 3.10189 -4.99056 0
M  V30 5368 H 519.545 3.96673 -4.64202 0
M  V30 5369 H 520.959 1.83666 -5.43083 0
M  V30 5370 H 519.356 1.18702 -5.88243 0
M  V30 5371 H 520.426 0.228382 -4.84362 0
M  V30 5372 N 521.769 1.56035 0.221574 0
M  V30 5373 C 522.997 1.8313 0.962864 0
M  V30 5374 C 523.412 0.630934 1.77946 0
M  V30 5375 O 522.769 -0.400519 1.78051 0
M  V30 5376 C 522.82 3.08742 1.88045 0
M  V30 5377 O 522.541 4.24147 1.09686 0
M  V30 5378 C 524.042 3.48824 2.73563 0
M  V30 5379 H 521.262 0.608775 0.282194 0
M  V30 5380 H 523.806 2.03124 0.23681 0
M  V30 5381 H 521.961 2.90723 2.56045 0
M  V30 5382 H 522.375 4.95505 1.71974 0
M  V30 5383 H 523.849 4.39752 3.3365 0
M  V30 5384 H 524.326 2.70575 3.45956 0
M  V30 5385 H 524.932 3.69282 2.10976 0
M  V30 5386 N 523.247 -0.488276 1.49845 0
M  V30 5387 C 524.194 -1.58836 1.67451 0
M  V30 5388 C 525.164 -1.57886 0.515857 0
M  V30 5389 O 526.349 -1.75679 0.744403 0
M  V30 5390 C 523.489 -2.96915 1.75885 0
M  V30 5391 C 522.602 -3.07784 3.03138 0
M  V30 5392 C 521.737 -4.36673 3.02473 0
M  V30 5393 C 520.776 -4.41222 4.24252 0
M  V30 5394 N 519.913 -5.61557 4.21424 0
M  V30 5395 H 524.753 -1.43131 2.61376 0
M  V30 5396 H 522.29 -0.696186 1.29583 0
M  V30 5397 H 524.248 -3.76965 1.78755 0
M  V30 5398 H 522.878 -3.11295 0.85414 0
M  V30 5399 H 521.93 -2.20717 3.09819 0
M  V30 5400 H 523.242 -3.07005 3.93128 0
M  V30 5401 H 522.396 -5.25055 3.03977 0
M  V30 5402 H 521.135 -4.40037 2.10283 0
M  V30 5403 H 520.14 -3.5124 4.22978 0
M  V30 5404 H 521.365 -4.39564 5.17649 0
M  V30 5405 H 519.311 -5.65738 3.32078 0
M  V30 5406 H 519.228 -5.62447 5.05163 0
M  V30 5407 H 520.496 -6.52111 4.2705 0
M  V30 5408 N 524.725 -1.39134 -0.740242 0
M  V30 5409 C 525.673 -1.3757 -1.87556 0
M  V30 5410 C 526.667 -0.259593 -1.67399 0
M  V30 5411 O 527.873 -0.429349 -1.74804 0
M  V30 5412 H 524.248 -0.42947 -0.6173 0
M  V30 5413 H 526.219 -2.33345 -1.85991 0
M  V30 5414 C 524.968 -1.23087 -3.25184 0
M  V30 5415 H 524.291 -2.08237 -3.41288 0
M  V30 5416 H 525.731 -1.26049 -4.0483 0
M  V30 5417 C 524.19 0.0611471 -3.36845 0
M  V30 5418 O 524.72 1.03328 -3.88183 0
M  V30 5419 N 522.926 0.122454 -2.90342 0
M  V30 5420 H 522.473 -0.669329 -2.48752 0
M  V30 5421 H 522.431 0.986463 -2.98523 0
M  V30 5422 N 526.204 0.969867 -1.24223 0
M  V30 5423 C 527.136 2.0669 -0.99055 0
M  V30 5424 C 528.149 1.62753 0.0392222 0
M  V30 5425 O 529.338 1.77403 -0.197561 0
M  V30 5426 C 526.438 3.35589 -0.472594 0
M  V30 5427 C 525.611 4.08444 -1.56499 0
M  V30 5428 C 524.67 5.15616 -1.05007 0
M  V30 5429 O 523.696 5.41911 -1.7413 0
M  V30 5430 N 524.898 5.80383 0.116641 0
M  V30 5431 H 527.663 2.28855 -1.93508 0
M  V30 5432 H 525.224 1.13733 -1.15223 0
M  V30 5433 H 527.216 4.04542 -0.112919 0
M  V30 5434 H 525.786 3.10311 0.377617 0
M  V30 5435 H 525.006 3.33798 -2.09696 0
M  V30 5436 H 526.294 4.53882 -2.29932 0
M  V30 5437 H 525.692 5.6142 0.694589 0
M  V30 5438 H 524.249 6.50462 0.417483 0
M  V30 5439 N 527.682 1.05563 1.17022 0
M  V30 5440 C 528.928 0.769074 1.87652 0
M  V30 5441 C 529.261 -0.702326 1.81055 0
M  V30 5442 O 528.536 -1.5139 1.22112 0
M  V30 5443 C 528.819 1.25492 3.37526 0
M  V30 5444 C 528.672 2.78953 3.52853 0
M  V30 5445 C 529.991 0.856919 4.31677 0
M  V30 5446 H 527.11 0.280854 0.681388 0
M  V30 5447 H 529.752 1.31027 1.37593 0
M  V30 5448 H 527.902 0.794516 3.80289 0
M  V30 5449 H 529.574 3.33146 3.19079 0
M  V30 5450 H 527.817 3.18046 2.95007 0
M  V30 5451 H 528.488 3.08011 4.58076 0
M  V30 5452 H 530.964 1.25334 3.96775 0
M  V30 5453 H 529.84 1.22443 5.35069 0
M  V30 5454 H 530.101 -0.238787 4.41455 0
M  V30 5455 N 529.16 -1.33526 0.837174 0
M  V30 5456 C 530.385 -2.0258 0.444545 0
M  V30 5457 C 530.81 -1.6258 -0.946006 0
M  V30 5458 O 530.168 -0.817548 -1.6182 0
M  V30 5459 C 530.216 -3.5605 0.571006 0
M  V30 5460 O 529.32 -4.10422 -0.403431 0
M  V30 5461 H 528.661 -0.638866 0.180958 0
M  V30 5462 H 531.191 -1.70462 1.13154 0
M  V30 5463 H 531.201 -4.05488 0.452024 0
M  V30 5464 H 529.876 -3.84509 1.58512 0
M  V30 5465 H 528.453 -3.72113 -0.242147 0
M  V30 5466 N 530.638 -0.59345 -1.46 0
M  V30 5467 C 531.568 0.121192 -2.33185 0
M  V30 5468 C 532.549 0.872977 -1.4599 0
M  V30 5469 O 533.734 0.846321 -1.74789 0
M  V30 5470 C 530.864 1.12844 -3.28456 0
M  V30 5471 C 529.818 0.4908 -4.25177 0
M  V30 5472 C 529.144 1.60529 -5.10034 0
M  V30 5473 C 530.444 -0.578949 -5.19081 0
M  V30 5474 H 532.138 -0.606767 -2.93187 0
M  V30 5475 H 529.684 -0.293242 -1.40983 0
M  V30 5476 H 531.637 1.63684 -3.88311 0
M  V30 5477 H 530.361 1.88681 -2.66584 0
M  V30 5478 H 529.02 0.00339328 -3.666 0
M  V30 5479 H 528.668 2.35359 -4.44539 0
M  V30 5480 H 528.368 1.18422 -5.75543 0
M  V30 5481 H 529.892 2.11623 -5.72755 0
M  V30 5482 H 531.306 -0.155199 -5.7309 0
M  V30 5483 H 529.703 -0.920947 -5.92991 0
M  V30 5484 H 530.773 -1.46109 -4.62364 0
M  V30 5485 N 532.116 1.54067 -0.331816 0
M  V30 5486 C 533.344 2.05131 0.269996 0
M  V30 5487 C 533.759 1.20749 1.45138 0
M  V30 5488 O 533.116 0.240069 1.80914 0
M  V30 5489 C 533.167 3.54728 0.696456 0
M  V30 5490 O 532.888 4.35906 -0.43794 0
M  V30 5491 C 534.389 4.21916 1.36021 0
M  V30 5492 H 531.609 0.668807 0.0542042 0
M  V30 5493 H 534.153 1.98777 -0.4804 0
M  V30 5494 H 532.308 3.61342 1.39681 0
M  V30 5495 H 532.722 5.24404 -0.100334 0
M  V30 5496 H 534.196 5.28015 1.60947 0
M  V30 5497 H 534.673 3.73538 2.31011 0
M  V30 5498 H 535.279 4.19463 0.702212 0
M  V30 5499 N 533.594 0.0601682 1.57485 0
M  V30 5500 C 534.834 -0.615384 1.94916 0
M  V30 5501 C 535.198 -1.67475 0.938948 0
M  V30 5502 O 536.399 -2.40502 1.20051 0
M  V30 5503 C 534.67 -1.18788 3.37082 0
M  V30 5504 S 536.229 -1.88018 3.96478 0
M  V30 5505 H 533.047 -0.201821 0.681754 0
M  V30 5506 H 535.649 0.131252 1.95059 0
M  V30 5507 H 534.353 -0.404869 4.08398 0
M  V30 5508 H 533.884 -1.97114 3.40455 0
M  V30 5509 H 535.899 -3.16161 3.82435 0
M  V30 5510 N 535.072 -1.5615 -0.213296 0
M  V30 5511 C 536.002 -1.96109 -1.26742 0
M  V30 5512 C 536.983 -0.830448 -1.48451 0
M  V30 5513 O 538.168 -1.09339 -1.60495 0
M  V30 5514 C 535.298 -2.28492 -2.61551 0
M  V30 5515 C 534.252 -3.44124 -2.54485 0
M  V30 5516 C 533.578 -3.62134 -3.93399 0
M  V30 5517 C 534.878 -4.78855 -2.08556 0
M  V30 5518 H 536.572 -2.84412 -0.935434 0
M  V30 5519 H 534.118 -1.36836 -0.44854 0
M  V30 5520 H 536.071 -2.55039 -3.3546 0
M  V30 5521 H 534.795 -1.37052 -2.96453 0
M  V30 5522 H 533.454 -3.17639 -1.83033 0
M  V30 5523 H 533.102 -2.68055 -4.25623 0
M  V30 5524 H 532.802 -4.39913 -3.89551 0
M  V30 5525 H 534.326 -3.91038 -4.68958 0
M  V30 5526 H 535.74 -5.04552 -2.72213 0
M  V30 5527 H 534.137 -5.59975 -2.1575 0
M  V30 5528 H 535.207 -4.73657 -1.03811 0
M  V30 5529 N 536.55 0.480323 -1.50102 0
M  V30 5530 C 537.796 1.23489 -1.60867 0
M  V30 5531 C 538.129 1.91809 -0.303827 0
M  V30 5532 O 537.404 1.81694 0.694092 0
M  V30 5533 C 537.687 2.28578 -2.78252 0
M  V30 5534 C 537.54 1.64624 -4.18592 0
M  V30 5535 C 538.859 3.2997 -2.91218 0
M  V30 5536 H 535.978 0.447605 -0.585507 0
M  V30 5537 H 538.62 0.530005 -1.82458 0
M  V30 5538 H 536.77 2.88697 -2.59974 0
M  V30 5539 H 538.442 1.08173 -4.48438 0
M  V30 5540 H 536.685 0.949645 -4.23278 0
M  V30 5541 H 537.356 2.40946 -4.96638 0
M  V30 5542 H 539.832 2.79864 -3.07921 0
M  V30 5543 H 538.708 4.00839 -3.74993 0
M  V30 5544 H 538.969 3.93541 -2.0144 0
M  V30 5545 N 538.028 1.39524 0.732853 0
M  V30 5546 C 538.975 1.38416 1.84688 0
M  V30 5547 C 539.945 0.243539 1.64305 0
M  V30 5548 O 541.13 0.438979 1.85681 0
M  V30 5549 C 538.27 1.23555 3.22224 0
M  V30 5550 C 537.383 2.47179 3.54298 0
M  V30 5551 C 536.518 2.2489 4.81246 0
M  V30 5552 C 535.557 3.44178 5.0617 0
M  V30 5553 N 534.694 3.21192 6.24323 0
M  V30 5554 H 539.534 2.33645 1.84971 0
M  V30 5555 H 537.071 1.16059 0.903804 0
M  V30 5556 H 539.029 1.12949 4.0162 0
M  V30 5557 H 537.659 0.31954 3.21215 0
M  V30 5558 H 536.711 2.68379 2.69587 0
M  V30 5559 H 538.023 3.36022 3.68633 0
M  V30 5560 H 537.177 2.11538 5.68627 0
M  V30 5561 H 535.916 1.33443 4.69089 0
M  V30 5562 H 534.921 3.58025 4.17251 0
M  V30 5563 H 536.146 4.36528 5.20212 0
M  V30 5564 H 534.092 2.32413 6.1345 0
M  V30 5565 H 534.009 4.03594 6.39256 0
M  V30 5566 H 535.277 3.1154 7.14537 0
M  V30 5567 N 539.506 -0.963266 1.24736 0
M  V30 5568 C 540.754 -1.70343 1.08755 0
M  V30 5569 C 541.075 -1.91387 -0.373619 0
M  V30 5570 O 540.345 -1.4948 -1.2662 0
M  V30 5571 H 538.925 -0.631224 0.399456 0
M  V30 5572 H 541.587 -1.15859 1.56725 0
M  V30 5573 H 540.683 -2.68616 1.58909 0
M  V30 5574 N 540.985 -1.06182 -1.16461 0
M  V30 5575 C 542.232 -0.777863 -1.86964 0
M  V30 5576 C 542.56 0.695602 -1.81636 0
M  V30 5577 O 541.815 1.52532 -1.22607 0
M  V30 5578 C 542.114 -1.21633 -3.36066 0
M  V30 5579 C 541.78 -2.69371 -3.61594 0
M  V30 5580 C 540.442 -3.09727 -3.6827 0
M  V30 5581 C 542.794 -3.64791 -3.7226 0
M  V30 5582 C 540.122 -4.44345 -3.83112 0
M  V30 5583 C 542.474 -4.99155 -3.88623 0
M  V30 5584 C 541.138 -5.39149 -3.93541 0
M  V30 5585 H 540.408 -0.28464 -0.68415 0
M  V30 5586 H 543.055 -1.33071 -1.37711 0
M  V30 5587 H 541.36 -0.582651 -3.87443 0
M  V30 5588 H 543.057 -0.973682 -3.88999 0
M  V30 5589 H 539.647 -2.37124 -3.57029 0
M  V30 5590 H 543.831 -3.34746 -3.66413 0
M  V30 5591 H 539.087 -4.74819 -3.85172 0
M  V30 5592 H 543.261 -5.72976 -3.95817 0
M  V30 5593 H 540.888 -6.43464 -4.04794 0
M  V30 5594 N 542.463 1.3308 -0.844243 0
M  V30 5595 C 543.693 2.01515 -0.455541 0
M  V30 5596 C 544.101 1.63655 0.949406 0
M  V30 5597 O 543.444 0.84848 1.62931 0
M  V30 5598 C 543.506 3.55967 -0.502801 0
M  V30 5599 C 543.17 4.17222 -1.86481 0
M  V30 5600 C 544.167 4.36205 -2.8288 0
M  V30 5601 C 541.852 4.53528 -2.15911 0
M  V30 5602 C 543.846 4.90649 -4.06869 0
M  V30 5603 C 541.533 5.07679 -3.40155 0
M  V30 5604 C 542.531 5.26186 -4.35451 0
M  V30 5605 O 542.219 5.79183 -5.57496 0
M  V30 5606 H 541.951 0.65199 -0.178565 0
M  V30 5607 H 544.505 1.70867 -1.1399 0
M  V30 5608 H 542.735 3.85965 0.23836 0
M  V30 5609 H 544.424 4.05688 -0.131169 0
M  V30 5610 H 545.19 4.085 -2.61444 0
M  V30 5611 H 541.069 4.38414 -1.42528 0
M  V30 5612 H 544.613 5.0501 -4.81259 0
M  V30 5613 H 540.51 5.34815 -3.61446 0
M  V30 5614 H 541.278 5.97591 -5.5931 0
M  V30 5615 N 543.941 0.601185 1.45683 0
M  V30 5616 C 545.352 0.179659 1.85834 0
M  V30 5617 C 545.703 -1.26189 1.50236 0
M  V30 5618 O 544.828 -1.95587 0.925987 0
M  V30 5619 C 545.423 0.319277 3.37292 0
M  V30 5620 C 543.982 -0.0475092 3.7637 0
M  V30 5621 C 543.129 0.646692 2.69654 0
M  V30 5622 H 546.08 0.808268 1.36575 0
M  V30 5623 H 546.101 -0.4503 3.77826 0
M  V30 5624 H 545.613 1.36855 3.6317 0
M  V30 5625 H 543.714 -1.0962 3.5611 0
M  V30 5626 H 543.827 0.34168 4.7788 0
M  V30 5627 H 542.191 0.0849971 2.54558 0
M  V30 5628 H 542.974 1.69797 2.98369 0
M  V30 5629 N 545.419 -1.53889 0.339982 0
M  V30 5630 C 546.644 -2.05741 -0.261798 0
M  V30 5631 C 547.069 -1.21354 -1.43718 0
M  V30 5632 O 546.427 -0.22645 -1.7988 0
M  V30 5633 C 546.475 -3.54542 -0.658228 0
M  V30 5634 O 545.579 -3.7302 -1.75869 0
M  V30 5635 H 544.92 -0.662529 -0.0441672 0
M  V30 5636 H 547.45 -1.98568 0.493161 0
M  V30 5637 H 547.46 -3.9711 -0.936368 0
M  V30 5638 H 546.135 -4.15412 0.201358 0
M  V30 5639 H 544.712 -3.42355 -1.47809 0
M  V30 5640 N 546.897 -0.0685191 -1.57451 0
M  V30 5641 C 548.174 0.642167 -1.84758 0
M  V30 5642 C 548.554 1.87991 -0.960344 0
M  V30 5643 O 547.902 2.28485 -0.0257894 0
M  V30 5644 C 548.112 0.982946 -3.34872 0
M  V30 5645 C 549.46 1.35784 -4.02303 0
M  V30 5646 O 550.484 1.07477 -3.39598 0
M  V30 5647 O 549.343 1.88681 -5.12895 0
M  V30 5648 H 546.437 0.318625 -0.763156 0
M  V30 5649 H 548.983 -0.0992015 -1.6941 0
M  V30 5650 H 547.755 0.10372 -3.91163 0
M  V30 5651 H 547.378 1.78119 -3.55471 0
M  V30 5652 N 548.375 1.56261 0.205012 0
M  V30 5653 C 549.624 1.79236 0.925058 0
M  V30 5654 C 549.937 0.640011 1.84833 0
M  V30 5655 O 551.143 0.753809 2.60826 0
M  V30 5656 C 549.599 3.17475 1.69522 0
M  V30 5657 C 549.207 4.40482 0.817269 0
M  V30 5658 C 550.951 3.49766 2.4055 0
M  V30 5659 C 548.858 5.69744 1.58573 0
M  V30 5660 H 547.788 0.668287 0.349153 0
M  V30 5661 H 550.439 1.82629 0.178544 0
M  V30 5662 H 548.821 3.08304 2.48526 0
M  V30 5663 H 549.995 4.60752 0.0665988 0
M  V30 5664 H 548.31 4.15827 0.218316 0
M  V30 5665 H 550.907 4.43573 2.98575 0
M  V30 5666 H 551.25 2.73041 3.14252 0
M  V30 5667 H 551.783 3.60341 1.68522 0
M  V30 5668 H 548.522 6.49407 0.891679 0
M  V30 5669 H 548.042 5.53509 2.31059 0
M  V30 5670 H 549.721 6.1051 2.14212 0
M  V30 5671 N 549.853 -0.472356 1.50355 0
M  V30 5672 C 550.816 -1.5529 1.68576 0
M  V30 5673 C 551.816 -1.50863 0.556511 0
M  V30 5674 O 553.006 -1.53505 0.823516 0
M  V30 5675 C 550.138 -2.94921 1.70981 0
M  V30 5676 H 551.331 -1.40451 2.64978 0
M  V30 5677 H 548.884 -0.698645 1.39816 0
M  V30 5678 H 549.619 -3.15204 0.762675 0
M  V30 5679 H 549.404 -2.99541 2.53017 0
M  V30 5680 H 550.894 -3.73372 1.87037 0
M  V30 5681 N 551.331 -1.39911 -0.725443 0
M  V30 5682 C 552.577 -1.37858 -1.48738 0
M  V30 5683 C 552.91 0.0224187 -1.94187 0
M  V30 5684 O 552.185 0.989204 -1.67466 0
M  V30 5685 C 552.468 -2.3594 -2.72038 0
M  V30 5686 C 552.321 -3.85023 -2.32546 0
M  V30 5687 C 553.64 -2.31704 -3.74167 0
M  V30 5688 H 550.759 -0.502074 -0.539528 0
M  V30 5689 H 553.401 -1.70974 -0.828728 0
M  V30 5690 H 551.551 -2.0783 -3.28236 0
M  V30 5691 H 553.223 -4.2392 -1.81905 0
M  V30 5692 H 551.466 -4.01334 -1.64661 0
M  V30 5693 H 552.137 -4.49152 -3.20884 0
M  V30 5694 H 554.613 -2.5658 -3.27576 0
M  V30 5695 H 553.489 -3.02395 -4.58092 0
M  V30 5696 H 553.75 -1.3253 -4.21768 0
M  V30 5697 N 552.809 0.956637 -1.25245 0
M  V30 5698 C 553.719 2.0868 -1.0719 0
M  V30 5699 C 554.735 1.73997 -0.00959074 0
M  V30 5700 O 555.911 2.00301 -0.210104 0
M  V30 5701 C 552.976 3.39754 -0.690526 0
M  V30 5702 C 552.037 3.88316 -1.83055 0
M  V30 5703 C 551.27 5.13134 -1.46728 0
M  V30 5704 O 551.493 5.6925 -0.362029 0
M  V30 5705 O 550.427 5.56356 -2.29677 0
M  V30 5706 H 554.253 2.26813 -2.01965 0
M  V30 5707 H 551.838 1.07098 -1.04165 0
M  V30 5708 H 553.72 4.18543 -0.489871 0
M  V30 5709 H 552.395 3.22896 0.227981 0
M  V30 5710 H 551.302 3.1054 -2.08604 0
M  V30 5711 H 552.635 4.09669 -2.72822 0
M  V30 5712 N 554.287 1.06798 1.15896 0
M  V30 5713 C 555.533 0.798757 1.8706 0
M  V30 5714 C 555.888 -0.667739 1.80441 0
M  V30 5715 O 555.181 -1.48334 1.21274 0
M  V30 5716 C 555.375 1.23414 3.35416 0
M  V30 5717 C 555.204 2.74142 3.56478 0
M  V30 5718 C 553.974 3.41675 3.72272 0
M  V30 5719 C 556.172 3.72348 3.5477 0
M  V30 5720 N 554.154 4.81101 3.81333 0
M  V30 5721 C 555.525 4.97585 3.69877 0
M  V30 5722 C 557.58 3.65585 3.38011 0
M  V30 5723 C 556.283 6.16866 3.69959 0
M  V30 5724 C 558.309 4.84323 3.39389 0
M  V30 5725 C 557.671 6.08391 3.5502 0
M  V30 5726 H 553.77 0.344761 0.7019 0
M  V30 5727 H 556.354 1.36314 1.3902 0
M  V30 5728 H 554.525 0.697522 3.82085 0
M  V30 5729 H 556.257 0.91304 3.94266 0
M  V30 5730 H 553.012 2.92078 3.7281 0
M  V30 5731 H 553.436 5.53647 3.8962 0
M  V30 5732 H 558.078 2.70615 3.2485 0
M  V30 5733 H 555.796 7.12164 3.819 0
M  V30 5734 H 559.382 4.80762 3.27658 0
M  V30 5735 H 558.262 6.98731 3.56012 0
M  V30 5736 N 555.766 -1.3263 0.851289 0
M  V30 5737 C 556.676 -2.32722 0.296268 0
M  V30 5738 C 557.692 -1.63901 -0.584162 0
M  V30 5739 O 558.868 -1.95465 -0.485334 0
M  V30 5740 C 555.933 -3.42942 -0.509103 0
M  V30 5741 C 554.994 -4.2746 0.397069 0
M  V30 5742 C 554.227 -5.32416 -0.36996 0
M  V30 5743 O 554.45 -5.47491 -1.6003 0
M  V30 5744 O 553.384 -6.01327 0.262493 0
M  V30 5745 H 557.21 -2.82078 1.12543 0
M  V30 5746 H 554.795 -1.36194 0.614135 0
M  V30 5747 H 556.677 -4.1017 -0.96634 0
M  V30 5748 H 555.352 -2.95781 -1.31512 0
M  V30 5749 H 554.259 -3.63053 0.902411 0
M  V30 5750 H 555.592 -4.78136 1.16818 0
M  V30 5751 N 557.244 -0.608902 -1.45362 0
M  V30 5752 C 558.469 -0.10921 -2.07112 0
M  V30 5753 C 558.894 1.19779 -1.45033 0
M  V30 5754 O 558.252 1.72961 -0.543527 0
M  V30 5755 C 558.3 0.0155745 -3.60597 0
M  V30 5756 O 557.404 1.06546 -3.98399 0
M  V30 5757 H 556.745 -0.0746619 -0.659789 0
M  V30 5758 H 559.275 -0.839283 -1.86594 0
M  V30 5759 H 559.285 0.213364 -4.07442 0
M  V30 5760 H 557.96 -0.938765 -4.05167 0
M  V30 5761 H 556.537 0.844024 -3.63223 0
M  V30 5762 N 558.722 1.53707 -0.348139 0
M  V30 5763 C 559.67 2.26671 0.521808 0
M  V30 5764 C 560.664 1.28988 1.09811 0
M  V30 5765 O 561.87 1.4668 1.04332 0
M  V30 5766 H 558.245 0.728387 0.186968 0
M  V30 5767 H 560.216 2.98176 -0.115563 0
M  V30 5768 C 558.965 3.05591 1.6586 0
M  V30 5769 H 558.288 3.80589 1.22443 0
M  V30 5770 H 559.728 3.59851 2.24239 0
M  V30 5771 C 558.187 2.15366 2.59073 0
M  V30 5772 O 558.717 1.7528 3.61441 0
M  V30 5773 N 556.923 1.80352 2.27863 0
M  V30 5774 H 556.47 2.13149 1.44656 0
M  V30 5775 H 556.428 1.20268 2.90488 0
M  V30 5776 N 560.2 0.0768682 1.57412 0
M  V30 5777 C 561.448 -0.589918 1.93299 0
M  V30 5778 C 561.769 -1.69842 0.958049 0
M  V30 5779 O 561.039 -1.95899 0.00703261 0
M  V30 5780 H 559.619 -0.220901 0.713591 0
M  V30 5781 H 562.281 0.135917 1.94425 0
M  V30 5782 H 561.377 -1.01195 2.95239 0
M  V30 5783 N 561.678 -1.56367 -0.196722 0
M  V30 5784 C 562.61 -1.90941 -1.26784 0
M  V30 5785 C 563.623 -0.799928 -1.41792 0
M  V30 5786 O 564.812 -1.07833 -1.42247 0
M  V30 5787 C 561.912 -2.12477 -2.6402 0
M  V30 5788 C 561.085 -3.43616 -2.70641 0
M  V30 5789 C 560.144 -3.54284 -3.89062 0
M  V30 5790 O 559.17 -4.2712 -3.76241 0
M  V30 5791 N 560.372 -2.87252 -5.04447 0
M  V30 5792 H 563.137 -2.83417 -0.974417 0
M  V30 5793 H 560.698 -1.57215 -0.386649 0
M  V30 5794 H 562.69 -2.16904 -3.41665 0
M  V30 5795 H 561.26 -1.26508 -2.85857 0
M  V30 5796 H 560.48 -3.51072 -1.79283 0
M  V30 5797 H 561.768 -4.29958 -2.72054 0
M  V30 5798 H 561.166 -2.27901 -5.17762 0
M  V30 5799 H 559.723 -2.97308 -5.80044 0
M  V30 5800 N 563.156 0.464375 -1.50603 0
M  V30 5801 C 564.567 1.04507 -1.5471 0
M  V30 5802 C 564.918 1.9297 -0.354542 0
M  V30 5803 O 564.043 2.09763 0.531812 0
M  V30 5804 C 564.638 1.90207 -2.80369 0
M  V30 5805 C 563.197 2.43373 -2.87135 0
M  V30 5806 C 562.344 1.21886 -2.49076 0
M  V30 5807 H 565.295 0.246716 -1.56771 0
M  V30 5808 H 565.316 2.75353 -2.62604 0
M  V30 5809 H 564.828 1.25796 -3.67147 0
M  V30 5810 H 562.929 3.11318 -2.04724 0
M  V30 5811 H 563.042 2.7802 -3.90181 0
M  V30 5812 H 561.406 1.55575 -2.01664 0
M  V30 5813 H 562.189 0.591268 -3.3817 0
M  V30 5814 N 564.634 1.40294 0.718013 0
M  V30 5815 C 565.544 1.42678 1.86226 0
M  V30 5816 C 566.56 0.319655 1.71039 0
M  V30 5817 O 567.736 0.563852 1.93346 0
M  V30 5818 C 564.801 1.2852 3.21999 0
M  V30 5819 C 563.862 2.49354 3.49458 0
M  V30 5820 C 563.095 2.35863 4.78753 0
M  V30 5821 O 563.318 1.37114 5.53675 0
M  V30 5822 O 562.252 3.25189 5.06494 0
M  V30 5823 H 566.078 2.39167 1.87171 0
M  V30 5824 H 563.663 1.2159 0.868112 0
M  V30 5825 H 565.545 1.22824 4.03103 0
M  V30 5826 H 564.22 0.351359 3.21787 0
M  V30 5827 H 563.127 2.60628 2.68373 0
M  V30 5828 H 564.46 3.41491 3.54464 0
M  V30 5829 N 566.112 -0.949982 1.2575 0
M  V30 5830 C 567.06 -2.06869 1.06339 0
M  V30 5831 C 568.054 -1.69399 -0.00708901 0
M  V30 5832 O 569.26 -1.79383 0.148897 0
M  V30 5833 H 565.635 -0.677197 0.326969 0
M  V30 5834 H 567.606 -2.20396 2.01167 0
M  V30 5835 C 566.355 -3.40503 0.703769 0
M  V30 5836 H 565.678 -3.69807 1.51931 0
M  V30 5837 H 567.118 -4.19623 0.607677 0
M  V30 5838 C 565.577 -3.31685 -0.5905 0
M  V30 5839 O 566.107 -3.67085 -1.63131 0
M  V30 5840 N 564.313 -2.84797 -0.577859 0
M  V30 5841 H 563.86 -2.56186 0.26951 0
M  V30 5842 H 563.818 -2.79279 -1.44398 0
M  V30 5843 N 567.59 -1.07411 -1.15328 0
M  V30 5844 C 568.538 -0.689316 -2.22151 0
M  V30 5845 C 569.532 0.300156 -1.6672 0
M  V30 5846 O 570.738 0.163804 -1.79253 0
M  V30 5847 H 567.113 -0.204834 -0.723566 0
M  V30 5848 H 569.084 -1.59988 -2.51886 0
M  V30 5849 C 567.833 -0.103848 -3.47545 0
M  V30 5850 H 567.156 -0.856367 -3.90521 0
M  V30 5851 H 568.596 0.127725 -4.23808 0
M  V30 5852 C 567.055 1.15563 -3.1646 0
M  V30 5853 O 567.585 2.242 -3.33312 0
M  V30 5854 N 565.791 1.06203 -2.70498 0
M  V30 5855 H 565.338 0.177933 -2.56985 0
M  V30 5856 H 565.296 1.90553 -2.50074 0
M  V30 5857 N 569.068 1.32177 -0.85831 0
M  V30 5858 C 570.298 2.01021 -0.476889 0
M  V30 5859 C 570.706 1.64653 0.931995 0
M  V30 5860 O 570.049 0.865713 1.62022 0
M  V30 5861 C 570.111 3.55413 -0.540528 0
M  V30 5862 C 569.775 4.1522 -1.90895 0
M  V30 5863 C 570.772 4.3318 -2.87491 0
M  V30 5864 C 568.457 4.51212 -2.20709 0
M  V30 5865 C 570.451 4.86306 -4.1205 0
M  V30 5866 C 568.138 5.04042 -3.45521 0
M  V30 5867 C 569.136 5.21538 -4.41007 0
M  V30 5868 O 568.824 5.73238 -5.63608 0
M  V30 5869 H 568.556 0.650059 -0.18547 0
M  V30 5870 H 571.11 1.69648 -1.15796 0
M  V30 5871 H 569.34 3.86196 0.19741 0
M  V30 5872 H 571.029 4.05526 -0.174191 0
M  V30 5873 H 571.795 4.05704 -2.65762 0
M  V30 5874 H 567.674 4.36878 -1.4717 0
M  V30 5875 H 571.218 4.99877 -4.86589 0
M  V30 5876 H 567.115 5.30952 -3.67098 0
M  V30 5877 H 567.883 5.91625 -5.65617 0
M  V30 5878 N 570.547 0.616602 1.45037 0
M  V30 5879 C 571.494 -0.0969439 2.30596 0
M  V30 5880 C 572.464 -0.851151 1.42635 0
M  V30 5881 O 573.649 -0.835092 1.71554 0
M  V30 5882 C 570.789 -1.08234 3.27688 0
M  V30 5883 C 569.902 -0.328072 4.30752 0
M  V30 5884 C 569.037 -1.30399 5.14946 0
M  V30 5885 C 568.076 -0.538049 6.09731 0
M  V30 5886 N 567.213 -1.46371 6.86673 0
M  V30 5887 H 572.053 0.63864 2.91076 0
M  V30 5888 H 569.59 0.326733 1.43425 0
M  V30 5889 H 571.548 -1.66688 3.82454 0
M  V30 5890 H 570.178 -1.78523 2.68941 0
M  V30 5891 H 569.23 0.372136 3.78575 0
M  V30 5892 H 570.542 0.269142 4.98073 0
M  V30 5893 H 569.696 -1.96032 5.74157 0
M  V30 5894 H 568.435 -1.93514 4.47665 0
M  V30 5895 H 567.44 0.131852 5.49642 0
M  V30 5896 H 568.665 0.0881732 6.79043 0
M  V30 5897 H 566.611 -2.08233 6.22073 0
M  V30 5898 H 566.528 -0.920152 7.50379 0
M  V30 5899 H 567.796 -2.10932 7.50418 0
M  V30 5900 N 572.025 -1.5352 0.356285 0
M  V30 5901 C 573.253 -2.05534 -0.237328 0
M  V30 5902 C 573.668 -1.23043 -1.43199 0
M  V30 5903 O 573.025 -0.268821 -1.80509 0
M  V30 5904 C 573.076 -3.55791 -0.639933 0
M  V30 5905 O 572.797 -4.35154 0.507233 0
M  V30 5906 C 574.298 -4.24027 -1.29292 0
M  V30 5907 H 571.518 -0.669585 -0.0435572 0
M  V30 5908 H 574.062 -1.97988 0.511963 0
M  V30 5909 H 572.217 -3.63518 -1.33915 0
M  V30 5910 H 572.631 -5.24178 0.18375 0
M  V30 5911 H 574.105 -5.30509 -1.52527 0
M  V30 5912 H 574.582 -3.77166 -2.25039 0
M  V30 5913 H 575.188 -4.20527 -0.63539 0
M  V30 5914 N 573.503 -0.0852151 -1.57369 0
M  V30 5915 C 574.731 0.58946 -1.98325 0
M  V30 5916 C 575.146 1.62333 -0.96403 0
M  V30 5917 O 574.503 1.82438 0.0476395 0
M  V30 5918 C 574.554 1.24604 -3.39347 0
M  V30 5919 O 574.275 0.253532 -4.37366 0
M  V30 5920 C 575.776 2.00726 -3.95252 0
M  V30 5921 H 572.996 0.158783 -0.651942 0
M  V30 5922 H 575.54 -0.161584 -2.03861 0
M  V30 5923 H 573.695 1.94808 -3.34856 0
M  V30 5924 H 574.109 0.726207 -5.19448 0
M  V30 5925 H 575.583 2.42039 -4.96106 0
M  V30 5926 H 576.06 2.86919 -3.32527 0
M  V30 5927 H 576.666 1.3536 -4.03185 0
M  V30 5928 N 574.981 1.5647 0.188427 0
M  V30 5929 C 576.392 1.70864 0.752494 0
M  V30 5930 C 576.743 0.692905 1.83557 0
M  V30 5931 O 575.868 -0.149307 2.15884 0
M  V30 5932 C 576.463 3.09789 1.37173 0
M  V30 5933 C 575.022 3.25925 1.88281 0
M  V30 5934 C 574.169 2.66817 0.755259 0
M  V30 5935 H 577.12 1.58657 -0.0367408 0
M  V30 5936 H 577.141 3.07489 2.24122 0
M  V30 5937 H 576.653 3.83693 0.583219 0
M  V30 5938 H 574.754 2.56948 2.6983 0
M  V30 5939 H 574.867 4.33498 2.04001 0
M  V30 5940 H 573.231 2.2617 1.17128 0
M  V30 5941 H 574.014 3.43294 -0.0211237 0
M  V30 5942 N 576.459 -0.456382 1.50847 0
M  V30 5943 C 577.87 -1.03685 1.55262 0
M  V30 5944 C 578.221 -1.92779 0.364771 0
M  V30 5945 O 577.346 -2.10043 -0.52068 0
M  V30 5946 C 577.941 -1.88718 2.81374 0
M  V30 5947 C 576.5 -2.41847 2.88422 0
M  V30 5948 C 575.647 -1.20564 2.49719 0
M  V30 5949 H 578.598 -0.238399 1.56899 0
M  V30 5950 H 578.619 -2.73957 2.6406 0
M  V30 5951 H 578.131 -1.23847 3.67809 0
M  V30 5952 H 576.232 -3.10228 2.06372 0
M  V30 5953 H 576.345 -2.75947 3.9165 0
M  V30 5954 H 574.709 -1.54504 2.02486 0
M  V30 5955 H 575.492 -0.573326 3.38479 0
M  V30 5956 N 577.937 -1.40673 -0.710563 0
M  V30 5957 C 579.183 -1.39428 -1.47267 0
M  V30 5958 C 579.516 0.00182129 -1.942 0
M  V30 5959 O 578.791 0.971387 -1.68506 0
M  V30 5960 C 579.074 -2.38812 -2.6952 0
M  V30 5961 C 578.927 -3.87467 -2.28449 0
M  V30 5962 C 580.246 -2.3566 -3.71689 0
M  V30 5963 H 577.365 -0.507768 -0.534173 0
M  V30 5964 H 580.007 -1.71843 -0.810547 0
M  V30 5965 H 578.157 -2.113 -3.26013 0
M  V30 5966 H 579.829 -4.25825 -1.77399 0
M  V30 5967 H 578.072 -4.03058 -1.60395 0
M  V30 5968 H 578.743 -4.5253 -3.16103 0
M  V30 5969 H 581.219 -2.6004 -3.24836 0
M  V30 5970 H 580.095 -3.07237 -4.54859 0
M  V30 5971 H 580.356 -1.36996 -4.20339 0
M  V30 5972 N 579.415 0.9433 -1.26252 0
M  V30 5973 C 580.345 2.05902 -1.10122 0
M  V30 5974 C 581.326 1.70099 -0.00700552 0
M  V30 5975 O 582.511 1.93377 -0.178641 0
M  V30 5976 C 579.641 3.39516 -0.731175 0
M  V30 5977 C 578.595 3.89372 -1.77688 0
M  V30 5978 C 577.921 5.19613 -1.26122 0
M  V30 5979 C 579.221 4.14489 -3.17799 0
M  V30 5980 H 580.915 2.19655 -2.03451 0
M  V30 5981 H 578.461 1.05548 -0.979576 0
M  V30 5982 H 580.414 4.17031 -0.605215 0
M  V30 5983 H 579.138 3.25733 0.23782 0
M  V30 5984 H 577.797 3.14036 -1.89148 0
M  V30 5985 H 577.445 5.02208 -0.282128 0
M  V30 5986 H 577.145 5.53939 -1.96023 0
M  V30 5987 H 578.669 5.99713 -1.14789 0
M  V30 5988 H 580.083 4.82625 -3.09428 0
M  V30 5989 H 578.48 4.60094 -3.85271 0
M  V30 5990 H 579.55 3.20347 -3.64014 0
M  V30 5991 N 580.893 1.08022 1.14757 0
M  V30 5992 C 582.17 0.720386 1.81851 0
M  V30 5993 C 582.55 -0.796375 1.95502 0
M  V30 5994 O 581.898 -1.71339 1.51179 0
M  V30 5995 C 582.108 1.44273 3.17783 0
M  V30 5996 C 583.456 1.59925 3.93331 0
M  V30 5997 O 584.48 1.40407 3.2736 0
M  V30 5998 O 583.339 1.92096 5.11626 0
M  V30 5999 H 580.433 0.257142 0.786007 0
M  V30 6000 H 582.979 1.18155 1.21809 0
M  V30 6001 H 581.751 2.47618 3.02987 0
M  V30 6002 H 581.374 0.97279 3.85516 0
M  V30 6003 N 582.371 -1.3172 0.865308 0
M  V30 6004 C 583.596 -2.01591 0.487415 0
M  V30 6005 C 584.021 -1.6455 -0.911307 0
M  V30 6006 O 583.379 -0.851689 -1.6005 0
M  V30 6007 C 583.427 -3.54759 0.646401 0
M  V30 6008 O 582.531 -4.11185 -0.316284 0
M  V30 6009 H 581.872 -0.634884 0.194468 0
M  V30 6010 H 584.402 -1.68024 1.16744 0
M  V30 6011 H 584.412 -4.04438 0.537932 0
M  V30 6012 H 583.087 -3.8106 1.66632 0
M  V30 6013 H 581.664 -3.72543 -0.163162 0
M  V30 6014 N 583.85 -0.624285 -1.44708 0
M  V30 6015 C 585.127 -0.0572781 -1.95516 0
M  V30 6016 C 585.507 1.41516 -1.56641 0
M  V30 6017 O 584.855 2.12614 -0.837111 0
M  V30 6018 C 585.065 -0.272944 -3.47931 0
M  V30 6019 C 586.413 -0.162529 -4.24289 0
M  V30 6020 O 587.437 -0.203946 -3.55616 0
M  V30 6021 O 586.296 -0.0616847 -5.46465 0
M  V30 6022 H 583.389 0.0262219 -0.826584 0
M  V30 6023 H 585.936 -0.695512 -1.54793 0
M  V30 6024 H 584.707 -1.29492 -3.69253 0
M  V30 6025 H 584.331 0.399756 -3.95585 0
M  V30 6026 N 585.328 1.53329 -0.364422 0
M  V30 6027 C 586.576 2.00842 0.225189 0
M  V30 6028 C 586.897 1.25345 1.49378 0
M  V30 6029 O 586.167 0.366396 1.92443 0
M  V30 6030 H 584.747 0.742009 0.0862027 0
M  V30 6031 H 587.409 1.8863 -0.490389 0
M  V30 6032 H 586.505 3.08795 0.452987 0
M  V30 6033 N 586.806 0.0935595 1.57322 0
M  V30 6034 C 588.031 -0.582324 1.99057 0
M  V30 6035 C 588.456 -1.61025 0.972242 0
M  V30 6036 O 587.814 -1.81202 -0.0594622 0
M  V30 6037 C 587.862 -1.20799 3.39765 0
M  V30 6038 O 586.966 -2.32382 3.40694 0
M  V30 6039 H 586.307 -0.147884 0.647323 0
M  V30 6040 H 588.837 0.174516 2.03854 0
M  V30 6041 H 588.847 -1.54966 3.77425 0
M  V30 6042 H 587.522 -0.454914 4.13405 0
M  V30 6043 H 586.099 -1.99845 3.14827 0
M  V30 6044 N 588.284 -1.56567 -0.180126 0
M  V30 6045 C 589.531 -1.81492 -0.898167 0
M  V30 6046 C 589.859 -0.669225 -1.82624 0
M  V30 6047 O 589.114 0.344096 -1.92651 0
M  V30 6048 C 589.413 -3.1252 -1.73395 0
M  V30 6049 C 589.079 -4.40658 -0.955567 0
M  V30 6050 C 587.741 -4.75465 -0.740707 0
M  V30 6051 C 590.093 -5.19593 -0.408948 0
M  V30 6052 C 587.421 -5.86691 0.0320128 0
M  V30 6053 C 589.773 -6.31627 0.350638 0
M  V30 6054 C 588.437 -6.65007 0.576378 0
M  V30 6055 H 587.707 -0.664125 -0.328662 0
M  V30 6056 H 590.354 -1.908 -0.163616 0
M  V30 6057 H 588.659 -2.98515 -2.53763 0
M  V30 6058 H 590.356 -3.29013 -2.29241 0
M  V30 6059 H 586.946 -4.13352 -1.13306 0
M  V30 6060 H 591.13 -4.93104 -0.562307 0
M  V30 6061 H 586.386 -6.11016 0.216735 0
M  V30 6062 H 590.56 -6.92001 0.781497 0
M  V30 6063 H 588.187 -7.51033 1.17703 0
M  V30 6064 N 589.762 0.448376 -1.51087 0
M  V30 6065 C 591.009 1.19872 -1.63209 0
M  V30 6066 C 591.337 1.91451 -0.343062 0
M  V30 6067 O 590.592 1.83789 0.672321 0
M  V30 6068 C 590.891 2.24866 -2.77795 0
M  V30 6069 C 590.557 1.70378 -4.17471 0
M  V30 6070 C 589.219 1.55241 -4.55471 0
M  V30 6071 C 591.571 1.30203 -5.04675 0
M  V30 6072 C 588.899 0.983844 -5.78392 0
M  V30 6073 C 591.251 0.747798 -6.28165 0
M  V30 6074 C 589.915 0.583233 -6.64947 0
M  V30 6075 H 589.185 0.438642 -0.597222 0
M  V30 6076 H 591.832 0.49136 -1.85089 0
M  V30 6077 H 590.137 3.01598 -2.50092 0
M  V30 6078 H 591.834 2.82723 -2.84374 0
M  V30 6079 H 588.424 1.83134 -3.87505 0
M  V30 6080 H 592.608 1.40723 -4.75932 0
M  V30 6081 H 587.864 0.844007 -6.05546 0
M  V30 6082 H 592.038 0.427927 -6.95084 0
M  V30 6083 H 589.665 0.140532 -7.6007 0
M  V30 6084 N 591.24 1.41047 0.703093 0
M  V30 6085 C 592.17 1.45067 1.82969 0
M  V30 6086 C 593.151 0.31016 1.67248 0
M  V30 6087 O 594.336 0.520548 1.87093 0
M  V30 6088 C 591.466 1.32478 3.2104 0
M  V30 6089 C 590.42 2.44262 3.51454 0
M  V30 6090 C 589.746 2.16742 4.88801 0
M  V30 6091 C 591.046 3.86606 3.51189 0
M  V30 6092 H 592.74 2.39353 1.79863 0
M  V30 6093 H 590.286 1.15206 0.863919 0
M  V30 6094 H 592.239 1.33904 3.99559 0
M  V30 6095 H 590.963 0.346735 3.24754 0
M  V30 6096 H 589.622 2.42107 2.75282 0
M  V30 6097 H 589.27 1.17299 4.89132 0
M  V30 6098 H 588.97 2.91643 5.10116 0
M  V30 6099 H 590.494 2.19872 5.69639 0
M  V30 6100 H 591.908 3.90517 4.19725 0
M  V30 6101 H 590.305 4.61128 3.84033 0
M  V30 6102 H 591.375 4.15296 2.50315 0
M  V30 6103 N 592.718 -0.936591 1.26751 0
M  V30 6104 C 593.948 -1.71509 1.15188 0
M  V30 6105 C 594.356 -1.86885 -0.295037 0
M  V30 6106 O 593.699 -1.37915 -1.21347 0
M  V30 6107 C 593.761 -3.13853 1.75318 0
M  V30 6108 C 593.425 -3.21845 3.24445 0
M  V30 6109 C 594.422 -3.04771 4.21201 0
M  V30 6110 C 592.107 -3.45088 3.64992 0
M  V30 6111 C 594.101 -3.10816 5.56482 0
M  V30 6112 C 591.788 -3.50767 5.00405 0
M  V30 6113 C 592.786 -3.33648 5.9596 0
M  V30 6114 O 592.474 -3.39045 7.28906 0
M  V30 6115 H 592.206 -0.543658 0.401761 0
M  V30 6116 H 594.76 -1.18234 1.67958 0
M  V30 6117 H 592.99 -3.6857 1.17016 0
M  V30 6118 H 594.679 -3.73634 1.58596 0
M  V30 6119 H 595.445 -2.86665 3.91214 0
M  V30 6120 H 591.324 -3.57467 2.91098 0
M  V30 6121 H 594.868 -2.97372 6.31043 0
M  V30 6122 H 590.765 -3.68396 5.30052 0
M  V30 6123 H 591.533 -3.55558 7.37238 0
M  V30 6124 N 594.196 -1.08629 -1.14182 0
M  V30 6125 C 595.421 -0.83902 -1.89671 0
M  V30 6126 C 595.846 0.603332 -1.78161 0
M  V30 6127 O 595.204 1.42301 -1.12339 0
M  V30 6128 C 595.252 -1.26854 -3.37551 0
M  V30 6129 O 594.356 -0.42188 -4.10236 0
M  V30 6130 H 593.697 -0.304545 -0.590041 0
M  V30 6131 H 596.227 -1.4483 -1.44518 0
M  V30 6132 H 596.237 -1.25038 -3.88368 0
M  V30 6133 H 594.912 -2.31901 -3.45246 0
M  V30 6134 H 593.489 -0.503654 -3.69483 0
M  V30 6135 N 595.674 1.31259 -0.872281 0
M  V30 6136 C 596.621 2.28459 -0.327857 0
M  V30 6137 C 597.591 1.55831 0.574957 0
M  V30 6138 O 598.776 1.83965 0.506101 0
M  V30 6139 C 595.916 3.41985 0.462644 0
M  V30 6140 C 595.029 4.29458 -0.467949 0
M  V30 6141 C 594.164 5.30131 0.336903 0
M  V30 6142 C 593.203 6.0925 -0.58997 0
M  V30 6143 N 592.34 7.01872 0.178775 0
M  V30 6144 H 597.18 2.74414 -1.16193 0
M  V30 6145 H 594.717 1.34994 -0.584376 0
M  V30 6146 H 596.675 4.06547 0.936759 0
M  V30 6147 H 595.305 2.97134 1.2614 0
M  V30 6148 H 594.357 3.65318 -1.06052 0
M  V30 6149 H 595.669 4.84677 -1.17856 0
M  V30 6150 H 594.823 6.0038 0.873427 0
M  V30 6151 H 593.562 4.75573 1.08079 0
M  V30 6152 H 592.567 5.37889 -1.13823 0
M  V30 6153 H 593.792 6.65894 -1.33275 0
M  V30 6154 H 591.738 6.49721 0.905435 0
M  V30 6155 H 591.655 7.54522 -0.472452 0
M  V30 6156 H 592.923 7.76382 0.696454 0
M  V30 6157 N 597.152 0.631951 1.44375 0
M  V30 6158 C 598.082 -0.0593243 2.33425 0
M  V30 6159 C 599.063 -0.833964 1.48253 0
M  V30 6160 O 600.248 -0.799682 1.76971 0
M  V30 6161 C 597.378 -1.04096 3.31333 0
M  V30 6162 C 596.332 -0.377899 4.26328 0
M  V30 6163 C 595.658 -1.4695 5.14111 0
M  V30 6164 C 596.958 0.716371 5.17364 0
M  V30 6165 H 598.652 0.684287 2.91475 0
M  V30 6166 H 596.198 0.330518 1.40156 0
M  V30 6167 H 598.151 -1.53331 3.92514 0
M  V30 6168 H 596.875 -1.81547 2.71493 0
M  V30 6169 H 595.534 0.0938054 3.6648 0
M  V30 6170 H 595.182 -2.2349 4.50623 0
M  V30 6171 H 594.882 -1.03121 5.78481 0
M  V30 6172 H 596.406 -1.96363 5.78164 0
M  V30 6173 H 597.82 0.307089 5.72477 0
M  V30 6174 H 596.217 1.07784 5.90341 0
M  V30 6175 H 597.287 1.58316 4.58327 0
M  V30 6176 N 598.631 -1.53133 0.372548 0
M  V30 6177 C 599.859 -2.05774 -0.215515 0
M  V30 6178 C 600.274 -1.24555 -1.41886 0
M  V30 6179 O 599.631 -0.287951 -1.80214 0
M  V30 6180 C 599.682 -3.5645 -0.602161 0
M  V30 6181 O 599.403 -4.34591 0.553359 0
M  V30 6182 C 600.904 -4.25374 -1.24787 0
M  V30 6183 H 598.124 -0.670009 -0.0364529 0
M  V30 6184 H 600.668 -1.97434 0.532934 0
M  V30 6185 H 598.823 -3.64918 -1.30052 0
M  V30 6186 H 599.237 -5.23954 0.239336 0
M  V30 6187 H 600.711 -5.32097 -1.46891 0
M  V30 6188 H 601.188 -3.79531 -2.21026 0
M  V30 6189 H 601.794 -4.21177 -0.590752 0
M  V30 6190 N 600.109 -0.101901 -1.5727 0
M  V30 6191 C 601.355 0.561027 -1.94885 0
M  V30 6192 C 601.688 1.6741 -0.984258 0
M  V30 6193 O 600.963 1.94491 -0.0184767 0
M  V30 6194 C 601.246 1.10982 -3.42571 0
M  V30 6195 C 601.099 0.00133418 -4.498 0
M  V30 6196 C 602.418 2.00608 -3.9172 0
M  V30 6197 H 599.537 0.202467 -0.708644 0
M  V30 6198 H 602.179 -0.173992 -1.89202 0
M  V30 6199 H 600.329 1.73621 -3.47546 0
M  V30 6200 H 602.001 -0.63322 -4.56933 0
M  V30 6201 H 600.244 -0.664143 -4.28686 0
M  V30 6202 H 600.915 0.426253 -5.50352 0
M  V30 6203 H 603.391 1.47864 -3.88941 0
M  V30 6204 H 602.267 2.3593 -4.95609 0
M  V30 6205 H 602.528 2.92608 -3.3141 0
M  V30 6206 N 601.587 1.56661 0.17182 0
M  V30 6207 C 602.864 1.72838 0.915778 0
M  V30 6208 C 603.244 0.66316 2.00413 0
M  V30 6209 O 602.592 -0.322123 2.26218 0
M  V30 6210 C 602.802 3.16019 1.48097 0
M  V30 6211 C 604.15 3.76962 1.95408 0
M  V30 6212 O 605.174 3.19294 1.57892 0
M  V30 6213 O 604.033 4.78219 2.64516 0
M  V30 6214 H 601.127 0.705797 0.431021 0
M  V30 6215 H 603.673 1.68947 0.159689 0
M  V30 6216 H 602.445 3.85031 0.697618 0
M  V30 6217 H 602.068 3.24234 2.30126 0
M  V30 6218 N 603.065 -0.440357 1.51323 0
M  V30 6219 C 604.012 -1.53429 1.72419 0
M  V30 6220 C 604.982 -1.56165 0.565826 0
M  V30 6221 O 606.167 -1.73222 0.799917 0
M  V30 6222 C 603.307 -2.91169 1.85242 0
M  V30 6223 C 602.42 -2.97985 3.12777 0
M  V30 6224 C 601.555 -4.26829 3.16212 0
M  V30 6225 C 600.594 -4.27501 4.38074 0
M  V30 6226 N 599.731 -5.47866 4.39076 0
M  V30 6227 H 604.571 -1.34743 2.65797 0
M  V30 6228 H 602.108 -0.654608 1.31732 0
M  V30 6229 H 604.066 -3.71087 1.90658 0
M  V30 6230 H 602.696 -3.0842 0.952744 0
M  V30 6231 H 601.748 -2.10749 3.16685 0
M  V30 6232 H 603.06 -2.94342 4.02696 0
M  V30 6233 H 602.214 -5.15118 3.20527 0
M  V30 6234 H 600.953 -4.33124 2.24176 0
M  V30 6235 H 599.958 -3.37606 4.33938 0
M  V30 6236 H 601.183 -4.22873 5.31371 0
M  V30 6237 H 599.129 -5.54887 3.49909 0
M  V30 6238 H 599.046 -5.46091 5.22801 0
M  V30 6239 H 600.314 -6.38195 4.4758 0
M  V30 6240 N 604.543 -1.41418 -0.695603 0
M  V30 6241 C 605.768 -1.44329 -1.48942 0
M  V30 6242 C 606.193 -0.0501579 -1.88033 0
M  V30 6243 O 605.551 0.946598 -1.54626 0
M  V30 6244 C 605.599 -2.3578 -2.72837 0
M  V30 6245 O 604.703 -1.81482 -3.70322 0
M  V30 6246 H 604.044 -0.489838 -0.44828 0
M  V30 6247 H 606.574 -1.85878 -0.855014 0
M  V30 6248 H 606.584 -2.51654 -3.21145 0
M  V30 6249 H 605.259 -3.37005 -2.43722 0
M  V30 6250 H 603.836 -1.75058 -3.29255 0
M  V30 6251 N 606.021 0.929856 -1.27246 0
M  V30 6252 C 607.437 1.20542 -1.04603 0
M  V30 6253 C 607.637 2.00276 0.221754 0
M  V30 6254 O 606.693 2.34835 0.927833 0
M  V30 6255 C 608.006 1.95566 -2.28417 0
M  V30 6256 C 609.554 2.08513 -2.33433 0
M  V30 6257 C 610.029 2.86943 -3.5697 0
M  V30 6258 N 611.52 2.94512 -3.57515 0
M  V30 6259 C 612.255 3.55656 -4.49774 0
M  V30 6260 N 611.751 4.18209 -5.52334 0
M  V30 6261 N 613.544 3.53038 -4.37402 0
M  V30 6262 H 605.695 0.397113 -2.08655 0
M  V30 6263 H 607.958 0.238277 -0.917566 0
M  V30 6264 H 607.664 1.44395 -3.20691 0
M  V30 6265 H 607.538 2.9619 -2.33563 0
M  V30 6266 H 609.925 2.58872 -1.41666 0
M  V30 6267 H 610.006 1.07117 -2.32292 0
M  V30 6268 H 609.65 2.37268 -4.49072 0
M  V30 6269 H 609.58 3.8862 -3.55362 0
M  V30 6270 H 612.071 2.50053 -2.83341 0
M  V30 6271 H 612.384 4.62796 -6.18902 0
M  V30 6272 H 610.729 4.16761 -5.56179 0
M  V30 6273 H 613.92 3.0337 -3.56489 0
M  V30 6274 H 614.093 4.004 -5.09493 0
M  V30 6275 N 607.499 1.09233 1.13605 0
M  V30 6276 C 608.745 0.838255 1.85324 0
M  V30 6277 C 609.1 -0.629314 1.81817 0
M  V30 6278 O 608.393 -1.45729 1.24393 0
M  V30 6279 C 608.587 1.305 3.32723 0
M  V30 6280 C 608.416 2.81641 3.50583 0
M  V30 6281 C 607.186 3.49494 3.64941 0
M  V30 6282 C 609.384 3.79789 3.46792 0
M  V30 6283 N 607.366 4.89082 3.71042 0
M  V30 6284 C 608.737 5.05319 3.59239 0
M  V30 6285 C 610.792 3.72673 3.30181 0
M  V30 6286 C 609.495 6.24574 3.56791 0
M  V30 6287 C 611.521 4.91413 3.29039 0
M  V30 6288 C 610.883 6.15785 3.42035 0
M  V30 6289 H 606.982 0.359572 0.69443 0
M  V30 6290 H 609.566 1.39232 1.36098 0
M  V30 6291 H 607.737 0.778411 3.8052 0
M  V30 6292 H 609.469 0.996465 3.92241 0
M  V30 6293 H 606.224 2.9992 3.66531 0
M  V30 6294 H 606.648 5.61787 3.77789 0
M  V30 6295 H 611.29 2.77444 3.19037 0
M  V30 6296 H 609.008 7.20105 3.66708 0
M  V30 6297 H 612.594 4.87604 3.17386 0
M  V30 6298 H 611.474 7.06126 3.41111 0
M  V30 6299 N 608.977 -1.30795 0.87923 0
M  V30 6300 C 609.909 -2.27241 0.299025 0
M  V30 6301 C 610.922 -1.53472 -0.543166 0
M  V30 6302 O 612.111 -1.74756 -0.363651 0
M  V30 6303 C 609.211 -3.33655 -0.593931 0
M  V30 6304 C 608.384 -4.36857 0.2179 0
M  V30 6305 C 607.443 -5.22715 -0.604646 0
M  V30 6306 O 606.469 -5.69192 -0.0293838 0
M  V30 6307 N 607.671 -5.48008 -1.91488 0
M  V30 6308 H 610.436 -2.77667 1.12788 0
M  V30 6309 H 607.997 -1.43914 0.741637 0
M  V30 6310 H 609.989 -3.88013 -1.15012 0
M  V30 6311 H 608.559 -2.83202 -1.32346 0
M  V30 6312 H 607.779 -3.82444 0.955536 0
M  V30 6313 H 609.067 -5.02869 0.774614 0
M  V30 6314 H 608.465 -5.1202 -2.40525 0
M  V30 6315 H 607.022 -6.05264 -2.41864 0
M  V30 6316 N 610.455 -0.639598 -1.44038 0
M  V30 6317 C 611.387 0.0987684 -2.28987 0
M  V30 6318 C 612.4 0.80058 -1.41755 0
M  V30 6319 O 613.589 0.660611 -1.65826 0
M  V30 6320 C 610.689 1.16242 -3.18341 0
M  V30 6321 C 609.862 0.541447 -4.34036 0
M  V30 6322 C 608.921 1.50017 -5.04362 0
M  V30 6323 O 607.947 1.01403 -5.60095 0
M  V30 6324 N 609.149 2.83441 -5.06598 0
M  V30 6325 H 611.914 -0.630305 -2.92997 0
M  V30 6326 H 609.475 -0.481376 -1.54578 0
M  V30 6327 H 611.467 1.80429 -3.62253 0
M  V30 6328 H 610.037 1.79362 -2.56024 0
M  V30 6329 H 609.257 -0.27923 -3.9321 0
M  V30 6330 H 610.545 0.107379 -5.08687 0
M  V30 6331 H 609.943 3.2551 -4.62666 0
M  V30 6332 H 608.5 3.42966 -5.54272 0
M  V30 6333 N 611.933 1.52934 -0.380664 0
M  V30 6334 C 613.181 2.01069 0.203874 0
M  V30 6335 C 613.502 1.26922 1.4804 0
M  V30 6336 O 612.772 0.386787 1.92044 0
M  V30 6337 H 611.352 0.742882 0.0783279 0
M  V30 6338 H 614.014 1.88099 -0.510368 0
M  V30 6339 H 613.11 3.09258 0.42021 0
M  V30 6340 N 613.412 0.11024 1.57214 0
M  V30 6341 C 614.36 -0.860586 2.16094 0
M  V30 6342 C 615.354 -1.28156 1.1078 0
M  V30 6343 O 616.56 -1.25433 1.29099 0
M  V30 6344 H 612.935 -0.295606 0.691463 0
M  V30 6345 H 614.906 -0.33942 2.96463 0
M  V30 6346 C 613.655 -2.10421 2.768 0
M  V30 6347 H 612.978 -1.7892 3.5753 0
M  V30 6348 H 614.418 -2.76375 3.21547 0
M  V30 6349 C 612.877 -2.88823 1.73444 0
M  V30 6350 O 613.407 -3.839 1.18251 0
M  V30 6351 N 611.613 -2.52649 1.43586 0
M  V30 6352 H 611.16 -1.754 1.8866 0
M  V30 6353 H 611.118 -3.05403 0.746735 0
M  V30 6354 N 614.89 -1.56749 -0.16351 0
M  V30 6355 C 616.136 -1.82704 -0.880168 0
M  V30 6356 C 616.469 -0.689311 -1.81555 0
M  V30 6357 O 615.744 0.308224 -1.92042 0
M  V30 6358 C 616.027 -3.19084 -1.66905 0
M  V30 6359 C 615.88 -4.43397 -0.756269 0
M  V30 6360 C 617.199 -3.52493 -2.63509 0
M  V30 6361 H 614.318 -0.664608 -0.318535 0
M  V30 6362 H 616.96 -1.89438 -0.146036 0
M  V30 6363 H 615.11 -3.13475 -2.2949 0
M  V30 6364 H 616.782 -4.61079 -0.14269 0
M  V30 6365 H 615.025 -4.33752 -0.0647944 0
M  V30 6366 H 615.696 -5.3539 -1.34393 0
M  V30 6367 H 618.172 -3.58606 -2.11047 0
M  V30 6368 H 617.048 -4.48979 -3.15767 0
M  V30 6369 H 617.309 -2.77597 -3.44082 0
M  V30 6370 N 616.368 0.432326 -1.51554 0
M  V30 6371 C 617.615 1.18134 -1.64471 0
M  V30 6372 C 617.943 1.91076 -0.363349 0
M  V30 6373 O 617.198 1.84492 0.65279 0
M  V30 6374 C 617.497 2.21907 -2.80164 0
M  V30 6375 C 617.163 1.65941 -4.19255 0
M  V30 6376 C 615.825 1.50401 -4.57092 0
M  V30 6377 C 618.177 1.24843 -5.06027 0
M  V30 6378 C 615.505 0.922443 -5.79403 0
M  V30 6379 C 617.857 0.68113 -6.28922 0
M  V30 6380 C 616.521 0.512673 -6.65528 0
M  V30 6381 H 615.791 0.432283 -0.601841 0
M  V30 6382 H 618.438 0.471701 -1.856 0
M  V30 6383 H 616.743 2.98928 -2.53277 0
M  V30 6384 H 618.44 2.79691 -2.87357 0
M  V30 6385 H 615.03 1.79014 -3.89425 0
M  V30 6386 H 619.214 1.35667 -4.77397 0
M  V30 6387 H 614.47 0.779733 -6.06408 0
M  V30 6388 H 618.644 0.35418 -6.95499 0
M  V30 6389 H 616.271 0.0599084 -7.60176 0
M  V30 6390 N 617.846 1.41785 0.688094 0
M  V30 6391 C 619.071 1.45117 1.48175 0
M  V30 6392 C 619.496 0.060129 1.88004 0
M  V30 6393 O 618.854 -0.938385 1.55126 0
M  V30 6394 C 618.902 2.37224 2.71583 0
M  V30 6395 O 618.006 1.83443 3.69354 0
M  V30 6396 H 617.347 0.492208 0.445676 0
M  V30 6397 H 619.877 1.86329 0.845145 0
M  V30 6398 H 619.887 2.53353 3.19806 0
M  V30 6399 H 618.562 3.38293 2.41931 0
M  V30 6400 H 617.139 1.76802 3.28322 0
M  V30 6401 N 619.324 -0.923095 1.27737 0
M  V30 6402 C 620.564 -1.6858 1.15586 0
M  V30 6403 C 620.928 -1.89758 -0.292562 0
M  V30 6404 O 622.129 -2.6339 -0.536583 0
M  V30 6405 C 620.4 -3.01275 1.92271 0
M  V30 6406 S 621.959 -3.924 1.96387 0
M  V30 6407 H 618.777 -0.579069 0.412554 0
M  V30 6408 H 621.379 -1.09866 1.61709 0
M  V30 6409 H 620.083 -2.83556 2.96689 0
M  V30 6410 H 619.614 -3.6504 1.46661 0
M  V30 6411 H 621.629 -4.84667 1.06361 0
M  V30 6412 N 620.802 -1.09834 -1.13024 0
M  V30 6413 C 622.027 -0.85909 -1.88771 0
M  V30 6414 C 622.452 0.584402 -1.78791 0
M  V30 6415 O 621.81 1.41101 -1.13842 0
M  V30 6416 C 621.858 -1.30427 -3.36186 0
M  V30 6417 O 620.962 -0.465368 -4.09766 0
M  V30 6418 H 620.303 -0.310786 -0.586778 0
M  V30 6419 H 622.833 -1.46355 -1.42973 0
M  V30 6420 H 622.843 -1.2915 -3.8702 0
M  V30 6421 H 621.518 -2.3555 -3.42767 0
M  V30 6422 H 620.095 -0.542814 -3.68928 0
M  V30 6423 N 622.28 1.30327 -0.886154 0
M  V30 6424 C 623.526 1.96388 -0.505941 0
M  V30 6425 C 623.859 1.69784 0.942712 0
M  V30 6426 O 623.134 1.00322 1.6663 0
M  V30 6427 C 623.417 3.51488 -0.782826 0
M  V30 6428 C 623.27 3.87603 -2.28219 0
M  V30 6429 C 624.589 4.39331 -0.260128 0
M  V30 6430 H 621.708 0.713327 -0.185292 0
M  V30 6431 H 624.35 1.54178 -1.11036 0
M  V30 6432 H 622.5 3.87572 -0.268399 0
M  V30 6433 H 624.172 3.61537 -2.86512 0
M  V30 6434 H 622.415 3.3563 -2.74837 0
M  V30 6435 H 623.086 4.95806 -2.42653 0
M  V30 6436 H 625.562 4.10162 -0.700444 0
M  V30 6437 H 624.438 5.46769 -0.483179 0
M  V30 6438 H 624.699 4.34072 0.838674 0
M  V30 6439 N 623.758 0.647228 1.43697 0
M  V30 6440 C 624.691 -0.097646 2.27991 0
M  V30 6441 C 625.669 -0.83571 1.3948 0
M  V30 6442 O 626.853 -0.836509 1.68922 0
M  V30 6443 C 623.98 -1.14484 3.18765 0
M  V30 6444 C 623.026 -0.505503 4.23494 0
M  V30 6445 S 623.859 0.716471 5.30685 0
M  V30 6446 C 625.015 -0.330339 6.25028 0
M  V30 6447 H 625.248 0.617417 2.90818 0
M  V30 6448 H 622.781 0.435881 1.4812 0
M  V30 6449 H 624.739 -1.74403 3.7161 0
M  V30 6450 H 623.4 -1.83219 2.55127 0
M  V30 6451 H 622.593 -1.29473 4.87086 0
M  V30 6452 H 622.195 0.0194377 3.73995 0
M  V30 6453 H 624.487 -1.19828 6.66819 0
M  V30 6454 H 625.43 0.270409 7.07583 0
M  V30 6455 H 625.838 -0.663459 5.60588 0
M  V30 6456 N 625.236 -1.5273 0.388769 0
M  V30 6457 C 626.186 -2.23238 -0.463567 0
M  V30 6458 C 627.17 -1.23606 -1.03007 0
M  V30 6459 O 628.362 -1.48945 -0.956261 0
M  V30 6460 C 625.491 -3.04228 -1.5906 0
M  V30 6461 C 624.577 -4.11255 -1.03587 0
M  V30 6462 N 624.968 -5.0538 -0.206038 0
M  V30 6463 C 623.266 -4.26376 -1.30841 0
M  V30 6464 C 623.967 -5.81613 0.100359 0
M  V30 6465 N 622.943 -5.41264 -0.503447 0
M  V30 6466 H 626.745 -2.93367 0.176978 0
M  V30 6467 H 624.259 -1.61188 0.198046 0
M  V30 6468 H 626.256 -3.53277 -2.21362 0
M  V30 6469 H 624.916 -2.35634 -2.23398 0
M  V30 6470 H 625.927 -5.17663 0.156659 0
M  V30 6471 H 622.604 -3.69011 -1.95287 0
M  V30 6472 H 623.994 -6.67442 0.772676 0
M  V30 6473 N 626.714 -0.118576 -1.57153 0
M  V30 6474 C 627.624 0.845484 -2.18835 0
M  V30 6475 C 628.64 1.29299 -1.16438 0
M  V30 6476 O 629.816 1.35607 -1.48905 0
M  V30 6477 C 626.881 2.07795 -2.77529 0
M  V30 6478 C 625.942 1.6824 -3.9496 0
M  V30 6479 C 625.175 2.85612 -4.50845 0
M  V30 6480 O 625.398 4.01025 -4.05629 0
M  V30 6481 O 624.332 2.62721 -5.41536 0
M  V30 6482 H 628.158 0.350568 -3.0167 0
M  V30 6483 H 625.743 0.107013 -1.49016 0
M  V30 6484 H 627.625 2.79978 -3.14945 0
M  V30 6485 H 626.3 2.56294 -1.97725 0
M  V30 6486 H 625.207 0.931663 -3.62313 0
M  V30 6487 H 626.54 1.24484 -4.76198 0
M  V30 6488 N 628.193 1.56834 0.155195 0
M  V30 6489 C 629.156 1.96748 1.17571 0
M  V30 6490 C 630.156 0.853006 1.3631 0
M  V30 6491 O 631.346 1.11978 1.33441 0
M  V30 6492 C 628.478 2.27631 2.53765 0
M  V30 6493 H 629.671 2.88085 0.833498 0
M  V30 6494 H 627.224 1.51141 0.398242 0
M  V30 6495 H 627.959 1.39059 2.92973 0
M  V30 6496 H 627.744 3.0888 2.41527 0
M  V30 6497 H 629.234 2.59377 3.27282 0
M  V30 6498 N 629.671 -0.424282 1.51781 0
M  V30 6499 C 630.601 -1.52305 1.7699 0
M  V30 6500 C 631.582 -1.5839 0.620209 0
M  V30 6501 O 632.767 -1.73908 0.864268 0
M  V30 6502 C 629.897 -2.90271 1.90683 0
M  V30 6503 C 628.851 -2.99043 3.06198 0
M  V30 6504 C 628.177 -4.39116 3.05092 0
M  V30 6505 C 629.477 -2.7192 4.45934 0
M  V30 6506 H 631.171 -1.31461 2.68995 0
M  V30 6507 H 628.717 -0.630985 1.29439 0
M  V30 6508 H 630.67 -3.6711 2.06901 0
M  V30 6509 H 629.394 -3.12376 0.953365 0
M  V30 6510 H 628.053 -2.24646 2.89706 0
M  V30 6511 H 627.701 -4.58207 2.07498 0
M  V30 6512 H 627.401 -4.45912 3.82669 0
M  V30 6513 H 628.925 -5.17911 3.2342 0
M  V30 6514 H 630.339 -3.38487 4.62709 0
M  V30 6515 H 628.736 -2.90111 5.25315 0
M  V30 6516 H 629.806 -1.67445 4.55072 0
M  V30 6517 N 631.149 -1.42148 -0.680565 0
M  V30 6518 C 632.099 -1.41634 -1.78672 0
M  V30 6519 C 633.083 -0.288494 -1.58293 0
M  V30 6520 O 634.275 -0.530295 -1.68869 0
M  V30 6521 C 631.404 -1.31558 -3.17092 0
M  V30 6522 C 630.49 -2.49265 -3.43115 0
M  V30 6523 N 630.881 -3.74702 -3.39753 0
M  V30 6524 C 629.179 -2.43401 -3.73727 0
M  V30 6525 C 629.88 -4.52854 -3.651 0
M  V30 6526 N 628.856 -3.83181 -3.85582 0
M  V30 6527 H 632.658 -2.3652 -1.74458 0
M  V30 6528 H 630.172 -1.36415 -0.881171 0
M  V30 6529 H 632.169 -1.29272 -3.96351 0
M  V30 6530 H 630.829 -0.376696 -3.22508 0
M  V30 6531 H 631.84 -4.07378 -3.19787 0
M  V30 6532 H 628.517 -1.58062 -3.86423 0
M  V30 6533 H 629.907 -5.61827 -3.6851 0
M  V30 6534 N 632.627 0.916307 -1.28225 0
M  V30 6535 C 633.575 2.03977 -1.11786 0
M  V30 6536 C 634.569 1.69358 -0.0378265 0
M  V30 6537 O 635.775 1.78925 -0.196405 0
M  V30 6538 H 632.15 0.66829 -0.344809 0
M  V30 6539 H 634.121 2.14985 -2.06939 0
M  V30 6540 C 632.87 3.38518 -0.7938 0
M  V30 6541 H 632.193 3.65649 -1.61682 0
M  V30 6542 H 633.633 4.17864 -0.718719 0
M  V30 6543 C 632.092 3.33134 0.502353 0
M  V30 6544 O 632.622 3.71281 1.53341 0
M  V30 6545 N 630.828 2.86229 0.502147 0
M  V30 6546 H 630.375 2.55382 -0.337338 0
M  V30 6547 H 630.333 2.83009 1.36942 0
M  V30 6548 N 634.105 1.10431 1.1244 0
M  V30 6549 C 635.055 0.722378 2.16254 0
M  V30 6550 C 636.039 -0.268427 1.58645 0
M  V30 6551 O 637.231 -0.077169 1.76832 0
M  V30 6552 C 634.36 0.155763 3.42946 0
M  V30 6553 C 633.446 1.17361 4.07538 0
M  V30 6554 N 633.837 2.36429 4.47141 0
M  V30 6555 C 632.135 1.01412 4.34317 0
M  V30 6556 C 632.836 3.01259 4.97612 0
M  V30 6557 N 631.812 2.28777 4.93115 0
M  V30 6558 H 635.614 1.62876 2.4464 0
M  V30 6559 H 633.128 0.982031 1.29344 0
M  V30 6560 H 635.125 -0.135936 4.16678 0
M  V30 6561 H 633.785 -0.745339 3.1603 0
M  V30 6562 H 634.796 2.73954 4.39511 0
M  V30 6563 H 631.473 0.168574 4.1716 0
M  V30 6564 H 632.863 4.02541 5.37968 0
M  V30 6565 N 635.583 -1.29855 0.893053 0
M  V30 6566 C 636.813 -1.99686 0.530019 0
M  V30 6567 C 637.221 -1.67066 -0.888012 0
M  V30 6568 O 636.564 -0.908366 -1.5967 0
M  V30 6569 C 636.626 -3.53855 0.63457 0
M  V30 6570 C 636.29 -4.10013 2.01837 0
M  V30 6571 C 637.287 -4.25406 2.98874 0
M  V30 6572 C 634.972 -4.45202 2.32595 0
M  V30 6573 C 636.966 -4.7521 4.24799 0
M  V30 6574 C 634.653 -4.94704 3.58763 0
M  V30 6575 C 635.651 -5.09662 4.5468 0
M  V30 6576 O 635.339 -5.58093 5.78608 0
M  V30 6577 H 635.071 -0.644913 0.20264 0
M  V30 6578 H 637.625 -1.66518 1.20253 0
M  V30 6579 H 635.855 -3.86583 -0.0949477 0
M  V30 6580 H 637.544 -4.04922 0.281648 0
M  V30 6581 H 638.31 -3.98515 2.76425 0
M  V30 6582 H 634.189 -4.32822 1.58701 0
M  V30 6583 H 637.733 -4.86801 4.99671 0
M  V30 6584 H 633.63 -5.21032 3.81046 0
M  V30 6585 H 634.398 -5.7642 5.81104 0
M  V30 6586 N 637.061 -0.65484 -1.43351 0
M  V30 6587 C 638.289 -0.176685 -2.06144 0
M  V30 6588 C 638.704 1.15831 -1.49093 0
M  V30 6589 O 638.061 1.71542 -0.622868 0
M  V30 6590 C 638.112 -0.0813326 -3.61408 0
M  V30 6591 O 637.833 -1.36355 -4.1634 0
M  V30 6592 C 639.334 0.422706 -4.4128 0
M  V30 6593 H 636.554 -0.0906429 -0.66485 0
M  V30 6594 H 639.098 -0.895945 -1.83829 0
M  V30 6595 H 637.253 0.588496 -3.82904 0
M  V30 6596 H 637.667 -1.22381 -5.10023 0
M  V30 6597 H 639.141 0.438375 -5.50257 0
M  V30 6598 H 639.618 1.45432 -4.14423 0
M  V30 6599 H 640.224 -0.214687 -4.24758 0
M  V30 6600 N 638.539 1.52521 -0.396863 0
M  V30 6601 C 639.471 2.24333 0.469814 0
M  V30 6602 C 640.484 1.2685 1.02043 0
M  V30 6603 O 641.673 1.52876 0.92147 0
M  V30 6604 C 638.773 2.95202 1.66461 0
M  V30 6605 C 637.946 4.19454 1.24003 0
M  V30 6606 C 637.005 4.73255 2.30036 0
M  V30 6607 O 636.031 5.36151 1.91131 0
M  V30 6608 N 637.233 4.53765 3.62047 0
M  V30 6609 H 639.998 2.99347 -0.145468 0
M  V30 6610 H 637.559 1.60348 -0.223606 0
M  V30 6611 H 639.551 3.28092 2.36934 0
M  V30 6612 H 638.121 2.2345 2.18607 0
M  V30 6613 H 637.341 3.92517 0.363892 0
M  V30 6614 H 638.629 5.0017 0.933135 0
M  V30 6615 H 638.027 4.03576 3.96412 0
M  V30 6616 H 636.584 4.91124 4.28533 0
M  V30 6617 N 640.017 0.126909 1.57088 0
M  V30 6618 C 640.964 -0.82036 2.15728 0
M  V30 6619 C 641.934 -1.25811 1.08447 0
M  V30 6620 O 643.119 -1.33422 1.36393 0
M  V30 6621 C 640.259 -2.06199 2.76724 0
M  V30 6622 C 639.372 -1.67188 3.98337 0
M  V30 6623 C 638.507 -2.86378 4.47393 0
M  V30 6624 C 637.546 -2.43644 5.61519 0
M  V30 6625 N 636.683 -3.55775 6.05284 0
M  V30 6626 H 641.523 -0.313472 2.96347 0
M  V30 6627 H 639.06 -0.14303 1.46403 0
M  V30 6628 H 641.018 -2.78959 3.10222 0
M  V30 6629 H 639.648 -2.54333 1.98782 0
M  V30 6630 H 638.7 -0.842714 3.70948 0
M  V30 6631 H 640.012 -1.31789 4.81075 0
M  V30 6632 H 639.166 -3.67353 4.82842 0
M  V30 6633 H 637.905 -3.25009 3.63621 0
M  V30 6634 H 636.91 -1.61104 5.25667 0
M  V30 6635 H 638.135 -2.06122 6.47063 0
M  V30 6636 H 636.081 -3.94065 5.24451 0
M  V30 6637 H 635.998 -3.24325 6.82898 0
M  V30 6638 H 637.266 -4.37166 6.45373 0
M  V30 6639 N 641.495 -1.56914 -0.146875 0
M  V30 6640 C 642.72 -1.87881 -0.878386 0
M  V30 6641 C 643.145 -0.715945 -1.73942 0
M  V30 6642 O 642.503 0.334447 -1.78189 0
M  V30 6643 C 642.551 -3.17431 -1.71084 0
M  V30 6644 O 641.655 -3.01374 -2.81509 0
M  V30 6645 H 640.996 -0.617289 -0.244644 0
M  V30 6646 H 643.526 -2.04136 -0.137654 0
M  V30 6647 H 643.536 -3.49455 -2.10582 0
M  V30 6648 H 642.211 -4.01671 -1.07856 0
M  V30 6649 H 640.788 -2.80758 -2.45416 0
M  V30 6650 N 642.974 0.416227 -1.52004 0
M  V30 6651 C 643.904 1.51365 -1.77795 0
M  V30 6652 C 644.885 1.58059 -0.628601 0
M  V30 6653 O 646.07 1.73447 -0.873478 0
M  V30 6654 C 643.2 2.89256 -1.92219 0
M  V30 6655 C 642.154 2.97415 -3.0778 0
M  V30 6656 C 641.48 4.37492 -3.07417 0
M  V30 6657 C 642.78 2.69551 -4.47369 0
M  V30 6658 H 644.474 1.30033 -2.69688 0
M  V30 6659 H 642.02 0.624112 -1.29772 0
M  V30 6660 H 643.973 3.66008 -2.08845 0
M  V30 6661 H 642.697 3.11866 -0.969917 0
M  V30 6662 H 641.356 2.23107 -2.90893 0
M  V30 6663 H 641.004 4.571 -2.09925 0
M  V30 6664 H 640.704 4.43877 -3.85029 0
M  V30 6665 H 642.228 5.16188 -3.26162 0
M  V30 6666 H 643.642 3.36028 -4.64497 0
M  V30 6667 H 642.039 2.87321 -5.26846 0
M  V30 6668 H 643.109 1.65029 -4.55953 0
M  V30 6669 N 644.452 1.42507 0.673017 0
M  V30 6670 C 645.677 1.4668 1.46627 0
M  V30 6671 C 646.102 0.080066 1.8793 0
M  V30 6672 O 645.46 -0.921879 1.56112 0
M  V30 6673 C 645.508 2.40091 2.69051 0
M  V30 6674 O 644.612 1.8735 3.67387 0
M  V30 6675 H 643.953 0.496908 0.44043 0
M  V30 6676 H 646.483 1.87215 0.825334 0
M  V30 6677 H 646.493 2.56731 3.17101 0
M  V30 6678 H 645.168 3.4084 2.3833 0
M  V30 6679 H 643.745 1.80274 3.26429 0
M  V30 6680 N 645.93 -0.909495 1.28709 0
M  V30 6681 C 646.86 -2.0291 1.15542 0
M  V30 6682 C 647.841 -1.7002 0.0521017 0
M  V30 6683 O 649.026 -1.92835 0.229849 0
M  V30 6684 C 646.156 -3.37458 0.820935 0
M  V30 6685 C 645.11 -3.84524 1.87949 0
M  V30 6686 C 644.436 -5.16086 1.39854 0
M  V30 6687 C 645.736 -4.05918 3.28676 0
M  V30 6688 H 647.43 -2.14183 2.09203 0
M  V30 6689 H 644.976 -1.02913 1.00722 0
M  V30 6690 H 646.929 -4.1528 0.715571 0
M  V30 6691 H 645.653 -3.26249 -0.151374 0
M  V30 6692 H 644.312 -3.08911 1.97408 0
M  V30 6693 H 643.96 -5.01284 0.41518 0
M  V30 6694 H 643.66 -5.48547 2.1064 0
M  V30 6695 H 645.184 -5.96459 1.30649 0
M  V30 6696 H 646.598 -4.74252 3.22115 0
M  V30 6697 H 644.995 -4.49717 3.97334 0
M  V30 6698 H 646.065 -3.10583 3.72379 0
M  V30 6699 N 647.408 -1.11026 -1.11852 0
M  V30 6700 C 648.633 -0.879064 -1.87849 0
M  V30 6701 C 649.058 0.565406 -1.79401 0
M  V30 6702 O 648.416 1.39886 -1.15333 0
M  V30 6703 C 648.464 -1.33985 -3.34784 0
M  V30 6704 O 647.568 -0.508803 -4.09249 0
M  V30 6705 H 646.909 -0.316992 -0.583448 0
M  V30 6706 H 649.439 -1.47863 -1.41413 0
M  V30 6707 H 649.449 -1.33248 -3.85628 0
M  V30 6708 H 648.124 -2.39172 -3.40249 0
M  V30 6709 H 646.701 -0.581913 -3.68332 0
M  V30 6710 N 648.886 1.2938 -0.899927 0
M  V30 6711 C 650.297 1.77644 -0.574427 0
M  V30 6712 C 650.648 1.73824 0.909928 0
M  V30 6713 O 649.773 1.32429 1.71147 0
M  V30 6714 C 650.368 3.22573 -1.03595 0
M  V30 6715 C 648.927 3.68614 -0.76161 0
M  V30 6716 C 648.074 2.49483 -1.21052 0
M  V30 6717 H 651.025 1.16038 -1.08263 0
M  V30 6718 H 651.046 3.78684 -0.371337 0
M  V30 6719 H 650.558 3.25321 -2.11631 0
M  V30 6720 H 648.659 3.7134 0.306127 0
M  V30 6721 H 648.772 4.59402 -1.35965 0
M  V30 6722 H 647.136 2.46798 -0.629515 0
M  V30 6723 H 647.919 2.54959 -2.29893 0
M  V30 6724 N 650.364 0.662433 1.43002 0
M  V30 6725 C 651.612 0.179237 2.01304 0
M  V30 6726 C 651.933 -1.21428 1.52579 0
M  V30 6727 O 651.203 -1.81294 0.742252 0
M  V30 6728 H 649.783 0.0632725 0.744316 0
M  V30 6729 H 652.445 0.856169 1.75088 0
M  V30 6730 H 651.541 0.170957 3.11631 0
M  V30 6731 N 651.842 -1.52309 0.404946 0
M  V30 6732 C 652.789 -2.26898 -0.422597 0
M  V30 6733 C 653.759 -1.2914 -1.04461 0
M  V30 6734 O 654.944 -1.57996 -1.06967 0
M  V30 6735 C 652.084 -3.09053 -1.53559 0
M  V30 6736 C 651.197 -4.21762 -0.934908 0
M  V30 6737 C 650.332 -4.91283 -2.02025 0
M  V30 6738 C 649.371 -5.95962 -1.39628 0
M  V30 6739 N 648.508 -6.59017 -2.42159 0
M  V30 6740 H 653.348 -2.97188 0.219903 0
M  V30 6741 H 650.885 -1.46607 0.120282 0
M  V30 6742 H 652.843 -3.54987 -2.19181 0
M  V30 6743 H 651.473 -2.40942 -2.14818 0
M  V30 6744 H 650.525 -3.80029 -0.167854 0
M  V30 6745 H 651.837 -4.96864 -0.439073 0
M  V30 6746 H 650.991 -5.40601 -2.75383 0
M  V30 6747 H 649.73 -4.15741 -2.54973 0
M  V30 6748 H 648.735 -5.45968 -0.648023 0
M  V30 6749 H 649.96 -6.73445 -0.874553 0
M  V30 6750 H 647.906 -5.86306 -2.94247 0
M  V30 6751 H 647.823 -7.2978 -1.97376 0
M  V30 6752 H 649.091 -7.12974 -3.15099 0
M  V30 6753 O 653.359 -0.275866 -1.59126 0
M  V30 6754 H 654.05 0.293949 -1.91457 0
M  V30 END ATOM
M  V30 BEGIN BOND
M  V30 END BOND
M  V30 END CTAB
M  END
$$$$
