drugbank_target|P47985 Cytochrome b-c1 complex subunit Rieske, mitochondrial (DB04141; DB04799; DB07401; DB07636; DB07763; DB07778; DB08330; DB08453; DB08690)
 OpenBabel12092120423D

  0  0  0     0  0            999 V3000
M  V30 BEGIN CTAB
M  V30 COUNTS 4196 4241 0 0 0
M  V30 BEGIN ATOM
M  V30 1 H -0.908 1.98254 -0.117106 0
M  V30 2 N 0 1.576 0 0
M  V30 3 C 0.933 2.03868 1.02534 0
M  V30 4 C 1.911 0.928543 1.3348 0
M  V30 5 O 3.095 1.19667 1.45644 0
M  V30 6 C 0.222 2.43627 2.35294 0
M  V30 7 C -0.732 3.65373 2.2001 0
M  V30 8 S 0.101 5.13292 1.52614 0
M  V30 9 C 1.257 5.56322 2.86805 0
M  V30 10 H 1.49 2.90518 0.631377 0
M  V30 11 H -0.977 1.52953 0.210867 0
M  V30 12 H 0.981 2.67203 3.11629 0
M  V30 13 H -0.358 1.57376 2.7183 0
M  V30 14 H -1.165 3.90944 3.18086 0
M  V30 15 H -1.563 3.418 1.51819 0
M  V30 16 H 0.729 5.58782 3.83104 0
M  V30 17 H 1.672 6.56266 2.65933 0
M  V30 18 H 2.08 4.83886 2.90714 0
M  V30 19 N 1.4781 -0.272755 1.55222 0
M  V30 20 C 2.4081 -1.34136 1.91127 0
M  V30 21 C 3.3891 -1.51513 0.773168 0
M  V30 22 O 4.5741 -1.64552 1.03132 0
M  V30 23 C 1.7041 -2.70083 2.1834 0
M  V30 24 C 0.6581 -2.67437 3.34158 0
M  V30 25 C -0.0159 -4.06938 3.46851 0
M  V30 26 C 1.2841 -2.26686 4.70543 0
M  V30 27 H 2.9781 -1.04333 2.80633 0
M  V30 28 H 0.5241 -0.500454 1.35024 0
M  V30 29 H 2.4771 -3.44952 2.42046 0
M  V30 30 H 1.2011 -3.01469 1.25634 0
M  V30 31 H -0.1399 -1.95026 3.1042 0
M  V30 32 H -0.4919 -4.35547 2.51611 0
M  V30 33 H -0.7919 -4.06062 4.2472 0
M  V30 34 H 0.7321 -4.83545 3.72849 0
M  V30 35 H 2.1461 -2.91277 4.93792 0
M  V30 36 H 0.5431 -2.36971 5.5133 0
M  V30 37 H 1.6131 -1.21818 4.69349 0
M  V30 38 N 2.9562 -1.48159 -0.537278 0
M  V30 39 C 4.1812 -1.59707 -1.32319 0
M  V30 40 C 4.6062 -0.254859 -1.86365 0
M  V30 41 O 3.9642 0.772378 -1.64024 0
M  V30 42 C 4.0122 -2.6412 -2.45505 0
M  V30 43 O 3.1162 -2.20774 -3.48328 0
M  V30 44 H 2.4572 -0.535791 -0.392204 0
M  V30 45 H 4.9872 -1.94092 -0.647268 0
M  V30 46 H 4.9972 -2.85166 -2.91795 0
M  V30 47 H 3.6722 -3.61567 -2.05528 0
M  V30 48 H 2.2492 -2.09911 -3.08207 0
M  V30 49 N 4.4343 0.785586 -1.36625 0
M  V30 50 C 5.6803 1.54591 -1.31261 0
M  V30 51 C 6.0133 1.93906 0.106823 0
M  V30 52 O 5.2883 1.63007 1.06108 0
M  V30 53 C 5.5713 2.82038 -2.23889 0
M  V30 54 C 5.4243 2.49066 -3.74548 0
M  V30 55 C 6.7433 3.83887 -2.15217 0
M  V30 56 H 3.8623 0.560846 -0.478143 0
M  V30 57 H 6.5043 0.902278 -1.67209 0
M  V30 58 H 4.6543 3.36961 -1.93363 0
M  V30 59 H 6.3263 2.00164 -4.15611 0
M  V30 60 H 4.5693 1.81954 -3.93796 0
M  V30 61 H 5.2403 3.40109 -4.34776 0
M  V30 62 H 7.7163 3.38421 -2.42096 0
M  V30 63 H 6.5923 4.70806 -2.82193 0
M  V30 64 H 6.8533 4.27131 -1.14068 0
M  V30 65 N 5.9124 1.20967 1.01018 0
M  V30 66 C 6.8754 0.965918 2.07853 0
M  V30 67 C 7.8754 -0.0610545 1.60684 0
M  V30 68 O 9.0654 0.175681 1.73312 0
M  V30 69 C 6.1974 0.455513 3.37843 0
M  V30 70 H 7.3904 1.91365 2.3091 0
M  V30 71 H 4.9434 1.02594 1.17916 0
M  V30 72 H 5.6784 -0.497381 3.20463 0
M  V30 73 H 5.4634 1.19622 3.73407 0
M  V30 74 H 6.9534 0.304667 4.16487 0
M  V30 75 N 7.3905 -1.2043 1.01659 0
M  V30 76 C 8.6155 -1.94318 0.724942 0
M  V30 77 C 9.0405 -1.74266 -0.708034 0
M  V30 78 O 8.3985 -1.03694 -1.48719 0
M  V30 79 C 8.4465 -3.44486 1.06591 0
M  V30 80 O 7.5505 -4.12017 0.177599 0
M  V30 81 H 6.8915 -0.60708 0.26898 0
M  V30 82 H 9.4215 -1.52861 1.35995 0
M  V30 83 H 9.4315 -3.95106 1.01762 0
M  V30 84 H 8.1065 -3.58404 2.10997 0
M  V30 85 H 6.6835 -3.71821 0.283421 0
M  V30 86 N 8.8686 -0.792821 -1.36206 0
M  V30 87 C 10.2846 -0.474903 -1.52371 0
M  V30 88 C 10.4846 1.00622 -1.74578 0
M  V30 89 O 9.5406 1.79162 -1.77924 0
M  V30 90 C 10.8536 -1.3083 -2.70747 0
M  V30 91 C 12.4016 -1.30234 -2.84619 0
M  V30 92 C 12.8766 -2.11956 -4.06004 0
M  V30 93 N 14.3676 -2.09419 -4.13156 0
M  V30 94 C 15.1026 -2.69419 -5.06163 0
M  V30 95 N 14.5986 -3.3829 -6.04592 0
M  V30 96 N 16.3916 -2.59134 -4.98804 0
M  V30 97 H 8.5426 -1.75222 -1.20046 0
M  V30 98 H 10.8056 -0.745024 -0.586211 0
M  V30 99 H 10.5116 -2.35881 -2.6087 0
M  V30 100 H 10.3856 -0.95196 -3.6499 0
M  V30 101 H 12.7726 -0.259748 -2.93955 0
M  V30 102 H 12.8536 -1.69847 -1.91274 0
M  V30 103 H 12.4976 -3.16248 -3.97429 0
M  V30 104 H 12.4276 -1.69711 -4.98503 0
M  V30 105 H 14.9186 -1.59297 -3.42685 0
M  V30 106 H 15.2316 -3.81394 -6.7213 0
M  V30 107 H 13.5766 -3.42393 -6.04807 0
M  V30 108 H 16.7676 -2.04927 -4.20859 0
M  V30 109 H 16.9406 -3.06185 -5.711 0
M  V30 110 N 10.3467 1.47872 -0.545128 0
M  V30 111 C 11.5717 2.07391 -0.0190611 0
M  V30 112 C 11.9967 1.39688 1.25971 0
M  V30 113 O 11.3547 0.467816 1.7516 0
M  V30 114 C 11.4027 3.60188 0.172335 0
M  V30 115 O 10.5067 3.9339 1.23766 0
M  V30 116 H 9.8477 0.662411 -0.0459059 0
M  V30 117 H 12.3777 1.90066 -0.757365 0
M  V30 118 H 12.3877 4.06129 0.390305 0
M  V30 119 H 11.0627 4.08865 -0.761725 0
M  V30 120 H 9.6397 3.5921 1.00114 0
M  V30 121 N 11.8248 0.280983 1.55075 0
M  V30 122 C 13.0728 -0.333455 1.9933 0
M  V30 123 C 13.3938 -1.55937 1.17085 0
M  V30 124 O 12.6638 -1.94143 0.261805 0
M  V30 125 H 11.2438 -0.126197 0.736263 0
M  V30 126 H 13.9058 0.387678 1.91005 0
M  V30 127 H 13.0018 -0.619292 3.05894 0
M  V30 128 N 13.3029 -1.57598 0.00835791 0
M  V30 129 C 14.7139 -1.7892 -0.53333 0
M  V30 130 C 15.0649 -0.916609 -1.73473 0
M  V30 131 O 14.1899 -0.121336 -2.1606 0
M  V30 132 C 14.7849 -3.24488 -0.974313 0
M  V30 133 C 13.3439 -3.46878 -1.46125 0
M  V30 134 C 12.4909 -2.74157 -0.416302 0
M  V30 135 H 15.4419 -1.56958 0.234495 0
M  V30 136 H 15.4629 -3.3306 -1.83988 0
M  V30 137 H 14.9749 -3.87972 -0.099718 0
M  V30 138 H 13.0759 -2.8862 -2.35646 0
M  V30 139 H 13.1889 -4.55572 -1.48295 0
M  V30 140 H 11.5529 -2.39022 -0.87981 0
M  V30 141 H 12.3359 -3.40345 0.44947 0
M  V30 142 N 14.781 0.264519 -1.55364 0
M  V30 143 C 16.028 0.994986 -1.7637 0
M  V30 144 C 16.356 1.85976 -0.5695 0
M  V30 145 O 15.611 1.90509 0.44776 0
M  V30 146 C 15.91 1.9004 -3.02687 0
M  V30 147 C 15.576 1.19243 -4.34847 0
M  V30 148 C 14.238 0.996709 -4.70764 0
M  V30 149 C 16.59 0.689296 -5.16622 0
M  V30 150 C 13.918 0.285261 -5.86006 0
M  V30 151 C 16.27 -0.00860079 -6.32599 0
M  V30 152 C 14.934 -0.215963 -6.67151 0
M  V30 153 H 14.204 0.364091 -0.645383 0
M  V30 154 H 16.851 0.266543 -1.89636 0
M  V30 155 H 15.156 2.69533 -2.84357 0
M  V30 156 H 16.853 2.46695 -3.16137 0
M  V30 157 H 13.443 1.3549 -4.06621 0
M  V30 158 H 17.627 0.828108 -4.89342 0
M  V30 159 H 12.883 0.113961 -6.11294 0
M  V30 160 H 17.057 -0.406186 -6.95214 0
M  V30 161 H 14.684 -0.769217 -7.56298 0
M  V30 162 N 16.2591 1.48442 0.529413 0
M  V30 163 C 17.2221 1.62524 1.61612 0
M  V30 164 C 18.2221 0.498509 1.52877 0
M  V30 165 O 19.4121 0.76431 1.56537 0
M  V30 166 C 16.5441 1.59597 3.01233 0
M  V30 167 H 17.7371 2.59423 1.50465 0
M  V30 168 H 15.2901 1.37047 0.751514 0
M  V30 169 H 16.0251 0.641781 3.17886 0
M  V30 170 H 15.8101 2.41397 3.08982 0
M  V30 171 H 17.3001 1.72646 3.80241 0
M  V30 172 N 17.7372 -0.778329 1.37039 0
M  V30 173 C 19.1482 -1.35421 1.28523 0
M  V30 174 C 19.4992 -1.96075 -0.0700901 0
M  V30 175 O 18.6242 -1.93352 -0.971801 0
M  V30 176 C 19.2192 -2.46211 2.32735 0
M  V30 177 C 17.7782 -2.99585 2.27873 0
M  V30 178 C 16.9252 -1.72748 2.16918 0
M  V30 179 H 19.8762 -0.5791 1.47757 0
M  V30 180 H 19.8972 -3.2552 1.9702 0
M  V30 181 H 19.4092 -2.02036 3.31365 0
M  V30 182 H 17.5102 -3.48152 1.32745 0
M  V30 183 H 17.6232 -3.55646 3.21018 0
M  V30 184 H 15.9872 -1.95416 1.63354 0
M  V30 185 H 16.7702 -1.30686 3.17452 0
M  V30 186 N 19.2153 -1.21501 -1.00376 0
M  V30 187 C 20.4613 -1.03452 -1.74429 0
M  V30 188 C 20.7943 0.430764 -1.89362 0
M  V30 189 O 20.0693 1.31962 -1.42886 0
M  V30 190 C 20.3523 -1.73375 -3.15615 0
M  V30 191 C 20.2053 -3.27431 -3.08397 0
M  V30 192 C 21.5243 -1.47732 -4.14564 0
M  V30 193 H 18.6433 -0.377226 -0.633143 0
M  V30 194 H 21.2853 -1.49693 -1.17013 0
M  V30 195 H 19.4353 -1.34064 -3.64636 0
M  V30 196 H 21.1073 -3.76119 -2.67081 0
M  V30 197 H 19.3503 -3.5767 -2.45468 0
M  V30 198 H 20.0213 -3.71524 -4.08258 0
M  V30 199 H 22.4973 -1.8186 -3.74254 0
M  V30 200 H 21.3733 -1.99169 -5.11491 0
M  V30 201 H 21.6343 -0.407589 -4.40217 0
M  V30 202 N 20.6934 1.19889 -1.02296 0
M  V30 203 C 21.6234 2.25141 -0.619174 0
M  V30 204 C 22.6044 1.66051 0.368915 0
M  V30 205 O 23.7894 1.92546 0.252941 0
M  V30 206 C 20.9194 3.4728 0.0368783 0
M  V30 207 C 19.8734 4.19005 -0.872865 0
M  V30 208 C 19.1994 5.34637 -0.0822402 0
M  V30 209 C 20.4994 4.74452 -2.18387 0
M  V30 210 H 22.1934 2.59171 -1.49903 0
M  V30 211 H 19.7394 1.24579 -0.722222 0
M  V30 212 H 21.6924 4.20098 0.330958 0
M  V30 213 H 20.4164 3.12433 0.95149 0
M  V30 214 H 19.0754 3.48061 -1.15105 0
M  V30 215 H 18.7234 4.96034 0.83422 0
M  V30 216 H 18.4234 5.83557 -0.688149 0
M  V30 217 H 19.9474 6.10255 0.205238 0
M  V30 218 H 21.3614 5.39055 -1.95172 0
M  V30 219 H 19.7584 5.33834 -2.74119 0
M  V30 220 H 20.8284 3.92844 -2.84257 0
M  V30 221 N 22.1715 0.800033 1.35784 0
M  V30 222 C 23.3965 0.388511 2.03729 0
M  V30 223 C 23.8215 -0.990481 1.5991 0
M  V30 224 O 23.1795 -1.64013 0.772612 0
M  V30 225 C 23.2275 0.4726 3.5749 0
M  V30 226 O 22.3315 -0.51646 4.09153 0
M  V30 227 H 21.6725 0.163271 0.643614 0
M  V30 228 H 24.2025 1.0841 1.73518 0
M  V30 229 H 24.2125 0.34003 4.06581 0
M  V30 230 H 22.8875 1.47848 3.88734 0
M  V30 231 H 21.4645 -0.344673 3.71304 0
M  V30 232 N 23.6496 -1.47581 0.552962 0
M  V30 233 C 24.6126 -2.28439 -0.186605 0
M  V30 234 C 25.6126 -1.36706 -0.84665 0
M  V30 235 O 26.8026 -1.59378 -0.703164 0
M  V30 236 C 23.9346 -3.16264 -1.2724 0
M  V30 237 H 25.1276 -2.95294 0.523609 0
M  V30 238 H 22.6806 -1.532 0.309745 0
M  V30 239 H 23.4156 -2.54091 -2.01514 0
M  V30 240 H 23.2006 -3.83769 -0.803968 0
M  V30 241 H 24.6906 -3.77198 -1.79196 0
M  V30 242 N 25.1277 -0.289203 -1.54924 0
M  V30 243 C 26.3557 0.326463 -2.04308 0
M  V30 244 C 26.7707 1.48413 -1.16701 0
M  V30 245 O 26.1277 1.81507 -0.190087 0
M  V30 246 C 26.1787 0.794014 -3.52672 0
M  V30 247 O 25.8997 -0.317564 -4.36948 0
M  V30 248 C 27.4007 1.47605 -4.18004 0
M  V30 249 H 24.6207 0.0726272 -0.667058 0
M  V30 250 H 27.1647 -0.425401 -2.00026 0
M  V30 251 H 25.3197 1.49593 -3.57352 0
M  V30 252 H 25.7337 0.0443186 -5.24481 0
M  V30 253 H 27.2077 1.75447 -5.23376 0
M  V30 254 H 27.6847 2.41224 -3.67025 0
M  V30 255 H 28.2907 0.81762 -4.17367 0
M  V30 256 N 26.6058 1.57591 -0.0167156 0
M  V30 257 C 27.8308 1.9598 0.67872 0
M  V30 258 C 28.2558 0.892546 1.65575 0
M  V30 259 O 27.6138 -0.147772 1.80697 0
M  V30 260 C 27.6618 3.33468 1.37227 0
M  V30 261 O 26.7658 3.28954 2.48722 0
M  V30 262 H 26.1068 0.639339 0.17928 0
M  V30 263 H 28.6368 2.04463 -0.0748802 0
M  V30 264 H 28.6468 3.69417 1.7319 0
M  V30 265 H 27.3218 4.10694 0.656007 0
M  V30 266 H 25.8988 3.04705 2.14963 0
M  V30 267 N 28.0839 -0.256276 1.55502 0
M  V30 268 C 29.4999 -0.604325 1.47716 0
M  V30 269 C 29.6999 -1.88763 0.705039 0
M  V30 270 O 28.7559 -2.51445 0.230613 0
M  V30 271 C 30.0689 -0.715756 2.92057 0
M  V30 272 C 31.6169 -0.808706 3.02372 0
M  V30 273 C 32.0919 -0.951777 4.48001 0
M  V30 274 N 33.5829 -1.01688 4.519 0
M  V30 275 C 34.3179 -1.14668 5.61817 0
M  V30 276 N 33.8139 -1.24261 6.81565 0
M  V30 277 N 35.6069 -1.1791 5.49594 0
M  V30 278 H 27.7579 0.586291 2.04148 0
M  V30 279 H 30.0209 0.201015 0.926443 0
M  V30 280 H 29.7269 0.157027 3.51349 0
M  V30 281 H 29.6009 -1.59071 3.42018 0
M  V30 282 H 31.9879 -1.67195 2.43166 0
M  V30 283 H 32.0689 0.0912063 2.55637 0
M  V30 284 H 31.7129 -0.0931291 5.07815 0
M  V30 285 H 31.6429 -1.86659 4.92408 0
M  V30 286 H 34.1339 -0.954468 3.65648 0
M  V30 287 H 34.4469 -1.34046 7.61086 0
M  V30 288 H 32.7919 -1.21236 6.84344 0
M  V30 289 H 35.9829 -1.10057 4.54978 0
M  V30 290 H 36.1559 -1.27681 6.35296 0
M  V30 291 N 29.562 -1.4872 -0.521534 0
M  V30 292 C 30.81 -1.56857 -1.27437 0
M  V30 293 C 31.131 -0.247982 -1.93417 0
M  V30 294 O 30.401 0.731151 -1.81744 0
M  V30 295 H 28.981 -0.577885 -0.473347 0
M  V30 296 H 31.643 -1.85233 -0.606205 0
M  V30 297 H 30.739 -2.35402 -2.0492 0
M  V30 298 N 31.0401 0.771051 -1.3745 0
M  V30 299 C 32.2861 1.5319 -1.32894 0
M  V30 300 C 32.6191 1.94008 0.0862511 0
M  V30 301 O 31.8941 1.64124 1.04373 0
M  V30 302 C 32.1771 2.79648 -2.26868 0
M  V30 303 C 32.0301 2.45079 -3.77169 0
M  V30 304 C 33.3491 3.81583 -2.19277 0
M  V30 305 H 30.4681 0.555744 -0.484064 0
M  V30 306 H 33.1101 0.884492 -1.68157 0
M  V30 307 H 31.2601 3.34891 -1.96926 0
M  V30 308 H 32.9321 1.95745 -4.1771 0
M  V30 309 H 31.1751 1.77767 -3.95704 0
M  V30 310 H 31.8461 3.35478 -4.38359 0
M  V30 311 H 34.3221 3.35835 -2.45671 0
M  V30 312 H 33.1981 4.67787 -2.87171 0
M  V30 313 H 33.4591 4.25897 -1.18592 0
M  V30 314 N 32.5182 1.22032 0.997298 0
M  V30 315 C 33.4812 0.987909 2.06816 0
M  V30 316 C 34.4812 -0.0440084 1.6074 0
M  V30 317 O 35.6712 0.194053 1.73116 0
M  V30 318 C 32.8032 0.49132 3.37341 0
M  V30 319 H 33.9962 1.93803 2.28868 0
M  V30 320 H 31.5492 1.03838 1.16822 0
M  V30 321 H 32.2842 -0.463364 3.20973 0
M  V30 322 H 32.0692 1.23575 3.72118 0
M  V30 323 H 33.5592 0.348824 4.16141 0
M  V30 324 N 33.9963 -1.19345 1.0293 0
M  V30 325 C 35.2443 -1.88665 0.724574 0
M  V30 326 C 35.5653 -1.80036 -0.749144 0
M  V30 327 O 34.8353 -1.2111 -1.53978 0
M  V30 328 H 33.4153 -0.698406 0.265025 0
M  V30 329 H 36.0773 -1.44885 1.30362 0
M  V30 330 H 35.1733 -2.94987 1.01926 0
M  V30 331 N 35.4744 -0.807222 -1.35358 0
M  V30 332 C 36.4374 -0.223665 -2.28106 0
M  V30 333 C 37.4374 0.589354 -1.4961 0
M  V30 334 O 38.6274 0.407745 -1.69361 0
M  V30 335 C 35.7594 0.688149 -3.33882 0
M  V30 336 H 36.9524 -1.04169 -2.81227 0
M  V30 337 H 34.5054 -0.577921 -1.45223 0
M  V30 338 H 35.2404 1.52984 -2.85948 0
M  V30 339 H 35.0254 0.10687 -3.91954 0
M  V30 340 H 36.5154 1.09075 -4.03104 0
M  V30 341 N 36.9525 1.47285 -0.560781 0
M  V30 342 C 37.8825 2.32857 0.173105 0
M  V30 343 C 38.8635 1.44009 0.905281 0
M  V30 344 O 40.0485 1.7286 0.885046 0
M  V30 345 C 37.1785 3.25861 1.20133 0
M  V30 346 C 36.1325 4.23978 0.585388 0
M  V30 347 C 35.4585 5.06332 1.7185 0
M  V30 348 C 36.7585 5.20242 -0.463178 0
M  V30 349 H 38.4525 2.94466 -0.541307 0
M  V30 350 H 35.9985 1.41601 -0.261764 0
M  V30 351 H 37.9515 3.84569 1.72293 0
M  V30 352 H 36.6755 2.62315 1.94573 0
M  V30 353 H 35.3345 3.66501 0.085054 0
M  V30 354 H 34.9825 4.39186 2.45203 0
M  V30 355 H 34.6825 5.72762 1.31213 0
M  V30 356 H 36.2065 5.67899 2.24329 0
M  V30 357 H 37.6205 5.73293 -0.027502 0
M  V30 358 H 36.0175 5.94896 -0.788627 0
M  V30 359 H 37.0875 4.65504 -1.35773 0
M  V30 360 N 38.4306 0.297415 1.54768 0
M  V30 361 C 39.8466 -0.0560823 1.59501 0
M  V30 362 C 40.0466 -1.52725 1.31444 0
M  V30 363 O 39.1026 -2.27947 1.08611 0
M  V30 364 C 40.4156 0.338631 2.98787 0
M  V30 365 C 41.9636 0.287097 3.11681 0
M  V30 366 C 42.4386 0.656579 4.53269 0
M  V30 367 N 43.9296 0.608977 4.59179 0
M  V30 368 C 44.6646 0.867385 5.66802 0
M  V30 369 N 44.1606 1.19157 6.82476 0
M  V30 370 N 45.9536 0.794687 5.56454 0
M  V30 371 H 38.1046 1.25624 1.71267 0
M  V30 372 H 40.3676 0.509057 0.799728 0
M  V30 373 H 40.0736 1.36263 3.2423 0
M  V30 374 H 39.9476 -0.309508 3.75928 0
M  V30 375 H 42.3346 -0.727649 2.85988 0
M  V30 376 H 42.4156 0.969809 2.36703 0
M  V30 377 H 42.0596 1.66912 4.7969 0
M  V30 378 H 41.9896 -0.0481649 5.26578 0
M  V30 379 H 44.4806 0.369198 3.76092 0
M  V30 380 H 44.7936 1.37482 7.60473 0
M  V30 381 H 43.1386 1.22958 6.84037 0
M  V30 382 H 46.3296 0.541098 4.64962 0
M  V30 383 H 46.5026 0.999445 6.40246 0
M  V30 384 N 39.9087 -1.5758 0.0250728 0
M  V30 385 C 41.3197 -1.79476 -0.514323 0
M  V30 386 C 41.6707 -0.934956 -1.72491 0
M  V30 387 O 40.7957 -0.144245 -2.15919 0
M  V30 388 C 41.3907 -3.25503 -0.939842 0
M  V30 389 C 39.9497 -3.48408 -1.42438 0
M  V30 390 C 39.0967 -2.74583 -0.387201 0
M  V30 391 H 42.0477 -1.567 0.25113 0
M  V30 392 H 42.0687 -3.34992 -1.80445 0
M  V30 393 H 41.5807 -3.88056 -0.0585628 0
M  V30 394 H 39.6817 -2.91103 -2.32572 0
M  V30 395 H 39.7947 -4.57119 -1.43455 0
M  V30 396 H 38.1587 -2.39942 -0.854409 0
M  V30 397 H 38.9417 -3.39849 0.485543 0
M  V30 398 N 41.3868 0.248026 -1.55636 0
M  V30 399 C 42.3168 1.31079 -1.93237 0
M  V30 400 C 43.2978 1.50264 -0.797174 0
M  V30 401 O 44.4828 1.62891 -1.05737 0
M  V30 402 C 41.6128 2.66575 -2.22609 0
M  V30 403 C 40.5668 2.62087 -3.3837 0
M  V30 404 C 39.8928 4.01369 -3.53281 0
M  V30 405 C 41.1928 2.19171 -4.7409 0
M  V30 406 H 42.8868 0.998556 -2.82257 0
M  V30 407 H 40.4328 0.47891 -1.35803 0
M  V30 408 H 42.3858 3.41057 -2.47503 0
M  V30 409 H 41.1098 2.99432 -1.30414 0
M  V30 410 H 39.7688 1.90063 -3.13483 0
M  V30 411 H 39.4168 4.31489 -2.58508 0
M  V30 412 H 39.1168 3.99254 -4.31127 0
M  V30 413 H 40.6408 4.77552 -3.80495 0
M  V30 414 H 42.0548 2.83384 -4.98363 0
M  V30 415 H 40.4518 2.2817 -5.5503 0
M  V30 416 H 41.5218 1.14336 -4.71227 0
M  V30 417 N 42.8649 1.48995 0.513639 0
M  V30 418 C 44.1109 1.58076 1.27042 0
M  V30 419 C 44.4439 0.261026 1.92438 0
M  V30 420 O 43.7189 -0.734393 1.80103 0
M  V30 421 C 44.0019 2.73091 2.34719 0
M  V30 422 C 43.8549 4.14821 1.73907 0
M  V30 423 C 45.1739 2.83796 3.36375 0
M  V30 424 H 42.2929 0.575391 0.460536 0
M  V30 425 H 44.9349 1.81232 0.570516 0
M  V30 426 H 43.0849 2.53479 2.94416 0
M  V30 427 H 44.7569 4.45917 1.18135 0
M  V30 428 H 42.9999 4.21058 1.0437 0
M  V30 429 H 43.6709 4.91147 2.51949 0
M  V30 430 H 46.1469 3.01611 2.86653 0
M  V30 431 H 45.0229 3.65971 4.09093 0
M  V30 432 H 45.2839 1.92624 3.9793 0
M  V30 433 N 44.343 -0.763751 1.37857 0
M  V30 434 C 45.275 -1.88664 1.30148 0
M  V30 435 C 46.288 -1.61365 0.215685 0
M  V30 436 O 47.477 -1.72134 0.472459 0
M  V30 437 C 44.577 -3.24075 0.991396 0
M  V30 438 C 43.75 -3.78958 2.18426 0
M  V30 439 C 42.809 -4.92862 1.8432 0
M  V30 440 O 41.835 -5.08027 2.56704 0
M  V30 441 N 43.037 -5.75071 0.792081 0
M  V30 442 H 45.802 -1.95791 2.26905 0
M  V30 443 H 43.363 -0.943226 1.31586 0
M  V30 444 H 45.355 -3.97804 0.743935 0
M  V30 445 H 43.925 -3.12399 0.112122 0
M  V30 446 H 43.145 -2.96913 2.59299 0
M  V30 447 H 44.433 -4.12357 2.98058 0
M  V30 448 H 43.831 -5.65375 0.191595 0
M  V30 449 H 42.388 -6.48991 0.60449 0
M  V30 450 N 45.8211 -1.22559 -0.990812 0
M  V30 451 C 46.7841 -0.998863 -2.0629 0
M  V30 452 C 47.7841 0.0354834 -1.60761 0
M  V30 453 O 48.9741 -0.203231 -1.7301 0
M  V30 454 C 46.1061 -0.509203 -3.37076 0
M  V30 455 H 47.2991 -1.95014 -2.27837 0
M  V30 456 H 44.8521 -1.04456 -1.16269 0
M  V30 457 H 45.5871 0.446335 -3.21214 0
M  V30 458 H 45.3721 -1.25547 -3.71457 0
M  V30 459 H 46.8621 -0.370888 -4.1595 0
M  V30 460 N 47.2992 1.18797 -1.03562 0
M  V30 461 C 48.5272 1.92599 -0.755869 0
M  V30 462 C 48.9422 1.75886 0.686271 0
M  V30 463 O 48.2992 1.08517 1.46732 0
M  V30 464 C 48.3502 3.44159 -1.10619 0
M  V30 465 O 48.0712 3.60341 -2.4917 0
M  V30 466 C 49.5722 4.3507 -0.850214 0
M  V30 467 H 46.7922 0.611587 -0.276048 0
M  V30 468 H 49.3362 1.50742 -1.38192 0
M  V30 469 H 47.4912 3.83823 -0.525194 0
M  V30 470 H 47.9052 4.54128 -2.62427 0
M  V30 471 H 49.3792 5.39989 -1.14523 0
M  V30 472 H 49.8562 4.38673 0.215176 0
M  V30 473 H 50.4622 4.01097 -1.41426 0
M  V30 474 N 48.7773 0.814389 1.34928 0
M  V30 475 C 50.0233 0.399013 1.98836 0
M  V30 476 C 50.3563 -1.03314 1.64438 0
M  V30 477 O 49.6313 -1.71811 0.911659 0
M  V30 478 C 49.9143 0.591629 3.55207 0
M  V30 479 C 49.7673 2.06928 3.99376 0
M  V30 480 C 51.0863 0.022199 4.40094 0
M  V30 481 H 48.2053 0.146451 0.722303 0
M  V30 482 H 50.8473 1.02537 1.59957 0
M  V30 483 H 48.9973 0.0584441 3.88456 0
M  V30 484 H 50.6693 2.66544 3.76499 0
M  V30 485 H 48.9123 2.56287 3.49999 0
M  V30 486 H 49.5833 2.1549 5.08201 0
M  V30 487 H 52.0593 0.477643 4.13349 0
M  V30 488 H 50.9353 0.186832 5.48582 0
M  V30 489 H 51.1963 -1.07215 4.28902 0
M  V30 490 N 50.2554 -1.46986 0.568584 0
M  V30 491 C 51.6664 -1.86188 0.138219 0
M  V30 492 C 52.0174 -1.47388 -1.29504 0
M  V30 493 O 51.1424 -0.88219 -1.97602 0
M  V30 494 C 51.7374 -3.3792 0.244065 0
M  V30 495 C 50.2964 -3.76171 -0.131335 0
M  V30 496 C 49.4434 -2.71027 0.586465 0
M  V30 497 H 52.3944 -1.38342 0.777645 0
M  V30 498 H 52.4154 -3.76729 -0.534351 0
M  V30 499 H 51.9274 -3.66128 1.28731 0
M  V30 500 H 50.0284 -3.5358 -1.17526 0
M  V30 501 H 50.1414 -4.78523 0.235146 0
M  V30 502 H 48.5054 -2.54684 0.0282722 0
M  V30 503 H 49.2884 -3.02077 1.63109 0
M  V30 504 N 51.7335 -0.305618 -1.54608 0
M  V30 505 C 52.6965 0.555591 -2.22364 0
M  V30 506 C 53.6965 1.05768 -1.21119 0
M  V30 507 O 54.8865 0.952972 -1.45822 0
M  V30 508 C 52.0185 1.76974 -2.91364 0
M  V30 509 H 53.2115 -0.0364572 -2.99878 0
M  V30 510 H 50.7645 -0.0565007 -1.56198 0
M  V30 511 H 51.4995 2.40151 -2.17941 0
M  V30 512 H 51.2845 1.41732 -3.65588 0
M  V30 513 H 52.7745 2.38148 -3.43038 0
M  V30 514 N 53.2116 1.57565 -0.0334293 0
M  V30 515 C 54.4396 1.9628 0.654347 0
M  V30 516 C 54.8546 0.910138 1.65414 0
M  V30 517 O 54.2116 -0.107595 1.82183 0
M  V30 518 C 54.2626 3.35067 1.35693 0
M  V30 519 O 53.9836 4.36296 0.397191 0
M  V30 520 C 55.4846 3.88439 2.13613 0
M  V30 521 H 52.7046 0.646369 0.180132 0
M  V30 522 H 55.2486 2.04282 -0.0944721 0
M  V30 523 H 53.4036 3.2827 2.05712 0
M  V30 524 H 53.8176 5.1678 0.896597 0
M  V30 525 H 55.2916 4.8788 2.58219 0
M  V30 526 H 55.7686 3.22914 2.97696 0
M  V30 527 H 56.3746 3.98516 1.48543 0
M  V30 528 N 54.6897 -0.239769 1.55765 0
M  V30 529 C 56.1007 -0.808263 1.68297 0
M  V30 530 C 56.4517 -1.85736 0.632181 0
M  V30 531 O 55.5767 -2.15277 -0.220204 0
M  V30 532 C 56.1717 -1.47284 3.05111 0
M  V30 533 C 54.7307 -1.98895 3.19559 0
M  V30 534 C 53.8777 -0.842575 2.64189 0
M  V30 535 H 56.8287 -0.0154422 1.58692 0
M  V30 536 H 56.8497 -2.34111 2.99954 0
M  V30 537 H 56.3617 -0.709053 3.81568 0
M  V30 538 H 54.4627 -2.78132 2.47938 0
M  V30 539 H 54.5757 -2.18143 4.26556 0
M  V30 540 H 52.9397 -1.24501 2.22197 0
M  V30 541 H 53.7227 -0.0917552 3.43177 0
M  V30 542 N 56.1678 -1.49265 -0.50573 0
M  V30 543 C 57.0778 -1.68312 -1.63427 0
M  V30 544 C 58.0938 -0.565682 -1.64548 0
M  V30 545 O 59.2698 -0.839801 -1.83055 0
M  V30 546 C 56.3348 -1.74107 -2.99813 0
M  V30 547 C 55.3958 -2.97653 -3.09356 0
M  V30 548 C 54.6288 -3.03163 -4.39236 0
M  V30 549 O 54.8518 -2.16396 -5.27758 0
M  V30 550 O 53.7858 -3.9558 -4.53652 0
M  V30 551 H 57.6118 -2.63907 -1.50289 0
M  V30 552 H 55.1968 -1.32951 -0.681502 0
M  V30 553 H 57.0788 -1.803 -3.80881 0
M  V30 554 H 55.7538 -0.816901 -3.13223 0
M  V30 555 H 54.6608 -2.96981 -2.27493 0
M  V30 556 H 55.9938 -3.89535 -3.00871 0
M  V30 557 N 57.6459 0.756429 -1.3826 0
M  V30 558 C 58.5779 1.87971 -1.31147 0
M  V30 559 C 59.5909 1.61248 -0.224239 0
M  V30 560 O 60.7799 1.71881 -0.481581 0
M  V30 561 C 57.8799 3.23545 -1.00857 0
M  V30 562 C 57.0529 3.77794 -2.20432 0
M  V30 563 C 56.1119 4.91877 -1.86931 0
M  V30 564 O 55.1379 5.06659 -2.59395 0
M  V30 565 N 56.3399 5.74643 -0.822568 0
M  V30 566 H 59.1049 1.94585 -2.2794 0
M  V30 567 H 56.6659 0.936234 -1.32084 0
M  V30 568 H 58.6579 3.97403 -0.765021 0
M  V30 569 H 57.2279 3.12335 -0.128687 0
M  V30 570 H 56.4479 2.95534 -2.6087 0
M  V30 571 H 57.7359 4.10771 -3.00241 0
M  V30 572 H 57.1339 5.65266 -0.221575 0
M  V30 573 H 55.6909 6.48661 -0.638899 0
M  V30 574 N 59.124 1.23083 0.984299 0
M  V30 575 C 60.535 1.05609 1.5396 0
M  V30 576 C 60.886 -0.377793 1.92528 0
M  V30 577 O 60.011 -1.26398 1.75649 0
M  V30 578 C 60.606 1.91087 2.7977 0
M  V30 579 C 59.165 1.77885 3.31713 0
M  V30 580 C 58.312 1.87028 2.04733 0
M  V30 581 H 61.263 1.36802 0.804419 0
M  V30 582 H 61.284 1.43336 3.5247 0
M  V30 583 H 60.796 2.9544 2.51668 0
M  V30 584 H 58.897 0.762995 3.64704 0
M  V30 585 H 59.01 2.61047 4.01735 0
M  V30 586 H 57.374 1.30565 2.18689 0
M  V30 587 H 58.157 2.92929 1.79017 0
M  V30 588 N 60.6021 -1.18246 1.0419 0
M  V30 589 C 61.8481 -1.88536 0.747122 0
M  V30 590 C 62.1811 -1.80223 -0.723409 0
M  V30 591 O 61.4561 -1.20337 -1.52804 0
M  V30 592 C 61.7391 -3.38968 1.21544 0
M  V30 593 C 61.5921 -3.56084 2.74816 0
M  V30 594 C 62.9111 -4.32648 0.806482 0
M  V30 595 H 60.0301 -0.684619 0.272883 0
M  V30 596 H 62.6721 -1.39113 1.29413 0
M  V30 597 H 60.8221 -3.8119 0.750081 0
M  V30 598 H 62.4941 -3.22946 3.29399 0
M  V30 599 H 60.7371 -2.98699 3.14582 0
M  V30 600 H 61.4081 -4.61639 3.02644 0
M  V30 601 H 63.8841 -3.98211 1.20695 0
M  V30 602 H 62.7601 -5.36462 1.1619 0
M  V30 603 H 63.0211 -4.41146 -0.29029 0
M  V30 604 N 62.0802 -0.821533 -1.34494 0
M  V30 605 C 63.0102 -0.257138 -2.3208 0
M  V30 606 C 63.9912 0.625645 -1.58176 0
M  V30 607 O 65.1762 0.552811 -1.86166 0
M  V30 608 C 62.3062 0.582958 -3.42372 0
M  V30 609 C 61.2602 -0.202571 -4.2752 0
M  V30 610 C 60.5862 0.760179 -5.29269 0
M  V30 611 C 61.8862 -1.40998 -5.02908 0
M  V30 612 H 63.5802 -1.07247 -2.79532 0
M  V30 613 H 61.1262 -0.517163 -1.34393 0
M  V30 614 H 63.0792 0.987972 -4.09655 0
M  V30 615 H 61.8032 1.43133 -2.93565 0
M  V30 616 H 60.4622 -0.588936 -3.61838 0
M  V30 617 H 60.1102 1.60447 -4.76724 0
M  V30 618 H 59.8102 0.238809 -5.87115 0
M  V30 619 H 61.3342 1.16308 -5.9942 0
M  V30 620 H 62.7482 -1.07905 -5.63054 0
M  V30 621 H 61.1452 -1.86689 -5.70322 0
M  V30 622 H 62.2152 -2.1889 -4.32684 0
M  V30 623 N 63.5583 1.46682 -0.576371 0
M  V30 624 C 64.8353 1.95599 0.00703437 0
M  V30 625 C 65.2153 1.51904 1.46589 0
M  V30 626 O 64.5633 0.766755 2.15251 0
M  V30 627 C 64.7733 3.4864 -0.158404 0
M  V30 628 C 66.1213 4.24594 -0.0229439 0
M  V30 629 O 67.1453 3.56094 -0.0869173 0
M  V30 630 O 66.0043 5.46373 0.118015 0
M  V30 631 H 63.0983 0.825275 0.053384 0
M  V30 632 H 65.6443 1.56996 -0.644244 0
M  V30 633 H 64.4163 3.7331 -1.17282 0
M  V30 634 H 64.0393 3.94057 0.5296 0
M  V30 635 N 65.0364 0.313813 1.54444 0
M  V30 636 C 65.9664 -0.549454 2.26943 0
M  V30 637 C 66.9474 -1.12741 1.27372 0
M  V30 638 O 68.1324 -1.15436 1.56167 0
M  V30 639 C 65.2624 -1.71523 3.01989 0
M  V30 640 C 64.2164 -1.26703 4.08816 0
M  V30 641 C 63.5424 -2.51898 4.71647 0
M  V30 642 C 64.8424 -0.388962 5.2085 0
M  V30 643 H 66.5364 0.0552661 2.99349 0
M  V30 644 H 64.0824 0.0280207 1.43973 0
M  V30 645 H 66.0354 -2.32535 3.51433 0
M  V30 646 H 64.7594 -2.34639 2.27183 0
M  V30 647 H 63.4184 -0.679896 3.6024 0
M  V30 648 H 63.0664 -3.13356 3.93468 0
M  V30 649 H 62.7664 -2.22605 5.43802 0
M  V30 650 H 64.2904 -3.1369 5.23861 0
M  V30 651 H 65.7044 -0.905107 5.6611 0
M  V30 652 H 64.1014 -0.18924 5.99802 0
M  V30 653 H 65.1714 0.582699 4.81386 0
M  V30 654 N 66.5145 -1.57545 0.0417849 0
M  V30 655 C 67.4615 -2.10977 -0.935805 0
M  V30 656 C 68.4315 -1.01486 -1.31491 0
M  V30 657 O 69.6165 -1.2898 -1.40602 0
M  V30 658 C 66.7565 -2.65169 -2.2086 0
M  V30 659 C 65.8695 -3.88714 -1.88482 0
M  V30 660 C 65.0045 -4.31254 -3.1015 0
M  V30 661 C 64.0435 -5.47524 -2.7365 0
M  V30 662 N 63.1805 -5.85162 -3.87982 0
M  V30 663 H 68.0205 -2.94218 -0.473249 0
M  V30 664 H 65.5575 -1.45415 -0.221981 0
M  V30 665 H 67.5155 -2.94685 -2.95325 0
M  V30 666 H 66.1455 -1.8474 -2.64709 0
M  V30 667 H 65.1975 -3.65849 -1.04205 0
M  V30 668 H 66.5095 -4.73245 -1.57608 0
M  V30 669 H 65.6635 -4.62273 -3.92923 0
M  V30 670 H 64.4025 -3.45516 -3.44195 0
M  V30 671 H 63.4075 -5.16187 -1.89291 0
M  V30 672 H 64.6325 -6.34971 -2.40807 0
M  V30 673 H 62.5785 -5.02377 -4.21846 0
M  V30 674 H 62.4955 -6.64362 -3.60775 0
M  V30 675 H 63.7635 -6.20791 -4.71422 0
M  V30 676 N 67.9926 0.231505 -1.5589 0
M  V30 677 C 69.4086 0.580748 -1.48659 0
M  V30 678 C 69.6086 1.87617 -0.73498 0
M  V30 679 O 68.6646 2.51046 -0.270586 0
M  V30 680 C 69.9776 0.669202 -2.93159 0
M  V30 681 C 71.5256 0.760499 -3.03621 0
M  V30 682 C 72.0006 0.880383 -4.49459 0
M  V30 683 N 73.4916 0.944861 -4.53461 0
M  V30 684 C 74.2266 1.05716 -5.63571 0
M  V30 685 N 73.7226 1.13403 -6.83456 0
M  V30 686 N 75.5156 1.09152 -5.514 0
M  V30 687 H 67.6666 -0.618695 -2.03189 0
M  V30 688 H 69.9296 -0.215728 -0.923128 0
M  V30 689 H 69.6356 -0.212904 -3.51055 0
M  V30 690 H 69.5096 1.5361 -3.44505 0
M  V30 691 H 71.8966 1.63305 -2.45796 0
M  V30 692 H 71.9776 -0.131864 -2.5546 0
M  V30 693 H 71.6216 0.0123284 -5.07899 0
M  V30 694 H 71.5516 1.78802 -4.95316 0
M  V30 695 H 74.0426 0.896176 -3.6712 0
M  V30 696 H 74.3556 1.21921 -7.63122 0
M  V30 697 H 72.7006 1.10333 -6.86186 0
M  V30 698 H 75.8916 1.02805 -4.56671 0
M  V30 699 H 76.0646 1.17558 -6.37247 0
M  V30 700 N 69.4707 1.49531 0.497807 0
M  V30 701 C 70.8817 1.52344 1.07927 0
M  V30 702 C 71.2327 0.311469 1.93712 0
M  V30 703 O 70.3577 -0.578405 2.08527 0
M  V30 704 C 70.9527 2.76062 1.96405 0
M  V30 705 C 69.5117 2.81643 2.49709 0
M  V30 706 C 68.6587 2.46299 1.27404 0
M  V30 707 H 71.6097 1.56182 0.281576 0
M  V30 708 H 71.6307 2.56405 2.81135 0
M  V30 709 H 71.1427 3.64254 1.33943 0
M  V30 710 H 69.2437 1.97739 3.15801 0
M  V30 711 H 69.3567 3.83891 2.86643 0
M  V30 712 H 67.7207 1.98148 1.60029 0
M  V30 713 H 68.5037 3.36769 0.66645 0
M  V30 714 N 70.9488 -0.749086 1.3866 0
M  V30 715 C 72.1958 -1.50833 1.35114 0
M  V30 716 C 72.5238 -1.94415 -0.0574049 0
M  V30 717 O 71.7788 -1.66065 -1.03541 0
M  V30 718 C 72.0778 -2.7712 2.25697 0
M  V30 719 C 71.7438 -2.52477 3.73585 0
M  V30 720 C 70.4058 -2.45466 4.13884 0
M  V30 721 C 72.7578 -2.31066 4.67181 0
M  V30 722 C 70.0858 -2.15064 5.45861 0
M  V30 723 C 72.4378 -2.02183 5.9942 0
M  V30 724 C 71.1018 -1.93631 6.38798 0
M  V30 725 H 70.3718 -0.551936 0.494416 0
M  V30 726 H 73.0188 -0.860979 1.71054 0
M  V30 727 H 71.3238 -3.46528 1.82827 0
M  V30 728 H 73.0208 -3.35096 2.20254 0
M  V30 729 H 69.6108 -2.58807 3.41638 0
M  V30 730 H 73.7948 -2.35459 4.3689 0
M  V30 731 H 69.0508 -2.06954 5.75308 0
M  V30 732 H 73.2248 -1.8462 6.71482 0
M  V30 733 H 70.8518 -1.69839 7.40985 0
M  V30 734 N 72.4269 -1.23603 -0.977757 0
M  V30 735 C 73.3569 -1.04401 -2.0886 0
M  V30 736 C 74.3379 0.0399052 -1.70053 0
M  V30 737 O 75.5229 -0.125246 -1.93796 0
M  V30 738 C 72.6529 -0.637269 -3.41403 0
M  V30 739 C 71.6069 -1.66883 -3.94124 0
M  V30 740 C 70.9329 -1.11745 -5.22893 0
M  V30 741 C 72.2329 -3.06247 -4.23096 0
M  V30 742 H 73.9269 -1.97316 -2.25182 0
M  V30 743 H 71.4729 -0.950096 -1.08209 0
M  V30 744 H 73.4259 -0.48998 -4.18542 0
M  V30 745 H 72.1499 0.327557 -3.24953 0
M  V30 746 H 70.8089 -1.80416 -3.19133 0
M  V30 747 H 70.4569 -0.143527 -5.02795 0
M  V30 748 H 70.1569 -1.80672 -5.59134 0
M  V30 749 H 71.6809 -0.982067 -6.02651 0
M  V30 750 H 73.0949 -2.96001 -4.90975 0
M  V30 751 H 71.4919 -3.72436 -4.70544 0
M  V30 752 H 72.5619 -3.55041 -3.30263 0
M  V30 753 N 73.905 1.17692 -1.04816 0
M  V30 754 C 75.13 1.92327 -0.776207 0
M  V30 755 C 75.555 1.76082 0.661581 0
M  V30 756 O 74.913 1.076 1.45917 0
M  V30 757 C 74.961 3.41539 -1.15687 0
M  V30 758 O 74.065 4.11402 -0.286775 0
M  V30 759 H 73.406 0.599735 -0.284981 0
M  V30 760 H 75.936 1.49201 -1.4 0
M  V30 761 H 75.946 3.92269 -1.12202 0
M  V30 762 H 74.621 3.52684 -2.20425 0
M  V30 763 H 73.198 3.70939 -0.381903 0
M  V30 764 N 75.3831 0.828654 1.34056 0
M  V30 765 C 76.7991 0.515135 1.51058 0
M  V30 766 C 76.9991 -0.959581 1.77184 0
M  V30 767 O 76.0551 -1.74382 1.82612 0
M  V30 768 C 77.3681 1.37963 2.67183 0
M  V30 769 C 78.9161 1.37735 2.81066 0
M  V30 770 C 79.3911 2.22645 4.00241 0
M  V30 771 N 80.8821 2.203 4.07458 0
M  V30 772 C 81.6171 2.82744 4.98842 0
M  V30 773 N 81.1131 3.54201 5.9541 0
M  V30 774 N 82.9061 2.72268 4.91759 0
M  V30 775 H 75.0571 1.78343 1.15358 0
M  V30 776 H 77.3201 0.760304 0.566252 0
M  V30 777 H 77.0261 2.42714 2.54525 0
M  V30 778 H 76.9001 1.0484 3.62338 0
M  V30 779 H 79.2871 0.337593 2.93163 0
M  V30 780 H 79.3681 1.74859 1.86703 0
M  V30 781 H 79.0121 3.26674 3.88905 0
M  V30 782 H 78.9421 1.82869 4.93829 0
M  V30 783 H 81.4331 1.68327 3.38341 0
M  V30 784 H 81.7461 3.9908 6.61782 0
M  V30 785 H 80.0911 3.58308 5.95517 0
M  V30 786 H 83.2821 2.16014 4.15278 0
M  V30 787 H 83.4551 3.21219 5.62781 0
M  V30 788 N 76.8612 -1.46375 0.584142 0
M  V30 789 C 77.7712 -2.34115 -0.150728 0
M  V30 790 C 78.7872 -1.49838 -0.884567 0
M  V30 791 O 79.9632 -1.82704 -0.847429 0
M  V30 792 C 77.0282 -3.2705 -1.15062 0
M  V30 793 C 76.0892 -4.27228 -0.421293 0
M  V30 794 C 75.3222 -5.15722 -1.37355 0
M  V30 795 O 75.5452 -5.07176 -2.61014 0
M  V30 796 O 74.4792 -5.95383 -0.883355 0
M  V30 797 H 78.3052 -2.98309 0.569708 0
M  V30 798 H 75.8902 -1.45373 0.344535 0
M  V30 799 H 77.7722 -3.84381 -1.72712 0
M  V30 800 H 76.4472 -2.65451 -1.8525 0
M  V30 801 H 75.3542 -3.7358 0.197085 0
M  V30 802 H 76.6872 -4.91616 0.239641 0
M  V30 803 N 78.3393 -0.321999 -1.54275 0
M  V30 804 C 79.5643 0.285791 -2.05422 0
M  V30 805 C 79.9893 1.45124 -1.19669 0
M  V30 806 O 79.3473 1.80132 -0.205441 0
M  V30 807 C 79.3953 0.69956 -3.53749 0
M  V30 808 O 78.4993 1.8021 -3.70942 0
M  V30 809 H 77.8403 0.0518962 -0.661969 0
M  V30 810 H 80.3703 -0.469954 -1.9913 0
M  V30 811 H 80.3803 0.982649 -3.9599 0
M  V30 812 H 79.0553 -0.152864 -4.15619 0
M  V30 813 H 77.6323 1.51794 -3.40607 0
M  V30 814 N 79.8174 1.5752 -0.0501392 0
M  V30 815 C 80.7474 2.14502 0.922566 0
M  V30 816 C 81.7284 1.06642 1.3252 0
M  V30 817 O 82.9134 1.34577 1.4001 0
M  V30 818 C 80.0434 2.68916 2.19776 0
M  V30 819 C 78.9974 3.8175 1.93523 0
M  V30 820 C 78.3234 4.22677 3.27487 0
M  V30 821 C 79.6234 5.06932 1.25765 0
M  V30 822 H 81.3174 2.9603 0.447952 0
M  V30 823 H 78.8634 1.42401 0.214024 0
M  V30 824 H 80.8164 3.07419 2.88222 0
M  V30 825 H 79.5404 1.84578 2.69441 0
M  V30 826 H 78.1994 3.43718 1.27489 0
M  V30 827 H 77.8474 3.35291 3.74952 0
M  V30 828 H 77.5474 4.98725 3.1072 0
M  V30 829 H 79.0714 4.63779 3.97166 0
M  V30 830 H 80.4854 5.42888 1.84244 0
M  V30 831 H 78.8824 5.88116 1.19328 0
M  V30 832 H 79.9524 4.84337 0.233536 0
M  V30 833 N 81.2955 -0.223234 1.56011 0
M  V30 834 C 82.5205 -0.968978 1.83373 0
M  V30 835 C 82.9455 -1.77227 0.630254 0
M  V30 836 O 82.3035 -1.76345 -0.420959 0
M  V30 837 C 82.3515 -1.86363 3.08709 0
M  V30 838 O 81.4555 -2.95873 2.87285 0
M  V30 839 H 80.7965 -0.274461 0.604622 0
M  V30 840 H 83.3265 -0.237056 2.03222 0
M  V30 841 H 83.3365 -2.27376 3.38768 0
M  V30 842 H 82.0115 -1.27319 3.95933 0
M  V30 843 H 80.5885 -2.58818 2.68454 0
M  V30 844 N 82.7736 -1.49793 -0.48987 0
M  V30 845 C 84.0216 -1.59525 -1.24081 0
M  V30 846 C 84.3426 -0.288953 -1.92847 0
M  V30 847 O 83.6126 0.692436 -1.83254 0
M  V30 848 H 82.1926 -0.587796 -0.460983 0
M  V30 849 H 84.8546 -1.86477 -0.566778 0
M  V30 850 H 83.9506 -2.39696 -1.99881 0
M  V30 851 N 84.2517 0.741722 -1.39055 0
M  V30 852 C 85.1837 1.8657 -1.33133 0
M  V30 853 C 86.1967 1.61001 -0.241329 0
M  V30 854 O 87.3857 1.7136 -0.499784 0
M  V30 855 C 84.4857 3.22457 -1.04283 0
M  V30 856 C 83.6587 3.75435 -2.24427 0
M  V30 857 C 82.7177 4.89867 -1.92138 0
M  V30 858 O 81.7437 5.03879 -2.64754 0
M  V30 859 N 82.9457 5.73738 -0.88347 0
M  V30 860 H 85.7107 1.92156 -2.29991 0
M  V30 861 H 83.2717 0.922172 -1.3307 0
M  V30 862 H 85.2637 3.9657 -0.807128 0
M  V30 863 H 83.8337 3.12181 -0.161807 0
M  V30 864 H 83.0537 2.92751 -2.6399 0
M  V30 865 H 84.3417 4.07563 -3.04581 0
M  V30 866 H 83.7397 5.64999 -0.281517 0
M  V30 867 H 82.2967 6.47947 -0.707662 0
M  V30 868 N 85.7298 1.2412 0.971189 0
M  V30 869 C 86.6928 1.03156 2.04674 0
M  V30 870 C 87.6928 -0.00990322 1.60797 0
M  V30 871 O 88.8828 0.230729 1.72665 0
M  V30 872 C 86.0148 0.562765 3.36223 0
M  V30 873 H 87.2078 1.98614 2.24705 0
M  V30 874 H 84.7608 1.06293 1.14593 0
M  V30 875 H 85.4958 -0.395176 3.21883 0
M  V30 876 H 85.2808 1.31441 3.69413 0
M  V30 877 H 86.7708 0.437015 4.15307 0
M  V30 878 N 87.2079 -1.17134 1.05439 0
M  V30 879 C 88.4539 -1.87733 0.767077 0
M  V30 880 C 88.7869 -1.8098 -0.704253 0
M  V30 881 O 88.0619 -1.21951 -1.5152 0
M  V30 882 C 88.3449 -3.37659 1.25133 0
M  V30 883 C 88.1979 -3.53149 2.78578 0
M  V30 884 C 89.5169 -4.31768 0.852324 0
M  V30 885 H 86.6359 -0.681687 0.280129 0
M  V30 886 H 89.2779 -1.37732 1.30881 0
M  V30 887 H 87.4279 -3.80373 0.790469 0
M  V30 888 H 89.0999 -3.19434 3.32806 0
M  V30 889 H 87.3429 -2.95345 3.17732 0
M  V30 890 H 88.0139 -4.58403 3.07523 0
M  V30 891 H 90.4899 -3.96909 1.24911 0
M  V30 892 H 89.3659 -5.35199 1.21873 0
M  V30 893 H 89.6269 -4.41429 -0.243485 0
M  V30 894 N 88.686 -0.835752 -1.33615 0
M  V30 895 C 90.102 -0.523139 -1.50783 0
M  V30 896 C 90.302 0.950171 -1.77691 0
M  V30 897 O 89.358 1.73411 -1.83534 0
M  V30 898 C 90.671 -1.39378 -2.66448 0
M  V30 899 C 92.219 -1.39223 -2.80332 0
M  V30 900 C 92.694 -2.24765 -3.99055 0
M  V30 901 N 94.185 -2.22458 -4.06284 0
M  V30 902 C 94.92 -2.85386 -4.97336 0
M  V30 903 N 94.416 -3.57354 -5.93523 0
M  V30 904 N 96.209 -2.74872 -4.90308 0
M  V30 905 H 88.36 -1.78952 -1.14411 0
M  V30 906 H 90.623 -0.763297 -0.562212 0
M  V30 907 H 90.329 -2.44061 -2.53234 0
M  V30 908 H 90.203 -1.0676 -3.61776 0
M  V30 909 H 92.59 -0.353136 -2.92979 0
M  V30 910 H 92.671 -1.75846 -1.85773 0
M  V30 911 H 92.315 -3.28732 -3.87167 0
M  V30 912 H 92.245 -1.85485 -4.92852 0
M  V30 913 H 94.736 -1.70119 -3.37443 0
M  V30 914 H 95.049 -4.02584 -6.59656 0
M  V30 915 H 93.394 -3.61461 -5.93608 0
M  V30 916 H 96.585 -2.18213 -4.14126 0
M  V30 917 H 96.758 -3.24199 -5.61069 0
M  V30 918 N 90.1641 1.46063 -0.591896 0
M  V30 919 C 91.5801 1.57561 -0.254288 0
M  V30 920 C 91.7801 1.58565 1.24336 0
M  V30 921 O 90.8361 1.50753 2.02558 0
M  V30 922 C 92.1491 2.86549 -0.911611 0
M  V30 923 C 93.6971 3.00197 -0.886059 0
M  V30 924 C 94.1721 4.31933 -1.5231 0
M  V30 925 N 95.6631 4.38654 -1.48786 0
M  V30 926 C 96.3981 5.39222 -1.95006 0
M  V30 927 N 95.8941 6.46414 -2.49241 0
M  V30 928 N 97.6871 5.3048 -1.85868 0
M  V30 929 H 89.8381 1.43655 -1.56451 0
M  V30 930 H 92.1011 0.68583 -0.654478 0
M  V30 931 H 91.8071 2.91651 -1.96551 0
M  V30 932 H 91.6811 3.74794 -0.425368 0
M  V30 933 H 94.0681 2.9467 0.159246 0
M  V30 934 H 94.1491 2.13403 -1.41041 0
M  V30 935 H 93.7931 4.38217 -2.56765 0
M  V30 936 H 93.7231 5.17516 -0.973891 0
M  V30 937 H 96.2141 3.61793 -1.09151 0
M  V30 938 H 96.5271 7.19376 -2.82344 0
M  V30 939 H 94.8721 6.47208 -2.53272 0
M  V30 940 H 98.0631 4.45643 -1.43248 0
M  V30 941 H 98.2361 6.08711 -2.22204 0
M  V30 942 N 91.6422 0.330177 1.54103 0
M  V30 943 C 93.0532 -0.15652 1.86043 0
M  V30 944 C 93.4042 -1.51086 1.2517 0
M  V30 945 O 92.5292 -2.09023 0.560217 0
M  V30 946 C 93.1242 -0.290784 3.3755 0
M  V30 947 C 91.6832 -0.721705 3.69416 0
M  V30 948 C 90.8302 0.152622 2.7688 0
M  V30 949 H 93.7812 0.550237 1.48856 0
M  V30 950 H 93.8022 -1.12058 3.63625 0
M  V30 951 H 93.3142 0.695068 3.81825 0
M  V30 952 H 91.4152 -1.71706 3.30678 0
M  V30 953 H 91.5282 -0.520869 4.7626 0
M  V30 954 H 89.8922 -0.372894 2.51956 0
M  V30 955 H 90.6752 1.13536 3.23982 0
M  V30 956 N 93.1203 -1.57491 0.0584922 0
M  V30 957 C 94.0503 -2.14988 -0.911178 0
M  V30 958 C 95.0313 -1.07343 -1.31952 0
M  V30 959 O 96.2163 -1.35318 -1.39294 0
M  V30 960 C 93.3463 -2.70078 -2.18347 0
M  V30 961 C 92.3003 -3.82771 -1.91495 0
M  V30 962 C 91.6263 -4.24408 -3.25241 0
M  V30 963 C 92.9263 -5.07592 -1.23075 0
M  V30 964 H 94.6203 -2.96263 -0.432246 0
M  V30 965 H 92.1663 -1.42512 -0.206469 0
M  V30 966 H 94.1193 -3.08943 -2.86587 0
M  V30 967 H 92.8433 -1.86005 -2.68458 0
M  V30 968 H 91.5023 -3.44389 -1.25664 0
M  V30 969 H 91.1503 -3.37275 -3.73168 0
M  V30 970 H 90.8503 -5.00366 -3.08071 0
M  V30 971 H 92.3743 -4.65879 -3.94701 0
M  V30 972 H 93.7883 -5.43857 -1.81362 0
M  V30 973 H 92.1853 -5.88741 -1.16207 0
M  V30 974 H 93.2553 -4.84454 -0.207847 0
M  V30 975 N 94.5984 0.214957 -1.56127 0
M  V30 976 C 95.8444 0.939762 -1.79712 0
M  V30 977 C 96.1774 1.83723 -0.629247 0
M  V30 978 O 95.4524 1.90925 0.371197 0
M  V30 979 C 95.7354 1.77306 -3.13424 0
M  V30 980 C 95.5884 0.90164 -4.40671 0
M  V30 981 C 96.9074 2.74956 -3.43638 0
M  V30 982 H 94.0264 0.340214 -0.653776 0
M  V30 983 H 96.6684 0.20824 -1.88855 0
M  V30 984 H 94.8184 2.39673 -3.0576 0
M  V30 985 H 96.4904 0.294206 -4.60361 0
M  V30 986 H 94.7334 0.207368 -4.33304 0
M  V30 987 H 95.4044 1.51923 -5.30682 0
M  V30 988 H 97.8804 2.22724 -3.51473 0
M  V30 989 H 96.7564 3.30358 -4.38355 0
M  V30 990 H 97.0174 3.53023 -2.66134 0
M  V30 991 N 96.0765 1.50051 0.48192 0
M  V30 992 C 97.0395 1.67584 1.5636 0
M  V30 993 C 98.0395 0.546894 1.51214 0
M  V30 994 O 99.2295 0.813725 1.54026 0
M  V30 995 C 96.3615 1.691 2.96003 0
M  V30 996 H 97.5545 2.64078 1.42136 0
M  V30 997 H 95.1075 1.39369 0.707533 0
M  V30 998 H 95.8425 0.742589 3.15684 0
M  V30 999 H 95.6275 2.51105 3.01146 0
M  V30 1000 H 97.1175 1.84656 3.74556 0
M  V30 1001 N 97.5546 -0.734337 1.39446 0
M  V30 1002 C 98.7796 -1.52866 1.40167 0
M  V30 1003 C 99.2046 -1.881 -0.00171513 0
M  V30 1004 O 98.5626 -1.51957 -0.988879 0
M  V30 1005 C 98.6106 -2.79235 2.28167 0
M  V30 1006 O 97.7146 -3.75185 1.71201 0
M  V30 1007 H 97.0556 -0.461618 0.477289 0
M  V30 1008 H 99.5856 -0.905949 1.8345 0
M  V30 1009 H 99.5956 -3.27963 2.42702 0
M  V30 1010 H 98.2706 -2.52923 3.30156 0
M  V30 1011 H 96.8476 -3.33958 1.65912 0
M  V30 1012 N 99.0327 -1.24633 -0.964593 0
M  V30 1013 C 100.279 -1.08949 -1.71049 0
M  V30 1014 C 100.612 0.370302 -1.90637 0
M  V30 1015 O 99.8867 1.27349 -1.47011 0
M  V30 1016 C 100.17 -1.83329 -3.0994 0
M  V30 1017 C 100.023 -3.37077 -2.97824 0
M  V30 1018 C 101.342 -1.60846 -4.09654 0
M  V30 1019 H 98.4607 -0.397178 -0.620821 0
M  V30 1020 H 101.103 -1.5334 -1.12191 0
M  V30 1021 H 99.2527 -1.45597 -3.60186 0
M  V30 1022 H 100.925 -3.84425 -2.5498 0
M  V30 1023 H 99.1677 -3.65298 -2.33965 0
M  V30 1024 H 99.8387 -3.84324 -3.96231 0
M  V30 1025 H 102.315 -1.93674 -3.68279 0
M  V30 1026 H 101.191 -2.1534 -5.04896 0
M  V30 1027 H 101.452 -0.547434 -4.38698 0
M  V30 1028 N 100.511 1.16574 -1.06058 0
M  V30 1029 C 101.759 1.86677 -0.77434 0
M  V30 1030 C 102.08 1.81959 0.701147 0
M  V30 1031 O 101.35 1.2515 1.50713 0
M  V30 1032 H 99.9298 0.691134 -0.283449 0
M  V30 1033 H 102.592 1.41378 -1.34158 0
M  V30 1034 H 101.688 2.92181 -1.09711 0
M  V30 1035 N 101.989 0.842826 1.3317 0
M  V30 1036 C 102.919 0.294028 2.31641 0
M  V30 1037 C 103.9 -0.600401 1.59151 0
M  V30 1038 O 105.085 -0.523124 1.87022 0
M  V30 1039 C 102.215 -0.528416 3.43257 0
M  V30 1040 C 101.169 0.27056 4.27144 0
M  V30 1041 C 100.495 -0.675881 5.30411 0
M  V30 1042 C 101.795 1.48981 5.00602 0
M  V30 1043 H 103.489 1.11681 2.77791 0
M  V30 1044 H 101.035 0.538478 1.33553 0
M  V30 1045 H 102.988 -0.922674 4.11175 0
M  V30 1046 H 101.712 -1.38445 2.95805 0
M  V30 1047 H 100.371 0.646427 3.60856 0
M  V30 1048 H 100.019 -1.52842 4.79216 0
M  V30 1049 H 99.7189 -0.145374 5.8742 0
M  V30 1050 H 101.243 -1.06757 6.01195 0
M  V30 1051 H 102.657 1.16849 5.61266 0
M  V30 1052 H 101.054 1.95739 5.6728 0
M  V30 1053 H 102.124 2.25746 4.29147 0
M  V30 1054 N 103.467 -1.45747 0.599634 0
M  V30 1055 C 104.415 -2.322 -0.136426 0
M  V30 1056 C 105.409 -1.45497 -0.867583 0
M  V30 1057 O 106.615 -1.62027 -0.78405 0
M  V30 1058 H 102.99 -0.749368 -0.0628588 0
M  V30 1059 H 104.961 -2.92072 0.611281 0
M  V30 1060 C 103.71 -3.28974 -1.12567 0
M  V30 1061 H 103.033 -3.9568 -0.572484 0
M  V30 1062 H 104.473 -3.92212 -1.61077 0
M  V30 1063 C 102.932 -2.55561 -2.19523 0
M  V30 1064 O 103.462 -2.33111 -3.27143 0
M  V30 1065 N 101.668 -2.15832 -1.94589 0
M  V30 1066 H 101.215 -2.3429 -1.07078 0
M  V30 1067 H 101.173 -1.67034 -2.66359 0
M  V30 1068 N 104.945 -0.338344 -1.53925 0
M  V30 1069 C 106.191 0.260143 -2.01125 0
M  V30 1070 C 106.524 1.50617 -1.22589 0
M  V30 1071 O 105.799 1.91979 -0.312113 0
M  V30 1072 C 106.082 0.579499 -3.55407 0
M  V30 1073 C 105.935 -0.678264 -4.44657 0
M  V30 1074 C 107.254 1.39122 -4.17532 0
M  V30 1075 H 104.373 0.0930772 -0.731099 0
M  V30 1076 H 107.015 -0.457852 -1.84401 0
M  V30 1077 H 105.165 1.19118 -3.69788 0
M  V30 1078 H 106.837 -1.31631 -4.42121 0
M  V30 1079 H 105.08 -1.3042 -4.13731 0
M  V30 1080 H 105.751 -0.410143 -5.50474 0
M  V30 1081 H 108.227 0.874035 -4.06817 0
M  V30 1082 H 107.103 1.58342 -5.25565 0
M  V30 1083 H 107.364 2.39178 -3.71815 0
M  V30 1084 N 106.423 1.57458 -0.0668435 0
M  V30 1085 C 107.834 1.80776 0.466558 0
M  V30 1086 C 108.185 0.980361 1.69951 0
M  V30 1087 O 107.31 0.201441 2.1546 0
M  V30 1088 C 107.905 3.27881 0.85321 0
M  V30 1089 C 106.464 3.52062 1.3315 0
M  V30 1090 C 105.611 2.75513 0.314264 0
M  V30 1091 H 108.562 1.5598 -0.292588 0
M  V30 1092 H 108.583 3.39659 1.715 0
M  V30 1093 H 108.095 3.88075 -0.0443439 0
M  V30 1094 H 106.196 2.97167 2.24772 0
M  V30 1095 H 106.309 4.60762 1.31285 0
M  V30 1096 H 104.673 2.42123 0.790492 0
M  V30 1097 H 105.456 3.38442 -0.575477 0
M  V30 1098 N 107.901 -0.206675 1.56239 0
M  V30 1099 C 108.864 -1.23976 1.92776 0
M  V30 1100 C 109.864 -1.39041 0.807729 0
M  V30 1101 O 111.054 -1.37051 1.0753 0
M  V30 1102 C 108.186 -2.61112 2.19165 0
M  V30 1103 H 109.379 -0.927764 2.85189 0
M  V30 1104 H 106.932 -0.447718 1.4975 0
M  V30 1105 H 107.667 -2.97386 1.29352 0
M  V30 1106 H 107.452 -2.51552 3.00772 0
M  V30 1107 H 108.942 -3.35633 2.48476 0
M  V30 1108 N 109.379 -1.50304 -0.473955 0
M  V30 1109 C 110.604 -1.65175 -1.25427 0
M  V30 1110 C 111.029 -0.333673 -1.85117 0
M  V30 1111 O 110.387 0.702114 -1.67153 0
M  V30 1112 C 110.435 -2.74295 -2.34082 0
M  V30 1113 O 109.539 -2.35349 -3.38651 0
M  V30 1114 H 108.88 -0.551944 -0.369126 0
M  V30 1115 H 111.41 -1.96662 -0.564364 0
M  V30 1116 H 111.42 -2.97285 -2.79438 0
M  V30 1117 H 110.095 -3.69959 -1.90008 0
M  V30 1118 H 108.672 -2.22794 -2.99027 0
M  V30 1119 N 110.857 0.726932 -1.39834 0
M  V30 1120 C 112.103 1.48884 -1.377 0
M  V30 1121 C 112.436 1.94185 0.0244852 0
M  V30 1122 O 111.711 1.67361 0.990986 0
M  V30 1123 C 111.994 2.72288 -2.3565 0
M  V30 1124 C 111.847 2.32956 -3.84775 0
M  V30 1125 C 113.166 3.74414 -2.31306 0
M  V30 1126 H 110.285 0.540062 -0.5015 0
M  V30 1127 H 112.927 0.830547 -1.70886 0
M  V30 1128 H 111.077 3.28457 -2.07481 0
M  V30 1129 H 112.749 1.82356 -4.23726 0
M  V30 1130 H 110.992 1.65088 -4.01159 0
M  V30 1131 H 111.663 3.21362 -4.4881 0
M  V30 1132 H 114.139 3.27849 -2.56231 0
M  V30 1133 H 113.015 4.58414 -3.01907 0
M  V30 1134 H 113.276 4.21909 -1.32081 0
M  V30 1135 N 112.336 1.25143 0.95797 0
M  V30 1136 C 113.576 1.10893 1.71703 0
M  V30 1137 C 113.94 -0.34478 1.88879 0
M  V30 1138 O 115.141 -0.609014 2.6181 0
M  V30 1139 C 113.412 1.83889 3.06463 0
M  V30 1140 S 114.971 1.85491 3.97666 0
M  V30 1141 H 111.789 0.396428 0.590226 0
M  V30 1142 H 114.391 1.58618 1.14283 0
M  V30 1143 H 113.095 2.88756 2.9163 0
M  V30 1144 H 112.626 1.36538 3.68946 0
M  V30 1145 H 114.641 0.929553 4.87415 0
M  V30 1146 N 113.814 -1.1601 1.06675 0
M  V30 1147 C 115.044 -1.90251 0.805497 0
M  V30 1148 C 115.452 -1.77891 -0.64431 0
M  V30 1149 O 114.795 -1.12383 -1.45313 0
M  V30 1150 C 114.857 -3.41419 1.12576 0
M  V30 1151 C 114.521 -3.77564 2.57477 0
M  V30 1152 C 115.518 -3.79161 3.55715 0
M  V30 1153 C 113.203 -4.08079 2.92877 0
M  V30 1154 C 115.197 -4.10767 4.8739 0
M  V30 1155 C 112.884 -4.39351 4.24751 0
M  V30 1156 C 113.882 -4.40675 5.21818 0
M  V30 1157 O 113.57 -4.71202 6.51325 0
M  V30 1158 H 113.302 -0.610018 0.291297 0
M  V30 1159 H 115.856 -1.47958 1.4247 0
M  V30 1160 H 114.086 -3.84079 0.449503 0
M  V30 1161 H 115.775 -3.9694 0.84814 0
M  V30 1162 H 116.541 -3.55693 3.29708 0
M  V30 1163 H 112.42 -4.06211 2.17976 0
M  V30 1164 H 115.964 -4.11715 5.63148 0
M  V30 1165 H 111.861 -4.62285 4.50514 0
M  V30 1166 H 112.629 -4.88996 6.56373 0
M  V30 1167 N 115.292 -0.849877 -1.32721 0
M  V30 1168 C 116.517 -0.463856 -2.02146 0
M  V30 1169 C 116.942 0.930449 -1.63476 0
M  V30 1170 O 116.3 1.61033 -0.832952 0
M  V30 1171 C 116.348 -0.604955 -3.55489 0
M  V30 1172 O 115.452 0.36425 -4.10788 0
M  V30 1173 H 114.793 -0.187046 -0.637111 0
M  V30 1174 H 117.323 -1.14775 -1.69375 0
M  V30 1175 H 117.333 -0.490696 -4.05038 0
M  V30 1176 H 116.008 -1.62174 -3.82978 0
M  V30 1177 H 114.585 0.206628 -3.72327 0
M  V30 1178 N 116.77 1.45427 -0.607355 0
M  V30 1179 C 117.72 2.27612 0.133038 0
M  V30 1180 C 118.704 1.37307 0.838785 0
M  V30 1181 O 119.896 1.61299 0.728813 0
M  V30 1182 C 117.025 3.24173 1.12991 0
M  V30 1183 C 116.111 4.21965 0.425011 0
M  V30 1184 N 116.502 5.02982 -0.533217 0
M  V30 1185 C 114.8 4.40899 0.672593 0
M  V30 1186 C 115.501 5.73931 -0.947518 0
M  V30 1187 N 114.477 5.42819 -0.291321 0
M  V30 1188 H 118.279 2.87649 -0.602935 0
M  V30 1189 H 115.793 1.56576 -0.431006 0
M  V30 1190 H 117.79 3.81783 1.67473 0
M  V30 1191 H 116.45 2.65696 1.86644 0
M  V30 1192 H 117.461 5.09843 -0.90995 0
M  V30 1193 H 114.138 3.93547 1.39382 0
M  V30 1194 H 115.528 6.49037 -1.73782 0
M  V30 1195 N 118.248 0.346503 1.53744 0
M  V30 1196 C 119.476 -0.25041 2.05379 0
M  V30 1197 C 119.891 -1.43979 1.22129 0
M  V30 1198 O 119.248 -1.80677 0.257321 0
M  V30 1199 C 119.299 -0.662575 3.55376 0
M  V30 1200 O 119.02 0.479515 4.35468 0
M  V30 1201 C 120.521 -1.31989 4.23195 0
M  V30 1202 H 117.741 -0.0478198 0.669294 0
M  V30 1203 H 120.285 0.499346 1.9831 0
M  V30 1204 H 118.44 -1.36227 3.62658 0
M  V30 1205 H 118.854 0.15037 5.24284 0
M  V30 1206 H 120.328 -1.55902 5.29527 0
M  V30 1207 H 120.805 -2.27436 3.75725 0
M  V30 1208 H 121.411 -0.662154 4.20114 0
M  V30 1209 N 119.726 -1.57421 0.075193 0
M  V30 1210 C 121.003 -1.85029 -0.634329 0
M  V30 1211 C 121.383 -0.968305 -1.87582 0
M  V30 1212 O 120.731 -0.0354749 -2.28472 0
M  V30 1213 C 120.941 -3.35286 -0.968742 0
M  V30 1214 C 122.289 -4.02875 -1.34077 0
M  V30 1215 O 123.313 -3.40051 -1.06037 0
M  V30 1216 O 122.172 -5.13691 -1.86506 0
M  V30 1217 H 119.266 -0.7645 -0.315387 0
M  V30 1218 H 121.812 -1.69366 0.106382 0
M  V30 1219 H 120.584 -3.91203 -0.0871376 0
M  V30 1220 H 120.207 -3.56223 -1.7661 0
M  V30 1221 N 121.204 0.198386 -1.56346 0
M  V30 1222 C 122.453 0.917451 -1.79627 0
M  V30 1223 C 122.766 1.8456 -0.64784 0
M  V30 1224 O 123.972 2.60504 -0.764859 0
M  V30 1225 C 122.428 1.68175 -3.18191 0
M  V30 1226 C 122.036 0.798589 -4.40825 0
M  V30 1227 C 123.78 2.39065 -3.50782 0
M  V30 1228 C 121.687 1.56157 -5.70411 0
M  V30 1229 H 120.617 0.346317 -0.669762 0
M  V30 1230 H 123.268 0.170801 -1.82703 0
M  V30 1231 H 121.65 2.47216 -3.09354 0
M  V30 1232 H 122.824 0.0470665 -4.60776 0
M  V30 1233 H 121.139 0.200686 -4.15916 0
M  V30 1234 H 123.736 2.96692 -4.44835 0
M  V30 1235 H 124.079 3.13091 -2.74371 0
M  V30 1236 H 124.612 1.66993 -3.61052 0
M  V30 1237 H 121.351 0.864142 -6.49779 0
M  V30 1238 H 120.871 2.2871 -5.54483 0
M  V30 1239 H 122.55 2.11622 -6.11412 0
M  V30 1240 N 122.682 1.50554 0.465978 0
M  V30 1241 C 123.629 1.6979 1.56333 0
M  V30 1242 C 124.599 0.539239 1.57103 0
M  V30 1243 O 125.784 0.770401 1.74555 0
M  V30 1244 C 122.924 1.80273 2.94271 0
M  V30 1245 C 122.037 3.07674 3.0325 0
M  V30 1246 C 121.172 3.08922 4.32135 0
M  V30 1247 C 120.211 4.30755 4.34875 0
M  V30 1248 N 119.348 4.29714 5.55239 0
M  V30 1249 H 124.188 2.63472 1.39235 0
M  V30 1250 H 121.725 1.30602 0.676873 0
M  V30 1251 H 123.683 1.84332 3.74269 0
M  V30 1252 H 122.313 0.900258 3.09992 0
M  V30 1253 H 121.365 3.13062 2.16094 0
M  V30 1254 H 122.677 3.97642 3.01135 0
M  V30 1255 H 121.831 3.11738 5.20485 0
M  V30 1256 H 120.57 2.16792 4.36866 0
M  V30 1257 H 119.575 4.28146 3.44922 0
M  V30 1258 H 120.8 5.24117 4.31831 0
M  V30 1259 H 118.746 3.4044 5.60746 0
M  V30 1260 H 118.663 5.13456 5.54886 0
M  V30 1261 H 119.931 4.36683 6.457 0
M  V30 1262 N 124.16 -0.719506 1.40217 0
M  V30 1263 C 125.406 -1.48152 1.38488 0
M  V30 1264 C 125.739 -1.94195 -0.0141867 0
M  V30 1265 O 125.014 -1.67884 -0.982096 0
M  V30 1266 C 125.297 -2.71035 2.37091 0
M  V30 1267 C 125.15 -2.30912 3.86005 0
M  V30 1268 C 126.469 -3.73182 2.33288 0
M  V30 1269 H 123.588 -0.537395 0.504357 0
M  V30 1270 H 126.23 -0.821472 1.71324 0
M  V30 1271 H 124.38 -3.27352 2.0922 0
M  V30 1272 H 126.052 -1.80107 4.24687 0
M  V30 1273 H 124.295 -1.62958 4.02029 0
M  V30 1274 H 124.966 -3.18978 4.50508 0
M  V30 1275 H 127.442 -3.26485 2.57966 0
M  V30 1276 H 126.318 -4.56806 3.04334 0
M  V30 1277 H 126.579 -4.21202 1.34317 0
M  V30 1278 N 125.638 -1.25649 -0.95132 0
M  V30 1279 C 127.049 -1.09654 -1.51106 0
M  V30 1280 C 127.4 0.326615 -1.93462 0
M  V30 1281 O 126.525 1.21697 -1.78938 0
M  V30 1282 C 127.12 -1.98437 -2.74605 0
M  V30 1283 C 125.679 -1.86618 -3.2688 0
M  V30 1284 C 124.826 -1.9239 -1.99703 0
M  V30 1285 H 127.777 -1.38887 -0.767865 0
M  V30 1286 H 127.798 -1.5263 -3.48546 0
M  V30 1287 H 127.31 -3.02009 -2.43746 0
M  V30 1288 H 125.411 -0.859421 -3.62553 0
M  V30 1289 H 125.524 -2.71607 -3.94673 0
M  V30 1290 H 123.888 -1.36317 -2.15151 0
M  V30 1291 H 124.671 -2.97573 -1.71188 0
M  V30 1292 N 127.117 1.15442 -1.07289 0
M  V30 1293 C 128.394 1.82306 -0.708792 0
M  V30 1294 C 128.774 1.94991 0.808807 0
M  V30 1295 O 128.122 1.50085 1.72298 0
M  V30 1296 C 128.332 3.18695 -1.42247 0
M  V30 1297 C 129.68 3.94341 -1.57417 0
M  V30 1298 O 130.704 3.28247 -1.38319 0
M  V30 1299 O 129.563 5.12839 -1.88834 0
M  V30 1300 H 126.657 0.787628 -0.252132 0
M  V30 1301 H 129.203 1.22559 -1.17377 0
M  V30 1302 H 127.975 3.04557 -2.45684 0
M  V30 1303 H 127.598 3.86128 -0.948223 0
M  V30 1304 N 128.595 0.856903 1.32268 0
M  V30 1305 C 129.842 0.461386 1.97174 0
M  V30 1306 C 130.17 -0.983491 1.67803 0
M  V30 1307 O 129.425 -1.70541 0.959903 0
M  V30 1308 C 129.724 0.649919 3.51441 0
M  V30 1309 C 129.39 2.0656 4.00804 0
M  V30 1310 C 128.052 2.45279 4.13995 0
M  V30 1311 C 130.404 2.98947 4.26943 0
M  V30 1312 C 127.732 3.75653 4.50668 0
M  V30 1313 C 130.084 4.28822 4.65075 0
M  V30 1314 C 128.748 4.67472 4.76472 0
M  V30 1315 H 128.018 0.168833 0.72151 0
M  V30 1316 H 130.665 1.08739 1.57633 0
M  V30 1317 H 128.97 -0.0593018 3.91755 0
M  V30 1318 H 130.667 0.32391 3.9969 0
M  V30 1319 H 127.257 1.75495 3.91024 0
M  V30 1320 H 131.441 2.70265 4.16258 0
M  V30 1321 H 126.697 4.05379 4.57688 0
M  V30 1322 H 130.871 5.0047 4.84255 0
M  V30 1323 H 128.498 5.68539 5.04646 0
M  V30 1324 N 130.073 -1.45103 0.615059 0
M  V30 1325 C 131.298 -2.07064 0.117988 0
M  V30 1326 C 131.723 -1.4554 -1.19163 0
M  V30 1327 O 131.081 -0.550855 -1.72729 0
M  V30 1328 C 131.129 -3.606 -0.000288387 0
M  V30 1329 O 130.233 -3.98847 -1.04856 0
M  V30 1330 H 129.574 -0.659467 0.0774581 0
M  V30 1331 H 132.104 -1.86236 0.847186 0
M  V30 1332 H 132.114 -4.07529 -0.196091 0
M  V30 1333 H 130.789 -4.04765 0.955932 0
M  V30 1334 H 129.366 -3.63577 -0.828619 0
M  V30 1335 N 131.551 -0.354651 -1.53558 0
M  V30 1336 C 132.461 0.50515 -2.29097 0
M  V30 1337 C 133.477 1.10223 -1.34636 0
M  V30 1338 O 134.653 1.11553 -1.67684 0
M  V30 1339 C 131.718 1.63479 -3.05738 0
M  V30 1340 C 130.779 1.06636 -4.15845 0
M  V30 1341 C 130.012 2.14217 -4.88822 0
M  V30 1342 O 130.235 3.35137 -4.61562 0
M  V30 1343 O 129.169 1.77887 -5.75013 0
M  V30 1344 H 132.995 -0.109237 -3.03503 0
M  V30 1345 H 130.58 -0.119357 -1.48922 0
M  V30 1346 H 132.462 2.2918 -3.5363 0
M  V30 1347 H 131.137 2.23478 -2.34178 0
M  V30 1348 H 130.044 0.373565 -3.7223 0
M  V30 1349 H 131.377 0.511081 -4.89539 0
M  V30 1350 N 133.029 1.57378 -0.0835403 0
M  V30 1351 C 134.259 1.97975 0.590713 0
M  V30 1352 C 134.667 0.961083 1.62972 0
M  V30 1353 O 134.01 -0.0590879 1.83605 0
M  V30 1354 C 134.072 3.34915 1.3066 0
M  V30 1355 C 133.736 4.55069 0.419698 0
M  V30 1356 C 134.733 5.18868 -0.32749 0
M  V30 1357 C 132.418 5.0114 0.341137 0
M  V30 1358 C 134.412 6.27098 -1.14134 0
M  V30 1359 C 132.099 6.0924 -0.476374 0
M  V30 1360 C 133.097 6.72083 -1.21627 0
M  V30 1361 O 132.785 7.781 -2.02028 0
M  V30 1362 H 132.517 0.655818 0.163947 0
M  V30 1363 H 135.071 2.04807 -0.156021 0
M  V30 1364 H 133.301 3.24733 2.09966 0
M  V30 1365 H 134.99 3.60037 1.87424 0
M  V30 1366 H 135.756 4.84211 -0.276459 0
M  V30 1367 H 131.635 4.51996 0.90668 0
M  V30 1368 H 135.179 6.7608 -1.71935 0
M  V30 1369 H 131.076 6.43329 -0.528927 0
M  V30 1370 H 131.844 7.95034 -1.94586 0
M  V30 1371 N 134.507 -0.190092 1.56449 0
M  V30 1372 C 135.923 -0.54113 1.50146 0
M  V30 1373 C 136.123 -1.85603 0.784465 0
M  V30 1374 O 135.179 -2.5024 0.337051 0
M  V30 1375 C 136.492 -0.591241 2.9483 0
M  V30 1376 C 138.04 -0.679732 3.0553 0
M  V30 1377 C 138.515 -0.760908 4.51635 0
M  V30 1378 N 140.006 -0.824302 4.55806 0
M  V30 1379 C 140.741 -0.907365 5.66175 0
M  V30 1380 N 140.237 -0.952422 6.86222 0
M  V30 1381 N 142.03 -0.94494 5.541 0
M  V30 1382 H 134.181 0.67235 2.01478 0
M  V30 1383 H 136.444 0.240127 0.917084 0
M  V30 1384 H 136.15 0.305905 3.50367 0
M  V30 1385 H 136.024 -1.44422 3.48457 0
M  V30 1386 H 138.411 -1.56731 2.50039 0
M  V30 1387 H 138.492 0.199549 2.5502 0
M  V30 1388 H 138.136 0.122336 5.07753 0
M  V30 1389 H 138.066 -1.65606 4.99882 0
M  V30 1390 H 140.557 -0.798526 3.69367 0
M  V30 1391 H 140.87 -1.01645 7.66086 0
M  V30 1392 H 139.215 -0.921014 6.8887 0
M  V30 1393 H 142.406 -0.906612 4.59236 0
M  V30 1394 H 142.579 -1.00622 6.4014 0
M  V30 1395 N 135.985 -1.50799 -0.457987 0
M  V30 1396 C 137.401 -1.38515 -0.792819 0
M  V30 1397 C 137.601 -0.451409 -1.96379 0
M  V30 1398 O 136.657 0.10112 -2.52297 0
M  V30 1399 C 137.97 -2.80149 -1.09258 0
M  V30 1400 C 139.518 -2.89156 -1.19825 0
M  V30 1401 C 139.993 -4.31651 -1.53106 0
M  V30 1402 N 141.484 -4.34662 -1.60072 0
M  V30 1403 C 142.219 -5.41928 -1.87354 0
M  V30 1404 N 141.715 -6.59384 -2.12568 0
M  V30 1405 N 143.508 -5.29385 -1.88965 0
M  V30 1406 H 135.659 -2.10073 0.313511 0
M  V30 1407 H 137.922 -0.944803 0.0777862 0
M  V30 1408 H 137.628 -3.50374 -0.305084 0
M  V30 1409 H 137.502 -3.18204 -2.02549 0
M  V30 1410 H 139.889 -2.19141 -1.97639 0
M  V30 1411 H 139.97 -2.54626 -0.244821 0
M  V30 1412 H 139.614 -5.02208 -0.758266 0
M  V30 1413 H 139.544 -4.63678 -2.49621 0
M  V30 1414 H 142.035 -3.49973 -1.42573 0
M  V30 1415 H 142.348 -7.36934 -2.32696 0
M  V30 1416 H 140.693 -6.62535 -2.09933 0
M  V30 1417 H 143.884 -4.36616 -1.68772 0
M  V30 1418 H 144.057 -6.13066 -2.09891 0
M  V30 1419 N 137.463 0.71206 -1.40597 0
M  V30 1420 C 138.393 1.83889 -1.43899 0
M  V30 1421 C 139.374 1.67442 -0.299504 0
M  V30 1422 O 140.559 1.87421 -0.508624 0
M  V30 1423 C 137.689 3.21877 -1.30431 0
M  V30 1424 C 136.643 3.53002 -2.42019 0
M  V30 1425 C 135.969 4.90172 -2.13626 0
M  V30 1426 C 137.269 3.53643 -3.84362 0
M  V30 1427 H 138.963 1.81383 -2.38203 0
M  V30 1428 H 136.509 0.871237 -1.14654 0
M  V30 1429 H 138.462 4.00404 -1.31357 0
M  V30 1430 H 137.186 3.24968 -0.326049 0
M  V30 1431 H 135.845 2.76818 -2.40349 0
M  V30 1432 H 135.493 4.89869 -1.14182 0
M  V30 1433 H 135.193 5.11962 -2.88389 0
M  V30 1434 H 136.717 5.71028 -2.1624 0
M  V30 1435 H 138.131 4.22203 -3.87837 0
M  V30 1436 H 136.528 3.86961 -4.58673 0
M  V30 1437 H 137.598 2.52954 -4.13693 0
M  V30 1438 N 138.941 1.26152 0.944643 0
M  V30 1439 C 139.851 1.09176 2.07648 0
M  V30 1440 C 140.867 0.0261935 1.7398 0
M  V30 1441 O 142.043 0.229208 2.00091 0
M  V30 1442 C 139.108 0.722915 3.39079 0
M  V30 1443 C 138.169 1.86752 3.86552 0
M  V30 1444 C 137.402 1.51617 5.11711 0
M  V30 1445 O 137.625 0.416331 5.68879 0
M  V30 1446 O 136.559 2.34975 5.54139 0
M  V30 1447 H 140.385 2.0412 2.24875 0
M  V30 1448 H 137.97 1.05182 1.061 0
M  V30 1449 H 139.852 0.529787 4.18056 0
M  V30 1450 H 138.527 -0.197159 3.23099 0
M  V30 1451 H 137.434 2.11558 3.08535 0
M  V30 1452 H 138.767 2.76719 4.07047 0
M  V30 1453 N 140.419 -1.14872 1.07899 0
M  V30 1454 C 141.665 -1.86064 0.806725 0
M  V30 1455 C 141.998 -1.82434 -0.665706 0
M  V30 1456 O 141.273 -1.25138 -1.48899 0
M  V30 1457 C 141.556 -3.34929 1.32267 0
M  V30 1458 C 141.409 -3.47161 2.86006 0
M  V30 1459 C 142.728 -4.29863 0.943717 0
M  V30 1460 H 139.847 -0.675591 0.294526 0
M  V30 1461 H 142.489 -1.34925 1.33773 0
M  V30 1462 H 140.639 -3.78611 0.870974 0
M  V30 1463 H 142.311 -3.12302 3.39507 0
M  V30 1464 H 140.554 -2.88539 3.23925 0
M  V30 1465 H 141.225 -4.51777 3.17177 0
M  V30 1466 H 143.701 -3.9417 1.33302 0
M  V30 1467 H 142.577 -5.32494 1.33198 0
M  V30 1468 H 142.838 -4.41846 -0.149796 0
M  V30 1469 N 141.898 -0.863906 -1.31812 0
M  V30 1470 C 142.828 -0.330843 -2.31144 0
M  V30 1471 C 143.809 0.575005 -1.60087 0
M  V30 1472 O 144.994 0.493304 -1.8783 0
M  V30 1473 C 142.124 0.47374 -3.44054 0
M  V30 1474 C 141.078 -0.338481 -4.26659 0
M  V30 1475 C 140.404 0.591412 -5.31419 0
M  V30 1476 C 141.704 -1.56926 -4.98168 0
M  V30 1477 H 143.398 -1.16086 -2.75979 0
M  V30 1478 H 140.944 -0.559657 -1.32679 0
M  V30 1479 H 142.897 0.857143 -4.12591 0
M  V30 1480 H 141.621 1.33721 -2.9797 0
M  V30 1481 H 140.28 -0.703754 -3.59782 0
M  V30 1482 H 139.928 1.45199 -4.81587 0
M  V30 1483 H 139.628 0.0519022 -5.87577 0
M  V30 1484 H 141.152 0.97179 -6.02817 0
M  V30 1485 H 142.566 -1.25764 -5.59336 0
M  V30 1486 H 140.963 -2.04739 -5.64094 0
M  V30 1487 H 142.033 -2.32544 -4.25501 0
M  V30 1488 N 143.376 1.44774 -0.622745 0
M  V30 1489 C 144.653 1.95522 -0.0551974 0
M  V30 1490 C 145.033 1.5649 1.41683 0
M  V30 1491 O 144.381 0.834848 2.12703 0
M  V30 1492 C 144.591 3.4796 -0.269242 0
M  V30 1493 C 145.939 4.24306 -0.158014 0
M  V30 1494 O 146.963 3.55637 -0.200162 0
M  V30 1495 O 145.822 5.46471 -0.0558693 0
M  V30 1496 H 142.916 0.826556 0.0271015 0
M  V30 1497 H 145.462 1.54866 -0.693864 0
M  V30 1498 H 144.234 3.6939 -1.29099 0
M  V30 1499 H 143.857 3.95543 0.403966 0
M  V30 1500 N 144.854 0.36279 1.53368 0
M  V30 1501 C 146.079 -0.231226 2.06107 0
M  V30 1502 C 146.504 -1.419 1.23474 0
M  V30 1503 O 145.862 -1.79524 0.253128 0
M  V30 1504 C 145.91 -0.605523 3.5548 0
M  V30 1505 O 145.014 -1.70312 3.7559 0
M  V30 1506 H 144.355 -0.034327 0.663112 0
M  V30 1507 H 146.885 0.522584 1.97814 0
M  V30 1508 H 146.895 -0.877314 3.98456 0
M  V30 1509 H 145.57 0.263004 4.15068 0
M  V30 1510 H 144.147 -1.4271 3.44512 0
M  V30 1511 N 146.332 -1.57332 0.0918853 0
M  V30 1512 C 147.56 -1.98574 -0.581048 0
M  V30 1513 C 147.975 -0.970903 -1.61923 0
M  V30 1514 O 147.332 0.0399054 -1.82456 0
M  V30 1515 C 147.383 -3.39872 -1.23164 0
M  V30 1516 O 147.104 -4.37469 -0.234989 0
M  V30 1517 C 148.605 -3.96099 -1.99049 0
M  V30 1518 H 145.825 -0.65261 -0.156018 0
M  V30 1519 H 148.369 -2.0379 0.170225 0
M  V30 1520 H 146.524 -3.35679 -1.93386 0
M  V30 1521 H 146.938 -5.19751 -0.70418 0
M  V30 1522 H 148.412 -4.97127 -2.39934 0
M  V30 1523 H 148.889 -3.3374 -2.85507 0
M  V30 1524 H 149.495 -4.03755 -1.3365 0
M  V30 1525 N 147.81 0.181792 -1.56548 0
M  V30 1526 C 148.757 1.22521 -1.95595 0
M  V30 1527 C 149.727 1.4454 -0.818373 0
M  V30 1528 O 150.912 1.57454 -1.07763 0
M  V30 1529 C 148.052 2.56193 -2.31212 0
M  V30 1530 C 147.165 2.41641 -3.58097 0
M  V30 1531 C 146.3 3.68108 -3.82975 0
M  V30 1532 C 145.339 3.48445 -5.03242 0
M  V30 1533 N 144.476 4.66956 -5.24306 0
M  V30 1534 H 149.316 0.885226 -2.84548 0
M  V30 1535 H 146.853 0.425718 -1.40805 0
M  V30 1536 H 148.811 3.34088 -2.49882 0
M  V30 1537 H 147.441 2.88208 -1.45382 0
M  V30 1538 H 146.493 1.54976 -3.474 0
M  V30 1539 H 147.805 2.23052 -4.46149 0
M  V30 1540 H 146.959 4.54441 -4.01956 0
M  V30 1541 H 145.698 3.89666 -2.93278 0
M  V30 1542 H 144.703 2.60499 -4.8417 0
M  V30 1543 H 145.928 3.2832 -5.9446 0
M  V30 1544 H 143.874 4.88752 -4.37559 0
M  V30 1545 H 143.791 4.51242 -6.06561 0
M  V30 1546 H 145.059 5.54602 -5.47756 0
M  V30 1547 N 149.288 1.51039 0.449983 0
M  V30 1548 C 150.513 1.6715 1.22783 0
M  V30 1549 C 150.938 0.363081 1.84563 0
M  V30 1550 O 150.296 -0.675433 1.68249 0
M  V30 1551 C 150.344 2.77985 2.29689 0
M  V30 1552 O 149.448 2.40707 3.34864 0
M  V30 1553 H 148.789 0.557746 0.360299 0
M  V30 1554 H 151.319 1.97535 0.533005 0
M  V30 1555 H 151.329 3.01693 2.74673 0
M  V30 1556 H 150.004 3.72935 1.84098 0
M  V30 1557 H 148.581 2.27523 2.95445 0
M  V30 1558 N 150.766 -0.704594 1.40972 0
M  V30 1559 C 151.991 -1.49858 1.43378 0
M  V30 1560 C 152.416 -1.88061 0.038184 0
M  V30 1561 O 151.774 -1.5402 -0.956425 0
M  V30 1562 C 151.822 -2.74333 2.34038 0
M  V30 1563 O 150.926 -3.7147 1.7912 0
M  V30 1564 H 150.267 -0.45139 0.486974 0
M  V30 1565 H 152.797 -0.866832 1.8533 0
M  V30 1566 H 152.807 -3.22741 2.49604 0
M  V30 1567 H 151.482 -2.45863 3.35446 0
M  V30 1568 H 150.059 -3.30363 1.72958 0
M  V30 1569 N 152.244 -1.26651 -0.937939 0
M  V30 1570 C 153.66 -1.03834 -1.21205 0
M  V30 1571 C 153.86 0.234502 -2.00131 0
M  V30 1572 O 152.916 0.942767 -2.3424 0
M  V30 1573 C 154.229 -2.27167 -1.97017 0
M  V30 1574 C 155.777 -2.32101 -2.09996 0
M  V30 1575 C 156.252 -3.55136 -2.8921 0
M  V30 1576 N 157.743 -3.55632 -2.96783 0
M  V30 1577 C 158.478 -4.475 -3.58512 0
M  V30 1578 N 157.974 -5.4966 -4.21717 0
M  V30 1579 N 159.767 -4.35145 -3.55816 0
M  V30 1580 H 151.918 -2.08398 -0.410391 0
M  V30 1581 H 154.181 -0.916031 -0.244114 0
M  V30 1582 H 153.887 -3.19765 -1.46434 0
M  V30 1583 H 153.761 -2.31672 -2.97671 0
M  V30 1584 H 156.148 -1.40015 -2.59769 0
M  V30 1585 H 156.229 -2.31605 -1.08594 0
M  V30 1586 H 155.873 -4.47553 -2.40123 0
M  V30 1587 H 155.803 -3.5288 -3.90875 0
M  V30 1588 H 158.294 -2.81743 -2.51852 0
M  V30 1589 H 158.607 -6.15943 -4.66727 0
M  V30 1590 H 156.952 -5.53514 -4.20294 0
M  V30 1591 H 160.143 -3.5455 -3.05634 0
M  V30 1592 H 160.316 -5.06934 -4.03636 0
M  V30 1593 N 153.722 1.14298 -1.08507 0
M  V30 1594 C 154.632 2.23027 -0.727753 0
M  V30 1595 C 155.648 1.71952 0.26619 0
M  V30 1596 O 156.824 2.011 0.109882 0
M  V30 1597 C 153.889 3.46403 -0.143541 0
M  V30 1598 C 152.95 4.12413 -1.19223 0
M  V30 1599 C 152.183 5.29899 -0.635798 0
M  V30 1600 O 152.406 5.67796 0.544393 0
M  V30 1601 O 151.34 5.85717 -1.38634 0
M  V30 1602 H 155.166 2.55945 -1.63481 0
M  V30 1603 H 152.751 1.22248 -0.858817 0
M  V30 1604 H 154.633 4.21018 0.179404 0
M  V30 1605 H 153.308 3.15206 0.736659 0
M  V30 1606 H 152.215 3.39667 -1.56772 0
M  V30 1607 H 153.548 4.47718 -2.04474 0
M  V30 1608 N 155.201 0.870884 1.31352 0
M  V30 1609 C 156.426 0.495957 2.01383 0
M  V30 1610 C 156.851 -0.904324 1.64935 0
M  V30 1611 O 156.209 -1.59687 0.858466 0
M  V30 1612 C 156.257 0.661433 3.54482 0
M  V30 1613 O 155.361 -0.298851 4.11316 0
M  V30 1614 H 154.702 0.197158 0.634054 0
M  V30 1615 H 157.232 1.17455 1.67527 0
M  V30 1616 H 157.242 0.555072 4.04207 0
M  V30 1617 H 155.917 1.68246 3.8035 0
M  V30 1618 H 154.494 -0.147368 3.72609 0
M  V30 1619 N 156.679 -1.44442 0.630414 0
M  V30 1620 C 157.904 -2.06927 0.139944 0
M  V30 1621 C 158.329 -1.46795 -1.17613 0
M  V30 1622 O 157.687 -0.569144 -1.72135 0
M  V30 1623 C 157.735 -3.6058 0.0379581 0
M  V30 1624 O 156.839 -3.99937 -1.0062 0
M  V30 1625 H 156.18 -0.658608 0.0844483 0
M  V30 1626 H 158.71 -1.85327 0.866891 0
M  V30 1627 H 158.72 -4.07714 -0.152856 0
M  V30 1628 H 157.395 -4.03728 0.998809 0
M  V30 1629 H 155.972 -3.64436 -0.79001 0
M  V30 1630 N 158.157 -0.370918 -1.53173 0
M  V30 1631 C 159.067 0.480823 -2.2962 0
M  V30 1632 C 160.083 1.08789 -1.35798 0
M  V30 1633 O 161.259 1.09768 -1.68858 0
M  V30 1634 C 158.324 1.60227 -3.07454 0
M  V30 1635 C 157.385 1.0222 -4.16953 0
M  V30 1636 C 156.618 2.0902 -4.91066 0
M  V30 1637 O 156.841 3.30222 -4.65091 0
M  V30 1638 O 155.775 1.71778 -5.76867 0
M  V30 1639 H 159.601 -0.141421 -3.03371 0
M  V30 1640 H 157.186 -0.135146 -1.48787 0
M  V30 1641 H 159.068 2.25417 -3.56041 0
M  V30 1642 H 157.743 2.20982 -2.36535 0
M  V30 1643 H 156.65 0.334064 -3.72605 0
M  V30 1644 H 157.983 0.459131 -4.90054 0
M  V30 1645 N 159.635 1.57281 -0.100228 0
M  V30 1646 C 160.598 2.13158 0.842398 0
M  V30 1647 C 161.598 1.06202 1.20738 0
M  V30 1648 O 162.788 1.32066 1.13597 0
M  V30 1649 C 159.92 2.65639 2.13655 0
M  V30 1650 H 161.113 2.97766 0.357114 0
M  V30 1651 H 158.666 1.5559 0.148823 0
M  V30 1652 H 159.401 1.84566 2.66657 0
M  V30 1653 H 159.186 3.43844 1.88451 0
M  V30 1654 H 160.676 3.08846 2.81077 0
M  V30 1655 N 161.113 -0.173488 1.56642 0
M  V30 1656 C 162.529 -0.525174 1.50712 0
M  V30 1657 C 162.729 -1.8476 0.804107 0
M  V30 1658 O 161.785 -2.49869 0.363574 0
M  V30 1659 C 163.098 -0.559937 2.95441 0
M  V30 1660 C 164.646 -0.647288 3.06234 0
M  V30 1661 C 165.121 -0.712963 4.52417 0
M  V30 1662 N 166.612 -0.775911 4.56655 0
M  V30 1663 C 167.347 -0.847264 5.67106 0
M  V30 1664 N 166.843 -0.879585 6.87194 0
M  V30 1665 N 168.636 -0.886117 5.55071 0
M  V30 1666 H 160.787 0.693681 2.00753 0
M  V30 1667 H 163.05 0.249841 0.914485 0
M  V30 1668 H 162.756 0.343049 3.50023 0
M  V30 1669 H 162.63 -1.40718 3.49969 0
M  V30 1670 H 165.017 -1.5407 2.51687 0
M  V30 1671 H 165.098 0.226586 2.54794 0
M  V30 1672 H 164.742 0.176183 5.07594 0
M  V30 1673 H 164.672 -1.60295 5.0161 0
M  V30 1674 H 167.163 -0.759304 3.70193 0
M  V30 1675 H 167.476 -0.935144 7.67121 0
M  V30 1676 H 165.821 -0.847898 6.89808 0
M  V30 1677 H 169.012 -0.857853 4.60172 0
M  V30 1678 H 169.185 -0.938263 6.41171 0
M  V30 1679 N 162.591 -1.51276 -0.441967 0
M  V30 1680 C 163.538 -1.72256 -1.53612 0
M  V30 1681 C 164.508 -0.564164 -1.56225 0
M  V30 1682 O 165.693 -0.798074 -1.73307 0
M  V30 1683 C 162.833 -1.84932 -2.91366 0
M  V30 1684 C 161.946 -3.12459 -2.98317 0
M  V30 1685 C 161.081 -3.15758 -4.27166 0
M  V30 1686 C 160.12 -4.37619 -4.27967 0
M  V30 1687 N 159.257 -4.38493 -5.48333 0
M  V30 1688 H 164.097 -2.65654 -1.35026 0
M  V30 1689 H 161.634 -1.31662 -0.656009 0
M  V30 1690 H 163.592 -1.90263 -3.7129 0
M  V30 1691 H 162.222 -0.949461 -3.08521 0
M  V30 1692 H 161.274 -3.1646 -2.11086 0
M  V30 1693 H 162.586 -4.02382 -2.94771 0
M  V30 1694 H 161.74 -3.19979 -5.15459 0
M  V30 1695 H 160.479 -2.23715 -4.33362 0
M  V30 1696 H 159.484 -4.33579 -3.38067 0
M  V30 1697 H 160.709 -5.30921 -4.23438 0
M  V30 1698 H 158.655 -3.49318 -5.55259 0
M  V30 1699 H 158.572 -5.22219 -5.46647 0
M  V30 1700 H 159.84 -4.469 -6.38671 0
M  V30 1701 N 164.069 0.697108 -1.41344 0
M  V30 1702 C 165.317 1.45426 -1.40341 0
M  V30 1703 C 165.638 1.94996 -0.0128787 0
M  V30 1704 O 164.908 1.71599 0.945027 0
M  V30 1705 H 163.488 0.539594 -0.516573 0
M  V30 1706 H 166.15 0.825201 -1.76569 0
M  V30 1707 H 165.246 2.31817 -2.08967 0
M  V30 1708 N 165.547 1.27147 0.931209 0
M  V30 1709 C 166.794 1.13278 1.67852 0
M  V30 1710 C 167.122 -0.32204 1.91815 0
M  V30 1711 O 166.377 -1.25224 1.50391 0
M  V30 1712 C 166.676 1.8579 3.05314 0
M  V30 1713 C 166.342 3.35657 3.01073 0
M  V30 1714 C 165.004 3.76536 2.99623 0
M  V30 1715 C 167.356 4.31299 2.92627 0
M  V30 1716 C 164.684 5.11426 2.87506 0
M  V30 1717 C 167.036 5.66242 2.82051 0
M  V30 1718 C 165.7 6.06418 2.7895 0
M  V30 1719 H 164.97 0.414515 0.614214 0
M  V30 1720 H 167.617 1.57712 1.08624 0
M  V30 1721 H 165.922 1.33854 3.68226 0
M  V30 1722 H 167.619 1.72491 3.62005 0
M  V30 1723 H 164.209 3.03146 3.02986 0
M  V30 1724 H 168.393 4.00692 2.92848 0
M  V30 1725 H 163.649 5.41705 2.83489 0
M  V30 1726 H 167.823 6.40026 2.74481 0
M  V30 1727 H 165.45 7.10895 2.69318 0
M  V30 1728 N 167.025 -1.13721 1.09112 0
M  V30 1729 C 168.25 -1.89314 0.847053 0
M  V30 1730 C 168.675 -1.78416 -0.595774 0
M  V30 1731 O 168.033 -1.12942 -1.41823 0
M  V30 1732 C 168.081 -3.3701 1.28284 0
M  V30 1733 O 167.185 -4.10054 0.439267 0
M  V30 1734 H 166.526 -0.588745 0.307044 0
M  V30 1735 H 169.056 -1.43902 1.45442 0
M  V30 1736 H 169.066 -3.87834 1.26683 0
M  V30 1737 H 167.741 -3.4426 2.33363 0
M  V30 1738 H 166.318 -3.69266 0.519312 0
M  V30 1739 N 168.503 -0.877838 -1.30888 0
M  V30 1740 C 169.733 -0.506678 -2.00291 0
M  V30 1741 C 170.141 0.907449 -1.66018 0
M  V30 1742 O 169.484 1.60719 -0.88967 0
M  V30 1743 C 169.546 -0.59323 -3.54572 0
M  V30 1744 C 169.21 -1.97038 -4.12341 0
M  V30 1745 C 170.207 -2.93889 -4.28865 0
M  V30 1746 C 167.892 -2.27383 -4.47886 0
M  V30 1747 C 169.886 -4.19224 -4.80136 0
M  V30 1748 C 167.573 -3.52965 -4.98857 0
M  V30 1749 C 168.571 -4.48701 -5.14934 0
M  V30 1750 O 168.259 -5.72056 -5.64808 0
M  V30 1751 H 167.991 -0.1951 -0.647234 0
M  V30 1752 H 170.545 -1.18301 -1.6791 0
M  V30 1753 H 168.775 0.140057 -3.86446 0
M  V30 1754 H 170.464 -0.234372 -4.05223 0
M  V30 1755 H 171.23 -2.71756 -4.01714 0
M  V30 1756 H 167.109 -1.53639 -4.34645 0
M  V30 1757 H 170.653 -4.93956 -4.92599 0
M  V30 1758 H 166.55 -3.74939 -5.25443 0
M  V30 1759 H 167.318 -5.74337 -5.83163 0
M  V30 1760 N 169.982 1.44106 -0.638065 0
M  V30 1761 C 170.912 2.33448 0.0494287 0
M  V30 1762 C 171.893 1.48606 0.827672 0
M  V30 1763 O 173.078 1.77308 0.792173 0
M  V30 1764 C 170.208 3.31771 1.02691 0
M  V30 1765 C 169.162 4.26485 0.359823 0
M  V30 1766 C 168.488 5.14729 1.44769 0
M  V30 1767 C 169.788 5.17056 -0.738296 0
M  V30 1768 H 171.482 2.91183 -0.696636 0
M  V30 1769 H 169.028 1.40014 -0.336456 0
M  V30 1770 H 170.981 3.93161 1.51666 0
M  V30 1771 H 169.705 2.7226 1.80395 0
M  V30 1772 H 168.364 3.66437 -0.10934 0
M  V30 1773 H 168.012 4.51566 2.21578 0
M  V30 1774 H 167.712 5.78913 1.00668 0
M  V30 1775 H 169.236 5.78991 1.93911 0
M  V30 1776 H 170.65 5.72342 -0.331354 0
M  V30 1777 H 169.047 5.89879 -1.10286 0
M  V30 1778 H 170.117 4.57652 -1.60258 0
M  V30 1779 N 171.46 0.379036 1.52974 0
M  V30 1780 C 172.706 -0.206727 2.01744 0
M  V30 1781 C 173.039 -1.47314 1.26539 0
M  V30 1782 O 172.314 -1.91084 0.362903 0
M  V30 1783 C 172.597 -0.485066 3.56818 0
M  V30 1784 C 172.45 0.795919 4.42702 0
M  V30 1785 C 173.769 -1.28003 4.21074 0
M  V30 1786 H 170.888 -0.0736607 0.73331 0
M  V30 1787 H 173.53 0.506581 1.83122 0
M  V30 1788 H 171.68 -1.09272 3.72816 0
M  V30 1789 H 173.352 1.43307 4.38476 0
M  V30 1790 H 171.595 1.41344 4.10127 0
M  V30 1791 H 172.266 0.555947 5.49193 0
M  V30 1792 H 174.742 -0.765867 4.08991 0
M  V30 1793 H 173.618 -1.44352 5.29579 0
M  V30 1794 H 173.879 -2.29236 3.78026 0
M  V30 1795 N 172.938 -1.57226 0.108567 0
M  V30 1796 C 174.166 -1.99179 -0.559954 0
M  V30 1797 C 174.581 -0.988022 -1.60884 0
M  V30 1798 O 173.938 0.0205512 -1.82488 0
M  V30 1799 C 173.989 -3.41159 -1.19552 0
M  V30 1800 O 173.71 -4.37694 -0.188577 0
M  V30 1801 C 175.211 -3.98188 -1.94837 0
M  V30 1802 H 172.431 -0.654228 -0.149088 0
M  V30 1803 H 174.975 -2.03598 0.19183 0
M  V30 1804 H 173.13 -3.37711 -1.89815 0
M  V30 1805 H 173.544 -5.20469 -0.649014 0
M  V30 1806 H 175.018 -4.99644 -2.34648 0
M  V30 1807 H 175.495 -3.3675 -2.81951 0
M  V30 1808 H 176.101 -4.0515 -1.2936 0
M  V30 1809 N 174.416 0.165178 -1.56732 0
M  V30 1810 C 175.664 0.879068 -1.8198 0
M  V30 1811 C 175.985 1.82514 -0.686561 0
M  V30 1812 O 175.255 1.93694 0.293146 0
M  V30 1813 H 173.835 0.327608 -0.671329 0
M  V30 1814 H 176.497 0.163526 -1.94213 0
M  V30 1815 H 175.593 1.45228 -2.76252 0
M  V30 1816 N 175.894 1.51508 0.433938 0
M  V30 1817 C 177.14 1.64588 1.18484 0
M  V30 1818 C 177.473 0.362666 1.90784 0
M  V30 1819 O 176.748 -0.637892 1.83742 0
M  V30 1820 C 177.031 2.85149 2.19913 0
M  V30 1821 C 176.884 4.23456 1.51674 0
M  V30 1822 C 178.203 3.01227 3.20858 0
M  V30 1823 H 175.322 0.598994 0.429389 0
M  V30 1824 H 177.964 1.84002 0.473647 0
M  V30 1825 H 176.114 2.68729 2.80566 0
M  V30 1826 H 177.786 4.51552 0.943322 0
M  V30 1827 H 176.029 4.25998 0.819035 0
M  V30 1828 H 176.7 5.03812 2.2556 0
M  V30 1829 H 179.176 3.16382 2.70263 0
M  V30 1830 H 178.052 3.87141 3.89118 0
M  V30 1831 H 178.313 2.13447 3.8716 0
M  V30 1832 N 177.372 -0.689602 1.41712 0
M  V30 1833 C 178.6 -1.47827 1.44758 0
M  V30 1834 C 179.015 -1.88721 0.0545703 0
M  V30 1835 O 178.372 -1.57176 -0.927463 0
M  V30 1836 C 178.423 -2.73698 2.3616 0
M  V30 1837 O 178.144 -2.34524 3.7004 0
M  V30 1838 C 179.645 -3.67389 2.48072 0
M  V30 1839 H 176.865 -0.455357 0.49284 0
M  V30 1840 H 179.409 -0.848574 1.86063 0
M  V30 1841 H 177.564 -3.32891 1.98148 0
M  V30 1842 H 177.978 -3.15701 4.18847 0
M  V30 1843 H 179.452 -4.52475 3.16181 0
M  V30 1844 H 179.929 -4.12284 1.51388 0
M  V30 1845 H 180.535 -3.14097 2.86746 0
M  V30 1846 N 178.85 -1.27639 -0.924453 0
M  V30 1847 C 180.078 -1.16989 -1.70649 0
M  V30 1848 C 180.493 0.272869 -1.86818 0
M  V30 1849 O 179.85 1.18549 -1.38753 0
M  V30 1850 C 179.901 -1.85229 -3.10439 0
M  V30 1851 O 179.622 -3.23868 -2.95028 0
M  V30 1852 C 181.123 -1.80746 -4.04779 0
M  V30 1853 H 178.343 -0.406595 -0.53378 0
M  V30 1854 H 180.887 -1.68569 -1.15778 0
M  V30 1855 H 179.042 -1.37545 -3.6216 0
M  V30 1856 H 179.456 -3.57889 -3.83426 0
M  V30 1857 H 180.93 -2.33101 -5.00368 0
M  V30 1858 H 181.407 -0.777499 -4.32263 0
M  V30 1859 H 182.013 -2.28059 -3.58984 0
M  V30 1860 N 180.328 1.1314 -1.09713 0
M  V30 1861 C 181.574 1.84757 -0.836224 0
M  V30 1862 C 181.907 1.8347 0.636598 0
M  V30 1863 O 181.182 1.27491 1.46889 0
M  V30 1864 C 181.465 3.32782 -1.37578 0
M  V30 1865 C 181.318 3.42567 -2.91493 0
M  V30 1866 C 182.637 4.28307 -1.01198 0
M  V30 1867 H 179.756 0.67082 -0.305236 0
M  V30 1868 H 182.398 1.3278 -1.35903 0
M  V30 1869 H 180.548 3.77177 -0.931097 0
M  V30 1870 H 182.22 3.06862 -3.44432 0
M  V30 1871 H 180.463 2.83349 -3.28475 0
M  V30 1872 H 181.134 4.46674 -3.24324 0
M  V30 1873 H 183.61 3.91999 -1.39556 0
M  V30 1874 H 182.486 5.30307 -1.41653 0
M  V30 1875 H 182.747 4.42029 0.0794833 0
M  V30 1876 N 181.806 0.884767 1.30421 0
M  V30 1877 C 183.054 0.502112 1.95763 0
M  V30 1878 C 183.375 -0.951815 1.70192 0
M  V30 1879 O 182.645 -1.6692 1.0254 0
M  V30 1880 H 181.225 0.182694 0.724315 0
M  V30 1881 H 183.887 1.1278 1.58955 0
M  V30 1882 H 182.983 0.672188 3.04775 0
M  V30 1883 N 183.284 -1.43765 0.645699 0
M  V30 1884 C 184.53 -2.02197 0.156271 0
M  V30 1885 C 184.863 -1.50776 -1.22393 0
M  V30 1886 O 184.138 -0.697771 -1.81553 0
M  V30 1887 C 184.421 -3.59749 0.158872 0
M  V30 1888 C 184.274 -4.21419 1.57245 0
M  V30 1889 C 185.593 -4.37149 -0.50879 0
M  V30 1890 H 182.712 -0.734694 0.0582602 0
M  V30 1891 H 185.354 -1.71157 0.824951 0
M  V30 1892 H 183.504 -3.86325 -0.410525 0
M  V30 1893 H 185.176 -4.059 2.19186 0
M  V30 1894 H 183.419 -3.78356 2.122 0
M  V30 1895 H 184.09 -5.30482 1.52619 0
M  V30 1896 H 186.566 -4.16093 -0.024412 0
M  V30 1897 H 185.442 -5.4683 -0.476213 0
M  V30 1898 H 185.703 -4.12839 -1.58165 0
M  V30 1899 N 184.763 -0.387143 -1.52771 0
M  V30 1900 C 185.726 0.436939 -2.24997 0
M  V30 1901 C 186.726 0.991991 -1.26555 0
M  V30 1902 O 187.916 0.874335 -1.50669 0
M  V30 1903 C 185.048 1.61281 -3.00335 0
M  V30 1904 H 186.241 -0.195365 -2.99263 0
M  V30 1905 H 183.794 -0.139218 -1.55679 0
M  V30 1906 H 184.529 2.2826 -2.30364 0
M  V30 1907 H 184.314 1.22154 -3.72587 0
M  V30 1908 H 185.804 2.19629 -3.5518 0
M  V30 1909 N 186.241 1.57166 -0.116904 0
M  V30 1910 C 187.471 1.99184 0.548586 0
M  V30 1911 C 187.879 0.995436 1.60897 0
M  V30 1912 O 187.222 -0.0201293 1.83689 0
M  V30 1913 C 187.284 3.37611 1.23526 0
M  V30 1914 C 186.948 4.55857 0.323077 0
M  V30 1915 C 187.945 5.18056 -0.437476 0
M  V30 1916 C 185.63 5.01751 0.234761 0
M  V30 1917 C 187.624 6.24536 -1.2741 0
M  V30 1918 C 185.311 6.08093 -0.605496 0
M  V30 1919 C 186.309 6.69352 -1.35856 0
M  V30 1920 O 185.997 7.7364 -2.18487 0
M  V30 1921 H 185.729 0.659148 0.149999 0
M  V30 1922 H 188.283 2.0443 -0.199428 0
M  V30 1923 H 186.513 3.29113 2.0303 0
M  V30 1924 H 188.202 3.63932 1.79745 0
M  V30 1925 H 188.968 4.83516 -0.379105 0
M  V30 1926 H 184.847 4.53817 0.810601 0
M  V30 1927 H 188.391 6.72281 -1.86237 0
M  V30 1928 H 184.288 6.42063 -0.665268 0
M  V30 1929 H 185.056 7.90727 -2.11406 0
M  V30 1930 N 187.719 -0.156864 1.56817 0
M  V30 1931 C 188.682 -1.17781 1.96622 0
M  V30 1932 C 189.682 -1.36401 0.851555 0
M  V30 1933 O 190.872 -1.33561 1.11836 0
M  V30 1934 C 188.004 -2.54008 2.27361 0
M  V30 1935 H 189.197 -0.836564 2.87996 0
M  V30 1936 H 186.75 -0.39985 1.51099 0
M  V30 1937 H 187.485 -2.9312 1.38748 0
M  V30 1938 H 187.27 -2.41856 3.08623 0
M  V30 1939 H 188.76 -3.27558 2.59029 0
M  V30 1940 N 189.197 -1.51736 -0.425897 0
M  V30 1941 C 190.16 -1.73271 -1.50032 0
M  V30 1942 C 191.16 -0.602639 -1.4908 0
M  V30 1943 O 192.35 -0.87033 -1.509 0
M  V30 1944 C 189.482 -1.79969 -2.89523 0
M  V30 1945 H 190.675 -2.69172 -1.32237 0
M  V30 1946 H 188.228 -1.41899 -0.65532 0
M  V30 1947 H 188.963 -0.859241 -3.1271 0
M  V30 1948 H 188.748 -2.62109 -2.91619 0
M  V30 1949 H 190.238 -1.9843 -3.67444 0
M  V30 1950 N 190.675 0.682077 -1.42076 0
M  V30 1951 C 191.622 1.79578 -1.44984 0
M  V30 1952 C 192.592 1.6332 -0.302614 0
M  V30 1953 O 193.777 1.83978 -0.505633 0
M  V30 1954 C 190.917 3.1756 -1.35091 0
M  V30 1955 C 190.03 3.45156 -2.59791 0
M  V30 1956 C 189.165 4.72826 -2.42093 0
M  V30 1957 C 188.204 4.93433 -3.62202 0
M  V30 1958 N 187.341 6.12338 -3.43491 0
M  V30 1959 H 192.181 1.76427 -2.40161 0
M  V30 1960 H 189.718 0.861376 -1.19242 0
M  V30 1961 H 191.676 3.97287 -1.27354 0
M  V30 1962 H 190.306 3.19854 -0.435133 0
M  V30 1963 H 189.358 2.59736 -2.77923 0
M  V30 1964 H 190.67 3.5628 -3.49094 0
M  V30 1965 H 189.824 5.60631 -2.319 0
M  V30 1966 H 188.563 4.63973 -1.50268 0
M  V30 1967 H 187.568 4.04073 -3.72834 0
M  V30 1968 H 188.793 5.04136 -4.54998 0
M  V30 1969 H 186.739 6.04672 -2.54377 0
M  V30 1970 H 186.656 6.2429 -4.26377 0
M  V30 1971 H 187.924 7.02841 -3.37097 0
M  V30 1972 N 192.153 1.28127 0.917671 0
M  V30 1973 C 193.101 1.11569 2.04096 0
M  V30 1974 C 194.095 0.0360242 1.69362 0
M  V30 1975 O 195.301 0.194501 1.78946 0
M  V30 1976 H 191.676 0.344097 0.668656 0
M  V30 1977 H 193.647 2.06711 2.15205 0
M  V30 1978 C 192.396 0.790197 3.38602 0
M  V30 1979 H 191.719 1.61293 3.6582 0
M  V30 1980 H 193.159 0.714271 4.1794 0
M  V30 1981 C 191.618 -0.505897 3.3308 0
M  V30 1982 O 192.148 -1.53736 3.71117 0
M  V30 1983 N 190.354 -0.505193 2.86175 0
M  V30 1984 H 189.901 0.334621 2.55417 0
M  V30 1985 H 189.859 -1.37243 2.82863 0
M  V30 1986 N 193.631 -1.12557 1.10312 0
M  V30 1987 C 194.594 -2.16434 0.75424 0
M  V30 1988 C 195.594 -1.59278 -0.220685 0
M  V30 1989 O 196.784 -1.742 0.00230591 0
M  V30 1990 C 193.916 -3.40699 0.116987 0
M  V30 1991 H 195.109 -2.48811 1.67431 0
M  V30 1992 H 192.662 -1.27542 0.903475 0
M  V30 1993 H 193.397 -3.13921 -0.813877 0
M  V30 1994 H 193.182 -3.83459 0.818613 0
M  V30 1995 H 194.672 -4.17451 -0.111387 0
M  V30 1996 N 195.109 -0.891671 -1.2995 0
M  V30 1997 C 196.355 -0.514261 -1.96171 0
M  V30 1998 C 196.688 0.935506 -1.70182 0
M  V30 1999 O 195.963 1.66204 -1.01028 0
M  V30 2000 C 196.246 -0.797719 -3.51153 0
M  V30 2001 C 196.099 -2.2986 -3.86632 0
M  V30 2002 C 197.418 -0.278749 -4.39216 0
M  V30 2003 H 194.537 -0.188314 -0.712535 0
M  V30 2004 H 197.179 -1.11689 -1.53706 0
M  V30 2005 H 195.329 -0.284826 -3.87455 0
M  V30 2006 H 197.001 -2.88042 -3.60319 0
M  V30 2007 H 195.244 -2.76257 -3.34462 0
M  V30 2008 H 195.915 -2.44753 -4.94773 0
M  V30 2009 H 198.391 -0.717825 -4.09862 0
M  V30 2010 H 197.267 -0.506353 -5.46559 0
M  V30 2011 H 197.528 0.820266 -4.34424 0
M  V30 2012 N 196.587 1.43421 -0.653314 0
M  V30 2013 C 197.815 2.06163 -0.174491 0
M  V30 2014 C 198.23 1.48969 1.1599 0
M  V30 2015 O 197.587 0.621042 1.71608 0
M  V30 2016 C 197.638 3.61417 -0.0774865 0
M  V30 2017 O 197.359 4.16485 -1.35912 0
M  V30 2018 C 198.86 4.41235 0.427402 0
M  V30 2019 H 196.08 0.664946 -0.0899353 0
M  V30 2020 H 198.624 1.83924 -0.893988 0
M  V30 2021 H 196.779 3.82841 0.59257 0
M  V30 2022 H 197.193 5.10153 -1.21839 0
M  V30 2023 H 198.667 5.5021 0.44423 0
M  V30 2024 H 199.144 4.14268 1.45873 0
M  V30 2025 H 199.75 4.2478 -0.210167 0
M  V30 2026 N 198.065 0.39524 1.52563 0
M  V30 2027 C 198.997 -0.472201 2.24283 0
M  V30 2028 C 200.01 -1.02178 1.26742 0
M  V30 2029 O 201.199 -0.923097 1.52778 0
M  V30 2030 C 198.299 -1.66775 2.95024 0
M  V30 2031 C 197.472 -1.2445 4.19322 0
M  V30 2032 C 196.531 -2.30539 4.7301 0
M  V30 2033 O 195.557 -1.91702 5.35947 0
M  V30 2034 N 196.759 -3.6253 4.53379 0
M  V30 2035 H 199.524 0.142282 2.99362 0
M  V30 2036 H 197.085 0.2219 1.60372 0
M  V30 2037 H 199.077 -2.37283 3.27839 0
M  V30 2038 H 197.647 -2.18845 2.23217 0
M  V30 2039 H 196.867 -0.368069 3.92478 0
M  V30 2040 H 198.155 -0.938457 5.0007 0
M  V30 2041 H 197.553 -3.96841 4.03154 0
M  V30 2042 H 196.11 -4.29055 4.90668 0
M  V30 2043 N 199.544 -1.57102 0.125237 0
M  V30 2044 C 200.791 -1.95407 -0.531248 0
M  V30 2045 C 201.119 -1.0089 -1.66287 0
M  V30 2046 O 200.374 -0.0339431 -1.95671 0
M  V30 2047 C 200.673 -3.40096 -1.09862 0
M  V30 2048 C 200.339 -4.50815 -0.0876989 0
M  V30 2049 C 199.001 -4.80824 0.19026 0
M  V30 2050 C 201.353 -5.17724 0.600902 0
M  V30 2051 C 198.681 -5.75058 1.163 0
M  V30 2052 C 201.033 -6.13005 1.56231 0
M  V30 2053 C 199.697 -6.41403 1.8482 0
M  V30 2054 H 198.967 -0.715046 -0.194397 0
M  V30 2055 H 201.614 -1.90373 0.207463 0
M  V30 2056 H 199.919 -3.41855 -1.91422 0
M  V30 2057 H 201.616 -3.6705 -1.61478 0
M  V30 2058 H 198.206 -4.27444 -0.314528 0
M  V30 2059 H 202.39 -4.94691 0.399333 0
M  V30 2060 H 197.646 -5.95362 1.39117 0
M  V30 2061 H 201.82 -6.63934 2.10153 0
M  V30 2062 H 199.447 -7.14229 2.60349 0
M  V30 2063 N 201.022 0.148545 -1.56898 0
M  V30 2064 C 202.268 0.862694 -1.83536 0
M  V30 2065 C 202.601 1.80889 -0.706604 0
M  V30 2066 O 201.876 1.92328 0.289885 0
M  V30 2067 C 202.159 1.63853 -3.20662 0
M  V30 2068 C 202.012 0.713925 -4.44098 0
M  V30 2069 C 203.331 2.60133 -3.54991 0
M  V30 2070 H 200.45 0.312179 -0.667618 0
M  V30 2071 H 203.092 0.127953 -1.89569 0
M  V30 2072 H 201.242 2.26489 -3.1565 0
M  V30 2073 H 202.914 0.098686 -4.61194 0
M  V30 2074 H 201.157 0.0234019 -4.33794 0
M  V30 2075 H 201.828 1.29278 -5.36648 0
M  V30 2076 H 204.304 2.07616 -3.60603 0
M  V30 2077 H 203.18 3.11468 -4.51972 0
M  V30 2078 H 203.441 3.41417 -2.80868 0
M  V30 2079 N 202.5 1.5196 0.417844 0
M  V30 2080 C 203.725 1.69717 1.1921 0
M  V30 2081 C 204.15 0.402148 1.83751 0
M  V30 2082 O 203.508 -0.639593 1.69643 0
M  V30 2083 C 203.556 2.82794 2.2374 0
M  V30 2084 O 202.66 2.47756 3.29683 0
M  V30 2085 H 202.001 0.565263 0.348387 0
M  V30 2086 H 204.531 1.98621 0.490985 0
M  V30 2087 H 204.541 3.07452 2.68212 0
M  V30 2088 H 203.216 3.76756 1.76146 0
M  V30 2089 H 201.793 2.33739 2.90552 0
M  V30 2090 N 203.978 -0.674533 1.42435 0
M  V30 2091 C 205.203 -1.46784 1.46524 0
M  V30 2092 C 205.628 -1.87938 0.078066 0
M  V30 2093 O 204.986 -1.56014 -0.92354 0
M  V30 2094 C 205.034 -2.69307 2.39805 0
M  V30 2095 O 204.138 -3.67587 1.86959 0
M  V30 2096 H 203.479 -0.440959 0.496439 0
M  V30 2097 H 206.009 -0.827326 1.87127 0
M  V30 2098 H 206.019 -3.17374 2.56393 0
M  V30 2099 H 204.694 -2.38692 3.40586 0
M  V30 2100 H 203.271 -3.2662 1.79927 0
M  V30 2101 N 205.456 -1.28612 -0.910864 0
M  V30 2102 C 206.389 -1.07109 -2.01502 0
M  V30 2103 C 207.367 0.013706 -1.62594 0
M  V30 2104 O 208.551 -0.134796 -1.88017 0
M  V30 2105 C 205.678 -0.628255 -3.32822 0
M  V30 2106 C 204.724 -1.71012 -3.90714 0
M  V30 2107 S 205.557 -3.30676 -4.21205 0
M  V30 2108 C 206.713 -2.88234 -5.55583 0
M  V30 2109 H 206.946 -2.00591 -2.19432 0
M  V30 2110 H 204.479 -1.12633 -1.05609 0
M  V30 2111 H 206.437 -0.37946 -4.08742 0
M  V30 2112 H 205.098 0.28678 -3.12788 0
M  V30 2113 H 204.291 -1.35195 -4.85529 0
M  V30 2114 H 203.893 -1.91186 -3.21441 0
M  V30 2115 H 206.185 -2.34584 -6.35591 0
M  V30 2116 H 207.128 -3.81857 -5.96314 0
M  V30 2117 H 207.536 -2.26862 -5.16908 0
M  V30 2118 N 206.934 1.1197 -1.10907 0
M  V30 2119 C 208.159 1.87942 -0.877064 0
M  V30 2120 C 208.584 1.79341 0.567314 0
M  V30 2121 O 207.942 1.15184 1.40009 0
M  V30 2122 C 207.99 3.34926 -1.33629 0
M  V30 2123 O 207.094 4.09303 -0.504447 0
M  V30 2124 H 206.435 0.583785 -0.316371 0
M  V30 2125 H 208.965 1.4157 -1.47712 0
M  V30 2126 H 208.975 3.8577 -1.32837 0
M  V30 2127 H 207.65 3.40504 -2.3881 0
M  V30 2128 H 206.227 3.68393 -0.577993 0
M  V30 2129 N 208.412 0.89855 1.29475 0
M  V30 2130 C 209.375 0.380272 2.26023 0
M  V30 2131 C 210.375 -0.484891 1.53315 0
M  V30 2132 O 211.565 -0.290108 1.71767 0
M  V30 2133 C 208.697 -0.45651 3.3783 0
M  V30 2134 H 209.89 1.23295 2.73383 0
M  V30 2135 H 207.443 0.676589 1.40897 0
M  V30 2136 H 208.178 -1.32922 2.95808 0
M  V30 2137 H 207.963 0.163393 3.91759 0
M  V30 2138 H 209.453 -0.810466 4.0966 0
M  V30 2139 N 209.89 -1.43072 0.660911 0
M  V30 2140 C 211.115 -2.06584 0.183805 0
M  V30 2141 C 211.54 -1.49257 -1.14472 0
M  V30 2142 O 210.898 -0.605528 -1.70889 0
M  V30 2143 C 210.946 -3.60418 0.114434 0
M  V30 2144 O 210.05 -4.01981 -0.921137 0
M  V30 2145 H 209.391 -0.656669 0.0983994 0
M  V30 2146 H 211.921 -1.83447 0.906006 0
M  V30 2147 H 211.931 -4.07946 -0.0663394 0
M  V30 2148 H 210.606 -4.01519 1.08422 0
M  V30 2149 H 209.183 -3.66029 -0.71253 0
M  V30 2150 N 211.368 -0.403325 -1.52352 0
M  V30 2151 C 212.331 0.413051 -2.25447 0
M  V30 2152 C 213.331 0.978513 -1.276 0
M  V30 2153 O 214.521 0.858305 -1.51587 0
M  V30 2154 C 211.653 1.58087 -3.02029 0
M  V30 2155 H 212.846 -0.227094 -2.99039 0
M  V30 2156 H 210.399 -0.155722 -1.55522 0
M  V30 2157 H 211.134 2.25804 -2.32772 0
M  V30 2158 H 210.919 1.18195 -3.73861 0
M  V30 2159 H 212.409 2.1585 -3.57489 0
M  V30 2160 N 212.846 1.57033 -0.133567 0
M  V30 2161 C 214.123 1.87256 0.56522 0
M  V30 2162 C 214.503 1.03726 1.83859 0
M  V30 2163 O 213.851 0.120247 2.28183 0
M  V30 2164 C 214.061 3.3865 0.843636 0
M  V30 2165 C 215.409 4.07574 1.19032 0
M  V30 2166 O 216.433 3.43752 0.933429 0
M  V30 2167 O 215.292 5.20259 1.67312 0
M  V30 2168 H 212.386 0.775678 0.286796 0
M  V30 2169 H 214.932 1.68855 -0.169168 0
M  V30 2170 H 213.704 3.91257 -0.0581149 0
M  V30 2171 H 213.327 3.62532 1.63268 0
M  V30 2172 N 214.325 -0.140222 1.56975 0
M  V30 2173 C 215.571 -0.852949 1.83991 0
M  V30 2174 C 215.904 -1.80512 0.716187 0
M  V30 2175 O 215.179 -1.92479 -0.279681 0
M  V30 2176 C 215.462 -1.6215 3.21527 0
M  V30 2177 C 215.315 -0.690363 4.4447 0
M  V30 2178 C 216.634 -2.58247 3.56366 0
M  V30 2179 H 213.753 -0.308634 0.669264 0
M  V30 2180 H 216.395 -0.117898 1.89634 0
M  V30 2181 H 214.545 -2.24812 3.16847 0
M  V30 2182 H 216.217 -0.0742264 4.6124 0
M  V30 2183 H 214.46 -0.000396433 4.338 0
M  V30 2184 H 215.131 -1.2643 5.37326 0
M  V30 2185 H 217.607 -2.05701 3.61699 0
M  V30 2186 H 216.483 -3.09067 4.53617 0
M  V30 2187 H 216.744 -3.39923 2.82674 0
M  V30 2188 N 215.803 -1.52179 -0.40978 0
M  V30 2189 C 216.733 -1.78435 -1.5061 0
M  V30 2190 C 217.714 -0.635295 -1.57791 0
M  V30 2191 O 218.899 -0.880823 -1.73076 0
M  V30 2192 C 216.029 -1.93444 -2.88439 0
M  V30 2193 C 214.983 -3.09038 -2.96108 0
M  V30 2194 C 214.309 -3.09268 -4.36185 0
M  V30 2195 C 215.609 -4.48508 -2.67652 0
M  V30 2196 H 217.303 -2.70237 -1.28889 0
M  V30 2197 H 214.849 -1.30036 -0.618605 0
M  V30 2198 H 216.802 -2.10394 -3.65119 0
M  V30 2199 H 215.526 -0.983129 -3.11452 0
M  V30 2200 H 214.185 -2.91837 -2.21872 0
M  V30 2201 H 213.833 -2.11861 -4.56206 0
M  V30 2202 H 213.533 -3.86907 -4.42241 0
M  V30 2203 H 215.057 -3.28348 -5.14801 0
M  V30 2204 H 216.471 -4.65918 -3.34056 0
M  V30 2205 H 214.868 -5.28059 -2.85085 0
M  V30 2206 H 215.938 -4.56649 -1.63095 0
M  V30 2207 N 217.281 0.66697 -1.42791 0
M  V30 2208 C 218.244 1.76211 -1.46568 0
M  V30 2209 C 219.244 1.56896 -0.352196 0
M  V30 2210 O 220.434 1.63044 -0.613364 0
M  V30 2211 C 217.566 3.14935 -1.30494 0
M  V30 2212 H 218.759 1.74247 -2.44086 0
M  V30 2213 H 216.312 0.877342 -1.29354 0
M  V30 2214 H 217.047 3.2252 -0.339301 0
M  V30 2215 H 216.832 3.30359 -2.11199 0
M  V30 2216 H 218.322 3.94821 -1.36038 0
M  V30 2217 N 218.759 1.29093 0.90403 0
M  V30 2218 C 219.689 1.16401 2.02418 0
M  V30 2219 C 220.67 0.0593085 1.69997 0
M  V30 2220 O 221.855 0.238021 1.92736 0
M  V30 2221 C 218.985 0.835233 3.37107 0
M  V30 2222 C 217.939 1.89578 3.83724 0
M  V30 2223 C 217.265 1.42041 5.15489 0
M  V30 2224 C 218.565 3.30394 4.04521 0
M  V30 2225 H 220.259 2.10109 2.13295 0
M  V30 2226 H 217.805 1.01157 1.02486 0
M  V30 2227 H 219.758 0.733169 4.14973 0
M  V30 2228 H 218.482 -0.137543 3.2631 0
M  V30 2229 H 217.141 1.98715 3.08071 0
M  V30 2230 H 216.789 0.436426 5.01103 0
M  V30 2231 H 216.489 2.12964 5.4765 0
M  V30 2232 H 218.013 1.33176 5.959 0
M  V30 2233 H 219.427 3.24123 4.72882 0
M  V30 2234 H 217.824 3.99237 4.48029 0
M  V30 2235 H 218.894 3.73692 3.09002 0
M  V30 2236 N 220.237 -1.11381 1.11499 0
M  V30 2237 C 221.2 -2.15622 0.777153 0
M  V30 2238 C 222.2 -1.59504 -0.203779 0
M  V30 2239 O 223.39 -1.74188 0.020782 0
M  V30 2240 C 220.522 -3.40556 0.153116 0
M  V30 2241 H 221.715 -2.47021 1.70061 0
M  V30 2242 H 219.268 -1.26577 0.916952 0
M  V30 2243 H 220.003 -3.14767 -0.780536 0
M  V30 2244 H 219.788 -3.8257 0.859238 0
M  V30 2245 H 221.278 -4.17546 -0.0671044 0
M  V30 2246 N 221.715 -0.905404 -1.28997 0
M  V30 2247 C 222.662 -0.385892 -2.27551 0
M  V30 2248 C 223.632 0.535113 -1.57244 0
M  V30 2249 O 224.817 0.459119 -1.85194 0
M  V30 2250 C 221.957 0.375461 -3.43051 0
M  V30 2251 C 221.07 -0.577092 -4.28128 0
M  V30 2252 C 220.205 0.201879 -5.30816 0
M  V30 2253 C 219.244 -0.744829 -6.07551 0
M  V30 2254 N 218.381 9.42587e-05 -7.021 0
M  V30 2255 H 223.221 -1.23139 -2.71368 0
M  V30 2256 H 220.758 -0.618542 -1.33463 0
M  V30 2257 H 222.716 0.832992 -4.088 0
M  V30 2258 H 221.346 1.18537 -3.00248 0
M  V30 2259 H 220.398 -1.15315 -3.62501 0
M  V30 2260 H 221.71 -1.30152 -4.8152 0
M  V30 2261 H 220.864 0.720351 -6.02408 0
M  V30 2262 H 219.603 0.959413 -4.7817 0
M  V30 2263 H 218.608 -1.27475 -5.34818 0
M  V30 2264 H 219.833 -1.50178 -6.62286 0
M  V30 2265 H 217.779 0.739791 -6.51815 0
M  V30 2266 H 217.696 -0.664321 -7.53076 0
M  V30 2267 H 218.964 0.498644 -7.77903 0
M  V30 2268 N 223.193 1.4272 -0.668489 0
M  V30 2269 C 224.442 2.00846 -0.185389 0
M  V30 2270 C 224.755 1.53442 1.21305 0
M  V30 2271 O 225.961 2.03944 1.79218 0
M  V30 2272 C 224.417 3.58805 -0.280591 0
M  V30 2273 C 224.025 4.15198 -1.68268 0
M  V30 2274 C 225.769 4.24255 0.14412 0
M  V30 2275 C 223.676 5.655 -1.73099 0
M  V30 2276 H 222.606 0.751145 -0.0655475 0
M  V30 2277 H 225.257 1.63516 -0.832752 0
M  V30 2278 H 223.639 3.93608 0.434553 0
M  V30 2279 H 224.813 3.91866 -2.42441 0
M  V30 2280 H 223.128 3.62176 -2.05469 0
M  V30 2281 H 225.725 5.34547 0.128086 0
M  V30 2282 H 226.068 3.99277 1.17827 0
M  V30 2283 H 226.601 3.94389 -0.519798 0
M  V30 2284 H 223.34 5.95268 -2.74475 0
M  V30 2285 H 222.86 5.90842 -1.03274 0
M  V30 2286 H 224.539 6.29808 -1.48158 0
M  V30 2287 N 224.671 0.411399 1.52136 0
M  V30 2288 C 225.581 -0.419774 2.30814 0
M  V30 2289 C 226.597 -1.0515 1.38634 0
M  V30 2290 O 227.773 -1.05252 1.71709 0
M  V30 2291 C 224.838 -1.52019 3.11594 0
M  V30 2292 C 223.899 -0.91129 4.19516 0
M  V30 2293 C 223.132 -1.95927 4.96436 0
M  V30 2294 O 223.355 -3.17775 4.73683 0
M  V30 2295 O 222.289 -1.56423 5.81219 0
M  V30 2296 H 226.115 0.221805 3.02889 0
M  V30 2297 H 223.7 0.174547 1.48377 0
M  V30 2298 H 225.582 -2.15898 3.61892 0
M  V30 2299 H 224.257 -2.14633 2.42311 0
M  V30 2300 H 223.164 -0.235157 3.7336 0
M  V30 2301 H 224.497 -0.32904 4.91099 0
M  V30 2302 N 226.149 -1.5696 0.141893 0
M  V30 2303 C 227.398 -1.95135 -0.510427 0
M  V30 2304 C 227.711 -1.02896 -1.66348 0
M  V30 2305 O 228.917 -1.30629 -2.38009 0
M  V30 2306 C 227.373 -3.46876 -0.959427 0
M  V30 2307 C 226.981 -4.47691 0.166419 0
M  V30 2308 C 228.725 -3.93927 -1.58183 0
M  V30 2309 C 226.632 -5.90636 -0.300565 0
M  V30 2310 H 225.562 -0.728494 -0.194454 0
M  V30 2311 H 228.213 -1.8211 0.22542 0
M  V30 2312 H 226.595 -3.55215 -1.75038 0
M  V30 2313 H 227.769 -4.51043 0.94325 0
M  V30 2314 H 226.084 -4.10527 0.696905 0
M  V30 2315 H 228.681 -4.98158 -1.94275 0
M  V30 2316 H 229.024 -3.3519 -2.46888 0
M  V30 2317 H 229.557 -3.88484 -0.855863 0
M  V30 2318 H 226.296 -6.5318 0.550989 0
M  V30 2319 H 225.816 -5.90655 -1.04338 0
M  V30 2320 H 227.495 -6.42588 -0.754265 0
M  V30 2321 N 227.627 0.131896 -1.57047 0
M  V30 2322 C 228.574 1.16236 -1.99393 0
M  V30 2323 C 229.544 1.41863 -0.863943 0
M  V30 2324 O 230.729 1.53946 -1.12718 0
M  V30 2325 C 227.869 2.48708 -2.39245 0
M  V30 2326 C 226.982 2.30127 -3.65603 0
M  V30 2327 C 226.117 3.55738 -3.94492 0
M  V30 2328 C 225.156 3.32259 -5.14073 0
M  V30 2329 N 224.293 4.50039 -5.38896 0
M  V30 2330 H 229.133 0.794251 -2.87221 0
M  V30 2331 H 226.67 0.380707 -1.42088 0
M  V30 2332 H 228.628 3.25969 -2.60384 0
M  V30 2333 H 227.258 2.83437 -1.54478 0
M  V30 2334 H 226.31 1.43845 -3.52154 0
M  V30 2335 H 227.622 2.08746 -4.5302 0
M  V30 2336 H 226.776 4.41423 -4.1621 0
M  V30 2337 H 225.515 3.80138 -3.05526 0
M  V30 2338 H 224.52 2.44963 -4.92212 0
M  V30 2339 H 225.745 3.09242 -6.04604 0
M  V30 2340 H 223.691 4.74584 -4.52886 0
M  V30 2341 H 223.608 4.31716 -6.2061 0
M  V30 2342 H 224.876 5.36895 -5.65123 0
M  V30 2343 N 229.106 1.52395 0.401703 0
M  V30 2344 C 230.036 1.79231 1.49661 0
M  V30 2345 C 231.017 0.643654 1.57452 0
M  V30 2346 O 232.202 0.889989 1.72606 0
M  V30 2347 C 229.332 1.94971 2.87409 0
M  V30 2348 C 228.286 3.10604 2.94465 0
M  V30 2349 C 227.612 3.11577 4.34538 0
M  V30 2350 C 228.912 4.49921 2.6527 0
M  V30 2351 H 230.606 2.70917 1.27454 0
M  V30 2352 H 228.152 1.30362 0.6117 0
M  V30 2353 H 230.105 2.12328 3.63999 0
M  V30 2354 H 228.829 0.999632 3.10926 0
M  V30 2355 H 227.488 2.93009 2.20321 0
M  V30 2356 H 227.136 2.14277 4.55076 0
M  V30 2357 H 226.836 3.89247 4.40183 0
M  V30 2358 H 228.36 3.31073 5.13053 0
M  V30 2359 H 229.774 4.67683 3.31581 0
M  V30 2360 H 228.171 5.29564 2.82281 0
M  V30 2361 H 229.241 4.57507 1.60671 0
M  V30 2362 N 230.584 -0.659388 1.43143 0
M  V30 2363 C 231.809 -1.45221 1.48073 0
M  V30 2364 C 232.234 -1.87845 0.097995 0
M  V30 2365 O 231.592 -1.56985 -0.90694 0
M  V30 2366 C 231.64 -2.66748 2.42647 0
M  V30 2367 O 230.744 -3.65583 1.90848 0
M  V30 2368 H 230.085 -0.435669 0.501088 0
M  V30 2369 H 232.615 -0.807432 1.87994 0
M  V30 2370 H 232.625 -3.14637 2.59745 0
M  V30 2371 H 231.3 -2.35067 3.43098 0
M  V30 2372 H 229.877 -3.24693 1.83381 0
M  V30 2373 N 232.062 -1.29571 -0.897171 0
M  V30 2374 C 233.339 -1.08365 -1.62839 0
M  V30 2375 C 233.719 0.371331 -2.07808 0
M  V30 2376 O 233.067 1.3606 -1.83576 0
M  V30 2377 C 233.277 -2.0735 -2.80726 0
M  V30 2378 C 234.625 -2.38406 -3.51351 0
M  V30 2379 O 235.649 -2.05564 -2.90898 0
M  V30 2380 O 234.508 -2.9453 -4.60341 0
M  V30 2381 H 231.602 -0.415345 -0.715134 0
M  V30 2382 H 234.148 -1.40952 -0.945018 0
M  V30 2383 H 232.92 -3.05339 -2.44711 0
M  V30 2384 H 232.543 -1.75507 -3.56767 0
M  V30 2385 N 233.54 1.10788 -1.12088 0
M  V30 2386 C 234.789 1.82036 -0.868659 0
M  V30 2387 C 235.102 1.85929 0.607426 0
M  V30 2388 O 236.308 2.53346 0.97613 0
M  V30 2389 C 234.764 3.26951 -1.50435 0
M  V30 2390 C 234.372 3.31367 -3.01496 0
M  V30 2391 C 236.116 4.03053 -1.33225 0
M  V30 2392 C 234.023 4.7072 -3.58017 0
M  V30 2393 H 232.953 0.682108 -0.321318 0
M  V30 2394 H 235.604 1.24618 -1.34694 0
M  V30 2395 H 233.986 3.84343 -0.953735 0
M  V30 2396 H 235.16 2.83819 -3.6302 0
M  V30 2397 H 233.475 2.6875 -3.18061 0
M  V30 2398 H 236.072 5.05981 -1.72878 0
M  V30 2399 H 236.415 4.15387 -0.275529 0
M  V30 2400 H 236.948 3.52066 -1.85188 0
M  V30 2401 H 233.687 4.63585 -4.63432 0
M  V30 2402 H 233.207 5.1865 -3.01268 0
M  V30 2403 H 234.886 5.39685 -3.56859 0
M  V30 2404 N 235.018 0.912232 1.28515 0
M  V30 2405 C 236.429 0.591352 1.77087 0
M  V30 2406 C 236.78 -0.8933 1.74684 0
M  V30 2407 O 235.905 -1.69876 1.34056 0
M  V30 2408 C 236.5 1.06668 3.2157 0
M  V30 2409 C 235.059 0.79675 3.67871 0
M  V30 2410 C 234.206 1.23427 2.48316 0
M  V30 2411 H 237.157 1.09365 1.15 0
M  V30 2412 H 237.178 0.407455 3.78312 0
M  V30 2413 H 236.69 2.14726 3.23287 0
M  V30 2414 H 234.791 -0.270679 3.71616 0
M  V30 2415 H 234.904 1.40343 4.58084 0
M  V30 2416 H 233.268 0.653036 2.46186 0
M  V30 2417 H 234.051 2.32316 2.52753 0
M  V30 2418 N 236.496 -1.42363 0.676048 0
M  V30 2419 C 237.406 -2.346 -0.00153389 0
M  V30 2420 C 238.422 -1.5516 -0.787485 0
M  V30 2421 O 239.598 -1.87723 -0.729521 0
M  V30 2422 C 236.663 -3.33705 -0.940298 0
M  V30 2423 C 235.724 -4.29042 -0.148739 0
M  V30 2424 C 234.957 -5.23413 -1.04279 0
M  V30 2425 O 235.18 -5.22749 -2.28232 0
M  V30 2426 O 234.114 -5.99795 -0.502925 0
M  V30 2427 H 237.94 -2.94082 0.758268 0
M  V30 2428 H 235.525 -1.42888 0.436289 0
M  V30 2429 H 237.407 -3.94586 -1.47917 0
M  V30 2430 H 236.082 -2.76695 -1.67993 0
M  V30 2431 H 234.989 -3.71571 0.43427 0
M  V30 2432 H 236.322 -4.89097 0.551805 0
M  V30 2433 N 237.974 -0.419461 -1.51915 0
M  V30 2434 C 239.222 0.152637 -2.01523 0
M  V30 2435 C 239.543 1.44762 -1.30649 0
M  V30 2436 O 238.813 1.90997 -0.435535 0
M  V30 2437 H 237.393 0.0593966 -0.744635 0
M  V30 2438 H 240.055 -0.558073 -1.86739 0
M  V30 2439 H 239.151 0.341369 -3.10227 0
M  V30 2440 N 239.452 1.56882 -0.150215 0
M  V30 2441 C 240.399 2.16922 0.788244 0
M  V30 2442 C 241.369 1.10303 1.24187 0
M  V30 2443 O 242.554 1.38359 1.31383 0
M  V30 2444 C 239.694 2.79754 2.02068 0
M  V30 2445 C 238.807 4.00775 1.61257 0
M  V30 2446 C 237.942 4.51595 2.79705 0
M  V30 2447 C 236.981 5.65074 2.35282 0
M  V30 2448 N 236.118 6.10499 3.4675 0
M  V30 2449 H 240.958 2.96779 0.269444 0
M  V30 2450 H 238.495 1.46599 0.12128 0
M  V30 2451 H 240.453 3.14329 2.74323 0
M  V30 2452 H 239.083 2.02536 2.51354 0
M  V30 2453 H 238.135 3.72158 0.787553 0
M  V30 2454 H 239.447 4.82978 1.24633 0
M  V30 2455 H 238.601 4.88242 3.60145 0
M  V30 2456 H 237.34 3.68406 3.19576 0
M  V30 2457 H 236.345 5.28 1.53283 0
M  V30 2458 H 237.57 6.50052 1.96493 0
M  V30 2459 H 235.516 5.30243 3.86236 0
M  V30 2460 H 235.433 6.87637 3.14152 0
M  V30 2461 H 236.701 6.51791 4.27537 0
M  V30 2462 N 240.93 -0.123565 1.57115 0
M  V30 2463 C 241.878 -1.17082 2.00984 0
M  V30 2464 C 242.872 -1.43136 0.906009 0
M  V30 2465 O 244.078 -1.43152 1.09121 0
M  V30 2466 H 240.453 -0.394653 0.64012 0
M  V30 2467 H 242.424 -0.774292 2.88179 0
M  V30 2468 C 241.173 -2.49057 2.42623 0
M  V30 2469 H 240.496 -2.29846 3.27125 0
M  V30 2470 H 241.936 -3.20906 2.7712 0
M  V30 2471 C 240.395 -3.11305 1.28805 0
M  V30 2472 O 240.925 -3.97171 0.60153 0
M  V30 2473 N 239.131 -2.71111 1.04628 0
M  V30 2474 H 238.678 -2.01382 1.60634 0
M  V30 2475 H 238.636 -3.1309 0.286685 0
M  V30 2476 N 242.408 -1.52605 -0.393616 0
M  V30 2477 C 243.341 -1.71798 -1.50202 0
M  V30 2478 C 244.319 -0.565743 -1.52441 0
M  V30 2479 O 245.503 -0.794987 -1.70916 0
M  V30 2480 C 242.63 -1.7714 -2.88685 0
M  V30 2481 C 241.676 -2.98845 -3.04292 0
M  V30 2482 S 242.509 -4.58909 -2.75976 0
M  V30 2483 C 243.665 -4.6706 -4.1666 0
M  V30 2484 H 243.898 -2.65542 -1.33696 0
M  V30 2485 H 241.431 -1.42839 -0.586195 0
M  V30 2486 H 243.389 -1.80903 -3.68489 0
M  V30 2487 H 242.05 -0.844969 -3.02521 0
M  V30 2488 H 241.243 -2.99111 -4.05646 0
M  V30 2489 H 240.845 -2.9305 -2.32374 0
M  V30 2490 H 243.137 -4.45391 -5.10523 0
M  V30 2491 H 244.08 -5.6905 -4.21412 0
M  V30 2492 H 244.488 -3.95944 -4.02354 0
M  V30 2493 N 243.887 0.651787 -1.4349 0
M  V30 2494 C 244.85 1.74647 -1.48429 0
M  V30 2495 C 245.85 1.56513 -0.368817 0
M  V30 2496 O 247.04 1.62385 -0.630623 0
M  V30 2497 C 244.172 3.13533 -1.33827 0
M  V30 2498 H 245.365 1.71649 -2.4592 0
M  V30 2499 H 242.918 0.863573 -1.30277 0
M  V30 2500 H 243.653 3.22142 -0.37349 0
M  V30 2501 H 243.438 3.28101 -2.14691 0
M  V30 2502 H 244.928 3.93356 -1.40218 0
M  V30 2503 N 245.365 1.30045 0.890287 0
M  V30 2504 C 246.612 1.18561 1.64163 0
M  V30 2505 C 246.94 -0.260852 1.92743 0
M  V30 2506 O 246.195 -1.20376 1.54299 0
M  V30 2507 C 246.494 1.95409 2.99249 0
M  V30 2508 C 246.16 3.45066 2.90242 0
M  V30 2509 C 244.822 3.85878 2.87492 0
M  V30 2510 C 247.174 4.4039 2.78758 0
M  V30 2511 C 244.502 5.20314 2.7109 0
M  V30 2512 C 246.854 5.74928 2.63894 0
M  V30 2513 C 245.518 6.14986 2.59516 0
M  V30 2514 H 244.788 0.433846 0.600715 0
M  V30 2515 H 247.435 1.61088 1.03552 0
M  V30 2516 H 245.74 1.45501 3.63781 0
M  V30 2517 H 247.437 1.8392 3.56334 0
M  V30 2518 H 244.027 3.12631 2.93189 0
M  V30 2519 H 248.211 4.09806 2.79952 0
M  V30 2520 H 243.467 5.50449 2.66112 0
M  V30 2521 H 247.641 6.48434 2.53981 0
M  V30 2522 H 245.268 7.19104 2.46565 0
M  V30 2523 N 246.843 -1.10192 1.12674 0
M  V30 2524 C 247.79 -2.16606 0.796906 0
M  V30 2525 C 248.76 -1.64394 -0.237476 0
M  V30 2526 O 249.945 -1.90474 -0.111484 0
M  V30 2527 C 247.085 -3.44116 0.26043 0
M  V30 2528 C 246.198 -4.10268 1.35293 0
M  V30 2529 C 245.333 -5.25507 0.775621 0
M  V30 2530 C 244.372 -5.83567 1.84706 0
M  V30 2531 N 243.509 -6.90179 1.28829 0
M  V30 2532 H 248.349 -2.44163 1.70846 0
M  V30 2533 H 245.886 -1.19846 0.85295 0
M  V30 2534 H 247.844 -4.17143 -0.0686814 0
M  V30 2535 H 246.474 -3.16901 -0.614274 0
M  V30 2536 H 245.526 -3.35184 1.79877 0
M  V30 2537 H 246.838 -4.4946 2.16303 0
M  V30 2538 H 245.992 -6.05398 0.397327 0
M  V30 2539 H 244.731 -4.87656 -0.0656581 0
M  V30 2540 H 243.736 -5.02344 2.23452 0
M  V30 2541 H 244.961 -6.23482 2.69161 0
M  V30 2542 H 242.907 -6.54322 0.468881 0
M  V30 2543 H 242.824 -7.28097 2.03497 0
M  V30 2544 H 244.092 -7.73844 0.937311 0
M  V30 2545 N 248.321 -0.919034 -1.28029 0
M  V30 2546 C 249.567 -0.565221 -1.95389 0
M  V30 2547 C 249.922 0.882325 -1.70976 0
M  V30 2548 O 249.215 1.61988 -1.02325 0
M  V30 2549 C 249.409 -0.816855 -3.4794 0
M  V30 2550 C 249.238 -2.28731 -3.87185 0
M  V30 2551 C 248.008 -2.93841 -4.11079 0
M  V30 2552 C 250.206 -3.26415 -3.97439 0
M  V30 2553 N 248.188 -4.31129 -4.37037 0
M  V30 2554 C 249.559 -4.48884 -4.27672 0
M  V30 2555 C 251.614 -3.21742 -3.79982 0
M  V30 2556 C 250.317 -5.67268 -4.42266 0
M  V30 2557 C 252.343 -4.39431 -3.95796 0
M  V30 2558 C 251.705 -5.60675 -4.26407 0
M  V30 2559 H 247.804 -0.256797 -0.738633 0
M  V30 2560 H 250.388 -1.18386 -1.54573 0
M  V30 2561 H 248.559 -0.227445 -3.87733 0
M  V30 2562 H 250.291 -0.426542 -4.02446 0
M  V30 2563 H 247.046 -2.44547 -4.05578 0
M  V30 2564 H 247.47 -5.02127 -4.5409 0
M  V30 2565 H 252.112 -2.29079 -3.55363 0
M  V30 2566 H 249.83 -6.60406 -4.65714 0
M  V30 2567 H 253.416 -4.37323 -3.83719 0
M  V30 2568 H 252.296 -6.50223 -4.38383 0
M  V30 2569 N 249.799 1.42003 -0.683588 0
M  V30 2570 C 251.215 1.55625 -0.353976 0
M  V30 2571 C 251.415 1.66151 1.14 0
M  V30 2572 O 250.471 1.63329 1.92561 0
M  V30 2573 C 251.784 2.80171 -1.092 0
M  V30 2574 C 253.332 2.93954 -1.07518 0
M  V30 2575 C 253.807 4.21372 -1.79471 0
M  V30 2576 N 255.298 4.28303 -1.76381 0
M  V30 2577 C 256.033 5.25729 -2.28904 0
M  V30 2578 N 255.529 6.29254 -2.89846 0
M  V30 2579 N 257.322 5.17586 -2.19228 0
M  V30 2580 H 249.473 1.33415 -1.6527 0
M  V30 2581 H 251.736 0.64282 -0.696769 0
M  V30 2582 H 251.442 2.78561 -2.14701 0
M  V30 2583 H 251.316 3.7133 -0.662862 0
M  V30 2584 H 253.703 2.95086 -0.028475 0
M  V30 2585 H 253.784 2.04002 -1.54328 0
M  V30 2586 H 253.428 4.21001 -2.84114 0
M  V30 2587 H 253.358 5.10275 -1.30104 0
M  V30 2588 H 255.849 3.54119 -1.31939 0
M  V30 2589 H 256.162 6.99964 -3.27522 0
M  V30 2590 H 254.507 6.29791 -2.93919 0
M  V30 2591 H 257.698 4.35631 -1.71299 0
M  V30 2592 H 257.871 5.93348 -2.60466 0
M  V30 2593 N 251.277 0.427512 1.51691 0
M  V30 2594 C 252.525 -0.141948 2.01601 0
M  V30 2595 C 252.846 -1.44067 1.31414 0
M  V30 2596 O 252.116 -1.90763 0.445658 0
M  V30 2597 H 250.696 -0.0554468 0.744939 0
M  V30 2598 H 253.358 0.567968 1.86441 0
M  V30 2599 H 252.454 -0.324913 3.10404 0
M  V30 2600 N 252.755 -1.56801 0.158532 0
M  V30 2601 C 253.702 -2.17337 -0.776729 0
M  V30 2602 C 254.672 -1.1096 -1.23601 0
M  V30 2603 O 255.857 -1.39054 -1.30647 0
M  V30 2604 C 252.997 -2.80822 -2.00582 0
M  V30 2605 C 252.11 -4.01624 -1.59129 0
M  V30 2606 C 251.245 -4.53072 -2.77306 0
M  V30 2607 C 250.284 -5.66314 -2.32282 0
M  V30 2608 N 249.421 -6.12329 -3.43508 0
M  V30 2609 H 254.261 -2.96918 -0.253701 0
M  V30 2610 H 251.798 -1.46661 -0.113504 0
M  V30 2611 H 253.756 -3.15779 -2.72652 0
M  V30 2612 H 252.386 -2.03866 -2.50277 0
M  V30 2613 H 251.438 -3.72571 -0.767806 0
M  V30 2614 H 252.75 -4.83633 -1.2207 0
M  V30 2615 H 251.904 -4.90145 -3.57551 0
M  V30 2616 H 250.643 -3.70095 -3.17617 0
M  V30 2617 H 249.648 -5.28806 -1.5048 0
M  V30 2618 H 250.873 -6.51085 -1.93043 0
M  V30 2619 H 248.819 -5.32284 -3.83418 0
M  V30 2620 H 248.736 -6.89293 -3.105 0
M  V30 2621 H 250.004 -6.5405 -4.24075 0
M  V30 2622 N 254.233 0.115231 -1.57178 0
M  V30 2623 C 255.644 0.67197 -1.74188 0
M  V30 2624 C 255.995 1.80125 -0.777777 0
M  V30 2625 O 255.12 2.16346 0.0484376 0
M  V30 2626 C 255.715 1.22573 -3.1585 0
M  V30 2627 C 254.274 1.72872 -3.34353 0
M  V30 2628 C 253.421 0.629972 -2.70049 0
M  V30 2629 H 256.372 -0.110712 -1.58313 0
M  V30 2630 H 256.393 2.09535 -3.17609 0
M  V30 2631 H 255.905 0.403598 -3.85996 0
M  V30 2632 H 254.006 2.5755 -2.69256 0
M  V30 2633 H 254.119 1.83557 -4.42542 0
M  V30 2634 H 252.483 1.0645 -2.31388 0
M  V30 2635 H 253.266 -0.181241 -3.42821 0
M  V30 2636 N 255.711 1.52812 0.385517 0
M  V30 2637 C 256.641 1.80808 1.47752 0
M  V30 2638 C 257.622 0.660318 1.5676 0
M  V30 2639 O 258.807 0.908246 1.71652 0
M  V30 2640 C 255.937 1.98008 2.85324 0
M  V30 2641 C 254.891 3.13709 2.91154 0
M  V30 2642 C 254.217 3.16169 4.31209 0
M  V30 2643 C 255.517 4.52709 2.60483 0
M  V30 2644 H 257.211 2.72253 1.24573 0
M  V30 2645 H 254.757 1.31003 0.597839 0
M  V30 2646 H 256.71 2.16176 3.61726 0
M  V30 2647 H 255.434 1.03255 3.09848 0
M  V30 2648 H 254.093 2.95329 2.17201 0
M  V30 2649 H 253.741 2.19092 4.52778 0
M  V30 2650 H 253.441 3.93894 4.36029 0
M  V30 2651 H 254.965 3.36496 5.09512 0
M  V30 2652 H 256.379 4.71173 3.26602 0
M  V30 2653 H 254.776 5.32528 2.76648 0
M  V30 2654 H 255.846 4.59186 1.55809 0
M  V30 2655 N 257.189 -0.644168 1.43834 0
M  V30 2656 C 258.436 -1.40395 1.4593 0
M  V30 2657 C 258.764 -1.94305 0.0869658 0
M  V30 2658 O 258.019 -1.73288 -0.909378 0
M  V30 2659 C 258.318 -2.59615 2.45631 0
M  V30 2660 C 257.984 -2.2407 3.91284 0
M  V30 2661 C 256.646 -2.14089 4.30952 0
M  V30 2662 C 258.998 -1.95775 4.83034 0
M  V30 2663 C 256.326 -1.73981 5.6031 0
M  V30 2664 C 258.678 -1.57163 6.12766 0
M  V30 2665 C 257.342 -1.45713 6.51402 0
M  V30 2666 H 256.612 -0.513741 0.533995 0
M  V30 2667 H 259.259 -0.731724 1.76969 0
M  V30 2668 H 257.564 -3.32011 2.08028 0
M  V30 2669 H 259.261 -3.17834 2.44504 0
M  V30 2670 H 255.851 -2.32753 3.59895 0
M  V30 2671 H 260.035 -2.02403 4.53152 0
M  V30 2672 H 255.291 -1.63709 5.89075 0
M  V30 2673 H 259.465 -1.34303 6.83327 0
M  V30 2674 H 257.092 -1.14406 7.51542 0
M  V30 2675 N 258.668 -1.30515 -0.883378 0
M  V30 2676 C 259.914 -1.19607 -1.63774 0
M  V30 2677 C 260.247 0.248314 -1.92606 0
M  V30 2678 O 259.522 1.17742 -1.54813 0
M  V30 2679 C 259.805 -2.02669 -2.97653 0
M  V30 2680 C 259.658 -3.55335 -2.75784 0
M  V30 2681 C 260.977 -1.86573 -3.98596 0
M  V30 2682 H 258.096 -0.435856 -0.594305 0
M  V30 2683 H 260.738 -1.60165 -1.02212 0
M  V30 2684 H 258.888 -1.68208 -3.50197 0
M  V30 2685 H 260.56 -3.99863 -2.30016 0
M  V30 2686 H 258.803 -3.79438 -2.1026 0
M  V30 2687 H 259.474 -4.08745 -3.70988 0
M  V30 2688 H 261.95 -2.16703 -3.55217 0
M  V30 2689 H 260.826 -2.47014 -4.90179 0
M  V30 2690 H 261.087 -0.825321 -4.34328 0
M  V30 2691 N 260.146 1.09593 -1.13257 0
M  V30 2692 C 261.562 1.33775 -0.870423 0
M  V30 2693 C 261.762 1.95327 0.494926 0
M  V30 2694 O 260.818 2.19853 1.2418 0
M  V30 2695 C 262.131 2.25106 -1.99369 0
M  V30 2696 C 263.679 2.3862 -2.02558 0
M  V30 2697 C 264.154 3.33285 -3.14142 0
M  V30 2698 N 265.645 3.40857 -3.13641 0
M  V30 2699 C 266.38 4.14101 -3.96621 0
M  V30 2700 N 265.876 4.90157 -4.8961 0
M  V30 2701 N 267.669 4.09808 -3.84726 0
M  V30 2702 H 259.82 0.680136 -2.01216 0
M  V30 2703 H 262.083 0.362133 -0.876107 0
M  V30 2704 H 261.789 1.87103 -2.97801 0
M  V30 2705 H 261.663 3.25481 -1.90635 0
M  V30 2706 H 264.05 2.75887 -1.0474 0
M  V30 2707 H 264.131 1.38028 -2.15364 0
M  V30 2708 H 263.775 2.96741 -4.12198 0
M  V30 2709 H 263.705 4.33776 -2.98574 0
M  V30 2710 H 266.196 2.86624 -2.46282 0
M  V30 2711 H 266.509 5.4347 -5.49418 0
M  V30 2712 H 264.854 4.89251 -4.93617 0
M  V30 2713 H 268.045 3.4949 -3.11408 0
M  V30 2714 H 268.218 4.66629 -4.49623 0
M  V30 2715 N 261.624 0.925811 1.2754 0
M  V30 2716 C 262.574 0.394488 2.24561 0
M  V30 2717 C 263.558 -0.500183 1.52928 0
M  V30 2718 O 264.75 -0.337936 1.73744 0
M  V30 2719 C 261.879 -0.353328 3.41477 0
M  V30 2720 C 260.965 0.557752 4.20416 0
M  V30 2721 N 261.356 1.67674 4.77199 0
M  V30 2722 C 259.654 0.360404 4.44541 0
M  V30 2723 C 260.355 2.24324 5.36706 0
M  V30 2724 N 259.331 1.53305 5.21535 0
M  V30 2725 H 263.133 1.2489 2.66045 0
M  V30 2726 H 260.647 0.779864 1.4245 0
M  V30 2727 H 262.644 -0.7509 4.10082 0
M  V30 2728 H 261.304 -1.20469 3.01525 0
M  V30 2729 H 262.315 2.05915 4.75204 0
M  V30 2730 H 258.992 -0.450454 4.15063 0
M  V30 2731 H 260.382 3.18521 5.91603 0
M  V30 2732 N 263.102 -1.41638 0.69111 0
M  V30 2733 C 264.518 -1.55435 0.362224 0
M  V30 2734 C 264.718 -1.66754 -1.13117 0
M  V30 2735 O 263.774 -1.64348 -1.91692 0
M  V30 2736 C 265.087 -2.79588 1.10684 0
M  V30 2737 C 266.635 -2.9338 1.09075 0
M  V30 2738 C 267.11 -4.20414 1.81703 0
M  V30 2739 N 268.601 -4.27362 1.7865 0
M  V30 2740 C 269.336 -5.24507 2.31689 0
M  V30 2741 N 268.832 -6.27708 2.93179 0
M  V30 2742 N 270.625 -5.16416 2.2197 0
M  V30 2743 H 262.776 -1.32536 1.65976 0
M  V30 2744 H 265.039 -0.639115 0.700168 0
M  V30 2745 H 264.745 -2.77419 2.16175 0
M  V30 2746 H 264.619 -3.70973 0.682545 0
M  V30 2747 H 267.006 -2.95067 0.0441238 0
M  V30 2748 H 267.087 -2.0318 1.55407 0
M  V30 2749 H 266.731 -4.19488 2.86343 0
M  V30 2750 H 266.661 -5.09578 1.32808 0
M  V30 2751 H 269.152 -3.53415 1.33815 0
M  V30 2752 H 269.465 -6.98217 3.31229 0
M  V30 2753 H 267.81 -6.28223 2.97255 0
M  V30 2754 H 271.001 -4.34716 1.73607 0
M  V30 2755 H 271.174 -5.91958 2.63609 0
M  V30 2756 N 264.58 -0.43555 -1.51462 0
M  V30 2757 C 265.808 0.130242 -2.0649 0
M  V30 2758 C 266.223 1.36614 -1.30315 0
M  V30 2759 O 265.58 1.78869 -0.362223 0
M  V30 2760 C 265.631 0.454253 -3.58635 0
M  V30 2761 O 265.352 -0.73259 -4.31931 0
M  V30 2762 C 266.853 1.07091 -4.3017 0
M  V30 2763 H 264.073 0.00871669 -0.670943 0
M  V30 2764 H 266.617 -0.614117 -1.95061 0
M  V30 2765 H 264.772 1.14851 -3.69984 0
M  V30 2766 H 265.186 -0.455787 -5.22516 0
M  V30 2767 H 266.66 1.24764 -5.37716 0
M  V30 2768 H 267.137 2.05144 -3.88346 0
M  V30 2769 H 267.743 0.416089 -4.2326 0
M  V30 2770 N 266.058 1.56714 -0.166846 0
M  V30 2771 C 266.99 2.14914 0.796537 0
M  V30 2772 C 268.003 1.10357 1.19688 0
M  V30 2773 O 269.192 1.37561 1.13751 0
M  V30 2774 C 266.292 2.67326 2.08303 0
M  V30 2775 C 265.465 3.96493 1.84696 0
M  V30 2776 C 264.524 4.34014 2.97521 0
M  V30 2777 O 263.55 5.01973 2.6835 0
M  V30 2778 N 264.752 3.95208 4.25196 0
M  V30 2779 H 267.517 2.98205 0.299006 0
M  V30 2780 H 265.078 1.61892 0.0160839 0
M  V30 2781 H 267.07 2.89428 2.82867 0
M  V30 2782 H 265.64 1.88649 2.4926 0
M  V30 2783 H 264.86 3.82814 0.940602 0
M  V30 2784 H 266.148 4.8086 1.66285 0
M  V30 2785 H 265.546 3.40487 4.51758 0
M  V30 2786 H 264.103 4.2232 4.96477 0
M  V30 2787 N 267.536 -0.106894 1.57237 0
M  V30 2788 C 268.483 -1.13049 2.01217 0
M  V30 2789 C 269.453 -1.40471 0.886403 0
M  V30 2790 O 270.638 -1.52133 1.15153 0
M  V30 2791 C 267.778 -2.4487 2.43172 0
M  V30 2792 C 266.891 -2.24281 3.69218 0
M  V30 2793 C 266.026 -3.49417 4.00101 0
M  V30 2794 C 265.065 -3.24038 5.19294 0
M  V30 2795 N 264.202 -4.41409 5.45988 0
M  V30 2796 H 269.042 -0.748456 2.88448 0
M  V30 2797 H 266.579 -0.358054 1.42676 0
M  V30 2798 H 268.537 -3.21786 2.65537 0
M  V30 2799 H 267.167 -2.80944 1.58967 0
M  V30 2800 H 266.219 -1.38224 3.54398 0
M  V30 2801 H 267.531 -2.01512 4.56283 0
M  V30 2802 H 266.685 -4.34746 4.2318 0
M  V30 2803 H 265.424 -3.75229 3.11535 0
M  V30 2804 H 264.429 -2.37102 4.96047 0
M  V30 2805 H 265.654 -2.99584 6.09447 0
M  V30 2806 H 263.6 -4.67319 4.60379 0
M  V30 2807 H 263.517 -4.21788 6.274 0
M  V30 2808 H 264.785 -5.27836 5.73593 0
M  V30 2809 N 269.014 -1.53014 -0.377408 0
M  V30 2810 C 269.924 -1.81557 -1.48574 0
M  V30 2811 C 270.94 -0.703102 -1.59162 0
M  V30 2812 O 272.116 -0.99192 -1.75279 0
M  V30 2813 C 269.181 -1.9889 -2.83978 0
M  V30 2814 C 268.242 -3.22801 -2.83016 0
M  V30 2815 C 267.475 -3.39298 -4.11962 0
M  V30 2816 O 267.698 -2.60345 -5.0752 0
M  V30 2817 O 266.632 -4.32604 -4.18494 0
M  V30 2818 H 270.458 -2.75695 -1.27382 0
M  V30 2819 H 268.043 -1.38248 -0.566373 0
M  V30 2820 H 269.925 -2.11931 -3.6423 0
M  V30 2821 H 268.6 -1.07942 -3.05172 0
M  V30 2822 H 267.507 -3.15193 -2.01505 0
M  V30 2823 H 268.84 -4.13632 -2.66775 0
M  V30 2824 N 270.492 0.636531 -1.44174 0
M  V30 2825 C 271.741 1.39213 -1.45954 0
M  V30 2826 C 272.054 1.95374 -0.0939119 0
M  V30 2827 O 273.26 2.71498 0.0107767 0
M  V30 2828 C 271.716 2.52025 -2.56927 0
M  V30 2829 C 271.324 2.024 -3.99673 0
M  V30 2830 C 273.068 3.29269 -2.67922 0
M  V30 2831 C 270.975 3.12521 -5.0208 0
M  V30 2832 H 269.905 0.523132 -0.542999 0
M  V30 2833 H 272.556 0.685349 -1.70221 0
M  V30 2834 H 270.938 3.25253 -2.25891 0
M  V30 2835 H 272.112 1.36073 -4.40251 0
M  V30 2836 H 270.427 1.37987 -3.92872 0
M  V30 2837 H 273.024 4.11352 -3.41605 0
M  V30 2838 H 273.367 3.78397 -1.73555 0
M  V30 2839 H 273.9 2.63129 -2.98342 0
M  V30 2840 H 270.639 2.68343 -5.98057 0
M  V30 2841 H 270.159 3.77507 -4.66099 0
M  V30 2842 H 271.838 3.77385 -5.25538 0
M  V30 2843 N 271.97 1.30982 0.876444 0
M  V30 2844 C 272.88 1.2003 2.01569 0
M  V30 2845 C 273.896 0.11838 1.73597 0
M  V30 2846 O 275.072 0.33495 1.98595 0
M  V30 2847 C 272.137 0.901637 3.34771 0
M  V30 2848 C 271.198 2.06979 3.76109 0
M  V30 2849 C 270.431 1.78529 5.02954 0
M  V30 2850 O 270.654 0.717296 5.65872 0
M  V30 2851 O 269.588 2.64019 5.40905 0
M  V30 2852 H 273.414 2.15753 2.13739 0
M  V30 2853 H 270.999 1.10658 1.00375 0
M  V30 2854 H 272.881 0.750645 4.1466 0
M  V30 2855 H 271.556 -0.0256141 3.2369 0
M  V30 2856 H 270.463 2.27616 2.96887 0
M  V30 2857 H 271.796 2.97907 3.91807 0
M  V30 2858 N 273.449 -1.08991 1.13837 0
M  V30 2859 C 274.381 -2.15606 0.777612 0
M  V30 2860 C 275.394 -1.61533 -0.202739 0
M  V30 2861 O 276.583 -1.78491 0.0181055 0
M  V30 2862 C 273.683 -3.3864 0.132623 0
M  V30 2863 C 272.856 -4.22115 1.1462 0
M  V30 2864 C 271.915 -5.23564 0.526074 0
M  V30 2865 O 270.941 -5.56678 1.18735 0
M  V30 2866 N 272.143 -5.76266 -0.699866 0
M  V30 2867 H 274.908 -2.47159 1.69506 0
M  V30 2868 H 272.469 -1.24747 1.03198 0
M  V30 2869 H 274.461 -4.03626 -0.29459 0
M  V30 2870 H 273.031 -3.04938 -0.687849 0
M  V30 2871 H 272.251 -3.53199 1.75055 0
M  V30 2872 H 273.539 -4.74709 1.83109 0
M  V30 2873 H 272.937 -5.51585 -1.25581 0
M  V30 2874 H 271.494 -6.42963 -1.06968 0
M  V30 2875 N 274.927 -0.932562 -1.27047 0
M  V30 2876 C 275.837 -0.441219 -2.30414 0
M  V30 2877 C 276.853 0.480525 -1.67233 0
M  V30 2878 O 278.029 0.362151 -1.98117 0
M  V30 2879 C 275.094 0.293651 -3.45454 0
M  V30 2880 C 274.155 -0.663601 -4.2414 0
M  V30 2881 C 273.388 0.0362932 -5.33688 0
M  V30 2882 O 273.611 1.2548 -5.56427 0
M  V30 2883 O 272.545 -0.638015 -5.98509 0
M  V30 2884 H 276.371 -1.29962 -2.74488 0
M  V30 2885 H 273.956 -0.6981 -1.32087 0
M  V30 2886 H 275.838 0.707951 -4.15411 0
M  V30 2887 H 274.513 1.12758 -3.03426 0
M  V30 2888 H 273.42 -1.12768 -3.56699 0
M  V30 2889 H 274.753 -1.46489 -4.69896 0
M  V30 2890 N 276.405 1.4127 -0.698611 0
M  V30 2891 C 277.368 2.29158 -0.044132 0
M  V30 2892 C 278.368 1.44529 0.704841 0
M  V30 2893 O 279.558 1.65643 0.539276 0
M  V30 2894 C 276.69 3.27459 0.947809 0
M  V30 2895 H 277.883 2.88529 -0.817994 0
M  V30 2896 H 275.436 1.49307 -0.46228 0
M  V30 2897 H 276.171 2.73073 1.74933 0
M  V30 2898 H 275.956 3.8991 0.41385 0
M  V30 2899 H 277.446 3.93311 1.40344 0
M  V30 2900 N 277.883 0.443576 1.51229 0
M  V30 2901 C 278.846 -0.353132 2.26463 0
M  V30 2902 C 279.846 -0.944338 1.3015 0
M  V30 2903 O 281.036 -0.817813 1.5381 0
M  V30 2904 C 278.168 -1.50023 3.06114 0
M  V30 2905 H 279.361 0.3063 2.98332 0
M  V30 2906 H 276.914 0.196902 1.55055 0
M  V30 2907 H 277.649 -2.19553 2.38677 0
M  V30 2908 H 277.434 -1.08241 3.76864 0
M  V30 2909 H 278.924 -2.06296 3.63087 0
M  V30 2910 N 279.361 -1.56624 0.175154 0
M  V30 2911 C 280.607 -1.9729 -0.469506 0
M  V30 2912 C 280.94 -1.06128 -1.62636 0
M  V30 2913 O 280.215 -0.109183 -1.94193 0
M  V30 2914 C 280.498 -3.47375 -0.948804 0
M  V30 2915 C 280.351 -4.49317 0.208491 0
M  V30 2916 C 281.67 -4.00652 -1.82116 0
M  V30 2917 H 278.789 -0.717317 -0.16919 0
M  V30 2918 H 281.431 -1.88184 0.262062 0
M  V30 2919 H 279.581 -3.55267 -1.57219 0
M  V30 2920 H 281.253 -4.53482 0.845682 0
M  V30 2921 H 279.496 -4.25121 0.863395 0
M  V30 2922 H 280.167 -5.51741 -0.169059 0
M  V30 2923 H 282.643 -3.95416 -1.2956 0
M  V30 2924 H 281.519 -5.06075 -2.12554 0
M  V30 2925 H 281.78 -3.44699 -2.7683 0
M  V30 2926 N 280.839 0.0985539 -1.57292 0
M  V30 2927 C 281.749 1.13824 -2.05137 0
M  V30 2928 C 282.765 1.44076 -0.975604 0
M  V30 2929 O 283.941 1.54786 -1.28853 0
M  V30 2930 C 281.006 2.43969 -2.46333 0
M  V30 2931 C 280.067 2.2093 -3.68087 0
M  V30 2932 C 279.3 3.44869 -4.0731 0
M  V30 2933 O 279.523 4.52972 -3.46659 0
M  V30 2934 O 278.457 3.34661 -5.00285 0
M  V30 2935 H 282.283 0.761881 -2.93988 0
M  V30 2936 H 279.868 0.310818 -1.46131 0
M  V30 2937 H 281.75 3.20609 -2.73473 0
M  V30 2938 H 280.425 2.81038 -1.60621 0
M  V30 2939 H 279.332 1.42081 -3.46069 0
M  V30 2940 H 280.665 1.88755 -4.54568 0
M  V30 2941 N 282.317 1.53212 0.369288 0
M  V30 2942 C 283.247 1.82365 1.45826 0
M  V30 2943 C 284.228 0.676907 1.56051 0
M  V30 2944 O 285.413 0.926401 1.70679 0
M  V30 2945 C 282.543 2.01023 2.83208 0
M  V30 2946 C 281.497 3.1678 2.8781 0
M  V30 2947 C 280.823 3.20724 4.27832 0
M  V30 2948 C 282.123 4.55447 2.55667 0
M  V30 2949 H 283.817 2.73559 1.21678 0
M  V30 2950 H 281.363 1.3163 0.583911 0
M  V30 2951 H 283.316 2.20001 3.59413 0
M  V30 2952 H 282.04 1.06536 3.08736 0
M  V30 2953 H 280.699 2.97616 2.14056 0
M  V30 2954 H 280.347 2.23882 4.50429 0
M  V30 2955 H 280.047 3.98496 4.31827 0
M  V30 2956 H 281.571 3.41881 5.05915 0
M  V30 2957 H 282.985 4.74611 3.21586 0
M  V30 2958 H 281.382 5.35432 2.70984 0
M  V30 2959 H 282.452 4.60812 1.5093 0
M  V30 2960 N 283.795 -0.628877 1.44509 0
M  V30 2961 C 285.02 -1.42048 1.5112 0
M  V30 2962 C 285.445 -1.87594 0.137818 0
M  V30 2963 O 284.803 -1.58873 -0.873437 0
M  V30 2964 C 284.851 -2.61541 2.48251 0
M  V30 2965 O 283.955 -3.61453 1.98559 0
M  V30 2966 H 283.296 -0.424942 0.510216 0
M  V30 2967 H 285.826 -0.767374 1.89664 0
M  V30 2968 H 285.836 -3.09057 2.66361 0
M  V30 2969 H 284.511 -2.27736 3.48007 0
M  V30 2970 H 283.088 -3.20731 1.90227 0
M  V30 2971 N 285.273 -1.31445 -0.869486 0
M  V30 2972 C 286.205 -1.14955 -1.98287 0
M  V30 2973 C 287.218 -0.0885037 -1.62559 0
M  V30 2974 O 288.407 -0.336044 -1.75308 0
M  V30 2975 C 285.507 -0.734255 -3.3085 0
M  V30 2976 C 284.68 -1.88042 -3.94917 0
M  V30 2977 C 283.739 -1.4511 -5.05796 0
M  V30 2978 O 282.765 -2.16082 -5.2659 0
M  V30 2979 N 283.967 -0.338763 -5.79511 0
M  V30 2980 H 286.732 -2.10856 -2.12979 0
M  V30 2981 H 284.293 -1.23786 -1.04349 0
M  V30 2982 H 286.285 -0.42975 -4.02412 0
M  V30 2983 H 284.855 0.133158 -3.12316 0
M  V30 2984 H 284.075 -2.35222 -3.1633 0
M  V30 2985 H 285.363 -2.6481 -4.34457 0
M  V30 2986 H 284.761 0.252274 -5.65137 0
M  V30 2987 H 283.318 -0.0937925 -6.51733 0
M  V30 2988 N 286.751 1.08385 -1.14413 0
M  V30 2989 C 287.681 2.17321 -0.854044 0
M  V30 2990 C 288.662 1.69024 0.191049 0
M  V30 2991 O 289.847 1.94141 0.0476779 0
M  V30 2992 C 286.977 3.45719 -0.330983 0
M  V30 2993 C 285.931 4.07409 -1.31155 0
M  V30 2994 C 285.257 5.30762 -0.64778 0
M  V30 2995 C 286.557 4.48665 -2.67388 0
M  V30 2996 H 288.251 2.41845 -1.76498 0
M  V30 2997 H 285.797 1.16233 -0.850051 0
M  V30 2998 H 287.75 4.21241 -0.115645 0
M  V30 2999 H 286.474 3.2075 0.615381 0
M  V30 3000 H 285.133 3.33919 -1.51306 0
M  V30 3001 H 284.781 5.02078 0.304398 0
M  V30 3002 H 284.481 5.72992 -1.30207 0
M  V30 3003 H 286.005 6.08998 -0.441972 0
M  V30 3004 H 287.419 5.15364 -2.51143 0
M  V30 3005 H 285.816 5.01814 -3.29093 0
M  V30 3006 H 286.886 3.60543 -3.24248 0
M  V30 3007 N 288.23 0.939286 1.26551 0
M  V30 3008 C 289.646 0.641304 1.46149 0
M  V30 3009 C 289.846 -0.805964 1.84679 0
M  V30 3010 O 288.902 -1.58278 1.96734 0
M  V30 3011 C 290.215 1.6011 2.54529 0
M  V30 3012 C 291.763 1.6106 2.68382 0
M  V30 3013 C 292.238 2.55765 3.79932 0
M  V30 3014 N 293.729 2.5404 3.87322 0
M  V30 3015 C 294.464 3.24004 4.73085 0
M  V30 3016 N 293.96 4.03388 5.63249 0
M  V30 3017 N 295.753 3.12965 4.66914 0
M  V30 3018 H 287.904 1.87478 0.998285 0
M  V30 3019 H 290.167 0.805559 0.499779 0
M  V30 3020 H 289.873 2.63412 2.33039 0
M  V30 3021 H 289.747 1.35171 3.52149 0
M  V30 3022 H 292.134 0.584835 2.89247 0
M  V30 3023 H 292.215 1.90053 1.71212 0
M  V30 3024 H 291.859 3.58458 3.5982 0
M  V30 3025 H 291.789 2.24063 4.76554 0
M  V30 3026 H 294.28 1.96396 3.22858 0
M  V30 3027 H 294.593 4.5373 6.25579 0
M  V30 3028 H 292.938 4.07489 5.63008 0
M  V30 3029 H 296.129 2.50432 3.95476 0
M  V30 3030 H 296.302 3.67759 5.33533 0
M  V30 3031 N 289.708 -1.40897 0.706093 0
M  V30 3032 C 290.985 -1.94868 0.169099 0
M  V30 3033 C 291.365 -1.64485 -1.32318 0
M  V30 3034 O 290.713 -0.95744 -2.07474 0
M  V30 3035 C 290.923 -3.45798 0.471654 0
M  V30 3036 C 292.271 -4.22663 0.405127 0
M  V30 3037 O 293.295 -3.53865 0.407168 0
M  V30 3038 O 292.154 -5.45216 0.374383 0
M  V30 3039 H 289.248 -0.82673 0.0211352 0
M  V30 3040 H 291.794 -1.50558 0.782976 0
M  V30 3041 H 290.566 -3.61235 1.50416 0
M  V30 3042 H 290.189 -3.97225 -0.172666 0
M  V30 3043 N 291.186 -0.45159 -1.50991 0
M  V30 3044 C 292.597 0.00818571 -1.86698 0
M  V30 3045 C 292.948 1.40661 -1.3678 0
M  V30 3046 O 292.073 2.0391 -0.724546 0
M  V30 3047 C 292.668 0.0216303 -3.38793 0
M  V30 3048 C 291.227 0.425865 -3.73983 0
M  V30 3049 C 290.374 -0.372163 -2.74791 0
M  V30 3050 H 293.325 -0.666785 -1.44013 0
M  V30 3051 H 293.346 0.828078 -3.7138 0
M  V30 3052 H 292.858 -0.996288 -3.75094 0
M  V30 3053 H 290.959 1.44886 -3.43277 0
M  V30 3054 H 291.072 0.140761 -4.78893 0
M  V30 3055 H 289.436 0.171498 -2.54122 0
M  V30 3056 H 290.219 -1.38922 -3.13935 0
M  V30 3057 N 292.664 1.56529 -0.183458 0
M  V30 3058 C 293.596 2.15747 0.773697 0
M  V30 3059 C 294.609 1.1162 1.1851 0
M  V30 3060 O 295.798 1.3876 1.12285 0
M  V30 3061 C 292.898 2.6952 2.05456 0
M  V30 3062 C 292.071 3.98429 1.8048 0
M  V30 3063 C 291.13 4.37145 2.92901 0
M  V30 3064 O 290.156 5.04791 2.6301 0
M  V30 3065 N 291.358 3.99695 4.2098 0
M  V30 3066 H 294.123 2.98505 0.26736 0
M  V30 3067 H 291.684 1.619 -0.0010878 0
M  V30 3068 H 293.676 2.92412 2.79781 0
M  V30 3069 H 292.246 1.91282 2.47245 0
M  V30 3070 H 291.466 3.8379 0.899947 0
M  V30 3071 H 292.754 4.82597 1.61175 0
M  V30 3072 H 292.152 3.4526 4.48121 0
M  V30 3073 H 290.709 4.27562 4.9197 0
M  V30 3074 N 294.142 -0.090211 1.57342 0
M  V30 3075 C 295.092 -1.11557 1.98844 0
M  V30 3076 C 296.076 -1.35503 0.867624 0
M  V30 3077 O 297.268 -1.36113 1.13148 0
M  V30 3078 C 294.397 -2.43446 2.42051 0
M  V30 3079 C 293.483 -2.22853 3.60828 0
M  V30 3080 N 293.874 -1.72141 4.75606 0
M  V30 3081 C 292.172 -2.53401 3.67021 0
M  V30 3082 C 292.873 -1.65932 5.57531 0
M  V30 3083 N 291.849 -2.11323 5.00843 0
M  V30 3084 H 295.651 -0.716499 2.85032 0
M  V30 3085 H 293.165 -0.297567 1.59651 0
M  V30 3086 H 295.162 -3.17644 2.70014 0
M  V30 3087 H 293.822 -2.84087 1.57241 0
M  V30 3088 H 294.833 -1.41268 4.98261 0
M  V30 3089 H 291.51 -2.97532 2.92884 0
M  V30 3090 H 292.9 -1.27733 6.59647 0
M  V30 3091 N 295.62 -1.53406 -0.361157 0
M  V30 3092 C 296.897 -1.60411 -1.11927 0
M  V30 3093 C 297.277 -0.414385 -2.06993 0
M  V30 3094 O 296.625 0.594976 -2.20618 0
M  V30 3095 C 296.835 -2.95652 -1.85448 0
M  V30 3096 C 298.183 -3.50386 -2.39823 0
M  V30 3097 O 299.207 -2.97711 -1.95568 0
M  V30 3098 O 298.066 -4.42482 -3.20737 0
M  V30 3099 H 295.16 -0.64811 -0.513695 0
M  V30 3100 H 297.706 -1.65749 -0.364065 0
M  V30 3101 H 296.478 -3.73682 -1.16091 0
M  V30 3102 H 296.101 -2.93825 -2.67866 0
M  V30 3103 N 297.098 0.621204 -1.44841 0
M  V30 3104 C 298.028 1.74366 -1.55303 0
M  V30 3105 C 299.009 1.65199 -0.405385 0
M  V30 3106 O 300.194 1.83807 -0.626787 0
M  V30 3107 C 297.324 3.12931 -1.50637 0
M  V30 3108 C 296.278 3.36896 -2.63979 0
M  V30 3109 C 295.604 4.75594 -2.44366 0
M  V30 3110 C 296.904 3.28483 -4.06074 0
M  V30 3111 H 298.598 1.65867 -2.49256 0
M  V30 3112 H 296.144 0.796558 -1.19962 0
M  V30 3113 H 298.097 3.9124 -1.56555 0
M  V30 3114 H 296.821 3.22237 -0.532057 0
M  V30 3115 H 295.48 2.60972 -2.57467 0
M  V30 3116 H 295.128 4.81616 -1.45105 0
M  V30 3117 H 294.828 4.92586 -3.20364 0
M  V30 3118 H 296.352 5.5612 -2.52117 0
M  V30 3119 H 297.766 3.96684 -4.13902 0
M  V30 3120 H 296.163 3.57008 -4.82354 0
M  V30 3121 H 297.233 2.26133 -4.28943 0
M  V30 3122 N 298.576 1.31904 0.862503 0
M  V30 3123 C 299.853 1.12644 1.59908 0
M  V30 3124 C 300.233 -0.316104 2.0872 0
M  V30 3125 O 299.581 -1.31145 1.87118 0
M  V30 3126 C 299.791 2.1472 2.7513 0
M  V30 3127 C 301.139 2.47637 3.44907 0
M  V30 3128 O 302.163 2.13205 2.85346 0
M  V30 3129 O 301.022 3.06632 4.52371 0
M  V30 3130 H 298.116 0.43416 0.703871 0
M  V30 3131 H 300.662 1.43408 0.907314 0
M  V30 3132 H 299.434 3.1172 2.3653 0
M  V30 3133 H 299.057 1.84905 3.51989 0
M  V30 3134 N 300.054 -1.07777 1.14986 0
M  V30 3135 C 301.47 -1.32373 0.891596 0
M  V30 3136 C 301.67 -1.9609 -0.463788 0
M  V30 3137 O 300.726 -2.21801 -1.20667 0
M  V30 3138 C 302.039 -2.21905 2.02925 0
M  V30 3139 C 303.587 -2.35367 2.06329 0
M  V30 3140 C 304.062 -3.28245 3.19405 0
M  V30 3141 N 305.553 -3.35824 3.19024 0
M  V30 3142 C 306.288 -4.07739 4.03158 0
M  V30 3143 N 305.784 -4.82306 4.97346 0
M  V30 3144 N 307.577 -4.03635 3.91197 0
M  V30 3145 H 299.728 -0.648039 2.02273 0
M  V30 3146 H 301.991 -0.348149 0.881757 0
M  V30 3147 H 301.697 -1.82342 3.0074 0
M  V30 3148 H 301.571 -3.22407 1.95789 0
M  V30 3149 H 303.958 -2.74186 1.09116 0
M  V30 3150 H 304.039 -1.34585 2.17533 0
M  V30 3151 H 303.683 -2.90146 4.16867 0
M  V30 3152 H 303.613 -4.28971 3.05437 0
M  V30 3153 H 306.104 -2.8267 2.50811 0
M  V30 3154 H 306.417 -5.34661 5.57994 0
M  V30 3155 H 304.762 -4.81337 5.01338 0
M  V30 3156 H 307.953 -3.44491 3.16928 0
M  V30 3157 H 308.126 -4.59417 4.5699 0
M  V30 3158 N 301.532 -0.945985 -1.26051 0
M  V30 3159 C 302.778 -0.597002 -1.93814 0
M  V30 3160 C 303.111 0.862484 -1.73997 0
M  V30 3161 O 302.386 1.61769 -1.07986 0
M  V30 3162 C 302.669 -0.945937 -3.47454 0
M  V30 3163 C 302.522 -2.46052 -3.76535 0
M  V30 3164 C 303.841 -0.464785 -4.37639 0
M  V30 3165 H 300.96 -0.218366 -0.703907 0
M  V30 3166 H 303.602 -1.18107 -1.48831 0
M  V30 3167 H 301.752 -0.448902 -3.85898 0
M  V30 3168 H 303.424 -3.03065 -3.47778 0
M  V30 3169 H 301.667 -2.90194 -3.22444 0
M  V30 3170 H 302.338 -2.65517 -4.83947 0
M  V30 3171 H 304.814 -0.891016 -4.06448 0
M  V30 3172 H 303.69 -0.737712 -5.4392 0
M  V30 3173 H 303.951 0.635274 -4.37512 0
M  V30 3174 N 303.011 1.40521 -0.713556 0
M  V30 3175 C 303.958 2.30723 -0.059684 0
M  V30 3176 C 304.928 1.48079 0.752448 0
M  V30 3177 O 306.113 1.76823 0.71681 0
M  V30 3178 C 303.253 3.34274 0.857594 0
M  V30 3179 C 302.366 4.31986 0.0351536 0
M  V30 3180 C 301.501 5.22605 0.951724 0
M  V30 3181 C 300.54 6.11976 0.123253 0
M  V30 3182 N 299.677 6.9502 0.99459 0
M  V30 3183 H 304.517 2.86074 -0.834596 0
M  V30 3184 H 302.054 1.40879 -0.42326 0
M  V30 3185 H 304.012 3.92879 1.40364 0
M  V30 3186 H 302.642 2.8043 1.59871 0
M  V30 3187 H 301.694 3.7518 -0.628052 0
M  V30 3188 H 303.006 4.95101 -0.606347 0
M  V30 3189 H 302.16 5.86131 1.56638 0
M  V30 3190 H 300.899 4.59759 1.62705 0
M  V30 3191 H 299.904 5.47482 -0.50435 0
M  V30 3192 H 301.129 6.76881 -0.548539 0
M  V30 3193 H 299.075 6.34764 1.6556 0
M  V30 3194 H 298.992 7.54892 0.40908 0
M  V30 3195 H 300.26 7.62997 1.59549 0
M  V30 3196 N 304.489 0.459591 1.5075 0
M  V30 3197 C 305.436 -0.340524 2.28274 0
M  V30 3198 C 306.406 -0.997371 1.32822 0
M  V30 3199 O 307.591 -1.01202 1.61749 0
M  V30 3200 C 304.731 -1.42317 3.14388 0
M  V30 3201 C 303.844 -0.782251 4.24859 0
M  V30 3202 C 302.979 -1.84182 4.98247 0
M  V30 3203 C 302.018 -1.18053 6.00608 0
M  V30 3204 N 301.155 -2.18244 6.67319 0
M  V30 3205 H 305.995 0.326899 2.96202 0
M  V30 3206 H 303.532 0.173057 1.46078 0
M  V30 3207 H 305.49 -2.06241 3.62658 0
M  V30 3208 H 304.12 -2.05992 2.4853 0
M  V30 3209 H 303.172 -0.0307404 3.80388 0
M  V30 3210 H 304.484 -0.259663 4.98124 0
M  V30 3211 H 303.638 -2.55714 5.50177 0
M  V30 3212 H 302.377 -2.39819 4.24662 0
M  V30 3213 H 301.382 -0.450776 5.47949 0
M  V30 3214 H 302.607 -0.631202 6.7616 0
M  V30 3215 H 300.553 -2.72919 5.96533 0
M  V30 3216 H 300.47 -1.70938 7.36421 0
M  V30 3217 H 301.738 -2.89191 7.23871 0
M  V30 3218 N 305.967 -1.56429 0.191757 0
M  V30 3219 C 307.378 -1.83912 -0.321428 0
M  V30 3220 C 307.729 -1.11231 -1.61623 0
M  V30 3221 O 306.854 -0.37202 -2.13178 0
M  V30 3222 C 307.449 -3.33624 -0.589961 0
M  V30 3223 C 306.008 -3.6153 -1.04753 0
M  V30 3224 C 305.155 -2.7714 -0.0943327 0
M  V30 3225 H 308.106 -1.53161 0.415612 0
M  V30 3226 H 308.127 -3.52213 -1.43966 0
M  V30 3227 H 307.639 -3.86495 0.352588 0
M  V30 3228 H 305.74 -3.14089 -2.00447 0
M  V30 3229 H 305.853 -4.69737 -0.942549 0
M  V30 3230 H 304.217 -2.47638 -0.595589 0
M  V30 3231 H 305 -3.32799 0.842601 0
M  V30 3232 N 307.445 0.0818655 -1.57387 0
M  V30 3233 C 308.355 1.11642 -2.06333 0
M  V30 3234 C 309.371 1.43033 -0.99083 0
M  V30 3235 O 310.547 1.53411 -1.30488 0
M  V30 3236 C 307.612 2.41342 -2.48907 0
M  V30 3237 C 306.673 2.17014 -3.7041 0
M  V30 3238 C 305.906 3.4053 -4.10944 0
M  V30 3239 O 306.129 4.4927 -3.51444 0
M  V30 3240 O 305.063 3.29336 -5.03807 0
M  V30 3241 H 308.889 0.730657 -2.9478 0
M  V30 3242 H 306.474 0.295301 -1.46452 0
M  V30 3243 H 308.356 3.17691 -2.76858 0
M  V30 3244 H 307.031 2.79319 -1.63593 0
M  V30 3245 H 305.938 1.38403 -3.47556 0
M  V30 3246 H 307.271 1.83923 -4.56545 0
M  V30 3247 N 308.923 1.53595 0.353017 0
M  V30 3248 C 310.169 1.71581 1.09232 0
M  V30 3249 C 310.524 0.468328 1.86613 0
M  V30 3250 O 309.817 -0.538911 1.83865 0
M  V30 3251 C 310.011 2.91313 2.07054 0
M  V30 3252 C 309.84 4.27585 1.39287 0
M  V30 3253 C 308.61 4.92233 1.1417 0
M  V30 3254 C 310.808 5.07656 0.824005 0
M  V30 3255 N 308.79 6.124 0.428841 0
M  V30 3256 C 310.161 6.19531 0.241195 0
M  V30 3257 C 312.216 4.92609 0.723922 0
M  V30 3258 C 310.919 7.18002 -0.431952 0
M  V30 3259 C 312.945 5.91365 0.0645334 0
M  V30 3260 C 312.307 7.02571 -0.507347 0
M  V30 3261 H 308.406 0.680987 0.384422 0
M  V30 3262 H 310.99 1.91013 0.377096 0
M  V30 3263 H 309.161 2.73398 2.75877 0
M  V30 3264 H 310.893 2.98062 2.73753 0
M  V30 3265 H 307.648 4.51612 1.42631 0
M  V30 3266 H 308.072 6.76944 0.0874131 0
M  V30 3267 H 312.714 4.06808 1.15181 0
M  V30 3268 H 310.432 8.03384 -0.871758 0
M  V30 3269 H 314.018 5.81799 -0.0121469 0
M  V30 3270 H 312.898 7.77675 -1.0095 0
M  V30 3271 N 310.401 -0.613514 1.45168 0
M  V30 3272 C 311.647 -1.37471 1.49096 0
M  V30 3273 C 311.98 -1.93765 0.129901 0
M  V30 3274 O 311.255 -1.74707 -0.854858 0
M  V30 3275 C 311.538 -2.52701 2.56542 0
M  V30 3276 C 311.391 -2.01643 4.0207 0
M  V30 3277 C 312.71 -3.54849 2.60327 0
M  V30 3278 H 309.829 -0.498502 0.54283 0
M  V30 3279 H 312.471 -0.692125 1.76945 0
M  V30 3280 H 310.621 -3.10931 2.32926 0
M  V30 3281 H 312.293 -1.48108 4.36877 0
M  V30 3282 H 310.536 -1.32688 4.13009 0
M  V30 3283 H 311.207 -2.84681 4.72928 0
M  V30 3284 H 313.683 -3.0645 2.81474 0
M  V30 3285 H 312.559 -4.32973 3.37381 0
M  V30 3286 H 312.82 -4.10079 1.6519 0
M  V30 3287 N 311.879 -1.3236 -0.855495 0
M  V30 3288 C 313.128 -1.22226 -1.60448 0
M  V30 3289 C 313.441 0.214733 -1.94418 0
M  V30 3290 O 314.647 0.437917 -2.67945 0
M  V30 3291 C 313.103 -2.14063 -2.89318 0
M  V30 3292 C 312.711 -3.62839 -2.62777 0
M  V30 3293 C 314.455 -2.12764 -3.67331 0
M  V30 3294 C 312.362 -4.4664 -3.87643 0
M  V30 3295 H 311.292 -0.453904 -0.602069 0
M  V30 3296 H 313.943 -1.57314 -0.944698 0
M  V30 3297 H 312.325 -1.71889 -3.5675 0
M  V30 3298 H 313.499 -4.1335 -2.03662 0
M  V30 3299 H 311.814 -3.66261 -1.98096 0
M  V30 3300 H 314.411 -2.72611 -4.59987 0
M  V30 3301 H 314.754 -1.11841 -4.00995 0
M  V30 3302 H 315.287 -2.53214 -3.06802 0
M  V30 3303 H 312.026 -5.48373 -3.5912 0
M  V30 3304 H 311.546 -4.0088 -4.46156 0
M  V30 3305 H 313.225 -4.59597 -4.55389 0
M  V30 3306 N 313.357 1.07166 -1.15556 0
M  V30 3307 C 314.287 2.16403 -0.877046 0
M  V30 3308 C 315.268 1.69217 0.173111 0
M  V30 3309 O 316.453 1.94181 0.027084 0
M  V30 3310 C 313.583 3.45349 -0.367632 0
M  V30 3311 C 312.537 4.05995 -1.35468 0
M  V30 3312 C 311.863 5.30045 -0.704038 0
M  V30 3313 C 313.163 4.45804 -2.72132 0
M  V30 3314 H 314.857 2.39959 -1.79053 0
M  V30 3315 H 312.403 1.15325 -0.862331 0
M  V30 3316 H 314.356 4.21095 -0.160317 0
M  V30 3317 H 313.08 3.21385 0.581326 0
M  V30 3318 H 311.739 3.32296 -1.54839 0
M  V30 3319 H 311.387 5.02373 0.251128 0
M  V30 3320 H 311.087 5.71579 -1.36277 0
M  V30 3321 H 312.611 6.08495 -0.50654 0
M  V30 3322 H 314.025 5.12671 -2.56595 0
M  V30 3323 H 312.422 4.98296 -3.34397 0
M  V30 3324 H 313.492 3.57083 -3.28054 0
M  V30 3325 N 314.835 0.952656 1.25548 0
M  V30 3326 C 316.084 0.602053 1.92505 0
M  V30 3327 C 316.397 -0.864663 1.75451 0
M  V30 3328 O 317.603 -1.32514 2.36965 0
M  V30 3329 C 316.059 1.02607 3.44963 0
M  V30 3330 C 315.667 2.51519 3.70732 0
M  V30 3331 C 317.411 0.747905 4.1786 0
M  V30 3332 C 315.318 2.87732 5.16686 0
M  V30 3333 H 314.248 0.22146 0.720744 0
M  V30 3334 H 316.899 1.15684 1.42441 0
M  V30 3335 H 315.281 0.399712 3.93978 0
M  V30 3336 H 316.455 3.19157 3.32378 0
M  V30 3337 H 314.77 2.76786 3.11092 0
M  V30 3338 H 317.367 0.994647 5.25367 0
M  V30 3339 H 317.71 -0.315629 4.15102 0
M  V30 3340 H 318.243 1.33452 3.74747 0
M  V30 3341 H 314.982 3.93095 5.24554 0
M  V30 3342 H 314.502 2.24765 5.56094 0
M  V30 3343 H 316.181 2.76817 5.84792 0
M  V30 3344 N 316.313 -1.40141 0.720998 0
M  V30 3345 C 317.561 -2.0039 0.262323 0
M  V30 3346 C 317.882 -1.57469 -1.15015 0
M  V30 3347 O 317.152 -0.816582 -1.78069 0
M  V30 3348 H 315.732 -0.741063 0.093996 0
M  V30 3349 H 318.394 -1.71398 0.927835 0
M  V30 3350 H 317.49 -3.10658 0.299671 0
M  V30 3351 N 317.792 -0.46758 -1.50504 0
M  V30 3352 C 319.038 0.0887532 -2.02606 0
M  V30 3353 C 319.371 1.39686 -1.34913 0
M  V30 3354 O 318.646 1.88644 -0.473694 0
M  V30 3355 C 318.929 0.276206 -3.59039 0
M  V30 3356 C 318.782 -1.05267 -4.37309 0
M  V30 3357 C 320.101 1.03235 -4.27821 0
M  V30 3358 H 317.22 0.0307814 -0.736357 0
M  V30 3359 H 319.862 -0.612485 -1.79857 0
M  V30 3360 H 318.012 0.8735 -3.78553 0
M  V30 3361 H 319.684 -1.68628 -4.29374 0
M  V30 3362 H 317.927 -1.65015 -4.01189 0
M  V30 3363 H 318.598 -0.875197 -5.45018 0
M  V30 3364 H 321.074 0.526111 -4.12761 0
M  V30 3365 H 319.95 1.1323 -5.37094 0
M  V30 3366 H 320.211 2.06806 -3.90748 0
M  V30 3367 N 319.27 1.56325 -0.20005 0
M  V30 3368 C 320.51 1.99619 0.439519 0
M  V30 3369 C 320.874 1.08423 1.58456 0
M  V30 3370 O 322.075 1.40973 2.28867 0
M  V30 3371 C 320.346 3.46314 0.883258 0
M  V30 3372 S 321.905 4.11634 1.51997 0
M  V30 3373 H 318.723 0.697007 0.140363 0
M  V30 3374 H 321.325 1.93118 -0.304282 0
M  V30 3375 H 320.029 4.10381 0.0398967 0
M  V30 3376 H 319.56 3.56643 1.6604 0
M  V30 3377 H 321.575 4.09049 2.8088 0
M  V30 3378 N 320.748 -0.0735177 1.57428 0
M  V30 3379 C 321.976 -0.785969 1.9139 0
M  V30 3380 C 322.391 -1.71207 0.795847 0
M  V30 3381 O 321.748 -1.81033 -0.230915 0
M  V30 3382 C 321.799 -1.58107 3.25091 0
M  V30 3383 O 321.52 -0.6922 4.32597 0
M  V30 3384 C 323.021 -2.39467 3.73055 0
M  V30 3385 H 320.241 -0.223558 0.632663 0
M  V30 3386 H 322.785 -0.044302 2.04452 0
M  V30 3387 H 320.94 -2.27503 3.13562 0
M  V30 3388 H 321.354 -1.24504 5.09508 0
M  V30 3389 H 322.828 -2.90716 4.69242 0
M  V30 3390 H 323.305 -3.18913 3.01979 0
M  V30 3391 H 323.911 -1.7523 3.87523 0
M  V30 3392 N 322.226 -1.5378 -0.344866 0
M  V30 3393 C 323.176 -1.78057 -1.42407 0
M  V30 3394 C 324.16 -0.635732 -1.47808 0
M  V30 3395 O 325.352 -0.89508 -1.527 0
M  V30 3396 C 322.481 -1.99242 -2.79566 0
M  V30 3397 C 321.567 -3.19787 -2.78562 0
M  V30 3398 N 321.958 -4.41284 -2.47189 0
M  V30 3399 C 320.256 -3.2093 -3.0971 0
M  V30 3400 C 320.957 -5.23128 -2.54385 0
M  V30 3401 N 319.933 -4.59813 -2.89953 0
M  V30 3402 H 323.735 -2.69588 -1.17046 0
M  V30 3403 H 321.249 -1.52687 -0.553217 0
M  V30 3404 H 323.246 -2.14768 -3.57324 0
M  V30 3405 H 321.906 -1.08953 -3.05875 0
M  V30 3406 H 322.917 -4.68657 -2.20411 0
M  V30 3407 H 319.594 -2.40603 -3.41199 0
M  V30 3408 H 320.984 -6.30096 -2.333 0
M  V30 3409 N 323.704 0.605807 -1.45491 0
M  V30 3410 C 324.634 1.72709 -1.57143 0
M  V30 3411 C 325.615 1.6476 -0.422884 0
M  V30 3412 O 326.8 1.83132 -0.646247 0
M  V30 3413 C 323.93 3.11316 -1.53948 0
M  V30 3414 C 322.884 3.34077 -2.67537 0
M  V30 3415 C 322.21 4.72975 -2.49397 0
M  V30 3416 C 323.51 3.24158 -4.09535 0
M  V30 3417 H 325.204 1.63214 -2.51001 0
M  V30 3418 H 322.75 0.78379 -1.208 0
M  V30 3419 H 324.703 3.89557 -1.60696 0
M  V30 3420 H 323.427 3.21655 -0.566205 0
M  V30 3421 H 322.086 2.58227 -2.6022 0
M  V30 3422 H 321.734 4.8005 -1.50205 0
M  V30 3423 H 321.434 4.8916 -3.25571 0
M  V30 3424 H 322.958 5.53414 -2.58002 0
M  V30 3425 H 324.372 3.92271 -4.18086 0
M  V30 3426 H 322.769 3.51872 -4.86113 0
M  V30 3427 H 323.839 2.2157 -4.31317 0
M  V30 3428 N 325.182 1.32811 0.848464 0
M  V30 3429 C 326.43 1.23479 1.59991 0
M  V30 3430 C 326.751 -0.201853 1.93952 0
M  V30 3431 O 326.021 -1.12818 1.60153 0
M  V30 3432 H 324.601 0.454034 0.593179 0
M  V30 3433 H 327.263 1.66412 1.01455 0
M  V30 3434 H 326.359 1.82178 2.53412 0
M  V30 3435 N 326.66 -1.06551 1.16123 0
M  V30 3436 C 327.9 -1.80889 0.951766 0
M  V30 3437 C 328.264 -1.85062 -0.511465 0
M  V30 3438 O 329.465 -2.55353 -0.83954 0
M  V30 3439 C 327.736 -3.21609 1.55893 0
M  V30 3440 S 329.295 -4.12593 1.49373 0
M  V30 3441 H 326.113 -0.623156 0.342341 0
M  V30 3442 H 328.715 -1.27943 1.47821 0
M  V30 3443 H 327.419 -3.16165 2.61664 0
M  V30 3444 H 326.95 -3.79631 1.0317 0
M  V30 3445 H 328.965 -4.93753 0.492196 0
M  V30 3446 N 328.138 -0.959301 -1.25041 0
M  V30 3447 C 329.384 -0.617525 -1.9317 0
M  V30 3448 C 329.717 0.843981 -1.74902 0
M  V30 3449 O 328.992 1.60615 -1.09696 0
M  V30 3450 C 329.275 -0.982736 -3.46431 0
M  V30 3451 C 329.128 -2.50032 -3.73904 0
M  V30 3452 C 330.447 -0.511176 -4.37121 0
M  V30 3453 H 327.566 -0.22582 -0.701552 0
M  V30 3454 H 330.208 -1.19679 -1.4757 0
M  V30 3455 H 328.358 -0.489806 -3.854 0
M  V30 3456 H 330.03 -3.06737 -3.44544 0
M  V30 3457 H 328.273 -2.93598 -3.19348 0
M  V30 3458 H 328.944 -2.70635 -4.81103 0
M  V30 3459 H 331.42 -0.934075 -4.0548 0
M  V30 3460 H 330.296 -0.795361 -5.43107 0
M  V30 3461 H 330.557 0.588834 -4.38161 0
M  V30 3462 N 329.616 1.39756 -0.72842 0
M  V30 3463 C 331.027 1.83498 -0.344289 0
M  V30 3464 C 331.378 1.60868 1.12321 0
M  V30 3465 O 330.503 1.09634 1.86573 0
M  V30 3466 C 331.098 3.33114 -0.618112 0
M  V30 3467 C 329.657 3.753 -0.287549 0
M  V30 3468 C 328.804 2.62831 -0.884048 0
M  V30 3469 H 331.755 1.28842 -0.926578 0
M  V30 3470 H 331.776 3.80334 0.112349 0
M  V30 3471 H 331.288 3.49553 -1.68625 0
M  V30 3472 H 329.389 3.64451 0.775012 0
M  V30 3473 H 329.502 4.72945 -0.765512 0
M  V30 3474 H 327.866 2.52792 -0.311149 0
M  V30 3475 H 328.649 2.82078 -1.95671 0
M  V30 3476 N 331.094 0.475555 1.50254 0
M  V30 3477 C 332.343 -0.0795996 2.01543 0
M  V30 3478 C 332.656 -1.4038 1.36209 0
M  V30 3479 O 333.862 -2.04415 1.7868 0
M  V30 3480 C 332.318 -0.192363 3.59386 0
M  V30 3481 C 331.926 1.12367 4.33679 0
M  V30 3482 C 333.67 -0.699238 4.18701 0
M  V30 3483 C 331.577 0.974453 5.83317 0
M  V30 3484 H 330.507 -0.0335228 0.753254 0
M  V30 3485 H 333.158 0.611128 1.73025 0
M  V30 3486 H 331.54 -0.946974 3.84511 0
M  V30 3487 H 332.714 1.88958 4.20276 0
M  V30 3488 H 331.029 1.562 3.85993 0
M  V30 3489 H 333.626 -0.827978 5.28251 0
M  V30 3490 H 333.969 -1.69171 3.80377 0
M  V30 3491 H 334.502 -0.00188807 3.978 0
M  V30 3492 H 331.241 1.94042 6.26121 0
M  V30 3493 H 330.761 0.248998 5.99283 0
M  V30 3494 H 332.44 0.642867 6.43798 0
M  V30 3495 N 332.573 -1.56217 0.208337 0
M  V30 3496 C 333.536 -2.18455 -0.693557 0
M  V30 3497 C 334.536 -1.14268 -1.13135 0
M  V30 3498 O 335.726 -1.39577 -1.0423 0
M  V30 3499 C 332.858 -2.79727 -1.94848 0
M  V30 3500 H 334.051 -2.99519 -0.15114 0
M  V30 3501 H 331.604 -1.56245 -0.041287 0
M  V30 3502 H 332.339 -2.02497 -2.53309 0
M  V30 3503 H 332.124 -3.56009 -1.64316 0
M  V30 3504 H 333.614 -3.27475 -2.59133 0
M  V30 3505 N 334.051 0.0651679 -1.57465 0
M  V30 3506 C 334.999 1.09542 -2.05191 0
M  V30 3507 C 335.993 1.39675 -0.958509 0
M  V30 3508 O 337.199 1.39003 -1.14359 0
M  V30 3509 H 333.574 0.370623 -0.654326 0
M  V30 3510 H 335.545 0.666802 -2.90854 0
M  V30 3511 C 334.294 2.39881 -2.51699 0
M  V30 3512 H 333.617 2.17547 -3.3543 0
M  V30 3513 H 335.057 3.104 -2.88839 0
M  V30 3514 C 333.516 3.0631 -1.40271 0
M  V30 3515 O 334.046 3.94664 -0.748523 0
M  V30 3516 N 332.252 2.67041 -1.14618 0
M  V30 3517 H 331.799 1.95281 -1.67997 0
M  V30 3518 H 331.757 3.1181 -0.402688 0
M  V30 3519 N 335.529 1.53961 0.336706 0
M  V30 3520 C 336.492 1.81724 1.39675 0
M  V30 3521 C 337.492 0.688532 1.45313 0
M  V30 3522 O 338.682 0.956829 1.45569 0
M  V30 3523 C 335.814 1.96543 2.78538 0
M  V30 3524 H 337.007 2.76424 1.16318 0
M  V30 3525 H 334.56 1.45478 0.571474 0
M  V30 3526 H 335.295 1.0401 3.07168 0
M  V30 3527 H 335.08 2.78665 2.75841 0
M  V30 3528 H 336.57 2.19516 3.5525 0
M  V30 3529 N 337.007 -0.598083 1.45811 0
M  V30 3530 C 338.255 -1.35413 1.50026 0
M  V30 3531 C 338.576 -1.94444 0.147177 0
M  V30 3532 O 337.846 -1.77701 -0.824571 0
M  V30 3533 H 336.426 -0.502727 0.552517 0
M  V30 3534 H 339.088 -0.701606 1.81834 0
M  V30 3535 H 338.184 -2.16871 2.2444 0
M  V30 3536 N 338.485 -1.33259 -0.841409 0
M  V30 3537 C 339.762 -1.15174 -1.58096 0
M  V30 3538 C 340.142 0.282858 -2.09196 0
M  V30 3539 O 339.49 1.28151 -1.89181 0
M  V30 3540 C 339.7 -2.1907 -2.71679 0
M  V30 3541 C 341.048 -2.53093 -3.40924 0
M  V30 3542 O 342.072 -2.17717 -2.81918 0
M  V30 3543 O 340.931 -3.1379 -4.47435 0
M  V30 3544 H 338.025 -0.445303 -0.696875 0
M  V30 3545 H 340.571 -1.44833 -0.884385 0
M  V30 3546 H 339.343 -3.15443 -2.31541 0
M  V30 3547 H 338.966 -1.90481 -3.49002 0
M  V30 3548 N 339.963 1.05934 -1.16686 0
M  V30 3549 C 341.21 1.788 -0.950622 0
M  V30 3550 C 341.538 1.87384 0.521305 0
M  V30 3551 O 340.793 1.36438 1.40297 0
M  V30 3552 C 341.092 3.23105 -1.52767 0
M  V30 3553 C 340.758 3.34594 -3.02254 0
M  V30 3554 C 339.42 3.37437 -3.43059 0
M  V30 3555 C 341.772 3.36219 -3.98254 0
M  V30 3556 C 339.1 3.39525 -4.78477 0
M  V30 3557 C 341.452 3.39845 -5.33562 0
M  V30 3558 C 340.116 3.40971 -5.73842 0
M  V30 3559 H 339.386 0.654275 -0.347857 0
M  V30 3560 H 342.033 1.24555 -1.45459 0
M  V30 3561 H 340.338 3.80227 -0.94524 0
M  V30 3562 H 342.035 3.7809 -1.336 0
M  V30 3563 H 338.625 3.3309 -2.6972 0
M  V30 3564 H 342.809 3.33231 -3.67792 0
M  V30 3565 H 338.065 3.38703 -5.09009 0
M  V30 3566 H 342.239 3.4005 -6.07733 0
M  V30 3567 H 339.866 3.42342 -6.78753 0
M  V30 3568 N 341.441 0.965919 1.2453 0
M  V30 3569 C 342.689 0.625593 1.92174 0
M  V30 3570 C 343.01 -0.841652 1.75901 0
M  V30 3571 O 342.28 -1.60061 1.12948 0
M  V30 3572 H 340.86 0.228388 0.71123 0
M  V30 3573 H 343.522 1.2266 1.51461 0
M  V30 3574 H 342.618 0.864653 2.99884 0
M  V30 3575 N 342.919 -1.39368 0.735821 0
M  V30 3576 C 344.167 -2.00101 0.283562 0
M  V30 3577 C 344.488 -1.5868 -1.13338 0
M  V30 3578 O 343.758 -0.835423 -1.77193 0
M  V30 3579 H 342.338 -0.740024 0.101851 0
M  V30 3580 H 345 -1.70404 0.945962 0
M  V30 3581 H 344.096 -3.10323 0.332604 0
M  V30 3582 N 344.397 -0.483516 -1.5 0
M  V30 3583 C 345.627 0.0643896 -2.065 0
M  V30 3584 C 346.035 1.32949 -1.34615 0
M  V30 3585 O 345.378 1.79003 -0.412756 0
M  V30 3586 C 345.44 0.405983 -3.572 0
M  V30 3587 C 345.104 -0.758875 -4.50655 0
M  V30 3588 C 346.101 -1.64445 -4.93208 0
M  V30 3589 C 343.786 -0.952725 -4.93182 0
M  V30 3590 C 345.78 -2.70818 -5.77006 0
M  V30 3591 C 343.467 -2.01966 -5.76761 0
M  V30 3592 C 344.465 -2.89574 -6.18576 0
M  V30 3593 O 344.153 -3.94429 -7.00486 0
M  V30 3594 H 343.885 -0.00934786 -0.675935 0
M  V30 3595 H 346.439 -0.674959 -1.93993 0
M  V30 3596 H 344.669 1.19869 -3.67652 0
M  V30 3597 H 346.358 0.890433 -3.96013 0
M  V30 3598 H 347.124 -1.50643 -4.61012 0
M  V30 3599 H 343.003 -0.280247 -4.60147 0
M  V30 3600 H 346.547 -3.3923 -6.09565 0
M  V30 3601 H 342.444 -2.1577 -6.0837 0
M  V30 3602 H 343.212 -3.91568 -7.1876 0
M  V30 3603 N 345.875 1.56104 -0.216619 0
M  V30 3604 C 347.105 2.02269 0.420802 0
M  V30 3605 C 347.513 1.09575 1.5424 0
M  V30 3606 O 346.856 0.0967308 1.83445 0
M  V30 3607 C 346.918 3.44784 1.01806 0
M  V30 3608 C 346.582 4.56988 0.0325154 0
M  V30 3609 C 347.579 5.14225 -0.766055 0
M  V30 3610 C 345.264 5.02228 -0.0848092 0
M  V30 3611 C 347.258 6.15169 -1.6687 0
M  V30 3612 C 344.945 6.03011 -0.990994 0
M  V30 3613 C 345.943 6.59357 -1.78149 0
M  V30 3614 O 345.631 7.58179 -2.67245 0
M  V30 3615 H 345.363 0.667353 0.107776 0
M  V30 3616 H 347.917 2.02747 -0.329034 0
M  V30 3617 H 346.147 3.41359 1.81689 0
M  V30 3618 H 347.836 3.74626 1.56237 0
M  V30 3619 H 348.602 4.80126 -0.685836 0
M  V30 3620 H 344.481 4.58054 0.520349 0
M  V30 3621 H 348.025 6.59076 -2.28615 0
M  V30 3622 H 343.922 6.36532 -1.07225 0
M  V30 3623 H 344.69 7.75682 -2.61265 0
M  V30 3624 N 347.353 -0.0568162 1.57498 0
M  V30 3625 C 348.593 -0.758273 1.89815 0
M  V30 3626 C 348.957 -1.73978 0.812132 0
M  V30 3627 O 350.158 -2.48744 1.01881 0
M  V30 3628 C 348.429 -1.43465 3.27342 0
M  V30 3629 S 349.988 -2.1691 3.81439 0
M  V30 3630 H 346.806 -0.251836 0.664906 0
M  V30 3631 H 349.408 -0.0137997 1.95495 0
M  V30 3632 H 348.112 -0.706693 4.0427 0
M  V30 3633 H 347.643 -2.21825 3.24896 0
M  V30 3634 H 349.658 -3.43658 3.5793 0
M  V30 3635 N 348.832 -1.54138 -0.328536 0
M  V30 3636 C 350.243 -1.63395 -0.903272 0
M  V30 3637 C 350.594 -0.524828 -1.8905 0
M  V30 3638 O 349.719 0.343068 -2.13663 0
M  V30 3639 C 350.314 -2.9618 -1.64507 0
M  V30 3640 C 348.873 -3.0765 -2.1686 0
M  V30 3641 C 348.02 -2.58933 -0.992416 0
M  V30 3642 H 350.971 -1.58344 -0.106253 0
M  V30 3643 H 350.992 -2.86061 -2.50897 0
M  V30 3644 H 350.504 -3.76884 -0.926302 0
M  V30 3645 H 348.605 -2.31611 -2.91868 0
M  V30 3646 H 348.718 -4.1337 -2.42202 0
M  V30 3647 H 347.082 -2.14706 -1.37016 0
M  V30 3648 H 347.865 -3.42089 -0.288041 0
M  V30 3649 N 350.31 0.590341 -1.46126 0
M  V30 3650 C 351.55 1.35995 -1.52593 0
M  V30 3651 C 351.914 1.91243 -0.170368 0
M  V30 3652 O 353.115 2.68576 -0.109775 0
M  V30 3653 C 351.386 2.46465 -2.58823 0
M  V30 3654 S 352.945 3.33953 -2.84641 0
M  V30 3655 H 349.763 0.463425 -0.53922 0
M  V30 3656 H 352.365 0.67944 -1.83314 0
M  V30 3657 H 351.069 2.04256 -3.5596 0
M  V30 3658 H 350.6 3.19297 -2.2981 0
M  V30 3659 H 352.615 4.45094 -2.19331 0
M  V30 3660 N 351.788 1.33704 0.83433 0
M  V30 3661 C 352.738 1.20899 1.93306 0
M  V30 3662 C 353.722 0.110783 1.60518 0
M  V30 3663 O 354.914 0.339331 1.73717 0
M  V30 3664 C 352.043 0.955018 3.29749 0
M  V30 3665 C 351.129 2.09587 3.68692 0
M  V30 3666 N 351.52 3.34621 3.79292 0
M  V30 3667 C 349.818 2.00358 3.98463 0
M  V30 3668 C 350.519 4.09472 4.13167 0
M  V30 3669 N 349.495 3.37954 4.25779 0
M  V30 3670 H 353.297 2.15665 1.99664 0
M  V30 3671 H 350.811 1.25777 1.02732 0
M  V30 3672 H 352.808 0.844208 4.08263 0
M  V30 3673 H 351.468 0.0159317 3.24696 0
M  V30 3674 H 352.479 3.69313 3.63082 0
M  V30 3675 H 349.156 1.14137 4.01596 0
M  V30 3676 H 350.546 5.17391 4.28668 0
M  V30 3677 N 353.266 -1.05314 1.17247 0
M  V30 3678 C 354.514 -1.77941 0.958194 0
M  V30 3679 C 354.835 -1.88089 -0.514556 0
M  V30 3680 O 354.105 -1.39676 -1.37359 0
M  V30 3681 H 352.685 -0.659116 0.351533 0
M  V30 3682 H 355.347 -1.27166 1.47699 0
M  V30 3683 H 354.443 -2.79663 1.38546 0
M  V30 3684 N 354.744 -0.972509 -1.24016 0
M  V30 3685 C 355.969 -0.654417 -1.96805 0
M  V30 3686 C 356.394 0.770398 -1.716 0
M  V30 3687 O 355.752 1.52361 -0.982647 0
M  V30 3688 C 355.8 -0.941031 -3.48105 0
M  V30 3689 O 354.904 -0.0289472 -4.1239 0
M  V30 3690 H 354.245 -0.24692 -0.616382 0
M  V30 3691 H 356.775 -1.30396 -1.57664 0
M  V30 3692 H 356.785 -0.87452 -3.98517 0
M  V30 3693 H 355.46 -1.97939 -3.65777 0
M  V30 3694 H 354.037 -0.149192 -3.72601 0
M  V30 3695 N 356.222 1.38976 -0.743202 0
M  V30 3696 C 357.172 2.27843 -0.084513 0
M  V30 3697 C 358.156 1.44677 0.704094 0
M  V30 3698 O 359.348 1.67511 0.571755 0
M  V30 3699 C 356.477 3.33466 0.815781 0
M  V30 3700 C 355.563 4.24095 0.0208844 0
M  V30 3701 N 355.954 4.95609 -1.0102 0
M  V30 3702 C 354.252 4.45303 0.249293 0
M  V30 3703 C 354.953 5.62287 -1.49024 0
M  V30 3704 N 353.929 5.37571 -0.807377 0
M  V30 3705 H 357.731 2.80593 -0.87436 0
M  V30 3706 H 355.245 1.51755 -0.578283 0
M  V30 3707 H 357.242 3.96008 1.30321 0
M  V30 3708 H 355.902 2.82276 1.6047 0
M  V30 3709 H 356.913 4.98849 -1.39176 0
M  V30 3710 H 353.59 4.0504 1.01237 0
M  V30 3711 H 354.98 6.29519 -2.34853 0
M  V30 3712 N 357.7 0.491464 1.49741 0
M  V30 3713 C 358.93 -0.0534375 2.06531 0
M  V30 3714 C 359.338 -1.32233 1.35318 0
M  V30 3715 O 358.681 -1.78781 0.422243 0
M  V30 3716 C 358.743 -0.387034 3.57411 0
M  V30 3717 C 358.407 0.782764 4.50246 0
M  V30 3718 C 359.404 1.67059 4.92329 0
M  V30 3719 C 357.089 0.978866 4.9267 0
M  V30 3720 C 359.083 2.73874 5.75562 0
M  V30 3721 C 356.77 2.05022 5.75682 0
M  V30 3722 C 357.768 2.92851 6.17031 0
M  V30 3723 O 357.456 3.98138 6.98385 0
M  V30 3724 H 357.188 0.0129324 0.675876 0
M  V30 3725 H 359.742 0.685238 1.93633 0
M  V30 3726 H 357.972 -1.17918 3.68283 0
M  V30 3727 H 359.661 -0.869419 3.96479 0
M  V30 3728 H 360.427 1.53086 4.60206 0
M  V30 3729 H 356.306 0.304646 4.59992 0
M  V30 3730 H 359.85 3.42458 6.07757 0
M  V30 3731 H 355.747 2.18993 6.07217 0
M  V30 3732 H 356.515 3.95374 7.16674 0
M  V30 3733 N 359.178 -1.55987 0.224894 0
M  V30 3734 C 360.455 -1.90232 -0.455083 0
M  V30 3735 C 360.835 -1.14269 -1.77499 0
M  V30 3736 O 360.183 -0.253079 -2.27094 0
M  V30 3737 C 360.393 -3.42993 -0.644758 0
M  V30 3738 C 361.741 -4.13821 -0.950669 0
M  V30 3739 O 362.765 -3.4861 -0.731423 0
M  V30 3740 O 361.624 -5.29128 -1.36695 0
M  V30 3741 H 358.718 -0.79108 -0.241084 0
M  V30 3742 H 361.264 -1.67581 0.267327 0
M  V30 3743 H 360.036 -3.90252 0.28613 0
M  V30 3744 H 359.659 -3.71434 -1.41853 0
M  V30 3745 N 360.656 0.0484629 -1.57525 0
M  V30 3746 C 361.619 1.03956 -2.04269 0
M  V30 3747 C 362.619 1.30211 -0.943496 0
M  V30 3748 O 363.809 1.25539 -1.20771 0
M  V30 3749 C 360.941 2.37742 -2.44319 0
M  V30 3750 H 362.134 0.636182 -2.93075 0
M  V30 3751 H 359.687 0.294811 -1.53494 0
M  V30 3752 H 360.422 2.82866 -1.5861 0
M  V30 3753 H 360.207 2.20021 -3.24551 0
M  V30 3754 H 361.697 3.08936 -2.80978 0
M  V30 3755 N 362.134 1.5431 0.320358 0
M  V30 3756 C 363.359 1.76954 1.08175 0
M  V30 3757 C 363.784 0.518193 1.80821 0
M  V30 3758 O 363.142 -0.530411 1.73368 0
M  V30 3759 C 363.19 2.96451 2.05303 0
M  V30 3760 O 362.294 2.68221 3.13259 0
M  V30 3761 H 361.635 0.586275 0.311733 0
M  V30 3762 H 364.165 2.01342 0.363676 0
M  V30 3763 H 364.175 3.23887 2.48116 0
M  V30 3764 H 362.85 3.87196 1.51829 0
M  V30 3765 H 361.427 2.51744 2.75099 0
M  V30 3766 N 363.613 -0.582584 1.46437 0
M  V30 3767 C 364.861 -1.33814 1.51453 0
M  V30 3768 C 365.182 -1.94277 0.167792 0
M  V30 3769 O 364.452 -1.78566 -0.805677 0
M  V30 3770 H 363.032 -0.496838 0.557818 0
M  V30 3771 H 365.694 -0.682281 1.82568 0
M  V30 3772 H 364.79 -2.14479 2.26728 0
M  V30 3773 N 365.091 -1.34144 -0.827227 0
M  V30 3774 C 366.507 -1.13732 -1.11969 0
M  V30 3775 C 366.707 0.0640463 -2.01398 0
M  V30 3776 O 365.763 0.740856 -2.41387 0
M  V30 3777 C 367.076 -2.43047 -1.77055 0
M  V30 3778 C 368.624 -2.49063 -1.89569 0
M  V30 3779 C 369.099 -3.78369 -2.58072 0
M  V30 3780 N 370.59 -3.79505 -2.65575 0
M  V30 3781 C 371.325 -4.76274 -3.19297 0
M  V30 3782 N 370.821 -5.83424 -3.73616 0
M  V30 3783 N 372.614 -4.63735 -3.17658 0
M  V30 3784 H 364.765 -2.11126 -0.232296 0
M  V30 3785 H 367.028 -0.933424 -0.165602 0
M  V30 3786 H 366.734 -3.31025 -1.18807 0
M  V30 3787 H 366.608 -2.56066 -2.76966 0
M  V30 3788 H 368.995 -1.61527 -2.46968 0
M  V30 3789 H 369.076 -2.39975 -0.885745 0
M  V30 3790 H 368.72 -4.66293 -2.01329 0
M  V30 3791 H 368.65 -3.84737 -3.59562 0
M  V30 3792 H 371.141 -3.02074 -2.27068 0
M  V30 3793 H 371.454 -6.53282 -4.12846 0
M  V30 3794 H 369.799 -5.87143 -3.71871 0
M  V30 3795 H 372.99 -3.79177 -2.74486 0
M  V30 3796 H 373.163 -5.39318 -3.59221 0
M  V30 3797 N 366.569 1.04691 -1.17803 0
M  V30 3798 C 367.818 1.77176 -0.963931 0
M  V30 3799 C 368.131 1.88888 0.508015 0
M  V30 3800 O 369.337 2.58164 0.840465 0
M  V30 3801 C 367.793 3.18518 -1.67555 0
M  V30 3802 C 367.401 3.14919 -3.18637 0
M  V30 3803 C 369.145 3.95424 -1.54402 0
M  V30 3804 C 367.052 4.51081 -3.82466 0
M  V30 3805 H 365.982 0.664116 -0.357023 0
M  V30 3806 H 368.633 1.17303 -1.4111 0
M  V30 3807 H 367.015 3.78748 -1.15613 0
M  V30 3808 H 368.189 2.64178 -3.77554 0
M  V30 3809 H 366.504 2.51512 -3.31859 0
M  V30 3810 H 369.101 4.96106 -1.99456 0
M  V30 3811 H 369.444 4.13343 -0.495329 0
M  V30 3812 H 369.977 3.41754 -2.0359 0
M  V30 3813 H 366.716 4.38368 -4.87354 0
M  V30 3814 H 366.236 5.01951 -3.28337 0
M  V30 3815 H 367.915 5.2001 -3.84965 0
M  V30 3816 N 368.047 0.979072 1.23499 0
M  V30 3817 C 369.463 0.687475 1.44034 0
M  V30 3818 C 369.663 -0.746801 1.8715 0
M  V30 3819 O 368.719 -1.51939 2.0167 0
M  V30 3820 C 370.032 1.68127 2.49307 0
M  V30 3821 C 371.58 1.69516 2.63122 0
M  V30 3822 C 372.055 2.67723 3.71603 0
M  V30 3823 N 373.546 2.66233 3.79044 0
M  V30 3824 C 374.281 3.38891 4.62537 0
M  V30 3825 N 373.777 4.21103 5.50131 0
M  V30 3826 N 375.57 3.27661 4.56721 0
M  V30 3827 H 367.721 1.90559 0.938135 0
M  V30 3828 H 369.984 0.821051 0.473897 0
M  V30 3829 H 369.69 2.70693 2.2454 0
M  V30 3830 H 369.564 1.46306 3.4767 0
M  V30 3831 H 371.951 0.676561 2.8724 0
M  V30 3832 H 372.032 1.95404 1.65079 0
M  V30 3833 H 371.676 3.69724 3.48233 0
M  V30 3834 H 371.606 2.39111 4.69184 0
M  V30 3835 H 374.097 2.06568 3.16446 0
M  V30 3836 H 374.41 4.73403 6.10827 0
M  V30 3837 H 372.755 4.25195 5.49759 0
M  V30 3838 H 375.946 2.62887 3.87309 0
M  V30 3839 H 376.119 3.84547 5.21562 0
M  V30 3840 N 369.525 -1.3858 0.750561 0
M  V30 3841 C 370.455 -2.33102 0.136237 0
M  V30 3842 C 371.436 -1.54713 -0.706965 0
M  V30 3843 O 372.621 -1.83043 -0.648769 0
M  V30 3844 C 369.751 -3.38882 -0.760017 0
M  V30 3845 C 368.705 -4.27995 -0.0197785 0
M  V30 3846 C 368.031 -5.24605 -1.03408 0
M  V30 3847 C 369.331 -5.09554 1.14684 0
M  V30 3848 H 371.025 -2.84726 0.925822 0
M  V30 3849 H 368.571 -1.36898 0.446654 0
M  V30 3850 H 370.524 -4.0397 -1.19943 0
M  V30 3851 H 369.248 -2.85734 -1.58189 0
M  V30 3852 H 367.907 -3.64409 0.400184 0
M  V30 3853 H 367.555 -4.67746 -1.84994 0
M  V30 3854 H 367.255 -5.85081 -0.543464 0
M  V30 3855 H 368.779 -5.9257 -1.47288 0
M  V30 3856 H 370.193 -5.67899 0.785118 0
M  V30 3857 H 368.59 -5.7925 1.56812 0
M  V30 3858 H 369.66 -4.4347 1.96118 0
M  V30 3859 N 371.003 -0.499398 -1.49478 0
M  V30 3860 C 372.251 0.0455996 -2.02049 0
M  V30 3861 C 372.572 1.37633 -1.38138 0
M  V30 3862 O 371.842 1.8842 -0.536166 0
M  V30 3863 H 370.422 0.0198416 -0.746736 0
M  V30 3864 H 373.084 -0.656274 -1.83519 0
M  V30 3865 H 372.18 0.176445 -3.11601 0
M  V30 3866 N 372.481 1.55866 -0.233164 0
M  V30 3867 C 373.892 1.847 0.272554 0
M  V30 3868 C 374.243 1.15477 1.58617 0
M  V30 3869 O 373.368 0.42841 2.12117 0
M  V30 3870 C 373.963 3.35071 0.501299 0
M  V30 3871 C 372.522 3.6418 0.951304 0
M  V30 3872 C 371.669 2.77292 0.0208209 0
M  V30 3873 H 374.62 1.52005 -0.456074 0
M  V30 3874 H 374.641 3.55906 1.34577 0
M  V30 3875 H 374.153 3.85424 -0.454936 0
M  V30 3876 H 372.254 3.19293 1.92049 0
M  V30 3877 H 372.367 4.72071 0.817675 0
M  V30 3878 H 370.731 2.49131 0.529723 0
M  V30 3879 H 371.514 3.30448 -0.93054 0
M  V30 3880 N 373.959 -0.0401083 1.57549 0
M  V30 3881 C 374.922 -1.02871 2.04817 0
M  V30 3882 C 375.922 -1.29708 0.950388 0
M  V30 3883 O 377.112 -1.24897 1.21435 0
M  V30 3884 C 374.244 -2.36443 2.45576 0
M  V30 3885 H 375.437 -0.620631 2.93408 0
M  V30 3886 H 372.99 -0.286667 1.53649 0
M  V30 3887 H 373.725 -2.82021 1.60108 0
M  V30 3888 H 373.51 -2.18296 3.25713 0
M  V30 3889 H 375 -3.07441 2.82612 0
M  V30 3890 N 375.437 -1.54477 -0.31217 0
M  V30 3891 C 376.848 -1.64344 -0.885891 0
M  V30 3892 C 377.199 -0.54485 -1.88483 0
M  V30 3893 O 376.324 0.320387 -2.14015 0
M  V30 3894 C 376.919 -2.97908 -1.61357 0
M  V30 3895 C 375.478 -3.09933 -2.13585 0
M  V30 3896 C 374.625 -2.59971 -0.964897 0
M  V30 3897 H 377.576 -1.58448 -0.0894528 0
M  V30 3898 H 377.597 -2.88706 -2.47848 0
M  V30 3899 H 377.109 -3.77845 -0.886277 0
M  V30 3900 H 375.21 -2.34694 -2.89395 0
M  V30 3901 H 375.323 -4.15916 -2.37804 0
M  V30 3902 H 373.687 -2.16147 -1.34731 0
M  V30 3903 H 374.47 -3.42376 -0.251742 0
M  V30 3904 N 376.915 0.57481 -1.46744 0
M  V30 3905 C 377.845 1.69337 -1.60771 0
M  V30 3906 C 378.826 1.63825 -0.457736 0
M  V30 3907 O 380.011 1.8172 -0.684947 0
M  V30 3908 C 377.141 3.0798 -1.60517 0
M  V30 3909 C 376.095 3.28327 -2.74564 0
M  V30 3910 C 375.421 4.67578 -2.59373 0
M  V30 3911 C 376.721 3.15398 -4.16319 0
M  V30 3912 H 378.415 1.57853 -2.54407 0
M  V30 3913 H 375.961 0.75799 -1.22436 0
M  V30 3914 H 377.914 3.86061 -1.68923 0
M  V30 3915 H 376.638 3.20381 -0.634305 0
M  V30 3916 H 375.297 2.52649 -2.65639 0
M  V30 3917 H 374.945 4.76755 -1.60353 0
M  V30 3918 H 374.645 4.82144 -3.35873 0
M  V30 3919 H 376.169 5.47817 -2.69682 0
M  V30 3920 H 377.583 3.83315 -4.26313 0
M  V30 3921 H 375.98 3.41482 -4.93468 0
M  V30 3922 H 377.05 2.12372 -4.3592 0
M  V30 3923 N 378.394 1.34581 0.820102 0
M  V30 3924 C 379.342 1.26401 1.95258 0
M  V30 3925 C 380.336 0.161553 1.68628 0
M  V30 3926 O 381.542 0.326703 1.7701 0
M  V30 3927 H 377.917 0.392749 0.64129 0
M  V30 3928 H 379.888 2.22105 1.99279 0
M  V30 3929 C 378.637 1.03919 3.31807 0
M  V30 3930 H 377.96 1.87984 3.52848 0
M  V30 3931 H 379.4 1.02232 4.11491 0
M  V30 3932 C 377.859 -0.257433 3.35915 0
M  V30 3933 O 378.389 -1.25784 3.81499 0
M  V30 3934 N 376.595 -0.291524 2.89134 0
M  V30 3935 H 376.142 0.523161 2.52232 0
M  V30 3936 H 376.1 -1.15883 2.92264 0
M  V30 3937 N 379.872 -1.04064 1.18357 0
M  V30 3938 C 380.802 -2.14001 0.934113 0
M  V30 3939 C 381.783 -1.69616 -0.128186 0
M  V30 3940 O 382.968 -1.94185 0.0244093 0
M  V30 3941 C 380.098 -3.44253 0.459066 0
M  V30 3942 C 379.052 -4.02261 1.46185 0
M  V30 3943 C 378.378 -5.27992 0.844322 0
M  V30 3944 C 379.678 -4.38432 2.83856 0
M  V30 3945 H 381.372 -2.35127 1.85352 0
M  V30 3946 H 378.918 -1.12998 0.892604 0
M  V30 3947 H 380.871 -4.20522 0.271907 0
M  V30 3948 H 379.595 -3.22813 -0.495912 0
M  V30 3949 H 378.254 -3.28074 1.63595 0
M  V30 3950 H 377.902 -5.02862 -0.117845 0
M  V30 3951 H 377.602 -5.67765 1.51384 0
M  V30 3952 H 379.126 -6.06938 0.667693 0
M  V30 3953 H 380.54 -5.05688 2.70098 0
M  V30 3954 H 378.937 -4.89254 3.47491 0
M  V30 3955 H 380.007 -3.4826 3.37406 0
M  V30 3956 N 381.35 -0.985608 -1.22978 0
M  V30 3957 C 382.26 -0.538548 -2.28335 0
M  V30 3958 C 383.276 0.409163 -1.69121 0
M  V30 3959 O 384.452 0.277797 -1.99475 0
M  V30 3960 C 381.517 0.146867 -3.46389 0
M  V30 3961 C 380.578 -0.842896 -4.20944 0
M  V30 3962 C 379.811 -0.190095 -5.33361 0
M  V30 3963 O 380.034 1.01767 -5.61248 0
M  V30 3964 O 378.968 -0.891289 -5.95264 0
M  V30 3965 H 382.794 -1.41487 -2.68729 0
M  V30 3966 H 380.379 -0.753495 -1.29007 0
M  V30 3967 H 382.261 0.531125 -4.1804 0
M  V30 3968 H 380.936 0.997871 -3.07935 0
M  V30 3969 H 379.843 -1.27795 -3.51595 0
M  V30 3970 H 381.176 -1.66287 -4.6326 0
M  V30 3971 N 382.828 1.3818 -0.7579 0
M  V30 3972 C 384.074 2.00316 -0.316453 0
M  V30 3973 C 384.407 1.60026 1.10025 0
M  V30 3974 O 383.682 0.839835 1.75434 0
M  V30 3975 C 383.965 3.57349 -0.444245 0
M  V30 3976 C 383.818 4.07591 -1.90236 0
M  V30 3977 C 385.137 4.3981 0.1598 0
M  V30 3978 H 382.256 0.727741 -0.116459 0
M  V30 3979 H 384.898 1.6406 -0.958352 0
M  V30 3980 H 383.048 3.88365 0.102233 0
M  V30 3981 H 384.72 3.87199 -2.50748 0
M  V30 3982 H 382.963 3.60297 -2.41595 0
M  V30 3983 H 383.634 5.16677 -1.94291 0
M  V30 3984 H 386.11 4.14971 -0.306314 0
M  V30 3985 H 384.986 5.48885 0.0401675 0
M  V30 3986 H 385.247 4.24102 1.24859 0
M  V30 3987 N 384.306 0.507319 1.49211 0
M  V30 3988 C 385.717 0.0611118 1.866 0
M  V30 3989 C 386.068 -1.35488 1.41907 0
M  V30 3990 O 385.193 -2.0108 0.799726 0
M  V30 3991 C 385.788 0.104125 3.3864 0
M  V30 3992 C 384.347 -0.28677 3.75306 0
M  V30 3993 C 383.494 0.473893 2.73221 0
M  V30 3994 H 386.445 0.719775 1.41439 0
M  V30 3995 H 386.466 -0.689672 3.74198 0
M  V30 3996 H 385.978 1.13482 3.71138 0
M  V30 3997 H 384.079 -1.32046 3.48417 0
M  V30 3998 H 384.192 0.0370745 4.79086 0
M  V30 3999 H 382.556 -0.0770644 2.54583 0
M  V30 4000 H 383.339 1.50478 3.08563 0
M  V30 4001 N 385.784 -1.5574 0.241426 0
M  V30 4002 C 387.012 -2.03208 -0.389134 0
M  V30 4003 C 387.427 -1.12082 -1.51931 0
M  V30 4004 O 386.784 -0.134183 -1.82006 0
M  V30 4005 C 386.835 -3.50064 -0.902087 0
M  V30 4006 O 386.556 -4.37717 0.18305 0
M  V30 4007 C 388.057 -4.13268 -1.60389 0
M  V30 4008 H 385.277 -0.664509 -0.0931053 0
M  V30 4009 H 387.821 -2.0124 0.36369 0
M  V30 4010 H 385.976 -3.52583 -1.60511 0
M  V30 4011 H 386.39 -5.24097 -0.205579 0
M  V30 4012 H 387.864 -5.17733 -1.91458 0
M  V30 4013 H 388.341 -3.59434 -2.52397 0
M  V30 4014 H 388.947 -4.14655 -0.945576 0
M  V30 4015 N 387.262 0.0317525 -1.57568 0
M  V30 4016 C 388.492 0.733884 -1.93126 0
M  V30 4017 C 388.9 1.69563 -0.839352 0
M  V30 4018 O 388.243 1.82681 0.193175 0
M  V30 4019 C 388.305 1.54798 -3.24465 0
M  V30 4020 C 387.969 0.751304 -4.50782 0
M  V30 4021 C 388.966 0.0527632 -5.19873 0
M  V30 4022 C 386.651 0.706639 -4.97305 0
M  V30 4023 C 388.645 -0.679774 -6.33765 0
M  V30 4024 C 386.332 -0.0296449 -6.11093 0
M  V30 4025 C 387.33 -0.721614 -6.79177 0
M  V30 4026 O 387.018 -1.44595 -7.90789 0
M  V30 4027 H 386.75 0.211459 -0.642076 0
M  V30 4028 H 389.304 -0.00585615 -2.05399 0
M  V30 4029 H 387.534 2.33147 -3.08512 0
M  V30 4030 H 389.223 2.13247 -3.4537 0
M  V30 4031 H 389.989 0.0783188 -4.84937 0
M  V30 4032 H 385.868 1.23474 -4.44157 0
M  V30 4033 H 389.412 -1.22042 -6.86842 0
M  V30 4034 H 385.309 -0.0571331 -6.45475 0
M  V30 4035 H 386.077 -1.35935 -8.07133 0
M  V30 4036 N 388.74 1.54641 0.303973 0
M  V30 4037 C 389.65 1.88439 1.39743 0
M  V30 4038 C 390.666 0.778239 1.55626 0
M  V30 4039 O 391.842 1.07442 1.70347 0
M  V30 4040 C 388.907 2.12212 2.74166 0
M  V30 4041 C 387.968 3.35936 2.67293 0
M  V30 4042 C 387.201 3.58566 3.95305 0
M  V30 4043 O 387.424 2.84263 4.9452 0
M  V30 4044 O 386.358 4.52078 3.97378 0
M  V30 4045 H 390.184 2.81458 1.14083 0
M  V30 4046 H 387.769 1.40793 0.499768 0
M  V30 4047 H 389.651 2.29067 3.53704 0
M  V30 4048 H 388.326 1.22379 2.99675 0
M  V30 4049 H 387.233 3.24448 1.86237 0
M  V30 4050 H 388.566 4.2589 2.46736 0
M  V30 4051 N 390.218 -0.567019 1.47046 0
M  V30 4052 C 391.465 -1.32462 1.53167 0
M  V30 4053 C 391.793 -1.93571 0.189841 0
M  V30 4054 O 391.048 -1.77865 -0.816243 0
M  V30 4055 C 391.347 -2.4623 2.59047 0
M  V30 4056 C 391.013 -2.03014 4.02612 0
M  V30 4057 C 389.675 -1.90944 4.41694 0
M  V30 4058 C 392.027 -1.69895 4.92732 0
M  V30 4059 C 389.355 -1.44035 5.68745 0
M  V30 4060 C 391.707 -1.2446 6.20236 0
M  V30 4061 C 390.371 -1.10979 6.5821 0
M  V30 4062 H 389.641 -0.484713 0.560477 0
M  V30 4063 H 392.288 -0.636888 1.80599 0
M  V30 4064 H 390.593 -3.20517 2.25335 0
M  V30 4065 H 392.29 -3.04427 2.61008 0
M  V30 4066 H 388.88 -2.13348 3.71726 0
M  V30 4067 H 393.064 -1.78098 4.63244 0
M  V30 4068 H 388.32 -1.32254 5.96925 0
M  V30 4069 H 392.494 -0.978924 6.89485 0
M  V30 4070 H 390.121 -0.744078 7.5655 0
M  V30 4071 N 391.696 -1.35014 -0.812953 0
M  V30 4072 C 392.924 -1.31031 -1.6012 0
M  V30 4073 C 393.339 0.113558 -1.88458 0
M  V30 4074 O 392.696 1.06363 -1.48301 0
M  V30 4075 C 392.747 -2.10872 -2.93624 0
M  V30 4076 O 392.468 -3.47706 -2.66518 0
M  V30 4077 C 393.969 -2.14401 -3.88004 0
M  V30 4078 H 391.189 -0.45037 -0.497401 0
M  V30 4079 H 393.733 -1.77775 -1.01076 0
M  V30 4080 H 391.888 -1.67744 -3.492 0
M  V30 4081 H 392.302 -3.89097 -3.51715 0
M  V30 4082 H 393.776 -2.74669 -4.78812 0
M  V30 4083 H 394.253 -1.14105 -4.24119 0
M  V30 4084 H 394.859 -2.57662 -3.38364 0
M  V30 4085 N 393.175 1.03435 -1.18907 0
M  V30 4086 C 394.4 1.80919 -1.01406 0
M  V30 4087 C 394.825 1.83055 0.432721 0
M  V30 4088 O 394.183 1.25252 1.31079 0
M  V30 4089 C 394.231 3.24091 -1.58105 0
M  V30 4090 O 393.335 4.04434 -0.806669 0
M  V30 4091 H 392.676 0.558709 -0.358803 0
M  V30 4092 H 395.206 1.30223 -1.57807 0
M  V30 4093 H 395.216 3.74853 -1.61087 0
M  V30 4094 H 393.891 3.21851 -2.6341 0
M  V30 4095 H 392.468 3.63091 -0.849666 0
M  V30 4096 N 394.653 0.992116 1.22453 0
M  V30 4097 C 395.93 0.583508 1.86694 0
M  V30 4098 C 396.31 -0.9392 1.89056 0
M  V30 4099 O 395.658 -1.82081 1.38053 0
M  V30 4100 C 395.868 1.20304 3.2761 0
M  V30 4101 C 397.216 1.30308 4.0411 0
M  V30 4102 O 398.24 1.15737 3.36873 0
M  V30 4103 O 397.099 1.53615 5.24466 0
M  V30 4104 H 394.193 0.198129 0.802916 0
M  V30 4105 H 396.739 1.08794 1.30238 0
M  V30 4106 H 395.511 2.24461 3.2052 0
M  V30 4107 H 395.134 0.684144 3.9167 0
M  V30 4108 N 396.131 -1.37776 0.765217 0
M  V30 4109 C 397.408 -1.93975 0.251596 0
M  V30 4110 C 397.788 -1.69949 -1.25222 0
M  V30 4111 O 397.136 -1.04457 -2.03226 0
M  V30 4112 C 397.346 -3.43487 0.617895 0
M  V30 4113 C 398.694 -4.20564 0.584029 0
M  V30 4114 O 399.718 -3.5182 0.556888 0
M  V30 4115 O 398.577 -5.43138 0.605291 0
M  V30 4116 H 395.671 -0.82509 0.0561806 0
M  V30 4117 H 398.217 -1.47101 0.846128 0
M  V30 4118 H 396.989 -3.5453 1.65602 0
M  V30 4119 H 396.612 -3.976 -0.00403411 0
M  V30 4120 N 397.609 -0.515225 -1.4894 0
M  V30 4121 C 398.542 0.302518 -2.26186 0
M  V30 4122 C 399.52 0.957895 -1.31389 0
M  V30 4123 O 400.704 0.985198 -1.60705 0
M  V30 4124 C 397.831 1.42719 -3.07163 0
M  V30 4125 C 396.877 0.884736 -4.17223 0
M  V30 4126 S 397.71 -0.235767 -5.34981 0
M  V30 4127 C 398.866 0.891731 -6.19515 0
M  V30 4128 H 399.099 -0.353076 -2.95196 0
M  V30 4129 H 396.632 -0.300753 -1.51443 0
M  V30 4130 H 398.59 2.07152 -3.54398 0
M  V30 4131 H 397.251 2.05445 -2.37595 0
M  V30 4132 H 396.444 1.72801 -4.73451 0
M  V30 4133 H 396.046 0.317362 -3.72651 0
M  V30 4134 H 398.338 1.79377 -6.53322 0
M  V30 4135 H 399.281 0.367751 -7.07144 0
M  V30 4136 H 399.689 1.16548 -5.52338 0
M  V30 4137 N 399.087 1.5561 -0.249682 0
M  V30 4138 C 400.333 1.99306 0.374841 0
M  V30 4139 C 400.666 1.13767 1.57387 0
M  V30 4140 O 399.941 0.201711 1.93451 0
M  V30 4141 C 400.224 3.51507 0.781986 0
M  V30 4142 C 400.077 4.4781 -0.422629 0
M  V30 4143 C 401.396 4.08884 1.62793 0
M  V30 4144 H 398.515 0.724572 0.134773 0
M  V30 4145 H 401.157 1.86719 -0.351549 0
M  V30 4146 H 399.307 3.62363 1.4009 0
M  V30 4147 H 400.979 4.48931 -1.06108 0
M  V30 4148 H 399.222 4.20518 -1.06524 0
M  V30 4149 H 399.893 5.51919 -0.0943766 0
M  V30 4150 H 402.369 4.01147 1.10547 0
M  V30 4151 H 401.245 5.1564 1.88166 0
M  V30 4152 H 401.506 3.57515 2.60068 0
M  V30 4153 N 400.565 -0.0233959 1.57583 0
M  V30 4154 C 401.814 -0.712133 1.8871 0
M  V30 4155 C 402.127 -1.76217 0.848944 0
M  V30 4156 O 403.333 -2.50389 1.04964 0
M  V30 4157 C 401.789 -1.3177 3.3491 0
M  V30 4158 C 401.397 -0.303715 4.46969 0
M  V30 4159 C 403.141 -1.98598 3.75179 0
M  V30 4160 C 401.048 -0.917945 5.84233 0
M  V30 4161 H 399.978 -0.269735 0.704101 0
M  V30 4162 H 402.629 0.0333114 1.8347 0
M  V30 4163 H 401.011 -2.11304 3.34913 0
M  V30 4164 H 402.185 0.465325 4.58445 0
M  V30 4165 H 400.5 0.2628 4.1557 0
M  V30 4166 H 403.097 -2.45416 4.75053 0
M  V30 4167 H 403.44 -2.80659 3.07468 0
M  V30 4168 H 403.973 -1.25831 3.77374 0
M  V30 4169 H 400.712 -0.136633 6.55358 0
M  V30 4170 H 400.232 -1.65669 5.76467 0
M  V30 4171 H 401.911 -1.4236 6.31144 0
M  V30 4172 N 402.043 -1.548 -0.295768 0
M  V30 4173 C 403.289 -1.74588 -1.03184 0
M  V30 4174 C 403.622 -0.532962 -1.86744 0
M  V30 4175 O 402.897 0.469872 -1.88739 0
M  V30 4176 C 403.18 -3.03791 -1.93347 0
M  V30 4177 C 403.033 -4.35392 -1.12933 0
M  V30 4178 C 404.352 -3.28892 -2.92435 0
M  V30 4179 H 401.471 -0.635221 -0.373715 0
M  V30 4180 H 404.113 -1.87519 -0.30606 0
M  V30 4181 H 402.263 -2.92898 -2.55232 0
M  V30 4182 H 403.935 -4.58211 -0.532943 0
M  V30 4183 H 402.178 -4.31642 -0.432168 0
M  V30 4184 H 402.849 -5.22074 -1.79284 0
M  V30 4185 H 405.325 -3.39429 -2.4068 0
M  V30 4186 H 404.201 -4.20603 -3.52682 0
M  V30 4187 H 404.462 -2.47437 -3.6637 0
M  V30 4188 N 403.521 0.559213 -1.47345 0
M  V30 4189 C 404.769 1.31388 -1.53563 0
M  V30 4190 C 405.09 1.93985 -0.198678 0
M  V30 4191 O 404.36 1.79825 0.777167 0
M  V30 4192 H 402.94 0.487901 -0.565652 0
M  V30 4193 H 405.602 0.65315 -1.8363 0
M  V30 4194 H 404.698 2.10844 -2.30111 0
M  V30 4195 O 405.038 1.45356 0.703831 0
M  V30 4196 H 405.729 1.38392 1.35526 0
M  V30 END ATOM
M  V30 BEGIN BOND
M  V30 END BOND
M  V30 END CTAB
M  END
$$$$
