drugbank_target|P0AB74 D-tagatose-1,6-bisphosphate aldolase subunit KbaY (DB03026)
 OpenBabel12092120033D

  0  0  0     0  0            999 V3000
M  V30 BEGIN CTAB
M  V30 COUNTS 4376 4417 0 0 0
M  V30 BEGIN ATOM
M  V30 1 H -0.908 1.98254 -0.117106 0
M  V30 2 N 0 1.576 0 0
M  V30 3 C 0.933 2.03868 1.02534 0
M  V30 4 C 1.911 0.928543 1.3348 0
M  V30 5 O 3.095 1.19667 1.45644 0
M  V30 6 C 0.222 2.43627 2.35294 0
M  V30 7 C -0.732 3.65373 2.2001 0
M  V30 8 S 0.101 5.13292 1.52614 0
M  V30 9 C 1.257 5.56322 2.86805 0
M  V30 10 H 1.49 2.90518 0.631377 0
M  V30 11 H -0.977 1.52953 0.210867 0
M  V30 12 H 0.981 2.67203 3.11629 0
M  V30 13 H -0.358 1.57376 2.7183 0
M  V30 14 H -1.165 3.90944 3.18086 0
M  V30 15 H -1.563 3.418 1.51819 0
M  V30 16 H 0.729 5.58782 3.83104 0
M  V30 17 H 1.672 6.56266 2.65933 0
M  V30 18 H 2.08 4.83886 2.90714 0
M  V30 19 N 1.4781 -0.272755 1.55222 0
M  V30 20 C 2.7031 -1.02683 1.80197 0
M  V30 21 C 3.1281 -1.79142 0.573551 0
M  V30 22 O 2.4861 -1.74917 -0.476849 0
M  V30 23 C 2.5341 -1.9609 3.02624 0
M  V30 24 O 1.6381 -3.04863 2.77727 0
M  V30 25 H 0.9791 -0.293557 0.595584 0
M  V30 26 H 3.5091 -0.30159 2.02365 0
M  V30 27 H 3.5191 -2.38039 3.31363 0
M  V30 28 H 2.1941 -1.39851 3.91682 0
M  V30 29 H 0.7711 -2.67228 2.60084 0
M  V30 30 N 2.9562 -1.48159 -0.537278 0
M  V30 31 C 4.2052 -1.5506 -1.28993 0
M  V30 32 C 4.5182 -0.226211 -1.94288 0
M  V30 33 O 5.7242 -0.173395 -2.70946 0
M  V30 34 C 4.1802 -2.73429 -2.34018 0
M  V30 35 C 3.7882 -4.1248 -1.74825 0
M  V30 36 C 5.5322 -2.89638 -3.10339 0
M  V30 37 C 3.4392 -5.22121 -2.77747 0
M  V30 38 H 2.3692 -0.577231 -0.485098 0
M  V30 39 H 5.0202 -1.74478 -0.568317 0
M  V30 40 H 3.4022 -2.47431 -3.09182 0
M  V30 41 H 4.5762 -4.48466 -1.05899 0
M  V30 42 H 2.8912 -4.01327 -1.11022 0
M  V30 43 H 5.4882 -3.68718 -3.87235 0
M  V30 44 H 5.8312 -1.9882 -3.65754 0
M  V30 45 H 6.3642 -3.15502 -2.42288 0
M  V30 46 H 3.1032 -6.1488 -2.27161 0
M  V30 47 H 2.6232 -4.90631 -3.45024 0
M  V30 48 H 4.3022 -5.49924 -3.4087 0
M  V30 49 N 4.4343 0.785586 -1.36625 0
M  V30 50 C 5.6833 1.53883 -1.30396 0
M  V30 51 C 5.9963 1.95271 0.113452 0
M  V30 52 O 7.2023 2.69858 0.298142 0
M  V30 53 C 5.6583 2.77808 -2.28802 0
M  V30 54 C 5.2663 2.43574 -3.75999 0
M  V30 55 C 7.0103 3.55783 -2.31558 0
M  V30 56 C 4.9173 3.63919 -4.66173 0
M  V30 57 H 3.8473 0.577678 -0.484566 0
M  V30 58 H 6.4983 0.861705 -1.62009 0
M  V30 59 H 4.8803 3.47339 -1.90188 0
M  V30 60 H 6.0543 1.81916 -4.23371 0
M  V30 61 H 4.3693 1.78803 -3.76056 0
M  V30 62 H 6.9663 4.45205 -2.96137 0
M  V30 63 H 7.3093 3.94644 -1.3252 0
M  V30 64 H 7.8423 2.93235 -2.68809 0
M  V30 65 H 4.5813 3.3015 -5.66287 0
M  V30 66 H 4.1013 4.2473 -4.23515 0
M  V30 67 H 5.7803 4.30901 -4.82632 0
M  V30 68 N 5.9124 1.20967 1.01018 0
M  V30 69 C 7.1374 1.0503 1.78839 0
M  V30 70 C 7.5624 -0.395752 1.8389 0
M  V30 71 O 6.9204 -1.28529 1.27867 0
M  V30 72 C 6.9684 1.64602 3.2084 0
M  V30 73 O 6.0724 0.887988 4.02726 0
M  V30 74 H 5.4134 0.369987 0.551367 0
M  V30 75 H 7.9434 1.60399 1.27018 0
M  V30 76 H 7.9534 1.68607 3.71532 0
M  V30 77 H 6.6284 2.69841 3.16479 0
M  V30 78 H 5.2054 0.922648 3.61305 0
M  V30 79 N 7.3905 -1.2043 1.01659 0
M  V30 80 C 8.6185 -1.93777 0.725132 0
M  V30 81 C 9.0335 -1.74772 -0.714166 0
M  V30 82 O 8.3905 -1.06169 -1.4844 0
M  V30 83 C 8.4415 -3.45876 1.05129 0
M  V30 84 O 8.1625 -3.6426 2.43406 0
M  V30 85 C 9.6635 -4.36368 0.780891 0
M  V30 86 H 6.8835 -0.615901 0.266284 0
M  V30 87 H 9.4275 -1.52922 1.35776 0
M  V30 88 H 7.5825 -3.8461 0.464065 0
M  V30 89 H 7.9965 -4.58246 2.55169 0
M  V30 90 H 9.4705 -5.41743 1.05918 0
M  V30 91 H 9.9475 -4.38275 -0.284937 0
M  V30 92 H 10.5535 -4.03296 1.35027 0
M  V30 93 N 8.8686 -0.792821 -1.36206 0
M  V30 94 C 9.8156 -0.191653 -2.30003 0
M  V30 95 C 10.7856 0.666453 -1.52143 0
M  V30 96 O 11.9706 0.61442 -1.80636 0
M  V30 97 C 9.1106 0.664848 -3.38635 0
M  V30 98 C 8.2236 -0.212175 -4.31479 0
M  V30 99 C 7.3586 0.651022 -5.27196 0
M  V30 100 C 6.3976 -0.227247 -6.11678 0
M  V30 101 N 5.5346 0.595127 -6.99573 0
M  V30 102 H 10.3746 -0.996978 -2.80828 0
M  V30 103 H 7.9116 -0.503206 -1.38225 0
M  V30 104 H 9.8696 1.17645 -4.00269 0
M  V30 105 H 8.4996 1.43557 -2.89122 0
M  V30 106 H 7.5516 -0.841777 -3.70969 0
M  V30 107 H 8.8636 -0.888751 -4.90818 0
M  V30 108 H 8.0176 1.2283 -5.94136 0
M  V30 109 H 6.7566 1.36121 -4.68319 0
M  V30 110 H 5.7616 -0.816904 -5.43697 0
M  V30 111 H 6.9866 -0.93509 -6.72631 0
M  V30 112 H 4.9326 1.28955 -6.432 0
M  V30 113 H 4.8496 -0.0236952 -7.55996 0
M  V30 114 H 6.1176 1.15613 -7.70879 0
M  V30 115 N 10.3467 1.47872 -0.545128 0
M  V30 116 C 11.5767 2.06589 -0.0210534 0
M  V30 117 C 11.9847 1.39997 1.27269 0
M  V30 118 O 11.3277 0.486421 1.77143 0
M  V30 119 C 11.3897 3.58574 0.257933 0
M  V30 120 C 11.0537 4.47132 -0.944573 0
M  V30 121 C 12.0507 4.85986 -1.84699 0
M  V30 122 C 9.7357 4.88821 -1.15584 0
M  V30 123 C 11.7297 5.65314 -2.94446 0
M  V30 124 C 9.4167 5.67916 -2.25642 0
M  V30 125 C 10.4147 6.06073 -3.14905 0
M  V30 126 O 10.1027 6.83578 -4.23057 0
M  V30 127 H 9.8347 0.674971 -0.0372899 0
M  V30 128 H 12.3887 1.91037 -0.754599 0
M  V30 129 H 10.6187 3.72295 1.04564 0
M  V30 130 H 12.3077 3.99356 0.72592 0
M  V30 131 H 13.0737 4.54388 -1.69577 0
M  V30 132 H 8.9527 4.58595 -0.470279 0
M  V30 133 H 12.4967 5.95016 -3.64145 0
M  V30 134 H 8.3937 5.98927 -2.40742 0
M  V30 135 H 9.1617 7.01954 -4.20954 0
M  V30 136 N 11.8248 0.280983 1.55075 0
M  V30 137 C 12.7548 -0.597469 2.25727 0
M  V30 138 C 13.7358 -1.15417 1.24952 0
M  V30 139 O 14.9208 -1.18722 1.53684 0
M  V30 140 C 12.0508 -1.7789 2.98283 0
M  V30 141 C 11.0048 -1.35347 4.06036 0
M  V30 142 C 10.3308 -2.61846 4.66198 0
M  V30 143 C 11.6308 -0.499354 5.19907 0
M  V30 144 H 13.3248 -0.00824265 2.99399 0
M  V30 145 H 10.8708 -0.0025244 1.44 0
M  V30 146 H 12.8238 -2.39937 3.46422 0
M  V30 147 H 11.5478 -2.39405 2.22155 0
M  V30 148 H 10.2068 -0.756156 3.58717 0
M  V30 149 H 9.8548 -3.21632 3.86732 0
M  V30 150 H 9.5548 -2.3409 5.38958 0
M  V30 151 H 11.0788 -3.24732 5.1709 0
M  V30 152 H 12.4928 -1.02498 5.64063 0
M  V30 153 H 10.8898 -0.316424 5.99265 0
M  V30 154 H 11.9598 0.480459 4.82514 0
M  V30 155 N 13.3029 -1.57598 0.00835791 0
M  V30 156 C 14.2329 -2.1198 -0.979113 0
M  V30 157 C 15.2139 -1.03091 -1.35301 0
M  V30 158 O 16.3989 -1.30818 -1.43528 0
M  V30 159 C 13.5289 -2.62995 -2.26828 0
M  V30 160 C 12.4829 -3.76485 -2.03576 0
M  V30 161 C 11.8089 -4.13846 -3.38579 0
M  V30 162 C 13.1089 -5.0342 -1.39161 0
M  V30 163 H 14.8029 -2.94738 -0.526281 0
M  V30 164 H 12.3489 -1.41783 -0.251704 0
M  V30 165 H 14.3019 -2.99669 -2.96271 0
M  V30 166 H 13.0259 -1.7737 -2.7424 0
M  V30 167 H 11.6849 -3.40217 -1.36557 0
M  V30 168 H 11.3329 -3.25232 -3.83709 0
M  V30 169 H 11.0329 -4.90312 -3.23834 0
M  V30 170 H 12.5569 -4.53086 -4.09323 0
M  V30 171 H 13.9709 -5.37812 -1.98573 0
M  V30 172 H 12.3679 -5.84746 -1.34878 0
M  V30 173 H 13.4379 -4.83548 -0.361868 0
M  V30 174 N 14.781 0.264519 -1.55364 0
M  V30 175 C 15.713 1.34965 -1.85248 0
M  V30 176 C 16.726 1.45136 -0.737525 0
M  V30 177 O 17.915 1.46801 -1.01547 0
M  V30 178 C 15.015 2.73008 -2.00797 0
M  V30 179 C 14.188 2.85324 -3.31525 0
M  V30 180 C 13.247 4.04097 -3.37034 0
M  V30 181 O 12.273 3.94455 -4.10358 0
M  V30 182 N 13.475 5.16458 -2.65049 0
M  V30 183 H 16.24 1.09672 -2.78913 0
M  V30 184 H 13.801 0.454635 -1.55386 0
M  V30 185 H 15.793 3.50772 -2.01844 0
M  V30 186 H 14.363 2.91087 -1.1396 0
M  V30 187 H 13.583 1.94377 -3.42945 0
M  V30 188 H 14.871 2.9049 -4.17724 0
M  V30 189 H 14.269 5.27181 -2.05175 0
M  V30 190 H 12.826 5.92422 -2.71809 0
M  V30 191 N 16.2591 1.48442 0.529413 0
M  V30 192 C 17.5361 1.46978 1.29062 0
M  V30 193 C 17.9161 0.181769 2.10316 0
M  V30 194 O 17.2641 -0.836481 2.12639 0
M  V30 195 C 17.4741 2.7321 2.17157 0
M  V30 196 C 18.8221 3.21562 2.77278 0
M  V30 197 O 19.8461 2.74131 2.27444 0
M  V30 198 O 18.7051 4.04094 3.67927 0
M  V30 199 H 15.7991 0.587003 0.582543 0
M  V30 200 H 18.3451 1.60676 0.546021 0
M  V30 201 H 17.1171 3.58465 1.56903 0
M  V30 202 H 16.7401 2.62235 2.98862 0
M  V30 203 N 17.7372 -0.778329 1.37039 0
M  V30 204 C 18.7002 -1.87301 1.32102 0
M  V30 205 C 19.7002 -1.59198 0.226405 0
M  V30 206 O 20.8902 -1.67403 0.481861 0
M  V30 207 C 18.0222 -3.24309 1.05055 0
M  V30 208 H 19.2152 -1.93093 2.29467 0
M  V30 209 H 16.7682 -0.977358 1.21973 0
M  V30 210 H 17.5032 -3.24196 0.0819373 0
M  V30 211 H 17.2882 -3.46098 1.84279 0
M  V30 212 H 18.7782 -4.04382 1.04234 0
M  V30 213 N 19.2153 -1.21501 -1.00376 0
M  V30 214 C 20.1473 -0.933174 -2.09343 0
M  V30 215 C 21.1603 0.0840896 -1.62583 0
M  V30 216 O 22.3493 -0.148563 -1.77881 0
M  V30 217 C 19.4493 -0.379869 -3.36764 0
M  V30 218 C 18.6223 -1.45176 -4.12605 0
M  V30 219 C 17.6813 -0.907476 -5.18316 0
M  V30 220 O 16.7073 -1.5912 -5.46507 0
M  V30 221 N 17.9093 0.276649 -5.7984 0
M  V30 222 H 20.6743 -1.87124 -2.34104 0
M  V30 223 H 18.2353 -1.12043 -1.16867 0
M  V30 224 H 20.2273 -0.00131488 -4.047 0
M  V30 225 H 18.7973 0.463048 -3.09151 0
M  V30 226 H 18.0173 -2.00411 -3.39454 0
M  V30 227 H 19.3053 -2.17328 -4.6005 0
M  V30 228 H 18.7033 0.849147 -5.59291 0
M  V30 229 H 17.2603 0.596702 -6.49063 0
M  V30 230 N 20.6934 1.19889 -1.02296 0
M  V30 231 C 21.6564 2.21116 -0.603351 0
M  V30 232 C 22.6564 1.5738 0.329884 0
M  V30 233 O 23.8464 1.73802 0.117702 0
M  V30 234 C 20.9784 3.40696 0.117992 0
M  V30 235 H 22.1714 2.59754 -1.49893 0
M  V30 236 H 19.7244 1.33463 -0.813468 0
M  V30 237 H 20.4594 3.07569 1.0282 0
M  V30 238 H 20.2444 3.88188 -0.552511 0
M  V30 239 H 21.7344 4.15692 0.398696 0
M  V30 240 N 22.1715 0.800033 1.35784 0
M  V30 241 C 23.1195 0.193851 2.31791 0
M  V30 242 C 24.1135 -0.652744 1.56319 0
M  V30 243 O 25.3195 -0.546641 1.71499 0
M  V30 244 H 21.6945 0.04392 0.750716 0
M  V30 245 H 23.6655 1.01883 2.80468 0
M  V30 246 C 22.4145 -0.648338 3.41602 0
M  V30 247 H 21.7375 -0.00624665 3.998 0
M  V30 248 H 23.1775 -1.03898 4.11073 0
M  V30 249 C 21.6365 -1.8111 2.84079 0
M  V30 250 O 22.1665 -2.90825 2.77099 0
M  V30 251 N 20.3725 -1.62056 2.41218 0
M  V30 252 H 19.9195 -0.728123 2.47095 0
M  V30 253 H 19.8775 -2.40013 2.03079 0
M  V30 254 N 23.6496 -1.47581 0.552962 0
M  V30 255 C 24.8976 -2.02082 0.0272703 0
M  V30 256 C 25.2186 -1.4301 -1.32563 0
M  V30 257 O 24.4886 -0.603745 -1.86365 0
M  V30 258 H 23.0686 -0.746966 0.00709182 0
M  V30 259 H 25.7306 -1.81033 0.722008 0
M  V30 260 H 24.8266 -3.12034 -0.0639951 0
M  V30 261 N 25.1277 -0.289203 -1.54924 0
M  V30 262 C 26.3577 0.325989 -2.04012 0
M  V30 263 C 26.7657 1.48961 -1.1665 0
M  V30 264 O 26.1087 1.82794 -0.1822 0
M  V30 265 C 26.1707 0.856112 -3.49158 0
M  V30 266 C 25.8347 -0.180697 -4.56643 0
M  V30 267 C 26.8317 -1.0051 -5.10092 0
M  V30 268 C 24.5167 -0.318998 -5.01286 0
M  V30 269 C 26.5107 -1.95385 -6.06715 0
M  V30 270 C 24.1977 -1.27121 -5.97732 0
M  V30 271 C 25.1957 -2.08713 -6.50329 0
M  V30 272 O 24.8837 -3.02322 -7.44887 0
M  V30 273 H 24.6157 0.0765276 -0.671654 0
M  V30 274 H 27.1697 -0.423254 -2.00992 0
M  V30 275 H 25.3997 1.65567 -3.49463 0
M  V30 276 H 27.0887 1.38591 -3.81507 0
M  V30 277 H 27.8547 -0.90906 -4.76404 0
M  V30 278 H 23.7337 0.306108 -4.59983 0
M  V30 279 H 27.2777 -2.59111 -6.47694 0
M  V30 280 H 23.1747 -1.36801 -6.30837 0
M  V30 281 H 23.9427 -2.97165 -7.6265 0
M  V30 282 N 26.6058 1.57591 -0.0167156 0
M  V30 283 C 27.5688 2.08393 0.954204 0
M  V30 284 C 28.5688 0.996531 1.26198 0
M  V30 285 O 29.7588 1.25858 1.20438 0
M  V30 286 C 26.8908 2.5394 2.27436 0
M  V30 287 H 28.0838 2.95455 0.514451 0
M  V30 288 H 25.6368 1.54582 0.231089 0
M  V30 289 H 26.3718 1.70171 2.76066 0
M  V30 290 H 26.1568 3.33371 2.06412 0
M  V30 291 H 27.6468 2.93512 2.97053 0
M  V30 292 N 28.0839 -0.256276 1.55502 0
M  V30 293 C 29.3299 -0.987079 1.77157 0
M  V30 294 C 29.6629 -1.85327 0.580315 0
M  V30 295 O 28.9379 -1.89874 -0.421686 0
M  V30 296 C 29.2209 -1.85553 3.08613 0
M  V30 297 C 29.0739 -1.01816 4.38125 0
M  V30 298 C 30.3929 -2.8397 3.36228 0
M  V30 299 H 27.5119 -0.357428 0.644526 0
M  V30 300 H 30.1539 -0.258239 1.88237 0
M  V30 301 H 28.3039 -2.47695 2.99298 0
M  V30 302 H 29.9759 -0.416159 4.59419 0
M  V30 303 H 28.2189 -0.322178 4.32602 0
M  V30 304 H 28.8899 -1.65939 5.26468 0
M  V30 305 H 31.3659 -2.31964 3.45445 0
M  V30 306 H 30.2419 -3.41864 4.29442 0
M  V30 307 H 30.5029 -3.59955 2.56681 0
M  V30 308 N 29.562 -1.4872 -0.521534 0
M  V30 309 C 30.973 -1.50607 -1.10337 0
M  V30 310 C 31.324 -0.280612 -1.94183 0
M  V30 311 O 30.449 0.611507 -2.0758 0
M  V30 312 C 31.044 -2.72903 -2.00772 0
M  V30 313 C 29.603 -2.77634 -2.54158 0
M  V30 314 C 28.75 -2.44241 -1.31307 0
M  V30 315 H 31.701 -1.55714 -0.306388 0
M  V30 316 H 31.722 -2.519 -2.85178 0
M  V30 317 H 31.234 -3.62077 -1.39721 0
M  V30 318 H 29.335 -1.92689 -3.18907 0
M  V30 319 H 29.448 -3.79283 -2.92714 0
M  V30 320 H 27.812 -1.95577 -1.63161 0
M  V30 321 H 28.595 -3.35666 -0.719943 0
M  V30 322 N 31.0401 0.771051 -1.3745 0
M  V30 323 C 32.0031 1.86598 -1.33093 0
M  V30 324 C 33.0031 1.59076 -0.234845 0
M  V30 325 O 34.1931 1.67145 -0.490732 0
M  V30 326 C 31.3251 3.23747 -1.06773 0
M  V30 327 H 32.5181 1.91873 -2.30488 0
M  V30 328 H 30.0711 0.970876 -1.2249 0
M  V30 329 H 30.8061 3.24148 -0.099129 0
M  V30 330 H 30.5911 3.45115 -1.86112 0
M  V30 331 H 32.0811 4.03824 -1.06377 0
M  V30 332 N 32.5182 1.22032 0.997298 0
M  V30 333 C 33.7652 1.04222 1.73621 0
M  V30 334 C 34.0932 -0.423264 1.89839 0
M  V30 335 O 33.3482 -1.3302 1.43542 0
M  V30 336 C 33.6472 1.69345 3.14733 0
M  V30 337 C 33.3132 3.19226 3.18442 0
M  V30 338 C 31.9752 3.60124 3.19161 0
M  V30 339 C 34.3272 4.15181 3.15078 0
M  V30 340 C 31.6552 4.95467 3.14212 0
M  V30 341 C 34.0072 5.50495 3.1167 0
M  V30 342 C 32.6712 5.90779 3.10703 0
M  V30 343 H 31.9412 0.381374 0.635323 0
M  V30 344 H 34.5882 1.51732 1.16831 0
M  V30 345 H 32.8932 1.14147 3.74803 0
M  V30 346 H 34.5902 1.53059 3.7064 0
M  V30 347 H 31.1802 2.86659 3.18629 0
M  V30 348 H 35.3642 3.84605 3.13676 0
M  V30 349 H 30.6202 5.25916 3.11805 0
M  V30 350 H 34.7942 6.24576 3.08022 0
M  V30 351 H 32.4212 6.9562 3.06622 0
M  V30 352 N 33.9963 -1.19345 1.0293 0
M  V30 353 C 34.9443 -2.24621 0.604001 0
M  V30 354 C 35.9383 -1.65452 -0.363587 0
M  V30 355 O 37.1443 -1.78497 -0.23212 0
M  V30 356 H 33.5193 -0.730858 0.177061 0
M  V30 357 H 35.4903 -2.5781 1.50255 0
M  V30 358 C 34.2393 -3.47688 -0.0289127 0
M  V30 359 H 33.5623 -3.93505 0.706651 0
M  V30 360 H 35.0023 -4.23011 -0.289432 0
M  V30 361 C 33.4613 -3.11817 -1.2756 0
M  V30 362 O 33.9913 -3.2451 -2.36762 0
M  V30 363 N 32.1973 -2.66246 -1.16453 0
M  V30 364 H 31.7443 -2.56118 -0.275914 0
M  V30 365 H 31.7023 -2.42617 -1.99961 0
M  V30 366 N 35.4744 -0.807222 -1.35358 0
M  V30 367 C 36.7234 -0.384376 -1.98004 0
M  V30 368 C 37.0364 1.0543 -1.64754 0
M  V30 369 O 38.2424 1.58029 -2.20769 0
M  V30 370 C 36.6984 -0.636326 -3.5423 0
M  V30 371 C 36.3064 -2.08759 -3.96388 0
M  V30 372 C 38.0504 -0.278869 -4.23583 0
M  V30 373 C 35.9574 -2.28525 -5.45463 0
M  V30 374 H 34.8874 -0.139986 -0.740891 0
M  V30 375 H 37.5384 -0.991369 -1.54415 0
M  V30 376 H 35.9204 0.0406256 -3.95979 0
M  V30 377 H 37.0944 -2.8024 -3.6579 0
M  V30 378 H 35.4094 -2.40497 -3.39926 0
M  V30 379 H 38.0064 -0.404599 -5.33167 0
M  V30 380 H 38.3494 0.775012 -4.09022 0
M  V30 381 H 38.8824 -0.909764 -3.87257 0
M  V30 382 H 35.6214 -3.32361 -5.64992 0
M  V30 383 H 35.1414 -1.61569 -5.77629 0
M  V30 384 H 36.8204 -2.10109 -6.11934 0
M  V30 385 N 36.9525 1.47285 -0.560781 0
M  V30 386 C 37.9025 2.27073 0.205384 0
M  V30 387 C 38.8865 1.34569 0.882044 0
M  V30 388 O 40.0785 1.58899 0.77976 0
M  V30 389 C 37.2075 3.20414 1.23247 0
M  V30 390 C 36.2935 4.20399 0.559041 0
M  V30 391 N 36.6845 5.04423 -0.372927 0
M  V30 392 C 34.9825 4.38536 0.812522 0
M  V30 393 C 35.6835 5.76655 -0.764446 0
M  V30 394 N 34.6595 5.43471 -0.11848 0
M  V30 395 H 38.4615 2.89422 -0.511117 0
M  V30 396 H 35.9755 1.57868 -0.380975 0
M  V30 397 H 37.9725 3.76262 1.79534 0
M  V30 398 H 36.6325 2.59623 1.95002 0
M  V30 399 H 37.6435 5.1248 -0.747287 0
M  V30 400 H 34.3205 3.88913 1.51832 0
M  V30 401 H 35.7105 6.54238 -1.53045 0
M  V30 402 N 38.4306 0.297415 1.54768 0
M  V30 403 C 39.3786 -0.596051 2.24833 0
M  V30 404 C 40.3726 -1.13992 1.25308 0
M  V30 405 O 41.5786 -1.09098 1.4317 0
M  V30 406 H 37.9536 -0.210814 0.721846 0
M  V30 407 H 39.9246 0.0174667 2.98395 0
M  V30 408 C 38.6736 -1.75818 2.99972 0
M  V30 409 H 37.9966 -1.3489 3.76357 0
M  V30 410 H 39.4366 -2.35949 3.52284 0
M  V30 411 C 37.8956 -2.66014 2.06732 0
M  V30 412 O 38.4256 -3.67009 1.63302 0
M  V30 413 N 36.6316 -2.33669 1.72763 0
M  V30 414 H 36.1786 -1.51586 2.08277 0
M  V30 415 H 36.1366 -2.94285 1.10652 0
M  V30 416 N 39.9087 -1.5758 0.0250728 0
M  V30 417 C 40.8717 -2.08896 -0.943139 0
M  V30 418 C 41.8717 -1.00321 -1.25668 0
M  V30 419 O 43.0617 -1.26495 -1.19769 0
M  V30 420 C 40.1937 -2.55143 -2.26086 0
M  V30 421 H 41.3867 -2.95723 -0.498775 0
M  V30 422 H 38.9397 -1.54703 -0.222888 0
M  V30 423 H 39.6747 -1.71633 -2.75159 0
M  V30 424 H 39.4597 -3.34461 -2.04641 0
M  V30 425 H 40.9497 -2.95083 -2.95492 0
M  V30 426 N 41.3868 0.248026 -1.55636 0
M  V30 427 C 42.2968 1.32859 -1.93354 0
M  V30 428 C 43.3128 1.52719 -0.833838 0
M  V30 429 O 44.4888 1.66363 -1.13513 0
M  V30 430 C 41.5538 2.66337 -2.21958 0
M  V30 431 C 40.6148 2.55008 -3.45354 0
M  V30 432 C 39.8478 3.82121 -3.72584 0
M  V30 433 O 40.0708 4.83951 -3.01907 0
M  V30 434 O 39.0048 3.80822 -4.6611 0
M  V30 435 H 42.8308 1.03862 -2.85388 0
M  V30 436 H 40.4158 0.448686 -1.42503 0
M  V30 437 H 42.2978 3.45216 -2.4167 0
M  V30 438 H 40.9728 2.95068 -1.33103 0
M  V30 439 H 39.8798 1.7442 -3.30951 0
M  V30 440 H 41.2128 2.31222 -4.34508 0
M  V30 441 N 42.8649 1.48995 0.513639 0
M  V30 442 C 44.0929 1.61531 1.29288 0
M  V30 443 C 44.5079 0.281801 1.86685 0
M  V30 444 O 43.8649 -0.731111 1.67215 0
M  V30 445 C 43.9159 2.67449 2.43215 0
M  V30 446 O 43.6369 3.95626 1.88179 0
M  V30 447 C 45.1379 2.90575 3.34785 0
M  V30 448 H 42.3579 0.544165 0.392588 0
M  V30 449 H 44.9019 1.9494 0.617956 0
M  V30 450 H 43.0569 2.36853 3.0656 0
M  V30 451 H 43.4709 4.53868 2.62876 0
M  V30 452 H 44.9449 3.68449 4.11035 0
M  V30 453 H 45.4219 2.00011 3.91015 0
M  V30 454 H 46.0279 3.22538 2.77218 0
M  V30 455 N 44.343 -0.763751 1.37857 0
M  V30 456 C 45.592 -1.51789 1.32827 0
M  V30 457 C 45.905 -1.95426 -0.0823719 0
M  V30 458 O 47.111 -2.70298 -0.255172 0
M  V30 459 C 45.567 -2.74133 2.33193 0
M  V30 460 C 45.175 -2.37562 3.79827 0
M  V30 461 C 46.919 -3.52054 2.37188 0
M  V30 462 C 44.826 -3.56456 4.71904 0
M  V30 463 H 43.756 -0.569896 0.493695 0
M  V30 464 H 46.407 -0.835822 1.63359 0
M  V30 465 H 44.789 -3.4427 1.9569 0
M  V30 466 H 45.963 -1.75157 4.26212 0
M  V30 467 H 44.278 -1.72798 3.78853 0
M  V30 468 H 46.875 -4.40437 3.03182 0
M  V30 469 H 47.218 -3.92486 1.38782 0
M  V30 470 H 47.751 -2.88921 2.7344 0
M  V30 471 H 44.49 -3.21099 5.71468 0
M  V30 472 H 44.01 -4.17938 4.30218 0
M  V30 473 H 45.689 -4.23168 4.89426 0
M  V30 474 N 45.8211 -1.22559 -0.990812 0
M  V30 475 C 46.7531 -0.955325 -2.08342 0
M  V30 476 C 47.7661 0.0668408 -1.62663 0
M  V30 477 O 48.9551 -0.167421 -1.77713 0
M  V30 478 C 46.0551 -0.415566 -3.36342 0
M  V30 479 C 45.2281 -1.49544 -4.11042 0
M  V30 480 C 44.2871 -0.962399 -5.17324 0
M  V30 481 O 43.3131 -1.64907 -5.44788 0
M  V30 482 N 44.5151 0.215134 -5.80101 0
M  V30 483 H 47.2801 -1.89596 -2.32106 0
M  V30 484 H 44.8411 -1.13276 -1.15673 0
M  V30 485 H 46.8331 -0.0442386 -4.04676 0
M  V30 486 H 45.4031 0.430232 -3.09625 0
M  V30 487 H 44.6231 -2.04 -3.37309 0
M  V30 488 H 45.9111 -2.22195 -4.57719 0
M  V30 489 H 45.3091 0.789779 -5.6016 0
M  V30 490 H 43.8661 0.527826 -6.49659 0
M  V30 491 N 47.2992 1.18797 -1.03562 0
M  V30 492 C 48.2622 2.20464 -0.626769 0
M  V30 493 C 49.2622 1.57721 0.313173 0
M  V30 494 O 50.4522 1.73917 0.0992615 0
M  V30 495 C 47.5842 3.40802 0.0818498 0
M  V30 496 H 48.7772 2.58149 -1.5264 0
M  V30 497 H 46.3302 1.32593 -0.827578 0
M  V30 498 H 47.0652 3.08642 0.995518 0
M  V30 499 H 46.8502 3.8758 -0.593652 0
M  V30 500 H 48.3402 4.16092 0.354584 0
M  V30 501 N 48.7773 0.814389 1.34928 0
M  V30 502 C 50.0263 0.394871 1.97797 0
M  V30 503 C 50.3393 -1.04555 1.65311 0
M  V30 504 O 51.5453 -1.56856 2.21604 0
M  V30 505 C 50.0013 0.655103 3.53888 0
M  V30 506 C 49.6093 2.10858 3.95276 0
M  V30 507 C 51.3533 0.301329 4.23429 0
M  V30 508 C 49.2603 2.31415 5.44244 0
M  V30 509 H 48.1903 0.143913 0.740139 0
M  V30 510 H 50.8413 0.999544 1.53888 0
M  V30 511 H 49.2233 -0.0196253 3.95995 0
M  V30 512 H 50.3973 2.82176 3.64298 0
M  V30 513 H 48.7123 2.42297 3.38646 0
M  V30 514 H 51.3093 0.432869 5.32945 0
M  V30 515 H 51.6523 -0.75331 4.09428 0
M  V30 516 H 52.1853 0.930288 3.86769 0
M  V30 517 H 48.9243 3.35353 5.63222 0
M  V30 518 H 48.4443 1.6463 5.76764 0
M  V30 519 H 50.1233 2.13352 6.10811 0
M  V30 520 N 50.2554 -1.46986 0.568584 0
M  V30 521 C 51.1854 -2.32946 -0.160753 0
M  V30 522 C 52.1664 -1.44487 -0.897631 0
M  V30 523 O 53.3514 -1.73327 -0.875867 0
M  V30 524 C 50.4814 -3.26494 -1.18403 0
M  V30 525 C 49.4354 -4.24282 -0.562895 0
M  V30 526 C 48.7614 -5.07236 -1.69163 0
M  V30 527 C 50.0614 -5.19989 0.490761 0
M  V30 528 H 51.7554 -2.94175 0.556916 0
M  V30 529 H 49.3014 -1.4146 0.26927 0
M  V30 530 H 51.2544 -3.85477 -1.70251 0
M  V30 531 H 49.9784 -2.63343 -1.93179 0
M  V30 532 H 48.6374 -3.66541 -0.0656164 0
M  V30 533 H 48.2854 -4.4048 -2.42871 0
M  V30 534 H 47.9854 -5.7345 -1.28174 0
M  V30 535 H 49.5094 -5.6908 -2.21314 0
M  V30 536 H 50.9234 -5.73271 0.0579047 0
M  V30 537 H 49.3204 -5.94469 0.820165 0
M  V30 538 H 50.3904 -4.64777 1.3824 0
M  V30 539 N 51.7335 -0.305618 -1.54608 0
M  V30 540 C 52.6435 0.57778 -2.27374 0
M  V30 541 C 53.6595 1.14451 -1.31061 0
M  V30 542 O 54.8355 1.16831 -1.6405 0
M  V30 543 C 51.9005 1.73123 -3.00382 0
M  V30 544 C 50.9615 1.19812 -4.12242 0
M  V30 545 C 50.1945 2.2966 -4.81759 0
M  V30 546 O 50.4175 3.49651 -4.50666 0
M  V30 547 O 49.3515 1.96091 -5.69062 0
M  V30 548 H 53.1775 -0.012624 -3.03697 0
M  V30 549 H 50.7625 -0.0719184 -1.49227 0
M  V30 550 H 52.6445 2.40315 -3.4616 0
M  V30 551 H 51.3195 2.30815 -2.26949 0
M  V30 552 H 50.2265 0.491798 -3.70853 0
M  V30 553 H 51.5595 0.666566 -4.87666 0
M  V30 554 N 53.2116 1.57565 -0.0334293 0
M  V30 555 C 54.4576 1.92262 0.645226 0
M  V30 556 C 54.7906 0.910543 1.71531 0
M  V30 557 O 54.0656 -0.066099 1.94388 0
M  V30 558 C 54.3486 3.37422 1.2577 0
M  V30 559 C 54.2016 4.49369 0.196891 0
M  V30 560 C 55.5206 3.82628 2.17449 0
M  V30 561 H 52.6396 0.699171 0.233085 0
M  V30 562 H 55.2816 1.89779 -0.0915694 0
M  V30 563 H 53.4316 3.39669 1.88566 0
M  V30 564 H 55.1036 4.59254 -0.433962 0
M  V30 565 H 53.3466 4.31168 -0.477137 0
M  V30 566 H 54.0176 5.47978 0.665124 0
M  V30 567 H 56.4936 3.82145 1.64634 0
M  V30 568 H 55.3696 4.84883 2.57254 0
M  V30 569 H 55.6306 3.18376 3.0674 0
M  V30 570 N 54.6897 -0.239769 1.55765 0
M  V30 571 C 55.9297 -0.974076 1.79697 0
M  V30 572 C 56.2937 -1.82249 0.604088 0
M  V30 573 O 57.4947 -2.58913 0.722324 0
M  V30 574 C 55.7657 -1.80595 3.08416 0
M  V30 575 S 57.3247 -2.59838 3.53596 0
M  V30 576 H 54.1427 -0.327524 0.63107 0
M  V30 577 H 56.7447 -0.241277 1.94005 0
M  V30 578 H 55.4487 -1.17249 3.93295 0
M  V30 579 H 54.9797 -2.58137 2.96865 0
M  V30 580 H 56.9947 -3.82987 3.15492 0
M  V30 581 N 56.1678 -1.49265 -0.50573 0
M  V30 582 C 57.3928 -1.62478 -1.28902 0
M  V30 583 C 57.8178 -0.294332 -1.85783 0
M  V30 584 O 57.1758 0.737412 -1.65626 0
M  V30 585 C 57.2238 -2.69268 -2.39848 0
M  V30 586 O 56.3278 -2.28113 -3.43567 0
M  V30 587 H 55.6688 -0.54399 -0.380751 0
M  V30 588 H 58.1988 -1.95421 -0.605952 0
M  V30 589 H 58.2088 -2.91291 -2.85681 0
M  V30 590 H 56.8838 -3.65846 -1.97812 0
M  V30 591 H 55.4608 -2.16401 -3.03685 0
M  V30 592 N 57.6459 0.756429 -1.3826 0
M  V30 593 C 58.5559 1.9009 -1.37488 0
M  V30 594 C 59.5719 1.71855 -0.272366 0
M  V30 595 O 60.7479 1.94827 -0.510318 0
M  V30 596 C 57.8129 3.25421 -1.19592 0
M  V30 597 C 56.8739 3.56202 -2.39622 0
M  V30 598 C 56.1069 4.85075 -2.2257 0
M  V30 599 O 56.3299 5.57246 -1.21793 0
M  V30 600 O 55.2639 5.15269 -3.11098 0
M  V30 601 H 59.0899 1.93695 -2.33914 0
M  V30 602 H 56.6749 0.901313 -1.1915 0
M  V30 603 H 58.5569 4.06337 -1.11661 0
M  V30 604 H 57.2319 3.22634 -0.262486 0
M  V30 605 H 56.1389 2.75458 -2.53128 0
M  V30 606 H 57.4719 3.63747 -3.31586 0
M  V30 607 N 59.124 1.23083 0.984299 0
M  V30 608 C 60.057 0.951786 2.07404 0
M  V30 609 C 61.035 -0.10848 1.62238 0
M  V30 610 O 62.219 0.0249467 1.88483 0
M  V30 611 C 59.346 0.433142 3.35919 0
M  V30 612 C 58.392 1.47941 4.0002 0
M  V30 613 S 59.225 3.05556 4.39768 0
M  V30 614 C 60.381 2.55351 5.71442 0
M  V30 615 H 60.614 1.87456 2.30754 0
M  V30 616 H 58.147 1.06284 1.11996 0
M  V30 617 H 60.105 0.140506 4.10259 0
M  V30 618 H 58.766 -0.468656 3.10584 0
M  V30 619 H 57.959 1.06658 4.92585 0
M  V30 620 H 57.561 1.7212 3.3204 0
M  V30 621 H 59.853 1.97128 6.48187 0
M  V30 622 H 60.796 3.46441 6.17563 0
M  V30 623 H 61.204 1.96339 5.29255 0
M  V30 624 N 60.6021 -1.18246 1.0419 0
M  V30 625 C 62.0181 -1.40269 0.761366 0
M  V30 626 C 62.2181 -1.90777 -0.648578 0
M  V30 627 O 61.2741 -2.0929 -1.41258 0
M  V30 628 C 62.5871 -2.40237 1.8085 0
M  V30 629 C 64.1351 -2.53961 1.82955 0
M  V30 630 C 64.6101 -3.57194 2.86664 0
M  V30 631 N 66.1011 -3.64702 2.85563 0
M  V30 632 C 66.8361 -4.44309 3.6246 0
M  V30 633 N 66.3321 -5.27514 4.49111 0
M  V30 634 N 68.1251 -4.39084 3.50944 0
M  V30 635 H 60.2761 -0.837882 1.95175 0
M  V30 636 H 62.5391 -0.430608 0.84456 0
M  V30 637 H 62.2451 -2.10176 2.81991 0
M  V30 638 H 62.1191 -3.39601 1.64168 0
M  V30 639 H 64.5061 -2.83338 0.824855 0
M  V30 640 H 64.5871 -1.54706 2.03715 0
M  V30 641 H 64.2311 -3.28558 3.87314 0
M  V30 642 H 64.1611 -4.5613 2.6316 0
M  V30 643 H 66.6521 -3.05289 2.22727 0
M  V30 644 H 66.9651 -5.85411 5.04493 0
M  V30 645 H 65.3101 -5.2693 4.53178 0
M  V30 646 H 68.5011 -3.7313 2.82651 0
M  V30 647 H 68.6741 -5.00883 4.11121 0
M  V30 648 N 62.0802 -0.821533 -1.34494 0
M  V30 649 C 63.3052 -0.420873 -2.03085 0
M  V30 650 C 63.7302 0.964915 -1.61465 0
M  V30 651 O 63.0882 1.62763 -0.798607 0
M  V30 652 C 63.1362 -0.529414 -3.56693 0
M  V30 653 O 62.2402 0.451302 -4.09923 0
M  V30 654 H 61.5812 -0.173489 -0.640935 0
M  V30 655 H 64.1112 -1.11157 -1.71771 0
M  V30 656 H 64.1212 -0.404671 -4.05988 0
M  V30 657 H 62.7962 -1.54014 -3.86332 0
M  V30 658 H 61.3732 0.285558 -3.71805 0
M  V30 659 N 63.5583 1.46682 -0.576371 0
M  V30 660 C 64.9693 1.86112 -0.148091 0
M  V30 661 C 65.3203 1.48073 1.2872 0
M  V30 662 O 64.4453 0.892656 1.97131 0
M  V30 663 C 65.0403 3.37786 -0.261982 0
M  V30 664 C 63.5993 3.76235 0.111384 0
M  V30 665 C 62.7463 2.70713 -0.60083 0
M  V30 666 H 65.6973 1.37927 -0.78497 0
M  V30 667 H 65.7183 3.77007 0.514364 0
M  V30 668 H 65.2303 3.6544 -1.30671 0
M  V30 669 H 63.3313 3.54198 1.15649 0
M  V30 670 H 63.4443 4.78391 -0.26052 0
M  V30 671 H 61.8083 2.54666 -0.0417783 0
M  V30 672 H 62.5913 3.01208 -1.64708 0
M  V30 673 N 65.0364 0.313813 1.54444 0
M  V30 674 C 66.2824 -0.292108 2.00685 0
M  V30 675 C 66.6154 -1.52548 1.20177 0
M  V30 676 O 65.8904 -1.92452 0.281531 0
M  V30 677 C 66.1734 -0.635968 3.5444 0
M  V30 678 C 66.0264 0.607437 4.4568 0
M  V30 679 C 67.3454 -1.45747 4.15266 0
M  V30 680 H 64.4644 -0.104697 0.729526 0
M  V30 681 H 67.1064 0.428457 1.85106 0
M  V30 682 H 65.2564 -1.24986 3.67846 0
M  V30 683 H 66.9284 1.24581 4.44159 0
M  V30 684 H 65.1714 1.23822 4.15753 0
M  V30 685 H 65.8424 0.322515 5.51057 0
M  V30 686 H 68.3184 -0.938645 4.05375 0
M  V30 687 H 67.1944 -1.66683 5.2298 0
M  V30 688 H 67.4554 -2.45063 3.67963 0
M  V30 689 N 66.5145 -1.57545 0.0417849 0
M  V30 690 C 67.7635 -1.91494 -0.633492 0
M  V30 691 C 68.0765 -0.921084 -1.72556 0
M  V30 692 O 69.2825 -1.15228 -2.45835 0
M  V30 693 C 67.7385 -3.40072 -1.17808 0
M  V30 694 C 67.3465 -4.47843 -0.118633 0
M  V30 695 C 69.0905 -3.8307 -1.82915 0
M  V30 696 C 66.9975 -5.87529 -0.675578 0
M  V30 697 H 65.9275 -0.714653 -0.24039 0
M  V30 698 H 68.5785 -1.83175 0.109148 0
M  V30 699 H 66.9605 -3.43364 -1.97274 0
M  V30 700 H 68.1345 -4.56128 0.654494 0
M  V30 701 H 66.4495 -4.14128 0.434414 0
M  V30 702 H 69.0465 -4.84794 -2.25563 0
M  V30 703 H 69.3895 -3.1881 -2.67705 0
M  V30 704 H 69.9225 -3.82255 -1.10119 0
M  V30 705 H 66.6615 -6.55362 0.134475 0
M  V30 706 H 66.1815 -5.82824 -1.4169 0
M  V30 707 H 67.8605 -6.36491 -1.1614 0
M  V30 708 N 67.9926 0.231505 -1.5589 0
M  V30 709 C 68.9226 1.29022 -1.94617 0
M  V30 710 C 69.9036 1.4941 -0.813067 0
M  V30 711 O 71.0886 1.6176 -1.07459 0
M  V30 712 C 68.2186 2.64199 -2.25424 0
M  V30 713 C 67.1726 2.58484 -3.41131 0
M  V30 714 C 66.4986 3.97599 -3.57518 0
M  V30 715 C 67.7986 2.1413 -4.76388 0
M  V30 716 H 69.4926 0.968563 -2.83301 0
M  V30 717 H 67.0386 0.464479 -1.36303 0
M  V30 718 H 68.9916 3.38413 -2.51107 0
M  V30 719 H 67.7156 2.98032 -1.33583 0
M  V30 720 H 66.3746 1.86727 -3.15481 0
M  V30 721 H 66.0226 4.28723 -2.6307 0
M  V30 722 H 65.7226 3.94659 -4.35337 0
M  V30 723 H 67.2466 4.7349 -3.85538 0
M  V30 724 H 68.6606 2.78083 -5.01341 0
M  V30 725 H 67.0576 2.2227 -5.57419 0
M  V30 726 H 68.1276 1.09331 -4.72414 0
M  V30 727 N 69.4707 1.49531 0.497807 0
M  V30 728 C 70.4337 1.65916 1.58128 0
M  V30 729 C 71.4337 0.530825 1.51786 0
M  V30 730 O 72.6237 0.797342 1.54881 0
M  V30 731 C 69.7557 1.65951 2.9778 0
M  V30 732 H 70.9487 2.62556 1.44929 0
M  V30 733 H 68.5017 1.38611 0.722275 0
M  V30 734 H 69.2367 0.709065 3.16453 0
M  V30 735 H 69.0217 2.47897 3.03792 0
M  V30 736 H 70.5117 1.80673 3.76493 0
M  V30 737 N 70.9488 -0.749086 1.3866 0
M  V30 738 C 72.1968 -1.50535 1.34847 0
M  V30 739 C 72.5178 -1.94909 -0.0595016 0
M  V30 740 O 71.7878 -1.67973 -1.00806 0
M  V30 741 H 70.3678 -0.558395 0.49619 0
M  V30 742 H 73.0298 -0.890165 1.73384 0
M  V30 743 H 72.1258 -2.39413 2.00219 0
M  V30 744 N 72.4269 -1.23603 -0.977757 0
M  V30 745 C 73.6549 -1.09646 -1.75458 0
M  V30 746 C 74.0699 0.351859 -1.85492 0
M  V30 747 O 73.4269 1.24327 -1.336 0
M  V30 748 C 73.4779 -1.71895 -3.18016 0
M  V30 749 O 73.1989 -3.11063 -3.08498 0
M  V30 750 C 74.6999 -1.63415 -4.12081 0
M  V30 751 H 71.9199 -0.38359 -0.550545 0
M  V30 752 H 74.4639 -1.63507 -1.22824 0
M  V30 753 H 72.6189 -1.22061 -3.67668 0
M  V30 754 H 73.0329 -3.41305 -3.9826 0
M  V30 755 H 74.5069 -2.11669 -5.09804 0
M  V30 756 H 74.9839 -0.593462 -4.35172 0
M  V30 757 H 75.5899 -2.12628 -3.68334 0
M  V30 758 N 73.905 1.17692 -1.04816 0
M  V30 759 C 75.316 1.69501 -0.782698 0
M  V30 760 C 75.667 1.83456 0.695577 0
M  V30 761 O 74.792 1.51942 1.54086 0
M  V30 762 C 75.387 3.07874 -1.41419 0
M  V30 763 C 73.946 3.56864 -1.19686 0
M  V30 764 C 73.093 2.3322 -1.50012 0
M  V30 765 H 76.044 1.02262 -1.2136 0
M  V30 766 H 76.065 3.71528 -0.821428 0
M  V30 767 H 75.577 2.97685 -2.49009 0
M  V30 768 H 73.678 3.72337 -0.140043 0
M  V30 769 H 73.791 4.39851 -1.89916 0
M  V30 770 H 72.155 2.37501 -0.920071 0
M  V30 771 H 72.938 2.25644 -2.58727 0
M  V30 772 N 75.3831 0.828654 1.34056 0
M  V30 773 C 76.6311 0.41863 1.97717 0
M  V30 774 C 76.9521 -1.02314 1.66002 0
M  V30 775 O 76.2221 -1.71119 0.953683 0
M  V30 776 H 74.8021 0.151809 0.731412 0
M  V30 777 H 77.4641 1.05936 1.63596 0
M  V30 778 H 76.5601 0.542318 3.07352 0
M  V30 779 N 76.8612 -1.46375 0.584142 0
M  V30 780 C 78.0892 -2.06761 0.0759296 0
M  V30 781 C 78.5042 -1.43266 -1.22965 0
M  V30 782 O 77.8612 -0.538458 -1.74376 0
M  V30 783 C 77.9122 -3.61375 -0.0950384 0
M  V30 784 O 77.6332 -4.22495 1.15887 0
M  V30 785 C 79.1342 -4.38693 -0.637434 0
M  V30 786 H 76.3542 -0.668479 0.0581075 0
M  V30 787 H 78.8982 -1.8798 0.805218 0
M  V30 788 H 77.0532 -3.79578 -0.774554 0
M  V30 789 H 77.4672 -5.15385 0.973598 0
M  V30 790 H 78.9412 -5.47464 -0.706237 0
M  V30 791 H 79.4182 -4.06836 -1.65472 0
M  V30 792 H 80.0242 -4.25299 0.00725967 0
M  V30 793 N 78.3393 -0.321999 -1.54275 0
M  V30 794 C 79.5863 0.281044 -2.0054 0
M  V30 795 C 79.9143 1.52265 -1.21019 0
M  V30 796 O 79.1693 1.93687 -0.279982 0
M  V30 797 C 79.4683 0.661769 -3.5122 0
M  V30 798 C 79.1343 -0.480482 -4.48333 0
M  V30 799 C 77.7963 -0.794005 -4.74604 0
M  V30 800 C 80.1483 -1.24783 -5.06042 0
M  V30 801 C 77.4763 -1.87763 -5.55844 0
M  V30 802 C 79.8283 -2.32153 -5.88462 0
M  V30 803 C 78.4923 -2.64089 -6.13036 0
M  V30 804 H 77.7623 0.102841 -0.733829 0
M  V30 805 H 80.4093 -0.445453 -1.86247 0
M  V30 806 H 78.7143 1.46867 -3.63232 0
M  V30 807 H 80.4113 1.13989 -3.84457 0
M  V30 808 H 77.0013 -0.226039 -4.28004 0
M  V30 809 H 81.1853 -1.01887 -4.85729 0
M  V30 810 H 76.4413 -2.12954 -5.73115 0
M  V30 811 H 80.6153 -2.92057 -6.32199 0
M  V30 812 H 78.2423 -3.48185 -6.75775 0
M  V30 813 N 79.8174 1.5752 -0.0501392 0
M  V30 814 C 80.7644 2.1147 0.924603 0
M  V30 815 C 81.7344 1.02182 1.30951 0
M  V30 816 O 82.9194 1.29723 1.39916 0
M  V30 817 C 80.0594 2.66337 2.19451 0
M  V30 818 C 79.1724 3.89708 1.86418 0
M  V30 819 C 78.3074 4.32893 3.07859 0
M  V30 820 C 77.3464 5.48967 2.70742 0
M  V30 821 N 76.4834 5.87211 3.84874 0
M  V30 822 H 81.3234 2.94465 0.457639 0
M  V30 823 H 78.8604 1.45531 0.214266 0
M  V30 824 H 80.8184 2.96247 2.93758 0
M  V30 825 H 79.4484 1.86141 2.63726 0
M  V30 826 H 78.5004 3.66396 1.02264 0
M  V30 827 H 79.8124 4.74074 1.55096 0
M  V30 828 H 78.9664 4.6435 3.90466 0
M  V30 829 H 77.7054 3.47336 3.42358 0
M  V30 830 H 76.7104 5.17183 1.86551 0
M  V30 831 H 77.9354 6.3624 2.37436 0
M  V30 832 H 75.8814 5.04607 4.19175 0
M  V30 833 H 75.7984 6.66266 3.57247 0
M  V30 834 H 77.0664 6.23282 4.68123 0
M  V30 835 N 81.2955 -0.223234 1.56011 0
M  V30 836 C 82.2455 -1.28008 1.88674 0
M  V30 837 C 83.2295 -1.42369 0.749663 0
M  V30 838 O 84.4215 -1.45212 1.01205 0
M  V30 839 C 81.5505 -2.63084 2.20548 0
M  V30 840 C 80.6365 -2.52632 3.40643 0
M  V30 841 N 81.0275 -2.11829 4.59306 0
M  V30 842 C 79.3255 -2.83594 3.44224 0
M  V30 843 C 80.0265 -2.12587 5.41463 0
M  V30 844 N 79.0025 -2.5301 4.81131 0
M  V30 845 H 82.8045 -0.955487 2.77935 0
M  V30 846 H 80.3185 -0.431801 1.56554 0
M  V30 847 H 82.3155 -3.39385 2.42122 0
M  V30 848 H 80.9755 -2.96391 1.32599 0
M  V30 849 H 81.9865 -1.82988 4.84496 0
M  V30 850 H 78.6635 -3.21284 2.66614 0
M  V30 851 H 80.0535 -1.83179 6.46448 0
M  V30 852 N 82.7736 -1.49793 -0.48987 0
M  V30 853 C 84.0226 -1.59085 -1.23995 0
M  V30 854 C 84.3356 -0.287907 -1.9347 0
M  V30 855 O 85.5416 -0.259506 -2.70257 0
M  V30 856 C 83.9976 -2.80736 -2.252 0
M  V30 857 C 83.6056 -4.17833 -1.61614 0
M  V30 858 C 85.3496 -2.99364 -3.00967 0
M  V30 859 C 83.2566 -5.30693 -2.60996 0
M  V30 860 H 82.1866 -0.592372 -0.466488 0
M  V30 861 H 84.8376 -1.76197 -0.51252 0
M  V30 862 H 83.2196 -2.57142 -3.01154 0
M  V30 863 H 84.3936 -4.51608 -0.915774 0
M  V30 864 H 82.7086 -4.04656 -0.981977 0
M  V30 865 H 85.3056 -3.80851 -3.75308 0
M  V30 866 H 85.6486 -2.10356 -3.59244 0
M  V30 867 H 86.1816 -3.2305 -2.32128 0
M  V30 868 H 82.9206 -6.21796 -2.07485 0
M  V30 869 H 82.4406 -5.01359 -3.2924 0
M  V30 870 H 84.1196 -5.6049 -3.23202 0
M  V30 871 N 84.2517 0.741722 -1.39055 0
M  V30 872 C 85.2147 1.83733 -1.37021 0
M  V30 873 C 86.2147 1.58542 -0.268534 0
M  V30 874 O 87.4047 1.66067 -0.526076 0
M  V30 875 C 84.5367 3.2141 -1.13617 0
M  V30 876 H 85.7297 1.86941 -2.34506 0
M  V30 877 H 83.2827 0.944676 -1.24521 0
M  V30 878 H 84.0177 3.23865 -0.167863 0
M  V30 879 H 83.8027 3.4109 -1.93391 0
M  V30 880 H 85.2927 4.01477 -1.14918 0
M  V30 881 N 85.7298 1.2412 0.971189 0
M  V30 882 C 86.6598 1.05508 2.08304 0
M  V30 883 C 87.6408 -0.0308864 1.70072 0
M  V30 884 O 88.8258 0.135521 1.93727 0
M  V30 885 C 85.9558 0.655365 3.4106 0
M  V30 886 C 84.9098 1.68971 3.93234 0
M  V30 887 C 84.2358 1.14516 5.22293 0
M  V30 888 C 85.5358 3.08487 4.21465 0
M  V30 889 H 87.2298 1.98507 2.24132 0
M  V30 890 H 84.7758 0.955821 1.07704 0
M  V30 891 H 86.7288 0.51217 4.18276 0
M  V30 892 H 85.4528 -0.31032 3.25122 0
M  V30 893 H 84.1118 1.82106 3.18171 0
M  V30 894 H 83.7598 0.170189 5.02712 0
M  V30 895 H 83.4598 1.83635 5.58168 0
M  V30 896 H 84.9838 1.01401 6.02121 0
M  V30 897 H 86.3978 2.98601 4.89398 0
M  V30 898 H 84.7948 3.74926 4.68562 0
M  V30 899 H 85.8648 3.56787 3.28376 0
M  V30 900 N 87.2079 -1.17134 1.05439 0
M  V30 901 C 88.1179 -2.24878 0.668365 0
M  V30 902 C 89.1339 -1.71186 -0.311687 0
M  V30 903 O 90.3099 -2.00738 -0.163161 0
M  V30 904 C 87.3749 -3.46662 0.051648 0
M  V30 905 C 86.4359 -4.15429 1.08246 0
M  V30 906 C 85.6689 -5.31399 0.495082 0
M  V30 907 O 85.8919 -5.66153 -0.694743 0
M  V30 908 O 84.8259 -5.89187 1.23056 0
M  V30 909 H 88.6519 -2.60189 1.56637 0
M  V30 910 H 86.2369 -1.24482 0.826104 0
M  V30 911 H 88.1189 -4.20394 -0.290966 0
M  V30 912 H 86.7939 -3.13142 -0.819971 0
M  V30 913 H 85.7009 -3.43704 1.47711 0
M  V30 914 H 87.0339 -4.52982 1.92532 0
M  V30 915 N 88.686 -0.835752 -1.33615 0
M  V30 916 C 89.596 -0.269088 -2.33052 0
M  V30 917 C 90.612 0.603251 -1.63208 0
M  V30 918 O 91.788 0.508112 -1.94885 0
M  V30 919 C 88.853 0.549091 -3.42324 0
M  V30 920 C 87.914 -0.347156 -4.27894 0
M  V30 921 C 87.147 0.43207 -5.31948 0
M  V30 922 O 87.37 1.66409 -5.45586 0
M  V30 923 O 86.304 -0.192298 -6.01593 0
M  V30 924 H 90.13 -1.09243 -2.83372 0
M  V30 925 H 87.715 -0.598198 -1.36901 0
M  V30 926 H 89.597 1.01414 -4.09015 0
M  V30 927 H 88.272 1.34955 -2.94226 0
M  V30 928 H 87.179 -0.859979 -3.64081 0
M  V30 929 H 88.512 -1.1123 -4.79467 0
M  V30 930 N 90.1641 1.46063 -0.591896 0
M  V30 931 C 91.4131 2.01547 -0.0786637 0
M  V30 932 C 91.7261 1.46796 1.29268 0
M  V30 933 O 92.9321 1.94157 1.89777 0
M  V30 934 C 91.3881 3.59787 -0.0900024 0
M  V30 935 C 90.9961 4.23534 -1.46023 0
M  V30 936 C 92.7401 4.22895 0.368806 0
M  V30 937 C 90.6471 5.73881 -1.4288 0
M  V30 938 H 89.5771 0.753564 -0.0256388 0
M  V30 939 H 92.2281 1.677 -0.744905 0
M  V30 940 H 90.6101 3.90752 0.642586 0
M  V30 941 H 91.7841 4.04167 -2.21328 0
M  V30 942 H 90.0991 3.72558 -1.85982 0
M  V30 943 H 92.6961 5.33116 0.411258 0
M  V30 944 H 93.0391 3.9247 1.38827 0
M  V30 945 H 93.5721 3.9659 -0.31001 0
M  V30 946 H 90.3111 6.0898 -2.42536 0
M  V30 947 H 89.8311 5.95486 -0.718095 0
M  V30 948 H 91.5101 6.36776 -1.14565 0
M  V30 949 N 91.6422 0.330177 1.54103 0
M  V30 950 C 92.8722 -0.271784 2.04805 0
M  V30 951 C 93.2802 -1.45816 1.20559 0
M  V30 952 O 92.6232 -1.82247 0.2306 0
M  V30 953 C 92.6852 -0.763238 3.51305 0
M  V30 954 C 92.3492 0.301705 4.56003 0
M  V30 955 C 93.3462 1.13999 5.07248 0
M  V30 956 C 91.0312 0.451793 5.00264 0
M  V30 957 C 93.0252 2.11402 6.01322 0
M  V30 958 C 90.7122 1.42924 5.94151 0
M  V30 959 C 91.7102 2.25882 6.44567 0
M  V30 960 O 91.3982 3.21965 7.3661 0
M  V30 961 H 91.1302 -0.058693 0.673447 0
M  V30 962 H 93.6842 0.476395 1.99799 0
M  V30 963 H 91.9142 -1.56244 3.5373 0
M  V30 964 H 93.6032 -1.28427 3.85047 0
M  V30 965 H 94.3692 1.03505 4.73827 0
M  V30 966 H 90.2482 -0.184044 4.60632 0
M  V30 967 H 93.7922 2.76192 6.40596 0
M  V30 968 H 89.6892 1.53479 6.26988 0
M  V30 969 H 90.4572 3.17281 7.54503 0
M  V30 970 N 93.1203 -1.57491 0.0584922 0
M  V30 971 C 94.0833 -2.1085 -0.898617 0
M  V30 972 C 95.0833 -1.02964 -1.23511 0
M  V30 973 O 96.2733 -1.29007 -1.17059 0
M  V30 974 C 93.4053 -2.59881 -2.20623 0
M  V30 975 H 94.5983 -2.96715 -0.435936 0
M  V30 976 H 92.1513 -1.55141 -0.190023 0
M  V30 977 H 92.8863 -1.77431 -2.71457 0
M  V30 978 H 92.6713 -3.38727 -1.97501 0
M  V30 979 H 94.1613 -3.01285 -2.89166 0
M  V30 980 N 94.5984 0.214957 -1.56127 0
M  V30 981 C 95.5284 1.2695 -1.95974 0
M  V30 982 C 96.5094 1.48539 -0.828868 0
M  V30 983 O 97.6944 1.60611 -1.09168 0
M  V30 984 C 94.8244 2.61794 -2.28214 0
M  V30 985 C 93.7784 2.54851 -3.43853 0
M  V30 986 C 93.1044 3.93785 -3.61715 0
M  V30 987 C 94.4044 2.09065 -4.78632 0
M  V30 988 H 96.0984 0.93846 -2.84312 0
M  V30 989 H 93.6444 0.449996 -1.36788 0
M  V30 990 H 95.5974 3.35731 -2.54682 0
M  V30 991 H 94.3214 2.96599 -1.36736 0
M  V30 992 H 92.9804 1.8337 -3.17444 0
M  V30 993 H 92.6284 4.25908 -2.67602 0
M  V30 994 H 92.3284 3.90019 -4.39498 0
M  V30 995 H 93.8524 4.69374 -3.90539 0
M  V30 996 H 95.2664 2.7275 -5.04262 0
M  V30 997 H 93.6634 2.16346 -5.59745 0
M  V30 998 H 94.7334 1.04315 -4.73547 0
M  V30 999 N 96.0765 1.50051 0.48192 0
M  V30 1000 C 97.3165 1.62128 1.24474 0
M  V30 1001 C 97.6805 0.309742 1.89485 0
M  V30 1002 O 98.8815 0.305854 2.67054 0
M  V30 1003 C 97.1525 2.76151 2.26882 0
M  V30 1004 S 98.7115 3.08297 3.12247 0
M  V30 1005 H 95.5295 0.571661 0.422759 0
M  V30 1006 H 98.1315 1.87791 0.54359 0
M  V30 1007 H 96.8355 3.69942 1.77683 0
M  V30 1008 H 96.3665 2.52541 3.0164 0
M  V30 1009 H 98.3815 2.51287 4.27866 0
M  V30 1010 N 97.5546 -0.734337 1.39446 0
M  V30 1011 C 98.7796 -1.52866 1.40167 0
M  V30 1012 C 99.2046 -1.881 -0.00171513 0
M  V30 1013 O 98.5626 -1.51957 -0.988879 0
M  V30 1014 C 98.6106 -2.79235 2.28167 0
M  V30 1015 O 97.7146 -3.75185 1.71201 0
M  V30 1016 H 97.0556 -0.461618 0.477289 0
M  V30 1017 H 99.5856 -0.905949 1.8345 0
M  V30 1018 H 99.5956 -3.27963 2.42702 0
M  V30 1019 H 98.2706 -2.52923 3.30156 0
M  V30 1020 H 96.8476 -3.33958 1.65912 0
M  V30 1021 N 99.0327 -1.24633 -0.964593 0
M  V30 1022 C 99.9957 -1.0424 -2.04124 0
M  V30 1023 C 100.996 0.00137563 -1.608 0
M  V30 1024 O 102.186 -0.239883 -1.7254 0
M  V30 1025 C 99.3177 -0.580588 -3.3592 0
M  V30 1026 H 100.511 -1.99803 -2.23649 0
M  V30 1027 H 98.0637 -1.06899 -1.14027 0
M  V30 1028 H 98.7987 0.3781 -3.22088 0
M  V30 1029 H 98.5837 -1.33398 -3.6871 0
M  V30 1030 H 100.074 -0.459034 -4.15069 0
M  V30 1031 N 100.511 1.16574 -1.06058 0
M  V30 1032 C 101.741 1.90675 -0.795397 0
M  V30 1033 C 102.149 1.77547 0.653735 0
M  V30 1034 O 101.492 1.11611 1.45907 0
M  V30 1035 C 101.554 3.42011 -1.10764 0
M  V30 1036 C 101.218 3.78924 -2.55471 0
M  V30 1037 C 102.215 3.81042 -3.53699 0
M  V30 1038 C 99.8998 4.09626 -2.90708 0
M  V30 1039 C 101.894 4.13346 -4.85205 0
M  V30 1040 C 99.5808 4.41597 -4.22416 0
M  V30 1041 C 100.579 4.43436 -5.19474 0
M  V30 1042 O 100.267 4.74649 -6.48817 0
M  V30 1043 H 99.9988 0.611554 -0.288058 0
M  V30 1044 H 102.553 1.48711 -1.41683 0
M  V30 1045 H 100.783 3.84312 -0.429128 0
M  V30 1046 H 102.472 3.97384 -0.827077 0
M  V30 1047 H 103.238 3.57437 -3.27817 0
M  V30 1048 H 99.1168 4.07361 -2.15819 0
M  V30 1049 H 102.661 4.14696 -5.60957 0
M  V30 1050 H 98.5578 4.64667 -4.48056 0
M  V30 1051 H 99.3258 4.9247 -6.5377 0
M  V30 1052 N 101.989 0.842826 1.3317 0
M  V30 1053 C 103.214 0.453129 2.02389 0
M  V30 1054 C 103.639 -0.939105 1.6298 0
M  V30 1055 O 102.997 -1.61472 0.8244 0
M  V30 1056 C 103.045 0.586094 3.55805 0
M  V30 1057 O 102.149 -0.386029 4.10589 0
M  V30 1058 H 101.49 0.183664 0.638094 0
M  V30 1059 H 104.02 1.13875 1.69981 0
M  V30 1060 H 104.03 0.469209 4.05293 0
M  V30 1061 H 102.705 1.6014 3.83833 0
M  V30 1062 H 101.282 -0.226371 3.72212 0
M  V30 1063 N 103.467 -1.45747 0.599634 0
M  V30 1064 C 104.695 -2.06668 0.0978551 0
M  V30 1065 C 105.11 -1.44562 -1.21439 0
M  V30 1066 O 104.467 -0.556923 -1.73795 0
M  V30 1067 C 104.518 -3.61456 -0.0567044 0
M  V30 1068 O 104.239 -4.21242 1.20361 0
M  V30 1069 C 105.74 -4.39345 -0.590869 0
M  V30 1070 H 102.96 -0.667825 0.0651943 0
M  V30 1071 H 105.504 -1.87115 0.82511 0
M  V30 1072 H 103.659 -3.80378 -0.734251 0
M  V30 1073 H 104.073 -5.14323 1.02821 0
M  V30 1074 H 105.547 -5.48182 -0.648131 0
M  V30 1075 H 106.024 -4.08568 -1.61147 0
M  V30 1076 H 106.63 -4.25268 0.0523679 0
M  V30 1077 N 104.945 -0.338344 -1.53925 0
M  V30 1078 C 106.173 0.261298 -2.05243 0
M  V30 1079 C 106.588 1.44625 -1.21363 0
M  V30 1080 O 105.945 1.80811 -0.247736 0
M  V30 1081 C 105.996 0.681412 -3.5502 0
M  V30 1082 O 105.717 -0.456414 -4.35716 0
M  V30 1083 C 107.218 1.34232 -4.22489 0
M  V30 1084 H 104.438 0.0513685 -0.669031 0
M  V30 1085 H 106.982 -0.488822 -1.98572 0
M  V30 1086 H 105.137 1.38148 -3.61931 0
M  V30 1087 H 105.551 -0.122564 -5.24357 0
M  V30 1088 H 107.025 1.58708 -5.28693 0
M  V30 1089 H 107.502 2.29426 -3.74514 0
M  V30 1090 H 108.108 0.684424 -4.19757 0
M  V30 1091 N 106.423 1.57458 -0.0668435 0
M  V30 1092 C 107.653 1.97337 0.611677 0
M  V30 1093 C 108.061 0.943744 1.63982 0
M  V30 1094 O 107.404 -0.0785584 1.83532 0
M  V30 1095 C 107.466 3.33511 1.34205 0
M  V30 1096 C 107.13 4.54598 0.467941 0
M  V30 1097 C 108.127 5.19186 -0.272439 0
M  V30 1098 C 105.812 5.0075 0.39427 0
M  V30 1099 C 107.806 6.28274 -1.07476 0
M  V30 1100 C 105.493 6.09711 -0.411729 0
M  V30 1101 C 106.491 6.73335 -1.14492 0
M  V30 1102 O 106.179 7.80199 -1.93763 0
M  V30 1103 H 105.911 0.654042 0.170893 0
M  V30 1104 H 108.465 2.04961 -0.134289 0
M  V30 1105 H 106.695 3.22487 2.13398 0
M  V30 1106 H 108.384 3.58029 1.91233 0
M  V30 1107 H 109.15 4.84477 -0.225086 0
M  V30 1108 H 105.029 4.51009 0.954569 0
M  V30 1109 H 108.573 6.77866 -1.64755 0
M  V30 1110 H 104.47 6.43854 -0.460664 0
M  V30 1111 H 105.238 7.97053 -1.86142 0
M  V30 1112 N 107.901 -0.206675 1.56239 0
M  V30 1113 C 108.849 -1.27571 1.94495 0
M  V30 1114 C 109.843 -1.47737 0.828862 0
M  V30 1115 O 111.049 -1.48735 1.0138 0
M  V30 1116 H 107.424 -0.428029 0.6183 0
M  V30 1117 H 109.395 -0.925961 2.8367 0
M  V30 1118 C 108.144 -2.61568 2.29079 0
M  V30 1119 H 107.467 -2.46863 3.14482 0
M  V30 1120 H 108.907 -3.35144 2.5972 0
M  V30 1121 C 107.366 -3.17695 1.12123 0
M  V30 1122 O 107.896 -3.99801 0.390153 0
M  V30 1123 N 106.102 -2.76276 0.901097 0
M  V30 1124 H 105.649 -2.09613 1.49733 0
M  V30 1125 H 105.607 -3.1417 0.120319 0
M  V30 1126 N 109.379 -1.50304 -0.473955 0
M  V30 1127 C 110.312 -1.63595 -1.59097 0
M  V30 1128 C 111.29 -0.484142 -1.55225 0
M  V30 1129 O 112.474 -0.703271 -1.7489 0
M  V30 1130 C 109.601 -1.61589 -2.97669 0
M  V30 1131 C 108.647 -2.82295 -3.19705 0
M  V30 1132 S 109.48 -4.43635 -2.99913 0
M  V30 1133 C 110.636 -4.44317 -4.40832 0
M  V30 1134 H 110.869 -2.58082 -1.47583 0
M  V30 1135 H 108.402 -1.39531 -0.661087 0
M  V30 1136 H 110.36 -1.61116 -3.7756 0
M  V30 1137 H 109.021 -0.683421 -3.06575 0
M  V30 1138 H 108.214 -2.77188 -4.20931 0
M  V30 1139 H 107.816 -2.8032 -2.47582 0
M  V30 1140 H 110.108 -4.17703 -5.33414 0
M  V30 1141 H 111.051 -5.45911 -4.50984 0
M  V30 1142 H 111.459 -3.74059 -4.22777 0
M  V30 1143 N 110.857 0.726932 -1.39834 0
M  V30 1144 C 112.268 1.30558 -1.3346 0
M  V30 1145 C 112.619 1.962 -0.00273003 0
M  V30 1146 O 111.744 1.96826 0.899371 0
M  V30 1147 C 112.339 2.37404 -2.41713 0
M  V30 1148 C 110.898 2.90921 -2.38835 0
M  V30 1149 C 110.045 1.64578 -2.2318 0
M  V30 1150 H 112.996 0.523862 -1.49804 0
M  V30 1151 H 113.017 3.17984 -2.08966 0
M  V30 1152 H 112.529 1.89599 -3.38635 0
M  V30 1153 H 110.63 3.42985 -1.45575 0
M  V30 1154 H 110.743 3.43487 -3.33997 0
M  V30 1155 H 109.107 1.89219 -1.70494 0
M  V30 1156 H 109.89 1.18814 -3.22084 0
M  V30 1157 N 112.336 1.25143 0.95797 0
M  V30 1158 C 113.266 1.07711 2.07173 0
M  V30 1159 C 114.247 -0.0128462 1.70095 0
M  V30 1160 O 115.432 0.156061 1.93572 0
M  V30 1161 C 112.562 0.691503 3.40346 0
M  V30 1162 C 111.516 1.73132 3.9142 0
M  V30 1163 C 110.842 1.20049 5.21049 0
M  V30 1164 C 112.142 3.1294 4.1817 0
M  V30 1165 H 113.836 2.00873 2.22014 0
M  V30 1166 H 111.382 0.967191 1.06684 0
M  V30 1167 H 113.335 0.556505 4.17709 0
M  V30 1168 H 112.059 -0.275819 3.25433 0
M  V30 1169 H 110.718 1.8547 3.16222 0
M  V30 1170 H 110.366 0.223499 5.02503 0
M  V30 1171 H 110.066 1.89545 5.56189 0
M  V30 1172 H 111.59 1.07782 6.01012 0
M  V30 1173 H 113.004 3.03775 4.86203 0
M  V30 1174 H 111.401 3.79875 4.64559 0
M  V30 1175 H 112.471 3.6025 3.24573 0
M  V30 1176 N 113.814 -1.1601 1.06675 0
M  V30 1177 C 114.777 -2.18724 0.685001 0
M  V30 1178 C 115.777 -1.58496 -0.271246 0
M  V30 1179 O 116.967 -1.74119 -0.0531156 0
M  V30 1180 C 114.099 -3.40899 0.00853648 0
M  V30 1181 H 115.292 -2.54011 1.59431 0
M  V30 1182 H 112.845 -1.30352 0.862441 0
M  V30 1183 H 113.58 -3.11173 -0.913337 0
M  V30 1184 H 113.365 -3.8587 0.696204 0
M  V30 1185 H 114.855 -4.16886 -0.24414 0
M  V30 1186 N 115.292 -0.849877 -1.32721 0
M  V30 1187 C 116.222 -0.306308 -2.31482 0
M  V30 1188 C 117.203 0.591952 -1.59468 0
M  V30 1189 O 118.388 0.513199 -1.87296 0
M  V30 1190 C 115.518 0.510204 -3.43532 0
M  V30 1191 C 114.472 -0.293209 -4.26994 0
M  V30 1192 C 113.798 0.647743 -5.30762 0
M  V30 1193 C 115.098 -1.51634 -4.99804 0
M  V30 1194 H 116.792 -1.13153 -2.77195 0
M  V30 1195 H 114.338 -0.545553 -1.33266 0
M  V30 1196 H 116.291 0.900856 -4.11658 0
M  V30 1197 H 115.015 1.36874 -2.96535 0
M  V30 1198 H 113.674 -0.665555 -3.60508 0
M  V30 1199 H 113.322 1.50299 -4.8002 0
M  V30 1200 H 113.022 0.11422 -5.87489 0
M  V30 1201 H 114.546 1.03567 -6.01753 0
M  V30 1202 H 115.96 -1.19824 -5.60638 0
M  V30 1203 H 114.357 -1.98745 -5.66234 0
M  V30 1204 H 115.427 -2.28018 -4.27943 0
M  V30 1205 N 116.77 1.45427 -0.607355 0
M  V30 1206 C 117.72 2.27612 0.133038 0
M  V30 1207 C 118.704 1.37307 0.838785 0
M  V30 1208 O 119.896 1.61299 0.728813 0
M  V30 1209 C 117.025 3.24173 1.12991 0
M  V30 1210 C 116.111 4.21965 0.425011 0
M  V30 1211 N 116.502 5.02982 -0.533217 0
M  V30 1212 C 114.8 4.40899 0.672593 0
M  V30 1213 C 115.501 5.73931 -0.947518 0
M  V30 1214 N 114.477 5.42819 -0.291321 0
M  V30 1215 H 118.279 2.87649 -0.602935 0
M  V30 1216 H 115.793 1.56576 -0.431006 0
M  V30 1217 H 117.79 3.81783 1.67473 0
M  V30 1218 H 116.45 2.65696 1.86644 0
M  V30 1219 H 117.461 5.09843 -0.90995 0
M  V30 1220 H 114.138 3.93547 1.39382 0
M  V30 1221 H 115.528 6.49037 -1.73782 0
M  V30 1222 N 118.248 0.346503 1.53744 0
M  V30 1223 C 119.178 -0.501193 2.28058 0
M  V30 1224 C 120.159 -1.10014 1.29734 0
M  V30 1225 O 121.344 -1.12097 1.58581 0
M  V30 1226 C 118.474 -1.65078 3.05559 0
M  V30 1227 C 117.428 -1.18003 4.11411 0
M  V30 1228 C 116.754 -2.41837 4.76884 0
M  V30 1229 C 118.054 -0.278394 5.21558 0
M  V30 1230 H 119.748 0.11875 2.99164 0
M  V30 1231 H 117.294 0.0585531 1.43881 0
M  V30 1232 H 119.247 -2.25028 3.56287 0
M  V30 1233 H 117.971 -2.29767 2.32109 0
M  V30 1234 H 116.63 -0.603331 3.61601 0
M  V30 1235 H 116.278 -3.0494 4.00026 0
M  V30 1236 H 115.978 -2.1102 5.48402 0
M  V30 1237 H 117.502 -3.02508 5.30397 0
M  V30 1238 H 118.916 -0.784823 5.67903 0
M  V30 1239 H 117.313 -0.0619707 6.00068 0
M  V30 1240 H 118.383 0.684677 4.80042 0
M  V30 1241 N 119.726 -1.57421 0.075193 0
M  V30 1242 C 121.003 -1.85029 -0.634329 0
M  V30 1243 C 121.383 -0.968305 -1.87582 0
M  V30 1244 O 120.731 -0.0354749 -2.28472 0
M  V30 1245 C 120.941 -3.35286 -0.968742 0
M  V30 1246 C 122.289 -4.02875 -1.34077 0
M  V30 1247 O 123.313 -3.40051 -1.06037 0
M  V30 1248 O 122.172 -5.13691 -1.86506 0
M  V30 1249 H 119.266 -0.7645 -0.315387 0
M  V30 1250 H 121.812 -1.69366 0.106382 0
M  V30 1251 H 120.584 -3.91203 -0.0871376 0
M  V30 1252 H 120.207 -3.56223 -1.7661 0
M  V30 1253 N 121.204 0.198386 -1.56346 0
M  V30 1254 C 122.154 1.2499 -1.90687 0
M  V30 1255 C 123.138 1.41158 -0.772217 0
M  V30 1256 O 124.33 1.43584 -1.03502 0
M  V30 1257 C 121.459 2.59542 -2.24706 0
M  V30 1258 C 120.545 2.47181 -3.44619 0
M  V30 1259 N 120.936 2.04495 -4.62618 0
M  V30 1260 C 119.234 2.78082 -3.48692 0
M  V30 1261 C 119.935 2.03945 -5.44776 0
M  V30 1262 N 118.911 2.45323 -4.85095 0
M  V30 1263 H 122.713 0.911149 -2.7942 0
M  V30 1264 H 120.227 0.40684 -1.57221 0
M  V30 1265 H 122.224 3.3549 -2.47491 0
M  V30 1266 H 120.884 2.94244 -1.37298 0
M  V30 1267 H 121.895 1.75256 -4.87345 0
M  V30 1268 H 118.572 3.17002 -2.71691 0
M  V30 1269 H 119.962 1.72872 -6.4928 0
M  V30 1270 N 122.682 1.50554 0.465978 0
M  V30 1271 C 123.632 1.66177 1.56106 0
M  V30 1272 C 124.616 0.516265 1.52393 0
M  V30 1273 O 125.808 0.770906 1.5933 0
M  V30 1274 C 122.937 1.76396 2.94515 0
M  V30 1275 C 122.023 2.9664 3.03093 0
M  V30 1276 N 122.414 4.20245 2.81474 0
M  V30 1277 C 120.712 2.95304 3.34233 0
M  V30 1278 C 121.413 5.01259 2.95151 0
M  V30 1279 N 120.389 4.35318 3.25576 0
M  V30 1280 H 124.191 2.59434 1.38099 0
M  V30 1281 H 121.705 1.47808 0.6728 0
M  V30 1282 H 123.702 1.85694 3.73261 0
M  V30 1283 H 122.362 0.843017 3.13565 0
M  V30 1284 H 123.373 4.4966 2.56956 0
M  V30 1285 H 120.05 2.12729 3.59239 0
M  V30 1286 H 121.44 6.09564 2.82632 0
M  V30 1287 N 124.16 -0.719506 1.40217 0
M  V30 1288 C 125.07 -1.86378 1.42479 0
M  V30 1289 C 126.086 -1.71073 0.317834 0
M  V30 1290 O 127.262 -1.93406 0.561794 0
M  V30 1291 C 124.327 -3.22136 1.28178 0
M  V30 1292 C 123.388 -3.49723 2.48982 0
M  V30 1293 C 122.621 -4.79004 2.35353 0
M  V30 1294 O 122.844 -5.53821 1.36524 0
M  V30 1295 O 121.778 -5.06839 3.2465 0
M  V30 1296 H 125.604 -1.87425 2.38968 0
M  V30 1297 H 123.189 -0.869405 1.21498 0
M  V30 1298 H 125.071 -4.03234 1.22395 0
M  V30 1299 H 123.746 -3.21825 0.347934 0
M  V30 1300 H 122.653 -2.6865 2.60342 0
M  V30 1301 H 123.986 -3.54828 3.41113 0
M  V30 1302 N 125.638 -1.25649 -0.95132 0
M  V30 1303 C 126.863 -1.13443 -1.73624 0
M  V30 1304 C 127.288 0.307565 -1.85568 0
M  V30 1305 O 126.646 1.22282 -1.33854 0
M  V30 1306 C 126.694 -1.79723 -3.12621 0
M  V30 1307 O 125.798 -1.07912 -3.98031 0
M  V30 1308 H 125.139 -0.395872 -0.533086 0
M  V30 1309 H 127.669 -1.66276 -1.1922 0
M  V30 1310 H 127.679 -1.86141 -3.63064 0
M  V30 1311 H 126.354 -2.84633 -3.03244 0
M  V30 1312 H 124.931 -1.09398 -3.56492 0
M  V30 1313 N 127.117 1.15442 -1.07289 0
M  V30 1314 C 128.047 2.22312 -0.714107 0
M  V30 1315 C 129.028 1.67467 0.298155 0
M  V30 1316 O 130.213 1.93445 0.171048 0
M  V30 1317 C 127.343 3.47124 -0.110448 0
M  V30 1318 C 126.297 4.14926 -1.04979 0
M  V30 1319 C 125.623 5.33807 -0.308924 0
M  V30 1320 C 126.923 4.64762 -2.38314 0
M  V30 1321 H 128.617 2.5258 -1.6076 0
M  V30 1322 H 126.163 1.21404 -0.77441 0
M  V30 1323 H 128.116 4.21124 0.152482 0
M  V30 1324 H 126.84 3.16187 0.81812 0
M  V30 1325 H 125.499 3.42866 -1.29764 0
M  V30 1326 H 125.147 4.99126 0.623084 0
M  V30 1327 H 124.847 5.80113 -0.935036 0
M  V30 1328 H 126.371 6.10576 -0.0537771 0
M  V30 1329 H 127.785 5.30292 -2.1786 0
M  V30 1330 H 126.182 5.21728 -2.96514 0
M  V30 1331 H 127.252 3.80434 -3.00663 0
M  V30 1332 N 128.595 0.856903 1.32268 0
M  V30 1333 C 129.872 0.382583 1.91822 0
M  V30 1334 C 130.252 -1.13407 1.78051 0
M  V30 1335 O 129.6 -1.95673 1.18001 0
M  V30 1336 C 129.81 0.849446 3.38505 0
M  V30 1337 C 131.158 0.867936 4.15634 0
M  V30 1338 O 132.182 0.794232 3.47232 0
M  V30 1339 O 131.041 0.972286 5.37781 0
M  V30 1340 H 128.135 0.112014 0.819379 0
M  V30 1341 H 130.681 0.943952 1.41024 0
M  V30 1342 H 129.453 1.89267 3.42482 0
M  V30 1343 H 129.076 0.265652 3.96712 0
M  V30 1344 N 130.073 -1.45103 0.615059 0
M  V30 1345 C 131.35 -1.95549 0.0448276 0
M  V30 1346 C 131.73 -1.55737 -1.4251 0
M  V30 1347 O 131.078 -0.823556 -2.13143 0
M  V30 1348 C 131.288 -3.48098 0.250785 0
M  V30 1349 C 132.636 -4.24384 0.135509 0
M  V30 1350 O 133.66 -3.55738 0.181299 0
M  V30 1351 O 132.519 -5.46493 0.0268878 0
M  V30 1352 H 129.613 -0.8264 -0.0314845 0
M  V30 1353 H 132.159 -1.55232 0.685642 0
M  V30 1354 H 130.931 -3.7007 1.27139 0
M  V30 1355 H 130.554 -3.95323 -0.424937 0
M  V30 1356 N 131.551 -0.354651 -1.53558 0
M  V30 1357 C 132.8 0.239504 -2.00273 0
M  V30 1358 C 133.113 1.50759 -1.24623 0
M  V30 1359 O 134.319 2.17968 -1.61871 0
M  V30 1360 C 132.775 0.477341 -3.5672 0
M  V30 1361 C 132.383 -0.775488 -4.41237 0
M  V30 1362 C 134.127 1.02975 -4.11821 0
M  V30 1363 C 132.034 -0.507838 -5.89216 0
M  V30 1364 H 130.964 0.0932743 -0.748208 0
M  V30 1365 H 133.615 -0.471701 -1.77334 0
M  V30 1366 H 131.997 1.24953 -3.7577 0
M  V30 1367 H 133.171 -1.54963 -4.33962 0
M  V30 1368 H 131.486 -1.25033 -3.97185 0
M  V30 1369 H 134.083 1.24513 -5.2 0
M  V30 1370 H 134.426 1.98862 -3.65731 0
M  V30 1371 H 134.959 0.317994 -3.96527 0
M  V30 1372 H 131.698 -1.43674 -6.39561 0
M  V30 1373 H 131.218 0.228011 -5.99366 0
M  V30 1374 H 132.897 -0.129238 -6.46871 0
M  V30 1375 N 133.029 1.57378 -0.0835403 0
M  V30 1376 C 134.445 1.57246 0.273109 0
M  V30 1377 C 134.645 1.09385 1.69225 0
M  V30 1378 O 133.701 0.765051 2.40631 0
M  V30 1379 C 135.014 3.00614 0.0720628 0
M  V30 1380 C 136.562 3.12684 0.1407 0
M  V30 1381 C 137.037 4.57989 -0.0322094 0
M  V30 1382 N 138.528 4.63194 0.0230085 0
M  V30 1383 C 139.263 5.73335 -0.0861941 0
M  V30 1384 N 138.759 6.9235 -0.24958 0
M  V30 1385 N 140.552 5.62093 -0.0282886 0
M  V30 1386 H 132.703 1.86801 -1.0109 0
M  V30 1387 H 134.966 0.861687 -0.395222 0
M  V30 1388 H 134.672 3.39786 -0.907662 0
M  V30 1389 H 134.546 3.68193 0.81936 0
M  V30 1390 H 136.933 2.73391 1.11092 0
M  V30 1391 H 137.014 2.47719 -0.637896 0
M  V30 1392 H 136.658 4.97973 -0.999247 0
M  V30 1393 H 136.588 5.21 0.765937 0
M  V30 1394 H 139.079 3.77613 0.14722 0
M  V30 1395 H 139.392 7.72117 -0.324733 0
M  V30 1396 H 137.737 6.94415 -0.285097 0
M  V30 1397 H 140.928 4.67997 0.0981408 0
M  V30 1398 H 141.101 6.47895 -0.116845 0
M  V30 1399 N 134.507 -0.190092 1.56449 0
M  V30 1400 C 135.923 -0.54113 1.50146 0
M  V30 1401 C 136.123 -1.85603 0.784465 0
M  V30 1402 O 135.179 -2.5024 0.337051 0
M  V30 1403 C 136.492 -0.591241 2.9483 0
M  V30 1404 C 138.04 -0.679732 3.0553 0
M  V30 1405 C 138.515 -0.760908 4.51635 0
M  V30 1406 N 140.006 -0.824302 4.55806 0
M  V30 1407 C 140.741 -0.907365 5.66175 0
M  V30 1408 N 140.237 -0.952422 6.86222 0
M  V30 1409 N 142.03 -0.94494 5.541 0
M  V30 1410 H 134.181 0.67235 2.01478 0
M  V30 1411 H 136.444 0.240127 0.917084 0
M  V30 1412 H 136.15 0.305905 3.50367 0
M  V30 1413 H 136.024 -1.44422 3.48457 0
M  V30 1414 H 138.411 -1.56731 2.50039 0
M  V30 1415 H 138.492 0.199549 2.5502 0
M  V30 1416 H 138.136 0.122336 5.07753 0
M  V30 1417 H 138.066 -1.65606 4.99882 0
M  V30 1418 H 140.557 -0.798526 3.69367 0
M  V30 1419 H 140.87 -1.01645 7.66086 0
M  V30 1420 H 139.215 -0.921014 6.8887 0
M  V30 1421 H 142.406 -0.906612 4.59236 0
M  V30 1422 H 142.579 -1.00622 6.4014 0
M  V30 1423 N 135.985 -1.50799 -0.457987 0
M  V30 1424 C 136.932 -1.70617 -1.5543 0
M  V30 1425 C 137.902 -0.547562 -1.56815 0
M  V30 1426 O 139.087 -0.779647 -1.74144 0
M  V30 1427 C 136.227 -1.81831 -2.93311 0
M  V30 1428 C 135.34 -3.09278 -3.01615 0
M  V30 1429 C 134.475 -3.11209 -4.30491 0
M  V30 1430 C 133.514 -4.33055 -4.32585 0
M  V30 1431 N 132.651 -4.32652 -5.52952 0
M  V30 1432 H 137.491 -2.64207 -1.37836 0
M  V30 1433 H 135.028 -1.30959 -0.669937 0
M  V30 1434 H 136.986 -1.86314 -3.73287 0
M  V30 1435 H 135.616 -0.916685 -3.0951 0
M  V30 1436 H 134.668 -3.14203 -2.1443 0
M  V30 1437 H 135.98 -3.99233 -2.99022 0
M  V30 1438 H 135.134 -3.14494 -5.18824 0
M  V30 1439 H 133.873 -2.19106 -4.35711 0
M  V30 1440 H 132.878 -4.29969 -3.42647 0
M  V30 1441 H 134.103 -5.264 -4.29046 0
M  V30 1442 H 132.049 -3.43409 -5.58933 0
M  V30 1443 H 131.966 -5.16392 -5.52155 0
M  V30 1444 H 133.234 -4.40101 -6.43375 0
M  V30 1445 N 137.463 0.71206 -1.40597 0
M  V30 1446 C 138.709 1.47416 -1.39271 0
M  V30 1447 C 139.042 1.942 0.00388791 0
M  V30 1448 O 138.317 1.68403 0.973179 0
M  V30 1449 C 138.6 2.69774 -2.38525 0
M  V30 1450 C 138.453 2.28861 -3.87224 0
M  V30 1451 C 139.772 3.71939 -2.35264 0
M  V30 1452 H 136.891 0.534713 -0.5072 0
M  V30 1453 H 139.533 0.812375 -1.71757 0
M  V30 1454 H 137.683 3.26238 -2.10953 0
M  V30 1455 H 139.355 1.77852 -4.25636 0
M  V30 1456 H 137.598 1.60824 -4.02887 0
M  V30 1457 H 138.269 3.16584 -4.52193 0
M  V30 1458 H 140.745 3.25113 -2.59694 0
M  V30 1459 H 139.621 4.55186 -3.06753 0
M  V30 1460 H 139.882 4.20484 -1.36549 0
M  V30 1461 N 138.941 1.26152 0.944643 0
M  V30 1462 C 139.891 1.04081 2.02857 0
M  V30 1463 C 140.875 -0.0256555 1.6088 0
M  V30 1464 O 142.067 0.190884 1.75968 0
M  V30 1465 C 139.196 0.672118 3.36656 0
M  V30 1466 C 138.282 1.77586 3.85128 0
M  V30 1467 N 138.673 3.01272 4.06287 0
M  V30 1468 C 136.971 1.65867 4.1401 0
M  V30 1469 C 137.672 3.72983 4.46384 0
M  V30 1470 N 136.648 3.00653 4.52889 0
M  V30 1471 H 140.45 1.97968 2.17223 0
M  V30 1472 H 137.964 1.16618 1.13022 0
M  V30 1473 H 139.961 0.495166 4.13949 0
M  V30 1474 H 138.621 -0.259307 3.23663 0
M  V30 1475 H 139.632 3.37213 3.93075 0
M  V30 1476 H 136.309 0.796907 4.09824 0
M  V30 1477 H 137.699 4.792 4.70975 0
M  V30 1478 N 140.419 -1.14872 1.07899 0
M  V30 1479 C 141.382 -2.17986 0.708161 0
M  V30 1480 C 142.382 -1.58775 -0.25442 0
M  V30 1481 O 143.572 -1.74166 -0.034645 0
M  V30 1482 C 140.704 -3.40871 0.0446929 0
M  V30 1483 H 141.897 -2.52306 1.62116 0
M  V30 1484 H 139.45 -1.2943 0.876218 0
M  V30 1485 H 140.185 -3.12124 -0.880281 0
M  V30 1486 H 139.97 -3.8511 0.737091 0
M  V30 1487 H 141.46 -4.17121 -0.19991 0
M  V30 1488 N 141.898 -0.863906 -1.31812 0
M  V30 1489 C 143.146 -0.470904 -1.96537 0
M  V30 1490 C 143.467 0.978771 -1.68657 0
M  V30 1491 O 142.737 1.6853 -0.998717 0
M  V30 1492 H 141.317 -0.171148 -0.72713 0
M  V30 1493 H 143.979 -1.10236 -1.60729 0
M  V30 1494 H 143.075 -0.623616 -3.05806 0
M  V30 1495 N 143.376 1.44774 -0.622745 0
M  V30 1496 C 144.622 2.0242 -0.124083 0
M  V30 1497 C 144.955 1.4881 1.24777 0
M  V30 1498 O 144.23 0.668799 1.8264 0
M  V30 1499 C 144.513 3.59957 -0.101619 0
M  V30 1500 C 144.366 4.23867 -1.50521 0
M  V30 1501 C 145.685 4.36284 0.578272 0
M  V30 1502 H 142.804 0.735528 -0.0465645 0
M  V30 1503 H 145.446 1.72447 -0.797617 0
M  V30 1504 H 143.596 3.85623 0.471934 0
M  V30 1505 H 145.268 4.09336 -2.12701 0
M  V30 1506 H 143.511 3.81684 -2.06154 0
M  V30 1507 H 144.182 5.32843 -1.4416 0
M  V30 1508 H 146.658 4.16001 0.0906057 0
M  V30 1509 H 145.534 5.46004 0.563149 0
M  V30 1510 H 145.795 4.10271 1.64713 0
M  V30 1511 N 144.854 0.36279 1.53368 0
M  V30 1512 C 146.27 0.0116182 1.59596 0
M  V30 1513 C 146.47 -1.47012 1.37803 0
M  V30 1514 O 145.526 -2.23136 1.18181 0
M  V30 1515 C 146.839 0.465052 2.97082 0
M  V30 1516 C 148.387 0.419033 3.10182 0
M  V30 1517 C 148.862 0.848235 4.50077 0
M  V30 1518 N 150.353 0.803183 4.56183 0
M  V30 1519 C 151.088 1.107 5.62613 0
M  V30 1520 N 150.584 1.47996 6.76808 0
M  V30 1521 N 152.377 1.02998 5.52583 0
M  V30 1522 H 144.528 1.32775 1.65785 0
M  V30 1523 H 146.791 0.542518 0.777417 0
M  V30 1524 H 146.497 1.49892 3.18159 0
M  V30 1525 H 146.371 -0.149786 3.76902 0
M  V30 1526 H 148.758 -0.605696 2.88817 0
M  V30 1527 H 148.839 1.06933 2.32377 0
M  V30 1528 H 148.483 1.87107 4.7218 0
M  V30 1529 H 148.413 0.175218 5.26308 0
M  V30 1530 H 150.904 0.52838 3.74188 0
M  V30 1531 H 151.217 1.69613 7.53957 0
M  V30 1532 H 149.562 1.51859 6.78206 0
M  V30 1533 H 152.753 0.737817 4.62249 0
M  V30 1534 H 152.926 1.2701 6.35431 0
M  V30 1535 N 146.332 -1.57332 0.0918853 0
M  V30 1536 C 147.557 -1.98995 -0.584442 0
M  V30 1537 C 147.982 -0.970528 -1.61128 0
M  V30 1538 O 147.34 0.0613904 -1.81196 0
M  V30 1539 C 147.388 -3.39636 -1.21161 0
M  V30 1540 O 146.492 -3.40447 -2.32744 0
M  V30 1541 H 145.833 -0.647165 -0.148572 0
M  V30 1542 H 148.363 -2.03873 0.172347 0
M  V30 1543 H 148.373 -3.7726 -1.55367 0
M  V30 1544 H 147.048 -4.13356 -0.459313 0
M  V30 1545 H 145.625 -3.14614 -2.0018 0
M  V30 1546 N 147.81 0.181792 -1.56548 0
M  V30 1547 C 148.773 1.20894 -1.94724 0
M  V30 1548 C 149.773 1.37738 -0.829747 0
M  V30 1549 O 150.963 1.35323 -1.09697 0
M  V30 1550 C 148.095 2.57593 -2.23291 0
M  V30 1551 H 149.288 0.882275 -2.86629 0
M  V30 1552 H 146.841 0.423838 -1.50444 0
M  V30 1553 H 147.576 2.95291 -1.34067 0
M  V30 1554 H 147.361 2.46735 -3.04736 0
M  V30 1555 H 148.851 3.31637 -2.53785 0
M  V30 1556 N 149.288 1.51039 0.449983 0
M  V30 1557 C 150.221 1.66105 1.56474 0
M  V30 1558 C 151.199 0.508776 1.54435 0
M  V30 1559 O 152.383 0.731005 1.73749 0
M  V30 1560 C 149.51 1.66304 2.9506 0
M  V30 1561 C 148.556 2.87346 3.15174 0
M  V30 1562 S 149.389 4.4835 2.92818 0
M  V30 1563 C 150.545 4.51274 4.33708 0
M  V30 1564 H 150.778 2.60397 1.43459 0
M  V30 1565 H 148.311 1.40565 0.638805 0
M  V30 1566 H 150.269 1.67103 3.74949 0
M  V30 1567 H 148.93 0.732108 3.05449 0
M  V30 1568 H 148.123 2.83849 4.16468 0
M  V30 1569 H 147.725 2.84223 2.43091 0
M  V30 1570 H 150.017 4.26136 5.26701 0
M  V30 1571 H 150.96 5.53017 4.42242 0
M  V30 1572 H 151.368 3.80738 4.16772 0
M  V30 1573 N 150.766 -0.704594 1.40972 0
M  V30 1574 C 152.015 -1.46018 1.39146 0
M  V30 1575 C 152.328 -1.956 0.000589254 0
M  V30 1576 O 153.534 -2.71137 -0.1403 0
M  V30 1577 C 151.99 -2.63996 2.4461 0
M  V30 1578 C 151.598 -2.21238 3.89561 0
M  V30 1579 C 153.342 -3.41677 2.51907 0
M  V30 1580 C 151.249 -3.3612 4.86598 0
M  V30 1581 H 150.179 -0.548444 0.517422 0
M  V30 1582 H 152.83 -0.765784 1.66757 0
M  V30 1583 H 151.212 -3.3566 2.10115 0
M  V30 1584 H 152.386 -1.56923 4.33257 0
M  V30 1585 H 150.701 -1.56574 3.85841 0
M  V30 1586 H 153.298 -4.27182 3.2159 0
M  V30 1587 H 153.641 -3.86247 1.55303 0
M  V30 1588 H 154.174 -2.77064 2.85448 0
M  V30 1589 H 150.913 -2.96572 5.84573 0
M  V30 1590 H 150.433 -3.99315 4.47557 0
M  V30 1591 H 152.112 -4.02029 5.06934 0
M  V30 1592 N 152.244 -1.26651 -0.937939 0
M  V30 1593 C 153.521 -1.0313 -1.66204 0
M  V30 1594 C 153.901 0.437256 -2.06522 0
M  V30 1595 O 153.249 1.41831 -1.79154 0
M  V30 1596 C 153.459 -1.98314 -2.87181 0
M  V30 1597 C 154.807 -2.27107 -3.58758 0
M  V30 1598 O 155.831 -1.96205 -2.97291 0
M  V30 1599 O 154.69 -2.79736 -4.69479 0
M  V30 1600 H 151.784 -0.392384 -0.727986 0
M  V30 1601 H 154.33 -1.37874 -0.989382 0
M  V30 1602 H 153.102 -2.97399 -2.54302 0
M  V30 1603 H 152.725 -1.64068 -3.6217 0
M  V30 1604 N 153.722 1.14298 -1.08507 0
M  V30 1605 C 154.97 1.84993 -0.813763 0
M  V30 1606 C 155.291 1.83405 0.662393 0
M  V30 1607 O 154.561 1.28319 1.48024 0
M  V30 1608 H 153.141 0.684966 -0.298045 0
M  V30 1609 H 155.803 1.385 -1.37126 0
M  V30 1610 H 154.899 2.89788 -1.15884 0
M  V30 1611 N 155.201 0.870884 1.31352 0
M  V30 1612 C 156.426 0.495957 2.01383 0
M  V30 1613 C 156.851 -0.904324 1.64935 0
M  V30 1614 O 156.209 -1.59687 0.858466 0
M  V30 1615 C 156.257 0.661433 3.54482 0
M  V30 1616 O 155.361 -0.298851 4.11316 0
M  V30 1617 H 154.702 0.197158 0.634054 0
M  V30 1618 H 157.232 1.17455 1.67527 0
M  V30 1619 H 157.242 0.555072 4.04207 0
M  V30 1620 H 155.917 1.68246 3.8035 0
M  V30 1621 H 154.494 -0.147368 3.72609 0
M  V30 1622 N 156.679 -1.44442 0.630414 0
M  V30 1623 C 157.629 -2.27794 -0.0968103 0
M  V30 1624 C 158.613 -1.38624 -0.816834 0
M  V30 1625 O 159.805 -1.62438 -0.70306 0
M  V30 1626 C 156.934 -3.25929 -1.07819 0
M  V30 1627 C 156.02 -4.22588 -0.357826 0
M  V30 1628 N 156.411 -5.0207 0.613169 0
M  V30 1629 C 154.709 -4.41914 -0.602365 0
M  V30 1630 C 155.41 -5.72351 1.03871 0
M  V30 1631 N 154.386 -5.42287 0.377642 0
M  V30 1632 H 158.188 -2.86653 0.648621 0
M  V30 1633 H 155.702 -1.55871 0.455862 0
M  V30 1634 H 157.699 -3.84399 -1.61378 0
M  V30 1635 H 156.359 -2.68631 -1.82393 0
M  V30 1636 H 157.37 -5.08331 0.990947 0
M  V30 1637 H 154.047 -3.95714 -1.33103 0
M  V30 1638 H 155.437 -6.4619 1.84086 0
M  V30 1639 N 158.157 -0.370918 -1.53173 0
M  V30 1640 C 159.404 0.217102 -2.01333 0
M  V30 1641 C 159.732 1.48338 -1.25802 0
M  V30 1642 O 158.987 1.92698 -0.34146 0
M  V30 1643 C 159.286 0.549696 -3.53147 0
M  V30 1644 C 158.952 -0.622872 -4.46577 0
M  V30 1645 C 157.614 -0.944595 -4.71838 0
M  V30 1646 C 159.966 -1.40819 -5.01816 0
M  V30 1647 C 157.294 -2.05351 -5.49589 0
M  V30 1648 C 159.646 -2.50757 -5.80778 0
M  V30 1649 C 158.31 -2.83458 -6.04324 0
M  V30 1650 H 157.58 0.0794431 -0.736729 0
M  V30 1651 H 160.227 -0.504481 -1.84736 0
M  V30 1652 H 158.532 1.35237 -3.6772 0
M  V30 1653 H 160.229 1.017 -3.87889 0
M  V30 1654 H 156.819 -0.36209 -4.27068 0
M  V30 1655 H 161.003 -1.17289 -4.82242 0
M  V30 1656 H 156.259 -2.3108 -5.6605 0
M  V30 1657 H 160.433 -3.12022 -6.22588 0
M  V30 1658 H 158.06 -3.69508 -6.64355 0
M  V30 1659 N 159.635 1.57281 -0.100228 0
M  V30 1660 C 161.046 1.81725 0.428107 0
M  V30 1661 C 161.397 1.01619 1.67833 0
M  V30 1662 O 160.522 0.247098 2.14985 0
M  V30 1663 C 161.117 3.29617 0.78347 0
M  V30 1664 C 159.676 3.54808 1.25653 0
M  V30 1665 C 158.823 2.76118 0.255752 0
M  V30 1666 H 161.774 1.55324 -0.325608 0
M  V30 1667 H 161.795 3.4322 1.64256 0
M  V30 1668 H 161.307 3.87893 -0.12665 0
M  V30 1669 H 159.408 3.01868 2.18418 0
M  V30 1670 H 159.521 4.63443 1.21482 0
M  V30 1671 H 157.885 2.43745 0.738956 0
M  V30 1672 H 158.668 3.37145 -0.647136 0
M  V30 1673 N 161.113 -0.173488 1.56642 0
M  V30 1674 C 162.36 -0.890465 1.81871 0
M  V30 1675 C 162.688 -1.82339 0.67696 0
M  V30 1676 O 161.943 -1.92795 -0.335926 0
M  V30 1677 C 162.242 -1.72069 3.13252 0
M  V30 1678 C 161.908 -0.936878 4.41059 0
M  V30 1679 C 160.57 -0.720545 4.75775 0
M  V30 1680 C 162.922 -0.386919 5.19762 0
M  V30 1681 C 160.25 0.0568829 5.86672 0
M  V30 1682 C 162.602 0.37741 6.31473 0
M  V30 1683 C 161.266 0.604563 6.64757 0
M  V30 1684 H 160.536 -0.325844 0.665512 0
M  V30 1685 H 163.183 -0.155527 1.90867 0
M  V30 1686 H 161.488 -2.52496 2.99588 0
M  V30 1687 H 163.185 -2.27844 3.29982 0
M  V30 1688 H 159.775 -1.11553 4.13828 0
M  V30 1689 H 163.959 -0.541398 4.93338 0
M  V30 1690 H 159.215 0.242635 6.10918 0
M  V30 1691 H 163.389 0.810825 6.91664 0
M  V30 1692 H 161.016 1.20885 7.50527 0
M  V30 1693 N 162.591 -1.51276 -0.441967 0
M  V30 1694 C 163.554 -1.7167 -1.51862 0
M  V30 1695 C 164.554 -0.586793 -1.49711 0
M  V30 1696 O 165.744 -0.854276 -1.51815 0
M  V30 1697 C 162.876 -1.76889 -2.91416 0
M  V30 1698 H 164.069 -2.67754 -1.35084 0
M  V30 1699 H 161.622 -1.41196 -0.670333 0
M  V30 1700 H 162.357 -0.826026 -3.13604 0
M  V30 1701 H 162.142 -2.59001 -2.94382 0
M  V30 1702 H 163.632 -1.94522 -3.69528 0
M  V30 1703 N 164.069 0.697108 -1.41344 0
M  V30 1704 C 164.979 1.84088 -1.45427 0
M  V30 1705 C 165.995 1.70545 -0.34501 0
M  V30 1706 O 167.171 1.92488 -0.592492 0
M  V30 1707 C 164.236 3.20056 -1.33286 0
M  V30 1708 C 163.297 3.45718 -2.54514 0
M  V30 1709 C 162.53 4.75199 -2.42944 0
M  V30 1710 O 162.753 5.51579 -1.45318 0
M  V30 1711 O 161.687 5.0161 -3.32672 0
M  V30 1712 H 165.513 1.836 -2.41919 0
M  V30 1713 H 163.098 0.849966 -1.22866 0
M  V30 1714 H 164.98 4.01236 -1.28794 0
M  V30 1715 H 163.655 3.2123 -0.39909 0
M  V30 1716 H 162.562 2.64474 -2.64583 0
M  V30 1717 H 163.895 3.49356 -3.46715 0
M  V30 1718 N 165.547 1.27147 0.931209 0
M  V30 1719 C 166.495 1.09398 2.05268 0
M  V30 1720 C 167.489 0.0180591 1.6939 0
M  V30 1721 O 168.695 0.17551 1.79142 0
M  V30 1722 H 165.07 0.336986 0.672268 0
M  V30 1723 H 167.041 2.04416 2.17386 0
M  V30 1724 C 165.79 0.75424 3.39421 0
M  V30 1725 H 165.113 1.57404 3.67511 0
M  V30 1726 H 166.553 0.669903 4.18674 0
M  V30 1727 C 165.012 -0.541197 3.32525 0
M  V30 1728 O 165.542 -1.57664 3.69466 0
M  V30 1729 N 163.748 -0.535517 2.85623 0
M  V30 1730 H 163.295 0.307511 2.55758 0
M  V30 1731 H 163.253 -1.40236 2.81392 0
M  V30 1732 N 167.025 -1.13721 1.09112 0
M  V30 1733 C 168.271 -1.85198 0.826414 0
M  V30 1734 C 168.604 -1.83129 -0.646319 0
M  V30 1735 O 167.879 -1.2671 -1.47563 0
M  V30 1736 C 168.162 -3.33507 1.35812 0
M  V30 1737 C 168.015 -3.44108 2.89672 0
M  V30 1738 C 169.334 -4.28838 0.989256 0
M  V30 1739 H 166.453 -0.67243 0.301675 0
M  V30 1740 H 169.095 -1.33499 1.35197 0
M  V30 1741 H 167.245 -3.77666 0.911082 0
M  V30 1742 H 168.917 -3.08684 3.428 0
M  V30 1743 H 167.16 -2.85087 3.26967 0
M  V30 1744 H 167.831 -4.48388 3.21951 0
M  V30 1745 H 170.307 -3.92734 1.37475 0
M  V30 1746 H 169.183 -5.31051 1.38838 0
M  V30 1747 H 169.444 -4.4198 -0.102924 0
M  V30 1748 N 168.503 -0.877838 -1.30888 0
M  V30 1749 C 169.45 -0.337538 -2.28318 0
M  V30 1750 C 170.42 0.568346 -1.56074 0
M  V30 1751 O 171.605 0.498298 -1.84178 0
M  V30 1752 C 168.745 0.448142 -3.42178 0
M  V30 1753 C 167.858 -0.48615 -4.29256 0
M  V30 1754 C 166.993 0.314427 -5.30269 0
M  V30 1755 C 166.032 -0.615791 -6.08995 0
M  V30 1756 N 165.169 0.14902 -7.01942 0
M  V30 1757 H 170.009 -1.17356 -2.73919 0
M  V30 1758 H 167.546 -0.590094 -1.34745 0
M  V30 1759 H 169.504 0.919517 -4.06941 0
M  V30 1760 H 168.134 1.24879 -2.97666 0
M  V30 1761 H 167.186 -1.076 -3.64865 0
M  V30 1762 H 168.498 -1.19909 -4.84173 0
M  V30 1763 H 167.652 0.847969 -6.00745 0
M  V30 1764 H 166.391 1.06062 -4.76027 0
M  V30 1765 H 165.396 -1.16102 -5.37401 0
M  V30 1766 H 166.621 -1.36097 -6.65323 0
M  V30 1767 H 164.567 0.877884 -6.50099 0
M  V30 1768 H 164.484 -0.504433 -7.54315 0
M  V30 1769 H 165.752 0.663537 -7.76671 0
M  V30 1770 N 169.982 1.44106 -0.638065 0
M  V30 1771 C 170.912 2.33448 0.0494287 0
M  V30 1772 C 171.893 1.48606 0.827672 0
M  V30 1773 O 173.078 1.77308 0.792173 0
M  V30 1774 C 170.208 3.31771 1.02691 0
M  V30 1775 C 169.162 4.26485 0.359823 0
M  V30 1776 C 168.488 5.14729 1.44769 0
M  V30 1777 C 169.788 5.17056 -0.738296 0
M  V30 1778 H 171.482 2.91183 -0.696636 0
M  V30 1779 H 169.028 1.40014 -0.336456 0
M  V30 1780 H 170.981 3.93161 1.51666 0
M  V30 1781 H 169.705 2.7226 1.80395 0
M  V30 1782 H 168.364 3.66437 -0.10934 0
M  V30 1783 H 168.012 4.51566 2.21578 0
M  V30 1784 H 167.712 5.78913 1.00668 0
M  V30 1785 H 169.236 5.78991 1.93911 0
M  V30 1786 H 170.65 5.72342 -0.331354 0
M  V30 1787 H 169.047 5.89879 -1.10286 0
M  V30 1788 H 170.117 4.57652 -1.60258 0
M  V30 1789 N 171.46 0.379036 1.52974 0
M  V30 1790 C 172.706 -0.206727 2.01744 0
M  V30 1791 C 173.039 -1.47314 1.26539 0
M  V30 1792 O 172.314 -1.91084 0.362903 0
M  V30 1793 C 172.597 -0.485066 3.56818 0
M  V30 1794 C 172.45 0.795919 4.42702 0
M  V30 1795 C 173.769 -1.28003 4.21074 0
M  V30 1796 H 170.888 -0.0736607 0.73331 0
M  V30 1797 H 173.53 0.506581 1.83122 0
M  V30 1798 H 171.68 -1.09272 3.72816 0
M  V30 1799 H 173.352 1.43307 4.38476 0
M  V30 1800 H 171.595 1.41344 4.10127 0
M  V30 1801 H 172.266 0.555947 5.49193 0
M  V30 1802 H 174.742 -0.765867 4.08991 0
M  V30 1803 H 173.618 -1.44352 5.29579 0
M  V30 1804 H 173.879 -2.29236 3.78026 0
M  V30 1805 N 172.938 -1.57226 0.108567 0
M  V30 1806 C 173.885 -2.14756 -0.845481 0
M  V30 1807 C 174.855 -1.06971 -1.27068 0
M  V30 1808 O 176.04 -1.34827 -1.35005 0
M  V30 1809 C 173.18 -2.74298 -2.09415 0
M  V30 1810 C 172.293 -3.96358 -1.71826 0
M  V30 1811 C 171.428 -4.44021 -2.9158 0
M  V30 1812 C 170.467 -5.58637 -2.50181 0
M  V30 1813 N 169.604 -6.01091 -3.62814 0
M  V30 1814 H 174.444 -2.95961 -0.348035 0
M  V30 1815 H 171.981 -1.46226 -0.160106 0
M  V30 1816 H 173.939 -3.06945 -2.82561 0
M  V30 1817 H 172.569 -1.95801 -2.56636 0
M  V30 1818 H 171.621 -3.69939 -0.885947 0
M  V30 1819 H 172.933 -4.79504 -1.37394 0
M  V30 1820 H 172.087 -4.78522 -3.72963 0
M  V30 1821 H 170.826 -3.59803 -3.29231 0
M  V30 1822 H 169.831 -5.23751 -1.67228 0
M  V30 1823 H 171.056 -6.44613 -2.13659 0
M  V30 1824 H 169.002 -5.19817 -4.00158 0
M  V30 1825 H 168.919 -6.79066 -3.32273 0
M  V30 1826 H 170.187 -6.40227 -4.44668 0
M  V30 1827 N 174.416 0.165178 -1.56732 0
M  V30 1828 C 175.641 0.900253 -1.86843 0
M  V30 1829 C 176.066 1.74766 -0.695596 0
M  V30 1830 O 175.424 1.77786 0.35522 0
M  V30 1831 C 175.472 1.74777 -3.15413 0
M  V30 1832 O 174.576 2.85007 -2.98068 0
M  V30 1833 H 173.917 0.251832 -0.614391 0
M  V30 1834 H 176.447 0.161468 -2.03962 0
M  V30 1835 H 176.457 2.14646 -3.46974 0
M  V30 1836 H 175.132 1.12537 -4.00385 0
M  V30 1837 H 173.709 2.48676 -2.77875 0
M  V30 1838 N 175.894 1.51508 0.433938 0
M  V30 1839 C 177.14 1.64588 1.18484 0
M  V30 1840 C 177.473 0.362666 1.90784 0
M  V30 1841 O 176.748 -0.637892 1.83742 0
M  V30 1842 C 177.031 2.85149 2.19913 0
M  V30 1843 C 176.884 4.23456 1.51674 0
M  V30 1844 C 178.203 3.01227 3.20858 0
M  V30 1845 H 175.322 0.598994 0.429389 0
M  V30 1846 H 177.964 1.84002 0.473647 0
M  V30 1847 H 176.114 2.68729 2.80566 0
M  V30 1848 H 177.786 4.51552 0.943322 0
M  V30 1849 H 176.029 4.25998 0.819035 0
M  V30 1850 H 176.7 5.03812 2.2556 0
M  V30 1851 H 179.176 3.16382 2.70263 0
M  V30 1852 H 178.052 3.87141 3.89118 0
M  V30 1853 H 178.313 2.13447 3.8716 0
M  V30 1854 N 177.372 -0.689602 1.41712 0
M  V30 1855 C 178.618 -1.45181 1.41599 0
M  V30 1856 C 178.951 -1.94181 0.0270081 0
M  V30 1857 O 178.226 -1.6993 -0.946265 0
M  V30 1858 C 178.509 -2.65945 2.42787 0
M  V30 1859 C 178.362 -2.22672 3.90816 0
M  V30 1860 C 179.681 -3.68149 2.41151 0
M  V30 1861 H 176.8 -0.526576 0.515642 0
M  V30 1862 H 179.442 -0.784947 1.73028 0
M  V30 1863 H 177.592 -3.2284 2.16116 0
M  V30 1864 H 179.264 -1.71058 4.28412 0
M  V30 1865 H 177.507 -1.54394 4.05395 0
M  V30 1866 H 178.178 -3.0935 4.57172 0
M  V30 1867 H 180.654 -3.2094 2.64834 0
M  V30 1868 H 179.53 -4.50248 3.13955 0
M  V30 1869 H 179.791 -4.18259 1.43221 0
M  V30 1870 N 178.85 -1.27639 -0.924453 0
M  V30 1871 C 180.127 -1.04887 -1.651 0
M  V30 1872 C 180.507 0.415327 -2.06974 0
M  V30 1873 O 179.855 1.39923 -1.80648 0
M  V30 1874 C 180.065 -2.01348 -2.85061 0
M  V30 1875 C 181.413 -2.30899 -3.56329 0
M  V30 1876 O 182.437 -1.99348 -2.95193 0
M  V30 1877 O 181.296 -2.84699 -4.66485 0
M  V30 1878 H 178.39 -0.400083 -0.723784 0
M  V30 1879 H 180.936 -1.38916 -0.974703 0
M  V30 1880 H 179.708 -3.0008 -2.51133 0
M  V30 1881 H 179.331 -1.679 -3.6041 0
M  V30 1882 N 180.328 1.1314 -1.09713 0
M  V30 1883 C 181.575 1.84484 -0.834987 0
M  V30 1884 C 181.903 1.83689 0.639418 0
M  V30 1885 O 181.158 1.2724 1.4869 0
M  V30 1886 C 181.457 3.32167 -1.3191 0
M  V30 1887 C 181.123 3.53139 -2.80363 0
M  V30 1888 C 179.785 3.58571 -3.20905 0
M  V30 1889 C 182.137 3.60866 -3.76065 0
M  V30 1890 C 179.465 3.69267 -4.55916 0
M  V30 1891 C 181.817 3.73089 -5.10869 0
M  V30 1892 C 180.481 3.76775 -5.50996 0
M  V30 1893 H 179.751 0.675073 -0.305544 0
M  V30 1894 H 182.398 1.33554 -1.37243 0
M  V30 1895 H 180.703 3.85469 -0.701517 0
M  V30 1896 H 182.4 3.85821 -1.09284 0
M  V30 1897 H 178.99 3.49569 -2.47991 0
M  V30 1898 H 183.174 3.55946 -3.45855 0
M  V30 1899 H 178.43 3.70388 -4.86438 0
M  V30 1900 H 182.604 3.78011 -5.84877 0
M  V30 1901 H 180.231 3.84815 -6.55608 0
M  V30 1902 N 181.806 0.884767 1.30421 0
M  V30 1903 C 183.046 0.509806 1.9794 0
M  V30 1904 C 183.41 -0.923736 1.68319 0
M  V30 1905 O 184.611 -1.40481 2.29169 0
M  V30 1906 C 182.882 0.776732 3.48858 0
M  V30 1907 S 184.441 0.503843 4.35898 0
M  V30 1908 H 181.259 0.189699 0.685227 0
M  V30 1909 H 183.861 1.14399 1.58535 0
M  V30 1910 H 182.565 1.81857 3.67908 0
M  V30 1911 H 182.096 0.1301 3.93185 0
M  V30 1912 H 184.111 -0.657625 4.91823 0
M  V30 1913 N 183.284 -1.43765 0.645699 0
M  V30 1914 C 184.234 -2.27884 -0.0726442 0
M  V30 1915 C 185.218 -1.39483 -0.802086 0
M  V30 1916 O 186.41 -1.63174 -0.685791 0
M  V30 1917 C 183.539 -3.27055 -1.04356 0
M  V30 1918 C 182.625 -4.22944 -0.312985 0
M  V30 1919 N 183.016 -5.01391 0.666386 0
M  V30 1920 C 181.314 -4.42528 -0.55546 0
M  V30 1921 C 182.015 -5.71217 1.09935 0
M  V30 1922 N 180.991 -5.41856 0.435137 0
M  V30 1923 H 184.793 -2.85949 0.678988 0
M  V30 1924 H 182.307 -1.55378 0.472368 0
M  V30 1925 H 184.304 -3.86089 -1.57292 0
M  V30 1926 H 182.964 -2.70551 -1.79534 0
M  V30 1927 H 183.975 -5.07252 1.04481 0
M  V30 1928 H 180.652 -3.97104 -1.28899 0
M  V30 1929 H 182.042 -6.44202 1.90929 0
M  V30 1930 N 184.763 -0.387143 -1.52771 0
M  V30 1931 C 185.988 0.198407 -2.06449 0
M  V30 1932 C 186.413 1.39918 -1.25716 0
M  V30 1933 O 185.771 1.79099 -0.281657 0
M  V30 1934 C 185.819 0.548893 -3.56398 0
M  V30 1935 O 184.923 1.64315 -3.78252 0
M  V30 1936 H 184.264 0.0237731 -0.663574 0
M  V30 1937 H 186.794 -0.553989 -1.96957 0
M  V30 1938 H 186.804 0.813812 -3.99801 0
M  V30 1939 H 185.479 -0.329005 -4.14597 0
M  V30 1940 H 184.056 1.37211 -3.46738 0
M  V30 1941 N 186.241 1.57166 -0.116904 0
M  V30 1942 C 187.173 2.12271 0.864507 0
M  V30 1943 C 188.186 1.06494 1.23138 0
M  V30 1944 O 189.375 1.33873 1.18069 0
M  V30 1945 C 186.475 2.60564 2.16702 0
M  V30 1946 C 185.648 3.90416 1.97216 0
M  V30 1947 C 184.707 4.24329 3.11178 0
M  V30 1948 O 183.733 4.93182 2.84184 0
M  V30 1949 N 184.935 3.8148 4.37554 0
M  V30 1950 H 187.7 2.97102 0.393726 0
M  V30 1951 H 185.261 1.61759 0.0675805 0
M  V30 1952 H 187.253 2.80282 2.91932 0
M  V30 1953 H 185.823 1.80623 2.55135 0
M  V30 1954 H 185.043 3.79627 1.06192 0
M  V30 1955 H 186.331 4.75327 1.81499 0
M  V30 1956 H 185.729 3.25943 4.62361 0
M  V30 1957 H 184.286 4.06311 5.09661 0
M  V30 1958 N 187.719 -0.156864 1.56817 0
M  V30 1959 C 188.996 -0.899244 1.73704 0
M  V30 1960 C 189.376 -1.99771 0.682254 0
M  V30 1961 O 188.724 -2.26515 -0.300522 0
M  V30 1962 C 188.934 -1.45075 3.17418 0
M  V30 1963 C 190.282 -1.91802 3.7881 0
M  V30 1964 O 191.306 -1.54838 3.20786 0
M  V30 1965 O 190.165 -2.5994 4.80722 0
M  V30 1966 H 187.259 -0.424267 0.709878 0
M  V30 1967 H 189.805 -0.143561 1.69092 0
M  V30 1968 H 188.577 -0.660846 3.85679 0
M  V30 1969 H 188.2 -2.27021 3.26416 0
M  V30 1970 N 189.197 -1.51736 -0.425897 0
M  V30 1971 C 190.437 -1.66636 -1.18371 0
M  V30 1972 C 190.801 -0.379854 -1.88205 0
M  V30 1973 O 192.002 -0.404758 -2.65735 0
M  V30 1974 C 190.273 -2.84382 -2.16476 0
M  V30 1975 S 191.832 -3.19673 -3.0059 0
M  V30 1976 H 188.65 -0.586957 -0.40125 0
M  V30 1977 H 191.252 -1.89679 -0.473518 0
M  V30 1978 H 189.956 -3.76281 -1.63831 0
M  V30 1979 H 189.487 -2.63562 -2.92059 0
M  V30 1980 H 191.502 -2.66994 -4.18245 0
M  V30 1981 N 190.675 0.682077 -1.42076 0
M  V30 1982 C 191.9 1.47558 -1.45744 0
M  V30 1983 C 192.325 1.87977 -0.0680981 0
M  V30 1984 O 191.683 1.55522 0.9318 0
M  V30 1985 C 191.731 2.70575 -2.38373 0
M  V30 1986 O 190.835 3.68573 -1.85007 0
M  V30 1987 H 190.176 0.443585 -0.494093 0
M  V30 1988 H 192.706 0.837238 -1.86686 0
M  V30 1989 H 192.716 3.18729 -2.54707 0
M  V30 1990 H 191.391 2.40495 -3.39315 0
M  V30 1991 H 189.968 3.2757 -1.78192 0
M  V30 1992 N 192.153 1.28127 0.917671 0
M  V30 1993 C 193.399 1.15223 1.66888 0
M  V30 1994 C 193.732 -0.299293 1.9188 0
M  V30 1995 O 193.007 -1.21805 1.51637 0
M  V30 1996 C 193.29 1.94706 3.02922 0
M  V30 1997 C 193.143 3.47898 2.85109 0
M  V30 1998 C 194.462 1.75939 4.03402 0
M  V30 1999 H 191.581 0.419946 0.605652 0
M  V30 2000 H 194.223 1.57398 1.06423 0
M  V30 2001 H 192.373 1.58864 3.54534 0
M  V30 2002 H 194.045 3.93624 2.40537 0
M  V30 2003 H 192.288 3.7373 2.20246 0
M  V30 2004 H 192.959 3.98765 3.81694 0
M  V30 2005 H 195.435 2.07209 3.60837 0
M  V30 2006 H 194.311 2.33931 4.96556 0
M  V30 2007 H 194.572 0.709877 4.36364 0
M  V30 2008 N 193.631 -1.12557 1.10312 0
M  V30 2009 C 194.541 -2.21841 0.763142 0
M  V30 2010 C 195.557 -1.72354 -0.238801 0
M  V30 2011 O 196.733 -2.01249 -0.0778746 0
M  V30 2012 C 193.798 -3.46131 0.198632 0
M  V30 2013 C 192.859 -4.10464 1.25769 0
M  V30 2014 C 192.092 -5.28821 0.72002 0
M  V30 2015 O 192.315 -5.6859 -0.453993 0
M  V30 2016 O 191.249 -5.83437 1.47935 0
M  V30 2017 H 195.075 -2.53312 1.67532 0
M  V30 2018 H 192.66 -1.20867 0.878157 0
M  V30 2019 H 194.542 -4.2125 -0.112401 0
M  V30 2020 H 193.217 -3.16338 -0.686419 0
M  V30 2021 H 192.124 -3.3713 1.62156 0
M  V30 2022 H 193.457 -4.44408 2.11571 0
M  V30 2023 N 195.109 -0.891671 -1.2995 0
M  V30 2024 C 196.072 -0.36828 -2.26222 0
M  V30 2025 C 197.072 0.493014 -1.53056 0
M  V30 2026 O 198.262 0.299213 -1.71611 0
M  V30 2027 C 195.394 0.47442 -3.37583 0
M  V30 2028 H 196.587 -1.21844 -2.74033 0
M  V30 2029 H 194.14 -0.669107 -1.41254 0
M  V30 2030 H 194.875 1.34489 -2.95099 0
M  V30 2031 H 194.66 -0.142615 -3.91841 0
M  V30 2032 H 196.15 0.83218 -4.09224 0
M  V30 2033 N 196.587 1.43421 -0.653314 0
M  V30 2034 C 197.497 2.34568 0.0388565 0
M  V30 2035 C 198.513 1.53888 0.81207 0
M  V30 2036 O 199.689 1.86539 0.759294 0
M  V30 2037 C 196.754 3.32167 0.993269 0
M  V30 2038 C 195.815 4.28751 0.216977 0
M  V30 2039 C 195.048 5.21688 1.12593 0
M  V30 2040 O 195.271 5.19052 2.36519 0
M  V30 2041 O 194.205 5.98919 0.598284 0
M  V30 2042 H 198.031 2.95251 -0.711386 0
M  V30 2043 H 195.616 1.43564 -0.413502 0
M  V30 2044 H 197.498 3.92183 1.54176 0
M  V30 2045 H 196.173 2.73987 1.72374 0
M  V30 2046 H 195.08 3.72215 -0.375101 0
M  V30 2047 H 196.413 4.89913 -0.473924 0
M  V30 2048 N 198.065 0.39524 1.52563 0
M  V30 2049 C 198.995 -0.428384 2.29537 0
M  V30 2050 C 199.976 -1.05831 1.33169 0
M  V30 2051 O 201.161 -1.06995 1.62067 0
M  V30 2052 C 198.291 -1.55274 3.10656 0
M  V30 2053 C 197.245 -1.04855 4.14957 0
M  V30 2054 C 196.571 -2.26543 4.84337 0
M  V30 2055 C 197.871 -0.112324 5.22179 0
M  V30 2056 H 199.565 0.213867 2.98635 0
M  V30 2057 H 197.111 0.104298 1.43622 0
M  V30 2058 H 199.064 -2.1358 3.63265 0
M  V30 2059 H 197.788 -2.22266 2.39302 0
M  V30 2060 H 196.447 -0.487985 3.63338 0
M  V30 2061 H 196.095 -2.92059 4.09525 0
M  V30 2062 H 195.795 -1.93466 5.54837 0
M  V30 2063 H 197.319 -2.85481 5.39753 0
M  V30 2064 H 198.733 -0.603752 5.70112 0
M  V30 2065 H 197.13 0.128968 5.99961 0
M  V30 2066 H 198.2 0.837052 4.77621 0
M  V30 2067 N 199.544 -1.57102 0.125237 0
M  V30 2068 C 200.792 -1.95021 -0.530198 0
M  V30 2069 C 201.113 -1.00982 -1.66816 0
M  V30 2070 O 200.383 -0.0672693 -1.95784 0
M  V30 2071 H 198.963 -0.720046 -0.198853 0
M  V30 2072 H 201.625 -1.93916 0.19564 0
M  V30 2073 H 200.721 -2.98211 -0.920681 0
M  V30 2074 N 201.022 0.148545 -1.56898 0
M  V30 2075 C 202.438 0.501131 -1.51528 0
M  V30 2076 C 202.638 1.83458 -0.833399 0
M  V30 2077 O 201.694 2.49259 -0.40328 0
M  V30 2078 C 203.007 0.512864 -2.96294 0
M  V30 2079 C 204.555 0.598487 -3.07225 0
M  V30 2080 C 205.03 0.640897 -4.53494 0
M  V30 2081 N 206.521 0.703163 -4.57832 0
M  V30 2082 C 207.256 0.756935 -5.68382 0
M  V30 2083 N 206.752 0.770147 -6.88506 0
M  V30 2084 N 208.545 0.797698 -5.56411 0
M  V30 2085 H 200.696 -0.725532 -1.99624 0
M  V30 2086 H 202.959 -0.264358 -0.910395 0
M  V30 2087 H 202.665 -0.398691 -3.49433 0
M  V30 2088 H 202.539 1.35133 -3.52163 0
M  V30 2089 H 204.926 1.50046 -2.54106 0
M  V30 2090 H 205.007 -0.267093 -2.54402 0
M  V30 2091 H 204.651 -0.256915 -5.0725 0
M  V30 2092 H 204.581 1.52295 -5.04097 0
M  V30 2093 H 207.072 0.700314 -3.71354 0
M  V30 2094 H 207.385 0.812983 -7.68512 0
M  V30 2095 H 205.73 0.738049 -6.9107 0
M  V30 2096 H 208.921 0.784535 -4.61479 0
M  V30 2097 H 209.094 0.83614 -6.42583 0
M  V30 2098 N 202.5 1.5196 0.417844 0
M  V30 2099 C 203.43 1.77634 1.51554 0
M  V30 2100 C 204.411 0.626918 1.58126 0
M  V30 2101 O 205.596 0.871632 1.7354 0
M  V30 2102 C 202.726 1.91911 2.8946 0
M  V30 2103 C 201.68 3.07463 2.97743 0
M  V30 2104 C 201.006 3.06951 4.37819 0
M  V30 2105 C 202.306 4.47082 2.70027 0
M  V30 2106 H 204 2.6955 1.3032 0
M  V30 2107 H 201.546 1.29706 0.625492 0
M  V30 2108 H 203.499 2.08455 3.6623 0
M  V30 2109 H 202.223 0.966598 3.11969 0
M  V30 2110 H 200.882 2.90656 2.23416 0
M  V30 2111 H 200.53 2.09438 4.57323 0
M  V30 2112 H 200.23 3.84556 4.44286 0
M  V30 2113 H 201.754 3.25613 5.16535 0
M  V30 2114 H 203.168 4.6414 3.36522 0
M  V30 2115 H 201.565 5.2654 2.87881 0
M  V30 2116 H 202.635 4.55777 1.65514 0
M  V30 2117 N 203.978 -0.674533 1.42435 0
M  V30 2118 C 205.226 -1.43175 1.42637 0
M  V30 2119 C 205.547 -1.94951 0.0438992 0
M  V30 2120 O 204.817 -1.7308 -0.917607 0
M  V30 2121 H 203.397 -0.531307 0.525092 0
M  V30 2122 H 206.059 -0.797006 1.77859 0
M  V30 2123 H 205.155 -2.28463 2.12629 0
M  V30 2124 N 205.456 -1.28612 -0.910864 0
M  V30 2125 C 206.704 -1.15705 -1.65701 0
M  V30 2126 C 207.025 0.29416 -1.92769 0
M  V30 2127 O 206.295 1.20331 -1.54588 0
M  V30 2128 H 204.875 -0.425216 -0.614167 0
M  V30 2129 H 207.537 -1.61381 -1.0928 0
M  V30 2130 H 206.633 -1.6988 -2.61815 0
M  V30 2131 N 206.934 1.1197 -1.10907 0
M  V30 2132 C 208.18 1.8386 -0.855773 0
M  V30 2133 C 208.513 1.84134 0.617103 0
M  V30 2134 O 207.788 1.29041 1.45529 0
M  V30 2135 C 208.071 3.31305 -1.411 0
M  V30 2136 C 207.924 3.39456 -2.9511 0
M  V30 2137 C 209.243 4.2721 -1.05736 0
M  V30 2138 H 206.362 0.667545 -0.312334 0
M  V30 2139 H 209.004 1.31331 -1.37303 0
M  V30 2140 H 207.154 3.76169 -0.97105 0
M  V30 2141 H 208.826 3.03191 -3.47668 0
M  V30 2142 H 207.069 2.79849 -3.31462 0
M  V30 2143 H 207.74 4.43209 -3.29044 0
M  V30 2144 H 210.216 3.90497 -1.43706 0
M  V30 2145 H 209.092 5.28775 -1.47269 0
M  V30 2146 H 209.353 4.42088 0.0325958 0
M  V30 2147 N 208.412 0.89855 1.29475 0
M  V30 2148 C 209.322 0.379974 2.31502 0
M  V30 2149 C 210.338 -0.524695 1.659 0
M  V30 2150 O 211.514 -0.414551 1.97087 0
M  V30 2151 C 208.579 -0.385138 3.44554 0
M  V30 2152 C 207.64 0.550914 4.2575 0
M  V30 2153 C 206.873 -0.177778 5.33404 0
M  V30 2154 O 207.096 -1.40189 5.52904 0
M  V30 2155 O 206.03 0.479106 5.9999 0
M  V30 2156 H 209.856 1.22639 2.77837 0
M  V30 2157 H 207.441 0.662834 1.33891 0
M  V30 2158 H 209.323 -0.817841 4.13388 0
M  V30 2159 H 207.998 -1.20763 3.0033 0
M  V30 2160 H 206.905 1.03271 3.59564 0
M  V30 2161 H 208.238 1.33979 4.73614 0
M  V30 2162 N 209.89 -1.43072 0.660911 0
M  V30 2163 C 211.167 -1.95307 0.107017 0
M  V30 2164 C 211.547 -1.60192 -1.37484 0
M  V30 2165 O 210.895 -0.890949 -2.10415 0
M  V30 2166 C 211.105 -3.47124 0.361402 0
M  V30 2167 C 212.453 -4.23738 0.270455 0
M  V30 2168 O 213.477 -3.54981 0.294382 0
M  V30 2169 O 212.336 -5.46131 0.200737 0
M  V30 2170 H 209.43 -0.826984 -0.00517729 0
M  V30 2171 H 211.976 -1.52972 0.734681 0
M  V30 2172 H 210.748 -3.65837 1.38848 0
M  V30 2173 H 210.371 -3.96475 -0.298953 0
M  V30 2174 N 211.368 -0.403325 -1.52352 0
M  V30 2175 C 212.645 0.232611 -1.94212 0
M  V30 2176 C 213.025 1.63133 -1.33981 0
M  V30 2177 O 212.373 2.22659 -0.513344 0
M  V30 2178 C 212.583 0.244811 -3.4814 0
M  V30 2179 C 213.931 0.46698 -4.22024 0
M  V30 2180 O 214.955 0.324419 -3.5472 0
M  V30 2181 O 213.814 0.74747 -5.41364 0
M  V30 2182 H 210.908 0.148223 -0.813609 0
M  V30 2183 H 213.454 -0.458848 -1.63379 0
M  V30 2184 H 212.226 -0.734378 -3.84347 0
M  V30 2185 H 211.849 0.980611 -3.85318 0
M  V30 2186 N 212.846 1.57033 -0.133567 0
M  V30 2187 C 213.779 2.11824 0.848872 0
M  V30 2188 C 214.757 1.03833 1.2513 0
M  V30 2189 O 215.941 1.31579 1.34978 0
M  V30 2190 C 213.068 2.62692 2.138 0
M  V30 2191 C 212.114 3.82705 1.88253 0
M  V30 2192 S 212.947 5.2438 1.08563 0
M  V30 2193 C 214.103 5.78627 2.38624 0
M  V30 2194 H 214.336 2.94824 0.38289 0
M  V30 2195 H 211.869 1.5419 0.0804796 0
M  V30 2196 H 213.827 2.92652 2.87863 0
M  V30 2197 H 212.488 1.79847 2.57515 0
M  V30 2198 H 211.681 4.16496 2.83809 0
M  V30 2199 H 211.283 3.53437 1.22305 0
M  V30 2200 H 213.575 5.8924 3.34369 0
M  V30 2201 H 214.518 6.76443 2.09358 0
M  V30 2202 H 214.926 5.06783 2.48658 0
M  V30 2203 N 214.325 -0.140222 1.56975 0
M  V30 2204 C 215.55 -0.870414 1.88251 0
M  V30 2205 C 215.975 -1.73637 0.723312 0
M  V30 2206 O 215.333 -1.78329 -0.32689 0
M  V30 2207 C 215.381 -1.69737 3.18154 0
M  V30 2208 O 214.485 -2.80229 3.02565 0
M  V30 2209 H 213.826 -0.242025 0.61832 0
M  V30 2210 H 216.356 -0.128999 2.04193 0
M  V30 2211 H 216.366 -2.09099 3.50345 0
M  V30 2212 H 215.041 -1.06152 4.02125 0
M  V30 2213 H 213.618 -2.44224 2.81796 0
M  V30 2214 N 215.803 -1.52179 -0.40978 0
M  V30 2215 C 217.049 -1.66453 -1.15851 0
M  V30 2216 C 217.382 -0.392972 -1.90182 0
M  V30 2217 O 216.657 0.608579 -1.84734 0
M  V30 2218 C 216.94 -2.88612 -2.15349 0
M  V30 2219 C 216.793 -4.25815 -1.44918 0
M  V30 2220 C 218.112 -3.06294 -3.16026 0
M  V30 2221 H 215.231 -0.60575 -0.419805 0
M  V30 2222 H 217.873 -1.84732 -0.444314 0
M  V30 2223 H 216.023 -2.73158 -2.76255 0
M  V30 2224 H 217.695 -4.52995 -0.871365 0
M  V30 2225 H 215.938 -4.27247 -0.751159 0
M  V30 2226 H 216.609 -5.07337 -2.17516 0
M  V30 2227 H 219.085 -3.20641 -2.65195 0
M  V30 2228 H 217.961 -3.93283 -3.8291 0
M  V30 2229 H 218.222 -2.19579 -3.83715 0
M  V30 2230 N 217.281 0.66697 -1.42791 0
M  V30 2231 C 218.558 1.4234 -1.34159 0
M  V30 2232 C 218.938 2.11093 0.0172729 0
M  V30 2233 O 218.286 2.03808 1.03318 0
M  V30 2234 C 218.496 2.41942 -2.51526 0
M  V30 2235 C 219.844 3.06353 -2.93995 0
M  V30 2236 O 220.868 2.52269 -2.51473 0
M  V30 2237 O 219.727 4.04376 -3.67617 0
M  V30 2238 H 216.821 0.635277 -0.529483 0
M  V30 2239 H 219.367 0.695034 -1.54814 0
M  V30 2240 H 218.139 1.89991 -3.42081 0
M  V30 2241 H 217.762 3.22249 -2.32898 0
M  V30 2242 N 218.759 1.29093 0.90403 0
M  V30 2243 C 219.722 1.1386 1.98919 0
M  V30 2244 C 220.722 0.0753457 1.60623 0
M  V30 2245 O 221.912 0.321931 1.71199 0
M  V30 2246 C 219.044 0.740198 3.32767 0
M  V30 2247 H 220.237 2.10246 2.13861 0
M  V30 2248 H 217.79 1.12218 1.08797 0
M  V30 2249 H 218.525 -0.223997 3.23525 0
M  V30 2250 H 218.31 1.50838 3.61926 0
M  V30 2251 H 219.8 0.656546 4.12407 0
M  V30 2252 N 220.237 -1.11381 1.11499 0
M  V30 2253 C 221.147 -2.21019 0.786628 0
M  V30 2254 C 222.163 -1.72597 -0.220507 0
M  V30 2255 O 223.339 -2.01321 -0.0565251 0
M  V30 2256 C 220.404 -3.459 0.235333 0
M  V30 2257 C 219.465 -4.09107 1.30115 0
M  V30 2258 C 218.698 -5.28027 0.776068 0
M  V30 2259 O 218.921 -5.6904 -0.393661 0
M  V30 2260 O 217.855 -5.81835 1.54114 0
M  V30 2261 H 221.681 -2.51521 1.70209 0
M  V30 2262 H 219.266 -1.19928 0.890928 0
M  V30 2263 H 221.148 -4.21346 -0.067715 0
M  V30 2264 H 219.823 -3.17049 -0.652828 0
M  V30 2265 H 218.73 -3.35391 1.65722 0
M  V30 2266 H 220.063 -4.42139 2.16273 0
M  V30 2267 N 221.715 -0.905404 -1.28997 0
M  V30 2268 C 222.94 -0.549175 -1.99997 0
M  V30 2269 C 223.365 0.860276 -1.67275 0
M  V30 2270 O 222.723 1.57355 -0.900502 0
M  V30 2271 C 222.771 -0.755185 -3.52604 0
M  V30 2272 O 221.875 0.189692 -4.11964 0
M  V30 2273 H 221.216 -0.213899 -0.628604 0
M  V30 2274 H 223.746 -1.21856 -1.64354 0
M  V30 2275 H 223.756 -0.662045 -4.02593 0
M  V30 2276 H 222.431 -1.78271 -3.75755 0
M  V30 2277 H 221.008 0.0485257 -3.72868 0
M  V30 2278 N 223.193 1.4272 -0.668489 0
M  V30 2279 C 224.156 2.292 0.00448567 0
M  V30 2280 C 225.156 1.43001 0.735339 0
M  V30 2281 O 226.346 1.64461 0.57429 0
M  V30 2282 C 223.478 3.25375 1.01705 0
M  V30 2283 H 224.671 2.90199 -0.756608 0
M  V30 2284 H 222.224 1.50254 -0.430506 0
M  V30 2285 H 222.959 2.69301 1.80686 0
M  V30 2286 H 222.744 3.88944 0.496463 0
M  V30 2287 H 224.234 3.90245 1.48655 0
M  V30 2288 N 224.671 0.411399 1.52136 0
M  V30 2289 C 225.918 -0.163645 2.01838 0
M  V30 2290 C 226.246 -1.4495 1.29691 0
M  V30 2291 O 225.501 -1.91725 0.392431 0
M  V30 2292 C 225.8 -0.455872 3.54481 0
M  V30 2293 C 225.466 0.741055 4.44769 0
M  V30 2294 C 224.128 1.06936 4.69167 0
M  V30 2295 C 226.48 1.54075 4.97906 0
M  V30 2296 C 223.808 2.19851 5.43951 0
M  V30 2297 C 226.16 2.66067 5.73926 0
M  V30 2298 C 224.824 2.99381 5.96596 0
M  V30 2299 H 224.094 -0.0598821 0.738576 0
M  V30 2300 H 226.741 0.553283 1.83333 0
M  V30 2301 H 225.046 -1.2544 3.71177 0
M  V30 2302 H 226.743 -0.913802 3.90449 0
M  V30 2303 H 223.333 0.475192 4.25958 0
M  V30 2304 H 227.517 1.30033 4.78963 0
M  V30 2305 H 222.773 2.46006 5.59724 0
M  V30 2306 H 226.947 3.28419 6.14096 0
M  V30 2307 H 224.574 3.86992 6.54325 0
M  V30 2308 N 226.149 -1.5696 0.141893 0
M  V30 2309 C 227.079 -2.19516 -0.795936 0
M  V30 2310 C 228.06 -1.14187 -1.26077 0
M  V30 2311 O 229.245 -1.42511 -1.31925 0
M  V30 2312 C 226.375 -2.81272 -2.03723 0
M  V30 2313 C 225.329 -3.92384 -1.70936 0
M  V30 2314 C 224.655 -4.41052 -3.02287 0
M  V30 2315 C 225.955 -5.13403 -0.959954 0
M  V30 2316 H 227.649 -2.98138 -0.274596 0
M  V30 2317 H 225.195 -1.43406 -0.130636 0
M  V30 2318 H 227.148 -3.237 -2.69808 0
M  V30 2319 H 225.872 -1.99973 -2.58221 0
M  V30 2320 H 224.531 -3.50566 -1.07232 0
M  V30 2321 H 224.179 -3.56582 -3.54765 0
M  V30 2322 H 223.879 -5.15993 -2.81114 0
M  V30 2323 H 225.403 -4.86146 -3.69451 0
M  V30 2324 H 226.817 -5.52706 -1.52279 0
M  V30 2325 H 225.214 -5.94073 -0.848357 0
M  V30 2326 H 226.284 -4.84875 0.0492434 0
M  V30 2327 N 227.627 0.131896 -1.57047 0
M  V30 2328 C 228.855 0.856461 -1.88341 0
M  V30 2329 C 229.27 1.74042 -0.731757 0
M  V30 2330 O 228.627 1.80051 0.297945 0
M  V30 2331 C 228.678 1.70064 -3.18999 0
M  V30 2332 O 228.399 0.852278 -4.2973 0
M  V30 2333 C 229.9 2.53148 -3.63911 0
M  V30 2334 H 227.12 0.246885 -0.62393 0
M  V30 2335 H 229.664 0.120152 -2.04147 0
M  V30 2336 H 227.819 2.38984 -3.04902 0
M  V30 2337 H 228.233 1.43329 -5.04537 0
M  V30 2338 H 229.707 3.07931 -4.58129 0
M  V30 2339 H 230.184 3.29901 -2.89935 0
M  V30 2340 H 230.79 1.89492 -3.80753 0
M  V30 2341 N 229.106 1.52395 0.401703 0
M  V30 2342 C 230.383 1.57387 1.16141 0
M  V30 2343 C 230.763 0.359359 2.08019 0
M  V30 2344 O 230.111 -0.65326 2.18963 0
M  V30 2345 C 230.321 2.90631 1.93221 0
M  V30 2346 C 231.669 3.43904 2.49028 0
M  V30 2347 O 232.693 2.92421 2.03393 0
M  V30 2348 O 231.552 4.33823 3.32356 0
M  V30 2349 H 228.646 0.634262 0.530698 0
M  V30 2350 H 231.192 1.64725 0.407883 0
M  V30 2351 H 229.964 3.70473 1.25958 0
M  V30 2352 H 229.587 2.8662 2.75563 0
M  V30 2353 N 230.584 -0.659388 1.43143 0
M  V30 2354 C 231.995 -1.24041 1.39537 0
M  V30 2355 C 232.346 -1.95963 0.0963364 0
M  V30 2356 O 231.471 -2.00892 -0.804438 0
M  V30 2357 C 232.066 -2.25601 2.52764 0
M  V30 2358 C 230.625 -2.79195 2.52443 0
M  V30 2359 C 229.772 -1.53743 2.30778 0
M  V30 2360 H 232.723 -0.451792 1.52133 0
M  V30 2361 H 232.744 -3.07651 2.23899 0
M  V30 2362 H 232.256 -1.73226 3.47296 0
M  V30 2363 H 230.357 -3.35649 1.61773 0
M  V30 2364 H 230.47 -3.2716 3.50004 0
M  V30 2365 H 228.834 -1.80869 1.79328 0
M  V30 2366 H 229.617 -1.03312 3.27386 0
M  V30 2367 N 232.062 -1.29571 -0.897171 0
M  V30 2368 C 232.994 -1.10724 -2.00681 0
M  V30 2369 C 234.007 -0.0540026 -1.6271 0
M  V30 2370 O 235.196 -0.298783 -1.75982 0
M  V30 2371 C 232.296 -0.663912 -3.32333 0
M  V30 2372 C 231.469 -1.79622 -3.98816 0
M  V30 2373 C 230.528 -1.34349 -5.0876 0
M  V30 2374 O 229.554 -2.04864 -5.31055 0
M  V30 2375 N 230.756 -0.215764 -5.80099 0
M  V30 2376 H 233.521 -2.06291 -2.17403 0
M  V30 2377 H 231.082 -1.21544 -1.06951 0
M  V30 2378 H 233.074 -0.344295 -4.03233 0
M  V30 2379 H 231.644 0.199375 -3.11964 0
M  V30 2380 H 230.864 -2.28459 -3.21248 0
M  V30 2381 H 232.152 -2.55535 -4.39976 0
M  V30 2382 H 231.55 0.372091 -5.64475 0
M  V30 2383 H 230.107 0.0444707 -6.51785 0
M  V30 2384 N 233.54 1.10788 -1.12088 0
M  V30 2385 C 234.45 2.20599 -0.798338 0
M  V30 2386 C 235.466 1.72712 0.21135 0
M  V30 2387 O 236.642 2.01348 0.0458477 0
M  V30 2388 C 233.707 3.45771 -0.253674 0
M  V30 2389 C 232.768 4.08411 -1.32283 0
M  V30 2390 C 232.001 5.27608 -0.80406 0
M  V30 2391 O 232.224 5.69241 0.363478 0
M  V30 2392 O 231.158 5.8101 -1.57198 0
M  V30 2393 H 234.984 2.50614 -1.7154 0
M  V30 2394 H 232.569 1.19454 -0.897275 0
M  V30 2395 H 234.451 4.21376 0.0453691 0
M  V30 2396 H 233.126 3.1739 0.636005 0
M  V30 2397 H 232.033 3.34507 -1.67499 0
M  V30 2398 H 233.366 4.40986 -2.18614 0
M  V30 2399 N 235.018 0.912232 1.28515 0
M  V30 2400 C 235.981 0.404223 2.25607 0
M  V30 2401 C 236.981 -0.468602 1.53821 0
M  V30 2402 O 238.171 -0.271873 1.72065 0
M  V30 2403 C 235.303 -0.420653 3.38295 0
M  V30 2404 H 236.496 1.26188 2.7206 0
M  V30 2405 H 234.049 0.691495 1.40171 0
M  V30 2406 H 234.784 -1.29777 2.97201 0
M  V30 2407 H 234.569 0.204935 3.91564 0
M  V30 2408 H 236.059 -0.766971 4.10496 0
M  V30 2409 N 236.496 -1.42363 0.676048 0
M  V30 2410 C 237.443 -2.308 -0.00150904 0
M  V30 2411 C 238.413 -1.46032 -0.791444 0
M  V30 2412 O 239.598 -1.74861 -0.76344 0
M  V30 2413 C 236.738 -3.31883 -0.945919 0
M  V30 2414 C 235.851 -4.31741 -0.149675 0
M  V30 2415 C 234.986 -5.19898 -1.08995 0
M  V30 2416 C 234.025 -6.11434 -0.285465 0
M  V30 2417 N 233.162 -6.92138 -1.17851 0
M  V30 2418 H 238.002 -2.88187 0.758455 0
M  V30 2419 H 235.539 -1.41952 0.38576 0
M  V30 2420 H 237.497 -3.89019 -1.50731 0
M  V30 2421 H 236.127 -2.76093 -1.6725 0
M  V30 2422 H 235.179 -3.76713 0.528359 0
M  V30 2423 H 236.491 -4.96534 0.474866 0
M  V30 2424 H 235.645 -5.81772 -1.72123 0
M  V30 2425 H 234.384 -4.55284 -1.74837 0
M  V30 2426 H 233.389 -5.48627 0.359018 0
M  V30 2427 H 234.614 -6.78097 0.368883 0
M  V30 2428 H 232.56 -6.30152 -1.82332 0
M  V30 2429 H 232.477 -7.53542 -0.609082 0
M  V30 2430 H 233.745 -7.58499 -1.79722 0
M  V30 2431 N 237.974 -0.419461 -1.51915 0
M  V30 2432 C 239.39 -0.0708431 -1.59443 0
M  V30 2433 C 239.59 1.41796 -1.43164 0
M  V30 2434 O 238.646 2.18596 -1.26381 0
M  V30 2435 C 239.959 -0.574991 -2.95151 0
M  V30 2436 C 241.507 -0.533867 -3.08413 0
M  V30 2437 C 241.982 -1.01469 -4.46618 0
M  V30 2438 N 243.473 -0.971939 -4.52888 0
M  V30 2439 C 244.208 -1.31505 -5.58116 0
M  V30 2440 N 243.704 -1.73014 -6.70849 0
M  V30 2441 N 245.497 -1.23436 -5.48379 0
M  V30 2442 H 237.648 -1.38836 -1.60743 0
M  V30 2443 H 239.911 -0.570998 -0.756747 0
M  V30 2444 H 239.617 -1.61597 -3.12377 0
M  V30 2445 H 239.491 0.00979777 -3.77199 0
M  V30 2446 H 241.878 0.498086 -2.90866 0
M  V30 2447 H 241.959 -1.15484 -2.28248 0
M  V30 2448 H 241.603 -2.04502 -4.6491 0
M  V30 2449 H 241.533 -0.370433 -5.25295 0
M  V30 2450 H 244.024 -0.666893 -3.71969 0
M  V30 2451 H 244.337 -1.97479 -7.47143 0
M  V30 2452 H 242.682 -1.76926 -6.72103 0
M  V30 2453 H 245.873 -0.908869 -4.59192 0
M  V30 2454 H 246.046 -1.50506 -6.30279 0
M  V30 2455 N 239.452 1.56882 -0.150215 0
M  V30 2456 C 240.699 1.96228 0.500093 0
M  V30 2457 C 241.027 1.03522 1.64661 0
M  V30 2458 O 240.282 0.0650683 1.95592 0
M  V30 2459 C 240.581 3.41801 1.04437 0
M  V30 2460 C 240.247 4.50897 0.0159671 0
M  V30 2461 C 238.909 4.8046 -0.266731 0
M  V30 2462 C 241.261 5.16703 -0.683192 0
M  V30 2463 C 238.589 5.73135 -1.25434 0
M  V30 2464 C 240.941 6.10441 -1.65964 0
M  V30 2465 C 239.605 6.38382 -1.95 0
M  V30 2466 H 238.875 0.718048 0.182997 0
M  V30 2467 H 241.522 1.90019 -0.237724 0
M  V30 2468 H 239.827 3.44857 1.85959 0
M  V30 2469 H 241.524 3.69573 1.55618 0
M  V30 2470 H 238.114 4.27891 0.246485 0
M  V30 2471 H 242.298 4.93993 -0.477983 0
M  V30 2472 H 237.554 5.93074 -1.48571 0
M  V30 2473 H 241.728 6.60507 -2.20689 0
M  V30 2474 H 239.355 7.09996 -2.71679 0
M  V30 2475 N 240.93 -0.123565 1.57115 0
M  V30 2476 C 242.176 -0.833386 1.84885 0
M  V30 2477 C 242.509 -1.79742 0.735292 0
M  V30 2478 O 241.784 -1.92764 -0.25925 0
M  V30 2479 C 242.067 -1.5873 3.23228 0
M  V30 2480 C 241.92 -0.643183 4.45178 0
M  V30 2481 C 243.239 -2.54453 3.59085 0
M  V30 2482 H 240.358 -0.301518 0.6725 0
M  V30 2483 H 243 -0.097778 1.89748 0
M  V30 2484 H 241.15 -2.21438 3.19214 0
M  V30 2485 H 242.822 -0.0253015 4.61293 0
M  V30 2486 H 241.065 0.0456139 4.33776 0
M  V30 2487 H 241.736 -1.20724 5.38637 0
M  V30 2488 H 244.212 -2.01853 3.63861 0
M  V30 2489 H 243.088 -3.04238 4.5687 0
M  V30 2490 H 243.349 -3.36906 2.86264 0
M  V30 2491 N 242.408 -1.52605 -0.393616 0
M  V30 2492 C 243.318 -1.79971 -1.50492 0
M  V30 2493 C 244.334 -0.686181 -1.59899 0
M  V30 2494 O 245.51 -0.973274 -1.76322 0
M  V30 2495 C 242.575 -1.95867 -2.86072 0
M  V30 2496 C 241.636 -3.19781 -2.86424 0
M  V30 2497 C 240.869 -3.34909 -4.15538 0
M  V30 2498 O 241.092 -2.54948 -5.10253 0
M  V30 2499 O 240.026 -4.28141 -4.23059 0
M  V30 2500 H 243.852 -2.74328 -1.30299 0
M  V30 2501 H 241.437 -1.3764 -0.581005 0
M  V30 2502 H 243.319 -2.08056 -3.66457 0
M  V30 2503 H 241.994 -1.04699 -3.063 0
M  V30 2504 H 240.901 -3.13038 -2.04837 0
M  V30 2505 H 242.234 -4.1078 -2.71147 0
M  V30 2506 N 243.887 0.651787 -1.4349 0
M  V30 2507 C 244.817 1.77621 -1.51569 0
M  V30 2508 C 245.798 1.66022 -0.370253 0
M  V30 2509 O 246.983 1.85095 -0.587658 0
M  V30 2510 C 244.113 3.16056 -1.43966 0
M  V30 2511 C 243.067 3.4242 -2.56774 0
M  V30 2512 C 242.393 4.8067 -2.34223 0
M  V30 2513 C 243.693 3.37023 -3.99015 0
M  V30 2514 H 245.387 1.71117 -2.45681 0
M  V30 2515 H 242.933 0.821825 -1.18246 0
M  V30 2516 H 244.886 3.94472 -1.48221 0
M  V30 2517 H 243.61 3.23293 -0.463586 0
M  V30 2518 H 242.269 2.66375 -2.51873 0
M  V30 2519 H 241.917 4.84585 -1.34856 0
M  V30 2520 H 241.617 4.9927 -3.09844 0
M  V30 2521 H 243.141 5.61342 -2.40265 0
M  V30 2522 H 244.555 4.05374 -4.05395 0
M  V30 2523 H 242.952 3.67159 -4.74673 0
M  V30 2524 H 244.022 2.3518 -4.2405 0
M  V30 2525 N 245.365 1.30045 0.890287 0
M  V30 2526 C 246.593 1.21472 1.67487 0
M  V30 2527 C 247.008 -0.223241 1.87476 0
M  V30 2528 O 246.365 -1.14828 1.41847 0
M  V30 2529 C 246.416 1.93394 3.05419 0
M  V30 2530 O 246.137 3.31576 2.86337 0
M  V30 2531 C 247.638 1.91414 3.99844 0
M  V30 2532 H 244.858 0.420604 0.522813 0
M  V30 2533 H 247.402 1.7158 1.11268 0
M  V30 2534 H 245.557 1.47099 3.58386 0
M  V30 2535 H 245.971 3.67929 3.73802 0
M  V30 2536 H 247.445 2.46285 4.94012 0
M  V30 2537 H 247.922 0.891833 4.3005 0
M  V30 2538 H 248.528 2.37496 3.52811 0
M  V30 2539 N 246.843 -1.10192 1.12674 0
M  V30 2540 C 248.091 -1.81845 0.881861 0
M  V30 2541 C 248.412 -1.85737 -0.593867 0
M  V30 2542 O 247.682 -1.33724 -1.4316 0
M  V30 2543 H 246.262 -0.673432 0.323261 0
M  V30 2544 H 248.924 -1.33316 1.42172 0
M  V30 2545 H 248.02 -2.85288 1.2656 0
M  V30 2546 N 248.321 -0.919034 -1.28029 0
M  V30 2547 C 249.567 -0.555757 -1.95036 0
M  V30 2548 C 249.9 0.899198 -1.72128 0
M  V30 2549 O 249.175 1.64023 -1.04531 0
M  V30 2550 C 249.458 -0.872024 -3.49382 0
M  V30 2551 C 249.311 -2.3801 -3.81669 0
M  V30 2552 C 250.63 -0.37185 -4.38526 0
M  V30 2553 H 247.749 -0.203386 -0.708381 0
M  V30 2554 H 250.391 -1.14924 -1.51303 0
M  V30 2555 H 248.541 -0.366946 -3.86763 0
M  V30 2556 H 250.213 -2.9562 -3.54128 0
M  V30 2557 H 248.456 -2.83289 -3.28526 0
M  V30 2558 H 249.127 -2.55192 -4.8947 0
M  V30 2559 H 251.603 -0.804602 -4.08247 0
M  V30 2560 H 250.479 -0.622173 -5.45362 0
M  V30 2561 H 250.74 0.727934 -4.36066 0
M  V30 2562 N 249.799 1.42003 -0.683588 0
M  V30 2563 C 251.076 1.95112 -0.138075 0
M  V30 2564 C 251.456 1.62359 1.34918 0
M  V30 2565 O 250.804 0.924311 2.08971 0
M  V30 2566 C 251.014 3.46505 -0.416581 0
M  V30 2567 C 252.362 4.23254 -0.337834 0
M  V30 2568 O 253.386 3.54468 -0.35082 0
M  V30 2569 O 252.245 5.45743 -0.287596 0
M  V30 2570 H 249.339 0.826961 -0.00797996 0
M  V30 2571 H 251.885 1.51784 -0.758924 0
M  V30 2572 H 250.657 3.63582 -1.4465 0
M  V30 2573 H 250.28 3.969 0.235839 0
M  V30 2574 N 251.277 0.427512 1.51691 0
M  V30 2575 C 252.502 -0.143601 2.06902 0
M  V30 2576 C 252.927 -1.36536 1.29382 0
M  V30 2577 O 252.285 -1.78289 0.329043 0
M  V30 2578 C 252.333 -0.454207 3.57728 0
M  V30 2579 O 251.437 -1.54228 3.82475 0
M  V30 2580 H 250.778 -0.00617128 0.663971 0
M  V30 2581 H 253.308 0.606014 1.95419 0
M  V30 2582 H 253.318 -0.707525 4.01818 0
M  V30 2583 H 251.993 0.438812 4.13579 0
M  V30 2584 H 250.57 -1.2797 3.50254 0
M  V30 2585 N 252.755 -1.56801 0.158532 0
M  V30 2586 C 253.685 -2.20347 -0.772609 0
M  V30 2587 C 254.666 -1.15518 -1.24859 0
M  V30 2588 O 255.851 -1.43902 -1.30406 0
M  V30 2589 C 252.981 -2.83417 -2.00729 0
M  V30 2590 C 251.935 -3.94174 -1.66765 0
M  V30 2591 C 251.261 -4.44233 -2.97592 0
M  V30 2592 C 252.561 -5.14392 -0.905447 0
M  V30 2593 H 254.255 -2.98413 -0.242959 0
M  V30 2594 H 251.801 -1.43537 -0.115419 0
M  V30 2595 H 253.754 -3.26543 -2.6636 0
M  V30 2596 H 252.478 -2.02701 -2.56086 0
M  V30 2597 H 251.137 -3.51684 -1.03508 0
M  V30 2598 H 250.785 -3.60325 -3.50963 0
M  V30 2599 H 250.485 -5.18945 -2.75626 0
M  V30 2600 H 252.009 -4.90037 -3.64274 0
M  V30 2601 H 253.423 -5.5429 -1.46408 0
M  V30 2602 H 251.82 -5.9494 -0.7853 0
M  V30 2603 H 252.89 -4.84795 0.100668 0
M  V30 2604 N 254.233 0.115231 -1.57178 0
M  V30 2605 C 255.196 1.12526 -1.99676 0
M  V30 2606 C 256.196 1.34095 -0.88742 0
M  V30 2607 O 257.386 1.30548 -1.15337 0
M  V30 2608 C 254.518 2.4789 -2.34015 0
M  V30 2609 H 255.711 0.759912 -2.90113 0
M  V30 2610 H 253.264 0.359648 -1.52106 0
M  V30 2611 H 253.999 2.89339 -1.4647 0
M  V30 2612 H 253.784 2.33588 -3.14927 0
M  V30 2613 H 255.274 3.20575 -2.67622 0
M  V30 2614 N 255.711 1.52812 0.385517 0
M  V30 2615 C 256.957 1.68275 1.13188 0
M  V30 2616 C 257.29 0.423179 1.89533 0
M  V30 2617 O 256.565 -0.579113 1.85679 0
M  V30 2618 C 256.848 2.92001 2.1073 0
M  V30 2619 C 256.701 4.28067 1.38125 0
M  V30 2620 C 258.02 3.11283 3.11113 0
M  V30 2621 H 255.139 0.612352 0.410115 0
M  V30 2622 H 257.781 1.85415 0.414869 0
M  V30 2623 H 255.931 2.77519 2.71874 0
M  V30 2624 H 257.603 4.54324 0.799187 0
M  V30 2625 H 255.846 4.28388 0.683092 0
M  V30 2626 H 256.517 5.10733 2.09417 0
M  V30 2627 H 258.993 3.2482 2.6006 0
M  V30 2628 H 257.869 3.99325 3.76605 0
M  V30 2629 H 258.13 2.25656 3.80173 0
M  V30 2630 N 257.189 -0.644168 1.43834 0
M  V30 2631 C 258.152 -1.73857 1.49353 0
M  V30 2632 C 259.152 -1.56315 0.377112 0
M  V30 2633 O 260.342 -1.62048 0.639226 0
M  V30 2634 C 257.474 -3.12819 1.35488 0
M  V30 2635 H 258.667 -1.70342 2.46827 0
M  V30 2636 H 256.22 -0.856652 1.30733 0
M  V30 2637 H 256.955 -3.2194 0.390569 0
M  V30 2638 H 256.74 -3.26958 2.16428 0
M  V30 2639 H 258.23 -3.92606 1.42302 0
M  V30 2640 N 258.668 -1.30515 -0.883378 0
M  V30 2641 C 259.917 -1.18795 -1.63005 0
M  V30 2642 C 260.23 0.255923 -1.93919 0
M  V30 2643 O 261.436 0.494654 -2.66956 0
M  V30 2644 C 259.892 -2.07878 -2.93794 0
M  V30 2645 C 259.5 -3.57184 -2.70414 0
M  V30 2646 C 261.244 -2.04924 -3.71761 0
M  V30 2647 C 259.151 -4.38317 -3.97029 0
M  V30 2648 H 258.081 -0.441031 -0.611562 0
M  V30 2649 H 260.732 -1.55275 -0.977854 0
M  V30 2650 H 259.114 -1.64283 -3.60315 0
M  V30 2651 H 260.288 -4.08937 -2.12384 0
M  V30 2652 H 258.603 -3.61976 -2.0582 0
M  V30 2653 H 261.2 -2.62792 -4.65665 0
M  V30 2654 H 261.543 -1.0331 -4.03277 0
M  V30 2655 H 262.076 -2.46649 -3.12104 0
M  V30 2656 H 258.815 -5.40632 -3.70671 0
M  V30 2657 H 258.335 -3.91326 -4.54559 0
M  V30 2658 H 260.014 -4.49834 -4.65036 0
M  V30 2659 N 260.146 1.09593 -1.13257 0
M  V30 2660 C 261.394 1.81375 -0.891492 0
M  V30 2661 C 261.715 1.86049 0.584009 0
M  V30 2662 O 260.985 1.34481 1.42449 0
M  V30 2663 H 259.565 0.671708 -0.326828 0
M  V30 2664 H 262.227 1.3256 -1.42877 0
M  V30 2665 H 261.323 2.84612 -1.28071 0
M  V30 2666 N 261.624 0.925811 1.2754 0
M  V30 2667 C 262.852 0.581509 1.9856 0
M  V30 2668 C 263.267 -0.840041 1.69082 0
M  V30 2669 O 262.624 -1.55805 0.950312 0
M  V30 2670 C 262.675 0.795589 3.52637 0
M  V30 2671 O 262.396 2.16121 3.81082 0
M  V30 2672 C 263.897 0.459744 4.4091 0
M  V30 2673 H 261.117 0.220538 0.633722 0
M  V30 2674 H 263.661 1.24232 1.6244 0
M  V30 2675 H 261.816 0.18161 3.86974 0
M  V30 2676 H 262.23 2.2098 4.75676 0
M  V30 2677 H 263.704 0.660244 5.48037 0
M  V30 2678 H 264.181 -0.604625 4.35018 0
M  V30 2679 H 264.787 1.05178 4.12089 0
M  V30 2680 N 263.102 -1.41638 0.69111 0
M  V30 2681 C 264.065 -2.29178 0.0319786 0
M  V30 2682 C 265.065 -1.44153 -0.712496 0
M  V30 2683 O 266.255 -1.65354 -0.548053 0
M  V30 2684 C 263.387 -3.26952 -0.965161 0
M  V30 2685 H 264.58 -2.88959 0.802681 0
M  V30 2686 H 262.133 -1.4955 0.454356 0
M  V30 2687 H 262.868 -2.72142 -1.76378 0
M  V30 2688 H 262.653 -3.89685 -0.434522 0
M  V30 2689 H 264.143 -3.92561 -1.42428 0
M  V30 2690 N 264.58 -0.43555 -1.51462 0
M  V30 2691 C 265.53 0.394701 -2.24558 0
M  V30 2692 C 266.514 0.99157 -1.26715 0
M  V30 2693 O 267.706 0.910007 -1.51815 0
M  V30 2694 C 264.835 1.4963 -3.08975 0
M  V30 2695 C 263.921 0.908912 -4.14246 0
M  V30 2696 N 264.312 0.0505335 -5.05775 0
M  V30 2697 C 262.61 1.17668 -4.30198 0
M  V30 2698 C 263.311 -0.279161 -5.8103 0
M  V30 2699 N 262.287 0.336767 -5.42556 0
M  V30 2700 H 266.089 -0.267106 -2.92684 0
M  V30 2701 H 263.603 -0.247518 -1.60503 0
M  V30 2702 H 265.6 2.10394 -3.59917 0
M  V30 2703 H 264.26 2.16046 -2.42393 0
M  V30 2704 H 265.271 -0.31577 -5.16936 0
M  V30 2705 H 261.948 1.83847 -3.74842 0
M  V30 2706 H 263.338 -0.977553 -6.64751 0
M  V30 2707 N 266.058 1.56714 -0.166846 0
M  V30 2708 C 267.306 1.96358 0.478305 0
M  V30 2709 C 267.627 1.0537 1.6408 0
M  V30 2710 O 266.897 0.119154 1.95537 0
M  V30 2711 H 265.477 0.725065 0.179692 0
M  V30 2712 H 268.139 1.93329 -0.246985 0
M  V30 2713 H 267.235 3.00547 0.841292 0
M  V30 2714 N 267.536 -0.106894 1.57237 0
M  V30 2715 C 268.466 -1.13148 2.04254 0
M  V30 2716 C 269.447 -1.42476 0.929224 0
M  V30 2717 O 270.632 -1.52709 1.19973 0
M  V30 2718 C 267.762 -2.4545 2.45706 0
M  V30 2719 C 266.716 -2.30558 3.60592 0
M  V30 2720 C 266.042 -3.67931 3.87983 0
M  V30 2721 C 267.342 -1.75597 4.91897 0
M  V30 2722 H 269.036 -0.740374 2.90101 0
M  V30 2723 H 266.582 -0.354696 1.39563 0
M  V30 2724 H 268.535 -3.17389 2.77205 0
M  V30 2725 H 267.259 -2.86475 1.56843 0
M  V30 2726 H 265.918 -1.61067 3.29322 0
M  V30 2727 H 265.566 -4.06462 2.96306 0
M  V30 2728 H 265.266 -3.58817 4.65322 0
M  V30 2729 H 266.79 -4.41356 4.21945 0
M  V30 2730 H 268.204 -2.37364 5.21854 0
M  V30 2731 H 266.601 -1.77272 5.73319 0
M  V30 2732 H 267.671 -0.714451 4.79608 0
M  V30 2733 N 269.014 -1.53014 -0.377408 0
M  V30 2734 C 270.244 -1.72265 -1.14054 0
M  V30 2735 C 270.652 -0.44601 -1.83868 0
M  V30 2736 O 269.995 0.590095 -1.73964 0
M  V30 2737 C 270.057 -2.82492 -2.22348 0
M  V30 2738 C 269.721 -4.23233 -1.72402 0
M  V30 2739 C 270.718 -5.05992 -1.19448 0
M  V30 2740 C 268.403 -4.696 -1.78273 0
M  V30 2741 C 270.397 -6.33203 -0.730268 0
M  V30 2742 C 268.084 -5.96792 -1.31464 0
M  V30 2743 C 269.082 -6.78424 -0.789297 0
M  V30 2744 O 268.77 -8.0323 -0.328077 0
M  V30 2745 H 268.502 -0.579873 -0.347453 0
M  V30 2746 H 271.056 -2.00502 -0.445882 0
M  V30 2747 H 269.286 -2.49702 -2.95272 0
M  V30 2748 H 270.975 -2.90034 -2.83963 0
M  V30 2749 H 271.741 -4.71349 -1.14259 0
M  V30 2750 H 267.62 -4.06142 -2.18106 0
M  V30 2751 H 271.164 -6.96868 -0.319542 0
M  V30 2752 H 267.061 -6.30937 -1.36342 0
M  V30 2753 H 267.829 -8.1727 -0.448493 0
M  V30 2754 N 270.492 0.636531 -1.44174 0
M  V30 2755 C 271.717 1.42847 -1.50364 0
M  V30 2756 C 272.142 1.87665 -0.127867 0
M  V30 2757 O 271.5 1.58408 0.88185 0
M  V30 2758 C 271.548 2.62854 -2.4686 0
M  V30 2759 O 270.652 3.62501 -1.9664 0
M  V30 2760 H 269.993 0.427642 -0.507955 0
M  V30 2761 H 272.523 0.777422 -1.89255 0
M  V30 2762 H 272.533 3.10465 -2.64718 0
M  V30 2763 H 271.208 2.29578 -3.46795 0
M  V30 2764 H 269.785 3.21735 -1.88523 0
M  V30 2765 N 271.97 1.30982 0.876444 0
M  V30 2766 C 272.917 1.18085 1.98304 0
M  V30 2767 C 273.887 0.0682263 1.6596 0
M  V30 2768 O 275.072 0.239937 1.89285 0
M  V30 2769 C 272.212 0.887475 3.33493 0
M  V30 2770 C 271.325 2.08281 3.78475 0
M  V30 2771 C 270.46 1.72678 5.0235 0
M  V30 2772 C 269.499 2.88657 5.39762 0
M  V30 2773 N 268.636 2.53292 6.54819 0
M  V30 2774 H 273.476 2.1275 2.08666 0
M  V30 2775 H 271.013 1.05839 1.02159 0
M  V30 2776 H 272.971 0.697961 4.1132 0
M  V30 2777 H 271.601 -0.022315 3.22792 0
M  V30 2778 H 270.653 2.3833 2.96484 0
M  V30 2779 H 271.965 2.95108 4.02135 0
M  V30 2780 H 271.119 1.50151 5.87826 0
M  V30 2781 H 269.858 0.830327 4.8058 0
M  V30 2782 H 268.863 3.1184 4.52809 0
M  V30 2783 H 270.088 3.79002 5.63502 0
M  V30 2784 H 268.034 1.66163 6.34607 0
M  V30 2785 H 267.951 3.3365 6.7839 0
M  V30 2786 H 269.219 2.34143 7.43503 0
M  V30 2787 N 273.449 -1.08991 1.13837 0
M  V30 2788 C 274.677 -1.85011 0.926202 0
M  V30 2789 C 275.092 -1.8135 -0.525127 0
M  V30 2790 O 274.449 -1.21287 -1.36366 0
M  V30 2791 C 274.5 -3.32802 1.41155 0
M  V30 2792 O 274.221 -3.36444 2.80601 0
M  V30 2793 C 275.722 -4.25649 1.23847 0
M  V30 2794 H 272.942 -0.584249 0.32999 0
M  V30 2795 H 275.486 -1.37688 1.51202 0
M  V30 2796 H 273.641 -3.77536 0.868631 0
M  V30 2797 H 274.055 -4.28657 3.02248 0
M  V30 2798 H 275.529 -5.27485 1.62675 0
M  V30 2799 H 276.006 -4.38828 0.18065 0
M  V30 2800 H 276.612 -3.86735 1.76964 0
M  V30 2801 N 274.927 -0.932562 -1.27047 0
M  V30 2802 C 276.338 -0.619451 -1.76124 0
M  V30 2803 C 276.689 0.865397 -1.76083 0
M  V30 2804 O 275.814 1.67722 -1.36742 0
M  V30 2805 C 276.409 -1.11771 -3.19832 0
M  V30 2806 C 274.968 -0.855174 -3.66557 0
M  V30 2807 C 274.115 -1.27362 -2.46321 0
M  V30 2808 H 277.066 -1.11181 -1.13245 0
M  V30 2809 H 277.087 -0.46759 -3.77616 0
M  V30 2810 H 276.599 -2.19842 -3.1983 0
M  V30 2811 H 274.7 0.211524 -3.71999 0
M  V30 2812 H 274.813 -1.47613 -4.55793 0
M  V30 2813 H 273.177 -0.692119 -2.45116 0
M  V30 2814 H 273.96 -2.36307 -2.49025 0
M  V30 2815 N 276.405 1.4127 -0.698611 0
M  V30 2816 C 277.352 2.30773 -0.0352094 0
M  V30 2817 C 278.322 1.47273 0.768111 0
M  V30 2818 O 279.507 1.76053 0.735524 0
M  V30 2819 C 276.647 3.33346 0.893 0
M  V30 2820 C 275.76 4.31924 0.0809695 0
M  V30 2821 C 274.895 5.21566 1.0071 0
M  V30 2822 C 273.934 6.11811 0.188155 0
M  V30 2823 N 273.071 6.93926 1.06825 0
M  V30 2824 H 277.911 2.86943 -0.804207 0
M  V30 2825 H 275.448 1.4132 -0.408294 0
M  V30 2826 H 277.406 3.91368 1.44523 0
M  V30 2827 H 276.036 2.78719 1.62836 0
M  V30 2828 H 275.088 3.75825 -0.588224 0
M  V30 2829 H 276.4 4.95716 -0.553801 0
M  V30 2830 H 275.554 5.84437 1.62845 0
M  V30 2831 H 274.293 4.58008 1.67572 0
M  V30 2832 H 273.298 5.47986 -0.446254 0
M  V30 2833 H 274.523 6.77425 -0.476716 0
M  V30 2834 H 272.469 6.32973 1.72283 0
M  V30 2835 H 272.386 7.54416 0.489123 0
M  V30 2836 H 273.654 7.61262 1.67632 0
M  V30 2837 N 277.883 0.443576 1.51229 0
M  V30 2838 C 279.132 -0.122332 2.01329 0
M  V30 2839 C 279.445 -1.43237 1.33201 0
M  V30 2840 O 280.651 -2.0816 1.74304 0
M  V30 2841 C 279.107 -0.268551 3.58897 0
M  V30 2842 C 278.715 1.03142 4.35965 0
M  V30 2843 C 280.459 -0.787894 4.17124 0
M  V30 2844 C 278.366 0.850504 5.85252 0
M  V30 2845 H 277.296 -0.0494929 0.752374 0
M  V30 2846 H 279.947 0.574289 1.74282 0
M  V30 2847 H 278.329 -1.02832 3.82415 0
M  V30 2848 H 279.503 1.80001 4.24189 0
M  V30 2849 H 277.818 1.47977 3.89219 0
M  V30 2850 H 280.415 -0.939841 5.26375 0
M  V30 2851 H 280.758 -1.77201 3.76703 0
M  V30 2852 H 281.291 -0.0862669 3.97706 0
M  V30 2853 H 278.03 1.80718 6.30096 0
M  V30 2854 H 277.55 0.121825 5.99676 0
M  V30 2855 H 279.229 0.506163 6.45017 0
M  V30 2856 N 279.361 -1.56624 0.175154 0
M  V30 2857 C 280.638 -1.88688 -0.515373 0
M  V30 2858 C 281.018 -1.08564 -1.81044 0
M  V30 2859 O 280.366 -0.180703 -2.27784 0
M  V30 2860 C 280.576 -3.40768 -0.753552 0
M  V30 2861 C 281.924 -4.10587 -1.08184 0
M  V30 2862 O 282.948 -3.46106 -0.841961 0
M  V30 2863 O 281.807 -5.24512 -1.53459 0
M  V30 2864 H 278.901 -0.78301 -0.26613 0
M  V30 2865 H 281.447 -1.68347 0.213877 0
M  V30 2866 H 280.219 -3.90965 0.161829 0
M  V30 2867 H 279.842 -3.66733 -1.53598 0
M  V30 2868 N 280.839 0.0985539 -1.57292 0
M  V30 2869 C 282.086 0.802678 -1.85912 0
M  V30 2870 C 282.414 1.78901 -0.763186 0
M  V30 2871 O 281.669 1.94178 0.243559 0
M  V30 2872 C 281.968 1.56927 -3.21105 0
M  V30 2873 C 281.634 0.725376 -4.45027 0
M  V30 2874 C 280.296 0.492726 -4.78671 0
M  V30 2875 C 282.648 0.138493 -5.21016 0
M  V30 2876 C 279.976 -0.336727 -5.85733 0
M  V30 2877 C 282.328 -0.678264 -6.28953 0
M  V30 2878 C 280.992 -0.921039 -6.61115 0
M  V30 2879 H 280.262 0.293721 -0.680301 0
M  V30 2880 H 282.909 0.0642841 -1.91392 0
M  V30 2881 H 281.214 2.37914 -3.11294 0
M  V30 2882 H 282.911 2.11841 -3.40477 0
M  V30 2883 H 279.501 0.916815 -4.18679 0
M  V30 2884 H 283.685 0.305404 -4.95359 0
M  V30 2885 H 278.941 -0.533836 -6.09065 0
M  V30 2886 H 283.115 -1.1399 -6.87007 0
M  V30 2887 H 280.742 -1.56556 -7.43905 0
M  V30 2888 N 282.317 1.53212 0.369288 0
M  V30 2889 C 283.249 1.75668 1.47219 0
M  V30 2890 C 284.262 0.637387 1.49804 0
M  V30 2891 O 285.451 0.913561 1.5335 0
M  V30 2892 C 282.551 1.81818 2.85999 0
M  V30 2893 C 281.724 3.11409 3.07153 0
M  V30 2894 C 280.783 3.08849 4.26026 0
M  V30 2895 O 279.809 3.82659 4.2138 0
M  V30 2896 N 281.011 2.29409 5.33246 0
M  V30 2897 H 283.776 2.70832 1.28337 0
M  V30 2898 H 281.337 1.51944 0.55898 0
M  V30 2899 H 283.329 1.77588 3.63655 0
M  V30 2900 H 281.899 0.939544 2.98146 0
M  V30 2901 H 281.119 3.28971 2.1719 0
M  V30 2902 H 282.407 3.97059 3.18154 0
M  V30 2903 H 281.805 1.68946 5.39883 0
M  V30 2904 H 280.362 2.31001 6.09493 0
M  V30 2905 N 283.795 -0.628877 1.44509 0
M  V30 2906 C 285.211 -0.947305 1.28446 0
M  V30 2907 C 285.411 -2.00275 0.221872 0
M  V30 2908 O 284.467 -2.49447 -0.391471 0
M  V30 2909 C 285.78 -1.40843 2.65676 0
M  V30 2910 C 287.328 -1.52379 2.73404 0
M  V30 2911 C 287.803 -2.01875 4.11109 0
M  V30 2912 N 289.294 -2.09142 4.13296 0
M  V30 2913 C 290.029 -2.48615 5.16699 0
M  V30 2914 N 289.525 -2.87209 6.30462 0
M  V30 2915 N 291.318 -2.48768 5.04054 0
M  V30 2916 H 283.469 0.0690977 2.12288 0
M  V30 2917 H 285.732 -0.0317164 0.947469 0
M  V30 2918 H 285.438 -0.707206 3.44516 0
M  V30 2919 H 285.312 -2.37902 2.92716 0
M  V30 2920 H 287.699 -2.21598 1.9488 0
M  V30 2921 H 287.78 -0.536898 2.50102 0
M  V30 2922 H 287.424 -1.3325 4.90109 0
M  V30 2923 H 287.354 -3.0144 4.31789 0
M  V30 2924 H 289.845 -1.81991 3.31191 0
M  V30 2925 H 290.158 -3.16149 7.05174 0
M  V30 2926 H 288.503 -2.84955 6.33897 0
M  V30 2927 H 291.694 -2.18009 4.14234 0
M  V30 2928 H 291.867 -2.79207 5.84763 0
M  V30 2929 N 285.273 -1.31445 -0.869486 0
M  V30 2930 C 286.203 -1.21727 -1.99261 0
M  V30 2931 C 287.184 -0.104359 -1.6978 0
M  V30 2932 O 288.369 -0.289038 -1.92037 0
M  V30 2933 C 285.499 -0.924317 -3.34774 0
M  V30 2934 C 284.453 -1.99685 -3.78563 0
M  V30 2935 C 283.779 -1.55658 -5.11541 0
M  V30 2936 C 285.079 -3.41003 -3.95619 0
M  V30 2937 H 286.773 -2.1569 -2.07649 0
M  V30 2938 H 284.319 -1.03839 -0.997675 0
M  V30 2939 H 286.272 -0.842934 -4.12883 0
M  V30 2940 H 284.996 0.0509793 -3.2656 0
M  V30 2941 H 283.655 -2.06813 -3.02694 0
M  V30 2942 H 283.303 -0.569132 -4.9977 0
M  V30 2943 H 283.003 -2.27409 -5.41811 0
M  V30 2944 H 284.527 -1.48928 -5.92159 0
M  V30 2945 H 285.941 -3.36547 -4.64122 0
M  V30 2946 H 284.338 -4.10975 -4.37286 0
M  V30 2947 H 285.408 -3.81754 -2.98985 0
M  V30 2948 N 286.751 1.08385 -1.14413 0
M  V30 2949 C 287.714 2.13486 -0.834048 0
M  V30 2950 C 288.714 1.59988 0.161418 0
M  V30 2951 O 289.904 1.74071 -0.0669575 0
M  V30 2952 C 287.036 3.4003 -0.243354 0
M  V30 2953 H 288.229 2.42425 -1.7655 0
M  V30 2954 H 285.782 1.24101 -0.950189 0
M  V30 2955 H 286.517 3.16726 0.696807 0
M  V30 2956 H 286.302 3.80157 -0.960367 0
M  V30 2957 H 287.792 4.17577 -0.0436242 0
M  V30 2958 N 288.23 0.939286 1.26551 0
M  V30 2959 C 289.14 0.453432 2.30176 0
M  V30 2960 C 290.156 -0.471649 1.67486 0
M  V30 2961 O 291.332 -0.35164 1.98306 0
M  V30 2962 C 288.397 -0.275326 3.45605 0
M  V30 2963 C 287.458 0.686084 4.23782 0
M  V30 2964 C 286.691 -0.00798994 5.33699 0
M  V30 2965 O 286.914 -1.22528 5.57085 0
M  V30 2966 O 285.848 0.669746 5.98162 0
M  V30 2967 H 289.674 1.31416 2.73795 0
M  V30 2968 H 287.259 0.705095 1.31715 0
M  V30 2969 H 289.141 -0.685911 4.1578 0
M  V30 2970 H 287.816 -1.11147 3.0402 0
M  V30 2971 H 286.723 1.14658 3.56096 0
M  V30 2972 H 288.056 1.48979 4.69112 0
M  V30 2973 N 289.708 -1.40897 0.706093 0
M  V30 2974 C 290.957 -2.00284 0.238574 0
M  V30 2975 C 291.27 -1.56604 -1.17194 0
M  V30 2976 O 292.476 -2.08624 -1.73748 0
M  V30 2977 C 290.932 -3.57934 0.375623 0
M  V30 2978 C 290.54 -4.10591 1.79217 0
M  V30 2979 C 292.284 -4.24488 -0.0315857 0
M  V30 2980 C 290.191 -5.60712 1.88032 0
M  V30 2981 H 289.121 -0.749144 0.0854398 0
M  V30 2982 H 291.772 -1.61251 0.875813 0
M  V30 2983 H 290.154 -3.94622 -0.330042 0
M  V30 2984 H 291.328 -3.85301 2.52745 0
M  V30 2985 H 289.643 -3.56601 2.15 0
M  V30 2986 H 292.24 -5.34698 0.0136842 0
M  V30 2987 H 292.583 -4.02261 -1.072 0
M  V30 2988 H 293.116 -3.92873 0.624181 0
M  V30 2989 H 289.855 -5.87781 2.90161 0
M  V30 2990 H 289.375 -5.87896 1.18903 0
M  V30 2991 H 291.054 -6.25658 1.64805 0
M  V30 2992 N 291.186 -0.45159 -1.50991 0
M  V30 2993 C 292.602 -0.104647 -1.59257 0
M  V30 2994 C 292.802 1.38728 -1.4614 0
M  V30 2995 O 291.858 2.15866 -1.30989 0
M  V30 2996 C 293.171 -0.637468 -2.93865 0
M  V30 2997 C 294.719 -0.599166 -3.07212 0
M  V30 2998 C 295.194 -1.1092 -4.44366 0
M  V30 2999 N 296.685 -1.06778 -4.50725 0
M  V30 3000 C 297.42 -1.43314 -5.55201 0
M  V30 3001 N 296.916 -1.87204 -6.67028 0
M  V30 3002 N 298.709 -1.3504 -5.45638 0
M  V30 3003 H 290.86 -1.42214 -1.57762 0
M  V30 3004 H 293.123 -0.586921 -0.744465 0
M  V30 3005 H 292.829 -1.68187 -3.08879 0
M  V30 3006 H 292.703 -0.0702139 -3.77135 0
M  V30 3007 H 295.09 0.436277 -2.91857 0
M  V30 3008 H 295.171 -1.20299 -2.25747 0
M  V30 3009 H 294.815 -2.14318 -4.60467 0
M  V30 3010 H 294.745 -0.481773 -5.24392 0
M  V30 3011 H 297.236 -0.745643 -3.70471 0
M  V30 3012 H 297.549 -2.13282 -7.42786 0
M  V30 3013 H 295.894 -1.91142 -6.68199 0
M  V30 3014 H 299.085 -1.00607 -4.57161 0
M  V30 3015 H 299.258 -1.63841 -6.26945 0
M  V30 3016 N 292.664 1.56529 -0.183458 0
M  V30 3017 C 293.574 2.22144 0.754272 0
M  V30 3018 C 294.59 1.21684 1.24374 0
M  V30 3019 O 295.766 1.54385 1.29333 0
M  V30 3020 C 292.831 2.85884 1.96141 0
M  V30 3021 C 291.892 4.01579 1.51765 0
M  V30 3022 C 291.125 4.6227 2.66725 0
M  V30 3023 O 291.348 4.21865 3.83909 0
M  V30 3024 O 290.282 5.51936 2.40104 0
M  V30 3025 H 294.108 3.02861 0.225527 0
M  V30 3026 H 291.693 1.49331 0.0453032 0
M  V30 3027 H 293.575 3.26253 2.66715 0
M  V30 3028 H 292.25 2.08154 2.47899 0
M  V30 3029 H 291.157 3.65856 0.781049 0
M  V30 3030 H 292.49 4.80938 1.04686 0
M  V30 3031 N 294.142 -0.090211 1.57342 0
M  V30 3032 C 295.388 -0.793982 1.86611 0
M  V30 3033 C 295.721 -1.78142 0.773252 0
M  V30 3034 O 294.996 -1.93271 -0.218304 0
M  V30 3035 C 295.279 -1.51839 3.26523 0
M  V30 3036 C 295.132 -0.548609 4.46442 0
M  V30 3037 C 296.451 -2.46779 3.64401 0
M  V30 3038 H 293.57 -0.287186 0.678744 0
M  V30 3039 H 296.212 -0.0575076 1.89913 0
M  V30 3040 H 294.362 -2.14617 3.23839 0
M  V30 3041 H 296.034 0.0725513 4.61243 0
M  V30 3042 H 294.277 0.137614 4.33582 0
M  V30 3043 H 294.948 -1.09271 5.41076 0
M  V30 3044 H 297.424 -1.94089 3.68061 0
M  V30 3045 H 296.3 -2.94479 4.63221 0
M  V30 3046 H 296.561 -3.30758 2.93346 0
M  V30 3047 N 295.62 -1.53406 -0.361157 0
M  V30 3048 C 296.866 -1.70054 -1.10496 0
M  V30 3049 C 297.199 -0.453278 -1.88836 0
M  V30 3050 O 296.474 0.5495 -1.86576 0
M  V30 3051 C 296.757 -2.95317 -2.06058 0
M  V30 3052 C 296.61 -4.3021 -1.31298 0
M  V30 3053 C 297.929 -3.16193 -3.06121 0
M  V30 3054 H 295.048 -0.618799 -0.400321 0
M  V30 3055 H 297.69 -1.86052 -0.385318 0
M  V30 3056 H 295.84 -2.81809 -2.67425 0
M  V30 3057 H 297.512 -4.55538 -0.726807 0
M  V30 3058 H 295.755 -4.29421 -0.614853 0
M  V30 3059 H 296.426 -5.14 -2.01265 0
M  V30 3060 H 298.902 -3.28916 -2.5486 0
M  V30 3061 H 297.778 -4.05266 -3.70204 0
M  V30 3062 H 298.039 -2.31676 -3.76535 0
M  V30 3063 N 297.098 0.621204 -1.44841 0
M  V30 3064 C 298.375 1.38 -1.38619 0
M  V30 3065 C 298.755 2.11041 -0.0498935 0
M  V30 3066 O 298.103 2.06992 0.967816 0
M  V30 3067 C 298.313 2.33817 -2.59096 0
M  V30 3068 C 299.661 2.96844 -3.03593 0
M  V30 3069 O 300.685 2.44141 -2.59371 0
M  V30 3070 O 299.544 3.92476 -3.80296 0
M  V30 3071 H 296.638 0.61811 -0.549426 0
M  V30 3072 H 299.184 0.645429 -1.56947 0
M  V30 3073 H 297.956 1.79012 -3.47952 0
M  V30 3074 H 297.579 3.14676 -2.43032 0
M  V30 3075 N 298.576 1.31904 0.862503 0
M  V30 3076 C 299.822 1.22197 1.61851 0
M  V30 3077 C 300.155 -0.217641 1.92977 0
M  V30 3078 O 299.43 -1.15264 1.56666 0
M  V30 3079 C 299.713 2.07378 2.94391 0
M  V30 3080 C 299.566 3.59678 2.70096 0
M  V30 3081 C 300.885 1.92891 3.95577 0
M  V30 3082 H 298.004 0.445255 0.587296 0
M  V30 3083 H 300.646 1.6177 0.99651 0
M  V30 3084 H 298.796 1.73758 3.47477 0
M  V30 3085 H 300.468 4.03472 2.23625 0
M  V30 3086 H 298.711 3.82735 2.04197 0
M  V30 3087 H 299.382 4.14595 3.64438 0
M  V30 3088 H 301.858 2.22327 3.51724 0
M  V30 3089 H 300.734 2.54781 4.86187 0
M  V30 3090 H 300.995 0.894315 4.3296 0
M  V30 3091 N 300.054 -1.07777 1.14986 0
M  V30 3092 C 301.465 -1.61766 0.932127 0
M  V30 3093 C 301.816 -1.88974 -0.527581 0
M  V30 3094 O 300.941 -1.65198 -1.39781 0
M  V30 3095 C 301.536 -2.93891 1.68563 0
M  V30 3096 C 300.095 -3.44639 1.5133 0
M  V30 3097 C 299.242 -2.18767 1.704 0
M  V30 3098 H 302.193 -0.909201 1.30074 0
M  V30 3099 H 302.214 -3.62623 1.15259 0
M  V30 3100 H 301.726 -2.74057 2.74799 0
M  V30 3101 H 299.827 -3.69564 0.474702 0
M  V30 3102 H 299.94 -4.20966 2.28746 0
M  V30 3103 H 298.304 -2.28253 1.13016 0
M  V30 3104 H 299.087 -2.01433 2.77992 0
M  V30 3105 N 301.532 -0.945985 -1.26051 0
M  V30 3106 C 302.462 -0.477172 -2.28572 0
M  V30 3107 C 303.443 0.472032 -1.63419 0
M  V30 3108 O 304.628 0.372853 -1.90587 0
M  V30 3109 C 301.758 0.253975 -3.4637 0
M  V30 3110 C 300.712 -0.609135 -4.23643 0
M  V30 3111 C 300.038 0.252252 -5.34105 0
M  V30 3112 C 301.338 -1.8829 -4.8718 0
M  V30 3113 H 303.032 -1.33402 -2.68038 0
M  V30 3114 H 300.578 -0.642904 -1.28852 0
M  V30 3115 H 302.531 0.593016 -4.17207 0
M  V30 3116 H 301.255 1.145 -3.05871 0
M  V30 3117 H 299.914 -0.931138 -3.54578 0
M  V30 3118 H 299.562 1.14278 -4.89846 0
M  V30 3119 H 299.262 -0.32188 -5.86718 0
M  V30 3120 H 300.786 0.586454 -6.07777 0
M  V30 3121 H 302.2 -1.61081 -5.50205 0
M  V30 3122 H 300.597 -2.40199 -5.49931 0
M  V30 3123 H 301.667 -2.59134 -4.09851 0
M  V30 3124 N 303.011 1.40521 -0.713556 0
M  V30 3125 C 304.257 2.01221 -0.252564 0
M  V30 3126 C 304.59 1.56444 1.1506 0
M  V30 3127 O 303.865 0.783597 1.78017 0
M  V30 3128 C 304.148 3.58582 -0.330332 0
M  V30 3129 C 304.001 4.13437 -1.77173 0
M  V30 3130 C 305.32 4.39079 0.299641 0
M  V30 3131 H 302.439 0.731077 -0.0932471 0
M  V30 3132 H 305.081 1.67026 -0.905673 0
M  V30 3133 H 303.231 3.87844 0.225737 0
M  V30 3134 H 304.903 3.9498 -2.38303 0
M  V30 3135 H 303.146 3.67801 -2.3001 0
M  V30 3136 H 303.817 5.22597 -1.77755 0
M  V30 3137 H 306.293 4.15735 -0.174139 0
M  V30 3138 H 305.169 5.4848 0.214771 0
M  V30 3139 H 305.43 4.19915 1.38288 0
M  V30 3140 N 304.489 0.459591 1.5075 0
M  V30 3141 C 305.419 -0.330644 2.31147 0
M  V30 3142 C 306.4 -1.00087 1.37538 0
M  V30 3143 O 307.585 -1.00025 1.66459 0
M  V30 3144 C 304.715 -1.41958 3.16962 0
M  V30 3145 C 303.669 -0.871608 4.19031 0
M  V30 3146 C 302.995 -2.05797 4.9351 0
M  V30 3147 C 304.295 0.109251 5.22186 0
M  V30 3148 H 305.989 0.340336 2.97459 0
M  V30 3149 H 303.535 0.165119 1.4305 0
M  V30 3150 H 305.488 -1.9798 3.71997 0
M  V30 3151 H 304.212 -2.11917 2.48513 0
M  V30 3152 H 302.871 -0.333442 3.6508 0
M  V30 3153 H 302.519 -2.74427 4.21544 0
M  V30 3154 H 302.219 -1.6976 5.62544 0
M  V30 3155 H 303.743 -2.62331 5.51375 0
M  V30 3156 H 305.157 -0.361405 5.7216 0
M  V30 3157 H 303.554 0.383316 5.98875 0
M  V30 3158 H 304.624 1.03887 4.73641 0
M  V30 3159 N 305.967 -1.56429 0.191757 0
M  V30 3160 C 306.917 -2.15548 -0.743184 0
M  V30 3161 C 307.901 -1.09531 -1.17863 0
M  V30 3162 O 309.093 -1.35602 -1.13759 0
M  V30 3163 C 306.222 -2.81577 -1.96391 0
M  V30 3164 C 305.308 -3.9478 -1.54951 0
M  V30 3165 N 305.699 -4.98677 -0.845876 0
M  V30 3166 C 303.997 -4.06319 -1.83905 0
M  V30 3167 C 304.698 -5.78183 -0.638724 0
M  V30 3168 N 303.674 -5.30495 -1.18643 0
M  V30 3169 H 307.476 -2.9324 -0.196839 0
M  V30 3170 H 304.99 -1.62398 -0.0081603 0
M  V30 3171 H 306.987 -3.22321 -2.64415 0
M  V30 3172 H 305.647 -2.05371 -2.51501 0
M  V30 3173 H 306.658 -5.15464 -0.501704 0
M  V30 3174 H 303.335 -3.41238 -2.40548 0
M  V30 3175 H 304.725 -6.71851 -0.0807929 0
M  V30 3176 N 307.445 0.0818655 -1.57387 0
M  V30 3177 C 308.693 0.781368 -1.86384 0
M  V30 3178 C 309.014 1.78618 -0.782342 0
M  V30 3179 O 308.284 1.94976 0.190061 0
M  V30 3180 H 306.864 0.291562 -0.687751 0
M  V30 3181 H 309.526 0.060348 -1.94807 0
M  V30 3182 H 308.622 1.3038 -2.83562 0
M  V30 3183 N 308.923 1.53595 0.353017 0
M  V30 3184 C 309.886 1.80232 1.41594 0
M  V30 3185 C 310.886 0.673081 1.46035 0
M  V30 3186 O 312.076 0.941335 1.46576 0
M  V30 3187 C 309.208 1.93578 2.80607 0
M  V30 3188 H 310.401 2.75174 1.19244 0
M  V30 3189 H 307.954 1.44864 0.586872 0
M  V30 3190 H 308.689 1.00746 3.08254 0
M  V30 3191 H 308.474 2.75724 2.78781 0
M  V30 3192 H 309.964 2.15735 3.57558 0
M  V30 3193 N 310.401 -0.613514 1.45168 0
M  V30 3194 C 311.626 -1.40437 1.52618 0
M  V30 3195 C 312.051 -1.87438 0.157707 0
M  V30 3196 O 311.409 -1.59791 -0.856537 0
M  V30 3197 C 311.457 -2.58894 2.51011 0
M  V30 3198 O 310.561 -3.59326 2.02382 0
M  V30 3199 H 309.902 -0.419506 0.514695 0
M  V30 3200 H 312.432 -0.747215 1.90467 0
M  V30 3201 H 312.442 -3.06214 2.69624 0
M  V30 3202 H 311.117 -2.24032 3.50403 0
M  V30 3203 H 309.694 -3.18695 1.93618 0
M  V30 3204 N 311.879 -1.3236 -0.855495 0
M  V30 3205 C 313.156 -1.13491 -1.59309 0
M  V30 3206 C 313.536 0.30503 -2.08885 0
M  V30 3207 O 312.884 1.30151 -1.87811 0
M  V30 3208 C 313.094 -2.16176 -2.73987 0
M  V30 3209 C 314.442 -2.49463 -3.43589 0
M  V30 3210 O 315.466 -2.14715 -2.84211 0
M  V30 3211 O 314.325 -3.09027 -4.50738 0
M  V30 3212 H 311.419 -0.437887 -0.701559 0
M  V30 3213 H 313.965 -1.43887 -0.899696 0
M  V30 3214 H 312.737 -3.1297 -2.34873 0
M  V30 3215 H 312.36 -1.86769 -3.51003 0
M  V30 3216 N 313.357 1.07166 -1.15556 0
M  V30 3217 C 314.603 1.80065 -0.932984 0
M  V30 3218 C 314.936 1.86586 0.53845 0
M  V30 3219 O 314.211 1.35098 1.39924 0
M  V30 3220 C 314.494 3.25022 -1.55025 0
M  V30 3221 C 314.347 3.26634 -3.09242 0
M  V30 3222 C 315.666 4.22341 -1.2376 0
M  V30 3223 H 312.785 0.653697 -0.340366 0
M  V30 3224 H 315.427 1.25389 -1.4275 0
M  V30 3225 H 313.577 3.71712 -1.12972 0
M  V30 3226 H 315.249 2.88173 -3.60214 0
M  V30 3227 H 313.492 2.65539 -3.43033 0
M  V30 3228 H 314.163 4.28854 -3.47546 0
M  V30 3229 H 316.639 3.8405 -1.60139 0
M  V30 3230 H 315.515 5.22053 -1.69564 0
M  V30 3231 H 315.776 4.41828 -0.154938 0
M  V30 3232 N 314.835 0.952656 1.25548 0
M  V30 3233 C 316.246 0.647392 1.75116 0
M  V30 3234 C 316.597 -0.837274 1.77438 0
M  V30 3235 O 315.722 -1.65525 1.39393 0
M  V30 3236 C 316.317 1.16845 3.18014 0
M  V30 3237 C 314.876 0.913382 3.6515 0
M  V30 3238 C 314.023 1.31265 2.44264 0
M  V30 3239 H 316.974 1.12968 1.11462 0
M  V30 3240 H 316.995 0.527606 3.76824 0
M  V30 3241 H 316.507 2.24902 3.16292 0
M  V30 3242 H 314.608 -0.152316 3.72289 0
M  V30 3243 H 314.721 1.54845 4.53387 0
M  V30 3244 H 313.085 0.731028 2.43984 0
M  V30 3245 H 313.868 2.40239 2.45234 0
M  V30 3246 N 316.313 -1.40141 0.720998 0
M  V30 3247 C 317.59 -1.94677 0.189757 0
M  V30 3248 C 317.97 -1.65879 -1.30566 0
M  V30 3249 O 317.318 -0.979391 -2.06447 0
M  V30 3250 C 317.528 -3.45279 0.508304 0
M  V30 3251 C 318.876 -4.22209 0.449934 0
M  V30 3252 O 319.9 -3.53413 0.444677 0
M  V30 3253 O 318.759 -5.44788 0.432189 0
M  V30 3254 H 315.853 -0.826459 0.0299026 0
M  V30 3255 H 318.399 -1.49719 0.7989 0
M  V30 3256 H 317.171 -3.59619 1.54239 0
M  V30 3257 H 316.794 -3.97386 -0.130525 0
M  V30 3258 N 317.792 -0.46758 -1.50504 0
M  V30 3259 C 318.702 0.33382 -2.32213 0
M  V30 3260 C 319.718 0.999323 -1.42441 0
M  V30 3261 O 320.894 0.988068 -1.75497 0
M  V30 3262 C 317.959 1.4035 -3.17022 0
M  V30 3263 C 317.02 0.754961 -4.2261 0
M  V30 3264 C 316.253 1.77367 -5.03365 0
M  V30 3265 O 316.476 2.99976 -4.8515 0
M  V30 3266 O 315.41 1.34744 -5.86624 0
M  V30 3267 H 319.236 -0.334067 -3.01857 0
M  V30 3268 H 316.821 -0.229496 -1.47627 0
M  V30 3269 H 318.703 2.02318 -3.69656 0
M  V30 3270 H 317.378 2.05492 -2.5011 0
M  V30 3271 H 316.285 0.0964244 -3.73976 0
M  V30 3272 H 317.618 0.146545 -4.91982 0
M  V30 3273 N 319.27 1.56325 -0.20005 0
M  V30 3274 C 320.517 1.97719 0.437411 0
M  V30 3275 C 320.845 1.08709 1.61284 0
M  V30 3276 O 320.1 0.127261 1.95286 0
M  V30 3277 C 320.399 3.4495 0.935103 0
M  V30 3278 C 320.065 4.5072 -0.12749 0
M  V30 3279 C 318.727 4.79368 -0.419451 0
M  V30 3280 C 321.079 5.14268 -0.847231 0
M  V30 3281 C 318.407 5.68854 -1.43604 0
M  V30 3282 C 320.759 6.04852 -1.85301 0
M  V30 3283 C 319.423 6.31855 -2.15211 0
M  V30 3284 H 318.693 0.723507 0.16006 0
M  V30 3285 H 321.34 1.89166 -0.298056 0
M  V30 3286 H 319.645 3.50599 1.74894 0
M  V30 3287 H 321.342 3.74337 1.43781 0
M  V30 3288 H 317.932 4.28458 0.11023 0
M  V30 3289 H 322.116 4.92222 -0.634901 0
M  V30 3290 H 317.372 5.88047 -1.67364 0
M  V30 3291 H 321.546 6.53152 -2.41591 0
M  V30 3292 H 319.173 7.00994 -2.94129 0
M  V30 3293 N 320.748 -0.0735177 1.57428 0
M  V30 3294 C 321.994 -0.774145 1.87443 0
M  V30 3295 C 322.327 -1.77311 0.792103 0
M  V30 3296 O 321.602 -1.93492 -0.197793 0
M  V30 3297 C 321.885 -1.48367 3.28115 0
M  V30 3298 C 321.738 -0.501227 4.46999 0
M  V30 3299 C 323.057 -2.429 3.66998 0
M  V30 3300 H 320.176 -0.279971 0.681752 0
M  V30 3301 H 322.818 -0.0373616 1.89963 0
M  V30 3302 H 320.968 -2.11171 3.26097 0
M  V30 3303 H 322.64 0.121468 4.6114 0
M  V30 3304 H 320.883 0.183593 4.33411 0
M  V30 3305 H 321.554 -1.03526 5.42205 0
M  V30 3306 H 324.03 -1.90175 3.70098 0
M  V30 3307 H 322.906 -2.89549 4.66318 0
M  V30 3308 H 323.167 -3.27628 2.96837 0
M  V30 3309 N 322.226 -1.5378 -0.344866 0
M  V30 3310 C 323.642 -1.44015 -0.687888 0
M  V30 3311 C 323.842 -0.595834 -1.92489 0
M  V30 3312 O 322.898 -0.0863064 -2.52352 0
M  V30 3313 C 324.211 -2.87481 -0.881758 0
M  V30 3314 C 325.759 -2.97247 -0.980459 0
M  V30 3315 C 326.234 -4.41819 -1.20665 0
M  V30 3316 N 327.725 -4.45339 -1.27389 0
M  V30 3317 C 328.46 -5.54333 -1.46639 0
M  V30 3318 N 327.956 -6.73335 -1.63071 0
M  V30 3319 N 329.749 -5.41944 -1.49176 0
M  V30 3320 H 321.9 -2.07169 0.468475 0
M  V30 3321 H 324.163 -0.93643 0.147655 0
M  V30 3322 H 323.869 -3.51672 -0.0443444 0
M  V30 3323 H 323.743 -3.32352 -1.78388 0
M  V30 3324 H 326.13 -2.33197 -1.8084 0
M  V30 3325 H 326.211 -2.5574 -0.0552713 0
M  V30 3326 H 325.855 -5.06449 -0.383652 0
M  V30 3327 H 325.785 -4.80917 -2.14539 0
M  V30 3328 H 328.276 -3.59585 -1.1622 0
M  V30 3329 H 328.589 -7.52165 -1.77391 0
M  V30 3330 H 326.934 -6.76282 -1.60209 0
M  V30 3331 H 330.125 -4.47932 -1.3592 0
M  V30 3332 H 330.298 -6.26946 -1.63837 0
M  V30 3333 N 323.704 0.605807 -1.45491 0
M  V30 3334 C 325.12 0.926751 -1.29936 0
M  V30 3335 C 325.32 1.99896 -0.253706 0
M  V30 3336 O 324.376 2.50038 0.351737 0
M  V30 3337 C 325.689 1.36599 -2.67883 0
M  V30 3338 C 327.237 1.4801 -2.75793 0
M  V30 3339 C 327.712 1.95309 -4.14268 0
M  V30 3340 N 329.203 2.0254 -4.16571 0
M  V30 3341 C 329.938 2.40363 -5.20589 0
M  V30 3342 N 329.434 2.77143 -6.34952 0
M  V30 3343 N 331.227 2.40718 -5.07948 0
M  V30 3344 H 323.378 -0.102862 -2.12151 0
M  V30 3345 H 325.641 0.016639 -0.947854 0
M  V30 3346 H 325.347 0.652306 -3.45598 0
M  V30 3347 H 325.221 2.33215 -2.96463 0
M  V30 3348 H 327.608 2.1847 -1.98381 0
M  V30 3349 H 327.689 0.497041 -2.50925 0
M  V30 3350 H 327.333 1.25436 -4.92167 0
M  V30 3351 H 327.263 2.94532 -4.3653 0
M  V30 3352 H 329.754 1.76699 -3.34045 0
M  V30 3353 H 330.067 3.0489 -7.10114 0
M  V30 3354 H 328.412 2.74834 -6.3835 0
M  V30 3355 H 331.603 2.11392 -4.1765 0
M  V30 3356 H 331.776 2.69869 -5.89131 0
M  V30 3357 N 325.182 1.32811 0.848464 0
M  V30 3358 C 326.41 1.26739 1.63538 0
M  V30 3359 C 326.825 -0.163484 1.88091 0
M  V30 3360 O 326.182 -1.10258 1.45429 0
M  V30 3361 C 326.233 2.03013 2.99112 0
M  V30 3362 O 325.954 3.40518 2.75643 0
M  V30 3363 C 327.455 2.04038 3.93552 0
M  V30 3364 H 324.675 0.437024 0.509167 0
M  V30 3365 H 327.219 1.75033 1.05753 0
M  V30 3366 H 325.374 1.58426 3.53525 0
M  V30 3367 H 325.788 3.79635 3.61908 0
M  V30 3368 H 327.262 2.61877 4.85926 0
M  V30 3369 H 327.739 1.0282 4.26995 0
M  V30 3370 H 328.345 2.486 3.45077 0
M  V30 3371 N 326.66 -1.06551 1.16123 0
M  V30 3372 C 327.909 -1.78687 0.935622 0
M  V30 3373 C 328.222 -1.88056 -0.538001 0
M  V30 3374 O 329.428 -2.56794 -0.88143 0
M  V30 3375 C 327.884 -3.21143 1.62466 0
M  V30 3376 C 327.492 -3.19949 3.13587 0
M  V30 3377 C 329.236 -3.9783 1.48092 0
M  V30 3378 C 327.143 -4.57108 3.75241 0
M  V30 3379 H 326.073 -0.669712 0.346412 0
M  V30 3380 H 328.724 -1.19534 1.39226 0
M  V30 3381 H 327.106 -3.80539 1.09572 0
M  V30 3382 H 328.28 -2.70151 3.73303 0
M  V30 3383 H 326.595 -2.5676 3.27816 0
M  V30 3384 H 329.192 -4.99217 1.91538 0
M  V30 3385 H 329.535 -4.14078 0.429507 0
M  V30 3386 H 330.068 -3.4495 1.98127 0
M  V30 3387 H 326.807 -4.46065 4.80319 0
M  V30 3388 H 326.327 -5.07111 3.20309 0
M  V30 3389 H 328.006 -5.26069 3.76644 0
M  V30 3390 N 328.138 -0.959301 -1.25041 0
M  V30 3391 C 329.048 -0.489994 -2.29426 0
M  V30 3392 C 330.064 0.444944 -1.68215 0
M  V30 3393 O 331.24 0.320046 -1.98841 0
M  V30 3394 C 328.305 0.220309 -3.45999 0
M  V30 3395 C 327.366 -0.753418 -4.22637 0
M  V30 3396 C 326.599 -0.076918 -5.33645 0
M  V30 3397 O 326.822 1.13649 -5.58963 0
M  V30 3398 O 325.756 -0.764824 -5.97021 0
M  V30 3399 H 329.582 -1.35755 -2.71669 0
M  V30 3400 H 327.167 -0.725961 -1.30576 0
M  V30 3401 H 329.049 0.619677 -4.16819 0
M  V30 3402 H 327.724 1.06296 -3.0575 0
M  V30 3403 H 326.631 -1.20308 -3.54227 0
M  V30 3404 H 327.964 -1.56423 -4.66683 0
M  V30 3405 N 329.616 1.39756 -0.72842 0
M  V30 3406 C 330.546 2.33289 -0.0991354 0
M  V30 3407 C 331.527 1.53568 0.731489 0
M  V30 3408 O 332.712 1.81987 0.677807 0
M  V30 3409 C 329.842 3.3763 0.813834 0
M  V30 3410 C 328.796 4.2791 0.0878663 0
M  V30 3411 C 328.122 5.22894 1.11741 0
M  V30 3412 C 329.422 5.11314 -1.06563 0
M  V30 3413 H 331.116 2.86163 -0.880408 0
M  V30 3414 H 328.662 1.37591 -0.424819 0
M  V30 3415 H 330.615 4.0201 1.26355 0
M  V30 3416 H 329.339 2.83181 1.62715 0
M  V30 3417 H 327.998 3.65 -0.342159 0
M  V30 3418 H 327.646 4.64744 1.92412 0
M  V30 3419 H 327.346 5.84143 0.636477 0
M  V30 3420 H 328.87 5.90151 1.56697 0
M  V30 3421 H 330.284 5.69076 -0.694671 0
M  V30 3422 H 328.681 5.81671 -1.47577 0
M  V30 3423 H 329.751 4.46534 -1.89038 0
M  V30 3424 N 331.094 0.475555 1.50254 0
M  V30 3425 C 332.342 -0.077738 2.0195 0
M  V30 3426 C 332.663 -1.39813 1.35931 0
M  V30 3427 O 331.933 -1.89249 0.506123 0
M  V30 3428 H 330.513 -0.031719 0.746326 0
M  V30 3429 H 333.175 0.626995 1.84539 0
M  V30 3430 H 332.271 -0.225995 3.11281 0
M  V30 3431 N 332.573 -1.56217 0.208337 0
M  V30 3432 C 333.819 -1.98242 -0.427552 0
M  V30 3433 C 334.152 -1.09554 -1.60348 0
M  V30 3434 O 333.427 -0.15035 -1.93918 0
M  V30 3435 C 333.71 -3.4931 -0.874907 0
M  V30 3436 C 333.563 -4.48773 0.303751 0
M  V30 3437 C 334.882 -4.04424 -1.73577 0
M  V30 3438 H 332.001 -0.720744 -0.153936 0
M  V30 3439 H 334.643 -1.87586 0.30192 0
M  V30 3440 H 332.793 -3.58522 -1.49648 0
M  V30 3441 H 334.465 -4.51586 0.941682 0
M  V30 3442 H 332.708 -4.23194 0.953375 0
M  V30 3443 H 333.379 -5.51976 -0.0519883 0
M  V30 3444 H 335.855 -3.98075 -1.21143 0
M  V30 3445 H 334.731 -5.1047 -2.01771 0
M  V30 3446 H 334.992 -3.50494 -2.69456 0
M  V30 3447 N 334.051 0.0651679 -1.57465 0
M  V30 3448 C 335.279 0.775808 -1.91804 0
M  V30 3449 C 335.694 1.70782 -0.804916 0
M  V30 3450 O 335.051 1.81153 0.221311 0
M  V30 3451 C 335.102 1.56381 -3.25925 0
M  V30 3452 O 334.823 0.669248 -4.32958 0
M  V30 3453 C 336.324 2.37485 -3.7432 0
M  V30 3454 H 333.544 0.2202 -0.63384 0
M  V30 3455 H 336.088 0.0334587 -2.04473 0
M  V30 3456 H 334.243 2.25837 -3.14764 0
M  V30 3457 H 334.657 1.21801 -5.10162 0
M  V30 3458 H 336.131 2.88223 -4.70778 0
M  V30 3459 H 336.608 3.17307 -3.03666 0
M  V30 3460 H 337.214 1.73173 -3.88447 0
M  V30 3461 N 335.529 1.53961 0.336706 0
M  V30 3462 C 336.476 1.82428 1.41381 0
M  V30 3463 C 337.446 0.670444 1.51968 0
M  V30 3464 O 338.631 0.915565 1.67398 0
M  V30 3465 C 335.771 2.04564 2.77934 0
M  V30 3466 C 334.884 3.32267 2.76084 0
M  V30 3467 C 334.019 3.44434 4.04399 0
M  V30 3468 C 333.058 4.66061 3.96804 0
M  V30 3469 N 332.195 4.75224 5.16823 0
M  V30 3470 H 337.035 2.74324 1.16405 0
M  V30 3471 H 334.572 1.35869 0.563752 0
M  V30 3472 H 336.53 2.15388 3.57301 0
M  V30 3473 H 335.16 1.15974 3.01247 0
M  V30 3474 H 334.212 3.3025 1.88784 0
M  V30 3475 H 335.524 4.21733 2.66351 0
M  V30 3476 H 334.678 3.54728 4.92192 0
M  V30 3477 H 333.417 2.53037 4.16921 0
M  V30 3478 H 332.422 4.55838 3.07396 0
M  V30 3479 H 333.647 5.58829 3.85858 0
M  V30 3480 H 331.593 3.86739 5.29876 0
M  V30 3481 H 331.51 5.58636 5.09374 0
M  V30 3482 H 332.778 4.89835 6.06367 0
M  V30 3483 N 337.007 -0.598083 1.45811 0
M  V30 3484 C 338.253 -1.35882 1.50545 0
M  V30 3485 C 338.586 -1.93616 0.150445 0
M  V30 3486 O 337.861 -1.75604 -0.83628 0
M  V30 3487 C 338.144 -2.49966 2.59208 0
M  V30 3488 C 337.997 -1.97367 4.04186 0
M  V30 3489 C 339.316 -3.52068 2.64076 0
M  V30 3490 H 336.435 -0.492717 0.548087 0
M  V30 3491 H 339.077 -0.673319 1.77669 0
M  V30 3492 H 337.227 -3.08443 2.3621 0
M  V30 3493 H 338.899 -1.43466 4.38423 0
M  V30 3494 H 337.142 -1.283 4.14393 0
M  V30 3495 H 337.813 -2.79649 4.75921 0
M  V30 3496 H 340.289 -3.03448 2.84708 0
M  V30 3497 H 339.165 -4.2937 3.41954 0
M  V30 3498 H 339.426 -4.08304 1.69531 0
M  V30 3499 N 338.485 -1.33259 -0.841409 0
M  V30 3500 C 339.433 -1.23279 -1.97244 0
M  V30 3501 C 340.427 -0.134706 -1.68864 0
M  V30 3502 O 341.633 -0.298501 -1.77508 0
M  V30 3503 H 338.008 -0.382497 -0.647457 0
M  V30 3504 H 339.979 -2.18906 -2.02787 0
M  V30 3505 C 338.728 -0.986268 -3.33419 0
M  V30 3506 H 338.051 -1.82347 -3.55794 0
M  V30 3507 H 339.491 -0.956728 -4.13065 0
M  V30 3508 C 337.95 0.310842 -3.35463 0
M  V30 3509 O 338.48 1.31838 -3.79449 0
M  V30 3510 N 336.686 0.337485 -2.88634 0
M  V30 3511 H 336.233 -0.482967 -2.53032 0
M  V30 3512 H 336.191 1.20518 -2.90384 0
M  V30 3513 N 339.963 1.05934 -1.16686 0
M  V30 3514 C 341.209 1.79065 -0.95203 0
M  V30 3515 C 341.542 1.87147 0.518629 0
M  V30 3516 O 340.817 1.36574 1.38484 0
M  V30 3517 C 341.1 3.23359 -1.58464 0
M  V30 3518 C 340.953 3.23336 -3.12689 0
M  V30 3519 C 342.272 4.21004 -1.28232 0
M  V30 3520 H 339.391 0.65005 -0.34728 0
M  V30 3521 H 342.033 1.23868 -1.44072 0
M  V30 3522 H 340.183 3.70493 -1.16908 0
M  V30 3523 H 341.855 2.84336 -3.6325 0
M  V30 3524 H 340.098 2.61886 -3.4583 0
M  V30 3525 H 340.769 4.25144 -3.52075 0
M  V30 3526 H 343.245 3.8233 -1.64203 0
M  V30 3527 H 342.121 5.20225 -1.75092 0
M  V30 3528 H 342.382 4.41639 -0.201791 0
M  V30 3529 N 341.441 0.965919 1.2453 0
M  V30 3530 C 342.404 0.499547 2.2369 0
M  V30 3531 C 343.404 -0.40294 1.5567 0
M  V30 3532 O 344.594 -0.19865 1.73064 0
M  V30 3533 C 341.726 -0.276792 3.39774 0
M  V30 3534 H 342.919 1.37613 2.66463 0
M  V30 3535 H 340.472 0.750324 1.37112 0
M  V30 3536 H 341.207 -1.17055 3.02438 0
M  V30 3537 H 340.992 0.370826 3.90343 0
M  V30 3538 H 342.482 -0.592175 4.1338 0
M  V30 3539 N 342.919 -1.39368 0.735821 0
M  V30 3540 C 344.147 -2.04795 0.294393 0
M  V30 3541 C 344.562 -1.55478 -1.07107 0
M  V30 3542 O 343.919 -0.720038 -1.67695 0
M  V30 3543 C 343.97 -3.6035 0.288071 0
M  V30 3544 O 343.691 -4.07852 1.59963 0
M  V30 3545 C 345.192 -4.42976 -0.169422 0
M  V30 3546 H 342.412 -0.658571 0.128551 0
M  V30 3547 H 344.956 -1.78399 0.999701 0
M  V30 3548 H 343.111 -3.85645 -0.368355 0
M  V30 3549 H 343.525 -5.02181 1.51375 0
M  V30 3550 H 344.999 -5.51864 -0.122687 0
M  V30 3551 H 345.476 -4.22068 -1.21472 0
M  V30 3552 H 346.082 -4.22832 0.457469 0
M  V30 3553 N 344.397 -0.483516 -1.5 0
M  V30 3554 C 345.307 0.309172 -2.32554 0
M  V30 3555 C 346.323 0.984159 -1.43493 0
M  V30 3556 O 347.499 0.969399 -1.76535 0
M  V30 3557 C 344.564 1.36979 -3.18493 0
M  V30 3558 C 343.625 0.710095 -4.23387 0
M  V30 3559 C 342.858 1.72018 -5.05218 0
M  V30 3560 O 343.081 2.94813 -4.88305 0
M  V30 3561 O 342.015 1.28515 -5.8802 0
M  V30 3562 H 345.841 -0.366064 -3.01486 0
M  V30 3563 H 343.426 -0.24514 -1.47375 0
M  V30 3564 H 345.308 1.98385 -3.71781 0
M  V30 3565 H 343.983 2.02828 -2.52275 0
M  V30 3566 H 342.89 0.0567539 -3.74057 0
M  V30 3567 H 344.223 0.0943557 -4.9211 0
M  V30 3568 N 345.875 1.56104 -0.216619 0
M  V30 3569 C 346.805 2.23063 0.690296 0
M  V30 3570 C 347.786 1.20072 1.20485 0
M  V30 3571 O 348.971 1.48643 1.24976 0
M  V30 3572 C 346.101 2.90672 1.90072 0
M  V30 3573 C 345.055 4.00092 1.5202 0
M  V30 3574 C 344.381 4.54972 2.80899 0
M  V30 3575 C 345.681 5.17398 0.71391 0
M  V30 3576 H 347.375 2.99109 0.132038 0
M  V30 3577 H 344.921 1.43866 0.0620664 0
M  V30 3578 H 346.874 3.36204 2.54057 0
M  V30 3579 H 345.598 2.12066 2.48386 0
M  V30 3580 H 344.257 3.55283 0.903839 0
M  V30 3581 H 343.905 3.73102 3.37348 0
M  V30 3582 H 343.605 5.28817 2.56176 0
M  V30 3583 H 345.129 5.0322 3.45836 0
M  V30 3584 H 346.543 5.59342 1.25735 0
M  V30 3585 H 344.94 5.97444 0.563951 0
M  V30 3586 H 346.01 4.84088 -0.280527 0
M  V30 3587 N 347.353 -0.0568162 1.57498 0
M  V30 3588 C 348.3 -1.06591 2.04712 0
M  V30 3589 C 349.27 -1.3758 0.930644 0
M  V30 3590 O 350.455 -1.48392 1.19935 0
M  V30 3591 C 347.595 -2.3701 2.50839 0
M  V30 3592 C 346.708 -2.12421 3.76167 0
M  V30 3593 C 345.843 -3.36511 4.11015 0
M  V30 3594 C 344.882 -3.07353 5.2934 0
M  V30 3595 N 344.019 -4.23816 5.59754 0
M  V30 3596 H 348.859 -0.65631 2.90683 0
M  V30 3597 H 346.396 -0.312481 1.43743 0
M  V30 3598 H 348.354 -3.13175 2.7564 0
M  V30 3599 H 346.984 -2.75744 1.67825 0
M  V30 3600 H 346.036 -1.2688 3.58616 0
M  V30 3601 H 347.348 -1.86894 4.62463 0
M  V30 3602 H 346.502 -4.21062 4.36797 0
M  V30 3603 H 345.241 -3.65128 3.23315 0
M  V30 3604 H 344.246 -2.212 5.03339 0
M  V30 3605 H 345.471 -2.80043 6.1867 0
M  V30 3606 H 343.417 -4.52436 4.75014 0
M  V30 3607 H 343.334 -4.01614 6.40501 0
M  V30 3608 H 344.602 -5.0932 5.90096 0
M  V30 3609 N 348.832 -1.54138 -0.328536 0
M  V30 3610 C 350.081 -1.71318 -1.06456 0
M  V30 3611 C 350.394 -0.491109 -1.89334 0
M  V30 3612 O 351.6 -0.54416 -2.65991 0
M  V30 3613 C 350.056 -3.03 -1.94214 0
M  V30 3614 C 349.664 -4.32595 -1.16471 0
M  V30 3615 C 351.408 -3.29544 -2.67583 0
M  V30 3616 C 349.315 -5.55341 -2.03347 0
M  V30 3617 H 348.245 -0.638429 -0.401155 0
M  V30 3618 H 350.896 -1.80633 -0.323106 0
M  V30 3619 H 349.278 -2.87579 -2.72239 0
M  V30 3620 H 350.452 -4.58766 -0.432525 0
M  V30 3621 H 348.767 -4.12777 -0.548063 0
M  V30 3622 H 351.364 -4.18444 -3.3288 0
M  V30 3623 H 351.707 -2.47206 -3.34955 0
M  V30 3624 H 352.24 -3.45809 -1.96623 0
M  V30 3625 H 348.979 -6.40268 -1.40491 0
M  V30 3626 H 348.499 -5.33397 -2.74313 0
M  V30 3627 H 350.178 -5.91557 -2.62049 0
M  V30 3628 N 350.31 0.590341 -1.46126 0
M  V30 3629 C 351.273 1.68194 -1.55703 0
M  V30 3630 C 352.273 1.54808 -0.434868 0
M  V30 3631 O 353.463 1.59564 -0.698928 0
M  V30 3632 C 350.595 3.07575 -1.47005 0
M  V30 3633 H 351.788 1.61064 -2.52979 0
M  V30 3634 H 349.341 0.807541 -1.33823 0
M  V30 3635 H 350.076 3.20268 -0.509785 0
M  V30 3636 H 349.861 3.187 -2.28414 0
M  V30 3637 H 351.351 3.87055 -1.56776 0
M  V30 3638 N 351.788 1.33704 0.83433 0
M  V30 3639 C 353.035 1.25417 1.58987 0
M  V30 3640 C 353.363 -0.178869 1.93676 0
M  V30 3641 O 352.618 -1.13723 1.59265 0
M  V30 3642 C 352.917 2.07926 2.90692 0
M  V30 3643 C 352.583 3.57066 2.75345 0
M  V30 3644 C 351.245 3.97724 2.70867 0
M  V30 3645 C 353.597 4.51817 2.59828 0
M  V30 3646 C 350.925 5.31344 2.48778 0
M  V30 3647 C 353.277 5.85604 2.39272 0
M  V30 3648 C 351.941 6.25439 2.33199 0
M  V30 3649 H 351.211 0.458934 0.581774 0
M  V30 3650 H 353.858 1.65335 0.966261 0
M  V30 3651 H 352.163 1.608 3.57282 0
M  V30 3652 H 353.86 1.98868 3.48213 0
M  V30 3653 H 350.45 3.24785 2.79665 0
M  V30 3654 H 354.634 4.21311 2.62319 0
M  V30 3655 H 349.89 5.61241 2.42526 0
M  V30 3656 H 354.064 6.58623 2.2625 0
M  V30 3657 H 351.691 7.28914 2.15843 0
M  V30 3658 N 353.266 -1.05314 1.17247 0
M  V30 3659 C 354.229 -2.112 0.890357 0
M  V30 3660 C 355.229 -1.60359 -0.118943 0
M  V30 3661 O 356.419 -1.73833 0.113086 0
M  V30 3662 C 353.551 -3.39266 0.333422 0
M  V30 3663 H 354.744 -2.37659 1.82916 0
M  V30 3664 H 352.297 -1.21538 0.982758 0
M  V30 3665 H 353.032 -3.18462 -0.612587 0
M  V30 3666 H 352.817 -3.77477 1.06082 0
M  V30 3667 H 354.307 -4.17315 0.154322 0
M  V30 3668 N 354.744 -0.972509 -1.24016 0
M  V30 3669 C 355.992 -0.635776 -1.91839 0
M  V30 3670 C 356.313 0.832312 -1.76345 0
M  V30 3671 O 355.583 1.5946 -1.13795 0
M  V30 3672 H 354.163 -0.232157 -0.710009 0
M  V30 3673 H 356.825 -1.23462 -1.50809 0
M  V30 3674 H 355.921 -0.880545 -2.99421 0
M  V30 3675 N 356.222 1.38976 -0.743202 0
M  V30 3676 C 357.185 2.28901 -0.117014 0
M  V30 3677 C 358.185 1.46698 0.658503 0
M  V30 3678 O 359.375 1.67274 0.486305 0
M  V30 3679 C 356.507 3.30309 0.84315 0
M  V30 3680 H 357.7 2.8578 -0.909373 0
M  V30 3681 H 355.253 1.47761 -0.509547 0
M  V30 3682 H 355.988 2.785 1.66157 0
M  V30 3683 H 355.773 3.91029 0.289594 0
M  V30 3684 H 357.263 3.97577 1.2776 0
M  V30 3685 N 357.7 0.491464 1.49741 0
M  V30 3686 C 358.946 -0.0565092 2.02721 0
M  V30 3687 C 359.279 -1.37522 1.37118 0
M  V30 3688 O 358.554 -1.87866 0.503645 0
M  V30 3689 C 358.837 -0.219051 3.59433 0
M  V30 3690 C 358.69 1.12211 4.35579 0
M  V30 3691 C 360.009 -0.964157 4.29409 0
M  V30 3692 H 357.128 -0.0190627 0.736753 0
M  V30 3693 H 359.77 0.641021 1.7886 0
M  V30 3694 H 357.92 -0.813165 3.79895 0
M  V30 3695 H 359.592 1.75437 4.26637 0
M  V30 3696 H 357.835 1.71377 3.98513 0
M  V30 3697 H 358.506 0.961794 5.43556 0
M  V30 3698 H 360.982 -0.460378 4.13545 0
M  V30 3699 H 359.858 -1.04671 5.38828 0
M  V30 3700 H 360.119 -2.00563 3.93988 0
M  V30 3701 N 359.178 -1.55987 0.224894 0
M  V30 3702 C 360.125 -2.20436 -0.68385 0
M  V30 3703 C 361.095 -1.16102 -1.18783 0
M  V30 3704 O 362.28 -1.4447 -1.24632 0
M  V30 3705 C 359.42 -2.89076 -1.88491 0
M  V30 3706 C 358.533 -4.08012 -1.41951 0
M  V30 3707 C 357.668 -4.64426 -2.5784 0
M  V30 3708 C 356.707 -5.75656 -2.08053 0
M  V30 3709 N 355.844 -6.26347 -3.17227 0
M  V30 3710 H 360.684 -2.97727 -0.12754 0
M  V30 3711 H 358.221 -1.47011 -0.0511978 0
M  V30 3712 H 360.179 -3.27059 -2.59014 0
M  V30 3713 H 358.809 -2.14298 -2.41405 0
M  V30 3714 H 357.861 -3.75492 -0.609095 0
M  V30 3715 H 359.173 -4.88375 -1.01447 0
M  V30 3716 H 358.327 -5.04869 -3.3644 0
M  V30 3717 H 357.066 -3.83233 -3.01635 0
M  V30 3718 H 356.071 -5.34712 -1.27916 0
M  V30 3719 H 357.296 -6.58686 -1.65255 0
M  V30 3720 H 355.242 -5.48067 -3.60497 0
M  V30 3721 H 355.159 -7.01843 -2.80986 0
M  V30 3722 H 356.427 -6.71447 -3.95953 0
M  V30 3723 N 360.656 0.0484629 -1.57525 0
M  V30 3724 C 361.619 1.03956 -2.04269 0
M  V30 3725 C 362.619 1.30211 -0.943496 0
M  V30 3726 O 363.809 1.25539 -1.20771 0
M  V30 3727 C 360.941 2.37742 -2.44319 0
M  V30 3728 H 362.134 0.636182 -2.93075 0
M  V30 3729 H 359.687 0.294811 -1.53494 0
M  V30 3730 H 360.422 2.82866 -1.5861 0
M  V30 3731 H 360.207 2.20021 -3.24551 0
M  V30 3732 H 361.697 3.08936 -2.80978 0
M  V30 3733 N 362.134 1.5431 0.320358 0
M  V30 3734 C 363.38 1.73859 1.05568 0
M  V30 3735 C 363.735 0.507807 1.85578 0
M  V30 3736 O 363.028 -0.499789 1.84967 0
M  V30 3737 C 363.222 2.95639 2.00828 0
M  V30 3738 C 363.051 4.30444 1.30186 0
M  V30 3739 C 361.821 4.94544 1.03703 0
M  V30 3740 C 364.019 5.0929 0.716138 0
M  V30 3741 N 362.001 6.13172 0.298846 0
M  V30 3742 C 363.372 6.19903 0.109729 0
M  V30 3743 C 365.427 4.94034 0.619269 0
M  V30 3744 C 364.13 7.16924 -0.584153 0
M  V30 3745 C 366.156 5.91369 -0.0609184 0
M  V30 3746 C 365.518 7.01336 -0.656258 0
M  V30 3747 H 361.617 0.688988 0.36989 0
M  V30 3748 H 364.201 1.9177 0.336494 0
M  V30 3749 H 362.372 2.79188 2.70016 0
M  V30 3750 H 364.104 3.03802 2.6737 0
M  V30 3751 H 360.859 4.54536 1.33019 0
M  V30 3752 H 361.283 6.76977 -0.0561964 0
M  V30 3753 H 365.925 4.0916 1.06526 0
M  V30 3754 H 363.643 8.01354 -1.04197 0
M  V30 3755 H 367.229 5.81642 -0.135552 0
M  V30 3756 H 366.109 7.75359 -1.17423 0
M  V30 3757 N 363.613 -0.582584 1.46437 0
M  V30 3758 C 364.86 -1.34079 1.51753 0
M  V30 3759 C 365.188 -1.93762 0.169299 0
M  V30 3760 O 364.443 -1.76989 -0.835062 0
M  V30 3761 C 364.742 -2.48964 2.56421 0
M  V30 3762 C 364.408 -2.07273 4.00436 0
M  V30 3763 C 363.07 -1.95618 4.39644 0
M  V30 3764 C 365.422 -1.75111 4.90903 0
M  V30 3765 C 362.75 -1.5006 5.67185 0
M  V30 3766 C 365.102 -1.31032 6.18881 0
M  V30 3767 C 363.766 -1.17954 6.56996 0
M  V30 3768 H 363.036 -0.49063 0.555304 0
M  V30 3769 H 365.683 -0.656007 1.79913 0
M  V30 3770 H 363.988 -3.22889 2.21923 0
M  V30 3771 H 365.685 -3.07178 2.57765 0
M  V30 3772 H 362.275 -2.17279 3.69443 0
M  V30 3773 H 366.459 -1.83001 4.61329 0
M  V30 3774 H 361.715 -1.38577 5.95488 0
M  V30 3775 H 365.889 -1.052 6.88408 0
M  V30 3776 H 363.516 -0.824279 7.55718 0
M  V30 3777 N 365.091 -1.34144 -0.827227 0
M  V30 3778 C 366.054 -1.25264 -1.91942 0
M  V30 3779 C 367.054 -0.168866 -1.59911 0
M  V30 3780 O 368.244 -0.421198 -1.69031 0
M  V30 3781 C 365.376 -0.932952 -3.27885 0
M  V30 3782 H 366.569 -2.22357 -2.0124 0
M  V30 3783 H 364.122 -1.1837 -1.0207 0
M  V30 3784 H 364.857 0.0349917 -3.24281 0
M  V30 3785 H 364.642 -1.71682 -3.52516 0
M  V30 3786 H 366.132 -0.895874 -4.07877 0
M  V30 3787 N 366.569 1.04691 -1.17803 0
M  V30 3788 C 367.479 2.16057 -0.914151 0
M  V30 3789 C 368.495 1.73589 0.119503 0
M  V30 3790 O 369.671 2.01308 -0.0609468 0
M  V30 3791 C 366.736 3.4394 -0.436603 0
M  V30 3792 C 365.797 4.00825 -1.53746 0
M  V30 3793 C 365.03 5.22604 -1.0826 0
M  V30 3794 O 365.253 5.70367 0.0612244 0
M  V30 3795 O 364.187 5.7186 -1.87775 0
M  V30 3796 H 368.013 2.41169 -1.84584 0
M  V30 3797 H 365.598 1.1453 -0.959334 0
M  V30 3798 H 367.48 4.21024 -0.178057 0
M  V30 3799 H 366.155 3.20316 0.466869 0
M  V30 3800 H 365.062 3.25158 -1.84995 0
M  V30 3801 H 366.395 4.28778 -2.41683 0
M  V30 3802 N 368.047 0.979072 1.23499 0
M  V30 3803 C 368.995 0.510604 2.26926 0
M  V30 3804 C 369.989 -0.431691 1.63807 0
M  V30 3805 O 371.195 -0.30573 1.77385 0
M  V30 3806 H 367.57 0.146688 0.737554 0
M  V30 3807 H 369.541 1.39466 2.63803 0
M  V30 3808 C 368.29 -0.172658 3.47271 0
M  V30 3809 H 367.613 0.543331 3.96091 0
M  V30 3810 H 369.053 -0.464101 4.21452 0
M  V30 3811 C 367.512 -1.40345 3.06276 0
M  V30 3812 O 368.042 -2.49978 3.14442 0
M  V30 3813 N 366.248 -1.27362 2.61203 0
M  V30 3814 H 365.795 -0.381584 2.54758 0
M  V30 3815 H 365.753 -2.09822 2.34141 0
M  V30 3816 N 369.525 -1.3858 0.750561 0
M  V30 3817 C 370.936 -1.82927 0.373438 0
M  V30 3818 C 371.287 -1.62634 -1.09748 0
M  V30 3819 O 370.412 -1.12588 -1.84805 0
M  V30 3820 C 371.007 -3.32088 0.671029 0
M  V30 3821 C 369.566 -3.74795 0.34722 0
M  V30 3822 C 368.713 -2.61391 0.92575 0
M  V30 3823 H 371.664 -1.27351 0.946958 0
M  V30 3824 H 371.685 -3.80465 -0.0518269 0
M  V30 3825 H 371.197 -3.46826 1.74164 0
M  V30 3826 H 369.298 -3.65638 -0.716933 0
M  V30 3827 H 369.411 -4.71667 0.840656 0
M  V30 3828 H 367.775 -2.52265 0.351327 0
M  V30 3829 H 368.558 -2.78929 2.00133 0
M  V30 3830 N 371.003 -0.499398 -1.49478 0
M  V30 3831 C 371.935 0.316575 -2.27003 0
M  V30 3832 C 372.948 0.932047 -1.33479 0
M  V30 3833 O 374.137 0.815658 -1.58774 0
M  V30 3834 C 371.237 1.46055 -3.05812 0
M  V30 3835 C 370.41 0.952679 -4.26899 0
M  V30 3836 C 369.469 1.97407 -4.87767 0
M  V30 3837 O 368.495 1.54326 -5.4788 0
M  V30 3838 N 369.697 3.30436 -4.77276 0
M  V30 3839 H 372.462 -0.348168 -2.97671 0
M  V30 3840 H 370.023 -0.33185 -1.58463 0
M  V30 3841 H 372.015 2.14135 -3.43407 0
M  V30 3842 H 370.585 2.02948 -2.37762 0
M  V30 3843 H 369.805 0.0968248 -3.94081 0
M  V30 3844 H 371.093 0.59174 -5.05347 0
M  V30 3845 H 370.491 3.68126 -4.29534 0
M  V30 3846 H 369.048 3.94235 -5.19059 0
M  V30 3847 N 372.481 1.55866 -0.233164 0
M  V30 3848 C 373.729 1.9821 0.394593 0
M  V30 3849 C 374.05 1.12234 1.59463 0
M  V30 3850 O 373.32 0.201981 1.94856 0
M  V30 3851 H 371.9 0.732034 0.148778 0
M  V30 3852 H 374.562 1.92107 -0.32876 0
M  V30 3853 H 373.658 3.03845 0.713063 0
M  V30 3854 N 373.959 -0.0401083 1.57549 0
M  V30 3855 C 374.907 -1.06264 2.06908 0
M  V30 3856 C 375.901 -1.38132 0.980608 0
M  V30 3857 O 377.107 -1.37167 1.16556 0
M  V30 3858 H 373.482 -0.360166 0.660139 0
M  V30 3859 H 375.453 -0.620445 2.91878 0
M  V30 3860 C 374.202 -2.35846 2.55483 0
M  V30 3861 H 373.525 -2.12183 3.38849 0
M  V30 3862 H 374.965 -3.05765 2.93741 0
M  V30 3863 C 373.424 -3.0404 1.45126 0
M  V30 3864 O 373.954 -3.93424 0.811216 0
M  V30 3865 N 372.16 -2.65184 1.18852 0
M  V30 3866 H 371.707 -1.92584 1.71083 0
M  V30 3867 H 371.665 -3.1113 0.452244 0
M  V30 3868 N 375.437 -1.54477 -0.31217 0
M  V30 3869 C 376.714 -1.63891 -1.06767 0
M  V30 3870 C 377.094 -0.480028 -2.0557 0
M  V30 3871 O 376.442 0.524487 -2.22399 0
M  V30 3872 C 376.652 -3.01402 -1.75948 0
M  V30 3873 C 378 -3.57838 -2.28554 0
M  V30 3874 O 379.024 -3.03782 -1.85998 0
M  V30 3875 O 377.883 -4.52462 -3.06497 0
M  V30 3876 H 374.977 -0.664125 -0.492816 0
M  V30 3877 H 377.523 -1.66823 -0.311149 0
M  V30 3878 H 376.295 -3.77187 -1.04144 0
M  V30 3879 H 375.918 -3.02199 -2.58383 0
M  V30 3880 N 376.915 0.57481 -1.46744 0
M  V30 3881 C 378.326 1.15695 -1.46532 0
M  V30 3882 C 378.677 1.95068 -0.210425 0
M  V30 3883 O 377.802 2.05241 0.685944 0
M  V30 3884 C 378.397 2.1048 -2.65487 0
M  V30 3885 C 376.956 2.64002 -2.68291 0
M  V30 3886 C 376.103 1.40026 -2.39349 0
M  V30 3887 H 379.054 0.362325 -1.54509 0
M  V30 3888 H 379.075 2.94074 -2.41455 0
M  V30 3889 H 378.587 1.52683 -3.56805 0
M  V30 3890 H 376.688 3.25646 -1.81067 0
M  V30 3891 H 376.801 3.06197 -3.68483 0
M  V30 3892 H 375.165 1.70106 -1.89568 0
M  V30 3893 H 375.948 0.840485 -3.32852 0
M  V30 3894 N 378.394 1.34581 0.820102 0
M  V30 3895 C 379.81 1.14325 1.11364 0
M  V30 3896 C 380.01 -0.0533648 2.01429 0
M  V30 3897 O 379.066 -0.728044 2.41776 0
M  V30 3898 C 380.379 2.43983 1.75764 0
M  V30 3899 C 381.927 2.50065 1.88246 0
M  V30 3900 C 382.402 3.79732 2.56061 0
M  V30 3901 N 383.893 3.80908 2.63558 0
M  V30 3902 C 384.628 4.77961 3.16766 0
M  V30 3903 N 384.124 5.85397 3.70517 0
M  V30 3904 N 385.917 4.65413 3.15194 0
M  V30 3905 H 378.068 2.11246 0.221096 0
M  V30 3906 H 380.331 0.934289 0.160649 0
M  V30 3907 H 380.037 3.31651 1.1705 0
M  V30 3908 H 379.911 2.57531 2.75604 0
M  V30 3909 H 382.298 1.62834 2.46108 0
M  V30 3910 H 382.379 2.40442 0.873006 0
M  V30 3911 H 382.023 4.67354 1.98853 0
M  V30 3912 H 381.953 3.86639 3.57516 0
M  V30 3913 H 384.444 3.03274 2.25463 0
M  V30 3914 H 384.757 6.55463 4.09376 0
M  V30 3915 H 383.102 5.89107 3.68752 0
M  V30 3916 H 386.293 3.80627 2.72471 0
M  V30 3917 H 386.466 5.41216 3.56356 0
M  V30 3918 N 379.872 -1.04064 1.18357 0
M  V30 3919 C 381.102 -1.80654 1.00238 0
M  V30 3920 C 381.51 -1.83713 -0.452362 0
M  V30 3921 O 380.853 -1.27135 -1.32599 0
M  V30 3922 C 380.915 -3.27582 1.48088 0
M  V30 3923 C 380.579 -3.48184 2.96002 0
M  V30 3924 C 381.576 -3.39372 3.93856 0
M  V30 3925 C 379.261 -3.7478 3.34433 0
M  V30 3926 C 381.255 -3.5686 5.28138 0
M  V30 3927 C 378.942 -3.91915 4.68877 0
M  V30 3928 C 379.94 -3.82956 5.65539 0
M  V30 3929 O 379.628 -3.996 6.97549 0
M  V30 3930 H 379.36 -0.575751 0.354241 0
M  V30 3931 H 381.914 -1.32044 1.57333 0
M  V30 3932 H 380.144 -3.77161 0.853588 0
M  V30 3933 H 381.833 -3.8573 1.2636 0
M  V30 3934 H 382.599 -3.18789 3.65511 0
M  V30 3935 H 378.478 -3.80852 2.59756 0
M  V30 3936 H 382.022 -3.49783 6.03571 0
M  V30 3937 H 377.919 -4.11992 4.96923 0
M  V30 3938 H 378.687 -4.1676 7.04452 0
M  V30 3939 N 381.35 -0.985608 -1.22978 0
M  V30 3940 C 382.58 -0.674603 -1.95276 0
M  V30 3941 C 382.988 0.763483 -1.73111 0
M  V30 3942 O 382.331 1.52601 -1.02268 0
M  V30 3943 C 382.393 -0.891597 -3.48268 0
M  V30 3944 C 382.057 -2.31275 -3.94158 0
M  V30 3945 C 383.054 -3.29179 -4.02415 0
M  V30 3946 C 380.739 -2.64524 -4.27004 0
M  V30 3947 C 382.733 -4.58407 -4.42879 0
M  V30 3948 C 380.42 -3.93974 -4.67149 0
M  V30 3949 C 381.418 -4.90727 -4.75053 0
M  V30 3950 O 381.106 -6.17865 -5.14294 0
M  V30 3951 H 380.838 -0.249251 -0.628371 0
M  V30 3952 H 383.392 -1.32106 -1.5728 0
M  V30 3953 H 381.622 -0.187962 -3.86243 0
M  V30 3954 H 383.311 -0.576957 -4.01779 0
M  V30 3955 H 384.077 -3.04823 -3.77237 0
M  V30 3956 H 379.956 -1.89923 -4.2006 0
M  V30 3957 H 383.5 -5.33926 -4.48964 0
M  V30 3958 H 379.397 -4.18122 -4.91777 0
M  V30 3959 H 380.165 -6.21694 -5.32389 0
M  V30 3960 N 382.828 1.3818 -0.7579 0
M  V30 3961 C 383.761 2.28055 -0.0814093 0
M  V30 3962 C 384.739 1.45603 0.723779 0
M  V30 3963 O 385.923 1.74961 0.701491 0
M  V30 3964 C 383.05 3.2676 0.891394 0
M  V30 3965 C 382.096 4.26153 0.171909 0
M  V30 3966 S 382.929 5.23434 -1.13035 0
M  V30 3967 C 384.085 6.25694 -0.160727 0
M  V30 3968 H 384.318 2.85082 -0.84353 0
M  V30 3969 H 381.851 1.44246 -0.550671 0
M  V30 3970 H 383.809 3.8414 1.44731 0
M  V30 3971 H 382.47 2.68706 1.62652 0
M  V30 3972 H 381.663 4.95738 0.908843 0
M  V30 3973 H 381.265 3.72691 -0.312606 0
M  V30 3974 H 383.557 6.74161 0.671773 0
M  V30 3975 H 384.5 7.03285 -0.824353 0
M  V30 3976 H 384.908 5.64064 0.221892 0
M  V30 3977 N 384.306 0.507319 1.49211 0
M  V30 3978 C 385.722 0.163682 1.58758 0
M  V30 3979 C 385.922 -1.33208 1.51188 0
M  V30 3980 O 384.978 -2.10855 1.38911 0
M  V30 3981 C 386.291 0.746095 2.91297 0
M  V30 3982 C 387.839 0.712773 3.04776 0
M  V30 3983 C 388.314 1.27336 4.39943 0
M  V30 3984 N 389.805 1.23433 4.46451 0
M  V30 3985 C 390.54 1.63821 5.495 0
M  V30 3986 N 390.036 2.11832 6.5962 0
M  V30 3987 N 391.829 1.55198 5.4025 0
M  V30 3988 H 383.98 1.47972 1.52375 0
M  V30 3989 H 386.243 0.614147 0.722168 0
M  V30 3990 H 385.949 1.79534 3.02424 0
M  V30 3991 H 385.823 0.210137 3.76614 0
M  V30 3992 H 388.21 -0.327656 2.93275 0
M  V30 3993 H 388.291 1.28595 2.21127 0
M  V30 3994 H 387.935 2.3126 4.52196 0
M  V30 3995 H 387.865 0.676066 5.22242 0
M  V30 3996 H 390.356 0.882627 3.67448 0
M  V30 3997 H 390.669 2.40703 7.34358 0
M  V30 3998 H 389.014 2.1581 6.60644 0
M  V30 3999 H 392.205 1.17505 4.53112 0
M  V30 4000 H 392.378 1.86997 6.20432 0
M  V30 4001 N 385.784 -1.5574 0.241426 0
M  V30 4002 C 387.03 -1.99104 -0.385406 0
M  V30 4003 C 387.363 -1.1293 -1.57988 0
M  V30 4004 O 386.638 -0.191449 -1.93555 0
M  V30 4005 C 386.921 -3.51087 -0.800616 0
M  V30 4006 C 386.774 -4.48028 0.398874 0
M  V30 4007 C 388.093 -4.08015 -1.64959 0
M  V30 4008 H 385.212 -0.723848 -0.138614 0
M  V30 4009 H 387.854 -1.86903 0.341642 0
M  V30 4010 H 386.004 -3.61615 -1.4201 0
M  V30 4011 H 387.676 -4.49487 1.03726 0
M  V30 4012 H 385.919 -4.21077 1.04293 0
M  V30 4013 H 386.59 -5.51962 0.0651056 0
M  V30 4014 H 389.066 -4.00555 -1.12672 0
M  V30 4015 H 387.942 -5.14635 -1.90898 0
M  V30 4016 H 388.203 -3.56131 -2.61961 0
M  V30 4017 N 387.262 0.0317525 -1.57568 0
M  V30 4018 C 388.51 0.721676 -1.88776 0
M  V30 4019 C 388.831 1.76039 -0.838772 0
M  V30 4020 O 388.101 1.95482 0.127935 0
M  V30 4021 H 386.681 0.269534 -0.696678 0
M  V30 4022 H 389.343 -0.00165879 -1.949 0
M  V30 4023 H 388.439 1.21293 -2.87566 0
M  V30 4024 N 388.74 1.54641 0.303973 0
M  V30 4025 C 389.673 1.80263 1.3993 0
M  V30 4026 C 390.651 0.653657 1.48883 0
M  V30 4027 O 391.835 0.893284 1.6599 0
M  V30 4028 C 388.962 1.9367 2.77866 0
M  V30 4029 C 388.008 3.16078 2.86351 0
M  V30 4030 S 388.841 4.74219 2.4875 0
M  V30 4031 C 389.997 4.90558 3.88721 0
M  V30 4032 H 390.23 2.72886 1.17986 0
M  V30 4033 H 387.763 1.46014 0.501918 0
M  V30 4034 H 389.721 2.0208 3.57315 0
M  V30 4035 H 388.382 1.01991 2.9708 0
M  V30 4036 H 387.575 3.22252 3.87517 0
M  V30 4037 H 387.177 3.06099 2.14893 0
M  V30 4038 H 389.469 4.74398 4.83687 0
M  V30 4039 H 390.412 5.92651 3.87518 0
M  V30 4040 H 390.82 4.18728 3.78585 0
M  V30 4041 N 390.218 -0.567019 1.47046 0
M  V30 4042 C 391.495 -1.3276 1.43646 0
M  V30 4043 C 391.875 -2.1071 0.128186 0
M  V30 4044 O 391.223 -2.10441 -0.890326 0
M  V30 4045 C 391.433 -2.2404 2.67595 0
M  V30 4046 C 392.781 -2.85372 3.14401 0
M  V30 4047 O 393.805 -2.34346 2.68254 0
M  V30 4048 O 392.664 -3.78091 3.946 0
M  V30 4049 H 389.758 -0.597293 0.571988 0
M  V30 4050 H 392.304 -0.586735 1.59234 0
M  V30 4051 H 391.076 -1.65975 3.54356 0
M  V30 4052 H 390.699 -3.05439 2.54544 0
M  V30 4053 N 391.696 -1.35014 -0.812953 0
M  V30 4054 C 392.659 -1.27292 -1.90602 0
M  V30 4055 C 393.659 -0.185817 -1.59723 0
M  V30 4056 O 394.849 -0.439102 -1.68575 0
M  V30 4057 C 391.981 -0.967676 -3.26877 0
M  V30 4058 H 393.174 -2.24479 -1.9887 0
M  V30 4059 H 390.727 -1.19446 -1.00808 0
M  V30 4060 H 391.462 0.0005954 -3.243 0
M  V30 4061 H 391.247 -1.75412 -3.50675 0
M  V30 4062 H 392.737 -0.939085 -4.06904 0
M  V30 4063 N 393.175 1.03435 -1.18907 0
M  V30 4064 C 394.108 2.11162 -0.86521 0
M  V30 4065 C 395.086 1.6165 0.175473 0
M  V30 4066 O 396.27 1.88425 0.0530129 0
M  V30 4067 C 393.397 3.37423 -0.293868 0
M  V30 4068 C 392.443 4.05795 -1.31274 0
M  V30 4069 S 393.276 4.52027 -2.8711 0
M  V30 4070 C 394.432 5.81513 -2.31504 0
M  V30 4071 H 394.665 2.38308 -1.77754 0
M  V30 4072 H 392.198 1.16295 -1.01562 0
M  V30 4073 H 394.156 4.1049 0.0292572 0
M  V30 4074 H 392.817 3.0838 0.596682 0
M  V30 4075 H 392.01 4.96574 -0.86198 0
M  V30 4076 H 391.612 3.38874 -1.58242 0
M  V30 4077 H 393.904 6.55784 -1.70157 0
M  V30 4078 H 394.847 6.3136 -3.20608 0
M  V30 4079 H 395.255 5.36921 -1.74286 0
M  V30 4080 N 394.653 0.992116 1.22453 0
M  V30 4081 C 395.6 0.541731 2.24352 0
M  V30 4082 C 396.57 -0.425519 1.60557 0
M  V30 4083 O 397.755 -0.330453 1.87917 0
M  V30 4084 C 394.895 -0.138248 3.44823 0
M  V30 4085 C 394.008 0.870649 4.23136 0
M  V30 4086 C 393.143 0.164269 5.30946 0
M  V30 4087 C 392.182 1.16159 6.00977 0
M  V30 4088 N 391.319 0.483568 7.00433 0
M  V30 4089 H 396.159 1.41541 2.62241 0
M  V30 4090 H 393.696 0.709013 1.28885 0
M  V30 4091 H 395.654 -0.5494 4.13567 0
M  V30 4092 H 394.284 -0.975721 3.077 0
M  V30 4093 H 393.336 1.40013 3.53696 0
M  V30 4094 H 394.648 1.63014 4.7141 0
M  V30 4095 H 393.802 -0.303653 6.0594 0
M  V30 4096 H 392.541 -0.627733 4.83643 0
M  V30 4097 H 391.546 1.64015 5.24766 0
M  V30 4098 H 392.771 1.95445 6.50368 0
M  V30 4099 H 390.717 -0.289012 6.55363 0
M  V30 4100 H 390.634 1.18152 7.4671 0
M  V30 4101 H 391.902 0.0384219 7.79491 0
M  V30 4102 N 396.131 -1.37776 0.765217 0
M  V30 4103 C 397.041 -2.34135 0.147666 0
M  V30 4104 C 398.057 -1.59854 -0.687215 0
M  V30 4105 O 399.233 -1.91983 -0.608659 0
M  V30 4106 C 396.298 -3.3901 -0.72617 0
M  V30 4107 C 395.359 -4.2912 0.124417 0
M  V30 4108 C 394.592 -5.28986 -0.707807 0
M  V30 4109 O 394.815 -5.36205 -1.94525 0
M  V30 4110 O 393.749 -6.01779 -0.12046 0
M  V30 4111 H 397.575 -2.88664 0.943758 0
M  V30 4112 H 395.16 -1.39824 0.526277 0
M  V30 4113 H 397.042 -4.03195 -1.22524 0
M  V30 4114 H 395.717 -2.86819 -1.50056 0
M  V30 4115 H 394.624 -3.68057 0.669696 0
M  V30 4116 H 395.957 -4.84598 0.861736 0
M  V30 4117 N 397.609 -0.515225 -1.4894 0
M  V30 4118 C 398.855 0.0242508 -2.02785 0
M  V30 4119 C 399.188 1.35323 -1.39289 0
M  V30 4120 O 398.463 1.87041 -0.533469 0
M  V30 4121 C 398.746 0.16184 -3.59736 0
M  V30 4122 C 398.599 -1.19127 -4.33738 0
M  V30 4123 C 399.918 0.895719 -4.30888 0
M  V30 4124 H 397.037 0.00733914 -0.736963 0
M  V30 4125 H 399.679 -0.669395 -1.77818 0
M  V30 4126 H 397.829 0.752624 -3.8114 0
M  V30 4127 H 399.501 -1.82202 -4.23792 0
M  V30 4128 H 397.744 -1.77695 -3.95736 0
M  V30 4129 H 398.415 -1.04815 -5.41957 0
M  V30 4130 H 400.891 0.394528 -4.14225 0
M  V30 4131 H 399.767 0.960859 -5.40425 0
M  V30 4132 H 400.028 1.9427 -3.97129 0
M  V30 4133 N 399.087 1.5561 -0.249682 0
M  V30 4134 C 400.333 1.99306 0.374841 0
M  V30 4135 C 400.666 1.13767 1.57387 0
M  V30 4136 O 399.941 0.201711 1.93451 0
M  V30 4137 C 400.224 3.51507 0.781986 0
M  V30 4138 C 400.077 4.4781 -0.422629 0
M  V30 4139 C 401.396 4.08884 1.62793 0
M  V30 4140 H 398.515 0.724572 0.134773 0
M  V30 4141 H 401.157 1.86719 -0.351549 0
M  V30 4142 H 399.307 3.62363 1.4009 0
M  V30 4143 H 400.979 4.48931 -1.06108 0
M  V30 4144 H 399.222 4.20518 -1.06524 0
M  V30 4145 H 399.893 5.51919 -0.0943766 0
M  V30 4146 H 402.369 4.01147 1.10547 0
M  V30 4147 H 401.245 5.1564 1.88166 0
M  V30 4148 H 401.506 3.57515 2.60068 0
M  V30 4149 N 400.565 -0.0233959 1.57583 0
M  V30 4150 C 401.981 -0.379134 1.55031 0
M  V30 4151 C 402.181 -1.76255 0.976548 0
M  V30 4152 O 401.237 -2.45266 0.600078 0
M  V30 4153 C 402.55 -0.275792 2.99433 0
M  V30 4154 C 404.098 -0.352458 3.11009 0
M  V30 4155 C 404.573 -0.278501 4.57152 0
M  V30 4156 N 406.064 -0.337123 4.61972 0
M  V30 4157 C 406.799 -0.302876 5.726 0
M  V30 4158 N 406.295 -0.220589 6.92449 0
M  V30 4159 N 408.088 -0.353023 5.6099 0
M  V30 4160 H 400.239 0.881869 1.93227 0
M  V30 4161 H 402.502 0.335867 0.886509 0
M  V30 4162 H 402.208 0.675108 3.4516 0
M  V30 4163 H 402.082 -1.06721 3.61788 0
M  V30 4164 H 404.469 -1.29379 2.65226 0
M  V30 4165 H 404.55 0.468409 2.51475 0
M  V30 4166 H 404.194 0.659189 5.03604 0
M  V30 4167 H 404.124 -1.11755 5.14605 0
M  V30 4168 H 406.615 -0.403002 3.75745 0
M  V30 4169 H 406.928 -0.199713 7.72542 0
M  V30 4170 H 405.273 -0.186555 6.9475 0
M  V30 4171 H 408.464 -0.415339 4.66254 0
M  V30 4172 H 408.637 -0.322866 6.47195 0
M  V30 4173 N 402.043 -1.548 -0.295768 0
M  V30 4174 C 402.991 -1.86874 -1.38495 0
M  V30 4175 C 403.985 -0.742938 -1.52239 0
M  V30 4176 O 405.191 -0.926999 -1.54294 0
M  V30 4177 H 401.566 -0.592786 -0.462719 0
M  V30 4178 H 403.537 -2.77904 -1.08682 0
M  V30 4179 C 402.286 -2.13732 -2.74252 0
M  V30 4180 H 401.609 -2.99835 -2.64459 0
M  V30 4181 H 403.049 -2.4011 -3.49461 0
M  V30 4182 C 401.508 -0.937539 -3.23592 0
M  V30 4183 O 402.038 -0.160665 -4.01379 0
M  V30 4184 N 400.244 -0.741478 -2.80981 0
M  V30 4185 H 399.791 -1.37489 -2.1784 0
M  V30 4186 H 399.749 0.0597103 -3.14343 0
M  V30 4187 N 403.521 0.559213 -1.47345 0
M  V30 4188 C 404.468 1.66645 -1.59682 0
M  V30 4189 C 405.438 1.60168 -0.43994 0
M  V30 4190 O 406.623 1.79031 -0.659736 0
M  V30 4191 C 403.763 3.04969 -1.61518 0
M  V30 4192 C 402.876 3.21897 -2.88108 0
M  V30 4193 C 402.011 4.50608 -2.81294 0
M  V30 4194 C 401.05 4.60961 -4.02717 0
M  V30 4195 N 400.187 5.81024 -3.94151 0
M  V30 4196 H 405.027 1.55439 -2.54249 0
M  V30 4197 H 402.564 0.757219 -1.26113 0
M  V30 4198 H 404.522 3.85064 -1.60566 0
M  V30 4199 H 403.152 3.15015 -0.704645 0
M  V30 4200 H 402.204 2.35248 -2.98936 0
M  V30 4201 H 403.516 3.25412 -3.78032 0
M  V30 4202 H 402.67 5.3896 -2.7858 0
M  V30 4203 H 401.409 4.49568 -1.89049 0
M  V30 4204 H 400.414 3.71021 -4.05738 0
M  V30 4205 H 401.639 4.63761 -4.96087 0
M  V30 4206 H 399.585 5.80938 -3.04708 0
M  V30 4207 H 399.502 5.85909 -4.77752 0
M  V30 4208 H 400.77 6.71744 -3.9545 0
M  V30 4209 N 404.999 1.35443 0.805782 0
M  V30 4210 C 406.248 1.28097 1.55801 0
M  V30 4211 C 406.561 -0.142428 1.95081 0
M  V30 4212 O 407.767 -0.33817 2.69386 0
M  V30 4213 C 406.223 2.24653 2.81174 0
M  V30 4214 C 405.831 3.72342 2.49129 0
M  V30 4215 C 407.575 2.2625 3.59181 0
M  V30 4216 C 405.482 4.60719 3.70799 0
M  V30 4217 H 404.412 0.475937 0.584808 0
M  V30 4218 H 407.063 1.60712 0.885661 0
M  V30 4219 H 405.445 1.85011 3.50124 0
M  V30 4220 H 406.619 4.20624 1.88181 0
M  V30 4221 H 404.934 3.73361 1.84366 0
M  V30 4222 H 407.531 2.89495 4.49552 0
M  V30 4223 H 407.874 1.26647 3.96568 0
M  V30 4224 H 408.407 2.64426 2.97193 0
M  V30 4225 H 405.146 5.61324 3.3852 0
M  V30 4226 H 404.666 4.17163 4.3097 0
M  V30 4227 H 406.345 4.76182 4.38018 0
M  V30 4228 N 406.477 -1.02803 1.19454 0
M  V30 4229 C 407.425 -2.13213 0.929673 0
M  V30 4230 C 408.419 -1.69011 -0.114806 0
M  V30 4231 O 409.625 -1.79967 0.0345147 0
M  V30 4232 H 406 -0.69662 0.28324 0
M  V30 4233 H 407.971 -2.32744 1.86743 0
M  V30 4234 C 406.72 -3.4429 0.485797 0
M  V30 4235 H 406.043 -3.7872 1.28105 0
M  V30 4236 H 407.483 -4.22638 0.339582 0
M  V30 4237 C 405.942 -3.27258 -0.800244 0
M  V30 4238 O 406.472 -3.55967 -1.86146 0
M  V30 4239 N 404.678 -2.80545 -0.75781 0
M  V30 4240 H 404.225 -2.57382 0.106039 0
M  V30 4241 H 404.183 -2.6953 -1.61867 0
M  V30 4242 N 407.956 -0.998596 -1.21925 0
M  V30 4243 C 409.202 -0.678667 -1.91107 0
M  V30 4244 C 409.535 0.78791 -1.77498 0
M  V30 4245 O 408.81 1.57043 -1.1475 0
M  V30 4246 C 409.093 -1.09245 -3.43129 0
M  V30 4247 C 408.946 -2.61801 -3.6576 0
M  V30 4248 C 410.265 -0.649984 -4.35274 0
M  V30 4249 H 407.384 -0.248025 -0.694012 0
M  V30 4250 H 410.026 -1.24314 -1.43688 0
M  V30 4251 H 408.176 -0.612171 -3.83647 0
M  V30 4252 H 409.848 -3.17543 -3.34611 0
M  V30 4253 H 408.091 -3.03609 -3.09845 0
M  V30 4254 H 408.762 -2.85804 -4.7225 0
M  V30 4255 H 411.238 -1.0626 -4.02303 0
M  V30 4256 H 410.114 -0.967743 -5.40302 0
M  V30 4257 H 410.375 0.449139 -4.39813 0
M  V30 4258 N 409.434 1.37368 -0.772513 0
M  V30 4259 C 410.674 2.01512 -0.342361 0
M  V30 4260 C 411.038 1.59997 1.06136 0
M  V30 4261 O 412.239 2.16609 1.59167 0
M  V30 4262 C 410.51 3.54134 -0.482048 0
M  V30 4263 S 412.069 4.38585 -0.137272 0
M  V30 4264 H 408.887 0.698699 -0.131686 0
M  V30 4265 H 411.489 1.67552 -1.0073 0
M  V30 4266 H 410.193 3.81837 -1.50428 0
M  V30 4267 H 409.724 3.92894 0.199413 0
M  V30 4268 H 411.739 4.84594 1.06692 0
M  V30 4269 N 410.912 0.523116 1.48665 0
M  V30 4270 C 412.16 -0.0134497 2.02096 0
M  V30 4271 C 412.481 -1.35418 1.40311 0
M  V30 4272 O 411.751 -1.87543 0.566074 0
M  V30 4273 H 410.331 -0.00795915 0.746958 0
M  V30 4274 H 412.993 0.685388 1.82451 0
M  V30 4275 H 412.089 -0.126849 3.11842 0
M  V30 4276 N 412.39 -1.55475 0.257931 0
M  V30 4277 C 413.615 -2.04064 -0.370488 0
M  V30 4278 C 414.04 -1.13565 -1.49948 0
M  V30 4279 O 413.398 -0.130781 -1.80828 0
M  V30 4280 C 413.446 -3.50554 -0.845237 0
M  V30 4281 O 412.55 -3.63173 -1.95394 0
M  V30 4282 H 411.891 -0.659257 -0.0792243 0
M  V30 4283 H 414.421 -2.00903 0.387212 0
M  V30 4284 H 414.431 -3.91588 -1.14555 0
M  V30 4285 H 413.106 -4.15896 -0.0191259 0
M  V30 4286 H 411.683 -3.34039 -1.65748 0
M  V30 4287 N 413.868 0.0150385 -1.57593 0
M  V30 4288 C 414.831 0.995996 -2.06428 0
M  V30 4289 C 415.831 1.2818 -0.970903 0
M  V30 4290 O 417.021 1.22949 -1.23406 0
M  V30 4291 C 414.153 2.32506 -2.49307 0
M  V30 4292 H 415.346 0.573873 -2.94358 0
M  V30 4293 H 412.899 0.262186 -1.54085 0
M  V30 4294 H 413.634 2.79438 -1.64575 0
M  V30 4295 H 413.419 2.13087 -3.29145 0
M  V30 4296 H 414.909 3.02906 -2.87468 0
M  V30 4297 N 415.346 1.54954 0.287554 0
M  V30 4298 C 416.294 1.87606 1.37502 0
M  V30 4299 C 417.288 0.751001 1.51843 0
M  V30 4300 O 418.494 0.935169 1.53801 0
M  V30 4301 H 414.869 0.595231 0.459569 0
M  V30 4302 H 416.84 2.78477 1.07206 0
M  V30 4303 C 415.589 2.15183 2.73115 0
M  V30 4304 H 414.912 3.01234 2.62866 0
M  V30 4305 H 416.352 2.4196 3.48183 0
M  V30 4306 C 414.811 0.954686 3.2309 0
M  V30 4307 O 415.341 0.181949 4.01288 0
M  V30 4308 N 413.547 0.756368 2.80584 0
M  V30 4309 H 413.094 1.38643 2.17108 0
M  V30 4310 H 413.052 -0.0430391 3.14371 0
M  V30 4311 N 416.824 -0.551391 1.4764 0
M  V30 4312 C 418.24 -0.877887 1.33287 0
M  V30 4313 C 418.44 -1.98817 0.327721 0
M  V30 4314 O 417.496 -2.51171 -0.258695 0
M  V30 4315 C 418.809 -1.26563 2.72768 0
M  V30 4316 C 420.357 -1.37673 2.81097 0
M  V30 4317 C 420.832 -1.79799 4.21232 0
M  V30 4318 N 422.323 -1.8694 4.23802 0
M  V30 4319 C 423.058 -2.20876 5.29151 0
M  V30 4320 N 422.554 -2.53386 6.448 0
M  V30 4321 N 424.347 -2.217 5.16532 0
M  V30 4322 H 416.498 0.18153 2.11623 0
M  V30 4323 H 418.761 0.0185514 0.947818 0
M  V30 4324 H 418.467 -0.523591 3.47781 0
M  V30 4325 H 418.341 -2.22052 3.04915 0
M  V30 4326 H 420.728 -2.10956 2.06353 0
M  V30 4327 H 420.809 -0.40357 2.52596 0
M  V30 4328 H 420.453 -1.07083 4.96483 0
M  V30 4329 H 420.383 -2.78128 4.4716 0
M  V30 4330 H 422.874 -1.64179 3.40373 0
M  V30 4331 H 423.187 -2.78325 7.20941 0
M  V30 4332 H 421.532 -2.50953 6.48111 0
M  V30 4333 H 424.723 -1.95745 4.25207 0
M  V30 4334 H 424.896 -2.47818 5.98741 0
M  V30 4335 N 418.302 -1.35869 -0.798587 0
M  V30 4336 C 419.551 -1.28921 -1.5512 0
M  V30 4337 C 419.864 0.13208 -1.95154 0
M  V30 4338 O 421.07 0.323879 -2.69561 0
M  V30 4339 C 419.526 -2.26141 -2.79979 0
M  V30 4340 C 419.134 -3.73658 -2.47151 0
M  V30 4341 C 420.878 -2.28152 -3.57976 0
M  V30 4342 C 418.785 -4.62679 -3.6835 0
M  V30 4343 H 417.715 -0.479031 -0.582276 0
M  V30 4344 H 420.366 -1.61179 -0.877125 0
M  V30 4345 H 418.748 -1.86865 -3.49138 0
M  V30 4346 H 419.922 -4.21616 -1.85947 0
M  V30 4347 H 418.237 -3.74333 -1.82383 0
M  V30 4348 H 420.834 -2.91875 -4.4801 0
M  V30 4349 H 421.177 -1.28748 -3.95891 0
M  V30 4350 H 421.71 -2.65998 -2.95787 0
M  V30 4351 H 418.449 -5.63111 -3.35538 0
M  V30 4352 H 417.969 -4.19442 -4.28752 0
M  V30 4353 H 419.648 -4.78498 -4.35487 0
M  V30 4354 N 419.78 1.02168 -1.19998 0
M  V30 4355 C 421.005 1.79833 -1.03319 0
M  V30 4356 C 421.43 1.83504 0.413281 0
M  V30 4357 O 420.788 1.26635 1.29743 0
M  V30 4358 C 420.836 3.22396 -1.61533 0
M  V30 4359 O 419.94 4.03555 -0.849519 0
M  V30 4360 H 419.281 0.554872 -0.364709 0
M  V30 4361 H 421.811 1.28542 -1.59179 0
M  V30 4362 H 421.821 3.73124 -1.65054 0
M  V30 4363 H 420.496 3.19039 -2.66809 0
M  V30 4364 H 419.073 3.62169 -0.888129 0
M  V30 4365 N 421.258 1.00505 1.21394 0
M  V30 4366 C 422.221 0.570459 2.21987 0
M  V30 4367 C 423.221 -0.353211 1.56873 0
M  V30 4368 O 424.411 -0.14349 1.73608 0
M  V30 4369 C 421.543 -0.168555 3.40483 0
M  V30 4370 H 422.736 1.46021 2.6195 0
M  V30 4371 H 420.289 0.793565 1.34656 0
M  V30 4372 H 421.024 -1.07374 3.06009 0
M  V30 4373 H 420.809 0.494823 3.88965 0
M  V30 4374 H 422.299 -0.460362 4.15055 0
M  V30 4375 O 422.775 -1.32987 0.916334 0
M  V30 4376 H 423.466 -1.86192 0.534057 0
M  V30 END ATOM
M  V30 BEGIN BOND
M  V30 END BOND
M  V30 END CTAB
M  END
$$$$
