drugbank_target|Q9X1T2 Purine nucleoside phosphorylase (DB02377)
 OpenBabel12092120243D

  0  0  0     0  0            999 V3000
M  V30 BEGIN CTAB
M  V30 COUNTS 4157 4204 0 0 0
M  V30 BEGIN ATOM
M  V30 1 H -0.908 1.98254 -0.117106 0
M  V30 2 N 0 1.576 0 0
M  V30 3 C 0.933 2.03868 1.02534 0
M  V30 4 C 1.911 0.928543 1.3348 0
M  V30 5 O 3.095 1.19667 1.45644 0
M  V30 6 C 0.222 2.43627 2.35294 0
M  V30 7 C -0.732 3.65373 2.2001 0
M  V30 8 S 0.101 5.13292 1.52614 0
M  V30 9 C 1.257 5.56322 2.86805 0
M  V30 10 H 1.49 2.90518 0.631377 0
M  V30 11 H -0.977 1.52953 0.210867 0
M  V30 12 H 0.981 2.67203 3.11629 0
M  V30 13 H -0.358 1.57376 2.7183 0
M  V30 14 H -1.165 3.90944 3.18086 0
M  V30 15 H -1.563 3.418 1.51819 0
M  V30 16 H 0.729 5.58782 3.83104 0
M  V30 17 H 1.672 6.56266 2.65933 0
M  V30 18 H 2.08 4.83886 2.90714 0
M  V30 19 N 1.4781 -0.272755 1.55222 0
M  V30 20 C 2.4111 -1.3627 1.83046 0
M  V30 21 C 3.3891 -1.47536 0.683521 0
M  V30 22 O 4.5731 -1.64157 0.926545 0
M  V30 23 C 1.7001 -2.73908 1.99229 0
M  V30 24 C 0.7461 -2.79925 3.21783 0
M  V30 25 S 1.5791 -2.39146 4.79134 0
M  V30 26 C 2.7351 -3.78758 4.9829 0
M  V30 27 H 2.9681 -1.12464 2.75207 0
M  V30 28 H 0.5011 -0.472398 1.46996 0
M  V30 29 H 2.4591 -3.53171 2.09238 0
M  V30 30 H 1.1201 -2.94965 1.07956 0
M  V30 31 H 0.3131 -3.80946 3.29994 0
M  V30 32 H -0.0849 -2.08683 3.10367 0
M  V30 33 H 2.2071 -4.7403 4.84047 0
M  V30 34 H 3.1501 -3.75499 6.00338 0
M  V30 35 H 3.5581 -3.70072 4.26271 0
M  V30 36 N 2.9562 -1.48159 -0.537278 0
M  V30 37 C 3.9032 -1.62138 -1.64256 0
M  V30 38 C 4.8732 -0.463668 -1.59497 0
M  V30 39 O 6.0582 -0.686241 -1.78032 0
M  V30 40 C 3.1982 -1.66028 -3.02537 0
M  V30 41 C 2.3112 -2.92855 -3.17585 0
M  V30 42 C 1.4462 -2.87952 -4.46382 0
M  V30 43 C 0.4852 -4.09516 -4.54932 0
M  V30 44 N -0.3778 -4.02733 -5.75109 0
M  V30 45 H 4.4622 -2.56529 -1.51647 0
M  V30 46 H 1.9992 -1.27224 -0.738414 0
M  V30 47 H 3.9572 -1.66265 -3.82638 0
M  V30 48 H 2.5872 -0.751331 -3.13934 0
M  V30 49 H 1.6392 -3.02395 -2.30784 0
M  V30 50 H 2.9512 -3.82822 -3.19764 0
M  V30 51 H 2.1052 -2.8655 -5.34765 0
M  V30 52 H 0.8442 -1.95702 -4.46712 0
M  V30 53 H -0.1508 -4.11201 -3.64957 0
M  V30 54 H 1.0742 -5.02917 -4.56346 0
M  V30 55 H -0.9798 -3.13299 -5.76351 0
M  V30 56 H -1.0628 -4.86397 -5.78752 0
M  V30 57 H 0.2052 -4.05379 -6.65799 0
M  V30 58 N 4.4343 0.785586 -1.36625 0
M  V30 59 C 5.3813 1.89838 -1.31264 0
M  V30 60 C 6.3513 1.65115 -0.180633 0
M  V30 61 O 7.5363 1.87222 -0.36777 0
M  V30 62 C 4.6763 3.26706 -1.11163 0
M  V30 63 C 3.7893 3.63476 -2.33472 0
M  V30 64 C 2.9243 4.89481 -2.06353 0
M  V30 65 C 1.9633 5.18941 -3.24602 0
M  V30 66 N 1.1003 6.36131 -2.97123 0
M  V30 67 H 5.9403 1.93756 -2.26413 0
M  V30 68 H 3.4773 0.947454 -1.12524 0
M  V30 69 H 5.4353 4.05639 -0.975337 0
M  V30 70 H 4.0653 3.222 -0.196674 0
M  V30 71 H 3.1173 2.79636 -2.57891 0
M  V30 72 H 4.4293 3.81193 -3.21704 0
M  V30 73 H 3.5833 5.76288 -1.89675 0
M  V30 74 H 2.3223 4.73841 -1.15437 0
M  V30 75 H 1.3273 4.30615 -3.41834 0
M  V30 76 H 2.5523 5.36498 -4.16349 0
M  V30 77 H 0.4983 6.21875 -2.08823 0
M  V30 78 H 0.4153 6.54198 -3.78894 0
M  V30 79 H 1.6833 7.2591 -2.84033 0
M  V30 80 N 5.9124 1.20967 1.01018 0
M  V30 81 C 7.1614 1.01796 1.74128 0
M  V30 82 C 7.4744 -0.449691 1.90361 0
M  V30 83 O 8.6804 -0.76068 2.60626 0
M  V30 84 C 7.1364 1.7727 3.13215 0
M  V30 85 C 6.7444 3.28171 3.04972 0
M  V30 86 C 8.4884 1.66489 3.90489 0
M  V30 87 C 6.3954 3.96156 4.39107 0
M  V30 88 H 5.3254 0.377276 0.652824 0
M  V30 89 H 7.9764 1.44651 1.12909 0
M  V30 90 H 6.3584 1.27205 3.75013 0
M  V30 91 H 7.5324 3.85499 2.52443 0
M  V30 92 H 5.8474 3.39437 2.41188 0
M  V30 93 H 8.4444 2.14617 4.89738 0
M  V30 94 H 8.7874 0.6222 4.11624 0
M  V30 95 H 9.3204 2.14003 3.35332 0
M  V30 96 H 6.0594 5.00604 4.23174 0
M  V30 97 H 5.5794 3.43617 4.91617 0
M  V30 98 H 7.2584 4.00774 5.07926 0
M  V30 99 N 7.3905 -1.2043 1.01659 0
M  V30 100 C 8.3005 -2.2689 0.596484 0
M  V30 101 C 9.3165 -1.70107 -0.36599 0
M  V30 102 O 10.4925 -2.00117 -0.226942 0
M  V30 103 C 7.5575 -3.4665 -0.0586659 0
M  V30 104 C 6.6185 -4.18662 0.949751 0
M  V30 105 C 5.8515 -5.32705 0.32577 0
M  V30 106 O 6.0745 -5.63656 -0.874509 0
M  V30 107 O 5.0085 -5.92803 1.04249 0
M  V30 108 H 8.8345 -2.65041 1.4828 0
M  V30 109 H 6.4195 -1.27048 0.786082 0
M  V30 110 H 8.3015 -4.19256 -0.424564 0
M  V30 111 H 6.9765 -3.10375 -0.91918 0
M  V30 112 H 5.8835 -3.48229 1.36702 0
M  V30 113 H 7.2165 -4.58878 1.78023 0
M  V30 114 N 8.8686 -0.792821 -1.36206 0
M  V30 115 C 9.7786 -0.194808 -2.3379 0
M  V30 116 C 10.7946 0.654869 -1.61206 0
M  V30 117 O 11.9706 0.569856 -1.9317 0
M  V30 118 C 9.0356 0.657721 -3.40404 0
M  V30 119 C 8.0966 -0.210849 -4.28782 0
M  V30 120 C 7.3296 0.601086 -5.30304 0
M  V30 121 O 7.5526 1.83682 -5.40016 0
M  V30 122 O 6.4866 -0.000808277 -6.019 0
M  V30 123 H 10.3126 -1.00172 -2.86704 0
M  V30 124 H 7.8976 -0.554341 -1.38735 0
M  V30 125 H 9.7796 1.14375 -4.05581 0
M  V30 126 H 8.4546 1.44247 -2.89784 0
M  V30 127 H 7.3616 -0.743714 -3.66633 0
M  V30 128 H 8.6946 -0.959195 -4.82763 0
M  V30 129 N 10.3467 1.47872 -0.545128 0
M  V30 130 C 11.3097 2.28337 0.198717 0
M  V30 131 C 12.3097 1.36255 0.853888 0
M  V30 132 O 13.4997 1.59003 0.711606 0
M  V30 133 C 10.6317 3.15585 1.28915 0
M  V30 134 H 11.8247 2.95567 -0.507941 0
M  V30 135 H 9.3777 1.53362 -0.301616 0
M  V30 136 H 10.1127 2.53019 2.02859 0
M  V30 137 H 9.8977 3.83337 0.824309 0
M  V30 138 H 11.3877 3.76243 1.81194 0
M  V30 139 N 11.8248 0.280983 1.55075 0
M  V30 140 C 13.2408 -0.0729964 1.59433 0
M  V30 141 C 13.4408 -1.5411 1.29817 0
M  V30 142 O 12.4968 -2.29086 1.06187 0
M  V30 143 C 13.8098 0.306921 2.9913 0
M  V30 144 C 15.3578 0.254023 3.11968 0
M  V30 145 C 15.8328 0.608467 4.5394 0
M  V30 146 N 17.3238 0.560241 4.59799 0
M  V30 147 C 18.0588 0.80722 5.6769 0
M  V30 148 N 17.5548 1.11912 6.83701 0
M  V30 149 N 19.3478 0.735623 5.57266 0
M  V30 150 H 11.4988 1.238 1.7259 0
M  V30 151 H 13.7618 0.500547 0.805082 0
M  V30 152 H 13.4678 1.32816 3.25657 0
M  V30 153 H 13.3418 -0.349363 3.75579 0
M  V30 154 H 15.7288 -0.75794 2.852 0
M  V30 155 H 15.8098 0.944649 2.37718 0
M  V30 156 H 15.4538 1.61814 4.81434 0
M  V30 157 H 15.3838 -0.104013 5.26497 0
M  V30 158 H 17.8748 0.329288 3.76463 0
M  V30 159 H 18.1878 1.29409 7.61888 0
M  V30 160 H 16.5328 1.15695 6.85303 0
M  V30 161 H 19.7238 0.491752 4.6551 0
M  V30 162 H 19.8968 0.931482 6.4127 0
M  V30 163 N 13.3029 -1.57598 0.00835791 0
M  V30 164 C 14.5309 -1.95214 -0.68549 0
M  V30 165 C 14.9459 -0.883706 -1.66841 0
M  V30 166 O 14.3029 0.136565 -1.81988 0
M  V30 167 C 14.3539 -3.32865 -1.41007 0
M  V30 168 O 14.0749 -4.35609 -0.466552 0
M  V30 169 C 15.5759 -3.84991 -2.19765 0
M  V30 170 H 12.7959 -0.643422 -0.190392 0
M  V30 171 H 15.3399 -2.04406 0.0619607 0
M  V30 172 H 13.4949 -3.24956 -2.10908 0
M  V30 173 H 13.9089 -5.15288 -0.978699 0
M  V30 174 H 15.3829 -4.8371 -2.65948 0
M  V30 175 H 15.8599 -3.18137 -3.02796 0
M  V30 176 H 16.4659 -3.96103 -1.54864 0
M  V30 177 N 14.781 0.264519 -1.55364 0
M  V30 178 C 16.028 0.994986 -1.7637 0
M  V30 179 C 16.356 1.85976 -0.5695 0
M  V30 180 O 15.611 1.90509 0.44776 0
M  V30 181 C 15.91 1.9004 -3.02687 0
M  V30 182 C 15.576 1.19243 -4.34847 0
M  V30 183 C 14.238 0.996709 -4.70764 0
M  V30 184 C 16.59 0.689296 -5.16622 0
M  V30 185 C 13.918 0.285261 -5.86006 0
M  V30 186 C 16.27 -0.00860079 -6.32599 0
M  V30 187 C 14.934 -0.215963 -6.67151 0
M  V30 188 H 14.204 0.364091 -0.645383 0
M  V30 189 H 16.851 0.266543 -1.89636 0
M  V30 190 H 15.156 2.69533 -2.84357 0
M  V30 191 H 16.853 2.46695 -3.16137 0
M  V30 192 H 13.443 1.3549 -4.06621 0
M  V30 193 H 17.627 0.828108 -4.89342 0
M  V30 194 H 12.883 0.113961 -6.11294 0
M  V30 195 H 17.057 -0.406186 -6.95214 0
M  V30 196 H 14.684 -0.769217 -7.56298 0
M  V30 197 N 16.2591 1.48442 0.529413 0
M  V30 198 C 17.5081 1.55742 1.28169 0
M  V30 199 C 17.8211 0.236511 1.94165 0
M  V30 200 O 19.0271 0.187761 2.7085 0
M  V30 201 C 17.4831 2.74667 2.32564 0
M  V30 202 C 17.0911 4.13402 1.72636 0
M  V30 203 C 18.8351 2.9128 3.08798 0
M  V30 204 C 16.7421 5.23587 2.74975 0
M  V30 205 H 15.6721 0.579796 0.48203 0
M  V30 206 H 18.3231 1.74776 0.559056 0
M  V30 207 H 16.7051 2.49067 3.07866 0
M  V30 208 H 17.8791 4.49022 1.03519 0
M  V30 209 H 16.1941 4.0191 1.08892 0
M  V30 210 H 18.7911 3.70767 3.85274 0
M  V30 211 H 19.1341 2.00757 3.64695 0
M  V30 212 H 19.6671 3.16782 2.40611 0
M  V30 213 H 16.4061 6.16076 2.23897 0
M  V30 214 H 15.9261 4.92454 3.42417 0
M  V30 215 H 17.6051 5.51724 3.37949 0
M  V30 216 N 17.7372 -0.778329 1.37039 0
M  V30 217 C 18.9622 -1.57248 1.35233 0
M  V30 218 C 19.3872 -1.87999 -0.0615568 0
M  V30 219 O 18.7452 -1.48734 -1.03672 0
M  V30 220 C 18.7932 -2.86353 2.19167 0
M  V30 221 O 17.8972 -3.80442 1.59178 0
M  V30 222 H 17.2382 -0.476569 0.462362 0
M  V30 223 H 19.7682 -0.963853 1.80474 0
M  V30 224 H 19.7782 -3.35519 2.32145 0
M  V30 225 H 18.4532 -2.63299 3.21942 0
M  V30 226 H 17.0302 -3.39067 1.55203 0
M  V30 227 N 19.2153 -1.21501 -1.00376 0
M  V30 228 C 20.1253 -0.991447 -2.12621 0
M  V30 229 C 21.1413 0.0568446 -1.73907 0
M  V30 230 O 22.3173 -0.13348 -2.00957 0
M  V30 231 C 19.3823 -0.560312 -3.42142 0
M  V30 232 C 18.4433 -1.68096 -3.95022 0
M  V30 233 C 17.6763 -1.2703 -5.18362 0
M  V30 234 O 17.8993 -0.144438 -5.70217 0
M  V30 235 O 16.8333 -2.08269 -5.64719 0
M  V30 236 H 20.6593 -1.93158 -2.34358 0
M  V30 237 H 18.2443 -0.999999 -1.10997 0
M  V30 238 H 20.1263 -0.329724 -4.20108 0
M  V30 239 H 18.8013 0.351089 -3.2179 0
M  V30 240 H 17.7083 -1.96597 -3.18278 0
M  V30 241 H 19.0413 -2.56983 -4.19786 0
M  V30 242 N 20.6934 1.19889 -1.02296 0
M  V30 243 C 22.1094 1.41462 -0.738954 0
M  V30 244 C 22.3094 1.89721 0.678846 0
M  V30 245 O 21.3654 2.07016 1.4457 0
M  V30 246 C 22.6784 2.43083 -1.77005 0
M  V30 247 C 24.2264 2.5684 -1.78892 0
M  V30 248 C 24.7014 3.61709 -2.80945 0
M  V30 249 N 26.1924 3.69199 -2.79725 0
M  V30 250 C 26.9274 4.50019 -3.55345 0
M  V30 251 N 26.4234 5.34592 -4.40662 0
M  V30 252 N 28.2164 4.44612 -3.43914 0
M  V30 253 H 20.3674 0.868827 -1.93817 0
M  V30 254 H 22.6304 0.44399 -0.837602 0
M  V30 255 H 22.3364 2.14636 -2.78612 0
M  V30 256 H 22.2104 3.4217 -1.58744 0
M  V30 257 H 24.5974 2.84614 -0.779674 0
M  V30 258 H 24.6784 1.57927 -2.01228 0
M  V30 259 H 24.3224 3.34678 -3.82038 0
M  V30 260 H 24.2524 4.60259 -2.5587 0
M  V30 261 H 26.7434 3.08794 -2.17842 0
M  V30 262 H 27.0564 5.93363 -4.95116 0
M  V30 263 H 25.4014 5.34073 -4.44737 0
M  V30 264 H 28.5924 3.7758 -2.76679 0
M  V30 265 H 28.7654 5.0736 -4.031 0
M  V30 266 N 22.1715 0.800033 1.35784 0
M  V30 267 C 23.3995 0.389606 2.03199 0
M  V30 268 C 23.8145 -0.997375 1.60306 0
M  V30 269 O 23.1715 -1.64154 0.797481 0
M  V30 270 C 23.2225 0.455855 3.58614 0
M  V30 271 O 22.9435 1.78815 3.99946 0
M  V30 272 C 24.4445 0.0374032 4.43284 0
M  V30 273 H 21.6645 0.159132 0.651857 0
M  V30 274 H 24.2085 1.08183 1.73541 0
M  V30 275 H 22.3635 -0.188057 3.86943 0
M  V30 276 H 22.7775 1.74636 4.94573 0
M  V30 277 H 24.2515 0.134882 5.51835 0
M  V30 278 H 24.7285 -1.01651 4.27275 0
M  V30 279 H 25.3345 0.654215 4.20238 0
M  V30 280 N 23.6496 -1.47581 0.552962 0
M  V30 281 C 24.5976 -2.31648 -0.21023 0
M  V30 282 C 25.5916 -1.42663 -0.913432 0
M  V30 283 O 26.7976 -1.5945 -0.835201 0
M  V30 284 H 23.1726 -0.746989 -0.0866676 0
M  V30 285 H 25.1436 -2.93869 0.518051 0
M  V30 286 C 23.8926 -3.25226 -1.22976 0
M  V30 287 H 23.2156 -3.93658 -0.698077 0
M  V30 288 H 24.6556 -3.86889 -1.73473 0
M  V30 289 C 23.1146 -2.48448 -2.27542 0
M  V30 290 O 23.6446 -2.22585 -3.34393 0
M  V30 291 N 21.8506 -2.09532 -2.01357 0
M  V30 292 H 21.3976 -2.30765 -1.14478 0
M  V30 293 H 21.3556 -1.58476 -2.71538 0
M  V30 294 N 25.1277 -0.289203 -1.54924 0
M  V30 295 C 26.0577 0.58549 -2.2604 0
M  V30 296 C 27.0387 1.14753 -1.25562 0
M  V30 297 O 28.2237 1.17906 -1.54311 0
M  V30 298 C 25.3537 1.76305 -2.99222 0
M  V30 299 C 24.3077 1.33191 -4.06748 0
M  V30 300 C 23.6337 2.5937 -4.6758 0
M  V30 301 C 24.9337 0.471775 -5.20165 0
M  V30 302 H 26.6277 -0.00763532 -2.99399 0
M  V30 303 H 24.1737 -0.00511229 -1.43999 0
M  V30 304 H 26.1267 2.38097 -3.47689 0
M  V30 305 H 24.8507 2.38223 -2.23422 0
M  V30 306 H 23.5097 0.737121 -3.59113 0
M  V30 307 H 23.1577 3.19576 -3.88433 0
M  V30 308 H 22.8577 2.31228 -5.40192 0
M  V30 309 H 24.3817 3.21985 -5.18804 0
M  V30 310 H 25.7957 0.995056 -5.64599 0
M  V30 311 H 24.1927 0.284639 -5.99425 0
M  V30 312 H 25.2627 -0.506041 -4.82252 0
M  V30 313 N 26.6058 1.57591 -0.0167156 0
M  V30 314 C 27.8308 1.9598 0.67872 0
M  V30 315 C 28.2558 0.892546 1.65575 0
M  V30 316 O 27.6138 -0.147772 1.80697 0
M  V30 317 C 27.6618 3.33468 1.37227 0
M  V30 318 O 26.7658 3.28954 2.48722 0
M  V30 319 H 26.1068 0.639339 0.17928 0
M  V30 320 H 28.6368 2.04463 -0.0748802 0
M  V30 321 H 28.6468 3.69417 1.7319 0
M  V30 322 H 27.3218 4.10694 0.656007 0
M  V30 323 H 25.8988 3.04705 2.14963 0
M  V30 324 N 28.0839 -0.256276 1.55502 0
M  V30 325 C 29.4949 -0.826068 1.67431 0
M  V30 326 C 29.8459 -1.86396 0.612446 0
M  V30 327 O 28.9709 -2.15031 -0.243025 0
M  V30 328 C 29.5659 -1.50512 3.03532 0
M  V30 329 C 28.1249 -2.02273 3.17431 0
M  V30 330 C 27.2719 -0.870548 2.63281 0
M  V30 331 H 30.2229 -0.0322728 1.58667 0
M  V30 332 H 30.2439 -2.37279 2.97454 0
M  V30 333 H 29.7559 -0.749484 3.80794 0
M  V30 334 H 27.8569 -2.80746 2.44974 0
M  V30 335 H 27.9699 -2.22655 4.24219 0
M  V30 336 H 26.3339 -1.26851 2.20864 0
M  V30 337 H 27.1169 -0.128149 3.43061 0
M  V30 338 N 29.562 -1.4872 -0.521534 0
M  V30 339 C 30.839 -1.4766 -1.2828 0
M  V30 340 C 31.219 -0.19292 -2.10217 0
M  V30 341 O 30.567 0.825193 -2.13079 0
M  V30 342 C 30.777 -2.74358 -2.15705 0
M  V30 343 C 32.125 -3.23028 -2.75569 0
M  V30 344 O 33.149 -2.75333 -2.25987 0
M  V30 345 O 32.008 -4.0604 -3.65778 0
M  V30 346 H 29.102 -0.590085 -0.579421 0
M  V30 347 H 31.648 -1.60963 -0.537492 0
M  V30 348 H 30.42 -3.59292 -1.54999 0
M  V30 349 H 30.043 -2.63816 -2.97467 0
M  V30 350 N 31.0401 0.771051 -1.3745 0
M  V30 351 C 32.2891 1.52491 -1.3202 0
M  V30 352 C 32.6021 1.9538 0.0927347 0
M  V30 353 O 33.8081 2.70159 0.269503 0
M  V30 354 C 32.2641 2.75366 -2.31736 0
M  V30 355 C 31.8721 2.39573 -3.78562 0
M  V30 356 C 33.6161 3.53307 -2.35318 0
M  V30 357 C 31.5231 3.58954 -4.70007 0
M  V30 358 H 30.4531 0.572506 -0.490666 0
M  V30 359 H 33.1041 0.844474 -1.62914 0
M  V30 360 H 31.4861 3.45303 -1.93861 0
M  V30 361 H 32.6601 1.77415 -4.25277 0
M  V30 362 H 30.9751 1.74805 -3.77932 0
M  V30 363 H 33.5721 4.42039 -3.00842 0
M  V30 364 H 33.9151 3.93217 -1.36698 0
M  V30 365 H 34.4481 2.90367 -2.71904 0
M  V30 366 H 31.1871 3.24125 -5.69757 0
M  V30 367 H 30.7071 4.20214 -4.27996 0
M  V30 368 H 32.3861 4.25758 -4.87175 0
M  V30 369 N 32.5182 1.22032 0.997298 0
M  V30 370 C 33.4482 1.01065 2.10495 0
M  V30 371 C 34.4292 -0.0669542 1.69968 0
M  V30 372 O 35.6142 0.0943987 1.9397 0
M  V30 373 C 32.7442 0.582874 3.42374 0
M  V30 374 C 31.6982 1.60592 3.96729 0
M  V30 375 C 31.0242 1.03412 5.24605 0
M  V30 376 C 32.3242 2.99478 4.27914 0
M  V30 377 H 34.0182 1.93708 2.28292 0
M  V30 378 H 31.5642 0.932761 1.09707 0
M  V30 379 H 33.5172 0.423332 4.19268 0
M  V30 380 H 32.2412 -0.379213 3.24391 0
M  V30 381 H 30.9002 1.75316 3.21963 0
M  V30 382 H 30.5482 0.063518 5.0296 0
M  V30 383 H 30.2482 1.71754 5.61938 0
M  V30 384 H 31.7722 0.886066 6.04137 0
M  V30 385 H 33.1862 2.88153 4.95622 0
M  V30 386 H 31.5832 3.64903 4.76409 0
M  V30 387 H 32.6532 3.49742 3.3587 0
M  V30 388 N 33.9963 -1.19345 1.0293 0
M  V30 389 C 35.2453 -1.88363 0.721256 0
M  V30 390 C 35.5583 -1.80514 -0.753254 0
M  V30 391 O 36.7643 -2.44788 -1.17436 0
M  V30 392 C 35.2203 -3.37872 1.23978 0
M  V30 393 C 34.8283 -3.54278 2.74211 0
M  V30 394 C 36.5723 -4.12365 1.00775 0
M  V30 395 C 34.4793 -4.97682 3.19479 0
M  V30 396 H 33.4093 -0.705484 0.266098 0
M  V30 397 H 36.0603 -1.34928 1.24365 0
M  V30 398 H 34.4423 -3.90707 0.6453 0
M  V30 399 H 35.6163 -3.11769 3.39318 0
M  V30 400 H 33.9313 -2.93174 2.95699 0
M  V30 401 H 36.5283 -5.18119 1.32123 0
M  V30 402 H 36.8713 -4.16263 -0.0554308 0
M  V30 403 H 37.4043 -3.65668 1.56625 0
M  V30 404 H 34.1433 -4.98945 4.25128 0
M  V30 405 H 33.6633 -5.4095 2.591 0
M  V30 406 H 35.3423 -5.66337 3.12845 0
M  V30 407 N 35.4744 -0.807222 -1.35358 0
M  V30 408 C 36.7234 -0.384376 -1.98004 0
M  V30 409 C 37.0364 1.0543 -1.64754 0
M  V30 410 O 38.2424 1.58029 -2.20769 0
M  V30 411 C 36.6984 -0.636326 -3.5423 0
M  V30 412 C 36.3064 -2.08759 -3.96388 0
M  V30 413 C 38.0504 -0.278869 -4.23583 0
M  V30 414 C 35.9574 -2.28525 -5.45463 0
M  V30 415 H 34.8874 -0.139986 -0.740891 0
M  V30 416 H 37.5384 -0.991369 -1.54415 0
M  V30 417 H 35.9204 0.0406256 -3.95979 0
M  V30 418 H 37.0944 -2.8024 -3.6579 0
M  V30 419 H 35.4094 -2.40497 -3.39926 0
M  V30 420 H 38.0064 -0.404599 -5.33167 0
M  V30 421 H 38.3494 0.775012 -4.09022 0
M  V30 422 H 38.8824 -0.909764 -3.87257 0
M  V30 423 H 35.6214 -3.32361 -5.64992 0
M  V30 424 H 35.1414 -1.61569 -5.77629 0
M  V30 425 H 36.8204 -2.10109 -6.11934 0
M  V30 426 N 36.9525 1.47285 -0.560781 0
M  V30 427 C 37.8825 2.32857 0.173105 0
M  V30 428 C 38.8635 1.44009 0.905281 0
M  V30 429 O 40.0485 1.7286 0.885046 0
M  V30 430 C 37.1785 3.25861 1.20133 0
M  V30 431 C 36.1325 4.23978 0.585388 0
M  V30 432 C 35.4585 5.06332 1.7185 0
M  V30 433 C 36.7585 5.20242 -0.463178 0
M  V30 434 H 38.4525 2.94466 -0.541307 0
M  V30 435 H 35.9985 1.41601 -0.261764 0
M  V30 436 H 37.9515 3.84569 1.72293 0
M  V30 437 H 36.6755 2.62315 1.94573 0
M  V30 438 H 35.3345 3.66501 0.085054 0
M  V30 439 H 34.9825 4.39186 2.45203 0
M  V30 440 H 34.6825 5.72762 1.31213 0
M  V30 441 H 36.2065 5.67899 2.24329 0
M  V30 442 H 37.6205 5.73293 -0.027502 0
M  V30 443 H 36.0175 5.94896 -0.788627 0
M  V30 444 H 37.0875 4.65504 -1.35773 0
M  V30 445 N 38.4306 0.297415 1.54768 0
M  V30 446 C 39.6786 -0.312295 1.99673 0
M  V30 447 C 39.9996 -1.54686 1.18732 0
M  V30 448 O 39.2696 -1.93854 0.282382 0
M  V30 449 H 37.8496 -0.118381 0.73756 0
M  V30 450 H 40.5116 0.407915 1.90583 0
M  V30 451 H 39.6076 -0.586813 3.06534 0
M  V30 452 N 39.9087 -1.5758 0.0250728 0
M  V30 453 C 41.1337 -1.96337 -0.668317 0
M  V30 454 C 41.5587 -0.901314 -1.651 0
M  V30 455 O 40.9167 0.138187 -1.80773 0
M  V30 456 C 40.9647 -3.34191 -1.35457 0
M  V30 457 O 40.0687 -3.30269 -2.46974 0
M  V30 458 H 39.4097 -0.640281 -0.175887 0
M  V30 459 H 41.9397 -2.0442 0.0857224 0
M  V30 460 H 41.9497 -3.70331 -1.71228 0
M  V30 461 H 40.6247 -4.11036 -0.634218 0
M  V30 462 H 39.2017 -3.05841 -2.13344 0
M  V30 463 N 41.3868 0.248026 -1.55636 0
M  V30 464 C 42.6348 0.974295 -1.77065 0
M  V30 465 C 42.9558 1.85897 -0.588849 0
M  V30 466 O 42.2258 1.91868 0.395407 0
M  V30 467 H 40.8058 0.362733 -0.653019 0
M  V30 468 H 43.4678 0.266244 -1.93073 0
M  V30 469 H 42.5638 1.59667 -2.68166 0
M  V30 470 N 42.8649 1.48995 0.513639 0
M  V30 471 C 44.1119 1.57843 1.26854 0
M  V30 472 C 44.4399 0.259501 1.92761 0
M  V30 473 O 43.6949 -0.75159 1.80692 0
M  V30 474 C 43.9939 2.67756 2.36731 0
M  V30 475 C 43.6599 4.09669 1.88368 0
M  V30 476 C 42.3219 4.48291 1.74896 0
M  V30 477 C 44.6739 4.98537 1.52021 0
M  V30 478 C 42.0019 5.73568 1.23438 0
M  V30 479 C 44.3539 6.24319 1.0202 0
M  V30 480 C 43.0179 6.61783 0.871778 0
M  V30 481 H 42.2879 0.577587 0.464192 0
M  V30 482 H 44.9349 1.82778 0.571366 0
M  V30 483 H 43.2399 2.36743 3.12185 0
M  V30 484 H 44.9369 2.71813 2.9482 0
M  V30 485 H 41.5269 3.79176 1.99808 0
M  V30 486 H 45.7109 4.69363 1.61281 0
M  V30 487 H 40.9669 6.01304 1.10648 0
M  V30 488 H 45.1409 6.92566 0.729722 0
M  V30 489 H 42.7679 7.5874 0.470852 0
M  V30 490 N 44.343 -0.763751 1.37857 0
M  V30 491 C 45.591 -1.51957 1.33243 0
M  V30 492 C 45.912 -1.94835 -0.0801709 0
M  V30 493 O 45.182 -1.66894 -1.02582 0
M  V30 494 H 43.762 -0.563626 0.49024 0
M  V30 495 H 46.424 -0.908504 1.7243 0
M  V30 496 H 45.52 -2.41523 1.97669 0
M  V30 497 N 45.8211 -1.22559 -0.990812 0
M  V30 498 C 47.2321 -1.04791 -1.54518 0
M  V30 499 C 47.5831 0.387998 -1.92325 0
M  V30 500 O 46.7081 1.27328 -1.74976 0
M  V30 501 C 47.3031 -1.896 -2.80779 0
M  V30 502 C 45.8621 -1.76124 -3.32652 0
M  V30 503 C 45.0091 -1.8594 -2.05722 0
M  V30 504 H 47.9601 -1.36374 -0.811662 0
M  V30 505 H 47.9811 -1.41464 -3.53225 0
M  V30 506 H 47.4931 -2.94101 -2.53231 0
M  V30 507 H 45.5941 -0.743643 -3.65104 0
M  V30 508 H 45.7071 -2.58913 -4.03114 0
M  V30 509 H 44.0711 -1.29403 -2.19379 0
M  V30 510 H 44.8541 -2.91976 -1.80568 0
M  V30 511 N 47.2992 1.18797 -1.03562 0
M  V30 512 C 48.5462 1.8865 -0.736023 0
M  V30 513 C 48.8742 1.80041 0.735889 0
M  V30 514 O 48.1292 1.19179 1.55225 0
M  V30 515 C 48.4282 3.38692 -1.14117 0
M  V30 516 C 48.0942 3.67504 -2.6125 0
M  V30 517 C 46.7562 3.75078 -3.01447 0
M  V30 518 C 49.1082 3.80293 -3.56408 0
M  V30 519 C 46.4362 3.92915 -4.35701 0
M  V30 520 C 48.7882 3.99645 -4.90374 0
M  V30 521 C 47.4522 4.05453 -5.30249 0
M  V30 522 H 46.7222 0.690321 -0.26933 0
M  V30 523 H 49.3692 1.40641 -1.29971 0
M  V30 524 H 47.6742 3.88645 -0.496202 0
M  V30 525 H 49.3712 3.91072 -0.886789 0
M  V30 526 H 45.9612 3.62223 -2.29113 0
M  V30 527 H 50.1452 3.73779 -3.26501 0
M  V30 528 H 45.4012 3.95653 -4.66121 0
M  V30 529 H 49.5752 4.08482 -5.64017 0
M  V30 530 H 47.2022 4.19027 -6.34288 0
M  V30 531 N 48.7773 0.814389 1.34928 0
M  V30 532 C 50.0263 0.394871 1.97797 0
M  V30 533 C 50.3393 -1.04555 1.65311 0
M  V30 534 O 51.5453 -1.56856 2.21604 0
M  V30 535 C 50.0013 0.655103 3.53888 0
M  V30 536 C 49.6093 2.10858 3.95276 0
M  V30 537 C 51.3533 0.301329 4.23429 0
M  V30 538 C 49.2603 2.31415 5.44244 0
M  V30 539 H 48.1903 0.143913 0.740139 0
M  V30 540 H 50.8413 0.999544 1.53888 0
M  V30 541 H 49.2233 -0.0196253 3.95995 0
M  V30 542 H 50.3973 2.82176 3.64298 0
M  V30 543 H 48.7123 2.42297 3.38646 0
M  V30 544 H 51.3093 0.432869 5.32945 0
M  V30 545 H 51.6523 -0.75331 4.09428 0
M  V30 546 H 52.1853 0.930288 3.86769 0
M  V30 547 H 48.9243 3.35353 5.63222 0
M  V30 548 H 48.4443 1.6463 5.76764 0
M  V30 549 H 50.1233 2.13352 6.10811 0
M  V30 550 N 50.2554 -1.46986 0.568584 0
M  V30 551 C 51.1654 -2.33942 -0.17555 0
M  V30 552 C 52.1814 -1.48891 -0.90041 0
M  V30 553 O 53.3574 -1.81794 -0.86676 0
M  V30 554 C 50.4224 -3.25811 -1.18524 0
M  V30 555 C 49.4834 -4.26757 -0.466582 0
M  V30 556 C 48.7164 -5.14236 -1.42817 0
M  V30 557 O 48.9394 -5.04379 -2.66379 0
M  V30 558 O 47.8734 -5.94412 -0.946453 0
M  V30 559 H 51.6994 -2.98896 0.538036 0
M  V30 560 H 49.2844 -1.4573 0.329097 0
M  V30 561 H 51.1664 -3.82527 -1.76779 0
M  V30 562 H 49.8414 -2.63471 -1.88055 0
M  V30 563 H 48.7484 -3.73769 0.157451 0
M  V30 564 H 50.0814 -4.91843 0.187485 0
M  V30 565 N 51.7335 -0.305618 -1.54608 0
M  V30 566 C 52.6805 0.568421 -2.23691 0
M  V30 567 C 53.6505 1.12592 -1.22116 0
M  V30 568 O 54.8355 1.16959 -1.50749 0
M  V30 569 C 51.9755 1.7322 -2.98477 0
M  V30 570 C 51.0885 1.20566 -4.14835 0
M  V30 571 C 50.2235 2.33368 -4.77193 0
M  V30 572 C 49.2625 1.7787 -5.85686 0
M  V30 573 N 48.3995 2.84263 -6.4198 0
M  V30 574 H 53.2395 -0.0272867 -2.97988 0
M  V30 575 H 50.7765 -0.0252363 -1.47078 0
M  V30 576 H 52.7345 2.41675 -3.40072 0
M  V30 577 H 51.3645 2.29947 -2.26548 0
M  V30 578 H 50.4165 0.413223 -3.78149 0
M  V30 579 H 51.7285 0.759417 -4.92985 0
M  V30 580 H 50.8825 3.09761 -5.21664 0
M  V30 581 H 49.6215 2.8132 -3.98385 0
M  V30 582 H 48.6265 0.99968 -5.40635 0
M  V30 583 H 49.8515 1.30816 -6.66381 0
M  V30 584 H 47.7975 3.31541 -5.66053 0
M  V30 585 H 47.7145 2.44149 -7.15491 0
M  V30 586 H 48.9825 3.6054 -6.91109 0
M  V30 587 N 53.2116 1.57565 -0.0334293 0
M  V30 588 C 54.4576 1.92262 0.645226 0
M  V30 589 C 54.7906 0.910543 1.71531 0
M  V30 590 O 54.0656 -0.066099 1.94388 0
M  V30 591 C 54.3486 3.37422 1.2577 0
M  V30 592 C 54.2016 4.49369 0.196891 0
M  V30 593 C 55.5206 3.82628 2.17449 0
M  V30 594 H 52.6396 0.699171 0.233085 0
M  V30 595 H 55.2816 1.89779 -0.0915694 0
M  V30 596 H 53.4316 3.39669 1.88566 0
M  V30 597 H 55.1036 4.59254 -0.433962 0
M  V30 598 H 53.3466 4.31168 -0.477137 0
M  V30 599 H 54.0176 5.47978 0.665124 0
M  V30 600 H 56.4936 3.82145 1.64634 0
M  V30 601 H 55.3696 4.84883 2.57254 0
M  V30 602 H 55.6306 3.18376 3.0674 0
M  V30 603 N 54.6897 -0.239769 1.55765 0
M  V30 604 C 55.5997 -1.31831 1.94056 0
M  V30 605 C 56.6157 -1.52275 0.841925 0
M  V30 606 O 57.7917 -1.65759 1.14394 0
M  V30 607 C 54.8567 -2.65156 2.23368 0
M  V30 608 C 53.9177 -2.53173 3.46701 0
M  V30 609 C 53.1507 -3.8014 3.74606 0
M  V30 610 O 53.3737 -4.82343 3.04469 0
M  V30 611 O 52.3077 -3.78344 4.68123 0
M  V30 612 H 56.1337 -1.02347 2.85935 0
M  V30 613 H 53.7187 -0.441123 1.42739 0
M  V30 614 H 55.6007 -3.43929 2.43497 0
M  V30 615 H 54.2757 -2.94358 1.34666 0
M  V30 616 H 53.1827 -1.72662 3.31871 0
M  V30 617 H 54.5157 -2.28915 4.35728 0
M  V30 618 N 56.1678 -1.49265 -0.50573 0
M  V30 619 C 57.4448 -1.49012 -1.26707 0
M  V30 620 C 57.8248 -0.215205 -2.1 0
M  V30 621 O 57.1728 0.802547 -2.13943 0
M  V30 622 C 57.3828 -2.7663 -2.12783 0
M  V30 623 C 58.7308 -3.25932 -2.72127 0
M  V30 624 O 59.7548 -2.77715 -2.23054 0
M  V30 625 O 58.6138 -4.09897 -3.61451 0
M  V30 626 H 55.7078 -0.596197 -0.57313 0
M  V30 627 H 58.2538 -1.61524 -0.52039 0
M  V30 628 H 57.0258 -3.60916 -1.5118 0
M  V30 629 H 56.6488 -2.66956 -2.94653 0
M  V30 630 N 57.6459 0.756429 -1.3826 0
M  V30 631 C 59.0569 1.33359 -1.30661 0
M  V30 632 C 59.4079 1.96161 0.0388875 0
M  V30 633 O 58.5329 1.94874 0.940918 0
M  V30 634 C 59.1279 2.42477 -2.36622 0
M  V30 635 C 57.6869 2.95922 -2.3261 0
M  V30 636 C 56.8339 1.69275 -2.19639 0
M  V30 637 H 59.7849 0.55552 -1.4866 0
M  V30 638 H 59.8059 3.22345 -2.02174 0
M  V30 639 H 59.3179 1.96739 -3.34538 0
M  V30 640 H 57.4189 3.45996 -1.38267 0
M  V30 641 H 57.5319 3.50494 -3.26636 0
M  V30 642 H 55.8959 1.92793 -1.66442 0
M  V30 643 H 56.6789 1.25619 -3.19491 0
M  V30 644 N 59.124 1.23083 0.984299 0
M  V30 645 C 60.37 1.06214 1.72761 0
M  V30 646 C 60.703 -0.400584 1.90024 0
M  V30 647 O 59.978 -1.29672 1.44967 0
M  V30 648 C 60.261 1.78375 3.12817 0
M  V30 649 C 60.114 3.32296 3.03149 0
M  V30 650 C 61.433 1.54309 4.12161 0
M  V30 651 H 58.552 0.387251 0.627061 0
M  V30 652 H 61.194 1.51536 1.14616 0
M  V30 653 H 59.344 1.39848 3.62457 0
M  V30 654 H 61.016 3.8032 2.61064 0
M  V30 655 H 59.259 3.6153 2.39747 0
M  V30 656 H 59.93 3.77972 4.02295 0
M  V30 657 H 62.406 1.87791 3.71314 0
M  V30 658 H 61.282 2.07281 5.08258 0
M  V30 659 H 61.543 0.477572 4.39513 0
M  V30 660 N 60.6021 -1.18246 1.0419 0
M  V30 661 C 61.8511 -1.87588 0.741194 0
M  V30 662 C 62.1641 -1.81303 -0.734066 0
M  V30 663 O 63.3701 -2.46019 -1.14834 0
M  V30 664 C 61.8261 -3.36538 1.27555 0
M  V30 665 C 61.4341 -3.51349 2.77953 0
M  V30 666 C 63.1781 -4.11273 1.05143 0
M  V30 667 C 61.0851 -4.94265 3.2474 0
M  V30 668 H 60.0151 -0.702622 0.273565 0
M  V30 669 H 62.6661 -1.33601 1.25789 0
M  V30 670 H 61.0481 -3.9 0.686703 0
M  V30 671 H 62.2221 -3.08153 3.42605 0
M  V30 672 H 60.5371 -2.90022 2.98791 0
M  V30 673 H 63.1341 -5.16689 1.37611 0
M  V30 674 H 63.4771 -4.16298 -0.0112774 0
M  V30 675 H 64.0101 -3.63987 1.60495 0
M  V30 676 H 60.7491 -4.94408 4.30396 0
M  V30 677 H 60.2691 -5.38172 2.64823 0
M  V30 678 H 61.9481 -5.62987 3.18834 0
M  V30 679 N 62.0802 -0.821533 -1.34494 0
M  V30 680 C 63.3292 -0.405355 -1.97585 0
M  V30 681 C 63.6422 1.03677 -1.65863 0
M  V30 682 O 64.8482 1.55679 -2.22433 0
M  V30 683 C 63.3042 -0.673861 -3.53535 0
M  V30 684 C 62.9122 -2.12951 -3.94152 0
M  V30 685 C 64.6562 -0.32378 -4.23263 0
M  V30 686 C 62.5632 -2.34298 -5.43009 0
M  V30 687 H 61.4932 -0.147836 -0.739365 0
M  V30 688 H 64.1442 -1.00769 -1.53355 0
M  V30 689 H 62.5262 -0.00137554 -3.96 0
M  V30 690 H 63.7002 -2.84104 -3.62797 0
M  V30 691 H 62.0152 -2.44089 -3.37356 0
M  V30 692 H 64.6122 -0.461126 -5.32708 0
M  V30 693 H 64.9552 0.731586 -4.09821 0
M  V30 694 H 65.4882 -0.950786 -3.8627 0
M  V30 695 H 62.2272 -3.38335 -5.61435 0
M  V30 696 H 61.7472 -1.67687 -5.75883 0
M  V30 697 H 63.4262 -2.16588 -6.09671 0
M  V30 698 N 63.5583 1.46682 -0.576371 0
M  V30 699 C 64.8353 1.95599 0.00703437 0
M  V30 700 C 65.2153 1.51904 1.46589 0
M  V30 701 O 64.5633 0.766755 2.15251 0
M  V30 702 C 64.7733 3.4864 -0.158404 0
M  V30 703 C 66.1213 4.24594 -0.0229439 0
M  V30 704 O 67.1453 3.56094 -0.0869173 0
M  V30 705 O 66.0043 5.46373 0.118015 0
M  V30 706 H 63.0983 0.825275 0.053384 0
M  V30 707 H 65.6443 1.56996 -0.644244 0
M  V30 708 H 64.4163 3.7331 -1.17282 0
M  V30 709 H 64.0393 3.94057 0.5296 0
M  V30 710 N 65.0364 0.313813 1.54444 0
M  V30 711 C 66.2664 -0.293491 2.04505 0
M  V30 712 C 66.6744 -1.47086 1.19005 0
M  V30 713 O 66.0174 -1.82481 0.211257 0
M  V30 714 C 66.0794 -0.800455 3.50475 0
M  V30 715 C 65.7434 0.253322 4.56297 0
M  V30 716 C 66.7404 1.08612 5.08428 0
M  V30 717 C 64.4254 0.398708 5.00715 0
M  V30 718 C 66.4194 2.05013 6.0353 0
M  V30 719 C 64.1064 1.36614 5.95634 0
M  V30 720 C 65.1044 2.19033 6.46926 0
M  V30 721 O 64.7924 3.14134 7.39983 0
M  V30 722 H 64.5244 -0.0658325 0.672787 0
M  V30 723 H 67.0784 0.455177 2.00293 0
M  V30 724 H 65.3084 -1.59987 3.52053 0
M  V30 725 H 66.9974 -1.32504 3.83663 0
M  V30 726 H 67.7634 0.984736 4.74898 0
M  V30 727 H 63.6424 -0.23289 4.60411 0
M  V30 728 H 67.1864 2.69382 6.4349 0
M  V30 729 H 63.0834 1.4682 6.28581 0
M  V30 730 H 63.8514 3.0926 7.57826 0
M  V30 731 N 66.5145 -1.57545 0.0417849 0
M  V30 732 C 67.4615 -2.10977 -0.935805 0
M  V30 733 C 68.4315 -1.01486 -1.31491 0
M  V30 734 O 69.6165 -1.2898 -1.40602 0
M  V30 735 C 66.7565 -2.65169 -2.2086 0
M  V30 736 C 65.8695 -3.88714 -1.88482 0
M  V30 737 C 65.0045 -4.31254 -3.1015 0
M  V30 738 C 64.0435 -5.47524 -2.7365 0
M  V30 739 N 63.1805 -5.85162 -3.87982 0
M  V30 740 H 68.0205 -2.94218 -0.473249 0
M  V30 741 H 65.5575 -1.45415 -0.221981 0
M  V30 742 H 67.5155 -2.94685 -2.95325 0
M  V30 743 H 66.1455 -1.8474 -2.64709 0
M  V30 744 H 65.1975 -3.65849 -1.04205 0
M  V30 745 H 66.5095 -4.73245 -1.57608 0
M  V30 746 H 65.6635 -4.62273 -3.92923 0
M  V30 747 H 64.4025 -3.45516 -3.44195 0
M  V30 748 H 63.4075 -5.16187 -1.89291 0
M  V30 749 H 64.6325 -6.34971 -2.40807 0
M  V30 750 H 62.5785 -5.02377 -4.21846 0
M  V30 751 H 62.4955 -6.64362 -3.60775 0
M  V30 752 H 63.7635 -6.20791 -4.71422 0
M  V30 753 N 67.9926 0.231505 -1.5589 0
M  V30 754 C 69.2696 0.981096 -1.69215 0
M  V30 755 C 69.6496 2.02799 -0.586164 0
M  V30 756 O 68.9976 2.24823 0.408253 0
M  V30 757 C 69.2076 1.60054 -3.10135 0
M  V30 758 C 70.5556 2.09658 -3.69227 0
M  V30 759 O 71.5796 1.69967 -3.13033 0
M  V30 760 O 70.4386 2.8258 -4.67772 0
M  V30 761 H 67.5326 0.457653 -0.688827 0
M  V30 762 H 70.0786 0.224073 -1.68214 0
M  V30 763 H 68.8506 0.844105 -3.82087 0
M  V30 764 H 68.4736 2.42336 -3.15212 0
M  V30 765 N 69.4707 1.49531 0.497807 0
M  V30 766 C 70.7197 1.58426 1.24837 0
M  V30 767 C 71.0327 0.277643 1.93619 0
M  V30 768 O 72.2387 0.24517 2.70391 0
M  V30 769 C 70.6947 2.79538 2.26686 0
M  V30 770 C 70.3027 4.16971 1.63828 0
M  V30 771 C 72.0467 2.97764 3.0255 0
M  V30 772 C 69.9537 5.29301 2.63807 0
M  V30 773 H 68.8837 0.58989 0.469623 0
M  V30 774 H 71.5347 1.75923 0.521857 0
M  V30 775 H 69.9167 2.55542 3.02514 0
M  V30 776 H 71.0907 4.51116 0.939711 0
M  V30 777 H 69.4057 4.04129 1.00342 0
M  V30 778 H 72.0027 3.78856 3.77323 0
M  V30 779 H 72.3457 2.08448 3.60354 0
M  V30 780 H 72.8787 3.21815 2.33838 0
M  V30 781 H 69.6177 6.20687 2.10779 0
M  V30 782 H 69.1377 4.99606 3.31894 0
M  V30 783 H 70.8167 5.58768 3.2617 0
M  V30 784 N 70.9488 -0.749086 1.3866 0
M  V30 785 C 72.3598 -1.32664 1.31366 0
M  V30 786 C 72.7108 -1.96179 -0.028484 0
M  V30 787 O 71.8358 -1.9537 -0.93057 0
M  V30 788 C 72.4308 -2.41219 2.37905 0
M  V30 789 C 70.9898 -2.94684 2.34176 0
M  V30 790 C 70.1368 -1.68108 2.20533 0
M  V30 791 H 73.0878 -0.547628 1.48952 0
M  V30 792 H 73.1088 -3.21268 2.0388 0
M  V30 793 H 72.6208 -1.94962 3.35576 0
M  V30 794 H 70.7218 -3.45258 1.401 0
M  V30 795 H 70.8348 -3.48757 3.2849 0
M  V30 796 H 69.1988 -1.91907 1.67463 0
M  V30 797 H 69.9818 -1.23923 3.20153 0
M  V30 798 N 72.4269 -1.23603 -0.977757 0
M  V30 799 C 73.3769 -0.986664 -2.05545 0
M  V30 800 C 74.3609 0.0683009 -1.60755 0
M  V30 801 O 75.5529 -0.144162 -1.76412 0
M  V30 802 C 72.6819 -0.582623 -3.3832 0
M  V30 803 C 71.7679 -1.67313 -3.89701 0
M  V30 804 N 72.1589 -2.90394 -4.14132 0
M  V30 805 C 70.4569 -1.54832 -4.18262 0
M  V30 806 C 71.1579 -3.61017 -4.56116 0
M  V30 807 N 70.1339 -2.8854 -4.60701 0
M  V30 808 H 73.9359 -1.92139 -2.22396 0
M  V30 809 H 71.4499 -1.1358 -1.16074 0
M  V30 810 H 73.4469 -0.38524 -4.15116 0
M  V30 811 H 72.1069 0.34503 -3.22862 0
M  V30 812 H 73.1179 -3.26673 -4.01877 0
M  V30 813 H 69.7949 -0.687969 -4.11793 0
M  V30 814 H 71.1849 -4.66544 -4.83514 0
M  V30 815 N 73.905 1.17692 -1.04816 0
M  V30 816 C 75.152 1.87859 -0.75599 0
M  V30 817 C 75.48 1.80812 0.716752 0
M  V30 818 O 74.735 1.20819 1.53952 0
M  V30 819 C 75.034 3.37462 -1.17703 0
M  V30 820 C 74.7 3.64713 -2.65133 0
M  V30 821 C 73.362 3.71859 -3.05408 0
M  V30 822 C 75.714 3.76492 -3.60421 0
M  V30 823 C 73.042 3.88271 -4.39843 0
M  V30 824 C 75.394 3.94421 -4.94585 0
M  V30 825 C 74.058 3.99806 -5.3452 0
M  V30 826 H 73.328 0.687425 -0.276636 0
M  V30 827 H 75.975 1.39255 -1.31455 0
M  V30 828 H 74.28 3.88097 -0.537395 0
M  V30 829 H 75.977 3.90109 -0.928218 0
M  V30 830 H 72.567 3.59772 -2.32942 0
M  V30 831 H 76.751 3.70295 -3.30447 0
M  V30 832 H 72.007 3.90687 -4.70291 0
M  V30 833 H 76.181 4.02477 -5.68318 0
M  V30 834 H 73.808 4.12276 -6.38696 0
M  V30 835 N 75.3831 0.828654 1.34056 0
M  V30 836 C 76.7941 0.477534 1.8049 0
M  V30 837 C 77.1451 -1.00258 1.6865 0
M  V30 838 O 76.2701 -1.78057 1.22982 0
M  V30 839 C 76.8651 0.860018 3.27703 0
M  V30 840 C 75.4241 0.561185 3.72193 0
M  V30 841 C 74.5711 1.07385 2.55663 0
M  V30 842 H 77.5221 1.0183 1.21722 0
M  V30 843 H 77.5431 0.166038 3.80138 0
M  V30 844 H 77.0551 1.93731 3.36288 0
M  V30 845 H 75.1561 -0.506465 3.69142 0
M  V30 846 H 75.2691 1.10926 4.66082 0
M  V30 847 H 73.6331 0.495149 2.49841 0
M  V30 848 H 74.4161 2.15771 2.67016 0
M  V30 849 N 76.8612 -1.46375 0.584142 0
M  V30 850 C 77.7932 -2.28443 -0.186119 0
M  V30 851 C 78.8062 -1.38596 -0.854115 0
M  V30 852 O 79.9952 -1.63183 -0.723438 0
M  V30 853 C 77.0952 -3.13671 -1.28311 0
M  V30 854 C 76.2682 -4.31652 -0.706758 0
M  V30 855 C 75.3272 -4.98267 -1.69163 0
M  V30 856 O 74.3532 -5.55815 -1.22712 0
M  V30 857 N 75.5552 -4.95408 -3.02575 0
M  V30 858 H 78.3202 -2.9519 0.517986 0
M  V30 859 H 75.8812 -1.56303 0.42201 0
M  V30 860 H 77.8732 -3.55101 -1.94128 0
M  V30 861 H 76.4432 -2.48989 -1.89005 0
M  V30 862 H 75.6632 -3.93989 0.128908 0
M  V30 863 H 76.9512 -5.07906 -0.301506 0
M  V30 864 H 76.3492 -4.49902 -3.42936 0
M  V30 865 H 74.9062 -5.40774 -3.63877 0
M  V30 866 N 78.3393 -0.321999 -1.54275 0
M  V30 867 C 79.7503 0.166384 -1.85957 0
M  V30 868 C 80.1013 1.51747 -1.24367 0
M  V30 869 O 79.2263 2.09317 -0.549124 0
M  V30 870 C 79.8213 0.308681 -3.37391 0
M  V30 871 C 78.3803 0.741286 -3.69028 0
M  V30 872 C 77.5273 -0.137937 -2.76957 0
M  V30 873 H 80.4783 -0.542335 -1.49146 0
M  V30 874 H 80.4993 1.13984 -3.63026 0
M  V30 875 H 80.0113 -0.674809 -3.82188 0
M  V30 876 H 78.1123 1.73458 -3.29762 0
M  V30 877 H 78.2253 0.546118 -4.75977 0
M  V30 878 H 76.5893 0.386251 -2.51754 0
M  V30 879 H 77.3723 -1.11816 -3.2458 0
M  V30 880 N 79.8174 1.5752 -0.0501392 0
M  V30 881 C 81.0454 1.96963 0.633492 0
M  V30 882 C 81.4604 0.927631 1.6444 0
M  V30 883 O 80.8174 -0.0882665 1.82286 0
M  V30 884 C 80.8684 3.36487 1.32132 0
M  V30 885 O 80.5894 4.36693 0.350894 0
M  V30 886 C 82.0904 3.90682 2.09481 0
M  V30 887 H 79.3104 0.648244 0.173266 0
M  V30 888 H 81.8544 2.0417 -0.116134 0
M  V30 889 H 80.0094 3.30434 2.02218 0
M  V30 890 H 80.4234 5.17702 0.841735 0
M  V30 891 H 81.8974 4.90591 2.5303 0
M  V30 892 H 82.3744 3.26053 2.94255 0
M  V30 893 H 82.9804 4.00069 1.44307 0
M  V30 894 N 81.2955 -0.223234 1.56011 0
M  V30 895 C 82.5415 -0.949279 1.79211 0
M  V30 896 C 82.8745 -1.84054 0.619494 0
M  V30 897 O 82.1495 -1.90726 -0.381317 0
M  V30 898 C 82.4325 -1.78965 3.12479 0
M  V30 899 C 82.2855 -0.924997 4.40186 0
M  V30 900 C 83.6045 -2.76774 3.42175 0
M  V30 901 H 80.7235 -0.343676 0.651963 0
M  V30 902 H 83.3655 -0.218253 1.88742 0
M  V30 903 H 81.5155 -2.41291 3.04485 0
M  V30 904 H 83.1875 -0.318615 4.60198 0
M  V30 905 H 81.4305 -0.230344 4.33188 0
M  V30 906 H 82.1015 -1.54735 5.29869 0
M  V30 907 H 84.5775 -2.24584 3.50287 0
M  V30 908 H 83.4535 -3.32678 4.36597 0
M  V30 909 H 83.7145 -3.54429 2.64258 0
M  V30 910 N 82.7736 -1.49793 -0.48987 0
M  V30 911 C 83.6836 -1.70036 -1.61632 0
M  V30 912 C 84.6996 -0.583102 -1.63939 0
M  V30 913 O 85.8756 -0.859169 -1.82154 0
M  V30 914 C 82.9406 -1.77277 -2.97949 0
M  V30 915 C 82.0016 -3.00918 -3.06181 0
M  V30 916 C 81.2346 -3.07804 -4.35996 0
M  V30 917 O 81.4576 -2.21982 -5.25433 0
M  V30 918 O 80.3916 -4.00369 -4.49431 0
M  V30 919 H 84.2176 -2.65486 -1.47482 0
M  V30 920 H 81.8026 -1.33666 -0.667362 0
M  V30 921 H 83.6846 -1.84329 -3.78947 0
M  V30 922 H 82.3596 -0.850076 -3.12339 0
M  V30 923 H 81.2666 -2.99377 -2.2433 0
M  V30 924 H 82.5996 -3.92704 -2.96723 0
M  V30 925 N 84.2517 0.741722 -1.39055 0
M  V30 926 C 85.4997 1.49818 -1.35643 0
M  V30 927 C 85.8207 1.94938 0.0491642 0
M  V30 928 O 85.0907 1.68505 0.999141 0
M  V30 929 H 83.6707 0.555755 -0.499144 0
M  V30 930 H 86.3327 0.880957 -1.73854 0
M  V30 931 H 85.4287 2.38348 -2.01486 0
M  V30 932 N 85.7298 1.2412 0.971189 0
M  V30 933 C 86.6798 0.997551 2.05019 0
M  V30 934 C 87.6638 -0.0597747 1.60789 0
M  V30 935 O 88.8558 0.153516 1.76333 0
M  V30 936 C 85.9848 0.600557 3.38006 0
M  V30 937 C 85.0708 1.69377 3.88809 0
M  V30 938 N 85.4618 2.92586 4.12586 0
M  V30 939 C 83.7598 1.57048 4.17435 0
M  V30 940 C 84.4608 3.63431 4.54195 0
M  V30 941 N 83.4368 2.90979 4.59165 0
M  V30 942 H 87.2388 1.93316 2.21374 0
M  V30 943 H 84.7528 1.14194 1.1547 0
M  V30 944 H 86.7498 0.40725 4.14906 0
M  V30 945 H 85.4098 -0.327903 3.2304 0
M  V30 946 H 86.4208 3.288 4.00139 0
M  V30 947 H 83.0978 0.709798 4.11422 0
M  V30 948 H 84.4878 4.69102 4.81033 0
M  V30 949 N 87.2079 -1.17134 1.05439 0
M  V30 950 C 88.4329 -1.91913 0.786396 0
M  V30 951 C 88.8579 -1.7643 -0.652234 0
M  V30 952 O 88.2159 -1.08372 -1.45345 0
M  V30 953 C 88.2639 -3.40921 1.17497 0
M  V30 954 O 87.3679 -4.11244 0.308589 0
M  V30 955 H 86.7089 -0.598215 0.288158 0
M  V30 956 H 89.2389 -1.48457 1.4079 0
M  V30 957 H 89.2489 -3.91668 1.14281 0
M  V30 958 H 87.9239 -3.5151 2.22292 0
M  V30 959 H 86.5009 -3.70731 0.40157 0
M  V30 960 N 88.686 -0.835752 -1.33615 0
M  V30 961 C 89.934 -0.429109 -1.97492 0
M  V30 962 C 90.255 1.01433 -1.66543 0
M  V30 963 O 89.525 1.70611 -0.962744 0
M  V30 964 H 88.105 -0.155686 -0.730596 0
M  V30 965 H 90.767 -1.06802 -1.63031 0
M  V30 966 H 89.863 -0.55861 -3.0706 0
M  V30 967 N 90.1641 1.46063 -0.591896 0
M  V30 968 C 91.1111 2.30399 0.136069 0
M  V30 969 C 92.0811 1.41169 0.875238 0
M  V30 970 O 93.2661 1.70112 0.86409 0
M  V30 971 C 90.4061 3.25804 1.13781 0
M  V30 972 C 89.5191 4.30134 0.401137 0
M  V30 973 C 88.6541 5.12659 1.39121 0
M  V30 974 C 87.6931 6.0873 0.641462 0
M  V30 975 N 86.8301 6.8409 1.58004 0
M  V30 976 H 91.6701 2.92118 -0.589144 0
M  V30 977 H 89.2071 1.43959 -0.302342 0
M  V30 978 H 91.1651 3.79569 1.73156 0
M  V30 979 H 89.7951 2.65872 1.83062 0
M  V30 980 H 88.8471 3.79152 -0.307826 0
M  V30 981 H 90.1591 4.98458 -0.184565 0
M  V30 982 H 89.3131 5.70747 2.05749 0
M  V30 983 H 88.0521 4.44316 2.01084 0
M  V30 984 H 87.0571 5.49786 -0.0385419 0
M  V30 985 H 88.2821 6.79095 0.0270945 0
M  V30 986 H 86.2281 6.18449 2.18761 0
M  V30 987 H 86.1451 7.48709 1.04738 0
M  V30 988 H 87.4131 7.4673 2.23639 0
M  V30 989 N 91.6422 0.330177 1.54103 0
M  V30 990 C 92.5722 -0.525353 2.27513 0
M  V30 991 C 93.5532 -1.11383 1.2856 0
M  V30 992 O 94.7382 -1.13773 1.57383 0
M  V30 993 C 91.8682 -1.6831 3.03791 0
M  V30 994 C 90.8222 -1.2236 4.10137 0
M  V30 995 C 90.1482 -2.46882 4.74293 0
M  V30 996 C 91.4482 -0.333697 5.21233 0
M  V30 997 H 93.1422 0.087013 2.99274 0
M  V30 998 H 90.6882 0.0432893 1.43935 0
M  V30 999 H 92.6412 -2.28795 3.5388 0
M  V30 1000 H 91.3652 -2.32216 2.29659 0
M  V30 1001 H 90.0242 -0.64165 3.60941 0
M  V30 1002 H 89.6722 -3.09165 3.96769 0
M  V30 1003 H 89.3722 -2.16825 5.46133 0
M  V30 1004 H 90.8962 -3.08117 5.27159 0
M  V30 1005 H 92.3102 -0.845013 5.67038 0
M  V30 1006 H 90.7072 -0.125612 5.99969 0
M  V30 1007 H 91.7772 0.633724 4.80741 0
M  V30 1008 N 93.1203 -1.57491 0.0584922 0
M  V30 1009 C 94.3663 -1.93264 -0.614558 0
M  V30 1010 C 94.6993 -0.937717 -1.7006 0
M  V30 1011 O 93.9743 0.0351652 -1.94468 0
M  V30 1012 C 94.2573 -3.3938 -1.20386 0
M  V30 1013 C 94.1103 -4.49625 -0.125375 0
M  V30 1014 C 95.4293 -3.86039 -2.11334 0
M  V30 1015 H 92.5483 -0.702791 -0.221933 0
M  V30 1016 H 95.1903 -1.8961 0.12175 0
M  V30 1017 H 93.3403 -3.42626 -1.83139 0
M  V30 1018 H 95.0123 -4.58506 0.506971 0
M  V30 1019 H 93.2553 -4.30354 0.545672 0
M  V30 1020 H 93.9263 -5.48967 -0.577861 0
M  V30 1021 H 96.4023 -3.84716 -1.58534 0
M  V30 1022 H 95.2783 -4.88914 -2.49507 0
M  V30 1023 H 95.5393 -3.23215 -3.01636 0
M  V30 1024 N 94.5984 0.214957 -1.56127 0
M  V30 1025 C 95.8454 0.938372 -1.79446 0
M  V30 1026 C 96.1734 1.8407 -0.628378 0
M  V30 1027 O 95.4284 1.91837 0.386925 0
M  V30 1028 C 95.7274 1.80314 -3.0858 0
M  V30 1029 C 95.3934 1.05349 -4.3842 0
M  V30 1030 C 94.0554 0.846435 -4.73697 0
M  V30 1031 C 96.4074 0.524588 -5.18553 0
M  V30 1032 C 93.7354 0.098683 -5.86617 0
M  V30 1033 C 96.0874 -0.209853 -6.32252 0
M  V30 1034 C 94.7514 -0.428102 -6.66126 0
M  V30 1035 H 94.0214 0.343375 -0.656639 0
M  V30 1036 H 96.6684 0.206077 -1.90388 0
M  V30 1037 H 94.9734 2.6035 -2.92789 0
M  V30 1038 H 96.6704 2.36513 -3.23825 0
M  V30 1039 H 93.2604 1.22486 -4.10725 0
M  V30 1040 H 97.4444 0.672008 -4.91729 0
M  V30 1041 H 92.7004 -0.0805753 -6.11347 0
M  V30 1042 H 96.8744 -0.627157 -6.9357 0
M  V30 1043 H 94.5014 -1.00944 -7.53468 0
M  V30 1044 N 96.0765 1.50051 0.48192 0
M  V30 1045 C 97.3245 1.60181 1.23234 0
M  V30 1046 C 97.6455 0.299176 1.92691 0
M  V30 1047 O 96.9155 -0.682708 1.83619 0
M  V30 1048 H 95.4955 0.590232 0.457859 0
M  V30 1049 H 98.1575 1.86775 0.556881 0
M  V30 1050 H 97.2535 2.40753 1.98607 0
M  V30 1051 N 97.5546 -0.734337 1.39446 0
M  V30 1052 C 98.9706 -1.03997 1.21065 0
M  V30 1053 C 99.1706 -2.01369 0.0727019 0
M  V30 1054 O 98.2266 -2.45856 -0.575426 0
M  V30 1055 C 99.5396 -1.60163 2.54496 0
M  V30 1056 C 101.088 -1.7224 2.61347 0
M  V30 1057 C 101.563 -2.31814 3.95002 0
M  V30 1058 N 103.054 -2.39223 3.96644 0
M  V30 1059 C 103.789 -2.86258 4.96834 0
M  V30 1060 N 103.285 -3.33184 6.07421 0
M  V30 1061 N 105.078 -2.85473 4.84213 0
M  V30 1062 H 97.2286 -0.0885624 2.12215 0
M  V30 1063 H 99.4916 -0.10191 0.942506 0
M  V30 1064 H 99.1976 -0.960811 3.38321 0
M  V30 1065 H 99.0716 -2.5896 2.74262 0
M  V30 1066 H 101.459 -2.35443 1.77906 0
M  V30 1067 H 101.54 -0.720939 2.4543 0
M  V30 1068 H 101.184 -1.69238 4.78875 0
M  V30 1069 H 101.114 -3.32638 4.08239 0
M  V30 1070 H 103.605 -2.06057 3.16779 0
M  V30 1071 H 103.918 -3.67586 6.7978 0
M  V30 1072 H 102.263 -3.31191 6.11013 0
M  V30 1073 H 105.454 -2.48136 3.96921 0
M  V30 1074 H 105.627 -3.21814 5.62441 0
M  V30 1075 N 99.0327 -1.24633 -0.964593 0
M  V30 1076 C 100.282 -1.08188 -1.7023 0
M  V30 1077 C 100.595 0.37873 -1.91898 0
M  V30 1078 O 101.801 0.663427 -2.6327 0
M  V30 1079 C 100.257 -1.88773 -3.06419 0
M  V30 1080 C 99.8647 -3.39263 -2.92582 0
M  V30 1081 C 101.609 -1.80867 -3.84041 0
M  V30 1082 C 99.5157 -4.1218 -4.24101 0
M  V30 1083 H 98.4457 -0.401245 -0.638372 0
M  V30 1084 H 101.097 -1.48742 -1.07462 0
M  V30 1085 H 99.4787 -1.41035 -3.70034 0
M  V30 1086 H 100.653 -3.94603 -2.37961 0
M  V30 1087 H 98.9677 -3.48154 -2.28424 0
M  V30 1088 H 101.565 -2.32646 -4.81435 0
M  V30 1089 H 101.908 -0.774543 -4.09031 0
M  V30 1090 H 102.441 -2.26301 -3.27159 0
M  V30 1091 H 99.1797 -5.15965 -4.04303 0
M  V30 1092 H 98.6997 -3.61626 -4.78526 0
M  V30 1093 H 100.379 -4.19349 -4.92702 0
M  V30 1094 N 100.511 1.16574 -1.06058 0
M  V30 1095 C 101.736 1.91493 -0.796562 0
M  V30 1096 C 102.161 1.76773 0.642868 0
M  V30 1097 O 101.519 1.09142 1.44768 0
M  V30 1098 C 101.567 3.40293 -1.19303 0
M  V30 1099 O 100.671 4.11074 -0.330394 0
M  V30 1100 H 100.012 0.596678 -0.291326 0
M  V30 1101 H 102.542 1.47708 -1.41575 0
M  V30 1102 H 102.552 3.91057 -1.16356 0
M  V30 1103 H 101.227 3.50326 -2.24153 0
M  V30 1104 H 99.8038 3.70513 -0.421225 0
M  V30 1105 N 101.989 0.842826 1.3317 0
M  V30 1106 C 103.266 0.362216 1.92217 0
M  V30 1107 C 103.646 -1.15289 1.76838 0
M  V30 1108 O 102.994 -1.96914 1.15919 0
M  V30 1109 C 103.204 0.813495 3.39387 0
M  V30 1110 C 104.552 0.823804 4.16532 0
M  V30 1111 O 105.576 0.757358 3.48055 0
M  V30 1112 O 104.435 0.915193 5.38782 0
M  V30 1113 H 101.529 0.103317 0.820521 0
M  V30 1114 H 104.075 0.928942 1.42017 0
M  V30 1115 H 102.847 1.85624 3.4447 0
M  V30 1116 H 102.47 0.223561 3.96971 0
M  V30 1117 N 103.467 -1.45747 0.599634 0
M  V30 1118 C 104.414 -2.30467 -0.123849 0
M  V30 1119 C 105.384 -1.41632 -0.86774 0
M  V30 1120 O 106.569 -1.70568 -0.855056 0
M  V30 1121 C 103.709 -3.26402 -1.12051 0
M  V30 1122 C 102.822 -4.3034 -0.37832 0
M  V30 1123 C 101.957 -5.13389 -1.364 0
M  V30 1124 C 100.996 -6.09061 -0.609171 0
M  V30 1125 N 100.133 -6.84918 -1.54374 0
M  V30 1126 H 104.973 -2.91802 0.604627 0
M  V30 1127 H 102.51 -1.43797 0.309972 0
M  V30 1128 H 104.468 -3.80482 -1.7114 0
M  V30 1129 H 103.098 -2.66839 -1.8165 0
M  V30 1130 H 102.15 -3.78984 0.327929 0
M  V30 1131 H 103.462 -4.98354 0.210997 0
M  V30 1132 H 102.616 -5.7183 -2.02719 0
M  V30 1133 H 101.355 -4.45376 -1.98725 0
M  V30 1134 H 100.36 -5.49758 0.0676979 0
M  V30 1135 H 101.585 -6.79099 0.00891991 0
M  V30 1136 H 99.531 -6.19601 -2.15478 0
M  V30 1137 H 99.448 -7.49254 -1.00766 0
M  V30 1138 H 100.716 -7.47906 -2.19676 0
M  V30 1139 N 104.945 -0.338344 -1.53925 0
M  V30 1140 C 106.356 0.146651 -1.86123 0
M  V30 1141 C 106.707 1.5042 -1.2597 0
M  V30 1142 O 105.832 2.08723 -0.571294 0
M  V30 1143 C 106.427 0.272879 -3.37699 0
M  V30 1144 C 104.986 0.702103 -3.69794 0
M  V30 1145 C 104.133 -0.167304 -2.76795 0
M  V30 1146 H 107.084 -0.558123 -1.48562 0
M  V30 1147 H 107.105 1.10128 -3.64214 0
M  V30 1148 H 106.617 -0.715307 -3.81451 0
M  V30 1149 H 104.718 1.6995 -3.31584 0
M  V30 1150 H 104.831 0.495604 -4.7653 0
M  V30 1151 H 103.195 0.359527 -2.5215 0
M  V30 1152 H 103.978 -1.15253 -3.23375 0
M  V30 1153 N 106.423 1.57458 -0.0668435 0
M  V30 1154 C 107.669 1.93587 0.6043 0
M  V30 1155 C 108.002 0.946722 1.69561 0
M  V30 1156 O 107.277 -0.0248516 1.94484 0
M  V30 1157 C 107.56 3.40014 1.18585 0
M  V30 1158 C 107.413 4.49685 0.101529 0
M  V30 1159 C 108.732 3.87154 2.09284 0
M  V30 1160 H 105.851 0.703958 0.218202 0
M  V30 1161 H 108.493 1.89542 -0.131804 0
M  V30 1162 H 106.643 3.43592 1.81319 0
M  V30 1163 H 108.315 4.5823 -0.531279 0
M  V30 1164 H 106.558 4.30059 -0.568487 0
M  V30 1165 H 107.229 5.49266 0.54874 0
M  V30 1166 H 109.705 3.85551 1.56491 0
M  V30 1167 H 108.581 4.90231 2.46911 0
M  V30 1168 H 108.842 3.2481 2.99918 0
M  V30 1169 N 107.901 -0.206675 1.56239 0
M  V30 1170 C 108.834 -1.28383 1.88661 0
M  V30 1171 C 109.812 -1.44504 0.745481 0
M  V30 1172 O 110.996 -1.60079 0.995336 0
M  V30 1173 C 108.123 -2.65211 2.10667 0
M  V30 1174 C 107.169 -2.66025 3.33366 0
M  V30 1175 S 108.002 -2.18609 4.88846 0
M  V30 1176 C 109.158 -3.57283 5.13906 0
M  V30 1177 H 109.391 -1.00691 2.7973 0
M  V30 1178 H 106.924 -0.409627 1.48867 0
M  V30 1179 H 108.882 -3.43979 2.24029 0
M  V30 1180 H 107.543 -2.90121 1.20369 0
M  V30 1181 H 106.736 -3.66607 3.45855 0
M  V30 1182 H 106.338 -1.95331 3.18938 0
M  V30 1183 H 108.63 -4.53074 5.03717 0
M  V30 1184 H 109.573 -3.49699 6.15724 0
M  V30 1185 H 109.981 -3.51659 4.41583 0
M  V30 1186 N 109.379 -1.50304 -0.473955 0
M  V30 1187 C 110.628 -1.60392 -1.22301 0
M  V30 1188 C 110.941 -0.308411 -1.93153 0
M  V30 1189 O 112.147 -0.288156 -2.69966 0
M  V30 1190 C 110.603 -2.83109 -2.2221 0
M  V30 1191 C 110.211 -4.19524 -1.57173 0
M  V30 1192 C 111.955 -3.0254 -2.97775 0
M  V30 1193 C 109.862 -5.33431 -2.55353 0
M  V30 1194 H 108.792 -0.597286 -0.460179 0
M  V30 1195 H 111.443 -1.76731 -0.493803 0
M  V30 1196 H 109.825 -2.60322 -2.9841 0
M  V30 1197 H 110.999 -4.52554 -0.867824 0
M  V30 1198 H 109.314 -4.05674 -0.939002 0
M  V30 1199 H 111.911 -3.84811 -3.71248 0
M  V30 1200 H 112.254 -2.14154 -3.56992 0
M  V30 1201 H 112.787 -3.25494 -2.28688 0
M  V30 1202 H 109.526 -6.23962 -2.00878 0
M  V30 1203 H 109.046 -5.04823 -3.23904 0
M  V30 1204 H 110.725 -5.63887 -3.17239 0
M  V30 1205 N 110.857 0.726932 -1.39834 0
M  V30 1206 C 111.79 1.8501 -1.33592 0
M  V30 1207 C 112.768 1.61262 -0.208191 0
M  V30 1208 O 113.952 1.84422 -0.389981 0
M  V30 1209 C 111.079 3.21143 -1.07633 0
M  V30 1210 C 110.125 3.63737 -2.22705 0
M  V30 1211 S 110.958 3.72167 -3.85035 0
M  V30 1212 C 112.114 5.11077 -3.61318 0
M  V30 1213 H 112.347 1.90022 -2.28646 0
M  V30 1214 H 109.88 0.892595 -1.25985 0
M  V30 1215 H 111.838 3.99747 -0.933415 0
M  V30 1216 H 110.499 3.13776 -0.142526 0
M  V30 1217 H 109.692 4.62551 -2.00155 0
M  V30 1218 H 109.294 2.9236 -2.33242 0
M  V30 1219 H 111.586 5.97656 -3.19083 0
M  V30 1220 H 112.529 5.38658 -4.59623 0
M  V30 1221 H 112.937 4.81135 -2.95245 0
M  V30 1222 N 112.336 1.25143 0.95797 0
M  V30 1223 C 113.299 1.05321 2.03569 0
M  V30 1224 C 114.299 0.007152 1.60798 0
M  V30 1225 O 115.489 0.24903 1.72411 0
M  V30 1226 C 112.621 0.598394 3.35607 0
M  V30 1227 H 113.814 2.00986 2.22586 0
M  V30 1228 H 111.367 1.07502 1.13459 0
M  V30 1229 H 112.102 -0.361014 3.22284 0
M  V30 1230 H 111.887 1.35351 3.67998 0
M  V30 1231 H 113.377 0.48104 4.1482 0
M  V30 1232 N 113.814 -1.1601 1.06675 0
M  V30 1233 C 115.062 -1.86264 0.784229 0
M  V30 1234 C 115.383 -1.82328 -0.691488 0
M  V30 1235 O 114.653 -1.25947 -1.50047 0
M  V30 1236 H 113.233 -0.689621 0.28711 0
M  V30 1237 H 115.895 -1.40664 1.34906 0
M  V30 1238 H 114.991 -2.91595 1.11259 0
M  V30 1239 N 115.292 -0.849877 -1.32721 0
M  V30 1240 C 116.708 -0.539102 -1.50219 0
M  V30 1241 C 116.908 0.931271 -1.78689 0
M  V30 1242 O 115.964 1.71455 -1.85363 0
M  V30 1243 C 117.277 -1.42196 -2.64954 0
M  V30 1244 C 118.825 -1.42189 -2.78839 0
M  V30 1245 C 119.3 -2.28985 -3.96648 0
M  V30 1246 N 120.791 -2.26754 -4.03902 0
M  V30 1247 C 121.526 -2.90644 -4.94281 0
M  V30 1248 N 121.022 -3.63629 -5.897 0
M  V30 1249 N 122.815 -2.80057 -4.87365 0
M  V30 1250 H 114.966 -1.80156 -1.12506 0
M  V30 1251 H 117.229 -0.769217 -0.554085 0
M  V30 1252 H 116.935 -2.46733 -2.50631 0
M  V30 1253 H 116.809 -1.10591 -3.60624 0
M  V30 1254 H 119.196 -0.38419 -2.92588 0
M  V30 1255 H 119.277 -1.77807 -1.83898 0
M  V30 1256 H 118.921 -3.32819 -3.83658 0
M  V30 1257 H 118.851 -1.90702 -4.90857 0
M  V30 1258 H 121.342 -1.73688 -3.3562 0
M  V30 1259 H 121.655 -4.09558 -6.55349 0
M  V30 1260 H 120 -3.67737 -5.89741 0
M  V30 1261 H 123.191 -2.22593 -4.11789 0
M  V30 1262 H 123.364 -3.30132 -5.57599 0
M  V30 1263 N 116.77 1.45427 -0.607355 0
M  V30 1264 C 118.017 2.02241 -0.102455 0
M  V30 1265 C 118.345 1.4758 1.26691 0
M  V30 1266 O 117.6 0.640468 1.84923 0
M  V30 1267 C 117.899 3.57398 -0.0129263 0
M  V30 1268 C 117.565 4.3121 -1.31792 0
M  V30 1269 C 116.227 4.51092 -1.67539 0
M  V30 1270 C 118.579 4.73401 -2.18039 0
M  V30 1271 C 115.907 5.10422 -2.89285 0
M  V30 1272 C 118.259 5.34078 -3.39034 0
M  V30 1273 C 116.923 5.52184 -3.75033 0
M  V30 1274 H 116.193 0.740051 -0.037491 0
M  V30 1275 H 118.84 1.74494 -0.788926 0
M  V30 1276 H 117.145 3.84421 0.756806 0
M  V30 1277 H 118.842 3.99061 0.393881 0
M  V30 1278 H 115.432 4.16047 -1.02968 0
M  V30 1279 H 119.616 4.57774 -1.91721 0
M  V30 1280 H 114.872 5.22629 -3.17283 0
M  V30 1281 H 119.046 5.65724 -4.06115 0
M  V30 1282 H 116.673 5.97925 -4.69457 0
M  V30 1283 N 118.248 0.346503 1.53744 0
M  V30 1284 C 119.198 -0.524953 2.21874 0
M  V30 1285 C 120.182 -1.06376 1.20718 0
M  V30 1286 O 121.374 -0.996972 1.46251 0
M  V30 1287 C 118.503 -1.6739 2.99726 0
M  V30 1288 C 117.589 -1.14888 4.08242 0
M  V30 1289 N 117.98 -0.345329 5.0462 0
M  V30 1290 C 116.278 -1.4255 4.22606 0
M  V30 1291 C 116.979 -0.0600706 5.81669 0
M  V30 1292 N 115.955 -0.65252 5.39669 0
M  V30 1293 H 119.757 0.0960091 2.93743 0
M  V30 1294 H 117.271 0.15352 1.61673 0
M  V30 1295 H 119.268 -2.3102 3.47038 0
M  V30 1296 H 117.928 -2.29811 2.29384 0
M  V30 1297 H 118.939 0.0138439 5.17898 0
M  V30 1298 H 115.616 -2.05389 3.63486 0
M  V30 1299 H 117.006 0.588321 6.69319 0
M  V30 1300 N 119.726 -1.57421 0.075193 0
M  V30 1301 C 120.656 -2.15942 -0.888324 0
M  V30 1302 C 121.637 -1.08737 -1.30806 0
M  V30 1303 O 122.822 -1.36787 -1.37851 0
M  V30 1304 C 119.952 -2.72379 -2.1547 0
M  V30 1305 C 118.906 -3.8478 -1.87425 0
M  V30 1306 C 118.232 -4.27834 -3.20721 0
M  V30 1307 C 119.532 -5.08869 -1.17684 0
M  V30 1308 H 121.226 -2.96705 -0.400799 0
M  V30 1309 H 118.772 -1.42723 -0.191342 0
M  V30 1310 H 120.725 -3.11965 -2.83295 0
M  V30 1311 H 119.449 -1.88841 -2.6647 0
M  V30 1312 H 118.108 -3.45703 -1.22004 0
M  V30 1313 H 117.756 -3.41214 -3.6957 0
M  V30 1314 H 117.456 -5.03605 -3.02746 0
M  V30 1315 H 118.98 -4.70039 -3.89738 0
M  V30 1316 H 120.394 -5.4575 -1.75584 0
M  V30 1317 H 118.791 -5.8994 -1.09956 0
M  V30 1318 H 119.861 -4.84648 -0.156453 0
M  V30 1319 N 121.204 0.198386 -1.56346 0
M  V30 1320 C 122.434 0.934215 -1.84271 0
M  V30 1321 C 122.842 1.77496 -0.655125 0
M  V30 1322 O 122.185 1.7961 0.385488 0
M  V30 1323 C 122.247 1.88278 -3.06254 0
M  V30 1324 C 121.911 1.22431 -4.40295 0
M  V30 1325 C 122.908 0.602839 -5.16393 0
M  V30 1326 C 120.593 1.22915 -4.87029 0
M  V30 1327 C 122.587 -0.0050083 -6.374 0
M  V30 1328 C 120.274 0.617465 -6.07973 0
M  V30 1329 C 121.272 0.00146341 -6.83 0
M  V30 1330 O 120.96 -0.600642 -8.01653 0
M  V30 1331 H 120.692 0.278245 -0.616081 0
M  V30 1332 H 123.246 0.211626 -2.04307 0
M  V30 1333 H 121.476 2.64498 -2.82095 0
M  V30 1334 H 123.165 2.48612 -3.20853 0
M  V30 1335 H 123.931 0.591265 -4.81382 0
M  V30 1336 H 119.81 1.69801 -4.28589 0
M  V30 1337 H 123.354 -0.48643 -6.95902 0
M  V30 1338 H 119.251 0.62653 -6.42452 0
M  V30 1339 H 120.019 -0.497225 -8.16988 0
M  V30 1340 N 122.682 1.50554 0.465978 0
M  V30 1341 C 123.592 1.72585 1.58907 0
M  V30 1342 C 124.608 0.60911 1.6299 0
M  V30 1343 O 125.784 0.88804 1.80765 0
M  V30 1344 C 122.849 1.81995 2.95091 0
M  V30 1345 C 121.91 3.05751 3.01355 0
M  V30 1346 C 121.143 3.14702 4.31043 0
M  V30 1347 O 121.366 2.30313 5.21835 0
M  V30 1348 O 120.3 4.07468 4.43005 0
M  V30 1349 H 124.126 2.67799 1.43239 0
M  V30 1350 H 121.711 1.34711 0.646013 0
M  V30 1351 H 123.593 1.90335 3.75966 0
M  V30 1352 H 122.268 0.899659 3.10947 0
M  V30 1353 H 121.175 3.02908 2.19539 0
M  V30 1354 H 122.508 3.97375 2.90437 0
M  V30 1355 N 124.16 -0.719506 1.40217 0
M  V30 1356 C 125.408 -1.47641 1.3801 0
M  V30 1357 C 125.729 -1.94992 -0.018145 0
M  V30 1358 O 124.999 -1.70073 -0.972207 0
M  V30 1359 H 123.579 -0.547744 0.507923 0
M  V30 1360 H 126.241 -0.853187 1.75233 0
M  V30 1361 H 125.337 -2.35112 2.05253 0
M  V30 1362 N 125.638 -1.25649 -0.95132 0
M  V30 1363 C 126.588 -1.03004 -2.03406 0
M  V30 1364 C 127.572 0.034187 -1.60864 0
M  V30 1365 O 128.764 -0.181549 -1.76066 0
M  V30 1366 C 125.893 -0.654255 -3.37008 0
M  V30 1367 C 124.979 -1.75542 -3.86065 0
M  V30 1368 N 125.37 -2.99113 -4.07879 0
M  V30 1369 C 123.668 -1.63669 -4.14884 0
M  V30 1370 C 124.369 -3.70611 -4.48356 0
M  V30 1371 N 123.345 -2.98247 -4.54477 0
M  V30 1372 H 127.147 -1.96813 -2.1827 0
M  V30 1373 H 124.661 -1.16017 -1.13639 0
M  V30 1374 H 126.658 -0.473206 -4.14206 0
M  V30 1375 H 125.318 0.276468 -3.23521 0
M  V30 1376 H 126.329 -3.35124 -3.94857 0
M  V30 1377 H 123.006 -0.775161 -4.10241 0
M  V30 1378 H 124.396 -4.76695 -4.73509 0
M  V30 1379 N 127.117 1.15442 -1.07289 0
M  V30 1380 C 128.394 1.82306 -0.708792 0
M  V30 1381 C 128.774 1.94991 0.808807 0
M  V30 1382 O 128.122 1.50085 1.72298 0
M  V30 1383 C 128.332 3.18695 -1.42247 0
M  V30 1384 C 129.68 3.94341 -1.57417 0
M  V30 1385 O 130.704 3.28247 -1.38319 0
M  V30 1386 O 129.563 5.12839 -1.88834 0
M  V30 1387 H 126.657 0.787628 -0.252132 0
M  V30 1388 H 129.203 1.22559 -1.17377 0
M  V30 1389 H 127.975 3.04557 -2.45684 0
M  V30 1390 H 127.598 3.86128 -0.948223 0
M  V30 1391 N 128.595 0.856903 1.32268 0
M  V30 1392 C 130.006 0.515711 1.79436 0
M  V30 1393 C 130.357 -0.966586 1.70738 0
M  V30 1394 O 129.482 -1.75409 1.26731 0
M  V30 1395 C 130.077 0.929335 3.25805 0
M  V30 1396 C 128.636 0.640006 3.70919 0
M  V30 1397 C 127.783 1.12784 2.53328 0
M  V30 1398 H 130.734 1.04389 1.19535 0
M  V30 1399 H 130.755 0.246633 3.797 0
M  V30 1400 H 130.267 2.00821 3.32103 0
M  V30 1401 H 128.368 -0.428051 3.70133 0
M  V30 1402 H 128.481 1.20788 4.63624 0
M  V30 1403 H 126.845 0.548033 2.48734 0
M  V30 1404 H 127.628 2.21387 2.62379 0
M  V30 1405 N 130.073 -1.45103 0.615059 0
M  V30 1406 C 131.036 -2.29025 -0.0895485 0
M  V30 1407 C 132.036 -1.40174 -0.787906 0
M  V30 1408 O 133.226 -1.62217 -0.634933 0
M  V30 1409 C 130.358 -3.21376 -1.13711 0
M  V30 1410 H 131.551 -2.92807 0.648382 0
M  V30 1411 H 129.104 -1.51749 0.374444 0
M  V30 1412 H 129.839 -2.6241 -1.90556 0
M  V30 1413 H 129.624 -3.86834 -0.640475 0
M  V30 1414 H 131.114 -3.84459 -1.63036 0
M  V30 1415 N 131.551 -0.354651 -1.53558 0
M  V30 1416 C 132.779 0.239515 -2.05509 0
M  V30 1417 C 133.194 1.4333 -1.2289 0
M  V30 1418 O 132.551 1.80538 -0.266899 0
M  V30 1419 C 132.602 0.643719 -3.55723 0
M  V30 1420 O 132.323 -0.502602 -4.35207 0
M  V30 1421 C 133.824 1.29743 -4.23889 0
M  V30 1422 H 131.044 0.0442697 -0.669538 0
M  V30 1423 H 133.588 -0.509856 -1.98042 0
M  V30 1424 H 131.743 1.34302 -3.63376 0
M  V30 1425 H 132.157 -0.178172 -5.24197 0
M  V30 1426 H 133.631 1.53091 -5.30346 0
M  V30 1427 H 134.108 2.25441 -3.76926 0
M  V30 1428 H 134.714 0.639865 -4.20459 0
M  V30 1429 N 133.029 1.57378 -0.0835403 0
M  V30 1430 C 134.275 1.94217 0.583733 0
M  V30 1431 C 134.608 0.964653 1.68547 0
M  V30 1432 O 133.883 -0.00422258 1.945 0
M  V30 1433 C 134.166 3.41253 1.14972 0
M  V30 1434 C 134.019 4.49768 0.0538277 0
M  V30 1435 C 135.338 3.89352 2.05166 0
M  V30 1436 H 132.457 0.706233 0.210724 0
M  V30 1437 H 135.099 1.89392 -0.1519 0
M  V30 1438 H 133.249 3.45496 1.77665 0
M  V30 1439 H 134.921 4.57641 -0.579851 0
M  V30 1440 H 133.164 4.29432 -0.614068 0
M  V30 1441 H 133.835 5.49817 0.490452 0
M  V30 1442 H 136.311 3.87189 1.52393 0
M  V30 1443 H 135.187 4.92822 2.41698 0
M  V30 1444 H 135.448 3.27973 2.96456 0
M  V30 1445 N 134.507 -0.190092 1.56449 0
M  V30 1446 C 135.47 -1.21925 1.9408 0
M  V30 1447 C 136.47 -1.38176 0.822431 0
M  V30 1448 O 137.66 -1.35903 1.08977 0
M  V30 1449 C 134.792 -2.58773 2.21922 0
M  V30 1450 H 135.985 -0.897464 2.86157 0
M  V30 1451 H 133.538 -0.43181 1.50217 0
M  V30 1452 H 134.273 -2.95998 1.32499 0
M  V30 1453 H 134.058 -2.48348 3.03424 0
M  V30 1454 H 135.548 -3.32978 2.52022 0
M  V30 1455 N 135.985 -1.50799 -0.457987 0
M  V30 1456 C 137.232 -1.62442 -1.20908 0
M  V30 1457 C 137.56 -0.330865 -1.91665 0
M  V30 1458 O 136.815 0.68401 -1.83357 0
M  V30 1459 C 137.114 -2.76358 -2.2663 0
M  V30 1460 C 136.78 -4.16378 -1.73033 0
M  V30 1461 C 135.442 -4.54473 -1.58138 0
M  V30 1462 C 137.794 -5.03836 -1.33413 0
M  V30 1463 C 135.122 -5.77754 -1.02065 0
M  V30 1464 C 137.474 -6.27676 -0.78778 0
M  V30 1465 C 136.138 -6.64562 -0.625561 0
M  V30 1466 H 135.408 -0.594417 -0.442435 0
M  V30 1467 H 138.055 -1.84772 -0.503136 0
M  V30 1468 H 136.36 -2.48167 -3.03184 0
M  V30 1469 H 138.057 -2.82568 -2.84528 0
M  V30 1470 H 134.647 -3.86331 -1.85598 0
M  V30 1471 H 138.831 -4.75026 -1.4375 0
M  V30 1472 H 134.087 -6.04997 -0.882547 0
M  V30 1473 H 138.261 -6.94797 -0.472177 0
M  V30 1474 H 135.888 -7.59965 -0.188926 0
M  V30 1475 N 137.463 0.71206 -1.40597 0
M  V30 1476 C 138.874 1.29135 -1.34837 0
M  V30 1477 C 139.225 1.96186 -0.0235395 0
M  V30 1478 O 138.35 1.97768 0.878444 0
M  V30 1479 C 138.945 2.34827 -2.44217 0
M  V30 1480 C 137.504 2.88371 -2.41907 0
M  V30 1481 C 136.651 1.62202 -2.24913 0
M  V30 1482 H 139.602 0.507944 -1.50352 0
M  V30 1483 H 139.623 3.15749 -2.12327 0
M  V30 1484 H 139.135 1.85996 -3.40627 0
M  V30 1485 H 137.236 3.41422 -1.49204 0
M  V30 1486 H 137.349 3.39925 -3.37621 0
M  V30 1487 H 135.713 1.874 -1.72492 0
M  V30 1488 H 136.496 1.15391 -3.23326 0
M  V30 1489 N 138.941 1.26152 0.944643 0
M  V30 1490 C 140.187 1.11657 1.69294 0
M  V30 1491 C 140.52 -0.339926 1.91202 0
M  V30 1492 O 139.795 -1.24994 1.49019 0
M  V30 1493 C 140.078 1.88236 3.06984 0
M  V30 1494 C 139.931 3.41772 2.92424 0
M  V30 1495 C 141.25 1.67343 4.07043 0
M  V30 1496 H 138.369 0.407004 0.614424 0
M  V30 1497 H 141.011 1.55106 1.09737 0
M  V30 1498 H 139.161 1.51308 3.57824 0
M  V30 1499 H 140.833 3.88433 2.48832 0
M  V30 1500 H 139.076 3.68974 2.28124 0
M  V30 1501 H 139.747 3.90579 3.90067 0
M  V30 1502 H 142.223 1.99509 3.65151 0
M  V30 1503 H 141.099 2.23346 5.01406 0
M  V30 1504 H 141.36 0.617158 4.37771 0
M  V30 1505 N 140.419 -1.14872 1.07899 0
M  V30 1506 C 141.649 -1.89386 0.825631 0
M  V30 1507 C 142.057 -1.78565 -0.625406 0
M  V30 1508 O 141.4 -1.13918 -1.44113 0
M  V30 1509 C 141.462 -3.40206 1.16191 0
M  V30 1510 C 141.126 -3.74812 2.61467 0
M  V30 1511 C 142.123 -3.75367 3.59716 0
M  V30 1512 C 139.808 -4.0495 2.97189 0
M  V30 1513 C 141.802 -4.05574 4.9172 0
M  V30 1514 C 139.489 -4.34821 4.29388 0
M  V30 1515 C 140.487 -4.35116 5.26463 0
M  V30 1516 O 140.175 -4.64267 6.56286 0
M  V30 1517 H 139.907 -0.606894 0.297751 0
M  V30 1518 H 142.461 -1.46438 1.44031 0
M  V30 1519 H 140.691 -3.8358 0.490214 0
M  V30 1520 H 142.38 -3.96018 0.890193 0
M  V30 1521 H 143.146 -3.52176 3.33462 0
M  V30 1522 H 139.025 -4.03876 2.22273 0
M  V30 1523 H 142.569 -4.05719 5.67484 0
M  V30 1524 H 138.466 -4.5748 4.55392 0
M  V30 1525 H 139.234 -4.82007 6.61522 0
M  V30 1526 N 141.898 -0.863906 -1.31812 0
M  V30 1527 C 142.828 -0.330843 -2.31144 0
M  V30 1528 C 143.809 0.575005 -1.60087 0
M  V30 1529 O 144.994 0.493304 -1.8783 0
M  V30 1530 C 142.124 0.47374 -3.44054 0
M  V30 1531 C 141.078 -0.338481 -4.26659 0
M  V30 1532 C 140.404 0.591412 -5.31419 0
M  V30 1533 C 141.704 -1.56926 -4.98168 0
M  V30 1534 H 143.398 -1.16086 -2.75979 0
M  V30 1535 H 140.944 -0.559657 -1.32679 0
M  V30 1536 H 142.897 0.857143 -4.12591 0
M  V30 1537 H 141.621 1.33721 -2.9797 0
M  V30 1538 H 140.28 -0.703754 -3.59782 0
M  V30 1539 H 139.928 1.45199 -4.81587 0
M  V30 1540 H 139.628 0.0519022 -5.87577 0
M  V30 1541 H 141.152 0.97179 -6.02817 0
M  V30 1542 H 142.566 -1.25764 -5.59336 0
M  V30 1543 H 140.963 -2.04739 -5.64094 0
M  V30 1544 H 142.033 -2.32544 -4.25501 0
M  V30 1545 N 143.376 1.44774 -0.622745 0
M  V30 1546 C 144.339 2.29069 0.0774015 0
M  V30 1547 C 145.339 1.4059 0.780461 0
M  V30 1548 O 146.529 1.62551 0.626322 0
M  V30 1549 C 143.661 3.21974 1.12006 0
M  V30 1550 H 144.854 2.92459 -0.663901 0
M  V30 1551 H 142.407 1.51548 -0.382486 0
M  V30 1552 H 143.142 2.63417 1.89162 0
M  V30 1553 H 142.927 3.87168 0.619951 0
M  V30 1554 H 144.417 3.85318 1.60995 0
M  V30 1555 N 144.854 0.36279 1.53368 0
M  V30 1556 C 145.801 -0.485008 2.25646 0
M  V30 1557 C 146.771 -1.07982 1.2621 0
M  V30 1558 O 147.956 -1.11284 1.54986 0
M  V30 1559 C 145.096 -1.62023 3.04701 0
M  V30 1560 C 144.209 -1.05086 4.19024 0
M  V30 1561 C 143.344 -2.15496 4.85525 0
M  V30 1562 C 142.383 -1.5601 5.91884 0
M  V30 1563 N 141.52 -2.60241 6.52088 0
M  V30 1564 H 146.36 0.137864 2.97681 0
M  V30 1565 H 143.897 0.0798061 1.46883 0
M  V30 1566 H 145.855 -2.28887 3.48807 0
M  V30 1567 H 144.485 -2.2138 2.34927 0
M  V30 1568 H 143.537 -0.27259 3.79422 0
M  V30 1569 H 144.849 -0.575926 4.95464 0
M  V30 1570 H 144.003 -2.90186 5.32801 0
M  V30 1571 H 142.742 -2.66341 4.08551 0
M  V30 1572 H 141.747 -0.798338 5.43973 0
M  V30 1573 H 142.972 -1.05994 6.70777 0
M  V30 1574 H 140.918 -3.10304 5.77968 0
M  V30 1575 H 140.835 -2.17426 7.24059 0
M  V30 1576 H 142.103 -3.34641 7.04014 0
M  V30 1577 N 146.332 -1.57332 0.0918853 0
M  V30 1578 C 147.562 -1.98286 -0.580205 0
M  V30 1579 C 147.97 -0.969713 -1.6246 0
M  V30 1580 O 147.313 0.0493501 -1.83634 0
M  V30 1581 C 147.375 -3.35603 -1.28882 0
M  V30 1582 C 147.039 -4.55285 -0.395559 0
M  V30 1583 C 148.036 -5.18687 0.355002 0
M  V30 1584 C 145.721 -5.01314 -0.314556 0
M  V30 1585 C 147.715 -6.26484 1.17458 0
M  V30 1586 C 145.402 -6.08979 0.508677 0
M  V30 1587 C 146.4 -6.71429 1.2519 0
M  V30 1588 O 146.088 -7.77018 2.06151 0
M  V30 1589 H 145.82 -0.656678 -0.160466 0
M  V30 1590 H 148.374 -2.04721 0.16688 0
M  V30 1591 H 146.604 -3.25842 -2.08241 0
M  V30 1592 H 148.293 -3.61026 -1.85512 0
M  V30 1593 H 149.059 -4.84058 0.302134 0
M  V30 1594 H 144.938 -4.5247 -0.882697 0
M  V30 1595 H 148.482 -6.75159 1.75518 0
M  V30 1596 H 144.379 -6.4304 0.563037 0
M  V30 1597 H 145.147 -7.93991 1.98799 0
M  V30 1598 N 147.81 0.181792 -1.56548 0
M  V30 1599 C 149.056 0.901431 -1.81665 0
M  V30 1600 C 149.389 1.82347 -0.668075 0
M  V30 1601 O 148.664 1.91669 0.330615 0
M  V30 1602 C 148.947 1.70618 -3.17115 0
M  V30 1603 C 148.8 0.807964 -4.42484 0
M  V30 1604 C 150.119 2.67605 -3.49393 0
M  V30 1605 H 147.238 0.32627 -0.660846 0
M  V30 1606 H 149.88 0.168134 -1.89255 0
M  V30 1607 H 148.03 2.33133 -3.10775 0
M  V30 1608 H 149.702 0.19649 -4.60881 0
M  V30 1609 H 147.945 0.115411 -4.33646 0
M  V30 1610 H 148.616 1.40632 -5.33785 0
M  V30 1611 H 151.092 2.15218 -3.56118 0
M  V30 1612 H 149.968 3.20985 -4.45264 0
M  V30 1613 H 150.229 3.47298 -2.73563 0
M  V30 1614 N 149.288 1.51039 0.449983 0
M  V30 1615 C 150.536 1.62759 1.19808 0
M  V30 1616 C 150.857 0.339981 1.92013 0
M  V30 1617 O 150.127 -0.643606 1.85026 0
M  V30 1618 H 148.707 0.599811 0.445237 0
M  V30 1619 H 151.369 1.87914 0.517138 0
M  V30 1620 H 150.465 2.44911 1.93455 0
M  V30 1621 N 150.766 -0.704594 1.40972 0
M  V30 1622 C 152.012 -1.46675 1.40051 0
M  V30 1623 C 152.345 -1.94199 0.00641102 0
M  V30 1624 O 151.62 -1.68916 -0.964235 0
M  V30 1625 C 151.903 -2.68505 2.39952 0
M  V30 1626 C 151.756 -2.26805 3.88432 0
M  V30 1627 C 153.075 -3.70686 2.37233 0
M  V30 1628 H 150.194 -0.532015 0.510028 0
M  V30 1629 H 152.836 -0.803255 1.72185 0
M  V30 1630 H 150.986 -3.25114 2.1268 0
M  V30 1631 H 152.658 -1.75592 4.26574 0
M  V30 1632 H 150.901 -1.58685 4.03734 0
M  V30 1633 H 151.572 -3.14181 4.53866 0
M  V30 1634 H 154.048 -3.23731 2.61415 0
M  V30 1635 H 152.924 -4.53553 3.09162 0
M  V30 1636 H 153.185 -4.19754 1.38777 0
M  V30 1637 N 152.244 -1.26651 -0.937939 0
M  V30 1638 C 153.191 -1.0849 -2.03712 0
M  V30 1639 C 154.161 0.011033 -1.66096 0
M  V30 1640 O 155.346 -0.149353 -1.90215 0
M  V30 1641 C 152.486 -0.72735 -3.37348 0
M  V30 1642 C 151.599 -1.89986 -3.87981 0
M  V30 1643 C 150.734 -1.48513 -5.10017 0
M  V30 1644 C 149.773 -2.62575 -5.5292 0
M  V30 1645 N 148.91 -2.21762 -6.66158 0
M  V30 1646 H 153.75 -2.02551 -2.18579 0
M  V30 1647 H 151.287 -1.00844 -1.07093 0
M  V30 1648 H 153.245 -0.50092 -4.14182 0
M  V30 1649 H 151.875 0.176298 -3.22318 0
M  V30 1650 H 150.927 -2.23913 -3.07518 0
M  V30 1651 H 152.239 -2.75586 -4.15757 0
M  V30 1652 H 151.393 -1.21934 -5.94321 0
M  V30 1653 H 150.132 -0.60009 -4.83994 0
M  V30 1654 H 149.137 -2.8988 -4.67172 0
M  V30 1655 H 150.362 -3.51685 -5.80943 0
M  V30 1656 H 148.308 -1.35696 -6.41812 0
M  V30 1657 H 148.225 -3.00903 -6.93537 0
M  V30 1658 H 149.493 -1.98403 -7.53828 0
M  V30 1659 N 153.722 1.14298 -1.08507 0
M  V30 1660 C 154.97 1.84993 -0.813763 0
M  V30 1661 C 155.291 1.83405 0.662393 0
M  V30 1662 O 154.561 1.28319 1.48024 0
M  V30 1663 H 153.141 0.684966 -0.298045 0
M  V30 1664 H 155.803 1.385 -1.37126 0
M  V30 1665 H 154.899 2.89788 -1.15884 0
M  V30 1666 N 155.201 0.870884 1.31352 0
M  V30 1667 C 156.447 0.482987 1.96965 0
M  V30 1668 C 156.78 -0.962462 1.68672 0
M  V30 1669 O 156.055 -1.6779 0.98371 0
M  V30 1670 C 156.338 0.741752 3.52378 0
M  V30 1671 C 156.191 2.2368 3.9024 0
M  V30 1672 C 157.51 0.208838 4.39604 0
M  V30 1673 H 154.629 0.176955 0.715441 0
M  V30 1674 H 157.271 1.09229 1.55464 0
M  V30 1675 H 155.421 0.223149 3.87859 0
M  V30 1676 H 157.093 2.82273 3.64856 0
M  V30 1677 H 155.336 2.70901 3.38814 0
M  V30 1678 H 156.007 2.3685 4.98604 0
M  V30 1679 H 158.483 0.652529 4.10952 0
M  V30 1680 H 157.359 0.419336 5.47296 0
M  V30 1681 H 157.62 -0.889275 4.33064 0
M  V30 1682 N 156.679 -1.44442 0.630414 0
M  V30 1683 C 157.925 -2.02351 0.134816 0
M  V30 1684 C 158.258 -1.4947 -1.23986 0
M  V30 1685 O 157.533 -0.678475 -1.82283 0
M  V30 1686 C 157.816 -3.59898 0.120707 0
M  V30 1687 C 157.669 -4.23063 1.52767 0
M  V30 1688 C 158.988 -4.36585 -0.555127 0
M  V30 1689 H 156.107 -0.73527 0.0504646 0
M  V30 1690 H 158.749 -1.72022 0.806751 0
M  V30 1691 H 156.899 -3.85868 -0.451477 0
M  V30 1692 H 158.571 -4.08202 2.14869 0
M  V30 1693 H 156.814 -3.80586 2.08175 0
M  V30 1694 H 157.485 -5.32071 1.46984 0
M  V30 1695 H 159.961 -4.16044 -0.0685429 0
M  V30 1696 H 158.837 -5.46294 -0.534185 0
M  V30 1697 H 159.098 -4.11138 -1.62535 0
M  V30 1698 N 158.157 -0.370918 -1.53173 0
M  V30 1699 C 159.403 0.217423 -2.01631 0
M  V30 1700 C 159.736 1.47983 -1.25756 0
M  V30 1701 O 159.011 1.91274 -0.352764 0
M  V30 1702 C 159.294 0.503982 -3.56556 0
M  V30 1703 C 159.147 -0.77243 -4.43118 0
M  V30 1704 C 160.466 1.30234 -4.20389 0
M  V30 1705 H 157.585 0.0775486 -0.732909 0
M  V30 1706 H 160.227 -0.496863 -1.83388 0
M  V30 1707 H 158.377 1.11248 -3.72231 0
M  V30 1708 H 160.049 -1.4098 -4.39229 0
M  V30 1709 H 158.292 -1.39167 -4.10871 0
M  V30 1710 H 158.963 -0.526815 -5.4948 0
M  V30 1711 H 161.439 0.787546 -4.08579 0
M  V30 1712 H 160.315 1.47158 -5.28806 0
M  V30 1713 H 160.576 2.31237 -3.76805 0
M  V30 1714 N 159.635 1.57281 -0.100228 0
M  V30 1715 C 160.863 1.98879 0.570509 0
M  V30 1716 C 161.278 0.979476 1.61405 0
M  V30 1717 O 160.635 -0.0302288 1.82475 0
M  V30 1718 C 160.686 3.4052 1.2136 0
M  V30 1719 O 160.407 4.37588 0.211786 0
M  V30 1720 C 161.908 3.97149 1.96945 0
M  V30 1721 H 159.128 0.653428 0.152555 0
M  V30 1722 H 161.672 2.03697 -0.18103 0
M  V30 1723 H 159.827 3.367 1.91603 0
M  V30 1724 H 160.241 5.20118 0.676607 0
M  V30 1725 H 161.715 4.98393 2.37294 0
M  V30 1726 H 162.192 3.3525 2.83733 0
M  V30 1727 H 162.798 4.04458 1.31506 0
M  V30 1728 N 161.113 -0.173488 1.56642 0
M  V30 1729 C 162.061 -1.23417 1.97157 0
M  V30 1730 C 163.055 -1.45946 0.860013 0
M  V30 1731 O 164.261 -1.46551 1.04512 0
M  V30 1732 H 160.636 -0.414818 0.62724 0
M  V30 1733 H 162.607 -0.865582 2.8557 0
M  V30 1734 C 161.356 -2.5665 2.34576 0
M  V30 1735 H 160.679 -2.40137 3.19647 0
M  V30 1736 H 162.119 -3.2956 2.6677 0
M  V30 1737 C 160.578 -3.15245 1.18836 0
M  V30 1738 O 161.108 -3.98883 0.474869 0
M  V30 1739 N 159.314 -2.74303 0.959497 0
M  V30 1740 H 158.861 -2.0639 1.54146 0
M  V30 1741 H 158.819 -3.13844 0.186932 0
M  V30 1742 N 162.591 -1.51276 -0.441967 0
M  V30 1743 C 163.554 -1.7167 -1.51862 0
M  V30 1744 C 164.554 -0.586793 -1.49711 0
M  V30 1745 O 165.744 -0.854276 -1.51815 0
M  V30 1746 C 162.876 -1.76889 -2.91416 0
M  V30 1747 H 164.069 -2.67754 -1.35084 0
M  V30 1748 H 161.622 -1.41196 -0.670333 0
M  V30 1749 H 162.357 -0.826026 -3.13604 0
M  V30 1750 H 162.142 -2.59001 -2.94382 0
M  V30 1751 H 163.632 -1.94522 -3.69528 0
M  V30 1752 N 164.069 0.697108 -1.41344 0
M  V30 1753 C 165.032 1.79281 -1.42797 0
M  V30 1754 C 166.032 1.57607 -0.318837 0
M  V30 1755 O 167.222 1.64309 -0.578642 0
M  V30 1756 C 164.354 3.17632 -1.23785 0
M  V30 1757 H 165.547 1.79385 -2.40335 0
M  V30 1758 H 163.1 0.904582 -1.27464 0
M  V30 1759 H 163.835 3.23167 -0.270814 0
M  V30 1760 H 163.62 3.34765 -2.04144 0
M  V30 1761 H 165.11 3.97617 -1.27633 0
M  V30 1762 N 165.547 1.27147 0.931209 0
M  V30 1763 C 166.795 1.13055 1.6752 0
M  V30 1764 C 167.116 -0.324791 1.92276 0
M  V30 1765 O 166.386 -1.22775 1.52654 0
M  V30 1766 H 164.966 0.415391 0.620854 0
M  V30 1767 H 167.628 1.59623 1.11833 0
M  V30 1768 H 166.724 1.65694 2.64485 0
M  V30 1769 N 167.025 -1.13721 1.09112 0
M  V30 1770 C 167.988 -2.17222 0.731241 0
M  V30 1771 C 168.988 -1.59035 -0.237566 0
M  V30 1772 O 170.178 -1.74192 -0.0161704 0
M  V30 1773 C 167.31 -3.40804 0.0808443 0
M  V30 1774 H 168.503 -2.50573 1.64783 0
M  V30 1775 H 166.056 -1.28493 0.889897 0
M  V30 1776 H 166.791 -3.1304 -0.847127 0
M  V30 1777 H 166.576 -3.84306 0.777896 0
M  V30 1778 H 168.066 -4.1731 -0.155657 0
M  V30 1779 N 168.503 -0.877838 -1.30888 0
M  V30 1780 C 169.752 -0.488793 -1.95688 0
M  V30 1781 C 170.065 0.965485 -1.70111 0
M  V30 1782 O 171.271 1.46104 -2.28836 0
M  V30 1783 C 169.727 -0.823201 -3.50359 0
M  V30 1784 C 169.335 -2.29477 -3.84765 0
M  V30 1785 C 171.079 -0.503009 -4.21509 0
M  V30 1786 C 168.986 -2.57118 -5.32583 0
M  V30 1787 H 167.916 -0.179062 -0.732429 0
M  V30 1788 H 170.567 -1.07183 -1.48943 0
M  V30 1789 H 168.949 -0.169331 -3.95638 0
M  V30 1790 H 170.123 -2.99236 -3.5042 0
M  V30 1791 H 168.438 -2.58178 -3.267 0
M  V30 1792 H 171.035 -0.68665 -5.30273 0
M  V30 1793 H 171.378 0.557109 -4.12555 0
M  V30 1794 H 171.911 -1.11376 -3.8189 0
M  V30 1795 H 168.65 -3.61843 -5.4658 0
M  V30 1796 H 168.17 -1.91961 -5.68253 0
M  V30 1797 H 169.849 -2.42251 -5.99936 0
M  V30 1798 N 169.982 1.44106 -0.638065 0
M  V30 1799 C 170.93 2.3248 0.0748149 0
M  V30 1800 C 171.924 1.47746 0.828702 0
M  V30 1801 O 173.13 1.64049 0.740816 0
M  V30 1802 H 169.505 0.750771 0.0429686 0
M  V30 1803 H 171.476 2.90348 -0.688504 0
M  V30 1804 C 170.225 3.31843 1.03805 0
M  V30 1805 H 169.548 3.97059 0.467375 0
M  V30 1806 H 170.988 3.96345 1.50622 0
M  V30 1807 C 169.447 2.61291 2.1267 0
M  V30 1808 O 169.977 2.41702 3.20847 0
M  V30 1809 N 168.183 2.20915 1.88798 0
M  V30 1810 H 167.73 2.37047 1.00829 0
M  V30 1811 H 167.688 1.74038 2.61836 0
M  V30 1812 N 171.46 0.379036 1.52974 0
M  V30 1813 C 172.871 -0.0972525 1.86447 0
M  V30 1814 C 173.222 -1.47027 1.29914 0
M  V30 1815 O 172.347 -2.07135 0.626433 0
M  V30 1816 C 172.942 -0.183248 3.38304 0
M  V30 1817 C 171.501 -0.603812 3.71525 0
M  V30 1818 C 170.648 0.240632 2.76254 0
M  V30 1819 H 173.599 0.597316 1.4703 0
M  V30 1820 H 173.62 -1.00432 3.67006 0
M  V30 1821 H 173.132 0.816191 3.79421 0
M  V30 1822 H 171.233 -1.61099 3.35973 0
M  V30 1823 H 171.346 -0.369086 4.77676 0
M  V30 1824 H 169.71 -0.292548 2.53014 0
M  V30 1825 H 170.493 1.23786 3.20206 0
M  V30 1826 N 172.938 -1.57226 0.108567 0
M  V30 1827 C 173.848 -2.18292 -0.859401 0
M  V30 1828 C 174.864 -1.15612 -1.30038 0
M  V30 1829 O 176.04 -1.48039 -1.36552 0
M  V30 1830 C 173.105 -2.762 -2.09558 0
M  V30 1831 C 172.166 -3.93881 -1.70752 0
M  V30 1832 C 171.399 -4.49018 -2.88477 0
M  V30 1833 O 171.622 -4.03068 -4.036 0
M  V30 1834 O 170.556 -5.39852 -2.66164 0
M  V30 1835 H 174.382 -3.01441 -0.369769 0
M  V30 1836 H 171.967 -1.48945 -0.1165 0
M  V30 1837 H 173.849 -3.13156 -2.81978 0
M  V30 1838 H 172.524 -1.96089 -2.57548 0
M  V30 1839 H 171.431 -3.61713 -0.954714 0
M  V30 1840 H 172.764 -4.75396 -1.27513 0
M  V30 1841 N 174.416 0.165178 -1.56732 0
M  V30 1842 C 175.663 0.880807 -1.8234 0
M  V30 1843 C 175.991 1.81977 -0.686621 0
M  V30 1844 O 175.246 1.92971 0.325697 0
M  V30 1845 C 175.545 1.70405 -3.1416 0
M  V30 1846 C 175.211 0.913475 -4.4155 0
M  V30 1847 C 173.873 0.695303 -4.7615 0
M  V30 1848 C 176.225 0.359349 -5.1996 0
M  V30 1849 C 173.553 -0.0879947 -5.86634 0
M  V30 1850 C 175.905 -0.410893 -6.31264 0
M  V30 1851 C 174.569 -0.639808 -6.64427 0
M  V30 1852 H 173.839 0.32231 -0.667231 0
M  V30 1853 H 176.486 0.145402 -1.90947 0
M  V30 1854 H 174.791 2.50903 -3.00923 0
M  V30 1855 H 176.488 2.26091 -3.31186 0
M  V30 1856 H 173.078 1.09357 -4.14414 0
M  V30 1857 H 177.262 0.515228 -4.93618 0
M  V30 1858 H 172.518 -0.27503 -6.10781 0
M  V30 1859 H 176.692 -0.847494 -6.91224 0
M  V30 1860 H 174.319 -1.24864 -7.49875 0
M  V30 1861 N 175.894 1.51508 0.433938 0
M  V30 1862 C 176.841 1.73068 1.52696 0
M  V30 1863 C 177.811 0.572441 1.55924 0
M  V30 1864 O 178.996 0.807253 1.72882 0
M  V30 1865 C 176.136 1.86474 2.90381 0
M  V30 1866 C 175.249 3.14037 2.96656 0
M  V30 1867 C 174.384 3.18019 4.25485 0
M  V30 1868 C 173.423 4.39882 4.2564 0
M  V30 1869 N 172.56 4.41394 5.45999 0
M  V30 1870 H 177.4 2.66366 1.33615 0
M  V30 1871 H 174.937 1.32008 0.649018 0
M  V30 1872 H 176.895 1.92229 3.70275 0
M  V30 1873 H 175.525 0.965809 3.08013 0
M  V30 1874 H 174.577 3.17575 2.09404 0
M  V30 1875 H 175.889 4.0394 2.92633 0
M  V30 1876 H 175.043 3.22708 5.13755 0
M  V30 1877 H 173.782 2.2601 4.3217 0
M  V30 1878 H 172.787 4.35366 3.35763 0
M  V30 1879 H 174.012 5.33159 4.20617 0
M  V30 1880 H 171.958 3.52258 5.53399 0
M  V30 1881 H 171.875 5.25111 5.4387 0
M  V30 1882 H 173.143 4.50281 6.36292 0
M  V30 1883 N 177.372 -0.689602 1.41712 0
M  V30 1884 C 178.783 -1.26973 1.36875 0
M  V30 1885 C 179.134 -1.96124 0.054748 0
M  V30 1886 O 178.259 -1.99141 -0.84687 0
M  V30 1887 C 178.854 -2.30912 2.47922 0
M  V30 1888 C 177.413 -2.84486 2.46464 0
M  V30 1889 C 176.56 -1.58603 2.27465 0
M  V30 1890 H 179.511 -0.48396 1.51141 0
M  V30 1891 H 179.532 -3.12331 2.17323 0
M  V30 1892 H 179.044 -1.80554 3.43543 0
M  V30 1893 H 177.145 -3.39005 1.54617 0
M  V30 1894 H 177.258 -3.34511 3.42986 0
M  V30 1895 H 175.622 -1.84632 1.75451 0
M  V30 1896 H 176.405 -1.10233 3.25121 0
M  V30 1897 N 178.85 -1.27639 -0.924453 0
M  V30 1898 C 180.098 -1.13941 -1.66918 0
M  V30 1899 C 180.419 0.314589 -1.92446 0
M  V30 1900 O 179.689 1.21964 -1.53303 0
M  V30 1901 H 178.269 -0.418678 -0.618642 0
M  V30 1902 H 180.931 -1.60213 -1.10985 0
M  V30 1903 H 180.027 -1.67094 -2.63602 0
M  V30 1904 N 180.328 1.1314 -1.09713 0
M  V30 1905 C 181.238 2.22242 -0.751367 0
M  V30 1906 C 182.254 1.72224 0.247938 0
M  V30 1907 O 183.43 2.01205 0.0885463 0
M  V30 1908 C 180.495 3.46231 -0.180274 0
M  V30 1909 C 179.556 4.11125 -1.2359 0
M  V30 1910 C 178.789 5.29195 -0.691966 0
M  V30 1911 O 179.012 5.68342 0.48414 0
M  V30 1912 O 177.946 5.84214 -1.44838 0
M  V30 1913 H 181.772 2.54197 -1.66186 0
M  V30 1914 H 179.357 1.21331 -0.871735 0
M  V30 1915 H 181.239 4.21185 0.134739 0
M  V30 1916 H 179.914 3.1597 0.703185 0
M  V30 1917 H 178.821 3.37985 -1.60366 0
M  V30 1918 H 180.154 4.45524 -2.09211 0
M  V30 1919 N 181.806 0.884767 1.30421 0
M  V30 1920 C 183.055 0.499164 1.95426 0
M  V30 1921 C 183.368 -0.95645 1.70621 0
M  V30 1922 O 184.574 -1.44889 2.29607 0
M  V30 1923 C 183.03 0.84177 3.49917 0
M  V30 1924 C 182.638 2.31514 3.83543 0
M  V30 1925 C 184.382 0.525355 4.21237 0
M  V30 1926 C 182.289 2.59939 5.31212 0
M  V30 1927 H 181.219 0.182944 0.73147 0
M  V30 1928 H 183.87 1.07971 1.48373 0
M  V30 1929 H 182.252 0.190311 3.95542 0
M  V30 1930 H 183.426 3.0109 3.48829 0
M  V30 1931 H 181.741 2.59907 3.25326 0
M  V30 1932 H 184.338 0.714762 5.29901 0
M  V30 1933 H 184.681 -0.535222 4.12845 0
M  V30 1934 H 185.214 1.134 3.81294 0
M  V30 1935 H 181.953 3.64736 5.44654 0
M  V30 1936 H 181.473 1.94972 5.67227 0
M  V30 1937 H 183.152 2.45429 5.98643 0
M  V30 1938 N 183.284 -1.43765 0.645699 0
M  V30 1939 C 184.533 -2.01116 0.153412 0
M  V30 1940 C 184.846 -1.51493 -1.23731 0
M  V30 1941 O 186.052 -2.01067 -1.8244 0
M  V30 1942 C 184.508 -3.59206 0.223473 0
M  V30 1943 C 184.116 -4.17823 1.61642 0
M  V30 1944 C 185.86 -4.23972 -0.211597 0
M  V30 1945 C 183.767 -5.68183 1.64081 0
M  V30 1946 H 182.697 -0.752093 0.0535891 0
M  V30 1947 H 185.348 -1.6482 0.806633 0
M  V30 1948 H 183.73 -3.92867 -0.497118 0
M  V30 1949 H 184.904 -3.95674 2.36176 0
M  V30 1950 H 183.219 -3.65399 1.99681 0
M  V30 1951 H 185.816 -5.34275 -0.213112 0
M  V30 1952 H 186.159 -3.97352 -1.24165 0
M  V30 1953 H 186.692 -3.95166 0.456988 0
M  V30 1954 H 183.431 -5.99559 2.64971 0
M  V30 1955 H 182.951 -5.9241 0.938611 0
M  V30 1956 H 184.63 -6.32085 1.3812 0
M  V30 1957 N 184.763 -0.387143 -1.52771 0
M  V30 1958 C 185.693 0.440551 -2.29306 0
M  V30 1959 C 186.674 1.06535 -1.32606 0
M  V30 1960 O 187.859 1.07853 -1.61497 0
M  V30 1961 C 184.989 1.56919 -3.09829 0
M  V30 1962 C 183.943 1.07054 -4.14395 0
M  V30 1963 C 183.269 2.29109 -4.83129 0
M  V30 1964 C 184.569 0.140015 -5.22112 0
M  V30 1965 H 186.263 -0.198026 -2.98744 0
M  V30 1966 H 183.809 -0.09668 -1.43675 0
M  V30 1967 H 185.762 2.15503 -3.62128 0
M  V30 1968 H 184.486 2.23532 -2.3812 0
M  V30 1969 H 183.145 0.507247 -3.63074 0
M  V30 1970 H 182.793 2.94227 -4.0797 0
M  V30 1971 H 182.493 1.96406 -5.53804 0
M  V30 1972 H 184.017 2.88339 -5.38231 0
M  V30 1973 H 185.431 0.633978 -5.69784 0
M  V30 1974 H 183.828 -0.0971485 -6.00021 0
M  V30 1975 H 184.898 -0.811711 -4.78058 0
M  V30 1976 N 186.241 1.57166 -0.116904 0
M  V30 1977 C 187.487 1.95412 0.542405 0
M  V30 1978 C 187.82 1.00019 1.66463 0
M  V30 1979 O 187.095 0.0370346 1.94465 0
M  V30 1980 C 187.378 3.43615 1.07708 0
M  V30 1981 C 187.231 4.49781 -0.0415868 0
M  V30 1982 C 188.55 3.93616 1.96861 0
M  V30 1983 H 185.669 0.710543 0.195696 0
M  V30 1984 H 188.311 1.89027 -0.192038 0
M  V30 1985 H 186.461 3.49187 1.70296 0
M  V30 1986 H 188.133 4.56308 -0.676793 0
M  V30 1987 H 186.376 4.28033 -0.705019 0
M  V30 1988 H 187.047 5.50733 0.373717 0
M  V30 1989 H 189.523 3.90335 1.44146 0
M  V30 1990 H 188.399 4.97838 2.3119 0
M  V30 1991 H 188.66 3.34188 2.89432 0
M  V30 1992 N 187.719 -0.156864 1.56817 0
M  V30 1993 C 189.135 -0.50916 1.5126 0
M  V30 1994 C 189.335 -1.83897 0.823658 0
M  V30 1995 O 188.391 -2.49469 0.390055 0
M  V30 1996 C 189.704 -0.52857 2.96018 0
M  V30 1997 C 191.252 -0.614771 3.06903 0
M  V30 1998 C 191.727 -0.664938 4.53147 0
M  V30 1999 N 193.218 -0.727433 4.57452 0
M  V30 2000 C 193.953 -0.787067 5.67973 0
M  V30 2001 N 193.449 -0.806649 6.88088 0
M  V30 2002 N 195.242 -0.827195 5.5598 0
M  V30 2003 H 187.393 0.714935 2.00006 0
M  V30 2004 H 189.656 0.259526 0.911784 0
M  V30 2005 H 189.362 0.380154 3.49639 0
M  V30 2006 H 189.236 -1.36998 3.51442 0
M  V30 2007 H 191.623 -1.51392 2.53307 0
M  V30 2008 H 191.704 0.253597 2.5454 0
M  V30 2009 H 191.348 0.230011 5.07379 0
M  V30 2010 H 191.278 -1.54966 5.03282 0
M  V30 2011 H 193.769 -0.719998 3.70978 0
M  V30 2012 H 194.082 -0.853727 7.6807 0
M  V30 2013 H 192.427 -0.774687 6.90669 0
M  V30 2014 H 195.618 -0.808998 4.61056 0
M  V30 2015 H 195.791 -0.870206 6.4213 0
M  V30 2016 N 189.197 -1.51736 -0.425897 0
M  V30 2017 C 190.474 -1.55519 -1.1863 0
M  V30 2018 C 190.854 -0.326219 -2.08564 0
M  V30 2019 O 190.202 0.688012 -2.17896 0
M  V30 2020 C 190.412 -2.87521 -1.9782 0
M  V30 2021 C 191.76 -3.39899 -2.54468 0
M  V30 2022 O 192.784 -2.89148 -2.08019 0
M  V30 2023 O 191.643 -4.2848 -3.39215 0
M  V30 2024 H 188.737 -0.625739 -0.540721 0
M  V30 2025 H 191.283 -1.64055 -0.434038 0
M  V30 2026 H 190.055 -3.68422 -1.31836 0
M  V30 2027 H 189.678 -2.822 -2.80088 0
M  V30 2028 N 190.675 0.682077 -1.42076 0
M  V30 2029 C 191.924 1.43786 -1.41451 0
M  V30 2030 C 192.237 1.95574 -0.0317074 0
M  V30 2031 O 193.443 2.71326 0.0971462 0
M  V30 2032 C 191.899 2.60071 -2.48779 0
M  V30 2033 C 191.507 2.15013 -3.93031 0
M  V30 2034 C 193.251 3.37626 -2.57311 0
M  V30 2035 C 191.158 3.28336 -4.91883 0
M  V30 2036 H 190.088 0.540143 -0.526082 0
M  V30 2037 H 192.739 0.739157 -1.67955 0
M  V30 2038 H 191.121 3.32275 -2.15429 0
M  V30 2039 H 192.295 1.5001 -4.35699 0
M  V30 2040 H 190.61 1.50416 -3.88284 0
M  V30 2041 H 193.207 4.22012 -3.28345 0
M  V30 2042 H 193.55 3.83727 -1.61429 0
M  V30 2043 H 194.083 2.72488 -2.89819 0
M  V30 2044 H 190.822 2.87234 -5.89217 0
M  V30 2045 H 190.342 3.92145 -4.53853 0
M  V30 2046 H 192.021 3.93913 -5.13265 0
M  V30 2047 N 192.153 1.28127 0.917671 0
M  V30 2048 C 193.402 1.14432 1.66097 0
M  V30 2049 C 193.715 -0.307247 1.93172 0
M  V30 2050 O 194.921 -0.565259 2.65551 0
M  V30 2051 C 193.377 2.00015 2.99202 0
M  V30 2052 C 192.985 3.49889 2.79789 0
M  V30 2053 C 194.729 1.94996 3.77064 0
M  V30 2054 C 192.636 4.27636 4.08511 0
M  V30 2055 H 191.566 0.424662 0.62304 0
M  V30 2056 H 194.217 1.52628 1.01868 0
M  V30 2057 H 192.599 1.54672 3.64544 0
M  V30 2058 H 193.773 4.03162 2.23152 0
M  V30 2059 H 192.088 3.56392 2.15345 0
M  V30 2060 H 194.685 2.50354 4.72469 0
M  V30 2061 H 195.028 0.925819 4.05875 0
M  V30 2062 H 195.561 2.38287 3.18534 0
M  V30 2063 H 192.3 5.30615 3.84874 0
M  V30 2064 H 191.82 3.79137 4.64774 0
M  V30 2065 H 193.499 4.37346 4.76799 0
M  V30 2066 N 193.631 -1.12557 1.10312 0
M  V30 2067 C 194.579 -2.20325 0.745629 0
M  V30 2068 C 195.573 -1.67429 -0.25763 0
M  V30 2069 O 196.779 -1.79612 -0.118132 0
M  V30 2070 H 193.154 -0.718118 0.223182 0
M  V30 2071 H 195.125 -2.47733 1.66346 0
M  V30 2072 C 193.874 -3.47168 0.192262 0
M  V30 2073 H 193.197 -3.88215 0.955475 0
M  V30 2074 H 194.637 -4.23995 -0.0198274 0
M  V30 2075 C 193.096 -3.19298 -1.07472 0
M  V30 2076 O 193.626 -3.3891 -2.15645 0
M  V30 2077 N 191.832 -2.73113 -0.992847 0
M  V30 2078 H 191.379 -2.57354 -0.112474 0
M  V30 2079 H 191.337 -2.54842 -1.84127 0
M  V30 2080 N 195.109 -0.891671 -1.2995 0
M  V30 2081 C 196.356 -0.513501 -1.95881 0
M  V30 2082 C 196.684 0.938655 -1.70351 0
M  V30 2083 O 195.939 1.67936 -1.00478 0
M  V30 2084 C 196.238 -0.742868 -3.49594 0
M  V30 2085 C 195.904 -2.17114 -3.95186 0
M  V30 2086 C 194.566 -2.56169 -4.07346 0
M  V30 2087 C 196.918 -3.10162 -4.18866 0
M  V30 2088 C 194.246 -3.87469 -4.4055 0
M  V30 2089 C 196.598 -4.41001 -4.53542 0
M  V30 2090 C 195.262 -4.79941 -4.63911 0
M  V30 2091 H 194.532 -0.187903 -0.71678 0
M  V30 2092 H 197.179 -1.1288 -1.54694 0
M  V30 2093 H 195.484 -0.044586 -3.91775 0
M  V30 2094 H 197.181 -0.429767 -3.9869 0
M  V30 2095 H 193.771 -1.85801 -3.86233 0
M  V30 2096 H 197.955 -2.81206 -4.08946 0
M  V30 2097 H 193.211 -4.17371 -4.46779 0
M  V30 2098 H 197.385 -5.13133 -4.70815 0
M  V30 2099 H 195.012 -5.81719 -4.89395 0
M  V30 2100 N 196.587 1.43421 -0.653314 0
M  V30 2101 C 197.52 2.2803 0.0879804 0
M  V30 2102 C 198.498 1.39833 0.82979 0
M  V30 2103 O 199.682 1.69275 0.829341 0
M  V30 2104 C 196.809 3.19247 1.13132 0
M  V30 2105 C 195.855 4.23704 0.487546 0
M  V30 2106 S 196.688 5.30377 -0.738961 0
M  V30 2107 C 197.844 6.25162 0.30384 0
M  V30 2108 H 198.077 2.90554 -0.629739 0
M  V30 2109 H 195.61 1.47934 -0.442156 0
M  V30 2110 H 197.568 3.72346 1.72827 0
M  V30 2111 H 196.229 2.55901 1.82136 0
M  V30 2112 H 195.422 4.87631 1.27407 0
M  V30 2113 H 195.024 3.73983 -0.0352915 0
M  V30 2114 H 197.316 6.67321 1.17 0
M  V30 2115 H 198.259 7.07463 -0.300402 0
M  V30 2116 H 198.667 5.60864 0.63969 0
M  V30 2117 N 198.065 0.39524 1.52563 0
M  V30 2118 C 199.312 -0.185044 2.01653 0
M  V30 2119 C 199.64 -1.46317 1.28146 0
M  V30 2120 O 198.895 -1.9213 0.372074 0
M  V30 2121 C 199.194 -0.493444 3.53977 0
M  V30 2122 C 198.86 0.69384 4.4553 0
M  V30 2123 C 197.522 1.01954 4.70275 0
M  V30 2124 C 199.874 1.48785 4.99512 0
M  V30 2125 C 197.202 2.14069 5.46252 0
M  V30 2126 C 199.554 2.59965 5.76716 0
M  V30 2127 C 198.218 2.93037 5.99738 0
M  V30 2128 H 197.488 -0.0677123 0.7379 0
M  V30 2129 H 200.135 0.533807 1.8391 0
M  V30 2130 H 198.44 -1.29369 3.69825 0
M  V30 2131 H 200.137 -0.955163 3.89458 0
M  V30 2132 H 196.727 0.429987 4.26438 0
M  V30 2133 H 200.911 1.24946 4.80315 0
M  V30 2134 H 196.167 2.40056 5.62302 0
M  V30 2135 H 200.341 3.21887 6.17545 0
M  V30 2136 H 197.968 3.8003 6.58393 0
M  V30 2137 N 199.544 -1.57102 0.125237 0
M  V30 2138 C 200.96 -1.57915 -0.231322 0
M  V30 2139 C 201.16 -1.13833 -1.66266 0
M  V30 2140 O 200.216 -0.828581 -2.38518 0
M  V30 2141 C 201.529 -3.00699 0.00766489 0
M  V30 2142 C 203.077 -3.12947 -0.0577483 0
M  V30 2143 C 203.552 -4.57742 0.153626 0
M  V30 2144 N 205.043 -4.63092 0.0998073 0
M  V30 2145 C 205.778 -5.72905 0.238174 0
M  V30 2146 N 205.274 -6.91445 0.433057 0
M  V30 2147 N 207.067 -5.6182 0.177308 0
M  V30 2148 H 199.218 -1.84055 1.06007 0
M  V30 2149 H 201.481 -0.850905 0.417929 0
M  V30 2150 H 201.187 -3.3726 0.997431 0
M  V30 2151 H 201.061 -3.70236 -0.721452 0
M  V30 2152 H 203.448 -2.7624 -1.03804 0
M  V30 2153 H 203.529 -2.4594 0.70335 0
M  V30 2154 H 203.173 -4.95149 1.13092 0
M  V30 2155 H 203.103 -5.22848 -0.627534 0
M  V30 2156 H 205.594 -3.77871 -0.047051 0
M  V30 2157 H 205.907 -7.70985 0.529332 0
M  V30 2158 H 204.252 -6.93415 0.469109 0
M  V30 2159 H 207.443 -4.68093 0.0259748 0
M  V30 2160 H 207.616 -6.47357 0.288582 0
M  V30 2161 N 201.022 0.148545 -1.56898 0
M  V30 2162 C 201.97 1.20265 -1.99096 0
M  V30 2163 C 202.964 1.44559 -0.883123 0
M  V30 2164 O 204.17 1.4487 -1.0683 0
M  V30 2165 H 200.545 0.404786 -0.63376 0
M  V30 2166 H 202.516 0.82004 -2.86911 0
M  V30 2167 C 201.265 2.52886 -2.3863 0
M  V30 2168 H 200.588 2.35021 -3.23427 0
M  V30 2169 H 202.028 3.25274 -2.7198 0
M  V30 2170 C 200.487 3.13315 -1.23837 0
M  V30 2171 O 201.017 3.98077 -0.538268 0
M  V30 2172 N 199.223 2.72742 -1.00301 0
M  V30 2173 H 198.77 2.03912 -1.5741 0
M  V30 2174 H 198.728 3.13507 -0.236838 0
M  V30 2175 N 202.5 1.5196 0.417844 0
M  V30 2176 C 203.911 1.57851 0.997 0
M  V30 2177 C 204.262 0.413714 1.91789 0
M  V30 2178 O 203.387 -0.467057 2.113 0
M  V30 2179 C 203.982 2.86085 1.81496 0
M  V30 2180 C 202.541 2.94483 2.34428 0
M  V30 2181 C 201.688 2.52707 1.14169 0
M  V30 2182 H 204.639 1.57455 0.198392 0
M  V30 2183 H 204.66 2.70947 2.67148 0
M  V30 2184 H 204.172 3.70842 1.14446 0
M  V30 2185 H 202.273 2.142 3.04875 0
M  V30 2186 H 202.386 3.98546 2.65891 0
M  V30 2187 H 200.75 2.06353 1.49301 0
M  V30 2188 H 201.533 3.39828 0.486999 0
M  V30 2189 N 203.978 -0.674533 1.42435 0
M  V30 2190 C 204.908 -1.80009 1.48724 0
M  V30 2191 C 205.889 -1.6659 0.343793 0
M  V30 2192 O 207.074 -1.86007 0.558137 0
M  V30 2193 C 204.204 -3.18306 1.38919 0
M  V30 2194 C 203.158 -3.46461 2.51294 0
M  V30 2195 C 202.484 -4.84335 2.26547 0
M  V30 2196 C 203.784 -3.43328 3.93603 0
M  V30 2197 H 205.478 -1.75004 2.42928 0
M  V30 2198 H 203.024 -0.840533 1.16923 0
M  V30 2199 H 204.977 -3.9678 1.41927 0
M  V30 2200 H 203.701 -3.2399 0.412094 0
M  V30 2201 H 202.36 -2.70348 2.47604 0
M  V30 2202 H 202.008 -4.86669 1.2713 0
M  V30 2203 H 201.708 -5.04136 3.01861 0
M  V30 2204 H 203.232 -5.65094 2.31304 0
M  V30 2205 H 204.646 -4.11772 3.98894 0
M  V30 2206 H 203.043 -3.74664 4.68771 0
M  V30 2207 H 204.113 -2.41897 4.20255 0
M  V30 2208 N 205.456 -1.28612 -0.910864 0
M  V30 2209 C 206.872 -1.06381 -1.18976 0
M  V30 2210 C 207.072 0.191998 -2.00583 0
M  V30 2211 O 206.128 0.892869 -2.36187 0
M  V30 2212 C 207.441 -2.31295 -1.92154 0
M  V30 2213 C 208.989 -2.36503 -2.05025 0
M  V30 2214 C 209.464 -3.61191 -2.81612 0
M  V30 2215 N 210.955 -3.61847 -2.89172 0
M  V30 2216 C 211.69 -4.55004 -3.4894 0
M  V30 2217 N 211.186 -5.58482 -4.09963 0
M  V30 2218 N 212.979 -4.42594 -3.46506 0
M  V30 2219 H 205.13 -2.09221 -0.366094 0
M  V30 2220 H 207.393 -0.921003 -0.224629 0
M  V30 2221 H 207.099 -3.228 -1.39618 0
M  V30 2222 H 206.973 -2.37934 -2.9269 0
M  V30 2223 H 209.36 -1.45494 -2.5674 0
M  V30 2224 H 209.441 -2.33857 -1.03657 0
M  V30 2225 H 209.085 -4.52545 -2.30576 0
M  V30 2226 H 209.015 -3.61092 -3.83302 0
M  V30 2227 H 211.506 -2.87022 -2.45819 0
M  V30 2228 H 211.819 -6.25704 -4.53557 0
M  V30 2229 H 210.164 -5.62305 -4.08459 0
M  V30 2230 H 213.355 -3.60953 -2.98045 0
M  V30 2231 H 213.528 -5.15381 -3.92793 0
M  V30 2232 N 206.934 1.1197 -1.10907 0
M  V30 2233 C 208.182 1.83225 -0.852819 0
M  V30 2234 C 208.503 1.84769 0.623341 0
M  V30 2235 O 207.773 1.3143 1.45269 0
M  V30 2236 H 206.353 0.67849 -0.312507 0
M  V30 2237 H 209.015 1.3556 -1.40033 0
M  V30 2238 H 208.111 2.87265 -1.22005 0
M  V30 2239 N 208.412 0.89855 1.29475 0
M  V30 2240 C 209.823 0.572537 1.77705 0
M  V30 2241 C 210.174 -0.911778 1.73727 0
M  V30 2242 O 209.299 -1.71288 1.32247 0
M  V30 2243 C 209.894 1.03252 3.22683 0
M  V30 2244 C 208.453 0.757687 3.68695 0
M  V30 2245 C 207.6 1.20787 2.49612 0
M  V30 2246 H 210.551 1.08139 1.16153 0
M  V30 2247 H 210.572 0.367307 3.78723 0
M  V30 2248 H 210.084 2.11285 3.25546 0
M  V30 2249 H 208.185 -0.310079 3.71308 0
M  V30 2250 H 208.298 1.35476 4.59547 0
M  V30 2251 H 206.662 0.626888 2.46865 0
M  V30 2252 H 207.445 2.29622 2.55203 0
M  V30 2253 N 209.89 -1.43072 0.660911 0
M  V30 2254 C 210.838 -2.32569 -0.0378199 0
M  V30 2255 C 211.832 -1.49046 -0.805092 0
M  V30 2256 O 213.038 -1.65206 -0.714624 0
M  V30 2257 H 209.413 -0.75136 -0.031019 0
M  V30 2258 H 211.384 -2.89216 0.734609 0
M  V30 2259 C 210.133 -3.33453 -0.985124 0
M  V30 2260 H 209.456 -3.97752 -0.404147 0
M  V30 2261 H 210.896 -3.98691 -1.44297 0
M  V30 2262 C 209.355 -2.64642 -2.08486 0
M  V30 2263 O 209.885 -2.46776 -3.16961 0
M  V30 2264 N 208.091 -2.23891 -1.8526 0
M  V30 2265 H 207.638 -2.38621 -0.970449 0
M  V30 2266 H 207.596 -1.78181 -2.59034 0
M  V30 2267 N 211.368 -0.403325 -1.52352 0
M  V30 2268 C 212.645 0.232611 -1.94212 0
M  V30 2269 C 213.025 1.63133 -1.33981 0
M  V30 2270 O 212.373 2.22659 -0.513344 0
M  V30 2271 C 212.583 0.244811 -3.4814 0
M  V30 2272 C 213.931 0.46698 -4.22024 0
M  V30 2273 O 214.955 0.324419 -3.5472 0
M  V30 2274 O 213.814 0.74747 -5.41364 0
M  V30 2275 H 210.908 0.148223 -0.813609 0
M  V30 2276 H 213.454 -0.458848 -1.63379 0
M  V30 2277 H 212.226 -0.734378 -3.84347 0
M  V30 2278 H 211.849 0.980611 -3.85318 0
M  V30 2279 N 212.846 1.57033 -0.133567 0
M  V30 2280 C 213.756 2.19632 0.824564 0
M  V30 2281 C 214.772 1.17666 1.28182 0
M  V30 2282 O 215.948 1.50193 1.3418 0
M  V30 2283 C 213.013 2.79499 2.05137 0
M  V30 2284 C 212.074 3.96548 1.64464 0
M  V30 2285 C 211.307 4.5355 2.81297 0
M  V30 2286 O 211.53 4.09438 3.97136 0
M  V30 2287 O 210.464 5.44018 2.57542 0
M  V30 2288 H 214.29 3.01991 0.321766 0
M  V30 2289 H 211.875 1.49112 0.0927889 0
M  V30 2290 H 213.757 3.17602 2.7696 0
M  V30 2291 H 212.432 2.00162 2.54395 0
M  V30 2292 H 211.339 3.63186 0.897048 0
M  V30 2293 H 212.672 4.77364 1.19934 0
M  V30 2294 N 214.325 -0.140222 1.56975 0
M  V30 2295 C 215.272 -1.17292 1.98774 0
M  V30 2296 C 216.242 -1.4232 0.856408 0
M  V30 2297 O 217.427 -1.54541 1.119 0
M  V30 2298 C 214.567 -2.49973 2.37923 0
M  V30 2299 C 213.68 -2.32062 3.64378 0
M  V30 2300 C 212.815 -3.57825 3.926 0
M  V30 2301 C 211.854 -3.3498 5.12303 0
M  V30 2302 N 210.991 -4.52891 5.36502 0
M  V30 2303 H 215.831 -0.809472 2.86795 0
M  V30 2304 H 213.368 -0.388237 1.41884 0
M  V30 2305 H 215.326 -3.27346 2.58652 0
M  V30 2306 H 213.956 -2.84252 1.52972 0
M  V30 2307 H 213.008 -1.45711 3.51387 0
M  V30 2308 H 214.32 -2.11145 4.51906 0
M  V30 2309 H 213.474 -4.43624 4.13863 0
M  V30 2310 H 212.213 -3.81753 3.03506 0
M  V30 2311 H 211.218 -2.4757 4.90906 0
M  V30 2312 H 212.443 -3.12444 6.02956 0
M  V30 2313 H 210.389 -4.76979 4.50363 0
M  V30 2314 H 210.306 -4.35001 6.18312 0
M  V30 2315 H 211.574 -5.39884 5.62268 0
M  V30 2316 N 215.803 -1.52179 -0.40978 0
M  V30 2317 C 217.052 -1.65434 -1.15388 0
M  V30 2318 C 217.365 -0.390056 -1.91671 0
M  V30 2319 O 218.571 -0.402399 -2.68501 0
M  V30 2320 C 217.027 -2.92279 -2.10003 0
M  V30 2321 C 216.635 -4.25813 -1.39239 0
M  V30 2322 C 218.379 -3.14897 -2.84675 0
M  V30 2323 C 216.286 -5.43782 -2.32498 0
M  V30 2324 H 215.216 -0.616267 -0.434432 0
M  V30 2325 H 217.867 -1.78666 -0.418401 0
M  V30 2326 H 216.249 -2.72744 -2.871 0
M  V30 2327 H 217.423 -4.55828 -0.675099 0
M  V30 2328 H 215.738 -4.09292 -0.766097 0
M  V30 2329 H 218.335 -4.0021 -3.54593 0
M  V30 2330 H 218.678 -2.29103 -3.47588 0
M  V30 2331 H 219.211 -3.34901 -2.14677 0
M  V30 2332 H 215.95 -6.3192 -1.74233 0
M  V30 2333 H 215.47 -5.18106 -3.02201 0
M  V30 2334 H 217.149 -5.76834 -2.93038 0
M  V30 2335 N 217.281 0.66697 -1.42791 0
M  V30 2336 C 218.529 1.42417 -1.43394 0
M  V30 2337 C 218.85 1.94925 -0.0542373 0
M  V30 2338 O 218.12 1.73564 0.908415 0
M  V30 2339 H 216.7 0.528515 -0.527902 0
M  V30 2340 H 219.362 0.787562 -1.78279 0
M  V30 2341 H 218.458 2.27333 -2.13837 0
M  V30 2342 N 218.759 1.29093 0.90403 0
M  V30 2343 C 220.17 1.15186 1.46932 0
M  V30 2344 C 220.521 -0.254587 1.94541 0
M  V30 2345 O 219.646 -1.14972 1.83332 0
M  V30 2346 C 220.241 2.08492 2.67051 0
M  V30 2347 C 218.8 1.98621 3.19729 0
M  V30 2348 C 217.947 1.9967 1.92425 0
M  V30 2349 H 220.898 1.41641 0.715789 0
M  V30 2350 H 220.919 1.65461 3.42641 0
M  V30 2351 H 220.431 3.10847 2.3237 0
M  V30 2352 H 218.532 0.993389 3.59114 0
M  V30 2353 H 218.645 2.86068 3.8432 0
M  V30 2354 H 217.009 1.44208 2.09943 0
M  V30 2355 H 217.792 3.03721 1.60026 0
M  V30 2356 N 220.237 -1.11381 1.11499 0
M  V30 2357 C 221.653 -1.35143 0.849031 0
M  V30 2358 C 221.853 -1.94515 -0.525938 0
M  V30 2359 O 220.909 -2.1785 -1.27662 0
M  V30 2360 C 222.222 -2.28249 1.95762 0
M  V30 2361 C 223.77 -2.41812 1.98736 0
M  V30 2362 C 224.245 -3.3824 3.088 0
M  V30 2363 N 225.736 -3.45803 3.08179 0
M  V30 2364 C 226.471 -4.20358 3.89982 0
M  V30 2365 N 225.967 -4.97884 4.8175 0
M  V30 2366 N 227.76 -4.15877 3.78157 0
M  V30 2367 H 219.911 -0.712062 2.00109 0
M  V30 2368 H 222.174 -0.376025 0.870235 0
M  V30 2369 H 221.88 -1.91817 2.94787 0
M  V30 2370 H 221.754 -3.28473 1.85433 0
M  V30 2371 H 224.141 -2.77518 1.00338 0
M  V30 2372 H 224.222 -1.41437 2.13141 0
M  V30 2373 H 223.866 -3.03261 4.07425 0
M  V30 2374 H 223.796 -4.38471 2.91635 0
M  V30 2375 H 226.287 -2.90506 2.41691 0
M  V30 2376 H 226.6 -5.52142 5.40702 0
M  V30 2377 H 224.945 -4.97043 4.85771 0
M  V30 2378 H 228.136 -3.544 3.05808 0
M  V30 2379 H 228.309 -4.73723 4.42143 0
M  V30 2380 N 221.715 -0.905404 -1.28997 0
M  V30 2381 C 222.962 -0.534248 -1.95325 0
M  V30 2382 C 223.29 0.920535 -1.71337 0
M  V30 2383 O 222.545 1.66861 -1.02254 0
M  V30 2384 C 222.844 -0.779906 -3.48787 0
M  V30 2385 C 222.51 -2.21293 -3.92861 0
M  V30 2386 C 221.172 -2.60475 -4.04606 0
M  V30 2387 C 223.524 -3.14587 -4.15553 0
M  V30 2388 C 220.852 -3.9212 -4.36416 0
M  V30 2389 C 223.204 -4.45787 -4.48839 0
M  V30 2390 C 221.868 -4.84834 -4.58794 0
M  V30 2391 H 221.138 -0.195495 -0.714747 0
M  V30 2392 H 223.785 -1.14514 -1.53488 0
M  V30 2393 H 222.09 -0.0861365 -3.91705 0
M  V30 2394 H 223.787 -0.472029 -3.98212 0
M  V30 2395 H 220.377 -1.89887 -3.84241 0
M  V30 2396 H 224.561 -2.85528 -4.0594 0
M  V30 2397 H 219.817 -4.22086 -4.42327 0
M  V30 2398 H 223.991 -5.18098 -4.65346 0
M  V30 2399 H 221.618 -5.86877 -4.83197 0
M  V30 2400 N 223.193 1.4272 -0.668489 0
M  V30 2401 C 224.604 1.84793 -0.266151 0
M  V30 2402 C 224.955 1.55959 1.19043 0
M  V30 2403 O 224.08 1.01622 1.91055 0
M  V30 2404 C 224.675 3.35436 -0.476271 0
M  V30 2405 C 223.234 3.76182 -0.128113 0
M  V30 2406 C 222.381 2.66344 -0.771777 0
M  V30 2407 H 225.332 1.32656 -0.871098 0
M  V30 2408 H 225.353 3.79515 0.273561 0
M  V30 2409 H 224.865 3.5639 -1.53647 0
M  V30 2410 H 222.966 3.60836 0.928891 0
M  V30 2411 H 223.079 4.75766 -0.564231 0
M  V30 2412 H 221.443 2.53885 -0.203652 0
M  V30 2413 H 222.226 2.90123 -1.83531 0
M  V30 2414 N 224.671 0.411399 1.52136 0
M  V30 2415 C 225.948 -0.222308 1.94333 0
M  V30 2416 C 226.328 -1.6242 1.34844 0
M  V30 2417 O 225.676 -2.22384 0.525145 0
M  V30 2418 C 225.886 -0.226345 3.48265 0
M  V30 2419 C 227.234 -0.444592 4.22266 0
M  V30 2420 O 228.258 -0.305602 3.54887 0
M  V30 2421 O 227.117 -0.718749 5.41753 0
M  V30 2422 H 224.211 -0.143907 0.814383 0
M  V30 2423 H 226.757 0.467506 1.63133 0
M  V30 2424 H 225.529 0.75475 3.83952 0
M  V30 2425 H 225.152 -0.960163 3.85832 0
M  V30 2426 N 226.149 -1.5696 0.141893 0
M  V30 2427 C 227.082 -2.12271 -0.837627 0
M  V30 2428 C 228.06 -1.04495 -1.24578 0
M  V30 2429 O 229.244 -1.32293 -1.34278 0
M  V30 2430 C 226.371 -2.63822 -2.12404 0
M  V30 2431 C 225.417 -3.83698 -1.86221 0
M  V30 2432 S 226.25 -5.24948 -1.05781 0
M  V30 2433 C 227.406 -5.79884 -2.35552 0
M  V30 2434 H 227.639 -2.95023 -0.367249 0
M  V30 2435 H 225.172 -1.54231 -0.0723014 0
M  V30 2436 H 227.13 -2.94175 -2.86307 0
M  V30 2437 H 225.791 -1.8121 -2.56557 0
M  V30 2438 H 224.984 -4.17995 -2.81596 0
M  V30 2439 H 224.586 -3.5408 -1.20429 0
M  V30 2440 H 226.878 -5.91005 -3.31239 0
M  V30 2441 H 227.821 -6.77544 -2.05767 0
M  V30 2442 H 228.229 -5.08095 -2.45967 0
M  V30 2443 N 227.627 0.131896 -1.57047 0
M  V30 2444 C 228.852 0.860418 -1.8871 0
M  V30 2445 C 229.277 1.73251 -0.73251 0
M  V30 2446 O 228.635 1.785 0.317429 0
M  V30 2447 C 228.683 1.68047 -3.19049 0
M  V30 2448 O 227.787 2.7862 -3.04047 0
M  V30 2449 H 227.128 0.238743 -0.619595 0
M  V30 2450 H 229.658 0.118169 -2.04258 0
M  V30 2451 H 229.668 2.07238 -3.51449 0
M  V30 2452 H 228.343 1.04018 -4.02682 0
M  V30 2453 H 226.92 2.42726 -2.83088 0
M  V30 2454 N 229.106 1.52395 0.401703 0
M  V30 2455 C 230.331 1.70972 1.17403 0
M  V30 2456 C 230.756 0.421615 1.83314 0
M  V30 2457 O 230.114 -0.621564 1.70312 0
M  V30 2458 C 230.162 2.85151 2.20728 0
M  V30 2459 O 229.266 2.51238 3.27037 0
M  V30 2460 H 228.607 0.568927 0.342372 0
M  V30 2461 H 231.137 1.99131 0.469891 0
M  V30 2462 H 231.147 3.10279 2.64936 0
M  V30 2463 H 229.822 3.78603 1.7214 0
M  V30 2464 H 228.399 2.36808 2.88057 0
M  V30 2465 N 230.584 -0.659388 1.43143 0
M  V30 2466 C 231.83 -1.42145 1.44647 0
M  V30 2467 C 232.163 -1.9408 0.0681907 0
M  V30 2468 O 231.438 -1.71899 -0.910007 0
M  V30 2469 C 231.721 -2.60735 2.48373 0
M  V30 2470 C 231.574 -2.14332 3.95451 0
M  V30 2471 C 232.893 -3.62951 2.48906 0
M  V30 2472 H 230.012 -0.51552 0.526696 0
M  V30 2473 H 232.654 -0.748069 1.74654 0
M  V30 2474 H 230.804 -3.18184 2.22916 0
M  V30 2475 H 232.476 -1.61932 4.31944 0
M  V30 2476 H 230.719 -1.4576 4.08578 0
M  V30 2477 H 231.39 -2.99583 4.63631 0
M  V30 2478 H 233.866 -3.1525 2.71582 0
M  V30 2479 H 232.742 -4.43487 3.23435 0
M  V30 2480 H 233.003 -4.15126 1.52061 0
M  V30 2481 N 232.062 -1.29571 -0.897171 0
M  V30 2482 C 233.308 -1.17863 -1.65034 0
M  V30 2483 C 233.641 0.268729 -1.92332 0
M  V30 2484 O 232.916 1.19378 -1.53555 0
M  V30 2485 C 233.199 -1.995 -2.99786 0
M  V30 2486 C 233.052 -3.5239 -2.79538 0
M  V30 2487 C 234.371 -1.82335 -4.00552 0
M  V30 2488 H 231.49 -0.429528 -0.598895 0
M  V30 2489 H 234.132 -1.59072 -1.03905 0
M  V30 2490 H 232.282 -1.64485 -3.51962 0
M  V30 2491 H 233.954 -3.97401 -2.34244 0
M  V30 2492 H 232.197 -3.77187 -2.14273 0
M  V30 2493 H 232.868 -4.04787 -3.75302 0
M  V30 2494 H 235.344 -2.12924 -3.57495 0
M  V30 2495 H 234.22 -2.41801 -4.92771 0
M  V30 2496 H 234.481 -0.779209 -4.35179 0
M  V30 2497 N 233.54 1.10788 -1.12088 0
M  V30 2498 C 234.817 1.79136 -0.785476 0
M  V30 2499 C 235.197 1.98246 0.725377 0
M  V30 2500 O 234.545 1.57258 1.65778 0
M  V30 2501 C 234.755 3.12375 -1.55636 0
M  V30 2502 C 236.103 3.8731 -1.74001 0
M  V30 2503 O 237.127 3.22085 -1.52117 0
M  V30 2504 O 235.986 5.04369 -2.10415 0
M  V30 2505 H 233.08 0.776226 -0.285311 0
M  V30 2506 H 235.626 1.1747 -1.2247 0
M  V30 2507 H 234.398 2.93863 -2.5838 0
M  V30 2508 H 234.021 3.81758 -1.11114 0
M  V30 2509 N 235.018 0.912232 1.28515 0
M  V30 2510 C 236.429 0.591352 1.77087 0
M  V30 2511 C 236.78 -0.8933 1.74684 0
M  V30 2512 O 235.905 -1.69876 1.34056 0
M  V30 2513 C 236.5 1.06668 3.2157 0
M  V30 2514 C 235.059 0.79675 3.67871 0
M  V30 2515 C 234.206 1.23427 2.48316 0
M  V30 2516 H 237.157 1.09365 1.15 0
M  V30 2517 H 237.178 0.407455 3.78312 0
M  V30 2518 H 236.69 2.14726 3.23287 0
M  V30 2519 H 234.791 -0.270679 3.71616 0
M  V30 2520 H 234.904 1.40343 4.58084 0
M  V30 2521 H 233.268 0.653036 2.46186 0
M  V30 2522 H 234.051 2.32316 2.52753 0
M  V30 2523 N 236.496 -1.42363 0.676048 0
M  V30 2524 C 237.406 -2.346 -0.00153389 0
M  V30 2525 C 238.422 -1.5516 -0.787485 0
M  V30 2526 O 239.598 -1.87723 -0.729521 0
M  V30 2527 C 236.663 -3.33705 -0.940298 0
M  V30 2528 C 235.724 -4.29042 -0.148739 0
M  V30 2529 C 234.957 -5.23413 -1.04279 0
M  V30 2530 O 235.18 -5.22749 -2.28232 0
M  V30 2531 O 234.114 -5.99795 -0.502925 0
M  V30 2532 H 237.94 -2.94082 0.758268 0
M  V30 2533 H 235.525 -1.42888 0.436289 0
M  V30 2534 H 237.407 -3.94586 -1.47917 0
M  V30 2535 H 236.082 -2.76695 -1.67993 0
M  V30 2536 H 234.989 -3.71571 0.43427 0
M  V30 2537 H 236.322 -4.89097 0.551805 0
M  V30 2538 N 237.974 -0.419461 -1.51915 0
M  V30 2539 C 239.22 0.145505 -2.02879 0
M  V30 2540 C 239.575 1.41926 -1.29903 0
M  V30 2541 O 238.868 1.87383 -0.399782 0
M  V30 2542 C 239.062 0.437067 -3.54717 0
M  V30 2543 C 238.891 -0.806877 -4.42402 0
M  V30 2544 C 237.661 -1.33514 -4.87342 0
M  V30 2545 C 239.859 -1.68796 -4.85811 0
M  V30 2546 N 237.841 -2.53349 -5.59185 0
M  V30 2547 C 239.212 -2.73247 -5.56539 0
M  V30 2548 C 241.267 -1.70449 -4.67816 0
M  V30 2549 C 239.97 -3.79276 -6.11181 0
M  V30 2550 C 241.996 -2.75403 -5.23361 0
M  V30 2551 C 241.358 -3.78575 -5.9402 0
M  V30 2552 H 237.457 0.0145424 -0.781865 0
M  V30 2553 H 240.041 -0.576126 -1.85981 0
M  V30 2554 H 238.212 1.12774 -3.71667 0
M  V30 2555 H 239.944 0.99182 -3.92358 0
M  V30 2556 H 236.699 -0.891657 -4.65131 0
M  V30 2557 H 237.123 -3.14066 -5.99743 0
M  V30 2558 H 241.765 -0.920209 -4.12664 0
M  V30 2559 H 239.483 -4.58554 -6.65397 0
M  V30 2560 H 243.069 -2.77603 -5.113 0
M  V30 2561 H 241.949 -4.58453 -6.36231 0
M  V30 2562 N 239.452 1.56882 -0.150215 0
M  V30 2563 C 240.415 2.1573 0.774157 0
M  V30 2564 C 241.415 1.0999 1.17298 0
M  V30 2565 O 242.605 1.35613 1.09338 0
M  V30 2566 C 239.737 2.72302 2.05096 0
M  V30 2567 H 240.93 2.98752 0.262201 0
M  V30 2568 H 238.483 1.55985 0.099248 0
M  V30 2569 H 239.218 1.92956 2.6065 0
M  V30 2570 H 239.003 3.49665 1.77416 0
M  V30 2571 H 240.493 3.17632 2.71109 0
M  V30 2572 N 240.93 -0.123565 1.57115 0
M  V30 2573 C 242.346 -0.476961 1.52306 0
M  V30 2574 C 242.546 -1.82109 0.86248 0
M  V30 2575 O 241.602 -2.48586 0.442884 0
M  V30 2576 C 242.915 -0.465661 2.97073 0
M  V30 2577 C 244.463 -0.549534 3.08138 0
M  V30 2578 C 244.938 -0.568669 4.54456 0
M  V30 2579 N 246.429 -0.630237 4.58892 0
M  V30 2580 C 247.164 -0.666415 5.69514 0
M  V30 2581 N 246.66 -0.660514 6.89644 0
M  V30 2582 N 248.453 -0.709077 5.5761 0
M  V30 2583 H 240.604 0.757198 1.98445 0
M  V30 2584 H 242.867 0.278808 0.906074 0
M  V30 2585 H 242.573 0.454232 3.48754 0
M  V30 2586 H 242.447 -1.29513 3.54269 0
M  V30 2587 H 244.834 -1.45985 2.56461 0
M  V30 2588 H 244.915 0.307532 2.53945 0
M  V30 2589 H 244.559 0.337581 5.06777 0
M  V30 2590 H 244.489 -1.44256 5.06456 0
M  V30 2591 H 246.98 -0.641146 3.72421 0
M  V30 2592 H 247.293 -0.690616 7.69708 0
M  V30 2593 H 245.638 -0.628012 6.92157 0
M  V30 2594 H 248.829 -0.711019 4.62668 0
M  V30 2595 H 249.002 -0.733804 6.43832 0
M  V30 2596 N 242.408 -1.52605 -0.393616 0
M  V30 2597 C 243.355 -1.77055 -1.48054 0
M  V30 2598 C 244.325 -0.61358 -1.54352 0
M  V30 2599 O 245.51 -0.852806 -1.70681 0
M  V30 2600 C 242.65 -1.94108 -2.85335 0
M  V30 2601 C 241.763 -3.21792 -2.88226 0
M  V30 2602 C 240.898 -3.29188 -4.16904 0
M  V30 2603 C 239.937 -4.51013 -4.13828 0
M  V30 2604 N 239.074 -4.55716 -5.34105 0
M  V30 2605 H 243.914 -2.69815 -1.26506 0
M  V30 2606 H 241.451 -1.33683 -0.61379 0
M  V30 2607 H 243.409 -2.01979 -3.65049 0
M  V30 2608 H 242.039 -1.04713 -3.05344 0
M  V30 2609 H 241.091 -3.23015 -2.00911 0
M  V30 2610 H 242.403 -4.11557 -2.8182 0
M  V30 2611 H 241.557 -3.36216 -5.05018 0
M  V30 2612 H 240.296 -2.37389 -4.26026 0
M  V30 2613 H 239.301 -4.44115 -3.24102 0
M  V30 2614 H 240.526 -5.44123 -4.06333 0
M  V30 2615 H 238.472 -3.66807 -5.43865 0
M  V30 2616 H 238.389 -5.39346 -5.29756 0
M  V30 2617 H 239.657 -4.66993 -6.2413 0
M  V30 2618 N 243.887 0.651787 -1.4349 0
M  V30 2619 C 245.136 1.40754 -1.44469 0
M  V30 2620 C 245.449 1.95463 -0.0731845 0
M  V30 2621 O 246.655 2.71471 0.0395721 0
M  V30 2622 C 245.111 2.54735 -2.5424 0
M  V30 2623 C 244.719 2.06628 -3.97504 0
M  V30 2624 C 246.463 3.32092 -2.64414 0
M  V30 2625 C 244.37 3.17829 -4.98737 0
M  V30 2626 H 243.3 0.528862 -0.53742 0
M  V30 2627 H 245.951 0.703365 -1.69485 0
M  V30 2628 H 244.333 3.2763 -2.22428 0
M  V30 2629 H 245.507 1.40734 -4.38783 0
M  V30 2630 H 243.822 1.42146 -3.91387 0
M  V30 2631 H 246.419 4.14952 -3.37223 0
M  V30 2632 H 246.762 3.80217 -1.69532 0
M  V30 2633 H 247.295 2.66279 -2.95534 0
M  V30 2634 H 244.034 2.74671 -5.95177 0
M  V30 2635 H 243.554 3.82429 -4.62069 0
M  V30 2636 H 245.233 3.82937 -5.21505 0
M  V30 2637 N 245.365 1.30045 0.890287 0
M  V30 2638 C 246.297 1.11786 2.00091 0
M  V30 2639 C 247.31 0.0626307 1.62679 0
M  V30 2640 O 248.499 0.308112 1.75821 0
M  V30 2641 C 245.599 0.681527 3.31977 0
M  V30 2642 C 244.772 1.81735 3.97858 0
M  V30 2643 C 243.831 1.37045 5.08041 0
M  V30 2644 O 242.857 2.07677 5.29961 0
M  V30 2645 N 244.059 0.246525 5.79976 0
M  V30 2646 H 246.824 2.07441 2.16306 0
M  V30 2647 H 244.385 1.2211 1.06305 0
M  V30 2648 H 246.377 0.365675 4.03045 0
M  V30 2649 H 244.947 -0.182828 3.12065 0
M  V30 2650 H 244.167 2.30159 3.20032 0
M  V30 2651 H 245.455 2.57865 4.38615 0
M  V30 2652 H 244.853 -0.34215 5.64664 0
M  V30 2653 H 243.41 -0.00990438 6.51799 0
M  V30 2654 N 246.843 -1.10192 1.12674 0
M  V30 2655 C 247.753 -2.20172 0.810026 0
M  V30 2656 C 248.769 -1.72821 -0.202188 0
M  V30 2657 O 249.945 -2.01369 -0.0351691 0
M  V30 2658 C 247.01 -3.45631 0.272007 0
M  V30 2659 C 246.071 -4.07704 1.34447 0
M  V30 2660 C 245.304 -5.27175 0.832029 0
M  V30 2661 O 245.527 -5.69425 -0.333284 0
M  V30 2662 O 244.461 -5.80168 1.60277 0
M  V30 2663 H 248.287 -2.49701 1.72867 0
M  V30 2664 H 245.872 -1.18977 0.903597 0
M  V30 2665 H 247.754 -4.21394 -0.0230219 0
M  V30 2666 H 246.429 -3.17723 -0.619164 0
M  V30 2667 H 245.336 -3.33614 1.6927 0
M  V30 2668 H 246.669 -4.3982 2.2095 0
M  V30 2669 N 248.321 -0.919034 -1.28029 0
M  V30 2670 C 249.737 -0.617972 -1.4715 0
M  V30 2671 C 249.937 0.835242 -1.83374 0
M  V30 2672 O 248.993 1.61388 -1.94191 0
M  V30 2673 C 250.306 -1.56041 -2.57044 0
M  V30 2674 C 251.854 -1.56769 -2.7091 0
M  V30 2675 C 252.329 -2.49688 -3.83953 0
M  V30 2676 N 253.82 -2.47845 -3.91314 0
M  V30 2677 C 254.555 -3.16437 -4.78179 0
M  V30 2678 N 254.051 -3.94376 -5.69596 0
M  V30 2679 N 255.844 -3.05498 -4.71834 0
M  V30 2680 H 247.995 -1.85866 -1.02798 0
M  V30 2681 H 250.258 -0.797506 -0.512531 0
M  V30 2682 H 249.964 -2.59671 -2.372 0
M  V30 2683 H 249.838 -1.29551 -3.54255 0
M  V30 2684 H 252.225 -0.538745 -2.90141 0
M  V30 2685 H 252.306 -1.87305 -1.74214 0
M  V30 2686 H 251.95 -3.52688 -3.65477 0
M  V30 2687 H 251.88 -2.16453 -4.80058 0
M  V30 2688 H 254.371 -1.91234 -3.25941 0
M  V30 2689 H 254.684 -4.43721 -6.32718 0
M  V30 2690 H 253.029 -3.98481 -5.69419 0
M  V30 2691 H 256.22 -2.44108 -3.99411 0
M  V30 2692 H 256.393 -3.59225 -5.39316 0
M  V30 2693 N 249.799 1.42003 -0.683588 0
M  V30 2694 C 250.729 2.33487 -0.024866 0
M  V30 2695 C 251.71 1.51163 0.779975 0
M  V30 2696 O 252.895 1.79739 0.735362 0
M  V30 2697 C 250.025 3.3487 0.920836 0
M  V30 2698 C 248.979 4.27414 0.223958 0
M  V30 2699 C 248.305 5.19074 1.2832 0
M  V30 2700 C 249.605 5.14445 -0.90242 0
M  V30 2701 H 251.299 2.88819 -0.788921 0
M  V30 2702 H 248.845 1.38873 -0.38083 0
M  V30 2703 H 250.798 3.97787 1.39081 0
M  V30 2704 H 249.522 2.77861 1.71642 0
M  V30 2705 H 248.181 3.65904 -0.225864 0
M  V30 2706 H 247.829 4.58387 2.071 0
M  V30 2707 H 247.529 5.81822 0.821995 0
M  V30 2708 H 249.053 5.84867 1.75392 0
M  V30 2709 H 250.467 5.70998 -0.513272 0
M  V30 2710 H 248.864 5.86072 -1.28997 0
M  V30 2711 H 249.934 4.52322 -1.74737 0
M  V30 2712 N 251.277 0.427512 1.51691 0
M  V30 2713 C 252.502 -0.143601 2.06902 0
M  V30 2714 C 252.927 -1.36536 1.29382 0
M  V30 2715 O 252.285 -1.78289 0.329043 0
M  V30 2716 C 252.333 -0.454207 3.57728 0
M  V30 2717 O 251.437 -1.54228 3.82475 0
M  V30 2718 H 250.778 -0.00617128 0.663971 0
M  V30 2719 H 253.308 0.606014 1.95419 0
M  V30 2720 H 253.318 -0.707525 4.01818 0
M  V30 2721 H 251.993 0.438812 4.13579 0
M  V30 2722 H 250.57 -1.2797 3.50254 0
M  V30 2723 N 252.755 -1.56801 0.158532 0
M  V30 2724 C 253.685 -2.20347 -0.772609 0
M  V30 2725 C 254.666 -1.15518 -1.24859 0
M  V30 2726 O 255.851 -1.43902 -1.30406 0
M  V30 2727 C 252.981 -2.83417 -2.00729 0
M  V30 2728 C 251.935 -3.94174 -1.66765 0
M  V30 2729 C 251.261 -4.44233 -2.97592 0
M  V30 2730 C 252.561 -5.14392 -0.905447 0
M  V30 2731 H 254.255 -2.98413 -0.242959 0
M  V30 2732 H 251.801 -1.43537 -0.115419 0
M  V30 2733 H 253.754 -3.26543 -2.6636 0
M  V30 2734 H 252.478 -2.02701 -2.56086 0
M  V30 2735 H 251.137 -3.51684 -1.03508 0
M  V30 2736 H 250.785 -3.60325 -3.50963 0
M  V30 2737 H 250.485 -5.18945 -2.75626 0
M  V30 2738 H 252.009 -4.90037 -3.64274 0
M  V30 2739 H 253.423 -5.5429 -1.46408 0
M  V30 2740 H 251.82 -5.9494 -0.7853 0
M  V30 2741 H 252.89 -4.84795 0.100668 0
M  V30 2742 N 254.233 0.115231 -1.57178 0
M  V30 2743 C 255.18 1.14115 -2.00615 0
M  V30 2744 C 256.15 1.40939 -0.878941 0
M  V30 2745 O 257.335 1.52741 -1.14345 0
M  V30 2746 C 254.475 2.46156 -2.4187 0
M  V30 2747 C 253.588 2.26236 -3.68024 0
M  V30 2748 C 252.723 3.51534 -3.98243 0
M  V30 2749 C 251.762 3.26787 -5.17568 0
M  V30 2750 N 250.899 4.44298 -5.43639 0
M  V30 2751 H 255.739 0.763743 -2.88047 0
M  V30 2752 H 253.276 0.365615 -1.42484 0
M  V30 2753 H 255.234 3.23189 -2.63827 0
M  V30 2754 H 253.864 2.81783 -1.57475 0
M  V30 2755 H 252.916 1.40102 -3.5366 0
M  V30 2756 H 254.228 2.03929 -4.55208 0
M  V30 2757 H 253.382 4.36984 -4.20868 0
M  V30 2758 H 252.121 3.76876 -3.09541 0
M  V30 2759 H 251.126 2.39729 -4.94783 0
M  V30 2760 H 252.351 3.02812 -6.0785 0
M  V30 2761 H 250.297 4.69754 -4.57895 0
M  V30 2762 H 250.214 4.25109 -6.25154 0
M  V30 2763 H 251.482 5.3087 -5.70786 0
M  V30 2764 N 255.711 1.52812 0.385517 0
M  V30 2765 C 256.621 1.80766 1.49535 0
M  V30 2766 C 257.637 0.694651 1.59532 0
M  V30 2767 O 258.813 0.982611 1.75803 0
M  V30 2768 C 255.878 1.97381 2.85029 0
M  V30 2769 C 254.939 3.21295 2.84724 0
M  V30 2770 C 254.172 3.37108 4.13756 0
M  V30 2771 O 254.395 2.5765 5.08893 0
M  V30 2772 O 253.329 4.30378 4.20783 0
M  V30 2773 H 257.155 2.75015 1.28842 0
M  V30 2774 H 254.74 1.37946 0.573697 0
M  V30 2775 H 256.622 2.09996 3.65349 0
M  V30 2776 H 255.297 1.06322 3.05741 0
M  V30 2777 H 254.204 3.1412 2.03174 0
M  V30 2778 H 255.537 4.12212 2.68965 0
M  V30 2779 N 257.189 -0.644168 1.43834 0
M  V30 2780 C 258.437 -1.40117 1.45642 0
M  V30 2781 C 258.758 -1.94814 0.0852413 0
M  V30 2782 O 258.028 -1.74988 -0.880688 0
M  V30 2783 H 256.608 -0.52005 0.536243 0
M  V30 2784 H 259.27 -0.7591 1.7951 0
M  V30 2785 H 258.366 -2.23902 2.17427 0
M  V30 2786 N 258.668 -1.30515 -0.883378 0
M  V30 2787 C 259.914 -1.19607 -1.63774 0
M  V30 2788 C 260.247 0.248314 -1.92606 0
M  V30 2789 O 259.522 1.17742 -1.54813 0
M  V30 2790 C 259.805 -2.02669 -2.97653 0
M  V30 2791 C 259.658 -3.55335 -2.75784 0
M  V30 2792 C 260.977 -1.86573 -3.98596 0
M  V30 2793 H 258.096 -0.435856 -0.594305 0
M  V30 2794 H 260.738 -1.60165 -1.02212 0
M  V30 2795 H 258.888 -1.68208 -3.50197 0
M  V30 2796 H 260.56 -3.99863 -2.30016 0
M  V30 2797 H 258.803 -3.79438 -2.1026 0
M  V30 2798 H 259.474 -4.08745 -3.70988 0
M  V30 2799 H 261.95 -2.16703 -3.55217 0
M  V30 2800 H 260.826 -2.47014 -4.90179 0
M  V30 2801 H 261.087 -0.825321 -4.34328 0
M  V30 2802 N 260.146 1.09593 -1.13257 0
M  V30 2803 C 261.376 1.85231 -0.915049 0
M  V30 2804 C 261.784 1.81345 0.539498 0
M  V30 2805 O 261.127 1.20664 1.38513 0
M  V30 2806 C 261.189 3.34275 -1.3229 0
M  V30 2807 C 260.853 3.6191 -2.79052 0
M  V30 2808 C 261.85 3.57777 -3.77216 0
M  V30 2809 C 259.535 3.90309 -3.16171 0
M  V30 2810 C 261.529 3.81652 -5.1051 0
M  V30 2811 C 259.216 4.13839 -4.49644 0
M  V30 2812 C 260.214 4.09502 -5.46623 0
M  V30 2813 O 259.902 4.32426 -6.77689 0
M  V30 2814 H 259.634 0.591997 -0.326367 0
M  V30 2815 H 262.188 1.394 -1.50854 0
M  V30 2816 H 260.418 3.80805 -0.672667 0
M  V30 2817 H 262.107 3.9132 -1.07812 0
M  V30 2818 H 262.873 3.35865 -3.49885 0
M  V30 2819 H 258.752 3.92811 -2.41289 0
M  V30 2820 H 262.296 3.78182 -5.86195 0
M  V30 2821 H 258.193 4.35232 -4.767 0
M  V30 2822 H 258.961 4.49896 -6.83766 0
M  V30 2823 N 261.624 0.925811 1.2754 0
M  V30 2824 C 262.873 0.561084 1.93739 0
M  V30 2825 C 263.186 -0.901685 1.73577 0
M  V30 2826 O 264.392 -1.37511 2.34101 0
M  V30 2827 C 262.848 0.952668 3.47062 0
M  V30 2828 C 262.456 2.43599 3.75983 0
M  V30 2829 C 264.2 0.659103 4.19352 0
M  V30 2830 C 262.107 2.76707 5.22673 0
M  V30 2831 H 261.037 0.206122 0.725279 0
M  V30 2832 H 263.688 1.12637 1.44863 0
M  V30 2833 H 262.07 0.316053 3.94737 0
M  V30 2834 H 263.244 3.12035 3.39073 0
M  V30 2835 H 261.559 2.70125 3.16893 0
M  V30 2836 H 264.156 0.882985 5.27359 0
M  V30 2837 H 264.499 -0.403607 4.14339 0
M  V30 2838 H 265.032 1.25473 3.77494 0
M  V30 2839 H 261.771 3.8188 5.32774 0
M  V30 2840 H 261.291 2.12919 5.60737 0
M  V30 2841 H 262.97 2.6435 5.90532 0
M  V30 2842 N 263.102 -1.41638 0.69111 0
M  V30 2843 C 264.35 -2.00902 0.219758 0
M  V30 2844 C 264.671 -1.54994 -1.18329 0
M  V30 2845 O 263.941 -0.778628 -1.79762 0
M  V30 2846 H 262.521 -0.74289 0.0782558 0
M  V30 2847 H 265.183 -1.73327 0.891271 0
M  V30 2848 H 264.279 -3.11224 0.233708 0
M  V30 2849 N 264.58 -0.43555 -1.51462 0
M  V30 2850 C 265.826 0.131709 -2.02372 0
M  V30 2851 C 266.159 1.42516 -1.3192 0
M  V30 2852 O 265.434 1.89606 -0.433573 0
M  V30 2853 C 265.717 0.352301 -3.58373 0
M  V30 2854 C 265.57 -0.959676 -4.39443 0
M  V30 2855 C 266.889 1.12286 -4.25535 0
M  V30 2856 H 264.008 0.0463936 -0.735538 0
M  V30 2857 H 266.65 -0.574197 -1.81116 0
M  V30 2858 H 264.8 0.9536 -3.76615 0
M  V30 2859 H 266.472 -1.59482 -4.32855 0
M  V30 2860 H 264.715 -1.56468 -4.04599 0
M  V30 2861 H 265.386 -0.759394 -5.46752 0
M  V30 2862 H 267.862 0.613545 -4.11552 0
M  V30 2863 H 266.738 1.24598 -5.34571 0
M  V30 2864 H 266.999 2.15048 -3.86273 0
M  V30 2865 N 266.058 1.56714 -0.166846 0
M  V30 2866 C 266.988 2.20754 0.760913 0
M  V30 2867 C 267.969 1.16178 1.24244 0
M  V30 2868 O 269.154 1.44592 1.29641 0
M  V30 2869 C 266.284 2.84478 1.99223 0
M  V30 2870 C 265.238 3.95053 1.64672 0
M  V30 2871 C 264.564 4.45805 2.95232 0
M  V30 2872 C 265.864 5.14865 0.878155 0
M  V30 2873 H 267.558 2.98537 0.22713 0
M  V30 2874 H 265.104 1.43596 0.107805 0
M  V30 2875 H 267.057 3.27951 2.64624 0
M  V30 2876 H 265.781 2.04056 2.55007 0
M  V30 2877 H 264.44 3.52228 1.01641 0
M  V30 2878 H 264.088 3.62181 3.49047 0
M  V30 2879 H 263.788 5.204 2.7287 0
M  V30 2880 H 265.312 4.91962 3.6167 0
M  V30 2881 H 266.726 5.55059 1.43466 0
M  V30 2882 H 265.123 5.95348 0.753738 0
M  V30 2883 H 266.193 4.84735 -0.126377 0
M  V30 2884 N 267.536 -0.106894 1.57237 0
M  V30 2885 C 268.784 -0.810921 1.85117 0
M  V30 2886 C 269.105 -1.7984 0.753827 0
M  V30 2887 O 268.375 -1.94649 -0.221056 0
M  V30 2888 H 266.955 -0.302466 0.683025 0
M  V30 2889 H 269.617 -0.0913324 1.94686 0
M  V30 2890 H 268.713 -1.34875 2.81452 0
M  V30 2891 N 269.014 -1.53014 -0.377408 0
M  V30 2892 C 270.425 -1.60438 -0.954798 0
M  V30 2893 C 270.776 -0.464418 -1.90624 0
M  V30 2894 O 269.901 0.41087 -2.12464 0
M  V30 2895 C 270.496 -2.90797 -1.73847 0
M  V30 2896 C 269.055 -3.00595 -2.26538 0
M  V30 2897 C 268.202 -2.55645 -1.07429 0
M  V30 2898 H 271.153 -1.57926 -0.156575 0
M  V30 2899 H 271.174 -2.77935 -2.5987 0
M  V30 2900 H 270.686 -3.73746 -1.04574 0
M  V30 2901 H 268.787 -2.22208 -2.99089 0
M  V30 2902 H 268.9 -4.05456 -2.5523 0
M  V30 2903 H 267.264 -2.10239 -1.43777 0
M  V30 2904 H 268.047 -3.41 -0.396728 0
M  V30 2905 N 270.492 0.636531 -1.44174 0
M  V30 2906 C 271.717 1.42847 -1.50364 0
M  V30 2907 C 272.142 1.87665 -0.127867 0
M  V30 2908 O 271.5 1.58408 0.88185 0
M  V30 2909 C 271.548 2.62854 -2.4686 0
M  V30 2910 O 270.652 3.62501 -1.9664 0
M  V30 2911 H 269.993 0.427642 -0.507955 0
M  V30 2912 H 272.523 0.777422 -1.89255 0
M  V30 2913 H 272.533 3.10465 -2.64718 0
M  V30 2914 H 271.208 2.29578 -3.46795 0
M  V30 2915 H 269.785 3.21735 -1.88523 0
M  V30 2916 N 271.97 1.30982 0.876444 0
M  V30 2917 C 273.2 1.23063 1.65949 0
M  V30 2918 C 273.608 -0.207537 1.88058 0
M  V30 2919 O 272.951 -1.14781 1.43426 0
M  V30 2920 C 273.013 1.89768 3.05333 0
M  V30 2921 C 272.677 3.39106 3.0636 0
M  V30 2922 C 273.674 4.3496 2.84791 0
M  V30 2923 C 271.359 3.80693 3.27686 0
M  V30 2924 C 273.353 5.70375 2.84519 0
M  V30 2925 C 271.04 5.16223 3.27043 0
M  V30 2926 C 272.038 6.10875 3.05485 0
M  V30 2927 O 271.726 7.43928 3.04674 0
M  V30 2928 H 271.458 0.426685 0.524324 0
M  V30 2929 H 274.012 1.7329 1.10271 0
M  V30 2930 H 272.242 1.34082 3.6271 0
M  V30 2931 H 273.931 1.75853 3.65829 0
M  V30 2932 H 274.697 4.0416 2.68103 0
M  V30 2933 H 270.576 3.07457 3.43499 0
M  V30 2934 H 274.12 6.44228 2.67611 0
M  V30 2935 H 270.017 5.4666 3.43269 0
M  V30 2936 H 270.785 7.53022 3.2078 0
M  V30 2937 N 273.449 -1.08991 1.13837 0
M  V30 2938 C 274.359 -2.19301 0.833333 0
M  V30 2939 C 275.375 -1.73026 -0.183847 0
M  V30 2940 O 276.551 -2.01395 -0.0138092 0
M  V30 2941 C 273.616 -3.45323 0.308651 0
M  V30 2942 C 272.677 -4.06255 1.38764 0
M  V30 2943 C 271.91 -5.26262 0.887896 0
M  V30 2944 O 272.133 -5.69747 -0.27287 0
M  V30 2945 O 271.067 -5.78435 1.66421 0
M  V30 2946 H 274.893 -2.47854 1.75506 0
M  V30 2947 H 272.478 -1.18012 0.916166 0
M  V30 2948 H 274.36 -4.21394 0.0216739 0
M  V30 2949 H 273.035 -3.18362 -0.585431 0
M  V30 2950 H 271.942 -3.318 1.72799 0
M  V30 2951 H 273.275 -4.37452 2.25602 0
M  V30 2952 N 274.927 -0.932562 -1.27047 0
M  V30 2953 C 276.155 -0.592031 -1.98249 0
M  V30 2954 C 276.57 0.831062 -1.69525 0
M  V30 2955 O 275.927 1.55299 -0.958561 0
M  V30 2956 C 275.978 -0.814279 -3.5221 0
M  V30 2957 O 275.699 -2.18139 -3.7993 0
M  V30 2958 C 277.2 -0.483121 -4.4066 0
M  V30 2959 H 274.42 -0.223896 -0.632544 0
M  V30 2960 H 276.964 -1.25091 -1.61779 0
M  V30 2961 H 275.119 -0.20213 -3.86872 0
M  V30 2962 H 275.533 -2.235 -4.74498 0
M  V30 2963 H 277.007 -0.689298 -5.47679 0
M  V30 2964 H 277.484 0.581546 -4.35333 0
M  V30 2965 H 278.09 -1.07362 -4.11526 0
M  V30 2966 N 276.405 1.4127 -0.698611 0
M  V30 2967 C 277.816 1.84187 -0.305289 0
M  V30 2968 C 278.167 1.58449 1.15708 0
M  V30 2969 O 277.292 1.05651 1.88856 0
M  V30 2970 C 277.887 3.3435 -0.547314 0
M  V30 2971 C 276.446 3.75826 -0.207878 0
M  V30 2972 C 275.593 2.64647 -0.828099 0
M  V30 2973 H 278.544 1.30778 -0.89904 0
M  V30 2974 H 278.565 3.8001 0.192998 0
M  V30 2975 H 278.077 3.53051 -1.61172 0
M  V30 2976 H 276.178 3.62725 0.852143 0
M  V30 2977 H 276.291 4.74462 -0.665021 0
M  V30 2978 H 274.655 2.53395 -0.257458 0
M  V30 2979 H 275.438 2.86165 -1.89643 0
M  V30 2980 N 277.883 0.443576 1.51229 0
M  V30 2981 C 278.846 -0.353132 2.26463 0
M  V30 2982 C 279.846 -0.944338 1.3015 0
M  V30 2983 O 281.036 -0.817813 1.5381 0
M  V30 2984 C 278.168 -1.50023 3.06114 0
M  V30 2985 H 279.361 0.3063 2.98332 0
M  V30 2986 H 276.914 0.196902 1.55055 0
M  V30 2987 H 277.649 -2.19553 2.38677 0
M  V30 2988 H 277.434 -1.08241 3.76864 0
M  V30 2989 H 278.924 -2.06296 3.63087 0
M  V30 2990 N 279.361 -1.56624 0.175154 0
M  V30 2991 C 280.271 -2.21741 -0.766042 0
M  V30 2992 C 281.287 -1.21023 -1.25018 0
M  V30 2993 O 282.463 -1.53697 -1.3015 0
M  V30 2994 C 279.528 -2.84839 -1.97655 0
M  V30 2995 C 278.589 -4.00769 -1.53892 0
M  V30 2996 C 277.822 -4.60849 -2.69173 0
M  V30 2997 O 278.045 -4.19823 -3.86141 0
M  V30 2998 O 276.979 -5.50655 -2.43028 0
M  V30 2999 H 280.805 -3.02738 -0.241585 0
M  V30 3000 H 278.39 -1.49305 -0.053222 0
M  V30 3001 H 280.272 -3.24834 -2.68442 0
M  V30 3002 H 278.947 -2.06836 -2.48999 0
M  V30 3003 H 277.854 -3.65436 -0.80044 0
M  V30 3004 H 279.187 -4.80376 -1.07236 0
M  V30 3005 N 280.839 0.0985539 -1.57292 0
M  V30 3006 C 282.088 0.801358 -1.85098 0
M  V30 3007 C 282.401 1.80066 -0.763902 0
M  V30 3008 O 283.607 2.55112 -0.928981 0
M  V30 3009 C 282.063 1.47599 -3.28242 0
M  V30 3010 C 281.671 0.516624 -4.45011 0
M  V30 3011 C 283.415 2.16272 -3.65276 0
M  V30 3012 C 281.322 1.19564 -5.79188 0
M  V30 3013 H 280.252 0.303022 -0.69043 0
M  V30 3014 H 282.903 0.0542623 -1.8342 0
M  V30 3015 H 281.285 2.27042 -3.2445 0
M  V30 3016 H 282.459 -0.246065 -4.60143 0
M  V30 3017 H 280.774 -0.064227 -4.1635 0
M  V30 3018 H 283.371 2.67802 -4.62803 0
M  V30 3019 H 283.714 2.95009 -2.93727 0
M  V30 3020 H 284.247 1.43693 -3.70941 0
M  V30 3021 H 280.986 0.449157 -6.53959 0
M  V30 3022 H 280.506 1.92984 -5.67906 0
M  V30 3023 H 282.185 1.7231 -6.23633 0
M  V30 3024 N 282.317 1.53212 0.369288 0
M  V30 3025 C 283.733 1.42902 0.710712 0
M  V30 3026 C 283.933 0.565135 1.93413 0
M  V30 3027 O 282.989 0.0461484 2.52458 0
M  V30 3028 C 284.302 2.86042 0.927382 0
M  V30 3029 C 285.85 2.9565 1.02762 0
M  V30 3030 C 286.325 4.39843 1.27679 0
M  V30 3031 N 287.816 4.43256 1.34457 0
M  V30 3032 C 288.551 5.51929 1.55439 0
M  V30 3033 N 288.047 6.70655 1.73762 0
M  V30 3034 N 289.84 5.39502 1.57779 0
M  V30 3035 H 281.991 2.07888 -0.435457 0
M  V30 3036 H 284.254 0.938661 -0.132739 0
M  V30 3037 H 283.96 3.51557 0.100287 0
M  V30 3038 H 283.834 3.29472 1.83653 0
M  V30 3039 H 286.221 2.30291 1.84527 0
M  V30 3040 H 286.302 2.5562 0.0959504 0
M  V30 3041 H 285.946 5.05774 0.464175 0
M  V30 3042 H 285.876 4.77443 2.22162 0
M  V30 3043 H 288.367 3.5769 1.21926 0
M  V30 3044 H 288.68 7.49248 1.89335 0
M  V30 3045 H 287.025 6.73648 1.70948 0
M  V30 3046 H 290.216 4.45713 1.43029 0
M  V30 3047 H 290.389 6.2426 1.7379 0
M  V30 3048 N 283.795 -0.628877 1.44509 0
M  V30 3049 C 285.041 -1.39045 1.47629 0
M  V30 3050 C 285.374 -1.93892 0.109343 0
M  V30 3051 O 284.649 -1.7379 -0.87334 0
M  V30 3052 C 284.932 -2.55408 2.53848 0
M  V30 3053 C 284.785 -2.05896 3.99909 0
M  V30 3054 C 286.104 -3.5759 2.56549 0
M  V30 3055 H 283.223 -0.504232 0.537512 0
M  V30 3056 H 285.865 -0.710854 1.76201 0
M  V30 3057 H 284.015 -3.13384 2.29615 0
M  V30 3058 H 285.687 -1.52734 4.35282 0
M  V30 3059 H 283.93 -1.37061 4.11578 0
M  V30 3060 H 284.601 -2.89681 4.69882 0
M  V30 3061 H 287.077 -3.09419 2.78207 0
M  V30 3062 H 285.953 -4.36527 3.32769 0
M  V30 3063 H 286.214 -4.11808 1.60832 0
M  V30 3064 N 285.273 -1.31445 -0.869486 0
M  V30 3065 C 286.52 -1.21158 -1.62256 0
M  V30 3066 C 286.848 0.230155 -1.93133 0
M  V30 3067 O 286.103 1.17906 -1.56194 0
M  V30 3068 C 286.402 -2.00145 -2.96102 0
M  V30 3069 C 286.068 -3.4964 -2.84715 0
M  V30 3070 C 284.73 -3.90403 -2.81317 0
M  V30 3071 C 287.082 -4.44769 -2.71716 0
M  V30 3072 C 284.41 -5.24561 -2.62778 0
M  V30 3073 C 286.762 -5.79054 -2.54714 0
M  V30 3074 C 285.426 -6.19037 -2.49699 0
M  V30 3075 H 284.696 -0.443348 -0.593737 0
M  V30 3076 H 287.343 -1.62715 -1.00976 0
M  V30 3077 H 285.648 -1.5127 -3.6142 0
M  V30 3078 H 287.345 -1.89566 -3.53363 0
M  V30 3079 H 283.935 -3.17256 -2.88178 0
M  V30 3080 H 288.119 -4.14208 -2.73397 0
M  V30 3081 H 283.375 -5.54613 -2.57321 0
M  V30 3082 H 287.549 -6.52393 -2.43632 0
M  V30 3083 H 285.176 -7.22935 -2.35093 0
M  V30 3084 N 286.751 1.08385 -1.14413 0
M  V30 3085 C 287.661 2.18856 -0.844951 0
M  V30 3086 C 288.677 1.73121 0.174668 0
M  V30 3087 O 289.853 2.014 0.00312857 0
M  V30 3088 C 286.918 3.45155 -0.32696 0
M  V30 3089 C 285.979 4.05513 -1.40916 0
M  V30 3090 C 285.212 5.25784 -0.915793 0
M  V30 3091 O 285.435 5.69884 0.242651 0
M  V30 3092 O 284.369 5.77545 -1.69487 0
M  V30 3093 H 288.195 2.46919 -1.76818 0
M  V30 3094 H 285.78 1.17524 -0.922411 0
M  V30 3095 H 287.662 4.21377 -0.0440211 0
M  V30 3096 H 286.337 3.18668 0.568539 0
M  V30 3097 H 285.244 3.30879 -1.74556 0
M  V30 3098 H 286.577 4.3625 -2.27919 0
M  V30 3099 N 288.23 0.939286 1.26551 0
M  V30 3100 C 289.177 0.446088 2.26448 0
M  V30 3101 C 290.147 -0.493234 1.58608 0
M  V30 3102 O 291.332 -0.409857 1.86346 0
M  V30 3103 C 288.472 -0.284375 3.43926 0
M  V30 3104 C 287.585 0.690399 4.26448 0
M  V30 3105 C 286.72 -0.0610712 5.31165 0
M  V30 3106 C 285.759 0.905649 6.05363 0
M  V30 3107 N 284.896 0.186055 7.01853 0
M  V30 3108 H 289.736 1.30291 2.68008 0
M  V30 3109 H 287.273 0.65371 1.31776 0
M  V30 3110 H 289.231 -0.724313 4.10864 0
M  V30 3111 H 287.861 -1.10535 3.03285 0
M  V30 3112 H 286.913 1.24885 3.59316 0
M  V30 3113 H 288.225 1.42873 4.779 0
M  V30 3114 H 287.379 -0.56038 6.04106 0
M  V30 3115 H 286.118 -0.832297 4.80546 0
M  V30 3116 H 285.123 1.4161 5.3125 0
M  V30 3117 H 286.348 1.67685 6.58072 0
M  V30 3118 H 284.294 -0.566714 6.53548 0
M  V30 3119 H 284.211 0.863752 7.51049 0
M  V30 3120 H 285.479 -0.292221 7.78952 0
M  V30 3121 N 289.708 -1.40897 0.706093 0
M  V30 3122 C 290.638 -2.33418 0.0620085 0
M  V30 3123 C 291.619 -1.52385 -0.755827 0
M  V30 3124 O 292.804 -1.80886 -0.706674 0
M  V30 3125 C 289.934 -3.36293 -0.867445 0
M  V30 3126 C 288.888 -4.27716 -0.155932 0
M  V30 3127 C 288.214 -5.2105 -1.20046 0
M  V30 3128 C 289.514 -5.12944 0.984149 0
M  V30 3129 H 291.208 -2.87527 0.83477 0
M  V30 3130 H 288.754 -1.38249 0.402875 0
M  V30 3131 H 290.707 -3.99949 -1.32735 0
M  V30 3132 H 289.431 -2.80556 -1.67199 0
M  V30 3133 H 288.09 -3.65498 0.284047 0
M  V30 3134 H 287.738 -4.61624 -1.99781 0
M  V30 3135 H 287.438 -5.83056 -0.729328 0
M  V30 3136 H 288.962 -5.87584 -1.66066 0
M  V30 3137 H 290.376 -5.70109 0.604048 0
M  V30 3138 H 288.773 -5.83945 1.38304 0
M  V30 3139 H 289.843 -4.49485 1.81911 0
M  V30 3140 N 291.186 -0.45159 -1.50991 0
M  V30 3141 C 292.434 0.109857 -2.01801 0
M  V30 3142 C 292.755 1.41958 -1.3369 0
M  V30 3143 O 292.025 1.9003 -0.475951 0
M  V30 3144 H 290.605 0.0435884 -0.745727 0
M  V30 3145 H 293.267 -0.597557 -1.85514 0
M  V30 3146 H 292.363 0.275489 -3.10882 0
M  V30 3147 N 292.664 1.56529 -0.183458 0
M  V30 3148 C 293.627 2.17324 0.728223 0
M  V30 3149 C 294.627 1.12453 1.14939 0
M  V30 3150 O 295.817 1.37902 1.06437 0
M  V30 3151 C 292.949 2.76591 1.99274 0
M  V30 3152 H 294.142 2.99241 0.198772 0
M  V30 3153 H 291.695 1.5616 0.0661391 0
M  V30 3154 H 292.43 1.98441 2.56499 0
M  V30 3155 H 292.215 3.5335 1.69959 0
M  V30 3156 H 293.705 3.23311 2.6431 0
M  V30 3157 N 294.142 -0.090211 1.57342 0
M  V30 3158 C 295.419 -0.824761 1.77361 0
M  V30 3159 C 295.799 -1.96698 0.76637 0
M  V30 3160 O 295.147 -2.27586 -0.204179 0
M  V30 3161 C 295.357 -1.31481 3.23286 0
M  V30 3162 C 296.705 -1.75563 3.86604 0
M  V30 3163 O 297.729 -1.41093 3.27065 0
M  V30 3164 O 296.588 -2.39317 4.91314 0
M  V30 3165 H 293.682 -0.393776 0.727234 0
M  V30 3166 H 296.228 -0.0717138 1.69548 0
M  V30 3167 H 295 -0.496671 3.88135 0
M  V30 3168 H 294.623 -2.12973 3.35751 0
M  V30 3169 N 295.62 -1.53406 -0.361157 0
M  V30 3170 C 296.55 -1.83136 -1.44857 0
M  V30 3171 C 297.531 -0.685174 -1.5569 0
M  V30 3172 O 298.716 -0.93544 -1.70186 0
M  V30 3173 C 295.846 -2.02522 -2.82138 0
M  V30 3174 C 294.8 -3.18302 -2.86126 0
M  V30 3175 C 294.126 -3.22989 -4.26125 0
M  V30 3176 C 295.426 -4.56796 -2.53248 0
M  V30 3177 H 297.12 -2.74201 -1.20226 0
M  V30 3178 H 294.666 -1.31938 -0.576922 0
M  V30 3179 H 296.619 -2.21904 -3.58241 0
M  V30 3180 H 295.343 -1.08172 -3.08166 0
M  V30 3181 H 294.002 -2.98747 -2.12475 0
M  V30 3182 H 293.65 -2.26267 -4.49235 0
M  V30 3183 H 293.35 -4.00781 -4.29708 0
M  V30 3184 H 294.874 -3.44559 -5.04094 0
M  V30 3185 H 296.288 -4.7631 -3.19064 0
M  V30 3186 H 294.685 -5.36862 -2.68141 0
M  V30 3187 H 295.755 -4.61606 -1.48484 0
M  V30 3188 N 297.098 0.621204 -1.44841 0
M  V30 3189 C 298.344 1.3826 -1.48365 0
M  V30 3190 C 298.677 1.93831 -0.119624 0
M  V30 3191 O 297.952 1.74251 0.864111 0
M  V30 3192 C 298.235 2.54058 -2.55199 0
M  V30 3193 C 298.088 2.03772 -4.00995 0
M  V30 3194 C 299.407 3.56225 -2.58442 0
M  V30 3195 H 296.526 0.501374 -0.540179 0
M  V30 3196 H 299.168 0.7015 -1.76576 0
M  V30 3197 H 297.318 3.12162 -2.31274 0
M  V30 3198 H 298.99 1.50423 -4.36086 0
M  V30 3199 H 297.233 1.34876 -4.12299 0
M  V30 3200 H 297.904 2.87185 -4.71411 0
M  V30 3201 H 300.38 3.07939 -2.79844 0
M  V30 3202 H 299.256 4.34756 -3.3508 0
M  V30 3203 H 299.517 4.10949 -1.63013 0
M  V30 3204 N 298.576 1.31904 0.862503 0
M  V30 3205 C 299.824 1.21776 1.61292 0
M  V30 3206 C 300.145 -0.222413 1.93727 0
M  V30 3207 O 299.415 -1.1451 1.58947 0
M  V30 3208 H 297.995 0.447717 0.597962 0
M  V30 3209 H 300.657 1.65326 1.03215 0
M  V30 3210 H 299.753 1.7948 2.5533 0
M  V30 3211 N 300.054 -1.07777 1.14986 0
M  V30 3212 C 300.987 -2.14228 0.786243 0
M  V30 3213 C 301.965 -1.60888 -0.235347 0
M  V30 3214 O 303.149 -1.88099 -0.122909 0
M  V30 3215 C 300.276 -3.38281 0.168433 0
M  V30 3216 C 299.322 -4.10387 1.16123 0
M  V30 3217 S 300.155 -4.62371 2.70135 0
M  V30 3218 C 301.311 -5.89704 2.09762 0
M  V30 3219 H 301.544 -2.44741 1.68787 0
M  V30 3220 H 299.077 -1.19984 0.971756 0
M  V30 3221 H 301.035 -4.10098 -0.181588 0
M  V30 3222 H 299.696 -3.05953 -0.710725 0
M  V30 3223 H 298.889 -4.99431 0.677086 0
M  V30 3224 H 298.491 -3.44513 1.45556 0
M  V30 3225 H 300.783 -6.61648 1.45701 0
M  V30 3226 H 301.726 -6.42824 2.96955 0
M  V30 3227 H 302.134 -5.4302 1.54239 0
M  V30 3228 N 301.532 -0.945985 -1.26051 0
M  V30 3229 C 302.757 -0.612525 -1.98149 0
M  V30 3230 C 303.182 0.806623 -1.69927 0
M  V30 3231 O 302.54 1.54411 -0.950108 0
M  V30 3232 C 302.588 -0.866981 -3.50023 0
M  V30 3233 O 301.692 0.0585333 -4.12358 0
M  V30 3234 H 301.033 -0.23379 -0.621481 0
M  V30 3235 H 303.563 -1.27023 -1.60395 0
M  V30 3236 H 303.573 -0.789792 -4.00283 0
M  V30 3237 H 302.248 -1.90135 -3.69894 0
M  V30 3238 H 300.825 -0.0701241 -3.72834 0
M  V30 3239 N 303.011 1.40521 -0.713556 0
M  V30 3240 C 304.239 2.05237 -0.261775 0
M  V30 3241 C 304.654 1.53755 1.09567 0
M  V30 3242 O 304.011 0.693268 1.6882 0
M  V30 3243 C 304.062 3.60763 -0.230706 0
M  V30 3244 O 303.783 4.10345 -1.53455 0
M  V30 3245 C 305.284 4.42651 0.239874 0
M  V30 3246 H 302.504 0.660533 -0.118057 0
M  V30 3247 H 305.048 1.79967 -0.971192 0
M  V30 3248 H 303.203 3.8501 0.429661 0
M  V30 3249 H 303.617 5.04526 -1.43366 0
M  V30 3250 H 305.091 5.51599 0.210468 0
M  V30 3251 H 305.568 4.20082 1.28171 0
M  V30 3252 H 306.174 4.23507 -0.390142 0
M  V30 3253 N 304.489 0.459591 1.5075 0
M  V30 3254 C 305.735 -0.0994966 2.02556 0
M  V30 3255 C 306.068 -1.40399 1.3417 0
M  V30 3256 O 305.343 -1.88892 0.463683 0
M  V30 3257 C 305.626 -0.295242 3.58888 0
M  V30 3258 C 305.479 1.02947 4.37861 0
M  V30 3259 C 306.798 -1.05502 4.27267 0
M  V30 3260 H 303.917 -0.034686 0.736183 0
M  V30 3261 H 306.559 0.602938 1.8018 0
M  V30 3262 H 304.709 -0.893563 3.78084 0
M  V30 3263 H 306.381 1.66348 4.30263 0
M  V30 3264 H 304.624 1.62885 4.02058 0
M  V30 3265 H 305.295 0.846281 5.45474 0
M  V30 3266 H 307.771 -0.547993 4.12476 0
M  V30 3267 H 306.647 -1.16077 5.36486 0
M  V30 3268 H 306.908 -2.08875 3.89645 0
M  V30 3269 N 305.967 -1.56429 0.191757 0
M  V30 3270 C 307.378 -1.83912 -0.321428 0
M  V30 3271 C 307.729 -1.11231 -1.61623 0
M  V30 3272 O 306.854 -0.37202 -2.13178 0
M  V30 3273 C 307.449 -3.33624 -0.589961 0
M  V30 3274 C 306.008 -3.6153 -1.04753 0
M  V30 3275 C 305.155 -2.7714 -0.0943327 0
M  V30 3276 H 308.106 -1.53161 0.415612 0
M  V30 3277 H 308.127 -3.52213 -1.43966 0
M  V30 3278 H 307.639 -3.86495 0.352588 0
M  V30 3279 H 305.74 -3.14089 -2.00447 0
M  V30 3280 H 305.853 -4.69737 -0.942549 0
M  V30 3281 H 304.217 -2.47638 -0.595589 0
M  V30 3282 H 305 -3.32799 0.842601 0
M  V30 3283 N 307.445 0.0818655 -1.57387 0
M  V30 3284 C 308.355 1.11642 -2.06333 0
M  V30 3285 C 309.371 1.43033 -0.99083 0
M  V30 3286 O 310.547 1.53411 -1.30488 0
M  V30 3287 C 307.612 2.41342 -2.48907 0
M  V30 3288 C 306.673 2.17014 -3.7041 0
M  V30 3289 C 305.906 3.4053 -4.10944 0
M  V30 3290 O 306.129 4.4927 -3.51444 0
M  V30 3291 O 305.063 3.29336 -5.03807 0
M  V30 3292 H 308.889 0.730657 -2.9478 0
M  V30 3293 H 306.474 0.295301 -1.46452 0
M  V30 3294 H 308.356 3.17691 -2.76858 0
M  V30 3295 H 307.031 2.79319 -1.63593 0
M  V30 3296 H 305.938 1.38403 -3.47556 0
M  V30 3297 H 307.271 1.83923 -4.56545 0
M  V30 3298 N 308.923 1.53595 0.353017 0
M  V30 3299 C 310.169 1.70638 1.09593 0
M  V30 3300 C 310.502 0.463286 1.88593 0
M  V30 3301 O 309.777 -0.539597 1.86865 0
M  V30 3302 C 310.06 2.96406 2.04489 0
M  V30 3303 C 309.913 4.30901 1.29014 0
M  V30 3304 C 311.232 3.17812 3.0444 0
M  V30 3305 H 308.351 0.620913 0.397034 0
M  V30 3306 H 310.993 1.86254 0.375446 0
M  V30 3307 H 309.143 2.83223 2.65927 0
M  V30 3308 H 310.815 4.55917 0.702638 0
M  V30 3309 H 309.058 4.29741 0.592071 0
M  V30 3310 H 309.729 5.1506 1.98537 0
M  V30 3311 H 312.205 3.30263 2.53112 0
M  V30 3312 H 311.081 4.07223 3.6805 0
M  V30 3313 H 311.342 2.33669 3.75301 0
M  V30 3314 N 310.401 -0.613514 1.45168 0
M  V30 3315 C 311.65 -1.36874 1.4815 0
M  V30 3316 C 311.963 -1.952 0.124982 0
M  V30 3317 O 313.169 -2.71481 0.0324176 0
M  V30 3318 C 311.625 -2.47905 2.60904 0
M  V30 3319 C 311.233 -1.96016 4.02842 0
M  V30 3320 C 312.977 -3.24965 2.73126 0
M  V30 3321 C 310.884 -3.04494 5.06988 0
M  V30 3322 H 309.814 -0.514428 0.551253 0
M  V30 3323 H 312.465 -0.658182 1.7129 0
M  V30 3324 H 310.847 -3.21618 2.31037 0
M  V30 3325 H 312.021 -1.29051 4.4236 0
M  V30 3326 H 310.336 -1.31719 3.95018 0
M  V30 3327 H 312.933 -4.05865 3.48106 0
M  V30 3328 H 313.276 -3.75588 1.79553 0
M  V30 3329 H 313.809 -2.5835 3.0249 0
M  V30 3330 H 310.548 -2.58795 6.0225 0
M  V30 3331 H 310.068 -3.70044 4.72046 0
M  V30 3332 H 311.747 -3.68976 5.31475 0
M  V30 3333 N 311.879 -1.3236 -0.855495 0
M  V30 3334 C 312.842 -1.21164 -1.94556 0
M  V30 3335 C 313.842 -0.134908 -1.60233 0
M  V30 3336 O 315.032 -0.385249 -1.69887 0
M  V30 3337 C 312.164 -0.863192 -3.29791 0
M  V30 3338 H 313.357 -2.18038 -2.05911 0
M  V30 3339 H 310.91 -1.16179 -1.04557 0
M  V30 3340 H 311.645 0.103769 -3.24134 0
M  V30 3341 H 311.43 -1.64166 -3.56078 0
M  V30 3342 H 312.92 -0.809156 -4.09686 0
M  V30 3343 N 313.357 1.07166 -1.15556 0
M  V30 3344 C 314.32 2.12589 -0.856644 0
M  V30 3345 C 315.32 1.6015 0.14444 0
M  V30 3346 O 316.51 1.7399 -0.0854163 0
M  V30 3347 C 313.642 3.39753 -0.279405 0
M  V30 3348 H 314.835 2.40539 -1.79112 0
M  V30 3349 H 312.388 1.23086 -0.963298 0
M  V30 3350 H 313.123 3.17447 0.663174 0
M  V30 3351 H 312.908 3.79117 -1.00063 0
M  V30 3352 H 314.398 4.17507 -0.0879113 0
M  V30 3353 N 314.835 0.952656 1.25548 0
M  V30 3354 C 315.782 0.47008 2.25962 0
M  V30 3355 C 316.752 -0.476384 1.59122 0
M  V30 3356 O 317.937 -0.39007 1.8677 0
M  V30 3357 C 315.077 -0.247881 3.44209 0
M  V30 3358 C 314.19 0.735591 4.25691 0
M  V30 3359 C 313.325 -0.0047306 5.312 0
M  V30 3360 C 312.364 0.969805 6.04368 0
M  V30 3361 N 311.501 0.260486 7.01617 0
M  V30 3362 H 316.341 1.33126 2.66611 0
M  V30 3363 H 313.878 0.66765 1.31076 0
M  V30 3364 H 315.836 -0.680695 4.1161 0
M  V30 3365 H 314.466 -1.07312 3.0444 0
M  V30 3366 H 313.518 1.28689 3.57971 0
M  V30 3367 H 314.83 1.47934 4.76358 0
M  V30 3368 H 313.984 -0.496275 6.04667 0
M  V30 3369 H 312.723 -0.781282 4.81401 0
M  V30 3370 H 311.728 1.47237 5.29718 0
M  V30 3371 H 312.953 1.74655 6.56256 0
M  V30 3372 H 310.899 -0.497364 6.54112 0
M  V30 3373 H 310.816 0.943362 7.50091 0
M  V30 3374 H 312.084 -0.209587 7.79218 0
M  V30 3375 N 316.313 -1.40141 0.720998 0
M  V30 3376 C 317.263 -2.27949 0.0482544 0
M  V30 3377 C 318.247 -1.43538 -0.727021 0
M  V30 3378 O 319.439 -1.6658 -0.598332 0
M  V30 3379 C 316.568 -3.32126 -0.868729 0
M  V30 3380 C 315.654 -4.24008 -0.0883515 0
M  V30 3381 N 316.045 -4.97154 0.931226 0
M  V30 3382 C 314.343 -4.4485 -0.320105 0
M  V30 3383 C 315.044 -5.64587 1.4006 0
M  V30 3384 N 314.02 -5.38787 0.721752 0
M  V30 3385 H 317.822 -2.81948 0.829609 0
M  V30 3386 H 315.336 -1.52656 0.554067 0
M  V30 3387 H 317.333 -3.93884 -1.36605 0
M  V30 3388 H 315.993 -2.79687 -1.6494 0
M  V30 3389 H 317.004 -5.01 1.31222 0
M  V30 3390 H 313.681 -4.03378 -1.07668 0
M  V30 3391 H 315.071 -6.33175 2.24808 0
M  V30 3392 N 317.792 -0.46758 -1.50504 0
M  V30 3393 C 319.032 0.0874114 -2.04213 0
M  V30 3394 C 319.396 1.37301 -1.34211 0
M  V30 3395 O 320.597 2.01015 -1.78456 0
M  V30 3396 C 318.868 0.270571 -3.56374 0
M  V30 3397 S 320.427 0.784623 -4.31728 0
M  V30 3398 H 317.245 0.0176153 -0.710782 0
M  V30 3399 H 319.847 -0.633915 -1.84937 0
M  V30 3400 H 318.551 -0.670942 -4.04878 0
M  V30 3401 H 318.082 1.01811 -3.79997 0
M  V30 3402 H 320.097 2.05849 -4.51487 0
M  V30 3403 N 319.27 1.56325 -0.20005 0
M  V30 3404 C 320.518 1.97329 0.436547 0
M  V30 3405 C 320.839 1.08826 1.61808 0
M  V30 3406 O 320.109 0.160604 1.95241 0
M  V30 3407 H 318.689 0.728714 0.164272 0
M  V30 3408 H 321.351 1.92761 -0.287937 0
M  V30 3409 H 320.447 3.02264 0.777353 0
M  V30 3410 N 320.748 -0.0735177 1.57428 0
M  V30 3411 C 321.678 -1.0879 2.06608 0
M  V30 3412 C 322.659 -1.40473 0.959237 0
M  V30 3413 O 323.844 -1.5013 1.23185 0
M  V30 3414 C 320.974 -2.40183 2.50857 0
M  V30 3415 C 319.928 -2.22858 3.65402 0
M  V30 3416 C 319.254 -3.59619 3.957 0
M  V30 3417 C 320.554 -1.65123 4.95511 0
M  V30 3418 H 322.248 -0.678673 2.91607 0
M  V30 3419 H 319.794 -0.325013 1.40284 0
M  V30 3420 H 321.747 -3.11437 2.83874 0
M  V30 3421 H 320.471 -2.83083 1.62885 0
M  V30 3422 H 319.13 -1.54045 3.32664 0
M  V30 3423 H 318.778 -4.00086 3.04861 0
M  V30 3424 H 318.478 -3.48866 4.72828 0
M  V30 3425 H 320.002 -4.32306 4.31212 0
M  V30 3426 H 321.416 -2.26241 5.26771 0
M  V30 3427 H 319.813 -1.65071 5.7695 0
M  V30 3428 H 320.883 -0.612559 4.81015 0
M  V30 3429 N 322.226 -1.5378 -0.344866 0
M  V30 3430 C 323.173 -1.81676 -1.42346 0
M  V30 3431 C 324.143 -0.662376 -1.52321 0
M  V30 3432 O 325.328 -0.906675 -1.67881 0
M  V30 3433 C 322.468 -2.03087 -2.79015 0
M  V30 3434 C 321.581 -3.30799 -2.77842 0
M  V30 3435 C 320.716 -3.42285 -4.0622 0
M  V30 3436 C 319.755 -4.6395 -3.9927 0
M  V30 3437 N 318.892 -4.72477 -5.19336 0
M  V30 3438 H 323.732 -2.73703 -1.17858 0
M  V30 3439 H 321.269 -1.35568 -0.570949 0
M  V30 3440 H 323.227 -2.1349 -3.58438 0
M  V30 3441 H 321.857 -1.14375 -3.01858 0
M  V30 3442 H 320.909 -3.29244 -1.90533 0
M  V30 3443 H 322.221 -4.20314 -2.68584 0
M  V30 3444 H 321.375 -3.52113 -4.94066 0
M  V30 3445 H 320.114 -2.50823 -4.18258 0
M  V30 3446 H 319.119 -4.54201 -3.09809 0
M  V30 3447 H 320.344 -5.56775 -3.88817 0
M  V30 3448 H 318.29 -3.83924 -5.3192 0
M  V30 3449 H 318.207 -5.55927 -5.12329 0
M  V30 3450 H 319.475 -4.86613 -6.08957 0
M  V30 3451 N 323.704 0.605807 -1.45491 0
M  V30 3452 C 324.95 1.36679 -1.49823 0
M  V30 3453 C 325.283 1.93693 -0.140175 0
M  V30 3454 O 324.558 1.75158 0.845581 0
M  V30 3455 C 324.841 2.51337 -2.57879 0
M  V30 3456 C 324.694 1.99508 -4.03134 0
M  V30 3457 C 326.013 3.53463 -2.62205 0
M  V30 3458 H 323.132 0.495617 -0.545466 0
M  V30 3459 H 325.774 0.682732 -1.7731 0
M  V30 3460 H 323.924 3.09691 -2.34571 0
M  V30 3461 H 325.596 1.45789 -4.37656 0
M  V30 3462 H 323.839 1.30496 -4.13707 0
M  V30 3463 H 324.51 2.82169 -4.74431 0
M  V30 3464 H 326.986 3.04953 -2.83095 0
M  V30 3465 H 325.862 4.31178 -3.39672 0
M  V30 3466 H 326.123 4.09197 -1.67363 0
M  V30 3467 N 325.182 1.32811 0.848464 0
M  V30 3468 C 326.428 1.23907 1.60546 0
M  V30 3469 C 326.761 -0.197161 1.93197 0
M  V30 3470 O 326.036 -1.13596 1.5788 0
M  V30 3471 C 326.319 2.10489 2.92175 0
M  V30 3472 C 326.172 3.62522 2.66266 0
M  V30 3473 C 327.491 1.97075 3.93509 0
M  V30 3474 H 324.61 0.451459 0.58254 0
M  V30 3475 H 327.252 1.62818 0.979296 0
M  V30 3476 H 325.402 1.77434 3.45614 0
M  V30 3477 H 327.074 4.05821 2.19334 0
M  V30 3478 H 325.317 3.84879 2.00126 0
M  V30 3479 H 325.988 4.18437 3.6002 0
M  V30 3480 H 328.464 2.26045 3.49346 0
M  V30 3481 H 327.34 2.59923 4.83457 0
M  V30 3482 H 327.601 0.940186 4.31987 0
M  V30 3483 N 326.66 -1.06551 1.16123 0
M  V30 3484 C 327.906 -1.79567 0.94252 0
M  V30 3485 C 328.239 -1.86869 -0.528547 0
M  V30 3486 O 327.514 -1.35838 -1.39206 0
M  V30 3487 C 327.797 -3.24195 1.56747 0
M  V30 3488 C 327.65 -3.24989 3.10969 0
M  V30 3489 C 328.969 -4.21678 1.25998 0
M  V30 3490 H 326.088 -0.651883 0.343828 0
M  V30 3491 H 328.73 -1.2463 1.43413 0
M  V30 3492 H 326.88 -3.71107 1.14942 0
M  V30 3493 H 328.552 -2.86258 3.61737 0
M  V30 3494 H 326.795 -2.63716 3.44436 0
M  V30 3495 H 327.466 -4.27005 3.49815 0
M  V30 3496 H 329.942 -3.83196 1.62174 0
M  V30 3497 H 328.818 -5.21146 1.7233 0
M  V30 3498 H 329.079 -4.4174 0.178367 0
M  V30 3499 N 328.138 -0.959301 -1.25041 0
M  V30 3500 C 329.385 -0.616611 -1.92884 0
M  V30 3501 C 329.713 0.847036 -1.75087 0
M  V30 3502 O 328.968 1.62374 -1.09239 0
M  V30 3503 C 329.267 -0.927136 -3.45165 0
M  V30 3504 C 328.933 -2.37757 -3.83122 0
M  V30 3505 C 327.595 -2.77402 -3.93194 0
M  V30 3506 C 329.947 -3.31929 -4.01836 0
M  V30 3507 C 327.275 -4.10277 -4.19392 0
M  V30 3508 C 329.627 -4.64423 -4.29528 0
M  V30 3509 C 328.291 -5.03857 -4.37818 0
M  V30 3510 H 327.561 -0.225634 -0.705812 0
M  V30 3511 H 330.208 -1.20921 -1.48493 0
M  V30 3512 H 328.513 -0.252195 -3.90987 0
M  V30 3513 H 330.21 -0.6405 -3.95852 0
M  V30 3514 H 326.8 -2.06013 -3.75841 0
M  V30 3515 H 330.984 -3.02488 -3.93465 0
M  V30 3516 H 326.24 -4.40467 -4.24027 0
M  V30 3517 H 330.414 -5.37369 -4.42953 0
M  V30 3518 H 328.041 -6.06843 -4.57871 0
M  V30 3519 N 329.616 1.39756 -0.72842 0
M  V30 3520 C 330.841 2.05472 -0.282159 0
M  V30 3521 C 331.266 1.54549 1.07221 0
M  V30 3522 O 330.624 0.686372 1.67805 0
M  V30 3523 C 330.672 3.59462 -0.286264 0
M  V30 3524 O 329.776 4.05918 0.728298 0
M  V30 3525 H 329.117 0.651226 -0.129618 0
M  V30 3526 H 331.647 1.78915 -0.992499 0
M  V30 3527 H 331.657 4.07798 -0.128373 0
M  V30 3528 H 330.332 3.95889 -1.27456 0
M  V30 3529 H 328.909 3.69012 0.537081 0
M  V30 3530 N 331.094 0.475555 1.50254 0
M  V30 3531 C 332.334 -0.0765802 2.04256 0
M  V30 3532 C 332.698 -1.36587 1.34937 0
M  V30 3533 O 333.899 -2.00066 1.79519 0
M  V30 3534 C 332.17 -0.251668 3.56513 0
M  V30 3535 S 333.729 -0.761716 4.32138 0
M  V30 3536 H 330.547 -0.0138456 0.710865 0
M  V30 3537 H 333.149 0.643714 1.84598 0
M  V30 3538 H 331.853 0.692404 4.04517 0
M  V30 3539 H 331.384 -0.997946 3.80532 0
M  V30 3540 H 333.399 -2.03451 4.52573 0
M  V30 3541 N 332.573 -1.56217 0.208337 0
M  V30 3542 C 333.819 -1.98242 -0.427552 0
M  V30 3543 C 334.152 -1.09554 -1.60348 0
M  V30 3544 O 333.427 -0.15035 -1.93918 0
M  V30 3545 C 333.71 -3.4931 -0.874907 0
M  V30 3546 C 333.563 -4.48773 0.303751 0
M  V30 3547 C 334.882 -4.04424 -1.73577 0
M  V30 3548 H 332.001 -0.720744 -0.153936 0
M  V30 3549 H 334.643 -1.87586 0.30192 0
M  V30 3550 H 332.793 -3.58522 -1.49648 0
M  V30 3551 H 334.465 -4.51586 0.941682 0
M  V30 3552 H 332.708 -4.23194 0.953375 0
M  V30 3553 H 333.379 -5.51976 -0.0519883 0
M  V30 3554 H 335.855 -3.98075 -1.21143 0
M  V30 3555 H 334.731 -5.1047 -2.01771 0
M  V30 3556 H 334.992 -3.50494 -2.69456 0
M  V30 3557 N 334.051 0.0651679 -1.57465 0
M  V30 3558 C 335.279 0.775808 -1.91804 0
M  V30 3559 C 335.694 1.70782 -0.804916 0
M  V30 3560 O 335.051 1.81153 0.221311 0
M  V30 3561 C 335.102 1.56381 -3.25925 0
M  V30 3562 O 334.823 0.669248 -4.32958 0
M  V30 3563 C 336.324 2.37485 -3.7432 0
M  V30 3564 H 333.544 0.2202 -0.63384 0
M  V30 3565 H 336.088 0.0334587 -2.04473 0
M  V30 3566 H 334.243 2.25837 -3.14764 0
M  V30 3567 H 334.657 1.21801 -5.10162 0
M  V30 3568 H 336.131 2.88223 -4.70778 0
M  V30 3569 H 336.608 3.17307 -3.03666 0
M  V30 3570 H 337.214 1.73173 -3.88447 0
M  V30 3571 N 335.529 1.53961 0.336706 0
M  V30 3572 C 336.477 1.83136 1.43401 0
M  V30 3573 C 337.471 0.702313 1.54156 0
M  V30 3574 O 338.677 0.885765 1.56698 0
M  V30 3575 H 335.052 0.580309 0.478273 0
M  V30 3576 H 337.023 2.74925 1.16012 0
M  V30 3577 C 335.772 2.06385 2.79822 0
M  V30 3578 H 335.095 2.92718 2.72316 0
M  V30 3579 H 336.535 2.30761 3.55704 0
M  V30 3580 C 334.994 0.851414 3.25964 0
M  V30 3581 O 335.524 0.0541904 4.01663 0
M  V30 3582 N 333.73 0.66672 2.82848 0
M  V30 3583 H 333.277 1.31665 2.21409 0
M  V30 3584 H 333.235 -0.143032 3.14074 0
M  V30 3585 N 337.007 -0.598083 1.45811 0
M  V30 3586 C 337.94 -1.7223 1.49706 0
M  V30 3587 C 338.918 -1.58732 0.352535 0
M  V30 3588 O 340.102 -1.80162 0.554438 0
M  V30 3589 C 337.229 -3.10148 1.3611 0
M  V30 3590 C 336.275 -3.42209 2.54549 0
M  V30 3591 S 337.108 -3.35989 4.16979 0
M  V30 3592 C 338.264 -4.76471 4.05865 0
M  V30 3593 H 338.497 -1.68665 2.44826 0
M  V30 3594 H 336.03 -0.775541 1.33509 0
M  V30 3595 H 337.988 -3.8972 1.28953 0
M  V30 3596 H 336.649 -3.11219 0.424451 0
M  V30 3597 H 335.842 -4.42652 2.40988 0
M  V30 3598 H 335.444 -2.70173 2.58617 0
M  V30 3599 H 337.736 -5.665 3.71596 0
M  V30 3600 H 338.679 -4.95089 5.06253 0
M  V30 3601 H 339.087 -4.52599 3.37364 0
M  V30 3602 N 338.485 -1.33259 -0.841409 0
M  V30 3603 C 339.448 -1.23221 -1.9326 0
M  V30 3604 C 340.448 -0.151895 -1.60081 0
M  V30 3605 O 341.638 -0.403246 -1.69468 0
M  V30 3606 C 338.77 -0.898123 -3.28856 0
M  V30 3607 H 339.963 -2.2021 -2.03587 0
M  V30 3608 H 337.516 -1.17281 -1.03319 0
M  V30 3609 H 338.251 0.0693841 -3.24226 0
M  V30 3610 H 338.036 -1.67934 -3.54317 0
M  V30 3611 H 339.526 -0.852563 -4.08805 0
M  V30 3612 N 339.963 1.05934 -1.16686 0
M  V30 3613 C 340.926 2.11669 -0.879144 0
M  V30 3614 C 341.926 1.60294 0.127445 0
M  V30 3615 O 343.116 1.7389 -0.103865 0
M  V30 3616 C 340.248 3.39438 -0.315425 0
M  V30 3617 H 341.441 2.38626 -1.81653 0
M  V30 3618 H 338.994 1.22058 -0.976299 0
M  V30 3619 H 339.729 3.18132 0.629468 0
M  V30 3620 H 339.514 3.78034 -1.04079 0
M  V30 3621 H 341.004 4.17391 -0.132189 0
M  V30 3622 N 341.441 0.965919 1.2453 0
M  V30 3623 C 342.689 0.625593 1.92174 0
M  V30 3624 C 343.01 -0.841652 1.75901 0
M  V30 3625 O 342.28 -1.60061 1.12948 0
M  V30 3626 H 340.86 0.228388 0.71123 0
M  V30 3627 H 343.522 1.2266 1.51461 0
M  V30 3628 H 342.618 0.864653 2.99884 0
M  V30 3629 N 342.919 -1.39368 0.735821 0
M  V30 3630 C 344.168 -1.99733 0.281004 0
M  V30 3631 C 344.481 -1.59055 -1.13846 0
M  V30 3632 O 345.687 -2.12262 -1.69284 0
M  V30 3633 C 344.143 -3.57057 0.451462 0
M  V30 3634 C 343.751 -4.06697 1.87886 0
M  V30 3635 C 345.495 -4.2446 0.0584616 0
M  V30 3636 C 343.402 -5.56598 1.99883 0
M  V30 3637 H 342.332 -0.747163 0.101311 0
M  V30 3638 H 344.983 -1.59357 0.909819 0
M  V30 3639 H 343.365 -3.95234 -0.246263 0
M  V30 3640 H 344.539 -3.79853 2.60861 0
M  V30 3641 H 342.854 -3.5196 2.22515 0
M  V30 3642 H 345.451 -5.34549 0.127099 0
M  V30 3643 H 345.794 -4.04444 -0.986433 0
M  V30 3644 H 346.327 -3.9146 0.707374 0
M  V30 3645 H 343.066 -5.81494 3.02564 0
M  V30 3646 H 342.586 -5.85242 1.31346 0
M  V30 3647 H 344.265 -6.22022 1.78039 0
M  V30 3648 N 344.397 -0.483516 -1.5 0
M  V30 3649 C 345.625 0.0644831 -2.06799 0
M  V30 3650 C 346.04 1.32399 -1.34596 0
M  V30 3651 O 345.397 1.77626 -0.418946 0
M  V30 3652 C 345.448 0.339927 -3.59898 0
M  V30 3653 O 345.169 -0.869635 -4.29382 0
M  V30 3654 C 346.67 0.933515 -4.33359 0
M  V30 3655 H 343.89 -0.0126333 -0.670881 0
M  V30 3656 H 346.434 -0.675864 -1.93009 0
M  V30 3657 H 344.589 1.03022 -3.7345 0
M  V30 3658 H 345.003 -0.62179 -5.20801 0
M  V30 3659 H 346.477 1.07593 -5.41413 0
M  V30 3660 H 346.954 1.92685 -3.94676 0
M  V30 3661 H 347.56 0.281221 -4.24369 0
M  V30 3662 N 345.875 1.56104 -0.216619 0
M  V30 3663 C 346.825 2.16703 0.708798 0
M  V30 3664 C 347.809 1.11392 1.16106 0
M  V30 3665 O 349.001 1.37395 1.11587 0
M  V30 3666 C 346.13 2.84666 1.91886 0
M  V30 3667 C 345.216 3.97195 1.48651 0
M  V30 3668 N 345.607 4.99959 0.766434 0
M  V30 3669 C 343.905 4.09193 1.77418 0
M  V30 3670 C 344.606 5.79126 0.546659 0
M  V30 3671 N 343.582 5.32315 1.10188 0
M  V30 3672 H 347.384 2.93516 0.150162 0
M  V30 3673 H 344.898 1.6239 -0.0176768 0
M  V30 3674 H 346.895 3.26486 2.59253 0
M  V30 3675 H 345.555 2.09347 2.48202 0
M  V30 3676 H 346.566 5.16197 0.419634 0
M  V30 3677 H 343.243 3.45021 2.35088 0
M  V30 3678 H 344.633 6.71895 -0.026103 0
M  V30 3679 N 347.353 -0.0568162 1.57498 0
M  V30 3680 C 348.601 -0.751617 1.87604 0
M  V30 3681 C 348.922 -1.77351 0.81066 0
M  V30 3682 O 348.192 -1.95254 -0.159018 0
M  V30 3683 H 346.772 -0.280583 0.692302 0
M  V30 3684 H 349.434 -0.0293483 1.94878 0
M  V30 3685 H 348.53 -1.25852 2.856 0
M  V30 3686 N 348.832 -1.54138 -0.328536 0
M  V30 3687 C 350.248 -1.44736 -0.672574 0
M  V30 3688 C 350.448 -0.616217 -1.91846 0
M  V30 3689 O 349.504 -0.113067 -2.52247 0
M  V30 3690 C 350.817 -2.884 -0.851217 0
M  V30 3691 C 352.365 -2.98271 -0.948877 0
M  V30 3692 C 352.84 -4.43074 -1.15973 0
M  V30 3693 N 354.331 -4.46665 -1.22658 0
M  V30 3694 C 355.066 -5.55857 -1.40751 0
M  V30 3695 N 354.562 -6.75026 -1.5592 0
M  V30 3696 N 356.355 -5.43495 -1.4342 0
M  V30 3697 H 348.506 -2.06661 0.490421 0
M  V30 3698 H 350.769 -0.934812 0.157579 0
M  V30 3699 H 350.475 -3.51699 -0.00704236 0
M  V30 3700 H 350.349 -3.34225 -1.74853 0
M  V30 3701 H 352.736 -2.35102 -1.78356 0
M  V30 3702 H 352.817 -2.55785 -0.0281435 0
M  V30 3703 H 352.461 -5.06827 -0.329915 0
M  V30 3704 H 352.391 -4.83165 -2.09426 0
M  V30 3705 H 354.882 -3.60797 -1.124 0
M  V30 3706 H 355.195 -7.54004 -1.69404 0
M  V30 3707 H 353.54 -6.77944 -1.53027 0
M  V30 3708 H 356.731 -4.49349 -1.31162 0
M  V30 3709 H 356.904 -6.28649 -1.57178 0
M  V30 3710 N 350.31 0.590341 -1.46126 0
M  V30 3711 C 351.24 1.71032 -1.58966 0
M  V30 3712 C 352.221 1.64302 -0.440335 0
M  V30 3713 O 353.406 1.82436 -0.665634 0
M  V30 3714 C 350.536 3.09665 -1.57241 0
M  V30 3715 C 349.49 3.31221 -2.71066 0
M  V30 3716 C 348.816 4.70303 -2.54399 0
M  V30 3717 C 350.116 3.19796 -4.1295 0
M  V30 3718 H 351.81 1.60543 -2.52718 0
M  V30 3719 H 349.356 0.770933 -1.21625 0
M  V30 3720 H 351.309 3.87831 -1.64819 0
M  V30 3721 H 350.033 3.21036 -0.600289 0
M  V30 3722 H 348.692 2.55452 -2.62944 0
M  V30 3723 H 348.34 4.78429 -1.55288 0
M  V30 3724 H 348.04 4.85679 -3.30741 0
M  V30 3725 H 349.564 5.50647 -2.63857 0
M  V30 3726 H 350.978 3.87815 -4.22223 0
M  V30 3727 H 349.375 3.46696 -4.89818 0
M  V30 3728 H 350.445 2.16983 -4.33643 0
M  V30 3729 N 351.788 1.33704 0.83433 0
M  V30 3730 C 353.013 1.28615 1.62705 0
M  V30 3731 C 353.438 -0.139242 1.87584 0
M  V30 3732 O 352.796 -1.09734 1.4432 0
M  V30 3733 C 352.844 2.07139 2.95171 0
M  V30 3734 O 351.948 1.4331 3.86699 0
M  V30 3735 H 351.289 0.44226 0.49528 0
M  V30 3736 H 353.819 1.76335 1.03766 0
M  V30 3737 H 353.829 2.18073 3.44831 0
M  V30 3738 H 352.504 3.10779 2.76386 0
M  V30 3739 H 351.081 1.4105 3.45195 0
M  V30 3740 N 353.266 -1.05314 1.17247 0
M  V30 3741 C 354.216 -2.11313 0.856196 0
M  V30 3742 C 355.2 -1.60013 -0.168694 0
M  V30 3743 O 356.392 -1.76968 0.0335624 0
M  V30 3744 C 353.521 -3.41301 0.369917 0
M  V30 3745 C 352.607 -3.99401 1.42616 0
M  V30 3746 N 352.998 -4.31481 2.63928 0
M  V30 3747 C 351.296 -4.27126 1.28373 0
M  V30 3748 C 351.997 -4.77799 3.31787 0
M  V30 3749 N 350.973 -4.77843 2.59166 0
M  V30 3750 H 354.775 -2.33976 1.77856 0
M  V30 3751 H 352.289 -1.2295 1.06099 0
M  V30 3752 H 354.286 -4.16713 0.124897 0
M  V30 3753 H 352.946 -3.20072 -0.546253 0
M  V30 3754 H 353.957 -4.21519 3.00902 0
M  V30 3755 H 350.634 -4.15289 0.429111 0
M  V30 3756 H 352.024 -5.11743 4.35395 0
M  V30 3757 N 354.744 -0.972509 -1.24016 0
M  V30 3758 C 355.654 -0.5143 -2.28893 0
M  V30 3759 C 356.67 0.427078 -1.68677 0
M  V30 3760 O 357.846 0.298939 -1.99169 0
M  V30 3761 C 354.911 0.183598 -3.46214 0
M  V30 3762 C 353.972 -0.798202 -4.21814 0
M  V30 3763 C 353.205 -0.133514 -5.33533 0
M  V30 3764 O 353.428 1.07714 -5.60137 0
M  V30 3765 O 352.362 -0.828103 -5.96176 0
M  V30 3766 H 356.188 -1.38629 -2.70214 0
M  V30 3767 H 353.773 -0.739769 -1.29799 0
M  V30 3768 H 355.655 0.575433 -4.17453 0
M  V30 3769 H 354.33 1.03048 -3.0686 0
M  V30 3770 H 353.237 -1.24059 -3.52931 0
M  V30 3771 H 354.57 -1.61364 -4.64997 0
M  V30 3772 N 356.222 1.38976 -0.743202 0
M  V30 3773 C 357.132 2.3434 -0.110399 0
M  V30 3774 C 358.148 1.58741 0.712559 0
M  V30 3775 O 359.324 1.9099 0.639125 0
M  V30 3776 C 356.389 3.37812 0.780012 0
M  V30 3777 C 355.45 4.29263 -0.0561319 0
M  V30 3778 C 354.683 5.27793 0.791875 0
M  V30 3779 O 354.906 5.33043 2.03031 0
M  V30 3780 O 353.84 6.01512 0.216183 0
M  V30 3781 H 357.666 2.90129 -0.897714 0
M  V30 3782 H 355.251 1.40643 -0.503966 0
M  V30 3783 H 357.133 4.01194 1.28923 0
M  V30 3784 H 355.808 2.84395 1.546 0
M  V30 3785 H 354.715 3.69076 -0.611056 0
M  V30 3786 H 356.048 4.85907 -0.784531 0
M  V30 3787 N 357.7 0.491464 1.49741 0
M  V30 3788 C 358.946 -0.0565092 2.02721 0
M  V30 3789 C 359.279 -1.37522 1.37118 0
M  V30 3790 O 358.554 -1.87866 0.503645 0
M  V30 3791 C 358.837 -0.219051 3.59433 0
M  V30 3792 C 358.69 1.12211 4.35579 0
M  V30 3793 C 360.009 -0.964157 4.29409 0
M  V30 3794 H 357.128 -0.0190627 0.736753 0
M  V30 3795 H 359.77 0.641021 1.7886 0
M  V30 3796 H 357.92 -0.813165 3.79895 0
M  V30 3797 H 359.592 1.75437 4.26637 0
M  V30 3798 H 357.835 1.71377 3.98513 0
M  V30 3799 H 358.506 0.961794 5.43556 0
M  V30 3800 H 360.982 -0.460378 4.13545 0
M  V30 3801 H 359.858 -1.04671 5.38828 0
M  V30 3802 H 360.119 -2.00563 3.93988 0
M  V30 3803 N 359.178 -1.55987 0.224894 0
M  V30 3804 C 360.424 -1.98684 -0.406502 0
M  V30 3805 C 360.757 -1.11248 -1.59177 0
M  V30 3806 O 360.032 -0.170909 -1.93748 0
M  V30 3807 C 360.315 -3.50218 -0.837808 0
M  V30 3808 C 360.168 -4.48426 0.351332 0
M  V30 3809 C 361.487 -4.06243 -1.69278 0
M  V30 3810 H 358.606 -0.722337 -0.146283 0
M  V30 3811 H 361.248 -1.87255 0.321799 0
M  V30 3812 H 359.398 -3.60089 -1.45837 0
M  V30 3813 H 361.07 -4.50562 0.989526 0
M  V30 3814 H 359.313 -4.22159 0.998207 0
M  V30 3815 H 359.984 -5.52 0.00655905 0
M  V30 3816 H 362.46 -3.99337 -1.16914 0
M  V30 3817 H 361.336 -5.12581 -1.96346 0
M  V30 3818 H 361.597 -3.53332 -2.65723 0
M  V30 3819 N 360.656 0.0484629 -1.57525 0
M  V30 3820 C 362.072 0.40375 -1.54409 0
M  V30 3821 C 362.272 1.77786 -0.948384 0
M  V30 3822 O 361.328 2.46189 -0.560983 0
M  V30 3823 C 362.641 0.323394 -2.98956 0
M  V30 3824 C 364.189 0.401892 -3.10409 0
M  V30 3825 C 364.664 0.351195 -4.56652 0
M  V30 3826 N 366.155 0.410576 -4.61377 0
M  V30 3827 C 366.89 0.393933 -5.72045 0
M  V30 3828 N 366.386 0.330724 -6.9201 0
M  V30 3829 N 368.179 0.442227 -5.60358 0
M  V30 3830 H 360.33 -0.851016 -1.94606 0
M  V30 3831 H 362.593 -0.321721 -0.89174 0
M  V30 3832 H 362.299 -0.62011 -3.4619 0
M  V30 3833 H 362.173 1.12463 -3.60044 0
M  V30 3834 H 364.56 1.33582 -2.63134 0
M  V30 3835 H 364.641 -0.428342 -2.52188 0
M  V30 3836 H 364.285 -0.578987 -5.04589 0
M  V30 3837 H 364.215 1.19928 -5.12762 0
M  V30 3838 H 366.706 0.462729 -3.75056 0
M  V30 3839 H 367.019 0.322592 -7.72126 0
M  V30 3840 H 365.364 0.29706 -6.94365 0
M  V30 3841 H 368.555 0.489464 -4.65534 0
M  V30 3842 H 368.728 0.425788 -6.466 0
M  V30 3843 N 362.134 1.5431 0.320358 0
M  V30 3844 C 363.362 1.76636 1.07738 0
M  V30 3845 C 363.777 0.51649 1.81598 0
M  V30 3846 O 363.134 -0.512942 1.75143 0
M  V30 3847 C 363.185 2.96158 2.07299 0
M  V30 3848 O 362.906 4.16313 1.36438 0
M  V30 3849 C 364.407 3.3072 2.95193 0
M  V30 3850 H 361.627 0.589597 0.320339 0
M  V30 3851 H 364.171 2.01207 0.36551 0
M  V30 3852 H 362.326 2.73851 2.74016 0
M  V30 3853 H 362.74 4.83565 2.03138 0
M  V30 3854 H 364.214 4.17643 3.60941 0
M  V30 3855 H 364.691 2.48026 3.62463 0
M  V30 3856 H 365.297 3.55117 2.34034 0
M  V30 3857 N 363.613 -0.582584 1.46437 0
M  V30 3858 C 364.841 -1.36682 1.55324 0
M  V30 3859 C 365.256 -1.87796 0.194409 0
M  V30 3860 O 364.613 -1.63623 -0.808318 0
M  V30 3861 C 364.664 -2.55426 2.55812 0
M  V30 3862 O 364.385 -2.0643 3.86417 0
M  V30 3863 C 365.886 -3.47976 2.74641 0
M  V30 3864 H 363.106 -0.417545 0.525259 0
M  V30 3865 H 365.65 -0.708219 1.91845 0
M  V30 3866 H 363.805 -3.17275 2.22295 0
M  V30 3867 H 364.219 -2.83762 4.41111 0
M  V30 3868 H 365.693 -4.27775 3.48874 0
M  V30 3869 H 366.17 -3.99919 1.81553 0
M  V30 3870 H 366.776 -2.91962 3.09255 0
M  V30 3871 N 365.091 -1.34144 -0.827227 0
M  V30 3872 C 366.038 -1.25364 -1.93785 0
M  V30 3873 C 367.008 -0.129774 -1.65592 0
M  V30 3874 O 368.193 -0.310024 -1.88264 0
M  V30 3875 C 365.333 -1.01064 -3.2997 0
M  V30 3876 C 364.446 -2.22185 -3.70484 0
M  V30 3877 C 363.581 -1.91203 -4.95595 0
M  V30 3878 C 362.62 -3.08491 -5.28677 0
M  V30 3879 N 361.757 -2.77421 -6.44967 0
M  V30 3880 H 366.597 -2.20347 -2.00627 0
M  V30 3881 H 364.134 -1.09558 -0.981608 0
M  V30 3882 H 366.092 -0.850139 -4.08446 0
M  V30 3883 H 364.722 -0.0975026 -3.22653 0
M  V30 3884 H 363.774 -2.4917 -2.87434 0
M  V30 3885 H 365.086 -3.0983 -3.90905 0
M  V30 3886 H 364.24 -1.71864 -5.81848 0
M  V30 3887 H 362.979 -1.00812 -4.77167 0
M  V30 3888 H 361.984 -3.28431 -4.40923 0
M  V30 3889 H 363.209 -3.99655 -5.49047 0
M  V30 3890 H 361.155 -1.89601 -6.28003 0
M  V30 3891 H 361.072 -3.58598 -6.6554 0
M  V30 3892 H 362.34 -2.61577 -7.34301 0
M  V30 3893 N 366.569 1.04691 -1.17803 0
M  V30 3894 C 367.502 2.12068 -0.842765 0
M  V30 3895 C 368.48 1.61455 0.192608 0
M  V30 3896 O 369.664 1.88359 0.072995 0
M  V30 3897 C 366.791 3.37715 -0.258063 0
M  V30 3898 C 365.837 4.07164 -1.26962 0
M  V30 3899 S 366.67 4.55047 -2.82299 0
M  V30 3900 C 367.826 5.83935 -2.25323 0
M  V30 3901 H 368.059 2.4018 -1.75217 0
M  V30 3902 H 365.592 1.17366 -1.00323 0
M  V30 3903 H 367.55 4.10435 0.0727935 0
M  V30 3904 H 366.211 3.0773 0.629357 0
M  V30 3905 H 365.404 4.9746 -0.809263 0
M  V30 3906 H 365.006 3.40533 -1.54639 0
M  V30 3907 H 367.298 6.57552 -1.63192 0
M  V30 3908 H 368.241 6.34725 -3.13894 0
M  V30 3909 H 368.649 5.3874 -1.68582 0
M  V30 3910 N 368.047 0.979072 1.23499 0
M  V30 3911 C 369.01 0.523244 2.23147 0
M  V30 3912 C 370.01 -0.386406 1.56088 0
M  V30 3913 O 371.2 -0.180283 1.73265 0
M  V30 3914 C 368.332 -0.240739 3.40049 0
M  V30 3915 H 369.525 1.40432 2.64989 0
M  V30 3916 H 367.078 0.764824 1.36309 0
M  V30 3917 H 367.813 -1.13841 3.03662 0
M  V30 3918 H 367.598 0.412207 3.89927 0
M  V30 3919 H 369.088 -0.548297 4.13985 0
M  V30 3920 N 369.525 -1.3858 0.750561 0
M  V30 3921 C 370.457 -2.29057 0.0810714 0
M  V30 3922 C 371.47 -1.47596 -0.686973 0
M  V30 3923 O 372.659 -1.70495 -0.528563 0
M  V30 3924 C 369.759 -3.26475 -0.909247 0
M  V30 3925 C 368.932 -4.36945 -0.199478 0
M  V30 3926 C 367.991 -5.14572 -1.10011 0
M  V30 3927 O 367.017 -5.66321 -0.57177 0
M  V30 3928 N 368.219 -5.27262 -2.42849 0
M  V30 3929 H 370.984 -2.87153 0.858087 0
M  V30 3930 H 368.545 -1.50328 0.60109 0
M  V30 3931 H 370.537 -3.75285 -1.51471 0
M  V30 3932 H 369.107 -2.69298 -1.58736 0
M  V30 3933 H 368.327 -3.8981 0.586664 0
M  V30 3934 H 369.615 -5.07963 0.291783 0
M  V30 3935 H 369.013 -4.86763 -2.88233 0
M  V30 3936 H 367.57 -5.79456 -2.98453 0
M  V30 3937 N 371.003 -0.499398 -1.49478 0
M  V30 3938 C 372.251 0.0455996 -2.02049 0
M  V30 3939 C 372.572 1.37633 -1.38138 0
M  V30 3940 O 371.842 1.8842 -0.536166 0
M  V30 3941 H 370.422 0.0198416 -0.746736 0
M  V30 3942 H 373.084 -0.656274 -1.83519 0
M  V30 3943 H 372.18 0.176445 -3.11601 0
M  V30 3944 N 372.481 1.55866 -0.233164 0
M  V30 3945 C 373.428 2.20796 0.67215 0
M  V30 3946 C 374.398 1.16731 1.18166 0
M  V30 3947 O 375.583 1.45129 1.23864 0
M  V30 3948 C 372.723 2.90072 1.86955 0
M  V30 3949 C 371.836 4.08759 1.39786 0
M  V30 3950 C 370.971 4.65787 2.55374 0
M  V30 3951 C 370.01 5.76752 2.04998 0
M  V30 3952 N 369.147 6.28021 3.13901 0
M  V30 3953 H 373.987 2.9779 0.111749 0
M  V30 3954 H 371.524 1.47036 0.0434007 0
M  V30 3955 H 373.482 3.28428 2.57276 0
M  V30 3956 H 372.112 2.15575 2.40265 0
M  V30 3957 H 371.164 3.7581 0.589173 0
M  V30 3958 H 372.476 4.88906 0.98856 0
M  V30 3959 H 371.63 5.06646 3.33758 0
M  V30 3960 H 370.369 3.84828 2.99598 0
M  V30 3961 H 369.374 5.35383 1.25079 0
M  V30 3962 H 370.599 6.59553 1.61759 0
M  V30 3963 H 368.545 5.49971 3.57586 0
M  V30 3964 H 368.462 7.03323 2.7726 0
M  V30 3965 H 369.73 6.73538 3.92386 0
M  V30 3966 N 373.959 -0.0401083 1.57549 0
M  V30 3967 C 375.208 -0.732108 1.87944 0
M  V30 3968 C 375.521 -1.77107 0.830206 0
M  V30 3969 O 376.727 -2.51488 1.02302 0
M  V30 3970 C 375.183 -1.35315 3.33494 0
M  V30 3971 C 374.791 -0.351105 4.46622 0
M  V30 3972 C 376.535 -2.02566 3.73051 0
M  V30 3973 C 374.442 -0.979859 5.83226 0
M  V30 3974 H 373.372 -0.277188 0.701201 0
M  V30 3975 H 376.023 0.0138501 1.83495 0
M  V30 3976 H 374.405 -2.14844 3.32653 0
M  V30 3977 H 375.579 0.416674 4.58912 0
M  V30 3978 H 373.894 0.218708 4.15825 0
M  V30 3979 H 376.491 -2.50441 4.72423 0
M  V30 3980 H 376.834 -2.83904 3.04474 0
M  V30 3981 H 377.367 -1.29827 3.76018 0
M  V30 3982 H 374.106 -0.206135 6.55176 0
M  V30 3983 H 373.626 -1.71774 5.74677 0
M  V30 3984 H 375.305 -1.49046 6.29599 0
M  V30 3985 N 375.437 -1.54477 -0.31217 0
M  V30 3986 C 376.347 -1.87695 -1.4074 0
M  V30 3987 C 377.363 -0.769975 -1.56036 0
M  V30 3988 O 378.539 -1.06537 -1.70915 0
M  V30 3989 C 375.604 -2.10755 -2.75287 0
M  V30 3990 C 374.665 -3.34514 -2.69071 0
M  V30 3991 C 373.898 -3.56465 -3.97201 0
M  V30 3992 O 374.121 -2.81637 -4.96021 0
M  V30 3993 O 373.055 -4.49964 -3.9977 0
M  V30 3994 H 376.881 -2.80849 -1.15574 0
M  V30 3995 H 374.466 -1.40526 -0.507228 0
M  V30 3996 H 376.348 -2.27188 -3.54913 0
M  V30 3997 H 375.023 -1.20788 -3.0032 0
M  V30 3998 H 373.93 -3.23456 -1.87955 0
M  V30 3999 H 375.263 -4.24575 -2.48992 0
M  V30 4000 N 376.915 0.57481 -1.46744 0
M  V30 4001 C 377.862 1.68329 -1.57905 0
M  V30 4002 C 378.832 1.60625 -0.422927 0
M  V30 4003 O 380.017 1.79721 -0.640711 0
M  V30 4004 C 377.157 3.06665 -1.58274 0
M  V30 4005 C 376.27 3.24935 -2.84678 0
M  V30 4006 C 375.405 4.53566 -2.76499 0
M  V30 4007 C 374.444 4.65207 -3.97806 0
M  V30 4008 N 373.581 5.85172 -3.87967 0
M  V30 4009 H 378.421 1.58127 -2.52587 0
M  V30 4010 H 375.958 0.770552 -1.25303 0
M  V30 4011 H 377.916 3.86745 -1.56473 0
M  V30 4012 H 376.546 3.15745 -0.671194 0
M  V30 4013 H 375.598 2.38405 -2.96424 0
M  V30 4014 H 376.91 3.29403 -3.7456 0
M  V30 4015 H 376.064 5.41885 -2.72848 0
M  V30 4016 H 374.803 4.51548 -1.8427 0
M  V30 4017 H 373.808 3.75304 -4.0178 0
M  V30 4018 H 375.033 4.68997 -4.9114 0
M  V30 4019 H 372.979 5.84137 -2.98529 0
M  V30 4020 H 372.896 5.90943 -4.71511 0
M  V30 4021 H 374.164 6.759 -3.88303 0
M  V30 4022 N 378.394 1.34581 0.820102 0
M  V30 4023 C 379.357 1.2628 1.91275 0
M  V30 4024 C 380.357 0.177344 1.59819 0
M  V30 4025 O 381.547 0.430156 1.68806 0
M  V30 4026 C 378.679 0.950327 3.27386 0
M  V30 4027 H 379.872 2.23421 2.00057 0
M  V30 4028 H 377.425 1.1891 1.0144 0
M  V30 4029 H 378.16 -0.0177938 3.24295 0
M  V30 4030 H 377.945 1.73549 3.51601 0
M  V30 4031 H 379.435 0.917492 4.07396 0
M  V30 4032 N 379.872 -1.04064 1.18357 0
M  V30 4033 C 380.802 -2.14001 0.934113 0
M  V30 4034 C 381.783 -1.69616 -0.128186 0
M  V30 4035 O 382.968 -1.94185 0.0244093 0
M  V30 4036 C 380.098 -3.44253 0.459066 0
M  V30 4037 C 379.052 -4.02261 1.46185 0
M  V30 4038 C 378.378 -5.27992 0.844322 0
M  V30 4039 C 379.678 -4.38432 2.83856 0
M  V30 4040 H 381.372 -2.35127 1.85352 0
M  V30 4041 H 378.918 -1.12998 0.892604 0
M  V30 4042 H 380.871 -4.20522 0.271907 0
M  V30 4043 H 379.595 -3.22813 -0.495912 0
M  V30 4044 H 378.254 -3.28074 1.63595 0
M  V30 4045 H 377.902 -5.02862 -0.117845 0
M  V30 4046 H 377.602 -5.67765 1.51384 0
M  V30 4047 H 379.126 -6.06938 0.667693 0
M  V30 4048 H 380.54 -5.05688 2.70098 0
M  V30 4049 H 378.937 -4.89254 3.47491 0
M  V30 4050 H 380.007 -3.4826 3.37406 0
M  V30 4051 N 381.35 -0.985608 -1.22978 0
M  V30 4052 C 382.578 -0.675582 -1.95559 0
M  V30 4053 C 382.993 0.758413 -1.72897 0
M  V30 4054 O 382.35 1.51094 -1.02357 0
M  V30 4055 C 382.401 -0.96293 -3.48439 0
M  V30 4056 O 382.122 -2.34057 -3.70336 0
M  V30 4057 C 383.623 -0.669585 -4.38214 0
M  V30 4058 H 380.843 -0.250523 -0.622478 0
M  V30 4059 H 383.387 -1.3184 -1.56328 0
M  V30 4060 H 381.542 -0.366033 -3.85667 0
M  V30 4061 H 381.956 -2.43424 -4.64591 0
M  V30 4062 H 383.43 -0.920967 -5.44263 0
M  V30 4063 H 383.907 0.396383 -4.37408 0
M  V30 4064 H 384.513 -1.2472 -4.06602 0
M  V30 4065 N 382.828 1.3818 -0.7579 0
M  V30 4066 C 384.056 2.04301 -0.326937 0
M  V30 4067 C 384.471 1.57163 1.0462 0
M  V30 4068 O 383.828 0.746626 1.66529 0
M  V30 4069 C 383.879 3.59846 -0.345363 0
M  V30 4070 O 383.6 4.05256 -1.66432 0
M  V30 4071 C 385.101 4.4319 0.098927 0
M  V30 4072 H 382.321 0.656443 -0.139012 0
M  V30 4073 H 384.865 1.76786 -1.02796 0
M  V30 4074 H 383.02 3.86182 0.306955 0
M  V30 4075 H 383.434 4.99709 -1.59345 0
M  V30 4076 H 384.908 5.51989 0.0348745 0
M  V30 4077 H 385.385 4.23947 1.14741 0
M  V30 4078 H 385.991 4.22051 -0.52468 0
M  V30 4079 N 384.306 0.507319 1.49211 0
M  V30 4080 C 385.269 -0.256763 2.27757 0
M  V30 4081 C 386.269 -0.888287 1.34038 0
M  V30 4082 O 387.459 -0.751841 1.5714 0
M  V30 4083 C 384.591 -1.36905 3.12202 0
M  V30 4084 H 385.784 0.432557 2.96764 0
M  V30 4085 H 383.337 0.262488 1.5408 0
M  V30 4086 H 384.072 -2.09233 2.47775 0
M  V30 4087 H 383.857 -0.921599 3.81115 0
M  V30 4088 H 385.347 -1.9071 3.7151 0
M  V30 4089 N 385.784 -1.5574 0.241426 0
M  V30 4090 C 387.03 -1.99104 -0.385406 0
M  V30 4091 C 387.363 -1.1293 -1.57988 0
M  V30 4092 O 386.638 -0.191449 -1.93555 0
M  V30 4093 C 386.921 -3.51087 -0.800616 0
M  V30 4094 C 386.774 -4.48028 0.398874 0
M  V30 4095 C 388.093 -4.08015 -1.64959 0
M  V30 4096 H 385.212 -0.723848 -0.138614 0
M  V30 4097 H 387.854 -1.86903 0.341642 0
M  V30 4098 H 386.004 -3.61615 -1.4201 0
M  V30 4099 H 387.676 -4.49487 1.03726 0
M  V30 4100 H 385.919 -4.21077 1.04293 0
M  V30 4101 H 386.59 -5.51962 0.0651056 0
M  V30 4102 H 389.066 -4.00555 -1.12672 0
M  V30 4103 H 387.942 -5.14635 -1.90898 0
M  V30 4104 H 388.203 -3.56131 -2.61961 0
M  V30 4105 N 387.262 0.0317525 -1.57568 0
M  V30 4106 C 388.172 1.05021 -2.0978 0
M  V30 4107 C 389.188 1.39809 -1.03583 0
M  V30 4108 O 390.364 1.49182 -1.35302 0
M  V30 4109 C 387.429 2.33301 -2.56459 0
M  V30 4110 C 386.49 2.0512 -3.77127 0
M  V30 4111 C 385.723 3.27283 -4.2157 0
M  V30 4112 O 385.946 4.37861 -3.65559 0
M  V30 4113 O 384.88 3.13141 -5.14029 0
M  V30 4114 H 388.706 0.636505 -2.96955 0
M  V30 4115 H 386.291 0.248559 -1.47318 0
M  V30 4116 H 388.173 3.08722 -2.86825 0
M  V30 4117 H 386.848 2.73973 -1.72397 0
M  V30 4118 H 385.755 1.27276 -3.51784 0
M  V30 4119 H 387.088 1.69305 -4.62165 0
M  V30 4120 N 388.74 1.54641 0.303973 0
M  V30 4121 C 389.986 1.74038 1.04109 0
M  V30 4122 C 390.319 0.523051 1.87024 0
M  V30 4123 O 389.594 -0.479874 1.88487 0
M  V30 4124 C 389.877 3.02761 1.94955 0
M  V30 4125 C 389.73 4.34787 1.1524 0
M  V30 4126 C 391.049 3.27336 2.94175 0
M  V30 4127 H 388.168 0.63323 0.377079 0
M  V30 4128 H 390.81 1.87354 0.316001 0
M  V30 4129 H 388.96 2.9154 2.56782 0
M  V30 4130 H 390.632 4.57922 0.557236 0
M  V30 4131 H 388.875 4.31407 0.455053 0
M  V30 4132 H 389.546 5.21116 1.8205 0
M  V30 4133 H 392.022 3.38148 2.42477 0
M  V30 4134 H 390.898 4.18726 3.54908 0
M  V30 4135 H 391.159 2.45491 3.67677 0
M  V30 4136 N 390.218 -0.567019 1.47046 0
M  V30 4137 C 391.465 -1.32462 1.53167 0
M  V30 4138 C 391.793 -1.93571 0.189841 0
M  V30 4139 O 391.048 -1.77865 -0.816243 0
M  V30 4140 C 391.347 -2.4623 2.59047 0
M  V30 4141 C 391.013 -2.03014 4.02612 0
M  V30 4142 C 389.675 -1.90944 4.41694 0
M  V30 4143 C 392.027 -1.69895 4.92732 0
M  V30 4144 C 389.355 -1.44035 5.68745 0
M  V30 4145 C 391.707 -1.2446 6.20236 0
M  V30 4146 C 390.371 -1.10979 6.5821 0
M  V30 4147 H 389.641 -0.484713 0.560477 0
M  V30 4148 H 392.288 -0.636888 1.80599 0
M  V30 4149 H 390.593 -3.20517 2.25335 0
M  V30 4150 H 392.29 -3.04427 2.61008 0
M  V30 4151 H 388.88 -2.13348 3.71726 0
M  V30 4152 H 393.064 -1.78098 4.63244 0
M  V30 4153 H 388.32 -1.32254 5.96925 0
M  V30 4154 H 392.494 -0.978924 6.89485 0
M  V30 4155 H 390.121 -0.744078 7.5655 0
M  V30 4156 O 391.735 -1.44981 -0.71153 0
M  V30 4157 H 392.426 -1.37671 -1.36258 0
M  V30 END ATOM
M  V30 BEGIN BOND
M  V30 END BOND
M  V30 END CTAB
M  END
$$$$
