drugbank_target|Q16773 Kynurenine--oxoglutarate transaminase 1 (DB00114; DB02142; DB02556; DB04083; DB07950)
 OpenBabel12092119283D

  0  0  0     0  0            999 V3000
M  V30 BEGIN CTAB
M  V30 COUNTS 6698 6795 0 0 0
M  V30 BEGIN ATOM
M  V30 1 H -0.908 1.98254 -0.117106 0
M  V30 2 N 0 1.576 0 0
M  V30 3 C 0.933 2.03868 1.02534 0
M  V30 4 C 1.911 0.928543 1.3348 0
M  V30 5 O 3.095 1.19667 1.45644 0
M  V30 6 C 0.222 2.43627 2.35294 0
M  V30 7 C -0.732 3.65373 2.2001 0
M  V30 8 S 0.101 5.13292 1.52614 0
M  V30 9 C 1.257 5.56322 2.86805 0
M  V30 10 H 1.49 2.90518 0.631377 0
M  V30 11 H -0.977 1.52953 0.210867 0
M  V30 12 H 0.981 2.67203 3.11629 0
M  V30 13 H -0.358 1.57376 2.7183 0
M  V30 14 H -1.165 3.90944 3.18086 0
M  V30 15 H -1.563 3.418 1.51819 0
M  V30 16 H 0.729 5.58782 3.83104 0
M  V30 17 H 1.672 6.56266 2.65933 0
M  V30 18 H 2.08 4.83886 2.90714 0
M  V30 19 N 1.4781 -0.272755 1.55222 0
M  V30 20 C 2.4411 -1.32041 1.87344 0
M  V30 21 C 3.4411 -1.42342 0.74803 0
M  V30 22 O 4.6311 -1.41488 1.0162 0
M  V30 23 C 1.7631 -2.70173 2.07893 0
M  V30 24 H 2.9561 -1.04789 2.80997 0
M  V30 25 H 0.5091 -0.51083 1.47717 0
M  V30 26 H 1.2441 -3.02605 1.16622 0
M  V30 27 H 1.0291 -2.64082 2.89833 0
M  V30 28 H 2.5191 -3.45869 2.34017 0
M  V30 29 N 2.9562 -1.48159 -0.537278 0
M  V30 30 C 3.9032 -1.62138 -1.64256 0
M  V30 31 C 4.8732 -0.463668 -1.59497 0
M  V30 32 O 6.0582 -0.686241 -1.78032 0
M  V30 33 C 3.1982 -1.66028 -3.02537 0
M  V30 34 C 2.3112 -2.92855 -3.17585 0
M  V30 35 C 1.4462 -2.87952 -4.46382 0
M  V30 36 C 0.4852 -4.09516 -4.54932 0
M  V30 37 N -0.3778 -4.02733 -5.75109 0
M  V30 38 H 4.4622 -2.56529 -1.51647 0
M  V30 39 H 1.9992 -1.27224 -0.738414 0
M  V30 40 H 3.9572 -1.66265 -3.82638 0
M  V30 41 H 2.5872 -0.751331 -3.13934 0
M  V30 42 H 1.6392 -3.02395 -2.30784 0
M  V30 43 H 2.9512 -3.82822 -3.19764 0
M  V30 44 H 2.1052 -2.8655 -5.34765 0
M  V30 45 H 0.8442 -1.95702 -4.46712 0
M  V30 46 H -0.1508 -4.11201 -3.64957 0
M  V30 47 H 1.0742 -5.02917 -4.56346 0
M  V30 48 H -0.9798 -3.13299 -5.76351 0
M  V30 49 H -1.0628 -4.86397 -5.78752 0
M  V30 50 H 0.2052 -4.05379 -6.65799 0
M  V30 51 N 4.4343 0.785586 -1.36625 0
M  V30 52 C 5.3663 1.90711 -1.2713 0
M  V30 53 C 6.3793 1.61688 -0.189986 0
M  V30 54 O 7.5683 1.72864 -0.445014 0
M  V30 55 C 4.6683 3.25611 -0.939713 0
M  V30 56 C 3.8413 3.82385 -2.12369 0
M  V30 57 C 2.9003 4.95732 -1.76456 0
M  V30 58 O 1.9263 5.12047 -2.48589 0
M  V30 59 N 3.1283 5.76258 -0.700492 0
M  V30 60 H 5.8933 1.99376 -2.23762 0
M  V30 61 H 3.4543 0.964041 -1.30069 0
M  V30 62 H 5.4463 3.98937 -0.680554 0
M  V30 63 H 4.0163 3.12538 -0.0624074 0
M  V30 64 H 3.2363 3.01001 -2.54543 0
M  V30 65 H 4.5243 4.17047 -2.9146 0
M  V30 66 H 3.9223 5.65609 -0.101624 0
M  V30 67 H 2.4793 6.4987 -0.501165 0
M  V30 68 N 5.9124 1.20967 1.01018 0
M  V30 69 C 6.8424 0.988272 2.11555 0
M  V30 70 C 7.8234 -0.0849778 1.69888 0
M  V30 71 O 9.0084 0.0738202 1.9406 0
M  V30 72 C 6.1384 0.546528 3.42973 0
M  V30 73 C 5.0924 1.56375 3.9841 0
M  V30 74 C 4.4184 0.97842 5.25672 0
M  V30 75 C 5.7184 2.94922 4.31066 0
M  V30 76 H 7.4124 1.91276 2.30334 0
M  V30 77 H 4.9584 0.921073 1.1069 0
M  V30 78 H 6.9114 0.378839 4.19694 0
M  V30 79 H 5.6354 -0.413598 3.23971 0
M  V30 80 H 4.2944 1.71891 3.23804 0
M  V30 81 H 3.9424 0.0101688 5.02999 0
M  V30 82 H 3.6424 1.65784 5.63728 0
M  V30 83 H 5.1664 0.821939 6.05043 0
M  V30 84 H 6.5804 2.8288 4.9865 0
M  V30 85 H 4.9774 3.5983 4.80253 0
M  V30 86 H 6.0474 3.4616 3.39561 0
M  V30 87 N 7.3905 -1.2043 1.01659 0
M  V30 88 C 8.3225 -2.22626 0.544988 0
M  V30 89 C 9.3355 -1.58479 -0.372609 0
M  V30 90 O 10.5245 -1.77679 -0.170958 0
M  V30 91 C 7.6245 -3.38141 -0.22663 0
M  V30 92 C 6.7975 -4.31877 0.692876 0
M  V30 93 C 5.8565 -5.26191 -0.0311616 0
M  V30 94 O 4.8825 -5.6612 0.591343 0
M  V30 95 N 6.0845 -5.65618 -1.30601 0
M  V30 96 H 8.8495 -2.63716 1.42388 0
M  V30 97 H 6.4105 -1.34971 0.894116 0
M  V30 98 H 8.4025 -3.98239 -0.72024 0
M  V30 99 H 6.9725 -2.95943 -1.00681 0
M  V30 100 H 6.1925 -3.69746 1.36679 0
M  V30 101 H 7.4805 -4.91426 1.31824 0
M  V30 102 H 6.8785 -5.3519 -1.83269 0
M  V30 103 H 5.4355 -6.28025 -1.74435 0
M  V30 104 N 8.8686 -0.792821 -1.36206 0
M  V30 105 C 9.8316 -0.199459 -2.2833 0
M  V30 106 C 10.8316 0.605189 -1.48977 0
M  V30 107 O 12.0216 0.425685 -1.68919 0
M  V30 108 C 9.1536 0.723523 -3.33134 0
M  V30 109 H 10.3466 -1.01181 -2.82316 0
M  V30 110 H 7.8996 -0.562485 -1.45828 0
M  V30 111 H 8.6346 1.56008 -2.84309 0
M  V30 112 H 8.4196 0.148436 -3.91819 0
M  V30 113 H 9.9096 1.13344 -4.01924 0
M  V30 114 N 10.3467 1.47872 -0.545128 0
M  V30 115 C 11.7627 1.5829 -0.204032 0
M  V30 116 C 11.9627 1.54529 1.29317 0
M  V30 117 O 11.0187 1.44232 2.07252 0
M  V30 118 C 12.3317 2.89304 -0.819987 0
M  V30 119 C 13.8797 3.02864 -0.790105 0
M  V30 120 C 14.3547 4.3656 -1.38491 0
M  V30 121 N 15.8457 4.43165 -1.34755 0
M  V30 122 C 16.5807 5.45153 -1.77753 0
M  V30 123 N 16.0767 6.54016 -2.2855 0
M  V30 124 N 17.8697 5.36125 -1.68897 0
M  V30 125 H 10.0207 1.4856 -1.51802 0
M  V30 126 H 12.2837 0.706305 -0.632327 0
M  V30 127 H 11.9897 2.97757 -1.87173 0
M  V30 128 H 11.8637 3.75957 -0.305915 0
M  V30 129 H 14.2507 2.94014 0.252913 0
M  V30 130 H 14.3317 2.17782 -1.34181 0
M  V30 131 H 13.9757 4.46164 -2.42693 0
M  V30 132 H 13.9057 5.20353 -0.808754 0
M  V30 133 H 16.3967 3.65083 -0.975855 0
M  V30 134 H 16.7097 7.27994 -2.59314 0
M  V30 135 H 15.0547 6.54938 -2.32553 0
M  V30 136 H 18.2457 4.49975 -1.28998 0
M  V30 137 H 18.4187 6.15472 -2.02726 0
M  V30 138 N 11.8248 0.280983 1.55075 0
M  V30 139 C 13.2408 -0.0729964 1.59433 0
M  V30 140 C 13.4408 -1.5411 1.29817 0
M  V30 141 O 12.4968 -2.29086 1.06187 0
M  V30 142 C 13.8098 0.306921 2.9913 0
M  V30 143 C 15.3578 0.254023 3.11968 0
M  V30 144 C 15.8328 0.608467 4.5394 0
M  V30 145 N 17.3238 0.560241 4.59799 0
M  V30 146 C 18.0588 0.80722 5.6769 0
M  V30 147 N 17.5548 1.11912 6.83701 0
M  V30 148 N 19.3478 0.735623 5.57266 0
M  V30 149 H 11.4988 1.238 1.7259 0
M  V30 150 H 13.7618 0.500547 0.805082 0
M  V30 151 H 13.4678 1.32816 3.25657 0
M  V30 152 H 13.3418 -0.349363 3.75579 0
M  V30 153 H 15.7288 -0.75794 2.852 0
M  V30 154 H 15.8098 0.944649 2.37718 0
M  V30 155 H 15.4538 1.61814 4.81434 0
M  V30 156 H 15.3838 -0.104013 5.26497 0
M  V30 157 H 17.8748 0.329288 3.76463 0
M  V30 158 H 18.1878 1.29409 7.61888 0
M  V30 159 H 16.5328 1.15695 6.85303 0
M  V30 160 H 19.7238 0.491752 4.6551 0
M  V30 161 H 19.8968 0.931482 6.4127 0
M  V30 162 N 13.3029 -1.57598 0.00835791 0
M  V30 163 C 14.2329 -2.1198 -0.979113 0
M  V30 164 C 15.2139 -1.03091 -1.35301 0
M  V30 165 O 16.3989 -1.30818 -1.43528 0
M  V30 166 C 13.5289 -2.62995 -2.26828 0
M  V30 167 C 12.4829 -3.76485 -2.03576 0
M  V30 168 C 11.8089 -4.13846 -3.38579 0
M  V30 169 C 13.1089 -5.0342 -1.39161 0
M  V30 170 H 14.8029 -2.94738 -0.526281 0
M  V30 171 H 12.3489 -1.41783 -0.251704 0
M  V30 172 H 14.3019 -2.99669 -2.96271 0
M  V30 173 H 13.0259 -1.7737 -2.7424 0
M  V30 174 H 11.6849 -3.40217 -1.36557 0
M  V30 175 H 11.3329 -3.25232 -3.83709 0
M  V30 176 H 11.0329 -4.90312 -3.23834 0
M  V30 177 H 12.5569 -4.53086 -4.09323 0
M  V30 178 H 13.9709 -5.37812 -1.98573 0
M  V30 179 H 12.3679 -5.84746 -1.34878 0
M  V30 180 H 13.4379 -4.83548 -0.361868 0
M  V30 181 N 14.781 0.264519 -1.55364 0
M  V30 182 C 16.058 1.01677 -1.67096 0
M  V30 183 C 16.438 2.03996 -0.543015 0
M  V30 184 O 15.786 2.23907 0.45585 0
M  V30 185 C 15.996 1.66596 -3.0667 0
M  V30 186 C 17.344 2.17442 -3.64697 0
M  V30 187 O 18.368 1.76568 -3.09358 0
M  V30 188 O 17.227 2.92439 -4.61673 0
M  V30 189 H 14.321 0.472161 -0.678965 0
M  V30 190 H 16.867 0.259703 -1.67701 0
M  V30 191 H 15.639 0.924962 -3.80211 0
M  V30 192 H 15.262 2.48968 -3.10001 0
M  V30 193 N 16.2591 1.48442 0.529413 0
M  V30 194 C 17.5071 1.56179 1.28267 0
M  V30 195 C 17.8281 0.237721 1.93546 0
M  V30 196 O 17.0981 -0.740779 1.81354 0
M  V30 197 H 15.6781 0.575367 0.476405 0
M  V30 198 H 18.3401 1.84909 0.61602 0
M  V30 199 H 17.4361 2.34312 2.06165 0
M  V30 200 N 17.7372 -0.778329 1.37039 0
M  V30 201 C 18.9862 -1.53189 1.3121 0
M  V30 202 C 19.2992 -1.95328 -0.103095 0
M  V30 203 O 20.5052 -2.70012 -0.283826 0
M  V30 204 C 18.9612 -2.76591 2.30272 0
M  V30 205 C 18.5692 -2.41577 3.77286 0
M  V30 206 C 20.3132 -3.5455 2.33441 0
M  V30 207 C 18.2202 -3.61441 4.68096 0
M  V30 208 H 17.1502 -0.5751 0.487622 0
M  V30 209 H 19.8012 -0.853101 1.62464 0
M  V30 210 H 18.1832 -3.46326 1.92027 0
M  V30 211 H 19.3572 -1.79668 4.2433 0
M  V30 212 H 17.6722 -1.76806 3.76999 0
M  V30 213 H 20.2692 -4.43628 2.98493 0
M  V30 214 H 20.6122 -3.93936 1.34611 0
M  V30 215 H 21.1452 -2.91805 2.7036 0
M  V30 216 H 17.8842 -3.27142 5.6803 0
M  V30 217 H 17.4042 -4.22478 4.25761 0
M  V30 218 H 19.0832 -4.28335 4.8491 0
M  V30 219 N 19.2153 -1.21501 -1.00376 0
M  V30 220 C 20.4923 -0.941745 -1.71437 0
M  V30 221 C 20.8723 0.546114 -2.03914 0
M  V30 222 O 20.2203 1.51128 -1.71384 0
M  V30 223 C 20.4303 -1.82812 -2.97289 0
M  V30 224 C 21.7783 -2.07771 -3.70292 0
M  V30 225 O 22.8023 -1.80171 -3.07273 0
M  V30 226 O 21.6613 -2.54456 -4.83647 0
M  V30 227 H 18.7553 -0.353243 -0.747762 0
M  V30 228 H 21.3013 -1.32436 -1.06108 0
M  V30 229 H 20.0733 -2.83501 -2.69709 0
M  V30 230 H 19.6963 -1.4464 -3.70358 0
M  V30 231 N 20.6934 1.19889 -1.02296 0
M  V30 232 C 21.9234 1.93109 -0.734332 0
M  V30 233 C 22.3314 1.75377 0.709889 0
M  V30 234 O 21.6744 1.06912 1.49384 0
M  V30 235 C 21.7364 3.45362 -0.99827 0
M  V30 236 C 21.4004 3.8686 -2.43287 0
M  V30 237 C 22.3974 3.92102 -3.41397 0
M  V30 238 C 20.0824 4.18668 -2.77529 0
M  V30 239 C 22.0764 4.28573 -4.71809 0
M  V30 240 C 19.7634 4.54813 -4.08153 0
M  V30 241 C 20.7614 4.59739 -5.05103 0
M  V30 242 O 20.4494 4.95051 -6.33388 0
M  V30 243 H 20.1814 0.620409 -0.268456 0
M  V30 244 H 22.7354 1.53144 -1.3688 0
M  V30 245 H 20.9654 3.85482 -0.306645 0
M  V30 246 H 22.6544 3.99814 -0.700234 0
M  V30 247 H 23.4204 3.67685 -3.1628 0
M  V30 248 H 19.2994 4.14021 -2.0275 0
M  V30 249 H 22.8434 4.32333 -5.4748 0
M  V30 250 H 18.7404 4.78687 -4.33047 0
M  V30 251 H 19.5084 5.1302 -6.37772 0
M  V30 252 N 22.1715 0.800033 1.35784 0
M  V30 253 C 23.1195 0.193851 2.31791 0
M  V30 254 C 24.1135 -0.652744 1.56319 0
M  V30 255 O 25.3195 -0.546641 1.71499 0
M  V30 256 H 21.6945 0.04392 0.750716 0
M  V30 257 H 23.6655 1.01883 2.80468 0
M  V30 258 C 22.4145 -0.648338 3.41602 0
M  V30 259 H 21.7375 -0.00624665 3.998 0
M  V30 260 H 23.1775 -1.03898 4.11073 0
M  V30 261 C 21.6365 -1.8111 2.84079 0
M  V30 262 O 22.1665 -2.90825 2.77099 0
M  V30 263 N 20.3725 -1.62056 2.41218 0
M  V30 264 H 19.9195 -0.728123 2.47095 0
M  V30 265 H 19.8775 -2.40013 2.03079 0
M  V30 266 N 23.6496 -1.47581 0.552962 0
M  V30 267 C 25.0606 -1.86324 0.118463 0
M  V30 268 C 25.4116 -1.46006 -1.3106 0
M  V30 269 O 24.5366 -0.861182 -1.98526 0
M  V30 270 C 25.1316 -3.3816 0.20821 0
M  V30 271 C 23.6906 -3.7601 -0.171226 0
M  V30 272 C 22.8376 -2.71634 0.557686 0
M  V30 273 H 25.7886 -1.39159 0.762928 0
M  V30 274 H 25.8096 -3.76141 -0.574278 0
M  V30 275 H 25.3216 -3.67473 1.24841 0
M  V30 276 H 23.4226 -3.52313 -1.21269 0
M  V30 277 H 23.5356 -4.78745 0.184379 0
M  V30 278 H 21.8996 -2.547 0.00125792 0
M  V30 279 H 22.6826 -3.0379 1.59896 0
M  V30 280 N 25.1277 -0.289203 -1.54924 0
M  V30 281 C 26.3737 0.316922 -2.00916 0
M  V30 282 C 26.7287 1.52424 -1.17408 0
M  V30 283 O 26.0217 1.90097 -0.239536 0
M  V30 284 C 26.2157 0.736119 -3.49737 0
M  V30 285 C 26.0447 -0.429036 -4.47649 0
M  V30 286 C 24.8147 -0.917311 -4.96904 0
M  V30 287 C 27.0127 -1.27016 -4.98369 0
M  V30 288 N 24.9947 -2.05046 -5.78644 0
M  V30 289 C 26.3657 -2.25097 -5.77695 0
M  V30 290 C 28.4207 -1.30188 -4.80578 0
M  V30 291 C 27.1237 -3.26114 -6.41126 0
M  V30 292 C 29.1497 -2.30057 -5.44819 0
M  V30 293 C 28.5117 -3.2687 -6.23968 0
M  V30 294 H 24.6107 0.0807535 -0.777819 0
M  V30 295 H 27.1947 -0.416434 -1.90194 0
M  V30 296 H 25.3657 1.43867 -3.60773 0
M  V30 297 H 27.0977 1.32078 -3.82541 0
M  V30 298 H 23.8527 -0.494248 -4.71014 0
M  V30 299 H 24.2767 -2.62108 -6.24202 0
M  V30 300 H 28.9187 -0.567163 -4.18979 0
M  V30 301 H 26.6367 -4.00512 -7.01866 0
M  V30 302 H 30.2227 -2.33271 -5.32988 0
M  V30 303 H 29.1027 -4.02883 -6.72796 0
M  V30 304 N 26.6058 1.57591 -0.0167156 0
M  V30 305 C 27.8518 1.91567 0.665582 0
M  V30 306 C 28.1848 0.892298 1.72487 0
M  V30 307 O 27.4598 -0.0867127 1.94307 0
M  V30 308 C 27.7428 3.36069 1.29342 0
M  V30 309 C 27.5958 4.49135 0.244541 0
M  V30 310 C 28.9148 3.803 2.21495 0
M  V30 311 H 26.0338 0.69666 0.240488 0
M  V30 312 H 28.6758 1.89866 -0.0714356 0
M  V30 313 H 26.8258 3.3765 1.92158 0
M  V30 314 H 28.4978 4.59689 -0.385228 0
M  V30 315 H 26.7408 4.3165 -0.431379 0
M  V30 316 H 27.4118 5.47242 0.723207 0
M  V30 317 H 29.8878 3.80377 1.68678 0
M  V30 318 H 28.7638 4.82127 2.62382 0
M  V30 319 H 29.0248 3.15104 3.101 0
M  V30 320 N 28.0839 -0.256276 1.55502 0
M  V30 321 C 28.9939 -1.33882 1.92647 0
M  V30 322 C 30.0099 -1.53159 0.825727 0
M  V30 323 O 31.1859 -1.66963 1.12629 0
M  V30 324 C 28.2509 -2.6751 2.20543 0
M  V30 325 C 27.3119 -2.56836 3.43997 0
M  V30 326 C 26.5449 -3.84092 3.70553 0
M  V30 327 O 26.7679 -4.85545 2.99336 0
M  V30 328 O 25.7019 -3.83288 4.64084 0
M  V30 329 H 29.5279 -1.05374 2.84833 0
M  V30 330 H 27.1129 -0.456237 1.42263 0
M  V30 331 H 28.9949 -3.46492 2.39835 0
M  V30 332 H 27.6699 -2.9577 1.31536 0
M  V30 333 H 26.5769 -1.76172 3.30021 0
M  V30 334 H 27.9099 -2.33523 4.33275 0
M  V30 335 N 29.562 -1.4872 -0.521534 0
M  V30 336 C 30.809 -1.57168 -1.27689 0
M  V30 337 C 31.137 -0.249275 -1.92896 0
M  V30 338 O 30.392 0.761162 -1.80291 0
M  V30 339 C 30.691 -2.66497 -2.38148 0
M  V30 340 C 30.357 -4.08664 -1.90538 0
M  V30 341 C 29.019 -4.47357 -1.77271 0
M  V30 342 C 31.371 -4.97724 -1.54663 0
M  V30 343 C 28.699 -5.72905 -1.26478 0
M  V30 344 C 31.051 -6.2377 -1.05329 0
M  V30 345 C 29.715 -6.61311 -0.906861 0
M  V30 346 H 28.985 -0.575117 -0.467249 0
M  V30 347 H 31.632 -1.82472 -0.581051 0
M  V30 348 H 29.937 -2.35085 -3.13437 0
M  V30 349 H 31.634 -2.70246 -2.96257 0
M  V30 350 H 28.224 -3.78111 -2.01816 0
M  V30 351 H 32.408 -4.68501 -1.63768 0
M  V30 352 H 27.664 -6.00709 -1.13835 0
M  V30 353 H 31.838 -6.9217 -0.76644 0
M  V30 354 H 29.465 -7.5848 -0.511083 0
M  V30 355 N 31.0401 0.771051 -1.3745 0
M  V30 356 C 32.2861 1.5319 -1.32894 0
M  V30 357 C 32.6191 1.94008 0.0862511 0
M  V30 358 O 31.8941 1.64124 1.04373 0
M  V30 359 C 32.1771 2.79648 -2.26868 0
M  V30 360 C 32.0301 2.45079 -3.77169 0
M  V30 361 C 33.3491 3.81583 -2.19277 0
M  V30 362 H 30.4681 0.555744 -0.484064 0
M  V30 363 H 33.1101 0.884492 -1.68157 0
M  V30 364 H 31.2601 3.34891 -1.96926 0
M  V30 365 H 32.9321 1.95745 -4.1771 0
M  V30 366 H 31.1751 1.77767 -3.95704 0
M  V30 367 H 31.8461 3.35478 -4.38359 0
M  V30 368 H 34.3221 3.35835 -2.45671 0
M  V30 369 H 33.1981 4.67787 -2.87171 0
M  V30 370 H 33.4591 4.25897 -1.18592 0
M  V30 371 N 32.5182 1.22032 0.997298 0
M  V30 372 C 33.4652 0.986467 2.08656 0
M  V30 373 C 34.4352 -0.0902671 1.65855 0
M  V30 374 O 35.6202 0.0584294 1.90711 0
M  V30 375 C 32.7602 0.565569 3.40434 0
M  V30 376 C 31.8732 1.71259 3.96604 0
M  V30 377 C 31.0082 1.24011 5.16522 0
M  V30 378 C 30.0472 2.35896 5.64818 0
M  V30 379 N 29.1842 1.89726 6.7598 0
M  V30 380 H 34.0242 1.91892 2.27994 0
M  V30 381 H 31.5612 0.956199 1.11782 0
M  V30 382 H 33.5192 0.302738 4.161 0
M  V30 383 H 32.1492 -0.329879 3.2111 0
M  V30 384 H 31.2012 2.08986 3.17851 0
M  V30 385 H 32.5132 2.55436 4.28432 0
M  V30 386 H 31.6672 0.934395 5.99461 0
M  V30 387 H 30.4062 0.368487 4.86306 0
M  V30 388 H 29.4112 2.67261 4.8047 0
M  V30 389 H 30.6362 3.23567 5.97061 0
M  V30 390 H 28.5822 1.0492 6.47555 0
M  V30 391 H 28.4992 2.67471 7.07103 0
M  V30 392 H 29.7672 1.62211 7.62435 0
M  V30 393 N 33.9963 -1.19345 1.0293 0
M  V30 394 C 34.9263 -2.2481 0.631105 0
M  V30 395 C 35.9073 -1.66245 -0.360104 0
M  V30 396 O 37.0923 -1.92677 -0.242726 0
M  V30 397 C 34.2223 -3.47295 -0.0184607 0
M  V30 398 C 33.1763 -4.18536 0.895073 0
M  V30 399 C 32.5023 -5.34586 0.110592 0
M  V30 400 C 33.8023 -4.73287 2.209 0
M  V30 401 H 35.4963 -2.58372 1.51275 0
M  V30 402 H 33.0423 -1.24194 0.728818 0
M  V30 403 H 34.9953 -4.20268 -0.308675 0
M  V30 404 H 33.7193 -3.12933 -0.934907 0
M  V30 405 H 32.3783 -3.47446 1.16949 0
M  V30 406 H 32.0263 -4.96469 -0.807902 0
M  V30 407 H 31.7263 -5.83183 0.719087 0
M  V30 408 H 33.2503 -6.10355 -0.172871 0
M  V30 409 H 34.6643 -5.38013 1.98028 0
M  V30 410 H 33.0613 -5.32373 2.76946 0
M  V30 411 H 34.1313 -3.91331 2.86336 0
M  V30 412 N 35.4744 -0.807222 -1.35358 0
M  V30 413 C 36.4374 -0.223665 -2.28106 0
M  V30 414 C 37.4374 0.589354 -1.4961 0
M  V30 415 O 38.6274 0.407745 -1.69361 0
M  V30 416 C 35.7594 0.688149 -3.33882 0
M  V30 417 H 36.9524 -1.04169 -2.81227 0
M  V30 418 H 34.5054 -0.577921 -1.45223 0
M  V30 419 H 35.2404 1.52984 -2.85948 0
M  V30 420 H 35.0254 0.10687 -3.91954 0
M  V30 421 H 36.5154 1.09075 -4.03104 0
M  V30 422 N 36.9525 1.47285 -0.560781 0
M  V30 423 C 38.1775 2.07359 -0.0410566 0
M  V30 424 C 38.6025 1.41017 1.24483 0
M  V30 425 O 37.9605 0.486368 1.74654 0
M  V30 426 C 38.0085 3.6035 0.134123 0
M  V30 427 O 37.1125 3.94681 1.19587 0
M  V30 428 H 36.4535 0.661887 -0.0529291 0
M  V30 429 H 38.9835 1.89252 -0.777482 0
M  V30 430 H 38.9935 4.0652 0.347207 0
M  V30 431 H 37.6685 4.08034 -0.805047 0
M  V30 432 H 36.2455 3.60251 0.962987 0
M  V30 433 N 38.4306 0.297415 1.54768 0
M  V30 434 C 39.3406 -0.58983 2.27064 0
M  V30 435 C 40.3566 -1.15144 1.30453 0
M  V30 436 O 41.5326 -1.17699 1.63428 0
M  V30 437 C 38.5976 -1.74714 2.9946 0
M  V30 438 C 37.6586 -1.21997 4.11601 0
M  V30 439 C 36.8916 -2.32212 4.80535 0
M  V30 440 O 37.1146 -3.52036 4.48806 0
M  V30 441 O 36.0486 -1.99106 5.68014 0
M  V30 442 H 39.8746 -0.00348199 3.037 0
M  V30 443 H 37.4596 0.0640035 1.49263 0
M  V30 444 H 39.3416 -2.42147 3.44881 0
M  V30 445 H 38.0166 -2.32016 2.25722 0
M  V30 446 H 36.9236 -0.511458 3.70587 0
M  V30 447 H 38.2566 -0.692419 4.87305 0
M  V30 448 N 39.9087 -1.5758 0.0250728 0
M  V30 449 C 40.8587 -2.06468 -0.967201 0
M  V30 450 C 41.8427 -0.964376 -1.28797 0
M  V30 451 O 43.0347 -1.22797 -1.27475 0
M  V30 452 C 40.1637 -2.59203 -2.25097 0
M  V30 453 C 39.2497 -3.76157 -1.95874 0
M  V30 454 N 39.6407 -4.86919 -1.36905 0
M  V30 455 C 37.9387 -3.84566 -2.25887 0
M  V30 456 C 38.6397 -5.68172 -1.24724 0
M  V30 457 N 37.6157 -5.14953 -1.74138 0
M  V30 458 H 41.4177 -2.89508 -0.506176 0
M  V30 459 H 38.9317 -1.61399 -0.18004 0
M  V30 460 H 40.9287 -2.92517 -2.97052 0
M  V30 461 H 39.5887 -1.77592 -2.71829 0
M  V30 462 H 40.5997 -5.07256 -1.04459 0
M  V30 463 H 37.2767 -3.13854 -2.75321 0
M  V30 464 H 38.6667 -6.67221 -0.791605 0
M  V30 465 N 41.3868 0.248026 -1.55636 0
M  V30 466 C 42.6638 0.998988 -1.68165 0
M  V30 467 C 43.0438 2.03409 -0.564621 0
M  V30 468 O 42.3918 2.24378 0.432076 0
M  V30 469 C 42.6018 1.63334 -3.0842 0
M  V30 470 C 43.9498 2.13562 -3.66983 0
M  V30 471 O 44.9738 1.73277 -3.11213 0
M  V30 472 O 43.8328 2.87526 -4.64749 0
M  V30 473 H 40.9268 0.464933 -0.683935 0
M  V30 474 H 43.4728 0.241902 -1.67967 0
M  V30 475 H 42.2448 0.884583 -3.8117 0
M  V30 476 H 41.8678 2.45666 -3.12624 0
M  V30 477 N 42.8649 1.48995 0.513639 0
M  V30 478 C 44.1109 1.58076 1.27042 0
M  V30 479 C 44.4439 0.261026 1.92438 0
M  V30 480 O 43.7189 -0.734393 1.80103 0
M  V30 481 C 44.0019 2.73091 2.34719 0
M  V30 482 C 43.8549 4.14821 1.73907 0
M  V30 483 C 45.1739 2.83796 3.36375 0
M  V30 484 H 42.2929 0.575391 0.460536 0
M  V30 485 H 44.9349 1.81232 0.570516 0
M  V30 486 H 43.0849 2.53479 2.94416 0
M  V30 487 H 44.7569 4.45917 1.18135 0
M  V30 488 H 42.9999 4.21058 1.0437 0
M  V30 489 H 43.6709 4.91147 2.51949 0
M  V30 490 H 46.1469 3.01611 2.86653 0
M  V30 491 H 45.0229 3.65971 4.09093 0
M  V30 492 H 45.2839 1.92624 3.9793 0
M  V30 493 N 44.343 -0.763751 1.37857 0
M  V30 494 C 45.589 -1.52483 1.33704 0
M  V30 495 C 45.922 -1.94051 -0.0759612 0
M  V30 496 O 45.197 -1.64675 -1.03501 0
M  V30 497 C 45.48 -2.78441 2.28348 0
M  V30 498 C 45.333 -2.43075 3.78463 0
M  V30 499 C 46.652 -3.80415 2.21298 0
M  V30 500 H 43.771 -0.553169 0.487005 0
M  V30 501 H 46.413 -0.875562 1.68624 0
M  V30 502 H 44.563 -3.33842 1.987 0
M  V30 503 H 46.235 -1.93527 4.18742 0
M  V30 504 H 44.478 -1.75666 3.96641 0
M  V30 505 H 45.149 -3.33149 4.40132 0
M  V30 506 H 47.625 -3.34527 2.47449 0
M  V30 507 H 46.501 -4.66257 2.89647 0
M  V30 508 H 46.762 -4.25262 1.20849 0
M  V30 509 N 45.8211 -1.22559 -0.990812 0
M  V30 510 C 46.7691 -0.994798 -2.10253 0
M  V30 511 C 47.7631 0.0627798 -1.69284 0
M  V30 512 O 48.9691 -0.0898392 -1.79776 0
M  V30 513 H 45.3441 -0.304527 -0.687581 0
M  V30 514 H 47.3151 -1.93812 -2.26891 0
M  V30 515 C 46.0641 -0.591439 -3.42633 0
M  V30 516 H 45.3871 -1.3969 -3.74602 0
M  V30 517 H 46.8271 -0.469385 -4.21394 0
M  V30 518 C 45.2861 0.699232 -3.29564 0
M  V30 519 O 45.8161 1.75112 -3.61523 0
M  V30 520 N 44.0221 0.671182 -2.82743 0
M  V30 521 H 43.5691 -0.185136 -2.56934 0
M  V30 522 H 43.5271 1.53502 -2.7438 0
M  V30 523 N 47.2992 1.18797 -1.03562 0
M  V30 524 C 48.2292 2.24472 -0.643019 0
M  V30 525 C 49.2102 1.66433 0.351283 0
M  V30 526 O 50.3952 1.92803 0.232505 0
M  V30 527 C 47.5252 3.473 4.24935e-05 0
M  V30 528 C 46.4792 4.18055 -0.917257 0
M  V30 529 C 45.8052 5.34519 -0.138941 0
M  V30 530 C 47.1052 4.72109 -2.23407 0
M  V30 531 H 48.7992 2.57566 -1.52643 0
M  V30 532 H 46.3452 1.23806 -0.735394 0
M  V30 533 H 48.2982 4.20426 0.286383 0
M  V30 534 H 47.0222 3.13424 0.918299 0
M  V30 535 H 45.6812 3.46821 -1.1879 0
M  V30 536 H 45.3292 4.96891 0.781562 0
M  V30 537 H 45.0292 5.82794 -0.750005 0
M  V30 538 H 46.5532 6.10438 0.1405 0
M  V30 539 H 47.9672 5.36955 -2.00879 0
M  V30 540 H 46.3642 5.30897 -2.79765 0
M  V30 541 H 47.4342 3.89807 -2.88407 0
M  V30 542 N 48.7773 0.814389 1.34928 0
M  V30 543 C 50.0253 0.397636 1.9815 0
M  V30 544 C 50.3463 -1.04069 1.64908 0
M  V30 545 O 49.6163 -1.72121 0.93548 0
M  V30 546 H 48.1963 0.144043 0.732981 0
M  V30 547 H 50.8583 1.04195 1.6471 0
M  V30 548 H 49.9543 0.509688 3.0791 0
M  V30 549 N 50.2554 -1.46986 0.568584 0
M  V30 550 C 51.1874 -2.28233 -0.210337 0
M  V30 551 C 52.2004 -1.37682 -0.868767 0
M  V30 552 O 53.3894 -1.62406 -0.740705 0
M  V30 553 C 50.4894 -3.12293 -1.3163 0
M  V30 554 C 49.6624 -4.30878 -0.7525 0
M  V30 555 C 48.7214 -4.96445 -1.74439 0
M  V30 556 O 47.7474 -5.54482 -1.286 0
M  V30 557 N 48.9494 -4.92171 -3.07812 0
M  V30 558 H 51.7144 -2.95723 0.486648 0
M  V30 559 H 49.2754 -1.56742 0.405409 0
M  V30 560 H 51.2674 -3.53022 -1.97883 0
M  V30 561 H 49.8374 -2.46971 -1.91636 0
M  V30 562 H 49.0574 -3.94104 0.0871128 0
M  V30 563 H 50.3454 -5.07558 -0.35536 0
M  V30 564 H 49.7434 -4.46239 -3.47688 0
M  V30 565 H 48.3004 -5.36884 -3.69592 0
M  V30 566 N 51.7335 -0.305618 -1.54608 0
M  V30 567 C 52.9815 0.301701 -1.99835 0
M  V30 568 C 53.3025 1.54054 -1.19551 0
M  V30 569 O 52.5725 1.93702 -0.292658 0
M  V30 570 H 51.1525 0.114468 -0.738178 0
M  V30 571 H 53.8145 -0.418016 -1.90364 0
M  V30 572 H 52.9105 0.570548 -3.06841 0
M  V30 573 N 53.2116 1.57565 -0.0334293 0
M  V30 574 C 54.4586 1.91978 0.644272 0
M  V30 575 C 54.7866 0.910231 1.71887 0
M  V30 576 O 54.0416 -0.0801961 1.95536 0
M  V30 577 C 54.3406 3.33112 1.29504 0
M  V30 578 C 54.0066 4.49537 0.350388 0
M  V30 579 C 52.6686 4.81115 0.0903974 0
M  V30 580 C 55.0206 5.20347 -0.298032 0
M  V30 581 C 52.3486 5.8086 -0.825746 0
M  V30 582 C 54.7006 6.2107 -1.20226 0
M  V30 583 C 53.3646 6.51088 -1.4711 0
M  V30 584 H 52.6346 0.702496 0.235756 0
M  V30 585 H 55.2816 1.91259 -0.0961176 0
M  V30 586 H 53.5866 3.30113 2.11028 0
M  V30 587 H 55.2836 3.57011 1.82603 0
M  V30 588 H 51.8736 4.24883 0.563205 0
M  V30 589 H 56.0576 4.96178 -0.110234 0
M  V30 590 H 51.3136 6.02461 -1.04169 0
M  V30 591 H 55.4876 6.75057 -1.71086 0
M  V30 592 H 53.1146 7.28193 -2.18264 0
M  V30 593 N 54.6897 -0.239769 1.55765 0
M  V30 594 C 56.1007 -0.808263 1.68297 0
M  V30 595 C 56.4517 -1.85736 0.632181 0
M  V30 596 O 55.5767 -2.15277 -0.220204 0
M  V30 597 C 56.1717 -1.47284 3.05111 0
M  V30 598 C 54.7307 -1.98895 3.19559 0
M  V30 599 C 53.8777 -0.842575 2.64189 0
M  V30 600 H 56.8287 -0.0154422 1.58692 0
M  V30 601 H 56.8497 -2.34111 2.99954 0
M  V30 602 H 56.3617 -0.709053 3.81568 0
M  V30 603 H 54.4627 -2.78132 2.47938 0
M  V30 604 H 54.5757 -2.18143 4.26556 0
M  V30 605 H 52.9397 -1.24501 2.22197 0
M  V30 606 H 53.7227 -0.0917552 3.43177 0
M  V30 607 N 56.1678 -1.49265 -0.50573 0
M  V30 608 C 57.4448 -1.49012 -1.26707 0
M  V30 609 C 57.8248 -0.215205 -2.1 0
M  V30 610 O 57.1728 0.802547 -2.13943 0
M  V30 611 C 57.3828 -2.7663 -2.12783 0
M  V30 612 C 58.7308 -3.25932 -2.72127 0
M  V30 613 O 59.7548 -2.77715 -2.23054 0
M  V30 614 O 58.6138 -4.09897 -3.61451 0
M  V30 615 H 55.7078 -0.596197 -0.57313 0
M  V30 616 H 58.2538 -1.61524 -0.52039 0
M  V30 617 H 57.0258 -3.60916 -1.5118 0
M  V30 618 H 56.6488 -2.66956 -2.94653 0
M  V30 619 N 57.6459 0.756429 -1.3826 0
M  V30 620 C 58.8929 1.51547 -1.34312 0
M  V30 621 C 59.2209 1.94382 0.0677144 0
M  V30 622 O 58.4759 1.65514 1.04421 0
M  V30 623 C 58.7749 2.78313 -2.24224 0
M  V30 624 C 58.4409 2.54455 -3.72241 0
M  V30 625 C 57.1029 2.47657 -4.12576 0
M  V30 626 C 59.4549 2.3354 -4.65949 0
M  V30 627 C 56.7829 2.17956 -5.44713 0
M  V30 628 C 59.1349 2.05359 -5.9834 0
M  V30 629 C 57.7989 1.97016 -6.37762 0
M  V30 630 H 57.0689 0.55455 -0.491482 0
M  V30 631 H 59.7159 0.870039 -1.70595 0
M  V30 632 H 58.0209 3.47492 -1.80987 0
M  V30 633 H 59.7179 3.36259 -2.18474 0
M  V30 634 H 56.3079 2.60616 -3.40261 0
M  V30 635 H 60.4919 2.37772 -4.35635 0
M  V30 636 H 55.7479 2.10003 -5.74203 0
M  V30 637 H 59.9219 1.88179 -6.70494 0
M  V30 638 H 57.5489 1.73766 -7.40074 0
M  V30 639 N 59.124 1.23083 0.984299 0
M  V30 640 C 60.535 1.05609 1.5396 0
M  V30 641 C 60.886 -0.377793 1.92528 0
M  V30 642 O 60.011 -1.26398 1.75649 0
M  V30 643 C 60.606 1.91087 2.7977 0
M  V30 644 C 59.165 1.77885 3.31713 0
M  V30 645 C 58.312 1.87028 2.04733 0
M  V30 646 H 61.263 1.36802 0.804419 0
M  V30 647 H 61.284 1.43336 3.5247 0
M  V30 648 H 60.796 2.9544 2.51668 0
M  V30 649 H 58.897 0.762995 3.64704 0
M  V30 650 H 59.01 2.61047 4.01735 0
M  V30 651 H 57.374 1.30565 2.18689 0
M  V30 652 H 58.157 2.92929 1.79017 0
M  V30 653 N 60.6021 -1.18246 1.0419 0
M  V30 654 C 62.0131 -1.69914 0.773698 0
M  V30 655 C 62.3641 -1.83085 -0.705297 0
M  V30 656 O 61.4891 -1.51123 -1.5489 0
M  V30 657 C 62.0841 -3.08619 1.39784 0
M  V30 658 C 60.6431 -3.57494 1.17792 0
M  V30 659 C 59.7901 -2.34013 1.48773 0
M  V30 660 H 62.7411 -1.02904 1.20816 0
M  V30 661 H 62.7621 -3.71958 0.801714 0
M  V30 662 H 62.2741 -2.99001 2.47426 0
M  V30 663 H 60.3751 -3.72406 0.120295 0
M  V30 664 H 60.4881 -4.40852 1.87581 0
M  V30 665 H 58.8521 -2.37986 0.907463 0
M  V30 666 H 59.6351 -2.27013 2.57527 0
M  V30 667 N 62.0802 -0.821533 -1.34494 0
M  V30 668 C 63.4912 -0.467956 -1.8074 0
M  V30 669 C 63.8422 1.01151 -1.68116 0
M  V30 670 O 62.9672 1.78707 -1.22036 0
M  V30 671 C 63.5622 -0.842627 -3.28154 0
M  V30 672 C 62.1212 -0.541439 -3.72485 0
M  V30 673 C 61.2682 -1.06028 -2.56229 0
M  V30 674 H 64.2192 -1.01183 -1.22261 0
M  V30 675 H 64.2402 -0.145876 -3.8022 0
M  V30 676 H 63.7522 -1.91945 -3.37311 0
M  V30 677 H 61.8532 0.526034 -3.68868 0
M  V30 678 H 61.9662 -1.08453 -4.66663 0
M  V30 679 H 60.3302 -0.481892 -2.501 0
M  V30 680 H 61.1132 -2.14352 -2.68157 0
M  V30 681 N 63.5583 1.46682 -0.576371 0
M  V30 682 C 64.8353 1.95599 0.00703437 0
M  V30 683 C 65.2153 1.51904 1.46589 0
M  V30 684 O 64.5633 0.766755 2.15251 0
M  V30 685 C 64.7733 3.4864 -0.158404 0
M  V30 686 C 66.1213 4.24594 -0.0229439 0
M  V30 687 O 67.1453 3.56094 -0.0869173 0
M  V30 688 O 66.0043 5.46373 0.118015 0
M  V30 689 H 63.0983 0.825275 0.053384 0
M  V30 690 H 65.6443 1.56996 -0.644244 0
M  V30 691 H 64.4163 3.7331 -1.17282 0
M  V30 692 H 64.0393 3.94057 0.5296 0
M  V30 693 N 65.0364 0.313813 1.54444 0
M  V30 694 C 66.2834 -0.291675 2.00388 0
M  V30 695 C 66.6114 -1.52904 1.2021 0
M  V30 696 O 65.8664 -1.93833 0.269707 0
M  V30 697 C 66.1654 -0.680386 3.50864 0
M  V30 698 C 65.8314 0.456699 4.48581 0
M  V30 699 C 64.4934 0.768824 4.75018 0
M  V30 700 C 66.8454 1.22098 5.06697 0
M  V30 701 C 64.1734 1.84812 5.56831 0
M  V30 702 C 66.5254 2.29029 5.89685 0
M  V30 703 C 65.1894 2.60834 6.14428 0
M  V30 704 H 64.4594 -0.106732 0.733273 0
M  V30 705 H 67.1064 0.43557 1.86481 0
M  V30 706 H 65.4114 -1.48791 3.62448 0
M  V30 707 H 67.1084 -1.16026 3.83847 0
M  V30 708 H 63.6984 0.203337 4.28117 0
M  V30 709 H 67.8824 0.993096 4.86263 0
M  V30 710 H 63.1384 2.09912 5.74236 0
M  V30 711 H 67.3124 2.887 6.33739 0
M  V30 712 H 64.9394 3.44596 6.77612 0
M  V30 713 N 66.5145 -1.57545 0.0417849 0
M  V30 714 C 67.4775 -2.09885 -0.92093 0
M  V30 715 C 68.4775 -1.01648 -1.24596 0
M  V30 716 O 69.6675 -1.27759 -1.1842 0
M  V30 717 C 66.7995 -2.57527 -2.23367 0
M  V30 718 H 67.9925 -2.96236 -0.467382 0
M  V30 719 H 65.5455 -1.5493 -0.206467 0
M  V30 720 H 66.2805 -1.74542 -2.73323 0
M  V30 721 H 66.0655 -3.36613 -2.01083 0
M  V30 722 H 67.5555 -2.98201 -2.92346 0
M  V30 723 N 67.9926 0.231505 -1.5589 0
M  V30 724 C 69.2386 0.95877 -1.78705 0
M  V30 725 C 69.5716 1.8438 -0.609725 0
M  V30 726 O 68.8466 1.90521 0.391426 0
M  V30 727 C 69.1296 1.8062 -3.11526 0
M  V30 728 C 68.9826 0.948328 -4.39689 0
M  V30 729 C 70.3016 2.78585 -3.40703 0
M  V30 730 H 67.4206 0.347129 -0.650131 0
M  V30 731 H 70.0626 0.228259 -1.88624 0
M  V30 732 H 68.2126 2.42902 -3.03201 0
M  V30 733 H 69.8846 0.343016 -4.60023 0
M  V30 734 H 68.1276 0.253314 -4.3306 0
M  V30 735 H 68.7986 1.57543 -5.29041 0
M  V30 736 H 71.2746 2.26439 -3.49091 0
M  V30 737 H 70.1506 3.34988 -4.34826 0
M  V30 738 H 70.4116 3.55825 -2.62375 0
M  V30 739 N 69.4707 1.49531 0.497807 0
M  V30 740 C 70.3807 1.69176 1.62532 0
M  V30 741 C 71.3967 0.5744 1.64246 0
M  V30 742 O 72.5727 0.849497 1.82608 0
M  V30 743 C 69.6377 1.75695 2.98885 0
M  V30 744 C 68.6987 2.9929 3.07773 0
M  V30 745 C 67.9317 3.05488 4.37622 0
M  V30 746 O 68.1547 2.19192 5.26603 0
M  V30 747 O 67.0887 3.9798 4.51548 0
M  V30 748 H 70.9147 2.647 1.48887 0
M  V30 749 H 68.4997 1.3331 0.674441 0
M  V30 750 H 70.3817 1.82317 3.79919 0
M  V30 751 H 69.0567 0.8335 3.12785 0
M  V30 752 H 67.9637 2.98183 2.25915 0
M  V30 753 H 69.2967 3.91125 2.98801 0
M  V30 754 N 70.9488 -0.749086 1.3866 0
M  V30 755 C 71.9118 -1.84457 1.36045 0
M  V30 756 C 72.9118 -1.58682 0.260122 0
M  V30 757 O 74.1018 -1.66343 0.517261 0
M  V30 758 C 71.2338 -3.22008 1.11911 0
M  V30 759 H 72.4268 -1.88182 2.33512 0
M  V30 760 H 69.9798 -0.951266 1.24019 0
M  V30 761 H 70.7148 -3.2395 0.150686 0
M  V30 762 H 70.4998 -3.42111 1.91579 0
M  V30 763 H 71.9898 -4.0208 1.12788 0
M  V30 764 N 72.4269 -1.23603 -0.977757 0
M  V30 765 C 73.6739 -1.06971 -1.71941 0
M  V30 766 C 74.0019 0.393009 -1.90488 0
M  V30 767 O 73.2569 1.30719 -1.4564 0
M  V30 768 C 73.5559 -1.7433 -3.11999 0
M  V30 769 C 73.2219 -3.24252 -3.13323 0
M  V30 770 C 71.8839 -3.65156 -3.13392 0
M  V30 771 C 74.2359 -4.20141 -3.08433 0
M  V30 772 C 71.5639 -5.00403 -3.0629 0
M  V30 773 C 73.9159 -5.55384 -3.02873 0
M  V30 774 C 72.5799 -5.95647 -3.01265 0
M  V30 775 H 71.8499 -0.391433 -0.629175 0
M  V30 776 H 74.4969 -1.53572 -1.14403 0
M  V30 777 H 72.8019 -1.20096 -3.7294 0
M  V30 778 H 74.4989 -1.58936 -3.68158 0
M  V30 779 H 71.0889 -2.91692 -3.14029 0
M  V30 780 H 75.2729 -3.89547 -3.07517 0
M  V30 781 H 70.5289 -5.3081 -3.03399 0
M  V30 782 H 74.7029 -6.29398 -2.98046 0
M  V30 783 H 72.3299 -7.0041 -2.95516 0
M  V30 784 N 73.905 1.17692 -1.04816 0
M  V30 785 C 74.837 2.21103 -0.603822 0
M  V30 786 C 75.85 1.59411 0.33046 0
M  V30 787 O 77.039 1.7807 0.12379 0
M  V30 788 C 74.139 3.38623 0.136898 0
M  V30 789 C 73.312 4.29888 -0.807137 0
M  V30 790 C 72.371 5.26088 -0.10836 0
M  V30 791 O 71.397 5.64353 -0.741232 0
M  V30 792 N 72.599 5.68882 1.15558 0
M  V30 793 H 75.364 2.59848 -1.49329 0
M  V30 794 H 72.925 1.32553 -0.929587 0
M  V30 795 H 74.917 4.00009 0.614401 0
M  V30 796 H 73.487 2.98508 0.927993 0
M  V30 797 H 72.707 3.65993 -1.46434 0
M  V30 798 H 73.995 4.87759 -1.44807 0
M  V30 799 H 73.393 5.39861 1.69015 0
M  V30 800 H 71.95 6.32429 1.57722 0
M  V30 801 N 75.3831 0.828654 1.34056 0
M  V30 802 C 76.3331 0.226828 2.26869 0
M  V30 803 C 77.3171 -0.612243 1.48796 0
M  V30 804 O 78.5091 -0.465884 1.70759 0
M  V30 805 C 75.6381 -0.605654 3.37915 0
M  V30 806 C 74.7241 0.244361 4.23395 0
M  V30 807 N 75.1151 1.31815 4.88322 0
M  V30 808 C 73.4131 0.0296616 4.4599 0
M  V30 809 C 74.1141 1.83895 5.51867 0
M  V30 810 N 73.0901 1.14196 5.3147 0
M  V30 811 H 76.8921 1.04811 2.74576 0
M  V30 812 H 74.4061 0.67205 1.47842 0
M  V30 813 H 76.4031 -1.05302 4.03382 0
M  V30 814 H 75.0631 -1.42504 2.91758 0
M  V30 815 H 76.0741 1.70099 4.8917 0
M  V30 816 H 72.7511 -0.757097 4.10578 0
M  V30 817 H 74.1411 2.7376 6.136 0
M  V30 818 N 76.8612 -1.46375 0.584142 0
M  V30 819 C 77.8242 -2.28784 -0.138108 0
M  V30 820 C 78.8242 -1.38471 -0.817462 0
M  V30 821 O 80.0142 -1.60833 -0.669199 0
M  V30 822 C 77.1462 -3.18892 -1.20503 0
M  V30 823 H 78.3392 -2.94117 0.586127 0
M  V30 824 H 75.8922 -1.52509 0.342171 0
M  V30 825 H 76.6272 -2.58309 -1.96079 0
M  V30 826 H 76.4122 -3.85388 -0.722384 0
M  V30 827 H 77.9022 -3.80914 -1.71155 0
M  V30 828 N 78.3393 -0.321999 -1.54275 0
M  V30 829 C 79.5853 0.281461 -2.00837 0
M  V30 830 C 79.9183 1.51909 -1.20985 0
M  V30 831 O 79.1933 1.923 -0.291733 0
M  V30 832 C 79.4763 0.617162 -3.54772 0
M  V30 833 C 79.3293 -0.631064 -4.45351 0
M  V30 834 C 80.6483 1.43542 -4.16033 0
M  V30 835 H 77.7673 0.100826 -0.730071 0
M  V30 836 H 80.4093 -0.438268 -1.84876 0
M  V30 837 H 78.5593 1.23034 -3.68504 0
M  V30 838 H 80.2313 -1.26934 -4.43492 0
M  V30 839 H 78.4743 -1.26025 -4.15091 0
M  V30 840 H 79.1453 -0.351735 -5.50878 0
M  V30 841 H 81.6213 0.917134 -4.05867 0
M  V30 842 H 80.4973 1.63907 -5.23856 0
M  V30 843 H 80.7583 2.43108 -3.69257 0
M  V30 844 N 79.8174 1.5752 -0.0501392 0
M  V30 845 C 81.0424 1.97376 0.636997 0
M  V30 846 C 81.4674 0.927466 1.63645 0
M  V30 847 O 80.8254 -0.10941 1.8097 0
M  V30 848 C 80.8734 3.36304 1.30123 0
M  V30 849 O 79.9774 3.34156 2.41689 0
M  V30 850 H 79.3184 0.642998 0.165679 0
M  V30 851 H 81.8484 2.04258 -0.118233 0
M  V30 852 H 81.8584 3.73008 1.65315 0
M  V30 853 H 80.5334 4.11993 0.568746 0
M  V30 854 H 79.1104 3.09196 2.08451 0
M  V30 855 N 81.2955 -0.223234 1.56011 0
M  V30 856 C 82.5435 -0.946003 1.78592 0
M  V30 857 C 82.8645 -1.84936 0.618349 0
M  V30 858 O 82.1345 -1.92473 -0.364833 0
M  V30 859 H 80.7145 -0.352298 0.658707 0
M  V30 860 H 83.3765 -0.235494 1.93472 0
M  V30 861 H 82.4725 -1.55381 2.70672 0
M  V30 862 N 82.7736 -1.49793 -0.48987 0
M  V30 863 C 84.0506 -1.50348 -1.25119 0
M  V30 864 C 84.4306 -0.237466 -2.0976 0
M  V30 865 O 83.7786 0.77981 -2.14782 0
M  V30 866 C 83.9886 -2.78872 -2.09837 0
M  V30 867 C 85.3366 -3.288 -2.68655 0
M  V30 868 O 86.3606 -2.80065 -2.20096 0
M  V30 869 O 85.2196 -4.13707 -3.57083 0
M  V30 870 H 82.3136 -0.602242 -0.566775 0
M  V30 871 H 84.8596 -1.62067 -0.503229 0
M  V30 872 H 83.6316 -3.62499 -1.47343 0
M  V30 873 H 83.2546 -2.70066 -2.91805 0
M  V30 874 N 84.2517 0.741722 -1.39055 0
M  V30 875 C 85.4987 1.50114 -1.35912 0
M  V30 876 C 85.8267 1.94443 0.0470937 0
M  V30 877 O 85.0817 1.66612 1.02659 0
M  V30 878 C 85.3807 2.7592 -2.27163 0
M  V30 879 C 85.0467 2.50493 -3.74919 0
M  V30 880 C 83.7087 2.43267 -4.1518 0
M  V30 881 C 86.0607 2.28585 -4.684 0
M  V30 882 C 83.3887 2.12166 -5.46994 0
M  V30 883 C 85.7407 1.99002 -6.00484 0
M  V30 884 C 84.4047 1.90241 -6.39816 0
M  V30 885 H 83.6747 0.549306 -0.497336 0
M  V30 886 H 86.3217 0.851896 -1.71508 0
M  V30 887 H 84.6267 3.45553 -1.84663 0
M  V30 888 H 86.3237 3.33923 -2.22028 0
M  V30 889 H 82.9137 2.56992 -3.43006 0
M  V30 890 H 87.0977 2.33139 -4.38132 0
M  V30 891 H 82.3537 2.03901 -5.76398 0
M  V30 892 H 86.5277 1.81057 -6.72452 0
M  V30 893 H 84.1547 1.65907 -7.41875 0
M  V30 894 N 85.7298 1.2412 0.971189 0
M  V30 895 C 86.6628 0.97373 2.06382 0
M  V30 896 C 87.6408 -0.0912662 1.62344 0
M  V30 897 O 88.8248 0.0449365 1.88446 0
M  V30 898 C 85.9518 0.468746 3.35441 0
M  V30 899 C 84.9978 1.52176 3.98428 0
M  V30 900 S 85.8308 3.10203 4.36503 0
M  V30 901 C 86.9868 2.61398 5.68702 0
M  V30 902 H 87.2198 1.89893 2.28753 0
M  V30 903 H 84.7528 1.07466 1.10862 0
M  V30 904 H 86.7108 0.184012 4.10087 0
M  V30 905 H 85.3718 -0.435688 3.11064 0
M  V30 906 H 84.5648 1.11876 4.91426 0
M  V30 907 H 84.1668 1.75632 3.30196 0
M  V30 908 H 86.4588 2.03992 6.4606 0
M  V30 909 H 87.4018 3.52972 6.13854 0
M  V30 910 H 87.8098 2.01941 5.27143 0
M  V30 911 N 87.2079 -1.17134 1.05439 0
M  V30 912 C 88.1379 -2.2342 0.678649 0
M  V30 913 C 89.1189 -1.66971 -0.32476 0
M  V30 914 O 90.3039 -1.93149 -0.201802 0
M  V30 915 C 87.4339 -3.47256 0.0552099 0
M  V30 916 C 86.3879 -4.16543 0.98365 0
M  V30 917 C 85.7139 -5.34231 0.223961 0
M  V30 918 C 87.0139 -4.68495 2.3089 0
M  V30 919 H 88.7079 -2.55105 1.56722 0
M  V30 920 H 86.2539 -1.2262 0.754998 0
M  V30 921 H 88.2069 -4.20828 -0.21946 0
M  V30 922 H 86.9309 -3.14846 -0.868319 0
M  V30 923 H 85.5899 -3.44887 1.24293 0
M  V30 924 H 85.2379 -4.98071 -0.702412 0
M  V30 925 H 84.9379 -5.81527 0.842627 0
M  V30 926 H 86.4619 -6.10585 -0.0433671 0
M  V30 927 H 87.8759 -5.33691 2.09396 0
M  V30 928 H 86.2729 -5.26379 2.88176 0
M  V30 929 H 87.3429 -3.85169 2.94572 0
M  V30 930 N 88.686 -0.835752 -1.33615 0
M  V30 931 C 89.634 -0.255238 -2.31195 0
M  V30 932 C 90.628 0.61107 -1.57995 0
M  V30 933 O 91.834 0.500979 -1.72888 0
M  V30 934 H 88.209 -0.0638085 -0.749288 0
M  V30 935 H 90.18 -1.09283 -2.77669 0
M  V30 936 C 88.929 0.55754 -3.43201 0
M  V30 937 H 88.252 -0.0997553 -3.99676 0
M  V30 938 H 89.692 0.929622 -4.13683 0
M  V30 939 C 88.151 1.73515 -2.88781 0
M  V30 940 O 88.681 2.83376 -2.84712 0
M  V30 941 N 86.887 1.55603 -2.4543 0
M  V30 942 H 86.434 0.662354 -2.48939 0
M  V30 943 H 86.392 2.34545 -2.09371 0
M  V30 944 N 90.1641 1.46063 -0.591896 0
M  V30 945 C 91.0961 2.28539 0.174001 0
M  V30 946 C 92.1091 1.39047 0.846753 0
M  V30 947 O 93.2981 1.63564 0.714774 0
M  V30 948 C 90.3981 3.14347 1.26645 0
M  V30 949 C 89.5711 4.32021 0.683856 0
M  V30 950 C 88.6301 4.99157 1.66518 0
M  V30 951 O 87.6561 5.56458 1.19763 0
M  V30 952 N 88.8581 4.97005 2.99943 0
M  V30 953 H 91.6231 2.94911 -0.533633 0
M  V30 954 H 89.1841 1.56077 -0.430294 0
M  V30 955 H 91.1761 3.56125 1.92242 0
M  V30 956 H 89.7461 2.49988 1.87682 0
M  V30 957 H 88.9661 3.93915 -0.1498 0
M  V30 958 H 90.2541 5.08059 0.274567 0
M  V30 959 H 89.6521 4.51714 3.40545 0
M  V30 960 H 88.2091 5.42696 3.61004 0
M  V30 961 N 91.6422 0.330177 1.54103 0
M  V30 962 C 92.8722 -0.271784 2.04805 0
M  V30 963 C 93.2802 -1.45816 1.20559 0
M  V30 964 O 92.6232 -1.82247 0.2306 0
M  V30 965 C 92.6852 -0.763238 3.51305 0
M  V30 966 C 92.3492 0.301705 4.56003 0
M  V30 967 C 93.3462 1.13999 5.07248 0
M  V30 968 C 91.0312 0.451793 5.00264 0
M  V30 969 C 93.0252 2.11402 6.01322 0
M  V30 970 C 90.7122 1.42924 5.94151 0
M  V30 971 C 91.7102 2.25882 6.44567 0
M  V30 972 O 91.3982 3.21965 7.3661 0
M  V30 973 H 91.1302 -0.058693 0.673447 0
M  V30 974 H 93.6842 0.476395 1.99799 0
M  V30 975 H 91.9142 -1.56244 3.5373 0
M  V30 976 H 93.6032 -1.28427 3.85047 0
M  V30 977 H 94.3692 1.03505 4.73827 0
M  V30 978 H 90.2482 -0.184044 4.60632 0
M  V30 979 H 93.7922 2.76192 6.40596 0
M  V30 980 H 89.6892 1.53479 6.26988 0
M  V30 981 H 90.4572 3.17281 7.54503 0
M  V30 982 N 93.1203 -1.57491 0.0584922 0
M  V30 983 C 94.3483 -1.97296 -0.623037 0
M  V30 984 C 94.7633 -0.936338 -1.63946 0
M  V30 985 O 94.1203 0.0785981 -1.82331 0
M  V30 986 C 94.1713 -3.37183 -1.30345 0
M  V30 987 O 93.8923 -4.36872 -0.32773 0
M  V30 988 C 95.3933 -3.91788 -2.07406 0
M  V30 989 H 92.6133 -0.649153 -0.169826 0
M  V30 990 H 95.1573 -2.04106 0.12696 0
M  V30 991 H 93.3123 -3.31502 -2.00463 0
M  V30 992 H 93.7263 -5.18141 -0.814269 0
M  V30 993 H 95.2003 -4.91926 -2.50425 0
M  V30 994 H 95.6773 -3.27609 -2.92521 0
M  V30 995 H 96.2833 -4.00829 -1.42184 0
M  V30 996 N 94.5984 0.214957 -1.56127 0
M  V30 997 C 95.5454 1.26642 -1.92952 0
M  V30 998 C 96.5154 1.46244 -0.78753 0
M  V30 999 O 97.7004 1.59704 -1.04399 0
M  V30 1000 C 94.8404 2.6104 -2.25726 0
M  V30 1001 C 93.9534 2.49183 -3.52891 0
M  V30 1002 C 93.0884 3.76149 -3.7508 0
M  V30 1003 C 92.1274 3.59041 -4.95738 0
M  V30 1004 N 91.2644 4.77972 -5.14283 0
M  V30 1005 H 96.1044 0.945384 -2.82607 0
M  V30 1006 H 93.6414 0.455489 -1.3987 0
M  V30 1007 H 95.5994 3.39313 -2.42739 0
M  V30 1008 H 94.2294 2.91227 -1.39236 0
M  V30 1009 H 93.2814 1.6231 -3.44034 0
M  V30 1010 H 94.5934 2.32466 -4.41318 0
M  V30 1011 H 93.7474 4.62865 -3.92226 0
M  V30 1012 H 92.4864 3.95799 -2.84947 0
M  V30 1013 H 91.4914 2.7071 -4.78535 0
M  V30 1014 H 92.7164 3.40856 -5.87362 0
M  V30 1015 H 90.6624 4.97923 -4.27093 0
M  V30 1016 H 90.5794 4.64006 -5.96853 0
M  V30 1017 H 91.8474 5.66096 -5.35869 0
M  V30 1018 N 96.0765 1.50051 0.48192 0
M  V30 1019 C 97.3045 1.64237 1.25832 0
M  V30 1020 C 97.7195 0.321336 1.86045 0
M  V30 1021 O 97.0765 -0.695478 1.68729 0
M  V30 1022 C 97.1275 2.72548 2.37487 0
M  V30 1023 O 96.8485 3.99529 1.79745 0
M  V30 1024 C 98.3495 2.9761 3.28547 0
M  V30 1025 H 95.5695 0.55237 0.380957 0
M  V30 1026 H 98.1135 1.96207 0.576467 0
M  V30 1027 H 96.2685 2.43303 3.01467 0
M  V30 1028 H 96.6825 4.59342 2.5319 0
M  V30 1029 H 98.1565 3.77084 4.03127 0
M  V30 1030 H 98.6335 2.0826 3.86684 0
M  V30 1031 H 99.2395 3.28345 2.70314 0
M  V30 1032 N 97.5546 -0.734337 1.39446 0
M  V30 1033 C 98.8016 -1.49391 1.36706 0
M  V30 1034 C 99.1296 -1.94465 -0.0367813 0
M  V30 1035 O 98.3846 -1.67154 -1.01774 0
M  V30 1036 C 98.6836 -2.74711 2.28623 0
M  V30 1037 C 98.3496 -2.48501 3.76242 0
M  V30 1038 C 97.0116 -2.41062 4.16464 0
M  V30 1039 C 99.3636 -2.26098 4.69606 0
M  V30 1040 C 96.6916 -2.09262 5.48112 0
M  V30 1041 C 99.0436 -1.95814 6.01531 0
M  V30 1042 C 97.7076 -1.86845 6.40816 0
M  V30 1043 H 96.9776 -0.546661 0.500243 0
M  V30 1044 H 99.6246 -0.842788 1.71957 0
M  V30 1045 H 97.9296 -3.44569 1.86492 0
M  V30 1046 H 99.6266 -3.32741 2.23796 0
M  V30 1047 H 96.2166 -2.55169 3.44364 0
M  V30 1048 H 100.401 -2.30812 4.39363 0
M  V30 1049 H 95.6566 -2.00841 5.77471 0
M  V30 1050 H 99.8306 -1.77488 6.73403 0
M  V30 1051 H 97.4576 -1.6197 7.42745 0
M  V30 1052 N 99.0327 -1.24633 -0.964593 0
M  V30 1053 C 100.281 -1.08573 -1.70459 0
M  V30 1054 C 100.602 0.375655 -1.91347 0
M  V30 1055 O 99.8717 1.26779 -1.49345 0
M  V30 1056 H 98.4517 -0.398784 -0.631649 0
M  V30 1057 H 101.114 -1.56601 -1.16026 0
M  V30 1058 H 100.21 -1.58623 -2.68785 0
M  V30 1059 N 100.511 1.16574 -1.06058 0
M  V30 1060 C 101.741 1.90675 -0.795397 0
M  V30 1061 C 102.149 1.77547 0.653735 0
M  V30 1062 O 101.492 1.11611 1.45907 0
M  V30 1063 C 101.554 3.42011 -1.10764 0
M  V30 1064 C 101.218 3.78924 -2.55471 0
M  V30 1065 C 102.215 3.81042 -3.53699 0
M  V30 1066 C 99.8998 4.09626 -2.90708 0
M  V30 1067 C 101.894 4.13346 -4.85205 0
M  V30 1068 C 99.5808 4.41597 -4.22416 0
M  V30 1069 C 100.579 4.43436 -5.19474 0
M  V30 1070 O 100.267 4.74649 -6.48817 0
M  V30 1071 H 99.9988 0.611554 -0.288058 0
M  V30 1072 H 102.553 1.48711 -1.41683 0
M  V30 1073 H 100.783 3.84312 -0.429128 0
M  V30 1074 H 102.472 3.97384 -0.827077 0
M  V30 1075 H 103.238 3.57437 -3.27817 0
M  V30 1076 H 99.1168 4.07361 -2.15819 0
M  V30 1077 H 102.661 4.14696 -5.60957 0
M  V30 1078 H 98.5578 4.64667 -4.48056 0
M  V30 1079 H 99.3258 4.9247 -6.5377 0
M  V30 1080 N 101.989 0.842826 1.3317 0
M  V30 1081 C 103.4 0.496651 1.79973 0
M  V30 1082 C 103.751 -0.984641 1.69703 0
M  V30 1083 O 102.876 -1.76743 1.24863 0
M  V30 1084 C 103.471 0.894727 3.26772 0
M  V30 1085 C 102.03 0.600629 3.71577 0
M  V30 1086 C 101.177 1.10091 2.5451 0
M  V30 1087 H 104.128 1.03116 1.20635 0
M  V30 1088 H 104.149 0.206347 3.7994 0
M  V30 1089 H 103.661 1.97287 3.34215 0
M  V30 1090 H 101.762 -0.467284 3.69658 0
M  V30 1091 H 101.875 1.15863 4.64879 0
M  V30 1092 H 100.239 0.52162 2.49301 0
M  V30 1093 H 101.022 2.18591 2.64713 0
M  V30 1094 N 103.467 -1.45747 0.599634 0
M  V30 1095 C 104.878 -1.85853 0.177681 0
M  V30 1096 C 105.229 -1.50102 -1.26348 0
M  V30 1097 O 104.354 -0.923905 -1.95686 0
M  V30 1098 C 104.949 -3.37326 0.315688 0
M  V30 1099 C 103.508 -3.76365 -0.0515144 0
M  V30 1100 C 102.655 -2.69722 0.643822 0
M  V30 1101 H 105.606 -1.36661 0.806814 0
M  V30 1102 H 105.627 -3.77778 -0.454321 0
M  V30 1103 H 105.139 -3.63315 1.36468 0
M  V30 1104 H 103.24 -3.55993 -1.09999 0
M  V30 1105 H 103.353 -4.77916 0.336594 0
M  V30 1106 H 101.717 -2.54567 0.0822881 0
M  V30 1107 H 102.5 -2.98549 1.6948 0
M  V30 1108 N 104.945 -0.338344 -1.53925 0
M  V30 1109 C 105.875 0.51328 -2.27789 0
M  V30 1110 C 106.856 1.107 -1.29149 0
M  V30 1111 O 108.041 1.12937 -1.57984 0
M  V30 1112 C 105.171 1.66697 -3.04679 0
M  V30 1113 C 104.125 1.20183 -4.1078 0
M  V30 1114 C 103.451 2.44363 -4.75595 0
M  V30 1115 C 104.751 0.30605 -5.21403 0
M  V30 1116 H 106.445 -0.102883 -2.99223 0
M  V30 1117 H 103.991 -0.0509219 -1.4391 0
M  V30 1118 H 105.944 2.26915 -3.55088 0
M  V30 1119 H 104.668 2.30995 -2.30887 0
M  V30 1120 H 103.327 0.622499 -3.61276 0
M  V30 1121 H 102.975 3.07057 -3.98403 0
M  V30 1122 H 102.675 2.13925 -5.47275 0
M  V30 1123 H 104.199 3.05317 -5.28786 0
M  V30 1124 H 105.613 0.814929 -5.67478 0
M  V30 1125 H 104.01 0.0937929 -6.00027 0
M  V30 1126 H 105.08 -0.65921 -4.80398 0
M  V30 1127 N 106.423 1.57458 -0.0668435 0
M  V30 1128 C 107.651 1.97624 0.612565 0
M  V30 1129 C 108.066 0.94502 1.63447 0
M  V30 1130 O 107.423 -0.0689276 1.8237 0
M  V30 1131 C 107.474 3.37869 1.28555 0
M  V30 1132 O 107.195 4.3704 0.304557 0
M  V30 1133 C 108.696 3.92882 2.05325 0
M  V30 1134 H 105.916 0.650045 0.166381 0
M  V30 1135 H 108.46 2.04035 -0.137782 0
M  V30 1136 H 106.615 3.3256 1.98702 0
M  V30 1137 H 107.029 5.18565 0.786779 0
M  V30 1138 H 108.503 4.93247 2.47812 0
M  V30 1139 H 108.98 3.29156 2.9078 0
M  V30 1140 H 109.586 4.01577 1.40056 0
M  V30 1141 N 107.901 -0.206675 1.56239 0
M  V30 1142 C 108.848 -1.25617 1.93621 0
M  V30 1143 C 109.818 -1.45824 0.795274 0
M  V30 1144 O 111.003 -1.59148 1.05245 0
M  V30 1145 C 108.143 -2.59839 2.27107 0
M  V30 1146 C 107.256 -2.47308 3.54207 0
M  V30 1147 C 106.391 -3.74155 3.7707 0
M  V30 1148 C 105.43 -3.56407 4.97635 0
M  V30 1149 N 104.567 -4.75238 5.1681 0
M  V30 1150 H 109.407 -0.930383 2.83104 0
M  V30 1151 H 106.944 -0.448065 1.4011 0
M  V30 1152 H 108.902 -3.38021 2.44535 0
M  V30 1153 H 107.532 -2.90485 1.40778 0
M  V30 1154 H 106.584 -1.60483 3.4489 0
M  V30 1155 H 107.896 -2.30122 4.42544 0
M  V30 1156 H 107.05 -4.60778 3.94675 0
M  V30 1157 H 105.789 -3.94282 2.87042 0
M  V30 1158 H 104.794 -2.68168 4.79964 0
M  V30 1159 H 106.019 -3.37736 5.89161 0
M  V30 1160 H 103.965 -4.95651 4.29728 0
M  V30 1161 H 103.882 -4.60835 5.99306 0
M  V30 1162 H 105.15 -5.63246 5.38864 0
M  V30 1163 N 109.379 -1.50304 -0.473955 0
M  V30 1164 C 110.628 -1.60392 -1.22301 0
M  V30 1165 C 110.941 -0.308411 -1.93153 0
M  V30 1166 O 112.147 -0.288156 -2.69966 0
M  V30 1167 C 110.603 -2.83109 -2.2221 0
M  V30 1168 C 110.211 -4.19524 -1.57173 0
M  V30 1169 C 111.955 -3.0254 -2.97775 0
M  V30 1170 C 109.862 -5.33431 -2.55353 0
M  V30 1171 H 108.792 -0.597286 -0.460179 0
M  V30 1172 H 111.443 -1.76731 -0.493803 0
M  V30 1173 H 109.825 -2.60322 -2.9841 0
M  V30 1174 H 110.999 -4.52554 -0.867824 0
M  V30 1175 H 109.314 -4.05674 -0.939002 0
M  V30 1176 H 111.911 -3.84811 -3.71248 0
M  V30 1177 H 112.254 -2.14154 -3.56992 0
M  V30 1178 H 112.787 -3.25494 -2.28688 0
M  V30 1179 H 109.526 -6.23962 -2.00878 0
M  V30 1180 H 109.046 -5.04823 -3.23904 0
M  V30 1181 H 110.725 -5.63887 -3.17239 0
M  V30 1182 N 110.857 0.726932 -1.39834 0
M  V30 1183 C 111.787 1.85405 -1.41941 0
M  V30 1184 C 112.768 1.67751 -0.281728 0
M  V30 1185 O 113.953 1.8795 -0.488717 0
M  V30 1186 C 111.083 3.23243 -1.2701 0
M  V30 1187 C 110.037 3.55549 -2.38262 0
M  V30 1188 C 109.363 4.9241 -2.08415 0
M  V30 1189 C 110.663 3.577 -3.80589 0
M  V30 1190 H 112.357 1.83899 -2.36266 0
M  V30 1191 H 109.903 0.883349 -1.13723 0
M  V30 1192 H 111.856 4.01775 -1.27103 0
M  V30 1193 H 110.58 3.25296 -0.291564 0
M  V30 1194 H 109.239 2.79351 -2.37399 0
M  V30 1195 H 108.887 4.91052 -1.0898 0
M  V30 1196 H 108.587 5.14992 -2.82943 0
M  V30 1197 H 110.111 5.73289 -2.10171 0
M  V30 1198 H 111.525 4.26293 -3.83337 0
M  V30 1199 H 109.922 3.91804 -4.54543 0
M  V30 1200 H 110.992 2.57328 -4.10987 0
M  V30 1201 N 112.336 1.25143 0.95797 0
M  V30 1202 C 113.299 1.05321 2.03569 0
M  V30 1203 C 114.299 0.007152 1.60798 0
M  V30 1204 O 115.489 0.24903 1.72411 0
M  V30 1205 C 112.621 0.598394 3.35607 0
M  V30 1206 H 113.814 2.00986 2.22586 0
M  V30 1207 H 111.367 1.07502 1.13459 0
M  V30 1208 H 112.102 -0.361014 3.22284 0
M  V30 1209 H 111.887 1.35351 3.67998 0
M  V30 1210 H 113.377 0.48104 4.1482 0
M  V30 1211 N 113.814 -1.1601 1.06675 0
M  V30 1212 C 115.039 -1.91068 0.806706 0
M  V30 1213 C 115.464 -1.77112 -0.633485 0
M  V30 1214 O 114.822 -1.09908 -1.44187 0
M  V30 1215 C 114.87 -3.39655 1.21106 0
M  V30 1216 O 113.974 -4.10893 0.352189 0
M  V30 1217 H 113.315 -0.595125 0.294486 0
M  V30 1218 H 115.845 -1.46955 1.42356 0
M  V30 1219 H 115.855 -3.90434 1.18428 0
M  V30 1220 H 114.53 -3.49132 2.26008 0
M  V30 1221 H 113.107 -3.70285 0.440868 0
M  V30 1222 N 115.292 -0.849877 -1.32721 0
M  V30 1223 C 116.539 -0.450923 -1.97416 0
M  V30 1224 C 116.867 0.992376 -1.67279 0
M  V30 1225 O 116.122 1.71048 -0.950845 0
M  V30 1226 C 116.421 -0.631272 -3.51781 0
M  V30 1227 C 116.087 -2.04432 -4.01894 0
M  V30 1228 C 114.749 -2.4308 -4.1529 0
M  V30 1229 C 117.101 -2.96679 -4.28522 0
M  V30 1230 C 114.429 -3.73257 -4.52654 0
M  V30 1231 C 116.781 -4.26349 -4.67343 0
M  V30 1232 C 115.445 -4.64939 -4.78945 0
M  V30 1233 H 114.715 -0.165004 -0.722395 0
M  V30 1234 H 117.362 -1.07901 -1.58207 0
M  V30 1235 H 115.667 0.0800767 -3.91718 0
M  V30 1236 H 117.364 -0.302709 -3.99856 0
M  V30 1237 H 113.954 -1.73419 -3.91949 0
M  V30 1238 H 118.138 -2.68054 -4.17685 0
M  V30 1239 H 113.394 -4.02946 -4.59831 0
M  V30 1240 H 117.568 -4.97895 -4.86902 0
M  V30 1241 H 115.195 -5.65855 -5.07654 0
M  V30 1242 N 116.77 1.45427 -0.607355 0
M  V30 1243 C 118.017 2.02241 -0.102455 0
M  V30 1244 C 118.345 1.4758 1.26691 0
M  V30 1245 O 117.6 0.640468 1.84923 0
M  V30 1246 C 117.899 3.57398 -0.0129263 0
M  V30 1247 C 117.565 4.3121 -1.31792 0
M  V30 1248 C 116.227 4.51092 -1.67539 0
M  V30 1249 C 118.579 4.73401 -2.18039 0
M  V30 1250 C 115.907 5.10422 -2.89285 0
M  V30 1251 C 118.259 5.34078 -3.39034 0
M  V30 1252 C 116.923 5.52184 -3.75033 0
M  V30 1253 H 116.193 0.740051 -0.037491 0
M  V30 1254 H 118.84 1.74494 -0.788926 0
M  V30 1255 H 117.145 3.84421 0.756806 0
M  V30 1256 H 118.842 3.99061 0.393881 0
M  V30 1257 H 115.432 4.16047 -1.02968 0
M  V30 1258 H 119.616 4.57774 -1.91721 0
M  V30 1259 H 114.872 5.22629 -3.17283 0
M  V30 1260 H 119.046 5.65724 -4.06115 0
M  V30 1261 H 116.673 5.97925 -4.69457 0
M  V30 1262 N 118.248 0.346503 1.53744 0
M  V30 1263 C 119.496 -0.248612 2.00565 0
M  V30 1264 C 119.817 -1.5083 1.23593 0
M  V30 1265 O 119.087 -1.92858 0.343912 0
M  V30 1266 H 117.667 -0.0948564 0.740953 0
M  V30 1267 H 120.329 0.468341 1.89189 0
M  V30 1268 H 119.425 -0.488994 3.08245 0
M  V30 1269 N 119.726 -1.57421 0.075193 0
M  V30 1270 C 120.636 -2.1642 -0.905511 0
M  V30 1271 C 121.652 -1.12828 -1.32461 0
M  V30 1272 O 122.828 -1.45109 -1.39661 0
M  V30 1273 C 119.893 -2.71693 -2.15369 0
M  V30 1274 C 118.954 -3.90171 -1.79068 0
M  V30 1275 C 118.187 -4.42798 -2.97936 0
M  V30 1276 O 118.41 -3.94416 -4.12058 0
M  V30 1277 O 117.344 -5.34085 -2.77555 0
M  V30 1278 H 121.17 -3.00588 -0.433626 0
M  V30 1279 H 118.755 -1.48664 -0.148067 0
M  V30 1280 H 120.637 -3.07104 -2.88557 0
M  V30 1281 H 119.312 -1.90582 -2.61649 0
M  V30 1282 H 118.219 -3.59606 -1.03122 0
M  V30 1283 H 119.552 -4.72584 -1.37569 0
M  V30 1284 N 121.204 0.198386 -1.56346 0
M  V30 1285 C 122.134 1.24865 -1.9731 0
M  V30 1286 C 123.115 1.47651 -0.844576 0
M  V30 1287 O 124.3 1.59444 -1.10866 0
M  V30 1288 C 121.43 2.59358 -2.30977 0
M  V30 1289 C 120.384 2.5119 -3.46537 0
M  V30 1290 C 119.71 3.89926 -3.65871 0
M  V30 1291 C 121.01 2.03977 -4.80823 0
M  V30 1292 H 122.704 0.908252 -2.85291 0
M  V30 1293 H 120.25 0.435462 -1.37258 0
M  V30 1294 H 122.203 3.33011 -2.58228 0
M  V30 1295 H 120.927 2.95132 -1.39874 0
M  V30 1296 H 119.586 1.79993 -3.19371 0
M  V30 1297 H 119.234 4.23046 -2.72105 0
M  V30 1298 H 118.934 3.85336 -4.4361 0
M  V30 1299 H 120.458 4.65205 -3.95495 0
M  V30 1300 H 121.872 2.67386 -5.07127 0
M  V30 1301 H 120.269 2.10397 -5.62008 0
M  V30 1302 H 121.339 0.992861 -4.74626 0
M  V30 1303 N 122.682 1.50554 0.465978 0
M  V30 1304 C 123.612 1.72722 1.57128 0
M  V30 1305 C 124.593 0.576294 1.6004 0
M  V30 1306 O 125.778 0.81598 1.76225 0
M  V30 1307 C 122.908 1.82605 2.95419 0
M  V30 1308 C 121.862 2.97835 3.07373 0
M  V30 1309 C 121.188 2.92867 4.47363 0
M  V30 1310 C 122.488 4.38265 2.84114 0
M  V30 1311 H 124.182 2.65267 1.38829 0
M  V30 1312 H 121.728 1.2765 0.666441 0
M  V30 1313 H 123.681 1.96698 3.72677 0
M  V30 1314 H 122.405 0.866858 3.14886 0
M  V30 1315 H 121.064 2.83401 2.3255 0
M  V30 1316 H 120.712 1.94783 4.63755 0
M  V30 1317 H 120.412 3.70227 4.56296 0
M  V30 1318 H 121.936 3.09015 5.26633 0
M  V30 1319 H 123.35 4.53198 3.51118 0
M  V30 1320 H 121.747 5.17115 3.04487 0
M  V30 1321 H 122.817 4.50281 1.7993 0
M  V30 1322 N 124.16 -0.719506 1.40217 0
M  V30 1323 C 125.408 -1.47641 1.3801 0
M  V30 1324 C 125.729 -1.94992 -0.018145 0
M  V30 1325 O 124.999 -1.70073 -0.972207 0
M  V30 1326 H 123.579 -0.547744 0.507923 0
M  V30 1327 H 126.241 -0.853187 1.75233 0
M  V30 1328 H 125.337 -2.35112 2.05253 0
M  V30 1329 N 125.638 -1.25649 -0.95132 0
M  V30 1330 C 126.57 -1.02112 -2.05197 0
M  V30 1331 C 127.583 0.0150571 -1.62793 0
M  V30 1332 O 128.772 -0.223874 -1.77091 0
M  V30 1333 C 125.872 -0.522361 -3.3485 0
M  V30 1334 C 125.045 -1.62546 -4.06076 0
M  V30 1335 C 124.104 -1.12649 -5.14001 0
M  V30 1336 O 123.13 -1.82156 -5.39266 0
M  V30 1337 N 124.332 0.03047 -5.80492 0
M  V30 1338 H 127.097 -1.96885 -2.25957 0
M  V30 1339 H 124.658 -1.16899 -1.1201 0
M  V30 1340 H 126.65 -0.172961 -4.0433 0
M  V30 1341 H 125.22 0.33151 -3.10837 0
M  V30 1342 H 124.44 -2.14628 -3.30649 0
M  V30 1343 H 125.728 -2.36644 -4.50419 0
M  V30 1344 H 125.126 0.611169 -5.62389 0
M  V30 1345 H 123.683 0.320875 -6.5101 0
M  V30 1346 N 127.117 1.15442 -1.07289 0
M  V30 1347 C 128.027 2.23786 -0.704057 0
M  V30 1348 C 129.043 1.7166 0.284413 0
M  V30 1349 O 130.219 2.00972 0.131205 0
M  V30 1350 C 127.284 3.46535 -0.106792 0
M  V30 1351 C 126.345 4.13654 -1.14842 0
M  V30 1352 C 125.578 5.30544 -0.57956 0
M  V30 1353 O 125.801 5.67187 0.604585 0
M  V30 1354 O 124.735 5.87154 -1.32414 0
M  V30 1355 H 128.561 2.57664 -1.60757 0
M  V30 1356 H 126.146 1.23152 -0.845803 0
M  V30 1357 H 128.028 4.20804 0.224048 0
M  V30 1358 H 126.703 3.14407 0.770049 0
M  V30 1359 H 125.61 3.4131 -1.5316 0
M  V30 1360 H 126.943 4.49861 -1.99714 0
M  V30 1361 N 128.595 0.856903 1.32268 0
M  V30 1362 C 129.844 0.457599 1.96441 0
M  V30 1363 C 130.157 -0.992426 1.68553 0
M  V30 1364 O 131.363 -1.49727 2.26482 0
M  V30 1365 C 129.819 0.767358 3.51624 0
M  V30 1366 C 129.427 2.23326 3.88367 0
M  V30 1367 C 131.171 0.435887 4.22256 0
M  V30 1368 C 129.078 2.48613 5.36606 0
M  V30 1369 H 128.008 0.167387 0.735185 0
M  V30 1370 H 130.659 1.048 1.5063 0
M  V30 1371 H 129.041 0.106367 3.95857 0
M  V30 1372 H 130.215 2.93623 3.55137 0
M  V30 1373 H 128.53 2.52948 3.30766 0
M  V30 1374 H 131.127 0.602202 5.31298 0
M  V30 1375 H 131.47 -0.622672 4.11617 0
M  V30 1376 H 132.003 1.05286 3.83614 0
M  V30 1377 H 128.742 3.53101 5.52268 0
M  V30 1378 H 128.262 1.82896 5.71235 0
M  V30 1379 H 129.941 2.32676 6.03714 0
M  V30 1380 N 130.073 -1.45103 0.615059 0
M  V30 1381 C 131.35 -1.95549 0.0448276 0
M  V30 1382 C 131.73 -1.55737 -1.4251 0
M  V30 1383 O 131.078 -0.823556 -2.13143 0
M  V30 1384 C 131.288 -3.48098 0.250785 0
M  V30 1385 C 132.636 -4.24384 0.135509 0
M  V30 1386 O 133.66 -3.55738 0.181299 0
M  V30 1387 O 132.519 -5.46493 0.0268878 0
M  V30 1388 H 129.613 -0.8264 -0.0314845 0
M  V30 1389 H 132.159 -1.55232 0.685642 0
M  V30 1390 H 130.931 -3.7007 1.27139 0
M  V30 1391 H 130.554 -3.95323 -0.424937 0
M  V30 1392 N 131.551 -0.354651 -1.53558 0
M  V30 1393 C 132.962 0.126902 -1.86268 0
M  V30 1394 C 133.313 1.49075 -1.27558 0
M  V30 1395 O 132.438 2.08105 -0.5934 0
M  V30 1396 C 133.033 0.237046 -3.3797 0
M  V30 1397 C 131.592 0.662842 -3.70518 0
M  V30 1398 C 130.739 -0.196652 -2.76602 0
M  V30 1399 H 133.69 -0.573849 -1.47962 0
M  V30 1400 H 133.711 1.06259 -3.65362 0
M  V30 1401 H 133.223 -0.755725 -3.80671 0
M  V30 1402 H 131.324 1.66424 -3.33367 0
M  V30 1403 H 131.437 0.445034 -4.77029 0
M  V30 1404 H 129.801 0.332763 -2.52517 0
M  V30 1405 H 130.584 -1.18676 -3.22135 0
M  V30 1406 N 133.029 1.57378 -0.0835403 0
M  V30 1407 C 133.959 2.1641 0.87686 0
M  V30 1408 C 134.94 1.09429 1.30228 0
M  V30 1409 O 136.125 1.37516 1.37124 0
M  V30 1410 C 133.255 2.73517 2.14022 0
M  V30 1411 C 132.209 3.85769 1.85381 0
M  V30 1412 C 131.535 4.29529 3.18448 0
M  V30 1413 C 132.835 5.09486 1.14984 0
M  V30 1414 H 134.529 2.96914 0.385059 0
M  V30 1415 H 132.075 1.42823 0.18377 0
M  V30 1416 H 134.028 3.13463 2.81636 0
M  V30 1417 H 132.752 1.90252 2.65465 0
M  V30 1418 H 131.411 3.46345 1.20169 0
M  V30 1419 H 131.059 3.43169 3.67755 0
M  V30 1420 H 130.759 5.05204 3.00071 0
M  V30 1421 H 132.283 4.72099 3.8724 0
M  V30 1422 H 133.697 5.46674 1.72687 0
M  V30 1423 H 132.094 5.90515 1.06826 0
M  V30 1424 H 133.164 4.84724 0.130749 0
M  V30 1425 N 134.507 -0.190092 1.56449 0
M  V30 1426 C 135.923 -0.54113 1.50146 0
M  V30 1427 C 136.123 -1.85603 0.784465 0
M  V30 1428 O 135.179 -2.5024 0.337051 0
M  V30 1429 C 136.492 -0.591241 2.9483 0
M  V30 1430 C 138.04 -0.679732 3.0553 0
M  V30 1431 C 138.515 -0.760908 4.51635 0
M  V30 1432 N 140.006 -0.824302 4.55806 0
M  V30 1433 C 140.741 -0.907365 5.66175 0
M  V30 1434 N 140.237 -0.952422 6.86222 0
M  V30 1435 N 142.03 -0.94494 5.541 0
M  V30 1436 H 134.181 0.67235 2.01478 0
M  V30 1437 H 136.444 0.240127 0.917084 0
M  V30 1438 H 136.15 0.305905 3.50367 0
M  V30 1439 H 136.024 -1.44422 3.48457 0
M  V30 1440 H 138.411 -1.56731 2.50039 0
M  V30 1441 H 138.492 0.199549 2.5502 0
M  V30 1442 H 138.136 0.122336 5.07753 0
M  V30 1443 H 138.066 -1.65606 4.99882 0
M  V30 1444 H 140.557 -0.798526 3.69367 0
M  V30 1445 H 140.87 -1.01645 7.66086 0
M  V30 1446 H 139.215 -0.921014 6.8887 0
M  V30 1447 H 142.406 -0.906612 4.59236 0
M  V30 1448 H 142.579 -1.00622 6.4014 0
M  V30 1449 N 135.985 -1.50799 -0.457987 0
M  V30 1450 C 136.933 -1.71162 -1.575 0
M  V30 1451 C 137.927 -0.577592 -1.59249 0
M  V30 1452 O 139.133 -0.758443 -1.63241 0
M  V30 1453 H 135.508 -0.540468 -0.522875 0
M  V30 1454 H 137.479 -2.64837 -1.37492 0
M  V30 1455 C 136.228 -1.83496 -2.95338 0
M  V30 1456 H 135.551 -2.70153 -2.94716 0
M  V30 1457 H 136.991 -2.01765 -3.72917 0
M  V30 1458 C 135.45 -0.589694 -3.31699 0
M  V30 1459 O 135.98 0.265163 -4.00824 0
M  V30 1460 N 134.186 -0.439845 -2.87252 0
M  V30 1461 H 133.733 -1.13655 -2.31172 0
M  V30 1462 H 133.691 0.392159 -3.11945 0
M  V30 1463 N 137.463 0.71206 -1.40597 0
M  V30 1464 C 138.709 1.47416 -1.39271 0
M  V30 1465 C 139.042 1.942 0.00388791 0
M  V30 1466 O 138.317 1.68403 0.973179 0
M  V30 1467 C 138.6 2.69774 -2.38525 0
M  V30 1468 C 138.453 2.28861 -3.87224 0
M  V30 1469 C 139.772 3.71939 -2.35264 0
M  V30 1470 H 136.891 0.534713 -0.5072 0
M  V30 1471 H 139.533 0.812375 -1.71757 0
M  V30 1472 H 137.683 3.26238 -2.10953 0
M  V30 1473 H 139.355 1.77852 -4.25636 0
M  V30 1474 H 137.598 1.60824 -4.02887 0
M  V30 1475 H 138.269 3.16584 -4.52193 0
M  V30 1476 H 140.745 3.25113 -2.59694 0
M  V30 1477 H 139.621 4.55186 -3.06753 0
M  V30 1478 H 139.882 4.20484 -1.36549 0
M  V30 1479 N 138.941 1.26152 0.944643 0
M  V30 1480 C 139.871 1.09902 2.06019 0
M  V30 1481 C 140.852 0.00519538 1.70099 0
M  V30 1482 O 142.037 0.176583 1.93396 0
M  V30 1483 C 139.167 0.727562 3.39594 0
M  V30 1484 C 138.121 1.77274 3.89561 0
M  V30 1485 C 137.447 1.25569 5.19747 0
M  V30 1486 C 138.747 3.17357 4.14827 0
M  V30 1487 H 140.441 2.03217 2.19871 0
M  V30 1488 H 137.987 0.978452 1.05652 0
M  V30 1489 H 139.94 0.600777 4.17095 0
M  V30 1490 H 138.664 -0.241287 3.25707 0
M  V30 1491 H 137.323 1.88814 3.14237 0
M  V30 1492 H 136.971 0.276783 5.02238 0
M  V30 1493 H 136.671 1.95433 5.54148 0
M  V30 1494 H 138.195 1.1415 5.99835 0
M  V30 1495 H 139.609 3.08914 4.82954 0
M  V30 1496 H 138.006 3.84781 4.60504 0
M  V30 1497 H 139.076 3.63673 3.20734 0
M  V30 1498 N 140.419 -1.14872 1.07899 0
M  V30 1499 C 141.665 -1.86064 0.806725 0
M  V30 1500 C 141.998 -1.82434 -0.665706 0
M  V30 1501 O 141.273 -1.25138 -1.48899 0
M  V30 1502 C 141.556 -3.34929 1.32267 0
M  V30 1503 C 141.409 -3.47161 2.86006 0
M  V30 1504 C 142.728 -4.29863 0.943717 0
M  V30 1505 H 139.847 -0.675591 0.294526 0
M  V30 1506 H 142.489 -1.34925 1.33773 0
M  V30 1507 H 140.639 -3.78611 0.870974 0
M  V30 1508 H 142.311 -3.12302 3.39507 0
M  V30 1509 H 140.554 -2.88539 3.23925 0
M  V30 1510 H 141.225 -4.51777 3.17177 0
M  V30 1511 H 143.701 -3.9417 1.33302 0
M  V30 1512 H 142.577 -5.32494 1.33198 0
M  V30 1513 H 142.838 -4.41846 -0.149796 0
M  V30 1514 N 141.898 -0.863906 -1.31812 0
M  V30 1515 C 143.126 -0.486111 -2.01108 0
M  V30 1516 C 143.541 0.919755 -1.64882 0
M  V30 1517 O 142.898 1.60162 -0.874893 0
M  V30 1518 C 142.949 -0.626435 -3.56031 0
M  V30 1519 O 142.67 -1.97693 -3.90959 0
M  V30 1520 C 144.171 -0.248857 -4.42601 0
M  V30 1521 H 141.391 -0.190052 -0.643523 0
M  V30 1522 H 143.935 -1.1634 -1.68182 0
M  V30 1523 H 142.09 0.00322717 -3.874 0
M  V30 1524 H 142.504 -1.98034 -4.85678 0
M  V30 1525 H 143.978 -0.398016 -5.50563 0
M  V30 1526 H 144.455 0.811489 -4.31638 0
M  V30 1527 H 145.061 -0.853971 -4.16638 0
M  V30 1528 N 143.376 1.44774 -0.622745 0
M  V30 1529 C 144.622 2.0242 -0.124083 0
M  V30 1530 C 144.955 1.4881 1.24777 0
M  V30 1531 O 144.23 0.668799 1.8264 0
M  V30 1532 C 144.513 3.59957 -0.101619 0
M  V30 1533 C 144.366 4.23867 -1.50521 0
M  V30 1534 C 145.685 4.36284 0.578272 0
M  V30 1535 H 142.804 0.735528 -0.0465645 0
M  V30 1536 H 145.446 1.72447 -0.797617 0
M  V30 1537 H 143.596 3.85623 0.471934 0
M  V30 1538 H 145.268 4.09336 -2.12701 0
M  V30 1539 H 143.511 3.81684 -2.06154 0
M  V30 1540 H 144.182 5.32843 -1.4416 0
M  V30 1541 H 146.658 4.16001 0.0906057 0
M  V30 1542 H 145.534 5.46004 0.563149 0
M  V30 1543 H 145.795 4.10271 1.64713 0
M  V30 1544 N 144.854 0.36279 1.53368 0
M  V30 1545 C 146.102 -0.227326 2.00817 0
M  V30 1546 C 146.423 -1.49511 1.25186 0
M  V30 1547 O 145.693 -1.92482 0.364348 0
M  V30 1548 H 144.273 -0.0869923 0.741917 0
M  V30 1549 H 146.935 0.488381 1.88682 0
M  V30 1550 H 146.031 -0.456273 3.08747 0
M  V30 1551 N 146.332 -1.57332 0.0918853 0
M  V30 1552 C 147.58 -1.93853 -0.571446 0
M  V30 1553 C 147.901 -0.974212 -1.6892 0
M  V30 1554 O 147.171 -0.0257254 -1.95883 0
M  V30 1555 H 145.751 -0.715666 -0.214082 0
M  V30 1556 H 148.413 -1.94287 0.154464 0
M  V30 1557 H 147.509 -2.96191 -0.983729 0
M  V30 1558 N 147.81 0.181792 -1.56548 0
M  V30 1559 C 149.04 0.914618 -1.85252 0
M  V30 1560 C 149.448 1.76791 -0.673914 0
M  V30 1561 O 148.791 1.80009 0.366416 0
M  V30 1562 C 148.853 1.85019 -3.08234 0
M  V30 1563 C 148.517 1.17754 -4.41569 0
M  V30 1564 C 149.514 0.548035 -5.17003 0
M  V30 1565 C 147.199 1.17742 -4.88305 0
M  V30 1566 C 149.193 -0.0726128 -6.37359 0
M  V30 1567 C 146.88 0.552946 -6.08593 0
M  V30 1568 C 147.878 -0.070978 -6.82963 0
M  V30 1569 O 147.566 -0.685635 -8.00971 0
M  V30 1570 H 147.298 0.271695 -0.618998 0
M  V30 1571 H 149.852 0.189944 -2.0452 0
M  V30 1572 H 148.082 2.61491 -2.84885 0
M  V30 1573 H 149.771 2.45195 -3.23472 0
M  V30 1574 H 150.537 0.540174 -4.81982 0
M  V30 1575 H 146.416 1.65246 -4.30366 0
M  V30 1576 H 149.96 -0.560213 -6.95347 0
M  V30 1577 H 145.857 0.558354 -6.43081 0
M  V30 1578 H 146.625 -0.58385 -8.16415 0
M  V30 1579 N 149.288 1.51039 0.449983 0
M  V30 1580 C 150.536 1.62759 1.19808 0
M  V30 1581 C 150.857 0.339981 1.92013 0
M  V30 1582 O 150.127 -0.643606 1.85026 0
M  V30 1583 H 148.707 0.599811 0.445237 0
M  V30 1584 H 151.369 1.87914 0.517138 0
M  V30 1585 H 150.465 2.44911 1.93455 0
M  V30 1586 N 150.766 -0.704594 1.40972 0
M  V30 1587 C 151.729 -1.80035 1.41845 0
M  V30 1588 C 152.729 -1.57774 0.310474 0
M  V30 1589 O 153.919 -1.64613 0.56992 0
M  V30 1590 C 151.051 -3.18284 1.22098 0
M  V30 1591 H 152.244 -1.80658 2.3938 0
M  V30 1592 H 149.797 -0.911329 1.26982 0
M  V30 1593 H 150.532 -3.23306 0.253672 0
M  V30 1594 H 150.317 -3.35843 2.02366 0
M  V30 1595 H 151.807 -3.98289 1.25522 0
M  V30 1596 N 152.244 -1.26651 -0.937939 0
M  V30 1597 C 153.174 -1.10993 -2.05433 0
M  V30 1598 C 154.155 -0.0142161 -1.70094 0
M  V30 1599 O 155.34 -0.186837 -1.93299 0
M  V30 1600 C 152.47 -0.745561 -3.39203 0
M  V30 1601 C 151.424 -1.79337 -3.88616 0
M  V30 1602 C 150.75 -1.28324 -5.19073 0
M  V30 1603 C 152.05 -3.19553 -4.13138 0
M  V30 1604 H 153.744 -2.0438 -2.1879 0
M  V30 1605 H 151.29 -0.984041 -1.05131 0
M  V30 1606 H 153.243 -0.622888 -4.16771 0
M  V30 1607 H 151.967 0.22401 -3.25831 0
M  V30 1608 H 150.626 -1.90477 -3.13231 0
M  V30 1609 H 150.274 -0.303414 -5.02084 0
M  V30 1610 H 149.974 -1.98369 -5.53103 0
M  V30 1611 H 151.498 -1.1733 -5.99221 0
M  V30 1612 H 152.912 -3.11471 -4.81309 0
M  V30 1613 H 151.309 -3.87218 -4.58457 0
M  V30 1614 H 152.379 -3.65368 -3.18801 0
M  V30 1615 N 153.722 1.14298 -1.08507 0
M  V30 1616 C 154.969 1.85359 -0.815373 0
M  V30 1617 C 155.297 1.83001 0.658865 0
M  V30 1618 O 154.552 1.25655 1.50031 0
M  V30 1619 C 154.851 3.33547 -1.28379 0
M  V30 1620 C 154.517 3.56093 -2.76602 0
M  V30 1621 C 153.179 3.61955 -3.17084 0
M  V30 1622 C 155.531 3.64834 -3.72217 0
M  V30 1623 C 152.859 3.74082 -4.51973 0
M  V30 1624 C 155.211 3.78487 -5.06883 0
M  V30 1625 C 153.875 3.82598 -5.46969 0
M  V30 1626 H 153.145 0.678276 -0.298366 0
M  V30 1627 H 155.792 1.35002 -1.35819 0
M  V30 1628 H 154.097 3.86191 -0.660593 0
M  V30 1629 H 155.794 3.86959 -1.05186 0
M  V30 1630 H 152.384 3.52179 -2.4427 0
M  V30 1631 H 156.568 3.59595 -3.42061 0
M  V30 1632 H 151.824 3.75527 -4.82483 0
M  V30 1633 H 155.998 3.84193 -5.80834 0
M  V30 1634 H 153.625 3.91747 -6.51489 0
M  V30 1635 N 155.201 0.870884 1.31352 0
M  V30 1636 C 156.429 0.49677 2.00848 0
M  V30 1637 C 156.844 -0.910998 1.65367 0
M  V30 1638 O 156.201 -1.59696 0.883374 0
M  V30 1639 C 156.252 0.645308 3.55694 0
M  V30 1640 O 155.973 1.99764 3.89905 0
M  V30 1641 C 157.474 0.272326 4.42463 0
M  V30 1642 H 154.694 0.193462 0.642506 0
M  V30 1643 H 157.238 1.1723 1.67563 0
M  V30 1644 H 155.393 0.0173176 3.87396 0
M  V30 1645 H 155.807 2.00607 4.84621 0
M  V30 1646 H 157.281 0.427208 5.50344 0
M  V30 1647 H 157.758 -0.788587 4.32062 0
M  V30 1648 H 158.364 0.876054 4.1618 0
M  V30 1649 N 156.679 -1.44442 0.630414 0
M  V30 1650 C 157.642 -2.29107 -0.0652523 0
M  V30 1651 C 158.642 -1.41002 -0.772995 0
M  V30 1652 O 159.832 -1.62881 -0.617692 0
M  V30 1653 C 156.964 -3.22564 -1.10296 0
M  V30 1654 H 158.157 -2.92103 0.679401 0
M  V30 1655 H 155.71 -1.51343 0.390517 0
M  V30 1656 H 156.445 -2.64416 -1.87762 0
M  V30 1657 H 156.23 -3.87491 -0.59941 0
M  V30 1658 H 157.72 -3.86167 -1.5895 0
M  V30 1659 N 158.157 -0.370918 -1.53173 0
M  V30 1660 C 159.404 0.217102 -2.01333 0
M  V30 1661 C 159.732 1.48338 -1.25802 0
M  V30 1662 O 158.987 1.92698 -0.34146 0
M  V30 1663 C 159.286 0.549696 -3.53147 0
M  V30 1664 C 158.952 -0.622872 -4.46577 0
M  V30 1665 C 157.614 -0.944595 -4.71838 0
M  V30 1666 C 159.966 -1.40819 -5.01816 0
M  V30 1667 C 157.294 -2.05351 -5.49589 0
M  V30 1668 C 159.646 -2.50757 -5.80778 0
M  V30 1669 C 158.31 -2.83458 -6.04324 0
M  V30 1670 H 157.58 0.0794431 -0.736729 0
M  V30 1671 H 160.227 -0.504481 -1.84736 0
M  V30 1672 H 158.532 1.35237 -3.6772 0
M  V30 1673 H 160.229 1.017 -3.87889 0
M  V30 1674 H 156.819 -0.36209 -4.27068 0
M  V30 1675 H 161.003 -1.17289 -4.82242 0
M  V30 1676 H 156.259 -2.3108 -5.6605 0
M  V30 1677 H 160.433 -3.12022 -6.22588 0
M  V30 1678 H 158.06 -3.69508 -6.64355 0
M  V30 1679 N 159.635 1.57281 -0.100228 0
M  V30 1680 C 160.567 2.11342 0.886972 0
M  V30 1681 C 161.58 1.05182 1.24261 0
M  V30 1682 O 162.769 1.32613 1.19483 0
M  V30 1683 C 159.869 2.5825 2.19454 0
M  V30 1684 C 159.042 3.88302 2.01346 0
M  V30 1685 C 158.101 4.21004 3.15661 0
M  V30 1686 O 157.127 4.9014 2.89398 0
M  V30 1687 N 158.329 3.76818 4.41575 0
M  V30 1688 H 161.094 2.96668 0.425216 0
M  V30 1689 H 158.655 1.61678 0.0847334 0
M  V30 1690 H 160.647 2.7717 2.94888 0
M  V30 1691 H 159.217 1.77907 2.57037 0
M  V30 1692 H 158.437 3.7848 1.10212 0
M  V30 1693 H 159.725 4.73375 1.8653 0
M  V30 1694 H 159.123 3.2102 4.65792 0
M  V30 1695 H 157.68 4.00882 5.13942 0
M  V30 1696 N 161.113 -0.173488 1.56642 0
M  V30 1697 C 162.076 -1.19859 1.95362 0
M  V30 1698 C 163.076 -1.37296 0.83704 0
M  V30 1699 O 164.266 -1.34739 1.10413 0
M  V30 1700 C 161.398 -2.56405 2.24654 0
M  V30 1701 H 162.591 -0.867062 2.87092 0
M  V30 1702 H 160.144 -0.415853 1.50666 0
M  V30 1703 H 160.879 -2.94576 1.35631 0
M  V30 1704 H 160.664 -2.45115 3.06041 0
M  V30 1705 H 162.154 -3.30287 2.5554 0
M  V30 1706 N 162.591 -1.51276 -0.441967 0
M  V30 1707 C 163.521 -1.752 -1.54361 0
M  V30 1708 C 164.502 -0.601682 -1.59103 0
M  V30 1709 O 165.687 -0.843913 -1.74905 0
M  V30 1710 C 162.817 -1.87282 -2.92477 0
M  V30 1711 C 161.771 -3.02687 -3.02596 0
M  V30 1712 C 161.097 -2.99947 -4.42647 0
M  V30 1713 C 162.397 -4.4273 -2.77106 0
M  V30 1714 H 164.091 -2.67442 -1.34592 0
M  V30 1715 H 161.637 -1.28694 -0.646048 0
M  V30 1716 H 163.59 -2.02602 -3.695 0
M  V30 1717 H 162.314 -0.916844 -3.13467 0
M  V30 1718 H 160.973 -2.87065 -2.28012 0
M  V30 1719 H 160.621 -2.02136 -4.60597 0
M  V30 1720 H 160.321 -3.77439 -4.50348 0
M  V30 1721 H 161.845 -3.17354 -5.2165 0
M  V30 1722 H 163.259 -4.58727 -3.43864 0
M  V30 1723 H 161.656 -5.21893 -2.96222 0
M  V30 1724 H 162.726 -4.53087 -1.72744 0
M  V30 1725 N 164.069 0.697108 -1.41344 0
M  V30 1726 C 165.315 1.4593 -1.40827 0
M  V30 1727 C 165.648 1.94193 -0.0167098 0
M  V30 1728 O 164.923 1.69425 0.955263 0
M  V30 1729 C 165.206 2.67229 -2.41373 0
M  V30 1730 C 165.059 2.24741 -3.8963 0
M  V30 1731 C 166.378 3.69423 -2.39196 0
M  V30 1732 H 163.497 0.529303 -0.512842 0
M  V30 1733 H 166.139 0.794112 -1.72609 0
M  V30 1734 H 164.289 3.23982 -2.14401 0
M  V30 1735 H 165.961 1.73327 -4.27499 0
M  V30 1736 H 164.204 1.56542 -4.0457 0
M  V30 1737 H 164.875 3.1177 -4.55525 0
M  V30 1738 H 167.351 3.2234 -2.63128 0
M  V30 1739 H 166.227 4.51907 -3.11563 0
M  V30 1740 H 166.488 4.19012 -1.41001 0
M  V30 1741 N 165.547 1.27147 0.931209 0
M  V30 1742 C 166.824 1.0401 1.65654 0
M  V30 1743 C 167.204 -0.426297 2.06751 0
M  V30 1744 O 166.552 -1.40879 1.79904 0
M  V30 1745 C 166.762 1.99834 2.86125 0
M  V30 1746 C 168.11 2.29007 3.57549 0
M  V30 1747 O 169.134 1.97779 2.96246 0
M  V30 1748 O 167.993 2.82222 4.67989 0
M  V30 1749 H 165.087 0.396239 0.725895 0
M  V30 1750 H 167.633 1.38397 0.982056 0
M  V30 1751 H 166.405 2.98744 2.52721 0
M  V30 1752 H 166.028 1.65987 3.61295 0
M  V30 1753 N 167.025 -1.13721 1.09112 0
M  V30 1754 C 167.935 -2.22638 0.73957 0
M  V30 1755 C 168.951 -1.72091 -0.257068 0
M  V30 1756 O 170.127 -2.01155 -0.0992154 0
M  V30 1757 C 167.192 -3.46322 0.16191 0
M  V30 1758 C 166.253 -4.11775 1.21408 0
M  V30 1759 C 165.486 -5.29555 0.663891 0
M  V30 1760 O 165.709 -5.68077 -0.514274 0
M  V30 1761 O 164.643 -5.84973 1.41738 0
M  V30 1762 H 168.469 -2.55074 1.64836 0
M  V30 1763 H 166.054 -1.21791 0.865289 0
M  V30 1764 H 167.936 -4.21107 -0.157073 0
M  V30 1765 H 166.611 -3.15593 -0.719932 0
M  V30 1766 H 165.518 -3.3883 1.58571 0
M  V30 1767 H 166.851 -4.46627 2.06845 0
M  V30 1768 N 168.503 -0.877838 -1.30888 0
M  V30 1769 C 169.751 -0.491723 -1.96027 0
M  V30 1770 C 170.072 0.960827 -1.69685 0
M  V30 1771 O 169.342 1.67462 -1.01654 0
M  V30 1772 H 167.922 -0.17885 -0.725273 0
M  V30 1773 H 170.584 -1.11935 -1.59551 0
M  V30 1774 H 169.68 -0.656016 -3.05128 0
M  V30 1775 N 169.982 1.44106 -0.638065 0
M  V30 1776 C 171.259 1.95453 -0.0759321 0
M  V30 1777 C 171.639 1.57984 1.40015 0
M  V30 1778 O 170.987 0.857361 2.11806 0
M  V30 1779 C 171.197 3.47655 -0.306132 0
M  V30 1780 C 172.545 4.24114 -0.203008 0
M  V30 1781 O 173.569 3.55405 -0.237871 0
M  V30 1782 O 172.428 5.46381 -0.113827 0
M  V30 1783 H 169.522 0.826797 0.0183332 0
M  V30 1784 H 172.068 1.54122 -0.710251 0
M  V30 1785 H 170.84 3.68 -1.3301 0
M  V30 1786 H 170.463 3.95949 0.361991 0
M  V30 1787 N 171.46 0.379036 1.52974 0
M  V30 1788 C 172.37 -0.468639 2.29872 0
M  V30 1789 C 173.386 -1.08067 1.36373 0
M  V30 1790 O 174.562 -1.08871 1.69438 0
M  V30 1791 C 171.627 -1.58594 3.083 0
M  V30 1792 C 170.688 -1.00007 4.17489 0
M  V30 1793 C 169.921 -2.06413 4.92168 0
M  V30 1794 O 170.144 -3.27751 4.66835 0
M  V30 1795 O 169.078 -1.68717 5.7777 0
M  V30 1796 H 172.904 0.157508 3.03291 0
M  V30 1797 H 170.489 0.143035 1.48714 0
M  V30 1798 H 172.371 -2.23525 3.57232 0
M  V30 1799 H 171.046 -2.19724 2.37703 0
M  V30 1800 H 169.953 -0.314299 3.72777 0
M  V30 1801 H 171.286 -0.433135 4.90291 0
M  V30 1802 N 172.938 -1.57226 0.108567 0
M  V30 1803 C 174.184 -1.95121 -0.552761 0
M  V30 1804 C 174.517 -0.991345 -1.66991 0
M  V30 1805 O 173.792 -0.0267211 -1.94482 0
M  V30 1806 C 174.075 -3.43039 -1.09528 0
M  V30 1807 C 173.928 -4.49797 0.0177332 0
M  V30 1808 C 175.247 -3.92567 -1.98945 0
M  V30 1809 H 172.366 -0.709496 -0.199461 0
M  V30 1810 H 175.008 -1.89126 0.182011 0
M  V30 1811 H 173.158 -3.48279 -1.72146 0
M  V30 1812 H 174.83 -4.56661 0.652584 0
M  V30 1813 H 173.073 -4.284 0.682309 0
M  V30 1814 H 173.744 -5.50528 -0.402919 0
M  V30 1815 H 176.22 -3.89565 -1.46214 0
M  V30 1816 H 175.096 -4.96605 -2.33827 0
M  V30 1817 H 175.357 -3.32648 -2.91201 0
M  V30 1818 N 174.416 0.165178 -1.56732 0
M  V30 1819 C 175.665 0.879143 -1.81532 0
M  V30 1820 C 175.978 1.83144 -0.686842 0
M  V30 1821 O 177.184 2.58823 -0.819944 0
M  V30 1822 C 175.64 1.61388 -3.21686 0
M  V30 1823 C 175.248 0.704904 -4.4242 0
M  V30 1824 C 176.992 2.3157 -3.55774 0
M  V30 1825 C 174.899 1.44022 -5.73595 0
M  V30 1826 H 173.829 0.332033 -0.676957 0
M  V30 1827 H 176.48 0.132008 -1.83025 0
M  V30 1828 H 174.862 2.40599 -3.14529 0
M  V30 1829 H 176.036 -0.0506815 -4.60772 0
M  V30 1830 H 174.351 0.112419 -4.16248 0
M  V30 1831 H 176.948 2.8719 -4.51028 0
M  V30 1832 H 177.291 3.07201 -2.8095 0
M  V30 1833 H 177.824 1.59297 -3.64513 0
M  V30 1834 H 174.563 0.72612 -6.51466 0
M  V30 1835 H 174.083 2.16898 -5.5921 0
M  V30 1836 H 175.762 1.98606 -6.15764 0
M  V30 1837 N 175.894 1.51508 0.433938 0
M  V30 1838 C 177.143 1.63578 1.18005 0
M  V30 1839 C 177.456 0.359514 1.92268 0
M  V30 1840 O 178.662 0.359632 2.69108 0
M  V30 1841 C 177.118 2.88901 2.14626 0
M  V30 1842 C 176.726 4.23544 1.45995 0
M  V30 1843 C 178.47 3.10328 2.89649 0
M  V30 1844 C 176.377 5.40014 2.4112 0
M  V30 1845 H 175.307 0.609277 0.444182 0
M  V30 1846 H 177.958 1.77978 0.446773 0
M  V30 1847 H 176.34 2.68142 2.91403 0
M  V30 1848 H 177.514 4.54696 0.747532 0
M  V30 1849 H 175.829 4.08021 0.831115 0
M  V30 1850 H 178.426 3.94518 3.60915 0
M  V30 1851 H 178.769 2.23544 3.51189 0
M  V30 1852 H 179.302 3.31443 2.19978 0
M  V30 1853 H 176.041 6.29068 1.84264 0
M  V30 1854 H 175.561 5.13233 3.10406 0
M  V30 1855 H 177.24 5.72099 3.02177 0
M  V30 1856 N 177.372 -0.689602 1.41712 0
M  V30 1857 C 178.621 -1.44534 1.40686 0
M  V30 1858 C 178.934 -1.95588 0.0213352 0
M  V30 1859 O 180.14 -2.71271 -0.111534 0
M  V30 1860 C 178.596 -2.61387 2.47396 0
M  V30 1861 C 178.204 -2.17094 3.91885 0
M  V30 1862 C 179.948 -3.38986 2.55517 0
M  V30 1863 C 177.855 -3.3094 4.90135 0
M  V30 1864 H 176.785 -0.542925 0.52321 0
M  V30 1865 H 179.436 -0.748054 1.6756 0
M  V30 1866 H 177.818 -3.33412 2.13664 0
M  V30 1867 H 178.992 -1.52318 4.34897 0
M  V30 1868 H 177.307 -1.52473 3.8748 0
M  V30 1869 H 179.904 -4.23747 3.26102 0
M  V30 1870 H 180.247 -3.84578 1.59391 0
M  V30 1871 H 180.78 -2.74021 2.8837 0
M  V30 1872 H 177.519 -2.90355 5.87685 0
M  V30 1873 H 177.039 -3.94546 4.51767 0
M  V30 1874 H 178.718 -3.9663 5.11169 0
M  V30 1875 N 178.85 -1.27639 -0.924453 0
M  V30 1876 C 179.76 -1.12466 -2.05885 0
M  V30 1877 C 180.776 -0.053869 -1.73917 0
M  V30 1878 O 181.952 -0.261012 -1.99702 0
M  V30 1879 C 179.017 -0.776768 -3.37886 0
M  V30 1880 C 178.078 -1.92878 -3.83532 0
M  V30 1881 C 177.311 -1.59739 -5.09234 0
M  V30 1882 O 177.534 -0.506782 -5.68144 0
M  V30 1883 O 176.468 -2.43761 -5.50331 0
M  V30 1884 H 180.294 -2.07671 -2.21599 0
M  V30 1885 H 177.879 -1.06857 -1.04413 0
M  V30 1886 H 179.761 -0.596229 -4.17161 0
M  V30 1887 H 178.436 0.145732 -3.23372 0
M  V30 1888 H 177.343 -2.1644 -3.0513 0
M  V30 1889 H 178.676 -2.8316 -4.02593 0
M  V30 1890 N 180.328 1.1314 -1.09713 0
M  V30 1891 C 181.739 1.66029 -0.853885 0
M  V30 1892 C 182.09 1.86241 0.617142 0
M  V30 1893 O 181.215 1.5834 1.47503 0
M  V30 1894 C 181.81 3.01599 -1.5435 0
M  V30 1895 C 180.369 3.51467 -1.34714 0
M  V30 1896 C 179.516 2.26648 -1.59769 0
M  V30 1897 H 182.467 0.970226 -1.25588 0
M  V30 1898 H 182.488 3.67709 -0.978267 0
M  V30 1899 H 182 2.86856 -2.6141 0
M  V30 1900 H 180.101 3.71408 -0.297838 0
M  V30 1901 H 180.214 4.314 -2.08401 0
M  V30 1902 H 178.578 2.33385 -1.01998 0
M  V30 1903 H 179.361 2.14467 -2.68065 0
M  V30 1904 N 181.806 0.884767 1.30421 0
M  V30 1905 C 183.053 0.503105 1.96151 0
M  V30 1906 C 183.381 -0.947676 1.69851 0
M  V30 1907 O 182.636 -1.68467 0.995861 0
M  V30 1908 C 182.935 0.724318 3.49983 0
M  V30 1909 C 182.601 2.15015 3.96332 0
M  V30 1910 C 181.263 2.54005 4.08699 0
M  V30 1911 C 183.615 3.07936 4.20505 0
M  V30 1912 C 180.943 3.85128 4.42599 0
M  V30 1913 C 183.295 4.3859 4.55874 0
M  V30 1914 C 181.959 4.77474 4.66449 0
M  V30 1915 H 181.229 0.184099 0.717766 0
M  V30 1916 H 183.876 1.12058 1.55291 0
M  V30 1917 H 182.181 0.0238086 3.91793 0
M  V30 1918 H 183.878 0.408617 3.98913 0
M  V30 1919 H 180.468 1.8375 3.87213 0
M  V30 1920 H 184.652 2.79033 4.10431 0
M  V30 1921 H 179.908 4.14996 4.48986 0
M  V30 1922 H 184.082 5.10629 4.7353 0
M  V30 1923 H 181.709 5.79115 4.92473 0
M  V30 1924 N 183.284 -1.43765 0.645699 0
M  V30 1925 C 184.531 -2.01898 0.15604 0
M  V30 1926 C 184.859 -1.50887 -1.22733 0
M  V30 1927 O 184.114 -0.689271 -1.8316 0
M  V30 1928 C 184.413 -3.57238 0.107679 0
M  V30 1929 C 184.079 -4.27564 1.43178 0
M  V30 1930 C 182.741 -4.46492 1.7944 0
M  V30 1931 C 185.093 -4.67454 2.30513 0
M  V30 1932 C 182.421 -5.02573 3.02716 0
M  V30 1933 C 184.773 -5.24901 3.53074 0
M  V30 1934 C 183.437 -5.42046 3.89541 0
M  V30 1935 H 182.707 -0.738797 0.057099 0
M  V30 1936 H 185.354 -1.72341 0.834912 0
M  V30 1937 H 183.659 -3.86293 -0.654618 0
M  V30 1938 H 185.356 -3.99965 -0.287938 0
M  V30 1939 H 181.946 -4.13171 1.13963 0
M  V30 1940 H 186.13 -4.5253 2.0379 0
M  V30 1941 H 181.386 -5.14033 3.31028 0
M  V30 1942 H 185.56 -5.54758 4.20971 0
M  V30 1943 H 183.187 -5.85268 4.85145 0
M  V30 1944 N 184.763 -0.387143 -1.52771 0
M  V30 1945 C 186.04 0.253197 -1.93954 0
M  V30 1946 C 186.42 1.64545 -1.32243 0
M  V30 1947 O 185.768 2.23191 -0.489699 0
M  V30 1948 C 185.978 0.281722 -3.47861 0
M  V30 1949 C 187.326 0.511715 -4.21505 0
M  V30 1950 O 188.35 0.362023 -3.54356 0
M  V30 1951 O 187.209 0.804847 -5.40541 0
M  V30 1952 H 184.303 0.156845 -0.811991 0
M  V30 1953 H 186.849 -0.441494 -1.63856 0
M  V30 1954 H 185.621 -0.693571 -3.85104 0
M  V30 1955 H 185.244 1.02142 -3.84256 0
M  V30 1956 N 186.241 1.57166 -0.116904 0
M  V30 1957 C 187.481 1.97008 0.544715 0
M  V30 1958 C 187.845 0.998713 1.63981 0
M  V30 1959 O 189.046 1.28644 2.36018 0
M  V30 1960 C 187.317 3.41145 1.06559 0
M  V30 1961 S 188.876 4.02998 1.73603 0
M  V30 1962 H 185.694 0.688587 0.177112 0
M  V30 1963 H 188.296 1.94459 -0.201487 0
M  V30 1964 H 187 4.09592 0.257374 0
M  V30 1965 H 186.531 3.4734 1.84712 0
M  V30 1966 H 188.546 3.93585 3.02168 0
M  V30 1967 N 187.719 -0.156864 1.56817 0
M  V30 1968 C 188.949 -0.885031 1.86684 0
M  V30 1969 C 189.357 -1.75696 0.701954 0
M  V30 1970 O 188.7 -1.80569 -0.337732 0
M  V30 1971 C 188.762 -1.80092 3.11138 0
M  V30 1972 C 188.426 -1.10714 4.43386 0
M  V30 1973 C 189.423 -0.465714 5.1781 0
M  V30 1974 C 187.108 -1.09959 4.90117 0
M  V30 1975 C 189.102 0.174002 6.37162 0
M  V30 1976 C 186.789 -0.456055 6.09396 0
M  V30 1977 C 187.787 0.179622 6.82764 0
M  V30 1978 O 187.475 0.812975 7.99779 0
M  V30 1979 H 187.207 -0.261813 0.623242 0
M  V30 1980 H 189.761 -0.157383 2.04796 0
M  V30 1981 H 187.991 -2.56926 2.89009 0
M  V30 1982 H 189.68 -2.40018 3.27332 0
M  V30 1983 H 190.446 -0.463427 4.82781 0
M  V30 1984 H 186.325 -1.58378 4.3294 0
M  V30 1985 H 189.869 0.670765 6.94368 0
M  V30 1986 H 185.766 -0.455975 6.43888 0
M  V30 1987 H 186.534 0.71366 8.15383 0
M  V30 1988 N 189.197 -1.51736 -0.425897 0
M  V30 1989 C 190.107 -1.76738 -1.54275 0
M  V30 1990 C 191.123 -0.65211 -1.61318 0
M  V30 1991 O 192.299 -0.935654 -1.78346 0
M  V30 1992 C 189.364 -1.89755 -2.90162 0
M  V30 1993 C 188.425 -3.13633 -2.93143 0
M  V30 1994 C 187.658 -3.2602 -4.22548 0
M  V30 1995 O 187.881 -2.44067 -5.15546 0
M  V30 1996 O 186.815 -4.19071 -4.32046 0
M  V30 1997 H 190.641 -2.71502 -1.36089 0
M  V30 1998 H 188.226 -1.36376 -0.610069 0
M  V30 1999 H 190.108 -2.00236 -3.70788 0
M  V30 2000 H 188.783 -0.981785 -3.08452 0
M  V30 2001 H 187.69 -3.08622 -2.11431 0
M  V30 2002 H 189.023 -4.04936 -2.798 0
M  V30 2003 N 190.675 0.682077 -1.42076 0
M  V30 2004 C 192.086 1.26246 -1.37546 0
M  V30 2005 C 192.437 1.96092 -0.0651481 0
M  V30 2006 O 191.562 1.99587 0.836297 0
M  V30 2007 C 192.157 2.29594 -2.49143 0
M  V30 2008 C 190.716 2.83175 -2.47969 0
M  V30 2009 C 189.863 1.57395 -2.28303 0
M  V30 2010 H 192.814 0.475937 -1.51395 0
M  V30 2011 H 192.835 3.11175 -2.18976 0
M  V30 2012 H 192.347 1.78729 -3.44496 0
M  V30 2013 H 190.448 3.3818 -1.56413 0
M  V30 2014 H 190.561 3.32687 -3.44755 0
M  V30 2015 H 188.925 1.83699 -1.76428 0
M  V30 2016 H 189.708 1.08507 -3.25701 0
M  V30 2017 N 192.153 1.28127 0.917671 0
M  V30 2018 C 193.086 1.06039 2.02067 0
M  V30 2019 C 194.064 -0.0223285 1.62585 0
M  V30 2020 O 195.248 0.124823 1.88086 0
M  V30 2021 C 192.375 0.610596 3.33151 0
M  V30 2022 C 191.421 1.68937 3.91615 0
M  V30 2023 S 192.254 3.28437 4.22953 0
M  V30 2024 C 193.41 2.85283 5.57103 0
M  V30 2025 H 193.643 1.99425 2.20493 0
M  V30 2026 H 191.176 1.12071 1.06205 0
M  V30 2027 H 193.134 0.357778 4.08938 0
M  V30 2028 H 191.795 -0.303364 3.12632 0
M  V30 2029 H 190.988 1.32619 4.86239 0
M  V30 2030 H 190.59 1.89478 3.2245 0
M  V30 2031 H 192.882 2.3121 6.36827 0
M  V30 2032 H 193.825 3.7869 5.98331 0
M  V30 2033 H 194.233 2.24118 5.18104 0
M  V30 2034 N 193.631 -1.12557 1.10312 0
M  V30 2035 C 194.859 -1.87864 0.866873 0
M  V30 2036 C 195.274 -1.79588 -0.582557 0
M  V30 2037 O 194.631 -1.16887 -1.40156 0
M  V30 2038 C 194.682 -3.37125 1.30496 0
M  V30 2039 O 194.403 -3.45201 2.69755 0
M  V30 2040 C 195.904 -4.29373 1.10243 0
M  V30 2041 H 193.124 -0.594452 0.311236 0
M  V30 2042 H 195.668 -1.42429 1.46745 0
M  V30 2043 H 193.823 -3.80109 0.748081 0
M  V30 2044 H 194.237 -4.38056 2.88457 0
M  V30 2045 H 195.711 -5.32394 1.45811 0
M  V30 2046 H 196.188 -4.39181 0.0409492 0
M  V30 2047 H 196.794 -3.92169 1.64571 0
M  V30 2048 N 195.109 -0.891671 -1.2995 0
M  V30 2049 C 196.042 -0.307994 -2.26112 0
M  V30 2050 C 197.02 0.575262 -1.52084 0
M  V30 2051 O 198.204 0.523864 -1.81074 0
M  V30 2052 C 195.331 0.561734 -3.34009 0
M  V30 2053 C 194.377 -0.253107 -4.25748 0
M  V30 2054 S 195.21 -1.64572 -5.09584 0
M  V30 2055 C 196.366 -0.782699 -6.20987 0
M  V30 2056 H 196.599 -1.12309 -2.75271 0
M  V30 2057 H 194.132 -0.691509 -1.38049 0
M  V30 2058 H 196.09 1.05777 -3.96638 0
M  V30 2059 H 194.751 1.35099 -2.83561 0
M  V30 2060 H 193.944 0.410908 -5.02322 0
M  V30 2061 H 193.546 -0.682004 -3.67729 0
M  V30 2062 H 195.838 -0.00257476 -6.775 0
M  V30 2063 H 196.781 -1.52026 -6.91588 0
M  V30 2064 H 197.189 -0.340638 -5.63471 0
M  V30 2065 N 196.587 1.43421 -0.653314 0
M  V30 2066 C 197.52 2.2803 0.0879804 0
M  V30 2067 C 198.498 1.39833 0.82979 0
M  V30 2068 O 199.682 1.69275 0.829341 0
M  V30 2069 C 196.809 3.19247 1.13132 0
M  V30 2070 C 195.855 4.23704 0.487546 0
M  V30 2071 S 196.688 5.30377 -0.738961 0
M  V30 2072 C 197.844 6.25162 0.30384 0
M  V30 2073 H 198.077 2.90554 -0.629739 0
M  V30 2074 H 195.61 1.47934 -0.442156 0
M  V30 2075 H 197.568 3.72346 1.72827 0
M  V30 2076 H 196.229 2.55901 1.82136 0
M  V30 2077 H 195.422 4.87631 1.27407 0
M  V30 2078 H 195.024 3.73983 -0.0352915 0
M  V30 2079 H 197.316 6.67321 1.17 0
M  V30 2080 H 198.259 7.07463 -0.300402 0
M  V30 2081 H 198.667 5.60864 0.63969 0
M  V30 2082 N 198.065 0.39524 1.52563 0
M  V30 2083 C 199.028 -0.425001 2.25225 0
M  V30 2084 C 200.028 -0.985266 1.27079 0
M  V30 2085 O 201.218 -0.866332 1.5113 0
M  V30 2086 C 198.35 -1.59686 3.01186 0
M  V30 2087 H 199.543 0.211233 2.99155 0
M  V30 2088 H 197.096 0.147472 1.55603 0
M  V30 2089 H 197.831 -2.27035 2.31572 0
M  V30 2090 H 197.616 -1.20176 3.73229 0
M  V30 2091 H 199.106 -2.17743 3.5634 0
M  V30 2092 N 199.544 -1.57102 0.125237 0
M  V30 2093 C 200.792 -1.95021 -0.530198 0
M  V30 2094 C 201.113 -1.00982 -1.66816 0
M  V30 2095 O 200.383 -0.0672693 -1.95784 0
M  V30 2096 H 198.963 -0.720046 -0.198853 0
M  V30 2097 H 201.625 -1.93916 0.19564 0
M  V30 2098 H 200.721 -2.98211 -0.920681 0
M  V30 2099 N 201.022 0.148545 -1.56898 0
M  V30 2100 C 202.27 0.859717 -1.82902 0
M  V30 2101 C 202.591 1.81775 -0.70588 0
M  V30 2102 O 201.861 1.93994 0.272586 0
M  V30 2103 H 200.441 0.320469 -0.674766 0
M  V30 2104 H 203.103 0.142918 -1.94375 0
M  V30 2105 H 202.199 1.4229 -2.77777 0
M  V30 2106 N 202.5 1.5196 0.417844 0
M  V30 2107 C 203.916 1.40569 0.755816 0
M  V30 2108 C 204.116 0.503316 1.95113 0
M  V30 2109 O 203.172 -0.0341925 2.52477 0
M  V30 2110 C 204.485 2.82947 1.01791 0
M  V30 2111 C 206.033 2.92231 1.12116 0
M  V30 2112 C 206.508 4.35559 1.41608 0
M  V30 2113 N 207.999 4.38753 1.48491 0
M  V30 2114 C 208.734 5.46705 1.7292 0
M  V30 2115 N 208.23 6.64788 1.95011 0
M  V30 2116 N 210.023 5.34209 1.74863 0
M  V30 2117 H 202.174 2.09168 -0.369098 0
M  V30 2118 H 204.437 0.942409 -0.102809 0
M  V30 2119 H 204.143 3.5106 0.212081 0
M  V30 2120 H 204.017 3.23462 1.94042 0
M  V30 2121 H 206.404 2.24304 1.9176 0
M  V30 2122 H 206.485 2.55185 0.177225 0
M  V30 2123 H 206.129 5.04042 0.624848 0
M  V30 2124 H 206.059 4.70133 2.37239 0
M  V30 2125 H 208.55 3.5363 1.33244 0
M  V30 2126 H 208.863 7.42845 2.13076 0
M  V30 2127 H 207.208 6.67869 1.92293 0
M  V30 2128 H 210.399 4.40937 1.57137 0
M  V30 2129 H 210.572 6.18415 1.93563 0
M  V30 2130 N 203.978 -0.674533 1.42435 0
M  V30 2131 C 205.389 -1.25514 1.38214 0
M  V30 2132 C 205.74 -1.96055 0.0755464 0
M  V30 2133 O 204.865 -2.00028 -0.8257 0
M  V30 2134 C 205.46 -2.28269 2.50357 0
M  V30 2135 C 204.019 -2.81856 2.49467 0
M  V30 2136 C 203.166 -1.56182 2.29134 0
M  V30 2137 H 206.117 -0.467902 1.51646 0
M  V30 2138 H 206.138 -3.10009 2.20624 0
M  V30 2139 H 205.65 -1.769 3.45439 0
M  V30 2140 H 203.751 -3.37346 1.58204 0
M  V30 2141 H 203.864 -3.30854 3.46515 0
M  V30 2142 H 202.228 -1.82761 1.774 0
M  V30 2143 H 203.011 -1.06778 3.26272 0
M  V30 2144 N 205.456 -1.28612 -0.910864 0
M  V30 2145 C 206.702 -1.16106 -1.66274 0
M  V30 2146 C 207.035 0.289113 -1.92036 0
M  V30 2147 O 206.31 1.21 -1.52281 0
M  V30 2148 C 206.593 -1.96309 -3.01885 0
M  V30 2149 C 206.446 -3.49405 -2.8326 0
M  V30 2150 C 207.765 -1.78076 -4.02463 0
M  V30 2151 H 204.884 -0.423152 -0.603417 0
M  V30 2152 H 207.526 -1.57961 -1.05586 0
M  V30 2153 H 205.676 -1.60742 -3.53687 0
M  V30 2154 H 207.348 -3.94894 -2.38446 0
M  V30 2155 H 205.591 -3.74893 -2.18261 0
M  V30 2156 H 206.262 -4.00784 -3.79574 0
M  V30 2157 H 208.738 -2.0912 -3.59733 0
M  V30 2158 H 207.614 -2.36561 -4.95308 0
M  V30 2159 H 207.875 -0.733008 -4.35981 0
M  V30 2160 N 206.934 1.1197 -1.10907 0
M  V30 2161 C 208.181 1.83588 -0.854507 0
M  V30 2162 C 208.509 1.84357 0.6199 0
M  V30 2163 O 207.764 1.28809 1.47332 0
M  V30 2164 C 208.063 3.30749 -1.35425 0
M  V30 2165 C 207.729 3.50146 -2.84093 0
M  V30 2166 C 206.391 3.55148 -3.2469 0
M  V30 2167 C 208.743 3.56857 -3.79872 0
M  V30 2168 C 206.071 3.6441 -4.59806 0
M  V30 2169 C 208.423 3.6765 -5.14797 0
M  V30 2170 C 207.087 3.7091 -5.54961 0
M  V30 2171 H 206.357 0.671795 -0.312686 0
M  V30 2172 H 209.004 1.32091 -1.38652 0
M  V30 2173 H 207.309 3.84703 -0.742361 0
M  V30 2174 H 209.006 3.8464 -1.1337 0
M  V30 2175 H 205.596 3.46919 -2.51685 0
M  V30 2176 H 209.78 3.52258 -3.49611 0
M  V30 2177 H 205.036 3.65208 -4.9034 0
M  V30 2178 H 209.21 3.71786 -5.88853 0
M  V30 2179 H 206.837 3.7784 -6.59652 0
M  V30 2180 N 208.412 0.89855 1.29475 0
M  V30 2181 C 209.658 0.524658 1.95896 0
M  V30 2182 C 209.991 -0.926468 1.70676 0
M  V30 2183 O 209.266 -1.65665 1.01908 0
M  V30 2184 C 209.549 0.81633 3.50725 0
M  V30 2185 C 209.402 2.31907 3.85408 0
M  V30 2186 C 210.721 0.302038 4.39062 0
M  V30 2187 H 207.84 0.19209 0.711527 0
M  V30 2188 H 210.482 1.12502 1.53112 0
M  V30 2189 H 208.632 0.305369 3.87298 0
M  V30 2190 H 210.304 2.89949 3.58786 0
M  V30 2191 H 208.547 2.78027 3.32992 0
M  V30 2192 H 209.218 2.47373 4.93468 0
M  V30 2193 H 211.694 0.739551 4.09475 0
M  V30 2194 H 210.57 0.535331 5.46283 0
M  V30 2195 H 210.831 -0.797216 4.34853 0
M  V30 2196 N 209.89 -1.43072 0.660911 0
M  V30 2197 C 211.115 -2.06584 0.183805 0
M  V30 2198 C 211.54 -1.49257 -1.14472 0
M  V30 2199 O 210.898 -0.605528 -1.70889 0
M  V30 2200 C 210.946 -3.60418 0.114434 0
M  V30 2201 O 210.05 -4.01981 -0.921137 0
M  V30 2202 H 209.391 -0.656669 0.0983994 0
M  V30 2203 H 211.921 -1.83447 0.906006 0
M  V30 2204 H 211.931 -4.07946 -0.0663394 0
M  V30 2205 H 210.606 -4.01519 1.08422 0
M  V30 2206 H 209.183 -3.66029 -0.71253 0
M  V30 2207 N 211.368 -0.403325 -1.52352 0
M  V30 2208 C 212.298 0.416205 -2.29761 0
M  V30 2209 C 213.279 1.05123 -1.33728 0
M  V30 2210 O 214.464 1.06134 -1.62632 0
M  V30 2211 C 211.594 1.53624 -3.11475 0
M  V30 2212 C 210.548 1.02653 -4.15507 0
M  V30 2213 C 209.874 2.23971 -4.85532 0
M  V30 2214 C 211.174 0.08463 -5.22231 0
M  V30 2215 H 212.868 -0.229701 -2.98518 0
M  V30 2216 H 210.414 -0.111913 -1.43564 0
M  V30 2217 H 212.367 2.1165 -3.64393 0
M  V30 2218 H 211.091 2.20994 -2.40477 0
M  V30 2219 H 209.75 0.46871 -3.63591 0
M  V30 2220 H 209.398 2.89883 -4.11068 0
M  V30 2221 H 209.098 1.90521 -5.55856 0
M  V30 2222 H 210.622 2.82614 -5.41259 0
M  V30 2223 H 212.036 0.573509 -5.70424 0
M  V30 2224 H 210.433 -0.160783 -5.99885 0
M  V30 2225 H 211.503 -0.86237 -4.7717 0
M  V30 2226 N 212.846 1.57033 -0.133567 0
M  V30 2227 C 213.793 2.16074 0.811208 0
M  V30 2228 C 214.763 1.08979 1.2535 0
M  V30 2229 O 215.948 1.36958 1.32843 0
M  V30 2230 C 213.088 2.77595 2.05024 0
M  V30 2231 C 212.201 3.99042 1.65498 0
M  V30 2232 C 211.336 4.48603 2.84479 0
M  V30 2233 C 210.375 5.62547 2.41262 0
M  V30 2234 N 209.512 6.06787 3.53206 0
M  V30 2235 H 214.352 2.96477 0.300906 0
M  V30 2236 H 211.889 1.46462 0.136822 0
M  V30 2237 H 213.847 3.11402 2.77642 0
M  V30 2238 H 212.477 1.99859 2.53488 0
M  V30 2239 H 211.529 3.71302 0.826981 0
M  V30 2240 H 212.841 4.81629 1.29748 0
M  V30 2241 H 211.995 4.84395 3.65303 0
M  V30 2242 H 210.734 3.64995 3.23465 0
M  V30 2243 H 209.739 5.26345 1.58874 0
M  V30 2244 H 210.964 6.47931 2.03377 0
M  V30 2245 H 208.91 5.26117 3.91838 0
M  V30 2246 H 208.827 6.84266 3.21427 0
M  V30 2247 H 210.095 6.4722 4.34427 0
M  V30 2248 N 214.325 -0.140222 1.56975 0
M  V30 2249 C 215.736 -0.699596 1.73097 0
M  V30 2250 C 216.087 -1.8134 0.749022 0
M  V30 2251 O 215.212 -2.16241 -0.0828503 0
M  V30 2252 C 215.807 -1.27582 3.1386 0
M  V30 2253 C 214.366 -1.78169 3.31561 0
M  V30 2254 C 213.513 -0.672855 2.69013 0
M  V30 2255 H 216.464 0.0855115 1.58469 0
M  V30 2256 H 216.485 -2.14561 3.14235 0
M  V30 2257 H 215.997 -0.464955 3.85305 0
M  V30 2258 H 214.098 -2.61801 2.65124 0
M  V30 2259 H 214.211 -1.90574 4.39566 0
M  V30 2260 H 212.575 -1.10118 2.29665 0
M  V30 2261 H 213.358 0.126679 3.43066 0
M  V30 2262 N 215.803 -1.52179 -0.40978 0
M  V30 2263 C 217.051 -1.65878 -1.15451 0
M  V30 2264 C 217.372 -0.390771 -1.91044 0
M  V30 2265 O 216.642 0.594323 -1.86667 0
M  V30 2266 H 215.222 -0.611405 -0.429177 0
M  V30 2267 H 217.884 -1.89219 -0.467134 0
M  V30 2268 H 216.98 -2.49954 -1.86894 0
M  V30 2269 N 217.281 0.66697 -1.42791 0
M  V30 2270 C 218.692 1.2478 -1.38877 0
M  V30 2271 C 219.043 1.96012 -0.0859426 0
M  V30 2272 O 218.168 2.00463 0.815081 0
M  V30 2273 C 218.763 2.26938 -2.51564 0
M  V30 2274 C 217.322 2.80529 -2.50959 0
M  V30 2275 C 216.469 1.54965 -2.29959 0
M  V30 2276 H 219.42 0.459853 -1.51892 0
M  V30 2277 H 219.441 3.08834 -2.22265 0
M  V30 2278 H 218.953 1.75065 -3.46372 0
M  V30 2279 H 217.054 3.36502 -1.59991 0
M  V30 2280 H 217.167 3.29012 -3.48265 0
M  V30 2281 H 215.531 1.81817 -1.78366 0
M  V30 2282 H 216.314 1.05047 -3.26833 0
M  V30 2283 N 218.759 1.29093 0.90403 0
M  V30 2284 C 220.008 1.16187 1.64874 0
M  V30 2285 C 220.321 -0.286742 1.93487 0
M  V30 2286 O 221.527 -0.537062 2.66135 0
M  V30 2287 C 219.983 2.03177 2.97064 0
M  V30 2288 C 219.591 3.52836 2.76062 0
M  V30 2289 C 221.335 1.98984 3.74974 0
M  V30 2290 C 219.242 4.31945 4.03952 0
M  V30 2291 H 218.172 0.431246 0.618501 0
M  V30 2292 H 220.823 1.53699 1.00243 0
M  V30 2293 H 219.205 1.5853 3.62883 0
M  V30 2294 H 220.379 4.05507 2.18863 0
M  V30 2295 H 218.694 3.58656 2.11553 0
M  V30 2296 H 221.291 2.55351 4.69787 0
M  V30 2297 H 221.634 0.968815 4.0487 0
M  V30 2298 H 222.167 2.41652 3.15989 0
M  V30 2299 H 218.906 5.34667 3.79225 0
M  V30 2300 H 218.426 3.84045 4.60727 0
M  V30 2301 H 220.105 4.42379 4.72133 0
M  V30 2302 N 220.237 -1.11381 1.11499 0
M  V30 2303 C 221.169 -2.17207 0.731704 0
M  V30 2304 C 222.182 -1.61066 -0.236957 0
M  V30 2305 O 223.371 -1.78489 -0.0197591 0
M  V30 2306 C 220.471 -3.38846 0.0607624 0
M  V30 2307 C 219.644 -4.24451 1.0564 0
M  V30 2308 C 218.703 -5.24562 0.4149 0
M  V30 2309 O 217.729 -5.59071 1.069 0
M  V30 2310 N 218.931 -5.74651 -0.821943 0
M  V30 2311 H 221.696 -2.50699 1.64225 0
M  V30 2312 H 219.257 -1.26908 1.00529 0
M  V30 2313 H 221.249 -4.02911 -0.380139 0
M  V30 2314 H 219.819 -3.03411 -0.752376 0
M  V30 2315 H 219.039 -3.56833 1.67524 0
M  V30 2316 H 220.327 -4.78486 1.72998 0
M  V30 2317 H 219.725 -5.48797 -1.37252 0
M  V30 2318 H 218.282 -6.40549 -1.20582 0
M  V30 2319 N 221.715 -0.905404 -1.28997 0
M  V30 2320 C 222.663 -0.377431 -2.29517 0
M  V30 2321 C 223.657 0.526461 -1.61012 0
M  V30 2322 O 224.863 0.40863 -1.753 0
M  V30 2323 H 221.238 -0.103437 -0.744852 0
M  V30 2324 H 223.209 -1.23848 -2.71485 0
M  V30 2325 C 221.958 0.374833 -3.45674 0
M  V30 2326 H 221.281 -0.311474 -3.98585 0
M  V30 2327 H 222.721 0.70903 -4.1803 0
M  V30 2328 C 221.18 1.57963 -2.97572 0
M  V30 2329 O 221.71 2.67886 -2.99333 0
M  V30 2330 N 219.916 1.42375 -2.53333 0
M  V30 2331 H 219.463 0.529466 -2.521 0
M  V30 2332 H 219.421 2.23117 -2.21509 0
M  V30 2333 N 223.193 1.4272 -0.668489 0
M  V30 2334 C 224.441 2.01226 -0.187769 0
M  V30 2335 C 224.762 1.53092 1.2078 0
M  V30 2336 O 224.032 0.74993 1.80977 0
M  V30 2337 H 222.612 0.744041 -0.0664272 0
M  V30 2338 H 225.274 1.74723 -0.863583 0
M  V30 2339 H 224.37 3.11556 -0.184166 0
M  V30 2340 N 224.671 0.411399 1.52136 0
M  V30 2341 C 225.581 -0.419774 2.30814 0
M  V30 2342 C 226.597 -1.0515 1.38634 0
M  V30 2343 O 227.773 -1.05252 1.71709 0
M  V30 2344 C 224.838 -1.52019 3.11594 0
M  V30 2345 C 223.899 -0.91129 4.19516 0
M  V30 2346 C 223.132 -1.95927 4.96436 0
M  V30 2347 O 223.355 -3.17775 4.73683 0
M  V30 2348 O 222.289 -1.56423 5.81219 0
M  V30 2349 H 226.115 0.221805 3.02889 0
M  V30 2350 H 223.7 0.174547 1.48377 0
M  V30 2351 H 225.582 -2.15898 3.61892 0
M  V30 2352 H 224.257 -2.14633 2.42311 0
M  V30 2353 H 223.164 -0.235157 3.7336 0
M  V30 2354 H 224.497 -0.32904 4.91099 0
M  V30 2355 N 226.149 -1.5696 0.141893 0
M  V30 2356 C 227.079 -2.19516 -0.795936 0
M  V30 2357 C 228.06 -1.14187 -1.26077 0
M  V30 2358 O 229.245 -1.42511 -1.31925 0
M  V30 2359 C 226.375 -2.81272 -2.03723 0
M  V30 2360 C 225.329 -3.92384 -1.70936 0
M  V30 2361 C 224.655 -4.41052 -3.02287 0
M  V30 2362 C 225.955 -5.13403 -0.959954 0
M  V30 2363 H 227.649 -2.98138 -0.274596 0
M  V30 2364 H 225.195 -1.43406 -0.130636 0
M  V30 2365 H 227.148 -3.237 -2.69808 0
M  V30 2366 H 225.872 -1.99973 -2.58221 0
M  V30 2367 H 224.531 -3.50566 -1.07232 0
M  V30 2368 H 224.179 -3.56582 -3.54765 0
M  V30 2369 H 223.879 -5.15993 -2.81114 0
M  V30 2370 H 225.403 -4.86146 -3.69451 0
M  V30 2371 H 226.817 -5.52706 -1.52279 0
M  V30 2372 H 225.214 -5.94073 -0.848357 0
M  V30 2373 H 226.284 -4.84875 0.0492434 0
M  V30 2374 N 227.627 0.131896 -1.57047 0
M  V30 2375 C 228.875 0.840269 -1.83804 0
M  V30 2376 C 229.196 1.81017 -0.72512 0
M  V30 2377 O 228.466 1.94272 0.251995 0
M  V30 2378 H 227.046 0.313294 -0.678127 0
M  V30 2379 H 229.708 0.122294 -1.94516 0
M  V30 2380 H 228.804 1.39335 -2.79271 0
M  V30 2381 N 229.106 1.52395 0.401703 0
M  V30 2382 C 230.331 1.70972 1.17403 0
M  V30 2383 C 230.756 0.421615 1.83314 0
M  V30 2384 O 230.114 -0.621564 1.70312 0
M  V30 2385 C 230.162 2.85151 2.20728 0
M  V30 2386 O 229.266 2.51238 3.27037 0
M  V30 2387 H 228.607 0.568927 0.342372 0
M  V30 2388 H 231.137 1.99131 0.469891 0
M  V30 2389 H 231.147 3.10279 2.64936 0
M  V30 2390 H 229.822 3.78603 1.7214 0
M  V30 2391 H 228.399 2.36808 2.88057 0
M  V30 2392 N 230.584 -0.659388 1.43143 0
M  V30 2393 C 231.809 -1.45221 1.48073 0
M  V30 2394 C 232.234 -1.87845 0.097995 0
M  V30 2395 O 231.592 -1.56985 -0.90694 0
M  V30 2396 C 231.64 -2.66748 2.42647 0
M  V30 2397 O 230.744 -3.65583 1.90848 0
M  V30 2398 H 230.085 -0.435669 0.501088 0
M  V30 2399 H 232.615 -0.807432 1.87994 0
M  V30 2400 H 232.625 -3.14637 2.59745 0
M  V30 2401 H 231.3 -2.35067 3.43098 0
M  V30 2402 H 229.877 -3.24693 1.83381 0
M  V30 2403 N 232.062 -1.29571 -0.897171 0
M  V30 2404 C 233.287 -1.20705 -1.68656 0
M  V30 2405 C 233.712 0.228582 -1.86706 0
M  V30 2406 O 233.07 1.16494 -1.3892 0
M  V30 2407 C 233.118 -1.9282 -3.04717 0
M  V30 2408 O 232.222 -1.24697 -3.93096 0
M  V30 2409 H 231.563 -0.418126 -0.515816 0
M  V30 2410 H 234.093 -1.71183 -1.12061 0
M  V30 2411 H 234.103 -2.01372 -3.54843 0
M  V30 2412 H 232.778 -2.97239 -2.90899 0
M  V30 2413 H 231.355 -1.2442 -3.51531 0
M  V30 2414 N 233.54 1.10788 -1.12088 0
M  V30 2415 C 234.488 2.19111 -0.780587 0
M  V30 2416 C 235.482 1.67818 0.230961 0
M  V30 2417 O 236.688 1.79777 0.0895427 0
M  V30 2418 H 233.063 0.714477 -0.234578 0
M  V30 2419 H 235.034 2.45055 -1.70266 0
M  V30 2420 C 233.783 3.46818 -0.24747 0
M  V30 2421 H 233.106 3.86646 -1.01712 0
M  V30 2422 H 234.546 4.23973 -0.0476291 0
M  V30 2423 C 233.005 3.20968 1.02378 0
M  V30 2424 O 233.535 3.42298 2.10226 0
M  V30 2425 N 231.741 2.74658 0.949271 0
M  V30 2426 H 231.288 2.57501 0.0715173 0
M  V30 2427 H 231.246 2.57739 1.80049 0
M  V30 2428 N 235.018 0.912232 1.28515 0
M  V30 2429 C 236.264 0.554851 1.95686 0
M  V30 2430 C 236.619 -0.89138 1.70506 0
M  V30 2431 O 235.912 -1.62529 1.01464 0
M  V30 2432 C 236.106 0.798392 3.48368 0
M  V30 2433 C 235.935 2.26674 3.88393 0
M  V30 2434 C 234.705 2.91657 4.12631 0
M  V30 2435 C 236.903 3.24303 3.99164 0
M  V30 2436 N 234.885 4.28805 4.39317 0
M  V30 2437 C 236.256 4.4661 4.30046 0
M  V30 2438 C 238.311 3.19723 3.81683 0
M  V30 2439 C 237.014 5.64915 4.45268 0
M  V30 2440 C 239.04 4.37325 3.98121 0
M  V30 2441 C 238.402 5.58406 4.29375 0
M  V30 2442 H 234.501 0.252876 0.739985 0
M  V30 2443 H 237.085 1.17565 1.55199 0
M  V30 2444 H 235.256 0.20688 3.87849 0
M  V30 2445 H 236.988 0.405193 4.02666 0
M  V30 2446 H 233.743 2.42393 4.06869 0
M  V30 2447 H 234.167 4.99712 4.56746 0
M  V30 2448 H 238.809 2.27191 3.56573 0
M  V30 2449 H 236.527 6.57927 4.6921 0
M  V30 2450 H 240.113 4.35282 3.86033 0
M  V30 2451 H 238.993 6.47889 4.41825 0
M  V30 2452 N 236.496 -1.42363 0.676048 0
M  V30 2453 C 237.428 -2.29164 -0.0404605 0
M  V30 2454 C 238.441 -1.43747 -0.764245 0
M  V30 2455 O 239.63 -1.67453 -0.618195 0
M  V30 2456 C 236.73 -3.21196 -1.08103 0
M  V30 2457 C 235.903 -4.35273 -0.430812 0
M  V30 2458 C 234.962 -5.08017 -1.37133 0
M  V30 2459 O 233.988 -5.62494 -0.87116 0
M  V30 2460 N 235.19 -5.13647 -2.70456 0
M  V30 2461 H 237.955 -2.91298 0.704667 0
M  V30 2462 H 235.516 -1.53303 0.520559 0
M  V30 2463 H 237.508 -3.66728 -1.71152 0
M  V30 2464 H 236.078 -2.60505 -1.72788 0
M  V30 2465 H 235.298 -3.92372 0.379209 0
M  V30 2466 H 236.586 -5.08795 0.0221132 0
M  V30 2467 H 235.984 -4.708 -3.1363 0
M  V30 2468 H 234.541 -5.62821 -3.28749 0
M  V30 2469 N 237.974 -0.419461 -1.51915 0
M  V30 2470 C 238.904 0.391813 -2.30189 0
M  V30 2471 C 239.885 1.03699 -1.34836 0
M  V30 2472 O 241.07 1.04403 -1.63748 0
M  V30 2473 C 238.2 1.50312 -3.13087 0
M  V30 2474 C 237.154 0.9824 -4.16573 0
M  V30 2475 C 236.48 2.18809 -4.8788 0
M  V30 2476 C 237.78 0.0292356 -5.22292 0
M  V30 2477 H 239.474 -0.26135 -2.98257 0
M  V30 2478 H 237.02 -0.127134 -1.43438 0
M  V30 2479 H 238.973 2.07773 -3.66617 0
M  V30 2480 H 237.697 2.18431 -2.42807 0
M  V30 2481 H 236.356 0.430119 -3.64068 0
M  V30 2482 H 236.004 2.85507 -4.14119 0
M  V30 2483 H 235.704 1.84615 -5.57845 0
M  V30 2484 H 237.228 2.76858 -5.44226 0
M  V30 2485 H 238.642 0.512976 -5.71 0
M  V30 2486 H 237.039 -0.2244 -5.9968 0
M  V30 2487 H 238.109 -0.912931 -4.76228 0
M  V30 2488 N 239.452 1.56882 -0.150215 0
M  V30 2489 C 240.729 1.87844 0.545327 0
M  V30 2490 C 241.109 1.0567 1.82749 0
M  V30 2491 O 240.457 0.144442 2.28043 0
M  V30 2492 C 240.667 3.39526 0.80767 0
M  V30 2493 C 242.015 4.08814 1.14703 0
M  V30 2494 O 243.039 3.44723 0.896917 0
M  V30 2495 O 241.898 5.22004 1.61784 0
M  V30 2496 H 238.992 0.778677 0.278553 0
M  V30 2497 H 241.538 1.68666 -0.187068 0
M  V30 2498 H 240.31 3.91173 -0.0996096 0
M  V30 2499 H 239.933 3.64243 1.59413 0
M  V30 2500 N 240.93 -0.123565 1.57115 0
M  V30 2501 C 242.341 -0.681198 1.73829 0
M  V30 2502 C 242.692 -1.80535 0.768214 0
M  V30 2503 O 241.817 -2.16317 -0.0599103 0
M  V30 2504 C 242.412 -1.24246 3.15196 0
M  V30 2505 C 240.971 -1.74643 3.33432 0
M  V30 2506 C 240.118 -0.644284 2.69711 0
M  V30 2507 H 243.069 0.102315 1.5837 0
M  V30 2508 H 243.09 -2.11216 3.16493 0
M  V30 2509 H 242.602 -0.424062 3.85776 0
M  V30 2510 H 240.703 -2.58974 2.67886 0
M  V30 2511 H 240.816 -1.85902 4.41562 0
M  V30 2512 H 239.18 -1.07676 2.3082 0
M  V30 2513 H 239.963 0.163058 3.42913 0
M  V30 2514 N 242.408 -1.52605 -0.393616 0
M  V30 2515 C 243.341 -1.71798 -1.50202 0
M  V30 2516 C 244.319 -0.565743 -1.52441 0
M  V30 2517 O 245.503 -0.794987 -1.70916 0
M  V30 2518 C 242.63 -1.7714 -2.88685 0
M  V30 2519 C 241.676 -2.98845 -3.04292 0
M  V30 2520 S 242.509 -4.58909 -2.75976 0
M  V30 2521 C 243.665 -4.6706 -4.1666 0
M  V30 2522 H 243.898 -2.65542 -1.33696 0
M  V30 2523 H 241.431 -1.42839 -0.586195 0
M  V30 2524 H 243.389 -1.80903 -3.68489 0
M  V30 2525 H 242.05 -0.844969 -3.02521 0
M  V30 2526 H 241.243 -2.99111 -4.05646 0
M  V30 2527 H 240.845 -2.9305 -2.32374 0
M  V30 2528 H 243.137 -4.45391 -5.10523 0
M  V30 2529 H 244.08 -5.6905 -4.21412 0
M  V30 2530 H 244.488 -3.95944 -4.02354 0
M  V30 2531 N 243.887 0.651787 -1.4349 0
M  V30 2532 C 244.797 1.79368 -1.5121 0
M  V30 2533 C 245.813 1.69361 -0.399093 0
M  V30 2534 O 246.989 1.90505 -0.653431 0
M  V30 2535 C 244.054 3.15653 -1.43401 0
M  V30 2536 C 243.115 3.37446 -2.65384 0
M  V30 2537 C 242.348 4.67229 -2.57939 0
M  V30 2538 O 242.571 5.46676 -1.62792 0
M  V30 2539 O 241.505 4.90773 -3.48462 0
M  V30 2540 H 245.331 1.7581 -2.47638 0
M  V30 2541 H 242.916 0.810447 -1.25507 0
M  V30 2542 H 244.798 3.96935 -1.41494 0
M  V30 2543 H 243.473 3.19798 -0.501085 0
M  V30 2544 H 242.38 2.55923 -2.72863 0
M  V30 2545 H 243.713 3.38148 -3.57654 0
M  V30 2546 N 245.365 1.30045 0.890287 0
M  V30 2547 C 246.295 1.18541 2.01172 0
M  V30 2548 C 247.276 0.0773356 1.69924 0
M  V30 2549 O 248.461 0.25845 1.92473 0
M  V30 2550 C 245.591 0.870941 3.36202 0
M  V30 2551 C 244.545 1.93637 3.81692 0
M  V30 2552 C 243.871 1.475 5.13953 0
M  V30 2553 C 245.171 3.34666 4.00994 0
M  V30 2554 H 246.865 2.12359 2.11054 0
M  V30 2555 H 244.411 1.02238 1.01407 0
M  V30 2556 H 246.364 0.777141 4.14172 0
M  V30 2557 H 245.088 -0.102926 3.26438 0
M  V30 2558 H 243.747 2.01972 3.05946 0
M  V30 2559 H 243.395 0.489551 5.00612 0
M  V30 2560 H 243.095 2.1876 5.4536 0
M  V30 2561 H 244.619 1.39489 5.94454 0
M  V30 2562 H 246.033 3.2912 4.69417 0
M  V30 2563 H 244.43 4.03966 4.43769 0
M  V30 2564 H 245.5 3.76949 3.05021 0
M  V30 2565 N 246.843 -1.10192 1.12674 0
M  V30 2566 C 247.806 -2.14786 0.799979 0
M  V30 2567 C 248.806 -1.59711 -0.18685 0
M  V30 2568 O 249.996 -1.74156 0.0392558 0
M  V30 2569 C 247.128 -3.40374 0.189228 0
M  V30 2570 H 248.321 -2.45203 1.72671 0
M  V30 2571 H 245.874 -1.25597 0.930326 0
M  V30 2572 H 246.609 -3.15577 -0.747107 0
M  V30 2573 H 246.394 -3.81637 0.899766 0
M  V30 2574 H 247.884 -4.17594 -0.0228143 0
M  V30 2575 N 248.321 -0.919034 -1.28029 0
M  V30 2576 C 249.569 -0.553838 -1.94363 0
M  V30 2577 C 249.89 0.906357 -1.72656 0
M  V30 2578 O 249.16 1.64143 -1.0693 0
M  V30 2579 H 247.74 -0.201834 -0.719216 0
M  V30 2580 H 250.402 -1.16954 -1.55909 0
M  V30 2581 H 249.498 -0.752758 -3.02886 0
M  V30 2582 N 249.799 1.42003 -0.683588 0
M  V30 2583 C 250.746 2.30798 -0.0107309 0
M  V30 2584 C 251.716 1.4645 0.783688 0
M  V30 2585 O 252.901 1.75263 0.754156 0
M  V30 2586 C 250.041 3.3238 0.928306 0
M  V30 2587 C 249.154 4.31814 0.126776 0
M  V30 2588 C 248.289 5.20468 1.06236 0
M  V30 2589 C 247.328 6.11577 0.253035 0
M  V30 2590 N 246.465 6.92754 1.14179 0
M  V30 2591 H 251.305 2.8778 -0.773727 0
M  V30 2592 H 248.842 1.41745 -0.393283 0
M  V30 2593 H 250.8 3.89813 1.48666 0
M  V30 2594 H 249.43 2.76976 1.65783 0
M  V30 2595 H 248.482 3.76427 -0.54833 0
M  V30 2596 H 249.794 4.96276 -0.501192 0
M  V30 2597 H 248.948 5.82677 1.69035 0
M  V30 2598 H 247.687 4.56204 1.7242 0
M  V30 2599 H 246.692 5.48428 -0.388108 0
M  V30 2600 H 247.917 6.77892 -0.404839 0
M  V30 2601 H 245.863 6.3111 1.78987 0
M  V30 2602 H 245.78 7.53855 0.569111 0
M  V30 2603 H 247.048 7.59441 1.75697 0
M  V30 2604 N 251.277 0.427512 1.51691 0
M  V30 2605 C 252.524 -0.142229 2.02 0
M  V30 2606 C 252.852 -1.43566 1.31221 0
M  V30 2607 O 252.107 -1.91298 0.412744 0
M  V30 2608 C 252.406 -0.418249 3.54944 0
M  V30 2609 C 252.072 0.788187 4.43958 0
M  V30 2610 C 250.734 1.11906 4.68007 0
M  V30 2611 C 253.086 1.59347 4.96244 0
M  V30 2612 C 250.414 2.25608 5.41588 0
M  V30 2613 C 252.766 2.7214 5.71072 0
M  V30 2614 C 251.43 3.05692 5.93387 0
M  V30 2615 H 250.7 -0.0520451 0.73917 0
M  V30 2616 H 253.347 0.572697 1.82736 0
M  V30 2617 H 251.652 -1.21496 3.72486 0
M  V30 2618 H 253.349 -0.872339 3.91397 0
M  V30 2619 H 249.939 0.520344 4.2543 0
M  V30 2620 H 254.123 1.35106 4.77556 0
M  V30 2621 H 249.379 2.51929 5.57083 0
M  V30 2622 H 253.553 3.34914 6.10578 0
M  V30 2623 H 251.18 3.9391 6.50184 0
M  V30 2624 N 252.755 -1.56801 0.158532 0
M  V30 2625 C 253.983 -2.00859 -0.496303 0
M  V30 2626 C 254.398 -1.03871 -1.57659 0
M  V30 2627 O 253.755 -0.0375165 -1.82461 0
M  V30 2628 C 253.806 -3.4479 -1.08638 0
M  V30 2629 O 253.527 -4.38072 -0.0492322 0
M  V30 2630 C 255.028 -4.04185 -1.8207 0
M  V30 2631 H 252.248 -0.65864 -0.128199 0
M  V30 2632 H 254.792 -2.02885 0.256506 0
M  V30 2633 H 252.947 -3.43579 -1.78975 0
M  V30 2634 H 253.361 -5.2227 -0.483102 0
M  V30 2635 H 254.835 -5.06857 -2.18633 0
M  V30 2636 H 255.312 -3.45549 -2.71095 0
M  V30 2637 H 255.918 -4.0906 -1.16405 0
M  V30 2638 N 254.233 0.115231 -1.57178 0
M  V30 2639 C 255.458 0.840354 -1.89612 0
M  V30 2640 C 255.883 1.72464 -0.750845 0
M  V30 2641 O 255.241 1.78826 0.298478 0
M  V30 2642 C 255.289 1.64654 -3.20814 0
M  V30 2643 O 254.393 2.7538 -3.06985 0
M  V30 2644 H 253.734 0.232158 -0.622092 0
M  V30 2645 H 256.264 0.0964977 -2.04372 0
M  V30 2646 H 256.274 2.03499 -3.53627 0
M  V30 2647 H 254.949 0.997416 -4.03763 0
M  V30 2648 H 253.526 2.3971 -2.85646 0
M  V30 2649 N 255.711 1.52812 0.385517 0
M  V30 2650 C 257.127 1.4214 0.725829 0
M  V30 2651 C 257.327 0.544589 1.94001 0
M  V30 2652 O 256.383 0.0193693 2.52493 0
M  V30 2653 C 257.696 2.85042 0.957668 0
M  V30 2654 C 259.244 2.94543 1.05892 0
M  V30 2655 C 259.719 4.38464 1.32337 0
M  V30 2656 N 261.21 4.41804 1.39151 0
M  V30 2657 C 261.945 5.5025 1.61285 0
M  V30 2658 N 261.441 6.68775 1.80866 0
M  V30 2659 N 263.234 5.37798 1.63492 0
M  V30 2660 H 255.385 2.08338 -0.413383 0
M  V30 2661 H 257.648 0.940016 -0.122775 0
M  V30 2662 H 257.354 3.51431 0.137568 0
M  V30 2663 H 257.228 3.27505 1.87137 0
M  V30 2664 H 259.615 2.28321 1.86959 0
M  V30 2665 H 259.696 2.55504 0.123057 0
M  V30 2666 H 259.34 5.05254 0.517793 0
M  V30 2667 H 259.27 4.75059 2.27214 0
M  V30 2668 H 261.761 3.56377 1.25713 0
M  V30 2669 H 262.074 7.47197 1.97271 0
M  V30 2670 H 260.419 6.71797 1.78083 0
M  V30 2671 H 263.61 4.44171 1.47749 0
M  V30 2672 H 263.783 6.22382 1.80402 0
M  V30 2673 N 257.189 -0.644168 1.43834 0
M  V30 2674 C 258.417 -1.43147 1.49387 0
M  V30 2675 C 258.832 -1.88452 0.114583 0
M  V30 2676 O 258.189 -1.60047 -0.876989 0
M  V30 2677 C 258.24 -2.66046 2.44748 0
M  V30 2678 O 257.961 -2.22633 3.77314 0
M  V30 2679 C 259.462 -3.59311 2.59635 0
M  V30 2680 H 256.682 -0.439447 0.507077 0
M  V30 2681 H 259.226 -0.78895 1.88669 0
M  V30 2682 H 257.381 -3.26418 2.08638 0
M  V30 2683 H 257.795 -3.02216 4.28679 0
M  V30 2684 H 259.269 -4.42187 3.30416 0
M  V30 2685 H 259.746 -4.07259 1.64427 0
M  V30 2686 H 260.352 -3.04816 2.96593 0
M  V30 2687 N 258.668 -1.30515 -0.883378 0
M  V30 2688 C 259.615 -1.17032 -1.98927 0
M  V30 2689 C 260.585 -0.0594241 -1.65994 0
M  V30 2690 O 261.77 -0.229895 -1.8941 0
M  V30 2691 C 258.91 -0.869777 -3.33959 0
M  V30 2692 C 258.023 -2.06271 -3.79574 0
M  V30 2693 C 257.158 -1.70011 -5.03259 0
M  V30 2694 C 256.197 -2.8579 -5.41286 0
M  V30 2695 N 255.334 -2.49816 -6.56153 0
M  V30 2696 H 260.174 -2.1164 -2.09792 0
M  V30 2697 H 257.711 -1.05296 -1.02719 0
M  V30 2698 H 259.669 -0.676138 -4.11685 0
M  V30 2699 H 258.299 0.0394332 -3.22776 0
M  V30 2700 H 257.351 -2.36755 -2.97744 0
M  V30 2701 H 258.663 -2.92971 -4.03694 0
M  V30 2702 H 257.817 -1.47032 -5.88614 0
M  V30 2703 H 256.556 -0.804829 -4.81013 0
M  V30 2704 H 255.561 -3.09434 -4.54456 0
M  V30 2705 H 256.786 -3.76008 -5.65504 0
M  V30 2706 H 254.732 -1.62795 -6.35479 0
M  V30 2707 H 254.649 -3.30048 -6.8015 0
M  V30 2708 H 255.917 -2.30197 -7.44735 0
M  V30 2709 N 260.146 1.09593 -1.13257 0
M  V30 2710 C 261.109 2.14359 -0.811358 0
M  V30 2711 C 262.109 1.59808 0.178377 0
M  V30 2712 O 263.299 1.74132 -0.0484911 0
M  V30 2713 C 260.431 3.40269 -0.207276 0
M  V30 2714 H 261.624 2.44284 -1.73969 0
M  V30 2715 H 259.177 1.25102 -0.936973 0
M  V30 2716 H 259.912 3.15969 0.73036 0
M  V30 2717 H 259.697 3.81154 -0.919992 0
M  V30 2718 H 261.187 4.176 0.000667944 0
M  V30 2719 N 261.624 0.925811 1.2754 0
M  V30 2720 C 262.554 0.440748 2.29303 0
M  V30 2721 C 263.535 -0.497971 1.62648 0
M  V30 2722 O 264.72 -0.403126 1.8997 0
M  V30 2723 C 261.85 -0.309048 3.45922 0
M  V30 2724 C 260.804 0.54166 4.24559 0
M  V30 2725 C 260.13 -0.337191 5.33636 0
M  V30 2726 C 261.43 1.80516 4.90114 0
M  V30 2727 H 263.124 1.29121 2.70126 0
M  V30 2728 H 260.67 0.622323 1.29858 0
M  V30 2729 H 262.623 -0.659315 4.1621 0
M  V30 2730 H 261.347 -1.19352 3.04011 0
M  V30 2731 H 260.006 0.874609 3.56014 0
M  V30 2732 H 259.654 -1.22056 4.87966 0
M  V30 2733 H 259.354 0.228497 5.87156 0
M  V30 2734 H 260.878 -0.683072 6.06767 0
M  V30 2735 H 262.292 1.52307 5.52698 0
M  V30 2736 H 260.689 2.3142 5.53683 0
M  V30 2737 H 261.759 2.52581 4.13921 0
M  V30 2738 N 263.102 -1.41638 0.69111 0
M  V30 2739 C 264.348 -2.01598 0.220519 0
M  V30 2740 C 264.681 -1.54594 -1.17535 0
M  V30 2741 O 263.956 -0.755177 -1.79241 0
M  V30 2742 C 264.239 -3.59062 0.273243 0
M  V30 2743 C 264.092 -4.16203 1.70573 0
M  V30 2744 C 265.411 -4.38546 -0.369457 0
M  V30 2745 H 262.53 -0.732468 0.0816045 0
M  V30 2746 H 265.172 -1.68445 0.878986 0
M  V30 2747 H 263.322 -3.87435 -0.287411 0
M  V30 2748 H 264.994 -3.98722 2.31989 0
M  V30 2749 H 263.237 -3.71414 2.2413 0
M  V30 2750 H 263.908 -5.25358 1.69419 0
M  V30 2751 H 266.384 -4.1596 0.107977 0
M  V30 2752 H 265.26 -5.48069 -0.302002 0
M  V30 2753 H 265.521 -4.17662 -1.44951 0
M  V30 2754 N 264.58 -0.43555 -1.51462 0
M  V30 2755 C 265.51 0.367376 -2.30592 0
M  V30 2756 C 266.491 1.02263 -1.35928 0
M  V30 2757 O 267.676 1.02661 -1.64847 0
M  V30 2758 C 264.806 1.46983 -3.14664 0
M  V30 2759 C 263.76 0.938161 -4.17591 0
M  V30 2760 C 263.086 2.13622 -4.90173 0
M  V30 2761 C 264.386 -0.0261621 -5.22293 0
M  V30 2762 H 266.08 -0.292969 -2.97963 0
M  V30 2763 H 263.626 -0.14234 -1.43295 0
M  V30 2764 H 265.579 2.03873 -3.688 0
M  V30 2765 H 264.303 2.15843 -2.4511 0
M  V30 2766 H 262.962 0.391481 -3.64504 0
M  V30 2767 H 262.61 2.81098 -4.17124 0
M  V30 2768 H 262.31 1.78688 -5.59772 0
M  V30 2769 H 263.834 2.7107 -5.47132 0
M  V30 2770 H 265.248 0.452384 -5.71512 0
M  V30 2771 H 263.645 -0.287992 -5.99409 0
M  V30 2772 H 264.715 -0.963391 -4.75233 0
M  V30 2773 N 266.058 1.56714 -0.166846 0
M  V30 2774 C 267.006 2.19056 0.782123 0
M  V30 2775 C 268 1.15328 1.24079 0
M  V30 2776 O 269.206 1.33537 1.20697 0
M  V30 2777 H 265.581 0.70167 0.270486 0
M  V30 2778 H 267.552 2.97494 0.232322 0
M  V30 2779 C 266.301 2.84206 2.00306 0
M  V30 2780 H 265.624 3.63748 1.65914 0
M  V30 2781 H 267.064 3.31302 2.64604 0
M  V30 2782 C 265.523 1.83744 2.82382 0
M  V30 2783 O 266.053 1.32014 3.79388 0
M  V30 2784 N 264.259 1.52601 2.47308 0
M  V30 2785 H 263.806 1.9486 1.68485 0
M  V30 2786 H 263.764 0.856351 3.02513 0
M  V30 2787 N 267.536 -0.106894 1.57237 0
M  V30 2788 C 268.764 -0.826389 1.8968 0
M  V30 2789 C 269.179 -1.72856 0.759353 0
M  V30 2790 O 268.536 -1.80503 -0.269263 0
M  V30 2791 C 268.587 -1.64967 3.21665 0
M  V30 2792 O 268.308 -0.783804 4.31031 0
M  V30 2793 C 269.809 -2.47326 3.67892 0
M  V30 2794 H 267.029 -0.236927 0.627779 0
M  V30 2795 H 269.573 -0.0876593 2.04312 0
M  V30 2796 H 267.728 -2.34103 3.08666 0
M  V30 2797 H 268.142 -1.35284 5.06753 0
M  V30 2798 H 269.616 -3.00604 4.6297 0
M  V30 2799 H 270.093 -3.25247 2.95146 0
M  V30 2800 H 270.699 -1.83411 3.83719 0
M  V30 2801 N 269.014 -1.53014 -0.377408 0
M  V30 2802 C 270.425 -1.60438 -0.954798 0
M  V30 2803 C 270.776 -0.464418 -1.90624 0
M  V30 2804 O 269.901 0.41087 -2.12464 0
M  V30 2805 C 270.496 -2.90797 -1.73847 0
M  V30 2806 C 269.055 -3.00595 -2.26538 0
M  V30 2807 C 268.202 -2.55645 -1.07429 0
M  V30 2808 H 271.153 -1.57926 -0.156575 0
M  V30 2809 H 271.174 -2.77935 -2.5987 0
M  V30 2810 H 270.686 -3.73746 -1.04574 0
M  V30 2811 H 268.787 -2.22208 -2.99089 0
M  V30 2812 H 268.9 -4.05456 -2.5523 0
M  V30 2813 H 267.264 -2.10239 -1.43777 0
M  V30 2814 H 268.047 -3.41 -0.396728 0
M  V30 2815 N 270.492 0.636531 -1.44174 0
M  V30 2816 C 271.44 1.76995 -1.50915 0
M  V30 2817 C 272.434 1.65053 -0.381295 0
M  V30 2818 O 273.64 1.71197 -0.55601 0
M  V30 2819 H 270.015 0.584247 -0.473455 0
M  V30 2820 H 271.986 1.68432 -2.4632 0
M  V30 2821 C 270.735 3.15314 -1.46534 0
M  V30 2822 H 270.058 3.25149 -2.32633 0
M  V30 2823 H 271.498 3.9453 -1.55312 0
M  V30 2824 C 269.957 3.3639 -0.185305 0
M  V30 2825 O 270.487 3.94699 0.746688 0
M  V30 2826 N 268.693 2.9046 -0.0901606 0
M  V30 2827 H 268.24 2.43193 -0.849416 0
M  V30 2828 H 268.198 3.04937 0.765553 0
M  V30 2829 N 271.97 1.30982 0.876444 0
M  V30 2830 C 272.918 1.18006 2.00443 0
M  V30 2831 C 273.912 0.0898871 1.69161 0
M  V30 2832 O 275.118 0.251333 1.78237 0
M  V30 2833 H 271.493 0.365196 0.65737 0
M  V30 2834 H 273.464 2.13453 2.0852 0
M  V30 2835 C 272.213 0.897521 3.35916 0
M  V30 2836 H 271.536 1.7285 3.60504 0
M  V30 2837 H 272.976 0.846874 4.15456 0
M  V30 2838 C 271.435 -0.399674 3.34521 0
M  V30 2839 O 271.965 -1.41852 3.7582 0
M  V30 2840 N 270.171 -0.413893 2.87637 0
M  V30 2841 H 269.718 0.41571 2.54224 0
M  V30 2842 H 269.676 -1.28175 2.87086 0
M  V30 2843 N 273.449 -1.08991 1.13837 0
M  V30 2844 C 274.86 -1.62746 0.914917 0
M  V30 2845 C 275.211 -1.88403 -0.547594 0
M  V30 2846 O 274.336 -1.63706 -1.41525 0
M  V30 2847 C 274.931 -2.95662 1.65437 0
M  V30 2848 C 273.49 -3.46225 1.47666 0
M  V30 2849 C 272.637 -2.20562 1.6807 0
M  V30 2850 H 275.588 -0.922946 1.29102 0
M  V30 2851 H 275.609 -3.63825 1.11407 0
M  V30 2852 H 275.121 -2.76956 2.71877 0
M  V30 2853 H 273.222 -3.70046 0.435478 0
M  V30 2854 H 273.335 -4.23368 2.24268 0
M  V30 2855 H 271.699 -2.29439 1.10589 0
M  V30 2856 H 272.482 -2.0437 2.7584 0
M  V30 2857 N 274.927 -0.932562 -1.27047 0
M  V30 2858 C 275.857 -0.452902 -2.29066 0
M  V30 2859 C 276.838 0.489338 -1.62909 0
M  V30 2860 O 278.023 0.393046 -1.90181 0
M  V30 2861 C 275.153 0.290698 -3.46081 0
M  V30 2862 C 274.107 -0.564168 -4.24265 0
M  V30 2863 C 273.433 0.308886 -5.33807 0
M  V30 2864 C 274.733 -1.83112 -4.89149 0
M  V30 2865 H 276.427 -1.30552 -2.69437 0
M  V30 2866 H 273.973 -0.629201 -1.29526 0
M  V30 2867 H 275.926 0.637233 -4.16554 0
M  V30 2868 H 274.65 1.17738 -3.0464 0
M  V30 2869 H 273.309 -0.893477 -3.55545 0
M  V30 2870 H 272.957 1.19467 -4.88607 0
M  V30 2871 H 272.657 -0.259633 -5.87026 0
M  V30 2872 H 274.181 0.650884 -6.07121 0
M  V30 2873 H 275.595 -1.55236 -5.51883 0
M  V30 2874 H 273.992 -2.34353 -5.52448 0
M  V30 2875 H 275.062 -2.54772 -4.12576 0
M  V30 2876 N 276.405 1.4127 -0.698611 0
M  V30 2877 C 277.653 2.00782 -0.230409 0
M  V30 2878 C 277.974 1.5562 1.17505 0
M  V30 2879 O 277.244 0.78815 1.79346 0
M  V30 2880 H 275.824 0.742464 -0.0821944 0
M  V30 2881 H 278.486 1.72852 -0.90045 0
M  V30 2882 H 277.582 3.11095 -0.25021 0
M  V30 2883 N 277.883 0.443576 1.51229 0
M  V30 2884 C 278.83 -0.364716 2.279 0
M  V30 2885 C 279.8 -1.0114 1.31757 0
M  V30 2886 O 280.985 -1.02912 1.60667 0
M  V30 2887 C 278.125 -1.45644 3.12861 0
M  V30 2888 C 277.238 -0.827269 4.24005 0
M  V30 2889 C 276.373 -1.89456 4.96266 0
M  V30 2890 C 275.412 -1.24416 5.99322 0
M  V30 2891 N 274.549 -2.25309 6.64966 0
M  V30 2892 H 279.389 0.295464 2.96532 0
M  V30 2893 H 276.926 0.157554 1.46254 0
M  V30 2894 H 278.884 -2.10076 3.6045 0
M  V30 2895 H 277.514 -2.08616 2.46331 0
M  V30 2896 H 276.566 -0.0710839 3.80334 0
M  V30 2897 H 277.878 -0.312481 4.9782 0
M  V30 2898 H 277.032 -2.61535 5.47434 0
M  V30 2899 H 275.771 -2.4431 4.22095 0
M  V30 2900 H 274.776 -0.508868 5.4744 0
M  V30 2901 H 276.001 -0.702882 6.75453 0
M  V30 2902 H 273.947 -2.79231 5.93604 0
M  V30 2903 H 273.864 -1.78739 7.34567 0
M  V30 2904 H 275.132 -2.96853 7.20763 0
M  V30 2905 N 279.361 -1.56624 0.175154 0
M  V30 2906 C 280.607 -1.9729 -0.469506 0
M  V30 2907 C 280.94 -1.06128 -1.62636 0
M  V30 2908 O 280.215 -0.109183 -1.94193 0
M  V30 2909 C 280.498 -3.47375 -0.948804 0
M  V30 2910 C 280.351 -4.49317 0.208491 0
M  V30 2911 C 281.67 -4.00652 -1.82116 0
M  V30 2912 H 278.789 -0.717317 -0.16919 0
M  V30 2913 H 281.431 -1.88184 0.262062 0
M  V30 2914 H 279.581 -3.55267 -1.57219 0
M  V30 2915 H 281.253 -4.53482 0.845682 0
M  V30 2916 H 279.496 -4.25121 0.863395 0
M  V30 2917 H 280.167 -5.51741 -0.169059 0
M  V30 2918 H 282.643 -3.95416 -1.2956 0
M  V30 2919 H 281.519 -5.06075 -2.12554 0
M  V30 2920 H 281.78 -3.44699 -2.7683 0
M  V30 2921 N 280.839 0.0985539 -1.57292 0
M  V30 2922 C 282.086 0.802678 -1.85912 0
M  V30 2923 C 282.414 1.78901 -0.763186 0
M  V30 2924 O 281.669 1.94178 0.243559 0
M  V30 2925 C 281.968 1.56927 -3.21105 0
M  V30 2926 C 281.634 0.725376 -4.45027 0
M  V30 2927 C 280.296 0.492726 -4.78671 0
M  V30 2928 C 282.648 0.138493 -5.21016 0
M  V30 2929 C 279.976 -0.336727 -5.85733 0
M  V30 2930 C 282.328 -0.678264 -6.28953 0
M  V30 2931 C 280.992 -0.921039 -6.61115 0
M  V30 2932 H 280.262 0.293721 -0.680301 0
M  V30 2933 H 282.909 0.0642841 -1.91392 0
M  V30 2934 H 281.214 2.37914 -3.11294 0
M  V30 2935 H 282.911 2.11841 -3.40477 0
M  V30 2936 H 279.501 0.916815 -4.18679 0
M  V30 2937 H 283.685 0.305404 -4.95359 0
M  V30 2938 H 278.941 -0.533836 -6.09065 0
M  V30 2939 H 283.115 -1.1399 -6.87007 0
M  V30 2940 H 280.742 -1.56556 -7.43905 0
M  V30 2941 N 282.317 1.53212 0.369288 0
M  V30 2942 C 283.542 1.73423 1.1375 0
M  V30 2943 C 283.967 0.460404 1.82378 0
M  V30 2944 O 283.325 -0.585298 1.71592 0
M  V30 2945 C 283.373 2.89769 2.1463 0
M  V30 2946 O 282.477 2.58119 3.21634 0
M  V30 2947 H 281.818 0.576061 0.330227 0
M  V30 2948 H 284.348 2.00083 0.427547 0
M  V30 2949 H 284.358 3.15829 2.58294 0
M  V30 2950 H 283.033 3.8217 1.64071 0
M  V30 2951 H 281.61 2.42864 2.82969 0
M  V30 2952 N 283.795 -0.628877 1.44509 0
M  V30 2953 C 285.211 -0.947305 1.28446 0
M  V30 2954 C 285.411 -2.00275 0.221872 0
M  V30 2955 O 284.467 -2.49447 -0.391471 0
M  V30 2956 C 285.78 -1.40843 2.65676 0
M  V30 2957 C 287.328 -1.52379 2.73404 0
M  V30 2958 C 287.803 -2.01875 4.11109 0
M  V30 2959 N 289.294 -2.09142 4.13296 0
M  V30 2960 C 290.029 -2.48615 5.16699 0
M  V30 2961 N 289.525 -2.87209 6.30462 0
M  V30 2962 N 291.318 -2.48768 5.04054 0
M  V30 2963 H 283.469 0.0690977 2.12288 0
M  V30 2964 H 285.732 -0.0317164 0.947469 0
M  V30 2965 H 285.438 -0.707206 3.44516 0
M  V30 2966 H 285.312 -2.37902 2.92716 0
M  V30 2967 H 287.699 -2.21598 1.9488 0
M  V30 2968 H 287.78 -0.536898 2.50102 0
M  V30 2969 H 287.424 -1.3325 4.90109 0
M  V30 2970 H 287.354 -3.0144 4.31789 0
M  V30 2971 H 289.845 -1.81991 3.31191 0
M  V30 2972 H 290.158 -3.16149 7.05174 0
M  V30 2973 H 288.503 -2.84955 6.33897 0
M  V30 2974 H 291.694 -2.18009 4.14234 0
M  V30 2975 H 291.867 -2.79207 5.84763 0
M  V30 2976 N 285.273 -1.31445 -0.869486 0
M  V30 2977 C 286.183 -1.21097 -2.0093 0
M  V30 2978 C 287.199 -0.127584 -1.73532 0
M  V30 2979 O 288.375 -0.345477 -1.98415 0
M  V30 2980 C 285.44 -0.919378 -3.34288 0
M  V30 2981 C 284.501 -2.08971 -3.75006 0
M  V30 2982 C 283.734 -1.81194 -5.02001 0
M  V30 2983 O 283.957 -0.747296 -5.65484 0
M  V30 2984 O 282.891 -2.66883 -5.39497 0
M  V30 2985 H 286.717 -2.16883 -2.12592 0
M  V30 2986 H 284.302 -1.11189 -0.997868 0
M  V30 2987 H 286.184 -0.772625 -4.14257 0
M  V30 2988 H 284.859 0.00844772 -3.23699 0
M  V30 2989 H 283.766 -2.29187 -2.95676 0
M  V30 2990 H 285.099 -2.9998 -3.90221 0
M  V30 2991 N 286.751 1.08385 -1.14413 0
M  V30 2992 C 287.661 2.18856 -0.844951 0
M  V30 2993 C 288.677 1.73121 0.174668 0
M  V30 2994 O 289.853 2.014 0.00312857 0
M  V30 2995 C 286.918 3.45155 -0.32696 0
M  V30 2996 C 285.979 4.05513 -1.40916 0
M  V30 2997 C 285.212 5.25784 -0.915793 0
M  V30 2998 O 285.435 5.69884 0.242651 0
M  V30 2999 O 284.369 5.77545 -1.69487 0
M  V30 3000 H 288.195 2.46919 -1.76818 0
M  V30 3001 H 285.78 1.17524 -0.922411 0
M  V30 3002 H 287.662 4.21377 -0.0440211 0
M  V30 3003 H 286.337 3.18668 0.568539 0
M  V30 3004 H 285.244 3.30879 -1.74556 0
M  V30 3005 H 286.577 4.3625 -2.27919 0
M  V30 3006 N 288.23 0.939286 1.26551 0
M  V30 3007 C 289.16 0.465044 2.28822 0
M  V30 3008 C 290.141 -0.480692 1.63167 0
M  V30 3009 O 291.326 -0.382955 1.90387 0
M  V30 3010 C 288.456 -0.27234 3.46231 0
M  V30 3011 C 287.41 0.58666 4.2396 0
M  V30 3012 C 286.736 -0.280573 5.33963 0
M  V30 3013 C 288.036 1.85704 4.88171 0
M  V30 3014 H 289.73 1.31979 2.68741 0
M  V30 3015 H 287.276 0.636061 1.29191 0
M  V30 3016 H 289.229 -0.615133 4.16886 0
M  V30 3017 H 287.953 -1.16121 3.0526 0
M  V30 3018 H 286.612 0.91232 3.55067 0
M  V30 3019 H 286.26 -1.16874 4.89234 0
M  V30 3020 H 285.96 0.29076 5.8688 0
M  V30 3021 H 287.484 -0.618678 6.07458 0
M  V30 3022 H 288.898 1.58161 5.51052 0
M  V30 3023 H 287.295 2.37279 5.51197 0
M  V30 3024 H 288.365 2.56957 4.11219 0
M  V30 3025 N 289.708 -1.40897 0.706093 0
M  V30 3026 C 290.618 -2.3455 0.0482286 0
M  V30 3027 C 291.634 -1.56796 -0.754396 0
M  V30 3028 O 292.81 -1.89228 -0.689538 0
M  V30 3029 C 289.875 -3.35625 -0.869303 0
M  V30 3030 C 288.936 -4.29261 -0.0576994 0
M  V30 3031 C 288.169 -5.25508 -0.931531 0
M  V30 3032 O 288.392 -5.27472 -2.17092 0
M  V30 3033 O 287.326 -6.00727 -0.375587 0
M  V30 3034 H 291.152 -2.92407 0.820476 0
M  V30 3035 H 288.737 -1.4193 0.4665 0
M  V30 3036 H 290.619 -3.97635 -1.39514 0
M  V30 3037 H 289.294 -2.80196 -1.62086 0
M  V30 3038 H 288.201 -3.70566 0.512988 0
M  V30 3039 H 289.534 -4.87817 0.655426 0
M  V30 3040 N 291.186 -0.45159 -1.50991 0
M  V30 3041 C 292.116 0.342898 -2.30969 0
M  V30 3042 C 293.097 1.00815 -1.37005 0
M  V30 3043 O 294.282 1.00907 -1.65926 0
M  V30 3044 C 291.412 1.43637 -3.16205 0
M  V30 3045 C 290.366 0.893818 -4.18563 0
M  V30 3046 C 289.692 2.08411 -4.92411 0
M  V30 3047 C 290.992 -0.0815568 -5.22236 0
M  V30 3048 H 292.686 -0.324556 -2.97636 0
M  V30 3049 H 290.232 -0.157531 -1.43136 0
M  V30 3050 H 292.185 1.9995 -3.70942 0
M  V30 3051 H 290.909 2.13232 -2.47386 0
M  V30 3052 H 289.568 0.352798 -3.64898 0
M  V30 3053 H 289.216 2.76658 -4.20082 0
M  V30 3054 H 288.916 1.72741 -5.61636 0
M  V30 3055 H 290.44 2.65251 -5.49976 0
M  V30 3056 H 291.854 0.391742 -5.7196 0
M  V30 3057 H 290.251 -0.351551 -5.99069 0
M  V30 3058 H 291.321 -1.01374 -4.74185 0
M  V30 3059 N 292.664 1.56529 -0.183458 0
M  V30 3060 C 293.91 1.97537 0.459036 0
M  V30 3061 C 294.243 1.06989 1.62071 0
M  V30 3062 O 293.518 0.11948 1.94133 0
M  V30 3063 C 293.801 3.47874 0.930368 0
M  V30 3064 C 293.654 4.492 -0.232317 0
M  V30 3065 C 294.973 4.01612 1.79989 0
M  V30 3066 H 292.092 0.718204 0.165383 0
M  V30 3067 H 294.734 1.88042 -0.272038 0
M  V30 3068 H 292.884 3.56095 1.55333 0
M  V30 3069 H 294.556 4.53027 -0.86972 0
M  V30 3070 H 292.799 4.24657 -0.885928 0
M  V30 3071 H 293.47 5.51823 0.139796 0
M  V30 3072 H 295.946 3.96097 1.27461 0
M  V30 3073 H 294.822 5.07195 2.09867 0
M  V30 3074 H 295.083 3.46163 2.74998 0
M  V30 3075 N 294.142 -0.090211 1.57342 0
M  V30 3076 C 295.105 -1.09335 2.01441 0
M  V30 3077 C 296.105 -1.32666 0.908641 0
M  V30 3078 O 297.295 -1.28697 1.174 0
M  V30 3079 C 294.427 -2.44136 2.3793 0
M  V30 3080 H 295.62 -0.713662 2.91285 0
M  V30 3081 H 293.173 -0.335404 1.52659 0
M  V30 3082 H 293.908 -2.86972 1.51055 0
M  V30 3083 H 293.693 -2.28548 3.18603 0
M  V30 3084 H 295.183 -3.16277 2.72688 0
M  V30 3085 N 295.62 -1.53406 -0.361157 0
M  V30 3086 C 296.845 -1.74024 -1.12829 0
M  V30 3087 C 297.27 -0.470069 -1.82132 0
M  V30 3088 O 296.628 0.57619 -1.719 0
M  V30 3089 C 296.676 -2.90903 -2.13091 0
M  V30 3090 O 295.78 -2.59821 -3.20261 0
M  V30 3091 H 295.121 -0.577804 -0.327168 0
M  V30 3092 H 297.651 -2.00307 -0.41693 0
M  V30 3093 H 297.661 -3.17194 -2.56616 0
M  V30 3094 H 296.336 -3.83034 -1.62042 0
M  V30 3095 H 294.913 -2.44362 -2.81677 0
M  V30 3096 N 297.098 0.621204 -1.44841 0
M  V30 3097 C 298.028 1.74366 -1.55303 0
M  V30 3098 C 299.009 1.65199 -0.405385 0
M  V30 3099 O 300.194 1.83807 -0.626787 0
M  V30 3100 C 297.324 3.12931 -1.50637 0
M  V30 3101 C 296.278 3.36896 -2.63979 0
M  V30 3102 C 295.604 4.75594 -2.44366 0
M  V30 3103 C 296.904 3.28483 -4.06074 0
M  V30 3104 H 298.598 1.65867 -2.49256 0
M  V30 3105 H 296.144 0.796558 -1.19962 0
M  V30 3106 H 298.097 3.9124 -1.56555 0
M  V30 3107 H 296.821 3.22237 -0.532057 0
M  V30 3108 H 295.48 2.60972 -2.57467 0
M  V30 3109 H 295.128 4.81616 -1.45105 0
M  V30 3110 H 294.828 4.92586 -3.20364 0
M  V30 3111 H 296.352 5.5612 -2.52117 0
M  V30 3112 H 297.766 3.96684 -4.13902 0
M  V30 3113 H 296.163 3.57008 -4.82354 0
M  V30 3114 H 297.233 2.26133 -4.28943 0
M  V30 3115 N 298.576 1.31904 0.862503 0
M  V30 3116 C 299.816 1.23324 1.63004 0
M  V30 3117 C 300.18 -0.203724 1.90916 0
M  V30 3118 O 301.381 -0.413132 2.65606 0
M  V30 3119 C 299.652 2.06116 2.91978 0
M  V30 3120 S 301.211 2.14478 3.82812 0
M  V30 3121 H 298.029 0.439117 0.559193 0
M  V30 3122 H 300.631 1.66658 1.02202 0
M  V30 3123 H 299.335 3.09593 2.69407 0
M  V30 3124 H 298.866 1.6353 3.57801 0
M  V30 3125 H 300.881 1.28855 4.79177 0
M  V30 3126 N 300.054 -1.07777 1.14986 0
M  V30 3127 C 300.986 -2.14769 0.800436 0
M  V30 3128 C 301.999 -1.61739 -0.185595 0
M  V30 3129 O 303.188 -1.78462 0.0370358 0
M  V30 3130 C 300.288 -3.38481 0.168533 0
M  V30 3131 C 299.461 -4.20876 1.1909 0
M  V30 3132 C 298.52 -5.22976 0.581575 0
M  V30 3133 O 297.546 -5.55388 1.24633 0
M  V30 3134 N 298.748 -5.76976 -0.638706 0
M  V30 3135 H 301.513 -2.45348 1.72118 0
M  V30 3136 H 299.074 -1.23645 1.04515 0
M  V30 3137 H 301.066 -4.03916 -0.251764 0
M  V30 3138 H 299.636 -3.05651 -0.655467 0
M  V30 3139 H 298.856 -3.51322 1.78791 0
M  V30 3140 H 300.144 -4.7274 1.88133 0
M  V30 3141 H 299.542 -5.52886 -1.19723 0
M  V30 3142 H 298.099 -6.44061 -1.00142 0
M  V30 3143 N 301.532 -0.945985 -1.26051 0
M  V30 3144 C 302.464 -0.416662 -2.25381 0
M  V30 3145 C 303.477 0.462712 -1.56086 0
M  V30 3146 O 304.666 0.272383 -1.7641 0
M  V30 3147 C 301.766 0.419812 -3.3629 0
M  V30 3148 C 300.939 -0.444531 -4.35135 0
M  V30 3149 C 299.998 0.332305 -5.2515 0
M  V30 3150 O 299.024 -0.266324 -5.68577 0
M  V30 3151 N 300.226 1.62763 -5.57215 0
M  V30 3152 H 302.991 -1.27059 -2.71433 0
M  V30 3153 H 300.552 -0.815392 -1.39868 0
M  V30 3154 H 302.544 0.947013 -3.93464 0
M  V30 3155 H 301.114 1.17456 -2.89694 0
M  V30 3156 H 300.334 -1.15291 -3.76964 0
M  V30 3157 H 301.622 -1.03478 -4.98166 0
M  V30 3158 H 301.02 2.13603 -5.23823 0
M  V30 3159 H 299.577 2.10097 -6.17011 0
M  V30 3160 N 303.011 1.40521 -0.713556 0
M  V30 3161 C 303.961 2.27971 -0.036165 0
M  V30 3162 C 304.945 1.43151 0.734623 0
M  V30 3163 O 306.137 1.66261 0.607158 0
M  V30 3164 C 303.266 3.31661 0.886331 0
M  V30 3165 C 302.352 4.23955 0.110836 0
M  V30 3166 N 302.743 4.97641 -0.904847 0
M  V30 3167 C 301.041 4.44674 0.343692 0
M  V30 3168 C 301.742 5.65322 -1.37064 0
M  V30 3169 N 300.718 5.39162 -0.693168 0
M  V30 3170 H 304.52 2.82384 -0.814645 0
M  V30 3171 H 302.034 1.52948 -0.545963 0
M  V30 3172 H 304.031 3.93154 1.38692 0
M  V30 3173 H 302.691 2.78808 1.66421 0
M  V30 3174 H 303.702 5.01689 -1.28563 0
M  V30 3175 H 300.379 4.02801 1.09805 0
M  V30 3176 H 301.769 6.34359 -2.21447 0
M  V30 3177 N 304.489 0.459591 1.5075 0
M  V30 3178 C 305.766 -0.160371 1.94941 0
M  V30 3179 C 306.146 -1.58048 1.39943 0
M  V30 3180 O 305.494 -2.206 0.595629 0
M  V30 3181 C 305.704 -0.115432 3.48809 0
M  V30 3182 C 307.052 -0.310026 4.23467 0
M  V30 3183 O 308.076 -0.192543 3.55679 0
M  V30 3184 O 306.935 -0.546031 5.43765 0
M  V30 3185 H 304.029 -0.117925 0.818549 0
M  V30 3186 H 306.575 0.519169 1.61563 0
M  V30 3187 H 305.347 0.87652 3.81357 0
M  V30 3188 H 304.97 -0.836928 3.88692 0
M  V30 3189 N 305.967 -1.56429 0.191757 0
M  V30 3190 C 307.213 -1.97777 -0.448554 0
M  V30 3191 C 307.546 -1.07847 -1.61501 0
M  V30 3192 O 306.821 -0.129774 -1.94067 0
M  V30 3193 C 307.104 -3.48362 -0.911906 0
M  V30 3194 C 306.957 -4.4907 0.256136 0
M  V30 3195 C 308.276 -4.02561 -1.77857 0
M  V30 3196 H 305.395 -0.719071 -0.161572 0
M  V30 3197 H 308.037 -1.87896 0.282007 0
M  V30 3198 H 306.187 -3.56914 -1.53442 0
M  V30 3199 H 307.859 -4.5256 0.893733 0
M  V30 3200 H 306.102 -4.24181 0.908436 0
M  V30 3201 H 306.773 -5.51889 -0.11053 0
M  V30 3202 H 309.249 -3.96767 -1.25359 0
M  V30 3203 H 308.125 -5.08301 -2.07174 0
M  V30 3204 H 308.386 -3.47616 -2.73158 0
M  V30 3205 N 307.445 0.0818655 -1.57387 0
M  V30 3206 C 308.691 0.784074 -1.8703 0
M  V30 3207 C 309.024 1.77729 -0.782689 0
M  V30 3208 O 308.299 1.93384 0.208051 0
M  V30 3209 C 308.582 1.50105 -3.27323 0
M  V30 3210 C 308.435 0.524925 -4.46727 0
M  V30 3211 C 309.754 2.44843 -3.65705 0
M  V30 3212 H 306.873 0.283582 -0.680257 0
M  V30 3213 H 309.515 0.0474352 -1.89941 0
M  V30 3214 H 307.665 2.12897 -3.24972 0
M  V30 3215 H 309.337 -0.0970111 -4.61198 0
M  V30 3216 H 307.58 -0.160606 -4.33503 0
M  V30 3217 H 308.251 1.064 -5.41648 0
M  V30 3218 H 310.727 1.92135 -3.69085 0
M  V30 3219 H 309.603 2.92018 -4.64776 0
M  V30 3220 H 309.864 3.29197 -2.95096 0
M  V30 3221 N 308.923 1.53595 0.353017 0
M  V30 3222 C 310.163 1.72094 1.10286 0
M  V30 3223 C 310.527 0.469217 1.86178 0
M  V30 3224 O 311.728 0.531083 2.63501 0
M  V30 3225 C 309.999 2.94386 2.02661 0
M  V30 3226 S 311.558 3.33651 2.84996 0
M  V30 3227 H 308.376 0.605433 0.372789 0
M  V30 3228 H 310.978 1.91722 0.38248 0
M  V30 3229 H 309.682 3.83669 1.45691 0
M  V30 3230 H 309.213 2.77197 2.79152 0
M  V30 3231 H 311.228 2.86645 4.0503 0
M  V30 3232 N 310.401 -0.613514 1.45168 0
M  V30 3233 C 311.65 -1.36874 1.4815 0
M  V30 3234 C 311.963 -1.952 0.124982 0
M  V30 3235 O 313.169 -2.71481 0.0324176 0
M  V30 3236 C 311.625 -2.47905 2.60904 0
M  V30 3237 C 311.233 -1.96016 4.02842 0
M  V30 3238 C 312.977 -3.24965 2.73126 0
M  V30 3239 C 310.884 -3.04494 5.06988 0
M  V30 3240 H 309.814 -0.514428 0.551253 0
M  V30 3241 H 312.465 -0.658182 1.7129 0
M  V30 3242 H 310.847 -3.21618 2.31037 0
M  V30 3243 H 312.021 -1.29051 4.4236 0
M  V30 3244 H 310.336 -1.31719 3.95018 0
M  V30 3245 H 312.933 -4.05865 3.48106 0
M  V30 3246 H 313.276 -3.75588 1.79553 0
M  V30 3247 H 313.809 -2.5835 3.0249 0
M  V30 3248 H 310.548 -2.58795 6.0225 0
M  V30 3249 H 310.068 -3.70044 4.72046 0
M  V30 3250 H 311.747 -3.68976 5.31475 0
M  V30 3251 N 311.879 -1.3236 -0.855495 0
M  V30 3252 C 313.107 -1.2587 -1.64208 0
M  V30 3253 C 313.522 0.173457 -1.88002 0
M  V30 3254 O 312.879 1.11027 -1.44842 0
M  V30 3255 C 312.93 -2.01424 -3.00184 0
M  V30 3256 O 312.651 -3.39051 -2.77445 0
M  V30 3257 C 314.152 -2.01948 -3.94629 0
M  V30 3258 H 311.372 -0.434318 -0.511477 0
M  V30 3259 H 313.916 -1.74469 -1.0668 0
M  V30 3260 H 312.071 -1.56549 -3.5436 0
M  V30 3261 H 312.485 -3.77711 -3.63916 0
M  V30 3262 H 313.959 -2.59297 -4.87308 0
M  V30 3263 H 314.436 -1.00554 -4.27534 0
M  V30 3264 H 315.042 -2.46767 -3.4639 0
M  V30 3265 N 313.357 1.07166 -1.15556 0
M  V30 3266 C 314.634 1.76546 -0.842069 0
M  V30 3267 C 315.014 2.00453 0.661939 0
M  V30 3268 O 314.362 1.62452 1.60691 0
M  V30 3269 C 314.572 3.07266 -1.65495 0
M  V30 3270 C 315.92 3.81578 -1.86234 0
M  V30 3271 O 316.944 3.17083 -1.62287 0
M  V30 3272 O 315.803 4.97419 -2.26355 0
M  V30 3273 H 312.897 0.766756 -0.309862 0
M  V30 3274 H 315.443 1.13514 -1.26145 0
M  V30 3275 H 314.215 2.85494 -2.67598 0
M  V30 3276 H 313.838 3.7803 -1.23203 0
M  V30 3277 N 314.835 0.952656 1.25548 0
M  V30 3278 C 315.745 0.47782 2.29682 0
M  V30 3279 C 316.761 -0.453859 1.67977 0
M  V30 3280 O 317.937 -0.330587 1.98668 0
M  V30 3281 C 315.002 -0.238655 3.45878 0
M  V30 3282 C 314.063 0.730994 4.23031 0
M  V30 3283 C 313.296 0.0486165 5.33678 0
M  V30 3284 O 313.519 -1.16612 5.58353 0
M  V30 3285 O 312.453 0.733152 5.97418 0
M  V30 3286 H 316.279 1.34312 2.72386 0
M  V30 3287 H 313.864 0.719026 1.30959 0
M  V30 3288 H 315.746 -0.641774 4.16484 0
M  V30 3289 H 314.421 -1.07916 3.05181 0
M  V30 3290 H 313.328 1.18428 3.5486 0
M  V30 3291 H 314.661 1.53946 4.67506 0
M  V30 3292 N 316.313 -1.40141 0.720998 0
M  V30 3293 C 317.559 -2.01084 0.263231 0
M  V30 3294 C 317.892 -1.57052 -1.14229 0
M  V30 3295 O 317.167 -0.793027 -1.77599 0
M  V30 3296 C 317.45 -3.58401 0.349344 0
M  V30 3297 C 317.303 -4.12491 1.79363 0
M  V30 3298 C 318.622 -4.39231 -0.276351 0
M  V30 3299 H 315.741 -0.730572 0.0971228 0
M  V30 3300 H 318.383 -1.66543 0.914518 0
M  V30 3301 H 316.533 -3.87958 -0.205165 0
M  V30 3302 H 318.205 -3.93711 2.40394 0
M  V30 3303 H 316.448 -3.66576 2.31958 0
M  V30 3304 H 317.119 -5.21646 1.80524 0
M  V30 3305 H 319.595 -4.15637 0.196184 0
M  V30 3306 H 318.471 -5.48586 -0.185681 0
M  V30 3307 H 318.732 -4.20643 -1.36059 0
M  V30 3308 N 317.792 -0.46758 -1.50504 0
M  V30 3309 C 319.022 0.086288 -2.0642 0
M  V30 3310 C 319.43 1.34369 -1.33197 0
M  V30 3311 O 318.773 1.79431 -0.393747 0
M  V30 3312 C 318.835 0.443846 -3.5675 0
M  V30 3313 C 318.499 -0.711035 -4.51435 0
M  V30 3314 C 319.496 -1.59205 -4.94924 0
M  V30 3315 C 317.181 -0.900363 -4.94165 0
M  V30 3316 C 319.175 -2.64683 -5.79846 0
M  V30 3317 C 316.862 -1.95837 -5.7887 0
M  V30 3318 C 317.86 -2.82997 -6.21612 0
M  V30 3319 O 317.548 -3.86977 -7.0463 0
M  V30 3320 H 317.28 -0.00217814 -0.675996 0
M  V30 3321 H 319.834 -0.654346 -1.94698 0
M  V30 3322 H 318.064 1.23762 -3.6636 0
M  V30 3323 H 319.753 0.932386 -3.95046 0
M  V30 3324 H 320.519 -1.45745 -4.62583 0
M  V30 3325 H 316.398 -0.231427 -4.60419 0
M  V30 3326 H 319.942 -3.32745 -6.13128 0
M  V30 3327 H 315.839 -2.09305 -6.10624 0
M  V30 3328 H 316.607 -3.83923 -7.22873 0
M  V30 3329 N 319.27 1.56325 -0.20005 0
M  V30 3330 C 320.202 2.16555 0.750771 0
M  V30 3331 C 321.215 1.12871 1.1732 0
M  V30 3332 O 322.404 1.39943 1.10807 0
M  V30 3333 C 319.504 2.71684 2.02586 0
M  V30 3334 C 318.677 4.00321 1.76244 0
M  V30 3335 C 317.736 4.40227 2.88248 0
M  V30 3336 O 316.762 5.07552 2.57642 0
M  V30 3337 N 317.964 4.04138 4.16717 0
M  V30 3338 H 320.729 2.98772 0.235685 0
M  V30 3339 H 318.29 1.6189 -0.0182594 0
M  V30 3340 H 320.282 2.95363 2.76664 0
M  V30 3341 H 318.852 1.93893 2.45202 0
M  V30 3342 H 318.072 3.84723 0.85919 0
M  V30 3343 H 319.36 4.84279 1.56048 0
M  V30 3344 H 318.758 3.49993 4.44434 0
M  V30 3345 H 317.315 4.32756 4.87407 0
M  V30 3346 N 320.748 -0.0735177 1.57428 0
M  V30 3347 C 321.994 -0.768909 1.88307 0
M  V30 3348 C 322.349 -1.75273 0.793535 0
M  V30 3349 O 321.642 -1.90527 -0.202466 0
M  V30 3350 C 321.836 -1.51799 3.23561 0
M  V30 3351 C 321.665 -0.608217 4.45568 0
M  V30 3352 C 320.435 -0.245808 5.04702 0
M  V30 3353 C 322.633 0.0942904 5.14214 0
M  V30 3354 N 320.615 0.66987 6.10234 0
M  V30 3355 C 321.986 0.867222 6.13905 0
M  V30 3356 C 324.041 0.165943 4.97623 0
M  V30 3357 C 322.744 1.70515 6.98797 0
M  V30 3358 C 324.77 0.990837 5.83041 0
M  V30 3359 C 324.132 1.75182 6.82269 0
M  V30 3360 H 320.231 -0.25685 0.738615 0
M  V30 3361 H 322.815 -0.030499 1.94676 0
M  V30 3362 H 320.986 -2.22713 3.18203 0
M  V30 3363 H 322.718 -2.16226 3.42094 0
M  V30 3364 H 319.473 -0.598284 4.69806 0
M  V30 3365 H 319.897 1.1209 6.67656 0
M  V30 3366 H 324.539 -0.408064 4.20826 0
M  V30 3367 H 322.257 2.29013 7.7497 0
M  V30 3368 H 325.843 1.04923 5.72261 0
M  V30 3369 H 324.723 2.37983 7.47217 0
M  V30 3370 N 322.226 -1.5378 -0.344866 0
M  V30 3371 C 323.159 -1.7649 -1.4466 0
M  V30 3372 C 324.137 -0.613954 -1.50563 0
M  V30 3373 O 325.321 -0.84896 -1.683 0
M  V30 3374 C 322.448 -1.86235 -2.82903 0
M  V30 3375 C 321.494 -3.08375 -2.94631 0
M  V30 3376 S 322.327 -4.67457 -2.61236 0
M  V30 3377 C 323.483 -4.80079 -4.0159 0
M  V30 3378 H 323.716 -2.69661 -1.2518 0
M  V30 3379 H 321.249 -1.44632 -0.540455 0
M  V30 3380 H 323.207 -1.92535 -3.62547 0
M  V30 3381 H 321.868 -0.940786 -2.9968 0
M  V30 3382 H 321.061 -3.11865 -3.95925 0
M  V30 3383 H 320.663 -3.00294 -2.22934 0
M  V30 3384 H 322.955 -4.61407 -4.96094 0
M  V30 3385 H 323.898 -5.82168 -4.03095 0
M  V30 3386 H 324.306 -4.08544 -3.89554 0
M  V30 3387 N 323.704 0.605807 -1.45491 0
M  V30 3388 C 324.95 1.36679 -1.49823 0
M  V30 3389 C 325.283 1.93693 -0.140175 0
M  V30 3390 O 324.558 1.75158 0.845581 0
M  V30 3391 C 324.841 2.51337 -2.57879 0
M  V30 3392 C 324.694 1.99508 -4.03134 0
M  V30 3393 C 326.013 3.53463 -2.62205 0
M  V30 3394 H 323.132 0.495617 -0.545466 0
M  V30 3395 H 325.774 0.682732 -1.7731 0
M  V30 3396 H 323.924 3.09691 -2.34571 0
M  V30 3397 H 325.596 1.45789 -4.37656 0
M  V30 3398 H 323.839 1.30496 -4.13707 0
M  V30 3399 H 324.51 2.82169 -4.74431 0
M  V30 3400 H 326.986 3.04953 -2.83095 0
M  V30 3401 H 325.862 4.31178 -3.39672 0
M  V30 3402 H 326.123 4.09197 -1.67363 0
M  V30 3403 N 325.182 1.32811 0.848464 0
M  V30 3404 C 326.412 1.26556 1.63301 0
M  V30 3405 C 326.82 -0.1676 1.88456 0
M  V30 3406 O 326.163 -1.11713 1.45828 0
M  V30 3407 C 326.225 1.96202 3.01239 0
M  V30 3408 C 325.889 3.45528 2.99098 0
M  V30 3409 C 326.886 4.40903 2.75501 0
M  V30 3410 C 324.571 3.87558 3.19537 0
M  V30 3411 C 326.565 5.76282 2.72356 0
M  V30 3412 C 324.252 5.23044 3.16019 0
M  V30 3413 C 325.25 6.17217 2.92458 0
M  V30 3414 O 324.938 7.50223 2.88825 0
M  V30 3415 H 324.67 0.43771 0.515156 0
M  V30 3416 H 327.224 1.7559 1.0657 0
M  V30 3417 H 325.454 1.41746 3.59785 0
M  V30 3418 H 327.143 1.83573 3.62016 0
M  V30 3419 H 327.909 4.09756 2.5947 0
M  V30 3420 H 323.788 3.14674 3.369 0
M  V30 3421 H 327.332 6.4976 2.53886 0
M  V30 3422 H 323.229 5.53818 3.31596 0
M  V30 3423 H 323.997 7.59657 3.04735 0
M  V30 3424 N 326.66 -1.06551 1.16123 0
M  V30 3425 C 327.937 -1.76097 0.85142 0
M  V30 3426 C 328.317 -2.00802 -0.6513 0
M  V30 3427 O 327.665 -1.63302 -1.59827 0
M  V30 3428 C 327.875 -3.06384 1.67122 0
M  V30 3429 C 329.223 -3.80585 1.88255 0
M  V30 3430 O 330.247 -3.16218 1.63966 0
M  V30 3431 O 329.106 -4.96212 2.2899 0
M  V30 3432 H 326.2 -0.765102 0.313923 0
M  V30 3433 H 328.746 -1.12844 1.26745 0
M  V30 3434 H 327.518 -2.84071 2.69108 0
M  V30 3435 H 327.141 -3.77371 1.25206 0
M  V30 3436 N 328.138 -0.959301 -1.25041 0
M  V30 3437 C 329.386 -0.615393 -1.92503 0
M  V30 3438 C 329.707 0.850969 -1.75452 0
M  V30 3439 O 328.977 1.60658 -1.12098 0
M  V30 3440 H 327.557 -0.224613 -0.712431 0
M  V30 3441 H 330.219 -1.21855 -1.5211 0
M  V30 3442 H 329.315 -0.848738 -3.00338 0
M  V30 3443 N 329.616 1.39756 -0.72842 0
M  V30 3444 C 330.566 2.2792 -0.0603424 0
M  V30 3445 C 331.55 1.43922 0.719399 0
M  V30 3446 O 332.742 1.66895 0.589489 0
M  V30 3447 C 329.871 3.32582 0.851104 0
M  V30 3448 C 328.957 4.24049 0.0658641 0
M  V30 3449 N 329.348 4.96653 -0.957578 0
M  V30 3450 C 327.646 4.45013 0.296509 0
M  V30 3451 C 328.347 5.63836 -1.43052 0
M  V30 3452 N 327.323 5.38397 -0.750315 0
M  V30 3453 H 331.125 2.81504 -0.84455 0
M  V30 3454 H 328.639 1.5236 -0.562155 0
M  V30 3455 H 330.636 3.94603 1.34514 0
M  V30 3456 H 329.296 2.80558 1.63454 0
M  V30 3457 H 330.307 5.00297 -1.33877 0
M  V30 3458 H 326.984 4.03943 1.05527 0
M  V30 3459 H 328.374 6.31974 -2.28163 0
M  V30 3460 N 331.094 0.475555 1.50254 0
M  V30 3461 C 332.026 -0.352649 2.26471 0
M  V30 3462 C 333.039 -0.953165 1.3198 0
M  V30 3463 O 334.228 -0.840815 1.57457 0
M  V30 3464 C 331.328 -1.50902 3.0345 0
M  V30 3465 C 330.501 -1.02047 4.25329 0
M  V30 3466 C 329.56 -2.05142 4.84565 0
M  V30 3467 O 328.586 -1.63023 5.45355 0
M  V30 3468 N 329.788 -3.37987 4.71959 0
M  V30 3469 H 332.553 0.300767 2.98187 0
M  V30 3470 H 330.114 0.306598 1.5897 0
M  V30 3471 H 332.106 -2.19572 3.39956 0
M  V30 3472 H 330.676 -2.06705 2.34504 0
M  V30 3473 H 329.896 -0.159507 3.93877 0
M  V30 3474 H 331.184 -0.672061 5.04342 0
M  V30 3475 H 330.582 -3.74913 4.23623 0
M  V30 3476 H 329.139 -4.02443 5.12721 0
M  V30 3477 N 332.573 -1.56217 0.208337 0
M  V30 3478 C 333.523 -2.16324 -0.720281 0
M  V30 3479 C 334.507 -1.10775 -1.16695 0
M  V30 3480 O 335.699 -1.36801 -1.12314 0
M  V30 3481 C 332.828 -2.83644 -1.93393 0
M  V30 3482 C 331.914 -3.96401 -1.50755 0
M  V30 3483 N 332.305 -4.99546 -0.792937 0
M  V30 3484 C 330.603 -4.08246 -1.79585 0
M  V30 3485 C 331.304 -5.78828 -0.577364 0
M  V30 3486 N 330.28 -5.31723 -1.1301 0
M  V30 3487 H 334.082 -2.93432 -0.165725 0
M  V30 3488 H 331.596 -1.62397 0.00906463 0
M  V30 3489 H 333.593 -3.25107 -2.60981 0
M  V30 3490 H 332.253 -2.08027 -2.49308 0
M  V30 3491 H 333.264 -5.15967 -0.447004 0
M  V30 3492 H 329.941 -3.4377 -2.36915 0
M  V30 3493 H 331.331 -6.71899 -0.00952956 0
M  V30 3494 N 334.051 0.0651679 -1.57465 0
M  V30 3495 C 335.3 0.761916 -1.86756 0
M  V30 3496 C 335.613 1.78406 -0.801925 0
M  V30 3497 O 336.819 2.53084 -0.982885 0
M  V30 3498 C 335.275 1.40603 -3.31299 0
M  V30 3499 C 334.883 0.422115 -4.46007 0
M  V30 3500 C 336.627 2.08476 -3.69781 0
M  V30 3501 C 334.534 1.07252 -5.81593 0
M  V30 3502 H 333.464 0.288308 -0.696702 0
M  V30 3503 H 336.115 0.015344 -1.83494 0
M  V30 3504 H 334.497 2.20109 -3.29193 0
M  V30 3505 H 335.671 -0.343613 -4.59517 0
M  V30 3506 H 333.986 -0.152527 -4.16121 0
M  V30 3507 H 336.583 2.57925 -4.68379 0
M  V30 3508 H 336.926 2.88712 -2.99919 0
M  V30 3509 H 337.459 1.35792 -3.73905 0
M  V30 3510 H 334.198 0.310342 -6.54765 0
M  V30 3511 H 333.718 1.80895 -5.71872 0
M  V30 3512 H 335.397 1.59043 -6.27148 0
M  V30 3513 N 335.529 1.53961 0.336706 0
M  V30 3514 C 336.754 1.75797 1.10046 0
M  V30 3515 C 337.179 0.498985 1.81361 0
M  V30 3516 O 336.537 -0.548769 1.72795 0
M  V30 3517 C 336.585 2.94257 2.08436 0
M  V30 3518 O 335.689 2.64883 3.16087 0
M  V30 3519 H 335.03 0.582936 0.317934 0
M  V30 3520 H 337.56 2.00945 0.38501 0
M  V30 3521 H 337.57 3.21237 2.51537 0
M  V30 3522 H 336.245 3.85564 1.55927 0
M  V30 3523 H 334.822 2.48812 2.77753 0
M  V30 3524 N 337.007 -0.598083 1.45811 0
M  V30 3525 C 338.256 -1.35295 1.49594 0
M  V30 3526 C 338.569 -1.95057 0.145679 0
M  V30 3527 O 339.775 -2.71431 0.0612099 0
M  V30 3528 C 338.231 -2.45124 2.63519 0
M  V30 3529 C 337.839 -1.91732 4.04899 0
M  V30 3530 C 339.583 -3.2205 2.76558 0
M  V30 3531 C 337.49 -2.991 5.1019 0
M  V30 3532 H 336.42 -0.508552 0.556679 0
M  V30 3533 H 339.071 -0.639977 1.71978 0
M  V30 3534 H 337.453 -3.19149 2.34435 0
M  V30 3535 H 338.627 -1.24352 4.43704 0
M  V30 3536 H 336.942 -1.27522 3.96393 0
M  V30 3537 H 339.539 -4.0215 3.52391 0
M  V30 3538 H 339.882 -3.73663 1.83526 0
M  V30 3539 H 340.415 -2.55127 3.05213 0
M  V30 3540 H 337.154 -2.52393 6.04961 0
M  V30 3541 H 336.674 -3.65017 4.75944 0
M  V30 3542 H 338.353 -3.63318 5.35359 0
M  V30 3543 N 338.485 -1.33259 -0.841409 0
M  V30 3544 C 339.448 -1.23221 -1.9326 0
M  V30 3545 C 340.448 -0.151895 -1.60081 0
M  V30 3546 O 341.638 -0.403246 -1.69468 0
M  V30 3547 C 338.77 -0.898123 -3.28856 0
M  V30 3548 H 339.963 -2.2021 -2.03587 0
M  V30 3549 H 337.516 -1.17281 -1.03319 0
M  V30 3550 H 338.251 0.0693841 -3.24226 0
M  V30 3551 H 338.036 -1.67934 -3.54317 0
M  V30 3552 H 339.526 -0.852563 -4.08805 0
M  V30 3553 N 339.963 1.05934 -1.16686 0
M  V30 3554 C 341.188 1.83029 -0.975455 0
M  V30 3555 C 341.613 1.82096 0.471452 0
M  V30 3556 O 340.971 1.22443 1.33706 0
M  V30 3557 C 341.019 3.27372 -1.51195 0
M  V30 3558 O 340.123 4.06054 -0.720701 0
M  V30 3559 H 339.464 0.566194 -0.346872 0
M  V30 3560 H 341.994 1.33541 -1.55009 0
M  V30 3561 H 342.004 3.78186 -1.53099 0
M  V30 3562 H 340.679 3.27366 -2.56523 0
M  V30 3563 H 339.256 3.64812 -0.772458 0
M  V30 3564 N 341.441 0.965919 1.2453 0
M  V30 3565 C 342.371 0.513476 2.27784 0
M  V30 3566 C 343.352 -0.445974 1.6415 0
M  V30 3567 O 344.537 -0.342485 1.91156 0
M  V30 3568 C 341.667 -0.198839 3.4673 0
M  V30 3569 C 340.621 0.676456 4.2262 0
M  V30 3570 C 339.947 -0.167248 5.34438 0
M  V30 3571 C 341.247 1.96017 4.84123 0
M  V30 3572 H 342.941 1.3765 2.65881 0
M  V30 3573 H 340.487 0.663321 1.27813 0
M  V30 3574 H 342.44 -0.526567 4.18097 0
M  V30 3575 H 341.164 -1.0962 3.07654 0
M  V30 3576 H 339.823 0.98743 3.53052 0
M  V30 3577 H 339.471 -1.0647 4.91603 0
M  V30 3578 H 339.171 0.415181 5.86131 0
M  V30 3579 H 340.695 -0.489688 6.08633 0
M  V30 3580 H 342.109 1.69814 5.47573 0
M  V30 3581 H 340.506 2.48918 5.4604 0
M  V30 3582 H 341.576 2.65622 4.05676 0
M  V30 3583 N 342.919 -1.39368 0.735821 0
M  V30 3584 C 344.33 -1.83313 0.354015 0
M  V30 3585 C 344.681 -1.61461 -1.11466 0
M  V30 3586 O 343.806 -1.10621 -1.85989 0
M  V30 3587 C 344.401 -3.32781 0.635769 0
M  V30 3588 C 342.96 -3.75142 0.307448 0
M  V30 3589 C 342.107 -2.62358 0.897974 0
M  V30 3590 H 345.058 -1.28349 0.933398 0
M  V30 3591 H 345.079 -3.80388 -0.0921773 0
M  V30 3592 H 344.591 -3.48654 1.70476 0
M  V30 3593 H 342.692 -3.64857 -0.755674 0
M  V30 3594 H 342.805 -4.72532 0.790583 0
M  V30 3595 H 341.169 -2.52624 0.324551 0
M  V30 3596 H 341.952 -2.81036 1.97164 0
M  V30 3597 N 344.397 -0.483516 -1.5 0
M  V30 3598 C 345.645 0.067027 -2.01989 0
M  V30 3599 C 345.966 1.3909 -1.36671 0
M  V30 3600 O 345.236 1.88978 -0.516152 0
M  V30 3601 H 343.816 0.0277606 -0.746484 0
M  V30 3602 H 346.478 -0.636773 -1.84204 0
M  V30 3603 H 345.574 0.209484 -3.11396 0
M  V30 3604 N 345.875 1.56104 -0.216619 0
M  V30 3605 C 346.808 2.16026 0.735395 0
M  V30 3606 C 347.786 1.1032 1.1945 0
M  V30 3607 O 348.97 1.38549 1.27814 0
M  V30 3608 C 346.097 2.73656 1.99575 0
M  V30 3609 C 345.143 3.92146 1.67702 0
M  V30 3610 S 345.976 5.29397 0.806145 0
M  V30 3611 C 347.132 5.90463 2.07617 0
M  V30 3612 H 347.365 2.96439 0.226072 0
M  V30 3613 H 344.898 1.544 -0.00136639 0
M  V30 3614 H 346.856 3.075 2.71945 0
M  V30 3615 H 345.517 1.93245 2.47619 0
M  V30 3616 H 344.71 4.30954 2.61332 0
M  V30 3617 H 344.312 3.59423 1.03398 0
M  V30 3618 H 346.604 6.06136 3.02664 0
M  V30 3619 H 347.547 6.86589 1.73207 0
M  V30 3620 H 347.955 5.19252 2.21445 0
M  V30 3621 N 347.353 -0.0568162 1.57498 0
M  V30 3622 C 348.599 -0.748893 1.89111 0
M  V30 3623 C 348.954 -1.74422 0.81208 0
M  V30 3624 O 348.247 -1.90731 -0.182247 0
M  V30 3625 C 348.441 -1.48359 3.25153 0
M  V30 3626 C 348.27 -0.560924 4.46188 0
M  V30 3627 C 347.04 -0.192264 5.04934 0
M  V30 3628 C 349.238 0.148824 5.14085 0
M  V30 3629 N 347.22 0.734555 6.0949 0
M  V30 3630 C 348.591 0.932286 6.12951 0
M  V30 3631 C 350.646 0.218713 4.97419 0
M  V30 3632 C 349.349 1.77917 6.96949 0
M  V30 3633 C 351.375 1.05262 5.81957 0
M  V30 3634 C 350.737 1.82409 6.80372 0
M  V30 3635 H 346.836 -0.249002 0.741298 0
M  V30 3636 H 349.42 -0.00984926 1.94698 0
M  V30 3637 H 347.591 -2.19326 3.20547 0
M  V30 3638 H 349.323 -2.12586 3.44368 0
M  V30 3639 H 346.078 -0.548421 4.70414 0
M  V30 3640 H 346.502 1.19165 6.6643 0
M  V30 3641 H 351.144 -0.363407 4.21235 0
M  V30 3642 H 348.862 2.3722 7.72497 0
M  V30 3643 H 352.448 1.10987 5.71116 0
M  V30 3644 H 351.328 2.45895 7.44651 0
M  V30 3645 N 348.832 -1.54138 -0.328536 0
M  V30 3646 C 349.742 -1.86192 -1.42723 0
M  V30 3647 C 350.758 -0.753382 -1.56844 0
M  V30 3648 O 351.934 -1.04718 -1.72035 0
M  V30 3649 C 348.999 -2.07824 -2.77507 0
M  V30 3650 C 348.06 -3.31641 -2.72603 0
M  V30 3651 C 347.293 -3.52232 -4.00959 0
M  V30 3652 O 347.516 -2.7636 -4.9898 0
M  V30 3653 O 346.45 -4.45699 -4.0452 0
M  V30 3654 H 350.276 -2.79608 -1.18547 0
M  V30 3655 H 347.861 -1.3998 -0.522104 0
M  V30 3656 H 349.743 -2.23411 -3.57303 0
M  V30 3657 H 348.418 -1.17596 -3.01584 0
M  V30 3658 H 347.325 -3.21444 -1.91376 0
M  V30 3659 H 348.658 -4.2191 -2.53481 0
M  V30 3660 N 350.31 0.590341 -1.46126 0
M  V30 3661 C 351.726 0.912917 -1.30912 0
M  V30 3662 C 351.926 1.99616 -0.274893 0
M  V30 3663 O 350.982 2.50397 0.325197 0
M  V30 3664 C 352.295 1.3375 -2.69317 0
M  V30 3665 C 353.843 1.45077 -2.77348 0
M  V30 3666 C 354.318 1.90904 -4.16317 0
M  V30 3667 N 355.809 1.9811 -4.18696 0
M  V30 3668 C 356.544 2.34828 -5.23109 0
M  V30 3669 N 356.04 2.70393 -6.37856 0
M  V30 3670 N 357.833 2.35317 -5.10473 0
M  V30 3671 H 349.984 -0.125358 -2.1203 0
M  V30 3672 H 352.247 0.00658481 -0.947977 0
M  V30 3673 H 351.953 0.615614 -3.4627 0
M  V30 3674 H 351.827 2.30058 -2.9892 0
M  V30 3675 H 354.214 2.16353 -2.00687 0
M  V30 3676 H 354.295 0.4704 -2.51438 0
M  V30 3677 H 353.939 1.20209 -4.9347 0
M  V30 3678 H 353.869 2.89886 -4.39629 0
M  V30 3679 H 356.36 1.73146 -3.359 0
M  V30 3680 H 356.673 2.97341 -7.13308 0
M  V30 3681 H 355.018 2.68048 -6.41229 0
M  V30 3682 H 358.209 2.0695 -4.19868 0
M  V30 3683 H 358.382 2.63605 -5.9196 0
M  V30 3684 N 351.788 1.33704 0.83433 0
M  V30 3685 C 353.016 1.28467 1.62185 0
M  V30 3686 C 353.431 -0.143526 1.88254 0
M  V30 3687 O 352.788 -1.08709 1.4659 0
M  V30 3688 C 352.839 2.06174 2.96942 0
M  V30 3689 O 352.56 3.43422 2.72016 0
M  V30 3690 C 354.061 2.08201 3.91366 0
M  V30 3691 H 351.281 0.4424 0.504503 0
M  V30 3692 H 353.825 1.76145 1.03891 0
M  V30 3693 H 351.98 1.62167 3.51825 0
M  V30 3694 H 352.394 3.83453 3.57861 0
M  V30 3695 H 353.868 2.67017 4.83121 0
M  V30 3696 H 354.345 1.07343 4.2588 0
M  V30 3697 H 354.951 2.52246 3.42421 0
M  V30 3698 N 353.266 -1.05314 1.17247 0
M  V30 3699 C 354.196 -2.1498 0.911362 0
M  V30 3700 C 355.177 -1.69471 -0.146169 0
M  V30 3701 O 356.362 -1.942 0.003812 0
M  V30 3702 C 353.492 -3.4472 0.422528 0
M  V30 3703 C 352.446 -4.03789 1.4191 0
M  V30 3704 C 351.772 -5.28858 0.788274 0
M  V30 3705 C 353.072 -4.41418 2.7919 0
M  V30 3706 H 354.766 -2.3708 1.82848 0
M  V30 3707 H 352.312 -1.13938 0.880569 0
M  V30 3708 H 354.265 -4.20787 0.227289 0
M  V30 3709 H 352.989 -3.22269 -0.530123 0
M  V30 3710 H 351.648 -3.2979 1.60106 0
M  V30 3711 H 351.296 -5.02709 -0.171173 0
M  V30 3712 H 350.996 -5.69338 1.45353 0
M  V30 3713 H 352.52 -6.07612 0.603282 0
M  V30 3714 H 353.934 -5.08524 2.64719 0
M  V30 3715 H 352.331 -4.92913 3.42282 0
M  V30 3716 H 353.401 -3.51819 3.33693 0
M  V30 3717 N 354.744 -0.972509 -1.24016 0
M  V30 3718 C 355.972 -0.654803 -1.96265 0
M  V30 3719 C 356.387 0.776708 -1.72083 0
M  V30 3720 O 355.744 1.52171 -1.00748 0
M  V30 3721 C 355.795 -0.92592 -3.49441 0
M  V30 3722 O 355.516 -2.30116 -3.72798 0
M  V30 3723 C 357.017 -0.623068 -4.38899 0
M  V30 3724 H 354.237 -0.243907 -0.6251 0
M  V30 3725 H 356.781 -1.30175 -1.57717 0
M  V30 3726 H 354.936 -0.325108 -3.86033 0
M  V30 3727 H 355.35 -2.38483 -4.67147 0
M  V30 3728 H 356.824 -0.863189 -5.45209 0
M  V30 3729 H 357.301 0.442754 -4.36963 0
M  V30 3730 H 357.907 -1.204 -4.07902 0
M  V30 3731 N 356.222 1.38976 -0.743202 0
M  V30 3732 C 357.471 1.99581 -0.291592 0
M  V30 3733 C 357.784 1.59656 1.13001 0
M  V30 3734 O 358.99 2.13157 1.68156 0
M  V30 3735 C 357.446 3.56813 -0.470391 0
M  V30 3736 C 357.054 4.05695 -1.90041 0
M  V30 3737 C 358.798 4.24423 -0.0809709 0
M  V30 3738 C 356.705 5.5553 -2.02832 0
M  V30 3739 H 355.635 0.746615 -0.105272 0
M  V30 3740 H 358.286 1.58872 -0.918258 0
M  V30 3741 H 356.668 3.95359 0.225299 0
M  V30 3742 H 357.842 3.78464 -2.62872 0
M  V30 3743 H 356.157 3.50775 -2.24379 0
M  V30 3744 H 358.754 5.34474 -0.155445 0
M  V30 3745 H 359.097 4.04962 0.96497 0
M  V30 3746 H 359.63 3.9108 -0.728124 0
M  V30 3747 H 356.369 5.79881 -3.05643 0
M  V30 3748 H 355.889 5.84537 -1.34448 0
M  V30 3749 H 357.568 6.21069 -1.81335 0
M  V30 3750 N 357.7 0.491464 1.49741 0
M  V30 3751 C 358.948 -0.0563141 2.02022 0
M  V30 3752 C 359.269 -1.38363 1.37407 0
M  V30 3753 O 358.539 -1.88702 0.526166 0
M  V30 3754 H 357.119 -0.0238014 0.746621 0
M  V30 3755 H 359.781 0.646533 1.83864 0
M  V30 3756 H 358.877 -0.192967 3.11503 0
M  V30 3757 N 359.178 -1.55987 0.224894 0
M  V30 3758 C 360.403 -2.03232 -0.41369 0
M  V30 3759 C 360.828 -1.10359 -1.52323 0
M  V30 3760 O 360.186 -0.092395 -1.81064 0
M  V30 3761 C 360.234 -3.48682 -0.919405 0
M  V30 3762 O 359.338 -3.58947 -2.03054 0
M  V30 3763 H 358.679 -0.657428 -0.0931903 0
M  V30 3764 H 361.209 -2.01679 0.34451 0
M  V30 3765 H 361.219 -3.8907 -1.22835 0
M  V30 3766 H 359.894 -4.15761 -0.107339 0
M  V30 3767 H 358.471 -3.30448 -1.72796 0
M  V30 3768 N 360.656 0.0484629 -1.57525 0
M  V30 3769 C 361.619 1.03956 -2.04269 0
M  V30 3770 C 362.619 1.30211 -0.943496 0
M  V30 3771 O 363.809 1.25539 -1.20771 0
M  V30 3772 C 360.941 2.37742 -2.44319 0
M  V30 3773 H 362.134 0.636182 -2.93075 0
M  V30 3774 H 359.687 0.294811 -1.53494 0
M  V30 3775 H 360.422 2.82866 -1.5861 0
M  V30 3776 H 360.207 2.20021 -3.24551 0
M  V30 3777 H 361.697 3.08936 -2.80978 0
M  V30 3778 N 362.134 1.5431 0.320358 0
M  V30 3779 C 363.382 1.72327 1.05583 0
M  V30 3780 C 363.703 0.50149 1.88441 0
M  V30 3781 O 362.973 -0.48448 1.89815 0
M  V30 3782 H 361.553 0.635387 0.3928 0
M  V30 3783 H 364.215 1.91621 0.356019 0
M  V30 3784 H 363.311 2.60426 1.72003 0
M  V30 3785 N 363.613 -0.582584 1.46437 0
M  V30 3786 C 364.56 -1.69164 1.5701 0
M  V30 3787 C 365.53 -1.60847 0.414403 0
M  V30 3788 O 366.715 -1.80058 0.631171 0
M  V30 3789 C 363.855 -3.075 1.56646 0
M  V30 3790 C 362.968 -3.2644 2.82951 0
M  V30 3791 C 362.103 -4.55026 2.7409 0
M  V30 3792 C 361.142 -4.6731 3.95333 0
M  V30 3793 N 360.279 -5.87221 3.84858 0
M  V30 3794 H 365.119 -1.59464 2.51744 0
M  V30 3795 H 362.656 -0.777186 1.24893 0
M  V30 3796 H 364.614 -3.8757 1.5442 0
M  V30 3797 H 363.244 -3.16096 0.654439 0
M  V30 3798 H 362.296 -2.39974 2.95155 0
M  V30 3799 H 363.608 -3.31385 3.72808 0
M  V30 3800 H 362.762 -5.43324 2.6997 0
M  V30 3801 H 361.501 -4.52519 1.81873 0
M  V30 3802 H 360.506 -3.77429 3.99784 0
M  V30 3803 H 361.731 -4.71595 4.88646 0
M  V30 3804 H 359.677 -5.85712 2.95427 0
M  V30 3805 H 359.594 -5.93435 4.6837 0
M  V30 3806 H 360.862 -6.7795 3.84713 0
M  V30 3807 N 365.091 -1.34144 -0.827227 0
M  V30 3808 C 366.319 -1.29325 -1.61501 0
M  V30 3809 C 366.734 0.13354 -1.88327 0
M  V30 3810 O 366.091 1.0793 -1.47164 0
M  V30 3811 C 366.142 -2.07746 -2.95844 0
M  V30 3812 O 365.863 -3.4486 -2.70191 0
M  V30 3813 C 367.364 -2.10273 -3.90256 0
M  V30 3814 H 364.584 -0.445069 -0.50215 0
M  V30 3815 H 367.128 -1.76693 -1.02955 0
M  V30 3816 H 365.283 -1.6403 -3.5096 0
M  V30 3817 H 365.697 -3.85345 -3.55822 0
M  V30 3818 H 367.171 -2.69575 -4.81698 0
M  V30 3819 H 367.648 -1.096 -4.25305 0
M  V30 3820 H 368.254 -2.54059 -3.41078 0
M  V30 3821 N 366.569 1.04691 -1.17803 0
M  V30 3822 C 367.816 1.77782 -0.969532 0
M  V30 3823 C 368.144 1.87926 0.501401 0
M  V30 3824 O 367.399 1.37918 1.38842 0
M  V30 3825 C 367.698 3.21467 -1.56186 0
M  V30 3826 C 367.364 3.3137 -3.05786 0
M  V30 3827 C 366.026 3.3378 -3.46619 0
M  V30 3828 C 368.378 3.31976 -4.01797 0
M  V30 3829 C 365.706 3.34431 -4.82051 0
M  V30 3830 C 368.058 3.34167 -5.37136 0
M  V30 3831 C 366.722 3.34866 -5.77426 0
M  V30 3832 H 365.992 0.650549 -0.354777 0
M  V30 3833 H 368.639 1.23006 -1.46772 0
M  V30 3834 H 366.944 3.79203 -0.985515 0
M  V30 3835 H 368.641 3.76652 -1.37602 0
M  V30 3836 H 365.231 3.3021 -2.73238 0
M  V30 3837 H 369.415 3.29311 -3.71306 0
M  V30 3838 H 364.671 3.33285 -5.12573 0
M  V30 3839 H 368.845 3.33585 -6.11305 0
M  V30 3840 H 366.472 3.35124 -6.82346 0
M  V30 3841 N 368.047 0.979072 1.23499 0
M  V30 3842 C 369.272 0.664845 1.96455 0
M  V30 3843 C 369.697 -0.761287 1.72006 0
M  V30 3844 O 369.055 -1.51837 0.990713 0
M  V30 3845 C 369.103 0.959479 3.47601 0
M  V30 3846 O 368.207 0.0508168 4.12369 0
M  V30 3847 H 367.548 0.250185 0.615064 0
M  V30 3848 H 370.078 1.31231 1.5697 0
M  V30 3849 H 370.088 0.895642 3.98048 0
M  V30 3850 H 368.763 1.99876 3.64723 0
M  V30 3851 H 367.34 0.16895 3.72517 0
M  V30 3852 N 369.525 -1.3858 0.750561 0
M  V30 3853 C 370.488 -2.28836 0.129152 0
M  V30 3854 C 371.488 -1.47045 -0.650714 0
M  V30 3855 O 372.678 -1.6753 -0.477428 0
M  V30 3856 C 369.81 -3.30751 -0.825622 0
M  V30 3857 H 371.003 -2.85294 0.924516 0
M  V30 3858 H 368.556 -1.47489 0.517376 0
M  V30 3859 H 369.291 -2.79378 -1.64677 0
M  V30 3860 H 369.076 -3.91177 -0.268852 0
M  V30 3861 H 370.566 -3.98249 -1.2565 0
M  V30 3862 N 371.003 -0.499398 -1.49478 0
M  V30 3863 C 372.231 0.0425456 -2.06856 0
M  V30 3864 C 372.646 1.30964 -1.35992 0
M  V30 3865 O 372.003 1.77172 -0.437762 0
M  V30 3866 C 372.054 0.301735 -3.60239 0
M  V30 3867 O 371.775 -0.915127 -4.28436 0
M  V30 3868 C 373.276 0.887499 -4.34325 0
M  V30 3869 H 370.496 -0.0197482 -0.670709 0
M  V30 3870 H 373.04 -0.696297 -1.92281 0
M  V30 3871 H 371.195 0.990556 -3.74522 0
M  V30 3872 H 371.609 -0.676993 -5.20113 0
M  V30 3873 H 373.083 1.01845 -5.42523 0
M  V30 3874 H 373.56 1.88488 -3.96698 0
M  V30 3875 H 374.166 0.236196 -4.24644 0
M  V30 3876 N 372.481 1.55866 -0.233164 0
M  V30 3877 C 373.729 1.9821 0.394593 0
M  V30 3878 C 374.05 1.12234 1.59463 0
M  V30 3879 O 373.32 0.201981 1.94856 0
M  V30 3880 H 371.9 0.732034 0.148778 0
M  V30 3881 H 374.562 1.92107 -0.32876 0
M  V30 3882 H 373.658 3.03845 0.713063 0
M  V30 3883 N 373.959 -0.0401083 1.57549 0
M  V30 3884 C 375.205 -0.728793 1.89895 0
M  V30 3885 C 375.56 -1.73551 0.830535 0
M  V30 3886 O 374.853 -1.90914 -0.162007 0
M  V30 3887 C 375.047 -1.44902 3.26708 0
M  V30 3888 C 374.876 -0.513568 4.46758 0
M  V30 3889 C 373.646 -0.138698 5.0511 0
M  V30 3890 C 375.844 0.203341 5.13898 0
M  V30 3891 N 373.826 0.799159 6.08676 0
M  V30 3892 C 375.197 0.997246 6.11927 0
M  V30 3893 C 377.252 0.271459 4.97159 0
M  V30 3894 C 375.955 1.85299 6.95023 0
M  V30 3895 C 377.981 1.11429 5.80808 0
M  V30 3896 C 377.343 1.89615 6.78399 0
M  V30 3897 H 373.442 -0.241125 0.743897 0
M  V30 3898 H 376.026 0.0108016 1.94697 0
M  V30 3899 H 374.197 -2.15914 3.22856 0
M  V30 3900 H 375.929 -2.08921 3.46603 0
M  V30 3901 H 372.684 -0.498496 4.70969 0
M  V30 3902 H 373.108 1.26227 6.65128 0
M  V30 3903 H 377.75 -0.318709 4.21597 0
M  V30 3904 H 375.468 2.454 7.69938 0
M  V30 3905 H 379.054 1.17038 5.69906 0
M  V30 3906 H 377.934 2.53779 7.42001 0
M  V30 3907 N 375.437 -1.54477 -0.31217 0
M  V30 3908 C 376.384 -1.84655 -1.38461 0
M  V30 3909 C 377.354 -0.694536 -1.50882 0
M  V30 3910 O 378.539 -0.942081 -1.6592 0
M  V30 3911 C 375.679 -2.0896 -2.74645 0
M  V30 3912 C 374.792 -3.36618 -2.70763 0
M  V30 3913 C 373.927 -3.50824 -3.98868 0
M  V30 3914 C 372.966 -4.72315 -3.89339 0
M  V30 3915 N 372.103 -4.83387 -5.09197 0
M  V30 3916 H 376.943 -2.76142 -1.12026 0
M  V30 3917 H 374.48 -1.36748 -0.542065 0
M  V30 3918 H 376.438 -2.21045 -3.53829 0
M  V30 3919 H 375.068 -1.20752 -2.99364 0
M  V30 3920 H 374.12 -3.33211 -1.83506 0
M  V30 3921 H 375.432 -4.25917 -2.59608 0
M  V30 3922 H 374.586 -3.62513 -4.86486 0
M  V30 3923 H 373.325 -2.59638 -4.12843 0
M  V30 3924 H 372.33 -4.6067 -3.00105 0
M  V30 3925 H 373.555 -5.64897 -3.76919 0
M  V30 3926 H 371.501 -3.9512 -5.23657 0
M  V30 3927 H 371.418 -5.66669 -5.00422 0
M  V30 3928 H 372.686 -4.9942 -5.98498 0
M  V30 3929 N 376.915 0.57481 -1.46744 0
M  V30 3930 C 378.161 1.3347 -1.52688 0
M  V30 3931 C 378.494 1.93353 -0.181229 0
M  V30 3932 O 377.769 1.76912 0.808237 0
M  V30 3933 C 378.052 2.45811 -2.63152 0
M  V30 3934 C 377.905 1.90912 -4.07275 0
M  V30 3935 C 379.224 3.47822 -2.69644 0
M  V30 3936 H 376.343 0.483935 -0.555856 0
M  V30 3937 H 378.985 0.644968 -1.78718 0
M  V30 3938 H 377.135 3.04646 -2.41088 0
M  V30 3939 H 378.807 1.36473 -4.4065 0
M  V30 3940 H 377.05 1.21691 -4.16382 0
M  V30 3941 H 377.721 2.72042 -4.80309 0
M  V30 3942 H 380.197 2.9888 -2.895 0
M  V30 3943 H 379.073 4.23876 -3.48742 0
M  V30 3944 H 379.334 4.05555 -1.76005 0
M  V30 3945 N 378.394 1.34581 0.820102 0
M  V30 3946 C 379.642 1.26845 1.57336 0
M  V30 3947 C 379.963 -0.160667 1.94337 0
M  V30 3948 O 379.233 -1.09396 1.6251 0
M  V30 3949 H 377.813 0.466514 0.583415 0
M  V30 3950 H 380.475 1.68526 0.979027 0
M  V30 3951 H 379.571 1.87513 2.4949 0
M  V30 3952 N 379.872 -1.04064 1.18357 0
M  V30 3953 C 381.118 -1.77658 0.990412 0
M  V30 3954 C 381.473 -1.86446 -0.474944 0
M  V30 3955 O 380.766 -1.36153 -1.34807 0
M  V30 3956 C 380.96 -3.20634 1.57888 0
M  V30 3957 C 380.789 -3.25782 3.09994 0
M  V30 3958 C 379.559 -3.34411 3.7881 0
M  V30 3959 C 381.757 -3.13791 4.0748 0
M  V30 3960 N 379.739 -3.28809 5.18418 0
M  V30 3961 C 381.11 -3.15689 5.33611 0
M  V30 3962 C 383.165 -2.97833 3.98998 0
M  V30 3963 C 381.868 -3.03268 6.52243 0
M  V30 3964 C 383.894 -2.86759 5.17227 0
M  V30 3965 C 383.256 -2.893 6.4225 0
M  V30 3966 H 379.355 -0.661901 0.416427 0
M  V30 3967 H 381.939 -1.23968 1.50133 0
M  V30 3968 H 380.11 -3.7267 1.09414 0
M  V30 3969 H 381.842 -3.82525 1.32124 0
M  V30 3970 H 378.597 -3.40144 3.29543 0
M  V30 3971 H 379.021 -3.29448 5.91433 0
M  V30 3972 H 383.663 -2.94698 3.03171 0
M  V30 3973 H 381.381 -3.05156 7.48268 0
M  V30 3974 H 384.967 -2.75465 5.12455 0
M  V30 3975 H 383.847 -2.80818 7.32196 0
M  V30 3976 N 381.35 -0.985608 -1.22978 0
M  V30 3977 C 382.596 -0.65836 -1.91816 0
M  V30 3978 C 382.929 0.806692 -1.76653 0
M  V30 3979 O 382.204 1.58252 -1.13078 0
M  V30 3980 C 382.487 -1.056 -3.44268 0
M  V30 3981 C 382.34 -2.57906 -3.68516 0
M  V30 3982 C 383.659 -0.603781 -4.35939 0
M  V30 3983 H 380.778 -0.24065 -0.696604 0
M  V30 3984 H 383.42 -1.22783 -1.44998 0
M  V30 3985 H 381.57 -0.571445 -3.84274 0
M  V30 3986 H 383.242 -3.13976 -3.3796 0
M  V30 3987 H 381.485 -3.00305 -3.13048 0
M  V30 3988 H 382.156 -2.80779 -4.75255 0
M  V30 3989 H 384.632 -1.01987 -4.03408 0
M  V30 3990 H 383.508 -0.910383 -5.41298 0
M  V30 3991 H 383.769 0.495761 -4.39312 0
M  V30 3992 N 382.828 1.3818 -0.7579 0
M  V30 3993 C 383.758 2.33027 -0.148597 0
M  V30 3994 C 384.739 1.55085 0.69875 0
M  V30 3995 O 385.924 1.83384 0.639053 0
M  V30 3996 C 383.054 3.3928 0.742034 0
M  V30 3997 C 382.008 4.28 -0.00291946 0
M  V30 3998 C 381.334 5.25146 1.00625 0
M  V30 3999 C 382.634 5.08938 -1.17385 0
M  V30 4000 H 384.328 2.84231 -0.940909 0
M  V30 4001 H 381.874 1.36659 -0.453908 0
M  V30 4002 H 383.827 4.046 1.17799 0
M  V30 4003 H 382.551 2.86569 1.56671 0
M  V30 4004 H 381.21 3.64192 -0.419504 0
M  V30 4005 H 380.858 4.68721 1.8251 0
M  V30 4006 H 380.558 5.85361 0.512428 0
M  V30 4007 H 382.082 5.93342 1.44143 0
M  V30 4008 H 383.496 5.67474 -0.815224 0
M  V30 4009 H 381.893 5.7841 -1.59882 0
M  V30 4010 H 382.963 4.42424 -1.98468 0
M  V30 4011 N 384.306 0.507319 1.49211 0
M  V30 4012 C 385.554 -0.0348839 2.0207 0
M  V30 4013 C 385.875 -1.36898 1.38866 0
M  V30 4014 O 385.145 -1.88133 0.546151 0
M  V30 4015 H 383.725 -0.0158812 0.746831 0
M  V30 4016 H 386.387 0.665998 1.83168 0
M  V30 4017 H 385.483 -0.159917 3.1169 0
M  V30 4018 N 385.784 -1.5574 0.241426 0
M  V30 4019 C 387.195 -1.84842 -0.262755 0
M  V30 4020 C 387.546 -1.16317 -1.58003 0
M  V30 4021 O 386.671 -0.439653 -2.11887 0
M  V30 4022 C 387.266 -3.35332 -0.483523 0
M  V30 4023 C 385.825 -3.6468 -0.931977 0
M  V30 4024 C 384.972 -2.77299 -0.0061151 0
M  V30 4025 H 387.923 -1.51761 0.464129 0
M  V30 4026 H 387.944 -3.56615 -1.32688 0
M  V30 4027 H 387.456 -3.85178 0.47537 0
M  V30 4028 H 385.557 -3.20307 -1.90353 0
M  V30 4029 H 385.67 -4.72498 -0.792628 0
M  V30 4030 H 384.034 -2.49408 -0.516503 0
M  V30 4031 H 384.817 -3.2995 0.948052 0
M  V30 4032 N 387.262 0.0317525 -1.57568 0
M  V30 4033 C 388.539 0.758366 -1.803 0
M  V30 4034 C 388.919 1.93718 -0.838845 0
M  V30 4035 O 388.267 2.28187 0.119571 0
M  V30 4036 C 388.477 1.19392 -3.27943 0
M  V30 4037 C 389.825 1.61094 -3.92854 0
M  V30 4038 O 390.849 1.28857 -3.32076 0
M  V30 4039 O 389.708 2.20918 -4.99858 0
M  V30 4040 H 386.802 0.366514 -0.741348 0
M  V30 4041 H 389.348 0.00873765 -1.69698 0
M  V30 4042 H 388.12 0.352275 -3.89711 0
M  V30 4043 H 387.743 2.00365 -3.43424 0
M  V30 4044 N 388.74 1.54641 0.303973 0
M  V30 4045 C 389.69 1.8177 1.37636 0
M  V30 4046 C 390.674 0.674697 1.46071 0
M  V30 4047 O 391.866 0.935251 1.50273 0
M  V30 4048 C 388.995 2.06584 2.74186 0
M  V30 4049 C 388.081 3.2706 2.69986 0
M  V30 4050 N 388.472 4.47682 2.35402 0
M  V30 4051 C 386.77 3.29028 3.01092 0
M  V30 4052 C 387.471 5.29689 2.40426 0
M  V30 4053 N 386.447 4.67339 2.7766 0
M  V30 4054 H 390.249 2.72596 1.09857 0
M  V30 4055 H 387.763 1.541 0.51254 0
M  V30 4056 H 389.76 2.24166 3.51504 0
M  V30 4057 H 388.42 1.17024 3.02879 0
M  V30 4058 H 389.431 4.74336 2.07908 0
M  V30 4059 H 386.108 2.49565 3.34699 0
M  V30 4060 H 387.498 6.3606 2.16512 0
M  V30 4061 N 390.218 -0.567019 1.47046 0
M  V30 4062 C 391.467 -1.32091 1.5243 0
M  V30 4063 C 391.78 -1.94704 0.187021 0
M  V30 4064 O 392.986 -2.7124 0.118771 0
M  V30 4065 C 391.442 -2.39479 2.68659 0
M  V30 4066 C 391.05 -1.831 4.08874 0
M  V30 4067 C 392.794 -3.16111 2.83327 0
M  V30 4068 C 390.701 -2.8821 5.16419 0
M  V30 4069 H 389.631 -0.496629 0.56734 0
M  V30 4070 H 392.282 -0.603354 1.73297 0
M  V30 4071 H 390.664 -3.14105 2.41152 0
M  V30 4072 H 391.838 -1.14913 4.46242 0
M  V30 4073 H 390.153 -1.19085 3.99008 0
M  V30 4074 H 392.75 -3.94585 3.60842 0
M  V30 4075 H 393.093 -3.69686 1.91411 0
M  V30 4076 H 393.626 -2.48595 3.10556 0
M  V30 4077 H 390.365 -2.39504 6.10179 0
M  V30 4078 H 389.885 -3.54839 4.8358 0
M  V30 4079 H 391.564 -3.51881 5.42945 0
M  V30 4080 N 391.696 -1.35014 -0.812953 0
M  V30 4081 C 392.629 -1.21761 -1.93001 0
M  V30 4082 C 393.607 -0.10694 -1.62248 0
M  V30 4083 O 394.791 -0.273891 -1.865 0
M  V30 4084 C 391.918 -0.873404 -3.27245 0
M  V30 4085 C 390.964 -1.99523 -3.76952 0
M  V30 4086 S 391.797 -3.61009 -3.95516 0
M  V30 4087 C 392.953 -3.28651 -5.32672 0
M  V30 4088 H 393.186 -2.16315 -2.03948 0
M  V30 4089 H 390.719 -1.20156 -0.969631 0
M  V30 4090 H 392.677 -0.68161 -4.04802 0
M  V30 4091 H 391.338 0.053971 -3.14054 0
M  V30 4092 H 390.531 -1.70838 -4.74163 0
M  V30 4093 H 390.133 -2.14503 -3.06373 0
M  V30 4094 H 392.425 -2.81085 -6.1644 0
M  V30 4095 H 393.368 -4.25039 -5.66346 0
M  V30 4096 H 393.776 -2.6458 -4.98656 0
M  V30 4097 N 393.175 1.03435 -1.18907 0
M  V30 4098 C 394.122 2.11591 -0.921837 0
M  V30 4099 C 395.092 1.65499 0.141226 0
M  V30 4100 O 396.277 1.908 0.000242829 0
M  V30 4101 C 393.417 3.42012 -0.460616 0
M  V30 4102 C 392.53 4.01682 -1.58982 0
M  V30 4103 C 391.665 5.20091 -1.08069 0
M  V30 4104 C 390.704 5.71805 -2.18416 0
M  V30 4105 N 389.841 6.81494 -1.68849 0
M  V30 4106 H 394.681 2.33787 -1.8479 0
M  V30 4107 H 392.218 1.1467 -0.921373 0
M  V30 4108 H 394.176 4.16834 -0.174642 0
M  V30 4109 H 392.806 3.19944 0.428467 0
M  V30 4110 H 391.858 3.24127 -1.99113 0
M  V30 4111 H 393.17 4.36084 -2.4214 0
M  V30 4112 H 392.324 6.02051 -0.749615 0
M  V30 4113 H 391.063 4.87209 -0.218771 0
M  V30 4114 H 390.068 4.88461 -2.5236 0
M  V30 4115 H 391.293 6.06728 -3.05054 0
M  V30 4116 H 389.239 6.50475 -0.849572 0
M  V30 4117 H 389.156 7.14994 -2.45601 0
M  V30 4118 H 390.424 7.67063 -1.38689 0
M  V30 4119 N 394.653 0.992116 1.22453 0
M  V30 4120 C 395.603 0.512969 2.22155 0
M  V30 4121 C 396.587 -0.418416 1.55364 0
M  V30 4122 O 397.779 -0.245363 1.75291 0
M  V30 4123 C 394.908 -0.171822 3.4287 0
M  V30 4124 C 393.994 0.779822 4.16869 0
M  V30 4125 N 394.385 1.92734 4.6764 0
M  V30 4126 C 392.683 0.59554 4.42006 0
M  V30 4127 C 393.384 2.52458 5.24061 0
M  V30 4128 N 392.36 1.80735 5.12675 0
M  V30 4129 H 396.162 1.38817 2.5905 0
M  V30 4130 H 393.676 0.854277 1.38115 0
M  V30 4131 H 395.673 -0.532469 4.13486 0
M  V30 4132 H 394.333 -1.04317 3.07487 0
M  V30 4133 H 395.344 2.30816 4.63621 0
M  V30 4134 H 392.021 -0.229805 4.16867 0
M  V30 4135 H 393.411 3.49433 5.73887 0
M  V30 4136 N 396.131 -1.37776 0.765217 0
M  V30 4137 C 397.061 -2.32945 0.160953 0
M  V30 4138 C 398.042 -1.55454 -0.690516 0
M  V30 4139 O 399.227 -1.83721 -0.629318 0
M  V30 4140 C 396.357 -3.39669 -0.724031 0
M  V30 4141 C 395.311 -4.27992 0.0256173 0
M  V30 4142 C 394.637 -5.25673 -0.978383 0
M  V30 4143 C 395.937 -5.08309 1.20082 0
M  V30 4144 H 397.631 -2.83728 0.955969 0
M  V30 4145 H 395.177 -1.36416 0.461149 0
M  V30 4146 H 397.13 -4.05219 -1.15652 0
M  V30 4147 H 395.854 -2.87396 -1.5515 0
M  V30 4148 H 394.513 -3.63964 0.438812 0
M  V30 4149 H 394.161 -4.69682 -1.80022 0
M  V30 4150 H 393.861 -5.85625 -0.481378 0
M  V30 4151 H 395.385 -5.94098 -1.40995 0
M  V30 4152 H 396.799 -5.67034 0.845307 0
M  V30 4153 H 395.196 -5.77554 1.62947 0
M  V30 4154 H 396.266 -4.41365 2.00811 0
M  V30 4155 N 397.609 -0.515225 -1.4894 0
M  V30 4156 C 399.025 -0.172099 -1.58669 0
M  V30 4157 C 399.225 1.32405 -1.51892 0
M  V30 4158 O 398.281 2.10116 -1.40027 0
M  V30 4159 C 399.594 -0.761533 -2.90897 0
M  V30 4160 C 401.142 -0.728926 -3.04394 0
M  V30 4161 C 401.617 -1.29667 -4.39261 0
M  V30 4162 N 403.108 -1.25799 -4.4579 0
M  V30 4163 C 403.843 -1.66733 -5.48623 0
M  V30 4164 N 403.339 -2.15327 -6.58488 0
M  V30 4165 N 405.132 -1.58061 -5.39419 0
M  V30 4166 H 397.283 -1.48778 -1.51588 0
M  V30 4167 H 399.546 -0.617968 -0.718901 0
M  V30 4168 H 399.252 -1.81136 -3.01468 0
M  V30 4169 H 399.126 -0.230106 -3.76497 0
M  V30 4170 H 401.513 0.312098 -2.93445 0
M  V30 4171 H 401.594 -1.29766 -2.20442 0
M  V30 4172 H 401.238 -2.33655 -4.50963 0
M  V30 4173 H 401.168 -0.703752 -5.21876 0
M  V30 4174 H 403.659 -0.902102 -3.66975 0
M  V30 4175 H 403.972 -2.44594 -7.33071 0
M  V30 4176 H 402.317 -2.19311 -6.59491 0
M  V30 4177 H 405.508 -1.19906 -4.52482 0
M  V30 4178 H 405.681 -1.90284 -6.19432 0
M  V30 4179 N 399.087 1.5561 -0.249682 0
M  V30 4180 C 400.315 2.03411 0.378352 0
M  V30 4181 C 400.73 1.12886 1.51335 0
M  V30 4182 O 400.087 0.143833 1.81932 0
M  V30 4183 C 400.138 3.50537 0.88351 0
M  V30 4184 O 399.859 4.37614 -0.20626 0
M  V30 4185 C 401.36 4.14113 1.58195 0
M  V30 4186 H 398.58 0.664994 0.08958 0
M  V30 4187 H 401.124 2.01044 -0.374357 0
M  V30 4188 H 399.279 3.5343 1.58639 0
M  V30 4189 H 399.693 5.24199 0.177782 0
M  V30 4190 H 401.167 5.18741 1.8871 0
M  V30 4191 H 401.644 3.60767 2.50487 0
M  V30 4192 H 402.25 4.15151 0.923573 0
M  V30 4193 N 400.565 -0.0233959 1.57583 0
M  V30 4194 C 401.811 -0.714119 1.89811 0
M  V30 4195 C 402.144 -1.74702 0.848113 0
M  V30 4196 O 401.419 -1.94023 -0.136135 0
M  V30 4197 C 401.702 -1.37853 3.32669 0
M  V30 4198 C 401.555 -0.358764 4.48367 0
M  V30 4199 C 402.874 -2.31101 3.7454 0
M  V30 4200 H 399.993 -0.25814 0.690314 0
M  V30 4201 H 402.635 0.0230927 1.89986 0
M  V30 4202 H 400.785 -2.00689 3.3265 0
M  V30 4203 H 402.457 0.268115 4.6052 0
M  V30 4204 H 400.7 0.321387 4.32608 0
M  V30 4205 H 401.371 -0.862242 5.45224 0
M  V30 4206 H 403.847 -1.78304 3.75961 0
M  V30 4207 H 402.723 -2.74567 4.75294 0
M  V30 4208 H 402.984 -3.18018 3.0711 0
M  V30 4209 N 402.043 -1.548 -0.295768 0
M  V30 4210 C 402.993 -1.82497 -1.3667 0
M  V30 4211 C 403.977 -0.682434 -1.45711 0
M  V30 4212 O 405.169 -0.943207 -1.49775 0
M  V30 4213 C 402.298 -2.08036 -2.73086 0
M  V30 4214 C 401.384 -3.28488 -2.68247 0
M  V30 4215 N 401.775 -4.48924 -2.33025 0
M  V30 4216 C 400.073 -3.3062 -2.99343 0
M  V30 4217 C 400.774 -5.30956 -2.37613 0
M  V30 4218 N 399.75 -4.68805 -2.75178 0
M  V30 4219 H 403.552 -2.73175 -1.0841 0
M  V30 4220 H 401.066 -1.5437 -0.504361 0
M  V30 4221 H 403.063 -2.26027 -3.5031 0
M  V30 4222 H 401.723 -1.18629 -3.02254 0
M  V30 4223 H 402.734 -4.75432 -2.05389 0
M  V30 4224 H 399.411 -2.51336 -3.33371 0
M  V30 4225 H 400.801 -6.37199 -2.13135 0
M  V30 4226 N 403.521 0.559213 -1.47345 0
M  V30 4227 C 404.453 1.68161 -1.55738 0
M  V30 4228 C 405.466 1.56636 -0.443744 0
M  V30 4229 O 406.655 1.6363 -0.713258 0
M  V30 4230 C 403.755 3.06611 -1.4437 0
M  V30 4231 C 402.928 3.4391 -2.70268 0
M  V30 4232 C 401.987 4.61515 -2.52765 0
M  V30 4233 O 401.013 4.66197 -3.26572 0
M  V30 4234 N 402.215 5.57883 -1.6046 0
M  V30 4235 H 404.98 1.61408 -2.52522 0
M  V30 4236 H 402.541 0.7458 -1.43699 0
M  V30 4237 H 404.533 3.83117 -1.30398 0
M  V30 4238 H 403.103 3.07602 -0.556766 0
M  V30 4239 H 402.323 2.56873 -2.99015 0
M  V30 4240 H 403.611 3.65605 -3.53851 0
M  V30 4241 H 403.009 5.56855 -0.996422 0
M  V30 4242 H 401.566 6.33723 -1.52441 0
M  V30 4243 N 404.999 1.35443 0.805782 0
M  V30 4244 C 405.947 1.28465 1.93906 0
M  V30 4245 C 406.941 0.17943 1.68447 0
M  V30 4246 O 408.147 0.345459 1.76654 0
M  V30 4247 H 404.522 0.399528 0.637088 0
M  V30 4248 H 406.493 2.24206 1.96912 0
M  V30 4249 C 405.242 1.07432 3.30687 0
M  V30 4250 H 404.565 1.91716 3.50835 0
M  V30 4251 H 406.005 1.06591 4.10383 0
M  V30 4252 C 404.464 -0.22179 3.36169 0
M  V30 4253 O 404.994 -1.21731 3.82811 0
M  V30 4254 N 403.2 -0.260841 2.89427 0
M  V30 4255 H 402.747 0.549884 2.51663 0
M  V30 4256 H 402.705 -1.12777 2.93477 0
M  V30 4257 N 406.477 -1.02803 1.19454 0
M  V30 4258 C 407.702 -1.80378 1.02364 0
M  V30 4259 C 408.127 -1.83282 -0.423007 0
M  V30 4260 O 407.485 -1.25945 -1.30413 0
M  V30 4261 C 407.533 -3.23248 1.59821 0
M  V30 4262 O 406.637 -4.04 0.828105 0
M  V30 4263 H 405.978 -0.556799 0.361761 0
M  V30 4264 H 408.508 -1.29385 1.58495 0
M  V30 4265 H 408.518 -3.73994 1.63073 0
M  V30 4266 H 407.193 -3.2045 2.65113 0
M  V30 4267 H 405.77 -3.62635 0.86891 0
M  V30 4268 N 407.956 -0.998596 -1.21925 0
M  V30 4269 C 409.202 -0.678667 -1.91107 0
M  V30 4270 C 409.535 0.78791 -1.77498 0
M  V30 4271 O 408.81 1.57043 -1.1475 0
M  V30 4272 C 409.093 -1.09245 -3.43129 0
M  V30 4273 C 408.946 -2.61801 -3.6576 0
M  V30 4274 C 410.265 -0.649984 -4.35274 0
M  V30 4275 H 407.384 -0.248025 -0.694012 0
M  V30 4276 H 410.026 -1.24314 -1.43688 0
M  V30 4277 H 408.176 -0.612171 -3.83647 0
M  V30 4278 H 409.848 -3.17543 -3.34611 0
M  V30 4279 H 408.091 -3.03609 -3.09845 0
M  V30 4280 H 408.762 -2.85804 -4.7225 0
M  V30 4281 H 411.238 -1.0626 -4.02303 0
M  V30 4282 H 410.114 -0.967743 -5.40302 0
M  V30 4283 H 410.375 0.449139 -4.39813 0
M  V30 4284 N 409.434 1.37368 -0.772513 0
M  V30 4285 C 410.681 1.99673 -0.337182 0
M  V30 4286 C 411.009 1.61324 1.0865 0
M  V30 4287 O 410.264 0.851377 1.7621 0
M  V30 4288 C 410.563 3.54817 -0.428876 0
M  V30 4289 C 410.229 4.12936 -1.81092 0
M  V30 4290 C 408.891 4.28523 -2.1891 0
M  V30 4291 C 411.243 4.44801 -2.71664 0
M  V30 4292 C 408.571 4.73277 -3.46735 0
M  V30 4293 C 410.923 4.90981 -3.98899 0
M  V30 4294 C 409.587 5.04773 -4.36761 0
M  V30 4295 H 408.857 0.730656 -0.123384 0
M  V30 4296 H 411.504 1.64124 -0.986686 0
M  V30 4297 H 409.809 3.90618 0.304167 0
M  V30 4298 H 411.506 4.00933 -0.0733334 0
M  V30 4299 H 408.096 4.01233 -1.50699 0
M  V30 4300 H 412.28 4.32344 -2.43706 0
M  V30 4301 H 407.536 4.82142 -3.75964 0
M  V30 4302 H 411.71 5.14603 -4.69208 0
M  V30 4303 H 409.337 5.39211 -5.35868 0
M  V30 4304 N 410.912 0.523116 1.48665 0
M  V30 4305 C 411.862 -0.263106 2.26477 0
M  V30 4306 C 412.846 -0.916005 1.32281 0
M  V30 4307 O 414.038 -0.819946 1.56863 0
M  V30 4308 C 411.167 -1.31361 3.17174 0
M  V30 4309 C 410.253 -0.665849 4.1884 0
M  V30 4310 N 410.644 0.244434 5.05209 0
M  V30 4311 C 408.942 -0.923863 4.36326 0
M  V30 4312 C 409.643 0.617443 5.78414 0
M  V30 4313 N 408.619 -0.0198686 5.43596 0
M  V30 4314 H 412.421 0.437295 2.90629 0
M  V30 4315 H 409.935 0.340675 1.58787 0
M  V30 4316 H 411.932 -1.89052 3.71571 0
M  V30 4317 H 410.592 -2.01546 2.54576 0
M  V30 4318 H 411.603 0.616621 5.14216 0
M  V30 4319 H 408.28 -1.6168 3.84923 0
M  V30 4320 H 409.67 1.36346 6.57921 0
M  V30 4321 N 412.39 -1.55475 0.257931 0
M  V30 4322 C 413.63 -2.01112 -0.365129 0
M  V30 4323 C 413.994 -1.1423 -1.54323 0
M  V30 4324 O 415.195 -1.49371 -2.23477 0
M  V30 4325 C 413.466 -3.49353 -0.754117 0
M  V30 4326 S 415.025 -4.16992 -1.36614 0
M  V30 4327 H 411.843 -0.701737 -0.114397 0
M  V30 4328 H 414.445 -1.91855 0.375747 0
M  V30 4329 H 413.149 -4.10246 0.112441 0
M  V30 4330 H 412.68 -3.6256 -1.52689 0
M  V30 4331 H 414.695 -4.19191 -2.65505 0
M  V30 4332 N 413.868 0.0150385 -1.57593 0
M  V30 4333 C 415.279 0.559832 -1.78109 0
M  V30 4334 C 415.63 1.74814 -0.890756 0
M  V30 4335 O 414.755 2.16216 -0.0892482 0
M  V30 4336 C 415.35 1.02238 -3.23006 0
M  V30 4337 C 413.909 1.51258 -3.44671 0
M  V30 4338 C 413.056 0.456955 -2.73509 0
M  V30 4339 H 416.007 -0.211169 -1.57289 0
M  V30 4340 H 416.028 1.88912 -3.30292 0
M  V30 4341 H 415.54 0.157302 -3.87781 0
M  V30 4342 H 413.641 2.39905 -2.8509 0
M  V30 4343 H 413.754 1.55042 -4.5332 0
M  V30 4344 H 412.118 0.915196 -2.37689 0
M  V30 4345 H 412.901 -0.398896 -3.40975 0
M  V30 4346 N 415.346 1.54954 0.287554 0
M  V30 4347 C 416.574 1.78881 1.03967 0
M  V30 4348 C 416.989 0.554894 1.80462 0
M  V30 4349 O 416.346 -0.475676 1.76192 0
M  V30 4350 C 416.397 3.00488 2.0097 0
M  V30 4351 O 416.118 4.19113 1.27577 0
M  V30 4352 C 417.619 3.36907 2.88112 0
M  V30 4353 H 414.839 0.596259 0.307761 0
M  V30 4354 H 417.383 2.01937 0.322749 0
M  V30 4355 H 415.538 2.79601 2.68145 0
M  V30 4356 H 415.952 4.87765 1.92835 0
M  V30 4357 H 417.426 4.25205 3.52001 0
M  V30 4358 H 417.903 2.55659 3.57121 0
M  V30 4359 H 418.509 3.60001 2.26449 0
M  V30 4360 N 416.824 -0.551391 1.4764 0
M  V30 4361 C 417.756 -1.67333 1.56628 0
M  V30 4362 C 418.769 -1.56398 0.452045 0
M  V30 4363 O 419.958 -1.6325 0.721926 0
M  V30 4364 C 417.058 -3.05841 1.45994 0
M  V30 4365 C 416.231 -3.42472 2.72088 0
M  V30 4366 C 415.29 -4.60168 2.55209 0
M  V30 4367 O 414.316 -4.64458 3.2904 0
M  V30 4368 N 415.518 -5.57024 1.63416 0
M  V30 4369 H 418.283 -1.60066 2.53375 0
M  V30 4370 H 415.844 -0.738169 1.44093 0
M  V30 4371 H 417.836 -3.8242 1.32428 0
M  V30 4372 H 416.406 -3.07302 0.573071 0
M  V30 4373 H 415.626 -2.55284 3.00373 0
M  V30 4374 H 416.914 -3.63723 3.55785 0
M  V30 4375 H 416.312 -5.56319 1.02594 0
M  V30 4376 H 414.869 -6.32906 1.558 0
M  V30 4377 N 418.302 -1.35869 -0.798587 0
M  V30 4378 C 419.527 -1.32883 -1.59238 0
M  V30 4379 C 419.952 0.0894587 -1.87887 0
M  V30 4380 O 419.31 1.05869 -1.47178 0
M  V30 4381 C 419.358 -2.14892 -2.89575 0
M  V30 4382 O 418.462 -1.53512 -3.82763 0
M  V30 4383 H 417.803 -0.455236 -0.48338 0
M  V30 4384 H 420.333 -1.79024 -0.990539 0
M  V30 4385 H 420.343 -2.27139 -3.38928 0
M  V30 4386 H 419.018 -3.17998 -2.68049 0
M  V30 4387 H 417.595 -1.50153 -3.41334 0
M  V30 4388 N 419.78 1.02168 -1.19998 0
M  V30 4389 C 420.712 2.10705 -0.901994 0
M  V30 4390 C 421.725 1.6244 0.108216 0
M  V30 4391 O 422.914 1.78082 -0.12214 0
M  V30 4392 C 420.014 3.37291 -0.329834 0
M  V30 4393 C 419.187 4.14714 -1.39035 0
M  V30 4394 C 418.246 5.19606 -0.830432 0
M  V30 4395 O 417.272 5.48809 -1.50989 0
M  V30 4396 N 418.474 5.79366 0.362696 0
M  V30 4397 H 421.239 2.36856 -1.83628 0
M  V30 4398 H 418.8 1.18518 -1.10296 0
M  V30 4399 H 420.792 4.04657 0.0587633 0
M  V30 4400 H 419.362 3.0843 0.508891 0
M  V30 4401 H 418.582 3.42392 -1.9535 0
M  V30 4402 H 419.87 4.63226 -2.10474 0
M  V30 4403 H 419.268 5.57968 0.932081 0
M  V30 4404 H 417.825 6.48106 0.69299 0
M  V30 4405 N 421.258 1.00505 1.21394 0
M  V30 4406 C 422.221 0.570459 2.21987 0
M  V30 4407 C 423.221 -0.353211 1.56873 0
M  V30 4408 O 424.411 -0.14349 1.73608 0
M  V30 4409 C 421.543 -0.168555 3.40483 0
M  V30 4410 H 422.736 1.46021 2.6195 0
M  V30 4411 H 420.289 0.793565 1.34656 0
M  V30 4412 H 421.024 -1.07374 3.06009 0
M  V30 4413 H 420.809 0.494823 3.88965 0
M  V30 4414 H 422.299 -0.460362 4.15055 0
M  V30 4415 N 422.737 -1.36956 0.779787 0
M  V30 4416 C 423.7 -2.2851 0.177662 0
M  V30 4417 C 424.7 -1.48393 -0.619377 0
M  V30 4418 O 425.89 -1.68505 -0.441785 0
M  V30 4419 C 423.022 -3.32428 -0.755279 0
M  V30 4420 H 424.215 -2.83269 0.984823 0
M  V30 4421 H 421.768 -1.46358 0.548544 0
M  V30 4422 H 422.503 -2.82808 -1.58714 0
M  V30 4423 H 422.288 -3.91659 -0.185817 0
M  V30 4424 H 423.778 -4.00824 -1.17174 0
M  V30 4425 N 424.215 -0.530993 -1.48385 0
M  V30 4426 C 425.461 0.00274135 -2.028 0
M  V30 4427 C 425.794 1.33838 -1.40716 0
M  V30 4428 O 425.069 1.86465 -0.553277 0
M  V30 4429 C 425.352 0.123676 -3.59888 0
M  V30 4430 C 425.205 -1.2372 -4.3245 0
M  V30 4431 C 426.524 0.849967 -4.31814 0
M  V30 4432 H 423.643 -0.000477758 -0.737 0
M  V30 4433 H 426.285 -0.688217 -1.77098 0
M  V30 4434 H 424.435 0.712157 -3.81917 0
M  V30 4435 H 426.107 -1.86687 -4.21836 0
M  V30 4436 H 424.35 -1.81882 -3.93829 0
M  V30 4437 H 425.021 -1.10557 -5.40815 0
M  V30 4438 H 427.497 0.350572 -4.14621 0
M  V30 4439 H 426.373 0.903486 -5.41413 0
M  V30 4440 H 426.634 1.90047 -3.99167 0
M  V30 4441 N 425.693 1.55336 -0.266172 0
M  V30 4442 C 426.656 2.20878 0.612001 0
M  V30 4443 C 427.656 1.18388 1.08816 0
M  V30 4444 O 428.846 1.4335 0.989774 0
M  V30 4445 C 425.978 2.86765 1.84332 0
M  V30 4446 H 427.171 2.99873 0.0398718 0
M  V30 4447 H 424.724 1.56291 -0.0167309 0
M  V30 4448 H 425.459 2.11759 2.45619 0
M  V30 4449 H 425.244 3.61862 1.5099 0
M  V30 4450 H 426.734 3.36867 2.46801 0
M  V30 4451 N 427.171 -0.0066808 1.57599 0
M  V30 4452 C 428.081 -1.01671 2.11424 0
M  V30 4453 C 429.097 -1.38143 1.05795 0
M  V30 4454 O 430.273 -1.47011 1.37658 0
M  V30 4455 C 427.338 -2.29192 2.60139 0
M  V30 4456 C 426.399 -1.99094 3.80342 0
M  V30 4457 C 425.632 -3.20535 4.26724 0
M  V30 4458 O 425.855 -4.3199 3.72479 0
M  V30 4459 O 424.789 -3.04924 5.18946 0
M  V30 4460 H 428.615 -0.589181 2.9793 0
M  V30 4461 H 426.2 -0.225091 1.47695 0
M  V30 4462 H 428.082 -3.0412 2.917 0
M  V30 4463 H 426.757 -2.71195 1.76733 0
M  V30 4464 H 425.664 -1.21663 3.53764 0
M  V30 4465 H 426.997 -1.61931 4.648 0
M  V30 4466 N 428.649 -1.55105 -0.279332 0
M  V30 4467 C 429.874 -1.7976 -1.03446 0
M  V30 4468 C 430.299 -0.565952 -1.79384 0
M  V30 4469 O 429.657 0.484259 -1.74713 0
M  V30 4470 C 429.705 -3.0179 -1.97371 0
M  V30 4471 O 428.809 -2.76432 -3.06038 0
M  V30 4472 H 428.15 -0.594334 -0.29608 0
M  V30 4473 H 430.68 -2.02235 -0.310165 0
M  V30 4474 H 430.69 -3.30351 -2.39441 0
M  V30 4475 H 429.365 -3.91085 -1.4151 0
M  V30 4476 H 427.942 -2.58949 -2.68328 0
M  V30 4477 N 430.127 0.543554 -1.4793 0
M  V30 4478 C 431.374 1.30008 -1.55255 0
M  V30 4479 C 431.702 1.93245 -0.220612 0
M  V30 4480 O 430.957 1.79141 0.787843 0
M  V30 4481 C 431.256 2.42078 -2.62932 0
M  V30 4482 C 430.922 1.96583 -4.0579 0
M  V30 4483 C 429.584 1.83893 -4.44676 0
M  V30 4484 C 431.936 1.62034 -4.95373 0
M  V30 4485 C 429.264 1.34969 -5.70964 0
M  V30 4486 C 431.616 1.14577 -6.22137 0
M  V30 4487 C 430.28 1.00493 -6.59892 0
M  V30 4488 H 429.55 0.475735 -0.568117 0
M  V30 4489 H 432.197 0.608075 -1.81589 0
M  V30 4490 H 430.502 3.16892 -2.30406 0
M  V30 4491 H 432.199 3.00236 -2.65818 0
M  V30 4492 H 428.789 2.07407 -3.75074 0
M  V30 4493 H 432.973 1.70705 -4.66019 0
M  V30 4494 H 428.229 1.2274 -5.98953 0
M  V30 4495 H 432.403 0.869109 -6.90955 0
M  V30 4496 H 430.03 0.623624 -7.57638 0
M  V30 4497 N 431.605 1.3629 0.791371 0
M  V30 4498 C 432.515 1.32606 1.93527 0
M  V30 4499 C 433.531 0.228541 1.72493 0
M  V30 4500 O 434.707 0.460571 1.96063 0
M  V30 4501 C 431.772 1.11271 3.28359 0
M  V30 4502 C 430.833 2.3048 3.62185 0
M  V30 4503 C 430.066 2.10154 4.90583 0
M  V30 4504 O 430.289 1.07572 5.60165 0
M  V30 4505 O 429.223 2.97884 5.23019 0
M  V30 4506 H 433.049 2.28909 1.99585 0
M  V30 4507 H 430.634 1.16818 0.931344 0
M  V30 4508 H 432.516 1.01283 4.09047 0
M  V30 4509 H 431.191 0.180292 3.23198 0
M  V30 4510 H 430.098 2.46036 2.81811 0
M  V30 4511 H 431.431 3.22221 3.72068 0
M  V30 4512 N 433.083 -1.0153 1.20538 0
M  V30 4513 C 434.499 -1.27461 0.96051 0
M  V30 4514 C 434.699 -1.98273 -0.359193 0
M  V30 4515 O 433.755 -2.27886 -1.0874 0
M  V30 4516 C 435.068 -2.10837 2.14402 0
M  V30 4517 C 436.616 -2.24099 2.18515 0
M  V30 4518 C 437.091 -3.10852 3.36355 0
M  V30 4519 N 438.582 -3.18441 3.36377 0
M  V30 4520 C 439.317 -3.85795 4.24205 0
M  V30 4521 N 438.813 -4.55264 5.22213 0
M  V30 4522 N 440.606 -3.82331 4.12043 0
M  V30 4523 H 432.757 -0.539907 2.05423 0
M  V30 4524 H 435.02 -0.30092 0.898972 0
M  V30 4525 H 434.726 -1.66144 3.09983 0
M  V30 4526 H 434.6 -3.11576 2.12604 0
M  V30 4527 H 436.987 -2.68016 1.23497 0
M  V30 4528 H 437.068 -1.22865 2.24361 0
M  V30 4529 H 436.712 -2.6764 4.31661 0
M  V30 4530 H 436.642 -4.12177 3.27746 0
M  V30 4531 H 439.133 -2.68978 2.65442 0
M  V30 4532 H 439.446 -5.04331 5.85551 0
M  V30 4533 H 437.791 -4.54085 5.26148 0
M  V30 4534 H 440.982 -3.27207 3.34743 0
M  V30 4535 H 441.155 -4.34547 4.807 0
M  V30 4536 N 434.561 -1.01147 -1.20859 0
M  V30 4537 C 435.471 -0.58686 -2.27141 0
M  V30 4538 C 436.487 0.373198 -1.69951 0
M  V30 4539 O 437.663 0.235423 -2.00019 0
M  V30 4540 C 434.728 0.0733602 -3.46622 0
M  V30 4541 C 433.789 -0.931995 -4.19061 0
M  V30 4542 C 433.022 -0.303186 -5.32838 0
M  V30 4543 O 433.245 0.898395 -5.63281 0
M  V30 4544 O 432.179 -1.01735 -5.9324 0
M  V30 4545 H 436.005 -1.47155 -2.65667 0
M  V30 4546 H 433.59 -0.780689 -1.2738 0
M  V30 4547 H 435.472 0.442333 -4.19072 0
M  V30 4548 H 434.147 0.932329 -3.09983 0
M  V30 4549 H 433.054 -1.35224 -3.48805 0
M  V30 4550 H 434.387 -1.76076 -4.59628 0
M  V30 4551 N 436.039 1.36541 -0.78704 0
M  V30 4552 C 436.971 2.28761 -0.141773 0
M  V30 4553 C 437.984 1.49365 0.647599 0
M  V30 4554 O 439.173 1.71836 0.483173 0
M  V30 4555 C 436.273 3.28771 0.822368 0
M  V30 4556 C 435.446 4.3732 0.0835594 0
M  V30 4557 C 434.505 5.17307 0.963296 0
M  V30 4558 O 433.531 5.67638 0.421419 0
M  V30 4559 N 434.733 5.33515 2.28784 0
M  V30 4560 H 437.498 2.84777 -0.933919 0
M  V30 4561 H 435.059 1.48682 -0.640735 0
M  V30 4562 H 437.051 3.79169 1.41468 0
M  V30 4563 H 435.621 2.73412 1.5154 0
M  V30 4564 H 434.841 3.88118 -0.689809 0
M  V30 4565 H 436.129 5.0701 -0.426358 0
M  V30 4566 H 435.527 4.94234 2.75226 0
M  V30 4567 H 434.084 5.87165 2.82985 0
M  V30 4568 N 437.518 0.538854 1.48102 0
M  V30 4569 C 438.448 -0.207654 2.32575 0
M  V30 4570 C 439.429 -0.926559 1.4265 0
M  V30 4571 O 440.614 -0.91061 1.71527 0
M  V30 4572 C 437.744 -1.24957 3.24042 0
M  V30 4573 C 436.698 -0.648263 4.23062 0
M  V30 4574 C 436.024 -1.79348 5.03725 0
M  V30 4575 C 437.324 0.385897 5.20872 0
M  V30 4576 H 439.018 0.497534 2.95237 0
M  V30 4577 H 436.564 0.240715 1.41974 0
M  V30 4578 H 438.517 -1.77983 3.81969 0
M  V30 4579 H 437.241 -1.98446 2.59397 0
M  V30 4580 H 435.9 -0.139452 3.66335 0
M  V30 4581 H 435.548 -2.51696 4.35498 0
M  V30 4582 H 435.248 -1.39702 5.70751 0
M  V30 4583 H 436.772 -2.32735 5.64506 0
M  V30 4584 H 438.186 -0.057607 5.73271 0
M  V30 4585 H 436.583 0.700227 5.96001 0
M  V30 4586 H 437.653 1.28848 4.67468 0
M  V30 4587 N 438.996 -1.55193 0.274407 0
M  V30 4588 C 439.926 -2.25471 -0.607032 0
M  V30 4589 C 440.907 -1.24461 -1.15946 0
M  V30 4590 O 442.092 -1.53179 -1.19373 0
M  V30 4591 C 439.222 -2.97526 -1.79153 0
M  V30 4592 C 438.176 -4.05459 -1.37067 0
M  V30 4593 C 437.502 -4.65084 -2.6382 0
M  V30 4594 C 438.802 -5.19691 -0.521389 0
M  V30 4595 H 440.496 -2.99393 -0.0209343 0
M  V30 4596 H 438.042 -1.43997 -0.00862866 0
M  V30 4597 H 439.995 -3.45402 -2.41404 0
M  V30 4598 H 438.719 -2.21138 -2.40344 0
M  V30 4599 H 437.378 -3.58393 -0.771355 0
M  V30 4600 H 437.026 -3.85365 -3.23268 0
M  V30 4601 H 436.726 -5.37961 -2.36372 0
M  V30 4602 H 438.25 -5.15708 -3.26921 0
M  V30 4603 H 439.664 -5.63623 -1.04889 0
M  V30 4604 H 438.061 -5.99126 -0.341825 0
M  V30 4605 H 439.131 -4.82713 0.46 0
M  V30 4606 N 440.474 -0.00167713 -1.576 0
M  V30 4607 C 441.721 0.68282 -1.90641 0
M  V30 4608 C 442.049 1.73686 -0.875415 0
M  V30 4609 O 441.304 1.95334 0.119575 0
M  V30 4610 C 441.603 1.36189 -3.30435 0
M  V30 4611 C 441.269 0.440887 -4.48739 0
M  V30 4612 C 439.931 0.187312 -4.80835 0
M  V30 4613 C 442.283 -0.193134 -5.20842 0
M  V30 4614 C 439.611 -0.70855 -5.82406 0
M  V30 4615 C 441.963 -1.07688 -6.23367 0
M  V30 4616 C 440.627 -1.33962 -6.53919 0
M  V30 4617 H 439.897 0.249862 -0.697603 0
M  V30 4618 H 442.544 -0.0575642 -1.91413 0
M  V30 4619 H 440.849 2.17636 -3.25794 0
M  V30 4620 H 442.546 1.89759 -3.5326 0
M  V30 4621 H 439.136 0.648694 -4.23663 0
M  V30 4622 H 443.32 -0.0102445 -4.96299 0
M  V30 4623 H 438.576 -0.920097 -6.04437 0
M  V30 4624 H 442.75 -1.57451 -6.78367 0
M  V30 4625 H 440.377 -2.03549 -7.32442 0
M  V30 4626 N 441.952 1.55251 0.271103 0
M  V30 4627 C 443.368 1.47133 0.618393 0
M  V30 4628 C 443.568 0.686994 1.89427 0
M  V30 4629 O 442.624 0.206609 2.51653 0
M  V30 4630 C 443.937 2.91361 0.743593 0
M  V30 4631 C 445.485 3.01587 0.837522 0
M  V30 4632 C 445.96 4.47073 0.994483 0
M  V30 4633 N 447.451 4.50909 1.05996 0
M  V30 4634 C 448.186 5.60698 1.20024 0
M  V30 4635 N 447.682 6.80348 1.30759 0
M  V30 4636 N 449.475 5.48444 1.23149 0
M  V30 4637 H 441.626 2.04698 -0.566784 0
M  V30 4638 H 443.889 0.928319 -0.192165 0
M  V30 4639 H 443.595 3.51483 -0.123493 0
M  V30 4640 H 443.469 3.40484 1.62328 0
M  V30 4641 H 445.856 2.4156 1.69507 0
M  V30 4642 H 445.937 2.55713 -0.0668086 0
M  V30 4643 H 445.581 5.07703 0.141582 0
M  V30 4644 H 445.511 4.90605 1.91349 0
M  V30 4645 H 448.002 3.6472 0.989316 0
M  V30 4646 H 448.315 7.59772 1.41303 0
M  V30 4647 H 446.66 6.83156 1.27761 0
M  V30 4648 H 449.851 4.53907 1.14394 0
M  V30 4649 H 450.024 6.34049 1.33738 0
M  V30 4650 N 443.43 -0.535701 1.48216 0
M  V30 4651 C 444.362 -1.65662 1.58394 0
M  V30 4652 C 445.375 -1.5591 0.468607 0
M  V30 4653 O 446.564 -1.62475 0.7392 0
M  V30 4654 C 443.664 -3.04276 1.4923 0
M  V30 4655 C 442.837 -3.39567 2.75705 0
M  V30 4656 C 441.896 -4.57436 2.60075 0
M  V30 4657 O 440.922 -4.60942 3.33948 0
M  V30 4658 N 442.124 -5.55259 1.69315 0
M  V30 4659 H 444.889 -1.5737 2.55058 0
M  V30 4660 H 442.45 -0.722845 1.44867 0
M  V30 4661 H 444.442 -3.80994 1.36477 0
M  V30 4662 H 443.012 -3.06677 0.605632 0
M  V30 4663 H 442.232 -2.52083 3.03064 0
M  V30 4664 H 443.52 -3.59929 3.59623 0
M  V30 4665 H 442.918 -5.552 1.08489 0
M  V30 4666 H 441.475 -6.31218 1.62504 0
M  V30 4667 N 444.908 -1.36708 -0.784132 0
M  V30 4668 C 446.319 -1.27947 -1.35965 0
M  V30 4669 C 446.67 0.0784013 -1.96043 0
M  V30 4670 O 445.795 0.979989 -1.92938 0
M  V30 4671 C 446.39 -2.31689 -2.47195 0
M  V30 4672 C 444.949 -2.26601 -3.00548 0
M  V30 4673 C 444.096 -2.16184 -1.73666 0
M  V30 4674 H 447.047 -1.4751 -0.585358 0
M  V30 4675 H 447.068 -1.95638 -3.26352 0
M  V30 4676 H 446.58 -3.30506 -2.03439 0
M  V30 4677 H 444.681 -1.31268 -3.48711 0
M  V30 4678 H 444.794 -3.19508 -3.57004 0
M  V30 4679 H 443.158 -1.62524 -1.96107 0
M  V30 4680 H 443.941 -3.16896 -1.32031 0
M  V30 4681 N 446.386 1.0089 -1.21074 0
M  V30 4682 C 447.611 1.78727 -1.05221 0
M  V30 4683 C 448.036 1.83932 0.393795 0
M  V30 4684 O 447.394 1.28004 1.28393 0
M  V30 4685 C 447.442 3.20665 -1.64944 0
M  V30 4686 O 446.546 4.02632 -0.892273 0
M  V30 4687 H 445.887 0.550973 -0.370574 0
M  V30 4688 H 448.417 1.26847 -1.60534 0
M  V30 4689 H 448.427 3.71352 -1.69002 0
M  V30 4690 H 447.102 3.16191 -2.70177 0
M  V30 4691 H 445.679 3.61207 -0.926492 0
M  V30 4692 N 447.864 1.01787 1.20321 0
M  V30 4693 C 449.089 0.727009 1.9424 0
M  V30 4694 C 449.514 -0.706179 1.74341 0
M  V30 4695 O 448.872 -1.48609 1.03852 0
M  V30 4696 C 448.92 1.06958 3.44372 0
M  V30 4697 O 448.024 0.181983 4.11998 0
M  V30 4698 H 447.365 0.269626 0.606793 0
M  V30 4699 H 449.895 1.36158 1.52716 0
M  V30 4700 H 449.905 1.02182 3.94997 0
M  V30 4701 H 448.58 2.11378 3.58179 0
M  V30 4702 H 447.157 0.287378 3.71791 0
M  V30 4703 N 449.342 -1.36122 0.79427 0
M  V30 4704 C 450.572 -2.03067 0.380437 0
M  V30 4705 C 450.98 -1.60018 -1.00949 0
M  V30 4706 O 450.323 -0.787425 -1.65968 0
M  V30 4707 C 450.385 -3.57587 0.37034 0
M  V30 4708 C 450.049 -4.23855 1.70867 0
M  V30 4709 C 451.046 -4.46404 2.66496 0
M  V30 4710 C 448.731 -4.61229 1.9893 0
M  V30 4711 C 450.725 -5.05412 3.88378 0
M  V30 4712 C 448.412 -5.19953 3.21079 0
M  V30 4713 C 449.41 -5.41985 4.15621 0
M  V30 4714 O 449.098 -5.99475 5.35616 0
M  V30 4715 H 448.83 -0.658168 0.154243 0
M  V30 4716 H 451.384 -1.7498 1.0757 0
M  V30 4717 H 449.614 -3.84814 -0.381444 0
M  V30 4718 H 451.303 -4.05895 -0.0194894 0
M  V30 4719 H 452.069 -4.17921 2.46103 0
M  V30 4720 H 447.948 -4.43402 1.26158 0
M  V30 4721 H 451.492 -5.22524 4.62185 0
M  V30 4722 H 447.389 -5.47862 3.41347 0
M  V30 4723 H 448.157 -6.17937 5.36745 0
M  V30 4724 N 450.82 -0.546701 -1.47814 0
M  V30 4725 C 452.067 -0.0187407 -2.02491 0
M  V30 4726 C 452.395 1.32685 -1.42215 0
M  V30 4727 O 451.65 1.87413 -0.563454 0
M  V30 4728 C 451.949 0.134869 -3.57145 0
M  V30 4729 C 451.615 -1.13849 -4.3629 0
M  V30 4730 C 450.277 -1.48743 -4.57634 0
M  V30 4731 C 452.629 -1.98277 -4.82012 0
M  V30 4732 C 449.957 -2.67932 -5.21948 0
M  V30 4733 C 452.309 -3.16659 -5.4764 0
M  V30 4734 C 450.973 -3.51879 -5.67219 0
M  V30 4735 H 450.243 -0.0068577 -0.740968 0
M  V30 4736 H 452.89 -0.716097 -1.77607 0
M  V30 4737 H 451.195 0.915118 -3.80963 0
M  V30 4738 H 452.892 0.558556 -3.97091 0
M  V30 4739 H 449.482 -0.856767 -4.19949 0
M  V30 4740 H 453.666 -1.72628 -4.6531 0
M  V30 4741 H 448.922 -2.95401 -5.35302 0
M  V30 4742 H 453.096 -3.82374 -5.82033 0
M  V30 4743 H 450.723 -4.44331 -6.16825 0
M  V30 4744 N 452.299 1.55045 -0.282633 0
M  V30 4745 C 453.545 2.00056 0.332481 0
M  V30 4746 C 453.878 1.1708 1.54939 0
M  V30 4747 O 453.153 0.2427 1.9298 0
M  V30 4748 C 453.436 3.53086 0.70725 0
M  V30 4749 C 453.289 4.46813 -0.517521 0
M  V30 4750 C 454.608 4.12245 1.54084 0
M  V30 4751 H 451.727 0.727268 0.119373 0
M  V30 4752 H 454.369 1.85932 -0.391076 0
M  V30 4753 H 452.519 3.65253 1.32372 0
M  V30 4754 H 454.191 4.46579 -1.15607 0
M  V30 4755 H 452.434 4.18163 -1.1542 0
M  V30 4756 H 453.105 5.51595 -0.211426 0
M  V30 4757 H 455.581 4.03401 1.02013 0
M  V30 4758 H 454.457 5.19515 1.77186 0
M  V30 4759 H 454.718 3.62951 2.52427 0
M  V30 4760 N 453.777 0.010035 1.57597 0
M  V30 4761 C 454.709 -1.00649 2.05918 0
M  V30 4762 C 455.722 -1.30077 0.978964 0
M  V30 4763 O 456.911 -1.26878 1.25556 0
M  V30 4764 C 454.011 -2.33876 2.45265 0
M  V30 4765 C 453.184 -2.23242 3.7614 0
M  V30 4766 C 452.243 -3.39242 4.02245 0
M  V30 4767 O 451.269 -3.1698 4.72771 0
M  V30 4768 N 452.471 -4.6242 3.50924 0
M  V30 4769 H 455.236 -0.594333 2.93748 0
M  V30 4770 H 452.797 -0.17714 1.60928 0
M  V30 4771 H 454.789 -3.1027 2.59836 0
M  V30 4772 H 453.359 -2.66799 1.62902 0
M  V30 4773 H 452.579 -1.31696 3.71551 0
M  V30 4774 H 453.867 -2.13321 4.61922 0
M  V30 4775 H 453.265 -4.83404 2.93832 0
M  V30 4776 H 451.822 -5.36046 3.70807 0
M  V30 4777 N 455.255 -1.55392 -0.262866 0
M  V30 4778 C 456.502 -1.76476 -0.993109 0
M  V30 4779 C 456.83 -0.571479 -1.85915 0
M  V30 4780 O 456.085 0.445733 -1.90556 0
M  V30 4781 C 456.384 -3.02889 -1.89718 0
M  V30 4782 C 456.05 -4.34974 -1.18781 0
M  V30 4783 C 454.712 -4.7087 -0.991699 0
M  V30 4784 C 457.064 -5.16695 -0.683798 0
M  V30 4785 C 454.392 -5.86036 -0.279024 0
M  V30 4786 C 456.744 -6.32598 0.0153327 0
M  V30 4787 C 455.408 -6.67127 0.223062 0
M  V30 4788 H 454.678 -0.64577 -0.363404 0
M  V30 4789 H 457.325 -1.89664 -0.264525 0
M  V30 4790 H 455.63 -2.84644 -2.6923 0
M  V30 4791 H 457.327 -3.16399 -2.46359 0
M  V30 4792 H 453.917 -4.06765 -1.35058 0
M  V30 4793 H 458.101 -4.8943 -0.8229 0
M  V30 4794 H 453.357 -6.11306 -0.107456 0
M  V30 4795 H 457.531 -6.95171 0.413584 0
M  V30 4796 H 455.158 -7.56216 0.777265 0
M  V30 4797 N 456.733 0.527833 -1.48498 0
M  V30 4798 C 458.144 1.10975 -1.50138 0
M  V30 4799 C 458.495 1.943 -0.272378 0
M  V30 4800 O 457.62 2.07319 0.620301 0
M  V30 4801 C 458.215 2.01927 -2.72049 0
M  V30 4802 C 456.774 2.55332 -2.76554 0
M  V30 4803 C 455.921 1.32341 -2.43683 0
M  V30 4804 H 458.872 0.312986 -1.55583 0
M  V30 4805 H 458.893 2.86244 -2.50689 0
M  V30 4806 H 458.405 1.41254 -3.61481 0
M  V30 4807 H 456.506 3.19721 -1.91336 0
M  V30 4808 H 456.619 2.94319 -3.78038 0
M  V30 4809 H 454.983 1.63989 -1.94884 0
M  V30 4810 H 455.766 0.734165 -3.35358 0
M  V30 4811 N 458.211 1.37122 0.776871 0
M  V30 4812 C 459.143 1.28342 1.89897 0
M  V30 4813 C 460.156 0.200277 1.61563 0
M  V30 4814 O 461.345 0.456012 1.72577 0
M  V30 4815 C 458.445 0.960427 3.25006 0
M  V30 4816 C 457.618 2.148 3.81025 0
M  V30 4817 C 456.677 1.79608 4.94598 0
M  V30 4818 O 455.703 2.51845 5.10454 0
M  V30 4819 N 456.905 0.737171 5.758 0
M  V30 4820 H 459.67 2.25027 1.97947 0
M  V30 4821 H 457.231 1.3068 0.955739 0
M  V30 4822 H 459.223 0.705942 3.98495 0
M  V30 4823 H 457.793 0.0823066 3.12492 0
M  V30 4824 H 457.013 2.56454 2.99374 0
M  V30 4825 H 458.301 2.9411 4.15183 0
M  V30 4826 H 457.699 0.137637 5.65533 0
M  V30 4827 H 456.256 0.542534 6.49538 0
M  V30 4828 N 459.689 -1.00246 1.21608 0
M  V30 4829 C 460.652 -2.07233 0.979133 0
M  V30 4830 C 461.652 -1.6072 -0.0508219 0
M  V30 4831 O 462.842 -1.73196 0.186712 0
M  V30 4832 C 459.974 -3.37546 0.477016 0
M  V30 4833 H 461.167 -2.29687 1.92831 0
M  V30 4834 H 458.72 -1.17261 1.03342 0
M  V30 4835 H 459.455 -3.20773 -0.476966 0
M  V30 4836 H 459.24 -3.72638 1.21997 0
M  V30 4837 H 460.73 -4.16285 0.331181 0
M  V30 4838 N 461.167 -1.02423 -1.1978 0
M  V30 4839 C 462.1 -0.545641 -2.21581 0
M  V30 4840 C 463.078 0.411024 -1.57319 0
M  V30 4841 O 464.262 0.329223 -1.85603 0
M  V30 4842 C 461.389 0.204973 -3.38079 0
M  V30 4843 C 460.435 -0.70241 -4.20676 0
M  V30 4844 S 461.268 -2.17595 -4.89298 0
M  V30 4845 C 462.424 -1.43572 -6.09211 0
M  V30 4846 H 462.657 -1.4082 -2.61834 0
M  V30 4847 H 460.19 -0.833771 -1.29952 0
M  V30 4848 H 462.148 0.631924 -4.05607 0
M  V30 4849 H 460.809 1.0432 -2.9627 0
M  V30 4850 H 460.002 -0.123193 -5.03849 0
M  V30 4851 H 459.604 -1.06747 -3.58442 0
M  V30 4852 H 461.896 -0.719806 -6.73665 0
M  V30 4853 H 462.839 -2.24388 -6.71607 0
M  V30 4854 H 463.247 -0.935252 -5.56699 0
M  V30 4855 N 462.645 1.35699 -0.801477 0
M  V30 4856 C 463.577 2.28598 -0.166028 0
M  V30 4857 C 464.59 1.50044 0.631721 0
M  V30 4858 O 465.779 1.72339 0.464921 0
M  V30 4859 C 462.879 3.29625 0.787451 0
M  V30 4860 C 462.052 4.37384 0.037171 0
M  V30 4861 C 461.111 5.183 0.908375 0
M  V30 4862 O 460.137 5.68053 0.361189 0
M  V30 4863 N 461.339 5.35912 2.23112 0
M  V30 4864 H 464.104 2.83771 -0.964071 0
M  V30 4865 H 461.665 1.47994 -0.656469 0
M  V30 4866 H 463.657 3.80648 1.37439 0
M  V30 4867 H 462.227 2.75004 1.48632 0
M  V30 4868 H 461.447 3.87364 -0.730935 0
M  V30 4869 H 462.735 5.0653 -0.480109 0
M  V30 4870 H 462.133 4.97125 2.69968 0
M  V30 4871 H 460.69 5.90133 2.76741 0
M  V30 4872 N 464.123 0.554532 1.47522 0
M  V30 4873 C 465.539 0.214107 1.58157 0
M  V30 4874 C 465.739 -1.28331 1.55349 0
M  V30 4875 O 464.795 -2.06329 1.45549 0
M  V30 4876 C 466.108 0.838391 2.88776 0
M  V30 4877 C 467.656 0.809374 3.02354 0
M  V30 4878 C 468.131 1.41268 4.35669 0
M  V30 4879 N 469.622 1.37574 4.42298 0
M  V30 4880 C 470.357 1.8122 5.4401 0
M  V30 4881 N 469.853 2.3271 6.52547 0
M  V30 4882 N 471.646 1.72307 5.35039 0
M  V30 4883 H 463.797 1.52744 1.4759 0
M  V30 4884 H 466.06 0.636812 0.702264 0
M  V30 4885 H 465.766 1.89065 2.96559 0
M  V30 4886 H 465.64 0.329847 3.75755 0
M  V30 4887 H 468.027 -0.234187 2.94169 0
M  V30 4888 H 468.108 1.35565 2.16924 0
M  V30 4889 H 467.752 2.45529 4.4461 0
M  V30 4890 H 467.682 0.841871 5.19827 0
M  V30 4891 H 470.173 0.999081 3.64454 0
M  V30 4892 H 470.486 2.63944 7.26329 0
M  V30 4893 H 468.831 2.36719 6.53444 0
M  V30 4894 H 472.022 1.3186 4.49144 0
M  V30 4895 H 472.195 2.06641 6.14169 0
M  V30 4896 N 465.601 -1.54893 0.290851 0
M  V30 4897 C 466.841 -2.01842 -0.322388 0
M  V30 4898 C 467.205 -1.17477 -1.51865 0
M  V30 4899 O 468.406 -1.54077 -2.20258 0
M  V30 4900 C 466.677 -3.50874 -0.679844 0
M  V30 4901 S 468.236 -4.19796 -1.27739 0
M  V30 4902 H 465.054 -0.704005 -0.0994866 0
M  V30 4903 H 467.656 -1.91015 0.416358 0
M  V30 4904 H 466.36 -4.09915 0.199435 0
M  V30 4905 H 465.891 -3.65717 -1.44964 0
M  V30 4906 H 467.906 -4.24729 -2.56554 0
M  V30 4907 N 467.08 -0.0183926 -1.57589 0
M  V30 4908 C 468.496 0.337897 -1.55982 0
M  V30 4909 C 468.696 1.73604 -1.02294 0
M  V30 4910 O 467.752 2.43589 -0.664895 0
M  V30 4911 C 469.065 0.196305 -3.00059 0
M  V30 4912 C 470.613 0.269875 -3.11834 0
M  V30 4913 C 471.088 0.157197 -4.5773 0
M  V30 4914 N 472.579 0.214521 -4.62703 0
M  V30 4915 C 473.314 0.150955 -5.73201 0
M  V30 4916 N 472.81 0.0369212 -6.9279 0
M  V30 4917 N 474.603 0.204162 -5.61729 0
M  V30 4918 H 466.754 -0.93279 -1.90821 0
M  V30 4919 H 469.017 -0.359253 -0.877292 0
M  V30 4920 H 468.723 -0.766383 -3.43248 0
M  V30 4921 H 468.597 0.970908 -3.6449 0
M  V30 4922 H 470.984 1.22302 -2.68563 0
M  V30 4923 H 471.065 -0.534918 -2.50144 0
M  V30 4924 H 470.709 -0.792479 -5.01679 0
M  V30 4925 H 470.639 0.980717 -5.17387 0
M  V30 4926 H 473.13 0.303238 -3.76681 0
M  V30 4927 H 473.443 -0.00518321 -7.728 0
M  V30 4928 H 471.788 0.0022886 -6.95 0
M  V30 4929 H 474.979 0.291575 -4.67191 0
M  V30 4930 H 475.152 0.15116 -6.47824 0
M  V30 4931 N 468.558 1.5553 0.254621 0
M  V30 4932 C 469.835 1.6774 1.00611 0
M  V30 4933 C 470.215 0.555993 2.03647 0
M  V30 4934 O 469.563 -0.441583 2.24193 0
M  V30 4935 C 469.773 3.07725 1.6464 0
M  V30 4936 C 471.121 3.66074 2.15116 0
M  V30 4937 O 472.145 3.10476 1.74595 0
M  V30 4938 O 471.004 4.63526 2.89493 0
M  V30 4939 H 468.098 0.681958 0.467828 0
M  V30 4940 H 470.644 1.67863 0.24902 0
M  V30 4941 H 469.416 3.80792 0.900734 0
M  V30 4942 H 469.039 3.1158 2.46989 0
M  V30 4943 N 470.036 -0.519951 1.48776 0
M  V30 4944 C 470.986 -1.61995 1.60442 0
M  V30 4945 C 471.97 -1.54155 0.460991 0
M  V30 4946 O 473.162 -1.62006 0.712965 0
M  V30 4947 C 470.291 -3.00683 1.65664 0
M  V30 4948 C 469.377 -3.1359 2.8552 0
M  V30 4949 N 469.768 -2.96441 4.09825 0
M  V30 4950 C 468.066 -3.44662 2.83062 0
M  V30 4951 C 468.767 -3.1303 4.90293 0
M  V30 4952 N 467.743 -3.41058 4.23297 0
M  V30 4953 H 471.545 -1.47362 2.54287 0
M  V30 4954 H 469.059 -0.725649 1.45286 0
M  V30 4955 H 471.056 -3.79712 1.72117 0
M  V30 4956 H 469.716 -3.16401 0.729425 0
M  V30 4957 H 470.727 -2.72999 4.40104 0
M  V30 4958 H 467.404 -3.66675 1.9964 0
M  V30 4959 H 468.794 -3.04424 5.98979 0
M  V30 4960 N 471.514 -1.37532 -0.769588 0
M  V30 4961 C 472.447 -1.27839 -1.8903 0
M  V30 4962 C 473.425 -0.158504 -1.61826 0
M  V30 4963 O 474.609 -0.333086 -1.85534 0
M  V30 4964 C 471.736 -0.977072 -3.24301 0
M  V30 4965 C 470.782 -2.11414 -3.70414 0
M  V30 4966 S 471.615 -3.73409 -3.83831 0
M  V30 4967 C 472.771 -3.45432 -5.21946 0
M  V30 4968 H 473.004 -2.22694 -1.96963 0
M  V30 4969 H 470.537 -1.2318 -0.930914 0
M  V30 4970 H 472.495 -0.810049 -4.02428 0
M  V30 4971 H 471.156 -0.0459701 -3.14066 0
M  V30 4972 H 470.349 -1.85837 -4.68488 0
M  V30 4973 H 469.951 -2.24141 -2.99394 0
M  V30 4974 H 472.243 -3.00554 -6.07185 0
M  V30 4975 H 473.186 -4.42841 -5.52537 0
M  V30 4976 H 473.594 -2.80311 -4.89986 0
M  V30 4977 N 472.992 0.995999 -1.22138 0
M  V30 4978 C 474.241 1.72928 -1.03821 0
M  V30 4979 C 474.554 1.90872 0.427444 0
M  V30 4980 O 475.76 2.61496 0.730212 0
M  V30 4981 C 474.216 3.11124 -1.80913 0
M  V30 4982 C 473.824 3.01122 -3.31707 0
M  V30 4983 C 475.568 3.8852 -1.71035 0
M  V30 4984 C 473.475 4.34453 -4.01253 0
M  V30 4985 H 472.405 0.648376 -0.384869 0
M  V30 4986 H 475.056 1.11213 -1.45959 0
M  V30 4987 H 473.438 3.73503 -1.31573 0
M  V30 4988 H 474.612 2.47926 -3.88419 0
M  V30 4989 H 472.927 2.3721 -3.42228 0
M  V30 4990 H 475.524 4.872 -2.20318 0
M  V30 4991 H 475.867 4.1087 -0.670196 0
M  V30 4992 H 476.4 3.32812 -2.17902 0
M  V30 4993 H 473.139 4.17303 -5.05508 0
M  V30 4994 H 472.659 4.87574 -3.49331 0
M  V30 4995 H 474.338 5.03215 -4.06674 0
M  V30 4996 N 474.47 1.03057 1.19235 0
M  V30 4997 C 475.886 0.747947 1.40989 0
M  V30 4998 C 476.086 -0.666752 1.90149 0
M  V30 4999 O 475.142 -1.43249 2.07933 0
M  V30 5000 C 476.455 1.7855 2.41951 0
M  V30 5001 C 478.003 1.80524 2.55695 0
M  V30 5002 C 478.478 2.83243 3.59913 0
M  V30 5003 N 479.969 2.8207 3.67411 0
M  V30 5004 C 480.704 3.58204 4.47747 0
M  V30 5005 N 480.2 4.44057 5.31775 0
M  V30 5006 N 481.993 3.46738 4.42413 0
M  V30 5007 H 474.144 1.94367 0.856468 0
M  V30 5008 H 476.407 0.840412 0.438647 0
M  V30 5009 H 476.113 2.79973 2.12857 0
M  V30 5010 H 475.987 1.6092 3.41152 0
M  V30 5011 H 478.374 0.79778 2.84112 0
M  V30 5012 H 478.455 2.02229 1.56643 0
M  V30 5013 H 478.099 3.84161 3.32239 0
M  V30 5014 H 478.029 2.58795 4.5862 0
M  V30 5015 H 480.52 2.19803 3.074 0
M  V30 5016 H 480.833 4.98884 5.90199 0
M  V30 5017 H 479.178 4.48129 5.3123 0
M  V30 5018 H 482.369 2.79077 3.75811 0
M  V30 5019 H 482.542 4.06322 5.04783 0
M  V30 5020 N 475.948 -1.35272 0.808662 0
M  V30 5021 C 477.173 -2.03477 0.401475 0
M  V30 5022 C 477.598 -1.60537 -0.980279 0
M  V30 5023 O 476.956 -0.78304 -1.63518 0
M  V30 5024 C 477.004 -3.57181 0.495354 0
M  V30 5025 O 476.108 -4.09474 -0.490397 0
M  V30 5026 H 475.449 -0.642561 0.167366 0
M  V30 5027 H 477.979 -1.72824 1.09512 0
M  V30 5028 H 477.989 -4.06356 0.365912 0
M  V30 5029 H 476.664 -3.87784 1.5032 0
M  V30 5030 H 475.241 -3.71516 -0.321023 0
M  V30 5031 N 477.426 -0.562348 -1.47226 0
M  V30 5032 C 478.356 0.170627 -2.32876 0
M  V30 5033 C 479.337 0.903748 -1.44106 0
M  V30 5034 O 480.522 0.883206 -1.72954 0
M  V30 5035 C 477.652 1.19786 -3.25989 0
M  V30 5036 C 476.606 0.580875 -4.2404 0
M  V30 5037 C 475.932 1.71311 -5.06514 0
M  V30 5038 C 477.232 -0.468714 -5.20193 0
M  V30 5039 H 478.926 -0.544441 -2.94408 0
M  V30 5040 H 476.472 -0.263271 -1.41573 0
M  V30 5041 H 478.425 1.71884 -3.84752 0
M  V30 5042 H 477.149 1.94294 -2.62521 0
M  V30 5043 H 475.808 0.0811538 -3.6651 0
M  V30 5044 H 475.456 2.44736 -4.39447 0
M  V30 5045 H 475.156 1.30604 -5.72902 0
M  V30 5046 H 476.68 2.23725 -5.68137 0
M  V30 5047 H 478.094 -0.0336028 -5.7329 0
M  V30 5048 H 476.491 -0.794957 -5.94811 0
M  V30 5049 H 477.561 -1.36269 -4.65359 0
M  V30 5050 N 478.904 1.54736 -0.299062 0
M  V30 5051 C 479.836 2.20891 0.61153 0
M  V30 5052 C 480.849 1.20104 1.09904 0
M  V30 5053 O 482.038 1.46707 1.01683 0
M  V30 5054 C 479.138 2.84018 1.84897 0
M  V30 5055 C 478.311 4.10719 1.50428 0
M  V30 5056 C 477.37 4.57667 2.59667 0
M  V30 5057 O 476.396 5.2291 2.24842 0
M  V30 5058 N 477.598 4.29821 3.90172 0
M  V30 5059 H 480.363 2.99666 0.0452001 0
M  V30 5060 H 477.924 1.61446 -0.121178 0
M  V30 5061 H 479.916 3.1236 2.5732 0
M  V30 5062 H 478.486 2.09095 2.32375 0
M  V30 5063 H 477.706 3.89408 0.612781 0
M  V30 5064 H 478.994 4.93223 1.24934 0
M  V30 5065 H 478.392 3.77549 4.21276 0
M  V30 5066 H 476.949 4.62877 4.58899 0
M  V30 5067 N 480.382 0.0267497 1.57577 0
M  V30 5068 C 481.607 -0.666227 1.96408 0
M  V30 5069 C 482.032 -1.65004 0.903071 0
M  V30 5070 O 481.39 -1.80787 -0.136263 0
M  V30 5071 C 481.438 -1.35101 3.34335 0
M  V30 5072 O 480.542 -2.46623 3.30531 0
M  V30 5073 H 479.883 -0.175206 0.640468 0
M  V30 5074 H 482.413 0.0878977 2.04411 0
M  V30 5075 H 482.423 -1.70834 3.70513 0
M  V30 5076 H 481.098 -0.629844 4.11103 0
M  V30 5077 H 479.675 -2.13019 3.06068 0
M  V30 5078 N 481.861 -1.55662 -0.24637 0
M  V30 5079 C 483.107 -1.77782 -0.975779 0
M  V30 5080 C 483.44 -0.592103 -1.84953 0
M  V30 5081 O 482.715 0.409588 -1.90138 0
M  V30 5082 C 482.998 -3.09788 -1.83584 0
M  V30 5083 C 482.851 -4.38764 -0.990241 0
M  V30 5084 C 484.17 -3.38029 -2.81823 0
M  V30 5085 H 481.289 -0.646789 -0.353317 0
M  V30 5086 H 483.931 -1.88398 -0.246248 0
M  V30 5087 H 482.081 -3.00869 -2.45784 0
M  V30 5088 H 483.753 -4.59675 -0.386897 0
M  V30 5089 H 481.996 -4.32798 -0.294626 0
M  V30 5090 H 482.667 -5.27514 -1.62584 0
M  V30 5091 H 485.143 -3.46915 -2.2976 0
M  V30 5092 H 484.019 -4.3161 -3.39122 0
M  V30 5093 H 484.28 -2.58968 -3.58313 0
M  V30 5094 N 483.339 0.512053 -1.4905 0
M  V30 5095 C 484.587 1.26436 -1.57665 0
M  V30 5096 C 484.908 1.93255 -0.260293 0
M  V30 5097 O 484.178 1.82206 0.719564 0
M  V30 5098 H 482.758 0.469658 -0.580888 0
M  V30 5099 H 485.42 0.594398 -1.85615 0
M  V30 5100 H 484.516 2.03417 -2.36702 0
M  V30 5101 N 484.817 1.37938 0.762283 0
M  V30 5102 C 485.747 1.37176 1.88958 0
M  V30 5103 C 486.728 0.238945 1.68413 0
M  V30 5104 O 487.913 0.440726 1.89133 0
M  V30 5105 C 485.043 1.18742 3.2637 0
M  V30 5106 C 483.997 2.29136 3.61498 0
M  V30 5107 C 483.323 1.95816 4.97554 0
M  V30 5108 C 484.623 3.71363 3.6727 0
M  V30 5109 H 486.317 2.31509 1.89853 0
M  V30 5110 H 483.863 1.11438 0.912005 0
M  V30 5111 H 485.816 1.16837 4.04879 0
M  V30 5112 H 484.54 0.208683 3.25933 0
M  V30 5113 H 483.199 2.30213 2.85303 0
M  V30 5114 H 482.847 0.964475 4.93667 0
M  V30 5115 H 482.547 2.69745 5.22026 0
M  V30 5116 H 484.071 1.95513 5.78452 0
M  V30 5117 H 485.485 3.72364 4.35911 0
M  V30 5118 H 483.882 4.44425 4.03245 0
M  V30 5119 H 484.952 4.04305 2.67704 0
M  V30 5120 N 486.295 -0.989507 1.22664 0
M  V30 5121 C 487.242 -2.08024 0.999733 0
M  V30 5122 C 488.212 -1.65909 -0.0797047 0
M  V30 5123 O 489.397 -1.90669 0.0705715 0
M  V30 5124 C 486.537 -3.40067 0.587234 0
M  V30 5125 C 485.65 -3.95505 1.73781 0
M  V30 5126 C 484.785 -5.15722 1.27297 0
M  V30 5127 C 483.824 -5.63305 2.39488 0
M  V30 5128 N 482.961 -6.74758 1.94026 0
M  V30 5129 H 487.801 -2.26768 1.9334 0
M  V30 5130 H 485.338 -1.11171 0.963297 0
M  V30 5131 H 487.296 -4.15899 0.329227 0
M  V30 5132 H 485.926 -3.21314 -0.309426 0
M  V30 5133 H 484.978 -3.16513 2.11006 0
M  V30 5134 H 486.29 -4.26797 2.58158 0
M  V30 5135 H 485.444 -5.98854 0.972546 0
M  V30 5136 H 484.183 -4.86061 0.399445 0
M  V30 5137 H 483.188 -4.78759 2.70315 0
M  V30 5138 H 484.413 -5.94988 3.27362 0
M  V30 5139 H 482.359 -6.46874 1.09041 0
M  V30 5140 H 482.276 -7.05386 2.71968 0
M  V30 5141 H 483.544 -7.61387 1.67062 0
M  V30 5142 N 487.773 -1.03688 -1.18687 0
M  V30 5143 C 489.184 -0.766488 -1.70241 0
M  V30 5144 C 489.535 0.713052 -1.82784 0
M  V30 5145 O 488.66 1.55529 -1.50465 0
M  V30 5146 C 489.255 -1.38475 -3.09209 0
M  V30 5147 C 487.814 -1.16276 -3.5799 0
M  V30 5148 C 486.961 -1.4778 -2.34641 0
M  V30 5149 H 489.912 -1.20378 -1.03415 0
M  V30 5150 H 489.933 -0.785939 -3.72295 0
M  V30 5151 H 489.445 -2.46157 -3.00048 0
M  V30 5152 H 487.546 -0.104508 -3.72453 0
M  V30 5153 H 487.659 -1.8571 -4.41643 0
M  V30 5154 H 486.023 -0.897366 -2.38368 0
M  V30 5155 H 486.806 -2.56562 -2.28102 0
M  V30 5156 N 489.251 1.34841 -0.815825 0
M  V30 5157 C 490.5 1.97755 -0.396976 0
M  V30 5158 C 490.813 1.65422 1.04379 0
M  V30 5159 O 492.019 2.21771 1.5662 0
M  V30 5160 C 490.475 3.53818 -0.658869 0
M  V30 5161 C 490.083 3.95051 -2.11278 0
M  V30 5162 C 491.827 4.23397 -0.305834 0
M  V30 5163 C 489.734 5.43997 -2.31994 0
M  V30 5164 H 488.664 0.739985 -0.1447 0
M  V30 5165 H 491.315 1.53781 -1.00118 0
M  V30 5166 H 489.697 3.95997 0.0154112 0
M  V30 5167 H 490.871 3.63998 -2.82564 0
M  V30 5168 H 489.186 3.38388 -2.42657 0
M  V30 5169 H 491.783 5.32899 -0.43854 0
M  V30 5170 H 492.126 4.09508 0.748952 0
M  V30 5171 H 492.659 3.8667 -0.934403 0
M  V30 5172 H 489.398 5.62865 -3.35952 0
M  V30 5173 H 488.918 5.76589 -1.65244 0
M  V30 5174 H 490.597 6.10584 -2.14001 0
M  V30 5175 N 490.729 0.570148 1.46925 0
M  V30 5176 C 491.978 0.0487352 2.01641 0
M  V30 5177 C 492.291 -1.31433 1.44861 0
M  V30 5178 O 493.497 -1.92638 1.91318 0
M  V30 5179 C 491.953 0.0365817 3.59881 0
M  V30 5180 C 491.561 1.39719 4.25655 0
M  V30 5181 C 493.305 -0.431545 4.22301 0
M  V30 5182 C 491.212 1.34345 5.75939 0
M  V30 5183 H 490.142 0.0144492 0.753862 0
M  V30 5184 H 492.793 0.719928 1.68788 0
M  V30 5185 H 491.175 -0.700522 3.89755 0
M  V30 5186 H 492.349 2.15303 4.07408 0
M  V30 5187 H 490.664 1.80431 3.75278 0
M  V30 5188 H 493.261 -0.490354 5.32447 0
M  V30 5189 H 493.604 -1.44638 3.90366 0
M  V30 5190 H 494.137 0.251102 3.97007 0
M  V30 5191 H 490.876 2.33469 6.12513 0
M  V30 5192 H 490.396 0.629615 5.96486 0
M  V30 5193 H 492.075 1.051 6.38407 0
M  V30 5194 N 492.207 -1.54576 0.307264 0
M  V30 5195 C 493.618 -1.8579 -0.184121 0
M  V30 5196 C 493.969 -1.22914 -1.52927 0
M  V30 5197 O 493.094 -0.529126 -2.09831 0
M  V30 5198 C 493.689 -3.37081 -0.340862 0
M  V30 5199 C 492.248 -3.68304 -0.776465 0
M  V30 5200 C 491.395 -2.77076 0.111503 0
M  V30 5201 H 494.346 -1.49656 0.528078 0
M  V30 5202 H 494.367 -3.61922 -1.17443 0
M  V30 5203 H 493.879 -3.82815 0.638309 0
M  V30 5204 H 491.98 -3.28092 -1.76596 0
M  V30 5205 H 492.093 -4.75434 -0.591512 0
M  V30 5206 H 490.457 -2.51374 -0.410256 0
M  V30 5207 H 491.24 -3.25632 1.08714 0
M  V30 5208 N 493.685 -0.035106 -1.57561 0
M  V30 5209 C 494.617 0.973604 -2.07494 0
M  V30 5210 C 495.63 1.28504 -0.999534 0
M  V30 5211 O 496.819 1.24864 -1.27559 0
M  V30 5212 C 493.919 2.29945 -2.48955 0
M  V30 5213 C 493.092 2.1723 -3.79644 0
M  V30 5214 C 492.151 3.328 -4.07592 0
M  V30 5215 O 491.177 3.09418 -4.77754 0
M  V30 5216 N 492.379 4.56779 -3.58236 0
M  V30 5217 H 495.144 0.547525 -2.94656 0
M  V30 5218 H 492.705 0.151515 -1.61189 0
M  V30 5219 H 494.697 3.06097 -2.64739 0
M  V30 5220 H 493.267 2.64173 -1.67126 0
M  V30 5221 H 492.487 1.25768 -3.73599 0
M  V30 5222 H 493.775 2.05945 -4.65257 0
M  V30 5223 H 493.173 4.78668 -3.01485 0
M  V30 5224 H 491.73 5.30079 -3.79288 0
M  V30 5225 N 495.163 1.55791 0.238111 0
M  V30 5226 C 496.411 1.77681 0.963001 0
M  V30 5227 C 496.732 0.600674 1.85518 0
M  V30 5228 O 496.002 -0.383182 1.92116 0
M  V30 5229 H 494.582 0.655315 0.358568 0
M  V30 5230 H 497.244 1.93239 0.253945 0
M  V30 5231 H 496.34 2.69177 1.57956 0
M  V30 5232 N 496.642 -0.504142 1.49319 0
M  V30 5233 C 497.867 -1.28729 1.62615 0
M  V30 5234 C 498.292 -1.85752 0.296309 0
M  V30 5235 O 497.65 -1.65704 -0.735649 0
M  V30 5236 C 497.698 -2.39561 2.69524 0
M  V30 5237 O 496.802 -3.43324 2.28478 0
M  V30 5238 H 496.143 -0.380172 0.544395 0
M  V30 5239 H 498.673 -0.603872 1.95485 0
M  V30 5240 H 498.683 -2.8537 2.91595 0
M  V30 5241 H 497.358 -1.97423 3.66056 0
M  V30 5242 H 495.935 -3.03455 2.16725 0
M  V30 5243 N 498.12 -1.38341 -0.754957 0
M  V30 5244 C 499.35 -1.37504 -1.54195 0
M  V30 5245 C 499.758 0.0373787 -1.89163 0
M  V30 5246 O 499.101 1.01402 -1.53178 0
M  V30 5247 C 499.163 -2.16488 -2.87008 0
M  V30 5248 C 498.827 -3.65311 -2.74585 0
M  V30 5249 C 499.824 -4.58834 -2.44474 0
M  V30 5250 C 497.509 -4.08649 -2.9208 0
M  V30 5251 C 499.503 -5.93675 -2.32011 0
M  V30 5252 C 497.19 -5.43571 -2.79237 0
M  V30 5253 C 498.188 -6.35898 -2.49245 0
M  V30 5254 O 497.876 -7.68338 -2.36458 0
M  V30 5255 H 497.608 -0.472159 -0.483779 0
M  V30 5256 H 500.162 -1.82515 -0.94221 0
M  V30 5257 H 498.392 -1.66194 -3.49166 0
M  V30 5258 H 500.081 -2.08076 -3.4851 0
M  V30 5259 H 500.847 -4.26657 -2.30627 0
M  V30 5260 H 496.726 -3.37134 -3.14422 0
M  V30 5261 H 500.27 -6.65706 -2.08522 0
M  V30 5262 H 496.167 -5.75345 -2.92657 0
M  V30 5263 H 496.935 -7.78845 -2.5168 0
M  V30 5264 N 499.598 0.982988 -1.23187 0
M  V30 5265 C 500.845 1.72392 -1.06241 0
M  V30 5266 C 501.173 1.9032 0.40108 0
M  V30 5267 O 500.428 1.45084 1.31336 0
M  V30 5268 C 500.727 3.12736 -1.73006 0
M  V30 5269 C 500.393 3.14695 -3.22921 0
M  V30 5270 C 499.055 3.14937 -3.63824 0
M  V30 5271 C 501.407 3.10211 -4.1883 0
M  V30 5272 C 498.735 3.08408 -4.99101 0
M  V30 5273 C 501.087 3.05224 -5.54095 0
M  V30 5274 C 499.751 3.03787 -5.94365 0
M  V30 5275 H 499.021 0.630829 -0.388762 0
M  V30 5276 H 501.668 1.15053 -1.53085 0
M  V30 5277 H 499.973 3.73446 -1.18514 0
M  V30 5278 H 501.67 3.68828 -1.57374 0
M  V30 5279 H 498.26 3.15262 -2.90358 0
M  V30 5280 H 502.444 3.09166 -3.8824 0
M  V30 5281 H 497.7 3.05646 -5.29519 0
M  V30 5282 H 501.874 3.00712 -6.28128 0
M  V30 5283 H 499.501 2.98483 -6.99151 0
M  V30 5284 N 501.076 1.04316 1.18135 0
M  V30 5285 C 502.006 0.657299 2.24058 0
M  V30 5286 C 502.987 -0.340678 1.66654 0
M  V30 5287 O 504.172 -0.220223 1.92947 0
M  V30 5288 C 501.302 0.0220715 3.47293 0
M  V30 5289 C 500.256 0.943857 4.17463 0
M  V30 5290 C 499.582 0.172973 5.3442 0
M  V30 5291 C 500.882 2.26409 4.70677 0
M  V30 5292 H 502.576 1.5428 2.56589 0
M  V30 5293 H 500.122 0.743263 1.23335 0
M  V30 5294 H 502.075 -0.259607 4.206 0
M  V30 5295 H 500.799 -0.898323 3.14003 0
M  V30 5296 H 499.458 1.20996 3.46057 0
M  V30 5297 H 499.106 -0.749907 4.97379 0
M  V30 5298 H 498.806 0.787098 5.82304 0
M  V30 5299 H 500.33 -0.101628 6.10515 0
M  V30 5300 H 501.744 2.04294 5.35665 0
M  V30 5301 H 500.141 2.8314 5.29105 0
M  V30 5302 H 501.211 2.90883 3.87962 0
M  V30 5303 N 502.554 -1.34406 0.822964 0
M  V30 5304 C 503.803 -1.97542 0.407458 0
M  V30 5305 C 504.116 -1.65973 -1.035 0
M  V30 5306 O 505.322 -2.22598 -1.55442 0
M  V30 5307 C 503.778 -3.53463 0.677623 0
M  V30 5308 C 503.386 -3.93925 2.1337 0
M  V30 5309 C 505.13 -4.23229 0.328284 0
M  V30 5310 C 503.037 -5.42759 2.34876 0
M  V30 5311 H 501.967 -0.739207 0.148623 0
M  V30 5312 H 504.618 -1.53248 1.00932 0
M  V30 5313 H 503 -3.96 0.00558965 0
M  V30 5314 H 504.174 -3.62494 2.8449 0
M  V30 5315 H 502.489 -3.37097 2.44448 0
M  V30 5316 H 505.086 -5.32659 0.466794 0
M  V30 5317 H 505.429 -4.09899 -0.727224 0
M  V30 5318 H 505.962 -3.86169 0.954896 0
M  V30 5319 H 502.701 -5.61075 3.38932 0
M  V30 5320 H 502.221 -5.75704 1.68299 0
M  V30 5321 H 503.9 -6.0944 2.17236 0
M  V30 5322 N 504.032 -0.577932 -1.46621 0
M  V30 5323 C 505.26 -0.0671642 -2.06791 0
M  V30 5324 C 505.675 1.23571 -1.42743 0
M  V30 5325 O 505.032 1.74602 -0.531062 0
M  V30 5326 C 505.083 0.110357 -3.61332 0
M  V30 5327 O 504.804 -1.14095 -4.22982 0
M  V30 5328 C 506.305 0.656025 -4.38419 0
M  V30 5329 H 503.525 -0.0552732 -0.66872 0
M  V30 5330 H 506.069 -0.797242 -1.8832 0
M  V30 5331 H 504.224 0.790637 -3.79246 0
M  V30 5332 H 504.638 -0.951742 -5.15793 0
M  V30 5333 H 506.112 0.729438 -5.47159 0
M  V30 5334 H 506.589 1.67195 -4.06131 0
M  V30 5335 H 507.195 0.0107692 -4.25299 0
M  V30 5336 N 505.51 1.54411 -0.315457 0
M  V30 5337 C 506.787 1.92562 0.343398 0
M  V30 5338 C 507.167 1.24423 1.70535 0
M  V30 5339 O 506.515 0.385051 2.25232 0
M  V30 5340 C 506.725 3.46168 0.443687 0
M  V30 5341 C 508.073 4.18659 0.707783 0
M  V30 5342 O 509.097 3.52281 0.52693 0
M  V30 5343 O 507.956 5.36198 1.05612 0
M  V30 5344 H 505.05 0.80379 0.194552 0
M  V30 5345 H 507.596 1.65738 -0.364577 0
M  V30 5346 H 506.368 3.8792 -0.513172 0
M  V30 5347 H 505.991 3.79073 1.19956 0
M  V30 5348 N 506.988 0.0434614 1.5754 0
M  V30 5349 C 508.237 -0.631454 1.91561 0
M  V30 5350 C 508.55 -1.72457 0.92292 0
M  V30 5351 O 509.756 -2.45712 1.15489 0
M  V30 5352 C 508.212 -1.17447 3.40197 0
M  V30 5353 C 507.82 -0.113867 4.47855 0
M  V30 5354 C 509.564 -1.82507 3.83264 0
M  V30 5355 C 507.471 -0.669326 5.876 0
M  V30 5356 H 506.401 -0.239629 0.714908 0
M  V30 5357 H 509.052 0.111097 1.83163 0
M  V30 5358 H 507.434 -1.96909 3.43574 0
M  V30 5359 H 508.608 0.659348 4.56058 0
M  V30 5360 H 506.923 0.438821 4.14081 0
M  V30 5361 H 509.52 -2.25047 4.85034 0
M  V30 5362 H 509.863 -2.67365 3.19095 0
M  V30 5363 H 510.396 -1.09712 3.82372 0
M  V30 5364 H 507.135 0.141449 6.55347 0
M  V30 5365 H 506.655 -1.4107 5.82974 0
M  V30 5366 H 508.334 -1.15463 6.36614 0
M  V30 5367 N 508.466 -1.55915 -0.229846 0
M  V30 5368 C 509.691 -1.8296 -0.976743 0
M  V30 5369 C 510.116 -0.622735 -1.77493 0
M  V30 5370 O 509.474 0.428431 -1.76165 0
M  V30 5371 C 509.522 -3.07916 -1.8767 0
M  V30 5372 O 508.626 -2.86028 -2.97088 0
M  V30 5373 H 507.967 -0.603453 -0.277021 0
M  V30 5374 H 510.497 -2.0312 -0.245669 0
M  V30 5375 H 510.507 -3.37802 -2.2881 0
M  V30 5376 H 509.182 -3.95389 -1.28996 0
M  V30 5377 H 507.759 -2.67355 -2.59954 0
M  V30 5378 N 509.944 0.496216 -1.49584 0
M  V30 5379 C 511.221 1.25755 -1.49816 0
M  V30 5380 C 511.601 2.09859 -0.228572 0
M  V30 5381 O 510.949 2.14449 0.788908 0
M  V30 5382 C 511.159 2.11017 -2.7798 0
M  V30 5383 C 512.507 2.70047 -3.27658 0
M  V30 5384 O 513.531 2.21281 -2.79129 0
M  V30 5385 O 512.39 3.58834 -4.1219 0
M  V30 5386 H 509.484 0.569322 -0.599834 0
M  V30 5387 H 512.03 0.510094 -1.61852 0
M  V30 5388 H 510.802 1.48879 -3.61871 0
M  V30 5389 H 510.425 2.92947 -2.68827 0
M  V30 5390 N 511.423 1.38739 0.74761 0
M  V30 5391 C 512.67 1.35274 1.50689 0
M  V30 5392 C 512.998 -0.0553359 1.94421 0
M  V30 5393 O 512.253 -1.03365 1.66175 0
M  V30 5394 C 512.552 2.25992 2.7688 0
M  V30 5395 C 512.218 3.73854 2.5208 0
M  V30 5396 C 510.88 4.14145 2.45025 0
M  V30 5397 C 513.232 4.67427 2.30568 0
M  V30 5398 C 510.56 5.4609 2.14483 0
M  V30 5399 C 512.912 5.99635 2.01545 0
M  V30 5400 C 511.576 6.39004 1.92951 0
M  V30 5401 H 510.846 0.495003 0.55141 0
M  V30 5402 H 513.493 1.71145 0.859158 0
M  V30 5403 H 511.798 1.83196 3.46333 0
M  V30 5404 H 513.495 2.20611 3.34861 0
M  V30 5405 H 510.085 3.41913 2.58444 0
M  V30 5406 H 514.269 4.3714 2.34994 0
M  V30 5407 H 509.525 5.75528 2.06342 0
M  V30 5408 H 513.699 6.71678 1.83906 0
M  V30 5409 H 511.326 7.41165 1.6905 0
M  V30 5410 N 512.901 -0.976442 1.23707 0
M  V30 5411 C 513.848 -2.06952 1.02174 0
M  V30 5412 C 514.818 -1.65984 -0.0621034 0
M  V30 5413 O 516.003 -1.90584 0.0907906 0
M  V30 5414 C 513.143 -3.39425 0.62327 0
M  V30 5415 C 512.256 -3.9364 1.77966 0
M  V30 5416 C 511.391 -5.14343 1.3276 0
M  V30 5417 C 510.43 -5.60733 2.45449 0
M  V30 5418 N 509.567 -6.72662 2.01172 0
M  V30 5419 H 514.407 -2.24704 1.95734 0
M  V30 5420 H 511.944 -1.10143 0.975034 0
M  V30 5421 H 513.902 -4.15526 0.37332 0
M  V30 5422 H 512.532 -3.21624 -0.275329 0
M  V30 5423 H 511.584 -3.14258 2.14351 0
M  V30 5424 H 512.896 -4.24035 2.62671 0
M  V30 5425 H 512.05 -5.97789 1.03601 0
M  V30 5426 H 510.789 -4.8561 0.450975 0
M  V30 5427 H 509.794 -4.75865 2.75378 0
M  V30 5428 H 511.019 -5.91483 3.33654 0
M  V30 5429 H 508.965 -6.45681 1.15895 0
M  V30 5430 H 508.882 -7.02462 2.79434 0
M  V30 5431 H 510.15 -7.59572 1.75129 0
M  V30 5432 N 514.379 -1.04941 -1.1758 0
M  V30 5433 C 515.795 -0.770282 -1.39781 0
M  V30 5434 C 515.995 0.636417 -1.91186 0
M  V30 5435 O 515.051 1.39923 -2.10185 0
M  V30 5436 C 516.364 -1.82376 -2.3908 0
M  V30 5437 C 517.912 -1.84569 -2.52791 0
M  V30 5438 C 518.387 -2.88933 -3.55361 0
M  V30 5439 N 519.878 -2.8788 -3.62877 0
M  V30 5440 C 520.613 -3.65282 -4.41992 0
M  V30 5441 N 520.109 -4.52461 -5.24643 0
M  V30 5442 N 521.902 -3.53732 -4.36841 0
M  V30 5443 H 514.053 -1.95705 -0.825438 0
M  V30 5444 H 516.316 -0.847284 -0.425222 0
M  V30 5445 H 516.022 -2.83323 -2.08376 0
M  V30 5446 H 515.896 -1.66327 -3.38549 0
M  V30 5447 H 518.283 -0.842879 -2.82807 0
M  V30 5448 H 518.364 -2.04696 -1.53406 0
M  V30 5449 H 518.008 -3.89398 -3.26085 0
M  V30 5450 H 517.938 -2.66059 -4.54445 0
M  V30 5451 H 520.429 -2.24666 -3.03864 0
M  V30 5452 H 520.742 -5.08211 -5.82187 0
M  V30 5453 H 519.087 -4.56524 -5.24033 0
M  V30 5454 H 522.278 -2.85021 -3.71323 0
M  V30 5455 H 522.451 -4.14302 -4.98255 0
M  V30 5456 N 515.857 1.33968 -0.830081 0
M  V30 5457 C 516.804 2.29387 -0.255008 0
M  V30 5458 C 517.774 1.53923 0.624243 0
M  V30 5459 O 518.959 1.82262 0.564372 0
M  V30 5460 C 516.099 3.4034 0.571209 0
M  V30 5461 C 515.212 4.30729 -0.331083 0
M  V30 5462 C 514.347 5.2879 0.505389 0
M  V30 5463 C 513.386 6.10819 -0.395843 0
M  V30 5464 N 512.523 7.00948 0.401979 0
M  V30 5465 H 517.363 2.77972 -1.07404 0
M  V30 5466 H 514.9 1.36785 -0.541133 0
M  V30 5467 H 516.858 4.03361 1.06562 0
M  V30 5468 H 515.488 2.9297 1.35529 0
M  V30 5469 H 514.54 3.68507 -0.943759 0
M  V30 5470 H 515.852 4.88181 -1.02377 0
M  V30 5471 H 515.006 5.97297 1.06399 0
M  V30 5472 H 513.745 4.71894 1.23155 0
M  V30 5473 H 512.75 5.41238 -0.966529 0
M  V30 5474 H 513.975 6.69797 -1.12023 0
M  V30 5475 H 511.921 6.46512 1.11168 0
M  V30 5476 H 511.838 7.55643 -0.232167 0
M  V30 5477 H 513.106 7.73774 0.943102 0
M  V30 5478 N 517.335 0.585699 1.46312 0
M  V30 5479 C 518.268 -0.194257 2.27372 0
M  V30 5480 C 519.246 -0.894116 1.3581 0
M  V30 5481 O 520.43 -0.907402 1.65222 0
M  V30 5482 C 517.557 -1.27901 3.13622 0
M  V30 5483 C 516.603 -0.684666 4.20969 0
M  V30 5484 S 517.436 0.490745 5.33247 0
M  V30 5485 C 518.592 -0.595137 6.23064 0
M  V30 5486 H 518.825 0.493515 2.93175 0
M  V30 5487 H 516.358 0.372666 1.49835 0
M  V30 5488 H 518.316 -1.90008 3.63878 0
M  V30 5489 H 516.977 -1.93875 2.47126 0
M  V30 5490 H 516.17 -1.50015 4.81156 0
M  V30 5491 H 515.772 -0.139204 3.73741 0
M  V30 5492 H 518.064 -1.48002 6.61137 0
M  V30 5493 H 519.007 -0.0299446 7.08094 0
M  V30 5494 H 519.415 -0.900627 5.57269 0
M  V30 5495 N 518.813 -1.54241 0.323641 0
M  V30 5496 C 520.224 -1.85975 -0.164405 0
M  V30 5497 C 520.575 -1.24529 -1.51615 0
M  V30 5498 O 519.7 -0.551351 -2.09258 0
M  V30 5499 C 520.295 -3.37424 -0.305091 0
M  V30 5500 C 518.854 -3.69107 -0.737358 0
M  V30 5501 C 518.001 -2.76942 0.140884 0
M  V30 5502 H 520.952 -1.49088 0.543922 0
M  V30 5503 H 520.973 -3.63147 -1.13598 0
M  V30 5504 H 520.485 -3.82116 0.678876 0
M  V30 5505 H 518.586 -3.29947 -1.73107 0
M  V30 5506 H 518.699 -4.76035 -0.541053 0
M  V30 5507 H 517.063 -2.51795 -0.383572 0
M  V30 5508 H 517.846 -3.24461 1.12162 0
M  V30 5509 N 520.291 -0.0518155 -1.57515 0
M  V30 5510 C 521.568 0.661727 -1.84067 0
M  V30 5511 C 521.948 1.88999 -0.940351 0
M  V30 5512 O 521.296 2.285 -0.00155404 0
M  V30 5513 C 521.506 1.01841 -3.3381 0
M  V30 5514 C 522.854 1.40043 -4.00841 0
M  V30 5515 O 523.878 1.11073 -3.38439 0
M  V30 5516 O 522.737 1.94111 -5.10865 0
M  V30 5517 H 519.831 0.326702 -0.759733 0
M  V30 5518 H 522.377 -0.0812277 -1.69505 0
M  V30 5519 H 521.149 0.145202 -3.91031 0
M  V30 5520 H 520.772 1.81879 -3.53562 0
M  V30 5521 N 521.769 1.56035 0.221574 0
M  V30 5522 C 522.699 1.95434 1.2778 0
M  V30 5523 C 523.68 0.822564 1.48889 0
M  V30 5524 O 524.865 1.08486 1.61072 0
M  V30 5525 C 521.995 2.27102 2.62759 0
M  V30 5526 C 520.949 3.4277 2.56306 0
M  V30 5527 C 520.275 3.60043 3.95314 0
M  V30 5528 C 521.575 4.77742 2.11093 0
M  V30 5529 H 523.269 2.83912 0.950504 0
M  V30 5530 H 520.815 1.36596 0.455791 0
M  V30 5531 H 522.768 2.53256 3.36807 0
M  V30 5532 H 521.492 1.35478 2.97176 0
M  V30 5533 H 520.151 3.16664 1.84715 0
M  V30 5534 H 519.799 2.65794 4.27039 0
M  V30 5535 H 519.499 4.37841 3.91879 0
M  V30 5536 H 521.023 3.88545 4.71025 0
M  V30 5537 H 522.437 5.03102 2.74885 0
M  V30 5538 H 520.834 5.58823 2.18716 0
M  V30 5539 H 521.904 4.731 1.06321 0
M  V30 5540 N 523.247 -0.488276 1.49845 0
M  V30 5541 C 524.658 -1.06955 1.53028 0
M  V30 5542 C 525.009 -1.9351 0.323797 0
M  V30 5543 O 524.134 -2.08891 -0.565116 0
M  V30 5544 C 524.729 -1.94643 2.77307 0
M  V30 5545 C 523.288 -2.4791 2.83227 0
M  V30 5546 C 522.435 -1.25833 2.47106 0
M  V30 5547 H 525.386 -0.271626 1.56358 0
M  V30 5548 H 525.407 -2.79496 2.5819 0
M  V30 5549 H 524.919 -1.31621 3.65099 0
M  V30 5550 H 523.02 -3.14535 1.99745 0
M  V30 5551 H 523.133 -2.84193 3.85709 0
M  V30 5552 H 521.497 -1.58764 1.99163 0
M  V30 5553 H 522.28 -0.644993 3.37186 0
M  V30 5554 N 524.725 -1.39134 -0.740242 0
M  V30 5555 C 525.973 -1.35803 -1.49673 0
M  V30 5556 C 526.294 0.0470897 -1.94943 0
M  V30 5557 O 525.564 0.997347 -1.68611 0
M  V30 5558 H 524.144 -0.499736 -0.555224 0
M  V30 5559 H 526.806 -1.73947 -0.879107 0
M  V30 5560 H 525.902 -2.0174 -2.38133 0
M  V30 5561 N 526.204 0.969867 -1.24223 0
M  V30 5562 C 527.167 2.04564 -1.03373 0
M  V30 5563 C 528.167 1.60798 0.00819206 0
M  V30 5564 O 529.357 1.72641 -0.232567 0
M  V30 5565 C 526.489 3.36163 -0.566343 0
M  V30 5566 H 527.682 2.24494 -1.98853 0
M  V30 5567 H 525.235 1.1448 -1.06415 0
M  V30 5568 H 525.97 3.21925 0.391751 0
M  V30 5569 H 525.755 3.69273 -1.31834 0
M  V30 5570 H 527.245 4.1526 -0.441435 0
M  V30 5571 N 527.682 1.05563 1.17022 0
M  V30 5572 C 528.928 0.769074 1.87652 0
M  V30 5573 C 529.261 -0.702326 1.81055 0
M  V30 5574 O 528.536 -1.5139 1.22112 0
M  V30 5575 C 528.819 1.25492 3.37526 0
M  V30 5576 C 528.672 2.78953 3.52853 0
M  V30 5577 C 529.991 0.856919 4.31677 0
M  V30 5578 H 527.11 0.280854 0.681388 0
M  V30 5579 H 529.752 1.31027 1.37593 0
M  V30 5580 H 527.902 0.794516 3.80289 0
M  V30 5581 H 529.574 3.33146 3.19079 0
M  V30 5582 H 527.817 3.18046 2.95007 0
M  V30 5583 H 528.488 3.08011 4.58076 0
M  V30 5584 H 530.964 1.25334 3.96775 0
M  V30 5585 H 529.84 1.22443 5.35069 0
M  V30 5586 H 530.101 -0.238787 4.41455 0
M  V30 5587 N 529.16 -1.33526 0.837174 0
M  V30 5588 C 530.437 -1.92369 0.354065 0
M  V30 5589 C 530.817 -1.76348 -1.16038 0
M  V30 5590 O 530.165 -1.15083 -1.97403 0
M  V30 5591 C 530.375 -3.39728 0.799101 0
M  V30 5592 C 531.723 -4.16877 0.806139 0
M  V30 5593 O 532.747 -3.48373 0.742597 0
M  V30 5594 O 531.606 -5.39166 0.892345 0
M  V30 5595 H 528.7 -0.820952 0.0998378 0
M  V30 5596 H 531.246 -1.42409 0.922913 0
M  V30 5597 H 530.018 -3.45254 1.84162 0
M  V30 5598 H 529.641 -3.97062 0.206731 0
M  V30 5599 N 530.638 -0.59345 -1.46 0
M  V30 5600 C 531.548 0.135817 -2.34207 0
M  V30 5601 C 532.564 0.875008 -1.50398 0
M  V30 5602 O 533.74 0.835778 -1.83239 0
M  V30 5603 C 530.805 1.12977 -3.27776 0
M  V30 5604 C 529.866 0.394081 -4.27487 0
M  V30 5605 C 529.099 1.34068 -5.16586 0
M  V30 5606 O 529.322 2.5778 -5.08828 0
M  V30 5607 O 528.256 0.845426 -5.95933 0
M  V30 5608 H 532.082 -0.588691 -2.9794 0
M  V30 5609 H 529.667 -0.353784 -1.45151 0
M  V30 5610 H 531.549 1.70261 -3.85473 0
M  V30 5611 H 530.224 1.83556 -2.66625 0
M  V30 5612 H 529.131 -0.220869 -3.73447 0
M  V30 5613 H 530.464 -0.270939 -4.91454 0
M  V30 5614 N 532.116 1.54067 -0.331816 0
M  V30 5615 C 533.527 1.86059 0.15454 0
M  V30 5616 C 533.878 1.25331 1.50952 0
M  V30 5617 O 533.003 0.562441 2.08963 0
M  V30 5618 C 533.598 3.37581 0.287192 0
M  V30 5619 C 532.157 3.69493 0.717773 0
M  V30 5620 C 531.304 2.76863 -0.155569 0
M  V30 5621 H 534.255 1.48797 -0.55182 0
M  V30 5622 H 534.276 3.63744 1.11671 0
M  V30 5623 H 533.788 3.81751 -0.699131 0
M  V30 5624 H 531.889 3.3086 1.71354 0
M  V30 5625 H 532.002 4.76315 0.5158 0
M  V30 5626 H 530.366 2.51995 0.370213 0
M  V30 5627 H 531.149 3.23861 -1.13881 0
M  V30 5628 N 533.594 0.0601682 1.57485 0
M  V30 5629 C 534.824 -0.620037 1.97076 0
M  V30 5630 C 535.232 -1.64381 0.936784 0
M  V30 5631 O 534.575 -1.83497 -0.0863377 0
M  V30 5632 C 534.637 -1.35617 3.32939 0
M  V30 5633 C 534.301 -0.487208 4.54396 0
M  V30 5634 C 535.298 0.250428 5.19297 0
M  V30 5635 C 532.983 -0.415494 5.00579 0
M  V30 5636 C 534.977 1.04812 6.28723 0
M  V30 5637 C 532.664 0.385879 6.0988 0
M  V30 5638 C 533.662 1.11637 6.73815 0
M  V30 5639 O 533.35 1.90454 7.81014 0
M  V30 5640 H 533.082 -0.173664 0.653312 0
M  V30 5641 H 535.636 0.1256 2.05016 0
M  V30 5642 H 533.866 -2.14763 3.2158 0
M  V30 5643 H 535.555 -1.92749 3.57215 0
M  V30 5644 H 536.321 0.204546 4.84568 0
M  V30 5645 H 532.2 -0.973679 4.506 0
M  V30 5646 H 535.744 1.6188 6.78558 0
M  V30 5647 H 531.641 0.433366 6.44044 0
M  V30 5648 H 532.409 1.82762 7.97835 0
M  V30 5649 N 535.072 -1.5615 -0.213296 0
M  V30 5650 C 536.349 -1.70349 -0.961281 0
M  V30 5651 C 536.729 -0.609791 -2.02101 0
M  V30 5652 O 536.077 0.381987 -2.25285 0
M  V30 5653 C 536.287 -3.11982 -1.56424 0
M  V30 5654 C 537.635 -3.71649 -2.05334 0
M  V30 5655 O 538.659 -3.14995 -1.66302 0
M  V30 5656 O 537.518 -4.71038 -2.77102 0
M  V30 5657 H 534.612 -0.694121 -0.449582 0
M  V30 5658 H 537.158 -1.68464 -0.204426 0
M  V30 5659 H 535.93 -3.83046 -0.799457 0
M  V30 5660 H 535.553 -3.18019 -2.38641 0
M  V30 5661 N 536.55 0.480323 -1.50102 0
M  V30 5662 C 537.966 0.813295 -1.37323 0
M  V30 5663 C 538.166 1.97027 -0.422206 0
M  V30 5664 O 537.222 2.5212 0.138563 0
M  V30 5665 C 538.535 1.13404 -2.78496 0
M  V30 5666 C 540.083 1.24104 -2.87345 0
M  V30 5667 C 540.558 1.59497 -4.29331 0
M  V30 5668 N 542.049 1.66507 -4.32238 0
M  V30 5669 C 542.784 1.95378 -5.39087 0
M  V30 5670 N 542.28 2.22333 -6.56155 0
M  V30 5671 N 544.073 1.96803 -5.26522 0
M  V30 5672 H 536.224 -0.282291 -2.10516 0
M  V30 5673 H 538.487 -0.063752 -0.945854 0
M  V30 5674 H 538.193 0.357064 -3.49883 0
M  V30 5675 H 538.067 2.07251 -3.15162 0
M  V30 5676 H 540.454 2.00871 -2.16183 0
M  V30 5677 H 540.535 0.282593 -2.54234 0
M  V30 5678 H 540.179 0.832736 -5.01027 0
M  V30 5679 H 540.109 2.56477 -4.59921 0
M  V30 5680 H 542.6 1.47753 -3.47818 0
M  V30 5681 H 542.913 2.43611 -7.33399 0
M  V30 5682 H 541.258 2.19745 -6.59346 0
M  V30 5683 H 544.449 1.75235 -4.34062 0
M  V30 5684 H 544.622 2.18969 -6.09883 0
M  V30 5685 N 538.028 1.39524 0.732853 0
M  V30 5686 C 539.444 1.21176 1.03868 0
M  V30 5687 C 539.644 0.0748448 2.01361 0
M  V30 5688 O 538.7 -0.57281 2.45917 0
M  V30 5689 C 540.013 2.54667 1.59892 0
M  V30 5690 C 541.561 2.6153 1.71962 0
M  V30 5691 C 542.036 3.95248 2.31394 0
M  V30 5692 N 543.527 3.96899 2.38801 0
M  V30 5693 C 544.262 4.97138 2.85729 0
M  V30 5694 N 543.758 6.07775 3.32537 0
M  V30 5695 N 545.551 4.84516 2.84957 0
M  V30 5696 H 537.702 2.12225 0.086304 0
M  V30 5697 H 539.965 0.942614 0.100907 0
M  V30 5698 H 539.671 3.38423 0.95721 0
M  V30 5699 H 539.545 2.74538 2.58668 0
M  V30 5700 H 541.932 1.78156 2.35254 0
M  V30 5701 H 542.013 2.45507 0.718327 0
M  V30 5702 H 541.657 4.79054 1.68729 0
M  V30 5703 H 541.587 4.08593 3.32204 0
M  V30 5704 H 544.078 3.16998 2.05719 0
M  V30 5705 H 544.391 6.8017 3.66862 0
M  V30 5706 H 542.736 6.11366 3.30541 0
M  V30 5707 H 545.927 3.97185 2.47713 0
M  V30 5708 H 546.1 5.62783 3.21215 0
M  V30 5709 N 539.506 -0.963266 1.24736 0
M  V30 5710 C 540.753 -1.7068 1.0897 0
M  V30 5711 C 541.081 -1.90934 -0.370751 0
M  V30 5712 O 540.336 -1.47155 -1.29011 0
M  V30 5713 C 540.635 -3.09944 1.7796 0
M  V30 5714 C 540.301 -3.09518 3.27887 0
M  V30 5715 C 538.963 -3.09109 3.68789 0
M  V30 5716 C 541.315 -3.03509 4.23712 0
M  V30 5717 C 538.643 -3.00429 5.03944 0
M  V30 5718 C 540.995 -2.96371 5.5888 0
M  V30 5719 C 539.659 -2.94293 5.99123 0
M  V30 5720 H 538.929 -0.624564 0.398749 0
M  V30 5721 H 541.576 -1.12603 1.54896 0
M  V30 5722 H 539.881 -3.71513 1.2444 0
M  V30 5723 H 541.578 -3.66278 1.63222 0
M  V30 5724 H 538.168 -3.10603 2.95337 0
M  V30 5725 H 542.352 -3.0295 3.93109 0
M  V30 5726 H 537.608 -2.97183 5.34314 0
M  V30 5727 H 541.782 -2.90681 6.32833 0
M  V30 5728 H 539.409 -2.87322 7.03811 0
M  V30 5729 N 540.985 -1.06182 -1.16461 0
M  V30 5730 C 542.231 -0.779015 -1.87241 0
M  V30 5731 C 542.564 0.692715 -1.81425 0
M  V30 5732 O 541.839 1.5074 -1.22913 0
M  V30 5733 C 542.122 -1.2728 -3.36856 0
M  V30 5734 C 541.975 -2.80821 -3.51368 0
M  V30 5735 C 543.294 -0.879799 -4.31216 0
M  V30 5736 H 540.413 -0.284464 -0.679889 0
M  V30 5737 H 543.055 -1.31755 -1.36896 0
M  V30 5738 H 541.205 -0.814673 -3.79862 0
M  V30 5739 H 542.877 -3.34833 -3.17308 0
M  V30 5740 H 541.12 -3.19606 -2.93316 0
M  V30 5741 H 541.791 -3.10435 -4.56436 0
M  V30 5742 H 544.267 -1.27436 -3.96105 0
M  V30 5743 H 543.143 -1.25278 -5.34412 0
M  V30 5744 H 543.404 0.215372 -4.41575 0
M  V30 5745 N 542.463 1.3308 -0.844243 0
M  V30 5746 C 543.41 2.29104 -0.279323 0
M  V30 5747 C 544.38 1.54577 0.607882 0
M  V30 5748 O 545.565 1.8285 0.545009 0
M  V30 5749 C 542.705 3.40927 0.53508 0
M  V30 5750 C 541.818 4.30354 -0.376749 0
M  V30 5751 C 540.953 5.29297 0.449276 0
M  V30 5752 C 539.992 6.10365 -0.460606 0
M  V30 5753 N 539.129 7.01335 0.327612 0
M  V30 5754 H 543.969 2.76817 -1.10346 0
M  V30 5755 H 541.506 1.36203 -0.555611 0
M  V30 5756 H 543.464 4.04469 1.02278 0
M  V30 5757 H 542.094 2.94391 1.32414 0
M  V30 5758 H 541.146 3.67485 -0.982791 0
M  V30 5759 H 542.458 4.87067 -1.07549 0
M  V30 5760 H 541.612 5.98392 1.00058 0
M  V30 5761 H 540.351 4.73174 1.18143 0
M  V30 5762 H 539.356 5.40182 -1.02388 0
M  V30 5763 H 540.581 6.68571 -1.1912 0
M  V30 5764 H 538.527 6.47655 1.04305 0
M  V30 5765 H 538.444 7.55355 -0.3123 0
M  V30 5766 H 539.712 7.74731 0.86098 0
M  V30 5767 N 543.941 0.601185 1.45683 0
M  V30 5768 C 545.187 0.102425 2.03142 0
M  V30 5769 C 545.542 -1.25066 1.46207 0
M  V30 5770 O 544.835 -1.81126 0.624806 0
M  V30 5771 C 545.029 -0.00222425 3.574 0
M  V30 5772 C 544.858 1.33917 4.29298 0
M  V30 5773 C 543.628 1.91818 4.67476 0
M  V30 5774 C 545.826 2.26652 4.61664 0
M  V30 5775 N 543.808 3.19504 5.24204 0
M  V30 5776 C 545.179 3.38933 5.19157 0
M  V30 5777 C 547.234 2.26103 4.43601 0
M  V30 5778 C 545.937 4.50823 5.60492 0
M  V30 5779 C 547.963 3.37036 4.85964 0
M  V30 5780 C 547.325 4.48039 5.43545 0
M  V30 5781 H 543.424 0.0806974 0.777825 0
M  V30 5782 H 546.008 0.798134 1.77589 0
M  V30 5783 H 544.179 -0.66714 3.82627 0
M  V30 5784 H 545.911 -0.507058 4.01511 0
M  V30 5785 H 542.666 1.45097 4.50826 0
M  V30 5786 H 543.09 3.84705 5.57073 0
M  V30 5787 H 547.732 1.41547 3.98402 0
M  V30 5788 H 545.45 5.36108 6.0466 0
M  V30 5789 H 549.036 3.37752 4.73725 0
M  V30 5790 H 547.916 5.32459 5.75723 0
M  V30 5791 N 545.419 -1.53889 0.339982 0
M  V30 5792 C 546.352 -2.21187 -0.561405 0
M  V30 5793 C 547.33 -1.19463 -1.10306 0
M  V30 5794 O 548.514 -1.48268 -1.164 0
M  V30 5795 C 545.641 -2.8865 -1.77198 0
M  V30 5796 C 544.687 -4.04232 -1.3601 0
M  V30 5797 S 545.52 -5.34129 -0.382909 0
M  V30 5798 C 546.676 -6.05094 -1.60039 0
M  V30 5799 H 546.909 -2.97298 0.0102092 0
M  V30 5800 H 544.442 -1.53901 0.124056 0
M  V30 5801 H 546.4 -3.28138 -2.4665 0
M  V30 5802 H 545.061 -2.12311 -2.3148 0
M  V30 5803 H 544.254 -4.50358 -2.2626 0
M  V30 5804 H 543.856 -3.66503 -0.745098 0
M  V30 5805 H 546.148 -6.2827 -2.53541 0
M  V30 5806 H 547.091 -6.98182 -1.18099 0
M  V30 5807 H 547.499 -5.35207 -1.79483 0
M  V30 5808 N 546.897 -0.0685191 -1.57451 0
M  V30 5809 C 548.146 0.600898 -1.92541 0
M  V30 5810 C 548.459 1.70967 -0.950239 0
M  V30 5811 O 549.665 2.43844 -1.19384 0
M  V30 5812 C 548.121 1.12019 -3.42023 0
M  V30 5813 C 547.729 0.0426028 -4.4798 0
M  V30 5814 C 549.473 1.76386 -3.86119 0
M  V30 5815 C 547.38 0.575759 -5.88591 0
M  V30 5816 H 546.31 0.228225 -0.71863 0
M  V30 5817 H 548.961 -0.140223 -1.82963 0
M  V30 5818 H 547.343 1.91418 -3.46663 0
M  V30 5819 H 548.517 -0.73182 -4.54952 0
M  V30 5820 H 546.832 -0.504642 -4.13331 0
M  V30 5821 H 549.429 2.17302 -4.88553 0
M  V30 5822 H 549.772 2.62255 -3.23308 0
M  V30 5823 H 550.305 1.03615 -3.84069 0
M  V30 5824 H 547.044 -0.245691 -6.55039 0
M  V30 5825 H 546.564 1.31778 -5.85145 0
M  V30 5826 H 548.243 1.0532 -6.3837 0
M  V30 5827 N 548.375 1.56261 0.205012 0
M  V30 5828 C 549.322 1.93754 1.25411 0
M  V30 5829 C 550.292 0.796826 1.45739 0
M  V30 5830 O 551.477 1.05414 1.59036 0
M  V30 5831 C 548.617 2.27383 2.59598 0
M  V30 5832 C 547.73 3.5447 2.46931 0
M  V30 5833 C 546.865 3.77468 3.73753 0
M  V30 5834 C 545.904 4.98014 3.55877 0
M  V30 5835 N 545.041 5.17316 4.74688 0
M  V30 5836 H 549.881 2.83203 0.92737 0
M  V30 5837 H 547.418 1.40158 0.446574 0
M  V30 5838 H 549.376 2.44895 3.37761 0
M  V30 5839 H 548.006 1.41088 2.90335 0
M  V30 5840 H 547.058 3.45061 1.60116 0
M  V30 5841 H 548.37 4.42789 2.29651 0
M  V30 5842 H 547.524 3.95165 4.60358 0
M  V30 5843 H 546.263 2.87461 3.93976 0
M  V30 5844 H 545.268 4.80249 2.67657 0
M  V30 5845 H 546.493 5.8952 3.37109 0
M  V30 5846 H 544.439 4.30255 4.95194 0
M  V30 5847 H 544.356 5.99796 4.60197 0
M  V30 5848 H 545.624 5.39463 5.62672 0
M  V30 5849 N 549.853 -0.472356 1.50355 0
M  V30 5850 C 550.801 -1.59126 1.69651 0
M  V30 5851 C 551.795 -1.59793 0.56237 0
M  V30 5852 O 553.001 -1.63957 0.742832 0
M  V30 5853 H 549.376 -0.528008 0.535454 0
M  V30 5854 H 551.347 -1.40013 2.63513 0
M  V30 5855 C 550.096 -2.97075 1.8067 0
M  V30 5856 H 549.419 -2.9728 2.67329 0
M  V30 5857 H 550.859 -3.74825 1.98197 0
M  V30 5858 C 549.318 -3.32247 0.558016 0
M  V30 5859 O 549.848 -4.00553 -0.303399 0
M  V30 5860 N 548.054 -2.87659 0.412415 0
M  V30 5861 H 547.601 -2.32246 1.11443 0
M  V30 5862 H 547.559 -3.11556 -0.421908 0
M  V30 5863 N 551.331 -1.39911 -0.725443 0
M  V30 5864 C 552.278 -1.39393 -1.83952 0
M  V30 5865 C 553.248 -0.252249 -1.64173 0
M  V30 5866 O 554.433 -0.44882 -1.85446 0
M  V30 5867 C 551.573 -1.25262 -3.21564 0
M  V30 5868 C 550.686 -2.49054 -3.52982 0
M  V30 5869 C 549.821 -2.27439 -4.80047 0
M  V30 5870 C 548.86 -3.46857 -5.04338 0
M  V30 5871 N 547.997 -3.24499 -6.22611 0
M  V30 5872 H 552.837 -2.34622 -1.83729 0
M  V30 5873 H 550.374 -1.16537 -0.897636 0
M  V30 5874 H 552.332 -1.15077 -4.01015 0
M  V30 5875 H 550.962 -0.33657 -3.21041 0
M  V30 5876 H 550.014 -2.69805 -2.6816 0
M  V30 5877 H 551.326 -3.37973 -3.66846 0
M  V30 5878 H 550.48 -2.14551 -5.67497 0
M  V30 5879 H 549.219 -1.35929 -4.68374 0
M  V30 5880 H 548.224 -3.60232 -4.15346 0
M  V30 5881 H 549.449 -4.3928 -5.17889 0
M  V30 5882 H 547.395 -2.35663 -6.12208 0
M  V30 5883 H 547.312 -4.06978 -6.37106 0
M  V30 5884 H 548.58 -3.15325 -7.12875 0
M  V30 5885 N 552.809 0.956637 -1.25245 0
M  V30 5886 C 554.057 1.69764 -1.09657 0
M  V30 5887 C 554.378 1.91583 0.363464 0
M  V30 5888 O 553.648 1.50149 1.25825 0
M  V30 5889 H 552.228 0.629097 -0.402798 0
M  V30 5890 H 554.89 1.15026 -1.57337 0
M  V30 5891 H 553.986 2.67769 -1.60331 0
M  V30 5892 N 554.287 1.06798 1.15896 0
M  V30 5893 C 555.217 0.704677 2.22613 0
M  V30 5894 C 556.198 -0.305252 1.67339 0
M  V30 5895 O 557.383 -0.179247 1.93371 0
M  V30 5896 C 554.513 0.0957325 3.47168 0
M  V30 5897 C 553.467 1.0322 4.15367 0
M  V30 5898 C 552.793 0.286293 5.33933 0
M  V30 5899 C 554.093 2.36341 4.65768 0
M  V30 5900 H 555.787 1.59688 2.53259 0
M  V30 5901 H 553.333 0.769257 1.21731 0
M  V30 5902 H 555.286 -0.170333 4.21056 0
M  V30 5903 H 554.01 -0.831516 3.15838 0
M  V30 5904 H 552.669 1.28309 3.43413 0
M  V30 5905 H 552.317 -0.644237 4.98857 0
M  V30 5906 H 552.017 0.910436 5.80504 0
M  V30 5907 H 553.541 0.0278938 6.10594 0
M  V30 5908 H 554.955 2.1561 5.31211 0
M  V30 5909 H 553.352 2.94299 5.2298 0
M  V30 5910 H 554.422 2.99047 3.81705 0
M  V30 5911 N 555.766 -1.3263 0.851289 0
M  V30 5912 C 557.012 -1.9766 0.453694 0
M  V30 5913 C 557.345 -1.67225 -0.987396 0
M  V30 5914 O 556.62 -0.958693 -1.69232 0
M  V30 5915 C 556.903 -3.5344 0.68936 0
M  V30 5916 C 556.756 -3.93517 2.17862 0
M  V30 5917 C 558.075 -4.39866 0.143555 0
M  V30 5918 H 555.194 -0.717989 0.166314 0
M  V30 5919 H 557.836 -1.57068 1.06909 0
M  V30 5920 H 555.986 -3.88147 0.165546 0
M  V30 5921 H 557.658 -3.69006 2.76826 0
M  V30 5922 H 555.901 -3.42798 2.65841 0
M  V30 5923 H 556.572 -5.02065 2.29422 0
M  V30 5924 H 559.048 -4.11875 0.591451 0
M  V30 5925 H 557.924 -5.47858 0.338043 0
M  V30 5926 H 558.185 -4.31696 -0.953466 0
M  V30 5927 N 557.244 -0.608902 -1.45362 0
M  V30 5928 C 558.207 0.0992563 -2.28985 0
M  V30 5929 C 559.207 0.793841 -1.39838 0
M  V30 5930 O 560.397 0.641804 -1.61946 0
M  V30 5931 C 557.529 1.15073 -3.20891 0
M  V30 5932 H 558.722 -0.635964 -2.93079 0
M  V30 5933 H 556.275 -0.368007 -1.51906 0
M  V30 5934 H 557.01 1.91667 -2.616 0
M  V30 5935 H 556.795 0.656867 -3.86559 0
M  V30 5936 H 558.285 1.64665 -3.83765 0
M  V30 5937 N 558.722 1.53707 -0.348139 0
M  V30 5938 C 559.971 2.0017 0.247992 0
M  V30 5939 C 560.284 1.23983 1.51286 0
M  V30 5940 O 561.49 1.60946 2.18652 0
M  V30 5941 C 559.946 3.56515 0.492459 0
M  V30 5942 C 559.554 4.41562 -0.756777 0
M  V30 5943 C 561.298 4.11381 1.0472 0
M  V30 5944 C 559.205 5.89426 -0.482856 0
M  V30 5945 H 558.135 0.747806 0.0964452 0
M  V30 5946 H 560.786 1.77532 -0.464179 0
M  V30 5947 H 559.168 3.75236 1.26545 0
M  V30 5948 H 560.342 4.34615 -1.53122 0
M  V30 5949 H 558.657 3.97711 -1.23348 0
M  V30 5950 H 561.254 5.19468 1.26717 0
M  V30 5951 H 561.597 3.64885 2.00411 0
M  V30 5952 H 562.13 3.96389 0.334801 0
M  V30 5953 H 558.869 6.40164 -1.40962 0
M  V30 5954 H 558.389 5.99264 0.253416 0
M  V30 5955 H 560.068 6.4692 -0.101816 0
M  V30 5956 N 560.2 0.0768682 1.57412 0
M  V30 5957 C 561.611 -0.455037 1.8107 0
M  V30 5958 C 561.962 -1.69323 0.991162 0
M  V30 5959 O 561.087 -2.15328 0.215156 0
M  V30 5960 C 561.682 -0.832316 3.28417 0
M  V30 5961 C 560.241 -1.30906 3.52903 0
M  V30 5962 C 559.388 -0.296714 2.75708 0
M  V30 5963 H 562.339 0.302514 1.5579 0
M  V30 5964 H 562.36 -1.69333 3.40744 0
M  V30 5965 H 561.872 0.0690532 3.88039 0
M  V30 5966 H 559.973 -2.22875 2.98592 0
M  V30 5967 H 560.086 -1.28348 4.61588 0
M  V30 5968 H 558.45 -0.775059 2.42621 0
M  V30 5969 H 559.233 0.597015 3.38069 0
M  V30 5970 N 561.678 -1.56367 -0.196722 0
M  V30 5971 C 562.924 -1.80796 -0.918725 0
M  V30 5972 C 563.257 -0.650645 -1.82976 0
M  V30 5973 O 562.532 0.348889 -1.91345 0
M  V30 5974 C 562.815 -3.15472 -1.73636 0
M  V30 5975 C 562.668 -4.41693 -0.85015 0
M  V30 5976 C 563.987 -3.46824 -2.70927 0
M  V30 5977 H 561.106 -0.657702 -0.332561 0
M  V30 5978 H 563.748 -1.89086 -0.186186 0
M  V30 5979 H 561.898 -3.08536 -2.36088 0
M  V30 5980 H 563.57 -4.60673 -0.240459 0
M  V30 5981 H 561.813 -4.33517 -0.156785 0
M  V30 5982 H 562.484 -5.32419 -1.45719 0
M  V30 5983 H 564.96 -3.54049 -2.18607 0
M  V30 5984 H 563.836 -4.4218 -3.25219 0
M  V30 5985 H 564.097 -2.70236 -3.49893 0
M  V30 5986 N 563.156 0.464375 -1.50603 0
M  V30 5987 C 564.381 1.24372 -1.65971 0
M  V30 5988 C 564.806 1.84901 -0.345453 0
M  V30 5989 O 564.164 1.67596 0.691457 0
M  V30 5990 C 564.212 2.32331 -2.7578 0
M  V30 5991 O 563.316 3.37146 -2.375 0
M  V30 5992 H 562.657 0.365604 -0.554283 0
M  V30 5993 H 565.187 0.55183 -1.97018 0
M  V30 5994 H 565.197 2.77539 -2.99059 0
M  V30 5995 H 563.872 1.87648 -3.71162 0
M  V30 5996 H 562.449 2.97602 -2.24694 0
M  V30 5997 N 564.634 1.40294 0.718013 0
M  V30 5998 C 565.883 1.37746 1.4734 0
M  V30 5999 C 566.196 -0.0180754 1.95592 0
M  V30 6000 O 567.402 -0.166166 2.70991 0
M  V30 6001 C 565.858 2.4208 2.66318 0
M  V30 6002 C 565.466 3.87432 2.24945 0
M  V30 6003 C 567.21 2.48635 3.44065 0
M  V30 6004 C 565.117 4.83368 3.40748 0
M  V30 6005 H 564.047 0.512165 0.553356 0
M  V30 6006 H 566.698 1.66019 0.781661 0
M  V30 6007 H 565.08 2.06903 3.3765 0
M  V30 6008 H 566.254 4.3174 1.6105 0
M  V30 6009 H 564.569 3.8433 1.60249 0
M  V30 6010 H 567.166 3.17499 4.30231 0
M  V30 6011 H 567.509 1.51611 3.87711 0
M  V30 6012 H 568.042 2.82791 2.79775 0
M  V30 6013 H 564.781 5.81716 3.02136 0
M  V30 6014 H 564.301 4.43726 4.03568 0
M  V30 6015 H 565.98 5.03074 4.06848 0
M  V30 6016 N 566.112 -0.949982 1.2575 0
M  V30 6017 C 567.359 -1.69515 1.10774 0
M  V30 6018 C 567.687 -1.91316 -0.350479 0
M  V30 6019 O 566.942 -1.48515 -1.27443 0
M  V30 6020 C 567.241 -3.08039 1.81237 0
M  V30 6021 C 566.907 -3.06023 3.31151 0
M  V30 6022 C 565.569 -3.0518 3.72047 0
M  V30 6023 C 567.921 -2.98998 4.26907 0
M  V30 6024 C 565.249 -2.95067 5.07102 0
M  V30 6025 C 567.601 -2.90426 5.61992 0
M  V30 6026 C 566.265 -2.87922 6.0221 0
M  V30 6027 H 565.535 -0.6203 0.405351 0
M  V30 6028 H 568.182 -1.10953 1.56082 0
M  V30 6029 H 566.487 -3.70172 1.28373 0
M  V30 6030 H 568.184 -3.64526 1.67098 0
M  V30 6031 H 564.774 -3.07453 2.98614 0
M  V30 6032 H 568.958 -2.98764 3.963 0
M  V30 6033 H 564.214 -2.915 5.37436 0
M  V30 6034 H 568.388 -2.83952 6.35881 0
M  V30 6035 H 566.015 -2.79841 7.06819 0
M  V30 6036 N 567.59 -1.07411 -1.15328 0
M  V30 6037 C 568.82 -0.817595 -1.89734 0
M  V30 6038 C 569.228 0.63297 -1.78298 0
M  V30 6039 O 568.571 1.44594 -1.13306 0
M  V30 6040 C 568.633 -1.14748 -3.40695 0
M  V30 6041 C 568.297 -2.59876 -3.75917 0
M  V30 6042 C 569.294 -3.58122 -3.76888 0
M  V30 6043 C 566.979 -2.95469 -4.06206 0
M  V30 6044 C 568.973 -4.89996 -4.07655 0
M  V30 6045 C 566.66 -4.2754 -4.36638 0
M  V30 6046 C 567.658 -5.24614 -4.37344 0
M  V30 6047 O 567.346 -6.54312 -4.67045 0
M  V30 6048 H 567.078 -0.295175 -0.608151 0
M  V30 6049 H 569.632 -1.43409 -1.47048 0
M  V30 6050 H 567.862 -0.47395 -3.83785 0
M  V30 6051 H 569.551 -0.873397 -3.96392 0
M  V30 6052 H 570.317 -3.31966 -3.53587 0
M  V30 6053 H 566.196 -2.20558 -4.04815 0
M  V30 6054 H 569.74 -5.65759 -4.08121 0
M  V30 6055 H 565.637 -4.53449 -4.59407 0
M  V30 6056 H 566.405 -6.59473 -4.84807 0
M  V30 6057 N 569.068 1.32177 -0.85831 0
M  V30 6058 C 570.293 2.01847 -0.476718 0
M  V30 6059 C 570.718 1.64065 0.920021 0
M  V30 6060 O 570.076 0.843189 1.60499 0
M  V30 6061 C 570.124 3.55097 -0.627578 0
M  V30 6062 O 569.228 4.11012 0.338086 0
M  V30 6063 H 568.569 0.635907 -0.191099 0
M  V30 6064 H 571.099 1.68641 -1.15851 0
M  V30 6065 H 571.109 4.04718 -0.516476 0
M  V30 6066 H 569.784 3.81938 -1.64609 0
M  V30 6067 H 568.361 3.72451 0.182917 0
M  V30 6068 N 570.547 0.616602 1.45037 0
M  V30 6069 C 571.793 0.115501 2.02471 0
M  V30 6070 C 572.126 -1.25406 1.4828 0
M  V30 6071 O 571.401 -1.82922 0.661051 0
M  V30 6072 C 571.684 0.0863588 3.59996 0
M  V30 6073 C 571.537 1.48723 4.24501 0
M  V30 6074 C 572.856 -0.596762 4.36035 0
M  V30 6075 H 569.975 0.0434461 0.735718 0
M  V30 6076 H 572.617 0.7903 1.72784 0
M  V30 6077 H 570.767 -0.488277 3.85419 0
M  V30 6078 H 572.439 2.10964 4.10234 0
M  V30 6079 H 570.682 2.04534 3.82555 0
M  V30 6080 H 571.353 1.419 5.3345 0
M  V30 6081 H 573.829 -0.10824 4.15959 0
M  V30 6082 H 572.705 -0.586289 5.4576 0
M  V30 6083 H 572.966 -1.66451 4.09569 0
M  V30 6084 N 572.025 -1.5352 0.356285 0
M  V30 6085 C 573.436 -1.86282 -0.12492 0
M  V30 6086 C 573.787 -1.27717 -1.48939 0
M  V30 6087 O 572.912 -0.595614 -2.08042 0
M  V30 6088 C 573.507 -3.37995 -0.23345 0
M  V30 6089 C 572.066 -3.70588 -0.658899 0
M  V30 6090 C 571.213 -2.76581 0.199596 0
M  V30 6091 H 574.164 -1.47901 0.575423 0
M  V30 6092 H 574.185 -3.65475 -1.0587 0
M  V30 6093 H 573.697 -3.8059 0.759776 0
M  V30 6094 H 571.798 -3.33544 -1.66069 0
M  V30 6095 H 571.911 -4.77076 -0.439957 0
M  V30 6096 H 570.275 -2.52552 -0.330076 0
M  V30 6097 H 571.058 -3.22008 1.19019 0
M  V30 6098 N 573.503 -0.0852151 -1.57369 0
M  V30 6099 C 574.453 0.88767 -2.10011 0
M  V30 6100 C 575.437 1.25021 -1.01285 0
M  V30 6101 O 576.629 1.22694 -1.27574 0
M  V30 6102 C 573.758 2.15037 -2.67608 0
M  V30 6103 C 572.844 1.81371 -3.83361 0
M  V30 6104 N 573.235 1.18216 -4.91791 0
M  V30 6105 C 571.533 2.11041 -3.92909 0
M  V30 6106 C 572.234 1.02941 -5.72519 0
M  V30 6107 N 571.21 1.54351 -5.21226 0
M  V30 6108 H 575.012 0.395279 -2.9123 0
M  V30 6109 H 572.526 0.11829 -1.61969 0
M  V30 6110 H 574.523 2.85667 -3.03644 0
M  V30 6111 H 573.183 2.64851 -1.8784 0
M  V30 6112 H 574.194 0.850168 -5.10874 0
M  V30 6113 H 570.871 2.63138 -3.24136 0
M  V30 6114 H 572.261 0.536298 -6.69756 0
M  V30 6115 N 574.981 1.5647 0.188427 0
M  V30 6116 C 575.913 1.91611 1.25769 0
M  V30 6117 C 576.926 0.807436 1.41366 0
M  V30 6118 O 578.115 1.08586 1.41673 0
M  V30 6119 C 575.215 2.13874 2.6289 0
M  V30 6120 C 574.388 3.45047 2.68815 0
M  V30 6121 C 573.447 3.56342 3.87178 0
M  V30 6122 O 572.473 4.29109 3.73971 0
M  V30 6123 N 573.675 2.89924 5.02916 0
M  V30 6124 H 576.44 2.8393 0.959373 0
M  V30 6125 H 574.001 1.57418 0.378306 0
M  V30 6126 H 575.993 2.18713 3.4051 0
M  V30 6127 H 574.563 1.28022 2.85183 0
M  V30 6128 H 573.783 3.52017 1.77419 0
M  V30 6129 H 575.071 4.31395 2.6977 0
M  V30 6130 H 574.469 2.30644 5.16546 0
M  V30 6131 H 573.026 3.0038 5.78459 0
M  V30 6132 N 576.459 -0.456382 1.50847 0
M  V30 6133 C 577.406 -1.55249 1.70782 0
M  V30 6134 C 578.376 -1.56757 0.549231 0
M  V30 6135 O 579.561 -1.74061 0.7815 0
M  V30 6136 C 576.701 -2.93118 1.82143 0
M  V30 6137 C 575.814 -3.01285 3.09598 0
M  V30 6138 C 574.949 -4.30159 3.11667 0
M  V30 6139 C 573.988 -4.32124 4.33515 0
M  V30 6140 N 573.125 -5.52492 4.3324 0
M  V30 6141 H 577.965 -1.37555 2.64353 0
M  V30 6142 H 575.502 -0.668543 1.3103 0
M  V30 6143 H 577.46 -3.73088 1.86711 0
M  V30 6144 H 576.09 -3.09413 0.919978 0
M  V30 6145 H 575.142 -2.14096 3.14431 0
M  V30 6146 H 576.454 -2.98597 3.99551 0
M  V30 6147 H 575.608 -5.18489 3.15046 0
M  V30 6148 H 574.347 -4.35477 2.1957 0
M  V30 6149 H 573.352 -3.42189 4.30333 0
M  V30 6150 H 574.577 -4.28485 5.26856 0
M  V30 6151 H 572.523 -5.58567 3.44004 0
M  V30 6152 H 572.44 -5.51605 5.16979 0
M  V30 6153 H 573.708 -6.42906 4.40786 0
M  V30 6154 N 577.937 -1.40673 -0.710563 0
M  V30 6155 C 578.887 -1.37812 -1.81636 0
M  V30 6156 C 579.871 -0.254853 -1.58869 0
M  V30 6157 O 581.063 -0.494356 -1.69956 0
M  V30 6158 C 578.192 -1.24802 -3.19811 0
M  V30 6159 C 577.278 -2.41931 -3.48325 0
M  V30 6160 N 577.669 -3.67411 -3.47625 0
M  V30 6161 C 575.967 -2.35419 -3.78806 0
M  V30 6162 C 576.668 -4.45008 -3.74623 0
M  V30 6163 N 575.644 -3.74916 -3.93623 0
M  V30 6164 H 579.446 -2.32766 -1.79436 0
M  V30 6165 H 576.96 -1.34516 -0.909909 0
M  V30 6166 H 578.957 -1.20835 -3.99004 0
M  V30 6167 H 577.617 -0.308202 -3.23234 0
M  V30 6168 H 578.628 -4.00503 -3.28356 0
M  V30 6169 H 575.305 -1.4983 -3.89689 0
M  V30 6170 H 576.695 -5.53884 -3.80344 0
M  V30 6171 N 579.415 0.9433 -1.26252 0
M  V30 6172 C 580.662 1.68925 -1.11672 0
M  V30 6173 C 580.99 1.91499 0.340329 0
M  V30 6174 O 580.245 1.49189 1.26653 0
M  V30 6175 C 580.544 3.07073 -1.82868 0
M  V30 6176 C 580.21 3.04262 -3.32769 0
M  V30 6177 C 578.872 3.03203 -3.7366 0
M  V30 6178 C 581.224 2.96729 -4.28487 0
M  V30 6179 C 578.552 2.92373 -5.0866 0
M  V30 6180 C 580.904 2.87442 -5.63525 0
M  V30 6181 C 579.568 2.84724 -6.03729 0
M  V30 6182 H 578.838 0.618141 -0.408635 0
M  V30 6183 H 581.485 1.10124 -1.56668 0
M  V30 6184 H 579.79 3.69486 -1.30335 0
M  V30 6185 H 581.487 3.63635 -1.69029 0
M  V30 6186 H 578.077 3.05865 -3.00241 0
M  V30 6187 H 582.261 2.96658 -3.97879 0
M  V30 6188 H 577.517 2.88645 -5.38975 0
M  V30 6189 H 581.691 2.80576 -6.37377 0
M  V30 6190 H 579.318 2.76089 -7.08293 0
M  V30 6191 N 580.893 1.08022 1.14757 0
M  V30 6192 C 582.17 0.720386 1.81851 0
M  V30 6193 C 582.55 -0.796375 1.95502 0
M  V30 6194 O 581.898 -1.71339 1.51179 0
M  V30 6195 C 582.108 1.44273 3.17783 0
M  V30 6196 C 583.456 1.59925 3.93331 0
M  V30 6197 O 584.48 1.40407 3.2736 0
M  V30 6198 O 583.339 1.92096 5.11626 0
M  V30 6199 H 580.433 0.257142 0.786007 0
M  V30 6200 H 582.979 1.18155 1.21809 0
M  V30 6201 H 581.751 2.47618 3.02987 0
M  V30 6202 H 581.374 0.97279 3.85516 0
M  V30 6203 N 582.371 -1.3172 0.865308 0
M  V30 6204 C 583.321 -2.26157 0.289305 0
M  V30 6205 C 584.305 -1.50428 -0.570977 0
M  V30 6206 O 585.497 -1.71978 -0.418617 0
M  V30 6207 C 582.626 -3.39457 -0.512237 0
M  V30 6208 C 581.712 -4.22561 0.361028 0
M  V30 6209 N 582.103 -4.84501 1.45231 0
M  V30 6210 C 580.401 -4.45739 0.152641 0
M  V30 6211 C 581.102 -5.46586 1.99043 0
M  V30 6212 N 580.078 -5.28119 1.28809 0
M  V30 6213 H 583.88 -2.71581 1.12344 0
M  V30 6214 H 581.394 -1.45932 0.712565 0
M  V30 6215 H 583.391 -4.06133 -0.941379 0
M  V30 6216 H 582.051 -2.95577 -1.34404 0
M  V30 6217 H 583.062 -4.84293 1.83524 0
M  V30 6218 H 579.739 -4.1251 -0.643583 0
M  V30 6219 H 581.129 -6.05817 2.90577 0
M  V30 6220 N 583.85 -0.624285 -1.44708 0
M  V30 6221 C 585.08 -0.132726 -2.06173 0
M  V30 6222 C 585.488 1.19513 -1.46674 0
M  V30 6223 O 584.831 1.74254 -0.581491 0
M  V30 6224 C 584.893 0.0636732 -3.59444 0
M  V30 6225 C 584.557 -1.18496 -4.4137 0
M  V30 6226 C 585.553 -2.10706 -4.75288 0
M  V30 6227 C 583.239 -1.41846 -4.81856 0
M  V30 6228 C 585.233 -3.24582 -5.48567 0
M  V30 6229 C 582.92 -2.5602 -5.54885 0
M  V30 6230 C 583.918 -3.47215 -5.88159 0
M  V30 6231 O 583.606 -4.59399 -6.59703 0
M  V30 6232 H 583.338 -0.0737313 -0.671967 0
M  V30 6233 H 585.892 -0.856789 -1.86677 0
M  V30 6234 H 584.122 0.842809 -3.77404 0
M  V30 6235 H 585.811 0.508924 -4.02697 0
M  V30 6236 H 586.577 -1.93898 -4.44554 0
M  V30 6237 H 582.456 -0.717556 -4.55381 0
M  V30 6238 H 586 -3.95785 -5.74456 0
M  V30 6239 H 581.897 -2.72774 -5.85034 0
M  V30 6240 H 582.665 -4.58293 -6.78166 0
M  V30 6241 N 585.328 1.53329 -0.364422 0
M  V30 6242 C 586.577 2.00421 0.226747 0
M  V30 6243 C 586.89 1.25581 1.49963 0
M  V30 6244 O 588.096 1.63256 2.16933 0
M  V30 6245 C 586.552 3.57017 0.454618 0
M  V30 6246 C 586.16 4.40734 -0.803568 0
M  V30 6247 C 587.904 4.12468 1.00351 0
M  V30 6248 C 585.811 5.8888 -0.545345 0
M  V30 6249 H 584.741 0.748787 0.0885082 0
M  V30 6250 H 587.392 1.7703 -0.482983 0
M  V30 6251 H 585.774 3.76558 1.22558 0
M  V30 6252 H 586.948 4.32967 -1.57723 0
M  V30 6253 H 585.263 3.96381 -1.27559 0
M  V30 6254 H 587.86 5.20783 1.212 0
M  V30 6255 H 588.203 3.6699 1.9653 0
M  V30 6256 H 588.736 3.96721 0.29274 0
M  V30 6257 H 585.475 6.38633 -1.47743 0
M  V30 6258 H 584.995 5.99499 0.189842 0
M  V30 6259 H 586.674 6.46776 -0.170425 0
M  V30 6260 N 586.806 0.0935595 1.57322 0
M  V30 6261 C 588.222 -0.263091 1.57417 0
M  V30 6262 C 588.422 -1.68526 1.1046 0
M  V30 6263 O 587.478 -2.40139 0.780357 0
M  V30 6264 C 588.791 -0.0529201 3.00653 0
M  V30 6265 C 590.339 -0.120788 3.12767 0
M  V30 6266 C 590.814 0.0613707 4.57959 0
M  V30 6267 N 592.305 0.00648534 4.632 0
M  V30 6268 C 593.04 0.122699 5.73269 0
M  V30 6269 N 592.536 0.29366 6.92177 0
M  V30 6270 N 594.329 0.0640787 5.62063 0
M  V30 6271 H 586.48 1.02277 1.86154 0
M  V30 6272 H 588.743 0.4007 0.859153 0
M  V30 6273 H 588.449 0.929279 3.39201 0
M  V30 6274 H 588.323 -0.795899 3.68708 0
M  V30 6275 H 590.71 -1.09349 2.74093 0
M  V30 6276 H 590.791 0.653656 2.47307 0
M  V30 6277 H 590.435 1.03093 4.97327 0
M  V30 6278 H 590.365 -0.732748 5.21477 0
M  V30 6279 H 592.856 -0.123173 3.77699 0
M  V30 6280 H 593.169 0.37389 7.71895 0
M  V30 6281 H 591.514 0.329307 6.94219 0
M  V30 6282 H 594.705 -0.0683396 4.6805 0
M  V30 6283 H 594.878 0.158097 6.47807 0
M  V30 6284 N 588.284 -1.56567 -0.180126 0
M  V30 6285 C 589.531 -1.81492 -0.898167 0
M  V30 6286 C 589.859 -0.669225 -1.82624 0
M  V30 6287 O 589.114 0.344096 -1.92651 0
M  V30 6288 C 589.413 -3.1252 -1.73395 0
M  V30 6289 C 589.079 -4.40658 -0.955567 0
M  V30 6290 C 587.741 -4.75465 -0.740707 0
M  V30 6291 C 590.093 -5.19593 -0.408948 0
M  V30 6292 C 587.421 -5.86691 0.0320128 0
M  V30 6293 C 589.773 -6.31627 0.350638 0
M  V30 6294 C 588.437 -6.65007 0.576378 0
M  V30 6295 H 587.707 -0.664125 -0.328662 0
M  V30 6296 H 590.354 -1.908 -0.163616 0
M  V30 6297 H 588.659 -2.98515 -2.53763 0
M  V30 6298 H 590.356 -3.29013 -2.29241 0
M  V30 6299 H 586.946 -4.13352 -1.13306 0
M  V30 6300 H 591.13 -4.93104 -0.562307 0
M  V30 6301 H 586.386 -6.11016 0.216735 0
M  V30 6302 H 590.56 -6.92001 0.781497 0
M  V30 6303 H 588.187 -7.51033 1.17703 0
M  V30 6304 N 589.762 0.448376 -1.51087 0
M  V30 6305 C 591.002 1.20832 -1.64861 0
M  V30 6306 C 591.366 1.88748 -0.351873 0
M  V30 6307 O 592.567 2.66307 -0.365265 0
M  V30 6308 C 590.838 2.20674 -2.81137 0
M  V30 6309 S 592.397 3.05303 -3.15176 0
M  V30 6310 H 589.215 0.40992 -0.580936 0
M  V30 6311 H 591.817 0.501624 -1.88955 0
M  V30 6312 H 590.521 1.69399 -3.73808 0
M  V30 6313 H 590.052 2.9594 -2.59198 0
M  V30 6314 H 592.067 4.22162 -2.60756 0
M  V30 6315 N 591.24 1.41047 0.703093 0
M  V30 6316 C 592.487 1.4 1.46309 0
M  V30 6317 C 592.815 0.00654574 1.94499 0
M  V30 6318 O 592.07 -0.980255 1.6938 0
M  V30 6319 C 592.369 2.34686 2.6955 0
M  V30 6320 C 592.035 3.81684 2.40058 0
M  V30 6321 C 590.697 4.21731 2.31725 0
M  V30 6322 C 593.049 4.74525 2.15581 0
M  V30 6323 C 590.377 5.52637 1.97001 0
M  V30 6324 C 592.729 6.05744 1.82366 0
M  V30 6325 C 591.393 6.44819 1.72524 0
M  V30 6326 H 590.663 0.512295 0.535382 0
M  V30 6327 H 593.31 1.73792 0.804275 0
M  V30 6328 H 591.615 1.94122 3.40329 0
M  V30 6329 H 593.312 2.31152 3.27673 0
M  V30 6330 H 589.902 3.49963 2.47435 0
M  V30 6331 H 594.086 4.44395 2.20968 0
M  V30 6332 H 589.342 5.81802 1.87928 0
M  V30 6333 H 593.516 6.77189 1.62444 0
M  V30 6334 H 591.143 7.46168 1.45385 0
M  V30 6335 N 592.718 -0.936591 1.26751 0
M  V30 6336 C 593.964 -1.6858 1.12733 0
M  V30 6337 C 594.297 -1.91414 -0.327745 0
M  V30 6338 O 593.572 -1.49812 -1.24043 0
M  V30 6339 C 593.855 -3.05779 1.90187 0
M  V30 6340 C 593.708 -2.90242 3.43627 0
M  V30 6341 C 595.027 -4.0597 1.69931 0
M  V30 6342 H 592.146 -0.61182 0.410908 0
M  V30 6343 H 594.788 -1.08747 1.55801 0
M  V30 6344 H 592.938 -3.56853 1.53584 0
M  V30 6345 H 594.61 -2.46354 3.9001 0
M  V30 6346 H 592.853 -2.2577 3.70419 0
M  V30 6347 H 593.524 -3.87572 3.93055 0
M  V30 6348 H 596 -3.63874 2.0183 0
M  V30 6349 H 594.876 -4.99974 2.26534 0
M  V30 6350 H 595.137 -4.37369 0.64502 0
M  V30 6351 N 594.196 -1.08629 -1.14182 0
M  V30 6352 C 595.143 -0.718299 -2.19338 0
M  V30 6353 C 596.113 0.296587 -1.63431 0
M  V30 6354 O 597.298 0.180079 -1.89948 0
M  V30 6355 C 594.438 -0.136203 -3.44831 0
M  V30 6356 C 593.551 -1.20414 -4.14879 0
M  V30 6357 C 592.686 -0.585666 -5.27962 0
M  V30 6358 C 591.725 -1.63548 -5.89846 0
M  V30 6359 N 590.862 -1.03864 -6.94375 0
M  V30 6360 H 595.702 -1.61932 -2.50164 0
M  V30 6361 H 593.239 -0.80919 -1.22844 0
M  V30 6362 H 595.197 0.219021 -4.16625 0
M  V30 6363 H 593.827 0.728121 -3.14481 0
M  V30 6364 H 592.879 -1.67676 -3.41451 0
M  V30 6365 H 594.191 -1.99959 -4.56966 0
M  V30 6366 H 593.345 -0.178818 -6.06436 0
M  V30 6367 H 592.084 0.24142 -4.87102 0
M  V30 6368 H 591.089 -2.05197 -5.10073 0
M  V30 6369 H 592.314 -2.46509 -6.3278 0
M  V30 6370 H 590.26 -0.232687 -6.55587 0
M  V30 6371 H 590.177 -1.77116 -7.3496 0
M  V30 6372 H 591.445 -0.657724 -7.7672 0
M  V30 6373 N 595.674 1.31259 -0.872281 0
M  V30 6374 C 596.951 1.91362 -0.404943 0
M  V30 6375 C 597.331 1.79362 1.11321 0
M  V30 6376 O 596.679 1.20277 1.94283 0
M  V30 6377 C 596.889 3.3749 -0.888893 0
M  V30 6378 C 598.237 4.14593 -0.916384 0
M  V30 6379 O 599.261 3.46282 -0.834701 0
M  V30 6380 O 598.12 5.3661 -1.03498 0
M  V30 6381 H 595.214 0.818016 -0.121569 0
M  V30 6382 H 597.76 1.39912 -0.960346 0
M  V30 6383 H 596.532 3.40249 -1.93251 0
M  V30 6384 H 596.155 3.96375 -0.311932 0
M  V30 6385 N 597.152 0.631951 1.44375 0
M  V30 6386 C 598.062 -0.073674 2.34484 0
M  V30 6387 C 599.078 -0.834825 1.52665 0
M  V30 6388 O 600.254 -0.786902 1.85391 0
M  V30 6389 C 597.319 -1.04247 3.30656 0
M  V30 6390 C 596.38 -0.280602 4.28382 0
M  V30 6391 C 595.613 -1.20325 5.19959 0
M  V30 6392 O 595.836 -2.44199 5.15484 0
M  V30 6393 O 594.77 -0.687128 5.97965 0
M  V30 6394 H 598.596 0.667477 2.96274 0
M  V30 6395 H 596.181 0.392144 1.44162 0
M  V30 6396 H 598.063 -1.59981 3.89851 0
M  V30 6397 H 596.738 -1.76422 2.71398 0
M  V30 6398 H 595.645 0.319804 3.72731 0
M  V30 6399 H 596.978 0.401144 4.90563 0
M  V30 6400 N 598.631 -1.53133 0.372548 0
M  V30 6401 C 599.594 -2.24569 -0.458389 0
M  V30 6402 C 600.594 -1.25603 -1.00402 0
M  V30 6403 O 601.784 -1.49827 -0.888672 0
M  V30 6404 C 598.916 -2.98783 -1.6414 0
M  V30 6405 H 600.109 -2.99436 0.166799 0
M  V30 6406 H 597.662 -1.55805 0.124357 0
M  V30 6407 H 598.397 -2.28176 -2.30448 0
M  V30 6408 H 598.182 -3.71404 -1.25704 0
M  V30 6409 H 599.672 -3.53068 -2.23008 0
M  V30 6410 N 600.109 -0.101901 -1.5727 0
M  V30 6411 C 601.337 0.568392 -1.98939 0
M  V30 6412 C 601.752 1.61301 -0.981194 0
M  V30 6413 O 601.109 1.82478 0.0282869 0
M  V30 6414 C 601.16 1.20997 -3.40649 0
M  V30 6415 O 600.881 0.207129 -4.3761 0
M  V30 6416 C 602.382 1.96523 -3.97358 0
M  V30 6417 H 599.602 0.15186 -0.65359 0
M  V30 6418 H 602.146 -0.183198 -2.03678 0
M  V30 6419 H 600.301 1.91245 -3.36904 0
M  V30 6420 H 600.715 0.671071 -5.20189 0
M  V30 6421 H 602.189 2.36764 -4.98645 0
M  V30 6422 H 602.666 2.83376 -3.35552 0
M  V30 6423 H 603.272 1.31076 -4.04598 0
M  V30 6424 N 601.587 1.56661 0.17182 0
M  V30 6425 C 602.517 1.99401 1.21498 0
M  V30 6426 C 603.498 0.869516 1.46197 0
M  V30 6427 O 604.683 1.13556 1.57539 0
M  V30 6428 C 601.813 2.35346 2.55401 0
M  V30 6429 C 600.767 3.5075 2.45272 0
M  V30 6430 C 600.093 3.72437 3.8366 0
M  V30 6431 C 601.393 4.84216 1.95787 0
M  V30 6432 H 603.087 2.86792 0.859699 0
M  V30 6433 H 600.633 1.37977 0.412103 0
M  V30 6434 H 602.586 2.63843 3.2858 0
M  V30 6435 H 601.31 1.44864 2.92715 0
M  V30 6436 H 599.969 3.2238 1.74547 0
M  V30 6437 H 599.617 2.79246 4.18367 0
M  V30 6438 H 599.317 4.50087 3.77751 0
M  V30 6439 H 600.841 4.03334 4.58426 0
M  V30 6440 H 602.255 5.11592 2.5874 0
M  V30 6441 H 600.652 5.65498 2.00827 0
M  V30 6442 H 601.722 4.76243 0.912159 0
M  V30 6443 N 603.065 -0.440357 1.51323 0
M  V30 6444 C 603.997 -1.55254 1.68609 0
M  V30 6445 C 605.01 -1.52614 0.566812 0
M  V30 6446 O 606.199 -1.57445 0.841032 0
M  V30 6447 C 603.299 -2.94169 1.68279 0
M  V30 6448 C 602.472 -3.21346 2.96742 0
M  V30 6449 C 601.531 -4.3997 2.8864 0
M  V30 6450 O 600.557 -4.38771 3.62586 0
M  V30 6451 N 601.759 -5.43367 2.04285 0
M  V30 6452 H 604.524 -1.40831 2.6455 0
M  V30 6453 H 602.085 -0.629251 1.49171 0
M  V30 6454 H 604.077 -3.71543 1.60431 0
M  V30 6455 H 602.647 -3.02205 0.799441 0
M  V30 6456 H 601.867 -2.32299 3.18482 0
M  V30 6457 H 603.155 -3.3633 3.81785 0
M  V30 6458 H 602.553 -5.47176 1.43578 0
M  V30 6459 H 601.11 -6.19605 2.02318 0
M  V30 6460 N 604.543 -1.41418 -0.695603 0
M  V30 6461 C 605.506 -1.42988 -1.79129 0
M  V30 6462 C 606.506 -0.320514 -1.57573 0
M  V30 6463 O 607.696 -0.58039 -1.64247 0
M  V30 6464 C 604.828 -1.24122 -3.175 0
M  V30 6465 H 606.021 -2.40526 -1.7913 0
M  V30 6466 H 603.574 -1.2756 -0.903225 0
M  V30 6467 H 604.309 -0.274253 -3.23138 0
M  V30 6468 H 604.094 -2.045 -3.34547 0
M  V30 6469 H 605.584 -1.28056 -3.97481 0
M  V30 6470 N 606.021 0.929856 -1.27246 0
M  V30 6471 C 606.954 2.03069 -1.04106 0
M  V30 6472 C 607.932 1.62556 0.0378417 0
M  V30 6473 O 609.116 1.88197 -0.106869 0
M  V30 6474 C 606.243 3.33718 -0.578778 0
M  V30 6475 C 605.289 3.93209 -1.65193 0
M  V30 6476 S 606.122 4.26068 -3.24386 0
M  V30 6477 C 607.278 5.598 -2.79954 0
M  V30 6478 H 607.511 2.22386 -1.97311 0
M  V30 6479 H 605.044 1.07269 -1.11053 0
M  V30 6480 H 607.002 4.09261 -0.31874 0
M  V30 6481 H 605.663 3.12328 0.333182 0
M  V30 6482 H 604.856 4.87482 -1.27973 0
M  V30 6483 H 604.458 3.24243 -1.86393 0
M  V30 6484 H 606.75 6.39004 -2.25123 0
M  V30 6485 H 607.693 6.01917 -3.72963 0
M  V30 6486 H 608.101 5.20219 -2.19164 0
M  V30 6487 N 607.499 1.09233 1.13605 0
M  V30 6488 C 608.776 0.739633 1.81077 0
M  V30 6489 C 609.156 -0.775595 1.96336 0
M  V30 6490 O 608.504 -1.69726 1.52988 0
M  V30 6491 C 608.714 1.47636 3.16235 0
M  V30 6492 C 610.062 1.64087 3.91613 0
M  V30 6493 O 611.086 1.43871 3.25852 0
M  V30 6494 O 609.945 1.97511 5.0956 0
M  V30 6495 H 607.039 0.265464 0.783236 0
M  V30 6496 H 609.585 1.19441 1.20549 0
M  V30 6497 H 608.357 2.50818 3.00344 0
M  V30 6498 H 607.98 1.01362 3.84462 0
M  V30 6499 N 608.977 -1.30795 0.87923 0
M  V30 6500 C 609.887 -2.32041 0.345565 0
M  V30 6501 C 610.903 -1.65103 -0.549265 0
M  V30 6502 O 612.079 -1.9645 -0.443763 0
M  V30 6503 C 609.144 -3.43944 -0.436245 0
M  V30 6504 C 608.205 -4.26521 0.48765 0
M  V30 6505 C 607.438 -5.33081 -0.256943 0
M  V30 6506 O 607.661 -5.50762 -1.48381 0
M  V30 6507 O 606.595 -6.00635 0.389985 0
M  V30 6508 H 610.421 -2.79627 1.18501 0
M  V30 6509 H 608.006 -1.3486 0.642885 0
M  V30 6510 H 609.888 -4.12128 -0.879119 0
M  V30 6511 H 608.563 -2.98504 -1.25208 0
M  V30 6512 H 607.47 -3.61057 0.979216 0
M  V30 6513 H 608.803 -4.75551 1.26933 0
M  V30 6514 N 610.455 -0.639598 -1.44038 0
M  V30 6515 C 611.402 0.0602458 -2.30721 0
M  V30 6516 C 612.372 0.828352 -1.43971 0
M  V30 6517 O 613.557 0.807693 -1.72861 0
M  V30 6518 C 610.697 1.03008 -3.29368 0
M  V30 6519 C 609.81 0.259502 -4.3122 0
M  V30 6520 C 608.945 1.22191 -5.16955 0
M  V30 6521 C 607.984 0.440978 -6.10509 0
M  V30 6522 N 607.121 1.35428 -6.88915 0
M  V30 6523 H 611.961 -0.684867 -2.90023 0
M  V30 6524 H 609.498 -0.349509 -1.42888 0
M  V30 6525 H 611.456 1.60583 -3.85057 0
M  V30 6526 H 610.086 1.74222 -2.71747 0
M  V30 6527 H 609.138 -0.432317 -3.77935 0
M  V30 6528 H 610.45 -0.348347 -4.97582 0
M  V30 6529 H 609.604 1.86873 -5.77203 0
M  V30 6530 H 608.343 1.86367 -4.50687 0
M  V30 6531 H 607.348 -0.219279 -5.49363 0
M  V30 6532 H 608.573 -0.196192 -6.78817 0
M  V30 6533 H 606.519 1.9831 -6.25307 0
M  V30 6534 H 606.436 0.800657 -7.51748 0
M  V30 6535 H 607.704 1.98967 -7.53679 0
M  V30 6536 N 611.933 1.52934 -0.380664 0
M  V30 6537 C 612.863 2.29118 0.450268 0
M  V30 6538 C 613.844 1.32153 1.07096 0
M  V30 6539 O 615.029 1.61038 1.08537 0
M  V30 6540 C 612.159 3.09161 1.58231 0
M  V30 6541 C 611.113 4.13938 1.0881 0
M  V30 6542 C 610.439 4.82153 2.31155 0
M  V30 6543 C 611.739 5.22048 0.162146 0
M  V30 6544 H 613.433 2.98826 -0.185361 0
M  V30 6545 H 610.979 1.43715 -0.0905886 0
M  V30 6546 H 612.932 3.61211 2.17036 0
M  V30 6547 H 611.656 2.3717 2.2454 0
M  V30 6548 H 610.315 3.62855 0.522633 0
M  V30 6549 H 609.963 4.06719 2.95953 0
M  V30 6550 H 609.663 5.52966 1.98752 0
M  V30 6551 H 611.187 5.37004 2.90618 0
M  V30 6552 H 612.601 5.6951 0.658126 0
M  V30 6553 H 610.998 6.00057 -0.0717122 0
M  V30 6554 H 612.068 4.78398 -0.791438 0
M  V30 6555 N 613.412 0.11024 1.57214 0
M  V30 6556 C 614.828 -0.24638 1.57687 0
M  V30 6557 C 615.028 -1.67344 1.12241 0
M  V30 6558 O 614.084 -2.39298 0.805783 0
M  V30 6559 C 615.397 -0.0210288 3.00693 0
M  V30 6560 C 616.945 -0.0876077 3.12877 0
M  V30 6561 C 617.42 0.10994 4.57868 0
M  V30 6562 N 618.911 0.0556135 4.63167 0
M  V30 6563 C 619.646 0.183495 5.73106 0
M  V30 6564 N 619.142 0.367058 6.91827 0
M  V30 6565 N 620.935 0.123689 5.61964 0
M  V30 6566 H 613.086 1.04246 1.85058 0
M  V30 6567 H 615.349 0.40979 0.854854 0
M  V30 6568 H 615.055 0.965203 3.38196 0
M  V30 6569 H 614.929 -0.756748 3.69531 0
M  V30 6570 H 617.316 -1.06436 2.75237 0
M  V30 6571 H 617.397 0.67985 2.466 0
M  V30 6572 H 617.041 1.08362 4.96206 0
M  V30 6573 H 616.971 -0.677397 5.22225 0
M  V30 6574 H 619.462 -0.0831062 3.77809 0
M  V30 6575 H 619.775 0.455739 7.71455 0
M  V30 6576 H 618.12 0.40292 6.93831 0
M  V30 6577 H 621.311 -0.0186928 4.68096 0
M  V30 6578 H 621.484 0.226797 6.47603 0
M  V30 6579 N 614.89 -1.56749 -0.16351 0
M  V30 6580 C 615.837 -1.97011 -1.2023 0
M  V30 6581 C 616.807 -0.835186 -1.43575 0
M  V30 6582 O 617.992 -1.09594 -1.56185 0
M  V30 6583 C 615.132 -2.34186 -2.53478 0
M  V30 6584 C 614.245 -3.60893 -2.37446 0
M  V30 6585 C 613.38 -3.87245 -3.63614 0
M  V30 6586 C 612.419 -5.07274 -3.42548 0
M  V30 6587 N 611.556 -5.29719 -4.60806 0
M  V30 6588 H 616.396 -2.85562 -0.851958 0
M  V30 6589 H 613.933 -1.41292 -0.409257 0
M  V30 6590 H 615.891 -2.53764 -3.31149 0
M  V30 6591 H 614.521 -1.48736 -2.86492 0
M  V30 6592 H 613.573 -3.49185 -1.50911 0
M  V30 6593 H 614.885 -4.48722 -2.1783 0
M  V30 6594 H 614.039 -4.07232 -4.49719 0
M  V30 6595 H 612.778 -2.97806 -3.86216 0
M  V30 6596 H 611.783 -4.87177 -2.5483 0
M  V30 6597 H 613.008 -5.98251 -3.2136 0
M  V30 6598 H 610.954 -4.43233 -4.83612 0
M  V30 6599 H 610.871 -6.11786 -4.44132 0
M  V30 6600 H 612.139 -5.54192 -5.48171 0
M  V30 6601 N 616.368 0.432326 -1.51554 0
M  V30 6602 C 617.614 1.17997 -1.65675 0
M  V30 6603 C 617.969 1.88794 -0.37076 0
M  V30 6604 O 617.262 1.80817 0.633692 0
M  V30 6605 C 617.456 2.21907 -2.80164 0
M  V30 6606 C 617.285 1.6131 -4.19773 0
M  V30 6607 C 616.055 1.39585 -4.85638 0
M  V30 6608 C 618.253 1.08659 -5.0269 0
M  V30 6609 N 616.235 0.746374 -6.09346 0
M  V30 6610 C 617.606 0.562685 -6.17441 0
M  V30 6611 C 619.661 0.978831 -4.88184 0
M  V30 6612 C 618.364 -0.0584015 -7.19276 0
M  V30 6613 C 620.39 0.371631 -5.90231 0
M  V30 6614 C 619.752 -0.141711 -7.04257 0
M  V30 6615 H 615.851 0.419277 -0.660099 0
M  V30 6616 H 618.435 0.475809 -1.88797 0
M  V30 6617 H 616.606 2.89706 -2.58698 0
M  V30 6618 H 618.338 2.88867 -2.8344 0
M  V30 6619 H 615.093 1.65897 -4.43593 0
M  V30 6620 H 615.517 0.438934 -6.75576 0
M  V30 6621 H 620.159 1.36157 -4.00276 0
M  V30 6622 H 617.877 -0.453262 -8.06828 0
M  V30 6623 H 621.463 0.290086 -5.81076 0
M  V30 6624 H 620.343 -0.60417 -7.81869 0
M  V30 6625 N 617.846 1.41785 0.688094 0
M  V30 6626 C 618.793 1.44221 1.80191 0
M  V30 6627 C 619.763 0.295688 1.63447 0
M  V30 6628 O 620.948 0.49783 1.84191 0
M  V30 6629 C 618.088 1.33743 3.1813 0
M  V30 6630 C 617.201 2.58325 3.46254 0
M  V30 6631 C 616.336 2.40086 4.73848 0
M  V30 6632 C 615.375 3.60107 4.94964 0
M  V30 6633 N 614.512 3.40892 6.13789 0
M  V30 6634 H 619.352 2.39411 1.77444 0
M  V30 6635 H 616.889 1.18876 0.866423 0
M  V30 6636 H 618.847 1.25669 3.97823 0
M  V30 6637 H 617.477 0.42157 3.20035 0
M  V30 6638 H 616.529 2.7682 2.60912 0
M  V30 6639 H 617.841 3.4758 3.57756 0
M  V30 6640 H 616.995 2.29522 5.61609 0
M  V30 6641 H 615.734 1.483 4.64606 0
M  V30 6642 H 614.739 3.71118 4.05649 0
M  V30 6643 H 615.964 4.52857 5.06061 0
M  V30 6644 H 613.91 2.51812 6.05745 0
M  V30 6645 H 613.827 4.23727 6.26092 0
M  V30 6646 H 615.095 3.34114 7.04264 0
M  V30 6647 N 619.324 -0.923095 1.27737 0
M  V30 6648 C 620.57 -1.67375 1.14514 0
M  V30 6649 C 620.903 -1.91751 -0.307424 0
M  V30 6650 O 620.178 -1.51119 -1.22447 0
M  V30 6651 C 620.461 -3.03745 1.9342 0
M  V30 6652 C 620.314 -2.86581 3.46686 0
M  V30 6653 C 621.633 -4.04144 1.74228 0
M  V30 6654 H 618.752 -0.607427 0.417374 0
M  V30 6655 H 621.394 -1.07089 1.56946 0
M  V30 6656 H 619.544 -3.55204 1.5736 0
M  V30 6657 H 621.216 -2.42203 3.92601 0
M  V30 6658 H 619.459 -2.21829 3.72793 0
M  V30 6659 H 620.13 -3.83381 3.97143 0
M  V30 6660 H 622.606 -3.61712 2.05678 0
M  V30 6661 H 621.482 -4.97543 2.31824 0
M  V30 6662 H 621.743 -4.36661 0.691373 0
M  V30 6663 N 620.802 -1.09834 -1.13024 0
M  V30 6664 C 621.712 -0.753731 -2.22162 0
M  V30 6665 C 622.728 0.246105 -1.72251 0
M  V30 6666 O 623.904 0.0864051 -2.01215 0
M  V30 6667 C 620.969 -0.183958 -3.46212 0
M  V30 6668 C 620.03 -1.24028 -4.10993 0
M  V30 6669 C 619.263 -0.697597 -5.29121 0
M  V30 6670 O 619.486 0.478092 -5.68393 0
M  V30 6671 O 618.42 -1.4546 -5.84059 0
M  V30 6672 H 622.246 -1.66456 -2.5402 0
M  V30 6673 H 619.831 -0.873026 -1.21238 0
M  V30 6674 H 621.713 0.130257 -4.21199 0
M  V30 6675 H 620.388 0.699823 -3.16045 0
M  V30 6676 H 619.295 -1.60725 -3.37814 0
M  V30 6677 H 620.628 -2.09685 -4.45301 0
M  V30 6678 N 622.28 1.30327 -0.886154 0
M  V30 6679 C 623.21 2.30549 -0.370028 0
M  V30 6680 C 624.191 1.61039 0.547751 0
M  V30 6681 O 625.376 1.8864 0.461353 0
M  V30 6682 C 622.506 3.44808 0.415275 0
M  V30 6683 C 621.46 4.26024 -0.41085 0
M  V30 6684 C 620.786 5.32347 0.501128 0
M  V30 6685 C 622.086 4.95433 -1.65359 0
M  V30 6686 H 623.78 2.73969 -1.20754 0
M  V30 6687 H 621.326 1.3171 -0.582097 0
M  V30 6688 H 623.279 4.13986 0.78699 0
M  V30 6689 H 622.003 3.00197 1.28644 0
M  V30 6690 H 620.662 3.58535 -0.764719 0
M  V30 6691 H 620.31 4.83982 1.37004 0
M  V30 6692 H 620.01 5.87581 -0.0478356 0
M  V30 6693 H 621.534 6.0438 0.869333 0
M  V30 6694 H 622.948 5.5712 -1.35239 0
M  V30 6695 H 621.345 5.60537 -2.14284 0
M  V30 6696 H 622.415 4.21493 -2.39733 0
M  V30 6697 O 623.797 0.786908 1.41032 0
M  V30 6698 H 624.488 0.356185 1.90397 0
M  V30 END ATOM
M  V30 BEGIN BOND
M  V30 END BOND
M  V30 END CTAB
M  END
$$$$
