drugbank_target|P06753 Tropomyosin alpha-3 chain (DB12695)
 OpenBabel12092121073D

  0  0  0     0  0            999 V3000
M  V30 BEGIN CTAB
M  V30 COUNTS 4618 4626 0 0 0
M  V30 BEGIN ATOM
M  V30 1 H -0.908 1.98254 -0.117106 0
M  V30 2 N 0 1.576 0 0
M  V30 3 C 0.933 2.03868 1.02534 0
M  V30 4 C 1.911 0.928543 1.3348 0
M  V30 5 O 3.095 1.19667 1.45644 0
M  V30 6 C 0.222 2.43627 2.35294 0
M  V30 7 C -0.732 3.65373 2.2001 0
M  V30 8 S 0.101 5.13292 1.52614 0
M  V30 9 C 1.257 5.56322 2.86805 0
M  V30 10 H 1.49 2.90518 0.631377 0
M  V30 11 H -0.977 1.52953 0.210867 0
M  V30 12 H 0.981 2.67203 3.11629 0
M  V30 13 H -0.358 1.57376 2.7183 0
M  V30 14 H -1.165 3.90944 3.18086 0
M  V30 15 H -1.563 3.418 1.51819 0
M  V30 16 H 0.729 5.58782 3.83104 0
M  V30 17 H 1.672 6.56266 2.65933 0
M  V30 18 H 2.08 4.83886 2.90714 0
M  V30 19 N 1.4781 -0.272755 1.55222 0
M  V30 20 C 2.4111 -1.3627 1.83046 0
M  V30 21 C 3.3891 -1.47536 0.683521 0
M  V30 22 O 4.5731 -1.64157 0.926545 0
M  V30 23 C 1.7001 -2.73908 1.99229 0
M  V30 24 C 0.7461 -2.79925 3.21783 0
M  V30 25 S 1.5791 -2.39146 4.79134 0
M  V30 26 C 2.7351 -3.78758 4.9829 0
M  V30 27 H 2.9681 -1.12464 2.75207 0
M  V30 28 H 0.5011 -0.472398 1.46996 0
M  V30 29 H 2.4591 -3.53171 2.09238 0
M  V30 30 H 1.1201 -2.94965 1.07956 0
M  V30 31 H 0.3131 -3.80946 3.29994 0
M  V30 32 H -0.0849 -2.08683 3.10367 0
M  V30 33 H 2.2071 -4.7403 4.84047 0
M  V30 34 H 3.1501 -3.75499 6.00338 0
M  V30 35 H 3.5581 -3.70072 4.26271 0
M  V30 36 N 2.9562 -1.48159 -0.537278 0
M  V30 37 C 3.8662 -1.64807 -1.6696 0
M  V30 38 C 4.8822 -0.530651 -1.65711 0
M  V30 39 O 6.0582 -0.800784 -1.84796 0
M  V30 40 C 3.1232 -1.67708 -3.03438 0
M  V30 41 C 2.1842 -2.91025 -3.156 0
M  V30 42 C 1.4172 -2.93778 -4.45567 0
M  V30 43 O 1.6402 -2.05153 -5.3223 0
M  V30 44 O 0.5742 -3.85868 -4.61941 0
M  V30 45 H 4.4002 -2.6066 -1.55853 0
M  V30 46 H 1.9852 -1.31475 -0.709549 0
M  V30 47 H 3.8672 -1.7218 -3.84619 0
M  V30 48 H 2.5422 -0.750278 -3.14885 0
M  V30 49 H 1.4492 -2.92089 -2.33741 0
M  V30 50 H 2.7822 -3.83065 -3.09066 0
M  V30 51 N 4.4343 0.785586 -1.36625 0
M  V30 52 C 5.3973 1.87999 -1.31107 0
M  V30 53 C 6.3973 1.59316 -0.217959 0
M  V30 54 O 7.5873 1.67656 -0.472977 0
M  V30 55 C 4.7193 3.24861 -1.03334 0
M  V30 56 H 5.9123 1.94307 -2.2844 0
M  V30 57 H 3.4653 0.983813 -1.21453 0
M  V30 58 H 4.2003 3.24235 -0.0647432 0
M  V30 59 H 3.9853 3.4707 -1.82441 0
M  V30 60 H 5.4753 4.04929 -1.02088 0
M  V30 61 N 5.9124 1.20967 1.01018 0
M  V30 62 C 7.1614 1.01796 1.74128 0
M  V30 63 C 7.4744 -0.449691 1.90361 0
M  V30 64 O 8.6804 -0.76068 2.60626 0
M  V30 65 C 7.1364 1.7727 3.13215 0
M  V30 66 C 6.7444 3.28171 3.04972 0
M  V30 67 C 8.4884 1.66489 3.90489 0
M  V30 68 C 6.3954 3.96156 4.39107 0
M  V30 69 H 5.3254 0.377276 0.652824 0
M  V30 70 H 7.9764 1.44651 1.12909 0
M  V30 71 H 6.3584 1.27205 3.75013 0
M  V30 72 H 7.5324 3.85499 2.52443 0
M  V30 73 H 5.8474 3.39437 2.41188 0
M  V30 74 H 8.4444 2.14617 4.89738 0
M  V30 75 H 8.7874 0.6222 4.11624 0
M  V30 76 H 9.3204 2.14003 3.35332 0
M  V30 77 H 6.0594 5.00604 4.23174 0
M  V30 78 H 5.5794 3.43617 4.91617 0
M  V30 79 H 7.2584 4.00774 5.07926 0
M  V30 80 N 7.3905 -1.2043 1.01659 0
M  V30 81 C 8.3375 -2.23215 0.586822 0
M  V30 82 C 9.3075 -1.61382 -0.393085 0
M  V30 83 O 10.4925 -1.88544 -0.292525 0
M  V30 84 C 7.6325 -3.45032 -0.0687464 0
M  V30 85 C 6.7455 -4.21296 0.955724 0
M  V30 86 C 5.8805 -5.30507 0.271208 0
M  V30 87 C 4.9195 -5.98515 1.28244 0
M  V30 88 N 4.0565 -6.99316 0.62459 0
M  V30 89 H 8.8965 -2.59336 1.46796 0
M  V30 90 H 6.4335 -1.27431 0.734836 0
M  V30 91 H 8.3915 -4.1459 -0.465965 0
M  V30 92 H 7.0215 -3.09604 -0.913529 0
M  V30 93 H 6.0735 -3.50803 1.4711 0
M  V30 94 H 7.3855 -4.6803 1.72479 0
M  V30 95 H 6.5395 -6.06428 -0.18151 0
M  V30 96 H 5.2785 -4.8481 -0.530163 0
M  V30 97 H 4.2835 -5.21355 1.74554 0
M  V30 98 H 5.5085 -6.46298 2.08509 0
M  V30 99 H 3.4545 -6.55812 -0.156914 0
M  V30 100 H 3.3715 -7.44178 1.33172 0
M  V30 101 H 4.6395 -7.79255 0.195462 0
M  V30 102 N 8.8686 -0.792821 -1.36206 0
M  V30 103 C 9.8156 -0.191653 -2.30003 0
M  V30 104 C 10.7856 0.666453 -1.52143 0
M  V30 105 O 11.9706 0.61442 -1.80636 0
M  V30 106 C 9.1106 0.664848 -3.38635 0
M  V30 107 C 8.2236 -0.212175 -4.31479 0
M  V30 108 C 7.3586 0.651022 -5.27196 0
M  V30 109 C 6.3976 -0.227247 -6.11678 0
M  V30 110 N 5.5346 0.595127 -6.99573 0
M  V30 111 H 10.3746 -0.996978 -2.80828 0
M  V30 112 H 7.9116 -0.503206 -1.38225 0
M  V30 113 H 9.8696 1.17645 -4.00269 0
M  V30 114 H 8.4996 1.43557 -2.89122 0
M  V30 115 H 7.5516 -0.841777 -3.70969 0
M  V30 116 H 8.8636 -0.888751 -4.90818 0
M  V30 117 H 8.0176 1.2283 -5.94136 0
M  V30 118 H 6.7566 1.36121 -4.68319 0
M  V30 119 H 5.7616 -0.816904 -5.43697 0
M  V30 120 H 6.9866 -0.93509 -6.72631 0
M  V30 121 H 4.9326 1.28955 -6.432 0
M  V30 122 H 4.8496 -0.0236952 -7.55996 0
M  V30 123 H 6.1176 1.15613 -7.70879 0
M  V30 124 N 10.3467 1.47872 -0.545128 0
M  V30 125 C 11.2937 2.29849 0.2093 0
M  V30 126 C 12.2637 1.38313 0.919707 0
M  V30 127 O 13.4487 1.67277 0.917772 0
M  V30 128 C 10.5887 3.22019 1.24088 0
M  V30 129 C 9.7017 4.2864 0.537778 0
M  V30 130 C 8.8367 5.07973 1.5536 0
M  V30 131 C 7.8757 6.06381 0.8348 0
M  V30 132 N 7.0127 6.78717 1.79688 0
M  V30 133 H 11.8527 2.93845 -0.49591 0
M  V30 134 H 9.3897 1.44848 -0.256389 0
M  V30 135 H 11.3477 3.73868 1.85144 0
M  V30 136 H 9.9777 2.59914 1.91428 0
M  V30 137 H 9.0297 3.7994 -0.187046 0
M  V30 138 H 10.3417 4.98793 -0.0258907 0
M  V30 139 H 9.4957 5.63912 2.23803 0
M  V30 140 H 8.2347 4.37693 2.15118 0
M  V30 141 H 7.2397 5.49631 0.136388 0
M  V30 142 H 8.4647 6.78665 0.24313 0
M  V30 143 H 6.4107 6.11177 2.38326 0
M  V30 144 H 6.3277 7.44998 1.28505 0
M  V30 145 H 7.5957 7.39237 2.47282 0
M  V30 146 N 11.8248 0.280983 1.55075 0
M  V30 147 C 12.7578 -0.645439 2.18882 0
M  V30 148 C 13.7358 -1.14786 1.15165 0
M  V30 149 O 14.9198 -1.21975 1.43716 0
M  V30 150 C 12.0468 -1.88088 2.81674 0
M  V30 151 C 11.0928 -1.51343 3.98745 0
M  V30 152 S 11.9258 -0.586548 5.32278 0
M  V30 153 C 13.0818 -1.83024 5.98543 0
M  V30 154 H 13.3148 -0.1033 2.9712 0
M  V30 155 H 10.8478 0.0652099 1.54262 0
M  V30 156 H 12.8058 -2.58997 3.18482 0
M  V30 157 H 11.4668 -2.39417 2.03318 0
M  V30 158 H 10.6598 -2.43289 4.41392 0
M  V30 159 H 10.2618 -0.884477 3.63391 0
M  V30 160 H 12.5538 -2.77342 6.18133 0
M  V30 161 H 13.4968 -1.44668 6.93164 0
M  V30 162 H 13.9048 -1.99785 5.27964 0
M  V30 163 N 13.3029 -1.57598 0.00835791 0
M  V30 164 C 14.2349 -2.05811 -1.00868 0
M  V30 165 C 15.2479 -0.977579 -1.30182 0
M  V30 166 O 16.4369 -1.25421 -1.27011 0
M  V30 167 C 13.5369 -2.45016 -2.34137 0
M  V30 168 C 12.7099 -3.75903 -2.23643 0
M  V30 169 C 11.7689 -4.01884 -3.3967 0
M  V30 170 O 10.7949 -4.72433 -3.17483 0
M  V30 171 N 11.9969 -3.50432 -4.62793 0
M  V30 172 H 14.7619 -2.93684 -0.597458 0
M  V30 173 H 12.3229 -1.60909 -0.178852 0
M  V30 174 H 14.3149 -2.59506 -3.10546 0
M  V30 175 H 12.8849 -1.62618 -2.66972 0
M  V30 176 H 12.1049 -3.7141 -1.32091 0
M  V30 177 H 13.3929 -4.61695 -2.13812 0
M  V30 178 H 12.7909 -2.93317 -4.83716 0
M  V30 179 H 11.3479 -3.70236 -5.3644 0
M  V30 180 N 14.781 0.264519 -1.55364 0
M  V30 181 C 15.714 1.35297 -1.83766 0
M  V30 182 C 16.692 1.47171 -0.691336 0
M  V30 183 O 17.876 1.63663 -0.935238 0
M  V30 184 C 15.003 2.72847 -2.00679 0
M  V30 185 C 14.049 2.78214 -3.23263 0
M  V30 186 S 14.882 2.36601 -4.80396 0
M  V30 187 C 16.038 3.7611 -5.00292 0
M  V30 188 H 16.271 1.11003 -2.758 0
M  V30 189 H 13.804 0.464596 -1.47244 0
M  V30 190 H 15.762 3.52057 -2.11108 0
M  V30 191 H 14.423 2.94388 -1.09518 0
M  V30 192 H 13.616 3.7919 -3.3201 0
M  V30 193 H 13.218 2.07034 -3.11469 0
M  V30 194 H 15.51 4.71457 -4.86554 0
M  V30 195 H 16.453 3.7231 -6.02321 0
M  V30 196 H 16.861 3.67806 -4.28228 0
M  V30 197 N 16.2591 1.48442 0.529413 0
M  V30 198 C 17.1891 1.65902 1.64313 0
M  V30 199 C 18.1701 0.507897 1.6234 0
M  V30 200 O 19.3551 0.740503 1.79528 0
M  V30 201 C 16.4851 1.69911 3.02898 0
M  V30 202 C 15.4391 2.8453 3.19729 0
M  V30 203 C 14.7651 2.73629 4.59381 0
M  V30 204 C 16.0651 4.25821 3.02447 0
M  V30 205 H 17.7591 2.5914 1.49955 0
M  V30 206 H 15.3051 1.24709 0.719982 0
M  V30 207 H 17.2581 1.80715 3.80684 0
M  V30 208 H 15.9821 0.732524 3.18279 0
M  V30 209 H 14.6411 2.73283 2.44361 0
M  V30 210 H 14.2891 1.74938 4.71599 0
M  V30 211 H 13.9891 3.50541 4.71588 0
M  V30 212 H 15.5131 2.86401 5.39265 0
M  V30 213 H 16.9271 4.37898 3.70024 0
M  V30 214 H 15.3241 5.03735 3.26146 0
M  V30 215 H 16.3941 4.42244 1.98867 0
M  V30 216 N 17.7372 -0.778329 1.37039 0
M  V30 217 C 18.6842 -1.89139 1.32269 0
M  V30 218 C 19.6542 -1.65017 0.189387 0
M  V30 219 O 20.8392 -1.87024 0.377693 0
M  V30 220 C 17.9792 -3.26112 1.12894 0
M  V30 221 C 17.0922 -3.62233 2.35396 0
M  V30 222 C 16.2272 -4.8838 2.08946 0
M  V30 223 C 15.2662 -5.17212 3.2735 0
M  V30 224 N 14.4032 -6.34546 3.00492 0
M  V30 225 H 19.2432 -1.92552 2.27437 0
M  V30 226 H 16.7802 -0.941473 1.13025 0
M  V30 227 H 18.7382 -4.05116 0.996835 0
M  V30 228 H 17.3682 -3.22091 0.213758 0
M  V30 229 H 16.4202 -2.78265 2.5937 0
M  V30 230 H 17.7322 -3.79481 3.23721 0
M  V30 231 H 16.8862 -5.75274 1.92729 0
M  V30 232 H 15.6252 -4.73222 1.17949 0
M  V30 233 H 14.6302 -4.28796 3.44113 0
M  V30 234 H 15.8552 -5.34283 4.19188 0
M  V30 235 H 13.8012 -6.20759 2.12118 0
M  V30 236 H 13.7182 -6.52179 3.82358 0
M  V30 237 H 14.9862 -7.24394 2.87879 0
M  V30 238 N 19.2153 -1.21501 -1.00376 0
M  V30 239 C 20.1453 -0.999478 -2.11028 0
M  V30 240 C 21.1263 0.0759671 -1.6993 0
M  V30 241 O 22.3113 -0.0841106 -1.94018 0
M  V30 242 C 19.4413 -0.564709 -3.42678 0
M  V30 243 C 18.3953 -1.58486 -3.97576 0
M  V30 244 C 17.7213 -1.00628 -5.25146 0
M  V30 245 C 19.0213 -2.97204 -4.29496 0
M  V30 246 H 20.7153 -1.92495 -2.29317 0
M  V30 247 H 18.2613 -0.92693 -1.102 0
M  V30 248 H 20.2143 -0.401091 -4.19487 0
M  V30 249 H 18.9383 0.396411 -3.24185 0
M  V30 250 H 17.5973 -1.73606 -3.22888 0
M  V30 251 H 17.2453 -0.0368439 -5.02987 0
M  V30 252 H 16.9453 -1.68771 -5.62841 0
M  V30 253 H 18.4693 -0.854015 -6.04598 0
M  V30 254 H 19.8833 -2.8552 -4.97143 0
M  V30 255 H 18.2803 -3.62372 -4.78338 0
M  V30 256 H 19.3503 -3.47956 -3.3772 0
M  V30 257 N 20.6934 1.19889 -1.02296 0
M  V30 258 C 21.9704 1.85148 -0.630832 0
M  V30 259 C 22.3504 1.91385 0.890782 0
M  V30 260 O 21.6984 1.42642 1.78509 0
M  V30 261 C 21.9084 3.24442 -1.28602 0
M  V30 262 C 23.2564 4.00663 -1.4055 0
M  V30 263 O 24.2804 3.33818 -1.24273 0
M  V30 264 O 23.1394 5.20387 -1.66913 0
M  V30 265 H 20.2334 0.797613 -0.218499 0
M  V30 266 H 22.7794 1.27427 -1.12074 0
M  V30 267 H 21.5514 3.14704 -2.32545 0
M  V30 268 H 21.1744 3.89802 -0.7836 0
M  V30 269 N 22.1715 0.800033 1.35784 0
M  V30 270 C 23.1185 0.203848 2.29898 0
M  V30 271 C 24.0885 -0.658375 1.52495 0
M  V30 272 O 25.2735 -0.604832 1.8096 0
M  V30 273 C 22.4135 -0.64688 3.38983 0
M  V30 274 C 21.5265 0.235054 4.3136 0
M  V30 275 C 20.6615 -0.623054 5.27533 0
M  V30 276 C 19.7005 0.259682 6.11549 0
M  V30 277 N 18.8375 -0.558019 6.99879 0
M  V30 278 H 23.6775 1.01186 2.80295 0
M  V30 279 H 21.2145 0.51053 1.37957 0
M  V30 280 H 23.1725 -1.15521 4.00887 0
M  V30 281 H 21.8025 -1.42021 2.89879 0
M  V30 282 H 20.8545 0.861438 3.70518 0
M  V30 283 H 22.1665 0.914768 4.9034 0
M  V30 284 H 21.3205 -1.19678 5.94779 0
M  V30 285 H 20.0595 -1.33636 4.69034 0
M  V30 286 H 19.0645 0.845726 5.43256 0
M  V30 287 H 20.2895 0.970748 6.72126 0
M  V30 288 H 18.2355 -1.25542 6.43875 0
M  V30 289 H 18.1525 0.0637872 7.55973 0
M  V30 290 H 19.4205 -1.11523 7.71481 0
M  V30 291 N 23.6496 -1.47581 0.552962 0
M  V30 292 C 24.5596 -2.33743 -0.200353 0
M  V30 293 C 25.5756 -1.47928 -0.916151 0
M  V30 294 O 26.7516 -1.80865 -0.885993 0
M  V30 295 C 23.8166 -3.24536 -1.21973 0
M  V30 296 C 22.8776 -4.26238 -0.511819 0
M  V30 297 C 22.1106 -5.12693 -1.48263 0
M  V30 298 O 22.3336 -5.01525 -2.71714 0
M  V30 299 O 21.2676 -5.93375 -1.00945 0
M  V30 300 H 25.0936 -2.9945 0.506304 0
M  V30 301 H 22.6786 -1.46071 0.313622 0
M  V30 302 H 24.5606 -3.80631 -1.80827 0
M  V30 303 H 23.2356 -2.61462 -1.90839 0
M  V30 304 H 22.1426 -3.73914 0.117799 0
M  V30 305 H 23.4756 -4.92014 0.135308 0
M  V30 306 N 25.1277 -0.289203 -1.54924 0
M  V30 307 C 26.0757 0.607966 -2.24514 0
M  V30 308 C 27.0697 1.14655 -1.24702 0
M  V30 309 O 28.2757 1.09856 -1.4259 0
M  V30 310 H 24.6507 0.21464 -0.720718 0
M  V30 311 H 26.6217 -0.00164182 -2.984 0
M  V30 312 C 25.3707 1.77406 -2.99036 0
M  V30 313 H 24.6937 1.36884 -3.75637 0
M  V30 314 H 26.1337 2.37814 -3.51028 0
M  V30 315 C 24.5927 2.67107 -2.05318 0
M  V30 316 O 25.1227 3.6787 -1.61353 0
M  V30 317 N 23.3287 2.34582 -1.71521 0
M  V30 318 H 22.8757 1.52688 -2.07471 0
M  V30 319 H 22.8337 2.94867 -1.0909 0
M  V30 320 N 26.6058 1.57591 -0.0167156 0
M  V30 321 C 27.5688 2.08393 0.954204 0
M  V30 322 C 28.5688 0.996531 1.26198 0
M  V30 323 O 29.7588 1.25858 1.20438 0
M  V30 324 C 26.8908 2.5394 2.27436 0
M  V30 325 H 28.0838 2.95455 0.514451 0
M  V30 326 H 25.6368 1.54582 0.231089 0
M  V30 327 H 26.3718 1.70171 2.76066 0
M  V30 328 H 26.1568 3.33371 2.06412 0
M  V30 329 H 27.6468 2.93512 2.97053 0
M  V30 330 N 28.0839 -0.256276 1.55502 0
M  V30 331 C 29.0139 -1.32102 1.92539 0
M  V30 332 C 29.9949 -1.50684 0.789194 0
M  V30 333 O 31.1799 -1.63449 1.04872 0
M  V30 334 C 28.3099 -2.67752 2.21192 0
M  V30 335 C 27.2639 -2.63878 3.36975 0
M  V30 336 C 26.5899 -4.03236 3.51147 0
M  V30 337 C 27.8899 -2.21682 4.72921 0
M  V30 338 H 29.5839 -1.01351 2.81724 0
M  V30 339 H 27.1299 -0.486105 1.35547 0
M  V30 340 H 29.0829 -3.42365 2.45691 0
M  V30 341 H 27.8069 -3.0012 1.28824 0
M  V30 342 H 26.4659 -1.91722 3.12471 0
M  V30 343 H 26.1139 -4.32854 2.56216 0
M  V30 344 H 25.8139 -4.01535 4.29003 0
M  V30 345 H 27.3379 -4.79563 3.77957 0
M  V30 346 H 28.7519 -2.86023 4.96854 0
M  V30 347 H 27.1489 -2.3111 5.53812 0
M  V30 348 H 28.2189 -1.16833 4.70615 0
M  V30 349 N 29.562 -1.4872 -0.521534 0
M  V30 350 C 30.839 -1.4766 -1.2828 0
M  V30 351 C 31.219 -0.19292 -2.10217 0
M  V30 352 O 30.567 0.825193 -2.13079 0
M  V30 353 C 30.777 -2.74358 -2.15705 0
M  V30 354 C 32.125 -3.23028 -2.75569 0
M  V30 355 O 33.149 -2.75333 -2.25987 0
M  V30 356 O 32.008 -4.0604 -3.65778 0
M  V30 357 H 29.102 -0.590085 -0.579421 0
M  V30 358 H 31.648 -1.60963 -0.537492 0
M  V30 359 H 30.42 -3.59292 -1.54999 0
M  V30 360 H 30.043 -2.63816 -2.97467 0
M  V30 361 N 31.0401 0.771051 -1.3745 0
M  V30 362 C 32.4561 1.07171 -1.18265 0
M  V30 363 C 32.6561 2.01491 -0.019287 0
M  V30 364 O 31.7121 2.44244 0.640408 0
M  V30 365 C 33.0251 1.66854 -2.50161 0
M  V30 366 C 34.5731 1.79109 -2.56689 0
M  V30 367 C 35.0481 2.42205 -3.88717 0
M  V30 368 N 36.5391 2.49655 -3.90162 0
M  V30 369 C 37.2741 2.9933 -4.8907 0
M  V30 370 N 36.7701 3.49172 -5.98374 0
M  V30 371 N 38.5631 2.9821 -4.76474 0
M  V30 372 H 30.7141 0.144796 -2.11906 0
M  V30 373 H 32.9771 0.126863 -0.939473 0
M  V30 374 H 32.6831 1.05017 -3.35655 0
M  V30 375 H 32.5571 2.6614 -2.673 0
M  V30 376 H 34.9441 2.40077 -1.71601 0
M  V30 377 H 35.0251 0.785757 -2.43433 0
M  V30 378 H 34.6691 1.81875 -4.74219 0
M  V30 379 H 34.5991 3.43345 -3.99276 0
M  V30 380 H 37.0901 2.14383 -3.11205 0
M  V30 381 H 37.4031 3.8548 -6.69795 0
M  V30 382 H 35.7481 3.47275 -6.02018 0
M  V30 383 H 38.9391 2.58572 -3.90203 0
M  V30 384 H 39.1121 3.36613 -5.53711 0
M  V30 385 N 32.5182 1.22032 0.997298 0
M  V30 386 C 33.4812 0.987909 2.06816 0
M  V30 387 C 34.4812 -0.0440084 1.6074 0
M  V30 388 O 35.6712 0.194053 1.73116 0
M  V30 389 C 32.8032 0.49132 3.37341 0
M  V30 390 H 33.9962 1.93803 2.28868 0
M  V30 391 H 31.5492 1.03838 1.16822 0
M  V30 392 H 32.2842 -0.463364 3.20973 0
M  V30 393 H 32.0692 1.23575 3.72118 0
M  V30 394 H 33.5592 0.348824 4.16141 0
M  V30 395 N 33.9963 -1.19345 1.0293 0
M  V30 396 C 34.9063 -2.26245 0.620515 0
M  V30 397 C 35.9223 -1.70486 -0.347928 0
M  V30 398 O 37.0983 -2.00347 -0.205704 0
M  V30 399 C 34.1633 -3.46693 -0.0218957 0
M  V30 400 C 33.2243 -4.17632 0.994102 0
M  V30 401 C 32.4573 -5.32329 0.382253 0
M  V30 402 O 32.6803 -5.64552 -0.814676 0
M  V30 403 O 31.6143 -5.91664 1.10531 0
M  V30 404 H 35.4403 -2.63453 1.51083 0
M  V30 405 H 33.0253 -1.26207 0.799513 0
M  V30 406 H 34.9073 -4.19683 -0.380072 0
M  V30 407 H 33.5823 -3.11333 -0.886209 0
M  V30 408 H 32.4893 -3.4676 1.40387 0
M  V30 409 H 33.8223 -4.56964 1.8288 0
M  V30 410 N 35.4744 -0.807222 -1.35358 0
M  V30 411 C 36.4064 -0.175717 -2.28525 0
M  V30 412 C 37.4194 0.625354 -1.5031 0
M  V30 413 O 38.6084 0.457611 -1.72535 0
M  V30 414 C 35.7084 0.773471 -3.29956 0
M  V30 415 C 34.8814 0.0186296 -4.37396 0
M  V30 416 C 33.9404 0.886395 -5.18681 0
M  V30 417 O 32.9664 0.337106 -5.68201 0
M  V30 418 N 34.1684 2.20839 -5.36852 0
M  V30 419 H 36.9334 -0.976091 -2.83359 0
M  V30 420 H 34.4944 -0.662737 -1.47714 0
M  V30 421 H 36.4864 1.35824 -3.81227 0
M  V30 422 H 35.0564 1.47465 -2.75632 0
M  V30 423 H 34.2764 -0.747349 -3.87051 0
M  V30 424 H 35.5644 -0.501577 -5.06322 0
M  V30 425 H 34.9624 2.67858 -4.98265 0
M  V30 426 H 33.5194 2.74237 -5.91301 0
M  V30 427 N 36.9525 1.47285 -0.560781 0
M  V30 428 C 37.9155 2.28535 0.174488 0
M  V30 429 C 38.9155 1.37153 0.839388 0
M  V30 430 O 40.1055 1.59748 0.694702 0
M  V30 431 C 37.2375 3.16934 1.25561 0
M  V30 432 H 38.4305 2.95012 -0.539262 0
M  V30 433 H 35.9835 1.53034 -0.317865 0
M  V30 434 H 36.7185 2.55157 2.00164 0
M  V30 435 H 36.5035 3.8419 0.783604 0
M  V30 436 H 37.9935 3.78143 1.77193 0
M  V30 437 N 38.4306 0.297415 1.54768 0
M  V30 438 C 39.3406 -0.58983 2.27064 0
M  V30 439 C 40.3566 -1.15144 1.30453 0
M  V30 440 O 41.5326 -1.17699 1.63428 0
M  V30 441 C 38.5976 -1.74714 2.9946 0
M  V30 442 C 37.6586 -1.21997 4.11601 0
M  V30 443 C 36.8916 -2.32212 4.80535 0
M  V30 444 O 37.1146 -3.52036 4.48806 0
M  V30 445 O 36.0486 -1.99106 5.68014 0
M  V30 446 H 39.8746 -0.00348199 3.037 0
M  V30 447 H 37.4596 0.0640035 1.49263 0
M  V30 448 H 39.3416 -2.42147 3.44881 0
M  V30 449 H 38.0166 -2.32016 2.25722 0
M  V30 450 H 36.9236 -0.511458 3.70587 0
M  V30 451 H 38.2566 -0.692419 4.87305 0
M  V30 452 N 39.9087 -1.5758 0.0250728 0
M  V30 453 C 40.8717 -2.08896 -0.943139 0
M  V30 454 C 41.8717 -1.00321 -1.25668 0
M  V30 455 O 43.0617 -1.26495 -1.19769 0
M  V30 456 C 40.1937 -2.55143 -2.26086 0
M  V30 457 H 41.3867 -2.95723 -0.498775 0
M  V30 458 H 38.9397 -1.54703 -0.222888 0
M  V30 459 H 39.6747 -1.71633 -2.75159 0
M  V30 460 H 39.4597 -3.34461 -2.04641 0
M  V30 461 H 40.9497 -2.95083 -2.95492 0
M  V30 462 N 41.3868 0.248026 -1.55636 0
M  V30 463 C 42.2968 1.32859 -1.93354 0
M  V30 464 C 43.3128 1.52719 -0.833838 0
M  V30 465 O 44.4888 1.66363 -1.13513 0
M  V30 466 C 41.5538 2.66337 -2.21958 0
M  V30 467 C 40.6148 2.55008 -3.45354 0
M  V30 468 C 39.8478 3.82121 -3.72584 0
M  V30 469 O 40.0708 4.83951 -3.01907 0
M  V30 470 O 39.0048 3.80822 -4.6611 0
M  V30 471 H 42.8308 1.03862 -2.85388 0
M  V30 472 H 40.4158 0.448686 -1.42503 0
M  V30 473 H 42.2978 3.45216 -2.4167 0
M  V30 474 H 40.9728 2.95068 -1.33103 0
M  V30 475 H 39.8798 1.7442 -3.30951 0
M  V30 476 H 41.2128 2.31222 -4.34508 0
M  V30 477 N 42.8649 1.48995 0.513639 0
M  V30 478 C 43.7969 1.60836 1.63293 0
M  V30 479 C 44.8099 0.491701 1.55197 0
M  V30 480 O 45.9989 0.763238 1.6136 0
M  V30 481 C 43.0989 1.53731 3.02027 0
M  V30 482 C 42.2719 2.80715 3.35437 0
M  V30 483 C 41.3309 2.66837 4.53525 0
M  V30 484 O 40.3569 3.40753 4.55934 0
M  V30 485 N 41.5589 1.77539 5.52684 0
M  V30 486 H 44.3239 2.57366 1.53566 0
M  V30 487 H 41.8849 1.45925 0.701259 0
M  V30 488 H 43.8769 1.42118 3.78926 0
M  V30 489 H 42.4469 0.651092 3.05744 0
M  V30 490 H 41.6669 3.06772 2.47557 0
M  V30 491 H 42.9549 3.64927 3.54551 0
M  V30 492 H 42.3529 1.16719 5.53528 0
M  V30 493 H 40.9099 1.71856 6.28736 0
M  V30 494 N 44.343 -0.763751 1.37857 0
M  V30 495 C 45.29 -1.87726 1.34267 0
M  V30 496 C 46.26 -1.64807 0.206879 0
M  V30 497 O 47.445 -1.86613 0.397508 0
M  V30 498 C 44.585 -3.24896 1.16346 0
M  V30 499 C 43.698 -3.59716 2.39225 0
M  V30 500 C 42.833 -4.86137 2.14114 0
M  V30 501 C 41.872 -5.13711 3.32817 0
M  V30 502 N 41.009 -6.31323 3.07206 0
M  V30 503 H 45.849 -1.90129 2.29466 0
M  V30 504 H 43.386 -0.929433 1.14017 0
M  V30 505 H 45.344 -4.04036 1.03975 0
M  V30 506 H 43.974 -3.21847 0.247909 0
M  V30 507 H 43.026 -2.75498 2.62307 0
M  V30 508 H 44.338 -3.76027 3.27728 0
M  V30 509 H 43.492 -5.73198 1.9882 0
M  V30 510 H 42.231 -4.71945 1.22961 0
M  V30 511 H 41.236 -4.25123 3.48641 0
M  V30 512 H 42.461 -5.29807 4.24832 0
M  V30 513 H 40.407 -6.18474 2.1869 0
M  V30 514 H 40.324 -6.48087 3.89254 0
M  V30 515 H 41.592 -7.213 2.95546 0
M  V30 516 N 45.8211 -1.22559 -0.990812 0
M  V30 517 C 46.7531 -0.955325 -2.08342 0
M  V30 518 C 47.7661 0.0668408 -1.62663 0
M  V30 519 O 48.9551 -0.167421 -1.77713 0
M  V30 520 C 46.0551 -0.415566 -3.36342 0
M  V30 521 C 45.2281 -1.49544 -4.11042 0
M  V30 522 C 44.2871 -0.962399 -5.17324 0
M  V30 523 O 43.3131 -1.64907 -5.44788 0
M  V30 524 N 44.5151 0.215134 -5.80101 0
M  V30 525 H 47.2801 -1.89596 -2.32106 0
M  V30 526 H 44.8411 -1.13276 -1.15673 0
M  V30 527 H 46.8331 -0.0442386 -4.04676 0
M  V30 528 H 45.4031 0.430232 -3.09625 0
M  V30 529 H 44.6231 -2.04 -3.37309 0
M  V30 530 H 45.9111 -2.22195 -4.57719 0
M  V30 531 H 45.3091 0.789779 -5.6016 0
M  V30 532 H 43.8661 0.527826 -6.49659 0
M  V30 533 N 47.2992 1.18797 -1.03562 0
M  V30 534 C 48.2622 2.20464 -0.626769 0
M  V30 535 C 49.2622 1.57721 0.313173 0
M  V30 536 O 50.4522 1.73917 0.0992615 0
M  V30 537 C 47.5842 3.40802 0.0818498 0
M  V30 538 H 48.7772 2.58149 -1.5264 0
M  V30 539 H 46.3302 1.32593 -0.827578 0
M  V30 540 H 47.0652 3.08642 0.995518 0
M  V30 541 H 46.8502 3.8758 -0.593652 0
M  V30 542 H 48.3402 4.16092 0.354584 0
M  V30 543 N 48.7773 0.814389 1.34928 0
M  V30 544 C 49.6873 0.231978 2.3345 0
M  V30 545 C 50.7033 -0.629139 1.62228 0
M  V30 546 O 51.8793 -0.539052 1.94052 0
M  V30 547 C 48.9443 -0.603482 3.41407 0
M  V30 548 C 48.0053 0.279037 4.28392 0
M  V30 549 C 47.2383 -0.516643 5.31193 0
M  V30 550 O 47.4613 -1.75068 5.4287 0
M  V30 551 O 46.3953 0.0965652 6.01823 0
M  V30 552 H 50.2213 1.04721 2.85074 0
M  V30 553 H 47.8063 0.576343 1.37836 0
M  V30 554 H 49.6883 -1.07908 4.0735 0
M  V30 555 H 48.3633 -1.39618 2.92042 0
M  V30 556 H 47.2703 0.801948 3.65403 0
M  V30 557 H 48.6033 1.03588 4.81176 0
M  V30 558 N 50.2554 -1.46986 0.568584 0
M  V30 559 C 51.1654 -2.33942 -0.17555 0
M  V30 560 C 52.1814 -1.48891 -0.90041 0
M  V30 561 O 53.3574 -1.81794 -0.86676 0
M  V30 562 C 50.4224 -3.25811 -1.18524 0
M  V30 563 C 49.4834 -4.26757 -0.466582 0
M  V30 564 C 48.7164 -5.14236 -1.42817 0
M  V30 565 O 48.9394 -5.04379 -2.66379 0
M  V30 566 O 47.8734 -5.94412 -0.946453 0
M  V30 567 H 51.6994 -2.98896 0.538036 0
M  V30 568 H 49.2844 -1.4573 0.329097 0
M  V30 569 H 51.1664 -3.82527 -1.76779 0
M  V30 570 H 49.8414 -2.63471 -1.88055 0
M  V30 571 H 48.7484 -3.73769 0.157451 0
M  V30 572 H 50.0814 -4.91843 0.187485 0
M  V30 573 N 51.7335 -0.305618 -1.54608 0
M  V30 574 C 53.1495 0.0476228 -1.59529 0
M  V30 575 C 53.3495 1.52025 -1.32252 0
M  V30 576 O 52.4055 2.27368 -1.09818 0
M  V30 577 C 53.7185 -0.354471 -2.98603 0
M  V30 578 C 55.2665 -0.303622 -3.11524 0
M  V30 579 C 55.7415 -0.680608 -4.52915 0
M  V30 580 N 57.2325 -0.63332 -4.5885 0
M  V30 581 C 57.9675 -0.897432 -5.66334 0
M  V30 582 N 57.4635 -1.22775 -6.81834 0
M  V30 583 N 59.2565 -0.824186 -5.56025 0
M  V30 584 H 51.4075 -1.2653 -1.70599 0
M  V30 585 H 53.6705 -0.513291 -0.797017 0
M  V30 586 H 53.3765 -1.3798 -3.23503 0
M  V30 587 H 53.2505 0.289568 -3.76087 0
M  V30 588 H 55.6375 0.712472 -2.8637 0
M  V30 589 H 55.7185 -0.982348 -2.36185 0
M  V30 590 H 55.3625 -1.69453 -4.78799 0
M  V30 591 H 55.2925 0.0202385 -5.26596 0
M  V30 592 H 57.7835 -0.389138 -3.75891 0
M  V30 593 H 58.0965 -1.41513 -7.59733 0
M  V30 594 H 56.4415 -1.26583 -6.83375 0
M  V30 595 H 59.6325 -0.565748 -4.64669 0
M  V30 596 H 59.8055 -1.03338 -6.39707 0
M  V30 597 N 53.2116 1.57565 -0.0334293 0
M  V30 598 C 54.4366 1.96689 0.657895 0
M  V30 599 C 54.8616 0.910057 1.64619 0
M  V30 600 O 54.2196 -0.128598 1.80843 0
M  V30 601 C 54.2676 3.34905 1.33683 0
M  V30 602 O 53.3716 3.31574 2.45219 0
M  V30 603 H 52.7126 0.641205 0.172489 0
M  V30 604 H 55.2426 2.04372 -0.0965621 0
M  V30 605 H 55.2526 3.71234 1.69262 0
M  V30 606 H 53.9276 4.11366 0.612411 0
M  V30 607 H 52.5046 3.06968 2.11719 0
M  V30 608 N 54.6897 -0.239769 1.55765 0
M  V30 609 C 55.6367 -1.29696 1.90913 0
M  V30 610 C 56.6067 -1.47478 0.764164 0
M  V30 611 O 57.7917 -1.61345 1.01845 0
M  V30 612 C 54.9317 -2.64598 2.21544 0
M  V30 613 C 54.0447 -2.54765 3.48882 0
M  V30 614 C 53.1797 -3.82069 3.69049 0
M  V30 615 C 52.2187 -3.66883 4.89963 0
M  V30 616 N 51.3557 -4.86094 5.06614 0
M  V30 617 H 56.1957 -0.990224 2.81067 0
M  V30 618 H 53.7327 -0.477684 1.39128 0
M  V30 619 H 55.6907 -3.43132 2.3731 0
M  V30 620 H 54.3207 -2.93405 1.34585 0
M  V30 621 H 53.3727 -1.67763 3.41409 0
M  V30 622 H 54.6847 -2.39457 4.37563 0
M  V30 623 H 53.8387 -4.69046 3.84812 0
M  V30 624 H 52.5777 -4.00282 2.78614 0
M  V30 625 H 51.5827 -2.78289 4.74168 0
M  V30 626 H 52.8077 -3.50157 5.81865 0
M  V30 627 H 50.7537 -5.04655 4.19117 0
M  V30 628 H 50.6707 -4.73443 5.89396 0
M  V30 629 H 51.9387 -5.74549 5.26795 0
M  V30 630 N 56.1678 -1.49265 -0.50573 0
M  V30 631 C 57.0998 -1.617 -1.62437 0
M  V30 632 C 58.1128 -0.499924 -1.54934 0
M  V30 633 O 59.3018 -0.771785 -1.60953 0
M  V30 634 C 56.4018 -1.5533 -3.01207 0
M  V30 635 C 55.5748 -2.8249 -3.33943 0
M  V30 636 C 54.6338 -2.69238 -4.52103 0
M  V30 637 O 53.6598 -3.43167 -4.5412 0
M  V30 638 N 54.8618 -1.80468 -5.51735 0
M  V30 639 H 57.6268 -2.58177 -1.52199 0
M  V30 640 H 55.1878 -1.46294 -0.693511 0
M  V30 641 H 57.1798 -1.44125 -3.78167 0
M  V30 642 H 55.7498 -0.667297 -3.05395 0
M  V30 643 H 54.9698 -3.08081 -2.45926 0
M  V30 644 H 56.2578 -3.66802 -3.5261 0
M  V30 645 H 55.6558 -1.19653 -5.52901 0
M  V30 646 H 54.2128 -1.75188 -6.27816 0
M  V30 647 N 57.6459 0.756429 -1.3826 0
M  V30 648 C 58.5759 1.88374 -1.37976 0
M  V30 649 C 59.5569 1.68311 -0.246082 0
M  V30 650 O 60.7419 1.88944 -0.44874 0
M  V30 651 C 57.8719 3.25864 -1.20125 0
M  V30 652 C 56.8259 3.60523 -2.30666 0
M  V30 653 C 56.1519 4.9672 -1.97923 0
M  V30 654 C 57.4519 3.65692 -3.72916 0
M  V30 655 H 59.1459 1.88869 -2.32312 0
M  V30 656 H 56.6919 0.907272 -1.11824 0
M  V30 657 H 58.6449 4.0438 -1.18552 0
M  V30 658 H 57.3689 3.25841 -0.222498 0
M  V30 659 H 56.0279 2.84324 -2.3142 0
M  V30 660 H 55.6759 4.93253 -0.985393 0
M  V30 661 H 55.3759 5.20878 -2.71955 0
M  V30 662 H 56.8999 5.77618 -1.97964 0
M  V30 663 H 58.3139 4.34328 -3.74208 0
M  V30 664 H 56.7109 4.01358 -4.4613 0
M  V30 665 H 57.7809 2.65987 -4.05436 0
M  V30 666 N 59.124 1.23083 0.984299 0
M  V30 667 C 60.034 1.02515 2.11016 0
M  V30 668 C 61.05 -0.0291702 1.73976 0
M  V30 669 O 62.226 0.165434 2.00719 0
M  V30 670 C 59.291 0.614673 3.41208 0
M  V30 671 C 58.352 1.74359 3.92297 0
M  V30 672 C 57.585 1.35261 5.16275 0
M  V30 673 O 57.808 0.235136 5.69915 0
M  V30 674 O 56.742 2.17227 5.61334 0
M  V30 675 H 60.568 1.96862 2.31255 0
M  V30 676 H 58.153 1.01753 1.09392 0
M  V30 677 H 60.035 0.396518 4.1953 0
M  V30 678 H 58.71 -0.299851 3.22308 0
M  V30 679 H 57.617 2.01635 3.1511 0
M  V30 680 H 58.95 2.63629 4.15645 0
M  V30 681 N 60.6021 -1.18246 1.0419 0
M  V30 682 C 61.8791 -1.84121 0.660208 0
M  V30 683 C 62.2591 -1.92778 -0.860221 0
M  V30 684 O 61.6071 -1.45464 -1.76217 0
M  V30 685 C 61.8171 -3.22355 1.33747 0
M  V30 686 C 63.1651 -3.98376 1.46906 0
M  V30 687 O 64.1891 -3.31799 1.29568 0
M  V30 688 O 63.0481 -5.17665 1.75171 0
M  V30 689 H 60.1421 -0.794036 0.231161 0
M  V30 690 H 62.6881 -1.25628 1.14087 0
M  V30 691 H 61.4601 -3.10964 2.37522 0
M  V30 692 H 61.0831 -3.88506 0.845515 0
M  V30 693 N 62.0802 -0.821533 -1.34494 0
M  V30 694 C 62.9902 -0.244355 -2.33324 0
M  V30 695 C 64.0062 0.620527 -1.62559 0
M  V30 696 O 65.1822 0.528754 -1.94335 0
M  V30 697 C 62.2472 0.585368 -3.41723 0
M  V30 698 C 61.3082 -0.301752 -4.28238 0
M  V30 699 C 60.5412 0.488466 -5.3146 0
M  V30 700 O 60.7642 1.72186 -5.4379 0
M  V30 701 O 59.6982 -0.12848 -6.01763 0
M  V30 702 H 63.5242 -1.06231 -2.84515 0
M  V30 703 H 61.1092 -0.583645 -1.37528 0
M  V30 704 H 62.9912 1.05747 -4.07916 0
M  V30 705 H 61.6662 1.38068 -2.92778 0
M  V30 706 H 60.5732 -0.821315 -3.64973 0
M  V30 707 H 61.9062 -1.06138 -4.8062 0
M  V30 708 N 63.5583 1.46682 -0.576371 0
M  V30 709 C 64.4883 2.33028 0.148397 0
M  V30 710 C 65.4693 1.44961 0.889956 0
M  V30 711 O 66.6543 1.73789 0.866662 0
M  V30 712 C 63.7843 3.27117 1.1667 0
M  V30 713 C 62.7383 4.24575 0.540386 0
M  V30 714 C 62.0643 5.08126 1.6647 0
M  V30 715 C 63.3643 5.19722 -0.518331 0
M  V30 716 H 65.0583 2.93875 -0.572509 0
M  V30 717 H 62.6043 1.41315 -0.276768 0
M  V30 718 H 64.5573 3.86374 1.68204 0
M  V30 719 H 63.2813 2.64364 1.9178 0
M  V30 720 H 61.9403 3.66571 0.0461769 0
M  V30 721 H 61.5883 4.41762 2.40531 0
M  V30 722 H 61.2883 5.74122 1.25131 0
M  V30 723 H 62.8123 5.70246 2.18293 0
M  V30 724 H 64.2263 5.73232 -0.0883058 0
M  V30 725 H 62.6233 5.94026 -0.851679 0
M  V30 726 H 63.6933 4.64037 -1.40703 0
M  V30 727 N 65.0364 0.313813 1.54444 0
M  V30 728 C 65.9994 -0.54379 2.22656 0
M  V30 729 C 66.9994 -1.05124 1.21678 0
M  V30 730 O 68.1894 -0.945225 1.46325 0
M  V30 731 C 65.3214 -1.75427 2.92298 0
M  V30 732 H 66.5144 0.0523599 2.99854 0
M  V30 733 H 64.0674 0.0647834 1.56166 0
M  V30 734 H 64.8024 -2.38991 2.19211 0
M  V30 735 H 64.5874 -1.39791 3.66334 0
M  V30 736 H 66.0774 -2.36325 3.44297 0
M  V30 737 N 66.5145 -1.57545 0.0417849 0
M  V30 738 C 67.4775 -2.09885 -0.92093 0
M  V30 739 C 68.4775 -1.01648 -1.24596 0
M  V30 740 O 69.6675 -1.27759 -1.1842 0
M  V30 741 C 66.7995 -2.57527 -2.23367 0
M  V30 742 H 67.9925 -2.96236 -0.467382 0
M  V30 743 H 65.5455 -1.5493 -0.206467 0
M  V30 744 H 66.2805 -1.74542 -2.73323 0
M  V30 745 H 66.0655 -3.36613 -2.01083 0
M  V30 746 H 67.5555 -2.98201 -2.92346 0
M  V30 747 N 67.9926 0.231505 -1.5589 0
M  V30 748 C 68.9256 1.31369 -1.86595 0
M  V30 749 C 69.9036 1.45671 -0.722397 0
M  V30 750 O 71.0876 1.61642 -0.969743 0
M  V30 751 C 68.2146 2.68529 -2.06421 0
M  V30 752 C 67.2606 2.71295 -3.29092 0
M  V30 753 S 68.0936 2.26358 -4.85306 0
M  V30 754 C 69.2496 3.65414 -5.08157 0
M  V30 755 H 69.4826 1.05128 -2.78092 0
M  V30 756 H 67.0156 0.433259 -1.48197 0
M  V30 757 H 68.9736 3.47499 -2.18528 0
M  V30 758 H 67.6346 2.91999 -1.15738 0
M  V30 759 H 66.8276 3.72063 -3.39978 0
M  V30 760 H 66.4296 2.0038 -3.15791 0
M  V30 761 H 68.7216 4.6103 -4.96445 0
M  V30 762 H 69.6646 3.5945 -6.10083 0
M  V30 763 H 70.0726 3.5864 -4.35933 0
M  V30 764 N 69.4707 1.49531 0.497807 0
M  V30 765 C 70.4027 1.62559 1.61578 0
M  V30 766 C 71.4157 0.508134 1.54667 0
M  V30 767 O 72.6047 0.780309 1.60541 0
M  V30 768 C 69.7047 1.56925 3.00379 0
M  V30 769 C 68.8777 2.84257 3.3244 0
M  V30 770 C 67.9367 2.71632 4.50669 0
M  V30 771 O 66.9627 3.4557 4.52294 0
M  V30 772 N 68.1647 1.83391 5.5077 0
M  V30 773 H 70.9297 2.58981 1.50828 0
M  V30 774 H 68.4907 1.4666 0.685743 0
M  V30 775 H 70.4827 1.46129 3.77397 0
M  V30 776 H 69.0527 0.683483 3.05037 0
M  V30 777 H 68.2727 3.09381 2.44289 0
M  V30 778 H 69.5607 3.68666 3.5066 0
M  V30 779 H 68.9587 1.22583 5.52259 0
M  V30 780 H 67.5157 1.78515 6.26878 0
M  V30 781 N 70.9488 -0.749086 1.3866 0
M  V30 782 C 71.8958 -1.86291 1.36251 0
M  V30 783 C 72.8658 -1.64578 0.224347 0
M  V30 784 O 74.0508 -1.86181 0.417279 0
M  V30 785 C 71.1908 -3.23644 1.19786 0
M  V30 786 C 70.3038 -3.57158 2.43027 0
M  V30 787 C 69.4388 -4.83838 2.19258 0
M  V30 788 C 68.4778 -5.10152 3.38247 0
M  V30 789 N 67.6148 -6.28029 3.13884 0
M  V30 790 H 72.4548 -1.87685 2.3147 0
M  V30 791 H 69.9918 -0.917287 1.14997 0
M  V30 792 H 71.9498 -4.0291 1.08254 0
M  V30 793 H 70.5798 -3.21566 0.282031 0
M  V30 794 H 69.6318 -2.72701 2.65214 0
M  V30 795 H 70.9438 -3.7253 3.31697 0
M  V30 796 H 70.0978 -5.71057 2.04888 0
M  V30 797 H 68.8368 -4.70614 1.2796 0
M  V30 798 H 67.8418 -4.21401 3.53131 0
M  V30 799 H 69.0668 -5.25271 4.30427 0
M  V30 800 H 67.0128 -6.1612 2.25238 0
M  V30 801 H 66.9298 -6.43922 3.96106 0
M  V30 802 H 68.1978 -7.18124 3.03179 0
M  V30 803 N 72.4269 -1.23603 -0.977757 0
M  V30 804 C 73.3739 -1.01954 -2.07061 0
M  V30 805 C 74.3439 0.0638697 -1.65977 0
M  V30 806 O 75.5289 -0.0887624 -1.90593 0
M  V30 807 C 72.6689 -0.619658 -3.39491 0
M  V30 808 C 71.7819 -1.77547 -3.93829 0
M  V30 809 C 70.9169 -1.32212 -5.14484 0
M  V30 810 C 69.9559 -2.44852 -5.60994 0
M  V30 811 N 69.0929 -2.00456 -6.72876 0
M  V30 812 H 73.9329 -1.95495 -2.24913 0
M  V30 813 H 71.4699 -0.973861 -1.10247 0
M  V30 814 H 73.4279 -0.368898 -4.15566 0
M  V30 815 H 72.0579 0.278752 -3.21594 0
M  V30 816 H 71.1099 -2.14016 -3.14486 0
M  V30 817 H 72.4219 -2.62219 -4.24314 0
M  V30 818 H 71.5759 -1.02965 -5.97899 0
M  V30 819 H 70.3149 -0.445808 -4.85658 0
M  V30 820 H 69.3199 -2.74871 -4.76157 0
M  V30 821 H 70.5449 -3.33024 -5.91837 0
M  V30 822 H 68.4909 -1.15208 -6.45804 0
M  V30 823 H 68.4079 -2.78687 -7.02759 0
M  V30 824 H 69.6759 -1.7432 -7.59758 0
M  V30 825 N 73.905 1.17692 -1.04816 0
M  V30 826 C 74.835 2.23777 -0.666791 0
M  V30 827 C 75.816 1.66796 0.33361 0
M  V30 828 O 77.001 1.93039 0.212042 0
M  V30 829 C 74.131 3.47281 -0.0367933 0
M  V30 830 C 73.085 4.17059 -0.961546 0
M  V30 831 C 72.411 5.34342 -0.195626 0
M  V30 832 C 73.711 4.69713 -2.28402 0
M  V30 833 H 75.405 2.55933 -1.55367 0
M  V30 834 H 72.951 1.23019 -0.748484 0
M  V30 835 H 74.904 4.20706 0.241775 0
M  V30 836 H 73.628 3.14381 0.885004 0
M  V30 837 H 72.287 3.45541 -1.22462 0
M  V30 838 H 71.935 4.97692 0.728816 0
M  V30 839 H 71.635 5.81966 -0.811775 0
M  V30 840 H 73.159 6.10553 0.0757473 0
M  V30 841 H 74.573 5.34794 -2.06563 0
M  V30 842 H 72.97 5.279 -2.8538 0
M  V30 843 H 74.04 3.86726 -2.92525 0
M  V30 844 N 75.3831 0.828654 1.34056 0
M  V30 845 C 76.3301 0.252567 2.29414 0
M  V30 846 C 77.3001 -0.62588 1.53857 0
M  V30 847 O 78.4851 -0.566312 1.82202 0
M  V30 848 C 75.6251 -0.574831 3.40279 0
M  V30 849 C 74.7381 0.326499 4.30764 0
M  V30 850 C 73.8731 -0.511016 5.28736 0
M  V30 851 C 72.9121 0.389342 6.1086 0
M  V30 852 N 72.0491 -0.409439 7.00905 0
M  V30 853 H 76.8891 1.07108 2.78086 0
M  V30 854 H 74.4261 0.539677 1.36843 0
M  V30 855 H 76.3841 -1.06992 4.03248 0
M  V30 856 H 75.0141 -1.35841 2.92826 0
M  V30 857 H 74.0661 0.939837 3.68607 0
M  V30 858 H 75.3781 1.01857 4.88289 0
M  V30 859 H 74.5321 -1.07035 5.97184 0
M  V30 860 H 73.2711 -1.23657 4.71763 0
M  V30 861 H 72.2761 0.960769 5.4134 0
M  V30 862 H 73.5011 1.1131 6.69916 0
M  V30 863 H 71.4471 -1.11856 6.46393 0
M  V30 864 H 71.3641 0.224126 7.55668 0
M  V30 865 H 72.6321 -0.951336 7.73673 0
M  V30 866 N 76.8612 -1.46375 0.584142 0
M  V30 867 C 78.1092 -2.01978 0.0701287 0
M  V30 868 C 78.4302 -1.4579 -1.295 0
M  V30 869 O 77.7002 -0.64314 -1.85042 0
M  V30 870 H 76.2802 -0.746648 0.0229345 0
M  V30 871 H 78.9422 -1.79461 0.760245 0
M  V30 872 H 78.0382 -3.121 0.0022064 0
M  V30 873 N 78.3393 -0.321999 -1.54275 0
M  V30 874 C 79.5673 0.283052 -2.04955 0
M  V30 875 C 79.9823 1.45904 -1.19823 0
M  V30 876 O 79.3393 1.81063 -0.228545 0
M  V30 877 C 79.3903 0.719028 -3.54277 0
M  V30 878 O 79.1113 -0.410175 -4.36176 0
M  V30 879 C 80.6123 1.38705 -4.21041 0
M  V30 880 H 77.8323 0.0584616 -0.668448 0
M  V30 881 H 80.3763 -0.467734 -1.99079 0
M  V30 882 H 78.5313 1.41979 -3.60445 0
M  V30 883 H 78.9453 -0.0669416 -5.24457 0
M  V30 884 H 80.4193 1.64306 -5.2698 0
M  V30 885 H 80.8963 2.33385 -3.72059 0
M  V30 886 H 81.5023 0.728906 -4.19007 0
M  V30 887 N 79.8174 1.5752 -0.0501392 0
M  V30 888 C 80.7274 2.14952 0.939827 0
M  V30 889 C 81.7434 1.10706 1.34239 0
M  V30 890 O 82.9194 1.42869 1.41952 0
M  V30 891 C 79.9844 2.68232 2.19665 0
M  V30 892 C 79.0454 3.87272 1.85253 0
M  V30 893 C 78.2784 4.38002 3.04943 0
M  V30 894 O 78.5014 3.87811 4.18281 0
M  V30 895 O 77.4354 5.29602 2.86017 0
M  V30 896 H 81.2614 2.9986 0.481392 0
M  V30 897 H 78.8464 1.4841 0.171699 0
M  V30 898 H 80.7284 3.02475 2.93406 0
M  V30 899 H 79.4034 1.86395 2.64648 0
M  V30 900 H 78.3104 3.5792 1.0883 0
M  V30 901 H 79.6434 4.70336 1.4507 0
M  V30 902 N 81.2955 -0.223234 1.56011 0
M  V30 903 C 82.5725 -0.972108 1.69733 0
M  V30 904 C 82.9525 -2.02485 0.59691 0
M  V30 905 O 82.3005 -2.25037 -0.396324 0
M  V30 906 C 82.5105 -1.58407 3.10979 0
M  V30 907 C 83.8585 -2.07696 3.70334 0
M  V30 908 O 84.8825 -1.68304 3.1393 0
M  V30 909 O 83.7415 -2.80096 4.69264 0
M  V30 910 H 80.8355 -0.453993 0.691245 0
M  V30 911 H 83.3815 -0.215149 1.68331 0
M  V30 912 H 82.1535 -0.823831 3.82529 0
M  V30 913 H 81.7765 -2.40661 3.16493 0
M  V30 914 N 82.7736 -1.49793 -0.48987 0
M  V30 915 C 83.6836 -1.70036 -1.61632 0
M  V30 916 C 84.6996 -0.583102 -1.63939 0
M  V30 917 O 85.8756 -0.859169 -1.82154 0
M  V30 918 C 82.9406 -1.77277 -2.97949 0
M  V30 919 C 82.0016 -3.00918 -3.06181 0
M  V30 920 C 81.2346 -3.07804 -4.35996 0
M  V30 921 O 81.4576 -2.21982 -5.25433 0
M  V30 922 O 80.3916 -4.00369 -4.49431 0
M  V30 923 H 84.2176 -2.65486 -1.47482 0
M  V30 924 H 81.8026 -1.33666 -0.667362 0
M  V30 925 H 83.6846 -1.84329 -3.78947 0
M  V30 926 H 82.3596 -0.850076 -3.12339 0
M  V30 927 H 81.2666 -2.99377 -2.2433 0
M  V30 928 H 82.5996 -3.92704 -2.96723 0
M  V30 929 N 84.2517 0.741722 -1.39055 0
M  V30 930 C 85.1817 1.869 -1.39966 0
M  V30 931 C 86.1627 1.6804 -0.26392 0
M  V30 932 O 87.3477 1.88458 -0.468755 0
M  V30 933 C 84.4777 3.24572 -1.23574 0
M  V30 934 C 83.4317 3.58056 -2.34477 0
M  V30 935 C 82.7577 4.94593 -2.0318 0
M  V30 936 C 84.0577 3.61716 -3.76774 0
M  V30 937 H 85.7517 1.86395 -2.34302 0
M  V30 938 H 83.2977 0.895361 -1.1278 0
M  V30 939 H 85.2507 4.031 -1.22834 0
M  V30 940 H 83.9747 3.25587 -0.257045 0
M  V30 941 H 82.6337 2.81854 -2.34423 0
M  V30 942 H 82.2817 4.92181 -1.03765 0
M  V30 943 H 81.9817 5.17964 -2.77465 0
M  V30 944 H 83.5057 5.75486 -2.04079 0
M  V30 945 H 84.9197 4.30335 -3.78794 0
M  V30 946 H 83.3167 3.96603 -4.50362 0
M  V30 947 H 84.3867 2.61672 -4.08235 0
M  V30 948 N 85.7298 1.2412 0.971189 0
M  V30 949 C 87.0068 0.986867 1.6888 0
M  V30 950 C 87.3868 -0.491857 2.0529 0
M  V30 951 O 86.7348 -1.46531 1.75331 0
M  V30 952 C 86.9448 1.9063 2.92338 0
M  V30 953 C 88.2928 2.17515 3.64654 0
M  V30 954 O 89.3168 1.88254 3.02388 0
M  V30 955 O 88.1758 2.6719 4.7673 0
M  V30 956 H 85.2698 0.372944 0.738134 0
M  V30 957 H 87.8158 1.35203 1.02559 0
M  V30 958 H 86.5878 2.90552 2.62097 0
M  V30 959 H 86.2108 1.54408 3.66393 0
M  V30 960 N 87.2079 -1.17134 1.05439 0
M  V30 961 C 88.1549 -2.21235 0.657539 0
M  V30 962 C 89.1249 -1.62551 -0.341543 0
M  V30 963 O 90.3099 -1.89379 -0.232393 0
M  V30 964 C 87.4499 -3.45076 0.0410575 0
M  V30 965 C 86.5629 -4.18042 1.08927 0
M  V30 966 C 85.6979 -5.29376 0.439848 0
M  V30 967 C 84.7369 -5.94132 1.4722 0
M  V30 968 N 83.8739 -6.96975 0.846756 0
M  V30 969 H 88.7139 -2.54534 1.54972 0
M  V30 970 H 86.2509 -1.25028 0.775006 0
M  V30 971 H 88.2089 -4.15862 -0.33383 0
M  V30 972 H 86.8389 -3.12353 -0.814568 0
M  V30 973 H 85.8909 -3.45945 1.58196 0
M  V30 974 H 87.2029 -4.62306 1.87282 0
M  V30 975 H 86.3569 -6.06699 0.0115125 0
M  V30 976 H 85.0959 -4.86251 -0.375656 0
M  V30 977 H 84.1009 -5.15538 1.91052 0
M  V30 978 H 85.3259 -6.39337 2.28965 0
M  V30 979 H 83.2719 -6.5598 0.0518075 0
M  V30 980 H 83.1889 -7.39565 1.5678 0
M  V30 981 H 84.4569 -7.78239 0.443277 0
M  V30 982 N 88.686 -0.835752 -1.33615 0
M  V30 983 C 89.916 -0.442701 -2.01801 0
M  V30 984 C 90.324 0.959807 -1.63047 0
M  V30 985 O 89.667 1.63468 -0.838088 0
M  V30 986 C 89.729 -0.480125 -3.56279 0
M  V30 987 C 89.393 -1.8382 -4.18401 0
M  V30 988 C 90.39 -2.80097 -4.37998 0
M  V30 989 C 88.075 -2.13019 -4.54894 0
M  V30 990 C 90.069 -4.03736 -4.9323 0
M  V30 991 C 87.756 -3.36916 -5.09834 0
M  V30 992 C 88.754 -4.32091 -5.28948 0
M  V30 993 O 88.442 -5.53797 -5.82721 0
M  V30 994 H 88.174 -0.17441 -0.653114 0
M  V30 995 H 90.728 -1.129 -1.71589 0
M  V30 996 H 88.958 0.262931 -3.85805 0
M  V30 997 H 90.647 -0.105335 -4.05763 0
M  V30 998 H 91.413 -2.58838 -4.10156 0
M  V30 999 H 87.292 -1.39733 -4.39313 0
M  V30 1000 H 90.836 -4.78034 -5.08064 0
M  V30 1001 H 86.733 -3.58033 -5.37106 0
M  V30 1002 H 87.501 -5.55494 -6.0114 0
M  V30 1003 N 90.1641 1.46063 -0.591896 0
M  V30 1004 C 91.3891 2.07226 -0.0850314 0
M  V30 1005 C 91.8141 1.43625 1.21463 0
M  V30 1006 O 91.1721 0.523305 1.73583 0
M  V30 1007 C 91.2201 3.60554 0.0576567 0
M  V30 1008 O 90.3241 3.97128 1.11188 0
M  V30 1009 H 89.6651 0.660615 -0.0669568 0
M  V30 1010 H 92.1951 1.8756 -0.81745 0
M  V30 1011 H 92.2051 4.07165 0.2609 0
M  V30 1012 H 90.8801 4.06235 -0.891416 0
M  V30 1013 H 89.4571 3.62213 0.886356 0
M  V30 1014 N 91.6422 0.330177 1.54103 0
M  V30 1015 C 92.5522 -0.541534 2.28264 0
M  V30 1016 C 93.5682 -1.12351 1.32866 0
M  V30 1017 O 94.7442 -1.14206 1.65888 0
M  V30 1018 C 91.8092 -1.68322 3.03098 0
M  V30 1019 C 90.8702 -1.13238 4.14096 0
M  V30 1020 C 90.1032 -2.21966 4.85352 0
M  V30 1021 O 90.3262 -3.42437 4.56172 0
M  V30 1022 O 89.2602 -1.87013 5.7211 0
M  V30 1023 H 93.0862 0.060938 3.03639 0
M  V30 1024 H 90.6712 0.09565 1.49093 0
M  V30 1025 H 92.5532 -2.34777 3.49939 0
M  V30 1026 H 91.2282 -2.27176 2.30593 0
M  V30 1027 H 90.1352 -0.432736 3.71589 0
M  V30 1028 H 91.4682 -0.588898 4.88664 0
M  V30 1029 N 93.1203 -1.57491 0.0584922 0
M  V30 1030 C 94.0833 -2.1085 -0.898617 0
M  V30 1031 C 95.0833 -1.02964 -1.23511 0
M  V30 1032 O 96.2733 -1.29007 -1.17059 0
M  V30 1033 C 93.4053 -2.59881 -2.20623 0
M  V30 1034 H 94.5983 -2.96715 -0.435936 0
M  V30 1035 H 92.1513 -1.55141 -0.190023 0
M  V30 1036 H 92.8863 -1.77431 -2.71457 0
M  V30 1037 H 92.6713 -3.38727 -1.97501 0
M  V30 1038 H 94.1613 -3.01285 -2.89166 0
M  V30 1039 N 94.5984 0.214957 -1.56127 0
M  V30 1040 C 95.5284 1.2695 -1.95974 0
M  V30 1041 C 96.5094 1.48539 -0.828868 0
M  V30 1042 O 97.6944 1.60611 -1.09168 0
M  V30 1043 C 94.8244 2.61794 -2.28214 0
M  V30 1044 C 93.7784 2.54851 -3.43853 0
M  V30 1045 C 93.1044 3.93785 -3.61715 0
M  V30 1046 C 94.4044 2.09065 -4.78632 0
M  V30 1047 H 96.0984 0.93846 -2.84312 0
M  V30 1048 H 93.6444 0.449996 -1.36788 0
M  V30 1049 H 95.5974 3.35731 -2.54682 0
M  V30 1050 H 94.3214 2.96599 -1.36736 0
M  V30 1051 H 92.9804 1.8337 -3.17444 0
M  V30 1052 H 92.6284 4.25908 -2.67602 0
M  V30 1053 H 92.3284 3.90019 -4.39498 0
M  V30 1054 H 93.8524 4.69374 -3.90539 0
M  V30 1055 H 95.2664 2.7275 -5.04262 0
M  V30 1056 H 93.6634 2.16346 -5.59745 0
M  V30 1057 H 94.7334 1.04315 -4.73547 0
M  V30 1058 N 96.0765 1.50051 0.48192 0
M  V30 1059 C 97.0235 1.68122 1.58125 0
M  V30 1060 C 97.9935 0.522545 1.57666 0
M  V30 1061 O 99.1785 0.751844 1.75362 0
M  V30 1062 C 96.3185 1.77142 2.96167 0
M  V30 1063 C 95.4315 3.0444 3.06497 0
M  V30 1064 C 94.5665 3.04321 4.35387 0
M  V30 1065 C 93.6055 4.26118 4.3942 0
M  V30 1066 N 92.7425 4.238 5.59766 0
M  V30 1067 H 97.5825 2.6198 1.42022 0
M  V30 1068 H 95.1195 1.29877 0.690687 0
M  V30 1069 H 97.0775 1.80352 3.76203 0
M  V30 1070 H 95.7075 0.867329 3.1093 0
M  V30 1071 H 94.7595 3.10752 2.19402 0
M  V30 1072 H 96.0715 3.94426 3.05336 0
M  V30 1073 H 95.2255 3.062 5.23762 0
M  V30 1074 H 93.9645 2.12147 4.39141 0
M  V30 1075 H 92.9695 4.24463 3.49444 0
M  V30 1076 H 94.1945 5.19507 4.37366 0
M  V30 1077 H 92.1405 3.34474 5.64326 0
M  V30 1078 H 92.0575 5.07542 5.60301 0
M  V30 1079 H 93.3255 4.2981 6.50295 0
M  V30 1080 N 97.5546 -0.734337 1.39446 0
M  V30 1081 C 98.8316 -1.48579 1.27215 0
M  V30 1082 C 99.2116 -2.1077 -0.117968 0
M  V30 1083 O 98.5596 -1.98646 -1.12924 0
M  V30 1084 C 98.7696 -2.53667 2.39696 0
M  V30 1085 C 100.118 -3.20031 2.79044 0
M  V30 1086 O 101.142 -2.6398 2.39151 0
M  V30 1087 O 100.001 -4.21455 3.47905 0
M  V30 1088 H 97.0946 -0.659816 0.49857 0
M  V30 1089 H 99.6406 -0.768106 1.51322 0
M  V30 1090 H 98.4126 -2.06096 3.32626 0
M  V30 1091 H 98.0356 -3.32994 2.17258 0
M  V30 1092 N 99.0327 -1.24633 -0.964593 0
M  V30 1093 C 99.9957 -1.0424 -2.04124 0
M  V30 1094 C 100.996 0.00137563 -1.608 0
M  V30 1095 O 102.186 -0.239883 -1.7254 0
M  V30 1096 C 99.3177 -0.580588 -3.3592 0
M  V30 1097 H 100.511 -1.99803 -2.23649 0
M  V30 1098 H 98.0637 -1.06899 -1.14027 0
M  V30 1099 H 98.7987 0.3781 -3.22088 0
M  V30 1100 H 98.5837 -1.33398 -3.6871 0
M  V30 1101 H 100.074 -0.459034 -4.15069 0
M  V30 1102 N 100.511 1.16574 -1.06058 0
M  V30 1103 C 101.443 2.2045 -0.627239 0
M  V30 1104 C 102.456 1.59752 0.313534 0
M  V30 1105 O 103.645 1.78192 0.104896 0
M  V30 1106 C 100.745 3.3875 0.100974 0
M  V30 1107 C 99.9178 4.29008 -0.852687 0
M  V30 1108 C 98.9768 5.25944 -0.164152 0
M  V30 1109 O 98.0028 5.63535 -0.801047 0
M  V30 1110 N 99.2048 5.70075 1.09518 0
M  V30 1111 H 101.97 2.58249 -1.52077 0
M  V30 1112 H 99.5308 1.3156 -0.943594 0
M  V30 1113 H 101.523 4.00638 0.57194 0
M  V30 1114 H 100.093 2.99476 0.89628 0
M  V30 1115 H 99.3128 3.64419 -1.50308 0
M  V30 1116 H 100.601 4.86195 -1.49972 0
M  V30 1117 H 99.9988 5.41624 1.6328 0
M  V30 1118 H 98.5558 6.34067 1.51006 0
M  V30 1119 N 101.989 0.842826 1.3317 0
M  V30 1120 C 102.899 0.281444 2.32906 0
M  V30 1121 C 103.915 -0.594587 1.63526 0
M  V30 1122 O 105.091 -0.49777 1.95152 0
M  V30 1123 C 102.156 -0.530929 3.42611 0
M  V30 1124 C 101.217 0.369843 4.27704 0
M  V30 1125 C 100.45 -0.403853 5.3217 0
M  V30 1126 O 100.673 -1.63513 5.46461 0
M  V30 1127 O 99.6069 0.224199 6.01482 0
M  V30 1128 H 103.433 1.10744 2.82789 0
M  V30 1129 H 101.018 0.60545 1.36582 0
M  V30 1130 H 102.9 -0.992437 4.09547 0
M  V30 1131 H 101.575 -1.33392 2.94938 0
M  V30 1132 H 100.482 0.879275 3.6362 0
M  V30 1133 H 101.815 1.13771 4.78871 0
M  V30 1134 N 103.467 -1.45747 0.599634 0
M  V30 1135 C 104.414 -2.30467 -0.123849 0
M  V30 1136 C 105.384 -1.41632 -0.86774 0
M  V30 1137 O 106.569 -1.70568 -0.855056 0
M  V30 1138 C 103.709 -3.26402 -1.12051 0
M  V30 1139 C 102.822 -4.3034 -0.37832 0
M  V30 1140 C 101.957 -5.13389 -1.364 0
M  V30 1141 C 100.996 -6.09061 -0.609171 0
M  V30 1142 N 100.133 -6.84918 -1.54374 0
M  V30 1143 H 104.973 -2.91802 0.604627 0
M  V30 1144 H 102.51 -1.43797 0.309972 0
M  V30 1145 H 104.468 -3.80482 -1.7114 0
M  V30 1146 H 103.098 -2.66839 -1.8165 0
M  V30 1147 H 102.15 -3.78984 0.327929 0
M  V30 1148 H 103.462 -4.98354 0.210997 0
M  V30 1149 H 102.616 -5.7183 -2.02719 0
M  V30 1150 H 101.355 -4.45376 -1.98725 0
M  V30 1151 H 100.36 -5.49758 0.0676979 0
M  V30 1152 H 101.585 -6.79099 0.00891991 0
M  V30 1153 H 99.531 -6.19601 -2.15478 0
M  V30 1154 H 99.448 -7.49254 -1.00766 0
M  V30 1155 H 100.716 -7.47906 -2.19676 0
M  V30 1156 N 104.945 -0.338344 -1.53925 0
M  V30 1157 C 105.875 0.51328 -2.27789 0
M  V30 1158 C 106.856 1.107 -1.29149 0
M  V30 1159 O 108.041 1.12937 -1.57984 0
M  V30 1160 C 105.171 1.66697 -3.04679 0
M  V30 1161 C 104.125 1.20183 -4.1078 0
M  V30 1162 C 103.451 2.44363 -4.75595 0
M  V30 1163 C 104.751 0.30605 -5.21403 0
M  V30 1164 H 106.445 -0.102883 -2.99223 0
M  V30 1165 H 103.991 -0.0509219 -1.4391 0
M  V30 1166 H 105.944 2.26915 -3.55088 0
M  V30 1167 H 104.668 2.30995 -2.30887 0
M  V30 1168 H 103.327 0.622499 -3.61276 0
M  V30 1169 H 102.975 3.07057 -3.98403 0
M  V30 1170 H 102.675 2.13925 -5.47275 0
M  V30 1171 H 104.199 3.05317 -5.28786 0
M  V30 1172 H 105.613 0.814929 -5.67478 0
M  V30 1173 H 104.01 0.0937929 -6.00027 0
M  V30 1174 H 105.08 -0.65921 -4.80398 0
M  V30 1175 N 106.423 1.57458 -0.0668435 0
M  V30 1176 C 107.333 2.15937 0.916975 0
M  V30 1177 C 108.349 1.12123 1.33058 0
M  V30 1178 O 109.525 1.44366 1.40429 0
M  V30 1179 C 106.59 2.70547 2.16807 0
M  V30 1180 C 105.651 3.89215 1.81135 0
M  V30 1181 C 104.884 4.41211 3.0028 0
M  V30 1182 O 105.107 3.92225 4.14144 0
M  V30 1183 O 104.041 5.32605 2.80384 0
M  V30 1184 H 107.867 3.00354 0.449561 0
M  V30 1185 H 105.452 1.48584 0.155949 0
M  V30 1186 H 107.334 3.0557 2.90181 0
M  V30 1187 H 106.009 1.89192 2.62656 0
M  V30 1188 H 104.916 3.59054 1.05028 0
M  V30 1189 H 106.249 4.71848 1.40073 0
M  V30 1190 N 107.901 -0.206675 1.56239 0
M  V30 1191 C 108.831 -1.25909 1.96645 0
M  V30 1192 C 109.812 -1.48097 0.836734 0
M  V30 1193 O 110.997 -1.6003 1.10019 0
M  V30 1194 C 108.127 -2.6058 2.29599 0
M  V30 1195 C 107.081 -2.53024 3.452 0
M  V30 1196 C 106.407 -3.91861 3.63798 0
M  V30 1197 C 107.707 -2.06524 4.79734 0
M  V30 1198 H 109.401 -0.923369 2.84806 0
M  V30 1199 H 106.947 -0.442735 1.37025 0
M  V30 1200 H 108.9 -3.34375 2.56459 0
M  V30 1201 H 107.624 -2.95869 1.38307 0
M  V30 1202 H 106.283 -1.81684 3.18412 0
M  V30 1203 H 105.931 -4.24483 2.69857 0
M  V30 1204 H 105.631 -3.87683 4.4156 0
M  V30 1205 H 107.155 -4.67296 3.93022 0
M  V30 1206 H 108.569 -2.70072 5.05702 0
M  V30 1207 H 106.966 -2.13374 5.60885 0
M  V30 1208 H 108.036 -1.01802 4.74093 0
M  V30 1209 N 109.379 -1.50304 -0.473955 0
M  V30 1210 C 110.342 -1.6841 -1.55469 0
M  V30 1211 C 111.342 -0.554905 -1.50922 0
M  V30 1212 O 112.532 -0.821882 -1.53593 0
M  V30 1213 C 109.664 -1.70667 -2.95102 0
M  V30 1214 H 110.857 -2.64828 -1.40733 0
M  V30 1215 H 108.41 -1.39742 -0.700132 0
M  V30 1216 H 109.145 -0.75932 -3.15285 0
M  V30 1217 H 108.93 -2.52698 -2.9981 0
M  V30 1218 H 110.42 -1.8664 -3.73571 0
M  V30 1219 N 110.857 0.726932 -1.39834 0
M  V30 1220 C 111.767 1.87131 -1.41489 0
M  V30 1221 C 112.783 1.71239 -0.308757 0
M  V30 1222 O 113.959 1.93701 -0.551529 0
M  V30 1223 C 111.024 3.22811 -1.26468 0
M  V30 1224 C 110.085 3.51039 -2.47124 0
M  V30 1225 C 109.318 4.80245 -2.3281 0
M  V30 1226 O 109.541 5.54537 -1.33585 0
M  V30 1227 O 108.475 5.08554 -3.21957 0
M  V30 1228 H 112.301 1.8869 -2.3797 0
M  V30 1229 H 109.886 0.875837 -1.21035 0
M  V30 1230 H 111.768 4.03877 -1.20255 0
M  V30 1231 H 110.443 3.22005 -0.330862 0
M  V30 1232 H 109.35 2.70027 -2.58914 0
M  V30 1233 H 110.683 3.56632 -3.39227 0
M  V30 1234 N 112.336 1.25143 0.95797 0
M  V30 1235 C 113.283 1.05235 2.05412 0
M  V30 1236 C 114.253 -0.0374561 1.66058 0
M  V30 1237 O 115.438 0.119073 1.90428 0
M  V30 1238 C 112.578 0.673589 3.38462 0
M  V30 1239 C 111.691 1.8379 3.90954 0
M  V30 1240 C 110.826 1.40381 5.12315 0
M  V30 1241 C 109.865 2.53746 5.57027 0
M  V30 1242 N 109.002 2.11136 6.69601 0
M  V30 1243 H 113.842 1.99048 2.21774 0
M  V30 1244 H 111.379 0.991277 1.08683 0
M  V30 1245 H 113.337 0.434964 4.14926 0
M  V30 1246 H 111.967 -0.227554 3.21997 0
M  V30 1247 H 111.019 2.18992 3.11041 0
M  V30 1248 H 112.331 2.68937 4.20089 0
M  V30 1249 H 111.485 1.12464 5.96185 0
M  V30 1250 H 110.224 0.523015 4.84887 0
M  V30 1251 H 109.229 2.82412 4.71724 0
M  V30 1252 H 110.454 3.42398 5.86464 0
M  V30 1253 H 108.4 1.25468 6.4389 0
M  V30 1254 H 108.317 2.89832 6.98236 0
M  V30 1255 H 109.585 1.86385 7.56889 0
M  V30 1256 N 113.814 -1.1601 1.06675 0
M  V30 1257 C 114.761 -2.20525 0.680967 0
M  V30 1258 C 115.731 -1.62904 -0.324283 0
M  V30 1259 O 116.916 -1.89615 -0.212294 0
M  V30 1260 C 114.056 -3.45013 0.0776551 0
M  V30 1261 C 113.169 -4.16863 1.13355 0
M  V30 1262 C 112.304 -5.2888 0.49597 0
M  V30 1263 C 111.343 -5.92537 1.53513 0
M  V30 1264 N 110.48 -6.96038 0.920631 0
M  V30 1265 H 115.32 -2.52876 1.57663 0
M  V30 1266 H 112.857 -1.24199 0.788223 0
M  V30 1267 H 114.815 -4.16193 -0.289704 0
M  V30 1268 H 113.445 -3.132 -0.781393 0
M  V30 1269 H 112.497 -3.44248 1.61857 0
M  V30 1270 H 113.809 -4.60294 1.92174 0
M  V30 1271 H 112.963 -6.06653 0.0758604 0
M  V30 1272 H 111.702 -4.86622 -0.324062 0
M  V30 1273 H 110.707 -5.13482 1.9651 0
M  V30 1274 H 111.932 -6.36873 2.35733 0
M  V30 1275 H 109.878 -6.55888 0.12138 0
M  V30 1276 H 109.795 -7.3786 1.64616 0
M  V30 1277 H 111.063 -7.77725 0.525795 0
M  V30 1278 N 115.292 -0.849877 -1.32721 0
M  V30 1279 C 116.255 -0.296122 -2.27279 0
M  V30 1280 C 117.255 0.541458 -1.5141 0
M  V30 1281 O 118.445 0.353658 -1.70572 0
M  V30 1282 C 115.577 0.581579 -3.35902 0
M  V30 1283 H 116.77 -1.13064 -2.77771 0
M  V30 1284 H 114.323 -0.62383 -1.43311 0
M  V30 1285 H 115.058 1.43809 -2.9067 0
M  V30 1286 H 114.843 -0.0178814 -3.92096 0
M  V30 1287 H 116.333 0.961951 -4.0637 0
M  V30 1288 N 116.77 1.45427 -0.607355 0
M  V30 1289 C 117.733 2.28974 0.101693 0
M  V30 1290 C 118.733 1.39754 0.795329 0
M  V30 1291 O 119.923 1.61878 0.643527 0
M  V30 1292 C 117.055 3.20768 1.15414 0
M  V30 1293 H 118.248 2.93147 -0.632844 0
M  V30 1294 H 115.801 1.51945 -0.366391 0
M  V30 1295 H 116.536 2.61395 1.91945 0
M  V30 1296 H 116.321 3.86489 0.66098 0
M  V30 1297 H 117.811 3.83589 1.65073 0
M  V30 1298 N 118.248 0.346503 1.53744 0
M  V30 1299 C 119.525 -0.304532 1.93215 0
M  V30 1300 C 119.905 -1.67993 1.27834 0
M  V30 1301 O 119.253 -2.24411 0.430352 0
M  V30 1302 C 119.463 -0.373852 3.46992 0
M  V30 1303 C 120.811 -0.62329 4.2 0
M  V30 1304 O 121.835 -0.455847 3.53271 0
M  V30 1305 O 120.694 -0.947879 5.38217 0
M  V30 1306 H 117.788 -0.178318 0.807547 0
M  V30 1307 H 120.334 0.397895 1.64969 0
M  V30 1308 H 119.106 0.591224 3.86808 0
M  V30 1309 H 118.729 -1.12294 3.81413 0
M  V30 1310 N 119.726 -1.57421 0.075193 0
M  V30 1311 C 120.689 -2.11791 -0.876203 0
M  V30 1312 C 121.689 -1.04268 -1.22412 0
M  V30 1313 O 122.879 -1.30242 -1.15684 0
M  V30 1314 C 120.011 -2.62207 -2.17854 0
M  V30 1315 H 121.204 -2.9716 -0.40444 0
M  V30 1316 H 118.757 -1.55333 -0.173557 0
M  V30 1317 H 119.492 -1.803 -2.6956 0
M  V30 1318 H 119.277 -3.40802 -1.93897 0
M  V30 1319 H 120.767 -3.04335 -2.85955 0
M  V30 1320 N 121.204 0.198386 -1.56346 0
M  V30 1321 C 122.114 1.2664 -1.97483 0
M  V30 1322 C 123.13 1.49989 -0.882002 0
M  V30 1323 O 124.306 1.62668 -1.18748 0
M  V30 1324 C 121.371 2.59141 -2.30319 0
M  V30 1325 C 120.432 2.43892 -3.53292 0
M  V30 1326 C 119.665 3.70074 -3.84553 0
M  V30 1327 O 119.888 4.74101 -3.1715 0
M  V30 1328 O 118.822 3.658 -4.7799 0
M  V30 1329 H 122.648 0.947304 -2.88548 0
M  V30 1330 H 120.233 0.403123 -1.43859 0
M  V30 1331 H 122.115 3.37352 -2.5253 0
M  V30 1332 H 120.79 2.90684 -1.42423 0
M  V30 1333 H 119.697 1.63803 -3.36332 0
M  V30 1334 H 121.03 2.17282 -4.41644 0
M  V30 1335 N 122.682 1.50554 0.465978 0
M  V30 1336 C 123.645 1.69233 1.54574 0
M  V30 1337 C 124.645 0.562901 1.50626 0
M  V30 1338 O 125.835 0.830016 1.53155 0
M  V30 1339 C 122.967 1.7223 2.94193 0
M  V30 1340 H 124.16 2.65571 1.39327 0
M  V30 1341 H 121.713 1.40111 0.692711 0
M  V30 1342 H 122.448 0.77603 3.14878 0
M  V30 1343 H 122.233 2.54285 2.98466 0
M  V30 1344 H 123.723 1.88618 3.72576 0
M  V30 1345 N 124.16 -0.719506 1.40217 0
M  V30 1346 C 125.07 -1.86378 1.42479 0
M  V30 1347 C 126.086 -1.71073 0.317834 0
M  V30 1348 O 127.262 -1.93406 0.561794 0
M  V30 1349 C 124.327 -3.22136 1.28178 0
M  V30 1350 C 123.388 -3.49723 2.48982 0
M  V30 1351 C 122.621 -4.79004 2.35353 0
M  V30 1352 O 122.844 -5.53821 1.36524 0
M  V30 1353 O 121.778 -5.06839 3.2465 0
M  V30 1354 H 125.604 -1.87425 2.38968 0
M  V30 1355 H 123.189 -0.869405 1.21498 0
M  V30 1356 H 125.071 -4.03234 1.22395 0
M  V30 1357 H 123.746 -3.21825 0.347934 0
M  V30 1358 H 122.653 -2.6865 2.60342 0
M  V30 1359 H 123.986 -3.54828 3.41113 0
M  V30 1360 N 125.638 -1.25649 -0.95132 0
M  V30 1361 C 126.884 -1.10757 -1.69884 0
M  V30 1362 C 127.217 0.350061 -1.91019 0
M  V30 1363 O 126.492 1.25783 -1.48354 0
M  V30 1364 C 126.775 -1.86606 -3.07978 0
M  V30 1365 C 126.628 -3.40217 -2.94232 0
M  V30 1366 C 127.947 -1.65182 -4.07925 0
M  V30 1367 H 125.066 -0.40374 -0.616574 0
M  V30 1368 H 127.708 -1.54521 -1.10558 0
M  V30 1369 H 125.858 -1.49409 -3.58621 0
M  V30 1370 H 127.53 -3.87108 -2.50889 0
M  V30 1371 H 125.773 -3.67759 -2.30078 0
M  V30 1372 H 126.444 -3.88505 -3.92133 0
M  V30 1373 H 128.92 -1.9757 -3.66204 0
M  V30 1374 H 127.796 -2.20683 -5.02583 0
M  V30 1375 H 128.057 -0.593933 -4.38092 0
M  V30 1376 N 127.117 1.15442 -1.07289 0
M  V30 1377 C 128.08 2.18358 -0.696591 0
M  V30 1378 C 129.08 1.58637 0.262837 0
M  V30 1379 O 130.27 1.74145 0.0438809 0
M  V30 1380 C 127.402 3.4089 -0.0266151 0
M  V30 1381 H 128.595 2.53162 -1.60776 0
M  V30 1382 H 126.148 1.29893 -0.869342 0
M  V30 1383 H 126.883 3.11653 0.896822 0
M  V30 1384 H 126.668 3.85495 -0.716657 0
M  V30 1385 H 128.158 4.17009 0.222028 0
M  V30 1386 N 128.595 0.856903 1.32268 0
M  V30 1387 C 129.82 0.474569 2.01897 0
M  V30 1388 C 130.245 -0.921766 1.63967 0
M  V30 1389 O 129.603 -1.60589 0.84148 0
M  V30 1390 C 129.651 0.623799 3.55164 0
M  V30 1391 O 128.755 -0.342459 4.10976 0
M  V30 1392 H 128.096 0.190422 0.63611 0
M  V30 1393 H 130.626 1.15672 1.68764 0
M  V30 1394 H 130.636 0.512169 4.04773 0
M  V30 1395 H 129.311 1.64202 3.82113 0
M  V30 1396 H 127.888 -0.18688 3.72431 0
M  V30 1397 N 130.073 -1.45103 0.615059 0
M  V30 1398 C 131.003 -2.33339 -0.0865619 0
M  V30 1399 C 131.984 -1.4727 -0.851209 0
M  V30 1400 O 133.169 -1.76026 -0.820281 0
M  V30 1401 C 130.299 -3.30095 -1.07956 0
M  V30 1402 C 129.253 -4.25858 -0.427628 0
M  V30 1403 C 128.579 -5.12361 -1.5294 0
M  V30 1404 C 129.879 -5.18165 0.655944 0
M  V30 1405 H 131.573 -2.92254 0.650224 0
M  V30 1406 H 129.119 -1.40532 0.314138 0
M  V30 1407 H 131.072 -3.90698 -1.57901 0
M  V30 1408 H 129.796 -2.69355 -1.84703 0
M  V30 1409 H 128.455 -3.66564 0.0510292 0
M  V30 1410 H 128.103 -4.47984 -2.28734 0
M  V30 1411 H 127.803 -5.77238 -1.09865 0
M  V30 1412 H 129.327 -5.75833 -2.03098 0
M  V30 1413 H 130.741 -5.72796 0.240257 0
M  V30 1414 H 129.138 -5.91559 1.00888 0
M  V30 1415 H 130.208 -4.60144 1.52957 0
M  V30 1416 N 131.551 -0.354651 -1.53558 0
M  V30 1417 C 132.499 0.512195 -2.26891 0
M  V30 1418 C 133.493 1.09263 -1.29452 0
M  V30 1419 O 134.699 1.03709 -1.47121 0
M  V30 1420 H 131.074 0.183878 -0.729173 0
M  V30 1421 H 133.045 -0.128202 -2.98124 0
M  V30 1422 C 131.794 1.64563 -3.06291 0
M  V30 1423 H 131.117 1.20829 -3.81104 0
M  V30 1424 H 132.557 2.22711 -3.60799 0
M  V30 1425 C 131.016 2.58158 -2.16462 0
M  V30 1426 O 131.546 3.60695 -1.76811 0
M  V30 1427 N 129.752 2.27096 -1.81317 0
M  V30 1428 H 129.299 1.43751 -2.1376 0
M  V30 1429 H 129.257 2.89975 -1.21498 0
M  V30 1430 N 133.029 1.57378 -0.0835403 0
M  V30 1431 C 134.445 1.57246 0.273109 0
M  V30 1432 C 134.645 1.09385 1.69225 0
M  V30 1433 O 133.701 0.765051 2.40631 0
M  V30 1434 C 135.014 3.00614 0.0720628 0
M  V30 1435 C 136.562 3.12684 0.1407 0
M  V30 1436 C 137.037 4.57989 -0.0322094 0
M  V30 1437 N 138.528 4.63194 0.0230085 0
M  V30 1438 C 139.263 5.73335 -0.0861941 0
M  V30 1439 N 138.759 6.9235 -0.24958 0
M  V30 1440 N 140.552 5.62093 -0.0282886 0
M  V30 1441 H 132.703 1.86801 -1.0109 0
M  V30 1442 H 134.966 0.861687 -0.395222 0
M  V30 1443 H 134.672 3.39786 -0.907662 0
M  V30 1444 H 134.546 3.68193 0.81936 0
M  V30 1445 H 136.933 2.73391 1.11092 0
M  V30 1446 H 137.014 2.47719 -0.637896 0
M  V30 1447 H 136.658 4.97973 -0.999247 0
M  V30 1448 H 136.588 5.21 0.765937 0
M  V30 1449 H 139.079 3.77613 0.14722 0
M  V30 1450 H 139.392 7.72117 -0.324733 0
M  V30 1451 H 137.737 6.94415 -0.285097 0
M  V30 1452 H 140.928 4.67997 0.0981408 0
M  V30 1453 H 141.101 6.47895 -0.116845 0
M  V30 1454 N 134.507 -0.190092 1.56449 0
M  V30 1455 C 135.923 -0.54113 1.50146 0
M  V30 1456 C 136.123 -1.85603 0.784465 0
M  V30 1457 O 135.179 -2.5024 0.337051 0
M  V30 1458 C 136.492 -0.591241 2.9483 0
M  V30 1459 C 138.04 -0.679732 3.0553 0
M  V30 1460 C 138.515 -0.760908 4.51635 0
M  V30 1461 N 140.006 -0.824302 4.55806 0
M  V30 1462 C 140.741 -0.907365 5.66175 0
M  V30 1463 N 140.237 -0.952422 6.86222 0
M  V30 1464 N 142.03 -0.94494 5.541 0
M  V30 1465 H 134.181 0.67235 2.01478 0
M  V30 1466 H 136.444 0.240127 0.917084 0
M  V30 1467 H 136.15 0.305905 3.50367 0
M  V30 1468 H 136.024 -1.44422 3.48457 0
M  V30 1469 H 138.411 -1.56731 2.50039 0
M  V30 1470 H 138.492 0.199549 2.5502 0
M  V30 1471 H 138.136 0.122336 5.07753 0
M  V30 1472 H 138.066 -1.65606 4.99882 0
M  V30 1473 H 140.557 -0.798526 3.69367 0
M  V30 1474 H 140.87 -1.01645 7.66086 0
M  V30 1475 H 139.215 -0.921014 6.8887 0
M  V30 1476 H 142.406 -0.906612 4.59236 0
M  V30 1477 H 142.579 -1.00622 6.4014 0
M  V30 1478 N 135.985 -1.50799 -0.457987 0
M  V30 1479 C 137.234 -1.6168 -1.20593 0
M  V30 1480 C 137.547 -0.32888 -1.92815 0
M  V30 1481 O 138.753 -0.316773 -2.69646 0
M  V30 1482 C 137.209 -2.8545 -2.19195 0
M  V30 1483 C 136.817 -4.21168 -1.52715 0
M  V30 1484 C 138.561 -3.05681 -2.94549 0
M  V30 1485 C 136.468 -5.3611 -2.4968 0
M  V30 1486 H 135.398 -0.602134 -0.453818 0
M  V30 1487 H 138.049 -1.77245 -0.475031 0
M  V30 1488 H 136.431 -2.63472 -2.95632 0
M  V30 1489 H 137.605 -4.53449 -0.819775 0
M  V30 1490 H 135.92 -4.06648 -0.895922 0
M  V30 1491 H 138.517 -3.88727 -3.67145 0
M  V30 1492 H 138.86 -2.17929 -3.54701 0
M  V30 1493 H 139.393 -3.27901 -2.25223 0
M  V30 1494 H 136.132 -6.26057 -1.94249 0
M  V30 1495 H 135.652 -5.0823 -3.18532 0
M  V30 1496 H 137.331 -5.6722 -3.11241 0
M  V30 1497 N 137.463 0.71206 -1.40597 0
M  V30 1498 C 138.395 1.83704 -1.37061 0
M  V30 1499 C 139.408 1.60453 -0.275426 0
M  V30 1500 O 140.597 1.70262 -0.53602 0
M  V30 1501 C 137.697 3.20172 -1.11099 0
M  V30 1502 C 136.87 3.7059 -2.3234 0
M  V30 1503 C 135.929 4.85681 -2.02485 0
M  V30 1504 O 134.955 4.9815 -2.75382 0
M  V30 1505 N 136.157 5.71735 -1.00497 0
M  V30 1506 H 138.922 1.87235 -2.34016 0
M  V30 1507 H 136.483 0.893739 -1.34996 0
M  V30 1508 H 138.475 3.94768 -0.891064 0
M  V30 1509 H 137.045 3.11767 -0.227989 0
M  V30 1510 H 136.265 2.87085 -2.7014 0
M  V30 1511 H 137.553 4.01011 -3.13157 0
M  V30 1512 H 136.951 5.64275 -0.401298 0
M  V30 1513 H 135.508 6.463 -0.844942 0
M  V30 1514 N 138.941 1.26152 0.944643 0
M  V30 1515 C 139.871 1.09902 2.06019 0
M  V30 1516 C 140.852 0.00519538 1.70099 0
M  V30 1517 O 142.037 0.176583 1.93396 0
M  V30 1518 C 139.167 0.727562 3.39594 0
M  V30 1519 C 138.121 1.77274 3.89561 0
M  V30 1520 C 137.447 1.25569 5.19747 0
M  V30 1521 C 138.747 3.17357 4.14827 0
M  V30 1522 H 140.441 2.03217 2.19871 0
M  V30 1523 H 137.987 0.978452 1.05652 0
M  V30 1524 H 139.94 0.600777 4.17095 0
M  V30 1525 H 138.664 -0.241287 3.25707 0
M  V30 1526 H 137.323 1.88814 3.14237 0
M  V30 1527 H 136.971 0.276783 5.02238 0
M  V30 1528 H 136.671 1.95433 5.54148 0
M  V30 1529 H 138.195 1.1415 5.99835 0
M  V30 1530 H 139.609 3.08914 4.82954 0
M  V30 1531 H 138.006 3.84781 4.60504 0
M  V30 1532 H 139.076 3.63673 3.20734 0
M  V30 1533 N 140.419 -1.14872 1.07899 0
M  V30 1534 C 141.665 -1.86064 0.806725 0
M  V30 1535 C 141.998 -1.82434 -0.665706 0
M  V30 1536 O 141.273 -1.25138 -1.48899 0
M  V30 1537 C 141.556 -3.34929 1.32267 0
M  V30 1538 C 141.409 -3.47161 2.86006 0
M  V30 1539 C 142.728 -4.29863 0.943717 0
M  V30 1540 H 139.847 -0.675591 0.294526 0
M  V30 1541 H 142.489 -1.34925 1.33773 0
M  V30 1542 H 140.639 -3.78611 0.870974 0
M  V30 1543 H 142.311 -3.12302 3.39507 0
M  V30 1544 H 140.554 -2.88539 3.23925 0
M  V30 1545 H 141.225 -4.51777 3.17177 0
M  V30 1546 H 143.701 -3.9417 1.33302 0
M  V30 1547 H 142.577 -5.32494 1.33198 0
M  V30 1548 H 142.838 -4.41846 -0.149796 0
M  V30 1549 N 141.898 -0.863906 -1.31812 0
M  V30 1550 C 142.808 -0.318461 -2.32428 0
M  V30 1551 C 143.824 0.568496 -1.64451 0
M  V30 1552 O 145 0.46666 -1.95919 0
M  V30 1553 C 142.065 0.476355 -3.43412 0
M  V30 1554 C 141.126 -0.43784 -4.27061 0
M  V30 1555 C 140.359 0.319138 -5.32745 0
M  V30 1556 O 140.582 1.54799 -5.48993 0
M  V30 1557 O 139.516 -0.319861 -6.01049 0
M  V30 1558 H 143.342 -1.15229 -2.80991 0
M  V30 1559 H 140.927 -0.627103 -1.35602 0
M  V30 1560 H 142.809 0.927156 -4.11074 0
M  V30 1561 H 141.484 1.28683 -2.97022 0
M  V30 1562 H 140.391 -0.937013 -3.62175 0
M  V30 1563 H 141.724 -1.21375 -4.77 0
M  V30 1564 N 143.376 1.44774 -0.622745 0
M  V30 1565 C 144.286 2.34433 0.0886031 0
M  V30 1566 C 145.302 1.52131 0.844529 0
M  V30 1567 O 146.478 1.84886 0.798691 0
M  V30 1568 C 143.543 3.29986 1.0635 0
M  V30 1569 C 142.604 4.28195 0.307873 0
M  V30 1570 C 141.837 5.19183 1.23633 0
M  V30 1571 O 142.06 5.13918 2.47476 0
M  V30 1572 O 140.994 5.97515 0.725189 0
M  V30 1573 H 144.82 2.96693 -0.648599 0
M  V30 1574 H 142.405 1.44408 -0.382957 0
M  V30 1575 H 144.287 3.88825 1.6246 0
M  V30 1576 H 142.962 2.70269 1.78146 0
M  V30 1577 H 141.869 3.72927 -0.296064 0
M  V30 1578 H 143.202 4.90808 -0.3699 0
M  V30 1579 N 144.854 0.36279 1.53368 0
M  V30 1580 C 145.764 -0.492994 2.29362 0
M  V30 1581 C 146.78 -1.09507 1.35219 0
M  V30 1582 O 147.956 -1.10662 1.68273 0
M  V30 1583 C 145.021 -1.61855 3.066 0
M  V30 1584 C 144.082 -1.04429 4.16405 0
M  V30 1585 C 143.315 -2.11621 4.89951 0
M  V30 1586 O 143.538 -3.32684 4.63333 0
M  V30 1587 O 142.472 -1.74835 5.75948 0
M  V30 1588 H 146.298 0.125331 3.03441 0
M  V30 1589 H 143.883 0.127253 1.48857 0
M  V30 1590 H 145.765 -2.27302 3.54841 0
M  V30 1591 H 144.44 -2.22233 2.3536 0
M  V30 1592 H 143.347 -0.353819 3.72423 0
M  V30 1593 H 144.68 -0.485113 4.89804 0
M  V30 1594 N 146.332 -1.57332 0.0918853 0
M  V30 1595 C 147.262 -2.16872 -0.865371 0
M  V30 1596 C 148.243 -1.10118 -1.29646 0
M  V30 1597 O 149.428 -1.38242 -1.36392 0
M  V30 1598 C 146.558 -2.74649 -2.12569 0
M  V30 1599 C 145.512 -3.86747 -1.83333 0
M  V30 1600 C 144.838 -4.31212 -3.16166 0
M  V30 1601 C 146.138 -5.10089 -1.1228 0
M  V30 1602 H 147.832 -2.97114 -0.369307 0
M  V30 1603 H 145.378 -1.42918 -0.176194 0
M  V30 1604 H 147.331 -3.14952 -2.7997 0
M  V30 1605 H 146.055 -1.91657 -2.64452 0
M  V30 1606 H 144.714 -3.46978 -1.18331 0
M  V30 1607 H 144.362 -3.45115 -3.6593 0
M  V30 1608 H 144.062 -5.06788 -2.97388 0
M  V30 1609 H 145.586 -4.74146 -3.84731 0
M  V30 1610 H 147 -5.47582 -1.69785 0
M  V30 1611 H 145.397 -5.91073 -1.03693 0
M  V30 1612 H 146.467 -4.84786 -0.105041 0
M  V30 1613 N 147.81 0.181792 -1.56548 0
M  V30 1614 C 149.087 0.926765 -1.72251 0
M  V30 1615 C 149.467 2.00831 -0.650386 0
M  V30 1616 O 148.815 2.26008 0.336521 0
M  V30 1617 C 149.025 1.50106 -3.1507 0
M  V30 1618 C 150.373 1.97805 -3.75711 0
M  V30 1619 O 151.397 1.59922 -3.18282 0
M  V30 1620 O 150.256 2.67555 -4.76525 0
M  V30 1621 H 147.35 0.435506 -0.703039 0
M  V30 1622 H 149.896 0.170443 -1.68842 0
M  V30 1623 H 148.668 0.72212 -3.84579 0
M  V30 1624 H 148.291 2.32186 -3.22763 0
M  V30 1625 N 149.288 1.51039 0.449983 0
M  V30 1626 C 150.704 1.38934 0.785462 0
M  V30 1627 C 150.904 0.461817 1.96136 0
M  V30 1628 O 149.96 -0.0877389 2.52348 0
M  V30 1629 C 151.273 2.80724 1.0777 0
M  V30 1630 C 152.821 2.89787 1.1829 0
M  V30 1631 C 153.296 4.32457 1.50815 0
M  V30 1632 N 154.787 4.35505 1.57764 0
M  V30 1633 C 155.522 5.42914 1.84477 0
M  V30 1634 N 155.018 6.60502 2.09068 0
M  V30 1635 N 156.811 5.3038 1.86155 0
M  V30 1636 H 148.962 2.09904 -0.324647 0
M  V30 1637 H 151.225 0.944378 -0.0827957 0
M  V30 1638 H 150.931 3.50531 0.286498 0
M  V30 1639 H 150.805 3.19273 2.00859 0
M  V30 1640 H 153.192 2.20186 1.96474 0
M  V30 1641 H 153.273 2.54752 0.231314 0
M  V30 1642 H 152.917 5.02603 0.731622 0
M  V30 1643 H 152.847 4.64995 2.47158 0
M  V30 1644 H 155.338 3.50724 1.40715 0
M  V30 1645 H 155.651 7.38158 2.28785 0
M  V30 1646 H 153.996 6.63639 2.06416 0
M  V30 1647 H 157.187 4.37505 1.66454 0
M  V30 1648 H 157.36 6.1417 2.06637 0
M  V30 1649 N 150.766 -0.704594 1.40972 0
M  V30 1650 C 151.729 -1.80035 1.41845 0
M  V30 1651 C 152.729 -1.57774 0.310474 0
M  V30 1652 O 153.919 -1.64613 0.56992 0
M  V30 1653 C 151.051 -3.18284 1.22098 0
M  V30 1654 H 152.244 -1.80658 2.3938 0
M  V30 1655 H 149.797 -0.911329 1.26982 0
M  V30 1656 H 150.532 -3.23306 0.253672 0
M  V30 1657 H 150.317 -3.35843 2.02366 0
M  V30 1658 H 151.807 -3.98289 1.25522 0
M  V30 1659 N 152.244 -1.26651 -0.937939 0
M  V30 1660 C 153.176 -1.04283 -2.04102 0
M  V30 1661 C 154.189 -0.00221014 -1.628 0
M  V30 1662 O 155.378 -0.242645 -1.76843 0
M  V30 1663 C 152.478 -0.557846 -3.34277 0
M  V30 1664 C 151.651 -1.66843 -4.04329 0
M  V30 1665 C 150.71 -1.18095 -5.12777 0
M  V30 1666 O 149.736 -1.87865 -5.37304 0
M  V30 1667 N 150.938 -0.0311006 -5.80492 0
M  V30 1668 H 153.703 -1.9927 -2.23856 0
M  V30 1669 H 151.264 -1.1808 -1.10764 0
M  V30 1670 H 153.256 -0.215836 -4.04124 0
M  V30 1671 H 151.826 0.298523 -3.11171 0
M  V30 1672 H 151.046 -2.18123 -3.28353 0
M  V30 1673 H 152.334 -2.41408 -4.47883 0
M  V30 1674 H 151.732 0.551486 -5.63005 0
M  V30 1675 H 150.289 0.251809 -6.51313 0
M  V30 1676 N 153.722 1.14298 -1.08507 0
M  V30 1677 C 154.632 2.23027 -0.727753 0
M  V30 1678 C 155.648 1.71952 0.26619 0
M  V30 1679 O 156.824 2.011 0.109882 0
M  V30 1680 C 153.889 3.46403 -0.143541 0
M  V30 1681 C 152.95 4.12413 -1.19223 0
M  V30 1682 C 152.183 5.29899 -0.635798 0
M  V30 1683 O 152.406 5.67796 0.544393 0
M  V30 1684 O 151.34 5.85717 -1.38634 0
M  V30 1685 H 155.166 2.55945 -1.63481 0
M  V30 1686 H 152.751 1.22248 -0.858817 0
M  V30 1687 H 154.633 4.21018 0.179404 0
M  V30 1688 H 153.308 3.15206 0.736659 0
M  V30 1689 H 152.215 3.39667 -1.56772 0
M  V30 1690 H 153.548 4.47718 -2.04474 0
M  V30 1691 N 155.201 0.870884 1.31352 0
M  V30 1692 C 156.617 0.562932 1.49343 0
M  V30 1693 C 156.817 -0.902725 1.80148 0
M  V30 1694 O 155.873 -1.68484 1.88067 0
M  V30 1695 C 157.186 1.46393 2.62659 0
M  V30 1696 C 158.734 1.46607 2.76542 0
M  V30 1697 C 159.209 2.35266 3.92955 0
M  V30 1698 N 160.7 2.33151 4.00243 0
M  V30 1699 C 161.435 2.98471 4.89594 0
M  V30 1700 N 160.931 3.72964 5.8384 0
M  V30 1701 N 162.724 2.87775 4.82848 0
M  V30 1702 H 154.875 1.81923 1.09626 0
M  V30 1703 H 157.138 0.777934 0.541777 0
M  V30 1704 H 156.844 2.50689 2.46674 0
M  V30 1705 H 156.718 1.16314 3.58819 0
M  V30 1706 H 159.105 0.43069 2.9194 0
M  V30 1707 H 159.186 1.8071 1.81046 0
M  V30 1708 H 158.83 3.38881 3.78315 0
M  V30 1709 H 158.76 1.98487 4.87761 0
M  V30 1710 H 161.251 1.79006 3.32814 0
M  V30 1711 H 161.564 4.19932 6.4875 0
M  V30 1712 H 159.909 3.77073 5.83816 0
M  V30 1713 H 163.1 2.29116 4.08195 0
M  V30 1714 H 163.273 3.38961 5.52277 0
M  V30 1715 N 156.679 -1.44442 0.630414 0
M  V30 1716 C 157.609 -2.33418 -0.0618083 0
M  V30 1717 C 158.59 -1.48165 -0.835541 0
M  V30 1718 O 159.775 -1.76886 -0.801564 0
M  V30 1719 C 156.905 -3.31222 -1.04449 0
M  V30 1720 C 155.859 -4.26288 -0.382436 0
M  V30 1721 C 155.185 -5.13954 -1.47497 0
M  V30 1722 C 156.485 -5.1744 0.710865 0
M  V30 1723 H 158.179 -2.91548 0.681184 0
M  V30 1724 H 155.725 -1.40191 0.329026 0
M  V30 1725 H 157.678 -3.92351 -1.53748 0
M  V30 1726 H 156.402 -2.71299 -1.81836 0
M  V30 1727 H 155.061 -3.6649 0.0899054 0
M  V30 1728 H 154.709 -4.50385 -2.2397 0
M  V30 1729 H 154.409 -5.7837 -1.03737 0
M  V30 1730 H 155.933 -5.77955 -1.96979 0
M  V30 1731 H 157.347 -5.72509 0.300996 0
M  V30 1732 H 155.744 -5.90455 1.07156 0
M  V30 1733 H 156.814 -4.58496 1.57829 0
M  V30 1734 N 158.157 -0.370918 -1.53173 0
M  V30 1735 C 159.12 0.460778 -2.24521 0
M  V30 1736 C 160.12 1.00536 -1.25496 0
M  V30 1737 O 161.31 0.890266 -1.49733 0
M  V30 1738 C 158.442 1.64457 -2.98608 0
M  V30 1739 H 159.635 -0.163613 -2.99453 0
M  V30 1740 H 157.188 -0.122699 -1.55818 0
M  V30 1741 H 157.923 2.30691 -2.2793 0
M  V30 1742 H 157.708 1.26099 -3.7127 0
M  V30 1743 H 159.198 2.23384 -3.5283 0
M  V30 1744 N 159.635 1.57281 -0.100228 0
M  V30 1745 C 160.863 1.98879 0.570509 0
M  V30 1746 C 161.278 0.979476 1.61405 0
M  V30 1747 O 160.635 -0.0302288 1.82475 0
M  V30 1748 C 160.686 3.4052 1.2136 0
M  V30 1749 O 160.407 4.37588 0.211786 0
M  V30 1750 C 161.908 3.97149 1.96945 0
M  V30 1751 H 159.128 0.653428 0.152555 0
M  V30 1752 H 161.672 2.03697 -0.18103 0
M  V30 1753 H 159.827 3.367 1.91603 0
M  V30 1754 H 160.241 5.20118 0.676607 0
M  V30 1755 H 161.715 4.98393 2.37294 0
M  V30 1756 H 162.192 3.3525 2.83733 0
M  V30 1757 H 162.798 4.04458 1.31506 0
M  V30 1758 N 161.113 -0.173488 1.56642 0
M  V30 1759 C 162.076 -1.19859 1.95362 0
M  V30 1760 C 163.076 -1.37296 0.83704 0
M  V30 1761 O 164.266 -1.34739 1.10413 0
M  V30 1762 C 161.398 -2.56405 2.24654 0
M  V30 1763 H 162.591 -0.867062 2.87092 0
M  V30 1764 H 160.144 -0.415853 1.50666 0
M  V30 1765 H 160.879 -2.94576 1.35631 0
M  V30 1766 H 160.664 -2.45115 3.06041 0
M  V30 1767 H 162.154 -3.30287 2.5554 0
M  V30 1768 N 162.591 -1.51276 -0.441967 0
M  V30 1769 C 163.521 -1.752 -1.54361 0
M  V30 1770 C 164.502 -0.601682 -1.59103 0
M  V30 1771 O 165.687 -0.843913 -1.74905 0
M  V30 1772 C 162.817 -1.87282 -2.92477 0
M  V30 1773 C 161.771 -3.02687 -3.02596 0
M  V30 1774 C 161.097 -2.99947 -4.42647 0
M  V30 1775 C 162.397 -4.4273 -2.77106 0
M  V30 1776 H 164.091 -2.67442 -1.34592 0
M  V30 1777 H 161.637 -1.28694 -0.646048 0
M  V30 1778 H 163.59 -2.02602 -3.695 0
M  V30 1779 H 162.314 -0.916844 -3.13467 0
M  V30 1780 H 160.973 -2.87065 -2.28012 0
M  V30 1781 H 160.621 -2.02136 -4.60597 0
M  V30 1782 H 160.321 -3.77439 -4.50348 0
M  V30 1783 H 161.845 -3.17354 -5.2165 0
M  V30 1784 H 163.259 -4.58727 -3.43864 0
M  V30 1785 H 161.656 -5.21893 -2.96222 0
M  V30 1786 H 162.726 -4.53087 -1.72744 0
M  V30 1787 N 164.069 0.697108 -1.41344 0
M  V30 1788 C 165.001 1.8224 -1.39001 0
M  V30 1789 C 166.014 1.60152 -0.292428 0
M  V30 1790 O 167.203 1.69684 -0.554048 0
M  V30 1791 C 164.303 3.18976 -1.14489 0
M  V30 1792 C 163.476 3.68105 -2.36258 0
M  V30 1793 C 162.535 4.83506 -2.07625 0
M  V30 1794 O 161.561 4.95201 -2.8065 0
M  V30 1795 N 162.763 5.70637 -1.06555 0
M  V30 1796 H 165.528 1.84742 -2.35988 0
M  V30 1797 H 163.089 0.87937 -1.35936 0
M  V30 1798 H 165.081 3.93801 -0.932885 0
M  V30 1799 H 163.651 3.11508 -0.261043 0
M  V30 1800 H 162.871 2.84204 -2.7317 0
M  V30 1801 H 164.159 3.97667 -3.17393 0
M  V30 1802 H 163.557 5.63817 -0.461125 0
M  V30 1803 H 162.114 6.45368 -0.913444 0
M  V30 1804 N 165.547 1.27147 0.931209 0
M  V30 1805 C 166.494 1.09568 2.03134 0
M  V30 1806 C 167.464 -0.00222433 1.661 0
M  V30 1807 O 168.649 0.159439 1.90133 0
M  V30 1808 C 165.789 0.745231 3.36957 0
M  V30 1809 C 164.902 1.92041 3.86968 0
M  V30 1810 C 164.037 1.51216 5.09222 0
M  V30 1811 C 163.076 2.65504 5.5152 0
M  V30 1812 N 162.213 2.25291 6.64972 0
M  V30 1813 H 167.053 2.03708 2.17502 0
M  V30 1814 H 164.59 1.01411 1.06556 0
M  V30 1815 H 166.548 0.522878 4.1391 0
M  V30 1816 H 165.178 -0.159202 3.22407 0
M  V30 1817 H 164.23 2.25541 3.06326 0
M  V30 1818 H 165.542 2.77787 4.1429 0
M  V30 1819 H 164.696 1.25084 5.93666 0
M  V30 1820 H 163.435 0.625749 4.83669 0
M  V30 1821 H 162.44 2.92354 4.65628 0
M  V30 1822 H 163.665 3.54761 5.7907 0
M  V30 1823 H 161.611 1.39098 6.41083 0
M  V30 1824 H 161.528 3.04577 6.91931 0
M  V30 1825 H 162.796 2.02398 7.52765 0
M  V30 1826 N 167.025 -1.13721 1.09112 0
M  V30 1827 C 167.955 -2.21148 0.749385 0
M  V30 1828 C 168.936 -1.6792 -0.271475 0
M  V30 1829 O 170.121 -1.93693 -0.140251 0
M  V30 1830 C 167.251 -3.46905 0.165659 0
M  V30 1831 C 166.205 -4.13203 1.11567 0
M  V30 1832 C 165.531 -5.33248 0.393809 0
M  V30 1833 C 166.831 -4.60912 2.45678 0
M  V30 1834 H 168.525 -2.4999 1.64758 0
M  V30 1835 H 166.071 -1.20156 0.793626 0
M  V30 1836 H 168.024 -4.21313 -0.085466 0
M  V30 1837 H 166.748 -3.17449 -0.767714 0
M  V30 1838 H 165.407 -3.40758 1.35202 0
M  V30 1839 H 165.055 -5.00054 -0.543599 0
M  V30 1840 H 164.755 -5.78552 1.02721 0
M  V30 1841 H 166.279 -6.10413 0.150908 0
M  V30 1842 H 167.693 -5.26759 2.26269 0
M  V30 1843 H 166.09 -5.16944 3.04776 0
M  V30 1844 H 167.16 -3.75603 3.06677 0
M  V30 1845 N 168.503 -0.877838 -1.30888 0
M  V30 1846 C 169.413 -0.343096 -2.32078 0
M  V30 1847 C 170.429 0.551022 -1.65045 0
M  V30 1848 O 171.605 0.445854 -1.96403 0
M  V30 1849 C 168.67 0.439905 -3.43898 0
M  V30 1850 C 167.731 -0.483111 -4.26573 0
M  V30 1851 C 166.964 0.262616 -5.33053 0
M  V30 1852 O 167.187 1.48967 -5.50604 0
M  V30 1853 O 166.121 -0.383593 -6.00676 0
M  V30 1854 H 169.947 -1.18203 -2.79753 0
M  V30 1855 H 167.532 -0.64145 -1.34929 0
M  V30 1856 H 169.414 0.883504 -4.12034 0
M  V30 1857 H 168.089 1.25526 -2.98371 0
M  V30 1858 H 166.996 -0.975374 -3.61161 0
M  V30 1859 H 168.329 -1.26427 -4.75686 0
M  V30 1860 N 169.982 1.44106 -0.638065 0
M  V30 1861 C 170.892 2.34513 0.0637334 0
M  V30 1862 C 171.908 1.53018 0.828346 0
M  V30 1863 O 173.084 1.85723 0.779036 0
M  V30 1864 C 170.149 3.31095 1.02844 0
M  V30 1865 C 169.21 4.28497 0.26244 0
M  V30 1866 C 168.443 5.20465 1.1812 0
M  V30 1867 O 168.666 5.16514 2.42011 0
M  V30 1868 O 167.6 5.98251 0.661774 0
M  V30 1869 H 171.426 2.95989 -0.68003 0
M  V30 1870 H 169.011 1.43994 -0.398252 0
M  V30 1871 H 170.893 3.90526 1.58327 0
M  V30 1872 H 169.568 2.72144 1.7527 0
M  V30 1873 H 168.475 3.72592 -0.335602 0
M  V30 1874 H 169.808 4.90388 -0.421936 0
M  V30 1875 N 171.46 0.379036 1.52974 0
M  V30 1876 C 172.423 -0.448865 2.24762 0
M  V30 1877 C 173.423 -0.998689 1.26027 0
M  V30 1878 O 174.613 -0.882313 1.50203 0
M  V30 1879 C 171.745 -1.62872 2.99476 0
M  V30 1880 H 172.938 0.179491 2.99362 0
M  V30 1881 H 170.491 0.13096 1.5575 0
M  V30 1882 H 171.226 -2.29479 2.29151 0
M  V30 1883 H 171.011 -1.24128 3.71934 0
M  V30 1884 H 172.501 -2.2151 3.5401 0
M  V30 1885 N 172.938 -1.57226 0.108567 0
M  V30 1886 C 173.848 -2.18292 -0.859401 0
M  V30 1887 C 174.864 -1.15612 -1.30038 0
M  V30 1888 O 176.04 -1.48039 -1.36552 0
M  V30 1889 C 173.105 -2.762 -2.09558 0
M  V30 1890 C 172.166 -3.93881 -1.70752 0
M  V30 1891 C 171.399 -4.49018 -2.88477 0
M  V30 1892 O 171.622 -4.03068 -4.036 0
M  V30 1893 O 170.556 -5.39852 -2.66164 0
M  V30 1894 H 174.382 -3.01441 -0.369769 0
M  V30 1895 H 171.967 -1.48945 -0.1165 0
M  V30 1896 H 173.849 -3.13156 -2.81978 0
M  V30 1897 H 172.524 -1.96089 -2.57548 0
M  V30 1898 H 171.431 -3.61713 -0.954714 0
M  V30 1899 H 172.764 -4.75396 -1.27513 0
M  V30 1900 N 174.416 0.165178 -1.56732 0
M  V30 1901 C 175.363 1.2044 -1.96883 0
M  V30 1902 C 176.333 1.43664 -0.833657 0
M  V30 1903 O 177.518 1.56302 -1.09427 0
M  V30 1904 C 174.658 2.53727 -2.33916 0
M  V30 1905 C 173.771 2.3783 -3.6064 0
M  V30 1906 C 172.906 3.64026 -3.86857 0
M  V30 1907 C 171.945 3.43088 -5.06909 0
M  V30 1908 N 171.082 4.61369 -5.29229 0
M  V30 1909 H 175.922 0.854996 -2.85471 0
M  V30 1910 H 173.459 0.41076 -1.41249 0
M  V30 1911 H 175.417 3.31419 -2.53411 0
M  V30 1912 H 174.047 2.8665 -1.48431 0
M  V30 1913 H 173.099 1.51282 -3.49024 0
M  V30 1914 H 174.411 2.18308 -4.4849 0
M  V30 1915 H 173.565 4.50152 -4.06753 0
M  V30 1916 H 172.304 3.86533 -2.97394 0
M  V30 1917 H 171.309 2.55349 -4.86906 0
M  V30 1918 H 172.534 3.21997 -5.97909 0
M  V30 1919 H 170.48 4.84084 -4.42718 0
M  V30 1920 H 170.397 4.44783 -6.11313 0
M  V30 1921 H 171.665 5.48761 -5.53608 0
M  V30 1922 N 175.894 1.51508 0.433938 0
M  V30 1923 C 176.857 1.72473 1.50949 0
M  V30 1924 C 177.857 0.594725 1.49398 0
M  V30 1925 O 179.047 0.862315 1.5136 0
M  V30 1926 C 176.179 1.78431 2.90474 0
M  V30 1927 H 177.372 2.68467 1.33662 0
M  V30 1928 H 174.925 1.41549 0.662836 0
M  V30 1929 H 175.66 0.842645 3.13161 0
M  V30 1930 H 175.445 2.60558 2.93005 0
M  V30 1931 H 176.935 1.96479 3.68491 0
M  V30 1932 N 177.372 -0.689602 1.41712 0
M  V30 1933 C 178.335 -1.78521 1.43746 0
M  V30 1934 C 179.335 -1.57436 0.327191 0
M  V30 1935 O 180.525 -1.64 0.587348 0
M  V30 1936 C 177.657 -3.16971 1.25467 0
M  V30 1937 H 178.85 -1.78108 2.41283 0
M  V30 1938 H 176.403 -0.89781 1.27942 0
M  V30 1939 H 177.138 -3.23019 0.287948 0
M  V30 1940 H 176.923 -3.33678 2.05917 0
M  V30 1941 H 178.413 -3.96935 1.2974 0
M  V30 1942 N 178.85 -1.27639 -0.924453 0
M  V30 1943 C 180.127 -1.04887 -1.651 0
M  V30 1944 C 180.507 0.415327 -2.06974 0
M  V30 1945 O 179.855 1.39923 -1.80648 0
M  V30 1946 C 180.065 -2.01348 -2.85061 0
M  V30 1947 C 181.413 -2.30899 -3.56329 0
M  V30 1948 O 182.437 -1.99348 -2.95193 0
M  V30 1949 O 181.296 -2.84699 -4.66485 0
M  V30 1950 H 178.39 -0.400083 -0.723784 0
M  V30 1951 H 180.936 -1.38916 -0.974703 0
M  V30 1952 H 179.708 -3.0008 -2.51133 0
M  V30 1953 H 179.331 -1.679 -3.6041 0
M  V30 1954 N 180.328 1.1314 -1.09713 0
M  V30 1955 C 181.238 2.22242 -0.751367 0
M  V30 1956 C 182.254 1.72224 0.247938 0
M  V30 1957 O 183.43 2.01205 0.0885463 0
M  V30 1958 C 180.495 3.46231 -0.180274 0
M  V30 1959 C 179.556 4.11125 -1.2359 0
M  V30 1960 C 178.789 5.29195 -0.691966 0
M  V30 1961 O 179.012 5.68342 0.48414 0
M  V30 1962 O 177.946 5.84214 -1.44838 0
M  V30 1963 H 181.772 2.54197 -1.66186 0
M  V30 1964 H 179.357 1.21331 -0.871735 0
M  V30 1965 H 181.239 4.21185 0.134739 0
M  V30 1966 H 179.914 3.1597 0.703185 0
M  V30 1967 H 178.821 3.37985 -1.60366 0
M  V30 1968 H 180.154 4.45524 -2.09211 0
M  V30 1969 N 181.806 0.884767 1.30421 0
M  V30 1970 C 183.031 0.517288 2.00845 0
M  V30 1971 C 183.456 -0.886779 1.65885 0
M  V30 1972 O 182.814 -1.58768 0.875354 0
M  V30 1973 C 182.862 0.698994 3.5376 0
M  V30 1974 O 181.966 -0.255208 4.1161 0
M  V30 1975 H 181.307 0.203872 0.631927 0
M  V30 1976 H 183.837 1.19225 1.66272 0
M  V30 1977 H 183.847 0.597912 4.03595 0
M  V30 1978 H 182.522 1.72271 3.78544 0
M  V30 1979 H 181.099 -0.10784 3.72744 0
M  V30 1980 N 183.284 -1.43765 0.645699 0
M  V30 1981 C 184.194 -2.34544 -0.0512957 0
M  V30 1982 C 185.21 -1.53455 -0.82022 0
M  V30 1983 O 186.386 -1.86133 -0.769176 0
M  V30 1984 C 183.451 -3.31636 -1.01087 0
M  V30 1985 C 182.512 -4.2863 -0.239712 0
M  V30 1986 C 181.745 -5.21084 -1.15358 0
M  V30 1987 O 181.968 -5.1779 -2.39269 0
M  V30 1988 O 180.902 -5.98593 -0.630038 0
M  V30 1989 H 184.728 -2.95624 0.695718 0
M  V30 1990 H 182.313 -1.43781 0.405882 0
M  V30 1991 H 184.195 -3.9136 -1.56254 0
M  V30 1992 H 182.87 -2.73069 -1.73824 0
M  V30 1993 H 181.777 -3.72408 0.355356 0
M  V30 1994 H 183.11 -4.90157 0.447936 0
M  V30 1995 N 184.763 -0.387143 -1.52771 0
M  V30 1996 C 186.179 -0.037007 -1.59557 0
M  V30 1997 C 186.379 1.44801 -1.40124 0
M  V30 1998 O 185.435 2.21227 -1.21716 0
M  V30 1999 C 186.748 -0.512256 -2.96305 0
M  V30 2000 C 188.296 -0.468328 -3.09476 0
M  V30 2001 C 188.771 -0.919731 -4.4867 0
M  V30 2002 N 190.262 -0.875656 -4.54848 0
M  V30 2003 C 190.997 -1.19637 -5.6078 0
M  V30 2004 N 190.493 -1.58745 -6.74368 0
M  V30 2005 N 192.286 -1.11776 -5.50874 0
M  V30 2006 H 184.437 -1.35395 -1.63652 0
M  V30 2007 H 186.7 -0.554818 -0.768688 0
M  V30 2008 H 186.406 -1.54935 -3.15734 0
M  V30 2009 H 186.28 0.089805 -3.77093 0
M  V30 2010 H 188.667 0.559671 -2.89744 0
M  V30 2011 H 188.748 -1.10616 -2.30646 0
M  V30 2012 H 188.392 -1.94595 -4.69143 0
M  V30 2013 H 188.322 -0.258927 -5.25963 0
M  V30 2014 H 190.813 -0.587843 -3.733 0
M  V30 2015 H 191.126 -1.81586 -7.51163 0
M  V30 2016 H 189.471 -1.6263 -6.75705 0
M  V30 2017 H 192.662 -0.811264 -4.61016 0
M  V30 2018 H 192.835 -1.37103 -6.3333 0
M  V30 2019 N 186.241 1.57166 -0.116904 0
M  V30 2020 C 187.489 1.94737 0.540533 0
M  V30 2021 C 187.81 1.00096 1.67349 0
M  V30 2022 O 187.08 0.0568854 1.95817 0
M  V30 2023 H 185.66 0.718981 0.202669 0
M  V30 2024 H 188.322 1.94017 -0.185353 0
M  V30 2025 H 187.418 2.97719 0.936483 0
M  V30 2026 N 187.719 -0.156864 1.56817 0
M  V30 2027 C 188.652 -1.22316 1.9265 0
M  V30 2028 C 189.63 -1.42059 0.791076 0
M  V30 2029 O 190.814 -1.56831 1.04576 0
M  V30 2030 C 187.941 -2.58375 2.18998 0
M  V30 2031 C 186.987 -2.55284 3.41661 0
M  V30 2032 S 187.82 -2.02946 4.95553 0
M  V30 2033 C 188.976 -3.40753 5.25013 0
M  V30 2034 H 189.209 -0.917403 2.82791 0
M  V30 2035 H 186.742 -0.362059 1.50095 0
M  V30 2036 H 188.7 -3.36677 2.34859 0
M  V30 2037 H 187.361 -2.86145 1.29538 0
M  V30 2038 H 186.554 -3.55418 3.57343 0
M  V30 2039 H 186.156 -1.85086 3.24991 0
M  V30 2040 H 188.448 -4.36819 5.17876 0
M  V30 2041 H 189.391 -3.29933 6.26538 0
M  V30 2042 H 189.799 -3.37433 4.52548 0
M  V30 2043 N 189.197 -1.51736 -0.425897 0
M  V30 2044 C 190.144 -1.73875 -1.51776 0
M  V30 2045 C 191.114 -0.580702 -1.55618 0
M  V30 2046 O 192.299 -0.81641 -1.72451 0
M  V30 2047 C 189.439 -1.88012 -2.89388 0
M  V30 2048 C 188.552 -3.15606 -2.94986 0
M  V30 2049 C 187.687 -3.20271 -4.23793 0
M  V30 2050 C 186.726 -4.42134 -4.23302 0
M  V30 2051 N 185.863 -4.44284 -5.43651 0
M  V30 2052 H 190.703 -2.67071 -1.32201 0
M  V30 2053 H 188.24 -1.32351 -0.642008 0
M  V30 2054 H 190.198 -1.9419 -3.69251 0
M  V30 2055 H 188.828 -0.98213 -3.07496 0
M  V30 2056 H 187.88 -3.18681 -2.07717 0
M  V30 2057 H 189.192 -4.05486 -2.90486 0
M  V30 2058 H 188.346 -3.25428 -5.12036 0
M  V30 2059 H 187.085 -2.28299 -4.30965 0
M  V30 2060 H 186.09 -4.3714 -3.3345 0
M  V30 2061 H 187.315 -5.35382 -4.17783 0
M  V30 2062 H 185.261 -3.55188 -5.51523 0
M  V30 2063 H 185.178 -5.27988 -5.41078 0
M  V30 2064 H 186.446 -4.53649 -6.33895 0
M  V30 2065 N 190.675 0.682077 -1.42076 0
M  V30 2066 C 191.921 1.44428 -1.42367 0
M  V30 2067 C 192.254 1.94164 -0.0373056 0
M  V30 2068 O 191.529 1.70429 0.937239 0
M  V30 2069 C 191.812 2.64654 -2.44194 0
M  V30 2070 C 191.665 2.20596 -3.91991 0
M  V30 2071 C 192.984 3.66865 -2.431 0
M  V30 2072 H 190.103 0.523834 -0.518428 0
M  V30 2073 H 192.745 0.77576 -1.73442 0
M  V30 2074 H 190.895 3.2169 -2.17826 0
M  V30 2075 H 192.567 1.68783 -4.29313 0
M  V30 2076 H 190.81 1.52242 -4.06208 0
M  V30 2077 H 191.481 3.06921 -4.58807 0
M  V30 2078 H 193.957 3.19531 -2.66532 0
M  V30 2079 H 192.833 4.48577 -3.16339 0
M  V30 2080 H 193.094 4.17493 -1.45437 0
M  V30 2081 N 192.153 1.28127 0.917671 0
M  V30 2082 C 193.402 1.14432 1.66097 0
M  V30 2083 C 193.715 -0.307247 1.93172 0
M  V30 2084 O 194.921 -0.565259 2.65551 0
M  V30 2085 C 193.377 2.00015 2.99202 0
M  V30 2086 C 192.985 3.49889 2.79789 0
M  V30 2087 C 194.729 1.94996 3.77064 0
M  V30 2088 C 192.636 4.27636 4.08511 0
M  V30 2089 H 191.566 0.424662 0.62304 0
M  V30 2090 H 194.217 1.52628 1.01868 0
M  V30 2091 H 192.599 1.54672 3.64544 0
M  V30 2092 H 193.773 4.03162 2.23152 0
M  V30 2093 H 192.088 3.56392 2.15345 0
M  V30 2094 H 194.685 2.50354 4.72469 0
M  V30 2095 H 195.028 0.925819 4.05875 0
M  V30 2096 H 195.561 2.38287 3.18534 0
M  V30 2097 H 192.3 5.30615 3.84874 0
M  V30 2098 H 191.82 3.79137 4.64774 0
M  V30 2099 H 193.499 4.37346 4.76799 0
M  V30 2100 N 193.631 -1.12557 1.10312 0
M  V30 2101 C 194.541 -2.21841 0.763142 0
M  V30 2102 C 195.557 -1.72354 -0.238801 0
M  V30 2103 O 196.733 -2.01249 -0.0778746 0
M  V30 2104 C 193.798 -3.46131 0.198632 0
M  V30 2105 C 192.859 -4.10464 1.25769 0
M  V30 2106 C 192.092 -5.28821 0.72002 0
M  V30 2107 O 192.315 -5.6859 -0.453993 0
M  V30 2108 O 191.249 -5.83437 1.47935 0
M  V30 2109 H 195.075 -2.53312 1.67532 0
M  V30 2110 H 192.66 -1.20867 0.878157 0
M  V30 2111 H 194.542 -4.2125 -0.112401 0
M  V30 2112 H 193.217 -3.16338 -0.686419 0
M  V30 2113 H 192.124 -3.3713 1.62156 0
M  V30 2114 H 193.457 -4.44408 2.11571 0
M  V30 2115 N 195.109 -0.891671 -1.2995 0
M  V30 2116 C 196.057 -0.353066 -2.29905 0
M  V30 2117 C 197.051 0.543509 -1.60444 0
M  V30 2118 O 198.257 0.4272 -1.74857 0
M  V30 2119 H 194.632 -0.095531 -0.745907 0
M  V30 2120 H 196.603 -1.20961 -2.72784 0
M  V30 2121 C 195.352 0.411475 -3.45257 0
M  V30 2122 H 194.675 -0.269182 -3.98893 0
M  V30 2123 H 196.115 0.753328 -4.17254 0
M  V30 2124 C 194.574 1.6111 -2.9588 0
M  V30 2125 O 195.104 2.71045 -2.96475 0
M  V30 2126 N 193.31 1.45054 -2.51809 0
M  V30 2127 H 192.857 0.556175 -2.51524 0
M  V30 2128 H 192.815 2.25453 -2.1913 0
M  V30 2129 N 196.587 1.43421 -0.653314 0
M  V30 2130 C 198.003 1.56341 -0.320886 0
M  V30 2131 C 198.203 1.63696 1.17499 0
M  V30 2132 O 197.259 1.59208 1.95982 0
M  V30 2133 C 198.572 2.82424 -1.03233 0
M  V30 2134 C 200.12 2.96168 -1.01259 0
M  V30 2135 C 200.595 4.25084 -1.70492 0
M  V30 2136 N 202.086 4.31948 -1.67257 0
M  V30 2137 C 202.821 5.30466 -2.17701 0
M  V30 2138 N 202.317 6.35261 -2.76434 0
M  V30 2139 N 204.11 5.2212 -2.082 0
M  V30 2140 H 196.261 1.3689 -1.62403 0
M  V30 2141 H 198.524 0.657455 -0.682977 0
M  V30 2142 H 198.23 2.83053 -2.08744 0
M  V30 2143 H 198.104 3.72653 -0.583948 0
M  V30 2144 H 200.491 2.9508 0.0341235 0
M  V30 2145 H 200.572 2.07229 -1.49966 0
M  V30 2146 H 200.216 4.26932 -2.7512 0
M  V30 2147 H 200.146 5.1292 -1.19251 0
M  V30 2148 H 202.637 3.56838 -1.24398 0
M  V30 2149 H 202.95 7.06754 -3.12601 0
M  V30 2150 H 201.295 6.35884 -2.80495 0
M  V30 2151 H 204.486 4.39166 -1.62021 0
M  V30 2152 H 204.659 5.98739 -2.47822 0
M  V30 2153 N 198.065 0.39524 1.52563 0
M  V30 2154 C 199.028 -0.425001 2.25225 0
M  V30 2155 C 200.028 -0.985266 1.27079 0
M  V30 2156 O 201.218 -0.866332 1.5113 0
M  V30 2157 C 198.35 -1.59686 3.01186 0
M  V30 2158 H 199.543 0.211233 2.99155 0
M  V30 2159 H 197.096 0.147472 1.55603 0
M  V30 2160 H 197.831 -2.27035 2.31572 0
M  V30 2161 H 197.616 -1.20176 3.73229 0
M  V30 2162 H 199.106 -2.17743 3.5634 0
M  V30 2163 N 199.544 -1.57102 0.125237 0
M  V30 2164 C 200.474 -2.18659 -0.819174 0
M  V30 2165 C 201.455 -1.12843 -1.27281 0
M  V30 2166 O 202.64 -1.41104 -1.33429 0
M  V30 2167 C 199.77 -2.79096 -2.06695 0
M  V30 2168 C 198.724 -3.90548 -1.75088 0
M  V30 2169 C 198.05 -4.37821 -3.06948 0
M  V30 2170 C 199.35 -5.12356 -1.01435 0
M  V30 2171 H 201.044 -2.9783 -0.306202 0
M  V30 2172 H 198.59 -1.4326 -0.145839 0
M  V30 2173 H 200.543 -3.2082 -2.73226 0
M  V30 2174 H 199.267 -1.97223 -2.60328 0
M  V30 2175 H 197.926 -3.49409 -1.10944 0
M  V30 2176 H 197.574 -3.52799 -3.58527 0
M  V30 2177 H 197.274 -5.12982 -2.86571 0
M  V30 2178 H 198.798 -4.822 -3.74587 0
M  V30 2179 H 200.212 -5.5106 -1.58132 0
M  V30 2180 H 198.609 -5.9314 -0.911319 0
M  V30 2181 H 199.679 -4.849 -0.00218681 0
M  V30 2182 N 201.022 0.148545 -1.56898 0
M  V30 2183 C 201.969 1.18345 -1.98149 0
M  V30 2184 C 202.939 1.42772 -0.848848 0
M  V30 2185 O 204.124 1.55132 -1.11079 0
M  V30 2186 C 201.264 2.51231 -2.36594 0
M  V30 2187 C 200.377 2.33991 -3.63142 0
M  V30 2188 C 199.512 3.59902 -3.90697 0
M  V30 2189 C 198.551 3.37692 -5.1052 0
M  V30 2190 N 197.688 4.5573 -5.34092 0
M  V30 2191 H 202.528 0.82467 -2.86362 0
M  V30 2192 H 200.065 0.395756 -1.41676 0
M  V30 2193 H 202.023 3.28713 -2.56912 0
M  V30 2194 H 200.653 2.85059 -1.51463 0
M  V30 2195 H 199.705 1.47572 -3.50609 0
M  V30 2196 H 201.017 2.13539 -4.5078 0
M  V30 2197 H 200.171 4.45813 -4.11505 0
M  V30 2198 H 198.91 3.83357 -3.01477 0
M  V30 2199 H 197.915 2.5017 -4.89587 0
M  V30 2200 H 199.14 3.15637 -6.0129 0
M  V30 2201 H 197.086 4.79361 -4.47827 0
M  V30 2202 H 197.003 4.38274 -6.15996 0
M  V30 2203 H 198.271 5.42858 -5.59397 0
M  V30 2204 N 202.5 1.5196 0.417844 0
M  V30 2205 C 203.777 1.56146 1.17803 0
M  V30 2206 C 204.157 0.337275 2.08388 0
M  V30 2207 O 203.505 -0.676447 2.18258 0
M  V30 2208 C 203.715 2.88566 1.96293 0
M  V30 2209 C 205.063 3.41244 2.52662 0
M  V30 2210 O 206.087 2.90247 2.06483 0
M  V30 2211 O 204.946 4.30273 3.36938 0
M  V30 2212 H 202.04 0.628598 0.537395 0
M  V30 2213 H 204.586 1.64283 0.425331 0
M  V30 2214 H 203.358 3.69116 1.2988 0
M  V30 2215 H 202.981 2.83681 2.78587 0
M  V30 2216 N 203.978 -0.674533 1.42435 0
M  V30 2217 C 204.888 -1.81751 1.48337 0
M  V30 2218 C 205.904 -1.69975 0.372099 0
M  V30 2219 O 207.08 -1.91521 0.62304 0
M  V30 2220 C 204.145 -3.17895 1.38361 0
M  V30 2221 C 203.206 -3.41625 2.59982 0
M  V30 2222 C 202.439 -4.71274 2.50473 0
M  V30 2223 O 202.662 -5.49197 1.54075 0
M  V30 2224 O 201.596 -4.96254 3.4061 0
M  V30 2225 H 205.422 -1.79728 2.44809 0
M  V30 2226 H 203.007 -0.830312 1.24202 0
M  V30 2227 H 204.889 -3.99136 1.35161 0
M  V30 2228 H 203.564 -3.20555 0.450144 0
M  V30 2229 H 202.471 -2.60231 2.68757 0
M  V30 2230 H 203.804 -3.43796 3.52229 0
M  V30 2231 N 205.456 -1.28612 -0.910864 0
M  V30 2232 C 206.366 -1.14643 -2.0468 0
M  V30 2233 C 207.382 -0.0723121 -1.7385 0
M  V30 2234 O 208.558 -0.282178 -1.99413 0
M  V30 2235 C 205.623 -0.812561 -3.37044 0
M  V30 2236 C 204.684 -1.96935 -3.81465 0
M  V30 2237 C 203.917 -1.65131 -5.07511 0
M  V30 2238 O 204.14 -0.567013 -5.67575 0
M  V30 2239 O 203.074 -2.49585 -5.47714 0
M  V30 2240 H 206.9 -2.1001 -2.19384 0
M  V30 2241 H 204.485 -1.07958 -1.03274 0
M  V30 2242 H 206.367 -0.640441 -4.16505 0
M  V30 2243 H 205.042 0.111426 -3.23508 0
M  V30 2244 H 203.949 -2.19664 -3.02818 0
M  V30 2245 H 205.282 -2.87414 -3.99567 0
M  V30 2246 N 206.934 1.1197 -1.10907 0
M  V30 2247 C 207.881 2.17846 -0.762345 0
M  V30 2248 C 208.851 1.63995 0.263599 0
M  V30 2249 O 210.036 1.90273 0.141773 0
M  V30 2250 C 207.176 3.44487 -0.205651 0
M  V30 2251 C 206.289 4.12369 -1.28748 0
M  V30 2252 C 205.424 5.26674 -0.691919 0
M  V30 2253 C 204.463 5.86431 -1.75399 0
M  V30 2254 N 203.6 6.92142 -1.17833 0
M  V30 2255 H 208.44 2.46851 -1.6694 0
M  V30 2256 H 205.977 1.21188 -0.833776 0
M  V30 2257 H 207.935 4.16981 0.135037 0
M  V30 2258 H 206.565 3.15884 0.664613 0
M  V30 2259 H 205.617 3.38003 -1.74522 0
M  V30 2260 H 206.929 4.52844 -2.09125 0
M  V30 2261 H 206.083 6.05953 -0.300963 0
M  V30 2262 H 204.822 4.8749 0.143232 0
M  V30 2263 H 203.827 5.05835 -2.15432 0
M  V30 2264 H 205.052 6.27685 -2.59208 0
M  V30 2265 H 202.998 6.54985 -0.364725 0
M  V30 2266 H 202.915 7.31242 -1.91887 0
M  V30 2267 H 204.183 7.75237 -0.81408 0
M  V30 2268 N 208.412 0.89855 1.29475 0
M  V30 2269 C 209.345 0.319981 2.25945 0
M  V30 2270 C 210.323 -0.567189 1.52387 0
M  V30 2271 O 211.507 -0.514254 1.8135 0
M  V30 2272 C 208.634 -0.544013 3.34303 0
M  V30 2273 C 207.68 0.275682 4.25608 0
M  V30 2274 S 208.513 1.67272 5.08704 0
M  V30 2275 C 209.669 0.815621 6.20563 0
M  V30 2276 H 209.902 1.13767 2.74671 0
M  V30 2277 H 207.435 0.69882 1.3768 0
M  V30 2278 H 209.393 -1.03673 3.97193 0
M  V30 2279 H 208.054 -1.33593 2.84274 0
M  V30 2280 H 207.247 -0.384263 5.02533 0
M  V30 2281 H 206.849 0.701496 3.67362 0
M  V30 2282 H 209.141 0.0385042 6.77489 0
M  V30 2283 H 210.084 1.55691 6.90772 0
M  V30 2284 H 210.492 0.370516 5.63283 0
M  V30 2285 N 209.89 -1.43072 0.660911 0
M  V30 2286 C 210.8 -2.34585 -0.0264163 0
M  V30 2287 C 211.816 -1.54316 -0.803898 0
M  V30 2288 O 212.992 -1.86939 -0.749391 0
M  V30 2289 C 210.057 -3.32689 -0.975639 0
M  V30 2290 C 209.118 -4.2886 -0.194236 0
M  V30 2291 C 208.351 -5.22278 -1.09825 0
M  V30 2292 O 208.574 -5.20299 -2.33763 0
M  V30 2293 O 207.508 -5.99228 -0.566513 0
M  V30 2294 H 211.334 -2.94869 0.727034 0
M  V30 2295 H 208.919 -1.43342 0.42111 0
M  V30 2296 H 210.801 -3.92995 -1.52094 0
M  V30 2297 H 209.476 -2.74898 -1.70918 0
M  V30 2298 H 208.383 -3.72011 0.394835 0
M  V30 2299 H 209.716 -4.89655 0.499899 0
M  V30 2300 N 211.368 -0.403325 -1.52352 0
M  V30 2301 C 212.298 0.416205 -2.29761 0
M  V30 2302 C 213.279 1.05123 -1.33728 0
M  V30 2303 O 214.464 1.06134 -1.62632 0
M  V30 2304 C 211.594 1.53624 -3.11475 0
M  V30 2305 C 210.548 1.02653 -4.15507 0
M  V30 2306 C 209.874 2.23971 -4.85532 0
M  V30 2307 C 211.174 0.08463 -5.22231 0
M  V30 2308 H 212.868 -0.229701 -2.98518 0
M  V30 2309 H 210.414 -0.111913 -1.43564 0
M  V30 2310 H 212.367 2.1165 -3.64393 0
M  V30 2311 H 211.091 2.20994 -2.40477 0
M  V30 2312 H 209.75 0.46871 -3.63591 0
M  V30 2313 H 209.398 2.89883 -4.11068 0
M  V30 2314 H 209.098 1.90521 -5.55856 0
M  V30 2315 H 210.622 2.82614 -5.41259 0
M  V30 2316 H 212.036 0.573509 -5.70424 0
M  V30 2317 H 210.433 -0.160783 -5.99885 0
M  V30 2318 H 211.503 -0.86237 -4.7717 0
M  V30 2319 N 212.846 1.57033 -0.133567 0
M  V30 2320 C 213.778 2.13176 0.841944 0
M  V30 2321 C 214.791 1.07794 1.22001 0
M  V30 2322 O 215.98 1.35117 1.16643 0
M  V30 2323 C 213.08 2.62847 2.13926 0
M  V30 2324 C 212.253 3.92486 1.93064 0
M  V30 2325 C 211.312 4.27605 3.0666 0
M  V30 2326 O 210.338 4.96168 2.78937 0
M  V30 2327 N 211.54 3.861 4.33483 0
M  V30 2328 H 214.305 2.97503 0.362192 0
M  V30 2329 H 211.866 1.61821 0.05042 0
M  V30 2330 H 213.858 2.83363 2.88942 0
M  V30 2331 H 212.428 1.83319 2.53205 0
M  V30 2332 H 211.648 3.80732 1.02159 0
M  V30 2333 H 212.936 4.77225 1.76447 0
M  V30 2334 H 212.334 3.30828 4.58878 0
M  V30 2335 H 210.891 4.11694 5.05323 0
M  V30 2336 N 214.325 -0.140222 1.56975 0
M  V30 2337 C 215.235 -1.19223 2.02047 0
M  V30 2338 C 216.251 -1.46612 0.937062 0
M  V30 2339 O 217.427 -1.58148 1.24704 0
M  V30 2340 C 214.492 -2.50414 2.39778 0
M  V30 2341 C 213.553 -2.30612 3.621 0
M  V30 2342 C 212.786 -3.55547 3.98023 0
M  V30 2343 O 213.009 -4.62004 3.34528 0
M  V30 2344 O 211.943 -3.47808 4.91237 0
M  V30 2345 H 215.769 -0.839559 2.91865 0
M  V30 2346 H 213.354 -0.349453 1.45256 0
M  V30 2347 H 215.236 -3.27747 2.64877 0
M  V30 2348 H 213.911 -2.85198 1.53114 0
M  V30 2349 H 212.818 -1.51207 3.4218 0
M  V30 2350 H 214.151 -2.00741 4.49404 0
M  V30 2351 N 215.803 -1.52179 -0.40978 0
M  V30 2352 C 217.052 -1.65434 -1.15388 0
M  V30 2353 C 217.365 -0.390056 -1.91671 0
M  V30 2354 O 218.571 -0.402399 -2.68501 0
M  V30 2355 C 217.027 -2.92279 -2.10003 0
M  V30 2356 C 216.635 -4.25813 -1.39239 0
M  V30 2357 C 218.379 -3.14897 -2.84675 0
M  V30 2358 C 216.286 -5.43782 -2.32498 0
M  V30 2359 H 215.216 -0.616267 -0.434432 0
M  V30 2360 H 217.867 -1.78666 -0.418401 0
M  V30 2361 H 216.249 -2.72744 -2.871 0
M  V30 2362 H 217.423 -4.55828 -0.675099 0
M  V30 2363 H 215.738 -4.09292 -0.766097 0
M  V30 2364 H 218.335 -4.0021 -3.54593 0
M  V30 2365 H 218.678 -2.29103 -3.47588 0
M  V30 2366 H 219.211 -3.34901 -2.14677 0
M  V30 2367 H 215.95 -6.3192 -1.74233 0
M  V30 2368 H 215.47 -5.18106 -3.02201 0
M  V30 2369 H 217.149 -5.76834 -2.93038 0
M  V30 2370 N 217.281 0.66697 -1.42791 0
M  V30 2371 C 218.213 1.7925 -1.42836 0
M  V30 2372 C 219.226 1.59496 -0.326333 0
M  V30 2373 O 220.415 1.6847 -0.589916 0
M  V30 2374 C 217.515 3.16476 -1.21229 0
M  V30 2375 C 216.688 3.63011 -2.44013 0
M  V30 2376 C 215.747 4.78993 -2.17834 0
M  V30 2377 O 214.773 4.89137 -2.91091 0
M  V30 2378 N 215.975 5.68248 -1.18635 0
M  V30 2379 H 218.74 1.79695 -2.39854 0
M  V30 2380 H 216.301 0.850338 -1.37771 0
M  V30 2381 H 218.293 3.91734 -1.01621 0
M  V30 2382 H 216.863 3.10884 -0.32706 0
M  V30 2383 H 216.083 2.78346 -2.79137 0
M  V30 2384 H 217.371 3.90845 -3.25757 0
M  V30 2385 H 216.769 5.62712 -0.580615 0
M  V30 2386 H 215.326 6.43285 -1.05013 0
M  V30 2387 N 218.759 1.29093 0.90403 0
M  V30 2388 C 219.689 1.16401 2.02418 0
M  V30 2389 C 220.67 0.0593085 1.69997 0
M  V30 2390 O 221.855 0.238021 1.92736 0
M  V30 2391 C 218.985 0.835233 3.37107 0
M  V30 2392 C 217.939 1.89578 3.83724 0
M  V30 2393 C 217.265 1.42041 5.15489 0
M  V30 2394 C 218.565 3.30394 4.04521 0
M  V30 2395 H 220.259 2.10109 2.13295 0
M  V30 2396 H 217.805 1.01157 1.02486 0
M  V30 2397 H 219.758 0.733169 4.14973 0
M  V30 2398 H 218.482 -0.137543 3.2631 0
M  V30 2399 H 217.141 1.98715 3.08071 0
M  V30 2400 H 216.789 0.436426 5.01103 0
M  V30 2401 H 216.489 2.12964 5.4765 0
M  V30 2402 H 218.013 1.33176 5.959 0
M  V30 2403 H 219.427 3.24123 4.72882 0
M  V30 2404 H 217.824 3.99237 4.48029 0
M  V30 2405 H 218.894 3.73692 3.09002 0
M  V30 2406 N 220.237 -1.11381 1.11499 0
M  V30 2407 C 221.184 -2.17439 0.773887 0
M  V30 2408 C 222.154 -1.64132 -0.254899 0
M  V30 2409 O 223.339 -1.90345 -0.13168 0
M  V30 2410 C 220.479 -3.44373 0.223917 0
M  V30 2411 C 219.592 -4.1168 1.30934 0
M  V30 2412 C 218.727 -5.263 0.71984 0
M  V30 2413 C 217.766 -5.85493 1.78507 0
M  V30 2414 N 216.903 -6.91507 1.21502 0
M  V30 2415 H 221.743 -2.45962 1.68246 0
M  V30 2416 H 219.28 -1.20744 0.840191 0
M  V30 2417 H 221.238 -4.17047 -0.112921 0
M  V30 2418 H 219.868 -3.16232 -0.647851 0
M  V30 2419 H 218.92 -3.37073 1.76312 0
M  V30 2420 H 220.232 -4.51729 2.11524 0
M  V30 2421 H 219.386 -6.05785 0.333094 0
M  V30 2422 H 218.125 -4.87559 -0.117377 0
M  V30 2423 H 217.13 -5.04686 2.18111 0
M  V30 2424 H 218.355 -6.26301 2.62533 0
M  V30 2425 H 216.301 -6.54783 0.399455 0
M  V30 2426 H 216.218 -7.30214 1.95763 0
M  V30 2427 H 217.486 -7.74795 0.855181 0
M  V30 2428 N 221.715 -0.905404 -1.28997 0
M  V30 2429 C 222.625 -0.392246 -2.31298 0
M  V30 2430 C 223.641 0.515889 -1.66176 0
M  V30 2431 O 224.817 0.404093 -1.97304 0
M  V30 2432 C 221.882 0.36686 -3.44754 0
M  V30 2433 C 220.943 -0.573485 -4.25452 0
M  V30 2434 C 220.176 0.149488 -5.33491 0
M  V30 2435 O 220.399 1.37255 -5.5364 0
M  V30 2436 O 219.333 -0.510919 -5.99728 0
M  V30 2437 H 223.159 -1.2411 -2.77183 0
M  V30 2438 H 220.744 -0.669926 -1.33538 0
M  V30 2439 H 222.626 0.795907 -4.13816 0
M  V30 2440 H 221.301 1.19169 -3.00966 0
M  V30 2441 H 220.208 -1.05176 -3.59011 0
M  V30 2442 H 221.541 -1.36489 -4.72897 0
M  V30 2443 N 223.193 1.4272 -0.668489 0
M  V30 2444 C 224.156 2.292 0.00448567 0
M  V30 2445 C 225.156 1.43001 0.735339 0
M  V30 2446 O 226.346 1.64461 0.57429 0
M  V30 2447 C 223.478 3.25375 1.01705 0
M  V30 2448 H 224.671 2.90199 -0.756608 0
M  V30 2449 H 222.224 1.50254 -0.430506 0
M  V30 2450 H 222.959 2.69301 1.80686 0
M  V30 2451 H 222.744 3.88944 0.496463 0
M  V30 2452 H 224.234 3.90245 1.48655 0
M  V30 2453 N 224.671 0.411399 1.52136 0
M  V30 2454 C 225.618 -0.412975 2.27075 0
M  V30 2455 C 226.588 -1.03912 1.29582 0
M  V30 2456 O 227.773 -1.06296 1.58448 0
M  V30 2457 C 224.913 -1.52247 3.09701 0
M  V30 2458 C 224.026 -0.917021 4.22155 0
M  V30 2459 C 223.161 -1.9994 4.92135 0
M  V30 2460 C 222.2 -1.37101 5.96548 0
M  V30 2461 N 221.337 -2.39364 6.60038 0
M  V30 2462 H 226.177 0.232499 2.97092 0
M  V30 2463 H 223.714 0.126496 1.46555 0
M  V30 2464 H 225.672 -2.17674 3.55913 0
M  V30 2465 H 224.302 -2.13794 2.41851 0
M  V30 2466 H 223.354 -0.151742 3.80097 0
M  V30 2467 H 224.666 -0.418006 4.97045 0
M  V30 2468 H 223.82 -2.73088 5.41763 0
M  V30 2469 H 222.559 -2.53208 4.16818 0
M  V30 2470 H 221.564 -0.624873 5.46237 0
M  V30 2471 H 222.789 -0.845998 6.7381 0
M  V30 2472 H 220.735 -2.91759 5.87548 0
M  V30 2473 H 220.652 -1.9428 7.3061 0
M  V30 2474 H 221.92 -3.12074 7.14304 0
M  V30 2475 N 226.149 -1.5696 0.141893 0
M  V30 2476 C 227.099 -2.13074 -0.811383 0
M  V30 2477 C 228.083 -1.05726 -1.21288 0
M  V30 2478 O 229.275 -1.31914 -1.18015 0
M  V30 2479 C 226.404 -2.75186 -2.0525 0
M  V30 2480 C 225.49 -3.8965 -1.67432 0
M  V30 2481 N 225.881 -4.95733 -1.0041 0
M  V30 2482 C 224.179 -4.00262 -1.96739 0
M  V30 2483 C 224.88 -5.75858 -0.822345 0
M  V30 2484 N 223.856 -5.26452 -1.3546 0
M  V30 2485 H 227.658 -2.92465 -0.290031 0
M  V30 2486 H 225.172 -1.6229 -0.0598218 0
M  V30 2487 H 227.169 -3.13745 -2.74535 0
M  V30 2488 H 225.829 -1.97266 -2.57907 0
M  V30 2489 H 226.84 -5.13607 -0.665441 0
M  V30 2490 H 223.517 -3.33412 -2.51282 0
M  V30 2491 H 224.907 -6.71254 -0.294496 0
M  V30 2492 N 227.627 0.131896 -1.57047 0
M  V30 2493 C 228.876 0.84044 -1.83356 0
M  V30 2494 C 229.189 1.81646 -0.725535 0
M  V30 2495 O 230.395 2.57025 -0.874659 0
M  V30 2496 C 228.851 1.54528 -3.25037 0
M  V30 2497 C 228.459 0.610902 -4.43815 0
M  V30 2498 C 230.203 2.23972 -3.60606 0
M  V30 2499 C 228.11 1.31823 -5.76521 0
M  V30 2500 H 227.04 0.317599 -0.683847 0
M  V30 2501 H 229.691 0.0931561 -1.83263 0
M  V30 2502 H 228.073 2.33873 -3.19561 0
M  V30 2503 H 229.247 -0.148407 -4.60561 0
M  V30 2504 H 227.562 0.0241016 -4.16393 0
M  V30 2505 H 230.159 2.77558 -4.57018 0
M  V30 2506 H 230.502 3.01173 -2.87403 0
M  V30 2507 H 231.035 1.51529 -3.6781 0
M  V30 2508 H 227.774 0.587771 -6.52859 0
M  V30 2509 H 227.294 2.04987 -5.63685 0
M  V30 2510 H 228.973 1.855 -6.19838 0
M  V30 2511 N 229.106 1.52395 0.401703 0
M  V30 2512 C 230.069 1.75636 1.47257 0
M  V30 2513 C 231.069 0.62628 1.48103 0
M  V30 2514 O 232.259 0.894227 1.49497 0
M  V30 2515 C 229.391 1.84553 2.86624 0
M  V30 2516 H 230.584 2.71241 1.27938 0
M  V30 2517 H 228.137 1.42923 0.632662 0
M  V30 2518 H 228.872 0.908882 3.11303 0
M  V30 2519 H 228.657 2.66715 2.87412 0
M  V30 2520 H 230.147 2.04251 3.64241 0
M  V30 2521 N 230.584 -0.659388 1.43143 0
M  V30 2522 C 231.494 -1.80167 1.50256 0
M  V30 2523 C 232.51 -1.69571 0.390106 0
M  V30 2524 O 233.686 -1.90849 0.643319 0
M  V30 2525 C 230.751 -3.16409 1.41725 0
M  V30 2526 C 229.812 -3.38848 2.63591 0
M  V30 2527 C 229.045 -4.68591 2.55458 0
M  V30 2528 O 229.268 -5.47532 1.59891 0
M  V30 2529 O 228.202 -4.92614 3.45854 0
M  V30 2530 H 232.028 -1.77121 2.46702 0
M  V30 2531 H 229.613 -0.817092 1.25076 0
M  V30 2532 H 231.495 -3.9768 1.39387 0
M  V30 2533 H 230.17 -3.20059 0.484118 0
M  V30 2534 H 229.077 -2.57366 2.71502 0
M  V30 2535 H 230.41 -3.4004 3.55856 0
M  V30 2536 N 232.062 -1.29571 -0.897171 0
M  V30 2537 C 232.972 -1.16808 -2.03453 0
M  V30 2538 C 233.988 -0.0907471 -1.73763 0
M  V30 2539 O 235.164 -0.303312 -1.99103 0
M  V30 2540 C 232.229 -0.848264 -3.36163 0
M  V30 2541 C 231.29 -2.0097 -3.79354 0
M  V30 2542 C 230.523 -1.70505 -5.05731 0
M  V30 2543 O 230.746 -0.62718 -5.66941 0
M  V30 2544 O 229.68 -2.5538 -5.45036 0
M  V30 2545 H 233.506 -2.12325 -2.17144 0
M  V30 2546 H 231.091 -1.09047 -1.02123 0
M  V30 2547 H 232.973 -0.684581 -4.15802 0
M  V30 2548 H 231.648 0.0771071 -3.23608 0
M  V30 2549 H 230.555 -2.22863 -3.00471 0
M  V30 2550 H 231.888 -2.91636 -3.96496 0
M  V30 2551 N 233.54 1.10788 -1.12088 0
M  V30 2552 C 234.503 2.15207 -0.788577 0
M  V30 2553 C 235.503 1.59609 0.195317 0
M  V30 2554 O 236.693 1.74174 -0.0300193 0
M  V30 2555 C 233.825 3.4047 -0.171174 0
M  V30 2556 H 235.018 2.46116 -1.71368 0
M  V30 2557 H 232.571 1.26089 -0.923652 0
M  V30 2558 H 233.306 3.15176 0.763832 0
M  V30 2559 H 233.091 3.82109 -0.879514 0
M  V30 2560 H 234.581 4.17576 0.04496 0
M  V30 2561 N 235.018 0.912232 1.28515 0
M  V30 2562 C 236.295 0.463597 1.90027 0
M  V30 2563 C 236.675 -1.05753 1.82701 0
M  V30 2564 O 236.023 -1.90492 1.26194 0
M  V30 2565 C 236.233 0.992253 3.34597 0
M  V30 2566 C 237.581 1.04344 4.11579 0
M  V30 2567 O 238.605 0.94079 3.43551 0
M  V30 2568 O 237.464 1.1995 5.33174 0
M  V30 2569 H 234.558 0.146666 0.813891 0
M  V30 2570 H 237.104 1.00292 1.36893 0
M  V30 2571 H 235.876 2.03623 3.34146 0
M  V30 2572 H 235.499 0.433672 3.95228 0
M  V30 2573 N 236.496 -1.42363 0.676048 0
M  V30 2574 C 237.912 -1.55811 0.345718 0
M  V30 2575 C 238.112 -1.65544 -1.14879 0
M  V30 2576 O 237.168 -1.62306 -1.93424 0
M  V30 2577 C 238.481 -2.80746 1.07713 0
M  V30 2578 C 240.029 -2.9452 1.05958 0
M  V30 2579 C 240.504 -4.22318 1.77233 0
M  V30 2580 N 241.995 -4.29233 1.74108 0
M  V30 2581 C 242.73 -5.26935 2.26113 0
M  V30 2582 N 242.226 -6.30783 2.86505 0
M  V30 2583 N 244.019 -5.18741 2.1648 0
M  V30 2584 H 236.17 -1.34289 1.6456 0
M  V30 2585 H 238.433 -0.646506 0.69335 0
M  V30 2586 H 238.139 -2.79696 2.13221 0
M  V30 2587 H 238.013 -3.71676 0.64316 0
M  V30 2588 H 240.4 -2.95097 0.0128255 0
M  V30 2589 H 240.481 -2.04817 1.53244 0
M  V30 2590 H 240.125 -4.22502 2.81877 0
M  V30 2591 H 240.055 -5.10958 1.27396 0
M  V30 2592 H 242.546 -3.54814 1.30059 0
M  V30 2593 H 242.859 -7.01691 3.23805 0
M  V30 2594 H 241.204 -6.31341 2.90575 0
M  V30 2595 H 244.395 -4.36533 1.68987 0
M  V30 2596 H 244.568 -5.94721 2.57316 0
M  V30 2597 N 237.974 -0.419461 -1.51915 0
M  V30 2598 C 238.921 0.400927 -2.27291 0
M  V30 2599 C 239.891 1.03224 -1.30131 0
M  V30 2600 O 241.076 1.05455 -1.59009 0
M  V30 2601 C 238.216 1.50603 -3.10504 0
M  V30 2602 C 237.329 0.89462 -4.22635 0
M  V30 2603 C 236.464 1.97328 -4.93189 0
M  V30 2604 C 235.503 1.33935 -5.97267 0
M  V30 2605 N 234.64 2.3586 -6.61298 0
M  V30 2606 H 239.48 -0.248251 -2.96964 0
M  V30 2607 H 237.017 -0.134266 -1.46486 0
M  V30 2608 H 238.975 2.15783 -3.57062 0
M  V30 2609 H 237.605 2.12509 -2.42981 0
M  V30 2610 H 236.657 0.131583 -3.80172 0
M  V30 2611 H 237.969 0.391641 -4.9726 0
M  V30 2612 H 237.123 2.70211 -5.43204 0
M  V30 2613 H 235.862 2.50994 -4.18155 0
M  V30 2614 H 234.867 0.595896 -5.46561 0
M  V30 2615 H 236.092 0.810252 -6.74249 0
M  V30 2616 H 234.038 2.88639 -5.89087 0
M  V30 2617 H 233.955 1.90403 -7.3163 0
M  V30 2618 H 235.223 3.08282 -7.15949 0
M  V30 2619 N 239.452 1.56882 -0.150215 0
M  V30 2620 C 240.682 2.00302 0.506213 0
M  V30 2621 C 241.09 1.02934 1.58749 0
M  V30 2622 O 240.433 0.0188384 1.8369 0
M  V30 2623 C 240.495 3.40156 1.16337 0
M  V30 2624 C 240.159 4.56439 0.226311 0
M  V30 2625 C 241.156 5.17012 -0.547265 0
M  V30 2626 C 238.841 5.02136 0.128279 0
M  V30 2627 C 240.835 6.21693 -1.40629 0
M  V30 2628 C 238.522 6.06672 -0.734345 0
M  V30 2629 C 239.52 6.6632 -1.50023 0
M  V30 2630 O 239.208 7.68831 -2.34848 0
M  V30 2631 H 238.94 0.662182 0.135984 0
M  V30 2632 H 241.494 2.03961 -0.242746 0
M  V30 2633 H 239.724 3.33346 1.96004 0
M  V30 2634 H 241.413 3.67663 1.71985 0
M  V30 2635 H 242.179 4.82603 -0.48158 0
M  V30 2636 H 238.058 4.55435 0.714157 0
M  V30 2637 H 241.602 6.68179 -2.00455 0
M  V30 2638 H 237.499 6.40507 -0.801309 0
M  V30 2639 H 238.267 7.86065 -2.28131 0
M  V30 2640 N 240.93 -0.123565 1.57115 0
M  V30 2641 C 241.84 -1.17074 2.033 0
M  V30 2642 C 242.856 -1.4561 0.952559 0
M  V30 2643 O 244.032 -1.56817 1.26374 0
M  V30 2644 C 241.097 -2.47857 2.42421 0
M  V30 2645 C 240.158 -2.26758 3.64526 0
M  V30 2646 C 239.391 -3.51305 4.01771 0
M  V30 2647 O 239.614 -4.5843 3.39409 0
M  V30 2648 O 238.548 -3.42578 4.94898 0
M  V30 2649 H 242.374 -0.808555 2.92739 0
M  V30 2650 H 239.959 -0.334027 1.45618 0
M  V30 2651 H 241.841 -3.2492 2.68338 0
M  V30 2652 H 240.516 -2.83558 1.5613 0
M  V30 2653 H 239.423 -1.47569 3.43765 0
M  V30 2654 H 240.756 -1.95963 4.51508 0
M  V30 2655 N 242.408 -1.52605 -0.393616 0
M  V30 2656 C 243.318 -1.79971 -1.50492 0
M  V30 2657 C 244.334 -0.686181 -1.59899 0
M  V30 2658 O 245.51 -0.973274 -1.76322 0
M  V30 2659 C 242.575 -1.95867 -2.86072 0
M  V30 2660 C 241.636 -3.19781 -2.86424 0
M  V30 2661 C 240.869 -3.34909 -4.15538 0
M  V30 2662 O 241.092 -2.54948 -5.10253 0
M  V30 2663 O 240.026 -4.28141 -4.23059 0
M  V30 2664 H 243.852 -2.74328 -1.30299 0
M  V30 2665 H 241.437 -1.3764 -0.581005 0
M  V30 2666 H 243.319 -2.08056 -3.66457 0
M  V30 2667 H 241.994 -1.04699 -3.063 0
M  V30 2668 H 240.901 -3.13038 -2.04837 0
M  V30 2669 H 242.234 -4.1078 -2.71147 0
M  V30 2670 N 243.887 0.651787 -1.4349 0
M  V30 2671 C 245.133 1.41376 -1.45398 0
M  V30 2672 C 245.466 1.94041 -0.0784823 0
M  V30 2673 O 244.741 1.72379 0.900878 0
M  V30 2674 C 245.024 2.59414 -2.49752 0
M  V30 2675 C 244.877 2.12232 -3.96582 0
M  V30 2676 C 246.196 3.61626 -2.50827 0
M  V30 2677 H 243.315 0.512719 -0.529422 0
M  V30 2678 H 245.957 0.738796 -1.75048 0
M  V30 2679 H 244.107 3.16997 -2.246 0
M  V30 2680 H 245.779 1.59639 -4.32797 0
M  V30 2681 H 244.022 1.43592 -4.09346 0
M  V30 2682 H 244.693 2.9712 -4.65214 0
M  V30 2683 H 247.169 3.13805 -2.7325 0
M  V30 2684 H 246.045 4.41766 -3.25783 0
M  V30 2685 H 246.306 4.14314 -1.5426 0
M  V30 2686 N 245.365 1.30045 0.890287 0
M  V30 2687 C 246.328 1.15963 1.977 0
M  V30 2688 C 247.328 0.0923777 1.60534 0
M  V30 2689 O 248.518 0.340071 1.70848 0
M  V30 2690 C 245.65 0.775451 3.31963 0
M  V30 2691 H 246.843 2.12502 2.11619 0
M  V30 2692 H 244.396 1.13366 1.07601 0
M  V30 2693 H 245.131 -0.189671 3.23745 0
M  V30 2694 H 244.916 1.54668 3.60306 0
M  V30 2695 H 246.406 0.700251 4.11687 0
M  V30 2696 N 246.843 -1.10192 1.12674 0
M  V30 2697 C 248.259 -1.34235 0.863317 0
M  V30 2698 C 248.459 -1.95062 -0.505277 0
M  V30 2699 O 247.515 -2.19192 -1.25345 0
M  V30 2700 C 248.828 -2.2616 1.98172 0
M  V30 2701 C 250.376 -2.3969 2.0129 0
M  V30 2702 C 250.851 -3.34946 3.1237 0
M  V30 2703 N 252.342 -3.42515 3.11829 0
M  V30 2704 C 253.077 -4.16199 3.94419 0
M  V30 2705 N 252.573 -4.92747 4.87004 0
M  V30 2706 N 254.366 -4.11843 3.82547 0
M  V30 2707 H 246.517 -0.690798 2.00853 0
M  V30 2708 H 248.78 -0.366774 0.874174 0
M  V30 2709 H 248.486 -1.8868 2.96804 0
M  V30 2710 H 248.36 -3.26488 1.88906 0
M  V30 2711 H 250.747 -2.76438 1.03276 0
M  V30 2712 H 250.828 -1.39169 2.14629 0
M  V30 2713 H 250.472 -2.98923 4.10619 0
M  V30 2714 H 250.402 -4.35353 2.96269 0
M  V30 2715 H 252.893 -2.87926 2.44759 0
M  V30 2716 H 253.206 -5.46376 5.46528 0
M  V30 2717 H 251.551 -4.91862 4.91016 0
M  V30 2718 H 254.742 -3.51136 3.0955 0
M  V30 2719 H 254.915 -4.69007 4.47142 0
M  V30 2720 N 248.321 -0.919034 -1.28029 0
M  V30 2721 C 249.268 -0.410005 -2.27129 0
M  V30 2722 C 250.238 0.518405 -1.57803 0
M  V30 2723 O 251.423 0.439451 -1.8567 0
M  V30 2724 C 248.563 0.339054 -3.4343 0
M  V30 2725 C 247.676 -0.622468 -4.27492 0
M  V30 2726 C 246.811 0.145567 -5.31001 0
M  V30 2727 C 245.85 -0.809226 -6.06727 0
M  V30 2728 N 244.987 -0.0743728 -7.02061 0
M  V30 2729 H 249.827 -1.26011 -2.70047 0
M  V30 2730 H 247.364 -0.632663 -1.328 0
M  V30 2731 H 249.322 0.789586 -4.0966 0
M  V30 2732 H 247.952 1.15346 -3.01488 0
M  V30 2733 H 247.004 -1.19153 -3.61257 0
M  V30 2734 H 248.316 -1.35252 -4.80113 0
M  V30 2735 H 247.47 0.656417 -6.03139 0
M  V30 2736 H 246.209 0.908643 -4.79161 0
M  V30 2737 H 245.214 -1.3314 -5.33436 0
M  V30 2738 H 246.439 -1.57194 -6.60656 0
M  V30 2739 H 244.385 0.670616 -6.52563 0
M  V30 2740 H 244.302 -0.744157 -7.52329 0
M  V30 2741 H 245.57 0.416109 -7.78389 0
M  V30 2742 N 249.799 1.42003 -0.683588 0
M  V30 2743 C 250.729 2.33487 -0.024866 0
M  V30 2744 C 251.71 1.51163 0.779975 0
M  V30 2745 O 252.895 1.79739 0.735362 0
M  V30 2746 C 250.025 3.3487 0.920836 0
M  V30 2747 C 248.979 4.27414 0.223958 0
M  V30 2748 C 248.305 5.19074 1.2832 0
M  V30 2749 C 249.605 5.14445 -0.90242 0
M  V30 2750 H 251.299 2.88819 -0.788921 0
M  V30 2751 H 248.845 1.38873 -0.38083 0
M  V30 2752 H 250.798 3.97787 1.39081 0
M  V30 2753 H 249.522 2.77861 1.71642 0
M  V30 2754 H 248.181 3.65904 -0.225864 0
M  V30 2755 H 247.829 4.58387 2.071 0
M  V30 2756 H 247.529 5.81822 0.821995 0
M  V30 2757 H 249.053 5.84867 1.75392 0
M  V30 2758 H 250.467 5.70998 -0.513272 0
M  V30 2759 H 248.864 5.86072 -1.28997 0
M  V30 2760 H 249.934 4.52322 -1.74737 0
M  V30 2761 N 251.277 0.427512 1.51691 0
M  V30 2762 C 252.523 -0.142439 2.02299 0
M  V30 2763 C 252.856 -1.43214 1.31162 0
M  V30 2764 O 252.131 -1.89833 0.423511 0
M  V30 2765 C 252.414 -0.371301 3.58181 0
M  V30 2766 C 252.267 0.936358 4.39946 0
M  V30 2767 C 253.586 -1.14542 4.24933 0
M  V30 2768 H 250.705 -0.0502937 0.735282 0
M  V30 2769 H 253.347 0.564584 1.81418 0
M  V30 2770 H 251.497 -0.973559 3.76104 0
M  V30 2771 H 253.169 1.57184 4.33694 0
M  V30 2772 H 251.412 1.5432 4.05423 0
M  V30 2773 H 252.083 0.730388 5.47147 0
M  V30 2774 H 254.559 -0.635362 4.11221 0
M  V30 2775 H 253.435 -1.27431 5.33903 0
M  V30 2776 H 253.696 -2.17093 3.85127 0
M  V30 2777 N 252.755 -1.56801 0.158532 0
M  V30 2778 C 254.004 -1.95665 -0.489702 0
M  V30 2779 C 254.317 -1.04654 -1.65248 0
M  V30 2780 O 255.523 -1.33146 -2.3661 0
M  V30 2781 C 253.979 -3.47874 -0.922582 0
M  V30 2782 C 253.587 -4.47489 0.213893 0
M  V30 2783 C 255.331 -3.95583 -1.53996 0
M  V30 2784 C 253.238 -5.90921 -0.237903 0
M  V30 2785 H 252.168 -0.730516 -0.186716 0
M  V30 2786 H 254.819 -1.81861 0.244722 0
M  V30 2787 H 253.201 -3.57051 -1.71261 0
M  V30 2788 H 254.375 -4.50017 0.991036 0
M  V30 2789 H 252.69 -4.09764 0.740407 0
M  V30 2790 H 255.287 -5.0019 -1.8898 0
M  V30 2791 H 255.63 -3.37789 -2.43319 0
M  V30 2792 H 256.163 -3.8937 -0.814611 0
M  V30 2793 H 252.902 -6.52559 0.620236 0
M  V30 2794 H 252.422 -5.91729 -0.980676 0
M  V30 2795 H 254.101 -6.43352 -0.686067 0
M  V30 2796 N 254.233 0.115231 -1.57178 0
M  V30 2797 C 255.482 0.820945 -1.84237 0
M  V30 2798 C 255.795 1.80866 -0.744761 0
M  V30 2799 O 257.001 2.56083 -0.901871 0
M  V30 2800 C 255.457 1.51072 -3.26658 0
M  V30 2801 C 255.065 0.563795 -4.44438 0
M  V30 2802 C 256.809 2.20134 -3.62962 0
M  V30 2803 C 254.716 1.25701 -5.77887 0
M  V30 2804 H 253.646 0.310328 -0.687177 0
M  V30 2805 H 256.297 0.0737134 -1.83352 0
M  V30 2806 H 254.679 2.30471 -3.22024 0
M  V30 2807 H 255.853 -0.197247 -4.60378 0
M  V30 2808 H 254.168 -0.0200638 -4.16395 0
M  V30 2809 H 256.765 2.72696 -4.59936 0
M  V30 2810 H 257.108 2.98107 -2.90582 0
M  V30 2811 H 257.641 1.47619 -3.69396 0
M  V30 2812 H 254.38 0.518493 -6.53446 0
M  V30 2813 H 253.9 1.98997 -5.65827 0
M  V30 2814 H 255.579 1.78915 -6.2177 0
M  V30 2815 N 255.711 1.52812 0.385517 0
M  V30 2816 C 256.621 1.80766 1.49535 0
M  V30 2817 C 257.637 0.694651 1.59532 0
M  V30 2818 O 258.813 0.982611 1.75803 0
M  V30 2819 C 255.878 1.97381 2.85029 0
M  V30 2820 C 254.939 3.21295 2.84724 0
M  V30 2821 C 254.172 3.37108 4.13756 0
M  V30 2822 O 254.395 2.5765 5.08893 0
M  V30 2823 O 253.329 4.30378 4.20783 0
M  V30 2824 H 257.155 2.75015 1.28842 0
M  V30 2825 H 254.74 1.37946 0.573697 0
M  V30 2826 H 256.622 2.09996 3.65349 0
M  V30 2827 H 255.297 1.06322 3.05741 0
M  V30 2828 H 254.204 3.1412 2.03174 0
M  V30 2829 H 255.537 4.12212 2.68965 0
M  V30 2830 N 257.189 -0.644168 1.43834 0
M  V30 2831 C 258.437 -1.40117 1.45642 0
M  V30 2832 C 258.758 -1.94814 0.0852413 0
M  V30 2833 O 258.028 -1.74988 -0.880688 0
M  V30 2834 H 256.608 -0.52005 0.536243 0
M  V30 2835 H 259.27 -0.7591 1.7951 0
M  V30 2836 H 258.366 -2.23902 2.17427 0
M  V30 2837 N 258.668 -1.30515 -0.883378 0
M  V30 2838 C 259.945 -1.10086 -1.6168 0
M  V30 2839 C 260.325 0.349269 -2.08191 0
M  V30 2840 O 259.673 1.34105 -1.85008 0
M  V30 2841 C 259.883 -2.10315 -2.78511 0
M  V30 2842 C 261.231 -2.42119 -3.48803 0
M  V30 2843 O 262.255 -2.08638 -2.88702 0
M  V30 2844 O 261.114 -2.99396 -4.57192 0
M  V30 2845 H 258.208 -0.422907 -0.710689 0
M  V30 2846 H 260.754 -1.41947 -0.930015 0
M  V30 2847 H 259.526 -3.07917 -2.41459 0
M  V30 2848 H 259.149 -1.79282 -3.54886 0
M  V30 2849 N 260.146 1.09593 -1.13257 0
M  V30 2850 C 261.076 2.18214 -0.830946 0
M  V30 2851 C 262.057 1.68812 0.208966 0
M  V30 2852 O 263.242 1.9408 0.0682666 0
M  V30 2853 C 260.372 3.46051 -0.294296 0
M  V30 2854 C 259.326 4.08778 -1.26826 0
M  V30 2855 C 258.652 5.31419 -0.591449 0
M  V30 2856 C 259.952 4.51476 -2.62615 0
M  V30 2857 H 261.646 2.43703 -1.73923 0
M  V30 2858 H 259.192 1.17128 -0.837675 0
M  V30 2859 H 261.145 4.2134 -0.0709606 0
M  V30 2860 H 259.869 3.20079 0.649366 0
M  V30 2861 H 258.528 3.35505 -1.47756 0
M  V30 2862 H 258.176 5.01727 0.357633 0
M  V30 2863 H 257.876 5.74341 -1.24123 0
M  V30 2864 H 259.4 6.09433 -0.377355 0
M  V30 2865 H 260.814 5.17999 -2.45663 0
M  V30 2866 H 259.211 5.05277 -3.23752 0
M  V30 2867 H 260.281 3.63962 -3.20406 0
M  V30 2868 N 261.624 0.925811 1.2754 0
M  V30 2869 C 262.534 0.428993 2.30644 0
M  V30 2870 C 263.55 -0.489387 1.66976 0
M  V30 2871 O 264.726 -0.372653 1.97922 0
M  V30 2872 C 261.791 -0.311967 3.45294 0
M  V30 2873 C 260.852 0.641098 4.24486 0
M  V30 2874 C 260.085 -0.0645955 5.33661 0
M  V30 2875 O 260.308 -1.28429 5.55754 0
M  V30 2876 O 259.242 0.606265 5.98839 0
M  V30 2877 H 263.068 1.28504 2.75173 0
M  V30 2878 H 260.653 0.691086 1.32455 0
M  V30 2879 H 262.535 -0.729972 4.15029 0
M  V30 2880 H 261.21 -1.14365 3.02824 0
M  V30 2881 H 260.117 1.10874 3.57292 0
M  V30 2882 H 261.45 1.43995 4.70666 0
M  V30 2883 N 263.102 -1.41638 0.69111 0
M  V30 2884 C 264.518 -1.55435 0.362224 0
M  V30 2885 C 264.718 -1.66754 -1.13117 0
M  V30 2886 O 263.774 -1.64348 -1.91692 0
M  V30 2887 C 265.087 -2.79588 1.10684 0
M  V30 2888 C 266.635 -2.9338 1.09075 0
M  V30 2889 C 267.11 -4.20414 1.81703 0
M  V30 2890 N 268.601 -4.27362 1.7865 0
M  V30 2891 C 269.336 -5.24507 2.31689 0
M  V30 2892 N 268.832 -6.27708 2.93179 0
M  V30 2893 N 270.625 -5.16416 2.2197 0
M  V30 2894 H 262.776 -1.32536 1.65976 0
M  V30 2895 H 265.039 -0.639115 0.700168 0
M  V30 2896 H 264.745 -2.77419 2.16175 0
M  V30 2897 H 264.619 -3.70973 0.682545 0
M  V30 2898 H 267.006 -2.95067 0.0441238 0
M  V30 2899 H 267.087 -2.0318 1.55407 0
M  V30 2900 H 266.731 -4.19488 2.86343 0
M  V30 2901 H 266.661 -5.09578 1.32808 0
M  V30 2902 H 269.152 -3.53415 1.33815 0
M  V30 2903 H 269.465 -6.98217 3.31229 0
M  V30 2904 H 267.81 -6.28223 2.97255 0
M  V30 2905 H 271.001 -4.34716 1.73607 0
M  V30 2906 H 271.174 -5.91958 2.63609 0
M  V30 2907 N 264.58 -0.43555 -1.51462 0
M  V30 2908 C 265.808 0.130242 -2.0649 0
M  V30 2909 C 266.223 1.36614 -1.30315 0
M  V30 2910 O 265.58 1.78869 -0.362223 0
M  V30 2911 C 265.631 0.454253 -3.58635 0
M  V30 2912 O 265.352 -0.73259 -4.31931 0
M  V30 2913 C 266.853 1.07091 -4.3017 0
M  V30 2914 H 264.073 0.00871669 -0.670943 0
M  V30 2915 H 266.617 -0.614117 -1.95061 0
M  V30 2916 H 264.772 1.14851 -3.69984 0
M  V30 2917 H 265.186 -0.455787 -5.22516 0
M  V30 2918 H 266.66 1.24764 -5.37716 0
M  V30 2919 H 267.137 2.05144 -3.88346 0
M  V30 2920 H 267.743 0.416089 -4.2326 0
M  V30 2921 N 266.058 1.56714 -0.166846 0
M  V30 2922 C 266.968 2.21331 0.777791 0
M  V30 2923 C 267.984 1.20358 1.25658 0
M  V30 2924 O 269.16 1.53005 1.30964 0
M  V30 2925 C 266.225 2.83787 1.99163 0
M  V30 2926 C 265.286 3.99947 1.56016 0
M  V30 2927 C 264.519 4.59415 2.71613 0
M  V30 2928 O 264.742 4.17769 3.88362 0
M  V30 2929 O 263.676 5.49359 2.45945 0
M  V30 2930 H 267.502 3.02605 0.257636 0
M  V30 2931 H 265.087 1.49275 0.0611393 0
M  V30 2932 H 266.969 3.23405 2.70161 0
M  V30 2933 H 265.644 2.05513 2.50092 0
M  V30 2934 H 264.551 3.65007 0.819809 0
M  V30 2935 H 265.884 4.79801 1.09782 0
M  V30 2936 N 267.536 -0.106894 1.57237 0
M  V30 2937 C 268.446 -1.14911 2.0453 0
M  V30 2938 C 269.462 -1.44592 0.96795 0
M  V30 2939 O 270.638 -1.55468 1.2803 0
M  V30 2940 C 267.703 -2.45272 2.45036 0
M  V30 2941 C 266.764 -2.22879 3.66911 0
M  V30 2942 C 265.997 -3.47024 4.05475 0
M  V30 2943 O 266.22 -4.54804 3.44252 0
M  V30 2944 O 265.154 -3.3731 4.98504 0
M  V30 2945 H 268.98 -0.777461 2.9358 0
M  V30 2946 H 266.565 -0.318563 1.45964 0
M  V30 2947 H 268.447 -3.22055 2.71769 0
M  V30 2948 H 267.122 -2.81886 1.59129 0
M  V30 2949 H 266.029 -1.43915 3.45311 0
M  V30 2950 H 267.362 -1.91163 4.53561 0
M  V30 2951 N 269.014 -1.53014 -0.377408 0
M  V30 2952 C 270.43 -1.42523 -0.718281 0
M  V30 2953 C 270.63 -0.55487 -1.9371 0
M  V30 2954 O 269.686 -0.0327593 -2.52479 0
M  V30 2955 C 270.999 -2.85546 -0.942539 0
M  V30 2956 C 272.547 -2.95101 -1.04329 0
M  V30 2957 C 273.022 -4.3916 -1.3001 0
M  V30 2958 N 274.513 -4.42536 -1.36806 0
M  V30 2959 C 275.248 -5.51097 -1.58364 0
M  V30 2960 N 274.744 -6.69724 -1.77317 0
M  V30 2961 N 276.537 -5.38657 -1.60638 0
M  V30 2962 H 268.688 -2.08116 0.424426 0
M  V30 2963 H 270.951 -0.939352 0.127759 0
M  V30 2964 H 270.657 -3.51499 -0.118929 0
M  V30 2965 H 270.531 -3.28493 -1.85397 0
M  V30 2966 H 272.918 -2.29309 -1.85745 0
M  V30 2967 H 272.999 -2.55566 -0.109505 0
M  V30 2968 H 272.643 -5.05521 -0.490991 0
M  V30 2969 H 272.573 -4.76258 -2.24691 0
M  V30 2970 H 275.064 -3.57039 -1.23821 0
M  V30 2971 H 275.377 -7.48233 -1.93306 0
M  V30 2972 H 273.722 -6.72732 -1.74518 0
M  V30 2973 H 276.913 -4.44948 -1.45391 0
M  V30 2974 H 277.086 -6.2333 -1.77098 0
M  V30 2975 N 270.492 0.636531 -1.44174 0
M  V30 2976 C 271.455 1.73063 -1.50273 0
M  V30 2977 C 272.455 1.56113 -0.385397 0
M  V30 2978 O 273.645 1.61707 -0.64781 0
M  V30 2979 C 270.777 3.12096 -1.37145 0
M  V30 2980 H 271.97 1.69031 -2.47727 0
M  V30 2981 H 269.523 0.849706 -1.31186 0
M  V30 2982 H 270.258 3.21728 -0.407636 0
M  V30 2983 H 270.043 3.25805 -2.18159 0
M  V30 2984 H 271.533 3.91846 -1.44382 0
M  V30 2985 N 271.97 1.30982 0.876444 0
M  V30 2986 C 272.88 1.2003 2.01569 0
M  V30 2987 C 273.896 0.11838 1.73597 0
M  V30 2988 O 275.072 0.33495 1.98595 0
M  V30 2989 C 272.137 0.901637 3.34771 0
M  V30 2990 C 271.198 2.06979 3.76109 0
M  V30 2991 C 270.431 1.78529 5.02954 0
M  V30 2992 O 270.654 0.717296 5.65872 0
M  V30 2993 O 269.588 2.64019 5.40905 0
M  V30 2994 H 273.414 2.15753 2.13739 0
M  V30 2995 H 270.999 1.10658 1.00375 0
M  V30 2996 H 272.881 0.750645 4.1466 0
M  V30 2997 H 271.556 -0.0256141 3.2369 0
M  V30 2998 H 270.463 2.27616 2.96887 0
M  V30 2999 H 271.796 2.97907 3.91807 0
M  V30 3000 N 273.449 -1.08991 1.13837 0
M  V30 3001 C 274.379 -2.17771 0.842507 0
M  V30 3002 C 275.36 -1.6892 -0.20001 0
M  V30 3003 O 276.545 -1.94113 -0.0579731 0
M  V30 3004 C 273.675 -3.4589 0.312644 0
M  V30 3005 C 272.629 -4.08099 1.28992 0
M  V30 3006 C 271.955 -5.31098 0.619623 0
M  V30 3007 C 273.255 -4.50077 2.65005 0
M  V30 3008 H 274.949 -2.42777 1.75213 0
M  V30 3009 H 272.495 -1.16682 0.843875 0
M  V30 3010 H 274.448 -4.21297 0.0933043 0
M  V30 3011 H 273.172 -3.20419 -0.632382 0
M  V30 3012 H 271.831 -3.34717 1.49533 0
M  V30 3013 H 271.479 -5.0191 -0.33102 0
M  V30 3014 H 271.179 -5.73674 1.27167 0
M  V30 3015 H 272.703 -6.09224 0.409669 0
M  V30 3016 H 274.117 -5.16688 2.48407 0
M  V30 3017 H 272.514 -5.03553 3.26427 0
M  V30 3018 H 273.584 -3.62257 3.22332 0
M  V30 3019 N 274.927 -0.932562 -1.27047 0
M  V30 3020 C 275.89 -0.440064 -2.24936 0
M  V30 3021 C 276.89 0.444071 -1.54547 0
M  V30 3022 O 278.08 0.244465 -1.72476 0
M  V30 3023 C 275.212 0.36678 -3.38921 0
M  V30 3024 H 276.405 -1.305 -2.70018 0
M  V30 3025 H 273.958 -0.713707 -1.39054 0
M  V30 3026 H 274.693 1.25033 -2.99228 0
M  V30 3027 H 274.478 -0.267204 -3.91188 0
M  V30 3028 H 275.968 0.701567 -4.11665 0
M  V30 3029 N 276.405 1.4127 -0.698611 0
M  V30 3030 C 277.315 2.34573 -0.0357891 0
M  V30 3031 C 278.331 1.56393 0.762701 0
M  V30 3032 O 279.507 1.8886 0.699564 0
M  V30 3033 C 276.572 3.35159 0.887089 0
M  V30 3034 C 275.633 4.29225 0.0804634 0
M  V30 3035 C 274.866 5.25006 0.959387 0
M  V30 3036 O 275.089 5.26314 2.19886 0
M  V30 3037 O 274.023 6.00519 0.407439 0
M  V30 3038 H 277.849 2.92838 -0.804957 0
M  V30 3039 H 275.434 1.42175 -0.458966 0
M  V30 3040 H 277.316 3.9689 1.41621 0
M  V30 3041 H 275.991 2.79333 1.6357 0
M  V30 3042 H 274.898 3.70833 -0.493328 0
M  V30 3043 H 276.231 4.88157 -0.629547 0
M  V30 3044 N 277.883 0.443576 1.51229 0
M  V30 3045 C 279.108 -0.121648 2.07043 0
M  V30 3046 C 279.533 -1.35156 1.30823 0
M  V30 3047 O 278.891 -1.7793 0.347934 0
M  V30 3048 C 278.939 -0.41624 3.5819 0
M  V30 3049 O 278.043 -1.50163 3.8409 0
M  V30 3050 H 277.384 0.000871367 0.663999 0
M  V30 3051 H 279.914 0.626706 1.94765 0
M  V30 3052 H 279.924 -0.664867 4.02546 0
M  V30 3053 H 278.599 0.482653 4.1309 0
M  V30 3054 H 277.176 -1.24248 3.51592 0
M  V30 3055 N 279.361 -1.56624 0.175154 0
M  V30 3056 C 280.308 -2.18149 -0.753634 0
M  V30 3057 C 281.278 -1.12265 -1.22417 0
M  V30 3058 O 282.463 -1.40432 -1.29165 0
M  V30 3059 C 279.603 -2.82933 -1.97592 0
M  V30 3060 C 278.716 -4.03289 -1.5486 0
M  V30 3061 C 277.851 -4.55988 -2.72485 0
M  V30 3062 C 276.89 -5.68746 -2.26262 0
M  V30 3063 N 276.027 -6.15938 -3.36994 0
M  V30 3064 H 280.867 -2.9717 -0.222195 0
M  V30 3065 H 278.404 -1.46774 -0.0979422 0
M  V30 3066 H 280.362 -3.18653 -2.69288 0
M  V30 3067 H 278.992 -2.06509 -2.481 0
M  V30 3068 H 278.044 -3.73364 -0.728246 0
M  V30 3069 H 279.356 -4.849 -1.16933 0
M  V30 3070 H 278.51 -4.9391 -3.52332 0
M  V30 3071 H 277.249 -3.73443 -3.13674 0
M  V30 3072 H 276.254 -5.30372 -1.44863 0
M  V30 3073 H 277.479 -6.53095 -1.86127 0
M  V30 3074 H 275.425 -5.36321 -3.77751 0
M  V30 3075 H 275.342 -6.92548 -3.03172 0
M  V30 3076 H 276.61 -6.58511 -4.17114 0
M  V30 3077 N 280.839 0.0985539 -1.57292 0
M  V30 3078 C 282.079 0.808332 -1.87737 0
M  V30 3079 C 282.443 1.7607 -0.76572 0
M  V30 3080 O 283.644 2.51358 -0.952499 0
M  V30 3081 C 281.915 1.52093 -3.23423 0
M  V30 3082 S 283.474 2.26947 -3.75554 0
M  V30 3083 H 280.292 0.269377 -0.657995 0
M  V30 3084 H 282.894 0.0656269 -1.9539 0
M  V30 3085 H 281.598 0.81363 -4.02254 0
M  V30 3086 H 281.129 2.30361 -3.189 0
M  V30 3087 H 283.144 3.53027 -3.48692 0
M  V30 3088 N 282.317 1.53212 0.369288 0
M  V30 3089 C 283.542 1.73423 1.1375 0
M  V30 3090 C 283.967 0.460404 1.82378 0
M  V30 3091 O 283.325 -0.585298 1.71592 0
M  V30 3092 C 283.373 2.89769 2.1463 0
M  V30 3093 O 282.477 2.58119 3.21634 0
M  V30 3094 H 281.818 0.576061 0.330227 0
M  V30 3095 H 284.348 2.00083 0.427547 0
M  V30 3096 H 284.358 3.15829 2.58294 0
M  V30 3097 H 283.033 3.8217 1.64071 0
M  V30 3098 H 281.61 2.42864 2.82969 0
M  V30 3099 N 283.795 -0.628877 1.44509 0
M  V30 3100 C 284.705 -1.7694 1.54044 0
M  V30 3101 C 285.721 -1.68705 0.425987 0
M  V30 3102 O 286.897 -1.89442 0.683656 0
M  V30 3103 C 283.962 -3.13332 1.48405 0
M  V30 3104 C 283.023 -3.33181 2.70719 0
M  V30 3105 C 282.256 -4.63067 2.6534 0
M  V30 3106 O 282.479 -5.44017 1.71469 0
M  V30 3107 O 281.413 -4.85167 3.56226 0
M  V30 3108 H 285.239 -1.71848 2.50403 0
M  V30 3109 H 282.824 -0.790378 1.26781 0
M  V30 3110 H 284.706 -3.94634 1.47791 0
M  V30 3111 H 283.381 -3.1896 0.551898 0
M  V30 3112 H 282.288 -2.51549 2.769 0
M  V30 3113 H 283.621 -3.32416 3.62988 0
M  V30 3114 N 285.273 -1.31445 -0.869486 0
M  V30 3115 C 286.203 -1.21727 -1.99261 0
M  V30 3116 C 287.184 -0.104359 -1.6978 0
M  V30 3117 O 288.369 -0.289038 -1.92037 0
M  V30 3118 C 285.499 -0.924317 -3.34774 0
M  V30 3119 C 284.453 -1.99685 -3.78563 0
M  V30 3120 C 283.779 -1.55658 -5.11541 0
M  V30 3121 C 285.079 -3.41003 -3.95619 0
M  V30 3122 H 286.773 -2.1569 -2.07649 0
M  V30 3123 H 284.319 -1.03839 -0.997675 0
M  V30 3124 H 286.272 -0.842934 -4.12883 0
M  V30 3125 H 284.996 0.0509793 -3.2656 0
M  V30 3126 H 283.655 -2.06813 -3.02694 0
M  V30 3127 H 283.303 -0.569132 -4.9977 0
M  V30 3128 H 283.003 -2.27409 -5.41811 0
M  V30 3129 H 284.527 -1.48928 -5.92159 0
M  V30 3130 H 285.941 -3.36547 -4.64122 0
M  V30 3131 H 284.338 -4.10975 -4.37286 0
M  V30 3132 H 285.408 -3.81754 -2.98985 0
M  V30 3133 N 286.751 1.08385 -1.14413 0
M  V30 3134 C 287.661 2.18856 -0.844951 0
M  V30 3135 C 288.677 1.73121 0.174668 0
M  V30 3136 O 289.853 2.014 0.00312857 0
M  V30 3137 C 286.918 3.45155 -0.32696 0
M  V30 3138 C 285.979 4.05513 -1.40916 0
M  V30 3139 C 285.212 5.25784 -0.915793 0
M  V30 3140 O 285.435 5.69884 0.242651 0
M  V30 3141 O 284.369 5.77545 -1.69487 0
M  V30 3142 H 288.195 2.46919 -1.76818 0
M  V30 3143 H 285.78 1.17524 -0.922411 0
M  V30 3144 H 287.662 4.21377 -0.0440211 0
M  V30 3145 H 286.337 3.18668 0.568539 0
M  V30 3146 H 285.244 3.30879 -1.74556 0
M  V30 3147 H 286.577 4.3625 -2.27919 0
M  V30 3148 N 288.23 0.939286 1.26551 0
M  V30 3149 C 289.14 0.453432 2.30176 0
M  V30 3150 C 290.156 -0.471649 1.67486 0
M  V30 3151 O 291.332 -0.35164 1.98306 0
M  V30 3152 C 288.397 -0.275326 3.45605 0
M  V30 3153 C 287.458 0.686084 4.23782 0
M  V30 3154 C 286.691 -0.00798994 5.33699 0
M  V30 3155 O 286.914 -1.22528 5.57085 0
M  V30 3156 O 285.848 0.669746 5.98162 0
M  V30 3157 H 289.674 1.31416 2.73795 0
M  V30 3158 H 287.259 0.705095 1.31715 0
M  V30 3159 H 289.141 -0.685911 4.1578 0
M  V30 3160 H 287.816 -1.11147 3.0402 0
M  V30 3161 H 286.723 1.14658 3.56096 0
M  V30 3162 H 288.056 1.48979 4.69112 0
M  V30 3163 N 289.708 -1.40897 0.706093 0
M  V30 3164 C 290.618 -2.3455 0.0482286 0
M  V30 3165 C 291.634 -1.56796 -0.754396 0
M  V30 3166 O 292.81 -1.89228 -0.689538 0
M  V30 3167 C 289.875 -3.35625 -0.869303 0
M  V30 3168 C 288.936 -4.29261 -0.0576994 0
M  V30 3169 C 288.169 -5.25508 -0.931531 0
M  V30 3170 O 288.392 -5.27472 -2.17092 0
M  V30 3171 O 287.326 -6.00727 -0.375587 0
M  V30 3172 H 291.152 -2.92407 0.820476 0
M  V30 3173 H 288.737 -1.4193 0.4665 0
M  V30 3174 H 290.619 -3.97635 -1.39514 0
M  V30 3175 H 289.294 -2.80196 -1.62086 0
M  V30 3176 H 288.201 -3.70566 0.512988 0
M  V30 3177 H 289.534 -4.87817 0.655426 0
M  V30 3178 N 291.186 -0.45159 -1.50991 0
M  V30 3179 C 292.116 0.342898 -2.30969 0
M  V30 3180 C 293.097 1.00815 -1.37005 0
M  V30 3181 O 294.282 1.00907 -1.65926 0
M  V30 3182 C 291.412 1.43637 -3.16205 0
M  V30 3183 C 290.366 0.893818 -4.18563 0
M  V30 3184 C 289.692 2.08411 -4.92411 0
M  V30 3185 C 290.992 -0.0815568 -5.22236 0
M  V30 3186 H 292.686 -0.324556 -2.97636 0
M  V30 3187 H 290.232 -0.157531 -1.43136 0
M  V30 3188 H 292.185 1.9995 -3.70942 0
M  V30 3189 H 290.909 2.13232 -2.47386 0
M  V30 3190 H 289.568 0.352798 -3.64898 0
M  V30 3191 H 289.216 2.76658 -4.20082 0
M  V30 3192 H 288.916 1.72741 -5.61636 0
M  V30 3193 H 290.44 2.65251 -5.49976 0
M  V30 3194 H 291.854 0.391742 -5.7196 0
M  V30 3195 H 290.251 -0.351551 -5.99069 0
M  V30 3196 H 291.321 -1.01374 -4.74185 0
M  V30 3197 N 292.664 1.56529 -0.183458 0
M  V30 3198 C 293.611 2.18546 0.742055 0
M  V30 3199 C 294.581 1.12912 1.2182 0
M  V30 3200 O 295.766 1.41115 1.28418 0
M  V30 3201 C 292.906 2.83977 1.96089 0
M  V30 3202 C 292.019 4.04105 1.52719 0
M  V30 3203 C 291.154 4.57427 2.70063 0
M  V30 3204 C 290.193 5.69938 2.23243 0
M  V30 3205 N 289.33 6.17717 3.33722 0
M  V30 3206 H 294.17 2.97284 0.206432 0
M  V30 3207 H 291.707 1.46823 0.0901571 0
M  V30 3208 H 293.665 3.20077 2.67594 0
M  V30 3209 H 292.295 2.07822 2.47002 0
M  V30 3210 H 291.347 3.73745 0.708436 0
M  V30 3211 H 292.659 4.85513 1.1436 0
M  V30 3212 H 291.813 4.95772 3.49708 0
M  V30 3213 H 290.552 3.75101 3.11689 0
M  V30 3214 H 289.557 5.31133 1.42048 0
M  V30 3215 H 290.782 6.54073 1.82661 0
M  V30 3216 H 288.728 5.38317 3.74902 0
M  V30 3217 H 288.645 6.94146 2.99495 0
M  V30 3218 H 289.913 6.60713 4.13616 0
M  V30 3219 N 294.142 -0.090211 1.57342 0
M  V30 3220 C 295.09 -1.12792 2.03422 0
M  V30 3221 C 296.084 -1.41182 0.936166 0
M  V30 3222 O 297.29 -1.40805 1.12133 0
M  V30 3223 H 293.665 -0.380986 0.648347 0
M  V30 3224 H 295.636 -0.71299 2.89757 0
M  V30 3225 C 294.385 -2.43855 2.47851 0
M  V30 3226 H 293.708 -2.22855 3.31927 0
M  V30 3227 H 295.148 -3.14955 2.83865 0
M  V30 3228 C 293.607 -3.08503 1.3538 0
M  V30 3229 O 294.137 -3.95805 0.685641 0
M  V30 3230 N 292.343 -2.68831 1.10355 0
M  V30 3231 H 291.89 -1.97929 1.64869 0
M  V30 3232 H 291.848 -3.12412 0.353031 0
M  V30 3233 N 295.62 -1.53406 -0.361157 0
M  V30 3234 C 296.866 -1.70054 -1.10496 0
M  V30 3235 C 297.199 -0.453278 -1.88836 0
M  V30 3236 O 296.474 0.5495 -1.86576 0
M  V30 3237 C 296.757 -2.95317 -2.06058 0
M  V30 3238 C 296.61 -4.3021 -1.31298 0
M  V30 3239 C 297.929 -3.16193 -3.06121 0
M  V30 3240 H 295.048 -0.618799 -0.400321 0
M  V30 3241 H 297.69 -1.86052 -0.385318 0
M  V30 3242 H 295.84 -2.81809 -2.67425 0
M  V30 3243 H 297.512 -4.55538 -0.726807 0
M  V30 3244 H 295.755 -4.29421 -0.614853 0
M  V30 3245 H 296.426 -5.14 -2.01265 0
M  V30 3246 H 298.902 -3.28916 -2.5486 0
M  V30 3247 H 297.778 -4.05266 -3.70204 0
M  V30 3248 H 298.039 -2.31676 -3.76535 0
M  V30 3249 N 297.098 0.621204 -1.44841 0
M  V30 3250 C 298.326 1.40752 -1.51646 0
M  V30 3251 C 298.741 1.88246 -0.144549 0
M  V30 3252 O 298.098 1.61422 0.851416 0
M  V30 3253 C 298.149 2.62119 -2.4895 0
M  V30 3254 O 297.87 2.16602 -3.80808 0
M  V30 3255 C 299.371 3.55135 -2.65319 0
M  V30 3256 H 296.591 0.431325 -0.514004 0
M  V30 3257 H 299.135 0.758835 -1.899 0
M  V30 3258 H 297.29 3.23058 -2.13805 0
M  V30 3259 H 297.704 2.95358 -4.33433 0
M  V30 3260 H 299.178 4.36874 -3.37409 0
M  V30 3261 H 299.655 4.04592 -1.70886 0
M  V30 3262 H 300.261 3.00058 -3.01405 0
M  V30 3263 N 298.576 1.31904 0.862503 0
M  V30 3264 C 299.524 1.20125 1.9918 0
M  V30 3265 C 300.518 0.107824 1.69056 0
M  V30 3266 O 301.724 0.270223 1.7796 0
M  V30 3267 H 298.099 0.372148 0.65346 0
M  V30 3268 H 300.07 2.15652 2.06244 0
M  V30 3269 C 298.819 0.933099 3.34946 0
M  V30 3270 H 298.142 1.76664 3.5865 0
M  V30 3271 H 299.582 0.890892 4.14535 0
M  V30 3272 C 298.041 -0.364172 3.34926 0
M  V30 3273 O 298.571 -1.37858 3.77304 0
M  V30 3274 N 296.777 -0.383362 2.8806 0
M  V30 3275 H 296.324 0.442651 2.53768 0
M  V30 3276 H 296.282 -1.25123 2.8843 0
M  V30 3277 N 300.054 -1.07777 1.14986 0
M  V30 3278 C 301.002 -2.16964 0.838406 0
M  V30 3279 C 301.996 -1.68372 -0.186386 0
M  V30 3280 O 303.202 -1.79951 -0.0418465 0
M  V30 3281 H 299.577 -0.708006 0.253439 0
M  V30 3282 H 301.548 -2.40454 1.76704 0
M  V30 3283 C 300.297 -3.4604 0.339335 0
M  V30 3284 H 299.62 -3.83813 1.11927 0
M  V30 3285 H 301.06 -4.23698 0.160021 0
M  V30 3286 C 299.519 -3.23569 -0.938325 0
M  V30 3287 O 300.049 -3.47752 -2.01077 0
M  V30 3288 N 298.255 -2.77079 -0.876117 0
M  V30 3289 H 297.802 -2.576 -0.00322037 0
M  V30 3290 H 297.76 -2.62422 -1.73153 0
M  V30 3291 N 301.532 -0.945985 -1.26051 0
M  V30 3292 C 302.462 -0.477172 -2.28572 0
M  V30 3293 C 303.443 0.472032 -1.63419 0
M  V30 3294 O 304.628 0.372853 -1.90587 0
M  V30 3295 C 301.758 0.253975 -3.4637 0
M  V30 3296 C 300.712 -0.609135 -4.23643 0
M  V30 3297 C 300.038 0.252252 -5.34105 0
M  V30 3298 C 301.338 -1.8829 -4.8718 0
M  V30 3299 H 303.032 -1.33402 -2.68038 0
M  V30 3300 H 300.578 -0.642904 -1.28852 0
M  V30 3301 H 302.531 0.593016 -4.17207 0
M  V30 3302 H 301.255 1.145 -3.05871 0
M  V30 3303 H 299.914 -0.931138 -3.54578 0
M  V30 3304 H 299.562 1.14278 -4.89846 0
M  V30 3305 H 299.262 -0.32188 -5.86718 0
M  V30 3306 H 300.786 0.586454 -6.07777 0
M  V30 3307 H 302.2 -1.61081 -5.50205 0
M  V30 3308 H 300.597 -2.40199 -5.49931 0
M  V30 3309 H 301.667 -2.59134 -4.09851 0
M  V30 3310 N 303.011 1.40521 -0.713556 0
M  V30 3311 C 303.958 2.30723 -0.059684 0
M  V30 3312 C 304.928 1.48079 0.752448 0
M  V30 3313 O 306.113 1.76823 0.71681 0
M  V30 3314 C 303.253 3.34274 0.857594 0
M  V30 3315 C 302.366 4.31986 0.0351536 0
M  V30 3316 C 301.501 5.22605 0.951724 0
M  V30 3317 C 300.54 6.11976 0.123253 0
M  V30 3318 N 299.677 6.9502 0.99459 0
M  V30 3319 H 304.517 2.86074 -0.834596 0
M  V30 3320 H 302.054 1.40879 -0.42326 0
M  V30 3321 H 304.012 3.92879 1.40364 0
M  V30 3322 H 302.642 2.8043 1.59871 0
M  V30 3323 H 301.694 3.7518 -0.628052 0
M  V30 3324 H 303.006 4.95101 -0.606347 0
M  V30 3325 H 302.16 5.86131 1.56638 0
M  V30 3326 H 300.899 4.59759 1.62705 0
M  V30 3327 H 299.904 5.47482 -0.50435 0
M  V30 3328 H 301.129 6.76881 -0.548539 0
M  V30 3329 H 299.075 6.34764 1.6556 0
M  V30 3330 H 298.992 7.54892 0.40908 0
M  V30 3331 H 300.26 7.62997 1.59549 0
M  V30 3332 N 304.489 0.459591 1.5075 0
M  V30 3333 C 305.714 -0.0996819 2.0716 0
M  V30 3334 C 306.139 -1.33761 1.32249 0
M  V30 3335 O 305.497 -1.77551 0.366786 0
M  V30 3336 C 305.545 -0.378226 3.58611 0
M  V30 3337 O 304.649 -1.46081 3.85661 0
M  V30 3338 H 303.99 0.00791392 0.663953 0
M  V30 3339 H 306.52 0.647329 1.9409 0
M  V30 3340 H 306.53 -0.622135 4.03229 0
M  V30 3341 H 305.205 0.526439 4.12555 0
M  V30 3342 H 303.782 -1.20511 3.5289 0
M  V30 3343 N 305.967 -1.56429 0.191757 0
M  V30 3344 C 306.897 -2.21937 -0.725696 0
M  V30 3345 C 307.878 -1.1814 -1.2238 0
M  V30 3346 O 309.063 -1.46636 -1.27325 0
M  V30 3347 C 306.193 -2.87611 -1.94672 0
M  V30 3348 C 305.147 -3.97623 -1.58366 0
M  V30 3349 C 304.473 -4.50446 -2.88102 0
M  V30 3350 C 305.773 -5.16197 -0.796133 0
M  V30 3351 H 307.467 -2.98861 -0.179606 0
M  V30 3352 H 305.013 -1.43749 -0.0849464 0
M  V30 3353 H 306.966 -3.3212 -2.59373 0
M  V30 3354 H 305.69 -2.08087 -2.51728 0
M  V30 3355 H 304.349 -3.53801 -0.960247 0
M  V30 3356 H 303.997 -3.67688 -3.43241 0
M  V30 3357 H 303.697 -5.24675 -2.64556 0
M  V30 3358 H 305.221 -4.97654 -3.53798 0
M  V30 3359 H 306.635 -5.57271 -1.34618 0
M  V30 3360 H 305.032 -5.96471 -0.658928 0
M  V30 3361 H 306.102 -4.84473 0.203478 0
M  V30 3362 N 307.445 0.0818655 -1.57387 0
M  V30 3363 C 308.355 1.11642 -2.06333 0
M  V30 3364 C 309.371 1.43033 -0.99083 0
M  V30 3365 O 310.547 1.53411 -1.30488 0
M  V30 3366 C 307.612 2.41342 -2.48907 0
M  V30 3367 C 306.673 2.17014 -3.7041 0
M  V30 3368 C 305.906 3.4053 -4.10944 0
M  V30 3369 O 306.129 4.4927 -3.51444 0
M  V30 3370 O 305.063 3.29336 -5.03807 0
M  V30 3371 H 308.889 0.730657 -2.9478 0
M  V30 3372 H 306.474 0.295301 -1.46452 0
M  V30 3373 H 308.356 3.17691 -2.76858 0
M  V30 3374 H 307.031 2.79319 -1.63593 0
M  V30 3375 H 305.938 1.38403 -3.47556 0
M  V30 3376 H 307.271 1.83923 -4.56545 0
M  V30 3377 N 308.923 1.53595 0.353017 0
M  V30 3378 C 309.886 1.80232 1.41594 0
M  V30 3379 C 310.886 0.673081 1.46035 0
M  V30 3380 O 312.076 0.941335 1.46576 0
M  V30 3381 C 309.208 1.93578 2.80607 0
M  V30 3382 H 310.401 2.75174 1.19244 0
M  V30 3383 H 307.954 1.44864 0.586872 0
M  V30 3384 H 308.689 1.00746 3.08254 0
M  V30 3385 H 308.474 2.75724 2.78781 0
M  V30 3386 H 309.964 2.15735 3.57558 0
M  V30 3387 N 310.401 -0.613514 1.45168 0
M  V30 3388 C 311.333 -1.73825 1.4939 0
M  V30 3389 C 312.346 -1.58175 0.385304 0
M  V30 3390 O 313.535 -1.66165 0.652036 0
M  V30 3391 C 310.635 -3.11758 1.32891 0
M  V30 3392 C 309.808 -3.53704 2.57317 0
M  V30 3393 C 308.867 -4.70579 2.35462 0
M  V30 3394 O 307.893 -4.77996 3.09044 0
M  V30 3395 N 309.095 -5.63454 1.39644 0
M  V30 3396 H 311.86 -1.70669 2.46358 0
M  V30 3397 H 309.421 -0.79862 1.40832 0
M  V30 3398 H 311.413 -3.87692 1.1609 0
M  V30 3399 H 309.983 -3.09456 0.442218 0
M  V30 3400 H 309.203 -2.67794 2.89275 0
M  V30 3401 H 310.491 -3.78486 3.40038 0
M  V30 3402 H 309.889 -5.6017 0.789062 0
M  V30 3403 H 308.446 -6.38944 1.28816 0
M  V30 3404 N 311.879 -1.3236 -0.855495 0
M  V30 3405 C 312.842 -1.21164 -1.94556 0
M  V30 3406 C 313.842 -0.134908 -1.60233 0
M  V30 3407 O 315.032 -0.385249 -1.69887 0
M  V30 3408 C 312.164 -0.863192 -3.29791 0
M  V30 3409 H 313.357 -2.18038 -2.05911 0
M  V30 3410 H 310.91 -1.16179 -1.04557 0
M  V30 3411 H 311.645 0.103769 -3.24134 0
M  V30 3412 H 311.43 -1.64166 -3.56078 0
M  V30 3413 H 312.92 -0.809156 -4.09686 0
M  V30 3414 N 313.357 1.07166 -1.15556 0
M  V30 3415 C 314.267 2.17947 -0.868116 0
M  V30 3416 C 315.283 1.73297 0.156297 0
M  V30 3417 O 316.459 2.01392 -0.0182327 0
M  V30 3418 C 313.524 3.44789 -0.36355 0
M  V30 3419 C 312.585 4.03996 -1.45209 0
M  V30 3420 C 311.818 5.24783 -0.971508 0
M  V30 3421 O 312.041 5.70109 0.182194 0
M  V30 3422 O 310.975 5.75715 -1.75603 0
M  V30 3423 H 314.801 2.4503 -1.79427 0
M  V30 3424 H 312.386 1.16539 -0.934824 0
M  V30 3425 H 314.268 4.21307 -0.0887113 0
M  V30 3426 H 312.943 3.19253 0.534708 0
M  V30 3427 H 311.85 3.29009 -1.78056 0
M  V30 3428 H 313.183 4.33808 -2.32533 0
M  V30 3429 N 314.835 0.952656 1.25548 0
M  V30 3430 C 315.782 0.47008 2.25962 0
M  V30 3431 C 316.752 -0.476384 1.59122 0
M  V30 3432 O 317.937 -0.39007 1.8677 0
M  V30 3433 C 315.077 -0.247881 3.44209 0
M  V30 3434 C 314.19 0.735591 4.25691 0
M  V30 3435 C 313.325 -0.0047306 5.312 0
M  V30 3436 C 312.364 0.969805 6.04368 0
M  V30 3437 N 311.501 0.260486 7.01617 0
M  V30 3438 H 316.341 1.33126 2.66611 0
M  V30 3439 H 313.878 0.66765 1.31076 0
M  V30 3440 H 315.836 -0.680695 4.1161 0
M  V30 3441 H 314.466 -1.07312 3.0444 0
M  V30 3442 H 313.518 1.28689 3.57971 0
M  V30 3443 H 314.83 1.47934 4.76358 0
M  V30 3444 H 313.984 -0.496275 6.04667 0
M  V30 3445 H 312.723 -0.781282 4.81401 0
M  V30 3446 H 311.728 1.47237 5.29718 0
M  V30 3447 H 312.953 1.74655 6.56256 0
M  V30 3448 H 310.899 -0.497364 6.54112 0
M  V30 3449 H 310.816 0.943362 7.50091 0
M  V30 3450 H 312.084 -0.209587 7.79218 0
M  V30 3451 N 316.313 -1.40141 0.720998 0
M  V30 3452 C 317.543 -2.04798 0.27226 0
M  V30 3453 C 317.951 -1.54442 -1.09289 0
M  V30 3454 O 317.294 -0.698342 -1.69908 0
M  V30 3455 C 317.356 -3.59048 0.18027 0
M  V30 3456 C 317.02 -4.32317 1.48159 0
M  V30 3457 C 318.017 -4.59902 2.42458 0
M  V30 3458 C 315.702 -4.71125 1.74202 0
M  V30 3459 C 317.696 -5.25288 3.61042 0
M  V30 3460 C 315.383 -5.36242 2.93066 0
M  V30 3461 C 316.381 -5.63254 3.86308 0
M  V30 3462 O 316.069 -6.27024 5.03086 0
M  V30 3463 H 315.801 -0.665419 0.119139 0
M  V30 3464 H 318.355 -1.80436 0.981432 0
M  V30 3465 H 316.585 -3.82251 -0.58489 0
M  V30 3466 H 318.274 -4.05221 -0.234618 0
M  V30 3467 H 319.04 -4.30379 2.23604 0
M  V30 3468 H 314.919 -4.49466 1.02477 0
M  V30 3469 H 318.463 -5.46289 4.33837 0
M  V30 3470 H 314.36 -5.65185 3.11826 0
M  V30 3471 H 315.128 -6.4552 5.03235 0
M  V30 3472 N 317.792 -0.46758 -1.50504 0
M  V30 3473 C 319.017 0.0886943 -2.0721 0
M  V30 3474 C 319.442 1.33057 -1.32956 0
M  V30 3475 O 318.8 1.77354 -0.376197 0
M  V30 3476 C 318.848 0.359202 -3.58806 0
M  V30 3477 O 317.952 1.44034 -3.8643 0
M  V30 3478 H 317.293 -0.0114349 -0.663902 0
M  V30 3479 H 319.823 -0.657613 -1.93744 0
M  V30 3480 H 319.833 0.600742 -4.03553 0
M  V30 3481 H 318.508 -0.548311 -4.1227 0
M  V30 3482 H 317.085 1.18638 -3.53524 0
M  V30 3483 N 319.27 1.56325 -0.20005 0
M  V30 3484 C 320.202 2.16555 0.750771 0
M  V30 3485 C 321.215 1.12871 1.1732 0
M  V30 3486 O 322.404 1.39943 1.10807 0
M  V30 3487 C 319.504 2.71684 2.02586 0
M  V30 3488 C 318.677 4.00321 1.76244 0
M  V30 3489 C 317.736 4.40227 2.88248 0
M  V30 3490 O 316.762 5.07552 2.57642 0
M  V30 3491 N 317.964 4.04138 4.16717 0
M  V30 3492 H 320.729 2.98772 0.235685 0
M  V30 3493 H 318.29 1.6189 -0.0182594 0
M  V30 3494 H 320.282 2.95363 2.76664 0
M  V30 3495 H 318.852 1.93893 2.45202 0
M  V30 3496 H 318.072 3.84723 0.85919 0
M  V30 3497 H 319.36 4.84279 1.56048 0
M  V30 3498 H 318.758 3.49993 4.44434 0
M  V30 3499 H 317.315 4.32756 4.87407 0
M  V30 3500 N 320.748 -0.0735177 1.57428 0
M  V30 3501 C 321.695 -1.08756 2.0357 0
M  V30 3502 C 322.665 -1.38559 0.916 0
M  V30 3503 O 323.85 -1.49656 1.18354 0
M  V30 3504 C 320.99 -2.39657 2.48311 0
M  V30 3505 C 320.103 -2.16399 3.73892 0
M  V30 3506 C 319.238 -3.40852 4.07423 0
M  V30 3507 C 318.277 -3.1295 5.2605 0
M  V30 3508 N 317.414 -4.29729 5.55228 0
M  V30 3509 H 322.254 -0.687104 2.8997 0
M  V30 3510 H 319.791 -0.327709 1.43403 0
M  V30 3511 H 321.749 -3.16081 2.72303 0
M  V30 3512 H 320.379 -2.77508 1.64891 0
M  V30 3513 H 319.431 -1.30676 3.57251 0
M  V30 3514 H 320.743 -1.91788 4.60455 0
M  V30 3515 H 319.897 -4.25671 4.32306 0
M  V30 3516 H 318.636 -3.68537 3.19425 0
M  V30 3517 H 317.641 -2.26526 5.00965 0
M  V30 3518 H 318.866 -2.86589 6.15665 0
M  V30 3519 H 316.812 -4.57448 4.70188 0
M  V30 3520 H 316.729 -4.08385 6.36206 0
M  V30 3521 H 317.997 -5.1555 5.84661 0
M  V30 3522 N 322.226 -1.5378 -0.344866 0
M  V30 3523 C 323.136 -1.84667 -1.4469 0
M  V30 3524 C 324.152 -0.736704 -1.57635 0
M  V30 3525 O 325.328 -1.02888 -1.73136 0
M  V30 3526 C 322.393 -2.04869 -2.79696 0
M  V30 3527 C 321.454 -3.28731 -2.76106 0
M  V30 3528 C 320.687 -3.4796 -4.04673 0
M  V30 3529 O 320.91 -2.71052 -5.01883 0
M  V30 3530 O 319.844 -4.41383 -4.09224 0
M  V30 3531 H 323.67 -2.78334 -1.21506 0
M  V30 3532 H 321.255 -1.39418 -0.536921 0
M  V30 3533 H 323.137 -2.19609 -3.59652 0
M  V30 3534 H 321.812 -1.14391 -3.02814 0
M  V30 3535 H 320.719 -3.19396 -1.94774 0
M  V30 3536 H 322.052 -4.19198 -2.57941 0
M  V30 3537 N 323.704 0.605807 -1.45491 0
M  V30 3538 C 324.981 1.36522 -1.40075 0
M  V30 3539 C 325.361 2.10976 -0.0722744 0
M  V30 3540 O 324.709 2.08007 0.945808 0
M  V30 3541 C 324.919 2.31056 -2.61561 0
M  V30 3542 C 326.267 2.93608 -3.06724 0
M  V30 3543 O 327.291 2.41376 -2.61946 0
M  V30 3544 O 326.15 3.88421 -3.84437 0
M  V30 3545 H 323.244 0.612248 -0.555951 0
M  V30 3546 H 325.79 0.628747 -1.57623 0
M  V30 3547 H 324.562 1.75311 -3.49831 0
M  V30 3548 H 324.185 3.12081 -2.46356 0
M  V30 3549 N 325.182 1.32811 0.848464 0
M  V30 3550 C 326.129 1.22265 1.95755 0
M  V30 3551 C 327.099 0.103413 1.65778 0
M  V30 3552 O 328.284 0.280033 1.88734 0
M  V30 3553 C 325.424 0.958014 3.31536 0
M  V30 3554 C 324.537 2.16262 3.73971 0
M  V30 3555 C 323.672 1.83295 4.98575 0
M  V30 3556 C 322.711 3.00041 5.33518 0
M  V30 3557 N 321.848 2.67125 6.49299 0
M  V30 3558 H 326.688 2.17128 2.04107 0
M  V30 3559 H 324.225 1.07982 0.998913 0
M  V30 3560 H 326.183 0.785052 4.09747 0
M  V30 3561 H 324.813 0.046159 3.22767 0
M  V30 3562 H 323.865 2.44565 2.91362 0
M  V30 3563 H 325.177 3.03572 3.95785 0
M  V30 3564 H 324.331 1.62586 5.84509 0
M  V30 3565 H 323.07 0.932078 4.7871 0
M  V30 3566 H 322.075 3.21374 4.46093 0
M  V30 3567 H 323.3 3.90869 5.55336 0
M  V30 3568 H 321.246 1.79586 6.3094 0
M  V30 3569 H 321.163 3.47965 6.71161 0
M  V30 3570 H 322.431 2.49861 7.3837 0
M  V30 3571 N 326.66 -1.06551 1.16123 0
M  V30 3572 C 327.89 -1.8274 0.963838 0
M  V30 3573 C 328.298 -1.82712 -0.491228 0
M  V30 3574 O 327.641 -1.24294 -1.35265 0
M  V30 3575 C 327.703 -3.3065 1.41106 0
M  V30 3576 C 327.367 -3.54384 2.88549 0
M  V30 3577 C 328.364 -3.4765 3.86569 0
M  V30 3578 C 326.049 -3.81789 3.26408 0
M  V30 3579 C 328.043 -3.67982 5.2045 0
M  V30 3580 C 325.73 -4.01772 4.60459 0
M  V30 3581 C 326.728 -3.94866 5.57288 0
M  V30 3582 O 326.416 -4.14306 6.88916 0
M  V30 3583 H 326.148 -0.583136 0.341948 0
M  V30 3584 H 328.702 -1.35351 1.54497 0
M  V30 3585 H 326.932 -3.78887 0.773394 0
M  V30 3586 H 328.621 -3.88324 1.1815 0
M  V30 3587 H 329.387 -3.2647 3.58667 0
M  V30 3588 H 325.266 -3.86276 2.51619 0
M  V30 3589 H 328.81 -3.62507 5.96015 0
M  V30 3590 H 324.707 -4.2244 4.88072 0
M  V30 3591 H 325.475 -4.31609 6.95454 0
M  V30 3592 N 328.138 -0.959301 -1.25041 0
M  V30 3593 C 329.048 -0.489994 -2.29426 0
M  V30 3594 C 330.064 0.444944 -1.68215 0
M  V30 3595 O 331.24 0.320046 -1.98841 0
M  V30 3596 C 328.305 0.220309 -3.45999 0
M  V30 3597 C 327.366 -0.753418 -4.22637 0
M  V30 3598 C 326.599 -0.076918 -5.33645 0
M  V30 3599 O 326.822 1.13649 -5.58963 0
M  V30 3600 O 325.756 -0.764824 -5.97021 0
M  V30 3601 H 329.582 -1.35755 -2.71669 0
M  V30 3602 H 327.167 -0.725961 -1.30576 0
M  V30 3603 H 329.049 0.619677 -4.16819 0
M  V30 3604 H 327.724 1.06296 -3.0575 0
M  V30 3605 H 326.631 -1.20308 -3.54227 0
M  V30 3606 H 327.964 -1.56423 -4.66683 0
M  V30 3607 N 329.616 1.39756 -0.72842 0
M  V30 3608 C 330.526 2.34444 -0.0855374 0
M  V30 3609 C 331.542 1.57976 0.729356 0
M  V30 3610 O 332.718 1.90301 0.659346 0
M  V30 3611 C 329.783 3.36965 0.815798 0
M  V30 3612 C 328.844 4.29299 -0.0105996 0
M  V30 3613 C 328.077 5.26923 0.84781 0
M  V30 3614 O 328.3 5.30859 2.08673 0
M  V30 3615 O 327.234 6.01249 0.279969 0
M  V30 3616 H 331.06 2.91065 -0.866892 0
M  V30 3617 H 328.645 1.4117 -0.48902 0
M  V30 3618 H 330.527 3.99804 1.33171 0
M  V30 3619 H 329.202 2.82739 1.57608 0
M  V30 3620 H 328.109 3.69703 -0.571877 0
M  V30 3621 H 329.442 4.86712 -0.73295 0
M  V30 3622 N 331.094 0.475555 1.50254 0
M  V30 3623 C 332.004 -0.321501 2.32387 0
M  V30 3624 C 333.02 -0.991755 1.42969 0
M  V30 3625 O 334.196 -0.978747 1.76018 0
M  V30 3626 C 331.261 -1.38667 3.17762 0
M  V30 3627 C 330.322 -0.732538 4.23004 0
M  V30 3628 C 329.555 -1.74695 5.04299 0
M  V30 3629 O 329.778 -2.97399 4.86734 0
M  V30 3630 O 328.712 -1.31631 5.8733 0
M  V30 3631 H 332.538 0.350071 3.01676 0
M  V30 3632 H 330.123 0.237321 1.47503 0
M  V30 3633 H 332.005 -2.00354 3.70724 0
M  V30 3634 H 330.68 -2.04163 2.51196 0
M  V30 3635 H 329.587 -0.0765902 3.74022 0
M  V30 3636 H 330.92 -0.120452 4.92053 0
M  V30 3637 N 332.573 -1.56217 0.208337 0
M  V30 3638 C 333.822 -1.97124 -0.427204 0
M  V30 3639 C 334.135 -1.09859 -1.61835 0
M  V30 3640 O 335.341 -1.40606 -2.32255 0
M  V30 3641 C 333.797 -3.50633 -0.811442 0
M  V30 3642 C 333.405 -4.46582 0.35615 0
M  V30 3643 C 335.149 -4.00282 -1.41332 0
M  V30 3644 C 333.056 -5.91379 -0.0497852 0
M  V30 3645 H 331.986 -0.736086 -0.163381 0
M  V30 3646 H 334.637 -1.8099 0.302456 0
M  V30 3647 H 333.019 -3.62319 -1.59815 0
M  V30 3648 H 334.193 -4.46636 1.1337 0
M  V30 3649 H 332.508 -4.07202 0.870396 0
M  V30 3650 H 335.105 -5.0595 -1.72972 0
M  V30 3651 H 335.448 -3.45359 -2.32449 0
M  V30 3652 H 335.981 -3.91764 -0.690323 0
M  V30 3653 H 332.72 -6.50255 0.827529 0
M  V30 3654 H 332.24 -5.94549 -0.791926 0
M  V30 3655 H 333.919 -6.45209 -0.481042 0
M  V30 3656 N 334.051 0.0651679 -1.57465 0
M  V30 3657 C 334.998 1.07675 -2.04144 0
M  V30 3658 C 335.968 1.38071 -0.923335 0
M  V30 3659 O 337.153 1.49026 -1.19146 0
M  V30 3660 C 334.293 2.38337 -2.49579 0
M  V30 3661 C 333.406 2.14413 -3.75035 0
M  V30 3662 C 332.541 3.38686 -4.09225 0
M  V30 3663 C 331.58 3.10156 -5.27702 0
M  V30 3664 N 330.717 4.26778 -5.57499 0
M  V30 3665 H 335.557 0.671716 -2.90331 0
M  V30 3666 H 333.094 0.3201 -1.43575 0
M  V30 3667 H 335.052 3.14632 -2.73975 0
M  V30 3668 H 333.682 2.7663 -1.6636 0
M  V30 3669 H 332.734 1.2878 -3.57939 0
M  V30 3670 H 334.046 1.89344 -4.61466 0
M  V30 3671 H 333.2 4.23373 -4.34558 0
M  V30 3672 H 331.939 3.66837 -3.21374 0
M  V30 3673 H 330.944 2.23866 -5.02159 0
M  V30 3674 H 332.169 2.8332 -6.17176 0
M  V30 3675 H 330.115 4.54948 -4.72608 0
M  V30 3676 H 330.032 4.05005 -6.38362 0
M  V30 3677 H 331.3 5.12443 -5.87386 0
M  V30 3678 N 335.529 1.53961 0.336706 0
M  V30 3679 C 336.778 1.70751 1.07363 0
M  V30 3680 C 337.091 0.481061 1.89592 0
M  V30 3681 O 338.297 0.530046 2.66276 0
M  V30 3682 C 336.753 3.01965 1.95818 0
M  V30 3683 C 336.361 4.31971 1.18764 0
M  V30 3684 C 338.105 3.28121 2.69327 0
M  V30 3685 C 336.012 5.54255 2.06289 0
M  V30 3686 H 334.942 0.636292 0.404535 0
M  V30 3687 H 337.593 1.80459 0.332681 0
M  V30 3688 H 335.975 2.86132 2.7376 0
M  V30 3689 H 337.149 4.5853 0.456849 0
M  V30 3690 H 335.464 4.12481 0.569946 0
M  V30 3691 H 338.061 4.16673 3.35094 0
M  V30 3692 H 338.404 2.45426 3.36261 0
M  V30 3693 H 338.937 3.44762 1.98454 0
M  V30 3694 H 335.676 6.39513 1.43885 0
M  V30 3695 H 335.196 5.31935 2.77138 0
M  V30 3696 H 336.875 5.90159 2.65182 0
M  V30 3697 N 337.007 -0.598083 1.45811 0
M  V30 3698 C 337.937 -1.71873 1.58057 0
M  V30 3699 C 338.918 -1.64533 0.431615 0
M  V30 3700 O 340.103 -1.82787 0.65595 0
M  V30 3701 C 337.233 -3.10495 1.55597 0
M  V30 3702 C 336.187 -3.32654 2.69305 0
M  V30 3703 C 335.513 -4.71646 2.51902 0
M  V30 3704 C 336.813 -3.21981 4.11248 0
M  V30 3705 H 338.507 -1.61881 2.51863 0
M  V30 3706 H 336.053 -0.777372 1.21214 0
M  V30 3707 H 338.006 -3.88699 1.6276 0
M  V30 3708 H 336.73 -3.2135 0.583255 0
M  V30 3709 H 335.389 -2.56843 2.61586 0
M  V30 3710 H 335.037 -4.79246 1.52748 0
M  V30 3711 H 334.737 -4.87426 3.2816 0
M  V30 3712 H 336.261 -5.52038 2.60933 0
M  V30 3713 H 337.675 -3.90049 4.20161 0
M  V30 3714 H 336.072 -3.49289 4.87972 0
M  V30 3715 H 337.142 -2.1928 4.32486 0
M  V30 3716 N 338.485 -1.33259 -0.841409 0
M  V30 3717 C 339.713 -1.27605 -1.62864 0
M  V30 3718 C 340.128 0.153507 -1.88175 0
M  V30 3719 O 339.485 1.09485 -1.46011 0
M  V30 3720 C 339.536 -2.04596 -2.98031 0
M  V30 3721 O 339.257 -3.41975 -2.73834 0
M  V30 3722 C 340.758 -2.06122 -3.92465 0
M  V30 3723 H 337.978 -0.439718 -0.506842 0
M  V30 3724 H 340.522 -1.75591 -1.04824 0
M  V30 3725 H 338.677 -1.60299 -3.5268 0
M  V30 3726 H 339.091 -3.81549 -3.59889 0
M  V30 3727 H 340.565 -2.64451 -4.84531 0
M  V30 3728 H 341.042 -1.05083 -4.26444 0
M  V30 3729 H 341.648 -2.50427 -3.43753 0
M  V30 3730 N 339.963 1.05934 -1.16686 0
M  V30 3731 C 341.24 1.75643 -0.860747 0
M  V30 3732 C 341.62 2.01144 0.640641 0
M  V30 3733 O 340.968 1.64147 1.58959 0
M  V30 3734 C 341.178 3.05493 -1.68745 0
M  V30 3735 C 342.526 3.79581 -1.90271 0
M  V30 3736 O 343.55 3.15344 -1.65641 0
M  V30 3737 O 342.409 4.9499 -2.31618 0
M  V30 3738 H 339.503 0.763426 -0.317977 0
M  V30 3739 H 342.049 1.1217 -1.27342 0
M  V30 3740 H 340.821 2.8264 -2.70611 0
M  V30 3741 H 340.444 3.76702 -1.27206 0
M  V30 3742 N 341.441 0.965919 1.2453 0
M  V30 3743 C 342.388 0.49402 2.25451 0
M  V30 3744 C 343.358 -0.45948 1.59618 0
M  V30 3745 O 344.543 -0.370238 1.87173 0
M  V30 3746 C 341.683 -0.211359 3.44452 0
M  V30 3747 C 340.796 0.7807 4.24887 0
M  V30 3748 C 339.931 0.0516105 5.31175 0
M  V30 3749 C 338.97 1.03385 6.03306 0
M  V30 3750 N 338.107 0.334887 7.01301 0
M  V30 3751 H 342.947 1.35946 2.65184 0
M  V30 3752 H 340.484 0.681515 1.3036 0
M  V30 3753 H 342.442 -0.637 4.12308 0
M  V30 3754 H 341.072 -1.04077 3.05562 0
M  V30 3755 H 340.124 1.32479 3.56586 0
M  V30 3756 H 341.436 1.52978 4.74762 0
M  V30 3757 H 340.59 -0.432114 6.05159 0
M  V30 3758 H 339.329 -0.730179 4.82203 0
M  V30 3759 H 338.334 1.52847 5.28127 0
M  V30 3760 H 339.559 1.81606 6.54367 0
M  V30 3761 H 337.505 -0.427959 6.54603 0
M  V30 3762 H 337.422 1.02287 7.49048 0
M  V30 3763 H 338.69 -0.126928 7.79397 0
M  V30 3764 N 342.919 -1.39368 0.735821 0
M  V30 3765 C 343.849 -2.33234 0.111506 0
M  V30 3766 C 344.83 -1.53954 -0.723334 0
M  V30 3767 O 346.015 -1.82344 -0.668147 0
M  V30 3768 C 343.145 -3.38057 -0.795917 0
M  V30 3769 C 342.099 -4.2795 -0.065172 0
M  V30 3770 C 341.425 -5.23479 -1.08967 0
M  V30 3771 C 342.725 -5.10741 1.09273 0
M  V30 3772 H 344.419 -2.85692 0.895571 0
M  V30 3773 H 341.965 -1.37364 0.432109 0
M  V30 3774 H 343.918 -4.02675 -1.24221 0
M  V30 3775 H 342.642 -2.8404 -1.61211 0
M  V30 3776 H 341.301 -3.64813 0.361511 0
M  V30 3777 H 340.949 -4.65758 -1.89944 0
M  V30 3778 H 340.649 -5.84472 -0.605489 0
M  V30 3779 H 342.173 -5.90974 -1.53565 0
M  V30 3780 H 343.587 -5.68699 0.724841 0
M  V30 3781 H 341.984 -5.8088 1.50659 0
M  V30 3782 H 343.054 -4.45525 1.91404 0
M  V30 3783 N 344.397 -0.483516 -1.5 0
M  V30 3784 C 345.344 0.304164 -2.28787 0
M  V30 3785 C 346.314 0.976114 -1.34392 0
M  V30 3786 O 347.499 0.986156 -1.63339 0
M  V30 3787 C 344.639 1.37298 -3.16612 0
M  V30 3788 C 343.752 0.714561 -4.26049 0
M  V30 3789 C 342.887 1.76232 -5.01114 0
M  V30 3790 C 341.926 1.08483 -6.0241 0
M  V30 3791 N 341.063 2.076 -6.70706 0
M  V30 3792 H 345.903 -0.373981 -2.95644 0
M  V30 3793 H 343.44 -0.196275 -1.45785 0
M  V30 3794 H 345.398 2.00445 -3.65893 0
M  V30 3795 H 344.028 2.02012 -2.51776 0
M  V30 3796 H 343.08 -0.0297798 -3.80388 0
M  V30 3797 H 344.392 0.180383 -4.98474 0
M  V30 3798 H 343.546 2.46929 -5.54176 0
M  V30 3799 H 342.285 2.33033 -4.28424 0
M  V30 3800 H 341.29 0.363545 -5.48597 0
M  V30 3801 H 342.515 0.523551 -6.77079 0
M  V30 3802 H 340.461 2.63394 -6.00799 0
M  V30 3803 H 340.378 1.59201 -7.39047 0
M  V30 3804 H 341.646 2.77639 -7.2838 0
M  V30 3805 N 345.875 1.56104 -0.216619 0
M  V30 3806 C 346.785 2.23694 0.706982 0
M  V30 3807 C 347.801 1.24295 1.21765 0
M  V30 3808 O 348.977 1.57094 1.2603 0
M  V30 3809 C 346.042 2.8998 1.90033 0
M  V30 3810 C 345.103 4.04708 1.43213 0
M  V30 3811 C 344.336 4.67824 2.56859 0
M  V30 3812 O 344.559 4.29913 3.74874 0
M  V30 3813 O 343.493 5.56905 2.28343 0
M  V30 3814 H 347.319 3.03272 0.161235 0
M  V30 3815 H 344.904 1.49394 0.0136177 0
M  V30 3816 H 346.786 3.31837 2.59735 0
M  V30 3817 H 345.461 2.13365 2.43428 0
M  V30 3818 H 344.368 3.6743 0.70327 0
M  V30 3819 H 345.701 4.83051 0.944615 0
M  V30 3820 N 347.353 -0.0568162 1.57498 0
M  V30 3821 C 348.316 -1.05038 2.03715 0
M  V30 3822 C 349.316 -1.30709 0.936577 0
M  V30 3823 O 350.506 -1.26178 1.20103 0
M  V30 3824 C 347.638 -2.39034 2.43055 0
M  V30 3825 H 348.831 -0.651715 2.92733 0
M  V30 3826 H 346.384 -0.302947 1.53336 0
M  V30 3827 H 347.119 -2.83703 1.57108 0
M  V30 3828 H 346.904 -2.21739 3.2338 0
M  V30 3829 H 348.394 -3.10421 2.79336 0
M  V30 3830 N 348.832 -1.54138 -0.328536 0
M  V30 3831 C 349.742 -1.86192 -1.42723 0
M  V30 3832 C 350.758 -0.753382 -1.56844 0
M  V30 3833 O 351.934 -1.04718 -1.72035 0
M  V30 3834 C 348.999 -2.07824 -2.77507 0
M  V30 3835 C 348.06 -3.31641 -2.72603 0
M  V30 3836 C 347.293 -3.52232 -4.00959 0
M  V30 3837 O 347.516 -2.7636 -4.9898 0
M  V30 3838 O 346.45 -4.45699 -4.0452 0
M  V30 3839 H 350.276 -2.79608 -1.18547 0
M  V30 3840 H 347.861 -1.3998 -0.522104 0
M  V30 3841 H 349.743 -2.23411 -3.57303 0
M  V30 3842 H 348.418 -1.17596 -3.01584 0
M  V30 3843 H 347.325 -3.21444 -1.91376 0
M  V30 3844 H 348.658 -4.2191 -2.53481 0
M  V30 3845 N 350.31 0.590341 -1.46126 0
M  V30 3846 C 351.538 1.37504 -1.54597 0
M  V30 3847 C 351.953 1.87897 -0.184447 0
M  V30 3848 O 351.31 1.63192 0.816984 0
M  V30 3849 C 351.361 2.56779 -2.54454 0
M  V30 3850 O 351.082 2.08476 -3.85317 0
M  V30 3851 C 352.583 3.49427 -2.72792 0
M  V30 3852 H 349.803 0.420325 -0.523037 0
M  V30 3853 H 352.347 0.718383 -1.91467 0
M  V30 3854 H 350.502 3.1845 -2.20609 0
M  V30 3855 H 350.916 2.86097 -4.396 0
M  V30 3856 H 352.39 4.29619 -3.466 0
M  V30 3857 H 352.867 4.00876 -1.79429 0
M  V30 3858 H 353.473 2.93598 -3.07702 0
M  V30 3859 N 351.788 1.33704 0.83433 0
M  V30 3860 C 353.204 1.13137 1.12571 0
M  V30 3861 C 353.404 -0.0747261 2.01361 0
M  V30 3862 O 352.46 -0.753647 2.4099 0
M  V30 3863 C 353.773 2.42105 1.78342 0
M  V30 3864 C 355.321 2.48054 1.90888 0
M  V30 3865 C 355.796 3.76995 2.60075 0
M  V30 3866 N 357.287 3.78092 2.67584 0
M  V30 3867 C 358.022 4.74574 3.21818 0
M  V30 3868 N 357.518 5.81434 3.76705 0
M  V30 3869 N 359.311 4.62044 3.20112 0
M  V30 3870 H 351.462 2.11 0.243489 0
M  V30 3871 H 353.725 0.932532 0.17055 0
M  V30 3872 H 353.431 3.30391 1.20561 0
M  V30 3873 H 353.305 2.54594 2.7832 0
M  V30 3874 H 355.692 1.60215 2.47821 0
M  V30 3875 H 355.773 2.39502 0.898459 0
M  V30 3876 H 355.417 4.65219 2.03799 0
M  V30 3877 H 355.347 3.82825 3.61597 0
M  V30 3878 H 357.838 3.00865 2.28667 0
M  V30 3879 H 358.151 6.51084 4.16305 0
M  V30 3880 H 356.496 5.85163 3.7498 0
M  V30 3881 H 359.687 3.77716 2.76493 0
M  V30 3882 H 359.86 5.37406 3.62076 0
M  V30 3883 N 353.266 -1.05314 1.17247 0
M  V30 3884 C 354.229 -2.112 0.890357 0
M  V30 3885 C 355.229 -1.60359 -0.118943 0
M  V30 3886 O 356.419 -1.73833 0.113086 0
M  V30 3887 C 353.551 -3.39266 0.333422 0
M  V30 3888 H 354.744 -2.37659 1.82916 0
M  V30 3889 H 352.297 -1.21538 0.982758 0
M  V30 3890 H 353.032 -3.18462 -0.612587 0
M  V30 3891 H 352.817 -3.77477 1.06082 0
M  V30 3892 H 354.307 -4.17315 0.154322 0
M  V30 3893 N 354.744 -0.972509 -1.24016 0
M  V30 3894 C 355.654 -0.5143 -2.28893 0
M  V30 3895 C 356.67 0.427078 -1.68677 0
M  V30 3896 O 357.846 0.298939 -1.99169 0
M  V30 3897 C 354.911 0.183598 -3.46214 0
M  V30 3898 C 353.972 -0.798202 -4.21814 0
M  V30 3899 C 353.205 -0.133514 -5.33533 0
M  V30 3900 O 353.428 1.07714 -5.60137 0
M  V30 3901 O 352.362 -0.828103 -5.96176 0
M  V30 3902 H 356.188 -1.38629 -2.70214 0
M  V30 3903 H 353.773 -0.739769 -1.29799 0
M  V30 3904 H 355.655 0.575433 -4.17453 0
M  V30 3905 H 354.33 1.03048 -3.0686 0
M  V30 3906 H 353.237 -1.24059 -3.52931 0
M  V30 3907 H 354.57 -1.61364 -4.64997 0
M  V30 3908 N 356.222 1.38976 -0.743202 0
M  V30 3909 C 357.469 2.00343 -0.294752 0
M  V30 3910 C 357.797 1.58983 1.12047 0
M  V30 3911 O 357.052 0.813809 1.77977 0
M  V30 3912 C 357.351 3.55647 -0.353517 0
M  V30 3913 C 357.017 4.16685 -1.72292 0
M  V30 3914 C 355.679 4.3307 -2.09771 0
M  V30 3915 C 358.031 4.50464 -2.62168 0
M  V30 3916 C 355.359 4.80526 -3.36618 0
M  V30 3917 C 357.711 4.99332 -3.88395 0
M  V30 3918 C 356.375 5.13924 -4.25956 0
M  V30 3919 H 355.645 0.733108 -0.107857 0
M  V30 3920 H 358.292 1.6618 -0.951651 0
M  V30 3921 H 356.597 3.89884 0.386954 0
M  V30 3922 H 358.294 4.00998 0.0117269 0
M  V30 3923 H 354.884 4.04339 -1.42155 0
M  V30 3924 H 359.068 4.37416 -2.3448 0
M  V30 3925 H 354.324 4.90008 -3.65653 0
M  V30 3926 H 358.498 5.2444 -4.58187 0
M  V30 3927 H 356.125 5.50457 -5.2431 0
M  V30 3928 N 357.7 0.491464 1.49741 0
M  V30 3929 C 358.663 -0.280906 2.27472 0
M  V30 3930 C 359.663 -0.902454 1.33088 0
M  V30 3931 O 360.853 -0.768465 1.56334 0
M  V30 3932 C 357.985 -1.40209 3.10732 0
M  V30 3933 H 359.178 0.401056 2.97206 0
M  V30 3934 H 356.731 0.246131 1.5435 0
M  V30 3935 H 357.466 -2.11849 2.45541 0
M  V30 3936 H 357.251 -0.961969 3.80117 0
M  V30 3937 H 358.741 -1.9464 3.69466 0
M  V30 3938 N 359.178 -1.55987 0.224894 0
M  V30 3939 C 360.088 -2.24066 -0.69511 0
M  V30 3940 C 361.104 -1.24939 -1.21104 0
M  V30 3941 O 362.28 -1.5776 -1.25195 0
M  V30 3942 C 359.345 -2.90983 -1.88493 0
M  V30 3943 C 358.406 -4.05462 -1.41064 0
M  V30 3944 C 357.639 -4.69179 -2.54375 0
M  V30 3945 O 357.862 -4.31895 -3.72589 0
M  V30 3946 O 356.796 -5.58108 -2.25386 0
M  V30 3947 H 360.622 -3.03353 -0.145149 0
M  V30 3948 H 358.207 -1.49399 -0.00569476 0
M  V30 3949 H 360.089 -3.33209 -2.57972 0
M  V30 3950 H 358.764 -2.14653 -2.42293 0
M  V30 3951 H 357.671 -3.67798 -0.683774 0
M  V30 3952 H 359.004 -4.83545 -0.918985 0
M  V30 3953 N 360.656 0.0484629 -1.57525 0
M  V30 3954 C 362.072 0.40375 -1.54409 0
M  V30 3955 C 362.272 1.77786 -0.948384 0
M  V30 3956 O 361.328 2.46189 -0.560983 0
M  V30 3957 C 362.641 0.323394 -2.98956 0
M  V30 3958 C 364.189 0.401892 -3.10409 0
M  V30 3959 C 364.664 0.351195 -4.56652 0
M  V30 3960 N 366.155 0.410576 -4.61377 0
M  V30 3961 C 366.89 0.393933 -5.72045 0
M  V30 3962 N 366.386 0.330724 -6.9201 0
M  V30 3963 N 368.179 0.442227 -5.60358 0
M  V30 3964 H 360.33 -0.851016 -1.94606 0
M  V30 3965 H 362.593 -0.321721 -0.89174 0
M  V30 3966 H 362.299 -0.62011 -3.4619 0
M  V30 3967 H 362.173 1.12463 -3.60044 0
M  V30 3968 H 364.56 1.33582 -2.63134 0
M  V30 3969 H 364.641 -0.428342 -2.52188 0
M  V30 3970 H 364.285 -0.578987 -5.04589 0
M  V30 3971 H 364.215 1.19928 -5.12762 0
M  V30 3972 H 366.706 0.462729 -3.75056 0
M  V30 3973 H 367.019 0.322592 -7.72126 0
M  V30 3974 H 365.364 0.29706 -6.94365 0
M  V30 3975 H 368.555 0.489464 -4.65534 0
M  V30 3976 H 368.728 0.425788 -6.466 0
M  V30 3977 N 362.134 1.5431 0.320358 0
M  V30 3978 C 363.359 1.76954 1.08175 0
M  V30 3979 C 363.784 0.518193 1.80821 0
M  V30 3980 O 363.142 -0.530411 1.73368 0
M  V30 3981 C 363.19 2.96451 2.05303 0
M  V30 3982 O 362.294 2.68221 3.13259 0
M  V30 3983 H 361.635 0.586275 0.311733 0
M  V30 3984 H 364.165 2.01342 0.363676 0
M  V30 3985 H 364.175 3.23887 2.48116 0
M  V30 3986 H 362.85 3.87196 1.51829 0
M  V30 3987 H 361.427 2.51744 2.75099 0
M  V30 3988 N 363.613 -0.582584 1.46437 0
M  V30 3989 C 364.859 -1.34278 1.51978 0
M  V30 3990 C 365.192 -1.93446 0.170973 0
M  V30 3991 O 364.467 -1.76481 -0.817608 0
M  V30 3992 C 364.75 -2.47203 2.61845 0
M  V30 3993 C 364.603 -1.93069 4.06257 0
M  V30 3994 C 365.922 -3.49247 2.67795 0
M  V30 3995 H 363.041 -0.486876 0.553282 0
M  V30 3996 H 365.683 -0.654437 1.78374 0
M  V30 3997 H 363.833 -3.0592 2.39469 0
M  V30 3998 H 365.505 -1.38808 4.3992 0
M  V30 3999 H 363.748 -1.23898 4.1573 0
M  V30 4000 H 364.419 -2.74586 4.7886 0
M  V30 4001 H 366.895 -3.00411 2.8791 0
M  V30 4002 H 365.771 -4.25719 3.46489 0
M  V30 4003 H 366.032 -4.06482 1.73852 0
M  V30 4004 N 365.091 -1.34144 -0.827227 0
M  V30 4005 C 366.054 -1.25264 -1.91942 0
M  V30 4006 C 367.054 -0.168866 -1.59911 0
M  V30 4007 O 368.244 -0.421198 -1.69031 0
M  V30 4008 C 365.376 -0.932952 -3.27885 0
M  V30 4009 H 366.569 -2.22357 -2.0124 0
M  V30 4010 H 364.122 -1.1837 -1.0207 0
M  V30 4011 H 364.857 0.0349917 -3.24281 0
M  V30 4012 H 364.642 -1.71682 -3.52516 0
M  V30 4013 H 366.132 -0.895874 -4.07877 0
M  V30 4014 N 366.569 1.04691 -1.17803 0
M  V30 4015 C 367.516 2.12557 -0.899343 0
M  V30 4016 C 368.486 1.65339 0.158771 0
M  V30 4017 O 369.671 1.90789 0.0204797 0
M  V30 4018 C 366.811 3.42481 -0.424315 0
M  V30 4019 C 365.924 4.03346 -1.54713 0
M  V30 4020 C 365.059 5.21208 -1.02546 0
M  V30 4021 C 364.098 5.74089 -2.12339 0
M  V30 4022 N 363.235 6.83247 -1.61612 0
M  V30 4023 H 368.075 2.35734 -1.823 0
M  V30 4024 H 365.612 1.1564 -0.909159 0
M  V30 4025 H 367.57 4.16996 -0.130421 0
M  V30 4026 H 366.2 3.19471 0.462377 0
M  V30 4027 H 365.252 3.2622 -1.95664 0
M  V30 4028 H 366.564 4.38628 -2.37501 0
M  V30 4029 H 365.718 6.02812 -0.685718 0
M  V30 4030 H 364.457 4.87414 -0.167084 0
M  V30 4031 H 363.462 4.91111 -2.47165 0
M  V30 4032 H 364.687 6.0993 -2.98601 0
M  V30 4033 H 362.633 6.5134 -0.780533 0
M  V30 4034 H 362.55 7.17559 -2.38003 0
M  V30 4035 H 363.818 7.68491 -1.30545 0
M  V30 4036 N 368.047 0.979072 1.23499 0
M  V30 4037 C 368.977 0.537606 2.27227 0
M  V30 4038 C 369.958 -0.428539 1.64613 0
M  V30 4039 O 371.143 -0.322191 1.91509 0
M  V30 4040 C 368.273 -0.162052 3.46922 0
M  V30 4041 C 367.227 0.721242 4.21879 0
M  V30 4042 C 366.553 -0.110555 5.34586 0
M  V30 4043 C 367.853 2.01141 4.82016 0
M  V30 4044 H 369.547 1.40462 2.64406 0
M  V30 4045 H 367.093 0.67684 1.27102 0
M  V30 4046 H 369.046 -0.482192 4.18632 0
M  V30 4047 H 367.77 -1.06351 3.08799 0
M  V30 4048 H 366.429 1.02482 3.51984 0
M  V30 4049 H 366.077 -1.0125 4.92704 0
M  V30 4050 H 365.777 0.477325 5.85658 0
M  V30 4051 H 367.301 -0.425107 6.09118 0
M  V30 4052 H 368.715 1.75612 5.45741 0
M  V30 4053 H 367.112 2.54695 5.43369 0
M  V30 4054 H 368.182 2.69909 4.02836 0
M  V30 4055 N 369.525 -1.3858 0.750561 0
M  V30 4056 C 370.435 -2.34278 0.122825 0
M  V30 4057 C 371.451 -1.59116 -0.704131 0
M  V30 4058 O 372.627 -1.91326 -0.628987 0
M  V30 4059 C 369.692 -3.38221 -0.762086 0
M  V30 4060 C 368.753 -4.29227 0.078896 0
M  V30 4061 C 367.986 -5.28205 -0.763874 0
M  V30 4062 O 368.209 -5.34112 -2.00201 0
M  V30 4063 O 367.143 -6.01618 -0.18428 0
M  V30 4064 H 370.969 -2.89649 0.913088 0
M  V30 4065 H 368.554 -1.40374 0.511417 0
M  V30 4066 H 370.436 -4.01872 -1.26793 0
M  V30 4067 H 369.111 -2.85211 -1.5309 0
M  V30 4068 H 368.018 -3.68747 0.630621 0
M  V30 4069 H 369.351 -4.85484 0.810289 0
M  V30 4070 N 371.003 -0.499398 -1.49478 0
M  V30 4071 C 371.95 0.279881 -2.29097 0
M  V30 4072 C 372.92 0.961805 -1.3542 0
M  V30 4073 O 374.105 0.968777 -1.64376 0
M  V30 4074 C 371.245 1.33932 -3.18051 0
M  V30 4075 C 370.358 0.669333 -4.26783 0
M  V30 4076 C 369.493 1.70907 -5.02955 0
M  V30 4077 C 368.532 1.02087 -6.03527 0
M  V30 4078 N 367.669 2.00474 -6.7287 0
M  V30 4079 H 372.509 -0.405317 -2.95231 0
M  V30 4080 H 370.046 -0.211726 -1.45568 0
M  V30 4081 H 372.004 1.96553 -3.67998 0
M  V30 4082 H 370.634 1.9933 -2.53904 0
M  V30 4083 H 369.686 -0.0701234 -3.80335 0
M  V30 4084 H 370.998 0.127503 -4.98637 0
M  V30 4085 H 370.152 2.41037 -5.56764 0
M  V30 4086 H 368.891 2.28476 -4.30871 0
M  V30 4087 H 367.896 0.305338 -5.48951 0
M  V30 4088 H 369.121 0.451708 -6.77596 0
M  V30 4089 H 367.067 2.57007 -6.03559 0
M  V30 4090 H 366.984 1.51353 -7.40694 0
M  V30 4091 H 368.252 2.69897 -7.31284 0
M  V30 4092 N 372.481 1.55866 -0.233164 0
M  V30 4093 C 373.709 2.02998 0.399905 0
M  V30 4094 C 374.124 1.11274 1.52524 0
M  V30 4095 O 373.481 0.124528 1.82075 0
M  V30 4096 C 373.532 3.4958 0.920639 0
M  V30 4097 O 373.253 4.37808 -0.159834 0
M  V30 4098 C 374.754 4.12411 1.62578 0
M  V30 4099 H 371.974 0.664006 0.0966281 0
M  V30 4100 H 374.518 2.0143 -0.353013 0
M  V30 4101 H 372.673 3.51727 1.62379 0
M  V30 4102 H 373.087 5.23981 0.23337 0
M  V30 4103 H 374.561 5.16711 1.94201 0
M  V30 4104 H 375.038 3.5809 2.54299 0
M  V30 4105 H 375.644 4.14148 0.967553 0
M  V30 4106 N 373.959 -0.0401083 1.57549 0
M  V30 4107 C 375.208 -0.732108 1.87944 0
M  V30 4108 C 375.521 -1.77107 0.830206 0
M  V30 4109 O 376.727 -2.51488 1.02302 0
M  V30 4110 C 375.183 -1.35315 3.33494 0
M  V30 4111 C 374.791 -0.351105 4.46622 0
M  V30 4112 C 376.535 -2.02566 3.73051 0
M  V30 4113 C 374.442 -0.979859 5.83226 0
M  V30 4114 H 373.372 -0.277188 0.701201 0
M  V30 4115 H 376.023 0.0138501 1.83495 0
M  V30 4116 H 374.405 -2.14844 3.32653 0
M  V30 4117 H 375.579 0.416674 4.58912 0
M  V30 4118 H 373.894 0.218708 4.15825 0
M  V30 4119 H 376.491 -2.50441 4.72423 0
M  V30 4120 H 376.834 -2.83904 3.04474 0
M  V30 4121 H 377.367 -1.29827 3.76018 0
M  V30 4122 H 374.106 -0.206135 6.55176 0
M  V30 4123 H 373.626 -1.71774 5.74677 0
M  V30 4124 H 375.305 -1.49046 6.29599 0
M  V30 4125 N 375.437 -1.54477 -0.31217 0
M  V30 4126 C 376.714 -1.63891 -1.06767 0
M  V30 4127 C 377.094 -0.480028 -2.0557 0
M  V30 4128 O 376.442 0.524487 -2.22399 0
M  V30 4129 C 376.652 -3.01402 -1.75948 0
M  V30 4130 C 378 -3.57838 -2.28554 0
M  V30 4131 O 379.024 -3.03782 -1.85998 0
M  V30 4132 O 377.883 -4.52462 -3.06497 0
M  V30 4133 H 374.977 -0.664125 -0.492816 0
M  V30 4134 H 377.523 -1.66823 -0.311149 0
M  V30 4135 H 376.295 -3.77187 -1.04144 0
M  V30 4136 H 375.918 -3.02199 -2.58383 0
M  V30 4137 N 376.915 0.57481 -1.46744 0
M  V30 4138 C 378.192 1.3352 -1.4294 0
M  V30 4139 C 378.572 2.10775 -0.117009 0
M  V30 4140 O 377.92 2.09966 0.901474 0
M  V30 4141 C 378.13 2.25456 -2.66403 0
M  V30 4142 C 379.478 2.87035 -3.12883 0
M  V30 4143 O 380.502 2.35766 -2.67007 0
M  V30 4144 O 379.361 3.80179 -3.92589 0
M  V30 4145 H 376.455 0.600318 -0.568812 0
M  V30 4146 H 379.001 0.595171 -1.58921 0
M  V30 4147 H 377.773 1.67851 -3.53471 0
M  V30 4148 H 377.396 3.06785 -2.52921 0
M  V30 4149 N 378.394 1.34581 0.820102 0
M  V30 4150 C 379.324 1.29038 1.94606 0
M  V30 4151 C 380.305 0.1673 1.69275 0
M  V30 4152 O 381.49 0.360112 1.90832 0
M  V30 4153 C 378.62 1.04793 3.31113 0
M  V30 4154 C 377.574 2.13597 3.70891 0
M  V30 4155 C 376.9 1.74537 5.05412 0
M  V30 4156 C 378.2 3.55451 3.8269 0
M  V30 4157 H 379.894 2.23248 1.99501 0
M  V30 4158 H 377.44 1.0747 0.958449 0
M  V30 4159 H 379.393 0.995592 4.0947 0
M  V30 4160 H 378.117 0.0702565 3.26524 0
M  V30 4161 H 376.776 2.17905 2.9481 0
M  V30 4162 H 376.424 0.754226 4.97313 0
M  V30 4163 H 376.124 2.47361 5.32997 0
M  V30 4164 H 377.648 1.70803 5.86224 0
M  V30 4165 H 379.062 3.5354 4.51312 0
M  V30 4166 H 377.459 4.26922 4.21732 0
M  V30 4167 H 378.529 3.92587 2.84611 0
M  V30 4168 N 379.872 -1.04064 1.18357 0
M  V30 4169 C 380.782 -2.15569 0.925596 0
M  V30 4170 C 381.798 -1.7365 -0.110295 0
M  V30 4171 O 382.974 -2.01273 0.0716218 0
M  V30 4172 C 380.039 -3.43704 0.454836 0
M  V30 4173 C 379.1 -4.00004 1.55869 0
M  V30 4174 C 378.333 -5.22023 1.1103 0
M  V30 4175 O 378.556 -5.70392 -0.0309756 0
M  V30 4176 O 377.49 -5.70856 1.90805 0
M  V30 4177 H 381.316 -2.40187 1.8586 0
M  V30 4178 H 378.901 -1.1402 0.965394 0
M  V30 4179 H 380.783 -4.20923 0.200382 0
M  V30 4180 H 379.458 -3.20559 -0.449876 0
M  V30 4181 H 378.365 -3.24172 1.86716 0
M  V30 4182 H 379.698 -4.2749 2.43953 0
M  V30 4183 N 381.35 -0.985608 -1.22978 0
M  V30 4184 C 382.627 -0.573599 -1.87001 0
M  V30 4185 C 383.007 0.949213 -1.88555 0
M  V30 4186 O 382.355 1.82811 -1.37086 0
M  V30 4187 C 382.565 -1.18564 -3.28243 0
M  V30 4188 C 383.913 -1.28163 -4.04796 0
M  V30 4189 O 384.937 -1.13949 -3.37482 0
M  V30 4190 O 383.796 -1.50832 -5.25273 0
M  V30 4191 H 380.89 -0.193868 -0.803955 0
M  V30 4192 H 383.436 -1.08102 -1.30813 0
M  V30 4193 H 382.208 -2.22758 -3.21706 0
M  V30 4194 H 381.831 -0.663363 -3.92027 0
M  V30 4195 N 382.828 1.3818 -0.7579 0
M  V30 4196 C 383.738 2.3421 -0.135247 0
M  V30 4197 C 384.754 1.59487 0.695683 0
M  V30 4198 O 385.93 1.91657 0.618832 0
M  V30 4199 C 382.995 3.3862 0.744139 0
M  V30 4200 C 382.056 4.2918 -0.101658 0
M  V30 4201 C 381.289 5.28603 0.735851 0
M  V30 4202 O 381.512 5.35166 1.97366 0
M  V30 4203 O 380.446 6.01707 0.152372 0
M  V30 4204 H 384.272 2.8916 -0.928436 0
M  V30 4205 H 381.857 1.40101 -0.518855 0
M  V30 4206 H 383.739 4.02539 1.2466 0
M  V30 4207 H 382.414 2.86019 1.51575 0
M  V30 4208 H 381.321 3.68407 -0.650167 0
M  V30 4209 H 382.654 4.85048 -0.836024 0
M  V30 4210 N 384.306 0.507319 1.49211 0
M  V30 4211 C 385.236 -0.256939 2.32082 0
M  V30 4212 C 386.217 -0.956609 1.40652 0
M  V30 4213 O 387.402 -0.946788 1.69557 0
M  V30 4214 C 384.532 -1.31802 3.21318 0
M  V30 4215 C 383.486 -0.737855 4.21592 0
M  V30 4216 C 382.812 -1.89992 4.99807 0
M  V30 4217 C 384.112 0.275325 5.21574 0
M  V30 4218 H 385.806 0.434798 2.96226 0
M  V30 4219 H 383.352 0.210546 1.42452 0
M  V30 4220 H 385.305 -1.86045 3.78107 0
M  V30 4221 H 384.029 -2.03903 2.5513 0
M  V30 4222 H 382.688 -0.217126 3.65956 0
M  V30 4223 H 382.336 -2.60877 4.30061 0
M  V30 4224 H 382.036 -1.51777 5.6766 0
M  V30 4225 H 383.56 -2.44657 5.59442 0
M  V30 4226 H 384.974 -0.179193 5.7302 0
M  V30 4227 H 383.371 0.573649 5.97352 0
M  V30 4228 H 384.441 1.18903 4.70096 0
M  V30 4229 N 385.784 -1.5574 0.241426 0
M  V30 4230 C 387.014 -2.02913 -0.38857 0
M  V30 4231 C 387.422 -1.12014 -1.52478 0
M  V30 4232 O 386.765 -0.125903 -1.83268 0
M  V30 4233 C 386.827 -3.4636 -0.963075 0
M  V30 4234 C 386.491 -4.56982 0.0401916 0
M  V30 4235 C 387.488 -5.12941 0.847766 0
M  V30 4236 C 385.173 -5.0203 0.164699 0
M  V30 4237 C 387.167 -6.12437 1.76636 0
M  V30 4238 C 384.854 -6.01358 1.0868 0
M  V30 4239 C 385.852 -6.5644 1.88616 0
M  V30 4240 O 385.54 -7.53831 2.79273 0
M  V30 4241 H 385.272 -0.668983 -0.0971452 0
M  V30 4242 H 387.826 -2.02198 0.361248 0
M  V30 4243 H 386.056 -3.44206 -1.76235 0
M  V30 4244 H 387.745 -3.77065 -1.50257 0
M  V30 4245 H 388.511 -4.78974 0.762133 0
M  V30 4246 H 384.39 -4.58824 -0.447411 0
M  V30 4247 H 387.934 -6.55355 2.39071 0
M  V30 4248 H 383.831 -6.34746 1.17338 0
M  V30 4249 H 384.599 -7.71428 2.73572 0
M  V30 4250 N 387.262 0.0317525 -1.57568 0
M  V30 4251 C 388.225 1.01783 -2.0536 0
M  V30 4252 C 389.225 1.29203 -0.957253 0
M  V30 4253 O 390.415 1.24251 -1.22095 0
M  V30 4254 C 387.547 2.35137 -2.46827 0
M  V30 4255 H 388.74 0.605062 -2.93733 0
M  V30 4256 H 386.293 0.278514 -1.53799 0
M  V30 4257 H 387.028 2.81168 -1.61602 0
M  V30 4258 H 386.813 2.16566 -3.26866 0
M  V30 4259 H 388.303 3.05938 -2.84239 0
M  V30 4260 N 388.74 1.54641 0.303973 0
M  V30 4261 C 389.672 1.81754 1.39636 0
M  V30 4262 C 390.685 0.70035 1.46966 0
M  V30 4263 O 391.874 0.97778 1.49338 0
M  V30 4264 C 388.974 1.93785 2.7803 0
M  V30 4265 C 388.147 3.24156 2.93669 0
M  V30 4266 C 387.206 3.26641 4.12544 0
M  V30 4267 O 386.232 4.00187 4.04771 0
M  V30 4268 N 387.434 2.5182 5.23036 0
M  V30 4269 H 390.199 2.76031 1.16734 0
M  V30 4270 H 387.76 1.54178 0.494033 0
M  V30 4271 H 389.752 1.92852 3.55795 0
M  V30 4272 H 388.322 1.06515 2.93893 0
M  V30 4273 H 387.542 3.37887 2.03042 0
M  V30 4274 H 388.83 4.10195 3.01027 0
M  V30 4275 H 388.228 1.91692 5.32232 0
M  V30 4276 H 386.785 2.56644 5.99147 0
M  V30 4277 N 390.218 -0.567019 1.47046 0
M  V30 4278 C 391.165 -1.67489 1.58796 0
M  V30 4279 C 392.135 -1.60399 0.43144 0
M  V30 4280 O 393.32 -1.79378 0.650233 0
M  V30 4281 C 390.46 -3.05821 1.59899 0
M  V30 4282 C 389.573 -3.2342 2.86397 0
M  V30 4283 C 388.708 -4.52093 2.789 0
M  V30 4284 C 387.747 -4.6309 4.00267 0
M  V30 4285 N 386.884 -5.83106 3.91064 0
M  V30 4286 H 391.724 -1.56785 2.53422 0
M  V30 4287 H 389.261 -0.763896 1.2571 0
M  V30 4288 H 391.219 -3.8591 1.58522 0
M  V30 4289 H 389.849 -3.15384 0.687929 0
M  V30 4290 H 388.901 -2.3683 2.97684 0
M  V30 4291 H 390.213 -3.27412 3.76301 0
M  V30 4292 H 389.367 -5.4043 2.75718 0
M  V30 4293 H 388.106 -4.50565 1.86662 0
M  V30 4294 H 387.111 -3.73168 4.03765 0
M  V30 4295 H 388.336 -4.66386 4.93621 0
M  V30 4296 H 386.282 -5.82546 3.01623 0
M  V30 4297 H 386.199 -5.88434 4.74638 0
M  V30 4298 H 387.467 -6.73831 3.91882 0
M  V30 4299 N 391.696 -1.35014 -0.812953 0
M  V30 4300 C 392.626 -1.30069 -1.93919 0
M  V30 4301 C 393.607 -0.176275 -1.69184 0
M  V30 4302 O 394.792 -0.370227 -1.90638 0
M  V30 4303 C 391.922 -1.06547 -3.30552 0
M  V30 4304 C 390.876 -2.15561 -3.69753 0
M  V30 4305 C 390.202 -1.77214 -5.04479 0
M  V30 4306 C 391.502 -3.57476 -3.808 0
M  V30 4307 H 393.196 -2.24303 -1.98314 0
M  V30 4308 H 390.742 -1.07977 -0.952736 0
M  V30 4309 H 392.695 -1.01729 -4.08937 0
M  V30 4310 H 391.419 -0.0875719 -3.26483 0
M  V30 4311 H 390.078 -2.19466 -2.9365 0
M  V30 4312 H 389.726 -0.780589 -4.96906 0
M  V30 4313 H 389.426 -2.50184 -5.31678 0
M  V30 4314 H 390.95 -1.7391 -5.8531 0
M  V30 4315 H 392.364 -3.55929 -4.4943 0
M  V30 4316 H 390.761 -4.29152 -4.19462 0
M  V30 4317 H 391.831 -3.94091 -2.82525 0
M  V30 4318 N 393.175 1.03435 -1.18907 0
M  V30 4319 C 394.122 2.11591 -0.921837 0
M  V30 4320 C 395.092 1.65499 0.141226 0
M  V30 4321 O 396.277 1.908 0.000242829 0
M  V30 4322 C 393.417 3.42012 -0.460616 0
M  V30 4323 C 392.53 4.01682 -1.58982 0
M  V30 4324 C 391.665 5.20091 -1.08069 0
M  V30 4325 C 390.704 5.71805 -2.18416 0
M  V30 4326 N 389.841 6.81494 -1.68849 0
M  V30 4327 H 394.681 2.33787 -1.8479 0
M  V30 4328 H 392.218 1.1467 -0.921373 0
M  V30 4329 H 394.176 4.16834 -0.174642 0
M  V30 4330 H 392.806 3.19944 0.428467 0
M  V30 4331 H 391.858 3.24127 -1.99113 0
M  V30 4332 H 393.17 4.36084 -2.4214 0
M  V30 4333 H 392.324 6.02051 -0.749615 0
M  V30 4334 H 391.063 4.87209 -0.218771 0
M  V30 4335 H 390.068 4.88461 -2.5236 0
M  V30 4336 H 391.293 6.06728 -3.05054 0
M  V30 4337 H 389.239 6.50475 -0.849572 0
M  V30 4338 H 389.156 7.14994 -2.45601 0
M  V30 4339 H 390.424 7.67063 -1.38689 0
M  V30 4340 N 394.653 0.992116 1.22453 0
M  V30 4341 C 395.883 0.684949 1.94915 0
M  V30 4342 C 396.291 -0.754292 1.73514 0
M  V30 4343 O 395.634 -1.52056 1.03076 0
M  V30 4344 C 395.696 0.910054 3.47791 0
M  V30 4345 C 395.36 2.33363 3.92926 0
M  V30 4346 C 396.357 3.31308 4.00663 0
M  V30 4347 C 394.042 2.66785 4.25595 0
M  V30 4348 C 396.036 4.6075 4.40441 0
M  V30 4349 C 393.723 3.96446 4.65053 0
M  V30 4350 C 394.721 4.9324 4.72444 0
M  V30 4351 O 394.409 6.20584 5.1101 0
M  V30 4352 H 394.141 0.25258 0.62704 0
M  V30 4353 H 396.695 1.32939 1.56577 0
M  V30 4354 H 394.925 0.208443 3.86138 0
M  V30 4355 H 396.614 0.598257 4.01467 0
M  V30 4356 H 397.38 3.0682 3.75615 0
M  V30 4357 H 393.259 1.92148 4.19047 0
M  V30 4358 H 396.803 5.363 4.46126 0
M  V30 4359 H 392.7 4.20724 4.89552 0
M  V30 4360 H 393.468 6.24509 5.29085 0
M  V30 4361 N 396.131 -1.37776 0.765217 0
M  V30 4362 C 397.078 -2.30342 0.145274 0
M  V30 4363 C 398.048 -1.5077 -0.696971 0
M  V30 4364 O 399.233 -1.79362 -0.650689 0
M  V30 4365 C 396.373 -3.37227 -0.732939 0
M  V30 4366 C 395.486 -4.31819 0.125199 0
M  V30 4367 C 394.621 -5.25777 -0.757107 0
M  V30 4368 C 393.66 -6.12012 0.103963 0
M  V30 4369 N 392.797 -6.98232 -0.735953 0
M  V30 4370 H 397.637 -2.8278 0.940195 0
M  V30 4371 H 395.174 -1.39211 0.475255 0
M  V30 4372 H 397.132 -3.97818 -1.25686 0
M  V30 4373 H 395.762 -2.86171 -1.49353 0
M  V30 4374 H 394.814 -3.7259 0.766865 0
M  V30 4375 H 396.126 -4.92509 0.789683 0
M  V30 4376 H 395.28 -5.91541 -1.34776 0
M  V30 4377 H 394.019 -4.65481 -1.45529 0
M  V30 4378 H 393.024 -5.45233 0.707197 0
M  V30 4379 H 394.249 -6.74379 0.799381 0
M  V30 4380 H 392.195 -6.40472 -1.41887 0
M  V30 4381 H 392.112 -7.55891 -0.128624 0
M  V30 4382 H 393.38 -7.68393 -1.31121 0
M  V30 4383 N 397.609 -0.515225 -1.4894 0
M  V30 4384 C 398.572 0.244681 -2.2789 0
M  V30 4385 C 399.572 0.881166 -1.34507 0
M  V30 4386 O 400.762 0.743497 -1.57537 0
M  V30 4387 C 397.894 1.35247 -3.12923 0
M  V30 4388 H 399.087 -0.448289 -2.96531 0
M  V30 4389 H 396.64 -0.270656 -1.53939 0
M  V30 4390 H 397.375 2.07916 -2.48881 0
M  V30 4391 H 397.16 0.901374 -3.81599 0
M  V30 4392 H 398.65 1.88737 -3.72516 0
M  V30 4393 N 399.087 1.5561 -0.249682 0
M  V30 4394 C 400.336 1.98187 0.37479 0
M  V30 4395 C 400.649 1.14111 1.58865 0
M  V30 4396 O 401.855 1.46714 2.28445 0
M  V30 4397 C 400.311 3.52661 0.718192 0
M  V30 4398 C 399.919 4.45481 -0.474428 0
M  V30 4399 C 401.663 4.03888 1.3067 0
M  V30 4400 C 399.57 5.91303 -0.107026 0
M  V30 4401 H 398.5 0.740159 0.143808 0
M  V30 4402 H 401.151 1.80125 -0.350336 0
M  V30 4403 H 399.533 3.66429 1.50152 0
M  V30 4404 H 400.707 4.43473 -1.25172 0
M  V30 4405 H 399.022 4.04751 -0.978052 0
M  V30 4406 H 401.619 5.10358 1.59496 0
M  V30 4407 H 401.962 3.51401 2.23211 0
M  V30 4408 H 402.495 3.93457 0.586211 0
M  V30 4409 H 399.234 6.47833 -0.999642 0
M  V30 4410 H 398.754 5.9644 0.634013 0
M  V30 4411 H 400.433 6.46258 0.309807 0
M  V30 4412 N 400.565 -0.0233959 1.57583 0
M  V30 4413 C 401.79 -0.728376 1.94189 0
M  V30 4414 C 402.215 -1.67793 0.850119 0
M  V30 4415 O 401.573 -1.80262 -0.19371 0
M  V30 4416 C 401.621 -1.45669 3.29868 0
M  V30 4417 O 400.725 -2.57013 3.22518 0
M  V30 4418 H 400.066 -0.195493 0.63457 0
M  V30 4419 H 402.596 0.0228214 2.04587 0
M  V30 4420 H 402.606 -1.82535 3.6489 0
M  V30 4421 H 401.281 -0.760314 4.08891 0
M  V30 4422 H 399.858 -2.22648 2.99136 0
M  V30 4423 N 402.043 -1.548 -0.295768 0
M  V30 4424 C 402.953 -1.89177 -1.38742 0
M  V30 4425 C 403.969 -0.786481 -1.55211 0
M  V30 4426 O 405.145 -1.08344 -1.69775 0
M  V30 4427 C 402.21 -2.13663 -2.73036 0
M  V30 4428 C 401.271 -3.37349 -2.65508 0
M  V30 4429 C 400.504 -3.60658 -3.93398 0
M  V30 4430 O 400.727 -2.86882 -4.93006 0
M  V30 4431 O 399.661 -4.54179 -3.94975 0
M  V30 4432 H 403.487 -2.82059 -1.12589 0
M  V30 4433 H 401.072 -1.41056 -0.492295 0
M  V30 4434 H 402.954 -2.3094 -3.52484 0
M  V30 4435 H 401.629 -1.23967 -2.99022 0
M  V30 4436 H 400.536 -3.25431 -1.84514 0
M  V30 4437 H 401.869 -4.27192 -2.44474 0
M  V30 4438 N 403.521 0.559213 -1.47345 0
M  V30 4439 C 404.431 1.69388 -1.62311 0
M  V30 4440 C 405.447 1.6648 -0.505993 0
M  V30 4441 O 406.623 1.85964 -0.773262 0
M  V30 4442 C 403.688 3.05894 -1.63185 0
M  V30 4443 C 402.749 3.19885 -2.86307 0
M  V30 4444 C 401.982 4.49879 -2.87131 0
M  V30 4445 O 402.205 5.35217 -1.97229 0
M  V30 4446 O 401.139 4.67618 -3.78968 0
M  V30 4447 H 404.965 1.59706 -2.58317 0
M  V30 4448 H 402.55 0.728989 -1.30407 0
M  V30 4449 H 404.432 3.87133 -1.66451 0
M  V30 4450 H 403.107 3.15964 -0.70345 0
M  V30 4451 H 402.014 2.38052 -2.88587 0
M  V30 4452 H 403.347 3.14718 -3.78435 0
M  V30 4453 N 404.999 1.35443 0.805782 0
M  V30 4454 C 405.929 1.31095 1.93226 0
M  V30 4455 C 406.91 0.185244 1.69088 0
M  V30 4456 O 408.095 0.380332 1.90439 0
M  V30 4457 C 405.225 1.08299 3.29983 0
M  V30 4458 C 404.179 2.17519 3.68605 0
M  V30 4459 C 403.505 1.79887 5.03532 0
M  V30 4460 C 404.805 3.5949 3.78898 0
M  V30 4461 H 406.499 2.25352 1.97122 0
M  V30 4462 H 404.045 1.0848 0.946996 0
M  V30 4463 H 405.998 1.03897 4.08391 0
M  V30 4464 H 404.722 0.104885 3.26432 0
M  V30 4465 H 403.381 2.2102 2.92482 0
M  V30 4466 H 403.029 0.80693 4.96485 0
M  V30 4467 H 402.729 2.53001 5.30344 0
M  V30 4468 H 404.253 1.77011 5.84379 0
M  V30 4469 H 405.667 3.58307 4.47536 0
M  V30 4470 H 404.064 4.31371 4.1718 0
M  V30 4471 H 405.134 3.95584 2.80431 0
M  V30 4472 N 406.477 -1.02803 1.19454 0
M  V30 4473 C 407.754 -1.73299 0.907013 0
M  V30 4474 C 408.134 -2.02772 -0.587086 0
M  V30 4475 O 407.482 -1.68304 -1.54551 0
M  V30 4476 C 407.692 -3.00912 1.76785 0
M  V30 4477 C 409.04 -3.74403 2.00268 0
M  V30 4478 O 410.064 -3.10841 1.73943 0
M  V30 4479 O 408.923 -4.88675 2.4466 0
M  V30 4480 H 406.017 -0.754727 0.338106 0
M  V30 4481 H 408.563 -1.08754 1.30271 0
M  V30 4482 H 407.335 -2.75366 2.7801 0
M  V30 4483 H 406.958 -3.73197 1.37149 0
M  V30 4484 N 407.956 -0.998596 -1.21925 0
M  V30 4485 C 408.906 -0.524743 -2.21879 0
M  V30 4486 C 409.89 0.41017 -1.55584 0
M  V30 4487 O 411.082 0.236063 -1.75419 0
M  V30 4488 C 408.211 0.153636 -3.42956 0
M  V30 4489 C 407.297 -0.801918 -4.16449 0
M  V30 4490 N 407.688 -1.95211 -4.66611 0
M  V30 4491 C 405.986 -0.618972 -4.41684 0
M  V30 4492 C 406.687 -2.55234 -5.22715 0
M  V30 4493 N 405.663 -1.83451 -5.1171 0
M  V30 4494 H 409.465 -1.40189 -2.58311 0
M  V30 4495 H 406.979 -0.86159 -1.3766 0
M  V30 4496 H 408.976 0.510534 -4.13762 0
M  V30 4497 H 407.636 1.02684 -3.08036 0
M  V30 4498 H 408.647 -2.33271 -4.62391 0
M  V30 4499 H 405.324 0.207694 -4.16983 0
M  V30 4500 H 406.714 -3.52471 -5.72026 0
M  V30 4501 N 409.434 1.37368 -0.772513 0
M  V30 4502 C 410.397 2.28601 -0.165541 0
M  V30 4503 C 411.397 1.48062 0.627238 0
M  V30 4504 O 412.587 1.68268 0.450715 0
M  V30 4505 C 409.719 3.32023 0.772897 0
M  V30 4506 H 410.912 2.83787 -0.969787 0
M  V30 4507 H 408.465 1.46647 -0.540775 0
M  V30 4508 H 409.2 2.81962 1.60212 0
M  V30 4509 H 408.985 3.91555 0.206585 0
M  V30 4510 H 410.475 4.00197 1.19298 0
M  V30 4511 N 410.912 0.523116 1.48665 0
M  V30 4512 C 411.842 -0.23231 2.32342 0
M  V30 4513 C 412.823 -0.941637 1.41659 0
M  V30 4514 O 414.008 -0.928751 1.70552 0
M  V30 4515 C 411.138 -1.28387 3.22698 0
M  V30 4516 C 410.092 -0.693098 4.22351 0
M  V30 4517 C 409.418 -1.8468 5.01794 0
M  V30 4518 C 410.718 0.33063 5.21252 0
M  V30 4519 H 412.412 0.466192 2.95748 0
M  V30 4520 H 409.958 0.225643 1.42221 0
M  V30 4521 H 411.911 -1.82024 3.80059 0
M  V30 4522 H 410.635 -2.01186 2.57278 0
M  V30 4523 H 409.294 -0.178299 3.66166 0
M  V30 4524 H 408.942 -2.56301 4.32804 0
M  V30 4525 H 408.642 -1.45747 5.69238 0
M  V30 4526 H 410.166 -2.38709 5.62006 0
M  V30 4527 H 411.58 -0.118407 5.73178 0
M  V30 4528 H 409.977 0.636974 5.9671 0
M  V30 4529 H 411.047 1.23883 4.68808 0
M  V30 4530 N 412.39 -1.55475 0.257931 0
M  V30 4531 C 413.338 -2.23244 -0.653076 0
M  V30 4532 C 414.332 -1.22366 -1.17144 0
M  V30 4533 O 415.538 -1.40347 -1.12706 0
M  V30 4534 H 411.913 -0.716247 -0.229117 0
M  V30 4535 H 413.884 -2.98343 -0.0584788 0
M  V30 4536 C 412.633 -2.95401 -1.83395 0
M  V30 4537 H 411.956 -3.72802 -1.44424 0
M  V30 4538 H 413.396 -3.46165 -2.44838 0
M  V30 4539 C 411.855 -1.99895 -2.71189 0
M  V30 4540 O 412.385 -1.53909 -3.71046 0
M  V30 4541 N 410.591 -1.6676 -2.3799 0
M  V30 4542 H 410.138 -2.04352 -1.56837 0
M  V30 4543 H 410.096 -1.03127 -2.97005 0
M  V30 4544 N 413.868 0.0150385 -1.57593 0
M  V30 4545 C 415.145 0.7392 -1.81094 0
M  V30 4546 C 415.525 1.92817 -0.859344 0
M  V30 4547 O 414.873 2.28301 0.095362 0
M  V30 4548 C 415.083 1.15907 -3.29191 0
M  V30 4549 C 416.431 1.56918 -3.9454 0
M  V30 4550 O 417.455 1.25328 -3.33424 0
M  V30 4551 O 416.314 2.15604 -5.02173 0
M  V30 4552 H 413.408 0.358631 -0.745193 0
M  V30 4553 H 415.954 -0.00926156 -1.69697 0
M  V30 4554 H 414.726 0.310921 -3.90063 0
M  V30 4555 H 414.349 1.96711 -3.45529 0
M  V30 4556 N 415.346 1.54954 0.287554 0
M  V30 4557 C 416.279 1.81737 1.3801 0
M  V30 4558 C 417.257 0.669412 1.48181 0
M  V30 4559 O 418.441 0.910839 1.65033 0
M  V30 4560 C 415.568 1.96606 2.75796 0
M  V30 4561 C 414.614 3.19098 2.82982 0
M  V30 4562 S 415.447 4.7683 2.43707 0
M  V30 4563 C 416.603 4.94653 3.83496 0
M  V30 4564 H 416.836 2.74122 1.15085 0
M  V30 4565 H 414.369 1.46538 0.486403 0
M  V30 4566 H 416.327 2.05858 3.55152 0
M  V30 4567 H 414.988 1.05136 2.95982 0
M  V30 4568 H 414.181 3.26344 3.84077 0
M  V30 4569 H 413.783 3.08361 2.11635 0
M  V30 4570 H 416.075 4.79502 4.78628 0
M  V30 4571 H 417.018 5.96728 3.8121 0
M  V30 4572 H 417.426 4.2272 3.74123 0
M  V30 4573 N 416.824 -0.551391 1.4764 0
M  V30 4574 C 418.052 -1.33357 1.58189 0
M  V30 4575 C 418.467 -1.87342 0.234199 0
M  V30 4576 O 417.824 -1.65301 -0.77343 0
M  V30 4577 C 417.875 -2.49942 2.61173 0
M  V30 4578 O 417.596 -1.98187 3.90709 0
M  V30 4579 C 419.097 -3.42072 2.8196 0
M  V30 4580 H 416.317 -0.40631 0.533998 0
M  V30 4581 H 418.861 -0.667367 1.93304 0
M  V30 4582 H 417.016 -3.12489 2.28975 0
M  V30 4583 H 417.43 -2.74342 4.47031 0
M  V30 4584 H 418.904 -4.20278 3.57869 0
M  V30 4585 H 419.381 -3.95978 1.89995 0
M  V30 4586 H 419.987 -2.85336 3.15378 0
M  V30 4587 N 418.302 -1.35869 -0.798587 0
M  V30 4588 C 419.527 -1.32883 -1.59238 0
M  V30 4589 C 419.952 0.0894587 -1.87887 0
M  V30 4590 O 419.31 1.05869 -1.47178 0
M  V30 4591 C 419.358 -2.14892 -2.89575 0
M  V30 4592 O 418.462 -1.53512 -3.82763 0
M  V30 4593 H 417.803 -0.455236 -0.48338 0
M  V30 4594 H 420.333 -1.79024 -0.990539 0
M  V30 4595 H 420.343 -2.27139 -3.38928 0
M  V30 4596 H 419.018 -3.17998 -2.68049 0
M  V30 4597 H 417.595 -1.50153 -3.41334 0
M  V30 4598 N 419.78 1.02168 -1.19998 0
M  V30 4599 C 421.029 1.75091 -1.0013 0
M  V30 4600 C 421.342 1.89923 0.467835 0
M  V30 4601 O 422.548 2.59888 0.785515 0
M  V30 4602 C 421.004 3.14892 -1.74273 0
M  V30 4603 C 420.612 3.0809 -3.25245 0
M  V30 4604 C 422.356 3.9206 -1.62755 0
M  V30 4605 C 420.263 4.42867 -3.91948 0
M  V30 4606 H 419.193 0.656394 -0.37103 0
M  V30 4607 H 421.844 1.14284 -1.43567 0
M  V30 4608 H 420.226 3.7621 -1.2362 0
M  V30 4609 H 421.4 2.5611 -3.83072 0
M  V30 4610 H 419.715 2.44416 -3.3712 0
M  V30 4611 H 422.312 4.91764 -2.09934 0
M  V30 4612 H 422.655 4.12199 -0.582894 0
M  V30 4613 H 423.188 3.37359 -2.10793 0
M  V30 4614 H 419.927 4.27931 -4.96543 0
M  V30 4615 H 419.447 4.94874 -3.3891 0
M  V30 4616 H 421.126 5.11728 -3.95909 0
M  V30 4617 O 421.297 1.13266 1.15122 0
M  V30 4618 H 421.988 0.848237 1.7414 0
M  V30 END ATOM
M  V30 BEGIN BOND
M  V30 END BOND
M  V30 END CTAB
M  END
$$$$
