drugbank_target|Q8TDU6 G-protein coupled bile acid receptor 1 (DB02659; DB03619; DB06777)
 OpenBabel12092121033D

  0  0  0     0  0            999 V3000
M  V30 BEGIN CTAB
M  V30 COUNTS 5051 5120 0 0 0
M  V30 BEGIN ATOM
M  V30 1 H -0.908 1.98254 -0.117106 0
M  V30 2 N 0 1.576 0 0
M  V30 3 C 0.933 2.03868 1.02534 0
M  V30 4 C 1.911 0.928543 1.3348 0
M  V30 5 O 3.095 1.19667 1.45644 0
M  V30 6 C 0.222 2.43627 2.35294 0
M  V30 7 C -0.732 3.65373 2.2001 0
M  V30 8 S 0.101 5.13292 1.52614 0
M  V30 9 C 1.257 5.56322 2.86805 0
M  V30 10 H 1.49 2.90518 0.631377 0
M  V30 11 H -0.977 1.52953 0.210867 0
M  V30 12 H 0.981 2.67203 3.11629 0
M  V30 13 H -0.358 1.57376 2.7183 0
M  V30 14 H -1.165 3.90944 3.18086 0
M  V30 15 H -1.563 3.418 1.51819 0
M  V30 16 H 0.729 5.58782 3.83104 0
M  V30 17 H 1.672 6.56266 2.65933 0
M  V30 18 H 2.08 4.83886 2.90714 0
M  V30 19 N 1.4781 -0.272755 1.55222 0
M  V30 20 C 2.7061 -1.02255 1.79865 0
M  V30 21 C 3.1211 -1.79924 0.572088 0
M  V30 22 O 2.4781 -1.76638 -0.458842 0
M  V30 23 C 2.5291 -1.98094 3.02392 0
M  V30 24 O 2.2501 -1.23572 4.20311 0
M  V30 25 C 3.7511 -2.84884 3.39641 0
M  V30 26 H 0.9711 -0.302057 0.599168 0
M  V30 27 H 3.5151 -0.303465 2.02236 0
M  V30 28 H 1.6701 -2.65465 2.82147 0
M  V30 29 H 2.0841 -1.88172 4.89583 0
M  V30 30 H 3.5581 -3.47927 4.28545 0
M  V30 31 H 4.0351 -3.54665 2.59055 0
M  V30 32 H 4.6411 -2.23003 3.62146 0
M  V30 33 N 2.9562 -1.48159 -0.537278 0
M  V30 34 C 4.3672 -1.49429 -1.11928 0
M  V30 35 C 4.7182 -0.26 -1.9447 0
M  V30 36 O 3.8432 0.633489 -2.0692 0
M  V30 37 C 4.4382 -2.70758 -2.03656 0
M  V30 38 C 2.9972 -2.74923 -2.57088 0
M  V30 39 C 2.1442 -2.42835 -1.3389 0
M  V30 40 H 5.0952 -1.55381 -0.322886 0
M  V30 41 H 5.1162 -2.48861 -2.87834 0
M  V30 42 H 4.6282 -3.60575 -1.43553 0
M  V30 43 H 2.7292 -1.89296 -3.20933 0
M  V30 44 H 2.8422 -3.76157 -2.9672 0
M  V30 45 H 1.2062 -1.93836 -1.65226 0
M  V30 46 H 1.9892 -3.34884 -0.755504 0
M  V30 47 N 4.4343 0.785586 -1.36625 0
M  V30 48 C 5.3823 1.91978 -1.31329 0
M  V30 49 C 6.3763 1.68162 -0.204416 0
M  V30 50 O 7.5823 1.76122 -0.371645 0
M  V30 51 H 3.9573 0.631087 -0.408942 0
M  V30 52 H 5.9283 1.93562 -2.27104 0
M  V30 53 C 4.6773 3.29055 -1.12329 0
M  V30 54 H 4.0003 3.4795 -1.96903 0
M  V30 55 H 5.4403 4.08756 -1.12671 0
M  V30 56 C 3.8993 3.36461 0.171861 0
M  V30 57 O 4.4293 3.84576 1.16035 0
M  V30 58 N 2.6353 2.89782 0.217846 0
M  V30 59 H 2.1823 2.50819 -0.587183 0
M  V30 60 H 2.1403 2.95119 1.08408 0
M  V30 61 N 5.9124 1.20967 1.01018 0
M  V30 62 C 7.1374 1.0503 1.78839 0
M  V30 63 C 7.5624 -0.395752 1.8389 0
M  V30 64 O 6.9204 -1.28529 1.27867 0
M  V30 65 C 6.9684 1.64602 3.2084 0
M  V30 66 O 6.0724 0.887988 4.02726 0
M  V30 67 H 5.4134 0.369987 0.551367 0
M  V30 68 H 7.9434 1.60399 1.27018 0
M  V30 69 H 7.9534 1.68607 3.71532 0
M  V30 70 H 6.6284 2.69841 3.16479 0
M  V30 71 H 5.2054 0.922648 3.61305 0
M  V30 72 N 7.3905 -1.2043 1.01659 0
M  V30 73 C 8.6185 -1.93777 0.725132 0
M  V30 74 C 9.0335 -1.74772 -0.714166 0
M  V30 75 O 8.3905 -1.06169 -1.4844 0
M  V30 76 C 8.4415 -3.45876 1.05129 0
M  V30 77 O 8.1625 -3.6426 2.43406 0
M  V30 78 C 9.6635 -4.36368 0.780891 0
M  V30 79 H 6.8835 -0.615901 0.266284 0
M  V30 80 H 9.4275 -1.52922 1.35776 0
M  V30 81 H 7.5825 -3.8461 0.464065 0
M  V30 82 H 7.9965 -4.58246 2.55169 0
M  V30 83 H 9.4705 -5.41743 1.05918 0
M  V30 84 H 9.9475 -4.38275 -0.284937 0
M  V30 85 H 10.5535 -4.03296 1.35027 0
M  V30 86 N 8.8686 -0.792821 -1.36206 0
M  V30 87 C 10.1166 -0.366062 -1.98757 0
M  V30 88 C 10.4376 1.0668 -1.63231 0
M  V30 89 O 9.7076 1.73587 -0.907978 0
M  V30 90 H 8.2876 -0.132364 -0.735179 0
M  V30 91 H 10.9496 -1.01562 -1.66347 0
M  V30 92 H 10.0456 -0.460638 -3.08682 0
M  V30 93 N 10.3467 1.47872 -0.545128 0
M  V30 94 C 11.2567 2.33633 0.212746 0
M  V30 95 C 12.2727 1.4744 0.923983 0
M  V30 96 O 13.4487 1.80393 0.895572 0
M  V30 97 C 10.5137 3.23884 1.23693 0
M  V30 98 C 9.5747 4.25961 0.534417 0
M  V30 99 C 8.8077 5.11899 1.5098 0
M  V30 100 O 9.0307 5.00077 2.7437 0
M  V30 101 O 7.9647 5.92831 1.0409 0
M  V30 102 H 11.7907 2.99714 -0.490416 0
M  V30 103 H 9.3757 1.46235 -0.305871 0
M  V30 104 H 11.2577 3.79666 1.82843 0
M  V30 105 H 9.9327 2.60446 1.92222 0
M  V30 106 H 8.8397 3.73972 -0.0979679 0
M  V30 107 H 10.1727 4.92079 -0.109213 0
M  V30 108 N 11.8248 0.280983 1.55075 0
M  V30 109 C 13.0708 -0.33461 2.00021 0
M  V30 110 C 13.4038 -1.55063 1.16915 0
M  V30 111 O 12.6788 -1.93006 0.240646 0
M  V30 112 C 12.9618 -0.711007 3.53011 0
M  V30 113 C 12.8148 0.512766 4.46868 0
M  V30 114 C 14.1338 -1.54522 4.12081 0
M  V30 115 H 11.2528 -0.120147 0.727141 0
M  V30 116 H 13.8948 0.389097 1.85973 0
M  V30 117 H 12.0448 -1.32761 3.65112 0
M  V30 118 H 13.7168 1.15131 4.46702 0
M  V30 119 H 11.9598 1.14975 4.18286 0
M  V30 120 H 12.6308 0.205556 5.51617 0
M  V30 121 H 15.1068 -1.02442 4.03293 0
M  V30 122 H 13.9828 -1.77739 5.19327 0
M  V30 123 H 14.2438 -2.52813 3.62682 0
M  V30 124 N 13.3029 -1.57598 0.00835791 0
M  V30 125 C 14.7139 -1.7892 -0.53333 0
M  V30 126 C 15.0649 -0.916609 -1.73473 0
M  V30 127 O 14.1899 -0.121336 -2.1606 0
M  V30 128 C 14.7849 -3.24488 -0.974313 0
M  V30 129 C 13.3439 -3.46878 -1.46125 0
M  V30 130 C 12.4909 -2.74157 -0.416302 0
M  V30 131 H 15.4419 -1.56958 0.234495 0
M  V30 132 H 15.4629 -3.3306 -1.83988 0
M  V30 133 H 14.9749 -3.87972 -0.099718 0
M  V30 134 H 13.0759 -2.8862 -2.35646 0
M  V30 135 H 13.1889 -4.55572 -1.48295 0
M  V30 136 H 11.5529 -2.39022 -0.87981 0
M  V30 137 H 12.3359 -3.40345 0.44947 0
M  V30 138 N 14.781 0.264519 -1.55364 0
M  V30 139 C 16.006 1.01726 -1.80739 0
M  V30 140 C 16.431 1.78836 -0.583044 0
M  V30 141 O 15.789 1.75167 0.467566 0
M  V30 142 C 15.837 1.94482 -3.03659 0
M  V30 143 O 14.941 3.03386 -2.7934 0
M  V30 144 H 14.282 0.290395 -0.597132 0
M  V30 145 H 16.812 0.290854 -2.02522 0
M  V30 146 H 16.822 2.36278 -3.32621 0
M  V30 147 H 15.497 1.37772 -3.92418 0
M  V30 148 H 14.074 2.65844 -2.61498 0
M  V30 149 N 16.2591 1.48442 0.529413 0
M  V30 150 C 17.6701 1.5002 1.11134 0
M  V30 151 C 18.0211 0.27031 1.94329 0
M  V30 152 O 17.1461 -0.622507 2.07253 0
M  V30 153 C 17.7411 2.71834 2.02217 0
M  V30 154 C 16.3001 2.76283 2.55627 0
M  V30 155 C 15.4471 2.43542 1.326 0
M  V30 156 H 18.3981 1.5555 0.314641 0
M  V30 157 H 18.4191 2.50384 2.8651 0
M  V30 158 H 17.9311 3.61331 1.41639 0
M  V30 159 H 16.0321 1.90995 3.19924 0
M  V30 160 H 16.1451 3.77725 2.94721 0
M  V30 161 H 14.5091 1.94709 1.64196 0
M  V30 162 H 15.2921 3.3528 0.737734 0
M  V30 163 N 17.7372 -0.778329 1.37039 0
M  V30 164 C 18.9862 -1.53189 1.3121 0
M  V30 165 C 19.2992 -1.95328 -0.103095 0
M  V30 166 O 20.5052 -2.70012 -0.283826 0
M  V30 167 C 18.9612 -2.76591 2.30272 0
M  V30 168 C 18.5692 -2.41577 3.77286 0
M  V30 169 C 20.3132 -3.5455 2.33441 0
M  V30 170 C 18.2202 -3.61441 4.68096 0
M  V30 171 H 17.1502 -0.5751 0.487622 0
M  V30 172 H 19.8012 -0.853101 1.62464 0
M  V30 173 H 18.1832 -3.46326 1.92027 0
M  V30 174 H 19.3572 -1.79668 4.2433 0
M  V30 175 H 17.6722 -1.76806 3.76999 0
M  V30 176 H 20.2692 -4.43628 2.98493 0
M  V30 177 H 20.6122 -3.93936 1.34611 0
M  V30 178 H 21.1452 -2.91805 2.7036 0
M  V30 179 H 17.8842 -3.27142 5.6803 0
M  V30 180 H 17.4042 -4.22478 4.25761 0
M  V30 181 H 19.0832 -4.28335 4.8491 0
M  V30 182 N 19.2153 -1.21501 -1.00376 0
M  V30 183 C 20.6263 -1.03146 -1.55621 0
M  V30 184 C 20.9773 0.408375 -1.91903 0
M  V30 185 O 20.1023 1.29177 -1.73616 0
M  V30 186 C 20.6973 -1.86612 -2.82775 0
M  V30 187 C 19.2563 -1.72586 -3.34501 0
M  V30 188 C 18.4033 -1.83747 -2.07683 0
M  V30 189 H 21.3543 -1.35505 -0.826081 0
M  V30 190 H 21.3753 -1.3771 -3.54706 0
M  V30 191 H 20.8873 -2.91399 -2.56336 0
M  V30 192 H 18.9883 -0.704877 -3.65872 0
M  V30 193 H 19.1013 -2.54623 -4.05837 0
M  V30 194 H 17.4653 -1.27069 -2.20739 0
M  V30 195 H 18.2483 -2.90044 -1.83655 0
M  V30 196 N 20.6934 1.19889 -1.02296 0
M  V30 197 C 21.6404 2.22901 -0.598651 0
M  V30 198 C 22.6104 1.61588 0.384521 0
M  V30 199 O 23.7954 1.88697 0.282522 0
M  V30 200 C 20.9354 3.45063 0.0504476 0
M  V30 201 C 20.0484 4.20783 -0.978053 0
M  V30 202 C 19.1834 5.30356 -0.299338 0
M  V30 203 C 18.2224 5.97826 -1.31416 0
M  V30 204 N 17.3594 6.98975 -0.661667 0
M  V30 205 H 22.1994 2.58554 -1.48169 0
M  V30 206 H 19.7364 1.27039 -0.741584 0
M  V30 207 H 21.6944 4.14831 0.443971 0
M  V30 208 H 20.3244 3.10084 0.897097 0
M  V30 209 H 19.3764 3.50018 -1.48969 0
M  V30 210 H 20.6884 4.67109 -1.74958 0
M  V30 211 H 19.8424 6.06516 0.149347 0
M  V30 212 H 18.5814 4.85084 0.504445 0
M  V30 213 H 17.5864 5.20422 -1.77317 0
M  V30 214 H 18.8114 6.45183 -2.11933 0
M  V30 215 H 16.7574 6.55886 0.122132 0
M  V30 216 H 16.6744 7.43461 -1.37117 0
M  V30 217 H 17.9424 7.7914 -0.236785 0
M  V30 218 N 22.1715 0.800033 1.35784 0
M  V30 219 C 23.4195 0.376597 1.9856 0
M  V30 220 C 23.7405 -1.05812 1.63795 0
M  V30 221 O 23.0105 -1.73103 0.917171 0
M  V30 222 H 21.5905 0.136261 0.734467 0
M  V30 223 H 24.2525 1.02442 1.65806 0
M  V30 224 H 23.3485 0.477002 3.08433 0
M  V30 225 N 23.6496 -1.47581 0.552962 0
M  V30 226 C 24.6126 -2.28439 -0.186605 0
M  V30 227 C 25.6126 -1.36706 -0.84665 0
M  V30 228 O 26.8026 -1.59378 -0.703164 0
M  V30 229 C 23.9346 -3.16264 -1.2724 0
M  V30 230 H 25.1276 -2.95294 0.523609 0
M  V30 231 H 22.6806 -1.532 0.309745 0
M  V30 232 H 23.4156 -2.54091 -2.01514 0
M  V30 233 H 23.2006 -3.83769 -0.803968 0
M  V30 234 H 24.6906 -3.77198 -1.79196 0
M  V30 235 N 25.1277 -0.289203 -1.54924 0
M  V30 236 C 26.0577 0.58549 -2.2604 0
M  V30 237 C 27.0387 1.14753 -1.25562 0
M  V30 238 O 28.2237 1.17906 -1.54311 0
M  V30 239 C 25.3537 1.76305 -2.99222 0
M  V30 240 C 24.3077 1.33191 -4.06748 0
M  V30 241 C 23.6337 2.5937 -4.6758 0
M  V30 242 C 24.9337 0.471775 -5.20165 0
M  V30 243 H 26.6277 -0.00763532 -2.99399 0
M  V30 244 H 24.1737 -0.00511229 -1.43999 0
M  V30 245 H 26.1267 2.38097 -3.47689 0
M  V30 246 H 24.8507 2.38223 -2.23422 0
M  V30 247 H 23.5097 0.737121 -3.59113 0
M  V30 248 H 23.1577 3.19576 -3.88433 0
M  V30 249 H 22.8577 2.31228 -5.40192 0
M  V30 250 H 24.3817 3.21985 -5.18804 0
M  V30 251 H 25.7957 0.995056 -5.64599 0
M  V30 252 H 24.1927 0.284639 -5.99425 0
M  V30 253 H 25.2627 -0.506041 -4.82252 0
M  V30 254 N 26.6058 1.57591 -0.0167156 0
M  V30 255 C 27.8538 1.90906 0.663285 0
M  V30 256 C 28.1748 0.892509 1.73376 0
M  V30 257 O 27.4448 -0.0677623 1.95783 0
M  V30 258 H 26.0248 0.704637 0.247983 0
M  V30 259 H 28.6868 1.94803 -0.0615909 0
M  V30 260 H 27.7828 2.9116 1.12393 0
M  V30 261 N 28.0839 -0.256276 1.55502 0
M  V30 262 C 29.0139 -1.32102 1.92539 0
M  V30 263 C 29.9949 -1.50684 0.789194 0
M  V30 264 O 31.1799 -1.63449 1.04872 0
M  V30 265 C 28.3099 -2.67752 2.21192 0
M  V30 266 C 27.2639 -2.63878 3.36975 0
M  V30 267 C 26.5899 -4.03236 3.51147 0
M  V30 268 C 27.8899 -2.21682 4.72921 0
M  V30 269 H 29.5839 -1.01351 2.81724 0
M  V30 270 H 27.1299 -0.486105 1.35547 0
M  V30 271 H 29.0829 -3.42365 2.45691 0
M  V30 272 H 27.8069 -3.0012 1.28824 0
M  V30 273 H 26.4659 -1.91722 3.12471 0
M  V30 274 H 26.1139 -4.32854 2.56216 0
M  V30 275 H 25.8139 -4.01535 4.29003 0
M  V30 276 H 27.3379 -4.79563 3.77957 0
M  V30 277 H 28.7519 -2.86023 4.96854 0
M  V30 278 H 27.1489 -2.3111 5.53812 0
M  V30 279 H 28.2189 -1.16833 4.70615 0
M  V30 280 N 29.562 -1.4872 -0.521534 0
M  V30 281 C 30.787 -1.61101 -1.30618 0
M  V30 282 C 31.212 -0.274611 -1.86085 0
M  V30 283 O 30.57 0.754937 -1.64834 0
M  V30 284 C 30.618 -2.66709 -2.4269 0
M  V30 285 O 29.722 -2.24456 -3.45967 0
M  V30 286 H 29.063 -0.539921 -0.386499 0
M  V30 287 H 31.593 -1.94767 -0.626645 0
M  V30 288 H 31.603 -2.88245 -2.88754 0
M  V30 289 H 30.278 -3.63727 -2.01682 0
M  V30 290 H 28.855 -2.13168 -3.05964 0
M  V30 291 N 31.0401 0.771051 -1.3745 0
M  V30 292 C 31.9701 1.89827 -1.3597 0
M  V30 293 C 32.9511 1.68562 -0.228216 0
M  V30 294 O 34.1361 1.8941 -0.428675 0
M  V30 295 C 31.2661 3.2712 -1.16662 0
M  V30 296 C 30.2201 3.6295 -2.2683 0
M  V30 297 C 29.5461 4.98791 -1.92644 0
M  V30 298 C 30.8461 3.69627 -3.69017 0
M  V30 299 H 32.5401 1.91323 -2.30295 0
M  V30 300 H 30.0861 0.919082 -1.10855 0
M  V30 301 H 32.0391 4.05615 -1.14256 0
M  V30 302 H 30.7631 3.26059 -0.187926 0
M  V30 303 H 29.4221 2.86763 -2.28392 0
M  V30 304 H 29.0701 4.94271 -0.933021 0
M  V30 305 H 28.7701 5.23733 -2.66416 0
M  V30 306 H 30.2941 5.79685 -1.91826 0
M  V30 307 H 31.7081 4.38273 -3.69581 0
M  V30 308 H 30.1051 4.06067 -4.41848 0
M  V30 309 H 31.1751 2.70273 -4.02592 0
M  V30 310 N 32.5182 1.22032 0.997298 0
M  V30 311 C 33.4812 0.987909 2.06816 0
M  V30 312 C 34.4812 -0.0440084 1.6074 0
M  V30 313 O 35.6712 0.194053 1.73116 0
M  V30 314 C 32.8032 0.49132 3.37341 0
M  V30 315 H 33.9962 1.93803 2.28868 0
M  V30 316 H 31.5492 1.03838 1.16822 0
M  V30 317 H 32.2842 -0.463364 3.20973 0
M  V30 318 H 32.0692 1.23575 3.72118 0
M  V30 319 H 33.5592 0.348824 4.16141 0
M  V30 320 N 33.9963 -1.19345 1.0293 0
M  V30 321 C 34.9263 -2.2481 0.631105 0
M  V30 322 C 35.9073 -1.66245 -0.360104 0
M  V30 323 O 37.0923 -1.92677 -0.242726 0
M  V30 324 C 34.2223 -3.47295 -0.0184607 0
M  V30 325 C 33.1763 -4.18536 0.895073 0
M  V30 326 C 32.5023 -5.34586 0.110592 0
M  V30 327 C 33.8023 -4.73287 2.209 0
M  V30 328 H 35.4963 -2.58372 1.51275 0
M  V30 329 H 33.0423 -1.24194 0.728818 0
M  V30 330 H 34.9953 -4.20268 -0.308675 0
M  V30 331 H 33.7193 -3.12933 -0.934907 0
M  V30 332 H 32.3783 -3.47446 1.16949 0
M  V30 333 H 32.0263 -4.96469 -0.807902 0
M  V30 334 H 31.7263 -5.83183 0.719087 0
M  V30 335 H 33.2503 -6.10355 -0.172871 0
M  V30 336 H 34.6643 -5.38013 1.98028 0
M  V30 337 H 33.0613 -5.32373 2.76946 0
M  V30 338 H 34.1313 -3.91331 2.86336 0
M  V30 339 N 35.4744 -0.807222 -1.35358 0
M  V30 340 C 36.4374 -0.223665 -2.28106 0
M  V30 341 C 37.4374 0.589354 -1.4961 0
M  V30 342 O 38.6274 0.407745 -1.69361 0
M  V30 343 C 35.7594 0.688149 -3.33882 0
M  V30 344 H 36.9524 -1.04169 -2.81227 0
M  V30 345 H 34.5054 -0.577921 -1.45223 0
M  V30 346 H 35.2404 1.52984 -2.85948 0
M  V30 347 H 35.0254 0.10687 -3.91954 0
M  V30 348 H 36.5154 1.09075 -4.03104 0
M  V30 349 N 36.9525 1.47285 -0.560781 0
M  V30 350 C 38.1775 2.07359 -0.0410566 0
M  V30 351 C 38.6025 1.41017 1.24483 0
M  V30 352 O 37.9605 0.486368 1.74654 0
M  V30 353 C 38.0085 3.6035 0.134123 0
M  V30 354 O 37.1125 3.94681 1.19587 0
M  V30 355 H 36.4535 0.661887 -0.0529291 0
M  V30 356 H 38.9835 1.89252 -0.777482 0
M  V30 357 H 38.9935 4.0652 0.347207 0
M  V30 358 H 37.6685 4.08034 -0.805047 0
M  V30 359 H 36.2455 3.60251 0.962987 0
M  V30 360 N 38.4306 0.297415 1.54768 0
M  V30 361 C 39.3606 -0.573494 2.26348 0
M  V30 362 C 40.3416 -1.14085 1.26169 0
M  V30 363 O 41.5266 -1.17086 1.54934 0
M  V30 364 C 38.6566 -1.74716 3.00153 0
M  V30 365 C 37.6106 -1.31032 4.07449 0
M  V30 366 C 36.9366 -2.56887 4.68949 0
M  V30 367 C 38.2366 -0.444183 5.20408 0
M  V30 368 H 39.9306 0.0235131 2.99391 0
M  V30 369 H 37.4766 0.0127488 1.43994 0
M  V30 370 H 39.4296 -2.3625 3.48947 0
M  V30 371 H 38.1536 -2.37035 2.24682 0
M  V30 372 H 36.8126 -0.718066 3.59499 0
M  V30 373 H 36.4606 -3.17512 3.90122 0
M  V30 374 H 36.1606 -2.2836 5.41411 0
M  V30 375 H 37.6846 -3.19229 5.20505 0
M  V30 376 H 39.0986 -0.9651 5.65118 0
M  V30 377 H 37.4956 -0.252846 5.99567 0
M  V30 378 H 38.5656 0.531609 4.81977 0
M  V30 379 N 39.9087 -1.5758 0.0250728 0
M  V30 380 C 41.1577 -1.90811 -0.653767 0
M  V30 381 C 41.4707 -0.90273 -1.73523 0
M  V30 382 O 42.6767 -1.12614 -2.47043 0
M  V30 383 C 41.1327 -3.38804 -1.21409 0
M  V30 384 C 40.7407 -4.47692 -0.166126 0
M  V30 385 C 42.4847 -3.81108 -1.86967 0
M  V30 386 C 40.3917 -5.86779 -0.737856 0
M  V30 387 H 39.3217 -0.712063 -0.247956 0
M  V30 388 H 41.9727 -1.83281 0.0897137 0
M  V30 389 H 40.3547 -3.41252 -2.00905 0
M  V30 390 H 41.5287 -4.56797 0.606079 0
M  V30 391 H 39.8437 -4.14565 0.390466 0
M  V30 392 H 42.4407 -4.82375 -2.30692 0
M  V30 393 H 42.7837 -3.15953 -2.71071 0
M  V30 394 H 43.3167 -3.81065 -1.14167 0
M  V30 395 H 40.0557 -6.55468 0.0649577 0
M  V30 396 H 39.5757 -5.81288 -1.47864 0
M  V30 397 H 41.2547 -6.35223 -1.22884 0
M  V30 398 N 41.3868 0.248026 -1.55636 0
M  V30 399 C 42.6358 0.974134 -1.76617 0
M  V30 400 C 42.9488 1.86528 -0.588796 0
M  V30 401 O 44.1548 2.62805 -0.681594 0
M  V30 402 C 42.6108 1.78213 -3.12679 0
M  V30 403 C 42.2188 0.93843 -4.38061 0
M  V30 404 C 43.9628 2.50104 -3.42999 0
M  V30 405 C 41.8698 1.74225 -5.65155 0
M  V30 406 H 40.7998 0.36745 -0.658405 0
M  V30 407 H 43.4508 0.22884 -1.82067 0
M  V30 408 H 41.8328 2.56933 -3.01333 0
M  V30 409 H 43.0068 0.193635 -4.60393 0
M  V30 410 H 41.3218 0.332905 -4.15067 0
M  V30 411 H 43.9188 3.10694 -4.3517 0
M  V30 412 H 44.2618 3.21662 -2.64271 0
M  V30 413 H 44.7948 1.78395 -3.55556 0
M  V30 414 H 41.5338 1.07043 -6.46701 0
M  V30 415 H 41.0538 2.46235 -5.46926 0
M  V30 416 H 42.7328 2.30967 -6.0437 0
M  V30 417 N 42.8649 1.48995 0.513639 0
M  V30 418 C 44.0929 1.61531 1.29288 0
M  V30 419 C 44.5079 0.281801 1.86685 0
M  V30 420 O 43.8649 -0.731111 1.67215 0
M  V30 421 C 43.9159 2.67449 2.43215 0
M  V30 422 O 43.6369 3.95626 1.88179 0
M  V30 423 C 45.1379 2.90575 3.34785 0
M  V30 424 H 42.3579 0.544165 0.392588 0
M  V30 425 H 44.9019 1.9494 0.617956 0
M  V30 426 H 43.0569 2.36853 3.0656 0
M  V30 427 H 43.4709 4.53868 2.62876 0
M  V30 428 H 44.9449 3.68449 4.11035 0
M  V30 429 H 45.4219 2.00011 3.91015 0
M  V30 430 H 46.0279 3.22538 2.77218 0
M  V30 431 N 44.343 -0.763751 1.37857 0
M  V30 432 C 45.306 -1.85889 1.34081 0
M  V30 433 C 46.306 -1.58949 0.243277 0
M  V30 434 O 47.496 -1.66882 0.499589 0
M  V30 435 C 44.628 -3.23176 1.08489 0
M  V30 436 H 45.821 -1.90648 2.31502 0
M  V30 437 H 43.374 -0.964367 1.23003 0
M  V30 438 H 44.109 -3.24091 0.116318 0
M  V30 439 H 43.894 -3.44124 1.8794 0
M  V30 440 H 45.384 -4.03254 1.08517 0
M  V30 441 N 45.8211 -1.22559 -0.990812 0
M  V30 442 C 46.7691 -0.994798 -2.10253 0
M  V30 443 C 47.7631 0.0627798 -1.69284 0
M  V30 444 O 48.9691 -0.0898392 -1.79776 0
M  V30 445 H 45.3441 -0.304527 -0.687581 0
M  V30 446 H 47.3151 -1.93812 -2.26891 0
M  V30 447 C 46.0641 -0.591439 -3.42633 0
M  V30 448 H 45.3871 -1.3969 -3.74602 0
M  V30 449 H 46.8271 -0.469385 -4.21394 0
M  V30 450 C 45.2861 0.699232 -3.29564 0
M  V30 451 O 45.8161 1.75112 -3.61523 0
M  V30 452 N 44.0221 0.671182 -2.82743 0
M  V30 453 H 43.5691 -0.185136 -2.56934 0
M  V30 454 H 43.5271 1.53502 -2.7438 0
M  V30 455 N 47.2992 1.18797 -1.03562 0
M  V30 456 C 48.2292 2.24472 -0.643019 0
M  V30 457 C 49.2102 1.66433 0.351283 0
M  V30 458 O 50.3952 1.92803 0.232505 0
M  V30 459 C 47.5252 3.473 4.24935e-05 0
M  V30 460 C 46.4792 4.18055 -0.917257 0
M  V30 461 C 45.8052 5.34519 -0.138941 0
M  V30 462 C 47.1052 4.72109 -2.23407 0
M  V30 463 H 48.7992 2.57566 -1.52643 0
M  V30 464 H 46.3452 1.23806 -0.735394 0
M  V30 465 H 48.2982 4.20426 0.286383 0
M  V30 466 H 47.0222 3.13424 0.918299 0
M  V30 467 H 45.6812 3.46821 -1.1879 0
M  V30 468 H 45.3292 4.96891 0.781562 0
M  V30 469 H 45.0292 5.82794 -0.750005 0
M  V30 470 H 46.5532 6.10438 0.1405 0
M  V30 471 H 47.9672 5.36955 -2.00879 0
M  V30 472 H 46.3642 5.30897 -2.79765 0
M  V30 473 H 47.4342 3.89807 -2.88407 0
M  V30 474 N 48.7773 0.814389 1.34928 0
M  V30 475 C 49.7073 0.244827 2.32213 0
M  V30 476 C 50.6883 -0.634024 1.57842 0
M  V30 477 O 51.8733 -0.562676 1.8587 0
M  V30 478 C 49.0033 -0.601106 3.42058 0
M  V30 479 C 47.9573 0.179896 4.27622 0
M  V30 480 C 47.2833 -0.788237 5.28858 0
M  V30 481 C 48.5833 1.38329 5.03649 0
M  V30 482 H 50.2773 1.05763 2.80097 0
M  V30 483 H 47.8233 0.510029 1.34665 0
M  V30 484 H 49.7763 -1.00968 4.09125 0
M  V30 485 H 48.5003 -1.44688 2.92802 0
M  V30 486 H 47.1593 0.569739 3.62146 0
M  V30 487 H 46.8073 -1.62973 4.75866 0
M  V30 488 H 46.5073 -0.269942 5.8698 0
M  V30 489 H 48.0313 -1.19485 5.98795 0
M  V30 490 H 49.4453 1.04918 5.63618 0
M  V30 491 H 47.8423 1.83662 5.71304 0
M  V30 492 H 48.9123 2.16592 4.33839 0
M  V30 493 N 50.2554 -1.46986 0.568584 0
M  V30 494 C 51.1854 -2.32946 -0.160753 0
M  V30 495 C 52.1664 -1.44487 -0.897631 0
M  V30 496 O 53.3514 -1.73327 -0.875867 0
M  V30 497 C 50.4814 -3.26494 -1.18403 0
M  V30 498 C 49.4354 -4.24282 -0.562895 0
M  V30 499 C 48.7614 -5.07236 -1.69163 0
M  V30 500 C 50.0614 -5.19989 0.490761 0
M  V30 501 H 51.7554 -2.94175 0.556916 0
M  V30 502 H 49.3014 -1.4146 0.26927 0
M  V30 503 H 51.2544 -3.85477 -1.70251 0
M  V30 504 H 49.9784 -2.63343 -1.93179 0
M  V30 505 H 48.6374 -3.66541 -0.0656164 0
M  V30 506 H 48.2854 -4.4048 -2.42871 0
M  V30 507 H 47.9854 -5.7345 -1.28174 0
M  V30 508 H 49.5094 -5.6908 -2.21314 0
M  V30 509 H 50.9234 -5.73271 0.0579047 0
M  V30 510 H 49.3204 -5.94469 0.820165 0
M  V30 511 H 50.3904 -4.64777 1.3824 0
M  V30 512 N 51.7335 -0.305618 -1.54608 0
M  V30 513 C 52.6965 0.555591 -2.22364 0
M  V30 514 C 53.6965 1.05768 -1.21119 0
M  V30 515 O 54.8865 0.952972 -1.45822 0
M  V30 516 C 52.0185 1.76974 -2.91364 0
M  V30 517 H 53.2115 -0.0364572 -2.99878 0
M  V30 518 H 50.7645 -0.0565007 -1.56198 0
M  V30 519 H 51.4995 2.40151 -2.17941 0
M  V30 520 H 51.2845 1.41732 -3.65588 0
M  V30 521 H 52.7745 2.38148 -3.43038 0
M  V30 522 N 53.2116 1.57565 -0.0334293 0
M  V30 523 C 54.1416 2.13511 0.945265 0
M  V30 524 C 55.1226 1.05231 1.33643 0
M  V30 525 O 56.3076 1.33084 1.41429 0
M  V30 526 C 53.4376 2.6657 2.22616 0
M  V30 527 C 52.3916 3.79676 1.97561 0
M  V30 528 C 51.7176 4.1918 3.31952 0
M  V30 529 C 53.0176 5.0557 1.31135 0
M  V30 530 H 54.7116 2.95538 0.479325 0
M  V30 531 H 52.2576 1.42166 0.229115 0
M  V30 532 H 54.2106 3.04344 2.91466 0
M  V30 533 H 52.9346 1.8171 2.71384 0
M  V30 534 H 51.5936 3.42347 1.31127 0
M  V30 535 H 51.2416 3.31296 3.78487 0
M  V30 536 H 50.9416 4.95402 3.15992 0
M  V30 537 H 52.4656 4.59541 4.02063 0
M  V30 538 H 53.8796 5.40903 1.89992 0
M  V30 539 H 52.2766 5.86818 1.25559 0
M  V30 540 H 53.3466 4.84062 0.284894 0
M  V30 541 N 54.6897 -0.239769 1.55765 0
M  V30 542 C 55.9377 -0.964892 1.77579 0
M  V30 543 C 56.2587 -1.85582 0.598699 0
M  V30 544 O 55.5287 -1.92075 -0.385226 0
M  V30 545 H 54.1087 -0.359265 0.654933 0
M  V30 546 H 56.7707 -0.256001 1.93211 0
M  V30 547 H 55.8667 -1.58243 2.69009 0
M  V30 548 N 56.1678 -1.49265 -0.50573 0
M  V30 549 C 57.4168 -1.57761 -1.25675 0
M  V30 550 C 57.7298 -0.267371 -1.93764 0
M  V30 551 O 58.9358 -0.230827 -2.70517 0
M  V30 552 C 57.3918 -2.78332 -2.28165 0
M  V30 553 C 56.9998 -4.16096 -1.66037 0
M  V30 554 C 58.7438 -2.96155 -3.04125 0
M  V30 555 C 56.6508 -5.27895 -2.6661 0
M  V30 556 H 55.5808 -0.587391 -0.472745 0
M  V30 557 H 58.2318 -1.75644 -0.53118 0
M  V30 558 H 56.6138 -2.53934 -3.03865 0
M  V30 559 H 57.7878 -4.50612 -0.963622 0
M  V30 560 H 56.1028 -4.03591 -1.02484 0
M  V30 561 H 58.6998 -3.76849 -3.79327 0
M  V30 562 H 59.0428 -2.06534 -3.61455 0
M  V30 563 H 59.5758 -3.2057 -2.35541 0
M  V30 564 H 56.3148 -6.1956 -2.14068 0
M  V30 565 H 55.8348 -4.97839 -3.34539 0
M  V30 566 H 57.5138 -5.57031 -3.29129 0
M  V30 567 N 57.6459 0.756429 -1.3826 0
M  V30 568 C 58.6089 1.85176 -1.35065 0
M  V30 569 C 59.6089 1.58818 -0.251703 0
M  V30 570 O 60.7989 1.66615 -0.508433 0
M  V30 571 C 57.9309 3.22596 -1.10201 0
M  V30 572 H 59.1239 1.89417 -2.3251 0
M  V30 573 H 56.6769 0.95783 -1.23512 0
M  V30 574 H 57.4119 3.24025 -0.133504 0
M  V30 575 H 57.1969 3.43122 -1.89762 0
M  V30 576 H 58.6869 4.02673 -1.10654 0
M  V30 577 N 59.124 1.23083 0.984299 0
M  V30 578 C 60.37 1.07221 1.72845 0
M  V30 579 C 60.725 -0.387453 1.88458 0
M  V30 580 O 60.018 -1.28309 1.42293 0
M  V30 581 C 60.212 1.72673 3.1292 0
M  V30 582 C 60.041 3.24853 3.10967 0
M  V30 583 C 58.811 3.93998 3.16376 0
M  V30 584 C 61.009 4.21674 2.94441 0
M  V30 585 N 58.991 5.33192 3.04268 0
M  V30 586 C 60.362 5.47756 2.90453 0
M  V30 587 C 62.417 4.12457 2.78897 0
M  V30 588 C 61.12 6.6568 2.72512 0
M  V30 589 C 63.146 5.3004 2.62319 0
M  V30 590 C 62.508 6.55046 2.59026 0
M  V30 591 H 58.607 0.44685 0.641755 0
M  V30 592 H 61.191 1.55753 1.16829 0
M  V30 593 H 59.362 1.26679 3.67161 0
M  V30 594 H 61.094 1.49824 3.75945 0
M  V30 595 H 57.849 3.45052 3.24401 0
M  V30 596 H 58.273 6.06157 3.015 0
M  V30 597 H 62.915 3.16588 2.80235 0
M  V30 598 H 60.633 7.61689 2.69919 0
M  V30 599 H 64.219 5.24747 2.5126 0
M  V30 600 H 63.099 7.44498 2.46357 0
M  V30 601 N 60.6021 -1.18246 1.0419 0
M  V30 602 C 61.8791 -1.84121 0.660208 0
M  V30 603 C 62.2591 -1.92778 -0.860221 0
M  V30 604 O 61.6071 -1.45464 -1.76217 0
M  V30 605 C 61.8171 -3.22355 1.33747 0
M  V30 606 C 63.1651 -3.98376 1.46906 0
M  V30 607 O 64.1891 -3.31799 1.29568 0
M  V30 608 O 63.0481 -5.17665 1.75171 0
M  V30 609 H 60.1421 -0.794036 0.231161 0
M  V30 610 H 62.6881 -1.25628 1.14087 0
M  V30 611 H 61.4601 -3.10964 2.37522 0
M  V30 612 H 61.0831 -3.88506 0.845515 0
M  V30 613 N 62.0802 -0.821533 -1.34494 0
M  V30 614 C 63.4962 -0.507117 -1.51329 0
M  V30 615 C 63.6962 0.968964 -1.76673 0
M  V30 616 O 62.7522 1.75348 -1.81685 0
M  V30 617 C 64.0652 -1.36544 -2.67911 0
M  V30 618 C 65.6132 -1.36242 -2.81793 0
M  V30 619 C 66.0882 -2.2052 -4.01416 0
M  V30 620 N 67.5792 -2.18136 -4.08621 0
M  V30 621 C 68.3142 -2.80095 -5.00334 0
M  V30 622 N 67.8102 -3.51039 -5.9728 0
M  V30 623 N 69.6032 -2.69656 -4.93196 0
M  V30 624 H 61.7542 -1.77729 -1.16302 0
M  V30 625 H 64.0172 -0.757291 -0.570276 0
M  V30 626 H 63.7232 -2.41361 -2.55808 0
M  V30 627 H 63.5972 -1.02917 -3.62888 0
M  V30 628 H 65.9842 -0.322041 -2.93338 0
M  V30 629 H 66.0652 -1.73866 -1.87628 0
M  V30 630 H 65.7092 -3.24607 -3.90631 0
M  V30 631 H 65.6392 -1.80247 -4.94791 0
M  V30 632 H 68.1302 -1.6653 -3.39229 0
M  V30 633 H 68.4432 -3.95565 -6.63889 0
M  V30 634 H 66.7882 -3.55145 -5.97409 0
M  V30 635 H 69.9792 -2.13808 -4.16418 0
M  V30 636 H 70.1522 -3.1823 -5.64476 0
M  V30 637 N 63.5583 1.46682 -0.576371 0
M  V30 638 C 64.9743 1.57822 -0.237562 0
M  V30 639 C 65.1743 1.57237 1.26011 0
M  V30 640 O 64.2303 1.48596 2.04146 0
M  V30 641 C 65.5433 2.87499 -0.881168 0
M  V30 642 C 67.0913 3.01119 -0.85417 0
M  V30 643 C 67.5663 4.33524 -1.4772 0
M  V30 644 N 69.0573 4.40207 -1.44125 0
M  V30 645 C 69.7923 5.4126 -1.89276 0
M  V30 646 N 69.2883 6.49021 -2.42371 0
M  V30 647 N 71.0813 5.32422 -1.80231 0
M  V30 648 H 63.2323 1.45306 -1.54919 0
M  V30 649 H 65.4953 0.692733 -0.647167 0
M  V30 650 H 65.2013 2.9372 -1.93447 0
M  V30 651 H 65.0753 3.75224 -0.385592 0
M  V30 652 H 67.4623 2.94485 0.190491 0
M  V30 653 H 67.5433 2.14887 -1.3877 0
M  V30 654 H 67.1873 4.40916 -2.52103 0
M  V30 655 H 67.1173 5.1852 -0.918947 0
M  V30 656 H 69.6083 3.62931 -1.05307 0
M  V30 657 H 69.9213 7.2233 -2.74698 0
M  V30 658 H 68.2663 6.49858 -2.46393 0
M  V30 659 H 71.4573 4.47137 -1.38514 0
M  V30 660 H 71.6303 6.11034 -2.15735 0
M  V30 661 N 65.0364 0.313813 1.54444 0
M  V30 662 C 65.9664 -0.549454 2.26943 0
M  V30 663 C 66.9474 -1.12741 1.27372 0
M  V30 664 O 68.1324 -1.15436 1.56167 0
M  V30 665 C 65.2624 -1.71523 3.01989 0
M  V30 666 C 64.2164 -1.26703 4.08816 0
M  V30 667 C 63.5424 -2.51898 4.71647 0
M  V30 668 C 64.8424 -0.388962 5.2085 0
M  V30 669 H 66.5364 0.0552661 2.99349 0
M  V30 670 H 64.0824 0.0280207 1.43973 0
M  V30 671 H 66.0354 -2.32535 3.51433 0
M  V30 672 H 64.7594 -2.34639 2.27183 0
M  V30 673 H 63.4184 -0.679896 3.6024 0
M  V30 674 H 63.0664 -3.13356 3.93468 0
M  V30 675 H 62.7664 -2.22605 5.43802 0
M  V30 676 H 64.2904 -3.1369 5.23861 0
M  V30 677 H 65.7044 -0.905107 5.6611 0
M  V30 678 H 64.1014 -0.18924 5.99802 0
M  V30 679 H 65.1714 0.582699 4.81386 0
M  V30 680 N 66.5145 -1.57545 0.0417849 0
M  V30 681 C 67.9305 -1.56467 -0.314704 0
M  V30 682 C 68.1305 -1.04859 -1.72066 0
M  V30 683 O 67.1865 -0.700983 -2.42575 0
M  V30 684 C 68.4995 -3.00317 -0.15174 0
M  V30 685 C 70.0475 -3.12201 -0.223553 0
M  V30 686 C 70.5225 -4.57913 -0.0892295 0
M  V30 687 N 72.0135 -4.6297 -0.145808 0
M  V30 688 C 72.7485 -5.73362 -0.0658459 0
M  V30 689 N 72.2445 -6.92769 0.0659282 0
M  V30 690 N 74.0375 -5.6197 -0.12075 0
M  V30 691 H 66.1885 -1.89416 0.961014 0
M  V30 692 H 68.4515 -0.871862 0.372237 0
M  V30 693 H 68.1575 -3.42073 0.817254 0
M  V30 694 H 68.0315 -3.65892 -0.916692 0
M  V30 695 H 70.4185 -2.70349 -1.18301 0
M  V30 696 H 70.4995 -2.49323 0.571994 0
M  V30 697 H 70.1435 -5.00448 0.866867 0
M  V30 698 H 70.0735 -5.18786 -0.903802 0
M  V30 699 H 72.5645 -3.7709 -0.247286 0
M  V30 700 H 72.8775 -7.72707 0.119905 0
M  V30 701 H 71.2225 -6.94927 0.100885 0
M  V30 702 H 74.4135 -4.67572 -0.222187 0
M  V30 703 H 74.5865 -6.47977 -0.0549735 0
M  V30 704 N 67.9926 0.231505 -1.5589 0
M  V30 705 C 69.2176 0.978689 -1.82856 0
M  V30 706 C 69.6426 1.77559 -0.620846 0
M  V30 707 O 69.0006 1.76119 0.430305 0
M  V30 708 C 69.0486 1.87997 -3.07716 0
M  V30 709 O 68.1526 2.97393 -2.85712 0
M  V30 710 H 67.4936 0.277663 -0.603158 0
M  V30 711 H 70.0236 0.24783 -2.03093 0
M  V30 712 H 70.0336 2.2917 -3.37558 0
M  V30 713 H 68.7086 1.29417 -3.95252 0
M  V30 714 H 67.2856 2.60238 -2.67078 0
M  V30 715 N 69.4707 1.49531 0.497807 0
M  V30 716 C 70.8817 1.52344 1.07927 0
M  V30 717 C 71.2327 0.311469 1.93712 0
M  V30 718 O 70.3577 -0.578405 2.08527 0
M  V30 719 C 70.9527 2.76062 1.96405 0
M  V30 720 C 69.5117 2.81643 2.49709 0
M  V30 721 C 68.6587 2.46299 1.27404 0
M  V30 722 H 71.6097 1.56182 0.281576 0
M  V30 723 H 71.6307 2.56405 2.81135 0
M  V30 724 H 71.1427 3.64254 1.33943 0
M  V30 725 H 69.2437 1.97739 3.15801 0
M  V30 726 H 69.3567 3.83891 2.86643 0
M  V30 727 H 67.7207 1.98148 1.60029 0
M  V30 728 H 68.5037 3.36769 0.66645 0
M  V30 729 N 70.9488 -0.749086 1.3866 0
M  V30 730 C 72.3598 -1.32664 1.31366 0
M  V30 731 C 72.7108 -1.96179 -0.028484 0
M  V30 732 O 71.8358 -1.9537 -0.93057 0
M  V30 733 C 72.4308 -2.41219 2.37905 0
M  V30 734 C 70.9898 -2.94684 2.34176 0
M  V30 735 C 70.1368 -1.68108 2.20533 0
M  V30 736 H 73.0878 -0.547628 1.48952 0
M  V30 737 H 73.1088 -3.21268 2.0388 0
M  V30 738 H 72.6208 -1.94962 3.35576 0
M  V30 739 H 70.7218 -3.45258 1.401 0
M  V30 740 H 70.8348 -3.48757 3.2849 0
M  V30 741 H 69.1988 -1.91907 1.67463 0
M  V30 742 H 69.9818 -1.23923 3.20153 0
M  V30 743 N 72.4269 -1.23603 -0.977757 0
M  V30 744 C 73.3899 -1.02069 -2.05218 0
M  V30 745 C 74.3899 0.0184305 -1.60789 0
M  V30 746 O 75.5799 -0.221569 -1.72785 0
M  V30 747 C 72.7119 -0.544926 -3.36517 0
M  V30 748 H 73.9049 -1.9742 -2.25755 0
M  V30 749 H 71.4579 -1.05684 -1.15155 0
M  V30 750 H 72.1929 0.412241 -3.21669 0
M  V30 751 H 71.9779 -1.2948 -3.70105 0
M  V30 752 H 73.4679 -0.414985 -4.15533 0
M  V30 753 N 73.905 1.17692 -1.04816 0
M  V30 754 C 75.153 1.87488 -0.754497 0
M  V30 755 C 75.474 1.81205 0.720407 0
M  V30 756 O 74.744 1.23544 1.52032 0
M  V30 757 H 73.324 0.694101 -0.276102 0
M  V30 758 H 75.986 1.42793 -1.32651 0
M  V30 759 H 75.082 2.93328 -1.06606 0
M  V30 760 N 75.3831 0.828654 1.34056 0
M  V30 761 C 76.6231 0.425394 1.99924 0
M  V30 762 C 76.9871 -0.994294 1.64249 0
M  V30 763 O 78.1881 -1.50074 2.23005 0
M  V30 764 C 76.4591 0.628071 3.51838 0
M  V30 765 S 78.0181 0.318511 4.37642 0
M  V30 766 H 74.8361 0.160465 0.692656 0
M  V30 767 H 77.4381 1.07572 1.63244 0
M  V30 768 H 76.1421 1.66089 3.7529 0
M  V30 769 H 75.6731 -0.0367799 3.93383 0
M  V30 770 H 77.6881 -0.865632 4.88591 0
M  V30 771 N 76.8612 -1.46375 0.584142 0
M  V30 772 C 78.1082 -2.02378 0.0702675 0
M  V30 773 C 78.4362 -1.45545 -1.29023 0
M  V30 774 O 77.6912 -0.610967 -1.85918 0
M  V30 775 C 77.9902 -3.57373 -0.0439342 0
M  V30 776 C 77.6562 -4.33252 1.24915 0
M  V30 777 C 76.3182 -4.53701 1.60341 0
M  V30 778 C 78.6702 -4.7681 2.1048 0
M  V30 779 C 75.9982 -5.1496 2.81128 0
M  V30 780 C 78.3502 -5.39404 3.30494 0
M  V30 781 C 77.0142 -5.5808 3.66201 0
M  V30 782 H 76.2842 -0.740554 0.0257127 0
M  V30 783 H 78.9312 -1.75727 0.761065 0
M  V30 784 H 77.2362 -3.83169 -0.817869 0
M  V30 785 H 78.9332 -3.98384 -0.457318 0
M  V30 786 H 75.5232 -4.17633 0.963364 0
M  V30 787 H 79.7072 -4.60766 1.84414 0
M  V30 788 H 74.9632 -5.27611 3.08928 0
M  V30 789 H 79.1372 -5.72114 3.97063 0
M  V30 790 H 76.7642 -6.05318 4.59885 0
M  V30 791 N 78.3393 -0.321999 -1.54275 0
M  V30 792 C 79.5863 0.281044 -2.0054 0
M  V30 793 C 79.9143 1.52265 -1.21019 0
M  V30 794 O 79.1693 1.93687 -0.279982 0
M  V30 795 C 79.4683 0.661769 -3.5122 0
M  V30 796 C 79.1343 -0.480482 -4.48333 0
M  V30 797 C 77.7963 -0.794005 -4.74604 0
M  V30 798 C 80.1483 -1.24783 -5.06042 0
M  V30 799 C 77.4763 -1.87763 -5.55844 0
M  V30 800 C 79.8283 -2.32153 -5.88462 0
M  V30 801 C 78.4923 -2.64089 -6.13036 0
M  V30 802 H 77.7623 0.102841 -0.733829 0
M  V30 803 H 80.4093 -0.445453 -1.86247 0
M  V30 804 H 78.7143 1.46867 -3.63232 0
M  V30 805 H 80.4113 1.13989 -3.84457 0
M  V30 806 H 77.0013 -0.226039 -4.28004 0
M  V30 807 H 81.1853 -1.01887 -4.85729 0
M  V30 808 H 76.4413 -2.12954 -5.73115 0
M  V30 809 H 80.6153 -2.92057 -6.32199 0
M  V30 810 H 78.2423 -3.48185 -6.75775 0
M  V30 811 N 79.8174 1.5752 -0.0501392 0
M  V30 812 C 80.7474 2.14502 0.922566 0
M  V30 813 C 81.7284 1.06642 1.3252 0
M  V30 814 O 82.9134 1.34577 1.4001 0
M  V30 815 C 80.0434 2.68916 2.19776 0
M  V30 816 C 78.9974 3.8175 1.93523 0
M  V30 817 C 78.3234 4.22677 3.27487 0
M  V30 818 C 79.6234 5.06932 1.25765 0
M  V30 819 H 81.3174 2.9603 0.447952 0
M  V30 820 H 78.8634 1.42401 0.214024 0
M  V30 821 H 80.8164 3.07419 2.88222 0
M  V30 822 H 79.5404 1.84578 2.69441 0
M  V30 823 H 78.1994 3.43718 1.27489 0
M  V30 824 H 77.8474 3.35291 3.74952 0
M  V30 825 H 77.5474 4.98725 3.1072 0
M  V30 826 H 79.0714 4.63779 3.97166 0
M  V30 827 H 80.4854 5.42888 1.84244 0
M  V30 828 H 78.8824 5.88116 1.19328 0
M  V30 829 H 79.9524 4.84337 0.233536 0
M  V30 830 N 81.2955 -0.223234 1.56011 0
M  V30 831 C 82.5205 -0.968978 1.83373 0
M  V30 832 C 82.9455 -1.77227 0.630254 0
M  V30 833 O 82.3035 -1.76345 -0.420959 0
M  V30 834 C 82.3515 -1.86363 3.08709 0
M  V30 835 O 81.4555 -2.95873 2.87285 0
M  V30 836 H 80.7965 -0.274461 0.604622 0
M  V30 837 H 83.3265 -0.237056 2.03222 0
M  V30 838 H 83.3365 -2.27376 3.38768 0
M  V30 839 H 82.0115 -1.27319 3.95933 0
M  V30 840 H 80.5885 -2.58818 2.68454 0
M  V30 841 N 82.7736 -1.49793 -0.48987 0
M  V30 842 C 83.7036 -1.70201 -1.59856 0
M  V30 843 C 84.6846 -0.55076 -1.60937 0
M  V30 844 O 85.8696 -0.787841 -1.77501 0
M  V30 845 C 82.9996 -1.77882 -2.98287 0
M  V30 846 C 81.9536 -2.92907 -3.12073 0
M  V30 847 C 81.2796 -2.85712 -4.51965 0
M  V30 848 C 82.5796 -4.3369 -2.91051 0
M  V30 849 H 84.2736 -2.63025 -1.43032 0
M  V30 850 H 81.8196 -1.26574 -0.686664 0
M  V30 851 H 83.7726 -1.90744 -3.75759 0
M  V30 852 H 82.4966 -0.816653 -3.16225 0
M  V30 853 H 81.1556 -2.79665 -2.37029 0
M  V30 854 H 80.8036 -1.8738 -4.66795 0
M  V30 855 H 80.5036 -3.62921 -4.62128 0
M  V30 856 H 82.0276 -3.00598 -5.31482 0
M  V30 857 H 83.4416 -4.47555 -3.58284 0
M  V30 858 H 81.8386 -5.12205 -3.12675 0
M  V30 859 H 82.9086 -4.47362 -1.87071 0
M  V30 860 N 84.2517 0.741722 -1.39055 0
M  V30 861 C 85.1817 1.869 -1.39966 0
M  V30 862 C 86.1627 1.6804 -0.26392 0
M  V30 863 O 87.3477 1.88458 -0.468755 0
M  V30 864 C 84.4777 3.24572 -1.23574 0
M  V30 865 C 83.4317 3.58056 -2.34477 0
M  V30 866 C 82.7577 4.94593 -2.0318 0
M  V30 867 C 84.0577 3.61716 -3.76774 0
M  V30 868 H 85.7517 1.86395 -2.34302 0
M  V30 869 H 83.2977 0.895361 -1.1278 0
M  V30 870 H 85.2507 4.031 -1.22834 0
M  V30 871 H 83.9747 3.25587 -0.257045 0
M  V30 872 H 82.6337 2.81854 -2.34423 0
M  V30 873 H 82.2817 4.92181 -1.03765 0
M  V30 874 H 81.9817 5.17964 -2.77465 0
M  V30 875 H 83.5057 5.75486 -2.04079 0
M  V30 876 H 84.9197 4.30335 -3.78794 0
M  V30 877 H 83.3167 3.96603 -4.50362 0
M  V30 878 H 84.3867 2.61672 -4.08235 0
M  V30 879 N 85.7298 1.2412 0.971189 0
M  V30 880 C 86.6598 1.05508 2.08304 0
M  V30 881 C 87.6408 -0.0308864 1.70072 0
M  V30 882 O 88.8258 0.135521 1.93727 0
M  V30 883 C 85.9558 0.655365 3.4106 0
M  V30 884 C 84.9098 1.68971 3.93234 0
M  V30 885 C 84.2358 1.14516 5.22293 0
M  V30 886 C 85.5358 3.08487 4.21465 0
M  V30 887 H 87.2298 1.98507 2.24132 0
M  V30 888 H 84.7758 0.955821 1.07704 0
M  V30 889 H 86.7288 0.51217 4.18276 0
M  V30 890 H 85.4528 -0.31032 3.25122 0
M  V30 891 H 84.1118 1.82106 3.18171 0
M  V30 892 H 83.7598 0.170189 5.02712 0
M  V30 893 H 83.4598 1.83635 5.58168 0
M  V30 894 H 84.9838 1.01401 6.02121 0
M  V30 895 H 86.3978 2.98601 4.89398 0
M  V30 896 H 84.7948 3.74926 4.68562 0
M  V30 897 H 85.8648 3.56787 3.28376 0
M  V30 898 N 87.2079 -1.17134 1.05439 0
M  V30 899 C 88.1709 -2.19439 0.661764 0
M  V30 900 C 89.1709 -1.58199 -0.288042 0
M  V30 901 O 90.3609 -1.74053 -0.0715803 0
M  V30 902 C 87.4929 -3.40889 -0.0276209 0
M  V30 903 H 88.6859 -2.55688 1.56728 0
M  V30 904 H 86.2389 -1.31259 0.848567 0
M  V30 905 H 86.9739 -3.10187 -0.94629 0
M  V30 906 H 86.7589 -3.86586 0.655238 0
M  V30 907 H 88.2489 -4.16603 -0.288342 0
M  V30 908 N 88.686 -0.835752 -1.33615 0
M  V30 909 C 89.934 -0.429109 -1.97492 0
M  V30 910 C 90.255 1.01433 -1.66543 0
M  V30 911 O 89.525 1.70611 -0.962744 0
M  V30 912 H 88.105 -0.155686 -0.730596 0
M  V30 913 H 90.767 -1.06802 -1.63031 0
M  V30 914 H 89.863 -0.55861 -3.0706 0
M  V30 915 N 90.1641 1.46063 -0.591896 0
M  V30 916 C 91.0941 2.33172 0.123673 0
M  V30 917 C 92.0751 1.45897 0.87453 0
M  V30 918 O 93.2601 1.74698 0.848181 0
M  V30 919 C 90.3901 3.28336 1.13194 0
M  V30 920 C 89.3441 4.25124 0.495324 0
M  V30 921 C 88.6701 5.09863 1.61071 0
M  V30 922 C 89.9701 5.19143 -0.573425 0
M  V30 923 H 91.6641 2.93252 -0.603646 0
M  V30 924 H 89.2101 1.41014 -0.291741 0
M  V30 925 H 91.1631 3.88137 1.64097 0
M  V30 926 H 89.8871 2.66383 1.88965 0
M  V30 927 H 88.5461 3.66599 0.00729452 0
M  V30 928 H 88.1941 4.44288 2.35832 0
M  V30 929 H 87.8941 5.75417 1.19035 0
M  V30 930 H 89.4181 5.72529 2.12233 0
M  V30 931 H 90.8321 5.73106 -0.1491 0
M  V30 932 H 89.2291 5.93089 -0.914636 0
M  V30 933 H 90.2991 4.62519 -1.45617 0
M  V30 934 N 91.6422 0.330177 1.54103 0
M  V30 935 C 92.5722 -0.525353 2.27513 0
M  V30 936 C 93.5532 -1.11383 1.2856 0
M  V30 937 O 94.7382 -1.13773 1.57383 0
M  V30 938 C 91.8682 -1.6831 3.03791 0
M  V30 939 C 90.8222 -1.2236 4.10137 0
M  V30 940 C 90.1482 -2.46882 4.74293 0
M  V30 941 C 91.4482 -0.333697 5.21233 0
M  V30 942 H 93.1422 0.087013 2.99274 0
M  V30 943 H 90.6882 0.0432893 1.43935 0
M  V30 944 H 92.6412 -2.28795 3.5388 0
M  V30 945 H 91.3652 -2.32216 2.29659 0
M  V30 946 H 90.0242 -0.64165 3.60941 0
M  V30 947 H 89.6722 -3.09165 3.96769 0
M  V30 948 H 89.3722 -2.16825 5.46133 0
M  V30 949 H 90.8962 -3.08117 5.27159 0
M  V30 950 H 92.3102 -0.845013 5.67038 0
M  V30 951 H 90.7072 -0.125612 5.99969 0
M  V30 952 H 91.7772 0.633724 4.80741 0
M  V30 953 N 93.1203 -1.57491 0.0584922 0
M  V30 954 C 94.3483 -1.97296 -0.623037 0
M  V30 955 C 94.7633 -0.936338 -1.63946 0
M  V30 956 O 94.1203 0.0785981 -1.82331 0
M  V30 957 C 94.1713 -3.37183 -1.30345 0
M  V30 958 O 93.8923 -4.36872 -0.32773 0
M  V30 959 C 95.3933 -3.91788 -2.07406 0
M  V30 960 H 92.6133 -0.649153 -0.169826 0
M  V30 961 H 95.1573 -2.04106 0.12696 0
M  V30 962 H 93.3123 -3.31502 -2.00463 0
M  V30 963 H 93.7263 -5.18141 -0.814269 0
M  V30 964 H 95.2003 -4.91926 -2.50425 0
M  V30 965 H 95.6773 -3.27609 -2.92521 0
M  V30 966 H 96.2833 -4.00829 -1.42184 0
M  V30 967 N 94.5984 0.214957 -1.56127 0
M  V30 968 C 95.8464 0.936518 -1.79091 0
M  V30 969 C 96.1674 1.84606 -0.628148 0
M  V30 970 O 95.4374 1.92664 0.35462 0
M  V30 971 H 94.0174 0.3488 -0.660566 0
M  V30 972 H 96.6794 0.22523 -1.93594 0
M  V30 973 H 95.7754 1.53943 -2.71492 0
M  V30 974 N 96.0765 1.50051 0.48192 0
M  V30 975 C 97.0065 1.71046 1.58951 0
M  V30 976 C 97.9875 0.559288 1.60642 0
M  V30 977 O 99.1725 0.797243 1.77081 0
M  V30 978 C 96.3025 1.79462 2.97339 0
M  V30 979 C 95.2565 2.94558 3.10515 0
M  V30 980 C 94.5825 2.88105 4.50444 0
M  V30 981 C 95.8825 4.35227 2.88747 0
M  V30 982 H 97.5765 2.6378 1.41635 0
M  V30 983 H 95.1225 1.26936 0.679942 0
M  V30 984 H 97.0755 1.92734 3.74742 0
M  V30 985 H 95.7995 0.833412 3.15788 0
M  V30 986 H 94.4585 2.80918 2.35543 0
M  V30 987 H 94.1065 1.89853 4.65795 0
M  V30 988 H 93.8065 3.65366 4.60197 0
M  V30 989 H 95.3305 3.03412 5.29881 0
M  V30 990 H 96.7445 4.49449 3.55905 0
M  V30 991 H 95.1415 5.13856 3.09955 0
M  V30 992 H 96.2115 4.48347 1.84696 0
M  V30 993 N 97.5546 -0.734337 1.39446 0
M  V30 994 C 98.5176 -1.83004 1.37994 0
M  V30 995 C 99.5176 -1.58397 0.276938 0
M  V30 996 O 100.708 -1.65785 0.534875 0
M  V30 997 C 97.8396 -3.20802 1.1532 0
M  V30 998 H 99.0326 -1.85694 2.35494 0
M  V30 999 H 96.5856 -0.938059 1.25021 0
M  V30 1000 H 97.3206 -3.23772 0.185036 0
M  V30 1001 H 97.1056 -3.4006 1.95197 0
M  V30 1002 H 98.5956 -4.00862 1.17046 0
M  V30 1003 N 99.0327 -1.24633 -0.964593 0
M  V30 1004 C 99.9627 -1.06611 -2.07741 0
M  V30 1005 C 100.944 0.0218666 -1.70086 0
M  V30 1006 O 102.129 -0.145793 -1.93652 0
M  V30 1007 C 99.2587 -0.673444 -3.40708 0
M  V30 1008 C 98.2127 -1.71054 -3.92332 0
M  V30 1009 C 97.5387 -1.17285 -5.21678 0
M  V30 1010 C 98.8387 -3.10718 -4.19824 0
M  V30 1011 H 100.533 -1.99693 -2.23076 0
M  V30 1012 H 98.0787 -0.96152 -1.07195 0
M  V30 1013 H 100.032 -0.534345 -4.17998 0
M  V30 1014 H 98.7557 0.293073 -3.25282 0
M  V30 1015 H 97.4147 -1.83791 -3.17201 0
M  V30 1016 H 97.0627 -0.196847 -5.02615 0
M  V30 1017 H 96.7627 -1.86592 -5.57187 0
M  V30 1018 H 98.2867 -1.04593 -6.01575 0
M  V30 1019 H 99.7007 -3.01192 -4.87808 0
M  V30 1020 H 98.0977 -3.77406 -4.66567 0
M  V30 1021 H 99.1677 -3.58524 -3.26479 0
M  V30 1022 N 100.511 1.16574 -1.06058 0
M  V30 1023 C 101.922 1.68662 -0.800632 0
M  V30 1024 C 102.273 1.84184 0.67608 0
M  V30 1025 O 101.398 1.53568 1.52466 0
M  V30 1026 C 101.993 3.06356 -1.44676 0
M  V30 1027 C 100.552 3.55575 -1.23465 0
M  V30 1028 C 99.6988 2.31616 -1.52477 0
M  V30 1029 H 102.65 1.00969 -1.22438 0
M  V30 1030 H 102.671 3.70636 -0.860788 0
M  V30 1031 H 102.183 2.95027 -2.52152 0
M  V30 1032 H 100.284 3.72167 -0.179527 0
M  V30 1033 H 100.397 4.37812 -1.94571 0
M  V30 1034 H 98.7608 2.36512 -0.945209 0
M  V30 1035 H 99.5438 2.22887 -2.61106 0
M  V30 1036 N 101.989 0.842826 1.3317 0
M  V30 1037 C 103.217 0.454055 2.01856 0
M  V30 1038 C 103.632 -0.94587 1.63397 0
M  V30 1039 O 102.989 -1.61534 0.849302 0
M  V30 1040 C 103.04 0.569715 3.56982 0
M  V30 1041 O 102.761 1.91448 3.94055 0
M  V30 1042 C 104.262 0.178412 4.42941 0
M  V30 1043 H 101.482 0.17979 0.646465 0
M  V30 1044 H 104.026 1.1365 1.70012 0
M  V30 1045 H 102.181 -0.0648587 3.87346 0
M  V30 1046 H 102.595 1.90282 4.88767 0
M  V30 1047 H 104.069 0.310376 5.51127 0
M  V30 1048 H 104.546 -0.880056 4.30293 0
M  V30 1049 H 105.152 0.787579 4.17944 0
M  V30 1050 N 103.467 -1.45747 0.599634 0
M  V30 1051 C 104.397 -2.33235 -0.111306 0
M  V30 1052 C 105.378 -1.46359 -0.866781 0
M  V30 1053 O 106.563 -1.75146 -0.838904 0
M  V30 1054 C 103.693 -3.28932 -1.11451 0
M  V30 1055 C 102.647 -4.25381 -0.472772 0
M  V30 1056 C 101.973 -5.1071 -1.58365 0
M  V30 1057 C 103.273 -5.18831 0.600948 0
M  V30 1058 H 104.967 -2.92927 0.61919 0
M  V30 1059 H 102.513 -1.40857 0.299215 0
M  V30 1060 H 104.466 -3.89002 -1.62036 0
M  V30 1061 H 103.19 -2.67381 -1.8755 0
M  V30 1062 H 101.849 -3.66598 0.0121472 0
M  V30 1063 H 101.497 -4.45533 -2.33473 0
M  V30 1064 H 101.197 -5.7604 -1.15982 0
M  V30 1065 H 102.721 -5.73647 -2.09194 0
M  V30 1066 H 104.135 -5.73019 0.179491 0
M  V30 1067 H 102.532 -5.92595 0.946076 0
M  V30 1068 H 103.602 -4.6174 1.48068 0
M  V30 1069 N 104.945 -0.338344 -1.53925 0
M  V30 1070 C 106.356 0.146651 -1.86123 0
M  V30 1071 C 106.707 1.5042 -1.2597 0
M  V30 1072 O 105.832 2.08723 -0.571294 0
M  V30 1073 C 106.427 0.272879 -3.37699 0
M  V30 1074 C 104.986 0.702103 -3.69794 0
M  V30 1075 C 104.133 -0.167304 -2.76795 0
M  V30 1076 H 107.084 -0.558123 -1.48562 0
M  V30 1077 H 107.105 1.10128 -3.64214 0
M  V30 1078 H 106.617 -0.715307 -3.81451 0
M  V30 1079 H 104.718 1.6995 -3.31584 0
M  V30 1080 H 104.831 0.495604 -4.7653 0
M  V30 1081 H 103.195 0.359527 -2.5215 0
M  V30 1082 H 103.978 -1.15253 -3.23375 0
M  V30 1083 N 106.423 1.57458 -0.0668435 0
M  V30 1084 C 107.671 1.92919 0.602214 0
M  V30 1085 C 107.992 0.947215 1.70449 0
M  V30 1086 O 107.262 -0.00544117 1.95899 0
M  V30 1087 H 105.842 0.71217 0.22544 0
M  V30 1088 H 108.504 1.94508 -0.123535 0
M  V30 1089 H 107.6 2.94589 1.03073 0
M  V30 1090 N 107.901 -0.206675 1.56239 0
M  V30 1091 C 108.831 -1.25909 1.96645 0
M  V30 1092 C 109.812 -1.48097 0.836734 0
M  V30 1093 O 110.997 -1.6003 1.10019 0
M  V30 1094 C 108.127 -2.6058 2.29599 0
M  V30 1095 C 107.081 -2.53024 3.452 0
M  V30 1096 C 106.407 -3.91861 3.63798 0
M  V30 1097 C 107.707 -2.06524 4.79734 0
M  V30 1098 H 109.401 -0.923369 2.84806 0
M  V30 1099 H 106.947 -0.442735 1.37025 0
M  V30 1100 H 108.9 -3.34375 2.56459 0
M  V30 1101 H 107.624 -2.95869 1.38307 0
M  V30 1102 H 106.283 -1.81684 3.18412 0
M  V30 1103 H 105.931 -4.24483 2.69857 0
M  V30 1104 H 105.631 -3.87683 4.4156 0
M  V30 1105 H 107.155 -4.67296 3.93022 0
M  V30 1106 H 108.569 -2.70072 5.05702 0
M  V30 1107 H 106.966 -2.13374 5.60885 0
M  V30 1108 H 108.036 -1.01802 4.74093 0
M  V30 1109 N 109.379 -1.50304 -0.473955 0
M  V30 1110 C 110.625 -1.62358 -1.22521 0
M  V30 1111 C 110.98 -0.318555 -1.89745 0
M  V30 1112 O 110.273 0.683315 -1.79001 0
M  V30 1113 C 110.467 -2.73938 -2.29549 0
M  V30 1114 C 110.296 -4.15165 -1.72825 0
M  V30 1115 C 109.066 -4.81604 -1.52924 0
M  V30 1116 C 111.264 -4.99503 -1.22481 0
M  V30 1117 N 109.246 -6.07056 -0.91413 0
M  V30 1118 C 110.617 -6.15655 -0.732743 0
M  V30 1119 C 112.672 -4.85299 -1.11308 0
M  V30 1120 C 111.375 -7.19164 -0.139976 0
M  V30 1121 C 113.401 -5.88982 -0.534258 0
M  V30 1122 C 112.763 -7.0438 -0.0525562 0
M  V30 1123 H 108.862 -0.648286 -0.437321 0
M  V30 1124 H 111.446 -1.87413 -0.527692 0
M  V30 1125 H 109.617 -2.50611 -2.9673 0
M  V30 1126 H 111.349 -2.75366 -2.96573 0
M  V30 1127 H 108.104 -4.3885 -1.78067 0
M  V30 1128 H 108.528 -6.74108 -0.625071 0
M  V30 1129 H 113.17 -3.96369 -1.47144 0
M  V30 1130 H 110.888 -8.07771 0.230591 0
M  V30 1131 H 114.474 -5.80055 -0.450219 0
M  V30 1132 H 113.354 -7.83238 0.388324 0
M  V30 1133 N 110.857 0.726932 -1.39834 0
M  V30 1134 C 111.805 1.86235 -1.39353 0
M  V30 1135 C 112.799 1.67144 -0.275555 0
M  V30 1136 O 114.005 1.74387 -0.44601 0
M  V30 1137 H 110.38 0.613174 -0.43534 0
M  V30 1138 H 112.351 1.83756 -2.35109 0
M  V30 1139 C 111.1 3.23995 -1.26185 0
M  V30 1140 H 110.423 3.39285 -2.11484 0
M  V30 1141 H 111.863 4.03609 -1.29907 0
M  V30 1142 C 110.322 3.36888 0.0290018 0
M  V30 1143 O 110.852 3.89152 0.99619 0
M  V30 1144 N 109.058 2.90446 0.0947437 0
M  V30 1145 H 108.605 2.48102 -0.693035 0
M  V30 1146 H 108.563 2.99451 0.957932 0
M  V30 1147 N 112.336 1.25143 0.95797 0
M  V30 1148 C 113.268 1.01023 2.05735 0
M  V30 1149 C 114.281 -0.0236902 1.62783 0
M  V30 1150 O 115.47 0.21448 1.77207 0
M  V30 1151 C 112.57 0.504595 3.35122 0
M  V30 1152 C 111.743 1.6039 4.06932 0
M  V30 1153 C 110.802 1.09922 5.14591 0
M  V30 1154 O 109.828 1.79293 5.40225 0
M  V30 1155 N 111.03 -0.0612545 5.80468 0
M  V30 1156 H 113.795 1.95683 2.26998 0
M  V30 1157 H 111.356 1.16303 1.12629 0
M  V30 1158 H 113.348 0.151516 4.04416 0
M  V30 1159 H 111.918 -0.347989 3.10657 0
M  V30 1160 H 111.138 2.12872 3.31782 0
M  V30 1161 H 112.426 2.34252 4.51667 0
M  V30 1162 H 111.824 -0.640985 5.62057 0
M  V30 1163 H 110.381 -0.355395 6.5083 0
M  V30 1164 N 113.814 -1.1601 1.06675 0
M  V30 1165 C 115.039 -1.91068 0.806706 0
M  V30 1166 C 115.464 -1.77112 -0.633485 0
M  V30 1167 O 114.822 -1.09908 -1.44187 0
M  V30 1168 C 114.87 -3.39655 1.21106 0
M  V30 1169 O 113.974 -4.10893 0.352189 0
M  V30 1170 H 113.315 -0.595125 0.294486 0
M  V30 1171 H 115.845 -1.46955 1.42356 0
M  V30 1172 H 115.855 -3.90434 1.18428 0
M  V30 1173 H 114.53 -3.49132 2.26008 0
M  V30 1174 H 113.107 -3.70285 0.440868 0
M  V30 1175 N 115.292 -0.849877 -1.32721 0
M  V30 1176 C 116.708 -0.539102 -1.50219 0
M  V30 1177 C 116.908 0.931271 -1.78689 0
M  V30 1178 O 115.964 1.71455 -1.85363 0
M  V30 1179 C 117.277 -1.42196 -2.64954 0
M  V30 1180 C 118.825 -1.42189 -2.78839 0
M  V30 1181 C 119.3 -2.28985 -3.96648 0
M  V30 1182 N 120.791 -2.26754 -4.03902 0
M  V30 1183 C 121.526 -2.90644 -4.94281 0
M  V30 1184 N 121.022 -3.63629 -5.897 0
M  V30 1185 N 122.815 -2.80057 -4.87365 0
M  V30 1186 H 114.966 -1.80156 -1.12506 0
M  V30 1187 H 117.229 -0.769217 -0.554085 0
M  V30 1188 H 116.935 -2.46733 -2.50631 0
M  V30 1189 H 116.809 -1.10591 -3.60624 0
M  V30 1190 H 119.196 -0.38419 -2.92588 0
M  V30 1191 H 119.277 -1.77807 -1.83898 0
M  V30 1192 H 118.921 -3.32819 -3.83658 0
M  V30 1193 H 118.851 -1.90702 -4.90857 0
M  V30 1194 H 121.342 -1.73688 -3.3562 0
M  V30 1195 H 121.655 -4.09558 -6.55349 0
M  V30 1196 H 120 -3.67737 -5.89741 0
M  V30 1197 H 123.191 -2.22593 -4.11789 0
M  V30 1198 H 123.364 -3.30132 -5.57599 0
M  V30 1199 N 116.77 1.45427 -0.607355 0
M  V30 1200 C 118.186 1.57283 -0.270985 0
M  V30 1201 C 118.386 1.59875 1.22647 0
M  V30 1202 O 117.442 1.52893 2.00948 0
M  V30 1203 C 118.755 2.85566 -0.941952 0
M  V30 1204 C 120.303 2.9924 -0.917849 0
M  V30 1205 C 120.778 4.30293 -1.56882 0
M  V30 1206 N 122.269 4.37051 -1.5343 0
M  V30 1207 C 123.004 5.37123 -2.00715 0
M  V30 1208 N 122.5 6.43734 -2.56084 0
M  V30 1209 N 124.293 5.28479 -1.91484 0
M  V30 1210 H 116.444 1.41988 -1.57966 0
M  V30 1211 H 118.707 0.67885 -0.661715 0
M  V30 1212 H 118.413 2.8955 -1.99633 0
M  V30 1213 H 118.287 3.74322 -0.465096 0
M  V30 1214 H 120.674 2.94822 0.127984 0
M  V30 1215 H 120.755 2.11895 -1.43297 0
M  V30 1216 H 120.399 4.35469 -2.61398 0
M  V30 1217 H 120.329 5.16454 -1.02873 0
M  V30 1218 H 122.82 3.60615 -1.12982 0
M  V30 1219 H 123.133 7.16341 -2.89958 0
M  V30 1220 H 121.478 6.44485 -2.60122 0
M  V30 1221 H 124.669 4.44098 -1.47967 0
M  V30 1222 H 124.842 6.0632 -2.28648 0
M  V30 1223 N 118.248 0.346503 1.53744 0
M  V30 1224 C 119.496 -0.248612 2.00565 0
M  V30 1225 C 119.817 -1.5083 1.23593 0
M  V30 1226 O 119.087 -1.92858 0.343912 0
M  V30 1227 H 117.667 -0.0948564 0.740953 0
M  V30 1228 H 120.329 0.468341 1.89189 0
M  V30 1229 H 119.425 -0.488994 3.08245 0
M  V30 1230 N 119.726 -1.57421 0.075193 0
M  V30 1231 C 120.956 -1.97659 -0.601203 0
M  V30 1232 C 121.364 -0.952427 -1.63479 0
M  V30 1233 O 120.707 0.0688241 -1.83571 0
M  V30 1234 C 120.769 -3.34218 -1.32434 0
M  V30 1235 C 120.433 -4.5484 -0.443826 0
M  V30 1236 C 121.43 -5.19034 0.299969 0
M  V30 1237 C 119.115 -5.00952 -0.367709 0
M  V30 1238 C 121.109 -6.27695 1.10807 0
M  V30 1239 C 118.796 -6.09484 0.444058 0
M  V30 1240 C 119.794 -6.72719 1.18061 0
M  V30 1241 O 119.482 -7.79161 1.97898 0
M  V30 1242 H 119.214 -0.65494 -0.167422 0
M  V30 1243 H 121.768 -2.04886 0.145157 0
M  V30 1244 H 119.998 -3.23615 -2.11685 0
M  V30 1245 H 121.687 -3.59038 -1.89331 0
M  V30 1246 H 122.453 -4.84351 0.250776 0
M  V30 1247 H 118.332 -4.51509 -0.930638 0
M  V30 1248 H 121.876 -6.76982 1.68347 0
M  V30 1249 H 117.773 -6.43601 0.494803 0
M  V30 1250 H 118.541 -7.96055 1.90367 0
M  V30 1251 N 121.204 0.198386 -1.56346 0
M  V30 1252 C 122.45 0.916115 -1.81601 0
M  V30 1253 C 122.805 1.81025 -0.651744 0
M  V30 1254 O 122.098 1.88316 0.353229 0
M  V30 1255 C 122.292 1.77031 -3.10475 0
M  V30 1256 C 122.121 0.960365 -4.39326 0
M  V30 1257 C 120.891 0.646093 -5.01152 0
M  V30 1258 C 123.089 0.314628 -5.13337 0
M  V30 1259 N 121.071 -0.182828 -6.13628 0
M  V30 1260 C 122.442 -0.37664 -6.18855 0
M  V30 1261 C 124.497 0.230019 -4.97368 0
M  V30 1262 C 123.2 -1.14445 -7.10137 0
M  V30 1263 C 125.226 -0.524389 -5.89071 0
M  V30 1264 C 124.588 -1.20412 -6.94032 0
M  V30 1265 H 120.687 0.314732 -0.715868 0
M  V30 1266 H 123.271 0.185102 -1.93818 0
M  V30 1267 H 121.442 2.47295 -2.99499 0
M  V30 1268 H 123.174 2.42727 -3.2383 0
M  V30 1269 H 119.929 0.969724 -4.63566 0
M  V30 1270 H 120.353 -0.586802 -6.74452 0
M  V30 1271 H 124.995 0.741184 -4.16253 0
M  V30 1272 H 122.713 -1.66706 -7.90718 0
M  V30 1273 H 126.299 -0.591167 -5.78789 0
M  V30 1274 H 125.179 -1.77853 -7.63766 0
M  V30 1275 N 122.682 1.50554 0.465978 0
M  V30 1276 C 123.907 1.65838 1.24549 0
M  V30 1277 C 124.332 0.343486 1.84937 0
M  V30 1278 O 123.69 -0.69324 1.67523 0
M  V30 1279 C 123.738 2.75533 2.32624 0
M  V30 1280 O 122.842 2.37142 3.37398 0
M  V30 1281 H 122.183 0.553893 0.366194 0
M  V30 1282 H 124.713 1.96959 0.553927 0
M  V30 1283 H 124.723 2.98763 2.77857 0
M  V30 1284 H 123.398 3.70962 1.88043 0
M  V30 1285 H 121.975 2.24377 2.97841 0
M  V30 1286 N 124.16 -0.719506 1.40217 0
M  V30 1287 C 125.4 -1.49181 1.39729 0
M  V30 1288 C 125.764 -1.92 -0.00250614 0
M  V30 1289 O 126.965 -2.68473 -0.132479 0
M  V30 1290 C 125.236 -2.68767 2.35582 0
M  V30 1291 S 126.795 -3.58224 2.53418 0
M  V30 1292 H 123.613 -0.510091 0.495307 0
M  V30 1293 H 126.215 -0.841724 1.76452 0
M  V30 1294 H 124.919 -2.35475 3.36124 0
M  V30 1295 H 124.45 -3.38691 2.0013 0
M  V30 1296 H 126.465 -4.63033 1.78367 0
M  V30 1297 N 125.638 -1.25649 -0.95132 0
M  V30 1298 C 126.568 -1.08808 -2.06599 0
M  V30 1299 C 127.549 0.00382547 -1.701 0
M  V30 1300 O 128.734 -0.166325 -1.93486 0
M  V30 1301 C 125.864 -0.709542 -3.39975 0
M  V30 1302 C 124.818 -1.75206 -3.90496 0
M  V30 1303 C 124.144 -1.22811 -5.20405 0
M  V30 1304 C 125.444 -3.15153 -4.16504 0
M  V30 1305 H 127.138 -2.02048 -2.20946 0
M  V30 1306 H 124.684 -0.972835 -1.06169 0
M  V30 1307 H 126.637 -0.578649 -4.17408 0
M  V30 1308 H 125.361 0.258556 -3.25575 0
M  V30 1309 H 124.02 -1.87145 -3.15234 0
M  V30 1310 H 123.668 -0.250145 -5.02378 0
M  V30 1311 H 123.368 -1.92492 -5.55176 0
M  V30 1312 H 124.892 -1.10968 -6.00432 0
M  V30 1313 H 126.306 -3.06349 -4.84586 0
M  V30 1314 H 124.703 -3.82333 -4.62538 0
M  V30 1315 H 125.773 -3.61966 -3.22658 0
M  V30 1316 N 127.117 1.15442 -1.07289 0
M  V30 1317 C 128.047 2.22312 -0.714107 0
M  V30 1318 C 129.028 1.67467 0.298155 0
M  V30 1319 O 130.213 1.93445 0.171048 0
M  V30 1320 C 127.343 3.47124 -0.110448 0
M  V30 1321 C 126.297 4.14926 -1.04979 0
M  V30 1322 C 125.623 5.33807 -0.308924 0
M  V30 1323 C 126.923 4.64762 -2.38314 0
M  V30 1324 H 128.617 2.5258 -1.6076 0
M  V30 1325 H 126.163 1.21404 -0.77441 0
M  V30 1326 H 128.116 4.21124 0.152482 0
M  V30 1327 H 126.84 3.16187 0.81812 0
M  V30 1328 H 125.499 3.42866 -1.29764 0
M  V30 1329 H 125.147 4.99126 0.623084 0
M  V30 1330 H 124.847 5.80113 -0.935036 0
M  V30 1331 H 126.371 6.10576 -0.0537771 0
M  V30 1332 H 127.785 5.30292 -2.1786 0
M  V30 1333 H 126.182 5.21728 -2.96514 0
M  V30 1334 H 127.252 3.80434 -3.00663 0
M  V30 1335 N 128.595 0.856903 1.32268 0
M  V30 1336 C 129.841 0.462069 1.97466 0
M  V30 1337 C 130.174 -0.980298 1.67642 0
M  V30 1338 O 129.449 -1.68824 0.965858 0
M  V30 1339 C 129.732 0.704336 3.53145 0
M  V30 1340 C 129.585 2.19529 3.9259 0
M  V30 1341 C 130.904 0.1622 4.39801 0
M  V30 1342 H 128.023 0.169357 0.717278 0
M  V30 1343 H 130.665 1.07574 1.56614 0
M  V30 1344 H 128.815 0.181999 3.88073 0
M  V30 1345 H 130.487 2.78387 3.67829 0
M  V30 1346 H 128.73 2.67292 3.41668 0
M  V30 1347 H 129.401 2.31549 5.01088 0
M  V30 1348 H 131.877 0.608905 4.11621 0
M  V30 1349 H 130.753 0.361265 5.4771 0
M  V30 1350 H 131.014 -0.935158 4.32096 0
M  V30 1351 N 130.073 -1.45103 0.615059 0
M  V30 1352 C 131.303 -2.06254 0.119596 0
M  V30 1353 C 131.711 -1.4591 -1.20445 0
M  V30 1354 O 131.054 -0.570384 -1.7462 0
M  V30 1355 C 131.116 -3.59396 -0.0865591 0
M  V30 1356 C 130.78 -4.42116 1.15683 0
M  V30 1357 C 131.777 -4.7662 2.07676 0
M  V30 1358 C 129.462 -4.82749 1.38775 0
M  V30 1359 C 131.456 -5.50622 3.21082 0
M  V30 1360 C 129.143 -5.56504 2.52481 0
M  V30 1361 C 130.141 -5.90358 3.43463 0
M  V30 1362 O 129.829 -6.62615 4.55189 0
M  V30 1363 H 129.561 -0.672423 0.0694512 0
M  V30 1364 H 132.115 -1.87219 0.844885 0
M  V30 1365 H 130.345 -3.76859 -0.866823 0
M  V30 1366 H 132.034 -4.02365 -0.534555 0
M  V30 1367 H 132.8 -4.4578 1.91063 0
M  V30 1368 H 128.679 -4.55829 0.688545 0
M  V30 1369 H 132.223 -5.76965 3.92119 0
M  V30 1370 H 128.12 -5.86759 2.69043 0
M  V30 1371 H 128.888 -6.81071 4.53966 0
M  V30 1372 N 131.551 -0.354651 -1.53558 0
M  V30 1373 C 132.481 0.489091 -2.2832 0
M  V30 1374 C 133.462 1.09324 -1.30316 0
M  V30 1375 O 134.647 1.11255 -1.59173 0
M  V30 1376 C 131.777 1.63456 -3.0643 0
M  V30 1377 C 130.731 1.1582 -4.12031 0
M  V30 1378 C 130.057 2.39305 -4.7816 0
M  V30 1379 C 131.357 0.250731 -5.21698 0
M  V30 1380 H 133.051 -0.134614 -2.99097 0
M  V30 1381 H 130.597 -0.0661826 -1.43848 0
M  V30 1382 H 132.55 2.23136 -3.57475 0
M  V30 1383 H 131.274 2.28533 -2.33325 0
M  V30 1384 H 129.933 0.584146 -3.61916 0
M  V30 1385 H 129.581 3.02814 -4.01637 0
M  V30 1386 H 129.281 2.08109 -5.49513 0
M  V30 1387 H 130.805 2.99691 -5.31994 0
M  V30 1388 H 132.219 0.754695 -5.68311 0
M  V30 1389 H 130.616 0.0301468 -6.00092 0
M  V30 1390 H 131.686 -0.710125 -4.79672 0
M  V30 1391 N 133.029 1.57378 -0.0835403 0
M  V30 1392 C 133.992 2.12252 0.864959 0
M  V30 1393 C 134.992 1.04916 1.21858 0
M  V30 1394 O 136.182 1.30853 1.14991 0
M  V30 1395 C 133.314 2.63358 2.16461 0
M  V30 1396 H 134.507 2.97371 0.388676 0
M  V30 1397 H 132.06 1.55423 0.165317 0
M  V30 1398 H 132.795 1.81727 2.686 0
M  V30 1399 H 132.58 3.41826 1.92087 0
M  V30 1400 H 134.07 3.05847 2.84337 0
M  V30 1401 N 134.507 -0.190092 1.56449 0
M  V30 1402 C 135.918 -0.754312 1.70784 0
M  V30 1403 C 136.269 -1.83631 0.690951 0
M  V30 1404 O 135.394 -2.15868 -0.151604 0
M  V30 1405 C 135.989 -1.37503 3.09642 0
M  V30 1406 C 134.548 -1.88628 3.25725 0
M  V30 1407 C 133.695 -0.758098 2.66736 0
M  V30 1408 H 136.646 0.0350524 1.58661 0
M  V30 1409 H 136.667 -2.2445 3.0725 0
M  V30 1410 H 136.179 -0.587302 3.83631 0
M  V30 1411 H 134.28 -2.70103 2.56661 0
M  V30 1412 H 134.393 -2.04462 4.3328 0
M  V30 1413 H 132.757 -1.17369 2.26046 0
M  V30 1414 H 133.54 0.0174705 3.43296 0
M  V30 1415 N 135.985 -1.50799 -0.457987 0
M  V30 1416 C 136.933 -1.71162 -1.575 0
M  V30 1417 C 137.927 -0.577592 -1.59249 0
M  V30 1418 O 139.133 -0.758443 -1.63241 0
M  V30 1419 H 135.508 -0.540468 -0.522875 0
M  V30 1420 H 137.479 -2.64837 -1.37492 0
M  V30 1421 C 136.228 -1.83496 -2.95338 0
M  V30 1422 H 135.551 -2.70153 -2.94716 0
M  V30 1423 H 136.991 -2.01765 -3.72917 0
M  V30 1424 C 135.45 -0.589694 -3.31699 0
M  V30 1425 O 135.98 0.265163 -4.00824 0
M  V30 1426 N 134.186 -0.439845 -2.87252 0
M  V30 1427 H 133.733 -1.13655 -2.31172 0
M  V30 1428 H 133.691 0.392159 -3.11945 0
M  V30 1429 N 137.463 0.71206 -1.40597 0
M  V30 1430 C 138.71 1.47197 -1.39065 0
M  V30 1431 C 139.038 1.94499 0.00583891 0
M  V30 1432 O 138.293 1.68752 0.99102 0
M  V30 1433 C 138.592 2.71039 -2.32965 0
M  V30 1434 C 138.258 2.42484 -3.80148 0
M  V30 1435 C 136.92 2.34406 -4.20247 0
M  V30 1436 C 139.272 2.18598 -4.73143 0
M  V30 1437 C 136.6 2.00516 -5.51371 0
M  V30 1438 C 138.952 1.8622 -6.0457 0
M  V30 1439 C 137.616 1.76626 -6.43708 0
M  V30 1440 H 136.886 0.538634 -0.508876 0
M  V30 1441 H 139.533 0.815325 -1.73276 0
M  V30 1442 H 137.838 3.41558 -1.91951 0
M  V30 1443 H 139.535 3.29138 -2.29061 0
M  V30 1444 H 136.125 2.49659 -3.4838 0
M  V30 1445 H 140.309 2.23793 -4.42979 0
M  V30 1446 H 135.565 1.91628 -5.80593 0
M  V30 1447 H 139.739 1.66752 -6.76141 0
M  V30 1448 H 137.366 1.50133 -7.45228 0
M  V30 1449 N 138.941 1.26152 0.944643 0
M  V30 1450 C 140.166 1.14363 1.7302 0
M  V30 1451 C 140.591 -0.29772 1.85729 0
M  V30 1452 O 139.949 -1.2157 1.34501 0
M  V30 1453 C 139.997 1.81378 3.11664 0
M  V30 1454 O 139.101 1.10022 3.97453 0
M  V30 1455 H 138.442 0.398694 0.53098 0
M  V30 1456 H 140.972 1.66906 1.18337 0
M  V30 1457 H 140.982 1.88064 3.62072 0
M  V30 1458 H 139.657 2.86237 3.0173 0
M  V30 1459 H 138.234 1.11287 3.55907 0
M  V30 1460 N 140.419 -1.14872 1.07899 0
M  V30 1461 C 141.666 -1.85789 0.805532 0
M  V30 1462 C 141.994 -1.82649 -0.668561 0
M  V30 1463 O 141.249 -1.24858 -1.50695 0
M  V30 1464 C 141.548 -3.34223 1.26609 0
M  V30 1465 C 141.214 -3.57555 2.74709 0
M  V30 1466 C 139.876 -3.63631 3.1516 0
M  V30 1467 C 142.228 -3.66803 3.70277 0
M  V30 1468 C 139.556 -3.76473 4.49983 0
M  V30 1469 C 141.908 -3.8117 5.04869 0
M  V30 1470 C 140.572 -3.85494 5.44932 0
M  V30 1471 H 139.842 -0.679849 0.294765 0
M  V30 1472 H 142.489 -1.3572 1.35101 0
M  V30 1473 H 140.794 -3.86536 0.640103 0
M  V30 1474 H 142.491 -3.87511 1.03132 0
M  V30 1475 H 139.081 -3.5347 2.42398 0
M  V30 1476 H 143.265 -3.61404 3.40149 0
M  V30 1477 H 138.521 -3.7808 4.80484 0
M  V30 1478 H 142.695 -3.87268 5.78789 0
M  V30 1479 H 140.322 -3.95197 6.49403 0
M  V30 1480 N 141.898 -0.863906 -1.31812 0
M  V30 1481 C 142.828 -0.330843 -2.31144 0
M  V30 1482 C 143.809 0.575005 -1.60087 0
M  V30 1483 O 144.994 0.493304 -1.8783 0
M  V30 1484 C 142.124 0.47374 -3.44054 0
M  V30 1485 C 141.078 -0.338481 -4.26659 0
M  V30 1486 C 140.404 0.591412 -5.31419 0
M  V30 1487 C 141.704 -1.56926 -4.98168 0
M  V30 1488 H 143.398 -1.16086 -2.75979 0
M  V30 1489 H 140.944 -0.559657 -1.32679 0
M  V30 1490 H 142.897 0.857143 -4.12591 0
M  V30 1491 H 141.621 1.33721 -2.9797 0
M  V30 1492 H 140.28 -0.703754 -3.59782 0
M  V30 1493 H 139.928 1.45199 -4.81587 0
M  V30 1494 H 139.628 0.0519022 -5.87577 0
M  V30 1495 H 141.152 0.97179 -6.02817 0
M  V30 1496 H 142.566 -1.25764 -5.59336 0
M  V30 1497 H 140.963 -2.04739 -5.64094 0
M  V30 1498 H 142.033 -2.32544 -4.25501 0
M  V30 1499 N 143.376 1.44774 -0.622745 0
M  V30 1500 C 144.601 2.06999 -0.128968 0
M  V30 1501 C 145.026 1.4617 1.1839 0
M  V30 1502 O 144.384 0.560007 1.72434 0
M  V30 1503 C 144.432 3.60595 -0.0188351 0
M  V30 1504 O 143.536 3.99398 1.02739 0
M  V30 1505 H 142.877 0.659047 -0.0809544 0
M  V30 1506 H 145.407 1.85784 -0.85705 0
M  V30 1507 H 145.417 4.07627 0.174476 0
M  V30 1508 H 144.092 4.04252 -0.977384 0
M  V30 1509 H 142.669 3.64011 0.809326 0
M  V30 1510 N 144.854 0.36279 1.53368 0
M  V30 1511 C 145.784 -0.476976 2.28576 0
M  V30 1512 C 146.765 -1.08631 1.30894 0
M  V30 1513 O 147.95 -1.10409 1.59761 0
M  V30 1514 C 145.08 -1.61828 3.07293 0
M  V30 1515 C 144.034 -1.13633 4.1264 0
M  V30 1516 C 143.36 -2.36766 4.79423 0
M  V30 1517 C 144.66 -0.223061 5.21823 0
M  V30 1518 H 146.354 0.150474 2.99022 0
M  V30 1519 H 143.9 0.0738103 1.43811 0
M  V30 1520 H 145.853 -2.21237 3.58653 0
M  V30 1521 H 144.577 -2.27292 2.34533 0
M  V30 1522 H 143.236 -0.564945 3.62221 0
M  V30 1523 H 142.884 -3.0068 4.03238 0
M  V30 1524 H 142.584 -2.05192 5.50609 0
M  V30 1525 H 144.108 -2.96865 5.33576 0
M  V30 1526 H 145.522 -0.724545 5.68703 0
M  V30 1527 H 143.919 0.001678 6.001 0
M  V30 1528 H 144.989 0.735553 4.79289 0
M  V30 1529 N 146.332 -1.57332 0.0918853 0
M  V30 1530 C 147.262 -2.16872 -0.865371 0
M  V30 1531 C 148.243 -1.10118 -1.29646 0
M  V30 1532 O 149.428 -1.38242 -1.36392 0
M  V30 1533 C 146.558 -2.74649 -2.12569 0
M  V30 1534 C 145.512 -3.86747 -1.83333 0
M  V30 1535 C 144.838 -4.31212 -3.16166 0
M  V30 1536 C 146.138 -5.10089 -1.1228 0
M  V30 1537 H 147.832 -2.97114 -0.369307 0
M  V30 1538 H 145.378 -1.42918 -0.176194 0
M  V30 1539 H 147.331 -3.14952 -2.7997 0
M  V30 1540 H 146.055 -1.91657 -2.64452 0
M  V30 1541 H 144.714 -3.46978 -1.18331 0
M  V30 1542 H 144.362 -3.45115 -3.6593 0
M  V30 1543 H 144.062 -5.06788 -2.97388 0
M  V30 1544 H 145.586 -4.74146 -3.84731 0
M  V30 1545 H 147 -5.47582 -1.69785 0
M  V30 1546 H 145.397 -5.91073 -1.03693 0
M  V30 1547 H 146.467 -4.84786 -0.105041 0
M  V30 1548 N 147.81 0.181792 -1.56548 0
M  V30 1549 C 148.773 1.20894 -1.94724 0
M  V30 1550 C 149.773 1.37738 -0.829747 0
M  V30 1551 O 150.963 1.35323 -1.09697 0
M  V30 1552 C 148.095 2.57593 -2.23291 0
M  V30 1553 H 149.288 0.882275 -2.86629 0
M  V30 1554 H 146.841 0.423838 -1.50444 0
M  V30 1555 H 147.576 2.95291 -1.34067 0
M  V30 1556 H 147.361 2.46735 -3.04736 0
M  V30 1557 H 148.851 3.31637 -2.53785 0
M  V30 1558 N 149.288 1.51039 0.449983 0
M  V30 1559 C 150.236 1.71995 1.5659 0
M  V30 1560 C 151.23 0.586029 1.5894 0
M  V30 1561 O 152.436 0.76709 1.62837 0
M  V30 1562 H 148.811 0.543233 0.520001 0
M  V30 1563 H 150.782 2.65562 1.36085 0
M  V30 1564 C 149.531 1.8506 2.9436 0
M  V30 1565 H 148.854 2.71712 2.93279 0
M  V30 1566 H 150.294 2.0374 3.71842 0
M  V30 1567 C 148.753 0.607277 3.31382 0
M  V30 1568 O 149.283 -0.243903 4.00959 0
M  V30 1569 N 147.489 0.455073 2.87015 0
M  V30 1570 H 147.036 1.14879 2.30566 0
M  V30 1571 H 146.994 -0.375611 3.12148 0
M  V30 1572 N 150.766 -0.704594 1.40972 0
M  V30 1573 C 151.696 -1.83124 1.44872 0
M  V30 1574 C 152.677 -1.67281 0.30838 0
M  V30 1575 O 153.862 -1.87149 0.518556 0
M  V30 1576 C 150.992 -3.21181 1.32136 0
M  V30 1577 C 149.946 -3.51714 2.43888 0
M  V30 1578 C 149.272 -4.89032 2.16222 0
M  V30 1579 C 150.572 -3.516 3.86232 0
M  V30 1580 H 152.266 -1.80117 2.39161 0
M  V30 1581 H 149.812 -0.865145 1.15114 0
M  V30 1582 H 151.765 -3.99702 1.33479 0
M  V30 1583 H 150.489 -3.24791 0.343279 0
M  V30 1584 H 149.148 -2.75539 2.41813 0
M  V30 1585 H 148.796 -4.89256 1.16778 0
M  V30 1586 H 148.496 -5.10426 2.911 0
M  V30 1587 H 150.02 -5.69873 2.19265 0
M  V30 1588 H 151.434 -4.2014 3.9007 0
M  V30 1589 H 149.831 -3.84523 4.60719 0
M  V30 1590 H 150.901 -2.50757 4.15029 0
M  V30 1591 N 152.244 -1.26651 -0.937939 0
M  V30 1592 C 153.174 -1.10993 -2.05433 0
M  V30 1593 C 154.155 -0.0142161 -1.70094 0
M  V30 1594 O 155.34 -0.186837 -1.93299 0
M  V30 1595 C 152.47 -0.745561 -3.39203 0
M  V30 1596 C 151.424 -1.79337 -3.88616 0
M  V30 1597 C 150.75 -1.28324 -5.19073 0
M  V30 1598 C 152.05 -3.19553 -4.13138 0
M  V30 1599 H 153.744 -2.0438 -2.1879 0
M  V30 1600 H 151.29 -0.984041 -1.05131 0
M  V30 1601 H 153.243 -0.622888 -4.16771 0
M  V30 1602 H 151.967 0.22401 -3.25831 0
M  V30 1603 H 150.626 -1.90477 -3.13231 0
M  V30 1604 H 150.274 -0.303414 -5.02084 0
M  V30 1605 H 149.974 -1.98369 -5.53103 0
M  V30 1606 H 151.498 -1.1733 -5.99221 0
M  V30 1607 H 152.912 -3.11471 -4.81309 0
M  V30 1608 H 151.309 -3.87218 -4.58457 0
M  V30 1609 H 152.379 -3.65368 -3.18801 0
M  V30 1610 N 153.722 1.14298 -1.08507 0
M  V30 1611 C 154.652 2.21542 -0.737646 0
M  V30 1612 C 155.633 1.67773 0.280377 0
M  V30 1613 O 156.818 1.93616 0.150521 0
M  V30 1614 C 153.948 3.46988 -0.147259 0
M  V30 1615 C 152.902 4.13789 -1.09374 0
M  V30 1616 C 152.228 5.33449 -0.365524 0
M  V30 1617 C 153.528 4.62208 -2.4323 0
M  V30 1618 H 155.222 2.5086 -1.6343 0
M  V30 1619 H 152.768 1.20576 -0.787243 0
M  V30 1620 H 154.721 4.21262 0.107808 0
M  V30 1621 H 153.445 3.17037 0.784538 0
M  V30 1622 H 152.104 3.4147 -1.33393 0
M  V30 1623 H 151.752 4.99759 0.57011 0
M  V30 1624 H 151.452 5.79088 -0.996512 0
M  V30 1625 H 152.976 6.10485 -0.118534 0
M  V30 1626 H 154.39 5.27952 -2.23472 0
M  V30 1627 H 152.787 5.18553 -3.02031 0
M  V30 1628 H 153.857 3.77224 -3.04681 0
M  V30 1629 N 155.201 0.870884 1.31352 0
M  V30 1630 C 156.447 0.482987 1.96965 0
M  V30 1631 C 156.78 -0.962462 1.68672 0
M  V30 1632 O 156.055 -1.6779 0.98371 0
M  V30 1633 C 156.338 0.741752 3.52378 0
M  V30 1634 C 156.191 2.2368 3.9024 0
M  V30 1635 C 157.51 0.208838 4.39604 0
M  V30 1636 H 154.629 0.176955 0.715441 0
M  V30 1637 H 157.271 1.09229 1.55464 0
M  V30 1638 H 155.421 0.223149 3.87859 0
M  V30 1639 H 157.093 2.82273 3.64856 0
M  V30 1640 H 155.336 2.70901 3.38814 0
M  V30 1641 H 156.007 2.3685 4.98604 0
M  V30 1642 H 158.483 0.652529 4.10952 0
M  V30 1643 H 157.359 0.419336 5.47296 0
M  V30 1644 H 157.62 -0.889275 4.33064 0
M  V30 1645 N 156.679 -1.44442 0.630414 0
M  V30 1646 C 157.629 -2.27794 -0.0968103 0
M  V30 1647 C 158.613 -1.38624 -0.816834 0
M  V30 1648 O 159.805 -1.62438 -0.70306 0
M  V30 1649 C 156.934 -3.25929 -1.07819 0
M  V30 1650 C 156.02 -4.22588 -0.357826 0
M  V30 1651 N 156.411 -5.0207 0.613169 0
M  V30 1652 C 154.709 -4.41914 -0.602365 0
M  V30 1653 C 155.41 -5.72351 1.03871 0
M  V30 1654 N 154.386 -5.42287 0.377642 0
M  V30 1655 H 158.188 -2.86653 0.648621 0
M  V30 1656 H 155.702 -1.55871 0.455862 0
M  V30 1657 H 157.699 -3.84399 -1.61378 0
M  V30 1658 H 156.359 -2.68631 -1.82393 0
M  V30 1659 H 157.37 -5.08331 0.990947 0
M  V30 1660 H 154.047 -3.95714 -1.33103 0
M  V30 1661 H 155.437 -6.4619 1.84086 0
M  V30 1662 N 158.157 -0.370918 -1.53173 0
M  V30 1663 C 159.405 0.216673 -2.00935 0
M  V30 1664 C 159.726 1.48845 -1.25977 0
M  V30 1665 O 158.996 1.92286 -0.374551 0
M  V30 1666 H 157.576 0.0830565 -0.742368 0
M  V30 1667 H 160.238 -0.49838 -1.8842 0
M  V30 1668 H 159.334 0.439893 -3.08984 0
M  V30 1669 N 159.635 1.57281 -0.100228 0
M  V30 1670 C 160.545 2.17833 0.870965 0
M  V30 1671 C 161.561 1.14921 1.30649 0
M  V30 1672 O 162.737 1.47313 1.37335 0
M  V30 1673 C 159.802 2.75085 2.1102 0
M  V30 1674 C 158.863 3.9297 1.72838 0
M  V30 1675 C 158.096 4.47482 2.90854 0
M  V30 1676 O 158.319 4.00922 4.05731 0
M  V30 1677 O 157.253 5.38433 2.69023 0
M  V30 1678 H 161.079 3.0124 0.38575 0
M  V30 1679 H 158.664 1.48881 0.124397 0
M  V30 1680 H 160.546 3.11656 2.83634 0
M  V30 1681 H 159.221 1.94721 2.58584 0
M  V30 1682 H 158.128 3.61201 0.973883 0
M  V30 1683 H 159.461 4.74713 1.30033 0
M  V30 1684 N 161.113 -0.173488 1.56642 0
M  V30 1685 C 162.529 -0.525174 1.50712 0
M  V30 1686 C 162.729 -1.8476 0.804107 0
M  V30 1687 O 161.785 -2.49869 0.363574 0
M  V30 1688 C 163.098 -0.559937 2.95441 0
M  V30 1689 C 164.646 -0.647288 3.06234 0
M  V30 1690 C 165.121 -0.712963 4.52417 0
M  V30 1691 N 166.612 -0.775911 4.56655 0
M  V30 1692 C 167.347 -0.847264 5.67106 0
M  V30 1693 N 166.843 -0.879585 6.87194 0
M  V30 1694 N 168.636 -0.886117 5.55071 0
M  V30 1695 H 160.787 0.693681 2.00753 0
M  V30 1696 H 163.05 0.249841 0.914485 0
M  V30 1697 H 162.756 0.343049 3.50023 0
M  V30 1698 H 162.63 -1.40718 3.49969 0
M  V30 1699 H 165.017 -1.5407 2.51687 0
M  V30 1700 H 165.098 0.226586 2.54794 0
M  V30 1701 H 164.742 0.176183 5.07594 0
M  V30 1702 H 164.672 -1.60295 5.0161 0
M  V30 1703 H 167.163 -0.759304 3.70193 0
M  V30 1704 H 167.476 -0.935144 7.67121 0
M  V30 1705 H 165.821 -0.847898 6.89808 0
M  V30 1706 H 169.012 -0.857853 4.60172 0
M  V30 1707 H 169.185 -0.938263 6.41171 0
M  V30 1708 N 162.591 -1.51276 -0.441967 0
M  V30 1709 C 163.821 -1.67273 -1.21257 0
M  V30 1710 C 164.229 -0.367624 -1.85594 0
M  V30 1711 O 163.572 0.663349 -1.71305 0
M  V30 1712 C 163.634 -2.72807 -2.34129 0
M  V30 1713 C 163.298 -4.1554 -1.90198 0
M  V30 1714 C 164.295 -5.00471 -1.40801 0
M  V30 1715 C 161.98 -4.61616 -1.9803 0
M  V30 1716 C 163.974 -6.29536 -0.998174 0
M  V30 1717 C 161.661 -5.90679 -1.56658 0
M  V30 1718 C 162.659 -6.74466 -1.07633 0
M  V30 1719 O 162.347 -8.01116 -0.668459 0
M  V30 1720 H 162.079 -0.564614 -0.371734 0
M  V30 1721 H 164.633 -1.9843 -0.530521 0
M  V30 1722 H 162.863 -2.36954 -3.05597 0
M  V30 1723 H 164.552 -2.77729 -2.96009 0
M  V30 1724 H 165.318 -4.66079 -1.34148 0
M  V30 1725 H 161.197 -3.96526 -2.35135 0
M  V30 1726 H 164.741 -6.94885 -0.61482 0
M  V30 1727 H 160.638 -6.24586 -1.62979 0
M  V30 1728 H 161.406 -8.14633 -0.794722 0
M  V30 1729 N 164.069 0.697108 -1.41344 0
M  V30 1730 C 165.002 1.82134 -1.37486 0
M  V30 1731 C 165.98 1.60784 -0.242351 0
M  V30 1732 O 167.164 1.83553 -0.429012 0
M  V30 1733 C 164.291 3.18788 -1.14421 0
M  V30 1734 C 163.337 3.58932 -2.3037 0
M  V30 1735 S 164.17 3.63916 -3.92843 0
M  V30 1736 C 165.326 5.03298 -3.72078 0
M  V30 1737 H 165.559 1.85129 -2.32625 0
M  V30 1738 H 163.092 0.865671 -1.2785 0
M  V30 1739 H 165.05 3.97677 -1.018 0
M  V30 1740 H 163.711 3.13404 -0.20905 0
M  V30 1741 H 162.904 4.58202 -2.09922 0
M  V30 1742 H 162.506 2.87347 -2.39391 0
M  V30 1743 H 164.798 5.90753 -3.31688 0
M  V30 1744 H 165.741 5.28788 -4.70945 0
M  V30 1745 H 166.149 4.74764 -3.05384 0
M  V30 1746 N 165.547 1.27147 0.931209 0
M  V30 1747 C 166.51 1.09615 2.01289 0
M  V30 1748 C 167.51 0.0412581 1.60747 0
M  V30 1749 O 168.7 0.285545 1.71844 0
M  V30 1750 C 165.832 0.669447 3.34262 0
M  V30 1751 H 167.025 2.05662 2.18273 0
M  V30 1752 H 164.578 1.09885 1.11153 0
M  V30 1753 H 165.313 -0.292572 3.22978 0
M  V30 1754 H 165.098 1.43127 3.65044 0
M  V30 1755 H 166.588 0.568921 4.13706 0
M  V30 1756 N 167.025 -1.13721 1.09112 0
M  V30 1757 C 168.271 -1.85198 0.826414 0
M  V30 1758 C 168.604 -1.83129 -0.646319 0
M  V30 1759 O 167.879 -1.2671 -1.47563 0
M  V30 1760 C 168.162 -3.33507 1.35812 0
M  V30 1761 C 168.015 -3.44108 2.89672 0
M  V30 1762 C 169.334 -4.28838 0.989256 0
M  V30 1763 H 166.453 -0.67243 0.301675 0
M  V30 1764 H 169.095 -1.33499 1.35197 0
M  V30 1765 H 167.245 -3.77666 0.911082 0
M  V30 1766 H 168.917 -3.08684 3.428 0
M  V30 1767 H 167.16 -2.85087 3.26967 0
M  V30 1768 H 167.831 -4.48388 3.21951 0
M  V30 1769 H 170.307 -3.92734 1.37475 0
M  V30 1770 H 169.183 -5.31051 1.38838 0
M  V30 1771 H 169.444 -4.4198 -0.102924 0
M  V30 1772 N 168.503 -0.877838 -1.30888 0
M  V30 1773 C 169.433 -0.35534 -2.3078 0
M  V30 1774 C 170.414 0.557994 -1.60687 0
M  V30 1775 O 171.599 0.473355 -1.88343 0
M  V30 1776 C 168.729 0.437221 -3.44537 0
M  V30 1777 C 167.683 -0.383715 -4.26276 0
M  V30 1778 C 167.009 0.535014 -5.32017 0
M  V30 1779 C 168.309 -1.62201 -4.96476 0
M  V30 1780 H 170.003 -1.19007 -2.74732 0
M  V30 1781 H 167.549 -0.573698 -1.32078 0
M  V30 1782 H 169.502 0.813334 -4.13477 0
M  V30 1783 H 168.226 1.30553 -2.99372 0
M  V30 1784 H 166.885 -0.741874 -3.59015 0
M  V30 1785 H 166.533 1.40083 -4.831 0
M  V30 1786 H 166.233 -0.0104211 -5.87599 0
M  V30 1787 H 167.757 0.907799 -6.03814 0
M  V30 1788 H 169.171 -1.31689 -5.5797 0
M  V30 1789 H 167.568 -2.10711 -5.61891 0
M  V30 1790 H 168.638 -2.37044 -4.23011 0
M  V30 1791 N 169.982 1.44106 -0.638065 0
M  V30 1792 C 171.398 1.56672 -0.304286 0
M  V30 1793 C 171.598 1.6244 1.19228 0
M  V30 1794 O 170.654 1.57121 1.9766 0
M  V30 1795 C 171.967 2.83503 -1.00231 0
M  V30 1796 C 173.515 2.97226 -0.981116 0
M  V30 1797 C 173.99 4.26868 -1.65974 0
M  V30 1798 N 175.481 4.33698 -1.62666 0
M  V30 1799 C 176.216 5.32745 -2.12063 0
M  V30 1800 N 175.712 6.38157 -2.6968 0
M  V30 1801 N 177.505 5.24299 -2.02651 0
M  V30 1802 H 169.656 1.38605 -1.60942 0
M  V30 1803 H 171.919 0.664661 -0.675965 0
M  V30 1804 H 171.625 2.85251 -2.0573 0
M  V30 1805 H 171.499 3.73251 -0.54439 0
M  V30 1806 H 173.886 2.95027 0.0654188 0
M  V30 1807 H 173.967 2.08808 -1.47759 0
M  V30 1808 H 173.611 4.29826 -2.70576 0
M  V30 1809 H 173.541 5.14156 -1.13804 0
M  V30 1810 H 176.032 3.58138 -1.20606 0
M  V30 1811 H 176.345 7.10029 -3.05087 0
M  V30 1812 H 174.69 6.38823 -2.73734 0
M  V30 1813 H 177.881 4.4086 -1.57353 0
M  V30 1814 H 178.054 6.01334 -2.41457 0
M  V30 1815 N 171.46 0.379036 1.52974 0
M  V30 1816 C 172.871 -0.0972525 1.86447 0
M  V30 1817 C 173.222 -1.47027 1.29914 0
M  V30 1818 O 172.347 -2.07135 0.626433 0
M  V30 1819 C 172.942 -0.183248 3.38304 0
M  V30 1820 C 171.501 -0.603812 3.71525 0
M  V30 1821 C 170.648 0.240632 2.76254 0
M  V30 1822 H 173.599 0.597316 1.4703 0
M  V30 1823 H 173.62 -1.00432 3.67006 0
M  V30 1824 H 173.132 0.816191 3.79421 0
M  V30 1825 H 171.233 -1.61099 3.35973 0
M  V30 1826 H 171.346 -0.369086 4.77676 0
M  V30 1827 H 169.71 -0.292548 2.53014 0
M  V30 1828 H 170.493 1.23786 3.20206 0
M  V30 1829 N 172.938 -1.57226 0.108567 0
M  V30 1830 C 173.868 -2.17778 -0.84232 0
M  V30 1831 C 174.849 -1.11487 -1.2847 0
M  V30 1832 O 176.034 -1.39681 -1.34918 0
M  V30 1833 C 173.164 -2.76888 -2.09644 0
M  V30 1834 C 172.118 -3.88669 -1.79221 0
M  V30 1835 C 171.444 -4.34541 -3.11574 0
M  V30 1836 C 172.744 -5.11251 -1.06864 0
M  V30 1837 H 174.438 -2.97489 -0.337774 0
M  V30 1838 H 171.984 -1.43097 -0.161025 0
M  V30 1839 H 173.937 -3.17904 -2.76614 0
M  V30 1840 H 172.661 -1.94451 -2.62405 0
M  V30 1841 H 171.32 -3.48213 -1.14644 0
M  V30 1842 H 170.968 -3.48977 -3.62249 0
M  V30 1843 H 170.668 -5.09914 -2.91996 0
M  V30 1844 H 172.192 -4.782 -3.7968 0
M  V30 1845 H 173.606 -5.49352 -1.63968 0
M  V30 1846 H 172.003 -5.9214 -0.974178 0
M  V30 1847 H 173.073 -4.8487 -0.0536168 0
M  V30 1848 N 174.416 0.165178 -1.56732 0
M  V30 1849 C 175.348 1.22911 -1.93457 0
M  V30 1850 C 176.361 1.40152 -0.828333 0
M  V30 1851 O 177.55 1.40046 -1.10677 0
M  V30 1852 C 174.65 2.59686 -2.17753 0
M  V30 1853 C 173.823 2.63663 -3.48999 0
M  V30 1854 C 172.882 3.81845 -3.62051 0
M  V30 1855 O 171.908 3.67559 -4.34613 0
M  V30 1856 N 173.11 4.98557 -2.97357 0
M  V30 1857 H 175.875 0.917118 -2.85323 0
M  V30 1858 H 173.436 0.354895 -1.57962 0
M  V30 1859 H 175.428 3.37225 -2.23743 0
M  V30 1860 H 173.998 2.83251 -1.32242 0
M  V30 1861 H 173.218 1.72173 -3.54612 0
M  V30 1862 H 174.506 2.63336 -4.35352 0
M  V30 1863 H 173.904 5.13065 -2.38287 0
M  V30 1864 H 172.461 5.73936 -3.08934 0
M  V30 1865 N 175.894 1.51508 0.433938 0
M  V30 1866 C 177.305 1.56784 1.01369 0
M  V30 1867 C 177.656 0.393349 1.92217 0
M  V30 1868 O 176.781 -0.489441 2.10792 0
M  V30 1869 C 177.376 2.84144 1.8452 0
M  V30 1870 C 175.935 2.9198 2.37539 0
M  V30 1871 C 175.082 2.51482 1.16843 0
M  V30 1872 H 178.033 1.57236 0.215081 0
M  V30 1873 H 178.054 2.68098 2.70007 0
M  V30 1874 H 177.566 3.69607 1.18373 0
M  V30 1875 H 175.667 2.10955 3.0713 0
M  V30 1876 H 175.78 3.95704 2.70103 0
M  V30 1877 H 174.144 2.04758 1.51481 0
M  V30 1878 H 174.927 3.39293 0.523015 0
M  V30 1879 N 177.372 -0.689602 1.41712 0
M  V30 1880 C 178.783 -1.26973 1.36875 0
M  V30 1881 C 179.134 -1.96124 0.054748 0
M  V30 1882 O 178.259 -1.99141 -0.84687 0
M  V30 1883 C 178.854 -2.30912 2.47922 0
M  V30 1884 C 177.413 -2.84486 2.46464 0
M  V30 1885 C 176.56 -1.58603 2.27465 0
M  V30 1886 H 179.511 -0.48396 1.51141 0
M  V30 1887 H 179.532 -3.12331 2.17323 0
M  V30 1888 H 179.044 -1.80554 3.43543 0
M  V30 1889 H 177.145 -3.39005 1.54617 0
M  V30 1890 H 177.258 -3.34511 3.42986 0
M  V30 1891 H 175.622 -1.84632 1.75451 0
M  V30 1892 H 176.405 -1.10233 3.25121 0
M  V30 1893 N 178.85 -1.27639 -0.924453 0
M  V30 1894 C 180.098 -1.13941 -1.66918 0
M  V30 1895 C 180.419 0.314589 -1.92446 0
M  V30 1896 O 179.689 1.21964 -1.53303 0
M  V30 1897 H 178.269 -0.418678 -0.618642 0
M  V30 1898 H 180.931 -1.60213 -1.10985 0
M  V30 1899 H 180.027 -1.67094 -2.63602 0
M  V30 1900 N 180.328 1.1314 -1.09713 0
M  V30 1901 C 181.553 1.88862 -0.857081 0
M  V30 1902 C 181.978 1.78729 0.586304 0
M  V30 1903 O 181.336 1.13692 1.41222 0
M  V30 1904 C 181.384 3.36325 -1.30069 0
M  V30 1905 O 180.488 4.09815 -0.461007 0
M  V30 1906 H 179.829 0.587108 -0.310162 0
M  V30 1907 H 182.359 1.43129 -1.46203 0
M  V30 1908 H 182.369 3.87157 -1.28738 0
M  V30 1909 H 181.044 3.43017 -2.35185 0
M  V30 1910 H 179.621 3.68986 -0.538888 0
M  V30 1911 N 181.806 0.884767 1.30421 0
M  V30 1912 C 183.055 0.499164 1.95426 0
M  V30 1913 C 183.368 -0.95645 1.70621 0
M  V30 1914 O 184.574 -1.44889 2.29607 0
M  V30 1915 C 183.03 0.84177 3.49917 0
M  V30 1916 C 182.638 2.31514 3.83543 0
M  V30 1917 C 184.382 0.525355 4.21237 0
M  V30 1918 C 182.289 2.59939 5.31212 0
M  V30 1919 H 181.219 0.182944 0.73147 0
M  V30 1920 H 183.87 1.07971 1.48373 0
M  V30 1921 H 182.252 0.190311 3.95542 0
M  V30 1922 H 183.426 3.0109 3.48829 0
M  V30 1923 H 181.741 2.59907 3.25326 0
M  V30 1924 H 184.338 0.714762 5.29901 0
M  V30 1925 H 184.681 -0.535222 4.12845 0
M  V30 1926 H 185.214 1.134 3.81294 0
M  V30 1927 H 181.953 3.64736 5.44654 0
M  V30 1928 H 181.473 1.94972 5.67227 0
M  V30 1929 H 183.152 2.45429 5.98643 0
M  V30 1930 N 183.284 -1.43765 0.645699 0
M  V30 1931 C 184.7 -1.56509 0.312591 0
M  V30 1932 C 184.9 -1.6307 -1.18365 0
M  V30 1933 O 183.956 -1.58167 -1.96824 0
M  V30 1934 C 185.269 -2.82968 1.01733 0
M  V30 1935 C 186.817 -2.96701 0.996865 0
M  V30 1936 C 187.292 -4.25982 1.68236 0
M  V30 1937 N 188.783 -4.32829 1.64964 0
M  V30 1938 C 189.518 -5.31613 2.14885 0
M  V30 1939 N 189.014 -6.36718 2.73061 0
M  V30 1940 N 190.807 -5.23217 2.05428 0
M  V30 1941 H 182.958 -1.3775 1.61675 0
M  V30 1942 H 185.221 -0.661067 0.679481 0
M  V30 1943 H 184.927 -2.84156 2.0724 0
M  V30 1944 H 184.801 -3.72957 0.564177 0
M  V30 1945 H 187.188 -2.95058 -0.0497719 0
M  V30 1946 H 187.269 -2.08022 1.48865 0
M  V30 1947 H 186.913 -4.28386 2.72852 0
M  V30 1948 H 186.843 -5.13545 1.16529 0
M  V30 1949 H 189.334 -3.57493 1.22503 0
M  V30 1950 H 189.647 -7.08401 3.08848 0
M  V30 1951 H 187.992 -6.37362 2.77118 0
M  V30 1952 H 191.183 -4.40019 1.59689 0
M  V30 1953 H 191.356 -6.00045 2.44643 0
M  V30 1954 N 184.763 -0.387143 -1.52771 0
M  V30 1955 C 185.693 0.440551 -2.29306 0
M  V30 1956 C 186.674 1.06535 -1.32606 0
M  V30 1957 O 187.859 1.07853 -1.61497 0
M  V30 1958 C 184.989 1.56919 -3.09829 0
M  V30 1959 C 183.943 1.07054 -4.14395 0
M  V30 1960 C 183.269 2.29109 -4.83129 0
M  V30 1961 C 184.569 0.140015 -5.22112 0
M  V30 1962 H 186.263 -0.198026 -2.98744 0
M  V30 1963 H 183.809 -0.09668 -1.43675 0
M  V30 1964 H 185.762 2.15503 -3.62128 0
M  V30 1965 H 184.486 2.23532 -2.3812 0
M  V30 1966 H 183.145 0.507247 -3.63074 0
M  V30 1967 H 182.793 2.94227 -4.0797 0
M  V30 1968 H 182.493 1.96406 -5.53804 0
M  V30 1969 H 184.017 2.88339 -5.38231 0
M  V30 1970 H 185.431 0.633978 -5.69784 0
M  V30 1971 H 183.828 -0.0971485 -6.00021 0
M  V30 1972 H 184.898 -0.811711 -4.78058 0
M  V30 1973 N 186.241 1.57166 -0.116904 0
M  V30 1974 C 187.204 2.14039 0.819742 0
M  V30 1975 C 188.204 1.07477 1.19605 0
M  V30 1976 O 189.394 1.33263 1.1219 0
M  V30 1977 C 186.526 2.67891 2.10826 0
M  V30 1978 H 187.719 2.98128 0.325511 0
M  V30 1979 H 185.272 1.55739 0.132312 0
M  V30 1980 H 186.007 1.87384 2.64685 0
M  V30 1981 H 185.792 3.45823 1.84793 0
M  V30 1982 H 187.282 3.11809 2.77785 0
M  V30 1983 N 187.719 -0.156864 1.56817 0
M  V30 1984 C 188.649 -1.19589 2.00551 0
M  V30 1985 C 189.63 -1.4536 0.883426 0
M  V30 1986 O 190.815 -1.56449 1.15054 0
M  V30 1987 C 187.945 -2.53143 2.37773 0
M  V30 1988 C 186.899 -2.41913 3.53075 0
M  V30 1989 C 186.225 -3.80088 3.76081 0
M  V30 1990 C 187.525 -1.91157 4.86062 0
M  V30 1991 H 189.219 -0.832293 2.87599 0
M  V30 1992 H 186.765 -0.398918 1.38364 0
M  V30 1993 H 188.718 -3.26047 2.66967 0
M  V30 1994 H 187.442 -2.91319 1.4765 0
M  V30 1995 H 186.101 -1.71462 3.24031 0
M  V30 1996 H 185.749 -4.15683 2.83225 0
M  V30 1997 H 185.449 -3.73439 4.53671 0
M  V30 1998 H 186.973 -4.54556 4.0769 0
M  V30 1999 H 188.387 -2.53846 5.14038 0
M  V30 2000 H 186.784 -1.95422 5.67389 0
M  V30 2001 H 187.854 -0.866673 4.77092 0
M  V30 2002 N 189.197 -1.51736 -0.425897 0
M  V30 2003 C 190.127 -1.76827 -1.52494 0
M  V30 2004 C 191.108 -0.618524 -1.58456 0
M  V30 2005 O 192.293 -0.862416 -1.74 0
M  V30 2006 C 189.423 -1.90374 -2.90474 0
M  V30 2007 C 188.377 -3.0588 -2.99369 0
M  V30 2008 C 187.703 -3.04625 -4.3944 0
M  V30 2009 C 189.003 -4.45644 -2.72394 0
M  V30 2010 H 190.697 -2.68855 -1.31748 0
M  V30 2011 H 188.243 -1.29372 -0.632362 0
M  V30 2012 H 190.196 -2.0651 -3.6733 0
M  V30 2013 H 188.92 -0.95004 -3.12477 0
M  V30 2014 H 187.579 -2.89467 -2.24954 0
M  V30 2015 H 187.227 -2.0701 -4.58428 0
M  V30 2016 H 186.927 -3.82195 -4.46319 0
M  V30 2017 H 188.451 -3.22869 -5.18255 0
M  V30 2018 H 189.865 -4.62348 -3.38979 0
M  V30 2019 H 188.262 -5.25006 -2.9067 0
M  V30 2020 H 189.332 -4.54893 -1.67929 0
M  V30 2021 N 190.675 0.682077 -1.42076 0
M  V30 2022 C 191.605 1.80796 -1.47767 0
M  V30 2023 C 192.586 1.6677 -0.334954 0
M  V30 2024 O 193.771 1.863 -0.548264 0
M  V30 2025 C 190.901 3.19038 -1.37229 0
M  V30 2026 C 189.855 3.47789 -2.49453 0
M  V30 2027 C 189.181 4.8553 -2.23975 0
M  V30 2028 C 190.481 3.45411 -3.91776 0
M  V30 2029 H 192.175 1.7629 -2.41997 0
M  V30 2030 H 189.721 0.846721 -1.16476 0
M  V30 2031 H 191.674 3.97528 -1.39821 0
M  V30 2032 H 190.398 3.24204 -0.394907 0
M  V30 2033 H 189.057 2.71657 -2.46166 0
M  V30 2034 H 188.705 4.87337 -1.24547 0
M  V30 2035 H 188.405 5.0573 -2.99184 0
M  V30 2036 H 189.929 5.66312 -2.28304 0
M  V30 2037 H 191.343 4.13882 -3.96705 0
M  V30 2038 H 189.74 3.77145 -4.66778 0
M  V30 2039 H 190.81 2.44122 -4.18966 0
M  V30 2040 N 192.153 1.28127 0.917671 0
M  V30 2041 C 193.381 1.17892 1.70026 0
M  V30 2042 C 193.796 -0.262958 1.8696 0
M  V30 2043 O 193.153 -1.17811 1.3938 0
M  V30 2044 C 193.204 1.86872 3.09453 0
M  V30 2045 O 192.925 3.25428 2.93306 0
M  V30 2046 C 194.426 1.8289 4.03815 0
M  V30 2047 H 191.646 0.40942 0.531617 0
M  V30 2048 H 194.19 1.69181 1.14883 0
M  V30 2049 H 192.345 1.39464 3.61426 0
M  V30 2050 H 192.759 3.59918 3.81523 0
M  V30 2051 H 194.233 2.35751 4.99125 0
M  V30 2052 H 194.71 0.800412 4.31845 0
M  V30 2053 H 195.316 2.29959 3.57769 0
M  V30 2054 N 193.631 -1.12557 1.10312 0
M  V30 2055 C 194.877 -1.84515 0.855901 0
M  V30 2056 C 195.232 -1.82409 -0.611936 0
M  V30 2057 O 194.525 -1.25778 -1.44535 0
M  V30 2058 C 194.719 -3.31462 1.33669 0
M  V30 2059 C 194.548 -3.47879 2.84974 0
M  V30 2060 C 193.318 -3.61589 3.52961 0
M  V30 2061 C 195.516 -3.43152 3.83081 0
M  V30 2062 N 193.498 -3.66359 4.926 0
M  V30 2063 C 194.869 -3.54401 5.08724 0
M  V30 2064 C 196.924 -3.2661 3.75807 0
M  V30 2065 C 195.627 -3.50815 6.2795 0
M  V30 2066 C 197.653 -3.24335 4.94531 0
M  V30 2067 C 197.015 -3.36144 6.19021 0
M  V30 2068 H 193.114 -0.690967 0.366182 0
M  V30 2069 H 195.698 -1.34763 1.40524 0
M  V30 2070 H 193.869 -3.7976 0.814686 0
M  V30 2071 H 195.601 -3.91272 1.03385 0
M  V30 2072 H 192.356 -3.63652 3.03404 0
M  V30 2073 H 192.78 -3.72411 5.65366 0
M  V30 2074 H 197.422 -3.16375 2.80476 0
M  V30 2075 H 195.14 -3.5982 7.23571 0
M  V30 2076 H 198.726 -3.12719 4.9061 0
M  V30 2077 H 197.606 -3.34357 7.09348 0
M  V30 2078 N 195.109 -0.891671 -1.2995 0
M  V30 2079 C 196.072 -0.36828 -2.26222 0
M  V30 2080 C 197.072 0.493014 -1.53056 0
M  V30 2081 O 198.262 0.299213 -1.71611 0
M  V30 2082 C 195.394 0.47442 -3.37583 0
M  V30 2083 H 196.587 -1.21844 -2.74033 0
M  V30 2084 H 194.14 -0.669107 -1.41254 0
M  V30 2085 H 194.875 1.34489 -2.95099 0
M  V30 2086 H 194.66 -0.142615 -3.91841 0
M  V30 2087 H 196.15 0.83218 -4.09224 0
M  V30 2088 N 196.587 1.43421 -0.653314 0
M  V30 2089 C 197.835 2.01414 -0.166415 0
M  V30 2090 C 198.156 1.51803 1.22397 0
M  V30 2091 O 197.426 0.730693 1.81763 0
M  V30 2092 H 196.006 0.744703 -0.0585319 0
M  V30 2093 H 198.668 1.75629 -0.845003 0
M  V30 2094 H 197.764 3.11734 -0.151111 0
M  V30 2095 N 198.065 0.39524 1.52563 0
M  V30 2096 C 199.476 -0.0774719 1.86539 0
M  V30 2097 C 199.827 -1.45641 1.31466 0
M  V30 2098 O 198.952 -2.06459 0.648367 0
M  V30 2099 C 199.547 -0.147356 3.38479 0
M  V30 2100 C 198.106 -0.564373 3.72145 0
M  V30 2101 C 197.253 0.269919 2.75983 0
M  V30 2102 H 200.204 0.612876 1.46388 0
M  V30 2103 H 200.225 -0.965343 3.68051 0
M  V30 2104 H 199.737 0.856387 3.78534 0
M  V30 2105 H 197.838 -1.57527 3.37663 0
M  V30 2106 H 197.951 -0.318402 4.78041 0
M  V30 2107 H 196.315 -0.265696 2.5331 0
M  V30 2108 H 197.098 1.27175 3.18875 0
M  V30 2109 N 199.544 -1.57102 0.125237 0
M  V30 2110 C 200.474 -2.18659 -0.819174 0
M  V30 2111 C 201.455 -1.12843 -1.27281 0
M  V30 2112 O 202.64 -1.41104 -1.33429 0
M  V30 2113 C 199.77 -2.79096 -2.06695 0
M  V30 2114 C 198.724 -3.90548 -1.75088 0
M  V30 2115 C 198.05 -4.37821 -3.06948 0
M  V30 2116 C 199.35 -5.12356 -1.01435 0
M  V30 2117 H 201.044 -2.9783 -0.306202 0
M  V30 2118 H 198.59 -1.4326 -0.145839 0
M  V30 2119 H 200.543 -3.2082 -2.73226 0
M  V30 2120 H 199.267 -1.97223 -2.60328 0
M  V30 2121 H 197.926 -3.49409 -1.10944 0
M  V30 2122 H 197.574 -3.52799 -3.58527 0
M  V30 2123 H 197.274 -5.12982 -2.86571 0
M  V30 2124 H 198.798 -4.822 -3.74587 0
M  V30 2125 H 200.212 -5.5106 -1.58132 0
M  V30 2126 H 198.609 -5.9314 -0.911319 0
M  V30 2127 H 199.679 -4.849 -0.00218681 0
M  V30 2128 N 201.022 0.148545 -1.56898 0
M  V30 2129 C 201.952 1.18524 -2.01182 0
M  V30 2130 C 202.933 1.4489 -0.891123 0
M  V30 2131 O 204.118 1.55836 -1.15882 0
M  V30 2132 C 201.248 2.51879 -2.39112 0
M  V30 2133 C 200.202 2.40038 -3.54353 0
M  V30 2134 C 199.528 3.78089 -3.78091 0
M  V30 2135 C 200.828 1.88577 -4.87069 0
M  V30 2136 H 202.522 0.817029 -2.88036 0
M  V30 2137 H 200.068 0.391575 -1.38574 0
M  V30 2138 H 202.021 3.24627 -2.68692 0
M  V30 2139 H 200.745 2.90532 -1.49193 0
M  V30 2140 H 199.404 1.69742 -3.24936 0
M  V30 2141 H 199.052 4.14175 -2.85426 0
M  V30 2142 H 198.752 3.71028 -4.55645 0
M  V30 2143 H 200.276 4.52387 -4.10095 0
M  V30 2144 H 201.69 2.51117 -5.15377 0
M  V30 2145 H 200.087 1.9241 -5.68417 0
M  V30 2146 H 201.157 0.84136 -4.77545 0
M  V30 2147 N 202.5 1.5196 0.417844 0
M  V30 2148 C 203.747 1.65591 1.16559 0
M  V30 2149 C 204.075 0.381565 1.90721 0
M  V30 2150 O 203.33 -0.635156 1.85106 0
M  V30 2151 C 203.629 2.82269 2.19223 0
M  V30 2152 C 203.295 4.20819 1.61933 0
M  V30 2153 C 201.957 4.58506 1.46033 0
M  V30 2154 C 204.309 5.07196 1.20008 0
M  V30 2155 C 201.637 5.80257 0.867113 0
M  V30 2156 C 203.989 6.29544 0.621086 0
M  V30 2157 C 202.653 6.65987 0.449144 0
M  V30 2158 H 201.923 0.605939 0.42652 0
M  V30 2159 H 204.57 1.86041 0.45397 0
M  V30 2160 H 202.875 2.56118 2.96498 0
M  V30 2161 H 204.572 2.90012 2.76936 0
M  V30 2162 H 201.162 3.91116 1.7529 0
M  V30 2163 H 205.346 4.7867 1.31105 0
M  V30 2164 H 200.602 6.07124 0.721833 0
M  V30 2165 H 204.776 6.95805 0.287798 0
M  V30 2166 H 202.403 7.60199 -0.012632 0
M  V30 2167 N 203.978 -0.674533 1.42435 0
M  V30 2168 C 204.941 -1.76986 1.45632 0
M  V30 2169 C 205.941 -1.5708 0.343871 0
M  V30 2170 O 207.131 -1.63367 0.604709 0
M  V30 2171 C 204.263 -3.15623 1.28822 0
M  V30 2172 H 205.456 -1.75539 2.43158 0
M  V30 2173 H 203.009 -0.884189 1.28887 0
M  V30 2174 H 203.744 -3.22696 0.322193 0
M  V30 2175 H 203.529 -3.31475 2.09444 0
M  V30 2176 H 205.019 -3.95537 1.33942 0
M  V30 2177 N 205.456 -1.28612 -0.910864 0
M  V30 2178 C 206.681 -1.1891 -1.69927 0
M  V30 2179 C 207.106 0.248372 -1.86453 0
M  V30 2180 O 206.464 1.17961 -1.37676 0
M  V30 2181 C 206.512 -1.89578 -3.06745 0
M  V30 2182 O 205.616 -1.20521 -3.94396 0
M  V30 2183 H 204.957 -0.412632 -0.520222 0
M  V30 2184 H 207.487 -1.69985 -1.1387 0
M  V30 2185 H 207.497 -1.97597 -3.56958 0
M  V30 2186 H 206.172 -2.94136 -2.94035 0
M  V30 2187 H 204.749 -1.20684 -3.52831 0
M  V30 2188 N 206.934 1.1197 -1.10907 0
M  V30 2189 C 207.864 2.19928 -0.784473 0
M  V30 2190 C 208.845 1.6833 0.244726 0
M  V30 2191 O 210.03 1.93892 0.109418 0
M  V30 2192 C 207.16 3.46597 -0.220827 0
M  V30 2193 C 206.114 4.11376 -1.18127 0
M  V30 2194 C 205.44 5.32554 -0.478594 0
M  V30 2195 C 206.74 4.56945 -2.52979 0
M  V30 2196 H 208.434 2.47337 -1.68715 0
M  V30 2197 H 205.98 1.18879 -0.812642 0
M  V30 2198 H 207.933 4.21396 0.0184278 0
M  V30 2199 H 206.657 3.1863 0.717113 0
M  V30 2200 H 205.316 3.38564 -1.40606 0
M  V30 2201 H 204.964 5.00856 0.463976 0
M  V30 2202 H 204.664 5.76844 -1.11912 0
M  V30 2203 H 206.188 6.10096 -0.248 0
M  V30 2204 H 207.602 5.23093 -2.3462 0
M  V30 2205 H 205.999 5.1203 -3.12962 0
M  V30 2206 H 207.069 3.70676 -3.12614 0
M  V30 2207 N 208.412 0.89855 1.29475 0
M  V30 2208 C 209.823 0.572537 1.77705 0
M  V30 2209 C 210.174 -0.911778 1.73727 0
M  V30 2210 O 209.299 -1.71288 1.32247 0
M  V30 2211 C 209.894 1.03252 3.22683 0
M  V30 2212 C 208.453 0.757687 3.68695 0
M  V30 2213 C 207.6 1.20787 2.49612 0
M  V30 2214 H 210.551 1.08139 1.16153 0
M  V30 2215 H 210.572 0.367307 3.78723 0
M  V30 2216 H 210.084 2.11285 3.25546 0
M  V30 2217 H 208.185 -0.310079 3.71308 0
M  V30 2218 H 208.298 1.35476 4.59547 0
M  V30 2219 H 206.662 0.626888 2.46865 0
M  V30 2220 H 207.445 2.29622 2.55203 0
M  V30 2221 N 209.89 -1.43072 0.660911 0
M  V30 2222 C 210.853 -2.29194 -0.0166406 0
M  V30 2223 C 211.853 -1.42609 -0.742912 0
M  V30 2224 O 213.043 -1.64155 -0.583004 0
M  V30 2225 C 210.175 -3.24831 -1.0343 0
M  V30 2226 H 211.368 -2.90596 0.741208 0
M  V30 2227 H 208.921 -1.5048 0.422532 0
M  V30 2228 H 209.656 -2.68339 -1.82111 0
M  V30 2229 H 209.441 -3.88676 -0.517082 0
M  V30 2230 H 210.931 -3.89451 -1.50723 0
M  V30 2231 N 211.368 -0.403325 -1.52352 0
M  V30 2232 C 212.298 0.416205 -2.29761 0
M  V30 2233 C 213.279 1.05123 -1.33728 0
M  V30 2234 O 214.464 1.06134 -1.62632 0
M  V30 2235 C 211.594 1.53624 -3.11475 0
M  V30 2236 C 210.548 1.02653 -4.15507 0
M  V30 2237 C 209.874 2.23971 -4.85532 0
M  V30 2238 C 211.174 0.08463 -5.22231 0
M  V30 2239 H 212.868 -0.229701 -2.98518 0
M  V30 2240 H 210.414 -0.111913 -1.43564 0
M  V30 2241 H 212.367 2.1165 -3.64393 0
M  V30 2242 H 211.091 2.20994 -2.40477 0
M  V30 2243 H 209.75 0.46871 -3.63591 0
M  V30 2244 H 209.398 2.89883 -4.11068 0
M  V30 2245 H 209.098 1.90521 -5.55856 0
M  V30 2246 H 210.622 2.82614 -5.41259 0
M  V30 2247 H 212.036 0.573509 -5.70424 0
M  V30 2248 H 210.433 -0.160783 -5.99885 0
M  V30 2249 H 211.503 -0.86237 -4.7717 0
M  V30 2250 N 212.846 1.57033 -0.133567 0
M  V30 2251 C 214.094 1.953 0.519848 0
M  V30 2252 C 214.415 1.01866 1.66278 0
M  V30 2253 O 213.685 0.0776513 1.95746 0
M  V30 2254 H 212.265 0.721091 0.195032 0
M  V30 2255 H 214.927 1.93809 -0.205921 0
M  V30 2256 H 214.023 2.98695 0.904854 0
M  V30 2257 N 214.325 -0.140222 1.56975 0
M  V30 2258 C 215.571 -0.848084 1.84876 0
M  V30 2259 C 215.926 -1.78481 0.718481 0
M  V30 2260 O 215.219 -1.89497 -0.283093 0
M  V30 2261 C 215.413 -1.65386 3.16832 0
M  V30 2262 C 215.242 -0.79665 4.42587 0
M  V30 2263 C 214.012 -0.459648 5.03205 0
M  V30 2264 C 216.21 -0.12389 5.14151 0
M  V30 2265 N 214.192 0.410446 6.12526 0
M  V30 2266 C 215.563 0.606064 6.17031 0
M  V30 2267 C 217.618 -0.0452654 4.97879 0
M  V30 2268 C 216.321 1.40723 7.054 0
M  V30 2269 C 218.347 0.742658 5.86718 0
M  V30 2270 C 217.709 1.46087 6.89085 0
M  V30 2271 H 213.808 -0.287946 0.727056 0
M  V30 2272 H 216.392 -0.11304 1.94372 0
M  V30 2273 H 214.563 -2.36009 3.08471 0
M  V30 2274 H 216.295 -2.30541 3.32615 0
M  V30 2275 H 213.05 -0.797006 4.66846 0
M  V30 2276 H 213.474 0.836716 6.7181 0
M  V30 2277 H 218.116 -0.586184 4.18717 0
M  V30 2278 H 215.834 1.95938 7.83986 0
M  V30 2279 H 219.42 0.805574 5.76196 0
M  V30 2280 H 218.3 2.06077 7.56639 0
M  V30 2281 N 215.803 -1.52179 -0.40978 0
M  V30 2282 C 216.751 -1.76086 -1.51975 0
M  V30 2283 C 217.745 -0.627964 -1.57331 0
M  V30 2284 O 218.951 -0.809993 -1.60745 0
M  V30 2285 H 215.326 -0.556829 -0.505416 0
M  V30 2286 H 217.297 -2.69077 -1.28996 0
M  V30 2287 C 216.046 -1.92799 -2.8935 0
M  V30 2288 H 215.369 -2.79392 -2.85972 0
M  V30 2289 H 216.809 -2.13527 -3.66309 0
M  V30 2290 C 215.268 -0.694923 -3.29655 0
M  V30 2291 O 215.798 0.13751 -4.01465 0
M  V30 2292 N 214.004 -0.53101 -2.85707 0
M  V30 2293 H 213.551 -1.20952 -2.27439 0
M  V30 2294 H 213.509 0.292718 -3.13034 0
M  V30 2295 N 217.281 0.66697 -1.42791 0
M  V30 2296 C 218.231 1.77313 -1.43332 0
M  V30 2297 C 219.215 1.5801 -0.303586 0
M  V30 2298 O 220.407 1.68356 -0.546385 0
M  V30 2299 C 217.536 3.15822 -1.34578 0
M  V30 2300 C 216.622 3.40721 -2.52528 0
M  V30 2301 N 217.013 3.36162 -3.77927 0
M  V30 2302 C 215.311 3.71387 -2.46956 0
M  V30 2303 C 216.012 3.60762 -4.56318 0
M  V30 2304 N 214.988 3.81908 -3.86843 0
M  V30 2305 H 218.79 1.72193 -2.38174 0
M  V30 2306 H 216.304 0.868114 -1.3725 0
M  V30 2307 H 218.301 3.951 -1.33048 0
M  V30 2308 H 216.961 3.22133 -0.407453 0
M  V30 2309 H 217.972 3.15885 -4.10411 0
M  V30 2310 H 214.649 3.84897 -1.61743 0
M  V30 2311 H 216.039 3.63132 -5.65318 0
M  V30 2312 N 218.759 1.29093 0.90403 0
M  V30 2313 C 220.005 1.17996 1.65676 0
M  V30 2314 C 220.36 -0.266816 1.90541 0
M  V30 2315 O 219.653 -1.19 1.50165 0
M  V30 2316 C 219.847 1.92224 3.01305 0
M  V30 2317 C 219.676 3.43972 2.89678 0
M  V30 2318 C 218.446 4.1332 2.90679 0
M  V30 2319 C 220.644 4.39546 2.67028 0
M  V30 2320 N 218.626 5.51463 2.69743 0
M  V30 2321 C 219.997 5.65119 2.5503 0
M  V30 2322 C 222.052 4.29359 2.52101 0
M  V30 2323 C 220.755 6.81663 2.29626 0
M  V30 2324 C 222.781 5.4565 2.28079 0
M  V30 2325 C 222.143 6.70193 2.16843 0
M  V30 2326 H 218.242 0.486759 0.612037 0
M  V30 2327 H 220.826 1.62868 1.06688 0
M  V30 2328 H 218.997 1.49773 3.58361 0
M  V30 2329 H 220.729 1.73429 3.65656 0
M  V30 2330 H 217.484 3.64984 3.01801 0
M  V30 2331 H 217.908 6.24105 2.6234 0
M  V30 2332 H 222.55 3.33769 2.59534 0
M  V30 2333 H 220.268 7.77313 2.20932 0
M  V30 2334 H 223.854 5.39664 2.1738 0
M  V30 2335 H 222.734 7.58659 1.98511 0
M  V30 2336 N 220.237 -1.11381 1.11499 0
M  V30 2337 C 221.465 -1.86934 0.88675 0
M  V30 2338 C 221.88 -1.80195 -0.563476 0
M  V30 2339 O 221.237 -1.18367 -1.38908 0
M  V30 2340 C 221.288 -3.35722 1.34064 0
M  V30 2341 O 221.009 -3.4232 2.73401 0
M  V30 2342 C 222.51 -4.2818 1.14791 0
M  V30 2343 H 219.73 -0.591117 0.317523 0
M  V30 2344 H 222.274 -1.40865 1.48248 0
M  V30 2345 H 220.429 -3.79294 0.788355 0
M  V30 2346 H 220.843 -4.34971 2.93087 0
M  V30 2347 H 222.317 -5.30817 1.5145 0
M  V30 2348 H 222.794 -4.39113 0.0875279 0
M  V30 2349 H 223.4 -3.90402 1.68721 0
M  V30 2350 N 221.715 -0.905404 -1.28997 0
M  V30 2351 C 223.126 -0.581953 -1.77398 0
M  V30 2352 C 223.477 0.902552 -1.74208 0
M  V30 2353 O 222.602 1.70584 -1.33154 0
M  V30 2354 C 223.197 -1.04961 -3.22131 0
M  V30 2355 C 221.756 -0.777229 -3.68288 0
M  V30 2356 C 220.903 -1.22109 -2.48967 0
M  V30 2357 H 223.854 -1.08754 -1.15578 0
M  V30 2358 H 223.875 -0.387387 -3.78523 0
M  V30 2359 H 223.387 -2.13008 -3.24421 0
M  V30 2360 H 221.488 0.290383 -3.71467 0
M  V30 2361 H 221.601 -1.37911 -4.58822 0
M  V30 2362 H 219.965 -0.639971 -2.46529 0
M  V30 2363 H 220.748 -2.30972 -2.53982 0
M  V30 2364 N 223.193 1.4272 -0.668489 0
M  V30 2365 C 224.441 2.01226 -0.187769 0
M  V30 2366 C 224.762 1.53092 1.2078 0
M  V30 2367 O 224.032 0.74993 1.80977 0
M  V30 2368 H 222.612 0.744041 -0.0664272 0
M  V30 2369 H 225.274 1.74723 -0.863583 0
M  V30 2370 H 224.37 3.11556 -0.184166 0
M  V30 2371 N 224.671 0.411399 1.52136 0
M  V30 2372 C 225.634 -0.401089 2.25663 0
M  V30 2373 C 226.634 -0.971732 1.28117 0
M  V30 2374 O 227.824 -0.850254 1.52041 0
M  V30 2375 C 224.956 -1.56483 3.02863 0
M  V30 2376 H 226.149 0.24295 2.98914 0
M  V30 2377 H 223.702 0.163968 1.55438 0
M  V30 2378 H 224.437 -2.24567 2.33967 0
M  V30 2379 H 224.222 -1.16211 3.74483 0
M  V30 2380 H 225.712 -2.13951 3.58629 0
M  V30 2381 N 226.149 -1.5696 0.141893 0
M  V30 2382 C 227.097 -2.17784 -0.816874 0
M  V30 2383 C 228.091 -1.1334 -1.25899 0
M  V30 2384 O 229.297 -1.316 -1.22806 0
M  V30 2385 H 225.672 -0.697278 -0.281615 0
M  V30 2386 H 227.643 -2.97087 -0.279621 0
M  V30 2387 C 226.392 -2.80983 -2.04802 0
M  V30 2388 H 225.715 -3.61062 -1.7168 0
M  V30 2389 H 227.155 -3.2705 -2.69841 0
M  V30 2390 C 225.614 -1.79228 -2.8527 0
M  V30 2391 O 226.144 -1.25962 -3.8144 0
M  V30 2392 N 224.35 -1.48647 -2.49704 0
M  V30 2393 H 223.897 -1.92155 -1.71564 0
M  V30 2394 H 223.855 -0.808115 -3.03837 0
M  V30 2395 N 227.627 0.131896 -1.57047 0
M  V30 2396 C 228.867 0.847972 -1.85981 0
M  V30 2397 C 229.231 1.77655 -0.7282 0
M  V30 2398 O 230.432 2.53322 -0.898968 0
M  V30 2399 C 228.703 1.58919 -3.20124 0
M  V30 2400 S 230.262 2.34862 -3.70655 0
M  V30 2401 H 227.08 0.283273 -0.652133 0
M  V30 2402 H 229.682 0.107057 -1.95207 0
M  V30 2403 H 228.386 0.898771 -4.00438 0
M  V30 2404 H 227.917 2.37073 -3.13942 0
M  V30 2405 H 229.932 3.60344 -3.41126 0
M  V30 2406 N 229.106 1.52395 0.401703 0
M  V30 2407 C 230.331 1.70972 1.17403 0
M  V30 2408 C 230.756 0.421615 1.83314 0
M  V30 2409 O 230.114 -0.621564 1.70312 0
M  V30 2410 C 230.162 2.85151 2.20728 0
M  V30 2411 O 229.266 2.51238 3.27037 0
M  V30 2412 H 228.607 0.568927 0.342372 0
M  V30 2413 H 231.137 1.99131 0.469891 0
M  V30 2414 H 231.147 3.10279 2.64936 0
M  V30 2415 H 229.822 3.78603 1.7214 0
M  V30 2416 H 228.399 2.36808 2.88057 0
M  V30 2417 N 230.584 -0.659388 1.43143 0
M  V30 2418 C 231.809 -1.45221 1.48073 0
M  V30 2419 C 232.234 -1.87845 0.097995 0
M  V30 2420 O 231.592 -1.56985 -0.90694 0
M  V30 2421 C 231.64 -2.66748 2.42647 0
M  V30 2422 O 230.744 -3.65583 1.90848 0
M  V30 2423 H 230.085 -0.435669 0.501088 0
M  V30 2424 H 232.615 -0.807432 1.87994 0
M  V30 2425 H 232.625 -3.14637 2.59745 0
M  V30 2426 H 231.3 -2.35067 3.43098 0
M  V30 2427 H 229.877 -3.24693 1.83381 0
M  V30 2428 N 232.062 -1.29571 -0.897171 0
M  V30 2429 C 232.994 -1.10724 -2.00681 0
M  V30 2430 C 234.007 -0.0540026 -1.6271 0
M  V30 2431 O 235.196 -0.298783 -1.75982 0
M  V30 2432 C 232.296 -0.663912 -3.32333 0
M  V30 2433 C 231.469 -1.79622 -3.98816 0
M  V30 2434 C 230.528 -1.34349 -5.0876 0
M  V30 2435 O 229.554 -2.04864 -5.31055 0
M  V30 2436 N 230.756 -0.215764 -5.80099 0
M  V30 2437 H 233.521 -2.06291 -2.17403 0
M  V30 2438 H 231.082 -1.21544 -1.06951 0
M  V30 2439 H 233.074 -0.344295 -4.03233 0
M  V30 2440 H 231.644 0.199375 -3.11964 0
M  V30 2441 H 230.864 -2.28459 -3.21248 0
M  V30 2442 H 232.152 -2.55535 -4.39976 0
M  V30 2443 H 231.55 0.372091 -5.64475 0
M  V30 2444 H 230.107 0.0444707 -6.51785 0
M  V30 2445 N 233.54 1.10788 -1.12088 0
M  V30 2446 C 234.503 2.15207 -0.788577 0
M  V30 2447 C 235.503 1.59609 0.195317 0
M  V30 2448 O 236.693 1.74174 -0.0300193 0
M  V30 2449 C 233.825 3.4047 -0.171174 0
M  V30 2450 H 235.018 2.46116 -1.71368 0
M  V30 2451 H 232.571 1.26089 -0.923652 0
M  V30 2452 H 233.306 3.15176 0.763832 0
M  V30 2453 H 233.091 3.82109 -0.879514 0
M  V30 2454 H 234.581 4.17576 0.04496 0
M  V30 2455 N 235.018 0.912232 1.28515 0
M  V30 2456 C 236.267 0.540504 1.94323 0
M  V30 2457 C 236.58 -0.920044 1.72611 0
M  V30 2458 O 237.786 -1.39986 2.32629 0
M  V30 2459 C 236.242 0.915803 3.48053 0
M  V30 2460 C 235.85 2.39598 3.78546 0
M  V30 2461 C 237.594 0.614588 4.20027 0
M  V30 2462 C 235.501 2.71148 5.25578 0
M  V30 2463 H 234.431 0.198418 0.727424 0
M  V30 2464 H 237.082 1.11094 1.46049 0
M  V30 2465 H 235.464 0.274168 3.9505 0
M  V30 2466 H 236.638 3.08422 3.42364 0
M  V30 2467 H 234.953 2.66749 3.1974 0
M  V30 2468 H 237.55 0.827002 5.28266 0
M  V30 2469 H 237.893 -0.447531 4.13887 0
M  V30 2470 H 238.426 1.21462 3.78803 0
M  V30 2471 H 235.165 3.76207 5.36794 0
M  V30 2472 H 234.685 2.0696 5.62963 0
M  V30 2473 H 236.364 2.58072 5.93302 0
M  V30 2474 N 236.496 -1.42363 0.676048 0
M  V30 2475 C 237.743 -2.01522 0.19883 0
M  V30 2476 C 238.071 -1.53456 -1.19505 0
M  V30 2477 O 237.326 -0.727967 -1.81657 0
M  V30 2478 C 237.625 -3.56929 0.183431 0
M  V30 2479 C 237.291 -4.24431 1.52215 0
M  V30 2480 C 235.953 -4.42585 1.8887 0
M  V30 2481 C 238.305 -4.62459 2.40377 0
M  V30 2482 C 235.633 -4.96039 3.13309 0
M  V30 2483 C 237.985 -5.17294 3.64129 0
M  V30 2484 C 236.649 -5.33661 4.00951 0
M  V30 2485 H 235.919 -0.737419 0.0727571 0
M  V30 2486 H 238.566 -1.70531 0.871281 0
M  V30 2487 H 236.871 -3.87594 -0.572532 0
M  V30 2488 H 238.568 -4.00486 -0.203035 0
M  V30 2489 H 235.158 -4.10661 1.22701 0
M  V30 2490 H 239.342 -4.48105 2.13343 0
M  V30 2491 H 234.598 -5.06896 3.41857 0
M  V30 2492 H 238.772 -5.45704 4.32644 0
M  V30 2493 H 236.399 -5.74845 4.9745 0
M  V30 2494 N 237.974 -0.419461 -1.51915 0
M  V30 2495 C 239.385 0.0477853 -1.86639 0
M  V30 2496 C 239.736 1.43531 -1.33766 0
M  V30 2497 O 238.861 2.05401 -0.68113 0
M  V30 2498 C 239.456 0.0934885 -3.38671 0
M  V30 2499 C 238.015 0.505097 -3.72996 0
M  V30 2500 C 237.162 -0.313792 -2.75519 0
M  V30 2501 H 240.113 -0.636088 -1.45395 0
M  V30 2502 H 240.134 0.906667 -3.6954 0
M  V30 2503 H 239.646 -0.916501 -3.77123 0
M  V30 2504 H 237.747 1.52135 -3.40126 0
M  V30 2505 H 237.86 0.242309 -4.78487 0
M  V30 2506 H 236.224 0.225363 -2.53701 0
M  V30 2507 H 237.007 -1.32232 -3.16812 0
M  V30 2508 N 239.452 1.56882 -0.150215 0
M  V30 2509 C 240.415 2.1573 0.774157 0
M  V30 2510 C 241.415 1.0999 1.17298 0
M  V30 2511 O 242.605 1.35613 1.09338 0
M  V30 2512 C 239.737 2.72302 2.05096 0
M  V30 2513 H 240.93 2.98752 0.262201 0
M  V30 2514 H 238.483 1.55985 0.099248 0
M  V30 2515 H 239.218 1.92956 2.6065 0
M  V30 2516 H 239.003 3.49665 1.77416 0
M  V30 2517 H 240.493 3.17632 2.71109 0
M  V30 2518 N 240.93 -0.123565 1.57115 0
M  V30 2519 C 242.341 -0.681198 1.73829 0
M  V30 2520 C 242.692 -1.80535 0.768214 0
M  V30 2521 O 241.817 -2.16317 -0.0599103 0
M  V30 2522 C 242.412 -1.24246 3.15196 0
M  V30 2523 C 240.971 -1.74643 3.33432 0
M  V30 2524 C 240.118 -0.644284 2.69711 0
M  V30 2525 H 243.069 0.102315 1.5837 0
M  V30 2526 H 243.09 -2.11216 3.16493 0
M  V30 2527 H 242.602 -0.424062 3.85776 0
M  V30 2528 H 240.703 -2.58974 2.67886 0
M  V30 2529 H 240.816 -1.85902 4.41562 0
M  V30 2530 H 239.18 -1.07676 2.3082 0
M  V30 2531 H 239.963 0.163058 3.42913 0
M  V30 2532 N 242.408 -1.52605 -0.393616 0
M  V30 2533 C 243.638 -1.71046 -1.15874 0
M  V30 2534 C 244.046 -0.426483 -1.84331 0
M  V30 2535 O 243.389 0.608513 -1.73329 0
M  V30 2536 C 243.451 -2.80118 -2.25332 0
M  V30 2537 C 243.115 -4.21381 -1.76881 0
M  V30 2538 C 244.112 -5.04697 -1.24808 0
M  V30 2539 C 241.797 -4.67683 -1.83244 0
M  V30 2540 C 243.791 -6.32393 -0.797387 0
M  V30 2541 C 241.478 -5.95364 -1.37787 0
M  V30 2542 C 242.476 -6.77549 -0.861208 0
M  V30 2543 O 242.164 -8.02837 -0.413252 0
M  V30 2544 H 241.896 -0.576155 -0.353583 0
M  V30 2545 H 244.45 -2.00018 -0.467123 0
M  V30 2546 H 242.68 -2.46557 -2.97904 0
M  V30 2547 H 244.369 -2.87006 -2.87023 0
M  V30 2548 H 245.135 -4.70111 -1.19252 0
M  V30 2549 H 241.014 -4.03805 -2.22401 0
M  V30 2550 H 244.558 -6.9649 -0.393437 0
M  V30 2551 H 240.455 -6.29455 -1.43026 0
M  V30 2552 H 241.223 -8.16749 -0.53515 0
M  V30 2553 N 243.887 0.651787 -1.4349 0
M  V30 2554 C 244.817 1.77621 -1.51569 0
M  V30 2555 C 245.798 1.66022 -0.370253 0
M  V30 2556 O 246.983 1.85095 -0.587658 0
M  V30 2557 C 244.113 3.16056 -1.43966 0
M  V30 2558 C 243.067 3.4242 -2.56774 0
M  V30 2559 C 242.393 4.8067 -2.34223 0
M  V30 2560 C 243.693 3.37023 -3.99015 0
M  V30 2561 H 245.387 1.71117 -2.45681 0
M  V30 2562 H 242.933 0.821825 -1.18246 0
M  V30 2563 H 244.886 3.94472 -1.48221 0
M  V30 2564 H 243.61 3.23293 -0.463586 0
M  V30 2565 H 242.269 2.66375 -2.51873 0
M  V30 2566 H 241.917 4.84585 -1.34856 0
M  V30 2567 H 241.617 4.9927 -3.09844 0
M  V30 2568 H 243.141 5.61342 -2.40265 0
M  V30 2569 H 244.555 4.05374 -4.05395 0
M  V30 2570 H 242.952 3.67159 -4.74673 0
M  V30 2571 H 244.022 2.3518 -4.2405 0
M  V30 2572 N 245.365 1.30045 0.890287 0
M  V30 2573 C 246.595 1.21296 1.67245 0
M  V30 2574 C 247.003 -0.227471 1.87828 0
M  V30 2575 O 246.346 -1.16296 1.422 0
M  V30 2576 C 246.408 1.86519 3.07329 0
M  V30 2577 C 246.072 3.35837 3.09939 0
M  V30 2578 C 247.069 4.31915 2.89389 0
M  V30 2579 C 244.754 3.77196 3.31706 0
M  V30 2580 C 246.748 5.67325 2.90552 0
M  V30 2581 C 244.435 5.12725 3.32499 0
M  V30 2582 C 245.433 6.076 3.11947 0
M  V30 2583 O 245.121 7.40655 3.12547 0
M  V30 2584 H 244.853 0.4211 0.528821 0
M  V30 2585 H 247.407 1.72111 1.12103 0
M  V30 2586 H 245.637 1.30228 3.64112 0
M  V30 2587 H 247.326 1.71963 3.67673 0
M  V30 2588 H 248.092 4.01294 2.72375 0
M  V30 2589 H 243.971 3.03796 3.4674 0
M  V30 2590 H 247.515 6.41354 2.74429 0
M  V30 2591 H 243.412 5.42988 3.49047 0
M  V30 2592 H 244.18 7.49577 3.28749 0
M  V30 2593 N 246.843 -1.10192 1.12674 0
M  V30 2594 C 247.773 -2.18652 0.819362 0
M  V30 2595 C 248.754 -1.68698 -0.217915 0
M  V30 2596 O 249.939 -1.94041 -0.0785581 0
M  V30 2597 C 247.069 -3.46202 0.27594 0
M  V30 2598 C 246.023 -4.09444 1.24656 0
M  V30 2599 C 245.349 -5.31725 0.563258 0
M  V30 2600 C 246.649 -4.52863 2.60217 0
M  V30 2601 H 248.343 -2.44622 1.72628 0
M  V30 2602 H 245.889 -1.17571 0.831451 0
M  V30 2603 H 247.842 -4.21372 0.0486149 0
M  V30 2604 H 246.566 -3.1973 -0.666331 0
M  V30 2605 H 245.225 -3.36284 1.45974 0
M  V30 2606 H 244.873 -5.0153 -0.384235 0
M  V30 2607 H 244.573 -5.74991 1.21075 0
M  V30 2608 H 246.097 -6.09624 0.34503 0
M  V30 2609 H 247.511 -5.19294 2.42913 0
M  V30 2610 H 245.908 -5.06986 3.21068 0
M  V30 2611 H 246.978 -3.65656 3.18471 0
M  V30 2612 N 248.321 -0.919034 -1.28029 0
M  V30 2613 C 249.231 -0.416756 -2.30869 0
M  V30 2614 C 250.247 0.498235 -1.66714 0
M  V30 2615 O 251.423 0.383144 -1.97722 0
M  V30 2616 C 248.488 0.330274 -3.45123 0
M  V30 2617 C 247.549 -0.618578 -4.2482 0
M  V30 2618 C 246.782 0.0928959 -5.33619 0
M  V30 2619 O 247.005 1.31375 -5.55065 0
M  V30 2620 O 245.939 -0.574499 -5.99152 0
M  V30 2621 H 249.765 -1.27043 -2.75851 0
M  V30 2622 H 247.35 -0.684052 -1.3282 0
M  V30 2623 H 249.232 0.751972 -4.14636 0
M  V30 2624 H 247.907 1.1597 -3.02213 0
M  V30 2625 H 246.814 -1.08978 -3.57875 0
M  V30 2626 H 248.147 -1.41497 -4.71423 0
M  V30 2627 N 249.799 1.42003 -0.683588 0
M  V30 2628 C 251.045 2.01712 -0.209825 0
M  V30 2629 C 251.378 1.53968 1.18353 0
M  V30 2630 O 250.653 0.745661 1.79639 0
M  V30 2631 C 250.936 3.59202 -0.254197 0
M  V30 2632 C 250.789 4.17102 -1.68363 0
M  V30 2633 C 252.108 4.38344 0.392709 0
M  V30 2634 H 249.227 0.732891 -0.0777189 0
M  V30 2635 H 251.869 1.68909 -0.87004 0
M  V30 2636 H 250.019 3.87278 0.307954 0
M  V30 2637 H 251.691 3.99946 -2.29871 0
M  V30 2638 H 249.934 3.72597 -2.22157 0
M  V30 2639 H 250.605 5.26249 -1.6663 0
M  V30 2640 H 253.081 4.16011 -0.0859162 0
M  V30 2641 H 251.957 5.47901 0.331063 0
M  V30 2642 H 252.218 4.16887 1.47164 0
M  V30 2643 N 251.277 0.427512 1.51691 0
M  V30 2644 C 252.507 -0.140986 2.06118 0
M  V30 2645 C 252.915 -1.37854 1.29588 0
M  V30 2646 O 252.258 -1.80411 0.346036 0
M  V30 2647 C 252.32 -0.538276 3.55447 0
M  V30 2648 C 251.984 0.591095 4.53161 0
M  V30 2649 C 252.981 1.46027 4.98971 0
M  V30 2650 C 250.666 0.769028 4.96378 0
M  V30 2651 C 252.66 2.49216 5.8666 0
M  V30 2652 C 250.347 1.80421 5.83859 0
M  V30 2653 C 251.345 2.66417 6.28897 0
M  V30 2654 O 251.033 3.68159 7.14643 0
M  V30 2655 H 250.765 -0.0157455 0.675817 0
M  V30 2656 H 253.319 0.602495 1.96365 0
M  V30 2657 H 251.549 -1.33432 3.6295 0
M  V30 2658 H 253.238 -1.0368 3.92435 0
M  V30 2659 H 254.004 1.33429 4.66285 0
M  V30 2660 H 249.883 0.109273 4.6087 0
M  V30 2661 H 253.427 3.16372 6.21735 0
M  V30 2662 H 249.324 1.93042 6.15959 0
M  V30 2663 H 250.092 3.64622 7.32798 0
M  V30 2664 N 252.755 -1.56801 0.158532 0
M  V30 2665 C 254.003 -1.96102 -0.488712 0
M  V30 2666 C 254.324 -1.04498 -1.64636 0
M  V30 2667 O 253.594 -0.108783 -1.95598 0
M  V30 2668 H 252.174 -0.724102 -0.183535 0
M  V30 2669 H 254.836 -1.93457 0.236728 0
M  V30 2670 H 253.932 -3.00097 -0.857219 0
M  V30 2671 N 254.233 0.115231 -1.57178 0
M  V30 2672 C 255.163 1.1423 -2.03651 0
M  V30 2673 C 256.144 1.42967 -0.921655 0
M  V30 2674 O 257.329 1.53343 -1.19162 0
M  V30 2675 C 254.459 2.4675 -2.44401 0
M  V30 2676 C 253.413 2.32467 -3.59365 0
M  V30 2677 C 252.739 3.69984 -3.86026 0
M  V30 2678 C 254.039 1.78203 -4.90959 0
M  V30 2679 H 255.733 0.755749 -2.89705 0
M  V30 2680 H 253.279 0.362093 -1.39373 0
M  V30 2681 H 255.232 3.18854 -2.75517 0
M  V30 2682 H 253.956 2.87302 -1.55322 0
M  V30 2683 H 252.615 1.62811 -3.28463 0
M  V30 2684 H 252.263 4.08028 -2.94147 0
M  V30 2685 H 251.963 3.61279 -4.63412 0
M  V30 2686 H 253.487 4.43587 -4.19599 0
M  V30 2687 H 254.901 2.40128 -5.20587 0
M  V30 2688 H 253.298 1.8031 -5.72371 0
M  V30 2689 H 254.368 0.739876 -4.79222 0
M  V30 2690 N 255.711 1.52812 0.385517 0
M  V30 2691 C 256.641 1.80808 1.47752 0
M  V30 2692 C 257.622 0.660318 1.5676 0
M  V30 2693 O 258.807 0.908246 1.71652 0
M  V30 2694 C 255.937 1.98008 2.85324 0
M  V30 2695 C 254.891 3.13709 2.91154 0
M  V30 2696 C 254.217 3.16169 4.31209 0
M  V30 2697 C 255.517 4.52709 2.60483 0
M  V30 2698 H 257.211 2.72253 1.24573 0
M  V30 2699 H 254.757 1.31003 0.597839 0
M  V30 2700 H 256.71 2.16176 3.61726 0
M  V30 2701 H 255.434 1.03255 3.09848 0
M  V30 2702 H 254.093 2.95329 2.17201 0
M  V30 2703 H 253.741 2.19092 4.52778 0
M  V30 2704 H 253.441 3.93894 4.36029 0
M  V30 2705 H 254.965 3.36496 5.09512 0
M  V30 2706 H 256.379 4.71173 3.26602 0
M  V30 2707 H 254.776 5.32528 2.76648 0
M  V30 2708 H 255.846 4.59186 1.55809 0
M  V30 2709 N 257.189 -0.644168 1.43834 0
M  V30 2710 C 258.119 -1.76814 1.52509 0
M  V30 2711 C 259.1 -1.65823 0.379052 0
M  V30 2712 O 260.285 -1.84781 0.597466 0
M  V30 2713 C 257.415 -3.15288 1.4564 0
M  V30 2714 C 256.369 -3.41053 2.58586 0
M  V30 2715 C 255.695 -4.79421 2.36769 0
M  V30 2716 C 256.995 -3.34902 4.00797 0
M  V30 2717 H 258.689 -1.69812 2.46586 0
M  V30 2718 H 256.235 -0.815542 1.1868 0
M  V30 2719 H 258.188 -3.93681 1.50311 0
M  V30 2720 H 256.912 -3.23043 0.480725 0
M  V30 2721 H 255.571 -2.65035 2.53282 0
M  V30 2722 H 255.219 -4.83863 1.37424 0
M  V30 2723 H 254.919 -4.9762 3.12487 0
M  V30 2724 H 256.443 -5.6006 2.43238 0
M  V30 2725 H 257.857 -4.03218 4.07539 0
M  V30 2726 H 256.254 -3.64637 4.76613 0
M  V30 2727 H 257.324 -2.32928 4.25291 0
M  V30 2728 N 258.668 -1.30515 -0.883378 0
M  V30 2729 C 260.079 -1.17509 -1.45081 0
M  V30 2730 C 260.43 0.223605 -1.94922 0
M  V30 2731 O 259.555 1.12041 -1.85137 0
M  V30 2732 C 260.15 -2.12715 -2.63701 0
M  V30 2733 C 258.709 -2.03682 -3.16529 0
M  V30 2734 C 257.856 -2.02706 -1.89224 0
M  V30 2735 H 260.807 -1.42762 -0.693165 0
M  V30 2736 H 260.828 -1.70891 -3.39965 0
M  V30 2737 H 260.34 -3.14505 -2.27395 0
M  V30 2738 H 258.441 -1.05039 -3.57488 0
M  V30 2739 H 258.554 -2.92146 -3.7972 0
M  V30 2740 H 256.918 -1.4753 -2.07622 0
M  V30 2741 H 257.701 -3.06229 -1.55174 0
M  V30 2742 N 260.146 1.09593 -1.13257 0
M  V30 2743 C 261.109 2.14359 -0.811358 0
M  V30 2744 C 262.109 1.59808 0.178377 0
M  V30 2745 O 263.299 1.74132 -0.0484911 0
M  V30 2746 C 260.431 3.40269 -0.207276 0
M  V30 2747 H 261.624 2.44284 -1.73969 0
M  V30 2748 H 259.177 1.25102 -0.936973 0
M  V30 2749 H 259.912 3.15969 0.73036 0
M  V30 2750 H 259.697 3.81154 -0.919992 0
M  V30 2751 H 261.187 4.176 0.000667944 0
M  V30 2752 N 261.624 0.925811 1.2754 0
M  V30 2753 C 262.87 0.566092 1.94739 0
M  V30 2754 C 263.203 -0.890057 1.72603 0
M  V30 2755 O 262.478 -1.63467 1.05399 0
M  V30 2756 C 262.761 0.89054 3.48915 0
M  V30 2757 C 262.614 2.4003 3.80402 0
M  V30 2758 C 263.933 0.395101 4.38323 0
M  V30 2759 H 261.052 0.20714 0.707292 0
M  V30 2760 H 263.694 1.15725 1.50691 0
M  V30 2761 H 261.844 0.387452 3.86563 0
M  V30 2762 H 263.516 2.97494 3.52555 0
M  V30 2763 H 261.759 2.85028 3.2702 0
M  V30 2764 H 262.43 2.57785 4.8811 0
M  V30 2765 H 264.906 0.826241 4.07814 0
M  V30 2766 H 263.782 0.651086 5.45025 0
M  V30 2767 H 264.043 -0.704798 4.36446 0
M  V30 2768 N 263.102 -1.41638 0.69111 0
M  V30 2769 C 264.35 -2.00902 0.219758 0
M  V30 2770 C 264.671 -1.54994 -1.18329 0
M  V30 2771 O 263.941 -0.778628 -1.79762 0
M  V30 2772 H 262.521 -0.74289 0.0782558 0
M  V30 2773 H 265.183 -1.73327 0.891271 0
M  V30 2774 H 264.279 -3.11224 0.233708 0
M  V30 2775 N 264.58 -0.43555 -1.51462 0
M  V30 2776 C 265.543 0.365137 -2.26273 0
M  V30 2777 C 266.543 0.951227 -1.29647 0
M  V30 2778 O 267.733 0.825958 -1.53374 0
M  V30 2779 C 264.865 1.51645 -3.05314 0
M  V30 2780 H 266.058 -0.290474 -2.9849 0
M  V30 2781 H 263.611 -0.188676 -1.55157 0
M  V30 2782 H 264.346 2.20816 -2.3751 0
M  V30 2783 H 264.131 1.10238 -3.76284 0
M  V30 2784 H 265.621 2.08218 -3.61987 0
M  V30 2785 N 266.058 1.56714 -0.166846 0
M  V30 2786 C 267.021 2.16539 0.751232 0
M  V30 2787 C 268.021 1.11228 1.16125 0
M  V30 2788 O 269.211 1.36765 1.07894 0
M  V30 2789 C 266.343 2.74462 2.02196 0
M  V30 2790 H 267.536 2.99013 0.230499 0
M  V30 2791 H 265.089 1.56081 0.0826982 0
M  V30 2792 H 265.824 1.95709 2.58589 0
M  V30 2793 H 265.609 3.51527 1.73698 0
M  V30 2794 H 267.099 3.20489 2.67725 0
M  V30 2795 N 267.536 -0.106894 1.57237 0
M  V30 2796 C 268.499 -1.11466 2.0027 0
M  V30 2797 C 269.499 -1.33623 0.894519 0
M  V30 2798 O 270.689 -1.29935 1.16028 0
M  V30 2799 C 267.821 -2.46646 2.35327 0
M  V30 2800 H 269.014 -0.744516 2.90512 0
M  V30 2801 H 266.567 -0.351576 1.52295 0
M  V30 2802 H 267.302 -2.88558 1.48003 0
M  V30 2803 H 267.087 -2.31915 3.16161 0
M  V30 2804 H 268.577 -3.19151 2.69318 0
M  V30 2805 N 269.014 -1.53014 -0.377408 0
M  V30 2806 C 270.261 -1.68623 -1.12128 0
M  V30 2807 C 270.589 -0.431997 -1.89642 0
M  V30 2808 O 269.844 0.585855 -1.86725 0
M  V30 2809 C 270.143 -2.87982 -2.11663 0
M  V30 2810 C 269.809 -4.24964 -1.50719 0
M  V30 2811 C 268.471 -4.62217 -1.33825 0
M  V30 2812 C 270.823 -5.10199 -1.06519 0
M  V30 2813 C 268.151 -5.82352 -0.712963 0
M  V30 2814 C 270.503 -6.30969 -0.453955 0
M  V30 2815 C 269.167 -6.66944 -0.272411 0
M  V30 2816 H 268.437 -0.617034 -0.410305 0
M  V30 2817 H 271.084 -1.8718 -0.404484 0
M  V30 2818 H 269.389 -2.63889 -2.89603 0
M  V30 2819 H 271.086 -2.97253 -2.6915 0
M  V30 2820 H 267.676 -3.95626 -1.64858 0
M  V30 2821 H 271.86 -4.81978 -1.18368 0
M  V30 2822 H 267.116 -6.08824 -0.560611 0
M  V30 2823 H 271.29 -6.96324 -0.103217 0
M  V30 2824 H 268.917 -7.59898 0.214181 0
M  V30 2825 N 270.492 0.636531 -1.44174 0
M  V30 2826 C 271.422 1.76003 -1.53444 0
M  V30 2827 C 272.403 1.65619 -0.387841 0
M  V30 2828 O 273.588 1.84461 -0.607257 0
M  V30 2829 C 270.718 3.14511 -1.4731 0
M  V30 2830 C 269.672 3.39677 -2.60391 0
M  V30 2831 C 268.998 4.78159 -2.39308 0
M  V30 2832 C 270.298 3.32772 -4.02567 0
M  V30 2833 H 271.992 1.68501 -2.47483 0
M  V30 2834 H 269.538 0.809237 -1.19111 0
M  V30 2835 H 271.491 3.92878 -1.52397 0
M  V30 2836 H 270.215 3.22783 -0.49785 0
M  V30 2837 H 268.874 2.63688 -2.54684 0
M  V30 2838 H 268.522 4.83128 -1.39988 0
M  V30 2839 H 268.222 4.95956 -3.15122 0
M  V30 2840 H 269.746 5.58762 -2.46205 0
M  V30 2841 H 271.16 4.01051 -4.09672 0
M  V30 2842 H 269.557 3.62104 -4.7854 0
M  V30 2843 H 270.627 2.30669 -4.2652 0
M  V30 2844 N 271.97 1.30982 0.876444 0
M  V30 2845 C 273.195 1.23373 1.66715 0
M  V30 2846 C 273.62 -0.19885 1.87046 0
M  V30 2847 O 272.978 -1.1427 1.40756 0
M  V30 2848 C 273.026 1.97644 3.01611 0
M  V30 2849 O 272.13 1.30935 3.91062 0
M  V30 2850 H 271.471 0.426279 0.509099 0
M  V30 2851 H 274.001 1.72944 1.09323 0
M  V30 2852 H 274.011 2.06992 3.51594 0
M  V30 2853 H 272.686 3.01829 2.86133 0
M  V30 2854 H 271.263 1.29996 3.49507 0
M  V30 2855 N 273.449 -1.08991 1.13837 0
M  V30 2856 C 274.695 -1.81526 0.90422 0
M  V30 2857 C 275.028 -1.85706 -0.568066 0
M  V30 2858 O 274.303 -1.32855 -1.42056 0
M  V30 2859 C 274.586 -3.27447 1.49835 0
M  V30 2860 C 274.439 -3.31512 3.04006 0
M  V30 2861 C 275.758 -4.24256 1.17025 0
M  V30 2862 H 272.877 -0.659029 0.329923 0
M  V30 2863 H 275.519 -1.27644 1.40737 0
M  V30 2864 H 273.669 -3.73462 1.07044 0
M  V30 2865 H 275.341 -2.93867 3.55584 0
M  V30 2866 H 273.584 -2.70963 3.38765 0
M  V30 2867 H 274.255 -4.34329 3.40679 0
M  V30 2868 H 276.731 -3.86549 1.54009 0
M  V30 2869 H 275.607 -5.24684 1.61237 0
M  V30 2870 H 275.868 -4.42019 0.0846274 0
M  V30 2871 N 274.927 -0.932562 -1.27047 0
M  V30 2872 C 276.343 -0.633544 -1.46487 0
M  V30 2873 C 276.543 0.815746 -1.84249 0
M  V30 2874 O 275.599 1.59319 -1.95892 0
M  V30 2875 C 276.912 -1.58758 -2.55375 0
M  V30 2876 C 278.46 -1.59634 -2.69232 0
M  V30 2877 C 278.935 -2.53747 -3.81283 0
M  V30 2878 N 280.426 -2.51982 -3.88664 0
M  V30 2879 C 281.161 -3.21491 -4.74796 0
M  V30 2880 N 280.657 -4.00395 -5.65381 0
M  V30 2881 N 282.45 -3.10485 -4.68568 0
M  V30 2882 H 274.601 -1.86946 -1.00821 0
M  V30 2883 H 276.864 -0.802897 -0.504044 0
M  V30 2884 H 276.57 -2.62172 -2.34432 0
M  V30 2885 H 276.444 -1.33301 -3.52861 0
M  V30 2886 H 278.831 -0.569488 -2.89553 0
M  V30 2887 H 278.912 -1.89142 -1.72218 0
M  V30 2888 H 278.556 -3.56545 -3.61715 0
M  V30 2889 H 278.486 -2.21532 -4.77735 0
M  V30 2890 H 280.977 -1.94681 -3.23895 0
M  V30 2891 H 281.29 -4.50406 -6.27976 0
M  V30 2892 H 279.635 -4.04498 -5.65161 0
M  V30 2893 H 282.826 -2.48331 -3.96799 0
M  V30 2894 H 282.999 -3.64925 -5.35475 0
M  V30 2895 N 276.405 1.4127 -0.698611 0
M  V30 2896 C 277.651 2.01478 -0.231207 0
M  V30 2897 C 277.984 1.55215 1.16713 0
M  V30 2898 O 277.259 0.764672 1.78838 0
M  V30 2899 C 277.542 3.58912 -0.292281 0
M  V30 2900 C 277.395 4.15293 -1.72778 0
M  V30 2901 C 278.714 4.38736 0.346194 0
M  V30 2902 H 275.833 0.732025 -0.0854878 0
M  V30 2903 H 278.475 1.67977 -0.887906 0
M  V30 2904 H 276.625 3.87582 0.26686 0
M  V30 2905 H 278.297 3.97486 -2.341 0
M  V30 2906 H 276.54 3.7022 -2.26096 0
M  V30 2907 H 277.211 5.24452 -1.72202 0
M  V30 2908 H 279.687 4.15897 -0.130035 0
M  V30 2909 H 278.563 5.48221 0.272932 0
M  V30 2910 H 278.824 4.18425 1.42734 0
M  V30 2911 N 277.883 0.443576 1.51229 0
M  V30 2912 C 278.813 -0.355142 2.30783 0
M  V30 2913 C 279.794 -1.0154 1.36468 0
M  V30 2914 O 280.979 -1.01785 1.65389 0
M  V30 2915 C 278.109 -1.45312 3.15439 0
M  V30 2916 C 277.063 -0.916002 4.18083 0
M  V30 2917 C 276.389 -2.1102 4.91299 0
M  V30 2918 C 277.689 0.0538602 5.22272 0
M  V30 2919 H 279.383 0.308767 2.97804 0
M  V30 2920 H 276.929 0.149937 1.43217 0
M  V30 2921 H 278.882 -2.01914 3.69876 0
M  V30 2922 H 277.606 -2.14541 2.46252 0
M  V30 2923 H 276.265 -0.372145 3.64706 0
M  V30 2924 H 275.913 -2.78882 4.18609 0
M  V30 2925 H 275.613 -1.75717 5.60712 0
M  V30 2926 H 277.137 -2.68164 5.48562 0
M  V30 2927 H 278.551 -0.422069 5.71744 0
M  V30 2928 H 276.948 0.319776 5.99247 0
M  V30 2929 H 278.018 0.98858 4.74716 0
M  V30 2930 N 279.361 -1.56624 0.175154 0
M  V30 2931 C 280.324 -2.16934 -0.739738 0
M  V30 2932 C 281.324 -1.11842 -1.15533 0
M  V30 2933 O 282.514 -1.37335 -1.07167 0
M  V30 2934 C 279.646 -2.75531 -2.00738 0
M  V30 2935 H 280.839 -2.99131 -0.214639 0
M  V30 2936 H 278.392 -1.56123 -0.0744197 0
M  V30 2937 H 279.127 -1.97078 -2.57548 0
M  V30 2938 H 278.912 -3.52444 -1.71831 0
M  V30 2939 H 280.402 -3.21904 -2.66021 0
M  V30 2940 N 280.839 0.0985539 -1.57292 0
M  V30 2941 C 282.067 0.816318 -1.90115 0
M  V30 2942 C 282.482 1.72451 -0.768509 0
M  V30 2943 O 281.839 1.80643 0.259687 0
M  V30 2944 C 281.89 1.63259 -3.22535 0
M  V30 2945 O 281.611 0.760934 -4.31441 0
M  V30 2946 C 283.112 2.45372 -3.69199 0
M  V30 2947 H 280.332 0.233595 -0.629027 0
M  V30 2948 H 282.876 0.0768229 -2.04356 0
M  V30 2949 H 281.031 2.32463 -3.09903 0
M  V30 2950 H 281.445 1.32595 -5.07463 0
M  V30 2951 H 282.919 2.98144 -4.64558 0
M  V30 2952 H 283.396 3.23677 -2.96867 0
M  V30 2953 H 284.002 1.81373 -3.84687 0
M  V30 2954 N 282.317 1.53212 0.369288 0
M  V30 2955 C 283.28 1.7872 1.43498 0
M  V30 2956 C 284.28 0.657554 1.46741 0
M  V30 2957 O 285.47 0.925736 1.47566 0
M  V30 2958 C 282.602 1.90591 2.82645 0
M  V30 2959 H 283.795 2.73894 1.22156 0
M  V30 2960 H 281.348 1.44233 0.602203 0
M  V30 2961 H 282.083 0.974709 3.09306 0
M  V30 2962 H 281.868 2.72751 2.8169 0
M  V30 2963 H 283.358 2.11931 3.59826 0
M  V30 2964 N 283.795 -0.628877 1.44509 0
M  V30 2965 C 284.745 -1.7345 1.47983 0
M  V30 2966 C 285.729 -1.5715 0.345373 0
M  V30 2967 O 286.921 -1.66848 0.590829 0
M  V30 2968 C 284.05 -3.12143 1.42904 0
M  V30 2969 C 283.136 -3.33906 2.61472 0
M  V30 2970 N 283.527 -3.26024 3.86706 0
M  V30 2971 C 281.825 -3.64709 2.56716 0
M  V30 2972 C 282.526 -3.48536 4.65722 0
M  V30 2973 N 281.502 -3.71517 3.96832 0
M  V30 2974 H 285.304 -1.65818 2.42655 0
M  V30 2975 H 282.818 -0.831419 1.39503 0
M  V30 2976 H 284.815 -3.91433 1.43476 0
M  V30 2977 H 283.475 -3.2094 0.492717 0
M  V30 2978 H 284.486 -3.04893 4.18641 0
M  V30 2979 H 281.163 -3.80473 1.71891 0
M  V30 2980 H 282.553 -3.48016 5.74747 0
M  V30 2981 N 285.273 -1.31445 -0.869486 0
M  V30 2982 C 286.689 -1.10113 -1.15531 0
M  V30 2983 C 286.889 0.128087 -2.01092 0
M  V30 2984 O 285.945 0.817276 -2.38908 0
M  V30 2985 C 287.258 -2.37291 -1.84698 0
M  V30 2986 C 288.806 -2.42906 -1.97397 0
M  V30 2987 C 289.281 -3.69967 -2.69979 0
M  V30 2988 N 290.772 -3.70864 -2.77514 0
M  V30 2989 C 291.507 -4.65875 -3.34287 0
M  V30 2990 N 291.003 -5.71242 -3.91988 0
M  V30 2991 N 292.796 -4.53394 -3.3225 0
M  V30 2992 H 284.947 -2.1028 -0.299347 0
M  V30 2993 H 287.21 -0.927683 -0.195214 0
M  V30 2994 H 286.916 -3.27078 -1.29278 0
M  V30 2995 H 286.79 -2.47125 -2.84972 0
M  V30 2996 H 289.177 -1.53588 -2.51982 0
M  V30 2997 H 289.258 -2.37036 -0.961643 0
M  V30 2998 H 288.902 -4.59652 -2.16062 0
M  V30 2999 H 288.832 -3.73103 -3.7162 0
M  V30 3000 H 291.323 -2.94697 -2.36563 0
M  V30 3001 H 291.636 -6.39817 -4.33421 0
M  V30 3002 H 289.981 -5.75015 -3.90362 0
M  V30 3003 H 293.172 -3.70252 -2.8641 0
M  V30 3004 H 293.345 -5.27617 -3.76197 0
M  V30 3005 N 286.751 1.08385 -1.14413 0
M  V30 3006 C 287.683 2.1519 -0.789036 0
M  V30 3007 C 288.696 1.61638 0.19417 0
M  V30 3008 O 289.885 1.78479 -0.0275711 0
M  V30 3009 C 286.985 3.38565 -0.15058 0
M  V30 3010 C 286.158 4.21501 -1.16857 0
M  V30 3011 C 285.217 5.23277 -0.553832 0
M  V30 3012 O 284.243 5.56041 -1.21686 0
M  V30 3013 N 285.445 5.76629 0.669296 0
M  V30 3014 H 288.21 2.46257 -1.70814 0
M  V30 3015 H 285.771 1.24198 -1.03858 0
M  V30 3016 H 287.763 4.03777 0.273181 0
M  V30 3017 H 286.333 3.05299 0.671667 0
M  V30 3018 H 285.553 3.52265 -1.76926 0
M  V30 3019 H 286.841 4.73731 -1.85624 0
M  V30 3020 H 286.239 5.52243 1.22654 0
M  V30 3021 H 284.796 6.43521 1.03556 0
M  V30 3022 N 288.23 0.939286 1.26551 0
M  V30 3023 C 289.16 0.465044 2.28822 0
M  V30 3024 C 290.141 -0.480692 1.63167 0
M  V30 3025 O 291.326 -0.382955 1.90387 0
M  V30 3026 C 288.456 -0.27234 3.46231 0
M  V30 3027 C 287.41 0.58666 4.2396 0
M  V30 3028 C 286.736 -0.280573 5.33963 0
M  V30 3029 C 288.036 1.85704 4.88171 0
M  V30 3030 H 289.73 1.31979 2.68741 0
M  V30 3031 H 287.276 0.636061 1.29191 0
M  V30 3032 H 289.229 -0.615133 4.16886 0
M  V30 3033 H 287.953 -1.16121 3.0526 0
M  V30 3034 H 286.612 0.91232 3.55067 0
M  V30 3035 H 286.26 -1.16874 4.89234 0
M  V30 3036 H 285.96 0.29076 5.8688 0
M  V30 3037 H 287.484 -0.618678 6.07458 0
M  V30 3038 H 288.898 1.58161 5.51052 0
M  V30 3039 H 287.295 2.37279 5.51197 0
M  V30 3040 H 288.365 2.56957 4.11219 0
M  V30 3041 N 289.708 -1.40897 0.706093 0
M  V30 3042 C 290.64 -2.29199 0.00815776 0
M  V30 3043 C 291.653 -1.45336 -0.733582 0
M  V30 3044 O 292.842 -1.68727 -0.582537 0
M  V30 3045 C 289.942 -3.23417 -1.01265 0
M  V30 3046 C 289.115 -4.36089 -0.338387 0
M  V30 3047 C 288.174 -5.10811 -1.26326 0
M  V30 3048 O 287.2 -5.64215 -0.751651 0
M  V30 3049 N 288.402 -5.19269 -2.595 0
M  V30 3050 H 291.167 -2.89738 0.766297 0
M  V30 3051 H 288.728 -1.52164 0.55296 0
M  V30 3052 H 290.72 -3.70276 -1.63334 0
M  V30 3053 H 289.29 -2.64112 -1.67223 0
M  V30 3054 H 288.51 -3.91479 0.462352 0
M  V30 3055 H 289.798 -5.08634 0.130031 0
M  V30 3056 H 289.196 -4.77347 -3.03573 0
M  V30 3057 H 287.753 -5.69667 -3.16737 0
M  V30 3058 N 291.186 -0.45159 -1.50991 0
M  V30 3059 C 292.463 0.170707 -1.94854 0
M  V30 3060 C 292.843 1.58788 -1.39103 0
M  V30 3061 O 292.191 2.20913 -0.583921 0
M  V30 3062 C 292.401 0.133929 -3.48743 0
M  V30 3063 C 293.749 0.33248 -4.23296 0
M  V30 3064 O 294.773 0.211403 -3.55572 0
M  V30 3065 O 293.632 0.57486 -5.43468 0
M  V30 3066 H 290.726 0.122264 -0.817912 0
M  V30 3067 H 293.272 -0.510594 -1.61836 0
M  V30 3068 H 292.044 -0.856283 -3.81816 0
M  V30 3069 H 291.667 0.857529 -3.88242 0
M  V30 3070 N 292.664 1.56529 -0.183458 0
M  V30 3071 C 293.913 1.96419 0.458511 0
M  V30 3072 C 294.226 1.0727 1.63562 0
M  V30 3073 O 295.432 1.36893 2.34462 0
M  V30 3074 C 293.888 3.49298 0.867122 0
M  V30 3075 C 293.496 4.47092 -0.285057 0
M  V30 3076 C 295.24 3.97983 1.47683 0
M  V30 3077 C 293.147 5.91225 0.143862 0
M  V30 3078 H 292.077 0.733394 0.175071 0
M  V30 3079 H 294.728 1.81448 -0.273624 0
M  V30 3080 H 293.11 3.59731 1.65559 0
M  V30 3081 H 294.284 4.48383 -1.0625 0
M  V30 3082 H 292.599 4.08535 -0.805503 0
M  V30 3083 H 295.196 5.03134 1.80999 0
M  V30 3084 H 295.539 3.41618 2.37914 0
M  V30 3085 H 296.072 3.90617 0.752562 0
M  V30 3086 H 292.811 6.5149 -0.723974 0
M  V30 3087 H 292.331 5.93214 0.886413 0
M  V30 3088 H 294.01 6.44362 0.583628 0
M  V30 3089 N 294.142 -0.090211 1.57342 0
M  V30 3090 C 295.382 -0.798365 1.88163 0
M  V30 3091 C 295.746 -1.75662 0.775046 0
M  V30 3092 O 296.947 -2.50849 0.965816 0
M  V30 3093 C 295.218 -1.50376 3.24225 0
M  V30 3094 S 296.777 -2.24952 3.76752 0
M  V30 3095 H 293.595 -0.265883 0.659414 0
M  V30 3096 H 296.197 -0.055264 1.95422 0
M  V30 3097 H 294.901 -0.792286 4.0268 0
M  V30 3098 H 294.432 -2.28666 3.20118 0
M  V30 3099 H 296.447 -3.51173 3.5056 0
M  V30 3100 N 295.62 -1.53406 -0.361157 0
M  V30 3101 C 297.036 -1.43277 -0.703124 0
M  V30 3102 C 297.236 -0.575384 -1.9311 0
M  V30 3103 O 296.292 -0.0595362 -2.5243 0
M  V30 3104 C 297.605 -2.8653 -0.9122 0
M  V30 3105 C 299.153 -2.96191 -1.01193 0
M  V30 3106 C 299.628 -4.40514 -1.25345 0
M  V30 3107 N 301.119 -4.43962 -1.32105 0
M  V30 3108 C 301.854 -5.52746 -1.5251 0
M  V30 3109 N 301.35 -6.71567 -1.70203 0
M  V30 3110 N 303.143 -5.40331 -1.54916 0
M  V30 3111 H 295.294 -2.07654 0.446475 0
M  V30 3112 H 297.557 -0.937944 0.137715 0
M  V30 3113 H 297.263 -3.51605 -0.0816414 0
M  V30 3114 H 297.137 -3.30441 -1.81903 0
M  V30 3115 H 299.524 -2.31266 -1.83303 0
M  V30 3116 H 299.605 -2.55667 -0.0823929 0
M  V30 3117 H 299.249 -5.06014 -0.437346 0
M  V30 3118 H 299.179 -4.78614 -2.19627 0
M  V30 3119 H 301.67 -3.58332 -1.20028 0
M  V30 3120 H 301.983 -7.50241 -1.85359 0
M  V30 3121 H 300.328 -6.74545 -1.67373 0
M  V30 3122 H 303.519 -4.46465 -1.40663 0
M  V30 3123 H 303.692 -6.25173 -1.70477 0
M  V30 3124 N 297.098 0.621204 -1.44841 0
M  V30 3125 C 298.028 1.74366 -1.55303 0
M  V30 3126 C 299.009 1.65199 -0.405385 0
M  V30 3127 O 300.194 1.83807 -0.626787 0
M  V30 3128 C 297.324 3.12931 -1.50637 0
M  V30 3129 C 296.278 3.36896 -2.63979 0
M  V30 3130 C 295.604 4.75594 -2.44366 0
M  V30 3131 C 296.904 3.28483 -4.06074 0
M  V30 3132 H 298.598 1.65867 -2.49256 0
M  V30 3133 H 296.144 0.796558 -1.19962 0
M  V30 3134 H 298.097 3.9124 -1.56555 0
M  V30 3135 H 296.821 3.22237 -0.532057 0
M  V30 3136 H 295.48 2.60972 -2.57467 0
M  V30 3137 H 295.128 4.81616 -1.45105 0
M  V30 3138 H 294.828 4.92586 -3.20364 0
M  V30 3139 H 296.352 5.5612 -2.52117 0
M  V30 3140 H 297.766 3.96684 -4.13902 0
M  V30 3141 H 296.163 3.57008 -4.82354 0
M  V30 3142 H 297.233 2.26133 -4.28943 0
M  V30 3143 N 298.576 1.31904 0.862503 0
M  V30 3144 C 299.486 1.22161 2.00285 0
M  V30 3145 C 300.502 0.136785 1.73462 0
M  V30 3146 O 301.678 0.355994 1.98229 0
M  V30 3147 C 298.743 0.937093 3.33796 0
M  V30 3148 C 297.804 2.10957 3.73893 0
M  V30 3149 C 297.037 1.83853 5.01033 0
M  V30 3150 O 297.26 0.777274 5.65079 0
M  V30 3151 O 296.194 2.69741 5.38074 0
M  V30 3152 H 300.02 2.18008 2.11439 0
M  V30 3153 H 297.605 1.11716 0.991957 0
M  V30 3154 H 299.487 0.794583 4.13841 0
M  V30 3155 H 298.162 0.00871894 3.23699 0
M  V30 3156 H 297.069 2.30752 2.94456 0
M  V30 3157 H 298.402 3.02046 3.88625 0
M  V30 3158 N 300.054 -1.07777 1.14986 0
M  V30 3159 C 301.47 -1.32373 0.891596 0
M  V30 3160 C 301.67 -1.9609 -0.463788 0
M  V30 3161 O 300.726 -2.21801 -1.20667 0
M  V30 3162 C 302.039 -2.21905 2.02925 0
M  V30 3163 C 303.587 -2.35367 2.06329 0
M  V30 3164 C 304.062 -3.28245 3.19405 0
M  V30 3165 N 305.553 -3.35824 3.19024 0
M  V30 3166 C 306.288 -4.07739 4.03158 0
M  V30 3167 N 305.784 -4.82306 4.97346 0
M  V30 3168 N 307.577 -4.03635 3.91197 0
M  V30 3169 H 299.728 -0.648039 2.02273 0
M  V30 3170 H 301.991 -0.348149 0.881757 0
M  V30 3171 H 301.697 -1.82342 3.0074 0
M  V30 3172 H 301.571 -3.22407 1.95789 0
M  V30 3173 H 303.958 -2.74186 1.09116 0
M  V30 3174 H 304.039 -1.34585 2.17533 0
M  V30 3175 H 303.683 -2.90146 4.16867 0
M  V30 3176 H 303.613 -4.28971 3.05437 0
M  V30 3177 H 306.104 -2.8267 2.50811 0
M  V30 3178 H 306.417 -5.34661 5.57994 0
M  V30 3179 H 304.762 -4.81337 5.01338 0
M  V30 3180 H 307.953 -3.44491 3.16928 0
M  V30 3181 H 308.126 -4.59417 4.5699 0
M  V30 3182 N 301.532 -0.945985 -1.26051 0
M  V30 3183 C 302.495 -0.463897 -2.24456 0
M  V30 3184 C 303.495 0.427655 -1.55009 0
M  V30 3185 O 304.685 0.226157 -1.72726 0
M  V30 3186 C 301.817 0.330812 -3.39291 0
M  V30 3187 H 303.01 -1.33357 -2.68619 0
M  V30 3188 H 300.563 -0.728416 -1.38289 0
M  V30 3189 H 301.298 1.21852 -3.00537 0
M  V30 3190 H 301.083 -0.308679 -3.90883 0
M  V30 3191 H 302.573 0.657865 -4.12386 0
M  V30 3192 N 303.011 1.40521 -0.713556 0
M  V30 3193 C 304.257 2.01221 -0.252564 0
M  V30 3194 C 304.59 1.56444 1.1506 0
M  V30 3195 O 303.865 0.783597 1.78017 0
M  V30 3196 C 304.148 3.58582 -0.330332 0
M  V30 3197 C 304.001 4.13437 -1.77173 0
M  V30 3198 C 305.32 4.39079 0.299641 0
M  V30 3199 H 302.439 0.731077 -0.0932471 0
M  V30 3200 H 305.081 1.67026 -0.905673 0
M  V30 3201 H 303.231 3.87844 0.225737 0
M  V30 3202 H 304.903 3.9498 -2.38303 0
M  V30 3203 H 303.146 3.67801 -2.3001 0
M  V30 3204 H 303.817 5.22597 -1.77755 0
M  V30 3205 H 306.293 4.15735 -0.174139 0
M  V30 3206 H 305.169 5.4848 0.214771 0
M  V30 3207 H 305.43 4.19915 1.38288 0
M  V30 3208 N 304.489 0.459591 1.5075 0
M  V30 3209 C 305.729 -0.09824 2.04164 0
M  V30 3210 C 306.093 -1.3801 1.33481 0
M  V30 3211 O 307.294 -2.01959 1.77387 0
M  V30 3212 C 305.565 -0.289467 3.56226 0
M  V30 3213 S 307.124 -0.807507 4.31306 0
M  V30 3214 H 303.942 -0.0213845 0.710678 0
M  V30 3215 H 306.544 0.624098 1.85271 0
M  V30 3216 H 305.248 0.649461 4.05229 0
M  V30 3217 H 304.779 -1.03825 3.79452 0
M  V30 3218 H 306.794 -2.0824 4.50389 0
M  V30 3219 N 305.967 -1.56429 0.191757 0
M  V30 3220 C 307.383 -1.58754 -0.164137 0
M  V30 3221 C 307.583 -1.20782 -1.61288 0
M  V30 3222 O 306.639 -0.928999 -2.34789 0
M  V30 3223 C 307.952 -3.00396 0.135195 0
M  V30 3224 C 309.5 -3.1291 0.0750351 0
M  V30 3225 C 309.975 -4.56679 0.347632 0
M  V30 3226 N 311.466 -4.62252 0.296131 0
M  V30 3227 C 312.201 -5.71379 0.480948 0
M  V30 3228 N 311.697 -6.88986 0.725933 0
M  V30 3229 N 313.49 -5.60563 0.415435 0
M  V30 3230 H 305.641 -1.79393 1.13718 0
M  V30 3231 H 307.904 -0.832414 0.453643 0
M  V30 3232 H 307.61 -3.32726 1.13958 0
M  V30 3233 H 307.484 -3.72963 -0.563773 0
M  V30 3234 H 309.871 -2.80394 -0.919948 0
M  V30 3235 H 309.952 -2.42736 0.807029 0
M  V30 3236 H 309.596 -4.89907 1.33992 0
M  V30 3237 H 309.526 -5.25039 -0.405212 0
M  V30 3238 H 312.017 -3.7773 0.113259 0
M  V30 3239 H 312.33 -7.68046 0.855857 0
M  V30 3240 H 310.675 -6.90801 0.762788 0
M  V30 3241 H 313.866 -4.67561 0.224486 0
M  V30 3242 H 314.039 -6.45551 0.562889 0
M  V30 3243 N 307.445 0.0818655 -1.57387 0
M  V30 3244 C 308.722 0.815343 -1.77796 0
M  V30 3245 C 309.102 1.96289 -0.77679 0
M  V30 3246 O 308.45 2.27691 0.192106 0
M  V30 3247 C 308.66 1.29765 -3.23978 0
M  V30 3248 C 310.008 1.7351 -3.8753 0
M  V30 3249 O 311.032 1.39356 -3.27808 0
M  V30 3250 O 309.891 2.36708 -4.92576 0
M  V30 3251 H 306.985 0.389914 -0.729312 0
M  V30 3252 H 309.531 0.0627213 -1.69584 0
M  V30 3253 H 308.303 0.47608 -3.88393 0
M  V30 3254 H 307.926 2.11189 -3.36875 0
M  V30 3255 N 308.923 1.53595 0.353017 0
M  V30 3256 C 309.833 1.83897 1.45667 0
M  V30 3257 C 310.849 0.728334 1.58023 0
M  V30 3258 O 312.025 1.01968 1.73679 0
M  V30 3259 C 309.09 2.03383 2.80778 0
M  V30 3260 C 308.151 3.27262 2.77845 0
M  V30 3261 C 307.384 3.45809 4.06512 0
M  V30 3262 O 307.607 2.68387 5.03314 0
M  V30 3263 O 306.541 4.39207 4.11559 0
M  V30 3264 H 310.367 2.77686 1.2298 0
M  V30 3265 H 307.952 1.39132 0.544308 0
M  V30 3266 H 309.834 2.17698 3.60812 0
M  V30 3267 H 308.509 1.12783 3.03417 0
M  V30 3268 H 307.416 3.18359 1.96465 0
M  V30 3269 H 308.749 4.17824 2.60161 0
M  V30 3270 N 310.401 -0.613514 1.45168 0
M  V30 3271 C 311.812 -1.19539 1.43413 0
M  V30 3272 C 312.163 -1.95558 0.158632 0
M  V30 3273 O 311.288 -2.0335 -0.740119 0
M  V30 3274 C 311.883 -2.17445 2.59813 0
M  V30 3275 C 310.442 -2.71022 2.61197 0
M  V30 3276 C 309.589 -1.46323 2.35552 0
M  V30 3277 H 312.54 -0.403163 1.53494 0
M  V30 3278 H 312.561 -3.00373 2.33574 0
M  V30 3279 H 312.073 -1.62089 3.52631 0
M  V30 3280 H 310.174 -3.30332 1.7237 0
M  V30 3281 H 310.287 -3.15859 3.60236 0
M  V30 3282 H 308.651 -1.75072 1.84992 0
M  V30 3283 H 309.434 -0.92844 3.30507 0
M  V30 3284 N 311.879 -1.3236 -0.855495 0
M  V30 3285 C 313.104 -1.2601 -1.64731 0
M  V30 3286 C 313.529 0.169068 -1.87339 0
M  V30 3287 O 312.887 1.12016 -1.42556 0
M  V30 3288 C 312.935 -2.02417 -2.98429 0
M  V30 3289 O 312.039 -1.3714 -3.8893 0
M  V30 3290 H 311.38 -0.434325 -0.502253 0
M  V30 3291 H 313.91 -1.74661 -1.06558 0
M  V30 3292 H 313.92 -2.12559 -3.48257 0
M  V30 3293 H 312.595 -3.06343 -2.81295 0
M  V30 3294 H 311.172 -1.3554 -3.47395 0
M  V30 3295 N 313.357 1.07166 -1.15556 0
M  V30 3296 C 314.32 2.12589 -0.856644 0
M  V30 3297 C 315.32 1.6015 0.14444 0
M  V30 3298 O 316.51 1.7399 -0.0854163 0
M  V30 3299 C 313.642 3.39753 -0.279405 0
M  V30 3300 H 314.835 2.40539 -1.79112 0
M  V30 3301 H 312.388 1.23086 -0.963298 0
M  V30 3302 H 313.123 3.17447 0.663174 0
M  V30 3303 H 312.908 3.79117 -1.00063 0
M  V30 3304 H 314.398 4.17507 -0.0879113 0
M  V30 3305 N 314.835 0.952656 1.25548 0
M  V30 3306 C 315.765 0.489287 2.28316 0
M  V30 3307 C 316.746 -0.463359 1.63667 0
M  V30 3308 O 317.931 -0.36274 1.90782 0
M  V30 3309 C 315.061 -0.235603 3.465 0
M  V30 3310 C 314.015 0.631593 4.23314 0
M  V30 3311 C 313.341 -0.223923 5.34231 0
M  V30 3312 C 314.641 1.90871 4.86174 0
M  V30 3313 H 316.335 1.34822 2.67326 0
M  V30 3314 H 313.881 0.649728 1.28509 0
M  V30 3315 H 315.834 -0.570882 4.17515 0
M  V30 3316 H 314.558 -1.12877 3.06474 0
M  V30 3317 H 313.217 0.949929 3.54079 0
M  V30 3318 H 312.865 -1.11678 4.90446 0
M  V30 3319 H 312.565 0.35299 5.86539 0
M  V30 3320 H 314.089 -0.554214 6.0808 0
M  V30 3321 H 315.503 1.63997 5.49343 0
M  V30 3322 H 313.9 2.43112 5.4865 0
M  V30 3323 H 314.97 2.61304 4.08471 0
M  V30 3324 N 316.313 -1.40141 0.720998 0
M  V30 3325 C 317.276 -2.29058 0.0805834 0
M  V30 3326 C 318.276 -1.45632 -0.681758 0
M  V30 3327 O 319.466 -1.6648 -0.512856 0
M  V30 3328 C 316.598 -3.28925 -0.895593 0
M  V30 3329 H 317.791 -2.87191 0.863793 0
M  V30 3330 H 315.344 -1.48553 0.485975 0
M  V30 3331 H 316.079 -2.75822 -1.70566 0
M  V30 3332 H 315.864 -3.90519 -0.351766 0
M  V30 3333 H 317.354 -3.95494 -1.34069 0
M  V30 3334 N 317.792 -0.46758 -1.50504 0
M  V30 3335 C 319.208 -0.121533 -1.59137 0
M  V30 3336 C 319.408 1.3717 -1.47603 0
M  V30 3337 O 318.464 2.14464 -1.33272 0
M  V30 3338 C 319.777 -0.6686 -2.93173 0
M  V30 3339 C 321.325 -0.631716 -3.06559 0
M  V30 3340 C 321.8 -1.15627 -4.43164 0
M  V30 3341 N 323.291 -1.11553 -4.49567 0
M  V30 3342 C 324.026 -1.49195 -5.5365 0
M  V30 3343 N 323.522 -1.94269 -6.65005 0
M  V30 3344 N 325.315 -1.4082 -5.44175 0
M  V30 3345 H 317.466 -1.4388 -1.56245 0
M  V30 3346 H 319.729 -0.594784 -0.738198 0
M  V30 3347 H 319.435 -1.71453 -3.07078 0
M  V30 3348 H 319.309 -0.11021 -3.77039 0
M  V30 3349 H 321.696 0.405297 -2.92304 0
M  V30 3350 H 321.777 -1.22687 -2.24458 0
M  V30 3351 H 321.421 -2.1919 -4.58168 0
M  V30 3352 H 321.351 -0.537365 -5.23851 0
M  V30 3353 H 323.842 -0.784895 -3.69659 0
M  V30 3354 H 324.155 -2.21148 -7.40482 0
M  V30 3355 H 322.5 -1.98219 -6.66134 0
M  V30 3356 H 325.691 -1.0545 -4.56068 0
M  V30 3357 H 325.864 -1.70481 -6.25172 0
M  V30 3358 N 319.27 1.56325 -0.20005 0
M  V30 3359 C 320.233 2.18084 0.705132 0
M  V30 3360 C 321.233 1.13666 1.1374 0
M  V30 3361 O 322.423 1.39023 1.04968 0
M  V30 3362 C 319.555 2.78689 1.96329 0
M  V30 3363 H 320.748 2.99435 0.167023 0
M  V30 3364 H 318.301 1.56221 0.0495725 0
M  V30 3365 H 319.036 2.0115 2.5438 0
M  V30 3366 H 318.821 3.55133 1.66202 0
M  V30 3367 H 320.311 3.26096 2.60866 0
M  V30 3368 N 320.748 -0.0735177 1.57428 0
M  V30 3369 C 321.678 -1.0879 2.06608 0
M  V30 3370 C 322.659 -1.40473 0.959237 0
M  V30 3371 O 323.844 -1.5013 1.23185 0
M  V30 3372 C 320.974 -2.40183 2.50857 0
M  V30 3373 C 319.928 -2.22858 3.65402 0
M  V30 3374 C 319.254 -3.59619 3.957 0
M  V30 3375 C 320.554 -1.65123 4.95511 0
M  V30 3376 H 322.248 -0.678673 2.91607 0
M  V30 3377 H 319.794 -0.325013 1.40284 0
M  V30 3378 H 321.747 -3.11437 2.83874 0
M  V30 3379 H 320.471 -2.83083 1.62885 0
M  V30 3380 H 319.13 -1.54045 3.32664 0
M  V30 3381 H 318.778 -4.00086 3.04861 0
M  V30 3382 H 318.478 -3.48866 4.72828 0
M  V30 3383 H 320.002 -4.32306 4.31212 0
M  V30 3384 H 321.416 -2.26241 5.26771 0
M  V30 3385 H 319.813 -1.65071 5.7695 0
M  V30 3386 H 320.883 -0.612559 4.81015 0
M  V30 3387 N 322.226 -1.5378 -0.344866 0
M  V30 3388 C 323.454 -1.74899 -1.10534 0
M  V30 3389 C 323.869 -0.487534 -1.82397 0
M  V30 3390 O 323.226 0.540741 -1.74305 0
M  V30 3391 C 323.277 -2.92822 -2.11984 0
M  V30 3392 O 322.998 -4.14089 -1.43044 0
M  V30 3393 C 324.499 -3.25982 -3.00417 0
M  V30 3394 H 321.719 -0.584426 -0.329678 0
M  V30 3395 H 324.263 -2.006 -0.397474 0
M  V30 3396 H 322.418 -2.69457 -2.78338 0
M  V30 3397 H 322.832 -4.80272 -2.10805 0
M  V30 3398 H 324.306 -4.11848 -3.67539 0
M  V30 3399 H 324.783 -2.42228 -3.66363 0
M  V30 3400 H 325.389 -3.51349 -2.39654 0
M  V30 3401 N 323.704 0.605807 -1.45491 0
M  V30 3402 C 324.95 1.36481 -1.50813 0
M  V30 3403 C 325.305 1.91826 -0.148469 0
M  V30 3404 O 324.598 1.72211 0.839869 0
M  V30 3405 C 324.792 2.53012 -2.52428 0
M  V30 3406 C 324.621 2.09078 -3.98141 0
M  V30 3407 C 323.391 1.95167 -4.66088 0
M  V30 3408 C 325.589 1.66438 -4.86624 0
M  V30 3409 N 323.571 1.45062 -5.96515 0
M  V30 3410 C 324.942 1.27761 -6.06694 0
M  V30 3411 C 326.997 1.54046 -4.7347 0
M  V30 3412 C 325.7 0.779286 -7.15066 0
M  V30 3413 C 327.726 1.05618 -5.81892 0
M  V30 3414 C 327.088 0.67906 -7.01119 0
M  V30 3415 H 323.187 0.493267 -0.606805 0
M  V30 3416 H 325.771 0.692347 -1.81974 0
M  V30 3417 H 323.942 3.17851 -2.23215 0
M  V30 3418 H 325.674 3.19897 -2.47887 0
M  V30 3419 H 322.429 2.16407 -4.21266 0
M  V30 3420 H 322.853 1.22237 -6.65873 0
M  V30 3421 H 327.495 1.81827 -3.81705 0
M  V30 3422 H 325.213 0.489026 -8.06619 0
M  V30 3423 H 328.799 0.964529 -5.73749 0
M  V30 3424 H 327.679 0.310091 -7.83587 0
M  V30 3425 N 325.182 1.32811 0.848464 0
M  V30 3426 C 326.598 1.11937 1.13764 0
M  V30 3427 C 326.798 -0.0960789 2.01271 0
M  V30 3428 O 325.854 -0.779165 2.40178 0
M  V30 3429 C 327.167 2.402 1.809 0
M  V30 3430 C 328.715 2.46016 1.93508 0
M  V30 3431 C 329.19 3.74215 2.64059 0
M  V30 3432 N 330.681 3.75232 2.71579 0
M  V30 3433 C 331.416 4.71134 3.26833 0
M  V30 3434 N 330.912 5.77406 3.8285 0
M  V30 3435 N 332.705 4.58623 3.24995 0
M  V30 3436 H 324.856 2.1073 0.265855 0
M  V30 3437 H 327.119 0.930671 0.180431 0
M  V30 3438 H 326.825 3.29093 1.24058 0
M  V30 3439 H 326.699 2.51628 2.81004 0
M  V30 3440 H 329.086 1.57577 2.49506 0
M  V30 3441 H 329.167 2.38536 0.923811 0
M  V30 3442 H 328.811 4.63031 2.08722 0
M  V30 3443 H 328.741 3.78968 3.65637 0
M  V30 3444 H 331.232 2.98423 2.31845 0
M  V30 3445 H 331.545 6.46632 4.23187 0
M  V30 3446 H 329.89 5.81152 3.81165 0
M  V30 3447 H 333.081 3.74762 2.80484 0
M  V30 3448 H 333.254 5.33535 3.67756 0
M  V30 3449 N 326.66 -1.06551 1.16123 0
M  V30 3450 C 327.592 -2.13908 0.823171 0
M  V30 3451 C 328.605 -1.61926 -0.16843 0
M  V30 3452 O 329.794 -1.78412 0.055962 0
M  V30 3453 C 326.894 -3.38283 0.204424 0
M  V30 3454 C 326.067 -4.19589 1.23548 0
M  V30 3455 C 325.126 -5.2233 0.637011 0
M  V30 3456 O 324.152 -5.54034 1.30516 0
M  V30 3457 N 325.354 -5.77621 -0.577474 0
M  V30 3458 H 328.119 -2.43508 1.74711 0
M  V30 3459 H 325.68 -1.2253 1.05821 0
M  V30 3460 H 327.672 -4.0416 -0.208909 0
M  V30 3461 H 326.242 -3.06329 -0.623012 0
M  V30 3462 H 325.462 -3.49406 1.82507 0
M  V30 3463 H 326.75 -4.70718 1.93137 0
M  V30 3464 H 326.148 -5.54125 -1.13853 0
M  V30 3465 H 324.705 -6.45087 -0.933053 0
M  V30 3466 N 328.138 -0.959301 -1.25041 0
M  V30 3467 C 329.101 -0.487677 -2.23952 0
M  V30 3468 C 330.101 0.41119 -1.55454 0
M  V30 3469 O 331.291 0.207825 -1.72956 0
M  V30 3470 C 328.423 0.294807 -3.39623 0
M  V30 3471 H 329.616 -1.36198 -2.67189 0
M  V30 3472 H 327.169 -0.743042 -1.37508 0
M  V30 3473 H 327.904 1.18658 -3.01813 0
M  V30 3474 H 327.689 -0.35012 -3.90534 0
M  V30 3475 H 329.179 0.614089 -4.1306 0
M  V30 3476 N 329.616 1.39756 -0.72842 0
M  V30 3477 C 331.032 1.5442 -0.403308 0
M  V30 3478 C 331.232 1.69694 1.08656 0
M  V30 3479 O 330.288 1.69373 1.87267 0
M  V30 3480 C 331.601 2.76555 -1.18058 0
M  V30 3481 C 333.149 2.90384 -1.16815 0
M  V30 3482 C 333.624 4.15449 -1.92785 0
M  V30 3483 N 335.115 4.22475 -1.89918 0
M  V30 3484 C 335.85 5.1818 -2.45514 0
M  V30 3485 N 335.346 6.19714 -3.09719 0
M  V30 3486 N 337.139 5.1035 -2.35584 0
M  V30 3487 H 329.29 1.28089 -1.69431 0
M  V30 3488 H 331.553 0.620327 -0.716867 0
M  V30 3489 H 331.259 2.7159 -2.23455 0
M  V30 3490 H 331.133 3.69033 -0.780662 0
M  V30 3491 H 333.52 2.94846 -0.12234 0
M  V30 3492 H 333.601 1.98988 -1.6074 0
M  V30 3493 H 333.245 4.11749 -2.97364 0
M  V30 3494 H 333.175 5.05877 -1.46272 0
M  V30 3495 H 335.666 3.49743 -1.43138 0
M  V30 3496 H 335.979 6.8919 -3.49625 0
M  V30 3497 H 334.324 6.20121 -3.13807 0
M  V30 3498 H 337.515 4.2996 -1.85072 0
M  V30 3499 H 337.688 5.84761 -2.79211 0
M  V30 3500 N 331.094 0.475555 1.50254 0
M  V30 3501 C 332.057 -0.305016 2.27161 0
M  V30 3502 C 333.057 -0.916519 1.32123 0
M  V30 3503 O 334.247 -0.785003 1.5551 0
M  V30 3504 C 331.379 -1.43496 3.09227 0
M  V30 3505 H 332.572 0.369511 2.97615 0
M  V30 3506 H 330.125 0.229747 1.54602 0
M  V30 3507 H 330.86 -2.14441 2.43281 0
M  V30 3508 H 330.645 -1.00223 3.79075 0
M  V30 3509 H 332.135 -1.98548 3.67381 0
M  V30 3510 N 332.573 -1.56217 0.208337 0
M  V30 3511 C 333.505 -2.1695 -0.739276 0
M  V30 3512 C 334.518 -1.13492 -1.1672 0
M  V30 3513 O 335.707 -1.40529 -1.10063 0
M  V30 3514 C 332.807 -2.72755 -2.01142 0
M  V30 3515 C 331.98 -4.0125 -1.74118 0
M  V30 3516 C 331.039 -4.41749 -2.85909 0
M  V30 3517 O 330.065 -5.08912 -2.54946 0
M  V30 3518 N 331.267 -4.06342 -4.14568 0
M  V30 3519 H 334.032 -2.98893 -0.219837 0
M  V30 3520 H 331.593 -1.61878 0.0268445 0
M  V30 3521 H 333.585 -2.96826 -2.75094 0
M  V30 3522 H 332.155 -1.95191 -2.4417 0
M  V30 3523 H 331.375 -3.85173 -0.838775 0
M  V30 3524 H 332.663 -4.851 -1.53477 0
M  V30 3525 H 332.061 -3.52345 -4.42571 0
M  V30 3526 H 330.618 -4.35335 -4.85105 0
M  V30 3527 N 334.051 0.0651679 -1.57465 0
M  V30 3528 C 335.014 1.06117 -2.03155 0
M  V30 3529 C 336.014 1.31204 -0.929632 0
M  V30 3530 O 337.204 1.26813 -1.19432 0
M  V30 3531 C 334.336 2.4032 -2.41783 0
M  V30 3532 H 335.529 0.667231 -2.92383 0
M  V30 3533 H 333.082 0.311075 -1.53173 0
M  V30 3534 H 333.817 2.84532 -1.55601 0
M  V30 3535 H 333.602 2.23451 -3.22199 0
M  V30 3536 H 335.092 3.11898 -2.77685 0
M  V30 3537 N 335.529 1.53961 0.336706 0
M  V30 3538 C 336.777 1.71197 1.07405 0
M  V30 3539 C 337.098 0.481475 1.88962 0
M  V30 3540 O 336.368 -0.504585 1.8929 0
M  V30 3541 H 334.948 0.631185 0.399517 0
M  V30 3542 H 337.61 1.91232 0.376323 0
M  V30 3543 H 336.706 2.58587 1.74755 0
M  V30 3544 N 337.007 -0.598083 1.45811 0
M  V30 3545 C 337.97 -1.69018 1.54808 0
M  V30 3546 C 338.97 -1.55037 0.426652 0
M  V30 3547 O 340.16 -1.59932 0.690456 0
M  V30 3548 C 337.292 -3.0835 1.45371 0
M  V30 3549 H 338.485 -1.62403 2.52121 0
M  V30 3550 H 336.038 -0.814626 1.33392 0
M  V30 3551 H 336.773 -3.20534 0.492793 0
M  V30 3552 H 336.558 -3.19907 2.26721 0
M  V30 3553 H 338.048 -3.8788 1.54721 0
M  V30 3554 N 338.485 -1.33259 -0.841409 0
M  V30 3555 C 339.418 -1.1764 -1.95541 0
M  V30 3556 C 340.396 -0.072501 -1.62438 0
M  V30 3557 O 341.58 -0.23427 -1.87039 0
M  V30 3558 C 338.707 -0.803794 -3.29024 0
M  V30 3559 C 337.753 -1.91482 -3.81099 0
M  V30 3560 S 338.586 -3.52538 -4.03085 0
M  V30 3561 C 339.742 -3.17279 -5.39523 0
M  V30 3562 H 339.975 -2.11941 -2.08491 0
M  V30 3563 H 337.508 -1.18072 -0.9949 0
M  V30 3564 H 339.466 -0.595592 -4.06156 0
M  V30 3565 H 338.127 0.120574 -3.13868 0
M  V30 3566 H 337.32 -1.60742 -4.7768 0
M  V30 3567 H 336.922 -2.07956 -3.10854 0
M  V30 3568 H 339.214 -2.67946 -6.22263 0
M  V30 3569 H 340.157 -4.1293 -5.75234 0
M  V30 3570 H 340.565 -2.53943 -5.04156 0
M  V30 3571 N 339.963 1.05934 -1.16686 0
M  V30 3572 C 340.893 2.1546 -0.899949 0
M  V30 3573 C 341.874 1.69391 0.155154 0
M  V30 3574 O 343.059 1.94199 0.00648693 0
M  V30 3575 C 340.189 3.44939 -0.404241 0
M  V30 3576 C 339.143 4.04536 -1.39767 0
M  V30 3577 C 338.469 5.29268 -0.760216 0
M  V30 3578 C 339.769 4.42893 -2.76845 0
M  V30 3579 H 341.463 2.38046 -1.81588 0
M  V30 3580 H 339.009 1.14404 -0.874514 0
M  V30 3581 H 340.962 4.20901 -0.204971 0
M  V30 3582 H 339.686 3.21983 0.547206 0
M  V30 3583 H 338.345 3.30635 -1.58355 0
M  V30 3584 H 337.993 5.02611 0.197831 0
M  V30 3585 H 337.693 5.70101 -1.42332 0
M  V30 3586 H 339.217 6.07924 -0.57105 0
M  V30 3587 H 340.631 5.09921 -2.62019 0
M  V30 3588 H 339.028 4.94721 -3.39663 0
M  V30 3589 H 340.098 3.53584 -3.31823 0
M  V30 3590 N 341.441 0.965919 1.2453 0
M  V30 3591 C 342.371 0.513476 2.27784 0
M  V30 3592 C 343.352 -0.445974 1.6415 0
M  V30 3593 O 344.537 -0.342485 1.91156 0
M  V30 3594 C 341.667 -0.198839 3.4673 0
M  V30 3595 C 340.621 0.676456 4.2262 0
M  V30 3596 C 339.947 -0.167248 5.34438 0
M  V30 3597 C 341.247 1.96017 4.84123 0
M  V30 3598 H 342.941 1.3765 2.65881 0
M  V30 3599 H 340.487 0.663321 1.27813 0
M  V30 3600 H 342.44 -0.526567 4.18097 0
M  V30 3601 H 341.164 -1.0962 3.07654 0
M  V30 3602 H 339.823 0.98743 3.53052 0
M  V30 3603 H 339.471 -1.0647 4.91603 0
M  V30 3604 H 339.171 0.415181 5.86131 0
M  V30 3605 H 340.695 -0.489688 6.08633 0
M  V30 3606 H 342.109 1.69814 5.47573 0
M  V30 3607 H 340.506 2.48918 5.4604 0
M  V30 3608 H 341.576 2.65622 4.05676 0
M  V30 3609 N 342.919 -1.39368 0.735821 0
M  V30 3610 C 344.166 -2.00497 0.284123 0
M  V30 3611 C 344.494 -1.58387 -1.12889 0
M  V30 3612 O 343.749 -0.804359 -1.78406 0
M  V30 3613 C 344.048 -3.5583 0.334651 0
M  V30 3614 C 343.714 -4.17593 1.7008 0
M  V30 3615 C 342.376 -4.34176 2.07472 0
M  V30 3616 C 344.728 -4.51848 2.59775 0
M  V30 3617 C 342.056 -4.82304 3.34065 0
M  V30 3618 C 344.408 -5.01384 3.85741 0
M  V30 3619 C 343.072 -5.16175 4.23225 0
M  V30 3620 H 342.342 -0.73367 0.103968 0
M  V30 3621 H 344.989 -1.66683 0.942825 0
M  V30 3622 H 343.294 -3.89674 -0.407625 0
M  V30 3623 H 344.991 -4.00986 -0.0329927 0
M  V30 3624 H 341.581 -4.05087 1.40008 0
M  V30 3625 H 345.765 -4.38653 2.32157 0
M  V30 3626 H 341.021 -4.91941 3.63049 0
M  V30 3627 H 345.195 -5.26863 4.55399 0
M  V30 3628 H 342.822 -5.5323 5.21384 0
M  V30 3629 N 344.397 -0.483516 -1.5 0
M  V30 3630 C 345.645 0.067027 -2.01989 0
M  V30 3631 C 345.966 1.3909 -1.36671 0
M  V30 3632 O 345.236 1.88978 -0.516152 0
M  V30 3633 H 343.816 0.0277606 -0.746484 0
M  V30 3634 H 346.478 -0.636773 -1.84204 0
M  V30 3635 H 345.574 0.209484 -3.11396 0
M  V30 3636 N 345.875 1.56104 -0.216619 0
M  V30 3637 C 346.805 2.23063 0.690296 0
M  V30 3638 C 347.786 1.20072 1.20485 0
M  V30 3639 O 348.971 1.48643 1.24976 0
M  V30 3640 C 346.101 2.90672 1.90072 0
M  V30 3641 C 345.055 4.00092 1.5202 0
M  V30 3642 C 344.381 4.54972 2.80899 0
M  V30 3643 C 345.681 5.17398 0.71391 0
M  V30 3644 H 347.375 2.99109 0.132038 0
M  V30 3645 H 344.921 1.43866 0.0620664 0
M  V30 3646 H 346.874 3.36204 2.54057 0
M  V30 3647 H 345.598 2.12066 2.48386 0
M  V30 3648 H 344.257 3.55283 0.903839 0
M  V30 3649 H 343.905 3.73102 3.37348 0
M  V30 3650 H 343.605 5.28817 2.56176 0
M  V30 3651 H 345.129 5.0322 3.45836 0
M  V30 3652 H 346.543 5.59342 1.25735 0
M  V30 3653 H 344.94 5.97444 0.563951 0
M  V30 3654 H 346.01 4.84088 -0.280527 0
M  V30 3655 N 347.353 -0.0568162 1.57498 0
M  V30 3656 C 348.593 -0.758273 1.89815 0
M  V30 3657 C 348.957 -1.73978 0.812132 0
M  V30 3658 O 350.158 -2.48744 1.01881 0
M  V30 3659 C 348.429 -1.43465 3.27342 0
M  V30 3660 S 349.988 -2.1691 3.81439 0
M  V30 3661 H 346.806 -0.251836 0.664906 0
M  V30 3662 H 349.408 -0.0137997 1.95495 0
M  V30 3663 H 348.112 -0.706693 4.0427 0
M  V30 3664 H 347.643 -2.21825 3.24896 0
M  V30 3665 H 349.658 -3.43658 3.5793 0
M  V30 3666 N 348.832 -1.54138 -0.328536 0
M  V30 3667 C 350.078 -1.73297 -1.06488 0
M  V30 3668 C 350.433 -0.497958 -1.85844 0
M  V30 3669 O 349.726 0.509591 -1.84699 0
M  V30 3670 C 349.92 -2.9457 -2.02393 0
M  V30 3671 C 349.749 -4.29747 -1.32467 0
M  V30 3672 C 348.519 -4.93987 -1.06324 0
M  V30 3673 C 350.717 -5.08903 -0.743137 0
M  V30 3674 N 348.699 -6.13005 -0.331359 0
M  V30 3675 C 350.07 -6.19836 -0.142602 0
M  V30 3676 C 352.125 -4.93699 -0.64546 0
M  V30 3677 C 350.828 -7.17224 0.546125 0
M  V30 3678 C 352.854 -5.91393 0.0295558 0
M  V30 3679 C 352.216 -7.01674 0.619056 0
M  V30 3680 H 348.315 -0.687017 -0.373539 0
M  V30 3681 H 350.899 -1.91589 -0.346659 0
M  V30 3682 H 349.07 -2.77752 -2.71493 0
M  V30 3683 H 350.802 -3.0238 -2.68977 0
M  V30 3684 H 347.557 -4.53824 -1.35428 0
M  V30 3685 H 347.981 -6.76997 0.0202939 0
M  V30 3686 H 352.623 -4.08589 -1.08695 0
M  V30 3687 H 350.341 -8.01896 0.999459 0
M  V30 3688 H 353.927 -5.81706 0.104705 0
M  V30 3689 H 352.807 -7.75971 1.13309 0
M  V30 3690 N 350.31 0.590341 -1.46126 0
M  V30 3691 C 351.558 1.34616 -1.50742 0
M  V30 3692 C 351.879 1.94363 -0.157486 0
M  V30 3693 O 351.149 1.78136 0.815136 0
M  V30 3694 H 349.729 0.499789 -0.555175 0
M  V30 3695 H 352.391 0.691953 -1.82203 0
M  V30 3696 H 351.487 2.15678 -2.25587 0
M  V30 3697 N 351.788 1.33704 0.83433 0
M  V30 3698 C 353.199 1.22813 1.4062 0
M  V30 3699 C 353.55 -0.151107 1.95617 0
M  V30 3700 O 352.675 -1.05092 1.89168 0
M  V30 3701 C 353.27 2.22355 2.55624 0
M  V30 3702 C 351.829 2.1529 3.08751 0
M  V30 3703 C 350.976 2.09589 1.8157 0
M  V30 3704 H 353.927 1.45236 0.639702 0
M  V30 3705 H 353.948 1.83391 3.33389 0
M  V30 3706 H 353.46 3.22728 2.15566 0
M  V30 3707 H 351.561 1.18235 3.53343 0
M  V30 3708 H 351.674 3.06038 3.68616 0
M  V30 3709 H 350.038 1.55134 2.02004 0
M  V30 3710 H 350.821 3.11777 1.43701 0
M  V30 3711 N 353.266 -1.05314 1.17247 0
M  V30 3712 C 354.496 -1.81707 0.983166 0
M  V30 3713 C 354.904 -1.83222 -0.471822 0
M  V30 3714 O 354.247 -1.25721 -1.3394 0
M  V30 3715 C 354.309 -3.29134 1.44606 0
M  V30 3716 C 353.973 -3.51304 2.92292 0
M  V30 3717 C 354.97 -3.4353 3.90235 0
M  V30 3718 C 352.655 -3.78306 3.30439 0
M  V30 3719 C 354.649 -3.62442 5.24323 0
M  V30 3720 C 352.336 -3.96866 4.64694 0
M  V30 3721 C 353.334 -3.88933 5.61445 0
M  V30 3722 O 353.022 -4.06976 6.93272 0
M  V30 3723 H 352.754 -0.579476 0.348114 0
M  V30 3724 H 355.308 -1.33705 1.55924 0
M  V30 3725 H 353.538 -3.78046 0.813537 0
M  V30 3726 H 355.227 -3.87049 1.22262 0
M  V30 3727 H 355.993 -3.22648 3.62109 0
M  V30 3728 H 351.872 -3.83585 2.55702 0
M  V30 3729 H 355.416 -3.56165 5.99827 0
M  V30 3730 H 351.313 -4.1724 4.92525 0
M  V30 3731 H 352.081 -4.24209 6.99992 0
M  V30 3732 N 354.744 -0.972509 -1.24016 0
M  V30 3733 C 355.99 -0.637978 -1.92504 0
M  V30 3734 C 356.323 0.825383 -1.75787 0
M  V30 3735 O 355.598 1.59442 -1.11393 0
M  V30 3736 C 355.881 -1.01942 -3.45369 0
M  V30 3737 C 355.734 -2.53983 -3.71231 0
M  V30 3738 C 357.053 -0.55751 -4.36555 0
M  V30 3739 H 354.172 -0.233248 -0.699117 0
M  V30 3740 H 356.814 -1.21238 -1.46292 0
M  V30 3741 H 354.964 -0.530656 -3.84859 0
M  V30 3742 H 356.636 -3.10374 -3.41271 0
M  V30 3743 H 354.879 -2.96968 -3.16216 0
M  V30 3744 H 355.55 -2.75723 -4.78206 0
M  V30 3745 H 358.026 -0.977029 -4.04467 0
M  V30 3746 H 356.902 -0.85292 -5.42233 0
M  V30 3747 H 357.163 0.542328 -4.38761 0
M  V30 3748 N 356.222 1.38976 -0.743202 0
M  V30 3749 C 357.185 2.28901 -0.117014 0
M  V30 3750 C 358.185 1.46698 0.658503 0
M  V30 3751 O 359.375 1.67274 0.486305 0
M  V30 3752 C 356.507 3.30309 0.84315 0
M  V30 3753 H 357.7 2.8578 -0.909373 0
M  V30 3754 H 355.253 1.47761 -0.509547 0
M  V30 3755 H 355.988 2.785 1.66157 0
M  V30 3756 H 355.773 3.91029 0.289594 0
M  V30 3757 H 357.263 3.97577 1.2776 0
M  V30 3758 N 357.7 0.491464 1.49741 0
M  V30 3759 C 358.928 -0.0535151 2.06831 0
M  V30 3760 C 359.343 -1.31683 1.35296 0
M  V30 3761 O 358.7 -1.77402 0.42836 0
M  V30 3762 C 358.751 -0.320835 3.60073 0
M  V30 3763 O 358.472 0.892394 4.28915 0
M  V30 3764 C 359.973 -0.910519 4.33848 0
M  V30 3765 H 357.193 0.0161909 0.670805 0
M  V30 3766 H 359.737 0.68609 1.92647 0
M  V30 3767 H 357.892 -1.0104 3.73991 0
M  V30 3768 H 358.306 0.649401 5.20464 0
M  V30 3769 H 359.78 -1.04721 5.41976 0
M  V30 3770 H 360.257 -1.90589 3.95692 0
M  V30 3771 H 360.863 -0.258712 4.24512 0
M  V30 3772 N 359.178 -1.55987 0.224894 0
M  V30 3773 C 360.108 -2.23426 -0.678457 0
M  V30 3774 C 361.089 -1.20709 -1.19847 0
M  V30 3775 O 362.274 -1.49304 -1.24186 0
M  V30 3776 C 359.404 -2.91676 -1.88527 0
M  V30 3777 C 358.358 -4.00893 -1.49896 0
M  V30 3778 C 357.684 -4.56455 -2.78483 0
M  V30 3779 C 358.984 -5.17769 -0.686461 0
M  V30 3780 H 360.678 -2.99175 -0.116173 0
M  V30 3781 H 358.224 -1.43897 -0.054436 0
M  V30 3782 H 360.177 -3.37547 -2.5227 0
M  V30 3783 H 358.901 -2.1338 -2.47258 0
M  V30 3784 H 357.56 -3.55758 -0.884985 0
M  V30 3785 H 357.208 -3.74886 -3.35365 0
M  V30 3786 H 356.908 -5.30169 -2.53368 0
M  V30 3787 H 358.432 -5.05047 -3.43162 0
M  V30 3788 H 359.846 -5.60001 -1.22767 0
M  V30 3789 H 358.243 -5.97735 -0.532259 0
M  V30 3790 H 359.313 -4.83932 0.306196 0
M  V30 3791 N 360.656 0.0484629 -1.57525 0
M  V30 3792 C 361.586 1.0549 -2.08313 0
M  V30 3793 C 362.567 1.38929 -0.981463 0
M  V30 3794 O 363.752 1.48151 -1.25558 0
M  V30 3795 C 360.882 2.36162 -2.54646 0
M  V30 3796 C 359.836 2.17016 -3.68901 0
M  V30 3797 C 359.162 3.53278 -4.01371 0
M  V30 3798 C 360.462 1.57219 -4.98076 0
M  V30 3799 H 362.156 0.632195 -2.92649 0
M  V30 3800 H 359.702 0.302654 -1.40784 0
M  V30 3801 H 361.655 3.06882 -2.88793 0
M  V30 3802 H 360.379 2.80456 -1.67368 0
M  V30 3803 H 359.038 1.48733 -3.35073 0
M  V30 3804 H 358.686 3.95185 -3.11188 0
M  V30 3805 H 358.386 3.41299 -4.78318 0
M  V30 3806 H 359.91 4.25391 -4.38035 0
M  V30 3807 H 361.324 2.17832 -5.30304 0
M  V30 3808 H 359.721 1.55871 -5.79503 0
M  V30 3809 H 360.791 0.535956 -4.81929 0
M  V30 3810 N 362.134 1.5431 0.320358 0
M  V30 3811 C 363.064 1.86912 1.3995 0
M  V30 3812 C 364.045 0.726211 1.53819 0
M  V30 3813 O 365.23 0.980233 1.67646 0
M  V30 3814 C 362.36 2.09932 2.7667 0
M  V30 3815 C 361.314 3.25776 2.77586 0
M  V30 3816 C 360.64 3.34173 4.17412 0
M  V30 3817 C 361.94 4.6335 2.41048 0
M  V30 3818 H 363.634 2.77292 1.12914 0
M  V30 3819 H 361.18 1.33421 0.541738 0
M  V30 3820 H 363.133 2.31324 3.52232 0
M  V30 3821 H 361.857 1.16304 3.0519 0
M  V30 3822 H 360.516 3.04276 2.04479 0
M  V30 3823 H 360.164 2.38098 4.43078 0
M  V30 3824 H 359.864 4.12033 4.18931 0
M  V30 3825 H 361.388 3.57803 4.94782 0
M  V30 3826 H 362.802 4.84602 3.06324 0
M  V30 3827 H 361.199 5.43782 2.53813 0
M  V30 3828 H 362.269 4.65381 1.36193 0
M  V30 3829 N 363.613 -0.582584 1.46437 0
M  V30 3830 C 364.838 -1.37168 1.55563 0
M  V30 3831 C 365.263 -1.87061 0.19743 0
M  V30 3832 O 364.621 -1.61572 -0.822451 0
M  V30 3833 C 364.669 -2.53511 2.56446 0
M  V30 3834 O 363.773 -3.54953 2.09958 0
M  V30 3835 H 363.114 -0.408494 0.523477 0
M  V30 3836 H 365.644 -0.706646 1.9201 0
M  V30 3837 H 365.654 -3.00426 2.76058 0
M  V30 3838 H 364.329 -2.16549 3.55076 0
M  V30 3839 H 362.906 -3.14516 2.00334 0
M  V30 3840 N 365.091 -1.34144 -0.827227 0
M  V30 3841 C 366.337 -1.26446 -1.58554 0
M  V30 3842 C 366.67 0.1664 -1.93486 0
M  V30 3843 O 365.945 1.1107 -1.59667 0
M  V30 3844 C 366.228 -2.15111 -2.8879 0
M  V30 3845 C 366.081 -3.66712 -2.60465 0
M  V30 3846 C 367.4 -2.03311 -3.90324 0
M  V30 3847 H 364.519 -0.46067 -0.575284 0
M  V30 3848 H 367.161 -1.64356 -0.953269 0
M  V30 3849 H 365.311 -1.8291 -3.42748 0
M  V30 3850 H 366.983 -4.09259 -2.1285 0
M  V30 3851 H 365.226 -3.88014 -1.93978 0
M  V30 3852 H 365.897 -4.24112 -3.53317 0
M  V30 3853 H 368.373 -2.31574 -3.45706 0
M  V30 3854 H 367.249 -2.67582 -4.79261 0
M  V30 3855 H 367.51 -1.00879 -4.30437 0
M  V30 3856 N 366.569 1.04691 -1.17803 0
M  V30 3857 C 367.499 2.14494 -0.92275 0
M  V30 3858 C 368.48 1.69546 0.137179 0
M  V30 3859 O 369.665 1.94195 -0.0141108 0
M  V30 3860 C 366.795 3.44491 -0.440803 0
M  V30 3861 C 365.749 4.03031 -1.4405 0
M  V30 3862 C 365.075 5.28432 -0.81631 0
M  V30 3863 C 366.375 4.39932 -2.81527 0
M  V30 3864 H 368.069 2.36107 -1.84103 0
M  V30 3865 H 365.615 1.1347 -0.886599 0
M  V30 3866 H 367.568 4.2066 -0.249602 0
M  V30 3867 H 366.292 3.22546 0.513025 0
M  V30 3868 H 364.951 3.28937 -1.61853 0
M  V30 3869 H 364.599 5.02792 0.144511 0
M  V30 3870 H 364.299 5.68559 -1.48371 0
M  V30 3871 H 365.823 6.07284 -0.635496 0
M  V30 3872 H 367.237 5.07113 -2.67412 0
M  V30 3873 H 365.634 4.9109 -3.44892 0
M  V30 3874 H 366.704 3.50045 -3.35554 0
M  V30 3875 N 368.047 0.979072 1.23499 0
M  V30 3876 C 369.01 0.523244 2.23147 0
M  V30 3877 C 370.01 -0.386406 1.56088 0
M  V30 3878 O 371.2 -0.180283 1.73265 0
M  V30 3879 C 368.332 -0.240739 3.40049 0
M  V30 3880 H 369.525 1.40432 2.64989 0
M  V30 3881 H 367.078 0.764824 1.36309 0
M  V30 3882 H 367.813 -1.13841 3.03662 0
M  V30 3883 H 367.598 0.412207 3.89927 0
M  V30 3884 H 369.088 -0.548297 4.13985 0
M  V30 3885 N 369.525 -1.3858 0.750561 0
M  V30 3886 C 370.755 -2.04175 0.31564 0
M  V30 3887 C 371.163 -1.56726 -1.05989 0
M  V30 3888 O 370.506 -0.734225 -1.68389 0
M  V30 3889 C 370.568 -3.58585 0.256389 0
M  V30 3890 C 370.232 -4.29077 1.57296 0
M  V30 3891 C 371.229 -4.54656 2.52159 0
M  V30 3892 C 368.914 -4.67324 1.84156 0
M  V30 3893 C 370.908 -5.17512 3.72103 0
M  V30 3894 C 368.595 -5.29905 3.04374 0
M  V30 3895 C 369.593 -5.54933 3.98168 0
M  V30 3896 O 369.281 -6.16212 5.16273 0
M  V30 3897 H 369.013 -0.662742 0.133226 0
M  V30 3898 H 371.567 -1.78313 1.01948 0
M  V30 3899 H 369.797 -3.83406 -0.503677 0
M  V30 3900 H 371.486 -4.05628 -0.148612 0
M  V30 3901 H 372.252 -4.25539 2.32683 0
M  V30 3902 H 368.131 -4.47191 1.11988 0
M  V30 3903 H 371.675 -5.36963 4.45327 0
M  V30 3904 H 367.572 -5.58444 3.23745 0
M  V30 3905 H 368.34 -6.34701 5.16815 0
M  V30 3906 N 371.003 -0.499398 -1.49478 0
M  V30 3907 C 371.913 0.284489 -2.32869 0
M  V30 3908 C 372.929 0.968885 -1.44529 0
M  V30 3909 O 374.105 0.95062 -1.77553 0
M  V30 3910 C 371.17 1.33594 -3.19928 0
M  V30 3911 C 370.231 0.665149 -4.24116 0
M  V30 3912 C 369.464 1.6665 -5.07014 0
M  V30 3913 O 369.687 2.89618 -4.91404 0
M  V30 3914 O 368.621 1.22271 -5.8935 0
M  V30 3915 H 372.447 -0.39802 -3.01081 0
M  V30 3916 H 370.032 -0.260758 -1.47107 0
M  V30 3917 H 371.914 1.94431 -3.73864 0
M  V30 3918 H 370.589 2.0014 -2.54412 0
M  V30 3919 H 369.496 0.0170769 -3.74096 0
M  V30 3920 H 370.829 0.0421555 -4.92182 0
M  V30 3921 N 372.481 1.55866 -0.233164 0
M  V30 3922 C 373.413 2.18099 0.704668 0
M  V30 3923 C 374.426 1.15334 1.14899 0
M  V30 3924 O 375.615 1.42262 1.07814 0
M  V30 3925 C 372.715 2.7592 1.96777 0
M  V30 3926 C 371.888 4.03969 1.67713 0
M  V30 3927 C 370.947 4.46242 2.78845 0
M  V30 3928 O 369.973 5.12903 2.46818 0
M  V30 3929 N 371.175 4.12886 4.08051 0
M  V30 3930 H 373.94 2.99205 0.172258 0
M  V30 3931 H 371.501 1.61815 -0.0525945 0
M  V30 3932 H 373.493 3.01165 2.70337 0
M  V30 3933 H 372.063 1.99051 2.41034 0
M  V30 3934 H 371.283 3.86459 0.777391 0
M  V30 3935 H 372.571 4.8748 1.4574 0
M  V30 3936 H 371.969 3.59342 4.3691 0
M  V30 3937 H 370.526 4.42997 4.78118 0
M  V30 3938 N 373.959 -0.0401083 1.57549 0
M  V30 3939 C 375.375 -0.395556 1.54621 0
M  V30 3940 C 375.575 -1.77281 0.957799 0
M  V30 3941 O 374.631 -2.45888 0.574031 0
M  V30 3942 C 375.944 -0.307535 2.99123 0
M  V30 3943 C 377.492 -0.385425 3.10618 0
M  V30 3944 C 377.967 -0.326973 4.56831 0
M  V30 3945 N 379.458 -0.386102 4.61588 0
M  V30 3946 C 380.193 -0.363591 5.72246 0
M  V30 3947 N 379.689 -0.29402 6.92176 0
M  V30 3948 N 381.482 -0.412503 5.60584 0
M  V30 3949 H 373.633 0.861325 1.94152 0
M  V30 3950 H 375.896 0.326445 0.890021 0
M  V30 3951 H 375.602 0.638461 3.45856 0
M  V30 3952 H 375.476 -1.10552 3.60636 0
M  V30 3953 H 377.863 -1.32185 2.63839 0
M  V30 3954 H 377.944 0.44171 2.51957 0
M  V30 3955 H 377.588 0.605738 5.04275 0
M  V30 3956 H 377.518 -1.17207 5.13391 0
M  V30 3957 H 380.009 -0.442832 3.75296 0
M  V30 3958 H 380.322 -0.28164 7.72287 0
M  V30 3959 H 378.667 -0.260232 6.94513 0
M  V30 3960 H 381.858 -0.464769 4.65787 0
M  V30 3961 H 382.031 -0.391492 6.46816 0
M  V30 3962 N 375.437 -1.54477 -0.31217 0
M  V30 3963 C 376.848 -1.64344 -0.885891 0
M  V30 3964 C 377.199 -0.54485 -1.88483 0
M  V30 3965 O 376.324 0.320387 -2.14015 0
M  V30 3966 C 376.919 -2.97908 -1.61357 0
M  V30 3967 C 375.478 -3.09933 -2.13585 0
M  V30 3968 C 374.625 -2.59971 -0.964897 0
M  V30 3969 H 377.576 -1.58448 -0.0894528 0
M  V30 3970 H 377.597 -2.88706 -2.47848 0
M  V30 3971 H 377.109 -3.77845 -0.886277 0
M  V30 3972 H 375.21 -2.34694 -2.89395 0
M  V30 3973 H 375.323 -4.15916 -2.37804 0
M  V30 3974 H 373.687 -2.16147 -1.34731 0
M  V30 3975 H 374.47 -3.42376 -0.251742 0
M  V30 3976 N 376.915 0.57481 -1.46744 0
M  V30 3977 C 378.326 1.15695 -1.46532 0
M  V30 3978 C 378.677 1.95068 -0.210425 0
M  V30 3979 O 377.802 2.05241 0.685944 0
M  V30 3980 C 378.397 2.1048 -2.65487 0
M  V30 3981 C 376.956 2.64002 -2.68291 0
M  V30 3982 C 376.103 1.40026 -2.39349 0
M  V30 3983 H 379.054 0.362325 -1.54509 0
M  V30 3984 H 379.075 2.94074 -2.41455 0
M  V30 3985 H 378.587 1.52683 -3.56805 0
M  V30 3986 H 376.688 3.25646 -1.81067 0
M  V30 3987 H 376.801 3.06197 -3.68483 0
M  V30 3988 H 375.165 1.70106 -1.89568 0
M  V30 3989 H 375.948 0.840485 -3.32852 0
M  V30 3990 N 378.394 1.34581 0.820102 0
M  V30 3991 C 379.324 1.29038 1.94606 0
M  V30 3992 C 380.305 0.1673 1.69275 0
M  V30 3993 O 381.49 0.360112 1.90832 0
M  V30 3994 C 378.62 1.04793 3.31113 0
M  V30 3995 C 377.574 2.13597 3.70891 0
M  V30 3996 C 376.9 1.74537 5.05412 0
M  V30 3997 C 378.2 3.55451 3.8269 0
M  V30 3998 H 379.894 2.23248 1.99501 0
M  V30 3999 H 377.44 1.0747 0.958449 0
M  V30 4000 H 379.393 0.995592 4.0947 0
M  V30 4001 H 378.117 0.0702565 3.26524 0
M  V30 4002 H 376.776 2.17905 2.9481 0
M  V30 4003 H 376.424 0.754226 4.97313 0
M  V30 4004 H 376.124 2.47361 5.32997 0
M  V30 4005 H 377.648 1.70803 5.86224 0
M  V30 4006 H 379.062 3.5354 4.51312 0
M  V30 4007 H 377.459 4.26922 4.21732 0
M  V30 4008 H 378.529 3.92587 2.84611 0
M  V30 4009 N 379.872 -1.04064 1.18357 0
M  V30 4010 C 381.12 -1.76915 0.977013 0
M  V30 4011 C 381.441 -1.88624 -0.494577 0
M  V30 4012 O 380.711 -1.41125 -1.3587 0
M  V30 4013 H 379.291 -0.65535 0.358504 0
M  V30 4014 H 381.953 -1.25592 1.49039 0
M  V30 4015 H 381.049 -2.78178 1.41504 0
M  V30 4016 N 381.35 -0.985608 -1.22978 0
M  V30 4017 C 382.761 -0.693593 -1.73338 0
M  V30 4018 C 383.112 0.789935 -1.79595 0
M  V30 4019 O 382.237 1.61771 -1.43733 0
M  V30 4020 C 382.832 -1.25235 -3.14804 0
M  V30 4021 C 381.391 -1.00987 -3.626 0
M  V30 4022 C 380.538 -1.37695 -2.40698 0
M  V30 4023 H 383.489 -1.15884 -1.08428 0
M  V30 4024 H 383.51 -0.627329 -3.75293 0
M  V30 4025 H 383.022 -2.33209 -3.10218 0
M  V30 4026 H 381.123 0.0535565 -3.72562 0
M  V30 4027 H 381.236 -1.66812 -4.49122 0
M  V30 4028 H 379.6 -0.795459 -2.4196 0
M  V30 4029 H 380.383 -2.46657 -2.38779 0
M  V30 4030 N 382.828 1.3818 -0.7579 0
M  V30 4031 C 384.076 1.99624 -0.315361 0
M  V30 4032 C 384.397 1.60464 1.10799 0
M  V30 4033 O 383.667 0.863507 1.75842 0
M  V30 4034 H 382.247 0.73831 -0.113611 0
M  V30 4035 H 384.909 1.68878 -0.972952 0
M  V30 4036 H 384.005 3.09754 -0.381931 0
M  V30 4037 N 384.306 0.507319 1.49211 0
M  V30 4038 C 385.534 -0.0315749 2.06876 0
M  V30 4039 C 385.949 -1.30241 1.36685 0
M  V30 4040 O 385.306 -1.76937 0.447152 0
M  V30 4041 C 385.357 -0.282627 3.60393 0
M  V30 4042 O 385.078 0.937835 4.27944 0
M  V30 4043 C 386.579 -0.864453 4.3479 0
M  V30 4044 H 383.799 0.0233048 0.670595 0
M  V30 4045 H 386.343 0.706484 1.91909 0
M  V30 4046 H 384.498 -0.97068 3.75042 0
M  V30 4047 H 384.912 0.704567 5.19746 0
M  V30 4048 H 386.386 -0.989664 5.43056 0
M  V30 4049 H 386.863 -1.86382 3.97692 0
M  V30 4050 H 387.469 -0.213672 4.24763 0
M  V30 4051 N 385.784 -1.5574 0.241426 0
M  V30 4052 C 386.714 -2.24133 -0.654722 0
M  V30 4053 C 387.695 -1.21974 -1.1856 0
M  V30 4054 O 388.88 -1.50612 -1.22595 0
M  V30 4055 C 386.01 -2.93659 -1.85423 0
M  V30 4056 C 384.964 -4.0246 -1.45636 0
M  V30 4057 C 384.29 -4.59383 -2.73626 0
M  V30 4058 C 385.59 -5.18468 -0.631506 0
M  V30 4059 H 387.284 -2.99281 -0.0844353 0
M  V30 4060 H 384.83 -1.43947 -0.0391707 0
M  V30 4061 H 386.783 -3.40203 -2.48676 0
M  V30 4062 H 385.507 -2.15991 -2.44981 0
M  V30 4063 H 384.166 -3.56676 -0.847202 0
M  V30 4064 H 383.814 -3.78422 -3.3137 0
M  V30 4065 H 383.514 -5.32826 -2.4773 0
M  V30 4066 H 385.038 -5.08658 -3.37786 0
M  V30 4067 H 386.452 -5.61272 -1.1682 0
M  V30 4068 H 384.849 -5.98266 -0.468831 0
M  V30 4069 H 385.919 -4.8358 0.357506 0
M  V30 4070 N 387.262 0.0317525 -1.57568 0
M  V30 4071 C 388.192 1.03274 -2.0942 0
M  V30 4072 C 389.173 1.3788 -0.996143 0
M  V30 4073 O 390.358 1.46811 -1.27122 0
M  V30 4074 C 387.488 2.33448 -2.57137 0
M  V30 4075 C 386.442 2.13091 -3.71182 0
M  V30 4076 C 385.768 3.49001 -4.05095 0
M  V30 4077 C 387.068 1.51928 -4.99715 0
M  V30 4078 H 388.762 0.60112 -2.93303 0
M  V30 4079 H 386.308 0.287705 -1.41097 0
M  V30 4080 H 388.261 3.03802 -2.92032 0
M  V30 4081 H 386.985 2.78665 -1.70333 0
M  V30 4082 H 385.644 1.45171 -3.36632 0
M  V30 4083 H 385.292 3.91862 -3.15362 0
M  V30 4084 H 384.992 3.36207 -4.81911 0
M  V30 4085 H 386.516 4.20721 -4.42522 0
M  V30 4086 H 387.93 2.12196 -5.32584 0
M  V30 4087 H 386.327 1.49716 -5.81124 0
M  V30 4088 H 387.397 0.484811 -4.8247 0
M  V30 4089 N 388.74 1.54641 0.303973 0
M  V30 4090 C 389.965 1.78092 1.06292 0
M  V30 4091 C 390.39 0.537342 1.80262 0
M  V30 4092 O 389.748 -0.511993 1.7392 0
M  V30 4093 C 389.796 2.98612 2.02147 0
M  V30 4094 O 388.9 2.71528 3.10397 0
M  V30 4095 H 388.241 0.589548 0.305497 0
M  V30 4096 H 390.771 2.01716 0.3423 0
M  V30 4097 H 390.781 3.265 2.44667 0
M  V30 4098 H 389.456 3.88785 1.47714 0
M  V30 4099 H 388.033 2.54648 2.72413 0
M  V30 4100 N 390.218 -0.567019 1.47046 0
M  V30 4101 C 391.148 -1.68482 1.61667 0
M  V30 4102 C 392.129 -1.6358 0.466418 0
M  V30 4103 O 393.314 -1.81354 0.694574 0
M  V30 4104 C 390.444 -3.07124 1.62148 0
M  V30 4105 C 389.398 -3.26867 2.76301 0
M  V30 4106 C 388.724 -4.66196 2.61849 0
M  V30 4107 C 390.024 -3.13186 4.17986 0
M  V30 4108 H 391.718 -1.56502 2.5524 0
M  V30 4109 H 389.264 -0.751486 1.22836 0
M  V30 4110 H 391.217 -3.8516 1.70968 0
M  V30 4111 H 389.941 -3.2004 0.651287 0
M  V30 4112 H 388.6 -2.51237 2.66975 0
M  V30 4113 H 388.248 -4.75898 1.62879 0
M  V30 4114 H 387.948 -4.80356 3.38425 0
M  V30 4115 H 389.472 -5.46379 2.72584 0
M  V30 4116 H 390.886 -3.81049 4.2834 0
M  V30 4117 H 389.283 -3.3886 4.95272 0
M  V30 4118 H 390.353 -2.10057 4.3704 0
M  V30 4119 N 391.696 -1.35014 -0.812953 0
M  V30 4120 C 392.626 -1.30069 -1.93919 0
M  V30 4121 C 393.607 -0.176275 -1.69184 0
M  V30 4122 O 394.792 -0.370227 -1.90638 0
M  V30 4123 C 391.922 -1.06547 -3.30552 0
M  V30 4124 C 390.876 -2.15561 -3.69753 0
M  V30 4125 C 390.202 -1.77214 -5.04479 0
M  V30 4126 C 391.502 -3.57476 -3.808 0
M  V30 4127 H 393.196 -2.24303 -1.98314 0
M  V30 4128 H 390.742 -1.07977 -0.952736 0
M  V30 4129 H 392.695 -1.01729 -4.08937 0
M  V30 4130 H 391.419 -0.0875719 -3.26483 0
M  V30 4131 H 390.078 -2.19466 -2.9365 0
M  V30 4132 H 389.726 -0.780589 -4.96906 0
M  V30 4133 H 389.426 -2.50184 -5.31678 0
M  V30 4134 H 390.95 -1.7391 -5.8531 0
M  V30 4135 H 392.364 -3.55929 -4.4943 0
M  V30 4136 H 390.761 -4.29152 -4.19462 0
M  V30 4137 H 391.831 -3.94091 -2.82525 0
M  V30 4138 N 393.175 1.03435 -1.18907 0
M  V30 4139 C 394.4 1.80919 -1.01406 0
M  V30 4140 C 394.825 1.83055 0.432721 0
M  V30 4141 O 394.183 1.25252 1.31079 0
M  V30 4142 C 394.231 3.24091 -1.58105 0
M  V30 4143 O 393.335 4.04434 -0.806669 0
M  V30 4144 H 392.676 0.558709 -0.358803 0
M  V30 4145 H 395.206 1.30223 -1.57807 0
M  V30 4146 H 395.216 3.74853 -1.61087 0
M  V30 4147 H 393.891 3.21851 -2.6341 0
M  V30 4148 H 392.468 3.63091 -0.849666 0
M  V30 4149 N 394.653 0.992116 1.22453 0
M  V30 4150 C 395.583 0.561677 2.26644 0
M  V30 4151 C 396.564 -0.411055 1.65059 0
M  V30 4152 O 397.749 -0.301861 1.9184 0
M  V30 4153 C 394.879 -0.125247 3.47074 0
M  V30 4154 C 393.833 0.765948 4.21091 0
M  V30 4155 C 393.159 -0.0538484 5.34673 0
M  V30 4156 C 394.459 2.06242 4.79856 0
M  V30 4157 H 396.153 1.43259 2.62902 0
M  V30 4158 H 393.699 0.690283 1.26377 0
M  V30 4159 H 395.652 -0.437764 4.1912 0
M  V30 4160 H 394.376 -1.03069 3.0991 0
M  V30 4161 H 393.035 1.0621 3.50878 0
M  V30 4162 H 392.683 -0.960188 4.9375 0
M  V30 4163 H 392.383 0.539415 5.85119 0
M  V30 4164 H 393.907 -0.360477 6.09535 0
M  V30 4165 H 395.321 1.8139 5.43848 0
M  V30 4166 H 393.718 2.60444 5.40638 0
M  V30 4167 H 394.788 2.74167 3.99951 0
M  V30 4168 N 396.131 -1.37776 0.765217 0
M  V30 4169 C 397.379 -1.99454 0.325943 0
M  V30 4170 C 397.7 -1.61049 -1.09947 0
M  V30 4171 O 396.97 -0.872821 -1.75381 0
M  V30 4172 H 395.55 -0.737697 0.117525 0
M  V30 4173 H 398.212 -1.68359 0.981895 0
M  V30 4174 H 397.308 -3.09547 0.398353 0
M  V30 4175 N 397.609 -0.515225 -1.4894 0
M  V30 4176 C 398.834 0.022727 -2.07388 0
M  V30 4177 C 399.259 1.2876 -1.37122 0
M  V30 4178 O 398.617 1.76067 -0.432431 0
M  V30 4179 C 398.665 0.244869 -3.59768 0
M  V30 4180 O 397.769 1.31667 -3.90817 0
M  V30 4181 H 397.11 -0.0325506 -0.663202 0
M  V30 4182 H 399.64 -0.718918 -1.91553 0
M  V30 4183 H 399.65 0.47205 -4.0526 0
M  V30 4184 H 398.325 -0.679194 -4.10317 0
M  V30 4185 H 396.902 1.07331 -3.5712 0
M  V30 4186 N 399.087 1.5561 -0.249682 0
M  V30 4187 C 400.05 2.20217 0.635394 0
M  V30 4188 C 401.05 1.17227 1.10066 0
M  V30 4189 O 402.24 1.42292 1.00492 0
M  V30 4190 C 399.372 2.84794 1.87363 0
M  V30 4191 H 400.565 2.99814 0.0716752 0
M  V30 4192 H 398.118 1.563 -0.000153234 0
M  V30 4193 H 398.853 2.09142 2.47851 0
M  V30 4194 H 398.638 3.60241 1.5482 0
M  V30 4195 H 400.128 3.3423 2.5036 0
M  V30 4196 N 400.565 -0.0233959 1.57583 0
M  V30 4197 C 401.79 -0.728376 1.94189 0
M  V30 4198 C 402.215 -1.67793 0.850119 0
M  V30 4199 O 401.573 -1.80262 -0.19371 0
M  V30 4200 C 401.621 -1.45669 3.29868 0
M  V30 4201 O 400.725 -2.57013 3.22518 0
M  V30 4202 H 400.066 -0.195493 0.63457 0
M  V30 4203 H 402.596 0.0228214 2.04587 0
M  V30 4204 H 402.606 -1.82535 3.6489 0
M  V30 4205 H 401.281 -0.760314 4.08891 0
M  V30 4206 H 399.858 -2.22648 2.99136 0
M  V30 4207 N 402.043 -1.548 -0.295768 0
M  V30 4208 C 403.006 -1.85363 -1.34808 0
M  V30 4209 C 404.006 -0.726817 -1.43436 0
M  V30 4210 O 405.196 -0.995088 -1.42981 0
M  V30 4211 C 402.328 -2.03859 -2.73229 0
M  V30 4212 H 403.521 -2.7941 -1.08949 0
M  V30 4213 H 401.074 -1.46942 -0.532702 0
M  V30 4214 H 401.809 -1.12117 -3.04303 0
M  V30 4215 H 401.594 -2.8588 -2.68356 0
M  V30 4216 H 403.084 -2.28857 -3.49305 0
M  V30 4217 N 403.521 0.559213 -1.47345 0
M  V30 4218 C 404.484 1.64854 -1.59235 0
M  V30 4219 C 405.484 1.53851 -0.467607 0
M  V30 4220 O 406.674 1.58045 -0.732617 0
M  V30 4221 C 403.806 3.04388 -1.53496 0
M  V30 4222 H 404.999 1.55662 -2.56339 0
M  V30 4223 H 402.552 0.778973 -1.35505 0
M  V30 4224 H 403.287 3.19115 -0.577604 0
M  V30 4225 H 403.072 3.13783 -2.35123 0
M  V30 4226 H 404.562 3.83642 -1.6495 0
M  V30 4227 N 404.999 1.35443 0.805782 0
M  V30 4228 C 405.962 1.28301 1.89925 0
M  V30 4229 C 406.962 0.194285 1.59622 0
M  V30 4230 O 408.152 0.448036 1.6834 0
M  V30 4231 C 405.284 0.984997 3.2636 0
M  V30 4232 H 406.477 2.2553 1.97677 0
M  V30 4233 H 404.03 1.19979 1.00173 0
M  V30 4234 H 404.765 0.016603 3.24296 0
M  V30 4235 H 404.55 1.77269 3.4974 0
M  V30 4236 H 406.04 0.960651 4.064 0
M  V30 4237 N 406.477 -1.02803 1.19454 0
M  V30 4238 C 407.723 -1.76478 0.999171 0
M  V30 4239 C 408.056 -1.88456 -0.468828 0
M  V30 4240 O 407.331 -1.40198 -1.34814 0
M  V30 4241 C 407.614 -3.19044 1.66981 0
M  V30 4242 C 407.467 -3.14932 3.21151 0
M  V30 4243 C 408.786 -4.17456 1.39349 0
M  V30 4244 H 405.905 -0.640614 0.364393 0
M  V30 4245 H 408.547 -1.20005 1.47305 0
M  V30 4246 H 406.697 -3.67263 1.2669 0
M  V30 4247 H 408.369 -2.74605 3.70661 0
M  V30 4248 H 406.612 -2.52625 3.52652 0
M  V30 4249 H 407.283 -4.1566 3.63223 0
M  V30 4250 H 409.759 -3.77842 1.74283 0
M  V30 4251 H 408.635 -5.154 1.88823 0
M  V30 4252 H 408.896 -4.40949 0.318813 0
M  V30 4253 N 407.956 -0.998596 -1.21925 0
M  V30 4254 C 409.367 -0.711939 -1.72593 0
M  V30 4255 C 409.718 0.770842 -1.80423 0
M  V30 4256 O 408.843 1.60237 -1.4544 0
M  V30 4257 C 409.438 -1.28567 -3.13458 0
M  V30 4258 C 407.997 -1.04828 -3.61508 0
M  V30 4259 C 407.144 -1.4024 -2.39224 0
M  V30 4260 H 410.095 -1.17027 -1.07193 0
M  V30 4261 H 410.116 -0.667098 -3.74607 0
M  V30 4262 H 409.628 -2.36486 -3.07727 0
M  V30 4263 H 407.729 0.0140383 -3.72597 0
M  V30 4264 H 407.842 -1.71566 -4.47328 0
M  V30 4265 H 406.206 -0.821077 -2.41103 0
M  V30 4266 H 406.989 -2.49176 -2.36149 0
M  V30 4267 N 409.434 1.37368 -0.772513 0
M  V30 4268 C 410.68 1.99969 -0.337681 0
M  V30 4269 C 411.013 1.61184 1.08321 0
M  V30 4270 O 410.288 0.858395 1.74533 0
M  V30 4271 C 410.571 3.56858 -0.482121 0
M  V30 4272 C 410.424 4.0555 -1.94549 0
M  V30 4273 C 411.743 4.39955 0.113143 0
M  V30 4274 H 408.862 0.726464 -0.124171 0
M  V30 4275 H 411.504 1.63034 -0.975699 0
M  V30 4276 H 409.654 3.88452 0.0610361 0
M  V30 4277 H 411.326 3.84518 -2.54841 0
M  V30 4278 H 409.569 3.57715 -2.45403 0
M  V30 4279 H 410.24 5.14587 -1.9976 0
M  V30 4280 H 412.716 4.14623 -0.35031 0
M  V30 4281 H 411.592 5.48897 -0.0180514 0
M  V30 4282 H 411.853 4.25403 1.20354 0
M  V30 4283 N 410.912 0.523116 1.48665 0
M  V30 4284 C 411.875 -0.232592 2.28017 0
M  V30 4285 C 412.875 -0.874021 1.34972 0
M  V30 4286 O 414.065 -0.735132 1.57929 0
M  V30 4287 C 411.197 -1.33586 3.13636 0
M  V30 4288 H 412.39 0.464008 2.96289 0
M  V30 4289 H 409.943 0.278816 1.53793 0
M  V30 4290 H 410.678 -2.06593 2.4998 0
M  V30 4291 H 410.463 -0.881125 3.82071 0
M  V30 4292 H 411.953 -1.86759 3.73511 0
M  V30 4293 N 412.39 -1.55475 0.257931 0
M  V30 4294 C 413.323 -2.179 -0.677862 0
M  V30 4295 C 414.301 -1.13448 -1.16483 0
M  V30 4296 O 415.485 -1.41889 -1.24095 0
M  V30 4297 C 412.612 -2.78851 -1.92249 0
M  V30 4298 C 411.658 -3.96454 -1.57246 0
M  V30 4299 S 412.491 -5.31349 -0.665501 0
M  V30 4300 C 413.647 -5.9576 -1.91889 0
M  V30 4301 H 413.88 -2.96934 -0.147396 0
M  V30 4302 H 411.413 -1.54342 0.0423023 0
M  V30 4303 H 413.371 -3.14602 -2.63697 0
M  V30 4304 H 412.032 -1.99742 -2.42409 0
M  V30 4305 H 411.225 -4.37731 -2.49814 0
M  V30 4306 H 410.827 -3.62038 -0.938325 0
M  V30 4307 H 413.119 -6.13947 -2.86487 0
M  V30 4308 H 414.062 -6.9094 -1.54942 0
M  V30 4309 H 414.47 -5.2494 -2.076 0
M  V30 4310 N 413.868 0.0150385 -1.57593 0
M  V30 4311 C 415.116 0.701613 -1.8953 0
M  V30 4312 C 415.437 1.75139 -0.857396 0
M  V30 4313 O 414.707 1.95607 0.107194 0
M  V30 4314 H 413.287 0.26213 -0.699498 0
M  V30 4315 H 415.949 -0.0223304 -1.94887 0
M  V30 4316 H 415.045 1.18236 -2.88837 0
M  V30 4317 N 415.346 1.54954 0.287554 0
M  V30 4318 C 416.276 1.89839 1.35954 0
M  V30 4319 C 417.257 0.758675 1.52244 0
M  V30 4320 O 418.442 1.01557 1.65529 0
M  V30 4321 C 415.572 2.15753 2.72154 0
M  V30 4322 C 414.526 3.3159 2.70614 0
M  V30 4323 C 413.852 3.42952 4.10229 0
M  V30 4324 C 415.152 4.68359 2.31165 0
M  V30 4325 H 416.846 2.79625 1.07007 0
M  V30 4326 H 414.392 1.3454 0.513316 0
M  V30 4327 H 416.345 2.38743 3.47246 0
M  V30 4328 H 415.069 1.22752 3.02654 0
M  V30 4329 H 413.728 3.08545 1.97979 0
M  V30 4330 H 413.376 2.47443 4.37928 0
M  V30 4331 H 413.076 4.20826 4.10097 0
M  V30 4332 H 414.6 3.68218 4.87081 0
M  V30 4333 H 416.014 4.9099 2.95976 0
M  V30 4334 H 414.411 5.49044 2.42221 0
M  V30 4335 H 415.481 4.68165 1.26291 0
M  V30 4336 N 416.824 -0.551391 1.4764 0
M  V30 4337 C 418.072 -1.30572 1.54258 0
M  V30 4338 C 418.393 -1.93877 0.208963 0
M  V30 4339 O 417.663 -1.80234 -0.767619 0
M  V30 4340 H 416.243 -0.484894 0.568231 0
M  V30 4341 H 418.905 -0.643402 1.83974 0
M  V30 4342 H 418.001 -2.09621 2.31226 0
M  V30 4343 N 418.302 -1.35869 -0.798587 0
M  V30 4344 C 419.579 -1.20145 -1.54352 0
M  V30 4345 C 419.959 0.216161 -2.0999 0
M  V30 4346 O 419.307 1.22068 -1.93162 0
M  V30 4347 C 419.517 -2.27602 -2.64572 0
M  V30 4348 C 420.865 -2.63811 -3.32699 0
M  V30 4349 O 421.889 -2.26576 -2.74849 0
M  V30 4350 O 420.748 -3.27866 -4.37226 0
M  V30 4351 H 417.842 -0.467248 -0.682355 0
M  V30 4352 H 420.388 -1.47574 -0.837859 0
M  V30 4353 H 419.16 -3.2265 -2.21388 0
M  V30 4354 H 418.783 -2.01488 -3.42766 0
M  V30 4355 N 419.78 1.02168 -1.19998 0
M  V30 4356 C 420.712 2.10705 -0.901994 0
M  V30 4357 C 421.725 1.6244 0.108216 0
M  V30 4358 O 422.914 1.78082 -0.12214 0
M  V30 4359 C 420.014 3.37291 -0.329834 0
M  V30 4360 C 419.187 4.14714 -1.39035 0
M  V30 4361 C 418.246 5.19606 -0.830432 0
M  V30 4362 O 417.272 5.48809 -1.50989 0
M  V30 4363 N 418.474 5.79366 0.362696 0
M  V30 4364 H 421.239 2.36856 -1.83628 0
M  V30 4365 H 418.8 1.18518 -1.10296 0
M  V30 4366 H 420.792 4.04657 0.0587633 0
M  V30 4367 H 419.362 3.0843 0.508891 0
M  V30 4368 H 418.582 3.42392 -1.9535 0
M  V30 4369 H 419.87 4.63226 -2.10474 0
M  V30 4370 H 419.268 5.57968 0.932081 0
M  V30 4371 H 417.825 6.48106 0.69299 0
M  V30 4372 N 421.258 1.00505 1.21394 0
M  V30 4373 C 422.674 0.717873 1.42544 0
M  V30 4374 C 422.874 -0.706936 1.88692 0
M  V30 4375 O 421.93 -1.47627 2.04847 0
M  V30 4376 C 423.243 1.73377 2.45684 0
M  V30 4377 C 424.791 1.75059 2.59467 0
M  V30 4378 C 425.266 2.75545 3.6584 0
M  V30 4379 N 426.757 2.74213 3.73311 0
M  V30 4380 C 427.492 3.48626 4.55245 0
M  V30 4381 N 426.988 4.32678 5.41075 0
M  V30 4382 N 428.781 3.37276 4.49668 0
M  V30 4383 H 420.932 1.92506 0.897503 0
M  V30 4384 H 423.195 0.830919 0.456375 0
M  V30 4385 H 422.901 2.75395 2.18748 0
M  V30 4386 H 422.775 1.53647 3.44489 0
M  V30 4387 H 425.162 0.737337 2.8574 0
M  V30 4388 H 425.243 1.98861 1.60897 0
M  V30 4389 H 424.887 3.77028 3.40313 0
M  V30 4390 H 424.817 2.49009 4.64007 0
M  V30 4391 H 427.308 2.13234 3.11993 0
M  V30 4392 H 427.621 4.86253 6.00648 0
M  V30 4393 H 425.966 4.3676 5.40616 0
M  V30 4394 H 429.157 2.71043 3.81646 0
M  V30 4395 H 429.33 3.95524 5.13288 0
M  V30 4396 N 422.737 -1.36956 0.779787 0
M  V30 4397 C 423.967 -2.03459 0.358877 0
M  V30 4398 C 424.375 -1.58939 -1.02641 0
M  V30 4399 O 423.718 -0.769777 -1.66794 0
M  V30 4400 C 423.78 -3.5796 0.332393 0
M  V30 4401 C 423.444 -4.25644 1.66362 0
M  V30 4402 C 424.441 -4.49205 2.61746 0
M  V30 4403 C 422.126 -4.63313 1.94027 0
M  V30 4404 C 424.12 -5.09503 3.82996 0
M  V30 4405 C 421.807 -5.2333 3.15546 0
M  V30 4406 C 422.805 -5.46363 4.0985 0
M  V30 4407 O 422.493 -6.05122 5.29228 0
M  V30 4408 H 422.225 -0.659767 0.147254 0
M  V30 4409 H 424.779 -1.76111 1.05708 0
M  V30 4410 H 423.009 -3.84388 -0.422237 0
M  V30 4411 H 424.698 -4.05852 -0.0625389 0
M  V30 4412 H 425.464 -4.20508 2.41657 0
M  V30 4413 H 421.343 -4.44715 1.21448 0
M  V30 4414 H 424.887 -5.27397 4.56617 0
M  V30 4415 H 420.784 -5.51451 3.35517 0
M  V30 4416 H 421.552 -6.23595 5.30161 0
M  V30 4417 N 424.215 -0.530993 -1.48385 0
M  V30 4418 C 425.443 -0.00134122 -2.069 0
M  V30 4419 C 425.858 1.2805 -1.3874 0
M  V30 4420 O 425.215 1.76204 -0.475244 0
M  V30 4421 C 425.266 0.225256 -3.60798 0
M  V30 4422 O 424.987 -1.0058 -4.26398 0
M  V30 4423 C 426.488 0.795172 -4.3611 0
M  V30 4424 H 423.708 -0.0339704 -0.67014 0
M  V30 4425 H 426.252 -0.736926 -1.90761 0
M  V30 4426 H 424.407 0.910891 -3.76539 0
M  V30 4427 H 424.821 -0.787165 -5.1856 0
M  V30 4428 H 426.295 0.903143 -5.44562 0
M  V30 4429 H 426.772 1.80031 -4.00606 0
M  V30 4430 H 427.378 0.146069 -4.25049 0
M  V30 4431 N 425.693 1.55336 -0.266172 0
M  V30 4432 C 426.656 2.20878 0.612001 0
M  V30 4433 C 427.656 1.18388 1.08816 0
M  V30 4434 O 428.846 1.4335 0.989774 0
M  V30 4435 C 425.978 2.86765 1.84332 0
M  V30 4436 H 427.171 2.99873 0.0398718 0
M  V30 4437 H 424.724 1.56291 -0.0167309 0
M  V30 4438 H 425.459 2.11759 2.45619 0
M  V30 4439 H 425.244 3.61862 1.5099 0
M  V30 4440 H 426.734 3.36867 2.46801 0
M  V30 4441 N 427.171 -0.0066808 1.57599 0
M  V30 4442 C 428.582 -0.550379 1.78403 0
M  V30 4443 C 428.933 -1.74339 0.900014 0
M  V30 4444 O 428.058 -2.16166 0.100713 0
M  V30 4445 C 428.653 -1.00523 3.23544 0
M  V30 4446 C 427.212 -1.49428 3.45468 0
M  V30 4447 C 426.359 -0.442444 2.73748 0
M  V30 4448 H 429.31 0.219508 1.57175 0
M  V30 4449 H 429.331 -1.87157 3.31289 0
M  V30 4450 H 428.843 -0.136735 3.87859 0
M  V30 4451 H 426.944 -2.3839 2.86358 0
M  V30 4452 H 427.057 -1.52635 4.54136 0
M  V30 4453 H 425.421 -0.902578 2.38171 0
M  V30 4454 H 426.204 0.416973 3.40758 0
M  V30 4455 N 428.649 -1.55105 -0.279332 0
M  V30 4456 C 429.895 -1.76597 -1.00921 0
M  V30 4457 C 430.25 -0.556831 -1.84166 0
M  V30 4458 O 429.543 0.450573 -1.86227 0
M  V30 4459 C 429.737 -3.0086 -1.92919 0
M  V30 4460 C 429.566 -4.33744 -1.18728 0
M  V30 4461 C 428.336 -4.9712 -0.905545 0
M  V30 4462 C 430.534 -5.11009 -0.580857 0
M  V30 4463 N 428.516 -6.13749 -0.136169 0
M  V30 4464 C 429.887 -6.19976 0.0546661 0
M  V30 4465 C 431.942 -4.95502 -0.488067 0
M  V30 4466 C 430.645 -7.15123 0.774028 0
M  V30 4467 C 432.671 -5.90999 0.217688 0
M  V30 4468 C 432.033 -6.9935 0.841975 0
M  V30 4469 H 428.132 -0.698553 -0.351493 0
M  V30 4470 H 430.716 -1.92595 -0.285531 0
M  V30 4471 H 428.887 -2.86249 -2.62519 0
M  V30 4472 H 430.619 -3.10784 -2.59221 0
M  V30 4473 H 427.374 -4.57903 -1.20921 0
M  V30 4474 H 427.798 -6.7659 0.235665 0
M  V30 4475 H 432.44 -4.11841 -0.956406 0
M  V30 4476 H 430.158 -7.9831 1.25407 0
M  V30 4477 H 433.744 -5.81078 0.289717 0
M  V30 4478 H 432.624 -7.71973 1.37939 0
M  V30 4479 N 430.127 0.543554 -1.4793 0
M  V30 4480 C 431.543 0.870806 -1.3375 0
M  V30 4481 C 431.743 1.9864 -0.338261 0
M  V30 4482 O 430.799 2.51305 0.245371 0
M  V30 4483 C 432.112 1.25114 -2.73435 0
M  V30 4484 C 433.66 1.3618 -2.81823 0
M  V30 4485 C 434.135 1.77563 -4.22179 0
M  V30 4486 N 435.626 1.8469 -4.24787 0
M  V30 4487 C 436.361 2.18067 -5.30315 0
M  V30 4488 N 435.857 2.49963 -6.46135 0
M  V30 4489 N 437.65 2.18958 -5.17701 0
M  V30 4490 H 429.801 -0.19275 -2.11524 0
M  V30 4491 H 432.064 -0.0235777 -0.947707 0
M  V30 4492 H 431.77 0.50514 -3.48053 0
M  V30 4493 H 431.644 2.20431 -3.06088 0
M  V30 4494 H 434.031 2.09859 -2.07468 0
M  V30 4495 H 434.112 0.390169 -2.52807 0
M  V30 4496 H 433.756 1.04449 -4.97044 0
M  V30 4497 H 433.686 2.75753 -4.48629 0
M  V30 4498 H 436.177 1.62372 -3.41239 0
M  V30 4499 H 436.49 2.74497 -7.22406 0
M  V30 4500 H 434.835 2.47513 -6.49432 0
M  V30 4501 H 438.026 1.93488 -4.2624 0
M  V30 4502 H 438.199 2.44639 -6.00047 0
M  V30 4503 N 431.605 1.3629 0.791371 0
M  V30 4504 C 432.568 1.30309 1.88553 0
M  V30 4505 C 433.568 0.211204 1.59407 0
M  V30 4506 O 434.758 0.465865 1.67855 0
M  V30 4507 C 431.89 1.01956 3.25297 0
M  V30 4508 H 433.083 2.27614 1.95273 0
M  V30 4509 H 430.636 1.21035 0.988953 0
M  V30 4510 H 431.371 0.050998 3.2426 0
M  V30 4511 H 431.156 1.80968 3.4784 0
M  V30 4512 H 432.646 1.0037 4.05359 0
M  V30 4513 N 433.083 -1.0153 1.20538 0
M  V30 4514 C 434.046 -2.0826 0.957098 0
M  V30 4515 C 435.046 -1.60657 -0.0678655 0
M  V30 4516 O 436.236 -1.73385 0.168332 0
M  V30 4517 C 433.368 -3.38033 0.441188 0
M  V30 4518 H 434.561 -2.31719 1.90384 0
M  V30 4519 H 432.114 -1.1835 1.02093 0
M  V30 4520 H 432.849 -3.20249 -0.510961 0
M  V30 4521 H 432.634 -3.73911 1.18038 0
M  V30 4522 H 434.124 -4.16613 0.287009 0
M  V30 4523 N 434.561 -1.01147 -1.20859 0
M  V30 4524 C 435.524 -0.582224 -2.21682 0
M  V30 4525 C 436.524 0.344887 -1.57058 0
M  V30 4526 O 437.714 0.134281 -1.73682 0
M  V30 4527 C 434.846 0.150496 -3.40568 0
M  V30 4528 H 436.039 -1.47408 -2.61172 0
M  V30 4529 H 433.592 -0.800695 -1.34233 0
M  V30 4530 H 434.327 1.0575 -3.06574 0
M  V30 4531 H 434.112 -0.515444 -3.88697 0
M  V30 4532 H 435.602 0.438344 -4.15293 0
M  V30 4533 N 436.039 1.36541 -0.78704 0
M  V30 4534 C 436.971 2.28761 -0.141773 0
M  V30 4535 C 437.984 1.49365 0.647599 0
M  V30 4536 O 439.173 1.71836 0.483173 0
M  V30 4537 C 436.273 3.28771 0.822368 0
M  V30 4538 C 435.446 4.3732 0.0835594 0
M  V30 4539 C 434.505 5.17307 0.963296 0
M  V30 4540 O 433.531 5.67638 0.421419 0
M  V30 4541 N 434.733 5.33515 2.28784 0
M  V30 4542 H 437.498 2.84777 -0.933919 0
M  V30 4543 H 435.059 1.48682 -0.640735 0
M  V30 4544 H 437.051 3.79169 1.41468 0
M  V30 4545 H 435.621 2.73412 1.5154 0
M  V30 4546 H 434.841 3.88118 -0.689809 0
M  V30 4547 H 436.129 5.0701 -0.426358 0
M  V30 4548 H 435.527 4.94234 2.75226 0
M  V30 4549 H 434.084 5.87165 2.82985 0
M  V30 4550 N 437.518 0.538854 1.48102 0
M  V30 4551 C 438.934 0.19732 1.58376 0
M  V30 4552 C 439.134 -1.29971 1.5398 0
M  V30 4553 O 438.19 -2.07861 1.43352 0
M  V30 4554 C 439.503 0.807716 2.89649 0
M  V30 4555 C 441.051 0.77726 3.03196 0
M  V30 4556 C 441.526 1.36639 4.37143 0
M  V30 4557 N 443.017 1.32875 4.43732 0
M  V30 4558 C 443.752 1.7544 5.45901 0
M  V30 4559 N 443.248 2.25776 6.54979 0
M  V30 4560 N 445.041 1.66623 5.36836 0
M  V30 4561 H 437.192 1.5117 1.49202 0
M  V30 4562 H 439.455 0.629327 0.708979 0
M  V30 4563 H 439.161 1.85909 2.98548 0
M  V30 4564 H 439.035 0.289975 3.76084 0
M  V30 4565 H 441.422 -0.265374 2.93904 0
M  V30 4566 H 441.503 1.33256 2.18349 0
M  V30 4567 H 441.147 2.408 4.47189 0
M  V30 4568 H 441.077 0.786689 5.20691 0
M  V30 4569 H 443.568 0.96037 3.65493 0
M  V30 4570 H 443.881 2.56226 7.29087 0
M  V30 4571 H 442.226 2.29775 6.55918 0
M  V30 4572 H 445.417 1.27089 4.50517 0
M  V30 4573 H 445.59 2.00115 6.16326 0
M  V30 4574 N 438.996 -1.55193 0.274407 0
M  V30 4575 C 440.236 -2.01488 -0.343778 0
M  V30 4576 C 440.6 -1.1586 -1.53103 0
M  V30 4577 O 441.801 -1.51732 -2.2188 0
M  V30 4578 C 440.072 -3.50134 -0.717021 0
M  V30 4579 S 441.631 -4.18417 -1.32184 0
M  V30 4580 H 438.449 -0.70291 -0.106948 0
M  V30 4581 H 441.051 -1.91446 0.396075 0
M  V30 4582 H 439.755 -4.10104 0.155947 0
M  V30 4583 H 439.286 -3.64159 -1.48835 0
M  V30 4584 H 441.301 -4.21984 -2.61044 0
M  V30 4585 N 440.474 -0.00167713 -1.576 0
M  V30 4586 C 441.404 0.988091 -2.11563 0
M  V30 4587 C 442.385 1.35736 -1.02517 0
M  V30 4588 O 443.57 1.44082 -1.30208 0
M  V30 4589 C 440.7 2.27941 -2.62031 0
M  V30 4590 C 439.654 2.0517 -3.75619 0
M  V30 4591 C 438.98 3.4033 -4.12407 0
M  V30 4592 C 440.28 1.41294 -5.02825 0
M  V30 4593 H 441.974 0.538771 -2.94513 0
M  V30 4594 H 439.52 0.257712 -1.41675 0
M  V30 4595 H 441.473 2.97539 -2.9841 0
M  V30 4596 H 440.197 2.74989 -1.76205 0
M  V30 4597 H 438.856 1.37998 -3.39635 0
M  V30 4598 H 438.504 3.85085 -3.23603 0
M  V30 4599 H 438.204 3.25909 -4.88935 0
M  V30 4600 H 439.728 4.1124 -4.51347 0
M  V30 4601 H 441.142 2.00851 -5.36965 0
M  V30 4602 H 439.539 1.37356 -5.84169 0
M  V30 4603 H 440.609 0.382362 -4.8339 0
M  V30 4604 N 441.952 1.55251 0.271103 0
M  V30 4605 C 442.884 1.84675 1.35749 0
M  V30 4606 C 443.897 0.731366 1.45447 0
M  V30 4607 O 445.086 1.00924 1.4723 0
M  V30 4608 C 442.186 1.99638 2.73857 0
M  V30 4609 C 441.359 3.30312 2.86727 0
M  V30 4610 C 440.418 3.35318 4.05522 0
M  V30 4611 O 439.444 4.08682 3.96191 0
M  V30 4612 N 440.646 2.62857 5.17577 0
M  V30 4613 H 443.411 2.78445 1.10853 0
M  V30 4614 H 440.972 1.55191 0.461218 0
M  V30 4615 H 442.964 2.00355 3.51625 0
M  V30 4616 H 441.534 1.12725 2.91568 0
M  V30 4617 H 440.754 3.42118 1.95829 0
M  V30 4618 H 442.042 4.16488 2.92258 0
M  V30 4619 H 441.44 2.02939 5.28046 0
M  V30 4620 H 439.997 2.69295 5.93568 0
M  V30 4621 N 443.43 -0.535701 1.48216 0
M  V30 4622 C 444.678 -1.28928 1.55634 0
M  V30 4623 C 444.999 -1.93645 0.229514 0
M  V30 4624 O 444.269 -1.81038 -0.74846 0
M  V30 4625 H 442.849 -0.47884 0.573342 0
M  V30 4626 H 445.511 -0.623853 1.84646 0
M  V30 4627 H 444.607 -2.07157 2.33436 0
M  V30 4628 N 444.908 -1.36708 -0.784132 0
M  V30 4629 C 445.838 -1.34153 -1.91116 0
M  V30 4630 C 446.819 -0.212121 -1.68772 0
M  V30 4631 O 448.004 -0.410581 -1.8981 0
M  V30 4632 C 445.134 -1.13535 -3.28218 0
M  V30 4633 C 444.088 -2.23356 -3.65097 0
M  V30 4634 C 443.414 -1.87875 -5.00607 0
M  V30 4635 C 444.714 -3.65473 -3.73131 0
M  V30 4636 H 446.408 -2.28459 -1.93512 0
M  V30 4637 H 443.954 -1.09973 -0.929618 0
M  V30 4638 H 445.907 -1.10381 -4.06687 0
M  V30 4639 H 444.631 -0.156804 -3.26223 0
M  V30 4640 H 443.29 -2.25645 -2.88929 0
M  V30 4641 H 442.938 -0.885814 -4.95139 0
M  V30 4642 H 442.638 -2.61406 -5.26252 0
M  V30 4643 H 444.162 -1.86286 -5.81489 0
M  V30 4644 H 445.576 -3.65382 -4.41779 0
M  V30 4645 H 443.973 -4.37953 -4.10265 0
M  V30 4646 H 445.043 -3.99995 -2.74102 0
M  V30 4647 N 446.386 1.0089 -1.21074 0
M  V30 4648 C 447.632 1.7497 -1.03717 0
M  V30 4649 C 447.987 1.8764 0.425344 0
M  V30 4650 O 447.28 1.39679 1.3115 0
M  V30 4651 C 447.474 3.16335 -1.66334 0
M  V30 4652 C 447.303 3.17449 -3.18522 0
M  V30 4653 C 446.073 3.2425 -3.87543 0
M  V30 4654 C 448.271 3.02877 -4.15656 0
M  V30 4655 N 446.253 3.14949 -5.26954 0
M  V30 4656 C 447.624 3.0143 -5.41793 0
M  V30 4657 C 449.679 2.8715 -4.06755 0
M  V30 4658 C 448.382 2.85869 -6.60054 0
M  V30 4659 C 450.408 2.72944 -5.24648 0
M  V30 4660 C 449.77 2.72171 -6.49694 0
M  V30 4661 H 445.869 0.650627 -0.43383 0
M  V30 4662 H 448.453 1.19944 -1.53367 0
M  V30 4663 H 446.624 3.69638 -1.19256 0
M  V30 4664 H 448.356 3.78888 -1.42219 0
M  V30 4665 H 445.111 3.31288 -3.38446 0
M  V30 4666 H 445.535 3.13651 -5.9996 0
M  V30 4667 H 450.177 2.86557 -3.10878 0
M  V30 4668 H 447.895 2.8521 -7.56096 0
M  V30 4669 H 451.481 2.61782 -5.19578 0
M  V30 4670 H 450.361 2.61307 -7.39384 0
M  V30 4671 N 447.864 1.01787 1.20321 0
M  V30 4672 C 449.112 0.706538 1.89347 0
M  V30 4673 C 449.433 -0.766289 1.79313 0
M  V30 4674 O 448.703 -1.55126 1.19635 0
M  V30 4675 H 447.283 0.258348 0.700903 0
M  V30 4676 H 449.945 1.28974 1.46122 0
M  V30 4677 H 449.041 0.991066 2.95946 0
M  V30 4678 N 449.342 -1.36122 0.79427 0
M  V30 4679 C 450.758 -1.5232 0.476525 0
M  V30 4680 C 450.958 -1.74685 -1.00436 0
M  V30 4681 O 450.014 -1.78115 -1.78973 0
M  V30 4682 C 451.327 -2.70607 1.31119 0
M  V30 4683 C 452.875 -2.8448 1.30537 0
M  V30 4684 C 453.35 -4.05778 2.12387 0
M  V30 4685 N 454.841 -4.12933 2.09859 0
M  V30 4686 C 455.576 -5.05876 2.69957 0
M  V30 4687 N 455.072 -6.04232 3.38934 0
M  V30 4688 N 456.865 -4.98528 2.59665 0
M  V30 4689 H 449.016 -1.1986 1.75349 0
M  V30 4690 H 451.279 -0.585418 0.745647 0
M  V30 4691 H 450.985 -2.60619 2.36158 0
M  V30 4692 H 450.859 -3.64888 0.955843 0
M  V30 4693 H 453.246 -2.93927 0.262876 0
M  V30 4694 H 453.327 -1.91093 1.70051 0
M  V30 4695 H 452.971 -3.97092 3.1667 0
M  V30 4696 H 452.901 -4.98323 1.70242 0
M  V30 4697 H 455.392 -3.42515 1.59662 0
M  V30 4698 H 455.705 -6.71724 3.82109 0
M  V30 4699 H 454.05 -6.04443 3.43036 0
M  V30 4700 H 457.241 -4.20641 2.05375 0
M  V30 4701 H 457.414 -5.70773 3.06793 0
M  V30 4702 N 450.82 -0.546701 -1.47814 0
M  V30 4703 C 451.783 0.196287 -2.28358 0
M  V30 4704 C 452.783 0.852437 -1.36346 0
M  V30 4705 O 453.973 0.709913 -1.59078 0
M  V30 4706 C 451.105 1.28579 -3.15722 0
M  V30 4707 H 452.298 -0.511086 -2.95513 0
M  V30 4708 H 449.851 -0.303248 -1.5333 0
M  V30 4709 H 450.586 2.0259 -2.53235 0
M  V30 4710 H 450.371 0.820229 -3.83425 0
M  V30 4711 H 451.861 1.80793 -3.76435 0
M  V30 4712 N 452.299 1.55045 -0.282633 0
M  V30 4713 C 453.524 2.04628 0.337977 0
M  V30 4714 C 453.949 1.15937 1.48123 0
M  V30 4715 O 453.307 0.159532 1.80597 0
M  V30 4716 C 453.355 3.51854 0.78936 0
M  V30 4717 O 452.459 3.66236 1.89592 0
M  V30 4718 H 451.8 0.660434 0.0687261 0
M  V30 4719 H 454.33 2.00261 -0.419124 0
M  V30 4720 H 454.34 3.93361 1.08311 0
M  V30 4721 H 453.015 4.15873 -0.0470419 0
M  V30 4722 H 451.592 3.36633 1.60413 0
M  V30 4723 N 453.777 0.010035 1.57597 0
M  V30 4724 C 455.193 -0.346164 1.55801 0
M  V30 4725 C 455.393 -1.74144 1.01371 0
M  V30 4726 O 454.449 -2.43938 0.651968 0
M  V30 4727 C 455.762 -0.212216 2.9995 0
M  V30 4728 C 457.31 -0.286409 3.11687 0
M  V30 4729 C 457.785 -0.18147 4.5764 0
M  V30 4730 N 459.276 -0.239056 4.62583 0
M  V30 4731 C 460.011 -0.181351 5.73113 0
M  V30 4732 N 459.507 -0.073661 6.92761 0
M  V30 4733 N 461.3 -0.233949 5.61613 0
M  V30 4734 H 453.451 0.922657 1.91313 0
M  V30 4735 H 455.714 0.354595 0.879185 0
M  V30 4736 H 455.42 0.748169 3.4365 0
M  V30 4737 H 455.294 -0.990224 3.6397 0
M  V30 4738 H 457.681 -1.23724 2.67911 0
M  V30 4739 H 457.762 0.521645 2.50425 0
M  V30 4740 H 457.406 0.765863 5.02093 0
M  V30 4741 H 457.336 -1.00814 5.1686 0
M  V30 4742 H 459.827 -0.32321 3.76515 0
M  V30 4743 H 460.14 -0.0358003 7.72792 0
M  V30 4744 H 458.485 -0.0391461 6.94989 0
M  V30 4745 H 461.676 -0.316347 4.6703 0
M  V30 4746 H 461.849 -0.185514 6.47734 0
M  V30 4747 N 455.255 -1.55392 -0.262866 0
M  V30 4748 C 456.532 -1.67204 -1.01499 0
M  V30 4749 C 456.912 -0.545186 -2.03939 0
M  V30 4750 O 456.26 0.453467 -2.23955 0
M  V30 4751 C 456.47 -3.06847 -1.6627 0
M  V30 4752 C 457.818 -3.64928 -2.17054 0
M  V30 4753 O 458.842 -3.09545 -1.76239 0
M  V30 4754 O 457.701 -4.61984 -2.91947 0
M  V30 4755 H 454.795 -0.679467 -0.471438 0
M  V30 4756 H 457.341 -1.67729 -0.257918 0
M  V30 4757 H 456.113 -3.80309 -0.920915 0
M  V30 4758 H 455.736 -3.10266 -2.48638 0
M  V30 4759 N 456.733 0.527833 -1.48498 0
M  V30 4760 C 457.958 1.313 -1.60546 0
M  V30 4761 C 458.383 1.86199 -0.26672 0
M  V30 4762 O 457.741 1.64513 0.761918 0
M  V30 4763 C 457.789 2.43818 -2.65678 0
M  V30 4764 O 456.893 3.46916 -2.22987 0
M  V30 4765 H 456.234 0.388784 -0.538277 0
M  V30 4766 H 458.764 0.634896 -1.945 0
M  V30 4767 H 458.774 2.89973 -2.87018 0
M  V30 4768 H 457.449 2.03222 -3.62869 0
M  V30 4769 H 456.026 3.06864 -2.11869 0
M  V30 4770 N 458.211 1.37122 0.776871 0
M  V30 4771 C 459.622 1.28667 1.35284 0
M  V30 4772 C 459.973 -0.0680035 1.96082 0
M  V30 4773 O 459.098 -0.969743 1.93455 0
M  V30 4774 C 459.693 2.32997 2.45963 0
M  V30 4775 C 458.252 2.28191 2.99342 0
M  V30 4776 C 457.399 2.17101 1.72517 0
M  V30 4777 H 460.35 1.47819 0.577527 0
M  V30 4778 H 460.371 1.97366 3.2531 0
M  V30 4779 H 459.883 3.3158 2.01684 0
M  V30 4780 H 457.984 1.33115 3.4801 0
M  V30 4781 H 458.097 3.21397 3.55304 0
M  V30 4782 H 456.461 1.63562 1.95242 0
M  V30 4783 H 457.244 3.17591 1.30348 0
M  V30 4784 N 459.689 -1.00246 1.21608 0
M  V30 4785 C 460.937 -1.73717 1.0328 0
M  V30 4786 C 461.258 -1.90102 -0.434318 0
M  V30 4787 O 460.528 -1.45376 -1.31311 0
M  V30 4788 H 459.108 -0.643613 0.379172 0
M  V30 4789 H 461.77 -1.20787 1.52959 0
M  V30 4790 H 460.866 -2.73535 1.50283 0
M  V30 4791 N 461.167 -1.02423 -1.1978 0
M  V30 4792 C 462.578 -0.748389 -1.71044 0
M  V30 4793 C 462.929 0.732398 -1.82017 0
M  V30 4794 O 462.054 1.57116 -1.48807 0
M  V30 4795 C 462.649 -1.35187 -3.1066 0
M  V30 4796 C 461.208 -1.12472 -3.59203 0
M  V30 4797 C 460.355 -1.45283 -2.36195 0
M  V30 4798 H 463.306 -1.19275 -1.04686 0
M  V30 4799 H 463.327 -0.746408 -3.73107 0
M  V30 4800 H 462.839 -2.4296 -3.02642 0
M  V30 4801 H 460.94 -0.0649983 -3.72543 0
M  V30 4802 H 461.053 -1.81016 -4.43588 0
M  V30 4803 H 459.417 -0.872034 -2.39307 0
M  V30 4804 H 460.2 -2.54129 -2.30811 0
M  V30 4805 N 462.645 1.35699 -0.801477 0
M  V30 4806 C 463.87 2.03687 -0.390678 0
M  V30 4807 C 464.295 1.60015 0.988778 0
M  V30 4808 O 463.653 0.774357 1.63931 0
M  V30 4809 C 463.701 3.57439 -0.476404 0
M  V30 4810 O 462.805 4.09208 0.512106 0
M  V30 4811 H 462.146 0.64344 -0.163956 0
M  V30 4812 H 464.676 1.73403 -1.08594 0
M  V30 4813 H 464.686 4.06544 -0.344357 0
M  V30 4814 H 463.361 3.88576 -1.48262 0
M  V30 4815 H 461.938 3.7134 0.340721 0
M  V30 4816 N 464.123 0.554532 1.47522 0
M  V30 4817 C 465.372 0.0273458 2.01681 0
M  V30 4818 C 465.685 -1.32962 1.43459 0
M  V30 4819 O 466.891 -1.94657 1.89265 0
M  V30 4820 C 465.347 -0.00159057 3.599 0
M  V30 4821 C 464.955 1.35197 4.27113 0
M  V30 4822 C 466.699 -0.476311 4.21819 0
M  V30 4823 C 464.606 1.28229 5.77331 0
M  V30 4824 H 463.536 0.00645269 0.753972 0
M  V30 4825 H 466.187 0.701985 1.69542 0
M  V30 4826 H 464.569 -0.741821 3.8899 0
M  V30 4827 H 465.743 2.1097 4.09668 0
M  V30 4828 H 464.058 1.76441 3.77171 0
M  V30 4829 H 466.655 -0.5468 5.31897 0
M  V30 4830 H 466.998 -1.4877 3.8881 0
M  V30 4831 H 467.531 0.20898 3.97251 0
M  V30 4832 H 464.27 2.26959 6.14955 0
M  V30 4833 H 463.79 0.566314 5.97121 0
M  V30 4834 H 465.469 0.983226 6.39485 0
M  V30 4835 N 465.601 -1.54893 0.290851 0
M  V30 4836 C 466.564 -2.21824 -0.576784 0
M  V30 4837 C 467.564 -1.20104 -1.06919 0
M  V30 4838 O 468.754 -1.44906 -0.966843 0
M  V30 4839 C 465.886 -2.89662 -1.79747 0
M  V30 4840 H 467.079 -2.99899 0.00784051 0
M  V30 4841 H 464.632 -1.56245 0.0415934 0
M  V30 4842 H 465.367 -2.15639 -2.42219 0
M  V30 4843 H 465.152 -3.64219 -1.45214 0
M  V30 4844 H 466.642 -3.4075 -2.4141 0
M  V30 4845 N 467.08 -0.0183926 -1.57589 0
M  V30 4846 C 468.31 0.67207 -1.95363 0
M  V30 4847 C 468.718 1.66807 -0.892872 0
M  V30 4848 O 468.061 1.83204 0.134958 0
M  V30 4849 C 468.123 1.44397 -3.29226 0
M  V30 4850 C 467.787 0.607511 -4.52944 0
M  V30 4851 C 468.784 -0.112657 -5.19778 0
M  V30 4852 C 466.469 0.548068 -4.99301 0
M  V30 4853 C 468.463 -0.881057 -6.31281 0
M  V30 4854 C 466.15 -0.224044 -6.10689 0
M  V30 4855 C 467.148 -0.937323 -6.76538 0
M  V30 4856 O 466.836 -1.6968 -7.85789 0
M  V30 4857 H 466.568 0.190925 -0.648478 0
M  V30 4858 H 469.122 -0.0711994 -2.05277 0
M  V30 4859 H 467.352 2.23214 -3.15773 0
M  V30 4860 H 469.041 2.02152 -3.51979 0
M  V30 4861 H 469.807 -0.0759998 -4.8494 0
M  V30 4862 H 465.686 1.09281 -4.4786 0
M  V30 4863 H 469.23 -1.43832 -6.82611 0
M  V30 4864 H 465.127 -0.262457 -6.44966 0
M  V30 4865 H 465.895 -1.61544 -8.024 0
M  V30 4866 N 468.558 1.5553 0.254621 0
M  V30 4867 C 469.508 1.86057 1.31783 0
M  V30 4868 C 470.492 0.720827 1.4385 0
M  V30 4869 O 471.684 0.982586 1.47222 0
M  V30 4870 C 468.813 2.15203 2.67475 0
M  V30 4871 C 467.899 3.35484 2.59444 0
M  V30 4872 N 468.29 4.54945 2.2104 0
M  V30 4873 C 466.588 3.38441 2.90472 0
M  V30 4874 C 467.289 5.3707 2.23453 0
M  V30 4875 N 466.265 4.75936 2.62652 0
M  V30 4876 H 470.067 2.75953 1.01129 0
M  V30 4877 H 467.581 1.55653 0.463255 0
M  V30 4878 H 469.578 2.35235 3.44195 0
M  V30 4879 H 468.238 1.26601 2.99002 0
M  V30 4880 H 469.249 4.8071 1.92712 0
M  V30 4881 H 465.926 2.60087 3.2659 0
M  V30 4882 H 467.316 6.42626 1.96166 0
M  V30 4883 N 470.036 -0.519951 1.48776 0
M  V30 4884 C 471.447 -1.10177 1.50725 0
M  V30 4885 C 471.798 -1.94153 0.282678 0
M  V30 4886 O 470.923 -2.07645 -0.609298 0
M  V30 4887 C 471.518 -2.00482 2.73116 0
M  V30 4888 C 470.077 -2.53862 2.77905 0
M  V30 4889 C 469.224 -1.31047 2.44381 0
M  V30 4890 H 472.175 -0.30473 1.55747 0
M  V30 4891 H 472.196 -2.8491 2.52203 0
M  V30 4892 H 471.708 -1.39335 3.62225 0
M  V30 4893 H 469.809 -3.18702 1.93029 0
M  V30 4894 H 469.922 -2.9231 3.79594 0
M  V30 4895 H 468.286 -1.62953 1.95751 0
M  V30 4896 H 469.069 -0.71637 3.35743 0
M  V30 4897 N 471.514 -1.37532 -0.769588 0
M  V30 4898 C 472.739 -1.36231 -1.56384 0
M  V30 4899 C 473.164 0.0495849 -1.88035 0
M  V30 4900 O 472.522 1.02723 -1.49391 0
M  V30 4901 C 472.57 -2.20986 -2.84952 0
M  V30 4902 O 471.674 -1.61597 -3.79421 0
M  V30 4903 H 471.015 -0.465387 -0.473615 0
M  V30 4904 H 473.545 -1.81085 -0.952342 0
M  V30 4905 H 473.555 -2.34277 -3.34034 0
M  V30 4906 H 472.23 -3.23612 -2.61243 0
M  V30 4907 H 470.807 -1.57359 -3.38072 0
M  V30 4908 N 472.992 0.995999 -1.22138 0
M  V30 4909 C 474.217 1.77601 -1.0711 0
M  V30 4910 C 474.642 1.84339 0.374264 0
M  V30 4911 O 474 1.29359 1.27028 0
M  V30 4912 C 474.048 3.18897 -1.68336 0
M  V30 4913 O 473.152 4.01663 -0.934928 0
M  V30 4914 H 472.493 0.547011 -0.376397 0
M  V30 4915 H 475.023 1.25137 -1.6187 0
M  V30 4916 H 475.033 3.69539 -1.72931 0
M  V30 4917 H 473.708 3.13308 -2.73516 0
M  V30 4918 H 472.285 3.60204 -0.964751 0
M  V30 4919 N 474.47 1.03057 1.19235 0
M  V30 4920 C 475.402 0.570932 2.21975 0
M  V30 4921 C 476.415 -0.354088 1.58903 0
M  V30 4922 O 477.604 -0.150211 1.77867 0
M  V30 4923 C 474.704 -0.187152 3.38383 0
M  V30 4924 C 473.877 0.743231 4.31039 0
M  V30 4925 C 472.936 0.0302493 5.26191 0
M  V30 4926 O 471.962 0.657371 5.65391 0
M  V30 4927 N 473.164 -1.23991 5.67104 0
M  V30 4928 H 475.929 1.45456 2.62036 0
M  V30 4929 H 473.49 0.909807 1.33918 0
M  V30 4930 H 475.482 -0.673715 3.99053 0
M  V30 4931 H 474.052 -0.972205 2.97098 0
M  V30 4932 H 473.272 1.40985 3.68126 0
M  V30 4933 H 474.56 1.3755 4.89854 0
M  V30 4934 H 473.958 -1.77011 5.37293 0
M  V30 4935 H 472.515 -1.67093 6.30018 0
M  V30 4936 N 475.948 -1.35272 0.808662 0
M  V30 4937 C 477.173 -2.03477 0.401475 0
M  V30 4938 C 477.598 -1.60537 -0.980279 0
M  V30 4939 O 476.956 -0.78304 -1.63518 0
M  V30 4940 C 477.004 -3.57181 0.495354 0
M  V30 4941 O 476.108 -4.09474 -0.490397 0
M  V30 4942 H 475.449 -0.642561 0.167366 0
M  V30 4943 H 477.979 -1.72824 1.09512 0
M  V30 4944 H 477.989 -4.06356 0.365912 0
M  V30 4945 H 476.664 -3.87784 1.5032 0
M  V30 4946 H 475.241 -3.71516 -0.321023 0
M  V30 4947 N 477.426 -0.562348 -1.47226 0
M  V30 4948 C 478.651 -0.0432632 -2.07355 0
M  V30 4949 C 479.076 1.24332 -1.41149 0
M  V30 4950 O 478.434 1.74603 -0.488226 0
M  V30 4951 C 478.482 0.130288 -3.60365 0
M  V30 4952 O 477.586 1.19166 -3.94808 0
M  V30 4953 H 476.927 -0.0536334 -0.66183 0
M  V30 4954 H 479.457 -0.779495 -1.89169 0
M  V30 4955 H 479.467 0.342881 -4.06557 0
M  V30 4956 H 478.142 -0.809389 -4.07948 0
M  V30 4957 H 476.719 0.959153 -3.60354 0
M  V30 4958 N 478.904 1.54736 -0.299062 0
M  V30 4959 C 480.15 2.00397 0.311244 0
M  V30 4960 C 480.483 1.18716 1.53688 0
M  V30 4961 O 479.758 0.263154 1.92712 0
M  V30 4962 C 480.041 3.53817 0.669761 0
M  V30 4963 C 479.894 4.46239 -0.564882 0
M  V30 4964 C 481.213 4.13856 1.49702 0
M  V30 4965 H 478.332 0.728493 0.111653 0
M  V30 4966 H 480.974 1.85506 -0.410774 0
M  V30 4967 H 479.124 3.66637 1.28491 0
M  V30 4968 H 480.796 4.45328 -1.20337 0
M  V30 4969 H 479.039 4.16916 -1.19849 0
M  V30 4970 H 479.71 5.5134 -0.269918 0
M  V30 4971 H 482.186 4.04461 0.977284 0
M  V30 4972 H 481.062 5.21365 1.71666 0
M  V30 4973 H 481.323 3.65608 2.48563 0
M  V30 4974 N 480.382 0.0267497 1.57577 0
M  V30 4975 C 481.659 -0.690926 1.82991 0
M  V30 4976 C 482.039 -1.90471 0.910164 0
M  V30 4977 O 481.387 -2.28474 -0.0347985 0
M  V30 4978 C 481.597 -1.07139 3.32148 0
M  V30 4979 C 482.945 -1.46402 3.98562 0
M  V30 4980 O 483.969 -1.16443 3.36629 0
M  V30 4981 O 482.828 -2.02214 5.07712 0
M  V30 4982 H 479.922 -0.338747 0.75444 0
M  V30 4983 H 482.468 0.0542506 1.69613 0
M  V30 4984 H 481.24 -0.207394 3.9075 0
M  V30 4985 H 480.863 -1.87481 3.50623 0
M  V30 4986 N 481.861 -1.55662 -0.24637 0
M  V30 4987 C 482.791 -1.93377 -1.30873 0
M  V30 4988 C 483.772 -0.798773 -1.50179 0
M  V30 4989 O 484.957 -1.0591 -1.62778 0
M  V30 4990 C 482.087 -2.22893 -2.66338 0
M  V30 4991 C 481.041 -3.38649 -2.61727 0
M  V30 4992 C 480.367 -3.53708 -4.00992 0
M  V30 4993 C 481.667 -4.74323 -2.18666 0
M  V30 4994 H 483.361 -2.82363 -0.995552 0
M  V30 4995 H 480.907 -1.35854 -0.477464 0
M  V30 4996 H 482.86 -2.47866 -3.40794 0
M  V30 4997 H 481.584 -1.30733 -2.99293 0
M  V30 4998 H 480.243 -3.13685 -1.89729 0
M  V30 4999 H 479.891 -2.58967 -4.31214 0
M  V30 5000 H 479.591 -4.31551 -3.98795 0
M  V30 5001 H 481.115 -3.81003 -4.77147 0
M  V30 5002 H 482.529 -4.98665 -2.82854 0
M  V30 5003 H 480.926 -5.55273 -2.27579 0
M  V30 5004 H 481.996 -4.71349 -1.13834 0
M  V30 5005 N 483.339 0.512053 -1.4905 0
M  V30 5006 C 484.616 1.27337 -1.48474 0
M  V30 5007 C 484.996 2.1009 -0.206301 0
M  V30 5008 O 484.344 2.136 0.811609 0
M  V30 5009 C 484.554 2.13954 -2.75726 0
M  V30 5010 C 485.902 2.73507 -3.24776 0
M  V30 5011 O 486.926 2.24229 -2.76767 0
M  V30 5012 O 485.785 3.63186 -4.08361 0
M  V30 5013 H 482.879 0.575652 -0.593762 0
M  V30 5014 H 485.425 0.527232 -1.61302 0
M  V30 5015 H 484.197 1.52709 -3.60272 0
M  V30 5016 H 483.82 2.95782 -2.65705 0
M  V30 5017 N 484.817 1.37938 0.762283 0
M  V30 5018 C 485.747 1.37176 1.88958 0
M  V30 5019 C 486.728 0.238945 1.68413 0
M  V30 5020 O 487.913 0.440726 1.89133 0
M  V30 5021 C 485.043 1.18742 3.2637 0
M  V30 5022 C 483.997 2.29136 3.61498 0
M  V30 5023 C 483.323 1.95816 4.97554 0
M  V30 5024 C 484.623 3.71363 3.6727 0
M  V30 5025 H 486.317 2.31509 1.89853 0
M  V30 5026 H 483.863 1.11438 0.912005 0
M  V30 5027 H 485.816 1.16837 4.04879 0
M  V30 5028 H 484.54 0.208683 3.25933 0
M  V30 5029 H 483.199 2.30213 2.85303 0
M  V30 5030 H 482.847 0.964475 4.93667 0
M  V30 5031 H 482.547 2.69745 5.22026 0
M  V30 5032 H 484.071 1.95513 5.78452 0
M  V30 5033 H 485.485 3.72364 4.35911 0
M  V30 5034 H 483.882 4.44425 4.03245 0
M  V30 5035 H 484.952 4.04305 2.67704 0
M  V30 5036 N 486.295 -0.989507 1.22664 0
M  V30 5037 C 487.243 -2.10148 0.997035 0
M  V30 5038 C 488.237 -1.6929 -0.0609783 0
M  V30 5039 O 489.443 -1.79766 0.0917523 0
M  V30 5040 H 485.818 -0.687256 0.305259 0
M  V30 5041 H 487.789 -2.26685 1.94053 0
M  V30 5042 C 486.538 -3.4257 0.595085 0
M  V30 5043 H 485.861 -3.74453 1.40089 0
M  V30 5044 H 487.301 -4.21344 0.473869 0
M  V30 5045 C 485.76 -3.29638 -0.695725 0
M  V30 5046 O 486.29 -3.61709 -1.74727 0
M  V30 5047 N 484.496 -2.82814 -0.668173 0
M  V30 5048 H 484.043 -2.56914 0.18787 0
M  V30 5049 H 484.001 -2.74544 -1.5321 0
M  V30 5050 O 487.812 -1.16279 -1.12078 0
M  V30 5051 H 488.503 -0.894109 -1.7183 0
M  V30 END ATOM
M  V30 BEGIN BOND
M  V30 END BOND
M  V30 END CTAB
M  END
$$$$
