drugbank_target|Q15858 Sodium channel protein type 9 subunit alpha (DB00273; DB00555; DB00564; DB01069; DB09085; DB09088; DB09342; DB09345; DB11186; DB13746)
 OpenBabel12092119483D

  0  0  0     0  0            999 V3000
M  V30 BEGIN CTAB
M  V30 COUNTS 31951 32301 0 0 0
M  V30 BEGIN ATOM
M  V30 1 H -0.908 1.98254 -0.117106 0
M  V30 2 N 0 1.576 0 0
M  V30 3 C 0.933 2.03868 1.02534 0
M  V30 4 C 1.911 0.928543 1.3348 0
M  V30 5 O 3.095 1.19667 1.45644 0
M  V30 6 C 0.222 2.43627 2.35294 0
M  V30 7 C -0.732 3.65373 2.2001 0
M  V30 8 S 0.101 5.13292 1.52614 0
M  V30 9 C 1.257 5.56322 2.86805 0
M  V30 10 H 1.49 2.90518 0.631377 0
M  V30 11 H -0.977 1.52953 0.210867 0
M  V30 12 H 0.981 2.67203 3.11629 0
M  V30 13 H -0.358 1.57376 2.7183 0
M  V30 14 H -1.165 3.90944 3.18086 0
M  V30 15 H -1.563 3.418 1.51819 0
M  V30 16 H 0.729 5.58782 3.83104 0
M  V30 17 H 1.672 6.56266 2.65933 0
M  V30 18 H 2.08 4.83886 2.90714 0
M  V30 19 N 1.4781 -0.272755 1.55222 0
M  V30 20 C 2.4411 -1.32041 1.87344 0
M  V30 21 C 3.4411 -1.42342 0.74803 0
M  V30 22 O 4.6311 -1.41488 1.0162 0
M  V30 23 C 1.7631 -2.70173 2.07893 0
M  V30 24 H 2.9561 -1.04789 2.80997 0
M  V30 25 H 0.5091 -0.51083 1.47717 0
M  V30 26 H 1.2441 -3.02605 1.16622 0
M  V30 27 H 1.0291 -2.64082 2.89833 0
M  V30 28 H 2.5191 -3.45869 2.34017 0
M  V30 29 N 2.9562 -1.48159 -0.537278 0
M  V30 30 C 3.8892 -1.567 -1.65893 0
M  V30 31 C 4.8672 -0.41787 -1.57139 0
M  V30 32 O 6.0512 -0.628461 -1.77715 0
M  V30 33 C 3.1782 -1.48818 -3.04255 0
M  V30 34 C 2.2242 -2.68482 -3.31391 0
M  V30 35 S 3.0572 -4.30516 -3.1846 0
M  V30 36 C 4.2132 -4.2522 -4.59281 0
M  V30 37 H 4.4462 -2.5159 -1.58397 0
M  V30 38 H 1.9792 -1.36602 -0.719672 0
M  V30 39 H 3.9372 -1.44958 -3.84054 0
M  V30 40 H 2.5982 -0.552777 -3.09198 0
M  V30 41 H 1.7912 -2.59085 -4.32309 0
M  V30 42 H 1.3932 -2.69567 -2.59248 0
M  V30 43 H 3.6852 -3.94703 -5.5065 0
M  V30 44 H 4.6282 -5.26292 -4.73732 0
M  V30 45 H 5.0362 -3.55791 -4.38261 0
M  V30 46 N 4.4343 0.785586 -1.36625 0
M  V30 47 C 5.3643 1.91259 -1.33949 0
M  V30 48 C 6.3453 1.68795 -0.210325 0
M  V30 49 O 7.5303 1.89854 -0.408561 0
M  V30 50 C 4.6603 3.28339 -1.13186 0
M  V30 51 C 3.6143 3.65335 -2.22967 0
M  V30 52 C 2.9403 5.00806 -1.87342 0
M  V30 53 C 4.2403 3.7352 -3.65075 0
M  V30 54 H 5.9343 1.93755 -2.28253 0
M  V30 55 H 3.4803 0.930788 -1.09874 0
M  V30 56 H 5.4333 4.06804 -1.09948 0
M  V30 57 H 4.1573 3.2624 -0.153332 0
M  V30 58 H 2.8163 2.89169 -2.25337 0
M  V30 59 H 2.4643 4.95233 -0.880545 0
M  V30 60 H 2.1643 5.26529 -2.60846 0
M  V30 61 H 3.6883 5.81687 -1.85667 0
M  V30 62 H 5.1023 4.42168 -3.64911 0
M  V30 63 H 3.4993 4.10731 -4.37516 0
M  V30 64 H 4.5693 2.74527 -3.99703 0
M  V30 65 N 5.9124 1.20967 1.01018 0
M  V30 66 C 7.3234 1.02319 1.56165 0
M  V30 67 C 7.6744 -0.418546 1.91684 0
M  V30 68 O 6.7994 -1.30096 1.72928 0
M  V30 69 C 7.3944 1.85109 2.8376 0
M  V30 70 C 5.9534 1.70809 3.35412 0
M  V30 71 C 5.1004 1.82643 2.08655 0
M  V30 72 H 8.0514 1.35065 0.833255 0
M  V30 73 H 8.0724 1.35827 3.55431 0
M  V30 74 H 7.5844 2.90035 2.57878 0
M  V30 75 H 5.6854 0.685464 3.66241 0
M  V30 76 H 5.7984 2.52467 4.07182 0
M  V30 77 H 4.1624 1.25896 2.21409 0
M  V30 78 H 4.9454 2.89066 1.85191 0
M  V30 79 N 7.3905 -1.2043 1.01659 0
M  V30 80 C 8.8015 -1.71517 0.737482 0
M  V30 81 C 9.1525 -1.81547 -0.743973 0
M  V30 82 O 8.2775 -1.47803 -1.58061 0
M  V30 83 C 8.8725 -3.11515 1.33206 0
M  V30 84 C 7.4315 -3.59912 1.10183 0
M  V30 85 C 6.5785 -2.37116 1.43776 0
M  V30 86 H 9.5295 -1.05444 1.18606 0
M  V30 87 H 9.5505 -3.73575 0.722636 0
M  V30 88 H 9.0625 -3.04182 2.41028 0
M  V30 89 H 7.1635 -3.72577 0.0412756 0
M  V30 90 H 7.2765 -4.44731 1.78188 0
M  V30 91 H 5.6405 -2.39857 0.856778 0
M  V30 92 H 6.4235 -2.32424 2.52654 0
M  V30 93 N 8.8686 -0.792821 -1.36206 0
M  V30 94 C 10.2796 -0.429513 -1.81692 0
M  V30 95 C 10.6306 1.04695 -1.65932 0
M  V30 96 O 9.7556 1.81256 -1.18218 0
M  V30 97 C 10.3506 -0.772831 -3.29868 0
M  V30 98 C 8.9096 -0.462307 -3.7355 0
M  V30 99 C 8.0566 -1.00569 -2.5842 0
M  V30 100 H 11.0076 -0.985672 -1.24379 0
M  V30 101 H 11.0286 -0.0651928 -3.80444 0
M  V30 102 H 10.5406 -1.84747 -3.41307 0
M  V30 103 H 8.6416 0.604158 -3.67669 0
M  V30 104 H 8.7546 -0.985299 -4.68859 0
M  V30 105 H 7.1186 -0.428734 -2.51066 0
M  V30 106 H 7.9016 -2.08616 -2.72643 0
M  V30 107 N 10.3467 1.47872 -0.545128 0
M  V30 108 C 11.5947 2.02093 -0.016553 0
M  V30 109 C 11.9157 1.42305 1.3332 0
M  V30 110 O 11.1857 0.593853 1.86682 0
M  V30 111 H 9.7657 0.746993 -0.00313038 0
M  V30 112 H 12.4277 1.81414 -0.712397 0
M  V30 113 H 11.5237 3.11996 0.0805422 0
M  V30 114 N 11.8248 0.280983 1.55075 0
M  V30 115 C 13.2358 -0.215629 1.85451 0
M  V30 116 C 13.5868 -1.54991 1.203 0
M  V30 117 O 12.7118 -2.10699 0.493435 0
M  V30 118 C 13.3068 -0.398026 3.36454 0
M  V30 119 C 11.8658 -0.838866 3.66933 0
M  V30 120 C 11.0128 0.064458 2.77225 0
M  V30 121 H 13.9638 0.502601 1.50531 0
M  V30 122 H 13.9848 -1.23569 3.59876 0
M  V30 123 H 13.4968 0.573241 3.83843 0
M  V30 124 H 11.5978 -1.8214 3.25048 0
M  V30 125 H 11.7108 -0.672123 4.74362 0
M  V30 126 H 10.0748 -0.452863 2.50642 0
M  V30 127 H 10.8578 1.03172 3.2743 0
M  V30 128 N 13.3029 -1.57598 0.00835791 0
M  V30 129 C 14.2349 -2.05811 -1.00868 0
M  V30 130 C 15.2479 -0.977579 -1.30182 0
M  V30 131 O 16.4369 -1.25421 -1.27011 0
M  V30 132 C 13.5369 -2.45016 -2.34137 0
M  V30 133 C 12.7099 -3.75903 -2.23643 0
M  V30 134 C 11.7689 -4.01884 -3.3967 0
M  V30 135 O 10.7949 -4.72433 -3.17483 0
M  V30 136 N 11.9969 -3.50432 -4.62793 0
M  V30 137 H 14.7619 -2.93684 -0.597458 0
M  V30 138 H 12.3229 -1.60909 -0.178852 0
M  V30 139 H 14.3149 -2.59506 -3.10546 0
M  V30 140 H 12.8849 -1.62618 -2.66972 0
M  V30 141 H 12.1049 -3.7141 -1.32091 0
M  V30 142 H 13.3929 -4.61695 -2.13812 0
M  V30 143 H 12.7909 -2.93317 -4.83716 0
M  V30 144 H 11.3479 -3.70236 -5.3644 0
M  V30 145 N 14.781 0.264519 -1.55364 0
M  V30 146 C 16.006 1.01726 -1.80739 0
M  V30 147 C 16.431 1.78836 -0.583044 0
M  V30 148 O 15.789 1.75167 0.467566 0
M  V30 149 C 15.837 1.94482 -3.03659 0
M  V30 150 O 14.941 3.03386 -2.7934 0
M  V30 151 H 14.282 0.290395 -0.597132 0
M  V30 152 H 16.812 0.290854 -2.02522 0
M  V30 153 H 16.822 2.36278 -3.32621 0
M  V30 154 H 15.497 1.37772 -3.92418 0
M  V30 155 H 14.074 2.65844 -2.61498 0
M  V30 156 N 16.2591 1.48442 0.529413 0
M  V30 157 C 17.5061 1.56488 1.28521 0
M  V30 158 C 17.8341 0.239042 1.93025 0
M  V30 159 O 17.0891 -0.770713 1.79885 0
M  V30 160 C 17.3881 2.6523 2.39558 0
M  V30 161 C 17.0541 4.07648 1.92702 0
M  V30 162 C 15.7161 4.46411 1.79641 0
M  V30 163 C 18.0681 4.96896 1.573 0
M  V30 164 C 15.3961 5.72226 1.29514 0
M  V30 165 C 17.7481 6.23202 1.08636 0
M  V30 166 C 16.4121 6.60821 0.941919 0
M  V30 167 H 15.6821 0.572631 0.470292 0
M  V30 168 H 18.3291 1.82161 0.59072 0
M  V30 169 H 16.6341 2.33419 3.14679 0
M  V30 170 H 18.3311 2.68671 2.97686 0
M  V30 171 H 14.9211 3.77036 2.03819 0
M  V30 172 H 19.1051 4.67626 1.66251 0
M  V30 173 H 14.3611 6.00097 1.17019 0
M  V30 174 H 18.5351 6.91753 0.803136 0
M  V30 175 H 16.1621 7.58198 0.5513 0
M  V30 176 N 17.7372 -0.778329 1.37039 0
M  V30 177 C 18.9832 -1.53892 1.32079 0
M  V30 178 C 19.3162 -1.9396 -0.0965386 0
M  V30 179 O 18.5912 -1.63568 -1.05242 0
M  V30 180 C 18.8742 -2.80847 2.25382 0
M  V30 181 C 18.7272 -2.47076 3.75864 0
M  V30 182 C 20.0462 -3.82741 2.1725 0
M  V30 183 H 17.1652 -0.558303 0.48111 0
M  V30 184 H 19.8072 -0.893397 1.67685 0
M  V30 185 H 17.9572 -3.35931 1.95148 0
M  V30 186 H 19.6292 -1.97957 4.16666 0
M  V30 187 H 17.8722 -1.79863 3.94755 0
M  V30 188 H 18.5432 -3.37798 4.36574 0
M  V30 189 H 21.0192 -3.37133 2.43887 0
M  V30 190 H 19.8952 -4.69303 2.84686 0
M  V30 191 H 20.1562 -4.2652 1.16331 0
M  V30 192 N 19.2153 -1.21501 -1.00376 0
M  V30 193 C 20.1653 -0.942843 -2.07592 0
M  V30 194 C 21.1493 0.102384 -1.60574 0
M  V30 195 O 22.3413 -0.10671 -1.76678 0
M  V30 196 C 19.4703 -0.510729 -3.3948 0
M  V30 197 C 18.5563 -1.59009 -3.93163 0
M  V30 198 N 18.9473 -2.81544 -4.20198 0
M  V30 199 C 17.2453 -1.45925 -4.21452 0
M  V30 200 C 17.9463 -3.51261 -4.63671 0
M  V30 201 N 16.9223 -2.78703 -4.66718 0
M  V30 202 H 20.7243 -1.87378 -2.26421 0
M  V30 203 H 18.2383 -1.11093 -1.18458 0
M  V30 204 H 20.2353 -0.297101 -4.1584 0
M  V30 205 H 18.8953 0.413436 -3.22057 0
M  V30 206 H 19.9063 -3.18075 -4.08716 0
M  V30 207 H 16.5833 -0.600467 -4.13159 0
M  V30 208 H 17.9733 -4.56183 -4.93302 0
M  V30 209 N 20.6934 1.19889 -1.02296 0
M  V30 210 C 21.9404 1.8942 -0.715972 0
M  V30 211 C 22.2684 1.79251 0.754944 0
M  V30 212 O 21.5234 1.17526 1.56481 0
M  V30 213 C 21.8224 3.39883 -1.10518 0
M  V30 214 C 21.4884 3.70254 -2.57337 0
M  V30 215 C 20.1504 3.78254 -2.97452 0
M  V30 216 C 22.5024 3.84052 -3.52354 0
M  V30 217 C 19.8304 3.97514 -4.31509 0
M  V30 218 C 22.1824 4.04824 -4.86108 0
M  V30 219 C 20.8464 4.11054 -5.25919 0
M  V30 220 H 20.1164 0.693138 -0.261993 0
M  V30 221 H 22.7634 1.42012 -1.28472 0
M  V30 222 H 21.0684 3.8915 -0.454953 0
M  V30 223 H 22.7654 3.9199 -0.845261 0
M  V30 224 H 19.3554 3.64632 -2.25258 0
M  V30 225 H 23.5394 3.77221 -3.22518 0
M  V30 226 H 18.7954 4.00574 -4.61898 0
M  V30 227 H 22.9694 4.14442 -5.59653 0
M  V30 228 H 20.5964 4.2573 -6.29808 0
M  V30 229 N 22.1715 0.800033 1.35784 0
M  V30 230 C 23.3995 0.389606 2.03199 0
M  V30 231 C 23.8145 -0.997375 1.60306 0
M  V30 232 O 23.1715 -1.64154 0.797481 0
M  V30 233 C 23.2225 0.455855 3.58614 0
M  V30 234 O 22.9435 1.78815 3.99946 0
M  V30 235 C 24.4445 0.0374032 4.43284 0
M  V30 236 H 21.6645 0.159132 0.651857 0
M  V30 237 H 24.2085 1.08183 1.73541 0
M  V30 238 H 22.3635 -0.188057 3.86943 0
M  V30 239 H 22.7775 1.74636 4.94573 0
M  V30 240 H 24.2515 0.134882 5.51835 0
M  V30 241 H 24.7285 -1.01651 4.27275 0
M  V30 242 H 25.3345 0.654215 4.20238 0
M  V30 243 N 23.6496 -1.47581 0.552962 0
M  V30 244 C 24.5966 -2.29957 -0.197108 0
M  V30 245 C 25.5666 -1.38799 -0.912359 0
M  V30 246 O 26.7516 -1.67761 -0.908888 0
M  V30 247 C 23.8916 -3.22672 -1.22379 0
M  V30 248 C 23.0046 -4.28919 -0.515038 0
M  V30 249 C 22.1396 -5.0879 -1.52664 0
M  V30 250 C 21.1786 -6.06815 -0.802631 0
M  V30 251 N 20.3156 -6.7966 -1.76086 0
M  V30 252 H 25.1556 -2.93578 0.511486 0
M  V30 253 H 22.6926 -1.4471 0.264067 0
M  V30 254 H 24.6506 -3.74845 -1.83159 0
M  V30 255 H 23.2806 -2.60925 -1.90047 0
M  V30 256 H 22.3326 -3.79835 0.207192 0
M  V30 257 H 23.6446 -4.98773 0.0523425 0
M  V30 258 H 22.7986 -5.65091 -2.20809 0
M  V30 259 H 21.5376 -4.38828 -2.12794 0
M  V30 260 H 20.5426 -5.49695 -0.107238 0
M  V30 261 H 21.7676 -6.78784 -0.207135 0
M  V30 262 H 19.7136 -6.12432 -2.35081 0
M  V30 263 H 19.6306 -7.45669 -1.24552 0
M  V30 264 H 20.8986 -7.40538 -2.43359 0
M  V30 265 N 25.1277 -0.289203 -1.54924 0
M  V30 266 C 26.0597 0.625583 -2.20497 0
M  V30 267 C 27.0727 1.10667 -1.19402 0
M  V30 268 O 28.2617 1.02615 -1.46056 0
M  V30 269 C 25.3617 1.86702 -2.82835 0
M  V30 270 C 24.5347 1.5304 -4.09753 0
M  V30 271 C 23.5937 2.62576 -4.56005 0
M  V30 272 O 22.6197 2.28167 -5.21468 0
M  V30 273 N 23.8217 3.92901 -4.27328 0
M  V30 274 H 26.5867 0.0642801 -2.99631 0
M  V30 275 H 24.1477 -0.110896 -1.6152 0
M  V30 276 H 26.1397 2.59304 -3.10715 0
M  V30 277 H 24.7097 2.33702 -2.07611 0
M  V30 278 H 23.9297 0.637564 -3.8901 0
M  V30 279 H 25.2177 1.28072 -4.92418 0
M  V30 280 H 24.6157 4.23671 -3.74859 0
M  V30 281 H 23.1727 4.61837 -4.59946 0
M  V30 282 N 26.6058 1.57591 -0.0167156 0
M  V30 283 C 27.8308 1.9598 0.67872 0
M  V30 284 C 28.2558 0.892546 1.65575 0
M  V30 285 O 27.6138 -0.147772 1.80697 0
M  V30 286 C 27.6618 3.33468 1.37227 0
M  V30 287 O 26.7658 3.28954 2.48722 0
M  V30 288 H 26.1068 0.639339 0.17928 0
M  V30 289 H 28.6368 2.04463 -0.0748802 0
M  V30 290 H 28.6468 3.69417 1.7319 0
M  V30 291 H 27.3218 4.10694 0.656007 0
M  V30 292 H 25.8988 3.04705 2.14963 0
M  V30 293 N 28.0839 -0.256276 1.55502 0
M  V30 294 C 29.0139 -1.32102 1.92539 0
M  V30 295 C 29.9949 -1.50684 0.789194 0
M  V30 296 O 31.1799 -1.63449 1.04872 0
M  V30 297 C 28.3099 -2.67752 2.21192 0
M  V30 298 C 27.2639 -2.63878 3.36975 0
M  V30 299 C 26.5899 -4.03236 3.51147 0
M  V30 300 C 27.8899 -2.21682 4.72921 0
M  V30 301 H 29.5839 -1.01351 2.81724 0
M  V30 302 H 27.1299 -0.486105 1.35547 0
M  V30 303 H 29.0829 -3.42365 2.45691 0
M  V30 304 H 27.8069 -3.0012 1.28824 0
M  V30 305 H 26.4659 -1.91722 3.12471 0
M  V30 306 H 26.1139 -4.32854 2.56216 0
M  V30 307 H 25.8139 -4.01535 4.29003 0
M  V30 308 H 27.3379 -4.79563 3.77957 0
M  V30 309 H 28.7519 -2.86023 4.96854 0
M  V30 310 H 27.1489 -2.3111 5.53812 0
M  V30 311 H 28.2189 -1.16833 4.70615 0
M  V30 312 N 29.562 -1.4872 -0.521534 0
M  V30 313 C 30.525 -1.63379 -1.60748 0
M  V30 314 C 31.525 -0.50661 -1.52611 0
M  V30 315 O 32.715 -0.772601 -1.5613 0
M  V30 316 C 29.847 -1.61192 -3.00383 0
M  V30 317 H 31.04 -2.60217 -1.49087 0
M  V30 318 H 28.593 -1.37444 -0.744235 0
M  V30 319 H 29.328 -0.65863 -3.17541 0
M  V30 320 H 29.113 -2.43032 -3.07698 0
M  V30 321 H 30.603 -1.7466 -3.7932 0
M  V30 322 N 31.0401 0.771051 -1.3745 0
M  V30 323 C 31.9701 1.89827 -1.3597 0
M  V30 324 C 32.9511 1.68562 -0.228216 0
M  V30 325 O 34.1361 1.8941 -0.428675 0
M  V30 326 C 31.2661 3.2712 -1.16662 0
M  V30 327 C 30.2201 3.6295 -2.2683 0
M  V30 328 C 29.5461 4.98791 -1.92644 0
M  V30 329 C 30.8461 3.69627 -3.69017 0
M  V30 330 H 32.5401 1.91323 -2.30295 0
M  V30 331 H 30.0861 0.919082 -1.10855 0
M  V30 332 H 32.0391 4.05615 -1.14256 0
M  V30 333 H 30.7631 3.26059 -0.187926 0
M  V30 334 H 29.4221 2.86763 -2.28392 0
M  V30 335 H 29.0701 4.94271 -0.933021 0
M  V30 336 H 28.7701 5.23733 -2.66416 0
M  V30 337 H 30.2941 5.79685 -1.91826 0
M  V30 338 H 31.7081 4.38273 -3.69581 0
M  V30 339 H 30.1051 4.06067 -4.41848 0
M  V30 340 H 31.1751 2.70273 -4.02592 0
M  V30 341 N 32.5182 1.22032 0.997298 0
M  V30 342 C 33.7672 1.03637 1.73038 0
M  V30 343 C 34.0802 -0.429475 1.90827 0
M  V30 344 O 35.2862 -0.732995 2.61418 0
M  V30 345 C 33.7422 1.80582 3.11317 0
M  V30 346 C 33.3502 3.31387 3.01474 0
M  V30 347 C 35.0942 1.70621 3.88701 0
M  V30 348 C 33.0012 4.00791 4.3488 0
M  V30 349 H 31.9312 0.384179 0.648785 0
M  V30 350 H 34.5822 1.4584 1.11368 0
M  V30 351 H 32.9642 1.31175 3.73643 0
M  V30 352 H 34.1382 3.88155 2.4834 0
M  V30 353 H 32.4532 3.41976 2.37575 0
M  V30 354 H 35.0502 2.19799 4.87434 0
M  V30 355 H 35.3932 0.665823 4.10941 0
M  V30 356 H 35.9262 2.17547 3.33044 0
M  V30 357 H 32.6652 5.05064 4.1784 0
M  V30 358 H 32.1852 3.48811 4.87945 0
M  V30 359 H 33.8642 4.06139 5.03647 0
M  V30 360 N 33.9963 -1.19345 1.0293 0
M  V30 361 C 34.9063 -2.26245 0.620515 0
M  V30 362 C 35.9223 -1.70486 -0.347928 0
M  V30 363 O 37.0983 -2.00347 -0.205704 0
M  V30 364 C 34.1633 -3.46693 -0.0218957 0
M  V30 365 C 33.2243 -4.17632 0.994102 0
M  V30 366 C 32.4573 -5.32329 0.382253 0
M  V30 367 O 32.6803 -5.64552 -0.814676 0
M  V30 368 O 31.6143 -5.91664 1.10531 0
M  V30 369 H 35.4403 -2.63453 1.51083 0
M  V30 370 H 33.0253 -1.26207 0.799513 0
M  V30 371 H 34.9073 -4.19683 -0.380072 0
M  V30 372 H 33.5823 -3.11333 -0.886209 0
M  V30 373 H 32.4893 -3.4676 1.40387 0
M  V30 374 H 33.8223 -4.56964 1.8288 0
M  V30 375 N 35.4744 -0.807222 -1.35358 0
M  V30 376 C 36.4064 -0.175717 -2.28525 0
M  V30 377 C 37.4194 0.625354 -1.5031 0
M  V30 378 O 38.6084 0.457611 -1.72535 0
M  V30 379 C 35.7084 0.773471 -3.29956 0
M  V30 380 C 34.8814 0.0186296 -4.37396 0
M  V30 381 C 33.9404 0.886395 -5.18681 0
M  V30 382 O 32.9664 0.337106 -5.68201 0
M  V30 383 N 34.1684 2.20839 -5.36852 0
M  V30 384 H 36.9334 -0.976091 -2.83359 0
M  V30 385 H 34.4944 -0.662737 -1.47714 0
M  V30 386 H 36.4864 1.35824 -3.81227 0
M  V30 387 H 35.0564 1.47465 -2.75632 0
M  V30 388 H 34.2764 -0.747349 -3.87051 0
M  V30 389 H 35.5644 -0.501577 -5.06322 0
M  V30 390 H 34.9624 2.67858 -4.98265 0
M  V30 391 H 33.5194 2.74237 -5.91301 0
M  V30 392 N 36.9525 1.47285 -0.560781 0
M  V30 393 C 38.3685 1.58065 -0.22081 0
M  V30 394 C 38.5685 1.55892 1.27671 0
M  V30 395 O 37.6245 1.46422 2.0571 0
M  V30 396 C 38.9375 2.88418 -0.850625 0
M  V30 397 C 40.4855 3.02009 -0.822184 0
M  V30 398 C 40.9605 4.35066 -1.43113 0
M  V30 399 N 42.4515 4.41711 -1.39448 0
M  V30 400 C 43.1865 5.43237 -1.83525 0
M  V30 401 N 42.6825 6.51555 -2.35474 0
M  V30 402 N 44.4755 5.34304 -1.74574 0
M  V30 403 H 36.6265 1.46941 -1.53369 0
M  V30 404 H 38.8895 0.699558 -0.639783 0
M  V30 405 H 38.5955 2.95755 -1.9032 0
M  V30 406 H 38.4695 3.75612 -0.345773 0
M  V30 407 H 40.8565 2.94266 0.221714 0
M  V30 408 H 40.9375 2.16347 -1.36483 0
M  V30 409 H 40.5815 4.43565 -2.47412 0
M  V30 410 H 40.5115 5.19465 -0.863899 0
M  V30 411 H 43.0025 3.64027 -1.01452 0
M  V30 412 H 43.3155 7.25203 -2.67021 0
M  V30 413 H 41.6605 6.52435 -2.39487 0
M  V30 414 H 44.8515 4.48581 -1.33763 0
M  V30 415 H 45.0245 6.13288 -2.09242 0
M  V30 416 N 38.4306 0.297415 1.54768 0
M  V30 417 C 39.6796 -0.313669 1.99246 0
M  V30 418 C 39.9926 -1.55281 1.18942 0
M  V30 419 O 41.1986 -2.23825 1.5367 0
M  V30 420 C 39.6546 -0.609407 3.54703 0
M  V30 421 C 39.2626 0.611192 4.43811 0
M  V30 422 C 41.0066 -1.18188 4.07715 0
M  V30 423 C 38.9136 0.288805 5.90694 0
M  V30 424 H 37.8436 -0.120979 0.744231 0
M  V30 425 H 40.4946 0.40556 1.78962 0
M  V30 426 H 38.8766 -1.38813 3.70873 0
M  V30 427 H 40.0506 1.3875 4.39414 0
M  V30 428 H 38.3656 1.10205 4.01552 0
M  V30 429 H 40.9626 -1.43727 5.15021 0
M  V30 430 H 41.3056 -2.12299 3.58099 0
M  V30 431 H 41.8386 -0.464944 3.95074 0
M  V30 432 H 38.5776 1.19838 6.44453 0
M  V30 433 H 38.0976 -0.450305 5.98107 0
M  V30 434 H 39.7766 -0.110933 6.46905 0
M  V30 435 N 39.9087 -1.5758 0.0250728 0
M  V30 436 C 40.8717 -2.08896 -0.943139 0
M  V30 437 C 41.8717 -1.00321 -1.25668 0
M  V30 438 O 43.0617 -1.26495 -1.19769 0
M  V30 439 C 40.1937 -2.55143 -2.26086 0
M  V30 440 H 41.3867 -2.95723 -0.498775 0
M  V30 441 H 38.9397 -1.54703 -0.222888 0
M  V30 442 H 39.6747 -1.71633 -2.75159 0
M  V30 443 H 39.4597 -3.34461 -2.04641 0
M  V30 444 H 40.9497 -2.95083 -2.95492 0
M  V30 445 N 41.3868 0.248026 -1.55636 0
M  V30 446 C 42.2968 1.32859 -1.93354 0
M  V30 447 C 43.3128 1.52719 -0.833838 0
M  V30 448 O 44.4888 1.66363 -1.13513 0
M  V30 449 C 41.5538 2.66337 -2.21958 0
M  V30 450 C 40.6148 2.55008 -3.45354 0
M  V30 451 C 39.8478 3.82121 -3.72584 0
M  V30 452 O 40.0708 4.83951 -3.01907 0
M  V30 453 O 39.0048 3.80822 -4.6611 0
M  V30 454 H 42.8308 1.03862 -2.85388 0
M  V30 455 H 40.4158 0.448686 -1.42503 0
M  V30 456 H 42.2978 3.45216 -2.4167 0
M  V30 457 H 40.9728 2.95068 -1.33103 0
M  V30 458 H 39.8798 1.7442 -3.30951 0
M  V30 459 H 41.2128 2.31222 -4.34508 0
M  V30 460 N 42.8649 1.48995 0.513639 0
M  V30 461 C 44.2809 1.35478 0.843682 0
M  V30 462 C 44.4809 0.378213 1.97919 0
M  V30 463 O 43.5369 -0.194689 2.51748 0
M  V30 464 C 44.8499 2.75901 1.1958 0
M  V30 465 C 46.3979 2.84509 1.30474 0
M  V30 466 C 46.8729 4.25671 1.69021 0
M  V30 467 N 48.3639 4.28422 1.76094 0
M  V30 468 C 49.0989 5.34601 2.07338 0
M  V30 469 N 48.5949 6.5104 2.36894 0
M  V30 470 N 50.3879 5.22007 2.08483 0
M  V30 471 H 42.5389 2.11092 -0.235328 0
M  V30 472 H 44.8019 0.947039 -0.0426669 0
M  V30 473 H 44.5079 3.49001 0.434913 0
M  V30 474 H 44.3819 3.10467 2.1422 0
M  V30 475 H 46.7689 2.11655 2.05637 0
M  V30 476 H 46.8499 2.53542 0.339155 0
M  V30 477 H 46.4939 4.99048 0.944135 0
M  V30 478 H 46.4239 4.54094 2.66658 0
M  V30 479 H 48.9149 3.44441 1.55464 0
M  V30 480 H 49.2279 7.2779 2.59887 0
M  V30 481 H 47.5729 6.54287 2.34378 0
M  V30 482 H 50.7639 4.30051 1.84861 0
M  V30 483 H 50.9369 6.04854 2.325 0
M  V30 484 N 44.343 -0.763751 1.37857 0
M  V30 485 C 45.29 -1.87726 1.34267 0
M  V30 486 C 46.26 -1.64807 0.206879 0
M  V30 487 O 47.445 -1.86613 0.397508 0
M  V30 488 C 44.585 -3.24896 1.16346 0
M  V30 489 C 43.698 -3.59716 2.39225 0
M  V30 490 C 42.833 -4.86137 2.14114 0
M  V30 491 C 41.872 -5.13711 3.32817 0
M  V30 492 N 41.009 -6.31323 3.07206 0
M  V30 493 H 45.849 -1.90129 2.29466 0
M  V30 494 H 43.386 -0.929433 1.14017 0
M  V30 495 H 45.344 -4.04036 1.03975 0
M  V30 496 H 43.974 -3.21847 0.247909 0
M  V30 497 H 43.026 -2.75498 2.62307 0
M  V30 498 H 44.338 -3.76027 3.27728 0
M  V30 499 H 43.492 -5.73198 1.9882 0
M  V30 500 H 42.231 -4.71945 1.22961 0
M  V30 501 H 41.236 -4.25123 3.48641 0
M  V30 502 H 42.461 -5.29807 4.24832 0
M  V30 503 H 40.407 -6.18474 2.1869 0
M  V30 504 H 40.324 -6.48087 3.89254 0
M  V30 505 H 41.592 -7.213 2.95546 0
M  V30 506 N 45.8211 -1.22559 -0.990812 0
M  V30 507 C 47.0461 -1.07862 -1.77145 0
M  V30 508 C 47.4711 0.366447 -1.84496 0
M  V30 509 O 46.8291 1.26478 -1.29896 0
M  V30 510 C 46.8771 -1.69686 -3.18181 0
M  V30 511 O 45.9811 -0.951946 -4.01263 0
M  V30 512 H 45.3221 -0.378712 -0.545411 0
M  V30 513 H 47.8521 -1.62399 -1.2445 0
M  V30 514 H 47.8621 -1.74496 -3.68802 0
M  V30 515 H 46.5371 -2.74841 -3.12146 0
M  V30 516 H 45.1141 -0.980011 -3.59792 0
M  V30 517 N 47.2992 1.18797 -1.03562 0
M  V30 518 C 48.2462 2.22253 -0.622259 0
M  V30 519 C 49.2162 1.61987 0.36736 0
M  V30 520 O 50.4012 1.88986 0.262492 0
M  V30 521 C 47.5412 3.45097 0.0138462 0
M  V30 522 C 46.6542 4.19722 -1.02263 0
M  V30 523 C 45.7892 5.30009 -0.355573 0
M  V30 524 C 44.8282 5.96399 -1.37749 0
M  V30 525 N 43.9652 6.98234 -0.735766 0
M  V30 526 H 48.8052 2.56968 -1.50903 0
M  V30 527 H 46.3422 1.26245 -0.755017 0
M  V30 528 H 48.3002 4.15279 0.399948 0
M  V30 529 H 46.9302 3.11018 0.864158 0
M  V30 530 H 45.9822 3.48418 -1.52673 0
M  V30 531 H 47.2942 4.65227 -1.79903 0
M  V30 532 H 46.4482 6.0664 0.0850095 0
M  V30 533 H 45.1872 4.85592 0.452967 0
M  V30 534 H 44.1922 5.18512 -1.82826 0
M  V30 535 H 45.4172 6.42899 -2.18764 0
M  V30 536 H 43.3632 6.55979 0.0525597 0
M  V30 537 H 43.2802 7.41965 -1.44995 0
M  V30 538 H 44.5482 7.78845 -0.31941 0
M  V30 539 N 48.7773 0.814389 1.34928 0
M  V30 540 C 49.6873 0.231978 2.3345 0
M  V30 541 C 50.7033 -0.629139 1.62228 0
M  V30 542 O 51.8793 -0.539052 1.94052 0
M  V30 543 C 48.9443 -0.603482 3.41407 0
M  V30 544 C 48.0053 0.279037 4.28392 0
M  V30 545 C 47.2383 -0.516643 5.31193 0
M  V30 546 O 47.4613 -1.75068 5.4287 0
M  V30 547 O 46.3953 0.0965652 6.01823 0
M  V30 548 H 50.2213 1.04721 2.85074 0
M  V30 549 H 47.8063 0.576343 1.37836 0
M  V30 550 H 49.6883 -1.07908 4.0735 0
M  V30 551 H 48.3633 -1.39618 2.92042 0
M  V30 552 H 47.2703 0.801948 3.65403 0
M  V30 553 H 48.6033 1.03588 4.81176 0
M  V30 554 N 50.2554 -1.46986 0.568584 0
M  V30 555 C 51.6664 -1.86188 0.138219 0
M  V30 556 C 52.0174 -1.47388 -1.29504 0
M  V30 557 O 51.1424 -0.88219 -1.97602 0
M  V30 558 C 51.7374 -3.3792 0.244065 0
M  V30 559 C 50.2964 -3.76171 -0.131335 0
M  V30 560 C 49.4434 -2.71027 0.586465 0
M  V30 561 H 52.3944 -1.38342 0.777645 0
M  V30 562 H 52.4154 -3.76729 -0.534351 0
M  V30 563 H 51.9274 -3.66128 1.28731 0
M  V30 564 H 50.0284 -3.5358 -1.17526 0
M  V30 565 H 50.1414 -4.78523 0.235146 0
M  V30 566 H 48.5054 -2.54684 0.0282722 0
M  V30 567 H 49.2884 -3.02077 1.63109 0
M  V30 568 N 51.7335 -0.305618 -1.54608 0
M  V30 569 C 52.6805 0.568421 -2.23691 0
M  V30 570 C 53.6505 1.12592 -1.22116 0
M  V30 571 O 54.8355 1.16959 -1.50749 0
M  V30 572 C 51.9755 1.7322 -2.98477 0
M  V30 573 C 51.0885 1.20566 -4.14835 0
M  V30 574 C 50.2235 2.33368 -4.77193 0
M  V30 575 C 49.2625 1.7787 -5.85686 0
M  V30 576 N 48.3995 2.84263 -6.4198 0
M  V30 577 H 53.2395 -0.0272867 -2.97988 0
M  V30 578 H 50.7765 -0.0252363 -1.47078 0
M  V30 579 H 52.7345 2.41675 -3.40072 0
M  V30 580 H 51.3645 2.29947 -2.26548 0
M  V30 581 H 50.4165 0.413223 -3.78149 0
M  V30 582 H 51.7285 0.759417 -4.92985 0
M  V30 583 H 50.8825 3.09761 -5.21664 0
M  V30 584 H 49.6215 2.8132 -3.98385 0
M  V30 585 H 48.6265 0.99968 -5.40635 0
M  V30 586 H 49.8515 1.30816 -6.66381 0
M  V30 587 H 47.7975 3.31541 -5.66053 0
M  V30 588 H 47.7145 2.44149 -7.15491 0
M  V30 589 H 48.9825 3.6054 -6.91109 0
M  V30 590 N 53.2116 1.57565 -0.0334293 0
M  V30 591 C 54.1216 2.13943 0.962572 0
M  V30 592 C 55.1376 1.09276 1.35406 0
M  V30 593 O 56.3136 1.41355 1.4346 0
M  V30 594 C 53.3786 2.65887 2.22497 0
M  V30 595 C 52.4396 3.85286 1.8935 0
M  V30 596 C 51.6726 4.34743 3.09571 0
M  V30 597 O 51.8956 3.83352 4.22371 0
M  V30 598 O 50.8296 5.26538 2.91618 0
M  V30 599 H 54.6556 2.99333 0.513169 0
M  V30 600 H 52.2406 1.4822 0.18743 0
M  V30 601 H 54.1226 2.99346 2.96598 0
M  V30 602 H 52.7976 1.83578 2.6661 0
M  V30 603 H 51.7046 3.56746 1.1262 0
M  V30 604 H 53.0376 4.68771 1.5005 0
M  V30 605 N 54.6897 -0.239769 1.55765 0
M  V30 606 C 55.5997 -1.31831 1.94056 0
M  V30 607 C 56.6157 -1.52275 0.841925 0
M  V30 608 O 57.7917 -1.65759 1.14394 0
M  V30 609 C 54.8567 -2.65156 2.23368 0
M  V30 610 C 53.9177 -2.53173 3.46701 0
M  V30 611 C 53.1507 -3.8014 3.74606 0
M  V30 612 O 53.3737 -4.82343 3.04469 0
M  V30 613 O 52.3077 -3.78344 4.68123 0
M  V30 614 H 56.1337 -1.02347 2.85935 0
M  V30 615 H 53.7187 -0.441123 1.42739 0
M  V30 616 H 55.6007 -3.43929 2.43497 0
M  V30 617 H 54.2757 -2.94358 1.34666 0
M  V30 618 H 53.1827 -1.72662 3.31871 0
M  V30 619 H 54.5157 -2.28915 4.35728 0
M  V30 620 N 56.1678 -1.49265 -0.50573 0
M  V30 621 C 57.1148 -1.65585 -1.6078 0
M  V30 622 C 58.0848 -0.497396 -1.58478 0
M  V30 623 O 59.2698 -0.72385 -1.76536 0
M  V30 624 C 56.4098 -1.72408 -2.98948 0
M  V30 625 C 55.5228 -2.99525 -3.11301 0
M  V30 626 C 54.6578 -2.97356 -4.40174 0
M  V30 627 C 53.6968 -4.19074 -4.46143 0
M  V30 628 N 52.8338 -4.14841 -5.66437 0
M  V30 629 H 57.6738 -2.59688 -1.46172 0
M  V30 630 H 55.2108 -1.28761 -0.711261 0
M  V30 631 H 57.1688 -1.74344 -3.79025 0
M  V30 632 H 55.7988 -0.817753 -3.1227 0
M  V30 633 H 54.8508 -3.07222 -2.24318 0
M  V30 634 H 56.1628 -3.89518 -3.11572 0
M  V30 635 H 55.3168 -2.97829 -5.28567 0
M  V30 636 H 54.0558 -2.05133 -4.42461 0
M  V30 637 H 53.0608 -4.1885 -3.56153 0
M  V30 638 H 54.2858 -5.12483 -4.45575 0
M  V30 639 H 52.2318 -3.25453 -5.69575 0
M  V30 640 H 52.1488 -4.98564 -5.68304 0
M  V30 641 H 53.4168 -4.1941 -6.57051 0
M  V30 642 N 57.6459 0.756429 -1.3826 0
M  V30 643 C 58.5929 1.87011 -1.35261 0
M  V30 644 C 59.5629 1.64695 -0.215616 0
M  V30 645 O 60.7479 1.864 -0.407399 0
M  V30 646 C 57.8879 3.24275 -1.18068 0
M  V30 647 C 57.0009 3.58442 -2.41129 0
M  V30 648 C 56.1359 4.84994 -2.16689 0
M  V30 649 C 55.1749 5.11939 -3.35537 0
M  V30 650 N 54.3119 6.29685 -3.10549 0
M  V30 651 H 59.1519 1.8891 -2.30472 0
M  V30 652 H 56.6889 0.923373 -1.14509 0
M  V30 653 H 58.6469 4.03479 -1.06116 0
M  V30 654 H 57.2769 3.21711 -0.264973 0
M  V30 655 H 56.3289 2.74103 -2.63764 0
M  V30 656 H 57.6409 3.74283 -3.29717 0
M  V30 657 H 56.7949 5.72135 -2.01857 0
M  V30 658 H 55.5339 4.71286 -1.25462 0
M  V30 659 H 54.5389 4.23268 -3.50891 0
M  V30 660 H 55.7639 5.27546 -4.27635 0
M  V30 661 H 53.7099 6.17306 -2.21967 0
M  V30 662 H 53.6269 6.46014 -3.92686 0
M  V30 663 H 54.8949 7.19722 -2.99367 0
M  V30 664 N 59.124 1.23083 0.984299 0
M  V30 665 C 60.401 0.9689 1.69917 0
M  V30 666 C 60.781 -0.513604 2.04757 0
M  V30 667 O 60.129 -1.48383 1.73767 0
M  V30 668 C 60.339 1.87518 2.94343 0
M  V30 669 C 61.687 2.13636 3.6694 0
M  V30 670 O 62.711 1.85036 3.04368 0
M  V30 671 O 61.57 2.62119 4.79537 0
M  V30 672 H 58.664 0.365095 0.742048 0
M  V30 673 H 61.21 1.34107 1.03987 0
M  V30 674 H 59.982 2.87756 2.65164 0
M  V30 675 H 59.605 1.50514 3.6801 0
M  V30 676 N 60.6021 -1.18246 1.0419 0
M  V30 677 C 61.8791 -1.84121 0.660208 0
M  V30 678 C 62.2591 -1.92778 -0.860221 0
M  V30 679 O 61.6071 -1.45464 -1.76217 0
M  V30 680 C 61.8171 -3.22355 1.33747 0
M  V30 681 C 63.1651 -3.98376 1.46906 0
M  V30 682 O 64.1891 -3.31799 1.29568 0
M  V30 683 O 63.0481 -5.17665 1.75171 0
M  V30 684 H 60.1421 -0.794036 0.231161 0
M  V30 685 H 62.6881 -1.25628 1.14087 0
M  V30 686 H 61.4601 -3.10964 2.37522 0
M  V30 687 H 61.0831 -3.88506 0.845515 0
M  V30 688 N 62.0802 -0.821533 -1.34494 0
M  V30 689 C 63.3572 -0.33159 -1.92769 0
M  V30 690 C 63.7372 1.18088 -1.74981 0
M  V30 691 O 63.0852 1.98733 -1.12772 0
M  V30 692 C 63.2952 -0.759398 -3.40638 0
M  V30 693 C 64.6432 -0.757433 -4.1779 0
M  V30 694 O 65.6672 -0.70189 -3.49216 0
M  V30 695 O 64.5262 -0.829361 -5.4017 0
M  V30 696 H 61.6202 -0.0902502 -0.822061 0
M  V30 697 H 64.1662 -0.906231 -1.43477 0
M  V30 698 H 62.9382 -1.8012 -3.47379 0
M  V30 699 H 62.5612 -0.160378 -3.97276 0
M  V30 700 N 63.5583 1.46682 -0.576371 0
M  V30 701 C 64.4683 2.34032 0.163141 0
M  V30 702 C 65.4843 1.49367 0.892501 0
M  V30 703 O 66.6603 1.82252 0.857106 0
M  V30 704 C 63.7253 3.26435 1.16795 0
M  V30 705 C 62.7863 4.26998 0.443944 0
M  V30 706 C 62.0193 5.14986 1.40088 0
M  V30 707 O 62.2423 5.05785 2.637 0
M  V30 708 O 61.1763 5.94906 0.914917 0
M  V30 709 H 65.0023 2.98607 -0.55388 0
M  V30 710 H 62.5873 1.45554 -0.336821 0
M  V30 711 H 64.4693 3.83459 1.74748 0
M  V30 712 H 63.1443 2.64465 1.86655 0
M  V30 713 H 62.0513 3.7368 -0.177271 0
M  V30 714 H 63.3843 4.91736 -0.213566 0
M  V30 715 N 65.0364 0.313813 1.54444 0
M  V30 716 C 65.9464 -0.565714 2.27677 0
M  V30 717 C 66.9624 -1.13754 1.31666 0
M  V30 718 O 68.1384 -1.15959 1.64668 0
M  V30 719 C 65.2034 -1.71528 3.01296 0
M  V30 720 C 64.2644 -1.17624 4.12872 0
M  V30 721 C 63.4974 -2.27102 4.8297 0
M  V30 722 O 63.7204 -3.47256 4.52514 0
M  V30 723 O 62.6544 -1.9307 5.70094 0
M  V30 724 H 66.4804 0.0287296 3.03686 0
M  V30 725 H 64.0654 0.0798312 1.49187 0
M  V30 726 H 65.9474 -2.38476 3.4743 0
M  V30 727 H 64.6224 -2.29608 2.2817 0
M  V30 728 H 63.5294 -0.472124 3.71109 0
M  V30 729 H 64.8624 -0.640695 4.88012 0
M  V30 730 N 66.5145 -1.57545 0.0417849 0
M  V30 731 C 67.4775 -2.09885 -0.92093 0
M  V30 732 C 68.4775 -1.01648 -1.24596 0
M  V30 733 O 69.6675 -1.27759 -1.1842 0
M  V30 734 C 66.7995 -2.57527 -2.23367 0
M  V30 735 H 67.9925 -2.96236 -0.467382 0
M  V30 736 H 65.5455 -1.5493 -0.206467 0
M  V30 737 H 66.2805 -1.74542 -2.73323 0
M  V30 738 H 66.0655 -3.36613 -2.01083 0
M  V30 739 H 67.5555 -2.98201 -2.92346 0
M  V30 740 N 67.9926 0.231505 -1.5589 0
M  V30 741 C 69.4036 0.799327 -1.68724 0
M  V30 742 C 69.7546 1.85398 -0.642022 0
M  V30 743 O 68.8796 2.1539 0.208784 0
M  V30 744 C 69.4746 1.45664 -3.05888 0
M  V30 745 C 68.0336 1.97197 -3.20609 0
M  V30 746 C 67.1806 0.828552 -2.64632 0
M  V30 747 H 70.1316 0.00702616 -1.58698 0
M  V30 748 H 70.1526 2.32517 -3.01191 0
M  V30 749 H 69.6646 0.688808 -3.81939 0
M  V30 750 H 67.7656 2.76813 -2.4941 0
M  V30 751 H 67.8786 2.15878 -4.27707 0
M  V30 752 H 66.2426 1.23321 -2.22854 0
M  V30 753 H 67.0256 0.0735544 -3.43221 0
M  V30 754 N 69.4707 1.49531 0.497807 0
M  V30 755 C 70.4177 1.66436 1.59899 0
M  V30 756 C 71.3877 0.505793 1.58212 0
M  V30 757 O 72.5727 0.733202 1.7615 0
M  V30 758 C 69.7127 1.7399 2.98029 0
M  V30 759 C 68.8257 3.01172 3.09708 0
M  V30 760 C 67.9607 2.99686 4.38591 0
M  V30 761 C 66.9997 4.21434 4.43914 0
M  V30 762 N 66.1367 4.1784 5.64229 0
M  V30 763 H 70.9767 2.60459 1.44793 0
M  V30 764 H 68.5137 1.29137 0.704423 0
M  V30 765 H 70.4717 1.76352 3.78095 0
M  V30 766 H 69.1017 0.834301 3.11832 0
M  V30 767 H 68.1537 3.08408 2.22685 0
M  V30 768 H 69.4657 3.91165 3.09502 0
M  V30 769 H 68.6197 3.00628 5.2698 0
M  V30 770 H 67.3587 2.07477 4.41367 0
M  V30 771 H 66.3637 4.20733 3.53926 0
M  V30 772 H 67.5887 5.14839 4.42851 0
M  V30 773 H 65.5347 3.28469 5.67841 0
M  V30 774 H 65.4517 5.01571 5.65652 0
M  V30 775 H 66.7197 4.22889 6.54817 0
M  V30 776 N 70.9488 -0.749086 1.3866 0
M  V30 777 C 72.3598 -1.32664 1.31366 0
M  V30 778 C 72.7108 -1.96179 -0.028484 0
M  V30 779 O 71.8358 -1.9537 -0.93057 0
M  V30 780 C 72.4308 -2.41219 2.37905 0
M  V30 781 C 70.9898 -2.94684 2.34176 0
M  V30 782 C 70.1368 -1.68108 2.20533 0
M  V30 783 H 73.0878 -0.547628 1.48952 0
M  V30 784 H 73.1088 -3.21268 2.0388 0
M  V30 785 H 72.6208 -1.94962 3.35576 0
M  V30 786 H 70.7218 -3.45258 1.401 0
M  V30 787 H 70.8348 -3.48757 3.2849 0
M  V30 788 H 69.1988 -1.91907 1.67463 0
M  V30 789 H 69.9818 -1.23923 3.20153 0
M  V30 790 N 72.4269 -1.23603 -0.977757 0
M  V30 791 C 73.6519 -1.09735 -1.75991 0
M  V30 792 C 74.0769 0.346858 -1.84874 0
M  V30 793 O 73.4349 1.25093 -1.3123 0
M  V30 794 C 73.4829 -1.73051 -3.16363 0
M  V30 795 O 72.5869 -0.994452 -4.0023 0
M  V30 796 H 71.9279 -0.384476 -0.541364 0
M  V30 797 H 74.4579 -1.6371 -1.2272 0
M  V30 798 H 74.4679 -1.78398 -3.66931 0
M  V30 799 H 73.1429 -2.78137 -3.09213 0
M  V30 800 H 71.7199 -1.01812 -3.58732 0
M  V30 801 N 73.905 1.17692 -1.04816 0
M  V30 802 C 75.13 1.92327 -0.776207 0
M  V30 803 C 75.555 1.76082 0.661581 0
M  V30 804 O 74.913 1.076 1.45917 0
M  V30 805 C 74.961 3.41539 -1.15687 0
M  V30 806 O 74.065 4.11402 -0.286775 0
M  V30 807 H 73.406 0.599735 -0.284981 0
M  V30 808 H 75.936 1.49201 -1.4 0
M  V30 809 H 75.946 3.92269 -1.12202 0
M  V30 810 H 74.621 3.52684 -2.20425 0
M  V30 811 H 73.198 3.70939 -0.381903 0
M  V30 812 N 75.3831 0.828654 1.34056 0
M  V30 813 C 76.6601 0.341809 1.9259 0
M  V30 814 C 77.0401 -1.17158 1.75605 0
M  V30 815 O 76.3881 -1.98132 1.13824 0
M  V30 816 C 76.5981 0.777453 3.4023 0
M  V30 817 C 77.9461 0.779579 4.17382 0
M  V30 818 O 78.9701 0.7204 3.48839 0
M  V30 819 O 77.8291 0.857996 5.39723 0
M  V30 820 H 74.9231 0.0946085 0.821571 0
M  V30 821 H 77.4691 0.913827 1.42994 0
M  V30 822 H 76.2411 1.8196 3.46419 0
M  V30 823 H 75.8641 0.181444 3.97186 0
M  V30 824 N 76.8612 -1.46375 0.584142 0
M  V30 825 C 77.7912 -2.33103 -0.136037 0
M  V30 826 C 78.7722 -1.45431 -0.882255 0
M  V30 827 O 79.9572 -1.74246 -0.857434 0
M  V30 828 C 77.0872 -3.27731 -1.14933 0
M  V30 829 C 76.0412 -4.24855 -0.517862 0
M  V30 830 C 75.3672 -5.09001 -1.63773 0
M  V30 831 C 76.6672 -5.19439 0.545886 0
M  V30 832 H 78.3612 -2.93568 0.588086 0
M  V30 833 H 75.9072 -1.41166 0.284259 0
M  V30 834 H 77.8602 -3.87261 -1.66153 0
M  V30 835 H 76.5842 -2.65377 -1.90375 0
M  V30 836 H 75.2432 -3.6659 -0.0267361 0
M  V30 837 H 74.8912 -4.43031 -2.38185 0
M  V30 838 H 74.5912 -5.74777 -1.22085 0
M  V30 839 H 76.1152 -5.71396 -2.15266 0
M  V30 840 H 77.5292 -5.73177 0.118704 0
M  V30 841 H 75.9262 -5.93566 0.88317 0
M  V30 842 H 76.9962 -4.63285 1.43162 0
M  V30 843 N 78.3393 -0.321999 -1.54275 0
M  V30 844 C 79.2493 0.553631 -2.27974 0
M  V30 845 C 80.2653 1.13054 -1.32268 0
M  V30 846 O 81.4413 1.15084 -1.6528 0
M  V30 847 C 78.5063 1.69927 -3.02201 0
M  V30 848 C 77.5673 1.15433 -4.1349 0
M  V30 849 C 76.8003 2.24537 -4.84168 0
M  V30 850 O 77.0233 3.44852 -4.5435 0
M  V30 851 O 75.9573 1.90044 -5.7111 0
M  V30 852 H 79.7833 -0.0448345 -3.03667 0
M  V30 853 H 77.3683 -0.0877418 -1.49142 0
M  V30 854 H 79.2503 2.3663 -3.48689 0
M  V30 855 H 77.9253 2.28395 -2.29385 0
M  V30 856 H 76.8323 0.452436 -3.71354 0
M  V30 857 H 78.1653 0.614805 -4.88345 0
M  V30 858 N 79.8174 1.5752 -0.0501392 0
M  V30 859 C 80.7804 2.1037 0.909786 0
M  V30 860 C 81.7804 1.02308 1.24056 0
M  V30 861 O 82.9704 1.28385 1.17741 0
M  V30 862 C 80.1024 2.58708 2.21998 0
M  V30 863 H 81.2954 2.96479 0.451665 0
M  V30 864 H 78.8484 1.55038 0.198248 0
M  V30 865 H 79.5834 1.75989 2.72394 0
M  V30 866 H 79.3684 3.37675 1.99295 0
M  V30 867 H 80.8584 2.99747 2.9076 0
M  V30 868 N 81.2955 -0.223234 1.56011 0
M  V30 869 C 82.5435 -0.946003 1.78592 0
M  V30 870 C 82.8645 -1.84936 0.618349 0
M  V30 871 O 82.1345 -1.92473 -0.364833 0
M  V30 872 H 80.7145 -0.352298 0.658707 0
M  V30 873 H 83.3765 -0.235494 1.93472 0
M  V30 874 H 82.4725 -1.55381 2.70672 0
M  V30 875 N 82.7736 -1.49793 -0.48987 0
M  V30 876 C 83.7206 -1.67281 -1.59014 0
M  V30 877 C 84.6906 -0.514177 -1.57941 0
M  V30 878 O 85.8756 -0.742533 -1.75759 0
M  V30 879 C 83.0156 -1.75569 -2.97102 0
M  V30 880 C 82.1286 -3.0281 -3.08107 0
M  V30 881 C 81.2636 -3.02008 -4.36995 0
M  V30 882 C 80.3026 -4.23782 -4.41673 0
M  V30 883 N 79.4396 -4.20826 -5.62005 0
M  V30 884 H 84.2796 -2.61224 -1.43409 0
M  V30 885 H 81.8166 -1.29508 -0.697565 0
M  V30 886 H 83.7746 -1.78354 -3.77155 0
M  V30 887 H 82.4046 -0.850827 -3.11385 0
M  V30 888 H 81.4566 -3.09584 -2.21047 0
M  V30 889 H 82.7686 -3.92801 -3.07423 0
M  V30 890 H 81.9226 -3.03418 -5.25378 0
M  V30 891 H 80.6616 -2.09815 -4.4026 0
M  V30 892 H 79.6666 -4.22604 -3.5169 0
M  V30 893 H 80.8916 -5.17181 -4.40115 0
M  V30 894 H 78.8376 -3.31476 -5.66091 0
M  V30 895 H 78.7546 -5.04564 -5.62984 0
M  V30 896 H 80.0226 -4.26355 -6.52565 0
M  V30 897 N 84.2517 0.741722 -1.39055 0
M  V30 898 C 85.1837 1.8657 -1.33133 0
M  V30 899 C 86.1967 1.61001 -0.241329 0
M  V30 900 O 87.3857 1.7136 -0.499784 0
M  V30 901 C 84.4857 3.22457 -1.04283 0
M  V30 902 C 83.6587 3.75435 -2.24427 0
M  V30 903 C 82.7177 4.89867 -1.92138 0
M  V30 904 O 81.7437 5.03879 -2.64754 0
M  V30 905 N 82.9457 5.73738 -0.88347 0
M  V30 906 H 85.7107 1.92156 -2.29991 0
M  V30 907 H 83.2717 0.922172 -1.3307 0
M  V30 908 H 85.2637 3.9657 -0.807128 0
M  V30 909 H 83.8337 3.12181 -0.161807 0
M  V30 910 H 83.0537 2.92751 -2.6399 0
M  V30 911 H 84.3417 4.07563 -3.04581 0
M  V30 912 H 83.7397 5.64999 -0.281517 0
M  V30 913 H 82.2967 6.47947 -0.707662 0
M  V30 914 N 85.7298 1.2412 0.971189 0
M  V30 915 C 86.6598 1.05508 2.08304 0
M  V30 916 C 87.6408 -0.0308864 1.70072 0
M  V30 917 O 88.8258 0.135521 1.93727 0
M  V30 918 C 85.9558 0.655365 3.4106 0
M  V30 919 C 84.9098 1.68971 3.93234 0
M  V30 920 C 84.2358 1.14516 5.22293 0
M  V30 921 C 85.5358 3.08487 4.21465 0
M  V30 922 H 87.2298 1.98507 2.24132 0
M  V30 923 H 84.7758 0.955821 1.07704 0
M  V30 924 H 86.7288 0.51217 4.18276 0
M  V30 925 H 85.4528 -0.31032 3.25122 0
M  V30 926 H 84.1118 1.82106 3.18171 0
M  V30 927 H 83.7598 0.170189 5.02712 0
M  V30 928 H 83.4598 1.83635 5.58168 0
M  V30 929 H 84.9838 1.01401 6.02121 0
M  V30 930 H 86.3978 2.98601 4.89398 0
M  V30 931 H 84.7948 3.74926 4.68562 0
M  V30 932 H 85.8648 3.56787 3.28376 0
M  V30 933 N 87.2079 -1.17134 1.05439 0
M  V30 934 C 88.6189 -1.69084 0.791676 0
M  V30 935 C 88.9699 -1.83822 -0.685839 0
M  V30 936 O 88.0949 -1.52757 -1.53278 0
M  V30 937 C 88.6899 -3.07119 1.4305 0
M  V30 938 C 87.2489 -3.56225 1.21577 0
M  V30 939 C 86.3959 -2.32421 1.51247 0
M  V30 940 H 89.3469 -1.01617 1.219 0
M  V30 941 H 89.3679 -3.71087 0.84112 0
M  V30 942 H 88.8799 -2.9636 2.50584 0
M  V30 943 H 86.9809 -3.72257 0.159787 0
M  V30 944 H 87.0939 -4.38837 1.92246 0
M  V30 945 H 85.4579 -2.3701 0.932653 0
M  V30 946 H 86.2409 -2.24268 2.5992 0
M  V30 947 N 88.686 -0.835752 -1.33615 0
M  V30 948 C 89.933 -0.429959 -1.97883 0
M  V30 949 C 90.261 1.01006 -1.66217 0
M  V30 950 O 89.516 1.72047 -0.93265 0
M  V30 951 C 89.815 -0.593925 -3.52431 0
M  V30 952 C 89.481 -2.00158 -4.04039 0
M  V30 953 C 88.143 -2.38662 -4.17844 0
M  V30 954 C 90.495 -2.92117 -4.31644 0
M  V30 955 C 87.823 -3.68435 -4.56588 0
M  V30 956 C 90.175 -4.21368 -4.71838 0
M  V30 957 C 88.839 -4.59833 -4.83849 0
M  V30 958 H 88.109 -0.157333 -0.724104 0
M  V30 959 H 90.756 -1.06217 -1.59343 0
M  V30 960 H 89.061 0.121619 -3.91611 0
M  V30 961 H 90.758 -0.260282 -4.00154 0
M  V30 962 H 87.348 -1.69252 -3.93766 0
M  V30 963 H 91.532 -2.63608 -4.20505 0
M  V30 964 H 86.788 -3.98046 -4.64079 0
M  V30 965 H 90.962 -4.92703 -4.92155 0
M  V30 966 H 88.589 -5.60438 -5.13627 0
M  V30 967 N 90.1641 1.46063 -0.591896 0
M  V30 968 C 91.4131 2.01547 -0.0786637 0
M  V30 969 C 91.7261 1.46796 1.29268 0
M  V30 970 O 92.9321 1.94157 1.89777 0
M  V30 971 C 91.3881 3.59787 -0.0900024 0
M  V30 972 C 90.9961 4.23534 -1.46023 0
M  V30 973 C 92.7401 4.22895 0.368806 0
M  V30 974 C 90.6471 5.73881 -1.4288 0
M  V30 975 H 89.5771 0.753564 -0.0256388 0
M  V30 976 H 92.2281 1.677 -0.744905 0
M  V30 977 H 90.6101 3.90752 0.642586 0
M  V30 978 H 91.7841 4.04167 -2.21328 0
M  V30 979 H 90.0991 3.72558 -1.85982 0
M  V30 980 H 92.6961 5.33116 0.411258 0
M  V30 981 H 93.0391 3.9247 1.38827 0
M  V30 982 H 93.5721 3.9659 -0.31001 0
M  V30 983 H 90.3111 6.0898 -2.42536 0
M  V30 984 H 89.8311 5.95486 -0.718095 0
M  V30 985 H 91.5101 6.36776 -1.14565 0
M  V30 986 N 91.6422 0.330177 1.54103 0
M  V30 987 C 92.8722 -0.271784 2.04805 0
M  V30 988 C 93.2802 -1.45816 1.20559 0
M  V30 989 O 92.6232 -1.82247 0.2306 0
M  V30 990 C 92.6852 -0.763238 3.51305 0
M  V30 991 C 92.3492 0.301705 4.56003 0
M  V30 992 C 93.3462 1.13999 5.07248 0
M  V30 993 C 91.0312 0.451793 5.00264 0
M  V30 994 C 93.0252 2.11402 6.01322 0
M  V30 995 C 90.7122 1.42924 5.94151 0
M  V30 996 C 91.7102 2.25882 6.44567 0
M  V30 997 O 91.3982 3.21965 7.3661 0
M  V30 998 H 91.1302 -0.058693 0.673447 0
M  V30 999 H 93.6842 0.476395 1.99799 0
M  V30 1000 H 91.9142 -1.56244 3.5373 0
M  V30 1001 H 93.6032 -1.28427 3.85047 0
M  V30 1002 H 94.3692 1.03505 4.73827 0
M  V30 1003 H 90.2482 -0.184044 4.60632 0
M  V30 1004 H 93.7922 2.76192 6.40596 0
M  V30 1005 H 89.6892 1.53479 6.26988 0
M  V30 1006 H 90.4572 3.17281 7.54503 0
M  V30 1007 N 93.1203 -1.57491 0.0584922 0
M  V30 1008 C 94.3683 -1.92597 -0.612436 0
M  V30 1009 C 94.6893 -0.938162 -1.70949 0
M  V30 1010 O 93.9593 0.0158301 -1.95894 0
M  V30 1011 H 92.5393 -0.710964 -0.229214 0
M  V30 1012 H 95.2013 -1.94571 0.113218 0
M  V30 1013 H 94.2973 -2.94038 -1.04633 0
M  V30 1014 N 94.5984 0.214957 -1.56127 0
M  V30 1015 C 95.8754 0.963093 -1.70247 0
M  V30 1016 C 96.2554 2.02166 -0.60764 0
M  V30 1017 O 95.6034 2.25244 0.384385 0
M  V30 1018 C 95.8134 1.56756 -3.11815 0
M  V30 1019 C 97.1614 2.0573 -3.7143 0
M  V30 1020 O 98.1854 1.66637 -3.14818 0
M  V30 1021 O 97.0444 2.77603 -4.70743 0
M  V30 1022 H 94.1384 0.450321 -0.693643 0
M  V30 1023 H 96.6844 0.206219 -1.68442 0
M  V30 1024 H 95.4564 0.803533 -3.82961 0
M  V30 1025 H 95.0794 2.3898 -3.17765 0
M  V30 1026 N 96.0765 1.50051 0.48192 0
M  V30 1027 C 97.3255 1.59741 1.23149 0
M  V30 1028 C 97.6385 0.298163 1.93314 0
M  V30 1029 O 98.8445 0.273835 2.70116 0
M  V30 1030 C 97.3005 2.81926 2.23708 0
M  V30 1031 C 96.9085 4.18685 1.59396 0
M  V30 1032 C 98.6525 3.00956 2.99375 0
M  V30 1033 C 96.5595 5.3207 2.58178 0
M  V30 1034 H 95.4895 0.594838 0.46334 0
M  V30 1035 H 98.1405 1.76467 0.503169 0
M  V30 1036 H 96.5225 2.58736 2.99786 0
M  V30 1037 H 97.6965 4.52088 0.891811 0
M  V30 1038 H 96.0115 4.05171 0.960503 0
M  V30 1039 H 98.6085 3.82836 3.73283 0
M  V30 1040 H 98.9515 2.12258 3.58123 0
M  V30 1041 H 99.4845 3.24277 2.30411 0
M  V30 1042 H 96.2235 6.22888 2.04184 0
M  V30 1043 H 95.7435 5.03098 3.26577 0
M  V30 1044 H 97.4225 5.62196 3.20225 0
M  V30 1045 N 97.5546 -0.734337 1.39446 0
M  V30 1046 C 98.9656 -1.31264 1.32766 0
M  V30 1047 C 99.3166 -1.96198 -0.00767497 0
M  V30 1048 O 98.4416 -1.96346 -0.909796 0
M  V30 1049 C 99.0366 -2.38682 2.4045 0
M  V30 1050 C 97.5956 -2.92184 2.37288 0
M  V30 1051 C 96.7426 -1.6576 2.22304 0
M  V30 1052 H 99.6936 -0.531799 1.49525 0
M  V30 1053 H 99.7146 -3.19087 2.07276 0
M  V30 1054 H 99.2266 -1.91392 3.37625 0
M  V30 1055 H 97.3276 -3.43752 1.43754 0
M  V30 1056 H 97.4406 -3.45253 3.3217 0
M  V30 1057 H 95.8046 -1.9012 1.69489 0
M  V30 1058 H 96.5876 -1.20521 3.21449 0
M  V30 1059 N 99.0327 -1.24633 -0.964593 0
M  V30 1060 C 100.444 -1.08045 -1.5226 0
M  V30 1061 C 100.795 0.347116 -1.93105 0
M  V30 1062 O 99.9197 1.23588 -1.77637 0
M  V30 1063 C 100.515 -1.95514 -2.76695 0
M  V30 1064 C 99.0737 -1.8314 -3.28841 0
M  V30 1065 C 98.2207 -1.90262 -2.01732 0
M  V30 1066 H 101.172 -1.38064 -0.782553 0
M  V30 1067 H 101.193 -1.48925 -3.50145 0
M  V30 1068 H 100.705 -2.99407 -2.46936 0
M  V30 1069 H 98.8057 -0.82092 -3.63444 0
M  V30 1070 H 98.9187 -2.67406 -3.97531 0
M  V30 1071 H 97.2827 -1.34027 -2.16584 0
M  V30 1072 H 98.0657 -2.9574 -1.74334 0
M  V30 1073 N 100.511 1.16574 -1.06058 0
M  V30 1074 C 101.759 1.86677 -0.77434 0
M  V30 1075 C 102.08 1.81959 0.701147 0
M  V30 1076 O 101.35 1.2515 1.50713 0
M  V30 1077 H 99.9298 0.691134 -0.283449 0
M  V30 1078 H 102.592 1.41378 -1.34158 0
M  V30 1079 H 101.688 2.92181 -1.09711 0
M  V30 1080 N 101.989 0.842826 1.3317 0
M  V30 1081 C 102.922 0.223862 2.27099 0
M  V30 1082 C 103.9 -0.631311 1.49844 0
M  V30 1083 O 105.084 -0.590708 1.79005 0
M  V30 1084 C 102.211 -0.685313 3.31694 0
M  V30 1085 C 101.257 0.094919 4.26394 0
M  V30 1086 S 102.09 1.45546 5.15341 0
M  V30 1087 C 103.246 0.551685 6.23464 0
M  V30 1088 H 103.479 1.02015 2.79249 0
M  V30 1089 H 101.012 0.639797 1.4052 0
M  V30 1090 H 102.97 -1.20426 3.92438 0
M  V30 1091 H 101.631 -1.4553 2.78352 0
M  V30 1092 H 100.824 -0.597059 5.00451 0
M  V30 1093 H 100.426 0.545054 3.70007 0
M  V30 1094 H 102.718 -0.248877 6.77043 0
M  V30 1095 H 103.661 1.26253 6.96754 0
M  V30 1096 H 104.069 0.131275 5.64347 0
M  V30 1097 N 103.467 -1.45747 0.599634 0
M  V30 1098 C 104.713 -2.02592 0.0918643 0
M  V30 1099 C 105.046 -1.46806 -1.27128 0
M  V30 1100 O 104.321 -0.639658 -1.83681 0
M  V30 1101 C 104.604 -3.60073 0.0443398 0
M  V30 1102 C 104.457 -4.26208 1.43759 0
M  V30 1103 C 105.776 -4.35309 -0.647608 0
M  V30 1104 H 102.895 -0.736175 0.034857 0
M  V30 1105 H 105.537 -1.73694 0.770081 0
M  V30 1106 H 103.687 -3.84823 -0.533224 0
M  V30 1107 H 105.359 -4.12668 2.06162 0
M  V30 1108 H 103.602 -3.84916 2.00056 0
M  V30 1109 H 104.273 -5.35069 1.35665 0
M  V30 1110 H 106.749 -4.15805 -0.156776 0
M  V30 1111 H 105.625 -5.45038 -0.649942 0
M  V30 1112 H 105.886 -4.07598 -1.71219 0
M  V30 1113 N 104.945 -0.338344 -1.53925 0
M  V30 1114 C 106.17 0.263987 -2.05713 0
M  V30 1115 C 106.595 1.43847 -1.21201 0
M  V30 1116 O 105.953 1.79904 -0.224535 0
M  V30 1117 C 106.001 0.662 -3.54471 0
M  V30 1118 O 105.105 1.76265 -3.72833 0
M  V30 1119 H 104.446 0.0448722 -0.662482 0
M  V30 1120 H 106.976 -0.491048 -1.9862 0
M  V30 1121 H 106.986 0.940594 -3.9701 0
M  V30 1122 H 105.661 -0.196937 -4.15433 0
M  V30 1123 H 104.238 1.48173 -3.42198 0
M  V30 1124 N 106.423 1.57458 -0.0668435 0
M  V30 1125 C 107.333 2.15937 0.916975 0
M  V30 1126 C 108.349 1.12123 1.33058 0
M  V30 1127 O 109.525 1.44366 1.40429 0
M  V30 1128 C 106.59 2.70547 2.16807 0
M  V30 1129 C 105.651 3.89215 1.81135 0
M  V30 1130 C 104.884 4.41211 3.0028 0
M  V30 1131 O 105.107 3.92225 4.14144 0
M  V30 1132 O 104.041 5.32605 2.80384 0
M  V30 1133 H 107.867 3.00354 0.449561 0
M  V30 1134 H 105.452 1.48584 0.155949 0
M  V30 1135 H 107.334 3.0557 2.90181 0
M  V30 1136 H 106.009 1.89192 2.62656 0
M  V30 1137 H 104.916 3.59054 1.05028 0
M  V30 1138 H 106.249 4.71848 1.40073 0
M  V30 1139 N 107.901 -0.206675 1.56239 0
M  V30 1140 C 109.312 -0.772383 1.69974 0
M  V30 1141 C 109.663 -1.84353 0.671436 0
M  V30 1142 O 108.788 -2.15695 -0.174491 0
M  V30 1143 C 109.383 -1.40779 3.08167 0
M  V30 1144 C 107.942 -1.92072 3.23706 0
M  V30 1145 C 107.089 -0.786347 2.65917 0
M  V30 1146 H 110.04 0.0182223 1.5869 0
M  V30 1147 H 110.061 -2.27696 3.04852 0
M  V30 1148 H 109.573 -0.627958 3.82986 0
M  V30 1149 H 107.674 -2.7281 2.53782 0
M  V30 1150 H 107.787 -2.09046 4.31087 0
M  V30 1151 H 106.151 -1.1976 2.24788 0
M  V30 1152 H 106.934 -0.0189416 3.43295 0
M  V30 1153 N 109.379 -1.50304 -0.473955 0
M  V30 1154 C 110.309 -1.71886 -1.58042 0
M  V30 1155 C 111.29 -0.567799 -1.60344 0
M  V30 1156 O 112.475 -0.806623 -1.76656 0
M  V30 1157 C 109.605 -1.81036 -2.96384 0
M  V30 1158 C 108.559 -2.962 -3.08949 0
M  V30 1159 C 107.885 -2.9049 -4.48909 0
M  V30 1160 C 109.185 -4.36752 -2.86434 0
M  V30 1161 H 110.879 -2.64527 -1.40234 0
M  V30 1162 H 108.425 -1.27295 -0.673201 0
M  V30 1163 H 110.378 -1.94719 -3.73714 0
M  V30 1164 H 109.102 -0.850147 -3.15341 0
M  V30 1165 H 107.761 -2.82164 -2.3405 0
M  V30 1166 H 107.409 -1.92321 -4.64781 0
M  V30 1167 H 107.109 -3.67802 -4.58253 0
M  V30 1168 H 108.633 -3.06218 -5.28264 0
M  V30 1169 H 110.047 -4.5133 -3.53517 0
M  V30 1170 H 108.444 -5.15493 -3.07225 0
M  V30 1171 H 109.514 -4.49321 -1.82316 0
M  V30 1172 N 110.857 0.726932 -1.39834 0
M  V30 1173 C 111.767 1.87131 -1.41489 0
M  V30 1174 C 112.783 1.71239 -0.308757 0
M  V30 1175 O 113.959 1.93701 -0.551529 0
M  V30 1176 C 111.024 3.22811 -1.26468 0
M  V30 1177 C 110.085 3.51039 -2.47124 0
M  V30 1178 C 109.318 4.80245 -2.3281 0
M  V30 1179 O 109.541 5.54537 -1.33585 0
M  V30 1180 O 108.475 5.08554 -3.21957 0
M  V30 1181 H 112.301 1.8869 -2.3797 0
M  V30 1182 H 109.886 0.875837 -1.21035 0
M  V30 1183 H 111.768 4.03877 -1.20255 0
M  V30 1184 H 110.443 3.22005 -0.330862 0
M  V30 1185 H 109.35 2.70027 -2.58914 0
M  V30 1186 H 110.683 3.56632 -3.39227 0
M  V30 1187 N 112.336 1.25143 0.95797 0
M  V30 1188 C 113.613 1.00472 1.67823 0
M  V30 1189 C 113.993 -0.470056 2.058 0
M  V30 1190 O 113.341 -1.44663 1.76875 0
M  V30 1191 C 113.551 1.9372 2.90299 0
M  V30 1192 C 114.899 2.21371 3.62326 0
M  V30 1193 O 115.923 1.91451 3.00375 0
M  V30 1194 O 114.782 2.72231 4.7387 0
M  V30 1195 H 111.876 0.380752 0.734137 0
M  V30 1196 H 114.422 1.36283 1.01119 0
M  V30 1197 H 113.194 2.93316 2.59001 0
M  V30 1198 H 112.817 1.58286 3.64735 0
M  V30 1199 N 113.814 -1.1601 1.06675 0
M  V30 1200 C 114.744 -2.22688 0.702307 0
M  V30 1201 C 115.725 -1.67306 -0.307032 0
M  V30 1202 O 116.91 -1.93352 -0.181305 0
M  V30 1203 C 114.04 -3.47178 0.092038 0
M  V30 1204 C 112.994 -4.15477 1.02777 0
M  V30 1205 C 112.32 -5.33963 0.28061 0
M  V30 1206 C 113.62 -4.66019 2.35846 0
M  V30 1207 H 115.314 -2.53429 1.59419 0
M  V30 1208 H 112.86 -1.21813 0.767961 0
M  V30 1209 H 114.813 -4.21037 -0.174814 0
M  V30 1210 H 113.537 -3.15749 -0.834877 0
M  V30 1211 H 112.196 -3.43549 1.27944 0
M  V30 1212 H 111.844 -4.98788 -0.649545 0
M  V30 1213 H 111.544 -5.806 0.904258 0
M  V30 1214 H 113.068 -6.10596 0.021396 0
M  V30 1215 H 114.482 -5.3144 2.15045 0
M  V30 1216 H 112.879 -5.23293 2.93743 0
M  V30 1217 H 113.949 -3.82023 2.98641 0
M  V30 1218 N 115.292 -0.849877 -1.32721 0
M  V30 1219 C 116.569 -0.372405 -1.92022 0
M  V30 1220 C 116.949 1.1435 -1.77447 0
M  V30 1221 O 116.297 1.96296 -1.16962 0
M  V30 1222 C 116.507 -0.831482 -3.3895 0
M  V30 1223 C 117.855 -0.845882 -4.16089 0
M  V30 1224 O 118.879 -0.775806 -3.47649 0
M  V30 1225 O 117.738 -0.943753 -5.38289 0
M  V30 1226 H 114.832 -0.107667 -0.819961 0
M  V30 1227 H 117.378 -0.93646 -1.41522 0
M  V30 1228 H 116.15 -1.87448 -3.4348 0
M  V30 1229 H 115.773 -0.24461 -3.96847 0
M  V30 1230 N 116.77 1.45427 -0.607355 0
M  V30 1231 C 118.181 1.85756 -0.187535 0
M  V30 1232 C 118.532 1.5077 1.25551 0
M  V30 1233 O 117.657 0.93427 1.95193 0
M  V30 1234 C 118.252 3.37154 -0.333572 0
M  V30 1235 C 116.811 3.76387 0.0315542 0
M  V30 1236 C 115.958 2.69377 -0.658117 0
M  V30 1237 H 118.909 1.36231 -0.81405 0
M  V30 1238 H 118.93 3.78014 0.43428 0
M  V30 1239 H 118.442 3.62586 -1.38393 0
M  V30 1240 H 116.543 3.56571 1.0811 0
M  V30 1241 H 116.656 4.77731 -0.361935 0
M  V30 1242 H 115.02 2.5452 -0.0957873 0
M  V30 1243 H 115.803 2.97646 -1.7106 0
M  V30 1244 N 118.248 0.346503 1.53744 0
M  V30 1245 C 119.478 -0.250047 2.05081 0
M  V30 1246 C 119.886 -1.44529 1.22098 0
M  V30 1247 O 119.229 -1.81992 0.249917 0
M  V30 1248 C 119.291 -0.725934 3.52094 0
M  V30 1249 C 118.955 0.350053 4.55657 0
M  V30 1250 C 119.952 1.19372 5.0601 0
M  V30 1251 C 117.637 0.504827 4.99757 0
M  V30 1252 C 119.631 2.17768 5.99046 0
M  V30 1253 C 117.318 1.49218 5.92602 0
M  V30 1254 C 118.316 2.32706 6.42135 0
M  V30 1255 O 118.004 3.2976 7.33153 0
M  V30 1256 H 117.736 -0.0515469 0.674032 0
M  V30 1257 H 120.29 0.497559 1.99282 0
M  V30 1258 H 118.52 -1.52483 3.55367 0
M  V30 1259 H 120.209 -1.24336 3.86388 0
M  V30 1260 H 120.975 1.08525 4.72702 0
M  V30 1261 H 116.854 -0.135178 4.60802 0
M  V30 1262 H 120.398 2.82971 6.37631 0
M  V30 1263 H 116.295 1.6012 6.25325 0
M  V30 1264 H 117.063 3.25265 7.51096 0
M  V30 1265 N 119.726 -1.57421 0.075193 0
M  V30 1266 C 120.956 -1.97659 -0.601203 0
M  V30 1267 C 121.364 -0.952427 -1.63479 0
M  V30 1268 O 120.707 0.0688241 -1.83571 0
M  V30 1269 C 120.769 -3.34218 -1.32434 0
M  V30 1270 C 120.433 -4.5484 -0.443826 0
M  V30 1271 C 121.43 -5.19034 0.299969 0
M  V30 1272 C 119.115 -5.00952 -0.367709 0
M  V30 1273 C 121.109 -6.27695 1.10807 0
M  V30 1274 C 118.796 -6.09484 0.444058 0
M  V30 1275 C 119.794 -6.72719 1.18061 0
M  V30 1276 O 119.482 -7.79161 1.97898 0
M  V30 1277 H 119.214 -0.65494 -0.167422 0
M  V30 1278 H 121.768 -2.04886 0.145157 0
M  V30 1279 H 119.998 -3.23615 -2.11685 0
M  V30 1280 H 121.687 -3.59038 -1.89331 0
M  V30 1281 H 122.453 -4.84351 0.250776 0
M  V30 1282 H 118.332 -4.51509 -0.930638 0
M  V30 1283 H 121.876 -6.76982 1.68347 0
M  V30 1284 H 117.773 -6.43601 0.494803 0
M  V30 1285 H 118.541 -7.96055 1.90367 0
M  V30 1286 N 121.204 0.198386 -1.56346 0
M  V30 1287 C 122.167 1.22952 -1.93431 0
M  V30 1288 C 123.167 1.38611 -0.815092 0
M  V30 1289 O 124.357 1.36479 -1.08255 0
M  V30 1290 C 121.489 2.59946 -2.20546 0
M  V30 1291 H 122.682 0.912626 -2.85677 0
M  V30 1292 H 120.235 0.43977 -1.49986 0
M  V30 1293 H 120.97 2.96696 -1.30927 0
M  V30 1294 H 120.755 2.49953 -3.02102 0
M  V30 1295 H 122.245 3.3431 -2.50253 0
M  V30 1296 N 122.682 1.50554 0.465978 0
M  V30 1297 C 123.959 1.5232 1.22712 0
M  V30 1298 C 124.339 0.270807 2.09356 0
M  V30 1299 O 123.687 -0.745541 2.15995 0
M  V30 1300 C 123.897 2.82175 2.05374 0
M  V30 1301 C 125.245 3.33033 2.6339 0
M  V30 1302 O 126.269 2.83531 2.15612 0
M  V30 1303 O 125.128 4.19336 3.50456 0
M  V30 1304 H 122.222 0.611183 0.557122 0
M  V30 1305 H 124.768 1.62847 0.477381 0
M  V30 1306 H 123.54 3.64797 1.41558 0
M  V30 1307 H 123.163 2.74675 2.87471 0
M  V30 1308 N 124.16 -0.719506 1.40217 0
M  V30 1309 C 125.107 -1.83359 1.40172 0
M  V30 1310 C 126.077 -1.64065 0.259206 0
M  V30 1311 O 127.262 -1.85254 0.456677 0
M  V30 1312 C 124.402 -3.2103 1.26624 0
M  V30 1313 C 123.515 -3.51923 2.50548 0
M  V30 1314 C 122.65 -4.79079 2.29471 0
M  V30 1315 C 121.689 -5.02863 3.48992 0
M  V30 1316 N 120.826 -6.2123 3.27135 0
M  V30 1317 H 125.666 -1.82733 2.35399 0
M  V30 1318 H 123.203 -0.892688 1.16917 0
M  V30 1319 H 125.161 -4.00524 1.16776 0
M  V30 1320 H 123.791 -3.20895 0.350176 0
M  V30 1321 H 122.843 -2.67014 2.70939 0
M  V30 1322 H 124.155 -3.6541 3.39525 0
M  V30 1323 H 123.309 -5.66582 2.16955 0
M  V30 1324 H 122.048 -4.67794 1.37913 0
M  V30 1325 H 121.053 -4.13816 3.6199 0
M  V30 1326 H 122.278 -5.16023 4.41472 0
M  V30 1327 H 120.224 -6.11204 2.38256 0
M  V30 1328 H 120.141 -6.35375 4.09675 0
M  V30 1329 H 121.409 -7.11532 3.18344 0
M  V30 1330 N 125.638 -1.25649 -0.95132 0
M  V30 1331 C 126.585 -1.06323 -2.04851 0
M  V30 1332 C 127.555 0.0286491 -1.66075 0
M  V30 1333 O 128.74 -0.12917 -1.90362 0
M  V30 1334 C 125.88 -0.691529 -3.381 0
M  V30 1335 C 124.993 -1.85861 -3.89974 0
M  V30 1336 C 124.128 -1.43096 -5.11563 0
M  V30 1337 C 123.167 -2.56696 -5.55674 0
M  V30 1338 N 122.304 -2.14684 -6.68472 0
M  V30 1339 H 127.144 -2.00222 -2.20715 0
M  V30 1340 H 124.681 -0.997027 -1.08156 0
M  V30 1341 H 126.639 -0.456963 -4.1469 0
M  V30 1342 H 125.269 0.210474 -3.22113 0
M  V30 1343 H 124.321 -2.20639 -3.09875 0
M  V30 1344 H 125.633 -2.71161 -4.18657 0
M  V30 1345 H 124.787 -1.15624 -5.9558 0
M  V30 1346 H 123.526 -0.548722 -4.84603 0
M  V30 1347 H 122.531 -2.84909 -4.7022 0
M  V30 1348 H 123.756 -3.45503 -5.8464 0
M  V30 1349 H 121.702 -1.28881 -6.43215 0
M  V30 1350 H 121.619 -2.9353 -6.96689 0
M  V30 1351 H 122.887 -1.90397 -7.5589 0
M  V30 1352 N 127.117 1.15442 -1.07289 0
M  V30 1353 C 128.345 1.90096 -0.81676 0
M  V30 1354 C 128.76 1.7798 0.629966 0
M  V30 1355 O 128.117 1.1313 1.43206 0
M  V30 1356 C 128.168 3.40466 -1.21512 0
M  V30 1357 O 127.889 3.52232 -2.60508 0
M  V30 1358 C 129.39 4.32145 -0.988198 0
M  V30 1359 H 126.61 0.602495 -0.295366 0
M  V30 1360 H 129.154 1.4627 -1.42918 0
M  V30 1361 H 127.309 3.81958 -0.647039 0
M  V30 1362 H 127.723 4.45549 -2.76742 0
M  V30 1363 H 129.197 5.36072 -1.31645 0
M  V30 1364 H 129.674 4.39135 0.0755063 0
M  V30 1365 H 130.28 3.96395 -1.54115 0
M  V30 1366 N 128.595 0.856903 1.32268 0
M  V30 1367 C 129.842 0.461386 1.97174 0
M  V30 1368 C 130.17 -0.983491 1.67803 0
M  V30 1369 O 129.425 -1.70541 0.959903 0
M  V30 1370 C 129.724 0.649919 3.51441 0
M  V30 1371 C 129.39 2.0656 4.00804 0
M  V30 1372 C 128.052 2.45279 4.13995 0
M  V30 1373 C 130.404 2.98947 4.26943 0
M  V30 1374 C 127.732 3.75653 4.50668 0
M  V30 1375 C 130.084 4.28822 4.65075 0
M  V30 1376 C 128.748 4.67472 4.76472 0
M  V30 1377 H 128.018 0.168833 0.72151 0
M  V30 1378 H 130.665 1.08739 1.57633 0
M  V30 1379 H 128.97 -0.0593018 3.91755 0
M  V30 1380 H 130.667 0.32391 3.9969 0
M  V30 1381 H 127.257 1.75495 3.91024 0
M  V30 1382 H 131.441 2.70265 4.16258 0
M  V30 1383 H 126.697 4.05379 4.57688 0
M  V30 1384 H 130.871 5.0047 4.84255 0
M  V30 1385 H 128.498 5.68539 5.04646 0
M  V30 1386 N 130.073 -1.45103 0.615059 0
M  V30 1387 C 131.322 -2.01396 0.110718 0
M  V30 1388 C 131.635 -1.48834 -1.26916 0
M  V30 1389 O 132.841 -1.97152 -1.86664 0
M  V30 1390 C 131.297 -3.59599 0.14723 0
M  V30 1391 C 130.905 -4.21158 1.52743 0
M  V30 1392 C 132.649 -4.23428 -0.30148 0
M  V30 1393 C 130.556 -5.71535 1.51992 0
M  V30 1394 H 129.486 -0.753061 0.0376241 0
M  V30 1395 H 132.137 -1.66494 0.77149 0
M  V30 1396 H 130.519 -3.91724 -0.580339 0
M  V30 1397 H 131.693 -4.00594 2.2773 0
M  V30 1398 H 130.008 -3.69552 1.91886 0
M  V30 1399 H 132.605 -5.33703 -0.326392 0
M  V30 1400 H 132.948 -3.94629 -1.32565 0
M  V30 1401 H 133.481 -3.96047 0.373065 0
M  V30 1402 H 130.22 -6.05044 2.52193 0
M  V30 1403 H 129.74 -5.94268 0.81274 0
M  V30 1404 H 131.419 -6.34873 1.24681 0
M  V30 1405 N 131.551 -0.354651 -1.53558 0
M  V30 1406 C 132.797 0.238797 -2.01389 0
M  V30 1407 C 133.13 1.49309 -1.2418 0
M  V30 1408 O 132.405 1.91638 -0.332457 0
M  V30 1409 C 132.688 0.541771 -3.56001 0
M  V30 1410 C 132.541 -0.725388 -4.43912 0
M  V30 1411 C 133.86 1.34685 -4.18984 0
M  V30 1412 H 130.979 0.0853177 -0.732045 0
M  V30 1413 H 133.621 -0.477384 -1.83905 0
M  V30 1414 H 131.771 1.15189 -3.71031 0
M  V30 1415 H 133.443 -1.36313 -4.407 0
M  V30 1416 H 131.686 -1.34801 -4.12324 0
M  V30 1417 H 132.357 -0.468505 -5.50008 0
M  V30 1418 H 134.833 0.830837 -4.07721 0
M  V30 1419 H 133.709 1.52759 -5.27215 0
M  V30 1420 H 133.97 2.35221 -3.74331 0
M  V30 1421 N 133.029 1.57378 -0.0835403 0
M  V30 1422 C 133.959 2.1641 0.87686 0
M  V30 1423 C 134.94 1.09429 1.30228 0
M  V30 1424 O 136.125 1.37516 1.37124 0
M  V30 1425 C 133.255 2.73517 2.14022 0
M  V30 1426 C 132.209 3.85769 1.85381 0
M  V30 1427 C 131.535 4.29529 3.18448 0
M  V30 1428 C 132.835 5.09486 1.14984 0
M  V30 1429 H 134.529 2.96914 0.385059 0
M  V30 1430 H 132.075 1.42823 0.18377 0
M  V30 1431 H 134.028 3.13463 2.81636 0
M  V30 1432 H 132.752 1.90252 2.65465 0
M  V30 1433 H 131.411 3.46345 1.20169 0
M  V30 1434 H 131.059 3.43169 3.67755 0
M  V30 1435 H 130.759 5.05204 3.00071 0
M  V30 1436 H 132.283 4.72099 3.8724 0
M  V30 1437 H 133.697 5.46674 1.72687 0
M  V30 1438 H 132.094 5.90515 1.06826 0
M  V30 1439 H 133.164 4.84724 0.130749 0
M  V30 1440 N 134.507 -0.190092 1.56449 0
M  V30 1441 C 135.455 -1.25501 1.95837 0
M  V30 1442 C 136.449 -1.4685 0.844485 0
M  V30 1443 O 137.655 -1.47651 1.02952 0
M  V30 1444 H 134.03 -0.421447 0.622805 0
M  V30 1445 H 136.001 -0.895821 2.84636 0
M  V30 1446 C 134.75 -2.59124 2.31841 0
M  V30 1447 H 134.073 -2.43514 3.17082 0
M  V30 1448 H 135.513 -3.32371 2.6326 0
M  V30 1449 C 133.972 -3.16488 1.15486 0
M  V30 1450 O 134.502 -3.99365 0.432535 0
M  V30 1451 N 132.708 -2.75305 0.930349 0
M  V30 1452 H 132.255 -2.08013 1.51948 0
M  V30 1453 H 132.213 -3.14024 0.153634 0
M  V30 1454 N 135.985 -1.50799 -0.457987 0
M  V30 1455 C 136.932 -1.70617 -1.5543 0
M  V30 1456 C 137.902 -0.547562 -1.56815 0
M  V30 1457 O 139.087 -0.779647 -1.74144 0
M  V30 1458 C 136.227 -1.81831 -2.93311 0
M  V30 1459 C 135.34 -3.09278 -3.01615 0
M  V30 1460 C 134.475 -3.11209 -4.30491 0
M  V30 1461 C 133.514 -4.33055 -4.32585 0
M  V30 1462 N 132.651 -4.32652 -5.52952 0
M  V30 1463 H 137.491 -2.64207 -1.37836 0
M  V30 1464 H 135.028 -1.30959 -0.669937 0
M  V30 1465 H 136.986 -1.86314 -3.73287 0
M  V30 1466 H 135.616 -0.916685 -3.0951 0
M  V30 1467 H 134.668 -3.14203 -2.1443 0
M  V30 1468 H 135.98 -3.99233 -2.99022 0
M  V30 1469 H 135.134 -3.14494 -5.18824 0
M  V30 1470 H 133.873 -2.19106 -4.35711 0
M  V30 1471 H 132.878 -4.29969 -3.42647 0
M  V30 1472 H 134.103 -5.264 -4.29046 0
M  V30 1473 H 132.049 -3.43409 -5.58933 0
M  V30 1474 H 131.966 -5.16392 -5.52155 0
M  V30 1475 H 133.234 -4.40101 -6.43375 0
M  V30 1476 N 137.463 0.71206 -1.40597 0
M  V30 1477 C 138.711 1.46907 -1.38791 0
M  V30 1478 C 139.032 1.94998 0.00780391 0
M  V30 1479 O 138.302 1.70587 0.963174 0
M  V30 1480 H 136.882 0.545043 -0.51082 0
M  V30 1481 H 139.544 0.843882 -1.75683 0
M  V30 1482 H 138.64 2.34021 -2.06496 0
M  V30 1483 N 138.941 1.26152 0.944643 0
M  V30 1484 C 139.888 1.07408 2.04285 0
M  V30 1485 C 140.858 -0.0198413 1.66088 0
M  V30 1486 O 142.043 0.139264 1.90291 0
M  V30 1487 C 139.183 0.70945 3.37729 0
M  V30 1488 C 138.296 1.87926 3.88983 0
M  V30 1489 C 137.431 1.45807 5.10797 0
M  V30 1490 C 136.47 2.5964 5.54305 0
M  V30 1491 N 135.607 2.18226 6.67324 0
M  V30 1492 H 140.447 2.01389 2.1965 0
M  V30 1493 H 137.984 1.00275 1.07626 0
M  V30 1494 H 139.942 0.478948 4.14442 0
M  V30 1495 H 138.572 -0.193389 3.2222 0
M  V30 1496 H 137.624 2.22279 3.08701 0
M  V30 1497 H 138.936 2.73377 4.17213 0
M  V30 1498 H 138.09 1.18781 5.94959 0
M  V30 1499 H 136.829 0.574414 4.84305 0
M  V30 1500 H 135.834 2.87399 4.68702 0
M  V30 1501 H 137.059 3.48599 5.828 0
M  V30 1502 H 135.005 1.3229 6.42523 0
M  V30 1503 H 134.922 2.97221 6.95123 0
M  V30 1504 H 136.19 1.94403 7.54869 0
M  V30 1505 N 140.419 -1.14872 1.07899 0
M  V30 1506 C 141.647 -1.89661 0.82683 0
M  V30 1507 C 142.062 -1.78312 -0.620519 0
M  V30 1508 O 141.419 -1.13888 -1.42604 0
M  V30 1509 C 141.47 -3.39817 1.23316 0
M  V30 1510 O 141.191 -3.50845 2.62372 0
M  V30 1511 C 142.692 -4.31615 1.0111 0
M  V30 1512 H 139.912 -0.60092 0.298557 0
M  V30 1513 H 142.456 -1.4551 1.43691 0
M  V30 1514 H 140.611 -3.8161 0.667286 0
M  V30 1515 H 141.025 -4.44076 2.79101 0
M  V30 1516 H 142.499 -5.35367 1.34486 0
M  V30 1517 H 142.976 -4.39169 -0.0522168 0
M  V30 1518 H 143.582 -3.95572 1.56215 0
M  V30 1519 N 141.898 -0.863906 -1.31812 0
M  V30 1520 C 143.147 -0.46801 -1.96195 0
M  V30 1521 C 143.46 0.983474 -1.69077 0
M  V30 1522 O 144.666 1.48523 -2.27273 0
M  V30 1523 C 143.122 -0.785995 -3.51212 0
M  V30 1524 C 142.73 -2.25383 -3.87178 0
M  V30 1525 C 144.474 -0.458274 -4.22019 0
M  V30 1526 C 142.381 -2.51455 -5.3528 0
M  V30 1527 H 141.311 -0.171283 -0.734287 0
M  V30 1528 H 143.962 -1.05597 -1.50072 0
M  V30 1529 H 142.344 -0.127359 -3.95795 0
M  V30 1530 H 143.518 -2.95502 -3.53575 0
M  V30 1531 H 141.833 -2.54698 -3.2942 0
M  V30 1532 H 144.43 -0.630369 -5.30971 0
M  V30 1533 H 144.773 0.600834 -4.11941 0
M  V30 1534 H 145.306 -1.07319 -3.8305 0
M  V30 1535 H 142.045 -3.56025 -5.50387 0
M  V30 1536 H 141.565 -1.85923 -5.70257 0
M  V30 1537 H 143.244 -2.35874 -6.02472 0
M  V30 1538 N 143.376 1.44774 -0.622745 0
M  V30 1539 C 144.623 2.02121 -0.1239 0
M  V30 1540 C 144.951 1.48915 1.25118 0
M  V30 1541 O 144.206 0.660045 1.84233 0
M  V30 1542 C 144.505 3.57364 -0.0508323 0
M  V30 1543 C 144.171 4.29787 -1.36358 0
M  V30 1544 C 142.833 4.4929 -1.72314 0
M  V30 1545 C 145.185 4.71062 -2.23048 0
M  V30 1546 C 142.513 5.07325 -2.94682 0
M  V30 1547 C 144.865 5.30452 -3.44679 0
M  V30 1548 C 143.529 5.48175 -3.80868 0
M  V30 1549 H 142.799 0.739612 -0.0453381 0
M  V30 1550 H 145.446 1.73648 -0.807389 0
M  V30 1551 H 143.751 3.85202 0.715991 0
M  V30 1552 H 145.448 3.99456 0.351533 0
M  V30 1553 H 142.038 4.14932 -1.07375 0
M  V30 1554 H 146.222 4.55715 -1.96565 0
M  V30 1555 H 141.478 5.19235 -3.22809 0
M  V30 1556 H 145.652 5.61385 -4.12092 0
M  V30 1557 H 143.279 5.92912 -4.75773 0
M  V30 1558 N 144.854 0.36279 1.53368 0
M  V30 1559 C 146.27 0.0116182 1.59596 0
M  V30 1560 C 146.47 -1.47012 1.37803 0
M  V30 1561 O 145.526 -2.23136 1.18181 0
M  V30 1562 C 146.839 0.465052 2.97082 0
M  V30 1563 C 148.387 0.419033 3.10182 0
M  V30 1564 C 148.862 0.848235 4.50077 0
M  V30 1565 N 150.353 0.803183 4.56183 0
M  V30 1566 C 151.088 1.107 5.62613 0
M  V30 1567 N 150.584 1.47996 6.76808 0
M  V30 1568 N 152.377 1.02998 5.52583 0
M  V30 1569 H 144.528 1.32775 1.65785 0
M  V30 1570 H 146.791 0.542518 0.777417 0
M  V30 1571 H 146.497 1.49892 3.18159 0
M  V30 1572 H 146.371 -0.149786 3.76902 0
M  V30 1573 H 148.758 -0.605696 2.88817 0
M  V30 1574 H 148.839 1.06933 2.32377 0
M  V30 1575 H 148.483 1.87107 4.7218 0
M  V30 1576 H 148.413 0.175218 5.26308 0
M  V30 1577 H 150.904 0.52838 3.74188 0
M  V30 1578 H 151.217 1.69613 7.53957 0
M  V30 1579 H 149.562 1.51859 6.78206 0
M  V30 1580 H 152.753 0.737817 4.62249 0
M  V30 1581 H 152.926 1.2701 6.35431 0
M  V30 1582 N 146.332 -1.57332 0.0918853 0
M  V30 1583 C 147.579 -1.94236 -0.572577 0
M  V30 1584 C 147.907 -0.973398 -1.6839 0
M  V30 1585 O 147.162 0.00756912 -1.95699 0
M  V30 1586 C 147.461 -3.37689 -1.17051 0
M  V30 1587 C 147.127 -4.50527 -0.183304 0
M  V30 1588 C 145.789 -4.81119 0.0882276 0
M  V30 1589 C 148.141 -5.18883 0.49095 0
M  V30 1590 C 145.469 -5.77395 1.04076 0
M  V30 1591 C 147.821 -6.1618 1.43193 0
M  V30 1592 C 146.485 -6.45179 1.71173 0
M  V30 1593 H 145.755 -0.710762 -0.209521 0
M  V30 1594 H 148.402 -1.9077 0.167036 0
M  V30 1595 H 146.707 -3.37718 -1.9863 0
M  V30 1596 H 148.404 -3.63543 -1.69227 0
M  V30 1597 H 144.994 -4.26681 -0.405124 0
M  V30 1598 H 149.178 -4.95427 0.294312 0
M  V30 1599 H 144.434 -5.98179 1.26457 0
M  V30 1600 H 148.608 -6.68243 1.96023 0
M  V30 1601 H 146.235 -7.1959 2.4514 0
M  V30 1602 N 147.81 0.181792 -1.56548 0
M  V30 1603 C 148.758 1.24461 -1.965 0
M  V30 1604 C 149.752 1.464 -0.852261 0
M  V30 1605 O 150.958 1.47103 -1.03733 0
M  V30 1606 H 147.333 0.418138 -0.625031 0
M  V30 1607 H 149.304 0.880714 -2.85107 0
M  V30 1608 C 148.053 2.57891 -2.33212 0
M  V30 1609 H 147.376 2.41829 -3.18369 0
M  V30 1610 H 148.816 3.3097 -2.65019 0
M  V30 1611 C 147.275 3.15871 -1.17163 0
M  V30 1612 O 147.805 3.9913 -0.453708 0
M  V30 1613 N 146.011 2.74808 -0.944936 0
M  V30 1614 H 145.558 2.07205 -1.53049 0
M  V30 1615 H 145.516 3.13939 -0.170286 0
M  V30 1616 N 149.288 1.51039 0.449983 0
M  V30 1617 C 150.251 1.70863 1.5277 0
M  V30 1618 C 151.251 0.578846 1.5002 0
M  V30 1619 O 152.441 0.846213 1.52266 0
M  V30 1620 C 149.573 1.75341 2.9235 0
M  V30 1621 H 150.766 2.67034 1.36502 0
M  V30 1622 H 148.319 1.40838 0.677812 0
M  V30 1623 H 149.054 0.809383 3.14037 0
M  V30 1624 H 148.839 2.57436 2.95752 0
M  V30 1625 H 150.329 1.92559 3.70555 0
M  V30 1626 N 150.766 -0.704594 1.40972 0
M  V30 1627 C 151.994 -1.49354 1.43182 0
M  V30 1628 C 152.409 -1.88768 0.0345508 0
M  V30 1629 O 151.766 -1.56184 -0.944081 0
M  V30 1630 C 151.817 -2.76187 2.33244 0
M  V30 1631 O 151.538 -2.38436 3.67532 0
M  V30 1632 C 153.039 -3.7 2.44162 0
M  V30 1633 H 150.259 -0.460559 0.487982 0
M  V30 1634 H 152.803 -0.868261 1.85153 0
M  V30 1635 H 150.958 -3.34974 1.94606 0
M  V30 1636 H 151.372 -3.20126 4.15475 0
M  V30 1637 H 152.846 -4.55803 3.11364 0
M  V30 1638 H 153.323 -4.13867 1.47006 0
M  V30 1639 H 153.929 -3.17121 2.83398 0
M  V30 1640 N 152.244 -1.26651 -0.937939 0
M  V30 1641 C 153.655 -1.1125 -1.49934 0
M  V30 1642 C 154.006 0.306077 -1.93798 0
M  V30 1643 O 153.131 1.19792 -1.80219 0
M  V30 1644 C 153.726 -2.01339 -2.72485 0
M  V30 1645 C 152.285 -1.90074 -3.24883 0
M  V30 1646 C 151.432 -1.94498 -1.97651 0
M  V30 1647 H 154.383 -1.39693 -0.753091 0
M  V30 1648 H 154.404 -1.56319 -3.46907 0
M  V30 1649 H 153.916 -3.04577 -2.40529 0
M  V30 1650 H 152.017 -0.897827 -3.61621 0
M  V30 1651 H 152.13 -2.75778 -3.9177 0
M  V30 1652 H 150.494 -1.38591 -2.13693 0
M  V30 1653 H 151.277 -2.99372 -1.68022 0
M  V30 1654 N 153.722 1.14298 -1.08507 0
M  V30 1655 C 154.685 2.17607 -0.719711 0
M  V30 1656 C 155.685 1.58907 0.245997 0
M  V30 1657 O 156.875 1.74181 0.0254081 0
M  V30 1658 C 154.007 3.40842 -0.0627695 0
M  V30 1659 H 155.2 2.51443 -1.63452 0
M  V30 1660 H 152.753 1.28963 -0.88307 0
M  V30 1661 H 153.488 3.12587 0.863716 0
M  V30 1662 H 153.273 3.84713 -0.757504 0
M  V30 1663 H 154.763 4.17221 0.177786 0
M  V30 1664 N 155.201 0.870884 1.31352 0
M  V30 1665 C 156.131 0.343096 2.30966 0
M  V30 1666 C 157.112 -0.566507 1.60389 0
M  V30 1667 O 158.297 -0.483336 1.88089 0
M  V30 1668 C 155.427 -0.455487 3.443 0
M  V30 1669 C 154.381 0.361103 4.26474 0
M  V30 1670 C 153.707 -0.563221 5.31725 0
M  V30 1671 C 155.007 1.59566 4.97329 0
M  V30 1672 H 156.701 1.17548 2.75359 0
M  V30 1673 H 154.247 0.566686 1.32381 0
M  V30 1674 H 156.2 -0.83525 4.13039 0
M  V30 1675 H 154.924 -1.32139 2.98675 0
M  V30 1676 H 153.583 0.722825 3.59403 0
M  V30 1677 H 153.231 -1.42643 4.82351 0
M  V30 1678 H 152.931 -0.0207409 5.87596 0
M  V30 1679 H 154.455 -0.939808 6.03324 0
M  V30 1680 H 155.869 1.28728 5.58661 0
M  V30 1681 H 154.266 2.07728 5.63 0
M  V30 1682 H 155.336 2.34798 4.24262 0
M  V30 1683 N 156.679 -1.44442 0.630414 0
M  V30 1684 C 157.909 -2.06115 0.141465 0
M  V30 1685 C 158.317 -1.47179 -1.1889 0
M  V30 1686 O 157.66 -0.588873 -1.74006 0
M  V30 1687 C 157.722 -3.59467 -0.0484355 0
M  V30 1688 C 157.386 -4.40864 1.20366 0
M  V30 1689 C 158.383 -4.74391 2.12719 0
M  V30 1690 C 156.068 -4.8125 1.43887 0
M  V30 1691 C 158.062 -5.47186 3.26904 0
M  V30 1692 C 155.749 -5.53795 2.5837 0
M  V30 1693 C 156.747 -5.86682 3.49705 0
M  V30 1694 O 156.435 -6.57749 4.62191 0
M  V30 1695 H 156.167 -0.671648 0.0765792 0
M  V30 1696 H 158.721 -1.86312 0.864695 0
M  V30 1697 H 156.951 -3.77758 -0.826803 0
M  V30 1698 H 158.64 -4.02909 -0.491849 0
M  V30 1699 H 159.406 -4.43728 1.95781 0
M  V30 1700 H 155.285 -4.55073 0.736853 0
M  V30 1701 H 158.829 -5.72773 3.98217 0
M  V30 1702 H 154.726 -5.83872 2.75251 0
M  V30 1703 H 155.494 -6.76217 4.61164 0
M  V30 1704 N 158.157 -0.370918 -1.53173 0
M  V30 1705 C 159.09 0.516727 -2.22273 0
M  V30 1706 C 160.068 1.07877 -1.21661 0
M  V30 1707 O 161.252 1.13389 -1.50583 0
M  V30 1708 C 158.379 1.71346 -2.92161 0
M  V30 1709 C 157.425 1.27838 -4.0689 0
M  V30 1710 S 158.258 0.275217 -5.34792 0
M  V30 1711 C 159.414 1.47816 -6.08195 0
M  V30 1712 H 159.647 -0.0701054 -2.97217 0
M  V30 1713 H 157.18 -0.155038 -1.5362 0
M  V30 1714 H 159.138 2.39988 -3.3304 0
M  V30 1715 H 157.799 2.27156 -2.16931 0
M  V30 1716 H 156.992 2.17141 -4.54825 0
M  V30 1717 H 156.594 0.671105 -3.6793 0
M  V30 1718 H 158.886 2.40831 -6.33251 0
M  V30 1719 H 159.829 1.04008 -7.0042 0
M  V30 1720 H 160.237 1.68663 -5.38714 0
M  V30 1721 N 159.635 1.57281 -0.100228 0
M  V30 1722 C 160.565 2.17328 0.853857 0
M  V30 1723 C 161.546 1.10804 1.2906 0
M  V30 1724 O 162.731 1.38963 1.35657 0
M  V30 1725 C 159.861 2.75772 2.11109 0
M  V30 1726 C 158.815 3.87713 1.81279 0
M  V30 1727 C 158.141 4.32882 3.13874 0
M  V30 1728 C 159.441 5.10677 1.09574 0
M  V30 1729 H 161.135 2.97305 0.353545 0
M  V30 1730 H 158.681 1.43009 0.168612 0
M  V30 1731 H 160.634 3.16433 2.78296 0
M  V30 1732 H 159.358 1.93057 2.63432 0
M  V30 1733 H 158.017 3.476 1.16489 0
M  V30 1734 H 157.665 3.47051 3.64095 0
M  V30 1735 H 157.365 5.08358 2.94696 0
M  V30 1736 H 158.889 4.7618 3.82211 0
M  V30 1737 H 160.303 5.48474 1.66879 0
M  V30 1738 H 158.7 5.91615 1.00557 0
M  V30 1739 H 159.77 4.84835 0.0793299 0
M  V30 1740 N 161.113 -0.173488 1.56642 0
M  V30 1741 C 162.338 -0.910149 1.86363 0
M  V30 1742 C 162.763 -1.75132 0.686318 0
M  V30 1743 O 162.121 -1.77595 -0.364643 0
M  V30 1744 C 162.169 -1.76447 3.14482 0
M  V30 1745 O 161.273 -2.86584 2.96553 0
M  V30 1746 H 160.614 -0.255086 0.613047 0
M  V30 1747 H 163.144 -0.172283 2.03873 0
M  V30 1748 H 163.154 -2.16483 3.45831 0
M  V30 1749 H 161.829 -1.14658 3.99783 0
M  V30 1750 H 160.406 -2.50146 2.76553 0
M  V30 1751 N 162.591 -1.51276 -0.441967 0
M  V30 1752 C 164.002 -1.56244 -1.02199 0
M  V30 1753 C 164.353 -0.383149 -1.92422 0
M  V30 1754 O 163.478 0.500613 -2.1053 0
M  V30 1755 C 164.073 -2.83162 -1.86024 0
M  V30 1756 C 162.632 -2.90716 -2.39084 0
M  V30 1757 C 161.779 -2.50858 -1.18175 0
M  V30 1758 H 164.73 -1.5712 -0.223416 0
M  V30 1759 H 164.751 -2.66663 -2.71425 0
M  V30 1760 H 164.263 -3.68974 -1.20331 0
M  V30 1761 H 162.364 -2.09323 -3.08244 0
M  V30 1762 H 162.477 -3.94266 -2.72198 0
M  V30 1763 H 160.841 -2.03951 -1.52565 0
M  V30 1764 H 161.624 -3.3901 -0.541001 0
M  V30 1765 N 164.069 0.697108 -1.41344 0
M  V30 1766 C 165.316 1.45714 -1.40619 0
M  V30 1767 C 165.644 1.94494 -0.0147907 0
M  V30 1768 O 164.899 1.69794 0.973066 0
M  V30 1769 C 165.198 2.68553 -2.35826 0
M  V30 1770 C 164.864 2.38438 -3.82698 0
M  V30 1771 C 163.526 2.29936 -4.22709 0
M  V30 1772 C 165.878 2.13567 -4.75435 0
M  V30 1773 C 163.206 1.94656 -5.53467 0
M  V30 1774 C 165.558 1.79797 -6.06511 0
M  V30 1775 C 164.222 1.69789 -6.45545 0
M  V30 1776 H 163.492 0.533206 -0.51456 0
M  V30 1777 H 166.139 0.796901 -1.74131 0
M  V30 1778 H 164.444 3.39503 -1.95563 0
M  V30 1779 H 166.141 3.2669 -2.32539 0
M  V30 1780 H 162.731 2.4595 -3.51008 0
M  V30 1781 H 166.915 2.19082 -4.45328 0
M  V30 1782 H 162.171 1.8546 -5.82593 0
M  V30 1783 H 166.345 1.59572 -6.77872 0
M  V30 1784 H 163.972 1.4222 -7.46778 0
M  V30 1785 N 165.547 1.27147 0.931209 0
M  V30 1786 C 166.772 1.16191 1.71797 0
M  V30 1787 C 167.197 -0.278004 1.86034 0
M  V30 1788 O 166.555 -1.20137 1.35782 0
M  V30 1789 C 166.603 1.84673 3.09723 0
M  V30 1790 O 165.707 1.14231 3.96264 0
M  V30 1791 H 165.048 0.404303 0.526721 0
M  V30 1792 H 167.578 1.68152 1.1656 0
M  V30 1793 H 167.588 1.91893 3.60057 0
M  V30 1794 H 166.263 2.89421 2.98677 0
M  V30 1795 H 164.84 1.15056 3.54706 0
M  V30 1796 N 167.025 -1.13721 1.09112 0
M  V30 1797 C 168.436 -1.6648 0.845068 0
M  V30 1798 C 168.787 -1.85911 -0.62701 0
M  V30 1799 O 167.912 -1.57556 -1.48341 0
M  V30 1800 C 168.507 -3.02413 1.52748 0
M  V30 1801 C 167.066 -3.52176 1.32849 0
M  V30 1802 C 166.213 -2.27492 1.58564 0
M  V30 1803 H 169.164 -0.976872 1.25072 0
M  V30 1804 H 169.185 -3.68223 0.958752 0
M  V30 1805 H 168.697 -2.88238 2.59885 0
M  V30 1806 H 166.798 -3.7156 0.278137 0
M  V30 1807 H 166.911 -4.32499 2.0611 0
M  V30 1808 H 165.275 -2.33923 1.00758 0
M  V30 1809 H 166.058 -2.15886 2.66924 0
M  V30 1810 N 168.503 -0.877838 -1.30888 0
M  V30 1811 C 169.433 -0.35534 -2.3078 0
M  V30 1812 C 170.414 0.557994 -1.60687 0
M  V30 1813 O 171.599 0.473355 -1.88343 0
M  V30 1814 C 168.729 0.437221 -3.44537 0
M  V30 1815 C 167.683 -0.383715 -4.26276 0
M  V30 1816 C 167.009 0.535014 -5.32017 0
M  V30 1817 C 168.309 -1.62201 -4.96476 0
M  V30 1818 H 170.003 -1.19007 -2.74732 0
M  V30 1819 H 167.549 -0.573698 -1.32078 0
M  V30 1820 H 169.502 0.813334 -4.13477 0
M  V30 1821 H 168.226 1.30553 -2.99372 0
M  V30 1822 H 166.885 -0.741874 -3.59015 0
M  V30 1823 H 166.533 1.40083 -4.831 0
M  V30 1824 H 166.233 -0.0104211 -5.87599 0
M  V30 1825 H 167.757 0.907799 -6.03814 0
M  V30 1826 H 169.171 -1.31689 -5.5797 0
M  V30 1827 H 167.568 -2.10711 -5.61891 0
M  V30 1828 H 168.638 -2.37044 -4.23011 0
M  V30 1829 N 169.982 1.44106 -0.638065 0
M  V30 1830 C 171.398 1.56672 -0.304286 0
M  V30 1831 C 171.598 1.6244 1.19228 0
M  V30 1832 O 170.654 1.57121 1.9766 0
M  V30 1833 C 171.967 2.83503 -1.00231 0
M  V30 1834 C 173.515 2.97226 -0.981116 0
M  V30 1835 C 173.99 4.26868 -1.65974 0
M  V30 1836 N 175.481 4.33698 -1.62666 0
M  V30 1837 C 176.216 5.32745 -2.12063 0
M  V30 1838 N 175.712 6.38157 -2.6968 0
M  V30 1839 N 177.505 5.24299 -2.02651 0
M  V30 1840 H 169.656 1.38605 -1.60942 0
M  V30 1841 H 171.919 0.664661 -0.675965 0
M  V30 1842 H 171.625 2.85251 -2.0573 0
M  V30 1843 H 171.499 3.73251 -0.54439 0
M  V30 1844 H 173.886 2.95027 0.0654188 0
M  V30 1845 H 173.967 2.08808 -1.47759 0
M  V30 1846 H 173.611 4.29826 -2.70576 0
M  V30 1847 H 173.541 5.14156 -1.13804 0
M  V30 1848 H 176.032 3.58138 -1.20606 0
M  V30 1849 H 176.345 7.10029 -3.05087 0
M  V30 1850 H 174.69 6.38823 -2.73734 0
M  V30 1851 H 177.881 4.4086 -1.57353 0
M  V30 1852 H 178.054 6.01334 -2.41457 0
M  V30 1853 N 171.46 0.379036 1.52974 0
M  V30 1854 C 172.876 0.0285448 1.59574 0
M  V30 1855 C 173.076 -1.45542 1.39355 0
M  V30 1856 O 172.132 -2.2187 1.20541 0
M  V30 1857 C 173.445 0.496535 2.96572 0
M  V30 1858 C 174.993 0.451909 3.0972 0
M  V30 1859 C 175.468 0.895924 4.49152 0
M  V30 1860 N 176.959 0.851522 4.55306 0
M  V30 1861 C 177.694 1.16661 5.61407 0
M  V30 1862 N 177.19 1.55166 6.752 0
M  V30 1863 N 178.983 1.08853 5.51459 0
M  V30 1864 H 171.134 1.34525 1.64367 0
M  V30 1865 H 173.397 0.550733 0.771619 0
M  V30 1866 H 173.103 1.53258 3.16552 0
M  V30 1867 H 172.977 -0.109802 3.7704 0
M  V30 1868 H 175.364 -0.575029 2.89443 0
M  V30 1869 H 175.445 1.09392 2.3123 0
M  V30 1870 H 175.089 1.92104 4.70168 0
M  V30 1871 H 175.019 0.23103 5.26093 0
M  V30 1872 H 177.51 0.568038 3.73606 0
M  V30 1873 H 177.823 1.776 7.52116 0
M  V30 1874 H 176.168 1.59044 6.76557 0
M  V30 1875 H 179.359 0.786803 4.6144 0
M  V30 1876 H 179.532 1.33742 6.34048 0
M  V30 1877 N 172.938 -1.57226 0.108567 0
M  V30 1878 C 174.187 -1.94008 -0.551703 0
M  V30 1879 C 174.5 -0.993442 -1.68494 0
M  V30 1880 O 175.706 -1.25551 -2.40726 0
M  V30 1881 C 174.162 -3.44763 -1.03279 0
M  V30 1882 C 173.77 -4.47943 0.0714193 0
M  V30 1883 C 175.514 -3.90483 -1.66503 0
M  V30 1884 C 173.421 -5.89865 -0.425779 0
M  V30 1885 H 172.351 -0.724206 -0.209863 0
M  V30 1886 H 175.002 -1.82547 0.186741 0
M  V30 1887 H 173.384 -3.51422 -1.82533 0
M  V30 1888 H 174.558 -4.52942 0.847365 0
M  V30 1889 H 172.873 -4.11913 0.609669 0
M  V30 1890 H 175.47 -4.93925 -2.04798 0
M  V30 1891 H 175.813 -3.29877 -2.53942 0
M  V30 1892 H 176.346 -3.86581 -0.938074 0
M  V30 1893 H 173.085 -6.54202 0.412316 0
M  V30 1894 H 172.605 -5.88309 -1.16843 0
M  V30 1895 H 174.284 -6.40844 -0.890397 0
M  V30 1896 N 174.416 0.165178 -1.56732 0
M  V30 1897 C 175.641 0.900253 -1.86843 0
M  V30 1898 C 176.066 1.74766 -0.695596 0
M  V30 1899 O 175.424 1.77786 0.35522 0
M  V30 1900 C 175.472 1.74777 -3.15413 0
M  V30 1901 O 174.576 2.85007 -2.98068 0
M  V30 1902 H 173.917 0.251832 -0.614391 0
M  V30 1903 H 176.447 0.161468 -2.03962 0
M  V30 1904 H 176.457 2.14646 -3.46974 0
M  V30 1905 H 175.132 1.12537 -4.00385 0
M  V30 1906 H 173.709 2.48676 -2.77875 0
M  V30 1907 N 175.894 1.51508 0.433938 0
M  V30 1908 C 177.143 1.63578 1.18005 0
M  V30 1909 C 177.456 0.359514 1.92268 0
M  V30 1910 O 178.662 0.359632 2.69108 0
M  V30 1911 C 177.118 2.88901 2.14626 0
M  V30 1912 C 176.726 4.23544 1.45995 0
M  V30 1913 C 178.47 3.10328 2.89649 0
M  V30 1914 C 176.377 5.40014 2.4112 0
M  V30 1915 H 175.307 0.609277 0.444182 0
M  V30 1916 H 177.958 1.77978 0.446773 0
M  V30 1917 H 176.34 2.68142 2.91403 0
M  V30 1918 H 177.514 4.54696 0.747532 0
M  V30 1919 H 175.829 4.08021 0.831115 0
M  V30 1920 H 178.426 3.94518 3.60915 0
M  V30 1921 H 178.769 2.23544 3.51189 0
M  V30 1922 H 179.302 3.31443 2.19978 0
M  V30 1923 H 176.041 6.29068 1.84264 0
M  V30 1924 H 175.561 5.13233 3.10406 0
M  V30 1925 H 177.24 5.72099 3.02177 0
M  V30 1926 N 177.372 -0.689602 1.41712 0
M  V30 1927 C 178.319 -1.80345 1.44029 0
M  V30 1928 C 179.289 -1.63478 0.293948 0
M  V30 1929 O 180.474 -1.84244 0.495869 0
M  V30 1930 C 177.614 -3.18272 1.33405 0
M  V30 1931 C 176.727 -3.46529 2.57956 0
M  V30 1932 C 175.862 -4.74103 2.39582 0
M  V30 1933 C 174.901 -4.95347 3.5958 0
M  V30 1934 N 174.038 -6.14151 3.40239 0
M  V30 1935 H 178.878 -1.77698 2.39222 0
M  V30 1936 H 176.415 -0.867688 1.18784 0
M  V30 1937 H 178.373 -3.97956 1.25246 0
M  V30 1938 H 177.003 -3.2008 0.418164 0
M  V30 1939 H 176.055 -2.61207 2.76542 0
M  V30 1940 H 177.367 -3.58126 3.47199 0
M  V30 1941 H 176.521 -5.61853 2.28924 0
M  V30 1942 H 175.26 -4.64763 1.47805 0
M  V30 1943 H 174.265 -4.06044 3.70686 0
M  V30 1944 H 175.49 -5.06542 4.52318 0
M  V30 1945 H 173.436 -6.06013 2.51167 0
M  V30 1946 H 173.353 -6.26543 4.23061 0
M  V30 1947 H 174.621 -7.04619 3.33365 0
M  V30 1948 N 178.85 -1.27639 -0.924453 0
M  V30 1949 C 180.099 -1.13549 -1.66702 0
M  V30 1950 C 180.412 0.317487 -1.93006 0
M  V30 1951 O 181.618 0.579333 -2.65247 0
M  V30 1952 C 180.074 -1.98426 -3.00259 0
M  V30 1953 C 179.682 -3.484 -2.81641 0
M  V30 1954 C 181.426 -1.92993 -3.78092 0
M  V30 1955 C 179.333 -4.25464 -4.10773 0
M  V30 1956 H 178.263 -0.421351 -0.625283 0
M  V30 1957 H 180.914 -1.52085 -1.02676 0
M  V30 1958 H 179.296 -1.52736 -3.6536 0
M  V30 1959 H 180.47 -4.01973 -2.25287 0
M  V30 1960 H 178.785 -3.55245 -2.17232 0
M  V30 1961 H 181.382 -2.47844 -4.7379 0
M  V30 1962 H 181.725 -0.904281 -4.0636 0
M  V30 1963 H 182.258 -2.36595 -3.19793 0
M  V30 1964 H 178.997 -5.28566 -3.87683 0
M  V30 1965 H 178.517 -3.76667 -4.66779 0
M  V30 1966 H 180.196 -4.34812 -4.79111 0
M  V30 1967 N 180.328 1.1314 -1.09713 0
M  V30 1968 C 181.258 2.20748 -0.761102 0
M  V30 1969 C 182.239 1.68061 0.262566 0
M  V30 1970 O 183.424 1.93765 0.129977 0
M  V30 1971 C 180.554 3.46812 -0.184054 0
M  V30 1972 C 179.508 4.12606 -1.13757 0
M  V30 1973 C 178.834 5.33031 -0.422083 0
M  V30 1974 C 180.134 4.59603 -2.48118 0
M  V30 1975 H 181.828 2.49113 -1.66082 0
M  V30 1976 H 179.374 1.19734 -0.799987 0
M  V30 1977 H 181.327 4.21353 0.0631215 0
M  V30 1978 H 180.051 3.17851 0.750868 0
M  V30 1979 H 178.71 3.40036 -1.37007 0
M  V30 1980 H 178.358 5.00335 0.517072 0
M  V30 1981 H 178.058 5.77999 -1.05788 0
M  V30 1982 H 179.582 6.10325 -0.183277 0
M  V30 1983 H 180.996 5.25552 -2.29059 0
M  V30 1984 H 179.393 5.15321 -3.07514 0
M  V30 1985 H 180.463 3.73971 -3.08665 0
M  V30 1986 N 181.806 0.884767 1.30421 0
M  V30 1987 C 183.052 0.503851 1.96441 0
M  V30 1988 C 183.385 -0.944518 1.69684 0
M  V30 1989 O 182.66 -1.66737 1.00145 0
M  V30 1990 C 182.943 0.779085 3.51571 0
M  V30 1991 C 182.796 2.27807 3.87846 0
M  V30 1992 C 184.115 0.255452 4.39358 0
M  V30 1993 H 181.234 0.184533 0.713524 0
M  V30 1994 H 183.876 1.10872 1.54297 0
M  V30 1995 H 182.026 0.264274 3.876 0
M  V30 1996 H 183.698 2.86127 3.61841 0
M  V30 1997 H 181.941 2.74479 3.35922 0
M  V30 1998 H 182.612 2.42125 4.96064 0
M  V30 1999 H 185.088 0.696079 4.10236 0
M  V30 2000 H 183.964 0.477361 5.4682 0
M  V30 2001 H 184.225 -0.843293 4.33983 0
M  V30 2002 N 183.284 -1.43765 0.645699 0
M  V30 2003 C 184.234 -2.27884 -0.0726442 0
M  V30 2004 C 185.218 -1.39483 -0.802086 0
M  V30 2005 O 186.41 -1.63174 -0.685791 0
M  V30 2006 C 183.539 -3.27055 -1.04356 0
M  V30 2007 C 182.625 -4.22944 -0.312985 0
M  V30 2008 N 183.016 -5.01391 0.666386 0
M  V30 2009 C 181.314 -4.42528 -0.55546 0
M  V30 2010 C 182.015 -5.71217 1.09935 0
M  V30 2011 N 180.991 -5.41856 0.435137 0
M  V30 2012 H 184.793 -2.85949 0.678988 0
M  V30 2013 H 182.307 -1.55378 0.472368 0
M  V30 2014 H 184.304 -3.86089 -1.57292 0
M  V30 2015 H 182.964 -2.70551 -1.79534 0
M  V30 2016 H 183.975 -5.07252 1.04481 0
M  V30 2017 H 180.652 -3.97104 -1.28899 0
M  V30 2018 H 182.042 -6.44202 1.90929 0
M  V30 2019 N 184.763 -0.387143 -1.52771 0
M  V30 2020 C 185.988 0.198407 -2.06449 0
M  V30 2021 C 186.413 1.39918 -1.25716 0
M  V30 2022 O 185.771 1.79099 -0.281657 0
M  V30 2023 C 185.819 0.548893 -3.56398 0
M  V30 2024 O 184.923 1.64315 -3.78252 0
M  V30 2025 H 184.264 0.0237731 -0.663574 0
M  V30 2026 H 186.794 -0.553989 -1.96957 0
M  V30 2027 H 186.804 0.813812 -3.99801 0
M  V30 2028 H 185.479 -0.329005 -4.14597 0
M  V30 2029 H 184.056 1.37211 -3.46738 0
M  V30 2030 N 186.241 1.57166 -0.116904 0
M  V30 2031 C 187.171 2.18222 0.830759 0
M  V30 2032 C 188.152 1.12167 1.27877 0
M  V30 2033 O 189.337 1.40394 1.34176 0
M  V30 2034 C 186.467 2.77996 2.08172 0
M  V30 2035 C 185.421 3.89614 1.77157 0
M  V30 2036 C 184.747 4.36187 3.09265 0
M  V30 2037 C 186.047 5.1181 1.04151 0
M  V30 2038 H 187.741 2.97664 0.321992 0
M  V30 2039 H 185.287 1.4318 0.153434 0
M  V30 2040 H 187.24 3.19366 2.74924 0
M  V30 2041 H 185.964 1.9584 2.6137 0
M  V30 2042 H 184.623 3.48816 1.12796 0
M  V30 2043 H 184.271 3.50893 3.60393 0
M  V30 2044 H 183.971 5.11455 2.89288 0
M  V30 2045 H 185.495 4.80207 3.77139 0
M  V30 2046 H 186.909 5.50214 1.61052 0
M  V30 2047 H 185.306 5.92648 0.942762 0
M  V30 2048 H 186.376 4.84892 0.0279022 0
M  V30 2049 N 187.719 -0.156864 1.56817 0
M  V30 2050 C 188.966 -0.871125 1.82805 0
M  V30 2051 C 189.294 -1.81611 0.696262 0
M  V30 2052 O 188.549 -1.93141 -0.315459 0
M  V30 2053 C 188.848 -1.68737 3.1506 0
M  V30 2054 C 188.514 -0.890045 4.42028 0
M  V30 2055 C 187.176 -0.670042 4.76512 0
M  V30 2056 C 189.528 -0.331769 5.20143 0
M  V30 2057 C 186.856 0.119104 5.86579 0
M  V30 2058 C 189.208 0.444365 6.31037 0
M  V30 2059 C 187.872 0.675035 6.64078 0
M  V30 2060 H 187.142 -0.318767 0.668931 0
M  V30 2061 H 189.789 -0.135274 1.91022 0
M  V30 2062 H 188.094 -2.49304 3.0225 0
M  V30 2063 H 189.791 -2.24331 3.3238 0
M  V30 2064 H 186.381 -1.07157 4.14988 0
M  V30 2065 H 190.565 -0.489043 4.93885 0
M  V30 2066 H 185.821 0.307417 6.10627 0
M  V30 2067 H 189.995 0.884139 6.90765 0
M  V30 2068 H 187.622 1.28839 7.49203 0
M  V30 2069 N 189.197 -1.51736 -0.425897 0
M  V30 2070 C 190.422 -1.69082 -1.20108 0
M  V30 2071 C 190.847 -0.392398 -1.83962 0
M  V30 2072 O 190.205 0.64858 -1.69302 0
M  V30 2073 C 190.253 -2.81604 -2.25237 0
M  V30 2074 O 189.357 -2.46004 -3.30992 0
M  V30 2075 H 188.698 -0.563408 -0.35138 0
M  V30 2076 H 191.228 -1.98358 -0.501512 0
M  V30 2077 H 191.238 -3.06025 -2.69838 0
M  V30 2078 H 189.913 -3.75817 -1.78142 0
M  V30 2079 H 188.49 -2.32195 -2.91787 0
M  V30 2080 N 190.675 0.682077 -1.42076 0
M  V30 2081 C 191.608 1.80666 -1.3941 0
M  V30 2082 C 192.586 1.60518 -0.25939 0
M  V30 2083 O 193.77 1.83088 -0.448456 0
M  V30 2084 C 190.897 3.17556 -1.17796 0
M  V30 2085 C 189.943 3.56468 -2.34164 0
M  V30 2086 S 190.776 3.59729 -3.96681 0
M  V30 2087 C 191.932 4.99323 -3.77395 0
M  V30 2088 H 192.165 1.82652 -2.34575 0
M  V30 2089 H 189.698 0.852062 -1.2876 0
M  V30 2090 H 191.656 3.96575 -1.06012 0
M  V30 2091 H 190.317 3.13164 -0.242279 0
M  V30 2092 H 189.51 4.5595 -2.1477 0
M  V30 2093 H 189.112 2.84792 -2.42425 0
M  V30 2094 H 191.404 5.87202 -3.37935 0
M  V30 2095 H 192.347 5.23763 -4.76527 0
M  V30 2096 H 192.755 4.71498 -3.10403 0
M  V30 2097 N 192.153 1.28127 0.917671 0
M  V30 2098 C 193.083 1.14248 2.03641 0
M  V30 2099 C 194.064 0.0412748 1.7005 0
M  V30 2100 O 195.249 0.217566 1.92977 0
M  V30 2101 C 192.379 0.799431 3.37974 0
M  V30 2102 C 191.333 1.85497 3.85713 0
M  V30 2103 C 190.659 1.36565 5.16966 0
M  V30 2104 C 191.959 3.26085 4.08002 0
M  V30 2105 H 193.653 2.07835 2.15511 0
M  V30 2106 H 191.199 1.00064 1.03553 0
M  V30 2107 H 193.152 0.689114 4.15727 0
M  V30 2108 H 191.876 -0.172145 3.26146 0
M  V30 2109 H 190.535 1.95437 3.10161 0
M  V30 2110 H 190.183 0.383253 5.01538 0
M  V30 2111 H 189.883 2.07143 5.49878 0
M  V30 2112 H 191.407 1.26848 5.97279 0
M  V30 2113 H 192.821 3.19089 4.76293 0
M  V30 2114 H 191.218 3.94462 4.52238 0
M  V30 2115 H 192.288 3.70394 3.12948 0
M  V30 2116 N 193.631 -1.12557 1.10312 0
M  V30 2117 C 194.88 -1.83395 0.839588 0
M  V30 2118 C 195.193 -1.84939 -0.636929 0
M  V30 2119 O 196.399 -2.51761 -1.01631 0
M  V30 2120 C 194.855 -3.29303 1.45215 0
M  V30 2121 C 194.463 -3.36122 2.96186 0
M  V30 2122 C 196.207 -4.05121 1.26796 0
M  V30 2123 C 194.114 -4.76357 3.50483 0
M  V30 2124 H 193.044 -0.687133 0.310425 0
M  V30 2125 H 195.695 -1.26746 1.32694 0
M  V30 2126 H 194.077 -3.85812 0.892469 0
M  V30 2127 H 195.251 -2.89559 3.58458 0
M  V30 2128 H 193.566 -2.73776 3.13745 0
M  V30 2129 H 196.163 -5.08668 1.64806 0
M  V30 2130 H 196.506 -4.15773 0.209409 0
M  V30 2131 H 197.039 -3.54967 1.79563 0
M  V30 2132 H 193.778 -4.70899 4.55998 0
M  V30 2133 H 193.298 -5.23377 2.92978 0
M  V30 2134 H 194.977 -5.45294 3.48228 0
M  V30 2135 N 195.109 -0.891671 -1.2995 0
M  V30 2136 C 196.042 -0.307994 -2.26112 0
M  V30 2137 C 197.02 0.575262 -1.52084 0
M  V30 2138 O 198.204 0.523864 -1.81074 0
M  V30 2139 C 195.331 0.561734 -3.34009 0
M  V30 2140 C 194.377 -0.253107 -4.25748 0
M  V30 2141 S 195.21 -1.64572 -5.09584 0
M  V30 2142 C 196.366 -0.782699 -6.20987 0
M  V30 2143 H 196.599 -1.12309 -2.75271 0
M  V30 2144 H 194.132 -0.691509 -1.38049 0
M  V30 2145 H 196.09 1.05777 -3.96638 0
M  V30 2146 H 194.751 1.35099 -2.83561 0
M  V30 2147 H 193.944 0.410908 -5.02322 0
M  V30 2148 H 193.546 -0.682004 -3.67729 0
M  V30 2149 H 195.838 -0.00257476 -6.775 0
M  V30 2150 H 196.781 -1.52026 -6.91588 0
M  V30 2151 H 197.189 -0.340638 -5.63471 0
M  V30 2152 N 196.587 1.43421 -0.653314 0
M  V30 2153 C 197.827 2.03689 -0.170346 0
M  V30 2154 C 198.191 1.50427 1.19314 0
M  V30 2155 O 199.392 2.0234 1.76952 0
M  V30 2156 C 197.663 3.56946 -0.180183 0
M  V30 2157 S 199.222 4.38171 0.234925 0
M  V30 2158 H 196.04 0.707345 -0.0719976 0
M  V30 2159 H 198.642 1.75486 -0.86167 0
M  V30 2160 H 197.346 3.93212 -1.17526 0
M  V30 2161 H 196.877 3.89791 0.531675 0
M  V30 2162 H 198.892 4.73808 1.47378 0
M  V30 2163 N 198.065 0.39524 1.52563 0
M  V30 2164 C 199.293 -0.184943 2.06072 0
M  V30 2165 C 199.708 -1.40021 1.26647 0
M  V30 2166 O 199.065 -1.79767 0.314672 0
M  V30 2167 C 199.116 -0.549179 3.57304 0
M  V30 2168 O 198.837 0.617813 4.33722 0
M  V30 2169 C 200.338 -1.18459 4.2718 0
M  V30 2170 H 197.558 -0.0265025 0.670476 0
M  V30 2171 H 200.102 0.562184 1.96621 0
M  V30 2172 H 198.257 -1.2462 3.66809 0
M  V30 2173 H 198.671 0.317091 5.23541 0
M  V30 2174 H 200.145 -1.38976 5.34219 0
M  V30 2175 H 200.622 -2.15368 3.82771 0
M  V30 2176 H 201.228 -0.528163 4.22008 0
M  V30 2177 N 199.544 -1.57102 0.125237 0
M  V30 2178 C 200.793 -1.94582 -0.531095 0
M  V30 2179 C 201.106 -1.01126 -1.6743 0
M  V30 2180 O 202.312 -1.28097 -2.39381 0
M  V30 2181 C 200.768 -3.45839 -0.996164 0
M  V30 2182 C 200.376 -4.47842 0.118926 0
M  V30 2183 C 202.12 -3.92227 -1.62352 0
M  V30 2184 C 200.027 -5.90284 -0.363192 0
M  V30 2185 H 198.957 -0.726391 -0.20217 0
M  V30 2186 H 201.608 -1.82339 0.206092 0
M  V30 2187 H 199.99 -3.53338 -1.78796 0
M  V30 2188 H 201.164 -4.52018 0.895358 0
M  V30 2189 H 199.479 -4.11243 0.653324 0
M  V30 2190 H 202.076 -4.96069 -1.99548 0
M  V30 2191 H 202.419 -3.32552 -2.50429 0
M  V30 2192 H 202.952 -3.87554 -0.897019 0
M  V30 2193 H 199.691 -6.53728 0.481679 0
M  V30 2194 H 199.211 -5.89515 -1.10597 0
M  V30 2195 H 200.89 -6.41752 -0.822377 0
M  V30 2196 N 201.022 0.148545 -1.56898 0
M  V30 2197 C 201.952 1.18524 -2.01182 0
M  V30 2198 C 202.933 1.4489 -0.891123 0
M  V30 2199 O 204.118 1.55836 -1.15882 0
M  V30 2200 C 201.248 2.51879 -2.39112 0
M  V30 2201 C 200.202 2.40038 -3.54353 0
M  V30 2202 C 199.528 3.78089 -3.78091 0
M  V30 2203 C 200.828 1.88577 -4.87069 0
M  V30 2204 H 202.522 0.817029 -2.88036 0
M  V30 2205 H 200.068 0.391575 -1.38574 0
M  V30 2206 H 202.021 3.24627 -2.68692 0
M  V30 2207 H 200.745 2.90532 -1.49193 0
M  V30 2208 H 199.404 1.69742 -3.24936 0
M  V30 2209 H 199.052 4.14175 -2.85426 0
M  V30 2210 H 198.752 3.71028 -4.55645 0
M  V30 2211 H 200.276 4.52387 -4.10095 0
M  V30 2212 H 201.69 2.51117 -5.15377 0
M  V30 2213 H 200.087 1.9241 -5.68417 0
M  V30 2214 H 201.157 0.84136 -4.77545 0
M  V30 2215 N 202.5 1.5196 0.417844 0
M  V30 2216 C 203.728 1.69426 1.18753 0
M  V30 2217 C 204.143 0.399955 1.84515 0
M  V30 2218 O 203.5 -0.623288 1.71527 0
M  V30 2219 C 203.551 2.82375 2.25714 0
M  V30 2220 O 203.272 4.06793 1.62638 0
M  V30 2221 C 204.773 3.11277 3.15628 0
M  V30 2222 H 201.993 0.568031 0.357186 0
M  V30 2223 H 204.537 1.98475 0.49273 0
M  V30 2224 H 202.692 2.5587 2.90877 0
M  V30 2225 H 203.106 4.69667 2.3348 0
M  V30 2226 H 204.58 3.93843 3.86771 0
M  V30 2227 H 205.057 2.24473 3.77503 0
M  V30 2228 H 205.663 3.39515 2.56144 0
M  V30 2229 N 203.978 -0.674533 1.42435 0
M  V30 2230 C 204.926 -1.80934 1.46169 0
M  V30 2231 C 205.92 -1.66006 0.3374 0
M  V30 2232 O 207.126 -1.72611 0.510425 0
M  V30 2233 H 203.501 -0.596594 0.457798 0
M  V30 2234 H 205.472 -1.74903 2.41767 0
M  V30 2235 C 204.221 -3.19088 1.38123 0
M  V30 2236 H 203.544 -3.31203 2.23931 0
M  V30 2237 H 204.984 -3.9851 1.44797 0
M  V30 2238 C 203.443 -3.36763 0.0960517 0
M  V30 2239 O 203.973 -3.92581 -0.851073 0
M  V30 2240 N 202.179 -2.90597 0.0131186 0
M  V30 2241 H 201.726 -2.45359 0.784639 0
M  V30 2242 H 201.684 -3.028 -0.846133 0
M  V30 2243 N 205.456 -1.28612 -0.910864 0
M  V30 2244 C 206.696 -1.1719 -1.67469 0
M  V30 2245 C 207.06 0.274441 -1.90028 0
M  V30 2246 O 208.261 0.511425 -2.6389 0
M  V30 2247 C 206.532 -1.95137 -2.99427 0
M  V30 2248 S 208.091 -2.00122 -3.90508 0
M  V30 2249 H 204.909 -0.41806 -0.575106 0
M  V30 2250 H 207.511 -1.6275 -1.08317 0
M  V30 2251 H 206.215 -2.99381 -2.80712 0
M  V30 2252 H 205.746 -1.50137 -3.63624 0
M  V30 2253 H 207.761 -1.10981 -4.8363 0
M  V30 2254 N 206.934 1.1197 -1.10907 0
M  V30 2255 C 208.183 1.82947 -0.849302 0
M  V30 2256 C 208.496 1.85275 0.627112 0
M  V30 2257 O 209.702 2.52296 1.00295 0
M  V30 2258 C 208.158 3.28529 -1.46959 0
M  V30 2259 C 207.766 3.34546 -2.97965 0
M  V30 2260 C 209.51 4.04443 -1.28942 0
M  V30 2261 C 207.417 4.74491 -3.53004 0
M  V30 2262 H 206.347 0.685477 -0.314065 0
M  V30 2263 H 208.998 1.2604 -1.33365 0
M  V30 2264 H 207.38 3.85333 -0.912917 0
M  V30 2265 H 208.554 2.87654 -3.59989 0
M  V30 2266 H 206.869 2.72108 -3.15192 0
M  V30 2267 H 209.466 5.07787 -1.67502 0
M  V30 2268 H 209.809 4.15656 -0.231456 0
M  V30 2269 H 210.342 3.5401 -1.81443 0
M  V30 2270 H 207.081 4.68474 -4.58489 0
M  V30 2271 H 206.601 5.21816 -2.9575 0
M  V30 2272 H 208.28 5.4344 -3.51115 0
M  V30 2273 N 208.412 0.89855 1.29475 0
M  V30 2274 C 209.659 0.523882 1.95606 0
M  V30 2275 C 209.987 -0.929608 1.70847 0
M  V30 2276 O 209.242 -1.67401 1.01367 0
M  V30 2277 C 209.541 0.761398 3.49195 0
M  V30 2278 C 209.207 2.19207 3.94029 0
M  V30 2279 C 207.869 2.58326 4.05982 0
M  V30 2280 C 210.221 3.12379 4.17216 0
M  V30 2281 C 207.549 3.898 4.38489 0
M  V30 2282 C 209.901 4.43401 4.51197 0
M  V30 2283 C 208.565 4.82394 4.61359 0
M  V30 2284 H 207.835 0.191702 0.715773 0
M  V30 2285 H 210.482 1.13699 1.54094 0
M  V30 2286 H 208.787 0.0653622 3.91745 0
M  V30 2287 H 210.484 0.450904 3.98457 0
M  V30 2288 H 207.074 1.87846 3.85242 0
M  V30 2289 H 211.258 2.83371 4.07449 0
M  V30 2290 H 206.514 4.19734 4.44559 0
M  V30 2291 H 210.688 5.15623 4.68087 0
M  V30 2292 H 208.315 5.84306 4.86303 0
M  V30 2293 N 209.89 -1.43072 0.660911 0
M  V30 2294 C 210.823 -2.28074 -0.0758862 0
M  V30 2295 C 211.801 -1.40271 -0.822362 0
M  V30 2296 O 212.985 -1.69713 -0.820352 0
M  V30 2297 C 210.112 -3.19843 -1.11437 0
M  V30 2298 C 209.158 -4.23957 -0.465069 0
M  V30 2299 S 209.991 -5.29978 0.767078 0
M  V30 2300 C 211.147 -6.25314 -0.270682 0
M  V30 2301 H 211.38 -2.90216 0.645139 0
M  V30 2302 H 208.913 -1.47697 0.449995 0
M  V30 2303 H 210.871 -3.73257 -1.70849 0
M  V30 2304 H 209.532 -2.56863 -1.80776 0
M  V30 2305 H 208.725 -4.88299 -1.24819 0
M  V30 2306 H 208.327 -3.73959 0.0551242 0
M  V30 2307 H 210.619 -6.67932 -1.13459 0
M  V30 2308 H 211.562 -7.07293 0.337916 0
M  V30 2309 H 211.97 -5.61195 -0.609937 0
M  V30 2310 N 211.368 -0.403325 -1.52352 0
M  V30 2311 C 212.596 0.174012 -2.06167 0
M  V30 2312 C 213.011 1.39347 -1.27388 0
M  V30 2313 O 212.368 1.79597 -0.324201 0
M  V30 2314 C 212.419 0.530223 -3.5759 0
M  V30 2315 O 212.14 -0.640806 -4.33388 0
M  V30 2316 C 213.641 1.16192 -4.27802 0
M  V30 2317 H 210.861 0.0229464 -0.670608 0
M  V30 2318 H 213.405 -0.572604 -1.9632 0
M  V30 2319 H 211.56 1.22673 -3.67464 0
M  V30 2320 H 211.974 -0.344851 -5.23365 0
M  V30 2321 H 213.448 1.36141 -5.34948 0
M  V30 2322 H 213.925 2.13335 -3.83907 0
M  V30 2323 H 214.531 0.505775 -4.22282 0
M  V30 2324 N 212.846 1.57033 -0.133567 0
M  V30 2325 C 213.779 2.11824 0.848872 0
M  V30 2326 C 214.757 1.03833 1.2513 0
M  V30 2327 O 215.941 1.31579 1.34978 0
M  V30 2328 C 213.068 2.62692 2.138 0
M  V30 2329 C 212.114 3.82705 1.88253 0
M  V30 2330 S 212.947 5.2438 1.08563 0
M  V30 2331 C 214.103 5.78627 2.38624 0
M  V30 2332 H 214.336 2.94824 0.38289 0
M  V30 2333 H 211.869 1.5419 0.0804796 0
M  V30 2334 H 213.827 2.92652 2.87863 0
M  V30 2335 H 212.488 1.79847 2.57515 0
M  V30 2336 H 211.681 4.16496 2.83809 0
M  V30 2337 H 211.283 3.53437 1.22305 0
M  V30 2338 H 213.575 5.8924 3.34369 0
M  V30 2339 H 214.518 6.76443 2.09358 0
M  V30 2340 H 214.926 5.06783 2.48658 0
M  V30 2341 N 214.325 -0.140222 1.56975 0
M  V30 2342 C 215.273 -1.19207 1.99731 0
M  V30 2343 C 216.267 -1.44089 0.890777 0
M  V30 2344 O 217.473 -1.44301 1.07597 0
M  V30 2345 H 213.848 -0.40142 0.635898 0
M  V30 2346 H 215.819 -0.804813 2.87342 0
M  V30 2347 C 214.568 -2.51617 2.39967 0
M  V30 2348 H 213.891 -2.33303 3.24669 0
M  V30 2349 H 215.331 -3.23827 2.73701 0
M  V30 2350 C 213.79 -3.12654 1.25496 0
M  V30 2351 O 214.32 -3.97786 0.559371 0
M  V30 2352 N 212.526 -2.72206 1.01746 0
M  V30 2353 H 212.073 -2.03074 1.58489 0
M  V30 2354 H 212.031 -3.13377 0.253461 0
M  V30 2355 N 215.803 -1.52179 -0.40978 0
M  V30 2356 C 216.751 -1.76086 -1.51975 0
M  V30 2357 C 217.745 -0.627964 -1.57331 0
M  V30 2358 O 218.951 -0.809993 -1.60745 0
M  V30 2359 H 215.326 -0.556829 -0.505416 0
M  V30 2360 H 217.297 -2.69077 -1.28996 0
M  V30 2361 C 216.046 -1.92799 -2.8935 0
M  V30 2362 H 215.369 -2.79392 -2.85972 0
M  V30 2363 H 216.809 -2.13527 -3.66309 0
M  V30 2364 C 215.268 -0.694923 -3.29655 0
M  V30 2365 O 215.798 0.13751 -4.01465 0
M  V30 2366 N 214.004 -0.53101 -2.85707 0
M  V30 2367 H 213.551 -1.20952 -2.27439 0
M  V30 2368 H 213.509 0.292718 -3.13034 0
M  V30 2369 N 217.281 0.66697 -1.42791 0
M  V30 2370 C 218.692 1.2478 -1.38877 0
M  V30 2371 C 219.043 1.96012 -0.0859426 0
M  V30 2372 O 218.168 2.00463 0.815081 0
M  V30 2373 C 218.763 2.26938 -2.51564 0
M  V30 2374 C 217.322 2.80529 -2.50959 0
M  V30 2375 C 216.469 1.54965 -2.29959 0
M  V30 2376 H 219.42 0.459853 -1.51892 0
M  V30 2377 H 219.441 3.08834 -2.22265 0
M  V30 2378 H 218.953 1.75065 -3.46372 0
M  V30 2379 H 217.054 3.36502 -1.59991 0
M  V30 2380 H 217.167 3.29012 -3.48265 0
M  V30 2381 H 215.531 1.81817 -1.78366 0
M  V30 2382 H 216.314 1.05047 -3.26833 0
M  V30 2383 N 218.759 1.29093 0.90403 0
M  V30 2384 C 220.17 1.15186 1.46932 0
M  V30 2385 C 220.521 -0.254587 1.94541 0
M  V30 2386 O 219.646 -1.14972 1.83332 0
M  V30 2387 C 220.241 2.08492 2.67051 0
M  V30 2388 C 218.8 1.98621 3.19729 0
M  V30 2389 C 217.947 1.9967 1.92425 0
M  V30 2390 H 220.898 1.41641 0.715789 0
M  V30 2391 H 220.919 1.65461 3.42641 0
M  V30 2392 H 220.431 3.10847 2.3237 0
M  V30 2393 H 218.532 0.993389 3.59114 0
M  V30 2394 H 218.645 2.86068 3.8432 0
M  V30 2395 H 217.009 1.44208 2.09943 0
M  V30 2396 H 217.792 3.03721 1.60026 0
M  V30 2397 N 220.237 -1.11381 1.11499 0
M  V30 2398 C 221.514 -1.7955 0.775965 0
M  V30 2399 C 221.894 -1.97859 -0.73588 0
M  V30 2400 O 221.242 -1.56376 -1.66609 0
M  V30 2401 C 221.452 -3.13196 1.53977 0
M  V30 2402 C 222.8 -3.88227 1.71944 0
M  V30 2403 O 223.824 -3.22887 1.50407 0
M  V30 2404 O 222.683 -5.05477 2.07738 0
M  V30 2405 H 219.777 -0.777728 0.28119 0
M  V30 2406 H 222.323 -1.18118 1.21845 0
M  V30 2407 H 221.095 -2.95229 2.56818 0
M  V30 2408 H 220.718 -3.82342 1.09088 0
M  V30 2409 N 221.715 -0.905404 -1.28997 0
M  V30 2410 C 222.961 -0.544465 -1.95977 0
M  V30 2411 C 223.316 0.90041 -1.70031 0
M  V30 2412 O 222.609 1.63064 -1.00601 0
M  V30 2413 C 222.803 -0.779906 -3.48787 0
M  V30 2414 C 222.632 -2.24612 -3.89589 0
M  V30 2415 C 221.402 -2.89464 -4.14172 0
M  V30 2416 C 223.6 -3.22182 -4.00878 0
M  V30 2417 N 221.582 -4.26469 -4.41585 0
M  V30 2418 C 222.953 -4.44323 -4.32409 0
M  V30 2419 C 225.008 -3.17694 -3.83373 0
M  V30 2420 C 223.711 -5.62546 -4.48258 0
M  V30 2421 C 225.737 -4.35208 -4.00435 0
M  V30 2422 C 225.099 -5.56121 -4.3233 0
M  V30 2423 H 221.198 -0.248948 -0.741316 0
M  V30 2424 H 223.782 -1.1674 -1.5582 0
M  V30 2425 H 221.953 -0.186308 -3.87953 0
M  V30 2426 H 223.685 -0.383833 -4.02876 0
M  V30 2427 H 220.44 -2.40232 -4.08149 0
M  V30 2428 H 220.864 -4.97283 -4.5939 0
M  V30 2429 H 225.506 -2.25297 -3.57773 0
M  V30 2430 H 223.224 -6.55429 -4.72692 0
M  V30 2431 H 226.81 -4.33228 -3.88336 0
M  V30 2432 H 225.69 -6.45537 -4.45255 0
M  V30 2433 N 223.193 1.4272 -0.668489 0
M  V30 2434 C 224.421 2.05966 -0.196348 0
M  V30 2435 C 224.836 1.50191 1.14403 0
M  V30 2436 O 224.193 0.639208 1.7094 0
M  V30 2437 C 224.244 3.61314 -0.115815 0
M  V30 2438 O 223.965 4.1502 -1.40322 0
M  V30 2439 C 225.466 4.41663 0.380579 0
M  V30 2440 H 222.686 0.663954 -0.0969829 0
M  V30 2441 H 225.23 1.82966 -0.913446 0
M  V30 2442 H 223.385 3.83448 0.551931 0
M  V30 2443 H 223.799 5.08832 -1.27243 0
M  V30 2444 H 225.273 5.5065 0.385848 0
M  V30 2445 H 225.75 4.15792 1.41471 0
M  V30 2446 H 226.356 4.24534 -0.255209 0
M  V30 2447 N 224.671 0.411399 1.52136 0
M  V30 2448 C 225.618 -0.412975 2.27075 0
M  V30 2449 C 226.588 -1.03912 1.29582 0
M  V30 2450 O 227.773 -1.06296 1.58448 0
M  V30 2451 C 224.913 -1.52247 3.09701 0
M  V30 2452 C 224.026 -0.917021 4.22155 0
M  V30 2453 C 223.161 -1.9994 4.92135 0
M  V30 2454 C 222.2 -1.37101 5.96548 0
M  V30 2455 N 221.337 -2.39364 6.60038 0
M  V30 2456 H 226.177 0.232499 2.97092 0
M  V30 2457 H 223.714 0.126496 1.46555 0
M  V30 2458 H 225.672 -2.17674 3.55913 0
M  V30 2459 H 224.302 -2.13794 2.41851 0
M  V30 2460 H 223.354 -0.151742 3.80097 0
M  V30 2461 H 224.666 -0.418006 4.97045 0
M  V30 2462 H 223.82 -2.73088 5.41763 0
M  V30 2463 H 222.559 -2.53208 4.16818 0
M  V30 2464 H 221.564 -0.624873 5.46237 0
M  V30 2465 H 222.789 -0.845998 6.7381 0
M  V30 2466 H 220.735 -2.91759 5.87548 0
M  V30 2467 H 220.652 -1.9428 7.3061 0
M  V30 2468 H 221.92 -3.12074 7.14304 0
M  V30 2469 N 226.149 -1.5696 0.141893 0
M  V30 2470 C 227.097 -2.17784 -0.816874 0
M  V30 2471 C 228.091 -1.1334 -1.25899 0
M  V30 2472 O 229.297 -1.316 -1.22806 0
M  V30 2473 H 225.672 -0.697278 -0.281615 0
M  V30 2474 H 227.643 -2.97087 -0.279621 0
M  V30 2475 C 226.392 -2.80983 -2.04802 0
M  V30 2476 H 225.715 -3.61062 -1.7168 0
M  V30 2477 H 227.155 -3.2705 -2.69841 0
M  V30 2478 C 225.614 -1.79228 -2.8527 0
M  V30 2479 O 226.144 -1.25962 -3.8144 0
M  V30 2480 N 224.35 -1.48647 -2.49704 0
M  V30 2481 H 223.897 -1.92155 -1.71564 0
M  V30 2482 H 223.855 -0.808115 -3.03837 0
M  V30 2483 N 227.627 0.131896 -1.57047 0
M  V30 2484 C 228.873 0.843179 -1.84441 0
M  V30 2485 C 229.206 1.80129 -0.725749 0
M  V30 2486 O 228.481 1.92624 0.269469 0
M  V30 2487 C 228.764 1.60442 -3.22382 0
M  V30 2488 C 228.617 0.666782 -4.4483 0
M  V30 2489 C 229.936 2.56354 -3.5773 0
M  V30 2490 H 227.055 0.305081 -0.670891 0
M  V30 2491 H 229.697 0.107839 -1.89694 0
M  V30 2492 H 227.847 2.23128 -3.18035 0
M  V30 2493 H 229.519 0.0497646 -4.61273 0
M  V30 2494 H 227.762 -0.022609 -4.33794 0
M  V30 2495 H 228.433 1.23579 -5.37989 0
M  V30 2496 H 230.909 2.0378 -3.62785 0
M  V30 2497 H 229.785 3.06657 -4.5525 0
M  V30 2498 H 230.046 3.38419 -2.84473 0
M  V30 2499 N 229.106 1.52395 0.401703 0
M  V30 2500 C 230.016 1.7917 1.51444 0
M  V30 2501 C 231.032 0.677691 1.6026 0
M  V30 2502 O 232.208 0.963909 1.76835 0
M  V30 2503 C 229.273 1.94347 2.87107 0
M  V30 2504 C 228.334 3.18257 2.88116 0
M  V30 2505 C 227.567 3.32701 4.17308 0
M  V30 2506 O 227.79 2.52238 5.11598 0
M  V30 2507 O 226.724 4.25891 4.25324 0
M  V30 2508 H 230.55 2.73633 1.31752 0
M  V30 2509 H 228.135 1.3733 0.588296 0
M  V30 2510 H 230.017 2.06109 3.67555 0
M  V30 2511 H 228.692 1.03073 3.06851 0
M  V30 2512 H 227.599 3.11947 2.06494 0
M  V30 2513 H 228.932 4.09336 2.73322 0
M  V30 2514 N 230.584 -0.659388 1.43143 0
M  V30 2515 C 231.814 -1.44513 1.47646 0
M  V30 2516 C 232.222 -1.88981 0.0910095 0
M  V30 2517 O 231.565 -1.59702 -0.907789 0
M  V30 2518 C 231.627 -2.71663 2.35456 0
M  V30 2519 C 231.291 -2.49175 3.83094 0
M  V30 2520 C 232.288 -2.1279 4.74359 0
M  V30 2521 C 229.973 -2.63691 4.27519 0
M  V30 2522 C 231.967 -1.9121 6.08044 0
M  V30 2523 C 229.654 -2.41726 5.61259 0
M  V30 2524 C 230.652 -2.0554 6.51339 0
M  V30 2525 O 230.34 -1.838 7.82606 0
M  V30 2526 H 230.072 -0.45064 0.503884 0
M  V30 2527 H 232.626 -0.816248 1.88485 0
M  V30 2528 H 230.856 -3.37089 1.89493 0
M  V30 2529 H 232.545 -3.33595 2.31235 0
M  V30 2530 H 233.311 -2.01157 4.41317 0
M  V30 2531 H 229.19 -2.90832 3.57684 0
M  V30 2532 H 232.734 -1.62889 6.78316 0
M  V30 2533 H 228.631 -2.52959 5.9387 0
M  V30 2534 H 229.399 -1.98275 7.94122 0
M  V30 2535 N 232.062 -1.29571 -0.897171 0
M  V30 2536 C 233.29 -1.20583 -1.68129 0
M  V30 2537 C 233.705 0.233181 -1.87354 0
M  V30 2538 O 233.062 1.15579 -1.41236 0
M  V30 2539 C 233.113 -1.91772 -3.06441 0
M  V30 2540 O 232.834 -3.30053 -2.88091 0
M  V30 2541 C 234.335 -1.89291 -4.00854 0
M  V30 2542 H 231.555 -0.417826 -0.525036 0
M  V30 2543 H 234.099 -1.70987 -1.12177 0
M  V30 2544 H 232.254 -1.45196 -3.59161 0
M  V30 2545 H 232.668 -3.65942 -3.75748 0
M  V30 2546 H 234.142 -2.43662 -4.95311 0
M  V30 2547 H 234.619 -0.869014 -4.30517 0
M  V30 2548 H 235.225 -2.35622 -3.54066 0
M  V30 2549 N 233.54 1.10788 -1.12088 0
M  V30 2550 C 234.787 1.82671 -0.873931 0
M  V30 2551 C 235.115 1.85004 0.600311 0
M  V30 2552 O 234.37 1.30365 1.45957 0
M  V30 2553 C 234.669 3.29294 -1.38926 0
M  V30 2554 C 234.335 3.47113 -2.87791 0
M  V30 2555 C 232.997 3.51684 -3.28439 0
M  V30 2556 C 235.349 3.52808 -3.83635 0
M  V30 2557 C 232.677 3.59513 -4.63646 0
M  V30 2558 C 235.029 3.62169 -5.18668 0
M  V30 2559 C 233.693 3.65003 -5.58864 0
M  V30 2560 H 232.963 0.668441 -0.319794 0
M  V30 2561 H 235.61 1.30613 -1.40045 0
M  V30 2562 H 233.915 3.83894 -0.783122 0
M  V30 2563 H 235.612 3.83416 -1.17443 0
M  V30 2564 H 232.202 3.4423 -2.5535 0
M  V30 2565 H 236.386 3.4853 -3.53328 0
M  V30 2566 H 231.642 3.59987 -4.94185 0
M  V30 2567 H 235.816 3.6552 -5.92763 0
M  V30 2568 H 233.443 3.70822 -6.63623 0
M  V30 2569 N 235.018 0.912232 1.28515 0
M  V30 2570 C 236.246 0.560416 1.99166 0
M  V30 2571 C 236.661 -0.857927 1.68182 0
M  V30 2572 O 236.018 -1.56805 0.933733 0
M  V30 2573 C 236.069 0.758142 3.53461 0
M  V30 2574 O 235.79 2.12067 3.83352 0
M  V30 2575 C 237.291 0.412954 4.41372 0
M  V30 2576 H 234.511 0.213805 0.636026 0
M  V30 2577 H 237.055 1.22502 1.63749 0
M  V30 2578 H 235.21 0.140556 3.87145 0
M  V30 2579 H 235.624 2.15923 4.77993 0
M  V30 2580 H 237.098 0.60208 5.48707 0
M  V30 2581 H 237.575 -0.65073 4.34353 0
M  V30 2582 H 238.181 1.00802 4.13182 0
M  V30 2583 N 236.496 -1.42363 0.676048 0
M  V30 2584 C 237.744 -2.01123 0.198437 0
M  V30 2585 C 238.065 -1.53731 -1.19966 0
M  V30 2586 O 237.335 -0.759518 -1.80577 0
M  V30 2587 H 235.915 -0.743678 0.0703721 0
M  V30 2588 H 238.577 -1.74263 0.872837 0
M  V30 2589 H 237.673 -3.11454 0.200686 0
M  V30 2590 N 237.974 -0.419461 -1.51915 0
M  V30 2591 C 239.223 0.154346 -2.01109 0
M  V30 2592 C 239.536 1.45338 -1.30905 0
M  V30 2593 O 240.742 2.10906 -1.7097 0
M  V30 2594 C 239.198 0.325615 -3.58424 0
M  V30 2595 C 238.806 -0.961934 -4.37551 0
M  V30 2596 C 240.55 0.854155 -4.15818 0
M  V30 2597 C 238.457 -0.757287 -5.86531 0
M  V30 2598 H 237.387 0.0614563 -0.751491 0
M  V30 2599 H 240.038 -0.54649 -1.75173 0
M  V30 2600 H 238.42 1.08903 -3.80731 0
M  V30 2601 H 239.594 -1.7323 -4.26999 0
M  V30 2602 H 237.909 -1.41766 -3.91524 0
M  V30 2603 H 240.506 1.02346 -5.24814 0
M  V30 2604 H 240.849 1.83172 -3.73837 0
M  V30 2605 H 241.382 0.149528 -3.97519 0
M  V30 2606 H 238.121 -1.70671 -6.32892 0
M  V30 2607 H 237.641 -0.0264061 -5.99794 0
M  V30 2608 H 239.32 -0.403482 -6.45741 0
M  V30 2609 N 239.452 1.56882 -0.150215 0
M  V30 2610 C 240.682 2.00302 0.506213 0
M  V30 2611 C 241.09 1.02934 1.58749 0
M  V30 2612 O 240.433 0.0188384 1.8369 0
M  V30 2613 C 240.495 3.40156 1.16337 0
M  V30 2614 C 240.159 4.56439 0.226311 0
M  V30 2615 C 241.156 5.17012 -0.547265 0
M  V30 2616 C 238.841 5.02136 0.128279 0
M  V30 2617 C 240.835 6.21693 -1.40629 0
M  V30 2618 C 238.522 6.06672 -0.734345 0
M  V30 2619 C 239.52 6.6632 -1.50023 0
M  V30 2620 O 239.208 7.68831 -2.34848 0
M  V30 2621 H 238.94 0.662182 0.135984 0
M  V30 2622 H 241.494 2.03961 -0.242746 0
M  V30 2623 H 239.724 3.33346 1.96004 0
M  V30 2624 H 241.413 3.67663 1.71985 0
M  V30 2625 H 242.179 4.82603 -0.48158 0
M  V30 2626 H 238.058 4.55435 0.714157 0
M  V30 2627 H 241.602 6.68179 -2.00455 0
M  V30 2628 H 237.499 6.40507 -0.801309 0
M  V30 2629 H 238.267 7.86065 -2.28131 0
M  V30 2630 N 240.93 -0.123565 1.57115 0
M  V30 2631 C 242.158 -0.846461 1.88793 0
M  V30 2632 C 242.573 -1.73652 0.740976 0
M  V30 2633 O 241.93 -1.80207 -0.288393 0
M  V30 2634 C 241.981 -1.6837 3.19897 0
M  V30 2635 O 241.702 -0.829477 4.30176 0
M  V30 2636 C 243.203 -2.51214 3.65248 0
M  V30 2637 H 240.423 -0.243573 0.625231 0
M  V30 2638 H 242.967 -0.109324 2.04208 0
M  V30 2639 H 241.122 -2.37364 3.06165 0
M  V30 2640 H 241.536 -1.40651 5.0529 0
M  V30 2641 H 243.01 -3.05497 4.59756 0
M  V30 2642 H 243.487 -3.28359 2.9168 0
M  V30 2643 H 244.093 -1.8747 3.81752 0
M  V30 2644 N 242.408 -1.52605 -0.393616 0
M  V30 2645 C 243.655 -1.67424 -1.1391 0
M  V30 2646 C 243.983 -0.411859 -1.90089 0
M  V30 2647 O 243.238 0.605626 -1.86093 0
M  V30 2648 C 243.537 -2.85721 -2.14705 0
M  V30 2649 C 243.203 -4.23342 -1.55218 0
M  V30 2650 C 241.865 -4.60771 -1.3872 0
M  V30 2651 C 244.217 -5.09041 -1.11924 0
M  V30 2652 C 241.545 -5.81563 -0.774689 0
M  V30 2653 C 243.897 -6.30452 -0.520853 0
M  V30 2654 C 242.561 -6.66617 -0.343134 0
M  V30 2655 H 241.831 -0.612648 -0.416826 0
M  V30 2656 H 244.478 -1.8674 -0.424315 0
M  V30 2657 H 242.783 -2.60803 -2.92385 0
M  V30 2658 H 244.48 -2.94382 -2.72288 0
M  V30 2659 H 241.07 -3.93855 -1.69045 0
M  V30 2660 H 245.254 -4.80695 -1.23473 0
M  V30 2661 H 240.51 -6.08196 -0.625154 0
M  V30 2662 H 244.684 -6.96175 -0.177065 0
M  V30 2663 H 242.311 -7.60083 0.133571 0
M  V30 2664 N 243.887 0.651787 -1.4349 0
M  V30 2665 C 244.797 1.79368 -1.5121 0
M  V30 2666 C 245.813 1.69361 -0.399093 0
M  V30 2667 O 246.989 1.90505 -0.653431 0
M  V30 2668 C 244.054 3.15653 -1.43401 0
M  V30 2669 C 243.115 3.37446 -2.65384 0
M  V30 2670 C 242.348 4.67229 -2.57939 0
M  V30 2671 O 242.571 5.46676 -1.62792 0
M  V30 2672 O 241.505 4.90773 -3.48462 0
M  V30 2673 H 245.331 1.7581 -2.47638 0
M  V30 2674 H 242.916 0.810447 -1.25507 0
M  V30 2675 H 244.798 3.96935 -1.41494 0
M  V30 2676 H 243.473 3.19798 -0.501085 0
M  V30 2677 H 242.38 2.55923 -2.72863 0
M  V30 2678 H 243.713 3.38148 -3.57654 0
M  V30 2679 N 245.365 1.30045 0.890287 0
M  V30 2680 C 246.59 1.21598 1.68014 0
M  V30 2681 C 247.015 -0.218678 1.86825 0
M  V30 2682 O 246.373 -1.15756 1.39536 0
M  V30 2683 C 246.421 1.94434 3.03691 0
M  V30 2684 O 245.525 1.2678 3.92429 0
M  V30 2685 H 244.866 0.420856 0.513592 0
M  V30 2686 H 247.396 1.71775 1.11151 0
M  V30 2687 H 247.406 2.03251 3.5377 0
M  V30 2688 H 246.081 2.98777 2.89318 0
M  V30 2689 H 244.658 1.26282 3.50866 0
M  V30 2690 N 246.843 -1.10192 1.12674 0
M  V30 2691 C 247.773 -2.18652 0.819362 0
M  V30 2692 C 248.754 -1.68698 -0.217915 0
M  V30 2693 O 249.939 -1.94041 -0.0785581 0
M  V30 2694 C 247.069 -3.46202 0.27594 0
M  V30 2695 C 246.023 -4.09444 1.24656 0
M  V30 2696 C 245.349 -5.31725 0.563258 0
M  V30 2697 C 246.649 -4.52863 2.60217 0
M  V30 2698 H 248.343 -2.44622 1.72628 0
M  V30 2699 H 245.889 -1.17571 0.831451 0
M  V30 2700 H 247.842 -4.21372 0.0486149 0
M  V30 2701 H 246.566 -3.1973 -0.666331 0
M  V30 2702 H 245.225 -3.36284 1.45974 0
M  V30 2703 H 244.873 -5.0153 -0.384235 0
M  V30 2704 H 244.573 -5.74991 1.21075 0
M  V30 2705 H 246.097 -6.09624 0.34503 0
M  V30 2706 H 247.511 -5.19294 2.42913 0
M  V30 2707 H 245.908 -5.06986 3.21068 0
M  V30 2708 H 246.978 -3.65656 3.18471 0
M  V30 2709 N 248.321 -0.919034 -1.28029 0
M  V30 2710 C 249.567 -0.555757 -1.95036 0
M  V30 2711 C 249.9 0.899198 -1.72128 0
M  V30 2712 O 249.175 1.64023 -1.04531 0
M  V30 2713 C 249.458 -0.872024 -3.49382 0
M  V30 2714 C 249.311 -2.3801 -3.81669 0
M  V30 2715 C 250.63 -0.37185 -4.38526 0
M  V30 2716 H 247.749 -0.203386 -0.708381 0
M  V30 2717 H 250.391 -1.14924 -1.51303 0
M  V30 2718 H 248.541 -0.366946 -3.86763 0
M  V30 2719 H 250.213 -2.9562 -3.54128 0
M  V30 2720 H 248.456 -2.83289 -3.28526 0
M  V30 2721 H 249.127 -2.55192 -4.8947 0
M  V30 2722 H 251.603 -0.804602 -4.08247 0
M  V30 2723 H 250.479 -0.622173 -5.45362 0
M  V30 2724 H 250.74 0.727934 -4.36066 0
M  V30 2725 N 249.799 1.42003 -0.683588 0
M  V30 2726 C 250.746 2.30798 -0.0107309 0
M  V30 2727 C 251.716 1.4645 0.783688 0
M  V30 2728 O 252.901 1.75263 0.754156 0
M  V30 2729 C 250.041 3.3238 0.928306 0
M  V30 2730 C 249.154 4.31814 0.126776 0
M  V30 2731 C 248.289 5.20468 1.06236 0
M  V30 2732 C 247.328 6.11577 0.253035 0
M  V30 2733 N 246.465 6.92754 1.14179 0
M  V30 2734 H 251.305 2.8778 -0.773727 0
M  V30 2735 H 248.842 1.41745 -0.393283 0
M  V30 2736 H 250.8 3.89813 1.48666 0
M  V30 2737 H 249.43 2.76976 1.65783 0
M  V30 2738 H 248.482 3.76427 -0.54833 0
M  V30 2739 H 249.794 4.96276 -0.501192 0
M  V30 2740 H 248.948 5.82677 1.69035 0
M  V30 2741 H 247.687 4.56204 1.7242 0
M  V30 2742 H 246.692 5.48428 -0.388108 0
M  V30 2743 H 247.917 6.77892 -0.404839 0
M  V30 2744 H 245.863 6.3111 1.78987 0
M  V30 2745 H 245.78 7.53855 0.569111 0
M  V30 2746 H 247.048 7.59441 1.75697 0
M  V30 2747 N 251.277 0.427512 1.51691 0
M  V30 2748 C 252.526 -0.143679 2.01188 0
M  V30 2749 C 252.839 -1.44642 1.31674 0
M  V30 2750 O 254.045 -2.09997 1.72086 0
M  V30 2751 C 252.501 -0.306602 3.58592 0
M  V30 2752 C 252.109 0.985125 4.37035 0
M  V30 2753 C 253.853 -0.832091 4.16265 0
M  V30 2754 C 251.76 0.788382 5.86122 0
M  V30 2755 H 250.69 -0.0574701 0.751807 0
M  V30 2756 H 253.341 0.555772 1.74881 0
M  V30 2757 H 251.723 -1.06882 3.81303 0
M  V30 2758 H 252.897 1.75492 4.26074 0
M  V30 2759 H 251.212 1.4384 3.90767 0
M  V30 2760 H 253.809 -0.995617 5.25349 0
M  V30 2761 H 254.152 -1.81186 3.74803 0
M  V30 2762 H 254.685 -0.128444 3.97593 0
M  V30 2763 H 251.424 1.74025 6.31978 0
M  V30 2764 H 250.944 0.0582143 5.99772 0
M  V30 2765 H 252.623 0.437722 6.45518 0
M  V30 2766 N 252.755 -1.56801 0.158532 0
M  V30 2767 C 253.685 -2.20347 -0.772609 0
M  V30 2768 C 254.666 -1.15518 -1.24859 0
M  V30 2769 O 255.851 -1.43902 -1.30406 0
M  V30 2770 C 252.981 -2.83417 -2.00729 0
M  V30 2771 C 251.935 -3.94174 -1.66765 0
M  V30 2772 C 251.261 -4.44233 -2.97592 0
M  V30 2773 C 252.561 -5.14392 -0.905447 0
M  V30 2774 H 254.255 -2.98413 -0.242959 0
M  V30 2775 H 251.801 -1.43537 -0.115419 0
M  V30 2776 H 253.754 -3.26543 -2.6636 0
M  V30 2777 H 252.478 -2.02701 -2.56086 0
M  V30 2778 H 251.137 -3.51684 -1.03508 0
M  V30 2779 H 250.785 -3.60325 -3.50963 0
M  V30 2780 H 250.485 -5.18945 -2.75626 0
M  V30 2781 H 252.009 -4.90037 -3.64274 0
M  V30 2782 H 253.423 -5.5429 -1.46408 0
M  V30 2783 H 251.82 -5.9494 -0.7853 0
M  V30 2784 H 252.89 -4.84795 0.100668 0
M  V30 2785 N 254.233 0.115231 -1.57178 0
M  V30 2786 C 255.196 1.12526 -1.99676 0
M  V30 2787 C 256.196 1.34095 -0.88742 0
M  V30 2788 O 257.386 1.30548 -1.15337 0
M  V30 2789 C 254.518 2.4789 -2.34015 0
M  V30 2790 H 255.711 0.759912 -2.90113 0
M  V30 2791 H 253.264 0.359648 -1.52106 0
M  V30 2792 H 253.999 2.89339 -1.4647 0
M  V30 2793 H 253.784 2.33588 -3.14927 0
M  V30 2794 H 255.274 3.20575 -2.67622 0
M  V30 2795 N 255.711 1.52812 0.385517 0
M  V30 2796 C 257.127 1.4214 0.725829 0
M  V30 2797 C 257.327 0.544589 1.94001 0
M  V30 2798 O 256.383 0.0193693 2.52493 0
M  V30 2799 C 257.696 2.85042 0.957668 0
M  V30 2800 C 259.244 2.94543 1.05892 0
M  V30 2801 C 259.719 4.38464 1.32337 0
M  V30 2802 N 261.21 4.41804 1.39151 0
M  V30 2803 C 261.945 5.5025 1.61285 0
M  V30 2804 N 261.441 6.68775 1.80866 0
M  V30 2805 N 263.234 5.37798 1.63492 0
M  V30 2806 H 255.385 2.08338 -0.413383 0
M  V30 2807 H 257.648 0.940016 -0.122775 0
M  V30 2808 H 257.354 3.51431 0.137568 0
M  V30 2809 H 257.228 3.27505 1.87137 0
M  V30 2810 H 259.615 2.28321 1.86959 0
M  V30 2811 H 259.696 2.55504 0.123057 0
M  V30 2812 H 259.34 5.05254 0.517793 0
M  V30 2813 H 259.27 4.75059 2.27214 0
M  V30 2814 H 261.761 3.56377 1.25713 0
M  V30 2815 H 262.074 7.47197 1.97271 0
M  V30 2816 H 260.419 6.71797 1.78083 0
M  V30 2817 H 263.61 4.44171 1.47749 0
M  V30 2818 H 263.783 6.22382 1.80402 0
M  V30 2819 N 257.189 -0.644168 1.43834 0
M  V30 2820 C 258.437 -1.40117 1.45642 0
M  V30 2821 C 258.758 -1.94814 0.0852413 0
M  V30 2822 O 258.028 -1.74988 -0.880688 0
M  V30 2823 H 256.608 -0.52005 0.536243 0
M  V30 2824 H 259.27 -0.7591 1.7951 0
M  V30 2825 H 258.366 -2.23902 2.17427 0
M  V30 2826 N 258.668 -1.30515 -0.883378 0
M  V30 2827 C 259.915 -1.1943 -1.63532 0
M  V30 2828 C 260.243 0.250627 -1.92878 0
M  V30 2829 O 259.498 1.19556 -1.54935 0
M  V30 2830 C 259.797 -1.96994 -2.98209 0
M  V30 2831 C 259.463 -3.466 -2.88408 0
M  V30 2832 C 258.125 -3.87397 -2.85442 0
M  V30 2833 C 260.477 -4.41863 -2.76418 0
M  V30 2834 C 257.805 -5.21745 -2.68327 0
M  V30 2835 C 260.157 -5.7632 -2.60841 0
M  V30 2836 C 258.821 -6.16354 -2.56251 0
M  V30 2837 H 258.091 -0.437025 -0.598406 0
M  V30 2838 H 260.738 -1.61635 -1.02696 0
M  V30 2839 H 259.043 -1.47429 -3.63004 0
M  V30 2840 H 260.74 -1.85808 -3.55354 0
M  V30 2841 H 257.33 -3.14182 -2.91527 0
M  V30 2842 H 261.514 -4.11285 -2.77775 0
M  V30 2843 H 256.77 -5.51853 -2.63189 0
M  V30 2844 H 260.944 -6.49772 -2.50538 0
M  V30 2845 H 258.571 -7.20401 -2.42748 0
M  V30 2846 N 260.146 1.09593 -1.13257 0
M  V30 2847 C 261.386 1.83349 -0.903472 0
M  V30 2848 C 261.75 1.83641 0.560351 0
M  V30 2849 O 262.951 2.53037 0.906947 0
M  V30 2850 C 261.222 3.25629 -1.47311 0
M  V30 2851 S 262.781 4.16408 -1.38382 0
M  V30 2852 H 259.599 0.632014 -0.325699 0
M  V30 2853 H 262.201 1.31817 -1.44376 0
M  V30 2854 H 260.905 3.22991 -2.53189 0
M  V30 2855 H 260.436 3.82233 -0.930689 0
M  V30 2856 H 262.451 4.94884 -0.361113 0
M  V30 2857 N 261.624 0.925811 1.2754 0
M  V30 2858 C 262.87 0.566092 1.94739 0
M  V30 2859 C 263.203 -0.890057 1.72603 0
M  V30 2860 O 262.478 -1.63467 1.05399 0
M  V30 2861 C 262.761 0.89054 3.48915 0
M  V30 2862 C 262.614 2.4003 3.80402 0
M  V30 2863 C 263.933 0.395101 4.38323 0
M  V30 2864 H 261.052 0.20714 0.707292 0
M  V30 2865 H 263.694 1.15725 1.50691 0
M  V30 2866 H 261.844 0.387452 3.86563 0
M  V30 2867 H 263.516 2.97494 3.52555 0
M  V30 2868 H 261.759 2.85028 3.2702 0
M  V30 2869 H 262.43 2.57785 4.8811 0
M  V30 2870 H 264.906 0.826241 4.07814 0
M  V30 2871 H 263.782 0.651086 5.45025 0
M  V30 2872 H 264.043 -0.704798 4.36446 0
M  V30 2873 N 263.102 -1.41638 0.69111 0
M  V30 2874 C 264.35 -2.00902 0.219758 0
M  V30 2875 C 264.671 -1.54994 -1.18329 0
M  V30 2876 O 263.941 -0.778628 -1.79762 0
M  V30 2877 H 262.521 -0.74289 0.0782558 0
M  V30 2878 H 265.183 -1.73327 0.891271 0
M  V30 2879 H 264.279 -3.11224 0.233708 0
M  V30 2880 N 264.58 -0.43555 -1.51462 0
M  V30 2881 C 265.49 0.383001 -2.31453 0
M  V30 2882 C 266.506 1.02931 -1.4029 0
M  V30 2883 O 267.682 1.02507 -1.73362 0
M  V30 2884 C 264.747 1.47043 -3.13973 0
M  V30 2885 C 263.808 0.844433 -4.20913 0
M  V30 2886 C 263.041 1.88004 -4.9949 0
M  V30 2887 O 263.264 3.10199 -4.78678 0
M  V30 2888 O 262.198 1.47157 -5.83634 0
M  V30 2889 H 266.024 -0.269964 -3.02498 0
M  V30 2890 H 263.609 -0.19813 -1.4808 0
M  V30 2891 H 265.491 2.10113 -3.65281 0
M  V30 2892 H 264.166 2.10751 -2.45695 0
M  V30 2893 H 263.073 0.175729 -3.73687 0
M  V30 2894 H 264.406 0.250869 -4.9156 0
M  V30 2895 N 266.058 1.56714 -0.166846 0
M  V30 2896 C 267.305 1.96747 0.479252 0
M  V30 2897 C 267.633 1.05263 1.63554 0
M  V30 2898 O 266.888 0.0858098 1.95512 0
M  V30 2899 C 267.187 3.42889 1.00806 0
M  V30 2900 C 266.853 4.50889 -0.0318574 0
M  V30 2901 C 265.515 4.8015 -0.317675 0
M  V30 2902 C 267.867 5.15949 -0.737956 0
M  V30 2903 C 265.195 5.71772 -1.31506 0
M  V30 2904 C 267.547 6.08647 -1.72429 0
M  V30 2905 C 266.211 6.36277 -2.0176 0
M  V30 2906 H 265.481 0.719949 0.175371 0
M  V30 2907 H 268.128 1.89756 -0.257864 0
M  V30 2908 H 266.433 3.4681 1.82291 0
M  V30 2909 H 268.13 3.71203 1.51689 0
M  V30 2910 H 264.72 4.28128 0.201088 0
M  V30 2911 H 268.904 4.93458 -0.530351 0
M  V30 2912 H 264.16 5.91465 -1.54853 0
M  V30 2913 H 268.334 6.58129 -2.27682 0
M  V30 2914 H 265.961 7.07075 -2.79194 0
M  V30 2915 N 267.536 -0.106894 1.57237 0
M  V30 2916 C 268.764 -0.826389 1.8968 0
M  V30 2917 C 269.179 -1.72856 0.759353 0
M  V30 2918 O 268.536 -1.80503 -0.269263 0
M  V30 2919 C 268.587 -1.64967 3.21665 0
M  V30 2920 O 268.308 -0.783804 4.31031 0
M  V30 2921 C 269.809 -2.47326 3.67892 0
M  V30 2922 H 267.029 -0.236927 0.627779 0
M  V30 2923 H 269.573 -0.0876593 2.04312 0
M  V30 2924 H 267.728 -2.34103 3.08666 0
M  V30 2925 H 268.142 -1.35284 5.06753 0
M  V30 2926 H 269.616 -3.00604 4.6297 0
M  V30 2927 H 270.093 -3.25247 2.95146 0
M  V30 2928 H 270.699 -1.83411 3.83719 0
M  V30 2929 N 269.014 -1.53014 -0.377408 0
M  V30 2930 C 270.261 -1.68623 -1.12128 0
M  V30 2931 C 270.589 -0.431997 -1.89642 0
M  V30 2932 O 269.844 0.585855 -1.86725 0
M  V30 2933 C 270.143 -2.87982 -2.11663 0
M  V30 2934 C 269.809 -4.24964 -1.50719 0
M  V30 2935 C 268.471 -4.62217 -1.33825 0
M  V30 2936 C 270.823 -5.10199 -1.06519 0
M  V30 2937 C 268.151 -5.82352 -0.712963 0
M  V30 2938 C 270.503 -6.30969 -0.453955 0
M  V30 2939 C 269.167 -6.66944 -0.272411 0
M  V30 2940 H 268.437 -0.617034 -0.410305 0
M  V30 2941 H 271.084 -1.8718 -0.404484 0
M  V30 2942 H 269.389 -2.63889 -2.89603 0
M  V30 2943 H 271.086 -2.97253 -2.6915 0
M  V30 2944 H 267.676 -3.95626 -1.64858 0
M  V30 2945 H 271.86 -4.81978 -1.18368 0
M  V30 2946 H 267.116 -6.08824 -0.560611 0
M  V30 2947 H 271.29 -6.96324 -0.103217 0
M  V30 2948 H 268.917 -7.59898 0.214181 0
M  V30 2949 N 270.492 0.636531 -1.44174 0
M  V30 2950 C 271.422 1.76003 -1.53444 0
M  V30 2951 C 272.403 1.65619 -0.387841 0
M  V30 2952 O 273.588 1.84461 -0.607257 0
M  V30 2953 C 270.718 3.14511 -1.4731 0
M  V30 2954 C 269.672 3.39677 -2.60391 0
M  V30 2955 C 268.998 4.78159 -2.39308 0
M  V30 2956 C 270.298 3.32772 -4.02567 0
M  V30 2957 H 271.992 1.68501 -2.47483 0
M  V30 2958 H 269.538 0.809237 -1.19111 0
M  V30 2959 H 271.491 3.92878 -1.52397 0
M  V30 2960 H 270.215 3.22783 -0.49785 0
M  V30 2961 H 268.874 2.63688 -2.54684 0
M  V30 2962 H 268.522 4.83128 -1.39988 0
M  V30 2963 H 268.222 4.95956 -3.15122 0
M  V30 2964 H 269.746 5.58762 -2.46205 0
M  V30 2965 H 271.16 4.01051 -4.09672 0
M  V30 2966 H 269.557 3.62104 -4.7854 0
M  V30 2967 H 270.627 2.30669 -4.2652 0
M  V30 2968 N 271.97 1.30982 0.876444 0
M  V30 2969 C 273.386 1.09498 1.16113 0
M  V30 2970 C 273.586 -0.13875 2.01022 0
M  V30 2971 O 272.642 -0.829935 2.38471 0
M  V30 2972 C 273.955 2.36308 1.85954 0
M  V30 2973 C 275.503 2.41856 1.98683 0
M  V30 2974 C 275.978 3.6853 2.71937 0
M  V30 2975 N 277.469 3.69387 2.79477 0
M  V30 2976 C 278.204 4.64096 3.36753 0
M  V30 2977 N 277.7 5.69155 3.95012 0
M  V30 2978 N 279.493 4.51626 3.3465 0
M  V30 2979 H 271.644 2.10118 0.310494 0
M  V30 2980 H 273.907 0.926634 0.200131 0
M  V30 2981 H 273.613 3.26388 1.31011 0
M  V30 2982 H 273.487 2.4561 2.86278 0
M  V30 2983 H 275.874 1.52249 2.52793 0
M  V30 2984 H 275.955 2.36523 0.9742 0
M  V30 2985 H 275.599 4.58499 2.18496 0
M  V30 2986 H 275.529 3.71127 3.73593 0
M  V30 2987 H 278.02 2.93438 2.38123 0
M  V30 2988 H 278.333 6.3751 4.36808 0
M  V30 2989 H 276.678 5.72937 3.93406 0
M  V30 2990 H 279.869 3.68728 2.8837 0
M  V30 2991 H 280.042 5.25614 3.7899 0
M  V30 2992 N 273.449 -1.08991 1.13837 0
M  V30 2993 C 274.726 -1.77863 0.813876 0
M  V30 2994 C 275.106 -1.99375 -0.693746 0
M  V30 2995 O 274.454 -1.59875 -1.63255 0
M  V30 2996 C 274.664 -3.0986 1.60586 0
M  V30 2997 C 276.012 -3.84493 1.8014 0
M  V30 2998 O 277.036 -3.19624 1.57222 0
M  V30 2999 O 275.895 -5.00957 2.18413 0
M  V30 3000 H 272.989 -0.771589 0.297624 0
M  V30 3001 H 275.535 -1.15507 1.24323 0
M  V30 3002 H 274.307 -2.89715 2.63022 0
M  V30 3003 H 273.93 -3.79942 1.17173 0
M  V30 3004 N 274.927 -0.932562 -1.27047 0
M  V30 3005 C 276.338 -0.619451 -1.76124 0
M  V30 3006 C 276.689 0.865397 -1.76083 0
M  V30 3007 O 275.814 1.67722 -1.36742 0
M  V30 3008 C 276.409 -1.11771 -3.19832 0
M  V30 3009 C 274.968 -0.855174 -3.66557 0
M  V30 3010 C 274.115 -1.27362 -2.46321 0
M  V30 3011 H 277.066 -1.11181 -1.13245 0
M  V30 3012 H 277.087 -0.46759 -3.77616 0
M  V30 3013 H 276.599 -2.19842 -3.1983 0
M  V30 3014 H 274.7 0.211524 -3.71999 0
M  V30 3015 H 274.813 -1.47613 -4.55793 0
M  V30 3016 H 273.177 -0.692119 -2.45116 0
M  V30 3017 H 273.96 -2.36307 -2.49025 0
M  V30 3018 N 276.405 1.4127 -0.698611 0
M  V30 3019 C 277.651 2.01979 -0.239972 0
M  V30 3020 C 278.006 1.54353 1.14861 0
M  V30 3021 O 277.299 0.746218 1.76471 0
M  V30 3022 C 277.493 3.56592 -0.240192 0
M  V30 3023 C 277.322 4.19226 -1.62726 0
M  V30 3024 C 276.092 4.53389 -2.23084 0
M  V30 3025 C 278.29 4.45228 -2.57443 0
M  V30 3026 N 276.272 5.01327 -3.54323 0
M  V30 3027 C 277.643 4.94973 -3.73365 0
M  V30 3028 C 279.698 4.27243 -2.55671 0
M  V30 3029 C 278.401 5.28624 -4.878 0
M  V30 3030 C 280.427 4.61985 -3.69221 0
M  V30 3031 C 279.789 5.11904 -4.83873 0
M  V30 3032 H 275.888 0.770561 -0.133269 0
M  V30 3033 H 278.472 1.71767 -0.916748 0
M  V30 3034 H 276.643 3.86271 0.406082 0
M  V30 3035 H 278.375 4.04025 0.23356 0
M  V30 3036 H 275.13 4.39946 -1.75341 0
M  V30 3037 H 275.554 5.29697 -4.21604 0
M  V30 3038 H 280.196 3.87884 -1.68243 0
M  V30 3039 H 277.914 5.66905 -5.75885 0
M  V30 3040 H 281.5 4.49725 -3.69105 0
M  V30 3041 H 280.38 5.38282 -5.70282 0
M  V30 3042 N 277.883 0.443576 1.51229 0
M  V30 3043 C 278.831 -0.37904 2.29491 0
M  V30 3044 C 279.825 -1.0153 1.35603 0
M  V30 3045 O 281.031 -0.94955 1.52917 0
M  V30 3046 H 277.406 -0.141053 0.738653 0
M  V30 3047 H 279.377 0.301799 2.9687 0
M  V30 3048 C 278.126 -1.46426 3.15364 0
M  V30 3049 H 277.449 -0.984037 3.87501 0
M  V30 3050 H 278.889 -2.01297 3.7317 0
M  V30 3051 C 277.348 -2.45099 2.31146 0
M  V30 3052 O 277.878 -3.49773 1.9754 0
M  V30 3053 N 276.084 -2.16139 1.94249 0
M  V30 3054 H 275.631 -1.31044 2.21777 0
M  V30 3055 H 275.589 -2.82398 1.38198 0
M  V30 3056 N 279.361 -1.56624 0.175154 0
M  V30 3057 C 280.607 -1.98061 -0.462976 0
M  V30 3058 C 280.962 -1.05949 -1.60601 0
M  V30 3059 O 280.255 -0.0999027 -1.91339 0
M  V30 3060 C 280.449 -3.43419 -0.989864 0
M  V30 3061 C 280.278 -4.49587 0.100583 0
M  V30 3062 C 279.048 -5.02281 0.551539 0
M  V30 3063 C 281.246 -5.06322 0.902369 0
M  V30 3064 N 279.228 -5.92088 1.62189 0
M  V30 3065 C 280.599 -5.92607 1.82256 0
M  V30 3066 C 282.654 -4.88811 0.947019 0
M  V30 3067 C 281.357 -6.63254 2.78364 0
M  V30 3068 C 283.383 -5.60182 1.89606 0
M  V30 3069 C 282.745 -6.46197 2.80372 0
M  V30 3070 H 278.844 -0.769833 -0.137409 0
M  V30 3071 H 281.428 -1.9273 0.276256 0
M  V30 3072 H 279.599 -3.49288 -1.6986 0
M  V30 3073 H 281.331 -3.7186 -1.59694 0
M  V30 3074 H 278.086 -4.73367 0.148537 0
M  V30 3075 H 278.51 -6.41696 2.15767 0
M  V30 3076 H 283.152 -4.22004 0.259304 0
M  V30 3077 H 280.87 -7.29271 3.48122 0
M  V30 3078 H 284.456 -5.48617 1.93676 0
M  V30 3079 H 283.336 -7.00453 3.52612 0
M  V30 3080 N 280.839 0.0985539 -1.57292 0
M  V30 3081 C 281.769 1.12064 -2.04851 0
M  V30 3082 C 282.75 1.41981 -0.936767 0
M  V30 3083 O 283.935 1.52071 -1.20781 0
M  V30 3084 C 281.065 2.44144 -2.47004 0
M  V30 3085 C 280.019 2.28643 -3.6181 0
M  V30 3086 C 279.345 3.65869 -3.89929 0
M  V30 3087 C 280.645 1.72986 -4.92822 0
M  V30 3088 H 282.339 0.724979 -2.9049 0
M  V30 3089 H 279.885 0.34729 -1.39749 0
M  V30 3090 H 281.838 3.15914 -2.78884 0
M  V30 3091 H 280.562 2.85639 -1.5836 0
M  V30 3092 H 279.221 1.59318 -3.30172 0
M  V30 3093 H 278.869 4.04885 -2.98458 0
M  V30 3094 H 278.569 3.56344 -4.67218 0
M  V30 3095 H 280.093 4.39112 -4.2428 0
M  V30 3096 H 281.507 2.34593 -5.23105 0
M  V30 3097 H 279.904 1.74229 -5.74251 0
M  V30 3098 H 280.974 0.689007 -4.7998 0
M  V30 3099 N 282.317 1.53212 0.369288 0
M  V30 3100 C 283.594 1.59815 1.12776 0
M  V30 3101 C 283.974 0.403402 2.0721 0
M  V30 3102 O 283.322 -0.606667 2.20299 0
M  V30 3103 C 283.532 2.94664 1.87013 0
M  V30 3104 C 284.88 3.49109 2.41677 0
M  V30 3105 O 285.904 2.96669 1.97144 0
M  V30 3106 O 284.763 4.40775 3.23079 0
M  V30 3107 H 281.857 0.645376 0.517125 0
M  V30 3108 H 284.403 1.65553 0.37285 0
M  V30 3109 H 283.175 3.73061 1.18071 0
M  V30 3110 H 282.798 2.92401 2.69421 0
M  V30 3111 N 283.795 -0.628877 1.44509 0
M  V30 3112 C 285.042 -1.38839 1.47411 0
M  V30 3113 C 285.37 -1.94202 0.10757 0
M  V30 3114 O 284.625 -1.74243 -0.890947 0
M  V30 3115 C 284.924 -2.56995 2.48371 0
M  V30 3116 C 284.59 -2.19908 3.93639 0
M  V30 3117 C 283.252 -2.09506 4.33198 0
M  V30 3118 C 285.604 -1.9064 4.85083 0
M  V30 3119 C 282.932 -1.68028 5.62124 0
M  V30 3120 C 285.284 -1.50655 6.14399 0
M  V30 3121 C 283.948 -1.38796 6.5291 0
M  V30 3122 H 283.218 -0.508048 0.539414 0
M  V30 3123 H 285.865 -0.712913 1.77735 0
M  V30 3124 H 284.17 -3.29786 2.11538 0
M  V30 3125 H 285.867 -3.15223 2.47861 0
M  V30 3126 H 282.457 -2.28922 3.62343 0
M  V30 3127 H 286.641 -1.97585 4.55273 0
M  V30 3128 H 281.897 -1.57452 5.90778 0
M  V30 3129 H 286.071 -1.27048 6.84713 0
M  V30 3130 H 283.698 -1.06429 7.52713 0
M  V30 3131 N 285.273 -1.31445 -0.869486 0
M  V30 3132 C 286.519 -1.21337 -1.62496 0
M  V30 3133 C 286.852 0.227872 -1.92858 0
M  V30 3134 O 286.127 1.16094 -1.56053 0
M  V30 3135 C 286.41 -2.05814 -2.95487 0
M  V30 3136 C 286.263 -3.5824 -2.72 0
M  V30 3137 C 287.582 -1.9079 -3.96594 0
M  V30 3138 H 284.701 -0.442135 -0.589649 0
M  V30 3139 H 287.343 -1.6124 -1.00507 0
M  V30 3140 H 285.493 -1.71913 -3.48394 0
M  V30 3141 H 287.165 -4.0228 -2.25762 0
M  V30 3142 H 285.408 -3.81647 -2.06224 0
M  V30 3143 H 286.079 -4.12657 -3.66631 0
M  V30 3144 H 288.555 -2.20459 -3.52898 0
M  V30 3145 H 287.431 -2.52199 -4.87531 0
M  V30 3146 H 287.692 -0.871341 -4.33428 0
M  V30 3147 N 286.751 1.08385 -1.14413 0
M  V30 3148 C 287.997 1.81044 -0.913834 0
M  V30 3149 C 288.33 1.86004 0.558209 0
M  V30 3150 O 287.605 1.33606 1.4135 0
M  V30 3151 C 287.888 3.26648 -1.51569 0
M  V30 3152 C 287.741 3.29895 -3.0576 0
M  V30 3153 C 289.06 4.23629 -1.19273 0
M  V30 3154 H 286.179 0.65727 -0.333414 0
M  V30 3155 H 288.821 1.26896 -1.41412 0
M  V30 3156 H 286.971 3.72889 -1.09023 0
M  V30 3157 H 288.643 2.91977 -3.57137 0
M  V30 3158 H 286.886 2.69163 -3.40197 0
M  V30 3159 H 287.557 4.32516 -3.42977 0
M  V30 3160 H 290.033 3.85727 -1.56057 0
M  V30 3161 H 288.909 5.23822 -1.64017 0
M  V30 3162 H 289.17 4.41968 -0.108068 0
M  V30 3163 N 288.23 0.939286 1.26551 0
M  V30 3164 C 289.479 0.581601 1.93133 0
M  V30 3165 C 289.792 -0.883224 1.74524 0
M  V30 3166 O 290.998 -1.3502 2.35546 0
M  V30 3167 C 289.454 0.989425 3.46032 0
M  V30 3168 C 289.062 2.47573 3.73379 0
M  V30 3169 C 290.806 0.703544 4.18629 0
M  V30 3170 C 288.713 2.82235 5.19709 0
M  V30 3171 H 287.643 0.213803 0.723052 0
M  V30 3172 H 290.294 1.14167 1.4366 0
M  V30 3173 H 288.676 0.357902 3.94379 0
M  V30 3174 H 289.85 3.15614 3.35744 0
M  V30 3175 H 288.165 2.73471 3.1401 0
M  V30 3176 H 290.762 0.938869 5.26393 0
M  V30 3177 H 291.105 -0.359639 4.14744 0
M  V30 3178 H 291.638 1.2947 3.76141 0
M  V30 3179 H 288.377 3.87509 5.28694 0
M  V30 3180 H 287.897 2.18854 5.58447 0
M  V30 3181 H 289.576 2.70599 5.87695 0
M  V30 3182 N 289.708 -1.40897 0.706093 0
M  V30 3183 C 290.954 -2.01352 0.241889 0
M  V30 3184 C 291.287 -1.55832 -1.15888 0
M  V30 3185 O 290.562 -0.774145 -1.7843 0
M  V30 3186 C 290.845 -3.58752 0.311311 0
M  V30 3187 C 290.698 -4.1437 1.74978 0
M  V30 3188 C 292.017 -4.38914 -0.322922 0
M  V30 3189 H 289.136 -0.731562 0.0893687 0
M  V30 3190 H 291.778 -1.67504 0.896802 0
M  V30 3191 H 289.928 -3.87718 -0.246302 0
M  V30 3192 H 291.6 -3.96239 2.36205 0
M  V30 3193 H 289.843 -3.69016 2.28057 0
M  V30 3194 H 290.514 -5.23532 1.74981 0
M  V30 3195 H 292.99 -4.15822 0.152089 0
M  V30 3196 H 291.866 -5.48358 -0.243855 0
M  V30 3197 H 292.127 -4.19176 -1.40513 0
M  V30 3198 N 291.186 -0.45159 -1.50991 0
M  V30 3199 C 292.433 0.110074 -2.02201 0
M  V30 3200 C 292.761 1.4146 -1.33489 0
M  V30 3201 O 292.016 1.90617 -0.443125 0
M  V30 3202 C 292.315 0.361728 -3.55565 0
M  V30 3203 C 291.981 -0.858717 -4.42648 0
M  V30 3204 C 290.643 -1.19338 -4.66167 0
M  V30 3205 C 292.995 -1.67221 -4.93646 0
M  V30 3206 C 290.323 -2.34195 -5.37931 0
M  V30 3207 C 292.675 -2.8119 -5.6667 0
M  V30 3208 C 291.339 -3.15094 -5.88449 0
M  V30 3209 H 290.609 0.040279 -0.739904 0
M  V30 3210 H 293.256 -0.601696 -1.81802 0
M  V30 3211 H 291.561 1.15554 -3.74372 0
M  V30 3212 H 293.258 0.80996 -3.92735 0
M  V30 3213 H 289.848 -0.58796 -4.24548 0
M  V30 3214 H 294.032 -1.42686 -4.75347 0
M  V30 3215 H 289.288 -2.6076 -5.53005 0
M  V30 3216 H 293.462 -3.44585 -6.05173 0
M  V30 3217 H 291.089 -4.04204 -6.43835 0
M  V30 3218 N 292.664 1.56529 -0.183458 0
M  V30 3219 C 293.627 2.17324 0.728223 0
M  V30 3220 C 294.627 1.12453 1.14939 0
M  V30 3221 O 295.817 1.37902 1.06437 0
M  V30 3222 C 292.949 2.76591 1.99274 0
M  V30 3223 H 294.142 2.99241 0.198772 0
M  V30 3224 H 291.695 1.5616 0.0661391 0
M  V30 3225 H 292.43 1.98441 2.56499 0
M  V30 3226 H 292.215 3.5335 1.69959 0
M  V30 3227 H 293.705 3.23311 2.6431 0
M  V30 3228 N 294.142 -0.090211 1.57342 0
M  V30 3229 C 295.372 -0.805055 1.90269 0
M  V30 3230 C 295.78 -1.72561 0.775842 0
M  V30 3231 O 295.123 -1.81839 -0.260843 0
M  V30 3232 C 295.185 -1.66734 3.18497 0
M  V30 3233 C 294.849 -0.918092 4.47683 0
M  V30 3234 C 295.846 -0.245674 5.19319 0
M  V30 3235 C 293.531 -0.890724 4.94339 0
M  V30 3236 C 295.525 0.444088 6.35851 0
M  V30 3237 C 293.212 -0.197179 6.10782 0
M  V30 3238 C 294.21 0.469044 6.81388 0
M  V30 3239 O 293.898 1.15146 7.95611 0
M  V30 3240 H 293.63 -0.235143 0.633785 0
M  V30 3241 H 296.184 -0.0703805 2.05279 0
M  V30 3242 H 294.414 -2.44437 2.99646 0
M  V30 3243 H 296.103 -2.25919 3.37217 0
M  V30 3244 H 296.869 -0.258246 4.84312 0
M  V30 3245 H 292.748 -1.39873 4.39268 0
M  V30 3246 H 296.292 0.964667 6.90898 0
M  V30 3247 H 292.189 -0.18247 6.45242 0
M  V30 3248 H 292.957 1.05885 8.11622 0
M  V30 3249 N 295.62 -1.53406 -0.361157 0
M  V30 3250 C 296.55 -1.83136 -1.44857 0
M  V30 3251 C 297.531 -0.685174 -1.5569 0
M  V30 3252 O 298.716 -0.93544 -1.70186 0
M  V30 3253 C 295.846 -2.02522 -2.82138 0
M  V30 3254 C 294.8 -3.18302 -2.86126 0
M  V30 3255 C 294.126 -3.22989 -4.26125 0
M  V30 3256 C 295.426 -4.56796 -2.53248 0
M  V30 3257 H 297.12 -2.74201 -1.20226 0
M  V30 3258 H 294.666 -1.31938 -0.576922 0
M  V30 3259 H 296.619 -2.21904 -3.58241 0
M  V30 3260 H 295.343 -1.08172 -3.08166 0
M  V30 3261 H 294.002 -2.98747 -2.12475 0
M  V30 3262 H 293.65 -2.26267 -4.49235 0
M  V30 3263 H 293.35 -4.00781 -4.29708 0
M  V30 3264 H 294.874 -3.44559 -5.04094 0
M  V30 3265 H 296.288 -4.7631 -3.19064 0
M  V30 3266 H 294.685 -5.36862 -2.68141 0
M  V30 3267 H 295.755 -4.61606 -1.48484 0
M  V30 3268 N 297.098 0.621204 -1.44841 0
M  V30 3269 C 298.326 1.40752 -1.51646 0
M  V30 3270 C 298.741 1.88246 -0.144549 0
M  V30 3271 O 298.098 1.61422 0.851416 0
M  V30 3272 C 298.149 2.62119 -2.4895 0
M  V30 3273 O 297.87 2.16602 -3.80808 0
M  V30 3274 C 299.371 3.55135 -2.65319 0
M  V30 3275 H 296.591 0.431325 -0.514004 0
M  V30 3276 H 299.135 0.758835 -1.899 0
M  V30 3277 H 297.29 3.23058 -2.13805 0
M  V30 3278 H 297.704 2.95358 -4.33433 0
M  V30 3279 H 299.178 4.36874 -3.37409 0
M  V30 3280 H 299.655 4.04592 -1.70886 0
M  V30 3281 H 300.261 3.00058 -3.01405 0
M  V30 3282 N 298.576 1.31904 0.862503 0
M  V30 3283 C 299.486 1.22161 2.00285 0
M  V30 3284 C 300.502 0.136785 1.73462 0
M  V30 3285 O 301.678 0.355994 1.98229 0
M  V30 3286 C 298.743 0.937093 3.33796 0
M  V30 3287 C 297.804 2.10957 3.73893 0
M  V30 3288 C 297.037 1.83853 5.01033 0
M  V30 3289 O 297.26 0.777274 5.65079 0
M  V30 3290 O 296.194 2.69741 5.38074 0
M  V30 3291 H 300.02 2.18008 2.11439 0
M  V30 3292 H 297.605 1.11716 0.991957 0
M  V30 3293 H 299.487 0.794583 4.13841 0
M  V30 3294 H 298.162 0.00871894 3.23699 0
M  V30 3295 H 297.069 2.30752 2.94456 0
M  V30 3296 H 298.402 3.02046 3.88625 0
M  V30 3297 N 300.054 -1.07777 1.14986 0
M  V30 3298 C 301.301 -1.8029 0.922056 0
M  V30 3299 C 301.629 -1.86531 -0.55105 0
M  V30 3300 O 300.884 -1.34189 -1.42449 0
M  V30 3301 C 301.183 -3.25495 1.47608 0
M  V30 3302 C 300.849 -3.39361 2.96893 0
M  V30 3303 C 299.511 -3.42852 3.37647 0
M  V30 3304 C 301.863 -3.42512 3.92854 0
M  V30 3305 C 299.191 -3.47094 4.73015 0
M  V30 3306 C 301.543 -3.4829 5.28088 0
M  V30 3307 C 300.207 -3.50058 5.68345 0
M  V30 3308 H 299.477 -0.659727 0.337404 0
M  V30 3309 H 302.124 -1.26854 1.43459 0
M  V30 3310 H 300.429 -3.81683 0.88463 0
M  V30 3311 H 302.126 -3.80168 1.27568 0
M  V30 3312 H 298.716 -3.37339 2.64387 0
M  V30 3313 H 302.9 -3.3904 3.62444 0
M  V30 3314 H 298.156 -3.46758 5.03556 0
M  V30 3315 H 302.33 -3.49675 6.02246 0
M  V30 3316 H 299.957 -3.53097 6.73221 0
M  V30 3317 N 301.532 -0.945985 -1.26051 0
M  V30 3318 C 302.778 -0.597002 -1.93814 0
M  V30 3319 C 303.111 0.862484 -1.73997 0
M  V30 3320 O 302.386 1.61769 -1.07986 0
M  V30 3321 C 302.669 -0.945937 -3.47454 0
M  V30 3322 C 302.522 -2.46052 -3.76535 0
M  V30 3323 C 303.841 -0.464785 -4.37639 0
M  V30 3324 H 300.96 -0.218366 -0.703907 0
M  V30 3325 H 303.602 -1.18107 -1.48831 0
M  V30 3326 H 301.752 -0.448902 -3.85898 0
M  V30 3327 H 303.424 -3.03065 -3.47778 0
M  V30 3328 H 301.667 -2.90194 -3.22444 0
M  V30 3329 H 302.338 -2.65517 -4.83947 0
M  V30 3330 H 304.814 -0.891016 -4.06448 0
M  V30 3331 H 303.69 -0.737712 -5.4392 0
M  V30 3332 H 303.951 0.635274 -4.37512 0
M  V30 3333 N 303.011 1.40521 -0.713556 0
M  V30 3334 C 303.959 2.32549 -0.0485227 0
M  V30 3335 C 304.953 1.51931 0.74922 0
M  V30 3336 O 306.159 1.67745 0.652816 0
M  V30 3337 H 302.534 0.751994 0.00311138 0
M  V30 3338 H 304.505 2.86291 -0.841443 0
M  V30 3339 C 303.254 3.36879 0.860687 0
M  V30 3340 H 302.577 3.98978 0.256246 0
M  V30 3341 H 304.017 4.03772 1.294 0
M  V30 3342 C 302.476 2.72197 1.9852 0
M  V30 3343 O 303.006 2.5837 3.07584 0
M  V30 3344 N 301.212 2.30612 1.76823 0
M  V30 3345 H 300.759 2.42059 0.881217 0
M  V30 3346 H 300.717 1.87672 2.52243 0
M  V30 3347 N 304.489 0.459591 1.5075 0
M  V30 3348 C 305.419 -0.330644 2.31147 0
M  V30 3349 C 306.4 -1.00087 1.37538 0
M  V30 3350 O 307.585 -1.00025 1.66459 0
M  V30 3351 C 304.715 -1.41958 3.16962 0
M  V30 3352 C 303.669 -0.871608 4.19031 0
M  V30 3353 C 302.995 -2.05797 4.9351 0
M  V30 3354 C 304.295 0.109251 5.22186 0
M  V30 3355 H 305.989 0.340336 2.97459 0
M  V30 3356 H 303.535 0.165119 1.4305 0
M  V30 3357 H 305.488 -1.9798 3.71997 0
M  V30 3358 H 304.212 -2.11917 2.48513 0
M  V30 3359 H 302.871 -0.333442 3.6508 0
M  V30 3360 H 302.519 -2.74427 4.21544 0
M  V30 3361 H 302.219 -1.6976 5.62544 0
M  V30 3362 H 303.743 -2.62331 5.51375 0
M  V30 3363 H 305.157 -0.361405 5.7216 0
M  V30 3364 H 303.554 0.383316 5.98875 0
M  V30 3365 H 304.624 1.03887 4.73641 0
M  V30 3366 N 305.967 -1.56429 0.191757 0
M  V30 3367 C 307.215 -1.97095 -0.447006 0
M  V30 3368 C 307.536 -1.07967 -1.62383 0
M  V30 3369 O 306.806 -0.150248 -1.95323 0
M  V30 3370 H 305.386 -0.727832 -0.168135 0
M  V30 3371 H 308.048 -1.92911 0.27771 0
M  V30 3372 H 307.144 -3.01848 -0.793371 0
M  V30 3373 N 307.445 0.0818655 -1.57387 0
M  V30 3374 C 308.393 1.11712 -2.04018 0
M  V30 3375 C 309.387 1.40683 -0.94364 0
M  V30 3376 O 310.593 1.40209 -1.12878 0
M  V30 3377 H 306.968 0.377542 -0.650358 0
M  V30 3378 H 308.939 0.697614 -2.90131 0
M  V30 3379 C 307.688 2.42537 -2.49141 0
M  V30 3380 H 307.011 2.21092 -3.33104 0
M  V30 3381 H 308.451 3.13446 -2.85531 0
M  V30 3382 C 306.91 3.0778 -1.37014 0
M  V30 3383 O 307.44 3.95436 -0.706621 0
M  V30 3384 N 305.646 2.68242 -1.11779 0
M  V30 3385 H 305.193 1.97052 -1.65917 0
M  V30 3386 H 305.151 3.1222 -0.369594 0
M  V30 3387 N 308.923 1.53595 0.353017 0
M  V30 3388 C 310.169 1.70638 1.09593 0
M  V30 3389 C 310.502 0.463286 1.88593 0
M  V30 3390 O 309.777 -0.539597 1.86865 0
M  V30 3391 C 310.06 2.96406 2.04489 0
M  V30 3392 C 309.913 4.30901 1.29014 0
M  V30 3393 C 311.232 3.17812 3.0444 0
M  V30 3394 H 308.351 0.620913 0.397034 0
M  V30 3395 H 310.993 1.86254 0.375446 0
M  V30 3396 H 309.143 2.83223 2.65927 0
M  V30 3397 H 310.815 4.55917 0.702638 0
M  V30 3398 H 309.058 4.29741 0.592071 0
M  V30 3399 H 309.729 5.1506 1.98537 0
M  V30 3400 H 312.205 3.30263 2.53112 0
M  V30 3401 H 311.081 4.07223 3.6805 0
M  V30 3402 H 311.342 2.33669 3.75301 0
M  V30 3403 N 310.401 -0.613514 1.45168 0
M  V30 3404 C 311.626 -1.40437 1.52618 0
M  V30 3405 C 312.051 -1.87438 0.157707 0
M  V30 3406 O 311.409 -1.59791 -0.856537 0
M  V30 3407 C 311.457 -2.58894 2.51011 0
M  V30 3408 O 310.561 -3.59326 2.02382 0
M  V30 3409 H 309.902 -0.419506 0.514695 0
M  V30 3410 H 312.432 -0.747215 1.90467 0
M  V30 3411 H 312.442 -3.06214 2.69624 0
M  V30 3412 H 311.117 -2.24032 3.50403 0
M  V30 3413 H 309.694 -3.18695 1.93618 0
M  V30 3414 N 311.879 -1.3236 -0.855495 0
M  V30 3415 C 312.842 -1.21164 -1.94556 0
M  V30 3416 C 313.842 -0.134908 -1.60233 0
M  V30 3417 O 315.032 -0.385249 -1.69887 0
M  V30 3418 C 312.164 -0.863192 -3.29791 0
M  V30 3419 H 313.357 -2.18038 -2.05911 0
M  V30 3420 H 310.91 -1.16179 -1.04557 0
M  V30 3421 H 311.645 0.103769 -3.24134 0
M  V30 3422 H 311.43 -1.64166 -3.56078 0
M  V30 3423 H 312.92 -0.809156 -4.09686 0
M  V30 3424 N 313.357 1.07166 -1.15556 0
M  V30 3425 C 314.287 2.16403 -0.877046 0
M  V30 3426 C 315.268 1.69217 0.173111 0
M  V30 3427 O 316.453 1.94181 0.027084 0
M  V30 3428 C 313.583 3.45349 -0.367632 0
M  V30 3429 C 312.537 4.05995 -1.35468 0
M  V30 3430 C 311.863 5.30045 -0.704038 0
M  V30 3431 C 313.163 4.45804 -2.72132 0
M  V30 3432 H 314.857 2.39959 -1.79053 0
M  V30 3433 H 312.403 1.15325 -0.862331 0
M  V30 3434 H 314.356 4.21095 -0.160317 0
M  V30 3435 H 313.08 3.21385 0.581326 0
M  V30 3436 H 311.739 3.32296 -1.54839 0
M  V30 3437 H 311.387 5.02373 0.251128 0
M  V30 3438 H 311.087 5.71579 -1.36277 0
M  V30 3439 H 312.611 6.08495 -0.50654 0
M  V30 3440 H 314.025 5.12671 -2.56595 0
M  V30 3441 H 312.422 4.98296 -3.34397 0
M  V30 3442 H 313.492 3.57083 -3.28054 0
M  V30 3443 N 314.835 0.952656 1.25548 0
M  V30 3444 C 316.251 0.656769 1.4546 0
M  V30 3445 C 316.451 -0.78633 1.85524 0
M  V30 3446 O 315.507 -1.56183 1.98402 0
M  V30 3447 C 316.82 1.62801 2.52817 0
M  V30 3448 C 318.368 1.63897 2.66659 0
M  V30 3449 C 318.843 2.5978 3.77198 0
M  V30 3450 N 320.334 2.58133 3.84606 0
M  V30 3451 C 321.069 3.29003 4.69621 0
M  V30 3452 N 320.565 4.09339 5.58939 0
M  V30 3453 N 322.358 3.179 4.63569 0
M  V30 3454 H 314.509 1.88526 0.978344 0
M  V30 3455 H 316.772 0.810815 0.491206 0
M  V30 3456 H 316.478 2.65869 2.30232 0
M  V30 3457 H 316.352 1.38898 3.50695 0
M  V30 3458 H 318.739 0.615481 2.8861 0
M  V30 3459 H 318.82 1.91858 1.69187 0
M  V30 3460 H 318.464 3.62254 3.55997 0
M  V30 3461 H 318.394 2.29105 4.7415 0
M  V30 3462 H 320.885 1.99809 3.20757 0
M  V30 3463 H 321.198 4.6034 6.20731 0
M  V30 3464 H 319.543 4.13438 5.58654 0
M  V30 3465 H 322.734 2.54612 3.92798 0
M  V30 3466 H 322.907 3.73398 5.29602 0
M  V30 3467 N 316.313 -1.40141 0.720998 0
M  V30 3468 C 317.541 -2.05096 0.272656 0
M  V30 3469 C 317.956 -1.54334 -1.0875 0
M  V30 3470 O 317.313 -0.702211 -1.6845 0
M  V30 3471 C 317.364 -3.60636 0.249835 0
M  V30 3472 O 317.085 -4.09526 1.55629 0
M  V30 3473 C 318.586 -4.42772 -0.216396 0
M  V30 3474 H 315.806 -0.659897 0.121558 0
M  V30 3475 H 318.35 -1.79449 0.980723 0
M  V30 3476 H 316.505 -3.85232 -0.409237 0
M  V30 3477 H 316.919 -5.03758 1.4604 0
M  V30 3478 H 318.393 -5.51702 -0.181212 0
M  V30 3479 H 318.87 -4.20756 -1.25941 0
M  V30 3480 H 319.476 -4.23294 0.412596 0
M  V30 3481 N 317.792 -0.46758 -1.50504 0
M  V30 3482 C 319.039 0.0886219 -2.02306 0
M  V30 3483 C 319.367 1.40037 -1.34981 0
M  V30 3484 O 318.622 1.90136 -0.463318 0
M  V30 3485 C 318.921 0.323995 -3.55928 0
M  V30 3486 C 318.587 -0.905618 -4.41712 0
M  V30 3487 C 317.249 -1.24275 -4.64875 0
M  V30 3488 C 319.601 -1.72448 -4.91845 0
M  V30 3489 C 316.929 -2.39888 -5.35417 0
M  V30 3490 C 319.281 -2.87185 -5.63656 0
M  V30 3491 C 317.945 -3.21317 -5.85074 0
M  V30 3492 H 317.215 0.0324291 -0.74029 0
M  V30 3493 H 319.862 -0.620945 -1.81153 0
M  V30 3494 H 318.167 1.11577 -3.75577 0
M  V30 3495 H 319.864 0.76826 -3.93572 0
M  V30 3496 H 316.454 -0.632956 -4.239 0
M  V30 3497 H 320.638 -1.4772 -4.73806 0
M  V30 3498 H 315.894 -2.66611 -5.50208 0
M  V30 3499 H 320.068 -3.50985 -6.01484 0
M  V30 3500 H 317.695 -4.1101 -6.39511 0
M  V30 3501 N 319.27 1.56325 -0.20005 0
M  V30 3502 C 320.686 1.58839 0.155716 0
M  V30 3503 C 320.886 1.21636 1.60645 0
M  V30 3504 O 319.942 0.941437 2.34293 0
M  V30 3505 C 321.255 3.0032 -0.151124 0
M  V30 3506 C 322.803 3.12866 -0.0916284 0
M  V30 3507 C 323.278 4.56488 -0.371845 0
M  V30 3508 N 324.769 4.62089 -0.320641 0
M  V30 3509 C 325.504 5.71116 -0.511243 0
M  V30 3510 N 325 6.88592 -0.762461 0
M  V30 3511 N 326.793 5.60335 -0.445157 0
M  V30 3512 H 318.944 1.78788 -1.14668 0
M  V30 3513 H 321.207 0.829996 -0.458051 0
M  V30 3514 H 320.913 3.32117 -1.15721 0
M  V30 3515 H 320.787 3.73257 0.543986 0
M  V30 3516 H 323.174 2.80878 0.905065 0
M  V30 3517 H 323.255 2.42304 -0.81989 0
M  V30 3518 H 322.899 4.89189 -1.36588 0
M  V30 3519 H 322.829 5.25246 0.377362 0
M  V30 3520 H 325.32 3.77665 -0.13329 0
M  V30 3521 H 325.633 7.67581 -0.896576 0
M  V30 3522 H 323.978 6.90387 -0.799412 0
M  V30 3523 H 327.169 4.67436 -0.249278 0
M  V30 3524 H 327.342 6.45243 -0.597116 0
M  V30 3525 N 320.748 -0.0735177 1.57428 0
M  V30 3526 C 321.994 -0.774145 1.87443 0
M  V30 3527 C 322.327 -1.77311 0.792103 0
M  V30 3528 O 321.602 -1.93492 -0.197793 0
M  V30 3529 C 321.885 -1.48367 3.28115 0
M  V30 3530 C 321.738 -0.501227 4.46999 0
M  V30 3531 C 323.057 -2.429 3.66998 0
M  V30 3532 H 320.176 -0.279971 0.681752 0
M  V30 3533 H 322.818 -0.0373616 1.89963 0
M  V30 3534 H 320.968 -2.11171 3.26097 0
M  V30 3535 H 322.64 0.121468 4.6114 0
M  V30 3536 H 320.883 0.183593 4.33411 0
M  V30 3537 H 321.554 -1.03526 5.42205 0
M  V30 3538 H 324.03 -1.90175 3.70098 0
M  V30 3539 H 322.906 -2.89549 4.66318 0
M  V30 3540 H 323.167 -3.27628 2.96837 0
M  V30 3541 N 322.226 -1.5378 -0.344866 0
M  V30 3542 C 323.156 -1.84662 -1.42906 0
M  V30 3543 C 324.137 -0.701648 -1.54955 0
M  V30 3544 O 325.322 -0.953438 -1.69184 0
M  V30 3545 C 322.452 -2.05503 -2.79974 0
M  V30 3546 C 321.406 -3.21318 -2.82734 0
M  V30 3547 C 320.732 -3.2749 -4.22675 0
M  V30 3548 C 322.032 -4.59456 -2.48389 0
M  V30 3549 H 323.726 -2.75461 -1.17311 0
M  V30 3550 H 321.272 -1.32542 -0.562896 0
M  V30 3551 H 323.225 -2.25691 -3.55867 0
M  V30 3552 H 321.949 -1.11434 -3.07002 0
M  V30 3553 H 320.608 -3.00984 -2.09294 0
M  V30 3554 H 320.256 -2.31019 -4.4681 0
M  V30 3555 H 319.956 -4.05316 -4.25433 0
M  V30 3556 H 321.48 -3.49887 -5.00412 0
M  V30 3557 H 322.894 -4.79667 -3.13995 0
M  V30 3558 H 321.291 -5.39675 -2.62432 0
M  V30 3559 H 322.361 -4.63155 -1.4358 0
M  V30 3560 N 323.704 0.605807 -1.45491 0
M  V30 3561 C 325.12 0.926751 -1.29936 0
M  V30 3562 C 325.32 1.99896 -0.253706 0
M  V30 3563 O 324.376 2.50038 0.351737 0
M  V30 3564 C 325.689 1.36599 -2.67883 0
M  V30 3565 C 327.237 1.4801 -2.75793 0
M  V30 3566 C 327.712 1.95309 -4.14268 0
M  V30 3567 N 329.203 2.0254 -4.16571 0
M  V30 3568 C 329.938 2.40363 -5.20589 0
M  V30 3569 N 329.434 2.77143 -6.34952 0
M  V30 3570 N 331.227 2.40718 -5.07948 0
M  V30 3571 H 323.378 -0.102862 -2.12151 0
M  V30 3572 H 325.641 0.016639 -0.947854 0
M  V30 3573 H 325.347 0.652306 -3.45598 0
M  V30 3574 H 325.221 2.33215 -2.96463 0
M  V30 3575 H 327.608 2.1847 -1.98381 0
M  V30 3576 H 327.689 0.497041 -2.50925 0
M  V30 3577 H 327.333 1.25436 -4.92167 0
M  V30 3578 H 327.263 2.94532 -4.3653 0
M  V30 3579 H 329.754 1.76699 -3.34045 0
M  V30 3580 H 330.067 3.0489 -7.10114 0
M  V30 3581 H 328.412 2.74834 -6.3835 0
M  V30 3582 H 331.603 2.11392 -4.1765 0
M  V30 3583 H 331.776 2.69869 -5.89131 0
M  V30 3584 N 325.182 1.32811 0.848464 0
M  V30 3585 C 326.145 1.22194 1.9391 0
M  V30 3586 C 327.145 0.143404 1.60159 0
M  V30 3587 O 328.335 0.394253 1.6968 0
M  V30 3588 C 325.467 0.88067 3.29328 0
M  V30 3589 H 326.66 2.19127 2.04752 0
M  V30 3590 H 324.213 1.16731 1.0394 0
M  V30 3591 H 324.948 -0.0865776 3.24184 0
M  V30 3592 H 324.733 1.66052 3.55203 0
M  V30 3593 H 326.223 0.830871 4.09251 0
M  V30 3594 N 326.66 -1.06551 1.16123 0
M  V30 3595 C 327.59 -2.15935 0.88851 0
M  V30 3596 C 328.571 -1.69306 -0.164135 0
M  V30 3597 O 329.756 -1.94193 -0.0167857 0
M  V30 3598 C 326.886 -3.45149 0.385942 0
M  V30 3599 C 325.84 -4.05271 1.3762 0
M  V30 3600 C 325.166 -5.29664 0.732137 0
M  V30 3601 C 326.466 -4.44355 2.74493 0
M  V30 3602 H 328.16 -2.39006 1.80323 0
M  V30 3603 H 325.706 -1.14866 0.868435 0
M  V30 3604 H 327.659 -4.21004 0.182647 0
M  V30 3605 H 326.383 -3.21689 -0.564274 0
M  V30 3606 H 325.042 -3.3147 1.56599 0
M  V30 3607 H 324.69 -5.02499 -0.224483 0
M  V30 3608 H 324.39 -5.70848 1.39307 0
M  V30 3609 H 325.914 -6.08218 0.538802 0
M  V30 3610 H 327.328 -5.11303 2.59311 0
M  V30 3611 H 325.725 -4.96515 3.37035 0
M  V30 3612 H 326.795 -3.55339 3.29943 0
M  V30 3613 N 328.138 -0.959301 -1.25041 0
M  V30 3614 C 329.085 -0.482057 -2.2571 0
M  V30 3615 C 330.055 0.467939 -1.59372 0
M  V30 3616 O 331.24 0.380159 -1.86974 0
M  V30 3617 C 328.38 0.229623 -3.44335 0
M  V30 3618 C 327.493 -0.758156 -4.25295 0
M  V30 3619 C 326.628 -0.0234403 -5.31195 0
M  V30 3620 C 325.667 -1.00184 -6.03846 0
M  V30 3621 N 324.804 -0.29769 -7.01469 0
M  V30 3622 H 329.644 -1.34538 -2.65901 0
M  V30 3623 H 327.181 -0.674592 -1.3072 0
M  V30 3624 H 329.139 0.658856 -4.11965 0
M  V30 3625 H 327.769 1.05696 -3.05005 0
M  V30 3626 H 326.821 -1.30586 -3.57284 0
M  V30 3627 H 328.133 -1.50458 -4.75567 0
M  V30 3628 H 327.287 0.464201 -6.04922 0
M  V30 3629 H 326.026 0.755741 -4.81809 0
M  V30 3630 H 325.031 -1.50044 -5.2893 0
M  V30 3631 H 326.256 -1.78133 -6.55321 0
M  V30 3632 H 324.202 0.462668 -6.54366 0
M  V30 3633 H 324.119 -0.983128 -7.4958 0
M  V30 3634 H 325.387 0.16826 -7.79318 0
M  V30 3635 N 329.616 1.39756 -0.72842 0
M  V30 3636 C 330.844 2.04948 -0.283528 0
M  V30 3637 C 331.259 1.54908 1.0793 0
M  V30 3638 O 330.616 0.711135 1.68075 0
M  V30 3639 C 330.667 3.60498 -0.268957 0
M  V30 3640 O 330.388 4.08695 -1.57798 0
M  V30 3641 C 331.889 4.4288 0.192912 0
M  V30 3642 H 329.109 0.659243 -0.125056 0
M  V30 3643 H 331.653 1.78927 -0.990226 0
M  V30 3644 H 329.808 3.85444 0.388801 0
M  V30 3645 H 330.222 5.02977 -1.48709 0
M  V30 3646 H 331.696 5.51791 0.151952 0
M  V30 3647 H 332.173 4.21418 1.23708 0
M  V30 3648 H 332.779 4.23069 -0.435039 0
M  V30 3649 N 331.094 0.475555 1.50254 0
M  V30 3650 C 332.343 -0.0795996 2.01543 0
M  V30 3651 C 332.656 -1.4038 1.36209 0
M  V30 3652 O 333.862 -2.04415 1.7868 0
M  V30 3653 C 332.318 -0.192363 3.59386 0
M  V30 3654 C 331.926 1.12367 4.33679 0
M  V30 3655 C 333.67 -0.699238 4.18701 0
M  V30 3656 C 331.577 0.974453 5.83317 0
M  V30 3657 H 330.507 -0.0335228 0.753254 0
M  V30 3658 H 333.158 0.611128 1.73025 0
M  V30 3659 H 331.54 -0.946974 3.84511 0
M  V30 3660 H 332.714 1.88958 4.20276 0
M  V30 3661 H 331.029 1.562 3.85993 0
M  V30 3662 H 333.626 -0.827978 5.28251 0
M  V30 3663 H 333.969 -1.69171 3.80377 0
M  V30 3664 H 334.502 -0.00188807 3.978 0
M  V30 3665 H 331.241 1.94042 6.26121 0
M  V30 3666 H 330.761 0.248998 5.99283 0
M  V30 3667 H 332.44 0.642867 6.43798 0
M  V30 3668 N 332.573 -1.56217 0.208337 0
M  V30 3669 C 333.798 -2.02782 -0.435222 0
M  V30 3670 C 334.223 -1.08738 -1.53485 0
M  V30 3671 O 333.581 -0.0731855 -1.81152 0
M  V30 3672 C 333.629 -3.47687 -0.956335 0
M  V30 3673 O 332.733 -3.56773 -2.06849 0
M  V30 3674 H 332.074 -0.656403 -0.100158 0
M  V30 3675 H 334.604 -2.02033 0.3231 0
M  V30 3676 H 334.614 -3.87745 -1.26955 0
M  V30 3677 H 333.289 -4.15624 -0.15143 0
M  V30 3678 H 331.866 -3.28597 -1.76292 0
M  V30 3679 N 334.051 0.0651679 -1.57465 0
M  V30 3680 C 335.297 0.764193 -1.87851 0
M  V30 3681 C 335.63 1.76889 -0.801495 0
M  V30 3682 O 334.905 1.93594 0.187528 0
M  V30 3683 C 335.188 1.46625 -3.28897 0
M  V30 3684 C 335.041 0.477515 -4.47258 0
M  V30 3685 C 336.36 2.4095 -3.68281 0
M  V30 3686 H 333.479 0.276351 -0.683227 0
M  V30 3687 H 336.121 0.0272868 -1.8998 0
M  V30 3688 H 334.271 2.09438 -3.27212 0
M  V30 3689 H 335.943 -0.145922 -4.61069 0
M  V30 3690 H 334.186 -0.206576 -4.33308 0
M  V30 3691 H 334.857 1.0065 -5.42746 0
M  V30 3692 H 337.333 1.88209 -3.71102 0
M  V30 3693 H 336.209 2.87072 -4.67847 0
M  V30 3694 H 336.47 3.26049 -2.98571 0
M  V30 3695 N 335.529 1.53961 0.336706 0
M  V30 3696 C 336.778 1.70751 1.07363 0
M  V30 3697 C 337.091 0.481061 1.89592 0
M  V30 3698 O 338.297 0.530046 2.66276 0
M  V30 3699 C 336.753 3.01965 1.95818 0
M  V30 3700 C 336.361 4.31971 1.18764 0
M  V30 3701 C 338.105 3.28121 2.69327 0
M  V30 3702 C 336.012 5.54255 2.06289 0
M  V30 3703 H 334.942 0.636292 0.404535 0
M  V30 3704 H 337.593 1.80459 0.332681 0
M  V30 3705 H 335.975 2.86132 2.7376 0
M  V30 3706 H 337.149 4.5853 0.456849 0
M  V30 3707 H 335.464 4.12481 0.569946 0
M  V30 3708 H 338.061 4.16673 3.35094 0
M  V30 3709 H 338.404 2.45426 3.36261 0
M  V30 3710 H 338.937 3.44762 1.98454 0
M  V30 3711 H 335.676 6.39513 1.43885 0
M  V30 3712 H 335.196 5.31935 2.77138 0
M  V30 3713 H 336.875 5.90159 2.65182 0
M  V30 3714 N 337.007 -0.598083 1.45811 0
M  V30 3715 C 338.418 -1.18011 1.44673 0
M  V30 3716 C 338.769 -1.95378 0.179364 0
M  V30 3717 O 337.894 -2.04124 -0.718509 0
M  V30 3718 C 338.489 -2.14677 2.62105 0
M  V30 3719 C 337.048 -2.68236 2.64057 0
M  V30 3720 C 336.195 -1.43816 2.37091 0
M  V30 3721 H 339.146 -0.38686 1.53913 0
M  V30 3722 H 339.167 -2.97878 2.36746 0
M  V30 3723 H 338.679 -1.5834 3.5433 0
M  V30 3724 H 336.78 -3.28486 1.75864 0
M  V30 3725 H 336.893 -3.12021 3.63566 0
M  V30 3726 H 335.257 -1.731 1.86838 0
M  V30 3727 H 336.04 -0.893333 3.31473 0
M  V30 3728 N 338.485 -1.33259 -0.841409 0
M  V30 3729 C 339.733 -1.24326 -1.59334 0
M  V30 3730 C 340.054 0.191564 -1.94057 0
M  V30 3731 O 339.324 1.11967 -1.60749 0
M  V30 3732 H 337.904 -0.457174 -0.590763 0
M  V30 3733 H 340.566 -1.66947 -1.00571 0
M  V30 3734 H 339.662 -1.8352 -2.52442 0
M  V30 3735 N 339.963 1.05934 -1.16686 0
M  V30 3736 C 340.893 2.1546 -0.899949 0
M  V30 3737 C 341.874 1.69391 0.155154 0
M  V30 3738 O 343.059 1.94199 0.00648693 0
M  V30 3739 C 340.189 3.44939 -0.404241 0
M  V30 3740 C 339.143 4.04536 -1.39767 0
M  V30 3741 C 338.469 5.29268 -0.760216 0
M  V30 3742 C 339.769 4.42893 -2.76845 0
M  V30 3743 H 341.463 2.38046 -1.81588 0
M  V30 3744 H 339.009 1.14404 -0.874514 0
M  V30 3745 H 340.962 4.20901 -0.204971 0
M  V30 3746 H 339.686 3.21983 0.547206 0
M  V30 3747 H 338.345 3.30635 -1.58355 0
M  V30 3748 H 337.993 5.02611 0.197831 0
M  V30 3749 H 337.693 5.70101 -1.42332 0
M  V30 3750 H 339.217 6.07924 -0.57105 0
M  V30 3751 H 340.631 5.09921 -2.62019 0
M  V30 3752 H 339.028 4.94721 -3.39663 0
M  V30 3753 H 340.098 3.53584 -3.31823 0
M  V30 3754 N 341.441 0.965919 1.2453 0
M  V30 3755 C 342.388 0.49402 2.25451 0
M  V30 3756 C 343.358 -0.45948 1.59618 0
M  V30 3757 O 344.543 -0.370238 1.87173 0
M  V30 3758 C 341.683 -0.211359 3.44452 0
M  V30 3759 C 340.796 0.7807 4.24887 0
M  V30 3760 C 339.931 0.0516105 5.31175 0
M  V30 3761 C 338.97 1.03385 6.03306 0
M  V30 3762 N 338.107 0.334887 7.01301 0
M  V30 3763 H 342.947 1.35946 2.65184 0
M  V30 3764 H 340.484 0.681515 1.3036 0
M  V30 3765 H 342.442 -0.637 4.12308 0
M  V30 3766 H 341.072 -1.04077 3.05562 0
M  V30 3767 H 340.124 1.32479 3.56586 0
M  V30 3768 H 341.436 1.52978 4.74762 0
M  V30 3769 H 340.59 -0.432114 6.05159 0
M  V30 3770 H 339.329 -0.730179 4.82203 0
M  V30 3771 H 338.334 1.52847 5.28127 0
M  V30 3772 H 339.559 1.81606 6.54367 0
M  V30 3773 H 337.505 -0.427959 6.54603 0
M  V30 3774 H 337.422 1.02287 7.49048 0
M  V30 3775 H 338.69 -0.126928 7.79397 0
M  V30 3776 N 342.919 -1.39368 0.735821 0
M  V30 3777 C 344.147 -2.04795 0.294393 0
M  V30 3778 C 344.562 -1.55478 -1.07107 0
M  V30 3779 O 343.919 -0.720038 -1.67695 0
M  V30 3780 C 343.97 -3.6035 0.288071 0
M  V30 3781 O 343.691 -4.07852 1.59963 0
M  V30 3782 C 345.192 -4.42976 -0.169422 0
M  V30 3783 H 342.412 -0.658571 0.128551 0
M  V30 3784 H 344.956 -1.78399 0.999701 0
M  V30 3785 H 343.111 -3.85645 -0.368355 0
M  V30 3786 H 343.525 -5.02181 1.51375 0
M  V30 3787 H 344.999 -5.51864 -0.122687 0
M  V30 3788 H 345.476 -4.22068 -1.21472 0
M  V30 3789 H 346.082 -4.22832 0.457469 0
M  V30 3790 N 344.397 -0.483516 -1.5 0
M  V30 3791 C 345.646 0.0689102 -2.01582 0
M  V30 3792 C 345.959 1.39655 -1.36952 0
M  V30 3793 O 347.165 2.03465 -1.79762 0
M  V30 3794 C 345.621 0.173302 -3.59483 0
M  V30 3795 C 345.229 -1.14665 -4.33077 0
M  V30 3796 C 346.973 0.677024 -4.19066 0
M  V30 3797 C 344.88 -1.00537 -5.82792 0
M  V30 3798 H 343.81 0.0295277 -0.753422 0
M  V30 3799 H 346.461 -0.620295 -1.72698 0
M  V30 3800 H 344.843 0.926569 -3.85007 0
M  V30 3801 H 346.017 -1.91184 -4.19268 0
M  V30 3802 H 344.332 -1.58244 -3.85159 0
M  V30 3803 H 346.929 0.799952 -5.28682 0
M  V30 3804 H 347.272 1.67151 -3.81269 0
M  V30 3805 H 347.805 -0.0192083 -3.97795 0
M  V30 3806 H 344.544 -1.9736 -6.25083 0
M  V30 3807 H 344.064 -0.280776 -5.99142 0
M  V30 3808 H 345.743 -0.677 -6.43448 0
M  V30 3809 N 345.875 1.56104 -0.216619 0
M  V30 3810 C 347.121 1.98466 0.417033 0
M  V30 3811 C 347.454 1.10403 1.59765 0
M  V30 3812 O 346.729 0.160632 1.93836 0
M  V30 3813 C 347.012 3.49769 0.85637 0
M  V30 3814 C 346.865 4.48606 -0.327546 0
M  V30 3815 C 348.184 4.05339 1.7143 0
M  V30 3816 H 345.303 0.721551 0.150112 0
M  V30 3817 H 347.945 1.87423 -0.311864 0
M  V30 3818 H 346.095 3.5931 1.47745 0
M  V30 3819 H 347.767 4.5108 -0.965618 0
M  V30 3820 H 346.01 4.22682 -0.975805 0
M  V30 3821 H 346.681 5.51995 0.0227149 0
M  V30 3822 H 349.157 3.98712 1.19031 0
M  V30 3823 H 348.033 5.11533 1.99061 0
M  V30 3824 H 348.294 3.51918 2.67593 0
M  V30 3825 N 347.353 -0.0568162 1.57498 0
M  V30 3826 C 348.601 -0.751617 1.87604 0
M  V30 3827 C 348.922 -1.77351 0.81066 0
M  V30 3828 O 348.192 -1.95254 -0.159018 0
M  V30 3829 H 346.772 -0.280583 0.692302 0
M  V30 3830 H 349.434 -0.0293483 1.94878 0
M  V30 3831 H 348.53 -1.25852 2.856 0
M  V30 3832 N 348.832 -1.54138 -0.328536 0
M  V30 3833 C 349.795 -1.82462 -1.38709 0
M  V30 3834 C 350.795 -0.696229 -1.44946 0
M  V30 3835 O 351.985 -0.964535 -1.4506 0
M  V30 3836 C 349.117 -1.98018 -2.77492 0
M  V30 3837 H 350.31 -2.77037 -1.14851 0
M  V30 3838 H 347.863 -1.45779 -0.563751 0
M  V30 3839 H 348.598 -1.05637 -3.06613 0
M  V30 3840 H 348.383 -2.80124 -2.74359 0
M  V30 3841 H 349.873 -2.21396 -3.54081 0
M  V30 3842 N 350.31 0.590341 -1.46126 0
M  V30 3843 C 351.24 1.71032 -1.58966 0
M  V30 3844 C 352.221 1.64302 -0.440335 0
M  V30 3845 O 353.406 1.82436 -0.665634 0
M  V30 3846 C 350.536 3.09665 -1.57241 0
M  V30 3847 C 349.49 3.31221 -2.71066 0
M  V30 3848 C 348.816 4.70303 -2.54399 0
M  V30 3849 C 350.116 3.19796 -4.1295 0
M  V30 3850 H 351.81 1.60543 -2.52718 0
M  V30 3851 H 349.356 0.770933 -1.21625 0
M  V30 3852 H 351.309 3.87831 -1.64819 0
M  V30 3853 H 350.033 3.21036 -0.600289 0
M  V30 3854 H 348.692 2.55452 -2.62944 0
M  V30 3855 H 348.34 4.78429 -1.55288 0
M  V30 3856 H 348.04 4.85679 -3.30741 0
M  V30 3857 H 349.564 5.50647 -2.63857 0
M  V30 3858 H 350.978 3.87815 -4.22223 0
M  V30 3859 H 349.375 3.46696 -4.89818 0
M  V30 3860 H 350.445 2.16983 -4.33643 0
M  V30 3861 N 351.788 1.33704 0.83433 0
M  V30 3862 C 353.037 1.24763 1.58484 0
M  V30 3863 C 353.35 -0.183775 1.94735 0
M  V30 3864 O 354.556 -0.395234 2.68608 0
M  V30 3865 C 353.012 2.18638 2.85876 0
M  V30 3866 C 352.62 3.66974 2.56971 0
M  V30 3867 C 354.364 2.18581 3.63899 0
M  V30 3868 C 352.271 4.5275 3.80488 0
M  V30 3869 H 351.201 0.463425 0.594772 0
M  V30 3870 H 353.852 1.58797 0.919551 0
M  V30 3871 H 352.234 1.77542 3.5397 0
M  V30 3872 H 353.408 4.16538 1.9706 0
M  V30 3873 H 351.723 3.69366 1.92244 0
M  V30 3874 H 354.32 2.79894 4.55591 0
M  V30 3875 H 354.663 1.18207 3.99165 0
M  V30 3876 H 355.196 2.58062 3.02735 0
M  V30 3877 H 351.935 5.54017 3.5035 0
M  V30 3878 H 351.455 4.07927 4.39722 0
M  V30 3879 H 353.134 4.66784 4.4802 0
M  V30 3880 N 353.266 -1.05314 1.17247 0
M  V30 3881 C 354.198 -2.13023 0.845812 0
M  V30 3882 C 355.211 -1.62096 -0.151246 0
M  V30 3883 O 356.4 -1.78343 0.0748818 0
M  V30 3884 C 353.5 -3.38047 0.240292 0
M  V30 3885 C 352.673 -4.18255 1.27991 0
M  V30 3886 C 351.732 -5.21625 0.692375 0
M  V30 3887 O 350.758 -5.52619 1.36385 0
M  V30 3888 N 351.96 -5.78201 -0.516178 0
M  V30 3889 H 354.725 -2.41642 1.77283 0
M  V30 3890 H 352.286 -1.21401 1.07115 0
M  V30 3891 H 354.278 -4.04359 -0.16603 0
M  V30 3892 H 352.848 -3.06972 -0.590487 0
M  V30 3893 H 352.068 -3.47451 1.86203 0
M  V30 3894 H 353.356 -4.68643 1.98119 0
M  V30 3895 H 352.754 -5.55301 -1.07969 0
M  V30 3896 H 351.311 -6.4604 -0.86458 0
M  V30 3897 N 354.744 -0.972509 -1.24016 0
M  V30 3898 C 355.969 -0.654417 -1.96805 0
M  V30 3899 C 356.394 0.770398 -1.716 0
M  V30 3900 O 355.752 1.52361 -0.982647 0
M  V30 3901 C 355.8 -0.941031 -3.48105 0
M  V30 3902 O 354.904 -0.0289472 -4.1239 0
M  V30 3903 H 354.245 -0.24692 -0.616382 0
M  V30 3904 H 356.775 -1.30396 -1.57664 0
M  V30 3905 H 356.785 -0.87452 -3.98517 0
M  V30 3906 H 355.46 -1.97939 -3.65777 0
M  V30 3907 H 354.037 -0.149192 -3.72601 0
M  V30 3908 N 356.222 1.38976 -0.743202 0
M  V30 3909 C 357.468 2.0064 -0.295189 0
M  V30 3910 C 357.801 1.5885 1.11716 0
M  V30 3911 O 357.076 0.821181 1.76315 0
M  V30 3912 C 357.359 3.578 -0.406318 0
M  V30 3913 C 357.212 4.09586 -1.85903 0
M  V30 3914 C 358.531 4.39616 0.206439 0
M  V30 3915 H 355.65 0.728935 -0.108733 0
M  V30 3916 H 358.292 1.65067 -0.940897 0
M  V30 3917 H 356.442 3.88235 0.143419 0
M  V30 3918 H 358.114 3.89837 -2.46627 0
M  V30 3919 H 356.357 3.6284 -2.3776 0
M  V30 3920 H 357.028 5.18708 -1.888 0
M  V30 3921 H 359.504 4.15273 -0.262283 0
M  V30 3922 H 358.38 5.48812 0.0983819 0
M  V30 3923 H 358.641 4.22754 1.2935 0
M  V30 3924 N 357.7 0.491464 1.49741 0
M  V30 3925 C 358.647 -0.292027 2.28945 0
M  V30 3926 C 359.617 -0.968973 1.34908 0
M  V30 3927 O 360.802 -0.97748 1.6386 0
M  V30 3928 C 357.942 -1.35617 3.17336 0
M  V30 3929 C 357.055 -0.691957 4.26422 0
M  V30 3930 C 356.19 -1.73572 5.02042 0
M  V30 3931 C 355.229 -1.05286 6.02977 0
M  V30 3932 N 354.366 -2.0404 6.71798 0
M  V30 3933 H 359.206 0.389654 2.95442 0
M  V30 3934 H 356.743 0.204003 1.45679 0
M  V30 3935 H 358.701 -1.98502 3.66951 0
M  V30 3936 H 357.331 -2.00674 2.52844 0
M  V30 3937 H 356.383 0.0499523 3.80367 0
M  V30 3938 H 357.695 -0.153946 4.98562 0
M  V30 3939 H 356.849 -2.43987 5.55478 0
M  V30 3940 H 355.588 -2.30757 4.29654 0
M  V30 3941 H 354.593 -0.334446 5.48782 0
M  V30 3942 H 355.818 -0.487636 6.77347 0
M  V30 3943 H 353.764 -2.60205 6.02187 0
M  V30 3944 H 353.681 -1.55279 7.39881 0
M  V30 3945 H 354.949 -2.73772 7.29842 0
M  V30 3946 N 359.178 -1.55987 0.224894 0
M  V30 3947 C 360.125 -2.20436 -0.68385 0
M  V30 3948 C 361.095 -1.16102 -1.18783 0
M  V30 3949 O 362.28 -1.4447 -1.24632 0
M  V30 3950 C 359.42 -2.89076 -1.88491 0
M  V30 3951 C 358.533 -4.08012 -1.41951 0
M  V30 3952 C 357.668 -4.64426 -2.5784 0
M  V30 3953 C 356.707 -5.75656 -2.08053 0
M  V30 3954 N 355.844 -6.26347 -3.17227 0
M  V30 3955 H 360.684 -2.97727 -0.12754 0
M  V30 3956 H 358.221 -1.47011 -0.0511978 0
M  V30 3957 H 360.179 -3.27059 -2.59014 0
M  V30 3958 H 358.809 -2.14298 -2.41405 0
M  V30 3959 H 357.861 -3.75492 -0.609095 0
M  V30 3960 H 359.173 -4.88375 -1.01447 0
M  V30 3961 H 358.327 -5.04869 -3.3644 0
M  V30 3962 H 357.066 -3.83233 -3.01635 0
M  V30 3963 H 356.071 -5.34712 -1.27916 0
M  V30 3964 H 357.296 -6.58686 -1.65255 0
M  V30 3965 H 355.242 -5.48067 -3.60497 0
M  V30 3966 H 355.159 -7.01843 -2.80986 0
M  V30 3967 H 356.427 -6.71447 -3.95953 0
M  V30 3968 N 360.656 0.0484629 -1.57525 0
M  V30 3969 C 361.586 1.0549 -2.08313 0
M  V30 3970 C 362.567 1.38929 -0.981463 0
M  V30 3971 O 363.752 1.48151 -1.25558 0
M  V30 3972 C 360.882 2.36162 -2.54646 0
M  V30 3973 C 359.836 2.17016 -3.68901 0
M  V30 3974 C 359.162 3.53278 -4.01371 0
M  V30 3975 C 360.462 1.57219 -4.98076 0
M  V30 3976 H 362.156 0.632195 -2.92649 0
M  V30 3977 H 359.702 0.302654 -1.40784 0
M  V30 3978 H 361.655 3.06882 -2.88793 0
M  V30 3979 H 360.379 2.80456 -1.67368 0
M  V30 3980 H 359.038 1.48733 -3.35073 0
M  V30 3981 H 358.686 3.95185 -3.11188 0
M  V30 3982 H 358.386 3.41299 -4.78318 0
M  V30 3983 H 359.91 4.25391 -4.38035 0
M  V30 3984 H 361.324 2.17832 -5.30304 0
M  V30 3985 H 359.721 1.55871 -5.79503 0
M  V30 3986 H 360.791 0.535956 -4.81929 0
M  V30 3987 N 362.134 1.5431 0.320358 0
M  V30 3988 C 363.359 1.76954 1.08175 0
M  V30 3989 C 363.784 0.518193 1.80821 0
M  V30 3990 O 363.142 -0.530411 1.73368 0
M  V30 3991 C 363.19 2.96451 2.05303 0
M  V30 3992 O 362.294 2.68221 3.13259 0
M  V30 3993 H 361.635 0.586275 0.311733 0
M  V30 3994 H 364.165 2.01342 0.363676 0
M  V30 3995 H 364.175 3.23887 2.48116 0
M  V30 3996 H 362.85 3.87196 1.51829 0
M  V30 3997 H 361.427 2.51744 2.75099 0
M  V30 3998 N 363.613 -0.582584 1.46437 0
M  V30 3999 C 364.89 -1.34276 1.4223 0
M  V30 4000 C 365.27 -2.10835 0.10583 0
M  V30 4001 O 364.618 -2.09485 -0.912596 0
M  V30 4002 C 364.828 -2.26865 2.65204 0
M  V30 4003 C 366.176 -2.88691 3.11356 0
M  V30 4004 O 367.2 -2.37178 2.65753 0
M  V30 4005 O 366.059 -3.82255 3.90568 0
M  V30 4006 H 363.153 -0.603326 0.565621 0
M  V30 4007 H 365.699 -0.603591 1.58603 0
M  V30 4008 H 364.471 -1.69724 3.52576 0
M  V30 4009 H 364.094 -3.08122 2.5129 0
M  V30 4010 N 365.091 -1.34144 -0.827227 0
M  V30 4011 C 366.337 -1.26446 -1.58554 0
M  V30 4012 C 366.67 0.1664 -1.93486 0
M  V30 4013 O 365.945 1.1107 -1.59667 0
M  V30 4014 C 366.228 -2.15111 -2.8879 0
M  V30 4015 C 366.081 -3.66712 -2.60465 0
M  V30 4016 C 367.4 -2.03311 -3.90324 0
M  V30 4017 H 364.519 -0.46067 -0.575284 0
M  V30 4018 H 367.161 -1.64356 -0.953269 0
M  V30 4019 H 365.311 -1.8291 -3.42748 0
M  V30 4020 H 366.983 -4.09259 -2.1285 0
M  V30 4021 H 365.226 -3.88014 -1.93978 0
M  V30 4022 H 365.897 -4.24112 -3.53317 0
M  V30 4023 H 368.373 -2.31574 -3.45706 0
M  V30 4024 H 367.249 -2.67582 -4.79261 0
M  V30 4025 H 367.51 -1.00879 -4.30437 0
M  V30 4026 N 366.569 1.04691 -1.17803 0
M  V30 4027 C 367.502 2.12068 -0.842765 0
M  V30 4028 C 368.48 1.61455 0.192608 0
M  V30 4029 O 369.664 1.88359 0.072995 0
M  V30 4030 C 366.791 3.37715 -0.258063 0
M  V30 4031 C 365.837 4.07164 -1.26962 0
M  V30 4032 S 366.67 4.55047 -2.82299 0
M  V30 4033 C 367.826 5.83935 -2.25323 0
M  V30 4034 H 368.059 2.4018 -1.75217 0
M  V30 4035 H 365.592 1.17366 -1.00323 0
M  V30 4036 H 367.55 4.10435 0.0727935 0
M  V30 4037 H 366.211 3.0773 0.629357 0
M  V30 4038 H 365.404 4.9746 -0.809263 0
M  V30 4039 H 365.006 3.40533 -1.54639 0
M  V30 4040 H 367.298 6.57552 -1.63192 0
M  V30 4041 H 368.241 6.34725 -3.13894 0
M  V30 4042 H 368.649 5.3874 -1.68582 0
M  V30 4043 N 368.047 0.979072 1.23499 0
M  V30 4044 C 369.296 0.642751 1.91185 0
M  V30 4045 C 369.609 -0.827253 1.77245 0
M  V30 4046 O 370.815 -1.27458 2.39722 0
M  V30 4047 C 369.271 1.09901 3.42709 0
M  V30 4048 C 368.879 2.59327 3.65313 0
M  V30 4049 C 370.623 0.836371 4.16179 0
M  V30 4050 C 368.53 2.98627 5.10467 0
M  V30 4051 H 367.46 0.236698 0.715884 0
M  V30 4052 H 370.111 1.1868 1.39955 0
M  V30 4053 H 368.493 0.48319 3.93041 0
M  V30 4054 H 369.667 3.26136 3.25533 0
M  V30 4055 H 367.982 2.83323 3.05151 0
M  V30 4056 H 370.579 1.10586 5.23139 0
M  V30 4057 H 370.922 -0.227509 4.15678 0
M  V30 4058 H 371.455 1.41371 3.71832 0
M  V30 4059 H 368.194 4.04133 5.16098 0
M  V30 4060 H 367.714 2.3651 5.51201 0
M  V30 4061 H 369.393 2.89159 5.78788 0
M  V30 4062 N 369.525 -1.3858 0.750561 0
M  V30 4063 C 370.455 -2.33102 0.136237 0
M  V30 4064 C 371.436 -1.54713 -0.706965 0
M  V30 4065 O 372.621 -1.83043 -0.648769 0
M  V30 4066 C 369.751 -3.38882 -0.760017 0
M  V30 4067 C 368.705 -4.27995 -0.0197785 0
M  V30 4068 C 368.031 -5.24605 -1.03408 0
M  V30 4069 C 369.331 -5.09554 1.14684 0
M  V30 4070 H 371.025 -2.84726 0.925822 0
M  V30 4071 H 368.571 -1.36898 0.446654 0
M  V30 4072 H 370.524 -4.0397 -1.19943 0
M  V30 4073 H 369.248 -2.85734 -1.58189 0
M  V30 4074 H 367.907 -3.64409 0.400184 0
M  V30 4075 H 367.555 -4.67746 -1.84994 0
M  V30 4076 H 367.255 -5.85081 -0.543464 0
M  V30 4077 H 368.779 -5.9257 -1.47288 0
M  V30 4078 H 370.193 -5.67899 0.785118 0
M  V30 4079 H 368.59 -5.7925 1.56812 0
M  V30 4080 H 369.66 -4.4347 1.96118 0
M  V30 4081 N 371.003 -0.499398 -1.49478 0
M  V30 4082 C 372.231 0.0425456 -2.06856 0
M  V30 4083 C 372.646 1.30964 -1.35992 0
M  V30 4084 O 372.003 1.77172 -0.437762 0
M  V30 4085 C 372.054 0.301735 -3.60239 0
M  V30 4086 O 371.775 -0.915127 -4.28436 0
M  V30 4087 C 373.276 0.887499 -4.34325 0
M  V30 4088 H 370.496 -0.0197482 -0.670709 0
M  V30 4089 H 373.04 -0.696297 -1.92281 0
M  V30 4090 H 371.195 0.990556 -3.74522 0
M  V30 4091 H 371.609 -0.676993 -5.20113 0
M  V30 4092 H 373.083 1.01845 -5.42523 0
M  V30 4093 H 373.56 1.88488 -3.96698 0
M  V30 4094 H 374.166 0.236196 -4.24644 0
M  V30 4095 N 372.481 1.55866 -0.233164 0
M  V30 4096 C 373.727 1.98897 0.395959 0
M  V30 4097 C 374.06 1.12091 1.58585 0
M  V30 4098 O 373.335 0.181182 1.93654 0
M  V30 4099 C 373.618 3.50658 0.819224 0
M  V30 4100 C 373.471 4.48233 -0.375109 0
M  V30 4101 C 374.79 4.07135 1.67121 0
M  V30 4102 H 371.909 0.723102 0.142451 0
M  V30 4103 H 374.551 1.87082 -0.331725 0
M  V30 4104 H 372.701 3.60857 1.43925 0
M  V30 4105 H 374.373 4.50031 -1.01341 0
M  V30 4106 H 372.616 4.21624 -1.02058 0
M  V30 4107 H 373.287 5.51988 -0.0358328 0
M  V30 4108 H 375.763 3.99952 1.14795 0
M  V30 4109 H 374.639 5.13615 1.93625 0
M  V30 4110 H 374.9 3.54736 2.63846 0
M  V30 4111 N 373.959 -0.0401083 1.57549 0
M  V30 4112 C 375.206 -0.733125 1.88763 0
M  V30 4113 C 375.534 -1.75946 0.829058 0
M  V30 4114 O 374.789 -1.94949 -0.171323 0
M  V30 4115 C 375.088 -1.44902 3.26708 0
M  V30 4116 C 374.754 -0.559707 4.47413 0
M  V30 4117 C 373.416 -0.314731 4.8017 0
M  V30 4118 C 375.768 0.0549743 5.21171 0
M  V30 4119 C 373.096 0.553886 5.8408 0
M  V30 4120 C 375.448 0.911229 6.26003 0
M  V30 4121 C 374.112 1.16577 6.57241 0
M  V30 4122 H 373.382 -0.268269 0.690733 0
M  V30 4123 H 376.029 0.00679408 1.91499 0
M  V30 4124 H 374.334 -2.26197 3.1991 0
M  V30 4125 H 376.031 -1.99058 3.48105 0
M  V30 4126 H 372.621 -0.760793 4.21794 0
M  V30 4127 H 376.805 -0.121344 4.96152 0
M  V30 4128 H 372.061 0.759518 6.06664 0
M  V30 4129 H 376.235 1.3941 6.82303 0
M  V30 4130 H 373.862 1.84058 7.37582 0
M  V30 4131 N 375.437 -1.54477 -0.31217 0
M  V30 4132 C 376.677 -1.74958 -1.05684 0
M  V30 4133 C 377.041 -0.518414 -1.84869 0
M  V30 4134 O 378.242 -0.600759 -2.62001 0
M  V30 4135 C 376.513 -2.99656 -1.94785 0
M  V30 4136 S 378.072 -3.4109 -2.76049 0
M  V30 4137 H 374.89 -0.615104 -0.356606 0
M  V30 4138 H 377.492 -1.92669 -0.331514 0
M  V30 4139 H 376.196 -3.87397 -1.35468 0
M  V30 4140 H 375.727 -2.845 -2.71704 0
M  V30 4141 H 377.742 -2.97283 -3.97287 0
M  V30 4142 N 376.915 0.57481 -1.46744 0
M  V30 4143 C 377.845 1.69337 -1.60771 0
M  V30 4144 C 378.826 1.63825 -0.457736 0
M  V30 4145 O 380.011 1.8172 -0.684947 0
M  V30 4146 C 377.141 3.0798 -1.60517 0
M  V30 4147 C 376.095 3.28327 -2.74564 0
M  V30 4148 C 375.421 4.67578 -2.59373 0
M  V30 4149 C 376.721 3.15398 -4.16319 0
M  V30 4150 H 378.415 1.57853 -2.54407 0
M  V30 4151 H 375.961 0.75799 -1.22436 0
M  V30 4152 H 377.914 3.86061 -1.68923 0
M  V30 4153 H 376.638 3.20381 -0.634305 0
M  V30 4154 H 375.297 2.52649 -2.65639 0
M  V30 4155 H 374.945 4.76755 -1.60353 0
M  V30 4156 H 374.645 4.82144 -3.35873 0
M  V30 4157 H 376.169 5.47817 -2.69682 0
M  V30 4158 H 377.583 3.83315 -4.26313 0
M  V30 4159 H 375.98 3.41482 -4.93468 0
M  V30 4160 H 377.05 2.12372 -4.3592 0
M  V30 4161 N 378.394 1.34581 0.820102 0
M  V30 4162 C 379.619 1.30333 1.61332 0
M  V30 4163 C 380.044 -0.119339 1.87721 0
M  V30 4164 O 379.402 -1.08197 1.45475 0
M  V30 4165 C 379.45 2.10258 2.92957 0
M  V30 4166 O 378.554 1.47404 3.85157 0
M  V30 4167 H 377.895 0.447488 0.490561 0
M  V30 4168 H 380.425 1.77425 1.01889 0
M  V30 4169 H 380.435 2.21718 3.42498 0
M  V30 4170 H 379.11 3.13693 2.73074 0
M  V30 4171 H 377.687 1.44703 3.43679 0
M  V30 4172 N 379.872 -1.04064 1.18357 0
M  V30 4173 C 381.118 -1.77528 0.980397 0
M  V30 4174 C 381.451 -1.87948 -0.48879 0
M  V30 4175 O 380.726 -1.3876 -1.36293 0
M  V30 4176 C 381.009 -3.20797 1.63588 0
M  V30 4177 C 380.862 -3.1832 3.17793 0
M  V30 4178 C 382.181 -4.18911 1.34914 0
M  V30 4179 H 379.3 -0.644443 0.357578 0
M  V30 4180 H 381.942 -1.2156 1.46024 0
M  V30 4181 H 380.092 -3.68586 1.22788 0
M  V30 4182 H 381.764 -2.78521 3.67728 0
M  V30 4183 H 380.007 -2.56351 3.49952 0
M  V30 4184 H 380.678 -4.19489 3.58794 0
M  V30 4185 H 383.154 -3.7967 1.70265 0
M  V30 4186 H 382.03 -5.17374 1.83346 0
M  V30 4187 H 382.291 -4.41262 0.272027 0
M  V30 4188 N 381.35 -0.985608 -1.22978 0
M  V30 4189 C 382.597 -0.657386 -1.91532 0
M  V30 4190 C 382.925 0.809707 -1.76845 0
M  V30 4191 O 382.18 1.60021 -1.12658 0
M  V30 4192 C 382.479 -1.00014 -3.43121 0
M  V30 4193 C 382.145 -2.4583 -3.77993 0
M  V30 4194 C 380.807 -2.85679 -3.87222 0
M  V30 4195 C 383.159 -3.40378 -3.94705 0
M  V30 4196 C 380.487 -4.19081 -4.10595 0
M  V30 4197 C 382.839 -4.73429 -4.1958 0
M  V30 4198 C 381.503 -5.1303 -4.27032 0
M  V30 4199 H 380.773 -0.240555 -0.700867 0
M  V30 4200 H 383.42 -1.24044 -1.45895 0
M  V30 4201 H 381.725 -0.335072 -3.90365 0
M  V30 4202 H 383.422 -0.724322 -3.94404 0
M  V30 4203 H 380.012 -2.13939 -3.71387 0
M  V30 4204 H 384.196 -3.10766 -3.8696 0
M  V30 4205 H 379.452 -4.49362 -4.14589 0
M  V30 4206 H 383.626 -5.46644 -4.31455 0
M  V30 4207 H 381.253 -6.16418 -4.44896 0
M  V30 4208 N 382.828 1.3818 -0.7579 0
M  V30 4209 C 383.791 2.28764 -0.141286 0
M  V30 4210 C 384.791 1.47388 0.642907 0
M  V30 4211 O 385.981 1.67781 0.468536 0
M  V30 4212 C 383.113 3.31184 0.808069 0
M  V30 4213 H 384.306 2.848 -0.939633 0
M  V30 4214 H 381.859 1.47212 -0.525191 0
M  V30 4215 H 382.594 2.80247 1.63193 0
M  V30 4216 H 382.379 3.91314 0.248104 0
M  V30 4217 H 383.869 3.98909 1.23536 0
M  V30 4218 N 384.306 0.507319 1.49211 0
M  V30 4219 C 385.236 -0.256939 2.32082 0
M  V30 4220 C 386.217 -0.956609 1.40652 0
M  V30 4221 O 387.402 -0.946788 1.69557 0
M  V30 4222 C 384.532 -1.31802 3.21318 0
M  V30 4223 C 383.486 -0.737855 4.21592 0
M  V30 4224 C 382.812 -1.89992 4.99807 0
M  V30 4225 C 384.112 0.275325 5.21574 0
M  V30 4226 H 385.806 0.434798 2.96226 0
M  V30 4227 H 383.352 0.210546 1.42452 0
M  V30 4228 H 385.305 -1.86045 3.78107 0
M  V30 4229 H 384.029 -2.03903 2.5513 0
M  V30 4230 H 382.688 -0.217126 3.65956 0
M  V30 4231 H 382.336 -2.60877 4.30061 0
M  V30 4232 H 382.036 -1.51777 5.6766 0
M  V30 4233 H 383.56 -2.44657 5.59442 0
M  V30 4234 H 384.974 -0.179193 5.7302 0
M  V30 4235 H 383.371 0.573649 5.97352 0
M  V30 4236 H 384.441 1.18903 4.70096 0
M  V30 4237 N 385.784 -1.5574 0.241426 0
M  V30 4238 C 387.033 -1.97986 -0.385295 0
M  V30 4239 C 387.346 -1.13267 -1.59468 0
M  V30 4240 O 388.552 -1.45501 -2.2922 0
M  V30 4241 C 387.008 -3.52275 -0.736884 0
M  V30 4242 C 386.616 -4.45726 0.450796 0
M  V30 4243 C 388.36 -4.03189 -1.3281 0
M  V30 4244 C 386.267 -5.91352 0.0756662 0
M  V30 4245 H 385.197 -0.739386 -0.147731 0
M  V30 4246 H 387.848 -1.80308 0.340779 0
M  V30 4247 H 386.23 -3.65628 -1.52094 0
M  V30 4248 H 387.404 -4.44131 1.22819 0
M  V30 4249 H 385.719 -4.05264 0.956573 0
M  V30 4250 H 388.316 -5.09505 -1.62201 0
M  V30 4251 H 388.659 -3.50212 -2.25071 0
M  V30 4252 H 389.192 -3.93141 -0.607069 0
M  V30 4253 H 385.931 -6.48354 0.965272 0
M  V30 4254 H 385.451 -5.96095 -0.665635 0
M  V30 4255 H 387.13 -6.46084 -0.344075 0
M  V30 4256 N 387.262 0.0317525 -1.57568 0
M  V30 4257 C 388.51 0.721676 -1.88776 0
M  V30 4258 C 388.831 1.76039 -0.838772 0
M  V30 4259 O 388.101 1.95482 0.127935 0
M  V30 4260 H 386.681 0.269534 -0.696678 0
M  V30 4261 H 389.343 -0.00165879 -1.949 0
M  V30 4262 H 388.439 1.21293 -2.87566 0
M  V30 4263 N 388.74 1.54641 0.303973 0
M  V30 4264 C 389.67 1.88386 1.3796 0
M  V30 4265 C 390.651 0.742485 1.5304 0
M  V30 4266 O 391.836 0.997959 1.66597 0
M  V30 4267 C 388.966 2.12854 2.74427 0
M  V30 4268 C 387.92 3.28702 2.74115 0
M  V30 4269 C 387.246 3.38582 4.13844 0
M  V30 4270 C 388.546 4.65881 2.3612 0
M  V30 4271 H 390.24 2.78474 1.09966 0
M  V30 4272 H 387.786 1.33988 0.527556 0
M  V30 4273 H 389.739 2.35047 3.49758 0
M  V30 4274 H 388.463 1.19535 3.03939 0
M  V30 4275 H 387.122 3.06428 2.0124 0
M  V30 4276 H 386.77 2.42784 4.40528 0
M  V30 4277 H 386.47 4.16453 4.14537 0
M  V30 4278 H 387.994 3.63031 4.90959 0
M  V30 4279 H 389.408 4.87823 3.01167 0
M  V30 4280 H 387.805 5.46444 2.48031 0
M  V30 4281 H 388.875 4.66799 1.3125 0
M  V30 4282 N 390.218 -0.567019 1.47046 0
M  V30 4283 C 391.15 -1.68985 1.54844 0
M  V30 4284 C 392.163 -1.56869 0.435431 0
M  V30 4285 O 393.352 -1.64006 0.70457 0
M  V30 4286 C 390.452 -3.07373 1.42742 0
M  V30 4287 C 389.625 -3.45339 2.6844 0
M  V30 4288 C 388.684 -4.62849 2.50314 0
M  V30 4289 O 387.71 -4.67922 3.24095 0
M  V30 4290 N 388.912 -5.58726 1.57499 0
M  V30 4291 H 391.677 -1.62745 2.51663 0
M  V30 4292 H 389.238 -0.753411 1.43302 0
M  V30 4293 H 391.23 -3.83803 1.28365 0
M  V30 4294 H 389.8 -3.07893 0.540445 0
M  V30 4295 H 389.02 -2.58455 2.97648 0
M  V30 4296 H 390.308 -3.67476 3.51907 0
M  V30 4297 H 389.706 -5.57376 0.966876 0
M  V30 4298 H 388.263 -6.34523 1.49078 0
M  V30 4299 N 391.696 -1.35014 -0.812953 0
M  V30 4300 C 392.626 -1.30069 -1.93919 0
M  V30 4301 C 393.607 -0.176275 -1.69184 0
M  V30 4302 O 394.792 -0.370227 -1.90638 0
M  V30 4303 C 391.922 -1.06547 -3.30552 0
M  V30 4304 C 390.876 -2.15561 -3.69753 0
M  V30 4305 C 390.202 -1.77214 -5.04479 0
M  V30 4306 C 391.502 -3.57476 -3.808 0
M  V30 4307 H 393.196 -2.24303 -1.98314 0
M  V30 4308 H 390.742 -1.07977 -0.952736 0
M  V30 4309 H 392.695 -1.01729 -4.08937 0
M  V30 4310 H 391.419 -0.0875719 -3.26483 0
M  V30 4311 H 390.078 -2.19466 -2.9365 0
M  V30 4312 H 389.726 -0.780589 -4.96906 0
M  V30 4313 H 389.426 -2.50184 -5.31678 0
M  V30 4314 H 390.95 -1.7391 -5.8531 0
M  V30 4315 H 392.364 -3.55929 -4.4943 0
M  V30 4316 H 390.761 -4.29152 -4.19462 0
M  V30 4317 H 391.831 -3.94091 -2.82525 0
M  V30 4318 N 393.175 1.03435 -1.18907 0
M  V30 4319 C 394.422 1.76743 -0.988334 0
M  V30 4320 C 394.75 1.88447 0.481441 0
M  V30 4321 O 394.005 1.39383 1.37371 0
M  V30 4322 C 394.304 3.19792 -1.59586 0
M  V30 4323 C 393.97 3.28108 -3.09283 0
M  V30 4324 C 392.632 3.30084 -3.5014 0
M  V30 4325 C 394.984 3.27696 -4.05296 0
M  V30 4326 C 392.312 3.29299 -4.85571 0
M  V30 4327 C 394.664 3.28451 -5.4065 0
M  V30 4328 C 393.328 3.28723 -5.80946 0
M  V30 4329 H 392.598 0.64675 -0.361657 0
M  V30 4330 H 395.245 1.21442 -1.48068 0
M  V30 4331 H 393.55 3.78136 -1.02568 0
M  V30 4332 H 395.247 3.75171 -1.41589 0
M  V30 4333 H 391.837 3.27294 -2.76725 0
M  V30 4334 H 396.021 3.25354 -3.74778 0
M  V30 4335 H 391.277 3.2783 -5.16079 0
M  V30 4336 H 395.451 3.27082 -6.14809 0
M  V30 4337 H 393.078 3.27868 -6.85862 0
M  V30 4338 N 394.653 0.992116 1.22453 0
M  V30 4339 C 395.586 0.486701 2.22949 0
M  V30 4340 C 396.564 -0.45259 1.56174 0
M  V30 4341 O 397.748 -0.378317 1.84665 0
M  V30 4342 C 394.875 -0.294537 3.37417 0
M  V30 4343 C 393.921 0.590628 4.22391 0
M  V30 4344 S 394.754 2.04546 4.94895 0
M  V30 4345 C 395.91 1.27369 6.12803 0
M  V30 4346 H 396.143 1.33828 2.65475 0
M  V30 4347 H 393.676 0.799023 1.32117 0
M  V30 4348 H 395.634 -0.739241 4.03789 0
M  V30 4349 H 394.295 -1.12139 2.934 0
M  V30 4350 H 393.488 -0.0104375 5.03999 0
M  V30 4351 H 393.09 0.972064 3.61147 0
M  V30 4352 H 395.382 0.540943 6.75337 0
M  V30 4353 H 396.325 2.06502 6.7732 0
M  V30 4354 H 396.733 0.787324 5.58983 0
M  V30 4355 N 396.131 -1.37776 0.765217 0
M  V30 4356 C 397.379 -1.99454 0.325943 0
M  V30 4357 C 397.7 -1.61049 -1.09947 0
M  V30 4358 O 396.97 -0.872821 -1.75381 0
M  V30 4359 H 395.55 -0.737697 0.117525 0
M  V30 4360 H 398.212 -1.68359 0.981895 0
M  V30 4361 H 397.308 -3.09547 0.398353 0
M  V30 4362 N 397.609 -0.515225 -1.4894 0
M  V30 4363 C 398.557 0.269115 -2.31038 0
M  V30 4364 C 399.551 0.949443 -1.40292 0
M  V30 4365 O 400.757 0.87551 -1.57273 0
M  V30 4366 H 397.132 0.10565 -0.744542 0
M  V30 4367 H 399.103 -0.443096 -2.95092 0
M  V30 4368 C 397.852 1.31213 -3.21991 0
M  V30 4369 H 397.175 0.798034 -3.91754 0
M  V30 4370 H 398.615 1.83263 -3.82349 0
M  V30 4371 C 397.074 2.33791 -2.42576 0
M  V30 4372 O 397.604 3.3995 -2.14003 0
M  V30 4373 N 395.81 2.06625 -2.0434 0
M  V30 4374 H 395.357 1.20314 -2.27777 0
M  V30 4375 H 395.315 2.75483 -1.51514 0
M  V30 4376 N 399.087 1.5561 -0.249682 0
M  V30 4377 C 400.017 2.24477 0.642826 0
M  V30 4378 C 400.998 1.22601 1.17911 0
M  V30 4379 O 402.183 1.5126 1.21795 0
M  V30 4380 C 399.313 2.94638 1.83863 0
M  V30 4381 C 398.267 4.03227 1.435 0
M  V30 4382 C 397.593 4.60828 2.71186 0
M  V30 4383 C 398.893 5.18796 0.604002 0
M  V30 4384 H 400.587 2.99321 0.0685625 0
M  V30 4385 H 398.133 1.43965 0.0315363 0
M  V30 4386 H 400.086 3.41517 2.46868 0
M  V30 4387 H 398.81 2.17287 2.43832 0
M  V30 4388 H 397.469 3.57121 0.828275 0
M  V30 4389 H 397.117 3.80174 3.29358 0
M  V30 4390 H 396.817 5.34132 2.44901 0
M  V30 4391 H 398.341 5.10442 3.35084 0
M  V30 4392 H 399.755 5.61883 1.13842 0
M  V30 4393 H 398.152 5.98506 0.437097 0
M  V30 4394 H 399.222 4.83384 -0.383147 0
M  V30 4395 N 400.565 -0.0233959 1.57583 0
M  V30 4396 C 401.512 -1.02224 2.06927 0
M  V30 4397 C 402.482 -1.35575 0.959617 0
M  V30 4398 O 403.667 -1.45815 1.23055 0
M  V30 4399 C 400.807 -2.31636 2.5581 0
M  V30 4400 C 399.92 -2.04394 3.80588 0
M  V30 4401 C 399.055 -3.27717 4.18061 0
M  V30 4402 C 398.094 -2.96056 5.3574 0
M  V30 4403 N 397.231 -4.11847 5.68618 0
M  V30 4404 H 402.071 -0.594504 2.9201 0
M  V30 4405 H 399.608 -0.281921 1.44373 0
M  V30 4406 H 401.566 -3.07258 2.82221 0
M  V30 4407 H 400.196 -2.72122 1.73636 0
M  V30 4408 H 399.248 -1.19244 3.61227 0
M  V30 4409 H 400.56 -1.77042 4.66323 0
M  V30 4410 H 399.714 -4.11702 4.4563 0
M  V30 4411 H 398.453 -3.58188 3.30988 0
M  V30 4412 H 397.458 -2.10474 5.07918 0
M  V30 4413 H 398.683 -2.66857 6.24471 0
M  V30 4414 H 396.629 -4.42258 4.84504 0
M  V30 4415 H 396.546 -3.87938 6.48876 0
M  V30 4416 H 397.814 -4.96689 6.00766 0
M  V30 4417 N 402.043 -1.548 -0.295768 0
M  V30 4418 C 402.993 -1.82497 -1.3667 0
M  V30 4419 C 403.977 -0.682434 -1.45711 0
M  V30 4420 O 405.169 -0.943207 -1.49775 0
M  V30 4421 C 402.298 -2.08036 -2.73086 0
M  V30 4422 C 401.384 -3.28488 -2.68247 0
M  V30 4423 N 401.775 -4.48924 -2.33025 0
M  V30 4424 C 400.073 -3.3062 -2.99343 0
M  V30 4425 C 400.774 -5.30956 -2.37613 0
M  V30 4426 N 399.75 -4.68805 -2.75178 0
M  V30 4427 H 403.552 -2.73175 -1.0841 0
M  V30 4428 H 401.066 -1.5437 -0.504361 0
M  V30 4429 H 403.063 -2.26027 -3.5031 0
M  V30 4430 H 401.723 -1.18629 -3.02254 0
M  V30 4431 H 402.734 -4.75432 -2.05389 0
M  V30 4432 H 399.411 -2.51336 -3.33371 0
M  V30 4433 H 400.801 -6.37199 -2.13135 0
M  V30 4434 N 403.521 0.559213 -1.47345 0
M  V30 4435 C 404.468 1.66645 -1.59682 0
M  V30 4436 C 405.438 1.60168 -0.43994 0
M  V30 4437 O 406.623 1.79031 -0.659736 0
M  V30 4438 C 403.763 3.04969 -1.61518 0
M  V30 4439 C 402.876 3.21897 -2.88108 0
M  V30 4440 C 402.011 4.50608 -2.81294 0
M  V30 4441 C 401.05 4.60961 -4.02717 0
M  V30 4442 N 400.187 5.81024 -3.94151 0
M  V30 4443 H 405.027 1.55439 -2.54249 0
M  V30 4444 H 402.564 0.757219 -1.26113 0
M  V30 4445 H 404.522 3.85064 -1.60566 0
M  V30 4446 H 403.152 3.15015 -0.704645 0
M  V30 4447 H 402.204 2.35248 -2.98936 0
M  V30 4448 H 403.516 3.25412 -3.78032 0
M  V30 4449 H 402.67 5.3896 -2.7858 0
M  V30 4450 H 401.409 4.49568 -1.89049 0
M  V30 4451 H 400.414 3.71021 -4.05738 0
M  V30 4452 H 401.639 4.63761 -4.96087 0
M  V30 4453 H 399.585 5.80938 -3.04708 0
M  V30 4454 H 399.502 5.85909 -4.77752 0
M  V30 4455 H 400.77 6.71744 -3.9545 0
M  V30 4456 N 404.999 1.35443 0.805782 0
M  V30 4457 C 406.239 1.30127 1.57627 0
M  V30 4458 C 406.603 -0.122567 1.91608 0
M  V30 4459 O 407.804 -0.300107 2.67119 0
M  V30 4460 C 406.075 2.18314 2.82973 0
M  V30 4461 S 407.634 2.30521 3.7337 0
M  V30 4462 H 404.452 0.462439 0.540066 0
M  V30 4463 H 407.054 1.70843 0.95042 0
M  V30 4464 H 405.758 3.20741 2.56034 0
M  V30 4465 H 405.289 1.78558 3.50543 0
M  V30 4466 H 407.304 1.49062 4.73281 0
M  V30 4467 N 406.477 -1.02803 1.19454 0
M  V30 4468 C 407.724 -1.76217 0.997693 0
M  V30 4469 C 408.052 -1.887 -0.47144 0
M  V30 4470 O 407.307 -1.4011 -1.3663 0
M  V30 4471 C 407.606 -3.18941 1.6128 0
M  V30 4472 C 407.272 -3.26463 3.11019 0
M  V30 4473 C 405.934 -3.28223 3.51885 0
M  V30 4474 C 408.286 -3.25542 4.07028 0
M  V30 4475 C 405.614 -3.26719 4.8731 0
M  V30 4476 C 407.966 -3.25579 5.42385 0
M  V30 4477 C 406.63 -3.25637 5.82681 0
M  V30 4478 H 405.9 -0.644823 0.365082 0
M  V30 4479 H 408.547 -1.20655 1.4871 0
M  V30 4480 H 406.852 -3.77587 1.04572 0
M  V30 4481 H 408.549 -3.74415 1.43577 0
M  V30 4482 H 405.139 -3.25822 2.78457 0
M  V30 4483 H 409.323 -3.23362 3.76498 0
M  V30 4484 H 404.579 -3.25089 5.1781 0
M  V30 4485 H 408.753 -3.23817 6.16535 0
M  V30 4486 H 406.38 -3.24226 6.87591 0
M  V30 4487 N 407.956 -0.998596 -1.21925 0
M  V30 4488 C 409.372 -0.710303 -1.42923 0
M  V30 4489 C 409.572 0.716933 -1.88314 0
M  V30 4490 O 408.628 1.48712 -2.04062 0
M  V30 4491 C 409.941 -1.72072 -2.466 0
M  V30 4492 C 411.489 -1.73681 -2.60392 0
M  V30 4493 C 411.964 -2.73601 -3.67296 0
M  V30 4494 N 413.455 -2.7223 -3.7476 0
M  V30 4495 C 414.19 -3.46206 -4.57087 0
M  V30 4496 N 413.686 -4.29802 -5.43362 0
M  V30 4497 N 415.479 -3.34886 -4.51451 0
M  V30 4498 H 407.63 -1.92028 -0.9077 0
M  V30 4499 H 409.893 -0.828487 -0.460775 0
M  V30 4500 H 409.599 -2.74231 -2.20206 0
M  V30 4501 H 409.473 -1.51818 -3.45299 0
M  V30 4502 H 411.86 -0.722173 -2.86127 0
M  V30 4503 H 411.941 -1.98005 -1.61949 0
M  V30 4504 H 411.585 -3.75217 -3.42307 0
M  V30 4505 H 411.515 -2.46545 -4.65321 0
M  V30 4506 H 414.006 -2.11576 -3.1312 0
M  V30 4507 H 414.319 -4.83061 -6.03218 0
M  V30 4508 H 412.664 -4.33887 -5.42925 0
M  V30 4509 H 415.855 -2.69015 -3.83078 0
M  V30 4510 H 416.028 -3.92796 -5.15379 0
M  V30 4511 N 409.434 1.37368 -0.772513 0
M  V30 4512 C 410.382 2.32134 -0.147111 0
M  V30 4513 C 411.376 1.54972 0.684106 0
M  V30 4514 O 412.582 1.70363 0.581083 0
M  V30 4515 H 408.957 0.751449 -0.028786 0
M  V30 4516 H 410.928 2.82464 -0.962112 0
M  V30 4517 C 409.677 3.40226 0.71703 0
M  V30 4518 H 409 3.99706 0.0867951 0
M  V30 4519 H 410.44 4.08897 1.12159 0
M  V30 4520 C 408.899 2.80372 1.86797 0
M  V30 4521 O 409.429 2.71183 2.96349 0
M  V30 4522 N 407.635 2.37904 1.66883 0
M  V30 4523 H 407.182 2.45578 0.777759 0
M  V30 4524 H 407.14 1.98202 2.44056 0
M  V30 4525 N 410.912 0.523116 1.48665 0
M  V30 4526 C 412.137 -0.0117284 2.07397 0
M  V30 4527 C 412.562 -1.28031 1.37803 0
M  V30 4528 O 411.92 -1.75836 0.441762 0
M  V30 4529 C 411.968 -0.225786 3.59892 0
M  V30 4530 O 411.072 -1.29592 3.91509 0
M  V30 4531 H 410.413 0.0360673 0.66302 0
M  V30 4532 H 412.943 0.729066 1.9117 0
M  V30 4533 H 412.953 -0.450552 4.05505 0
M  V30 4534 H 411.628 0.700944 4.09951 0
M  V30 4535 H 410.205 -1.05436 3.57684 0
M  V30 4536 N 412.39 -1.55475 0.257931 0
M  V30 4537 C 413.32 -2.24815 -0.630912 0
M  V30 4538 C 414.301 -1.23224 -1.17259 0
M  V30 4539 O 415.486 -1.51904 -1.20991 0
M  V30 4540 C 412.616 -2.95609 -1.82298 0
M  V30 4541 C 411.57 -4.03982 -1.41359 0
M  V30 4542 C 410.896 -4.6226 -2.68738 0
M  V30 4543 C 412.196 -5.19109 -0.57648 0
M  V30 4544 H 413.89 -2.99354 -0.0526878 0
M  V30 4545 H 411.436 -1.4398 -0.023901 0
M  V30 4546 H 413.389 -3.42822 -2.45054 0
M  V30 4547 H 412.113 -2.18577 -2.42676 0
M  V30 4548 H 410.772 -3.57555 -0.809324 0
M  V30 4549 H 410.42 -3.81915 -3.27338 0
M  V30 4550 H 410.12 -5.35424 -2.42065 0
M  V30 4551 H 411.644 -5.12212 -3.32372 0
M  V30 4552 H 413.058 -5.62479 -1.10861 0
M  V30 4553 H 411.455 -5.98729 -0.405351 0
M  V30 4554 H 412.525 -4.83174 0.408776 0
M  V30 4555 N 413.868 0.0150385 -1.57593 0
M  V30 4556 C 414.778 1.02791 -2.10882 0
M  V30 4557 C 415.794 1.38702 -1.0506 0
M  V30 4558 O 416.97 1.47739 -1.36877 0
M  V30 4559 C 414.035 2.30568 -2.58919 0
M  V30 4560 C 413.096 2.01108 -3.79281 0
M  V30 4561 C 412.329 3.22794 -4.25018 0
M  V30 4562 O 412.552 4.33959 -3.70183 0
M  V30 4563 O 411.486 3.07672 -5.17322 0
M  V30 4564 H 415.312 0.604973 -2.97613 0
M  V30 4565 H 412.897 0.23292 -1.47573 0
M  V30 4566 H 414.779 3.05662 -2.90084 0
M  V30 4567 H 413.454 2.72129 -1.75293 0
M  V30 4568 H 412.361 1.23537 -3.53114 0
M  V30 4569 H 413.694 1.64394 -4.63935 0
M  V30 4570 N 415.346 1.54954 0.287554 0
M  V30 4571 C 416.294 1.87606 1.37502 0
M  V30 4572 C 417.288 0.751001 1.51843 0
M  V30 4573 O 418.494 0.935169 1.53801 0
M  V30 4574 H 414.869 0.595231 0.459569 0
M  V30 4575 H 416.84 2.78477 1.07206 0
M  V30 4576 C 415.589 2.15183 2.73115 0
M  V30 4577 H 414.912 3.01234 2.62866 0
M  V30 4578 H 416.352 2.4196 3.48183 0
M  V30 4579 C 414.811 0.954686 3.2309 0
M  V30 4580 O 415.341 0.181949 4.01288 0
M  V30 4581 N 413.547 0.756368 2.80584 0
M  V30 4582 H 413.094 1.38643 2.17108 0
M  V30 4583 H 413.052 -0.0430391 3.14371 0
M  V30 4584 N 416.824 -0.551391 1.4764 0
M  V30 4585 C 417.772 -1.67896 1.60978 0
M  V30 4586 C 418.766 -1.62549 0.476877 0
M  V30 4587 O 419.972 -1.67664 0.654878 0
M  V30 4588 H 416.347 -0.555649 0.506713 0
M  V30 4589 H 418.318 -1.53784 2.55721 0
M  V30 4590 C 417.067 -3.06234 1.64669 0
M  V30 4591 H 416.39 -3.11033 2.51194 0
M  V30 4592 H 417.83 -3.84804 1.7805 0
M  V30 4593 C 416.289 -3.34737 0.381115 0
M  V30 4594 O 416.819 -3.98381 -0.515297 0
M  V30 4595 N 415.025 -2.8944 0.259354 0
M  V30 4596 H 414.572 -2.37827 0.98976 0
M  V30 4597 H 414.53 -3.08882 -0.586464 0
M  V30 4598 N 418.302 -1.35869 -0.798587 0
M  V30 4599 C 419.212 -1.31578 -1.94228 0
M  V30 4600 C 420.228 -0.21939 -1.72611 0
M  V30 4601 O 421.404 -0.450167 -1.96305 0
M  V30 4602 C 418.469 -1.09528 -3.28944 0
M  V30 4603 C 417.53 -2.28556 -3.63402 0
M  V30 4604 C 416.763 -2.07549 -4.9169 0
M  V30 4605 O 416.986 -1.046 -5.60727 0
M  V30 4606 O 415.92 -2.95106 -5.24591 0
M  V30 4607 H 419.746 -2.27847 -2.00796 0
M  V30 4608 H 417.331 -1.16322 -0.937526 0
M  V30 4609 H 419.213 -0.991127 -4.09579 0
M  V30 4610 H 417.888 -0.16315 -3.23289 0
M  V30 4611 H 416.795 -2.44538 -2.83112 0
M  V30 4612 H 418.128 -3.20244 -3.73771 0
M  V30 4613 N 419.78 1.02168 -1.19998 0
M  V30 4614 C 421.008 1.79296 -1.03249 0
M  V30 4615 C 421.423 1.84103 0.418502 0
M  V30 4616 O 420.78 1.29031 1.29063 0
M  V30 4617 C 420.831 3.24007 -1.60319 0
M  V30 4618 O 420.552 3.19512 -2.99739 0
M  V30 4619 C 422.053 4.17704 -1.48453 0
M  V30 4620 H 419.273 0.564016 -0.363493 0
M  V30 4621 H 421.817 1.28639 -1.58973 0
M  V30 4622 H 419.972 3.7183 -1.08727 0
M  V30 4623 H 420.386 4.10306 -3.26725 0
M  V30 4624 H 421.86 5.17104 -1.93153 0
M  V30 4625 H 422.337 4.37029 -0.436193 0
M  V30 4626 H 422.943 3.7576 -1.99211 0
M  V30 4627 N 421.258 1.00505 1.21394 0
M  V30 4628 C 422.188 0.585684 2.26035 0
M  V30 4629 C 423.169 -0.393525 1.65485 0
M  V30 4630 O 424.354 -0.281497 1.92149 0
M  V30 4631 C 421.484 -0.0884283 3.47187 0
M  V30 4632 C 420.438 0.810567 4.20254 0
M  V30 4633 C 419.764 0.00286382 5.347 0
M  V30 4634 C 421.064 2.1132 4.77641 0
M  V30 4635 H 422.758 1.46039 2.61368 0
M  V30 4636 H 420.304 0.703648 1.25638 0
M  V30 4637 H 422.257 -0.393286 4.19561 0
M  V30 4638 H 420.981 -0.997766 3.10986 0
M  V30 4639 H 419.64 1.09925 3.49731 0
M  V30 4640 H 419.288 -0.907765 4.94741 0
M  V30 4641 H 418.988 0.601444 5.84514 0
M  V30 4642 H 420.512 -0.295808 6.09883 0
M  V30 4643 H 421.926 1.87148 5.41893 0
M  V30 4644 H 420.323 2.66164 5.37845 0
M  V30 4645 H 421.393 2.78393 3.9702 0
M  V30 4646 N 422.737 -1.36956 0.779787 0
M  V30 4647 C 423.647 -2.33965 0.172491 0
M  V30 4648 C 424.663 -1.60574 -0.670222 0
M  V30 4649 O 425.839 -1.92617 -0.588263 0
M  V30 4650 C 422.904 -3.39761 -0.690173 0
M  V30 4651 C 421.965 -4.28964 0.169924 0
M  V30 4652 C 421.198 -5.29707 -0.651662 0
M  V30 4653 O 421.421 -5.38238 -1.88827 0
M  V30 4654 O 420.355 -6.01873 -0.0566264 0
M  V30 4655 H 424.181 -2.87647 0.974321 0
M  V30 4656 H 421.766 -1.39258 0.541078 0
M  V30 4657 H 423.648 -4.04471 -1.1824 0
M  V30 4658 H 422.323 -2.88394 -1.47006 0
M  V30 4659 H 421.23 -3.67326 0.708696 0
M  V30 4660 H 422.563 -4.83656 0.913085 0
M  V30 4661 N 424.215 -0.530993 -1.48385 0
M  V30 4662 C 425.44 0.000729535 -2.074 0
M  V30 4663 C 425.865 1.27298 -1.3848 0
M  V30 4664 O 425.223 1.75599 -0.451081 0
M  V30 4665 C 425.271 0.206697 -3.60007 0
M  V30 4666 O 424.375 1.27514 -3.92191 0
M  V30 4667 H 423.716 -0.039583 -0.662819 0
M  V30 4668 H 426.246 -0.739194 -1.9078 0
M  V30 4669 H 426.256 0.42904 -4.05738 0
M  V30 4670 H 424.931 -0.722675 -4.09573 0
M  V30 4671 H 423.508 1.03537 -3.58238 0
M  V30 4672 N 425.693 1.55336 -0.266172 0
M  V30 4673 C 426.942 1.98574 0.353749 0
M  V30 4674 C 427.255 1.15789 1.57646 0
M  V30 4675 O 428.461 1.49129 2.26876 0
M  V30 4676 C 426.917 3.53403 0.680747 0
M  V30 4677 C 426.525 4.44953 -0.52165 0
M  V30 4678 C 428.269 4.05251 1.26379 0
M  V30 4679 C 426.176 5.91156 -0.169736 0
M  V30 4680 H 425.106 0.741643 0.135949 0
M  V30 4681 H 427.757 1.79743 -0.369421 0
M  V30 4682 H 426.139 3.68001 1.46257 0
M  V30 4683 H 427.313 4.42121 -1.29869 0
M  V30 4684 H 425.628 4.03691 -1.02093 0
M  V30 4685 H 428.225 5.12021 1.54074 0
M  V30 4686 H 428.568 3.53749 2.19471 0
M  V30 4687 H 429.101 3.94057 0.544447 0
M  V30 4688 H 425.84 6.46736 -1.0683 0
M  V30 4689 H 425.36 5.97079 0.570717 0
M  V30 4690 H 427.039 6.4655 0.241245 0
M  V30 4691 N 427.171 -0.0066808 1.57599 0
M  V30 4692 C 428.104 -1.03397 2.03431 0
M  V30 4693 C 429.082 -1.33872 0.922877 0
M  V30 4694 O 430.266 -1.4615 1.19048 0
M  V30 4695 C 427.393 -2.36325 2.42628 0
M  V30 4696 C 426.439 -2.21557 3.64438 0
M  V30 4697 S 427.272 -1.54789 5.12641 0
M  V30 4698 C 428.428 -2.8916 5.55101 0
M  V30 4699 H 428.661 -0.643687 2.90248 0
M  V30 4700 H 426.194 -0.217349 1.52863 0
M  V30 4701 H 428.152 -3.12759 2.65879 0
M  V30 4702 H 426.813 -2.72495 1.56222 0
M  V30 4703 H 426.006 -3.1974 3.89592 0
M  V30 4704 H 425.608 -1.53267 3.41153 0
M  V30 4705 H 427.9 -3.8547 5.57153 0
M  V30 4706 H 428.843 -2.68713 6.55133 0
M  V30 4707 H 429.251 -2.92762 4.82649 0
M  V30 4708 N 428.649 -1.55105 -0.279332 0
M  V30 4709 C 429.597 -1.88333 -1.36505 0
M  V30 4710 C 430.591 -0.759043 -1.51443 0
M  V30 4711 O 431.797 -0.943312 -1.53302 0
M  V30 4712 H 428.172 -0.59766 -0.456406 0
M  V30 4713 H 430.143 -2.79041 -1.05728 0
M  V30 4714 C 428.892 -2.16628 -2.7197 0
M  V30 4715 H 428.215 -3.02624 -2.61264 0
M  V30 4716 H 429.655 -2.43803 -3.46895 0
M  V30 4717 C 428.114 -0.971807 -3.22579 0
M  V30 4718 O 428.644 -0.203228 -4.01186 0
M  V30 4719 N 426.85 -0.771238 -2.80179 0
M  V30 4720 H 426.397 -1.39792 -2.1637 0
M  V30 4721 H 426.355 0.0263667 -3.14389 0
M  V30 4722 N 430.127 0.543554 -1.4793 0
M  V30 4723 C 431.355 1.32516 -1.58894 0
M  V30 4724 C 431.77 1.87215 -0.244131 0
M  V30 4725 O 431.127 1.65709 0.764652 0
M  V30 4726 C 431.178 2.48554 -2.62494 0
M  V30 4727 O 430.899 1.96112 -3.91755 0
M  V30 4728 C 432.4 3.40572 -2.8377 0
M  V30 4729 H 429.62 0.403472 -0.536145 0
M  V30 4730 H 432.164 0.657106 -1.93655 0
M  V30 4731 H 430.319 3.1127 -2.30629 0
M  V30 4732 H 430.733 2.71967 -4.4848 0
M  V30 4733 H 432.207 4.18375 -3.60093 0
M  V30 4734 H 432.684 3.94965 -1.92092 0
M  V30 4735 H 433.29 2.8366 -3.16887 0
M  V30 4736 N 431.605 1.3629 0.791371 0
M  V30 4737 C 432.535 1.33137 1.91825 0
M  V30 4738 C 433.516 0.203168 1.68882 0
M  V30 4739 O 434.701 0.400509 1.90025 0
M  V30 4740 C 431.831 1.11793 3.28816 0
M  V30 4741 C 430.785 2.21417 3.66277 0
M  V30 4742 C 430.111 1.85218 5.01596 0
M  V30 4743 C 431.411 3.63489 3.75064 0
M  V30 4744 H 433.105 2.2743 1.9472 0
M  V30 4745 H 430.651 1.09479 0.935437 0
M  V30 4746 H 432.604 1.08222 4.07266 0
M  V30 4747 H 431.328 0.139501 3.26302 0
M  V30 4748 H 429.987 2.2411 2.90121 0
M  V30 4749 H 429.635 0.859544 4.95602 0
M  V30 4750 H 429.335 2.58611 5.27631 0
M  V30 4751 H 430.859 1.832 5.82469 0
M  V30 4752 H 432.273 3.63034 4.43711 0
M  V30 4753 H 430.67 4.35771 4.12582 0
M  V30 4754 H 431.74 3.98536 2.76219 0
M  V30 4755 N 433.083 -1.0153 1.20538 0
M  V30 4756 C 433.993 -2.13557 0.971113 0
M  V30 4757 C 435.009 -1.73845 -0.0734366 0
M  V30 4758 O 436.185 -2.01075 0.114299 0
M  V30 4759 C 433.25 -3.42661 0.527639 0
M  V30 4760 C 432.311 -3.96608 1.64319 0
M  V30 4761 C 431.544 -5.1955 1.22078 0
M  V30 4762 O 431.767 -5.70329 0.0900198 0
M  V30 4763 O 430.701 -5.66681 2.02871 0
M  V30 4764 H 434.527 -2.3619 1.90913 0
M  V30 4765 H 432.112 -1.11946 0.989362 0
M  V30 4766 H 433.994 -4.20404 0.289621 0
M  V30 4767 H 432.669 -3.21441 -0.381779 0
M  V30 4768 H 431.576 -3.20139 1.93551 0
M  V30 4769 H 432.909 -4.22219 2.52966 0
M  V30 4770 N 434.561 -1.01147 -1.20859 0
M  V30 4771 C 435.786 -0.716698 -1.94623 0
M  V30 4772 C 436.211 0.715415 -1.73964 0
M  V30 4773 O 435.569 1.49157 -1.03062 0
M  V30 4774 C 435.617 -1.0513 -3.44935 0
M  V30 4775 O 434.721 -0.160131 -4.12089 0
M  V30 4776 H 434.062 -0.266404 -0.608214 0
M  V30 4777 H 436.592 -1.35346 -1.53436 0
M  V30 4778 H 436.602 -1.00086 -3.95533 0
M  V30 4779 H 435.277 -2.09475 -3.59295 0
M  V30 4780 H 433.854 -0.267657 -3.71938 0
M  V30 4781 N 436.039 1.36541 -0.78704 0
M  V30 4782 C 436.949 2.3387 -0.184896 0
M  V30 4783 C 437.965 1.60927 0.661697 0
M  V30 4784 O 439.141 1.92927 0.57804 0
M  V30 4785 C 436.206 3.40122 0.672145 0
M  V30 4786 C 435.267 4.28867 -0.19267 0
M  V30 4787 C 434.5 5.30045 0.623561 0
M  V30 4788 O 434.723 5.39232 1.8597 0
M  V30 4789 O 433.657 6.01895 0.0247068 0
M  V30 4790 H 437.483 2.87126 -0.989562 0
M  V30 4791 H 435.068 1.38969 -0.548455 0
M  V30 4792 H 436.95 4.05093 1.16094 0
M  V30 4793 H 435.625 2.89169 1.45474 0
M  V30 4794 H 434.532 3.66945 -0.728166 0
M  V30 4795 H 435.865 4.83165 -0.938722 0
M  V30 4796 N 437.518 0.538854 1.48102 0
M  V30 4797 C 438.428 -0.222648 2.33541 0
M  V30 4798 C 439.444 -0.930225 1.47047 0
M  V30 4799 O 440.62 -0.903211 1.80011 0
M  V30 4800 C 437.685 -1.25064 3.23357 0
M  V30 4801 C 436.746 -0.552469 4.2573 0
M  V30 4802 C 435.979 -1.53149 5.11254 0
M  V30 4803 O 436.202 -2.76487 4.9891 0
M  V30 4804 O 435.136 -1.06602 5.92385 0
M  V30 4805 H 438.962 0.477707 2.99919 0
M  V30 4806 H 436.547 0.299669 1.46364 0
M  V30 4807 H 438.429 -1.8445 3.78888 0
M  V30 4808 H 437.104 -1.93325 2.59629 0
M  V30 4809 H 436.011 0.082114 3.7401 0
M  V30 4810 H 437.344 0.0883526 4.92121 0
M  V30 4811 N 438.996 -1.55193 0.274407 0
M  V30 4812 C 440.273 -1.91584 -0.394331 0
M  V30 4813 C 440.653 -1.19858 -1.73774 0
M  V30 4814 O 440.001 -0.3252 -2.26174 0
M  V30 4815 C 440.211 -3.4487 -0.535311 0
M  V30 4816 C 441.559 -4.16636 -0.818534 0
M  V30 4817 O 442.583 -3.5076 -0.620146 0
M  V30 4818 O 441.442 -5.33209 -1.19792 0
M  V30 4819 H 438.536 -0.798349 -0.215794 0
M  V30 4820 H 441.082 -1.66646 0.320507 0
M  V30 4821 H 439.854 -3.89145 0.410141 0
M  V30 4822 H 439.477 -3.75759 -1.29964 0
M  V30 4823 N 440.474 -0.00167713 -1.576 0
M  V30 4824 C 441.721 0.68282 -1.90641 0
M  V30 4825 C 442.049 1.73686 -0.875415 0
M  V30 4826 O 441.304 1.95334 0.119575 0
M  V30 4827 C 441.603 1.36189 -3.30435 0
M  V30 4828 C 441.269 0.440887 -4.48739 0
M  V30 4829 C 439.931 0.187312 -4.80835 0
M  V30 4830 C 442.283 -0.193134 -5.20842 0
M  V30 4831 C 439.611 -0.70855 -5.82406 0
M  V30 4832 C 441.963 -1.07688 -6.23367 0
M  V30 4833 C 440.627 -1.33962 -6.53919 0
M  V30 4834 H 439.897 0.249862 -0.697603 0
M  V30 4835 H 442.544 -0.0575642 -1.91413 0
M  V30 4836 H 440.849 2.17636 -3.25794 0
M  V30 4837 H 442.546 1.89759 -3.5326 0
M  V30 4838 H 439.136 0.648694 -4.23663 0
M  V30 4839 H 443.32 -0.0102445 -4.96299 0
M  V30 4840 H 438.576 -0.920097 -6.04437 0
M  V30 4841 H 442.75 -1.57451 -6.78367 0
M  V30 4842 H 440.377 -2.03549 -7.32442 0
M  V30 4843 N 441.952 1.55251 0.271103 0
M  V30 4844 C 443.368 1.47133 0.618393 0
M  V30 4845 C 443.568 0.686994 1.89427 0
M  V30 4846 O 442.624 0.206609 2.51653 0
M  V30 4847 C 443.937 2.91361 0.743593 0
M  V30 4848 C 445.485 3.01587 0.837522 0
M  V30 4849 C 445.96 4.47073 0.994483 0
M  V30 4850 N 447.451 4.50909 1.05996 0
M  V30 4851 C 448.186 5.60698 1.20024 0
M  V30 4852 N 447.682 6.80348 1.30759 0
M  V30 4853 N 449.475 5.48444 1.23149 0
M  V30 4854 H 441.626 2.04698 -0.566784 0
M  V30 4855 H 443.889 0.928319 -0.192165 0
M  V30 4856 H 443.595 3.51483 -0.123493 0
M  V30 4857 H 443.469 3.40484 1.62328 0
M  V30 4858 H 445.856 2.4156 1.69507 0
M  V30 4859 H 445.937 2.55713 -0.0668086 0
M  V30 4860 H 445.581 5.07703 0.141582 0
M  V30 4861 H 445.511 4.90605 1.91349 0
M  V30 4862 H 448.002 3.6472 0.989316 0
M  V30 4863 H 448.315 7.59772 1.41303 0
M  V30 4864 H 446.66 6.83156 1.27761 0
M  V30 4865 H 449.851 4.53907 1.14394 0
M  V30 4866 H 450.024 6.34049 1.33738 0
M  V30 4867 N 443.43 -0.535701 1.48216 0
M  V30 4868 C 444.377 -1.64083 1.62312 0
M  V30 4869 C 445.347 -1.59448 0.465365 0
M  V30 4870 O 446.532 -1.77959 0.688135 0
M  V30 4871 C 443.672 -3.0236 1.66349 0
M  V30 4872 C 442.785 -3.17273 2.93193 0
M  V30 4873 C 441.92 -4.46075 2.88427 0
M  V30 4874 C 440.959 -4.54496 4.1 0
M  V30 4875 N 440.096 -5.7468 4.03345 0
M  V30 4876 H 444.936 -1.51374 2.5669 0
M  V30 4877 H 442.473 -0.737059 1.27302 0
M  V30 4878 H 444.431 -3.82461 1.66672 0
M  V30 4879 H 443.061 -3.13854 0.754672 0
M  V30 4880 H 442.113 -2.30462 3.02641 0
M  V30 4881 H 443.425 -3.19357 3.83162 0
M  V30 4882 H 442.579 -5.3446 2.87119 0
M  V30 4883 H 441.318 -4.46504 1.96177 0
M  V30 4884 H 440.323 -3.64519 4.11589 0
M  V30 4885 H 441.548 -4.5581 5.03402 0
M  V30 4886 H 439.494 -5.76017 3.13912 0
M  V30 4887 H 439.411 -5.78234 4.87013 0
M  V30 4888 H 440.679 -6.65367 4.06087 0
M  V30 4889 N 444.908 -1.36708 -0.784132 0
M  V30 4890 C 446.138 -1.34203 -1.57077 0
M  V30 4891 C 446.546 0.0774945 -1.89041 0
M  V30 4892 O 445.889 1.04628 -1.50992 0
M  V30 4893 C 445.951 -2.10351 -2.91535 0
M  V30 4894 C 445.615 -3.59405 -2.82272 0
M  V30 4895 C 446.612 -4.53545 -2.54151 0
M  V30 4896 C 444.297 -4.02362 -3.00683 0
M  V30 4897 C 446.291 -5.8862 -2.44551 0
M  V30 4898 C 443.978 -5.37526 -2.90704 0
M  V30 4899 C 444.976 -6.30468 -2.62677 0
M  V30 4900 O 444.664 -7.63149 -2.52702 0
M  V30 4901 H 444.396 -0.461791 -0.493685 0
M  V30 4902 H 446.95 -1.80475 -0.980712 0
M  V30 4903 H 445.18 -1.5875 -3.52612 0
M  V30 4904 H 446.869 -2.00636 -3.52845 0
M  V30 4905 H 447.635 -4.21669 -2.39625 0
M  V30 4906 H 443.514 -3.30389 -3.21503 0
M  V30 4907 H 447.058 -6.61133 -2.22596 0
M  V30 4908 H 442.955 -5.69008 -3.04795 0
M  V30 4909 H 443.723 -7.73331 -2.68144 0
M  V30 4910 N 446.386 1.0089 -1.21074 0
M  V30 4911 C 447.633 1.74607 -1.0256 0
M  V30 4912 C 447.961 1.89426 0.44136 0
M  V30 4913 O 447.216 1.42266 1.34384 0
M  V30 4914 C 447.515 3.16335 -1.66334 0
M  V30 4915 C 447.181 3.21474 -3.16173 0
M  V30 4916 C 445.843 3.22583 -3.57062 0
M  V30 4917 C 448.195 3.19025 -4.12156 0
M  V30 4918 C 445.523 3.18925 -4.92446 0
M  V30 4919 C 447.875 3.16909 -5.47496 0
M  V30 4920 C 446.539 3.16326 -5.87787 0
M  V30 4921 H 445.809 0.638933 -0.375294 0
M  V30 4922 H 448.456 1.18274 -1.50611 0
M  V30 4923 H 446.761 3.75876 -1.10566 0
M  V30 4924 H 448.458 3.72083 -1.49516 0
M  V30 4925 H 445.048 3.2135 -2.83605 0
M  V30 4926 H 449.232 3.17332 -3.81595 0
M  V30 4927 H 444.488 3.16809 -5.22917 0
M  V30 4928 H 448.662 3.13968 -6.21609 0
M  V30 4929 H 446.289 3.13246 -6.92662 0
M  V30 4930 N 447.864 1.01787 1.20321 0
M  V30 4931 C 449.094 0.72614 1.93419 0
M  V30 4932 C 449.502 -0.717317 1.75075 0
M  V30 4933 O 448.845 -1.49836 1.06278 0
M  V30 4934 C 448.907 0.983621 3.45782 0
M  V30 4935 C 448.571 2.41645 3.87888 0
M  V30 4936 C 449.568 3.39732 3.93545 0
M  V30 4937 C 447.253 2.75752 4.19841 0
M  V30 4938 C 449.247 4.69988 4.30569 0
M  V30 4939 C 446.934 4.06221 4.56539 0
M  V30 4940 C 447.932 5.0315 4.61876 0
M  V30 4941 O 447.62 6.31284 4.97731 0
M  V30 4942 H 447.352 0.265824 0.621541 0
M  V30 4943 H 449.906 1.3623 1.53722 0
M  V30 4944 H 448.136 0.290301 3.85609 0
M  V30 4945 H 449.825 0.683279 4.00108 0
M  V30 4946 H 450.591 3.14718 3.69022 0
M  V30 4947 H 446.47 2.00993 4.14877 0
M  V30 4948 H 450.014 5.45642 4.3465 0
M  V30 4949 H 445.911 4.31013 4.80518 0
M  V30 4950 H 446.679 6.35591 5.15719 0
M  V30 4951 N 449.342 -1.36122 0.79427 0
M  V30 4952 C 450.572 -2.03067 0.380437 0
M  V30 4953 C 450.98 -1.60018 -1.00949 0
M  V30 4954 O 450.323 -0.787425 -1.65968 0
M  V30 4955 C 450.385 -3.57587 0.37034 0
M  V30 4956 C 450.049 -4.23855 1.70867 0
M  V30 4957 C 451.046 -4.46404 2.66496 0
M  V30 4958 C 448.731 -4.61229 1.9893 0
M  V30 4959 C 450.725 -5.05412 3.88378 0
M  V30 4960 C 448.412 -5.19953 3.21079 0
M  V30 4961 C 449.41 -5.41985 4.15621 0
M  V30 4962 O 449.098 -5.99475 5.35616 0
M  V30 4963 H 448.83 -0.658168 0.154243 0
M  V30 4964 H 451.384 -1.7498 1.0757 0
M  V30 4965 H 449.614 -3.84814 -0.381444 0
M  V30 4966 H 451.303 -4.05895 -0.0194894 0
M  V30 4967 H 452.069 -4.17921 2.46103 0
M  V30 4968 H 447.948 -4.43402 1.26158 0
M  V30 4969 H 451.492 -5.22524 4.62185 0
M  V30 4970 H 447.389 -5.47862 3.41347 0
M  V30 4971 H 448.157 -6.17937 5.36745 0
M  V30 4972 N 450.82 -0.546701 -1.47814 0
M  V30 4973 C 451.75 0.195317 -2.32682 0
M  V30 4974 C 452.731 0.918981 -1.43139 0
M  V30 4975 O 453.916 0.901501 -1.72008 0
M  V30 4976 C 451.046 1.23237 -3.247 0
M  V30 4977 C 450 0.625818 -4.234 0
M  V30 4978 C 449.326 1.76674 -5.04669 0
M  V30 4979 C 450.626 -0.413515 -5.2066 0
M  V30 4980 H 452.32 -0.513184 -2.94969 0
M  V30 4981 H 449.866 -0.248241 -1.41844 0
M  V30 4982 H 451.819 1.75955 -3.82907 0
M  V30 4983 H 450.543 1.97067 -2.60446 0
M  V30 4984 H 449.202 0.120023 -3.66403 0
M  V30 4985 H 448.85 2.49383 -4.36826 0
M  V30 4986 H 448.55 1.36673 -5.71484 0
M  V30 4987 H 450.074 2.29738 -5.65732 0
M  V30 4988 H 451.488 0.0272042 -5.73294 0
M  V30 4989 H 449.885 -0.731825 -5.95621 0
M  V30 4990 H 450.955 -1.31325 -4.66778 0
M  V30 4991 N 452.299 1.55045 -0.282633 0
M  V30 4992 C 453.209 2.26491 0.61147 0
M  V30 4993 C 454.225 1.29348 1.16384 0
M  V30 4994 O 455.401 1.62298 1.19253 0
M  V30 4995 C 452.466 2.97779 1.77563 0
M  V30 4996 C 451.527 4.10418 1.25919 0
M  V30 4997 C 450.76 4.78297 2.36786 0
M  V30 4998 O 450.983 4.45426 3.56303 0
M  V30 4999 O 449.917 5.66089 2.04517 0
M  V30 5000 H 453.743 3.03683 0.0324615 0
M  V30 5001 H 451.328 1.49317 -0.0497576 0
M  V30 5002 H 453.21 3.42554 2.45427 0
M  V30 5003 H 451.885 2.23498 2.34159 0
M  V30 5004 H 450.792 3.70082 0.546797 0
M  V30 5005 H 452.125 4.86622 0.738887 0
M  V30 5006 N 453.777 0.010035 1.57597 0
M  V30 5007 C 455.025 -0.671371 1.90623 0
M  V30 5008 C 455.346 -1.73753 0.885151 0
M  V30 5009 O 454.616 -1.95752 -0.0760611 0
M  V30 5010 H 453.196 -0.250968 0.703579 0
M  V30 5011 H 455.858 0.0533325 1.94827 0
M  V30 5012 H 454.954 -1.13626 2.90681 0
M  V30 5013 N 455.255 -1.55392 -0.262866 0
M  V30 5014 C 456.48 -1.80847 -1.01533 0
M  V30 5015 C 456.905 -0.584946 -1.78774 0
M  V30 5016 O 456.263 0.465701 -1.75217 0
M  V30 5017 C 456.311 -3.03866 -1.94159 0
M  V30 5018 O 455.415 -2.79662 -3.03089 0
M  V30 5019 H 454.756 -0.597441 -0.289759 0
M  V30 5020 H 457.286 -2.02553 -0.288698 0
M  V30 5021 H 457.296 -3.32872 -2.35924 0
M  V30 5022 H 455.971 -3.92564 -1.37354 0
M  V30 5023 H 454.548 -2.61781 -2.65566 0
M  V30 5024 N 456.733 0.527833 -1.48498 0
M  V30 5025 C 457.68 1.6322 -1.6318 0
M  V30 5026 C 458.65 1.59199 -0.473815 0
M  V30 5027 O 459.835 1.77591 -0.697563 0
M  V30 5028 C 456.975 3.01474 -1.67951 0
M  V30 5029 C 456.088 3.15713 -2.94871 0
M  V30 5030 C 455.223 4.44539 -2.90789 0
M  V30 5031 C 454.262 4.52315 -4.12404 0
M  V30 5032 N 453.399 5.72533 -4.06387 0
M  V30 5033 H 458.239 1.50011 -2.57489 0
M  V30 5034 H 455.776 0.730298 -1.27691 0
M  V30 5035 H 457.734 3.81572 -1.68698 0
M  V30 5036 H 456.364 3.1345 -0.771306 0
M  V30 5037 H 455.416 2.28854 -3.03859 0
M  V30 5038 H 456.728 3.1732 -3.8485 0
M  V30 5039 H 455.882 5.3293 -2.89949 0
M  V30 5040 H 454.621 4.45457 -1.98542 0
M  V30 5041 H 453.626 3.62331 -4.13517 0
M  V30 5042 H 454.851 4.53134 -5.05812 0
M  V30 5043 H 452.797 5.74344 -3.16962 0
M  V30 5044 H 452.714 5.75643 -4.90073 0
M  V30 5045 H 453.982 6.63204 -4.0961 0
M  V30 5046 N 458.211 1.37122 0.776871 0
M  V30 5047 C 459.488 1.22586 1.52421 0
M  V30 5048 C 459.868 -0.182726 2.10308 0
M  V30 5049 O 459.216 -1.18979 1.9508 0
M  V30 5050 C 459.426 2.31782 2.60918 0
M  V30 5051 C 460.774 2.69071 3.2846 0
M  V30 5052 O 461.798 2.3092 2.71209 0
M  V30 5053 O 460.657 3.3478 4.31954 0
M  V30 5054 H 457.751 0.478045 0.674835 0
M  V30 5055 H 460.297 1.48888 0.814275 0
M  V30 5056 H 459.069 3.26131 2.16227 0
M  V30 5057 H 458.692 2.06916 3.39517 0
M  V30 5058 N 459.689 -1.00246 1.21608 0
M  V30 5059 C 460.652 -2.07233 0.979133 0
M  V30 5060 C 461.652 -1.6072 -0.0508219 0
M  V30 5061 O 462.842 -1.73196 0.186712 0
M  V30 5062 C 459.974 -3.37546 0.477016 0
M  V30 5063 H 461.167 -2.29687 1.92831 0
M  V30 5064 H 458.72 -1.17261 1.03342 0
M  V30 5065 H 459.455 -3.20773 -0.476966 0
M  V30 5066 H 459.24 -3.72638 1.21997 0
M  V30 5067 H 460.73 -4.16285 0.331181 0
M  V30 5068 N 461.167 -1.02423 -1.1978 0
M  V30 5069 C 462.097 -0.62157 -2.25075 0
M  V30 5070 C 463.078 0.367148 -1.6609 0
M  V30 5071 O 464.263 0.250892 -1.92573 0
M  V30 5072 C 461.393 0.0331826 -3.47284 0
M  V30 5073 C 460.347 -0.877323 -4.18912 0
M  V30 5074 C 459.673 -0.0879296 -5.34628 0
M  V30 5075 C 460.973 -2.18892 -4.74219 0
M  V30 5076 H 462.667 -1.50179 -2.59011 0
M  V30 5077 H 460.213 -0.723547 -1.24502 0
M  V30 5078 H 462.166 0.326488 -4.20133 0
M  V30 5079 H 460.89 0.948164 -3.12534 0
M  V30 5080 H 459.549 -1.15475 -3.47938 0
M  V30 5081 H 459.197 0.828941 -4.96123 0
M  V30 5082 H 458.897 -0.694359 -5.83483 0
M  V30 5083 H 460.421 0.198743 -6.10276 0
M  V30 5084 H 461.835 -1.95746 -5.38847 0
M  V30 5085 H 460.232 -2.74686 -5.33542 0
M  V30 5086 H 461.302 -2.84674 -3.92541 0
M  V30 5087 N 462.645 1.35699 -0.801477 0
M  V30 5088 C 463.575 2.32436 -0.222658 0
M  V30 5089 C 464.556 1.5723 0.649057 0
M  V30 5090 O 465.741 1.85324 0.580387 0
M  V30 5091 C 462.871 3.41469 0.633719 0
M  V30 5092 C 461.825 4.27774 -0.139083 0
M  V30 5093 C 461.151 5.28082 0.838666 0
M  V30 5094 C 462.451 5.04946 -1.33517 0
M  V30 5095 H 464.145 2.81094 -1.03086 0
M  V30 5096 H 461.691 1.35146 -0.497155 0
M  V30 5097 H 463.644 4.08143 1.04868 0
M  V30 5098 H 462.368 2.91408 1.47475 0
M  V30 5099 H 461.027 3.62673 -0.535156 0
M  V30 5100 H 460.675 4.7429 1.67506 0
M  V30 5101 H 460.375 5.86695 0.32594 0
M  V30 5102 H 461.899 5.97628 1.25194 0
M  V30 5103 H 463.313 5.64593 -0.995349 0
M  V30 5104 H 461.71 5.7303 -1.78202 0
M  V30 5105 H 462.78 4.35886 -2.12442 0
M  V30 5106 N 464.123 0.554532 1.47522 0
M  V30 5107 C 465.363 0.0317994 2.04375 0
M  V30 5108 C 465.727 -1.29242 1.41988 0
M  V30 5109 O 466.928 -1.90269 1.89872 0
M  V30 5110 C 465.199 -0.0623344 3.57346 0
M  V30 5111 S 466.758 -0.531578 4.35568 0
M  V30 5112 H 463.576 0.0238553 0.7106 0
M  V30 5113 H 466.178 0.74066 1.80927 0
M  V30 5114 H 464.882 0.905857 4.00278 0
M  V30 5115 H 464.413 -0.794831 3.85287 0
M  V30 5116 H 466.428 -1.79175 4.62721 0
M  V30 5117 N 465.601 -1.54893 0.290851 0
M  V30 5118 C 466.849 -1.99538 -0.320756 0
M  V30 5119 C 467.17 -1.18075 -1.55188 0
M  V30 5120 O 466.44 -0.274162 -1.93972 0
M  V30 5121 H 465.02 -0.737052 -0.121507 0
M  V30 5122 H 467.682 -1.90755 0.399832 0
M  V30 5123 H 466.778 -3.06282 -0.599802 0
M  V30 5124 N 467.08 -0.0183926 -1.57589 0
M  V30 5125 C 468.327 0.662562 -1.91354 0
M  V30 5126 C 468.655 1.72747 -0.893788 0
M  V30 5127 O 467.91 1.9545 0.0988509 0
M  V30 5128 C 468.209 1.32676 -3.31861 0
M  V30 5129 C 467.875 0.393267 -4.49182 0
M  V30 5130 C 466.537 0.136302 -4.81007 0
M  V30 5131 C 468.889 -0.248366 -5.20608 0
M  V30 5132 C 466.217 -0.770282 -5.81621 0
M  V30 5133 C 468.569 -1.14294 -6.22189 0
M  V30 5134 C 467.233 -1.4089 -6.52462 0
M  V30 5135 H 466.503 0.242448 -0.700214 0
M  V30 5136 H 469.15 -0.0778629 -1.91342 0
M  V30 5137 H 467.455 2.14168 -3.28084 0
M  V30 5138 H 469.152 1.86001 -3.55253 0
M  V30 5139 H 465.742 0.603723 -4.24327 0
M  V30 5140 H 469.926 -0.062883 -4.9626 0
M  V30 5141 H 465.182 -0.984154 -6.03427 0
M  V30 5142 H 469.356 -1.64637 -6.76659 0
M  V30 5143 H 466.983 -2.11306 -7.30242 0
M  V30 5144 N 468.558 1.5553 0.254621 0
M  V30 5145 C 469.783 1.81383 1.00573 0
M  V30 5146 C 470.208 0.594419 1.78461 0
M  V30 5147 O 469.566 -0.456403 1.75461 0
M  V30 5148 C 469.614 3.04892 1.92545 0
M  V30 5149 O 468.718 2.81266 3.01601 0
M  V30 5150 H 468.059 0.598969 0.286587 0
M  V30 5151 H 470.589 2.02703 0.277952 0
M  V30 5152 H 470.599 3.34119 2.34155 0
M  V30 5153 H 469.274 3.93287 1.3527 0
M  V30 5154 H 467.851 2.63185 2.64174 0
M  V30 5155 N 470.036 -0.519951 1.48776 0
M  V30 5156 C 471.264 -1.29971 1.60982 0
M  V30 5157 C 471.679 -1.86803 0.273885 0
M  V30 5158 O 471.036 -1.66904 -0.738193 0
M  V30 5159 C 471.087 -2.44346 2.66415 0
M  V30 5160 O 470.808 -1.89855 3.94825 0
M  V30 5161 C 472.309 -3.36014 2.89153 0
M  V30 5162 H 469.529 -0.394891 0.542496 0
M  V30 5163 H 472.073 -0.626214 1.94676 0
M  V30 5164 H 470.228 -3.07562 2.35552 0
M  V30 5165 H 470.642 -2.64798 4.5275 0
M  V30 5166 H 472.116 -4.12593 3.66703 0
M  V30 5167 H 472.593 -3.91859 1.98351 0
M  V30 5168 H 473.199 -2.78582 3.21359 0
M  V30 5169 N 471.514 -1.37532 -0.769588 0
M  V30 5170 C 472.791 -1.23392 -1.51768 0
M  V30 5171 C 473.171 0.17157 -2.10402 0
M  V30 5172 O 472.519 1.17943 -1.95708 0
M  V30 5173 C 472.729 -2.33163 -2.59685 0
M  V30 5174 C 474.077 -2.70809 -3.27028 0
M  V30 5175 O 475.101 -2.32355 -2.69981 0
M  V30 5176 O 473.96 -3.37066 -4.30173 0
M  V30 5177 H 471.054 -0.481617 -0.67229 0
M  V30 5178 H 473.6 -1.49318 -0.806368 0
M  V30 5179 H 472.372 -3.27273 -2.14494 0
M  V30 5180 H 471.995 -2.08713 -3.38415 0
M  V30 5181 N 472.992 0.995999 -1.22138 0
M  V30 5182 C 474.217 1.77601 -1.0711 0
M  V30 5183 C 474.642 1.84339 0.374264 0
M  V30 5184 O 474 1.29359 1.27028 0
M  V30 5185 C 474.048 3.18897 -1.68336 0
M  V30 5186 O 473.152 4.01663 -0.934928 0
M  V30 5187 H 472.493 0.547011 -0.376397 0
M  V30 5188 H 475.023 1.25137 -1.6187 0
M  V30 5189 H 475.033 3.69539 -1.72931 0
M  V30 5190 H 473.708 3.13308 -2.73516 0
M  V30 5191 H 472.285 3.60204 -0.964751 0
M  V30 5192 N 474.47 1.03057 1.19235 0
M  V30 5193 C 475.718 0.726581 1.88587 0
M  V30 5194 C 476.039 -0.747227 1.80115 0
M  V30 5195 O 475.309 -1.53849 1.21274 0
M  V30 5196 H 473.889 0.265768 0.698124 0
M  V30 5197 H 476.551 1.30516 1.44746 0
M  V30 5198 H 475.647 1.0224 2.94879 0
M  V30 5199 N 475.948 -1.35272 0.808662 0
M  V30 5200 C 476.88 -2.28507 0.178149 0
M  V30 5201 C 477.893 -1.50377 -0.623754 0
M  V30 5202 O 479.082 -1.72583 -0.455774 0
M  V30 5203 C 476.182 -3.30038 -0.769959 0
M  V30 5204 C 475.355 -4.37398 -0.0139749 0
M  V30 5205 C 474.414 -5.18775 -0.880875 0
M  V30 5206 O 473.44 -5.68236 -0.331059 0
M  V30 5207 N 474.642 -5.37087 -2.20267 0
M  V30 5208 H 477.407 -2.83255 0.979106 0
M  V30 5209 H 474.968 -1.47643 0.664308 0
M  V30 5210 H 476.96 -3.81371 -1.35418 0
M  V30 5211 H 475.53 -2.75789 -1.47171 0
M  V30 5212 H 474.75 -3.86971 0.751468 0
M  V30 5213 H 476.038 -5.06268 0.506965 0
M  V30 5214 H 475.436 -4.9855 -2.67328 0
M  V30 5215 H 473.993 -5.91593 -2.73608 0
M  V30 5216 N 477.426 -0.562348 -1.47226 0
M  V30 5217 C 478.666 -0.0426374 -2.04356 0
M  V30 5218 C 479.03 1.28487 -1.42671 0
M  V30 5219 O 480.231 1.89259 -1.90878 0
M  V30 5220 C 478.502 0.0433826 -3.57374 0
M  V30 5221 S 480.061 0.508472 -4.35844 0
M  V30 5222 H 476.879 -0.0276234 -0.710463 0
M  V30 5223 H 479.481 -0.750245 -1.80531 0
M  V30 5224 H 478.185 -0.927072 -3.99792 0
M  V30 5225 H 477.716 0.774387 -3.85703 0
M  V30 5226 H 479.731 1.76719 -4.63665 0
M  V30 5227 N 478.904 1.54736 -0.299062 0
M  V30 5228 C 480.315 1.8569 0.193971 0
M  V30 5229 C 480.666 1.22101 1.53577 0
M  V30 5230 O 479.791 0.51799 2.10109 0
M  V30 5231 C 480.386 3.36895 0.358733 0
M  V30 5232 C 478.945 3.67887 0.795986 0
M  V30 5233 C 478.092 2.77131 -0.096807 0
M  V30 5234 H 481.043 1.49934 -0.520134 0
M  V30 5235 H 481.064 3.61294 1.19361 0
M  V30 5236 H 480.576 3.83148 -0.617998 0
M  V30 5237 H 478.677 3.27151 1.78334 0
M  V30 5238 H 478.79 4.75114 0.616718 0
M  V30 5239 H 477.154 2.51153 0.423581 0
M  V30 5240 H 477.937 3.26204 -1.06986 0
M  V30 5241 N 480.382 0.0267497 1.57577 0
M  V30 5242 C 481.292 -0.971633 2.13533 0
M  V30 5243 C 482.308 -1.35868 1.08701 0
M  V30 5244 O 483.484 -1.44058 1.40746 0
M  V30 5245 C 480.549 -2.23622 2.64941 0
M  V30 5246 C 479.61 -1.90982 3.8448 0
M  V30 5247 C 478.843 -3.11411 4.33427 0
M  V30 5248 O 479.066 -4.23992 3.81558 0
M  V30 5249 O 478 -2.93848 5.25297 0
M  V30 5250 H 481.826 -0.525853 2.99113 0
M  V30 5251 H 479.411 -0.193712 1.48139 0
M  V30 5252 H 481.293 -2.97864 2.98086 0
M  V30 5253 H 479.968 -2.67386 1.82446 0
M  V30 5254 H 478.875 -1.14132 3.56265 0
M  V30 5255 H 480.208 -1.52036 4.6813 0
M  V30 5256 N 481.861 -1.55662 -0.24637 0
M  V30 5257 C 483.109 -1.77168 -0.972411 0
M  V30 5258 C 483.43 -0.590827 -1.85834 0
M  V30 5259 O 482.7 0.393365 -1.9191 0
M  V30 5260 H 481.28 -0.653405 -0.362038 0
M  V30 5261 H 483.942 -1.93101 -0.264189 0
M  V30 5262 H 483.038 -2.68335 -1.59382 0
M  V30 5263 N 483.339 0.512053 -1.4905 0
M  V30 5264 C 484.569 1.28928 -1.61434 0
M  V30 5265 C 484.977 1.87107 -0.280647 0
M  V30 5266 O 484.32 1.68024 0.742537 0
M  V30 5267 C 484.382 2.466 -2.61588 0
M  V30 5268 C 484.046 2.09375 -4.06216 0
M  V30 5269 C 485.043 1.63994 -4.93358 0
M  V30 5270 C 482.728 2.19348 -4.51876 0
M  V30 5271 C 484.722 1.29076 -6.24194 0
M  V30 5272 C 482.409 1.84041 -5.82728 0
M  V30 5273 C 483.407 1.38978 -6.68711 0
M  V30 5274 O 483.095 1.04144 -7.97126 0
M  V30 5275 H 482.827 0.397668 -0.546659 0
M  V30 5276 H 485.381 0.622507 -1.9574 0
M  V30 5277 H 483.611 3.16318 -2.22441 0
M  V30 5278 H 485.3 3.08642 -2.63619 0
M  V30 5279 H 486.066 1.55744 -4.59313 0
M  V30 5280 H 481.945 2.53376 -3.85125 0
M  V30 5281 H 485.489 0.938303 -6.91261 0
M  V30 5282 H 481.386 1.91938 -6.16304 0
M  V30 5283 H 482.154 1.17387 -8.10039 0
M  V30 5284 N 484.817 1.37938 0.762283 0
M  V30 5285 C 486.045 1.36883 1.55147 0
M  V30 5286 C 486.46 -0.0435348 1.8875 0
M  V30 5287 O 485.817 -1.00786 1.52146 0
M  V30 5288 C 485.868 2.21624 2.85596 0
M  V30 5289 O 485.589 3.57358 2.5343 0
M  V30 5290 C 487.09 2.28653 3.7978 0
M  V30 5291 H 484.31 0.468521 0.480343 0
M  V30 5292 H 486.854 1.81404 0.944079 0
M  V30 5293 H 485.009 1.80588 3.42734 0
M  V30 5294 H 485.423 4.01883 3.37032 0
M  V30 5295 H 486.897 2.9225 4.68288 0
M  V30 5296 H 487.374 1.29767 4.19592 0
M  V30 5297 H 487.98 2.70043 3.28568 0
M  V30 5298 N 486.295 -0.989507 1.22664 0
M  V30 5299 C 487.535 -1.7447 1.06488 0
M  V30 5300 C 487.899 -1.8794 -0.392737 0
M  V30 5301 O 489.1 -2.60175 -0.675446 0
M  V30 5302 C 487.371 -3.11043 1.76031 0
M  V30 5303 S 488.93 -4.02258 1.7531 0
M  V30 5304 H 485.748 -0.600123 0.381278 0
M  V30 5305 H 488.35 -1.18283 1.55658 0
M  V30 5306 H 487.054 -2.98884 2.81241 0
M  V30 5307 H 486.585 -3.72301 1.27105 0
M  V30 5308 H 488.6 -4.89623 0.805208 0
M  V30 5309 N 487.773 -1.03688 -1.18687 0
M  V30 5310 C 489.019 -0.739123 -1.88851 0
M  V30 5311 C 489.352 0.731042 -1.79915 0
M  V30 5312 O 488.627 1.53313 -1.19688 0
M  V30 5313 C 488.91 -1.20106 -3.3948 0
M  V30 5314 C 488.763 -2.73304 -3.57246 0
M  V30 5315 C 490.082 -0.788134 -4.32986 0
M  V30 5316 H 487.201 -0.269978 -0.68577 0
M  V30 5317 H 489.843 -1.28822 -1.3966 0
M  V30 5318 H 487.993 -0.733915 -3.81505 0
M  V30 5319 H 489.665 -3.28027 -3.24339 0
M  V30 5320 H 487.908 -3.13313 -3.00029 0
M  V30 5321 H 488.579 -3.00684 -4.62918 0
M  V30 5322 H 491.055 -1.19005 -3.98719 0
M  V30 5323 H 489.931 -1.13915 -5.36949 0
M  V30 5324 H 490.192 0.308988 -4.41019 0
M  V30 5325 N 489.251 1.34841 -0.815825 0
M  V30 5326 C 490.198 2.29644 -0.230664 0
M  V30 5327 C 491.168 1.53253 0.640533 0
M  V30 5328 O 492.353 1.81653 0.583672 0
M  V30 5329 C 489.493 3.39715 0.607275 0
M  V30 5330 C 488.606 4.31056 -0.28538 0
M  V30 5331 C 487.741 5.28225 0.561446 0
M  V30 5332 C 486.78 6.11204 -0.331035 0
M  V30 5333 N 485.917 7.00483 0.476302 0
M  V30 5334 H 490.757 2.79095 -1.0445 0
M  V30 5335 H 488.294 1.37351 -0.526595 0
M  V30 5336 H 490.252 4.02208 1.10835 0
M  V30 5337 H 488.882 2.91517 1.38629 0
M  V30 5338 H 487.934 3.69487 -0.904621 0
M  V30 5339 H 489.246 4.89239 -0.97193 0
M  V30 5340 H 488.4 5.96135 1.12728 0
M  V30 5341 H 487.139 4.70562 1.28153 0
M  V30 5342 H 486.144 5.42232 -0.909069 0
M  V30 5343 H 487.369 6.70947 -1.04912 0
M  V30 5344 H 485.315 6.45296 1.18019 0
M  V30 5345 H 485.232 7.55847 -0.152008 0
M  V30 5346 H 486.5 7.7273 1.02512 0
M  V30 5347 N 490.729 0.570148 1.46925 0
M  V30 5348 C 491.978 0.0487352 2.01641 0
M  V30 5349 C 492.291 -1.31433 1.44861 0
M  V30 5350 O 493.497 -1.92638 1.91318 0
M  V30 5351 C 491.953 0.0365817 3.59881 0
M  V30 5352 C 491.561 1.39719 4.25655 0
M  V30 5353 C 493.305 -0.431545 4.22301 0
M  V30 5354 C 491.212 1.34345 5.75939 0
M  V30 5355 H 490.142 0.0144492 0.753862 0
M  V30 5356 H 492.793 0.719928 1.68788 0
M  V30 5357 H 491.175 -0.700522 3.89755 0
M  V30 5358 H 492.349 2.15303 4.07408 0
M  V30 5359 H 490.664 1.80431 3.75278 0
M  V30 5360 H 493.261 -0.490354 5.32447 0
M  V30 5361 H 493.604 -1.44638 3.90366 0
M  V30 5362 H 494.137 0.251102 3.97007 0
M  V30 5363 H 490.876 2.33469 6.12513 0
M  V30 5364 H 490.396 0.629615 5.96486 0
M  V30 5365 H 492.075 1.051 6.38407 0
M  V30 5366 N 492.207 -1.54576 0.307264 0
M  V30 5367 C 493.455 -1.99867 -0.299574 0
M  V30 5368 C 493.776 -1.19714 -1.53927 0
M  V30 5369 O 493.046 -0.29472 -1.9367 0
M  V30 5370 H 491.626 -0.738299 -0.113683 0
M  V30 5371 H 494.288 -1.9032 0.420042 0
M  V30 5372 H 493.384 -3.06901 -0.567283 0
M  V30 5373 N 493.685 -0.035106 -1.57561 0
M  V30 5374 C 495.101 0.321334 -1.56332 0
M  V30 5375 C 495.301 1.72509 -1.04129 0
M  V30 5376 O 494.357 2.4287 -0.690694 0
M  V30 5377 C 495.67 0.164469 -3.0025 0
M  V30 5378 C 497.218 0.236786 -3.12103 0
M  V30 5379 C 497.693 0.10864 -4.57871 0
M  V30 5380 N 499.184 0.165433 -4.62904 0
M  V30 5381 C 499.919 0.0901506 -5.73329 0
M  V30 5382 N 499.415 -0.0365606 -6.9279 0
M  V30 5383 N 501.208 0.144572 -5.61914 0
M  V30 5384 H 493.359 -0.952976 -1.89821 0
M  V30 5385 H 495.622 -0.368537 -0.873432 0
M  V30 5386 H 495.328 -0.802746 -3.42416 0
M  V30 5387 H 495.202 0.932194 -3.655 0
M  V30 5388 H 497.589 1.19446 -2.69845 0
M  V30 5389 H 497.67 -0.561419 -2.49563 0
M  V30 5390 H 497.314 -0.845644 -5.00811 0
M  V30 5391 H 497.244 0.925786 -5.18398 0
M  V30 5392 H 499.735 0.263269 -3.76982 0
M  V30 5393 H 500.048 -0.0871487 -7.72751 0
M  V30 5394 H 498.393 -0.0714256 -6.94963 0
M  V30 5395 H 501.584 0.242006 -4.67474 0
M  V30 5396 H 501.757 0.0824413 -6.47948 0
M  V30 5397 N 495.163 1.55791 0.238111 0
M  V30 5398 C 496.111 1.91885 1.31464 0
M  V30 5399 C 497.105 0.798929 1.49377 0
M  V30 5400 O 498.311 0.983626 1.50747 0
M  V30 5401 H 494.686 0.609551 0.440399 0
M  V30 5402 H 496.657 2.81747 0.982925 0
M  V30 5403 C 495.406 2.23763 2.6613 0
M  V30 5404 H 494.729 3.09444 2.53149 0
M  V30 5405 H 496.169 2.52915 3.40309 0
M  V30 5406 C 494.628 1.05699 3.1989 0
M  V30 5407 O 495.158 0.309524 4.00506 0
M  V30 5408 N 493.364 0.845251 2.78036 0
M  V30 5409 H 492.911 1.4548 2.12588 0
M  V30 5410 H 492.869 0.0569973 3.14348 0
M  V30 5411 N 496.642 -0.504142 1.49319 0
M  V30 5412 C 498.053 -1.08572 1.51885 0
M  V30 5413 C 498.404 -1.93842 0.303255 0
M  V30 5414 O 497.529 -2.0828 -0.58724 0
M  V30 5415 C 498.124 -1.97574 2.75227 0
M  V30 5416 C 496.683 -2.509 2.80581 0
M  V30 5417 C 495.83 -1.28447 2.45757 0
M  V30 5418 H 498.781 -0.288194 1.56061 0
M  V30 5419 H 498.802 -2.82219 2.55211 0
M  V30 5420 H 498.314 -1.35486 3.63683 0
M  V30 5421 H 496.415 -3.16636 1.96398 0
M  V30 5422 H 496.528 -2.88268 3.82673 0
M  V30 5423 H 494.892 -1.60868 1.97468 0
M  V30 5424 H 495.675 -0.68072 3.36483 0
M  V30 5425 N 498.12 -1.38341 -0.754957 0
M  V30 5426 C 499.397 -1.24995 -1.50451 0
M  V30 5427 C 499.777 0.149244 -2.10572 0
M  V30 5428 O 499.125 1.15861 -1.96948 0
M  V30 5429 C 499.335 -2.35904 -2.57197 0
M  V30 5430 C 500.683 -2.74262 -3.24138 0
M  V30 5431 O 501.707 -2.35205 -2.67501 0
M  V30 5432 O 500.566 -3.4161 -4.26574 0
M  V30 5433 H 497.66 -0.48872 -0.667144 0
M  V30 5434 H 500.206 -1.50165 -0.790486 0
M  V30 5435 H 498.978 -3.2953 -2.11011 0
M  V30 5436 H 498.601 -2.12291 -3.36182 0
M  V30 5437 N 499.598 0.982988 -1.23187 0
M  V30 5438 C 500.828 1.75666 -1.08743 0
M  V30 5439 C 501.236 1.85662 0.364195 0
M  V30 5440 O 500.579 1.33317 1.26382 0
M  V30 5441 C 500.641 3.20144 -1.63549 0
M  V30 5442 C 500.305 3.33665 -3.12277 0
M  V30 5443 C 501.302 3.20194 -4.096 0
M  V30 5444 C 498.987 3.58397 -3.51933 0
M  V30 5445 C 500.981 3.31256 -5.44563 0
M  V30 5446 C 498.668 3.69098 -4.87042 0
M  V30 5447 C 499.666 3.55537 -5.83166 0
M  V30 5448 O 499.354 3.65864 -7.1582 0
M  V30 5449 H 499.086 0.558194 -0.381307 0
M  V30 5450 H 501.64 1.24387 -1.63454 0
M  V30 5451 H 499.87 3.72659 -1.03256 0
M  V30 5452 H 501.559 3.79262 -1.4462 0
M  V30 5453 H 502.325 3.00987 -3.80305 0
M  V30 5454 H 498.204 3.68025 -2.77631 0
M  V30 5455 H 501.748 3.20588 -6.19572 0
M  V30 5456 H 497.645 3.87814 -5.16014 0
M  V30 5457 H 498.413 3.82675 -7.23534 0
M  V30 5458 N 501.076 1.04316 1.18135 0
M  V30 5459 C 502.324 0.746542 1.87806 0
M  V30 5460 C 502.645 -0.728082 1.80898 0
M  V30 5461 O 501.915 -1.52554 1.22899 0
M  V30 5462 H 500.495 0.273157 0.695265 0
M  V30 5463 H 503.157 1.32044 1.43354 0
M  V30 5464 H 502.253 1.05362 2.93778 0
M  V30 5465 N 502.554 -1.34406 0.822964 0
M  V30 5466 C 503.784 -2.02214 0.423424 0
M  V30 5467 C 504.192 -1.62124 -0.975322 0
M  V30 5468 O 503.535 -0.822452 -1.6426 0
M  V30 5469 C 503.597 -3.56721 0.446107 0
M  V30 5470 C 503.261 -4.20136 1.79819 0
M  V30 5471 C 504.258 -4.4065 2.75904 0
M  V30 5472 C 501.943 -4.56906 2.08669 0
M  V30 5473 C 503.937 -4.9706 3.99012 0
M  V30 5474 C 501.624 -5.13026 3.32036 0
M  V30 5475 C 502.622 -5.33047 4.27024 0
M  V30 5476 O 502.31 -5.87979 5.48211 0
M  V30 5477 H 502.042 -0.654748 0.168169 0
M  V30 5478 H 504.596 -1.72659 1.11257 0
M  V30 5479 H 502.826 -3.85537 -0.299734 0
M  V30 5480 H 504.515 -4.05845 0.0666114 0
M  V30 5481 H 505.281 -4.12607 2.54912 0
M  V30 5482 H 501.16 -4.40626 1.35535 0
M  V30 5483 H 504.704 -5.12603 4.73164 0
M  V30 5484 H 500.601 -5.40498 3.52891 0
M  V30 5485 H 501.369 -6.06413 5.49732 0
M  V30 5486 N 504.032 -0.577932 -1.46621 0
M  V30 5487 C 505.26 -0.0671642 -2.06791 0
M  V30 5488 C 505.675 1.23571 -1.42743 0
M  V30 5489 O 505.032 1.74602 -0.531062 0
M  V30 5490 C 505.083 0.110357 -3.61332 0
M  V30 5491 O 504.804 -1.14095 -4.22982 0
M  V30 5492 C 506.305 0.656025 -4.38419 0
M  V30 5493 H 503.525 -0.0552732 -0.66872 0
M  V30 5494 H 506.069 -0.797242 -1.8832 0
M  V30 5495 H 504.224 0.790637 -3.79246 0
M  V30 5496 H 504.638 -0.951742 -5.15793 0
M  V30 5497 H 506.112 0.729438 -5.47159 0
M  V30 5498 H 506.589 1.67195 -4.06131 0
M  V30 5499 H 507.195 0.0107692 -4.25299 0
M  V30 5500 N 505.51 1.54411 -0.315457 0
M  V30 5501 C 506.735 2.05299 0.294496 0
M  V30 5502 C 507.16 1.19052 1.4563 0
M  V30 5503 O 506.518 0.197804 1.80218 0
M  V30 5504 C 506.566 3.5345 0.714549 0
M  V30 5505 O 505.67 3.70175 1.81781 0
M  V30 5506 H 505.011 0.661743 0.0547019 0
M  V30 5507 H 507.541 1.99327 -0.461508 0
M  V30 5508 H 507.551 3.9557 0.999426 0
M  V30 5509 H 506.226 4.1568 -0.135244 0
M  V30 5510 H 504.803 3.3996 1.53236 0
M  V30 5511 N 506.988 0.0434614 1.5754 0
M  V30 5512 C 508.235 -0.632035 1.92384 0
M  V30 5513 C 508.563 -1.71304 0.921157 0
M  V30 5514 O 507.818 -1.95583 -0.067744 0
M  V30 5515 C 508.117 -1.2738 3.3393 0
M  V30 5516 C 507.783 -0.321757 4.49751 0
M  V30 5517 C 506.445 -0.0597611 4.81163 0
M  V30 5518 C 508.797 0.331158 5.20147 0
M  V30 5519 C 506.125 0.862715 5.80322 0
M  V30 5520 C 508.477 1.24178 6.20292 0
M  V30 5521 C 507.141 1.51252 6.50138 0
M  V30 5522 H 506.411 -0.231278 0.703983 0
M  V30 5523 H 509.058 0.108294 1.91194 0
M  V30 5524 H 507.363 -2.08921 3.3145 0
M  V30 5525 H 509.06 -1.80326 3.58167 0
M  V30 5526 H 505.65 -0.53614 4.25233 0
M  V30 5527 H 509.834 0.141826 4.96097 0
M  V30 5528 H 505.09 1.08003 6.01785 0
M  V30 5529 H 509.264 1.75381 6.73954 0
M  V30 5530 H 506.891 2.22897 7.26788 0
M  V30 5531 N 508.466 -1.55915 -0.229846 0
M  V30 5532 C 509.743 -1.6932 -0.979295 0
M  V30 5533 C 510.123 -0.588321 -2.02736 0
M  V30 5534 O 509.471 0.40586 -2.24867 0
M  V30 5535 C 509.681 -3.10305 -1.59724 0
M  V30 5536 C 511.029 -3.6945 -2.09264 0
M  V30 5537 O 512.053 -3.13214 -1.69633 0
M  V30 5538 O 510.912 -4.68072 -2.82082 0
M  V30 5539 H 508.006 -0.689314 -0.456919 0
M  V30 5540 H 510.552 -1.68238 -0.222283 0
M  V30 5541 H 509.324 -3.82177 -0.840039 0
M  V30 5542 H 508.947 -3.1547 -2.42001 0
M  V30 5543 N 509.944 0.496216 -1.49584 0
M  V30 5544 C 511.172 1.27394 -1.63029 0
M  V30 5545 C 511.587 1.86344 -0.303569 0
M  V30 5546 O 510.944 1.68057 0.711547 0
M  V30 5547 C 510.995 2.40077 -2.70269 0
M  V30 5548 O 510.716 1.83549 -3.97796 0
M  V30 5549 C 512.217 3.31372 -2.94462 0
M  V30 5550 H 509.437 0.386211 -0.54871 0
M  V30 5551 H 511.981 0.595163 -1.95648 0
M  V30 5552 H 510.136 3.03775 -2.40415 0
M  V30 5553 H 510.55 2.57561 -4.56905 0
M  V30 5554 H 512.024 4.06707 -3.73221 0
M  V30 5555 H 512.501 3.88654 -2.0456 0
M  V30 5556 H 513.107 2.73435 -3.25751 0
M  V30 5557 N 511.423 1.38739 0.74761 0
M  V30 5558 C 512.67 1.35274 1.50689 0
M  V30 5559 C 512.998 -0.0553359 1.94421 0
M  V30 5560 O 512.253 -1.03365 1.66175 0
M  V30 5561 C 512.552 2.25992 2.7688 0
M  V30 5562 C 512.218 3.73854 2.5208 0
M  V30 5563 C 510.88 4.14145 2.45025 0
M  V30 5564 C 513.232 4.67427 2.30568 0
M  V30 5565 C 510.56 5.4609 2.14483 0
M  V30 5566 C 512.912 5.99635 2.01545 0
M  V30 5567 C 511.576 6.39004 1.92951 0
M  V30 5568 H 510.846 0.495003 0.55141 0
M  V30 5569 H 513.493 1.71145 0.859158 0
M  V30 5570 H 511.798 1.83196 3.46333 0
M  V30 5571 H 513.495 2.20611 3.34861 0
M  V30 5572 H 510.085 3.41913 2.58444 0
M  V30 5573 H 514.269 4.3714 2.34994 0
M  V30 5574 H 509.525 5.75528 2.06342 0
M  V30 5575 H 513.699 6.71678 1.83906 0
M  V30 5576 H 511.326 7.41165 1.6905 0
M  V30 5577 N 512.901 -0.976442 1.23707 0
M  V30 5578 C 514.126 -1.75875 1.09922 0
M  V30 5579 C 514.551 -1.84911 -0.34489 0
M  V30 5580 O 513.909 -1.31363 -1.24954 0
M  V30 5581 C 513.957 -3.16179 1.73388 0
M  V30 5582 O 513.061 -4.00124 0.99871 0
M  V30 5583 H 512.402 -0.540954 0.385052 0
M  V30 5584 H 514.932 -1.22546 1.6384 0
M  V30 5585 H 514.942 -3.66741 1.78788 0
M  V30 5586 H 513.617 -3.08917 2.78466 0
M  V30 5587 H 512.194 -3.58624 1.02193 0
M  V30 5588 N 514.379 -1.04941 -1.1758 0
M  V30 5589 C 515.625 -0.768896 -1.88307 0
M  V30 5590 C 515.98 0.696361 -1.79356 0
M  V30 5591 O 515.273 1.50245 -1.18899 0
M  V30 5592 C 515.467 -1.18062 -3.37337 0
M  V30 5593 C 515.296 -2.68436 -3.60794 0
M  V30 5594 C 514.066 -3.35709 -3.77661 0
M  V30 5595 C 516.264 -3.66657 -3.60649 0
M  V30 5596 N 514.246 -4.74974 -3.88939 0
M  V30 5597 C 515.617 -4.91638 -3.77747 0
M  V30 5598 C 517.672 -3.60162 -3.43785 0
M  V30 5599 C 516.375 -6.10902 -3.79726 0
M  V30 5600 C 518.401 -4.78863 -3.47051 0
M  V30 5601 C 517.763 -6.02666 -3.64654 0
M  V30 5602 H 513.862 -0.33355 -0.707296 0
M  V30 5603 H 516.446 -1.34085 -1.41171 0
M  V30 5604 H 514.617 -0.636648 -3.83147 0
M  V30 5605 H 516.349 -0.8502 -3.95669 0
M  V30 5606 H 513.104 -2.8611 -3.77409 0
M  V30 5607 H 513.528 -5.47378 -3.98379 0
M  V30 5608 H 518.17 -2.65412 -3.29114 0
M  V30 5609 H 515.888 -7.05998 -3.93182 0
M  V30 5610 H 519.474 -4.75488 -3.35265 0
M  V30 5611 H 518.354 -6.92979 -3.67083 0
M  V30 5612 N 515.857 1.33968 -0.830081 0
M  V30 5613 C 516.82 2.27694 -0.26235 0
M  V30 5614 C 517.82 1.50589 0.563876 0
M  V30 5615 O 519.01 1.70028 0.378941 0
M  V30 5616 C 516.142 3.35002 0.63138 0
M  V30 5617 H 517.335 2.79419 -1.08928 0
M  V30 5618 H 514.888 1.44221 -0.602486 0
M  V30 5619 H 515.623 2.88504 1.48109 0
M  V30 5620 H 515.408 3.92079 0.0403276 0
M  V30 5621 H 516.898 4.04897 1.02217 0
M  V30 5622 N 517.335 0.585699 1.46312 0
M  V30 5623 C 518.582 0.0724211 2.0237 0
M  V30 5624 C 518.91 -1.28868 1.45683 0
M  V30 5625 O 518.165 -1.85853 0.612945 0
M  V30 5626 C 518.464 -0.0401312 3.57377 0
M  V30 5627 C 518.13 1.25376 4.33119 0
M  V30 5628 C 516.792 1.60824 4.5353 0
M  V30 5629 C 519.144 2.10987 4.76586 0
M  V30 5630 C 516.472 2.81676 5.14661 0
M  V30 5631 C 518.824 3.31068 5.39052 0
M  V30 5632 C 517.488 3.66794 5.5769 0
M  V30 5633 H 516.758 0.0265007 0.740526 0
M  V30 5634 H 519.405 0.762935 1.75646 0
M  V30 5635 H 517.71 -0.813791 3.83255 0
M  V30 5636 H 519.407 -0.453078 3.98432 0
M  V30 5637 H 515.997 0.967808 4.1753 0
M  V30 5638 H 520.181 1.84904 4.60569 0
M  V30 5639 H 515.437 3.0949 5.27282 0
M  V30 5640 H 519.611 3.97672 5.71691 0
M  V30 5641 H 517.238 4.60529 6.04828 0
M  V30 5642 N 518.813 -1.54241 0.323641 0
M  V30 5643 C 519.743 -2.27289 -0.534993 0
M  V30 5644 C 520.724 -1.28087 -1.11927 0
M  V30 5645 O 521.909 -1.56899 -1.14439 0
M  V30 5646 C 519.039 -3.03075 -1.69596 0
M  V30 5647 C 517.993 -4.09614 -1.24098 0
M  V30 5648 C 517.319 -4.73242 -2.4889 0
M  V30 5649 C 518.619 -5.21087 -0.355789 0
M  V30 5650 H 520.313 -2.99308 0.0743257 0
M  V30 5651 H 517.859 -1.43952 0.0371874 0
M  V30 5652 H 519.812 -3.52907 -2.30293 0
M  V30 5653 H 518.536 -2.28673 -2.33187 0
M  V30 5654 H 517.195 -3.60666 -0.656945 0
M  V30 5655 H 516.843 -3.95455 -3.10845 0
M  V30 5656 H 516.543 -5.45209 -2.19138 0
M  V30 5657 H 518.067 -5.25848 -3.10348 0
M  V30 5658 H 519.481 -5.66675 -0.869042 0
M  V30 5659 H 517.878 -5.9991 -0.151045 0
M  V30 5660 H 518.948 -4.81005 0.613339 0
M  V30 5661 N 520.291 -0.0518155 -1.57515 0
M  V30 5662 C 521.254 0.907547 -2.10467 0
M  V30 5663 C 522.254 1.23947 -1.02439 0
M  V30 5664 O 523.444 1.17604 -1.2851 0
M  V30 5665 C 520.576 2.21723 -2.58944 0
M  V30 5666 H 521.769 0.44851 -2.96527 0
M  V30 5667 H 519.322 0.196598 -1.55059 0
M  V30 5668 H 520.057 2.72206 -1.76279 0
M  V30 5669 H 519.842 1.98935 -3.37886 0
M  V30 5670 H 521.332 2.90441 -3.00056 0
M  V30 5671 N 521.769 1.56035 0.221574 0
M  V30 5672 C 522.699 1.95434 1.2778 0
M  V30 5673 C 523.68 0.822564 1.48889 0
M  V30 5674 O 524.865 1.08486 1.61072 0
M  V30 5675 C 521.995 2.27102 2.62759 0
M  V30 5676 C 520.949 3.4277 2.56306 0
M  V30 5677 C 520.275 3.60043 3.95314 0
M  V30 5678 C 521.575 4.77742 2.11093 0
M  V30 5679 H 523.269 2.83912 0.950504 0
M  V30 5680 H 520.815 1.36596 0.455791 0
M  V30 5681 H 522.768 2.53256 3.36807 0
M  V30 5682 H 521.492 1.35478 2.97176 0
M  V30 5683 H 520.151 3.16664 1.84715 0
M  V30 5684 H 519.799 2.65794 4.27039 0
M  V30 5685 H 519.499 4.37841 3.91879 0
M  V30 5686 H 521.023 3.88545 4.71025 0
M  V30 5687 H 522.437 5.03102 2.74885 0
M  V30 5688 H 520.834 5.58823 2.18716 0
M  V30 5689 H 521.904 4.731 1.06321 0
M  V30 5690 N 523.247 -0.488276 1.49845 0
M  V30 5691 C 524.494 -1.24157 1.59973 0
M  V30 5692 C 524.822 -1.92293 0.292182 0
M  V30 5693 O 524.077 -1.81942 -0.720813 0
M  V30 5694 C 524.376 -2.32152 2.71735 0
M  V30 5695 C 524.042 -1.81387 4.12807 0
M  V30 5696 C 522.704 -1.67262 4.51195 0
M  V30 5697 C 525.056 -1.43537 5.01045 0
M  V30 5698 C 522.384 -1.13685 5.7558 0
M  V30 5699 C 524.736 -0.914081 6.25961 0
M  V30 5700 C 523.4 -0.759327 6.63167 0
M  V30 5701 H 522.67 -0.454322 0.585383 0
M  V30 5702 H 525.317 -0.540261 1.83721 0
M  V30 5703 H 523.622 -3.08122 2.42008 0
M  V30 5704 H 525.319 -2.90164 2.76778 0
M  V30 5705 H 521.909 -1.93344 3.82513 0
M  V30 5706 H 526.093 -1.53292 4.72033 0
M  V30 5707 H 521.349 -1.00426 6.03096 0
M  V30 5708 H 525.523 -0.612066 6.93705 0
M  V30 5709 H 523.15 -0.342002 7.5943 0
M  V30 5710 N 524.725 -1.39134 -0.740242 0
M  V30 5711 C 526.141 -1.20623 -1.0451 0
M  V30 5712 C 526.341 -0.0641651 -2.01398 0
M  V30 5713 O 525.397 0.585843 -2.4561 0
M  V30 5714 C 526.71 -2.53815 -1.6124 0
M  V30 5715 C 528.258 -2.60615 -1.73346 0
M  V30 5716 C 528.733 -3.94015 -2.33486 0
M  V30 5717 N 530.224 -3.95627 -2.40902 0
M  V30 5718 C 530.959 -4.95616 -2.88361 0
M  V30 5719 N 530.455 -6.06003 -3.35756 0
M  V30 5720 N 532.248 -4.82998 -2.87523 0
M  V30 5721 H 524.399 -2.12176 -0.0975576 0
M  V30 5722 H 526.662 -0.942066 -0.105904 0
M  V30 5723 H 526.368 -3.37911 -0.975144 0
M  V30 5724 H 526.242 -2.73162 -2.6012 0
M  V30 5725 H 528.629 -1.76906 -2.36195 0
M  V30 5726 H 528.71 -2.45123 -0.731336 0
M  V30 5727 H 528.354 -4.78153 -1.71267 0
M  V30 5728 H 528.284 -4.06825 -3.34366 0
M  V30 5729 H 530.775 -3.15903 -2.07398 0
M  V30 5730 H 531.088 -6.78215 -3.70464 0
M  V30 5731 H 529.433 -6.09604 -3.33778 0
M  V30 5732 H 532.624 -3.95866 -2.49816 0
M  V30 5733 H 532.797 -5.61072 -3.24196 0
M  V30 5734 N 526.204 0.969867 -1.24223 0
M  V30 5735 C 527.134 2.08191 -1.05729 0
M  V30 5736 C 528.115 1.70075 0.0290765 0
M  V30 5737 O 529.3 1.93712 -0.137583 0
M  V30 5738 C 526.43 3.40991 -0.658995 0
M  V30 5739 C 525.384 3.93054 -1.69389 0
M  V30 5740 C 524.71 5.22171 -1.15072 0
M  V30 5741 C 526.01 4.21137 -3.08935 0
M  V30 5742 H 527.704 2.23921 -1.98746 0
M  V30 5743 H 525.25 1.07602 -0.956967 0
M  V30 5744 H 527.203 4.18221 -0.51662 0
M  V30 5745 H 525.927 3.25155 0.30686 0
M  V30 5746 H 524.586 3.17977 -1.82444 0
M  V30 5747 H 524.234 5.02694 -0.175539 0
M  V30 5748 H 523.934 5.57973 -1.84229 0
M  V30 5749 H 525.458 6.02013 -1.02042 0
M  V30 5750 H 526.872 4.8908 -2.99121 0
M  V30 5751 H 525.269 4.68163 -3.75425 0
M  V30 5752 H 526.339 3.27996 -3.57137 0
M  V30 5753 N 527.682 1.05563 1.17022 0
M  V30 5754 C 528.615 0.604197 2.20056 0
M  V30 5755 C 529.593 -0.369169 1.58354 0
M  V30 5756 O 530.777 -0.279898 1.8641 0
M  V30 5757 C 527.904 -0.115265 3.38504 0
M  V30 5758 C 526.95 0.813698 4.18666 0
M  V30 5759 S 527.783 2.30492 4.83357 0
M  V30 5760 C 528.939 1.59674 6.0519 0
M  V30 5761 H 529.172 1.47713 2.58008 0
M  V30 5762 H 526.705 0.867932 1.27696 0
M  V30 5763 H 528.663 -0.524162 4.0714 0
M  V30 5764 H 527.324 -0.964284 2.98932 0
M  V30 5765 H 526.517 0.256736 5.03346 0
M  V30 5766 H 526.119 1.16213 3.55486 0
M  V30 5767 H 528.411 0.898164 6.7152 0
M  V30 5768 H 529.354 2.42115 6.65422 0
M  V30 5769 H 529.762 1.08252 5.54023 0
M  V30 5770 N 529.16 -1.33526 0.837174 0
M  V30 5771 C 530.388 -2.02047 0.445494 0
M  V30 5772 C 530.803 -1.62995 -0.952788 0
M  V30 5773 O 530.16 -0.842447 -1.61892 0
M  V30 5774 C 530.211 -3.57221 0.554577 0
M  V30 5775 O 529.932 -3.94863 1.89776 0
M  V30 5776 C 531.433 -4.43012 0.159634 0
M  V30 5777 H 528.653 -0.647221 0.177048 0
M  V30 5778 H 531.197 -1.70492 1.12928 0
M  V30 5779 H 529.352 -3.87315 -0.0812781 0
M  V30 5780 H 529.766 -4.89569 1.88208 0
M  V30 5781 H 531.24 -5.51253 0.28701 0
M  V30 5782 H 531.717 -4.29916 -0.898289 0
M  V30 5783 H 532.323 -4.18274 0.769855 0
M  V30 5784 N 530.638 -0.59345 -1.46 0
M  V30 5785 C 531.57 0.171569 -2.28557 0
M  V30 5786 C 532.583 0.845273 -1.39137 0
M  V30 5787 O 533.772 0.713033 -1.6364 0
M  V30 5788 C 530.872 1.26311 -3.14482 0
M  V30 5789 C 530.045 0.679258 -4.32094 0
M  V30 5790 C 529.104 1.65987 -4.99334 0
M  V30 5791 O 528.13 1.19171 -5.56585 0
M  V30 5792 N 529.332 2.99414 -4.97324 0
M  V30 5793 H 532.097 -0.536771 -2.94854 0
M  V30 5794 H 529.658 -0.431954 -1.56031 0
M  V30 5795 H 531.65 1.91863 -3.5633 0
M  V30 5796 H 530.22 1.87416 -2.50188 0
M  V30 5797 H 529.44 -0.153992 -3.93899 0
M  V30 5798 H 530.728 0.26916 -5.08088 0
M  V30 5799 H 530.126 3.40064 -4.52076 0
M  V30 5800 H 528.683 3.60426 -5.4308 0
M  V30 5801 N 532.116 1.54067 -0.331816 0
M  V30 5802 C 533.393 1.92915 0.322955 0
M  V30 5803 C 533.773 1.26225 1.69205 0
M  V30 5804 O 533.121 0.408919 2.24811 0
M  V30 5805 C 533.331 3.46619 0.406946 0
M  V30 5806 C 534.679 4.19386 0.663339 0
M  V30 5807 O 535.703 3.5282 0.489536 0
M  V30 5808 O 534.562 5.37288 0.999193 0
M  V30 5809 H 531.656 0.805808 0.186016 0
M  V30 5810 H 534.202 1.65342 -0.382135 0
M  V30 5811 H 532.974 3.87354 -0.554287 0
M  V30 5812 H 532.597 3.80324 1.15929 0
M  V30 5813 N 533.594 0.0601682 1.57485 0
M  V30 5814 C 534.824 -0.620037 1.97076 0
M  V30 5815 C 535.232 -1.64381 0.936784 0
M  V30 5816 O 534.575 -1.83497 -0.0863377 0
M  V30 5817 C 534.637 -1.35617 3.32939 0
M  V30 5818 C 534.301 -0.487208 4.54396 0
M  V30 5819 C 535.298 0.250428 5.19297 0
M  V30 5820 C 532.983 -0.415494 5.00579 0
M  V30 5821 C 534.977 1.04812 6.28723 0
M  V30 5822 C 532.664 0.385879 6.0988 0
M  V30 5823 C 533.662 1.11637 6.73815 0
M  V30 5824 O 533.35 1.90454 7.81014 0
M  V30 5825 H 533.082 -0.173664 0.653312 0
M  V30 5826 H 535.636 0.1256 2.05016 0
M  V30 5827 H 533.866 -2.14763 3.2158 0
M  V30 5828 H 535.555 -1.92749 3.57215 0
M  V30 5829 H 536.321 0.204546 4.84568 0
M  V30 5830 H 532.2 -0.973679 4.506 0
M  V30 5831 H 535.744 1.6188 6.78558 0
M  V30 5832 H 531.641 0.433366 6.44044 0
M  V30 5833 H 532.409 1.82762 7.97835 0
M  V30 5834 N 535.072 -1.5615 -0.213296 0
M  V30 5835 C 536.318 -1.80718 -0.933402 0
M  V30 5836 C 536.673 -0.634441 -1.81639 0
M  V30 5837 O 535.966 0.371182 -1.8797 0
M  V30 5838 C 536.16 -3.08772 -1.79985 0
M  V30 5839 C 535.989 -4.38389 -1.00224 0
M  V30 5840 C 534.759 -5.00513 -0.693885 0
M  V30 5841 C 536.957 -5.13013 -0.363598 0
M  V30 5842 N 534.939 -6.13774 0.124266 0
M  V30 5843 C 536.31 -6.19186 0.31757 0
M  V30 5844 C 538.365 -4.97126 -0.277468 0
M  V30 5845 C 537.068 -7.11197 1.07664 0
M  V30 5846 C 539.094 -5.89544 0.468155 0
M  V30 5847 C 538.456 -6.95149 1.13784 0
M  V30 5848 H 534.555 -0.712833 -0.321549 0
M  V30 5849 H 537.139 -1.93633 -0.203588 0
M  V30 5850 H 535.31 -2.97126 -2.50142 0
M  V30 5851 H 537.042 -3.21499 -2.45806 0
M  V30 5852 H 533.797 -4.62619 -1.01391 0
M  V30 5853 H 534.221 -6.74981 0.522418 0
M  V30 5854 H 538.863 -4.15526 -0.78087 0
M  V30 5855 H 536.581 -7.92273 1.59153 0
M  V30 5856 H 540.167 -5.79327 0.535911 0
M  V30 5857 H 539.047 -7.65428 1.70557 0
M  V30 5858 N 536.55 0.480323 -1.50102 0
M  V30 5859 C 537.46 1.60547 -1.71061 0
M  V30 5860 C 538.476 1.63564 -0.593529 0
M  V30 5861 O 539.652 1.81604 -0.870751 0
M  V30 5862 C 536.717 2.96814 -1.79171 0
M  V30 5863 C 535.778 3.04259 -3.02861 0
M  V30 5864 C 535.011 4.34027 -3.10574 0
M  V30 5865 O 535.234 5.24009 -2.25323 0
M  V30 5866 O 534.168 4.46873 -4.03223 0
M  V30 5867 H 537.994 1.45788 -2.6642 0
M  V30 5868 H 535.579 0.658838 -1.34088 0
M  V30 5869 H 537.461 3.77765 -1.86738 0
M  V30 5870 H 536.136 3.11791 -0.869947 0
M  V30 5871 H 535.043 2.22419 -3.008 0
M  V30 5872 H 536.376 2.94216 -3.94586 0
M  V30 5873 N 538.028 1.39524 0.732853 0
M  V30 5874 C 538.976 1.38563 1.86824 0
M  V30 5875 C 539.97 0.268467 1.67259 0
M  V30 5876 O 541.176 0.438613 1.74574 0
M  V30 5877 H 537.551 0.432737 0.615014 0
M  V30 5878 H 539.522 2.34328 1.84751 0
M  V30 5879 C 538.271 1.2481 3.24527 0
M  V30 5880 H 537.594 2.10044 3.40179 0
M  V30 5881 H 539.034 1.28194 4.04156 0
M  V30 5882 C 537.493 -0.0432825 3.36872 0
M  V30 5883 O 538.023 -1.01268 3.88726 0
M  V30 5884 N 536.229 -0.107055 2.90403 0
M  V30 5885 H 535.776 0.682512 2.48394 0
M  V30 5886 H 535.734 -0.970618 2.99042 0
M  V30 5887 N 539.506 -0.963266 1.24736 0
M  V30 5888 C 540.436 -2.07628 1.06832 0
M  V30 5889 C 541.417 -1.70088 -0.0200566 0
M  V30 5890 O 542.602 -1.93636 0.147854 0
M  V30 5891 C 539.732 -3.40636 0.677069 0
M  V30 5892 C 538.686 -3.9215 1.71471 0
M  V30 5893 C 538.012 -5.21553 1.1784 0
M  V30 5894 C 539.312 -4.19493 3.11164 0
M  V30 5895 H 541.006 -2.22864 1.9993 0
M  V30 5896 H 538.552 -1.07093 0.96266 0
M  V30 5897 H 540.505 -4.17941 0.538792 0
M  V30 5898 H 539.229 -3.25313 -0.289612 0
M  V30 5899 H 537.888 -3.17005 1.84128 0
M  V30 5900 H 537.536 -5.02593 0.202195 0
M  V30 5901 H 537.236 -5.56988 1.87185 0
M  V30 5902 H 538.76 -6.01463 1.05233 0
M  V30 5903 H 540.174 -4.87487 3.01711 0
M  V30 5904 H 538.571 -4.66165 3.77902 0
M  V30 5905 H 539.641 -3.26097 3.58871 0
M  V30 5906 N 540.985 -1.06182 -1.16461 0
M  V30 5907 C 542.215 -0.797425 -1.9059 0
M  V30 5908 C 542.623 0.651845 -1.77616 0
M  V30 5909 O 541.966 1.45788 -1.11766 0
M  V30 5910 C 542.028 -1.11128 -3.41893 0
M  V30 5911 C 541.692 -2.55874 -3.78652 0
M  V30 5912 C 542.689 -3.54104 -3.80665 0
M  V30 5913 C 540.374 -2.91144 -4.09317 0
M  V30 5914 C 542.368 -4.85645 -4.12829 0
M  V30 5915 C 540.055 -4.22885 -4.41148 0
M  V30 5916 C 541.053 -5.19945 -4.42883 0
M  V30 5917 O 540.741 -6.49322 -4.73959 0
M  V30 5918 H 540.473 -0.288709 -0.611247 0
M  V30 5919 H 543.027 -1.41841 -1.4856 0
M  V30 5920 H 541.257 -0.433217 -3.84266 0
M  V30 5921 H 542.946 -0.831306 -3.97296 0
M  V30 5922 H 543.712 -3.28197 -3.57088 0
M  V30 5923 H 539.591 -2.16252 -4.07131 0
M  V30 5924 H 543.135 -5.61398 -4.14099 0
M  V30 5925 H 539.032 -4.48551 -4.6419 0
M  V30 5926 H 539.8 -6.54294 -4.91774 0
M  V30 5927 N 542.463 1.3308 -0.844243 0
M  V30 5928 C 543.395 2.27954 -0.238671 0
M  V30 5929 C 544.408 1.51978 0.583665 0
M  V30 5930 O 545.597 1.73731 0.409857 0
M  V30 5931 C 542.697 3.31963 0.682185 0
M  V30 5932 C 541.87 4.37281 -0.101998 0
M  V30 5933 C 540.929 5.20928 0.743022 0
M  V30 5934 O 539.955 5.68914 0.180285 0
M  V30 5935 N 541.157 5.42738 2.0595 0
M  V30 5936 H 543.922 2.8056 -1.05386 0
M  V30 5937 H 541.483 1.4583 -0.70322 0
M  V30 5938 H 543.475 3.84828 1.25259 0
M  V30 5939 H 542.045 2.79594 1.39808 0
M  V30 5940 H 541.265 3.84843 -0.853802 0
M  V30 5941 H 542.553 5.04746 -0.641015 0
M  V30 5942 H 541.951 5.05463 2.54016 0
M  V30 5943 H 540.508 5.98639 2.57827 0
M  V30 5944 N 543.941 0.601185 1.45683 0
M  V30 5945 C 544.873 -0.159446 2.28645 0
M  V30 5946 C 545.886 -0.837882 1.39583 0
M  V30 5947 O 547.075 -0.704344 1.64016 0
M  V30 5948 C 544.175 -1.24641 3.15147 0
M  V30 5949 C 543.348 -0.656334 4.32448 0
M  V30 5950 C 542.407 -1.63337 5.00208 0
M  V30 5951 O 541.433 -1.16217 5.57209 0
M  V30 5952 N 542.635 -2.96773 4.98905 0
M  V30 5953 H 545.4 0.5524 2.94565 0
M  V30 5954 H 542.961 0.440223 1.558 0
M  V30 5955 H 544.953 -1.8997 3.57342 0
M  V30 5956 H 543.523 -1.86087 2.51178 0
M  V30 5957 H 542.743 0.174879 3.93812 0
M  V30 5958 H 544.031 -0.242211 5.08223 0
M  V30 5959 H 543.429 -3.37662 4.53873 0
M  V30 5960 H 541.986 -3.57541 5.44984 0
M  V30 5961 N 545.419 -1.53889 0.339982 0
M  V30 5962 C 546.647 -2.05271 -0.259114 0
M  V30 5963 C 547.062 -1.21517 -1.44496 0
M  V30 5964 O 546.419 -0.24966 -1.80784 0
M  V30 5965 C 546.47 -3.55092 -0.677634 0
M  V30 5966 O 546.191 -4.35667 0.461051 0
M  V30 5967 C 547.692 -4.22631 -1.33782 0
M  V30 5968 H 544.912 -0.669085 -0.0506566 0
M  V30 5969 H 547.456 -1.9852 0.490935 0
M  V30 5970 H 545.611 -3.62077 -1.37763 0
M  V30 5971 H 546.025 -5.24343 0.128144 0
M  V30 5972 H 547.499 -5.28861 -1.58145 0
M  V30 5973 H 547.976 -3.74758 -2.29027 0
M  V30 5974 H 548.582 -4.19829 -0.679957 0
M  V30 5975 N 546.897 -0.0685191 -1.57451 0
M  V30 5976 C 547.827 0.89747 -2.15564 0
M  V30 5977 C 548.808 1.31266 -1.08181 0
M  V30 5978 O 549.993 1.38429 -1.36202 0
M  V30 5979 C 547.123 2.16623 -2.71463 0
M  V30 5980 C 546.077 1.89054 -3.83982 0
M  V30 5981 C 545.403 3.22532 -4.26471 0
M  V30 5982 C 546.703 1.1984 -5.08366 0
M  V30 5983 H 548.397 0.413373 -2.96533 0
M  V30 5984 H 545.943 0.197391 -1.42641 0
M  V30 5985 H 547.896 2.84614 -3.10761 0
M  V30 5986 H 546.62 2.67269 -1.8771 0
M  V30 5987 H 545.279 1.23469 -3.45183 0
M  V30 5988 H 544.927 3.71013 -3.39644 0
M  V30 5989 H 544.627 3.04879 -5.02317 0
M  V30 5990 H 546.151 3.91727 -4.68383 0
M  V30 5991 H 547.565 1.77896 -5.45001 0
M  V30 5992 H 545.962 1.12456 -5.89469 0
M  V30 5993 H 547.032 0.176996 -4.84577 0
M  V30 5994 N 548.375 1.56261 0.205012 0
M  V30 5995 C 549.791 1.49623 0.555433 0
M  V30 5996 C 549.991 0.766719 1.86343 0
M  V30 5997 O 549.047 0.313158 2.50551 0
M  V30 5998 C 550.36 2.94253 0.619347 0
M  V30 5999 C 551.908 3.04868 0.708855 0
M  V30 6000 C 552.383 4.50888 0.803969 0
M  V30 6001 N 553.874 4.54999 0.867758 0
M  V30 6002 C 554.609 5.65284 0.96135 0
M  V30 6003 N 554.105 6.85282 1.01786 0
M  V30 6004 N 555.898 5.53174 0.997771 0
M  V30 6005 H 548.049 2.0211 -0.653094 0
M  V30 6006 H 550.312 0.919333 -0.231366 0
M  V30 6007 H 550.018 3.50643 -0.272458 0
M  V30 6008 H 549.892 3.47063 1.47741 0
M  V30 6009 H 552.279 2.48532 1.5911 0
M  V30 6010 H 552.36 2.55199 -0.175205 0
M  V30 6011 H 552.004 5.07846 -0.0738798 0
M  V30 6012 H 551.934 4.98279 1.70369 0
M  V30 6013 H 554.425 3.68588 0.833735 0
M  V30 6014 H 554.738 7.65081 1.08951 0
M  V30 6015 H 553.083 6.8796 0.986706 0
M  V30 6016 H 556.274 4.5835 0.950392 0
M  V30 6017 H 556.447 6.39151 1.06725 0
M  V30 6018 N 549.853 -0.472356 1.50355 0
M  V30 6019 C 550.816 -1.5529 1.68576 0
M  V30 6020 C 551.816 -1.50863 0.556511 0
M  V30 6021 O 553.006 -1.53505 0.823516 0
M  V30 6022 C 550.138 -2.94921 1.70981 0
M  V30 6023 H 551.331 -1.40451 2.64978 0
M  V30 6024 H 548.884 -0.698645 1.39816 0
M  V30 6025 H 549.619 -3.15204 0.762675 0
M  V30 6026 H 549.404 -2.99541 2.53017 0
M  V30 6027 H 550.894 -3.73372 1.87037 0
M  V30 6028 N 551.331 -1.39911 -0.725443 0
M  V30 6029 C 552.294 -1.39156 -1.82121 0
M  V30 6030 C 553.294 -0.287018 -1.58218 0
M  V30 6031 O 554.484 -0.545421 -1.65441 0
M  V30 6032 C 551.616 -1.1736 -3.20062 0
M  V30 6033 H 552.809 -2.36672 -1.84191 0
M  V30 6034 H 550.362 -1.25615 -0.930079 0
M  V30 6035 H 551.097 -0.205648 -3.23647 0
M  V30 6036 H 550.882 -1.97358 -3.3881 0
M  V30 6037 H 552.372 -1.19596 -4.00108 0
M  V30 6038 N 552.809 0.956637 -1.25245 0
M  V30 6039 C 554.057 1.69764 -1.09657 0
M  V30 6040 C 554.378 1.91583 0.363464 0
M  V30 6041 O 553.648 1.50149 1.25825 0
M  V30 6042 H 552.228 0.629097 -0.402798 0
M  V30 6043 H 554.89 1.15026 -1.57337 0
M  V30 6044 H 553.986 2.67769 -1.60331 0
M  V30 6045 N 554.287 1.06798 1.15896 0
M  V30 6046 C 555.234 0.683314 2.20453 0
M  V30 6047 C 556.204 -0.32255 1.62938 0
M  V30 6048 O 557.389 -0.210276 1.89638 0
M  V30 6049 C 554.529 0.0813266 3.45004 0
M  V30 6050 C 553.642 1.13799 4.16742 0
M  V30 6051 C 552.777 0.501598 5.28826 0
M  V30 6052 C 551.816 1.54144 5.92373 0
M  V30 6053 N 550.953 0.928038 6.9594 0
M  V30 6054 H 555.793 1.57932 2.52708 0
M  V30 6055 H 553.33 0.789544 1.24115 0
M  V30 6056 H 555.288 -0.285274 4.16224 0
M  V30 6057 H 553.918 -0.77806 3.13283 0
M  V30 6058 H 552.97 1.62223 3.44075 0
M  V30 6059 H 554.282 1.92664 4.60089 0
M  V30 6060 H 553.436 0.0823162 6.06644 0
M  V30 6061 H 552.175 -0.318883 4.86656 0
M  V30 6062 H 551.18 1.97056 5.13273 0
M  V30 6063 H 552.405 2.3641 6.36621 0
M  V30 6064 H 550.351 0.12836 6.55874 0
M  V30 6065 H 550.268 1.65401 7.37685 0
M  V30 6066 H 551.536 0.534071 7.77668 0
M  V30 6067 N 555.766 -1.3263 0.851289 0
M  V30 6068 C 556.994 -2.01563 0.466899 0
M  V30 6069 C 557.409 -1.63996 -0.935447 0
M  V30 6070 O 556.766 -0.85957 -1.6099 0
M  V30 6071 C 556.817 -3.56613 0.592433 0
M  V30 6072 O 556.538 -3.92828 1.93954 0
M  V30 6073 C 558.039 -4.42818 0.206612 0
M  V30 6074 H 555.259 -0.645307 0.183902 0
M  V30 6075 H 557.803 -1.69285 1.1473 0
M  V30 6076 H 555.958 -3.87379 -0.0401936 0
M  V30 6077 H 556.372 -4.87545 1.9339 0
M  V30 6078 H 557.846 -5.50918 0.345462 0
M  V30 6079 H 558.323 -4.30844 -0.85264 0
M  V30 6080 H 558.929 -4.17434 0.814176 0
M  V30 6081 N 557.244 -0.608902 -1.45362 0
M  V30 6082 C 558.474 -0.110852 -2.06302 0
M  V30 6083 C 558.882 1.21062 -1.45398 0
M  V30 6084 O 558.225 1.74861 -0.562976 0
M  V30 6085 C 558.287 0.101793 -3.59356 0
M  V30 6086 C 557.951 -1.13808 -4.42602 0
M  V30 6087 C 558.948 -2.05653 -4.77496 0
M  V30 6088 C 556.633 -1.36727 -4.83333 0
M  V30 6089 C 558.627 -3.18745 -5.51978 0
M  V30 6090 C 556.314 -2.5012 -5.57569 0
M  V30 6091 C 557.312 -3.40957 -5.91809 0
M  V30 6092 O 557 -4.52376 -6.64538 0
M  V30 6093 H 556.732 -0.0666001 -0.672711 0
M  V30 6094 H 559.286 -0.836942 -1.87575 0
M  V30 6095 H 557.516 0.88279 -3.76489 0
M  V30 6096 H 559.205 0.551607 -4.02134 0
M  V30 6097 H 559.971 -1.89172 -4.46586 0
M  V30 6098 H 555.85 -0.669216 -4.56117 0
M  V30 6099 H 559.394 -3.8967 -5.78622 0
M  V30 6100 H 555.291 -2.66553 -5.87894 0
M  V30 6101 H 556.059 -4.51075 -6.82989 0
M  V30 6102 N 558.722 1.53707 -0.348139 0
M  V30 6103 C 559.655 2.21481 0.549667 0
M  V30 6104 C 560.633 1.20046 1.09671 0
M  V30 6105 O 561.817 1.48883 1.15612 0
M  V30 6106 C 558.944 2.89585 1.75664 0
M  V30 6107 C 557.99 4.04948 1.33864 0
M  V30 6108 S 558.823 5.34325 0.354577 0
M  V30 6109 C 559.979 6.05934 1.56828 0
M  V30 6110 H 560.212 2.97289 -0.0259755 0
M  V30 6111 H 557.745 1.53833 -0.132216 0
M  V30 6112 H 559.703 3.29441 2.44906 0
M  V30 6113 H 558.364 2.13535 2.30351 0
M  V30 6114 H 557.557 4.51552 2.23868 0
M  V30 6115 H 557.159 3.66893 0.725651 0
M  V30 6116 H 559.451 6.29606 2.50205 0
M  V30 6117 H 560.394 6.98799 1.14395 0
M  V30 6118 H 560.802 5.36151 1.76642 0
M  V30 6119 N 560.2 0.0768682 1.57412 0
M  V30 6120 C 561.449 -0.590679 1.92857 0
M  V30 6121 C 561.762 -1.70461 0.959293 0
M  V30 6122 O 562.968 -2.43207 1.20675 0
M  V30 6123 C 561.424 -1.10204 3.42612 0
M  V30 6124 C 561.032 -0.0188447 4.47996 0
M  V30 6125 C 562.776 -1.74336 3.87049 0
M  V30 6126 C 560.683 -0.544536 5.88888 0
M  V30 6127 H 559.613 -0.224411 0.71983 0
M  V30 6128 H 562.264 0.149924 1.82887 0
M  V30 6129 H 560.646 -1.89577 3.47673 0
M  V30 6130 H 561.82 0.755936 4.54557 0
M  V30 6131 H 560.135 0.526555 4.13057 0
M  V30 6132 H 562.732 -2.14708 4.89699 0
M  V30 6133 H 563.075 -2.60537 3.24694 0
M  V30 6134 H 563.608 -1.01577 3.84613 0
M  V30 6135 H 560.347 0.280426 6.549 0
M  V30 6136 H 559.867 -1.28673 5.85836 0
M  V30 6137 H 561.546 -1.01933 6.3892 0
M  V30 6138 N 561.678 -1.56367 -0.196722 0
M  V30 6139 C 562.925 -1.80529 -0.917366 0
M  V30 6140 C 563.253 -0.649817 -1.83324 0
M  V30 6141 O 562.508 0.36451 -1.92275 0
M  V30 6142 C 562.807 -3.10663 -1.767 0
M  V30 6143 C 562.473 -4.3962 -1.00225 0
M  V30 6144 C 561.135 -4.74653 -0.791095 0
M  V30 6145 C 563.487 -5.1913 -0.464035 0
M  V30 6146 C 560.815 -5.86692 -0.0302155 0
M  V30 6147 C 563.167 -6.31964 0.283625 0
M  V30 6148 C 561.831 -6.65581 0.505813 0
M  V30 6149 H 561.101 -0.660602 -0.335688 0
M  V30 6150 H 563.748 -1.90615 -0.183844 0
M  V30 6151 H 562.053 -2.95807 -2.56915 0
M  V30 6152 H 563.75 -3.26563 -2.32718 0
M  V30 6153 H 560.34 -4.12127 -1.17684 0
M  V30 6154 H 564.524 -4.9248 -0.614575 0
M  V30 6155 H 559.78 -6.11211 0.151917 0
M  V30 6156 H 563.954 -6.92791 0.708057 0
M  V30 6157 H 561.581 -7.52239 1.0973 0
M  V30 6158 N 563.156 0.464375 -1.50603 0
M  V30 6159 C 564.403 1.21596 -1.61928 0
M  V30 6160 C 564.731 1.91804 -0.322737 0
M  V30 6161 O 563.986 1.83065 0.691776 0
M  V30 6162 C 564.285 2.278 -2.75394 0
M  V30 6163 C 563.951 1.74797 -4.1564 0
M  V30 6164 C 562.613 1.60063 -4.53799 0
M  V30 6165 C 564.965 1.35548 -5.03266 0
M  V30 6166 C 562.293 1.04514 -5.77316 0
M  V30 6167 C 564.645 0.814381 -6.27336 0
M  V30 6168 C 563.309 0.653726 -6.64291 0
M  V30 6169 H 562.579 0.444951 -0.592536 0
M  V30 6170 H 565.226 0.510964 -1.84557 0
M  V30 6171 H 563.531 3.04233 -2.46879 0
M  V30 6172 H 565.228 2.85723 -2.81359 0
M  V30 6173 H 561.818 1.87234 -3.8554 0
M  V30 6174 H 566.002 1.45763 -4.74412 0
M  V30 6175 H 561.258 0.908186 -6.04617 0
M  V30 6176 H 565.432 0.501626 -6.94591 0
M  V30 6177 H 563.059 0.22114 -7.59878 0
M  V30 6178 N 564.634 1.40294 0.718013 0
M  V30 6179 C 565.88 1.38645 1.48005 0
M  V30 6180 C 566.213 -0.0121202 1.94196 0
M  V30 6181 O 565.488 -0.980309 1.67989 0
M  V30 6182 C 565.771 2.37379 2.70782 0
M  V30 6183 C 565.624 3.8625 2.30501 0
M  V30 6184 C 566.943 2.33685 3.72933 0
M  V30 6185 H 564.062 0.504928 0.536858 0
M  V30 6186 H 566.704 1.71411 0.819649 0
M  V30 6187 H 564.854 2.09568 3.27129 0
M  V30 6188 H 566.526 4.24879 1.79655 0
M  V30 6189 H 564.769 4.02202 1.6253 0
M  V30 6190 H 565.44 4.50847 3.18498 0
M  V30 6191 H 567.916 2.58314 3.2621 0
M  V30 6192 H 566.792 3.0482 4.56482 0
M  V30 6193 H 567.053 1.34765 4.21059 0
M  V30 6194 N 566.112 -0.949982 1.2575 0
M  V30 6195 C 567.358 -1.69766 1.10938 0
M  V30 6196 C 567.691 -1.91056 -0.348028 0
M  V30 6197 O 566.966 -1.48488 -1.25625 0
M  V30 6198 C 567.249 -3.07779 1.86933 0
M  V30 6199 C 567.102 -2.9387 3.4053 0
M  V30 6200 C 568.421 -4.07749 1.65616 0
M  V30 6201 H 565.54 -0.616144 0.404396 0
M  V30 6202 H 568.182 -1.10394 1.54639 0
M  V30 6203 H 566.332 -3.58462 1.4979 0
M  V30 6204 H 568.004 -2.50476 3.87375 0
M  V30 6205 H 566.247 -2.29686 3.68004 0
M  V30 6206 H 566.918 -3.91719 3.88922 0
M  V30 6207 H 569.394 -3.65994 1.97959 0
M  V30 6208 H 568.27 -5.02348 2.21218 0
M  V30 6209 H 568.531 -4.38029 0.598595 0
M  V30 6210 N 567.59 -1.07411 -1.15328 0
M  V30 6211 C 568.836 -0.798831 -1.86404 0
M  V30 6212 C 569.169 0.673433 -1.8215 0
M  V30 6213 O 568.444 1.49428 -1.24505 0
M  V30 6214 C 568.727 -1.30846 -3.35487 0
M  V30 6215 C 568.58 -2.84532 -3.4837 0
M  V30 6216 C 569.899 -0.925486 -4.30259 0
M  V30 6217 H 567.018 -0.291659 -0.676834 0
M  V30 6218 H 569.66 -1.332 -1.35491 0
M  V30 6219 H 567.81 -0.854916 -3.78977 0
M  V30 6220 H 569.482 -3.3818 -3.13739 0
M  V30 6221 H 567.725 -3.22699 -2.8991 0
M  V30 6222 H 568.396 -3.15259 -4.53118 0
M  V30 6223 H 570.872 -1.3163 -3.94731 0
M  V30 6224 H 569.748 -1.3094 -5.33053 0
M  V30 6225 H 570.009 0.168525 -4.41779 0
M  V30 6226 N 569.068 1.32177 -0.85831 0
M  V30 6227 C 570.317 1.96392 -0.459689 0
M  V30 6228 C 570.63 1.68659 0.990632 0
M  V30 6229 O 571.836 2.26641 1.49485 0
M  V30 6230 C 570.292 3.51542 -0.7711 0
M  V30 6231 C 569.9 3.8813 -2.2374 0
M  V30 6232 C 571.644 4.2221 -0.44038 0
M  V30 6233 C 569.551 5.36341 -2.49183 0
M  V30 6234 H 568.481 0.735007 -0.168169 0
M  V30 6235 H 571.132 1.50518 -1.0496 0
M  V30 6236 H 569.514 3.95846 -0.11058 0
M  V30 6237 H 570.688 3.54824 -2.94001 0
M  V30 6238 H 569.003 3.30497 -2.533 0
M  V30 6239 H 571.6 5.31234 -0.607855 0
M  V30 6240 H 571.943 4.11683 0.618291 0
M  V30 6241 H 572.476 3.83502 -1.05695 0
M  V30 6242 H 569.215 5.51892 -3.53689 0
M  V30 6243 H 568.735 5.7104 -1.83504 0
M  V30 6244 H 570.414 6.03466 -2.33318 0
M  V30 6245 N 570.547 0.616602 1.45037 0
M  V30 6246 C 571.794 0.115331 2.02171 0
M  V30 6247 C 572.122 -1.25748 1.48383 0
M  V30 6248 O 571.377 -1.84511 0.652229 0
M  V30 6249 C 571.676 0.0356829 3.57382 0
M  V30 6250 C 571.342 1.34535 4.30362 0
M  V30 6251 C 570.004 1.70408 4.50016 0
M  V30 6252 C 572.356 2.21049 4.72003 0
M  V30 6253 C 569.684 2.92529 5.0857 0
M  V30 6254 C 572.036 3.42427 5.31908 0
M  V30 6255 C 570.7 3.78541 5.49784 0
M  V30 6256 H 569.97 0.0422024 0.739797 0
M  V30 6257 H 572.617 0.80002 1.73988 0
M  V30 6258 H 570.922 -0.732314 3.84895 0
M  V30 6259 H 572.619 -0.368463 3.99304 0
M  V30 6260 H 569.209 1.05615 4.15383 0
M  V30 6261 H 573.393 1.94632 4.56544 0
M  V30 6262 H 568.649 3.20605 5.20598 0
M  V30 6263 H 572.823 4.09709 5.63127 0
M  V30 6264 H 570.45 4.73255 5.94923 0
M  V30 6265 N 572.025 -1.5352 0.356285 0
M  V30 6266 C 572.955 -2.28372 -0.486661 0
M  V30 6267 C 573.936 -1.30432 -1.09185 0
M  V30 6268 O 575.121 -1.59291 -1.11085 0
M  V30 6269 C 572.251 -3.06604 -1.63129 0
M  V30 6270 C 571.205 -4.12154 -1.15381 0
M  V30 6271 C 570.531 -4.78415 -2.38796 0
M  V30 6272 C 571.831 -5.21724 -0.245179 0
M  V30 6273 H 573.525 -2.99083 0.137797 0
M  V30 6274 H 571.071 -1.43841 0.0677134 0
M  V30 6275 H 573.024 -3.57712 -2.22755 0
M  V30 6276 H 571.748 -2.33568 -2.28284 0
M  V30 6277 H 570.407 -3.61978 -0.580294 0
M  V30 6278 H 570.055 -4.01959 -3.02387 0
M  V30 6279 H 569.755 -5.49734 -2.07524 0
M  V30 6280 H 571.279 -5.32313 -2.99125 0
M  V30 6281 H 572.693 -5.68391 -0.748646 0
M  V30 6282 H 571.09 -6.00095 -0.0237608 0
M  V30 6283 H 572.16 -4.79596 0.715229 0
M  V30 6284 N 573.503 -0.0852151 -1.57369 0
M  V30 6285 C 574.751 0.579658 -1.93609 0
M  V30 6286 C 575.072 1.69332 -0.967043 0
M  V30 6287 O 574.342 1.95892 -0.0174215 0
M  V30 6288 H 572.922 0.217113 -0.714752 0
M  V30 6289 H 575.584 -0.146226 -1.94351 0
M  V30 6290 H 574.68 0.996276 -2.95771 0
M  V30 6291 N 574.981 1.5647 0.188427 0
M  V30 6292 C 576.206 1.85486 0.927891 0
M  V30 6293 C 576.631 0.669575 1.75779 0
M  V30 6294 O 575.989 -0.381573 1.77239 0
M  V30 6295 C 576.037 3.12784 1.7944 0
M  V30 6296 O 575.141 2.93805 2.894 0
M  V30 6297 H 574.482 0.610585 0.260925 0
M  V30 6298 H 577.012 2.037 0.191729 0
M  V30 6299 H 577.022 3.43749 2.19774 0
M  V30 6300 H 575.697 3.98671 1.18468 0
M  V30 6301 H 574.274 2.74153 2.52774 0
M  V30 6302 N 576.459 -0.456382 1.50847 0
M  V30 6303 C 577.706 -1.20736 1.62571 0
M  V30 6304 C 578.034 -1.9163 0.332904 0
M  V30 6305 O 577.289 -1.8343 -0.682058 0
M  V30 6306 C 577.588 -2.26336 2.76599 0
M  V30 6307 C 577.254 -1.7259 4.16562 0
M  V30 6308 C 575.916 -1.57654 4.54641 0
M  V30 6309 C 578.268 -1.32877 5.03977 0
M  V30 6310 C 575.596 -1.0145 5.77862 0
M  V30 6311 C 577.948 -0.7811 6.27759 0
M  V30 6312 C 576.612 -0.618488 6.64628 0
M  V30 6313 H 575.882 -0.441803 0.594888 0
M  V30 6314 H 578.529 -0.501169 1.84826 0
M  V30 6315 H 576.834 -3.0292 2.48489 0
M  V30 6316 H 578.531 -2.84227 2.82871 0
M  V30 6317 H 575.121 -1.85187 3.86528 0
M  V30 6318 H 579.305 -1.43245 4.75179 0
M  V30 6319 H 574.561 -0.876109 6.0509 0
M  V30 6320 H 578.735 -0.464783 6.94847 0
M  V30 6321 H 576.362 -0.180838 7.59985 0
M  V30 6322 N 577.937 -1.40673 -0.710563 0
M  V30 6323 C 579.167 -1.4234 -1.49742 0
M  V30 6324 C 579.575 -0.022821 -1.89186 0
M  V30 6325 O 578.918 0.964773 -1.56326 0
M  V30 6326 C 578.98 -2.25509 -2.79975 0
M  V30 6327 C 578.644 -3.73862 -2.62824 0
M  V30 6328 C 579.641 -4.66379 -2.29752 0
M  V30 6329 C 577.326 -4.17735 -2.78932 0
M  V30 6330 C 579.32 -6.00756 -2.13006 0
M  V30 6331 C 577.007 -5.5218 -2.61802 0
M  V30 6332 C 578.005 -6.43505 -2.28888 0
M  V30 6333 O 577.693 -7.75472 -2.11894 0
M  V30 6334 H 577.425 -0.487311 -0.468513 0
M  V30 6335 H 579.979 -1.8542 -0.883668 0
M  V30 6336 H 578.209 -1.77218 -3.43701 0
M  V30 6337 H 579.898 -2.19058 -3.41714 0
M  V30 6338 H 580.664 -4.33778 -2.16936 0
M  V30 6339 H 576.543 -3.46967 -3.03537 0
M  V30 6340 H 580.087 -6.72003 -1.87237 0
M  V30 6341 H 575.984 -5.84365 -2.74204 0
M  V30 6342 H 576.752 -7.86458 -2.26775 0
M  V30 6343 N 579.415 0.9433 -1.26252 0
M  V30 6344 C 580.345 2.05902 -1.10122 0
M  V30 6345 C 581.326 1.70099 -0.00700552 0
M  V30 6346 O 582.511 1.93377 -0.178641 0
M  V30 6347 C 579.641 3.39516 -0.731175 0
M  V30 6348 C 578.595 3.89372 -1.77688 0
M  V30 6349 C 577.921 5.19613 -1.26122 0
M  V30 6350 C 579.221 4.14489 -3.17799 0
M  V30 6351 H 580.915 2.19655 -2.03451 0
M  V30 6352 H 578.461 1.05548 -0.979576 0
M  V30 6353 H 580.414 4.17031 -0.605215 0
M  V30 6354 H 579.138 3.25733 0.23782 0
M  V30 6355 H 577.797 3.14036 -1.89148 0
M  V30 6356 H 577.445 5.02208 -0.282128 0
M  V30 6357 H 577.145 5.53939 -1.96023 0
M  V30 6358 H 578.669 5.99713 -1.14789 0
M  V30 6359 H 580.083 4.82625 -3.09428 0
M  V30 6360 H 578.48 4.60094 -3.85271 0
M  V30 6361 H 579.55 3.20347 -3.64014 0
M  V30 6362 N 580.893 1.08022 1.14757 0
M  V30 6363 C 582.142 0.802468 1.8505 0
M  V30 6364 C 582.455 -0.674061 1.83619 0
M  V30 6365 O 583.661 -1.06683 2.49662 0
M  V30 6366 C 582.117 1.38551 3.32162 0
M  V30 6367 C 581.725 2.89354 3.42021 0
M  V30 6368 C 583.469 1.18608 4.07594 0
M  V30 6369 C 581.376 3.40815 4.83321 0
M  V30 6370 H 580.306 0.296518 0.693248 0
M  V30 6371 H 582.957 1.30114 1.29393 0
M  V30 6372 H 581.339 0.814556 3.87532 0
M  V30 6373 H 582.513 3.52552 2.96722 0
M  V30 6374 H 580.828 3.08165 2.80041 0
M  V30 6375 H 583.425 1.54525 5.11885 0
M  V30 6376 H 583.768 0.125599 4.1611 0
M  V30 6377 H 584.301 1.72375 3.58513 0
M  V30 6378 H 581.04 4.46418 4.79991 0
M  V30 6379 H 580.56 2.82374 5.29174 0
M  V30 6380 H 582.239 3.37171 5.522 0
M  V30 6381 N 582.371 -1.3172 0.865308 0
M  V30 6382 C 583.319 -2.30569 0.306674 0
M  V30 6383 C 584.313 -1.59317 -0.575724 0
M  V30 6384 O 585.519 -1.73961 -0.462343 0
M  V30 6385 H 581.894 -0.747681 0.0804834 0
M  V30 6386 H 583.865 -2.75165 1.15441 0
M  V30 6387 C 582.614 -3.44358 -0.480952 0
M  V30 6388 H 581.937 -3.99354 0.18876 0
M  V30 6389 H 583.377 -4.15652 -0.837241 0
M  V30 6390 C 581.836 -2.92574 -1.67039 0
M  V30 6391 O 582.366 -2.90954 -2.76964 0
M  V30 6392 N 580.572 -2.48835 -1.50097 0
M  V30 6393 H 580.119 -2.50353 -0.606738 0
M  V30 6394 H 580.077 -2.14543 -2.29823 0
M  V30 6395 N 583.85 -0.624285 -1.44708 0
M  V30 6396 C 584.779 0.0717025 -2.3339 0
M  V30 6397 C 585.76 0.841814 -1.47809 0
M  V30 6398 O 586.946 0.809056 -1.76544 0
M  V30 6399 C 584.076 1.05852 -3.30776 0
M  V30 6400 C 583.029 0.400503 -4.26122 0
M  V30 6401 C 582.356 1.49674 -5.13324 0
M  V30 6402 C 583.656 -0.688924 -5.17737 0
M  V30 6403 H 585.35 -0.668819 -2.91834 0
M  V30 6404 H 582.896 -0.32308 -1.40329 0
M  V30 6405 H 584.849 1.5541 -3.91696 0
M  V30 6406 H 583.572 1.82984 -2.70526 0
M  V30 6407 H 582.231 -0.0743687 -3.66525 0
M  V30 6408 H 581.88 2.25877 -4.49431 0
M  V30 6409 H 581.58 1.06188 -5.77926 0
M  V30 6410 H 583.104 1.99427 -5.77115 0
M  V30 6411 H 584.518 -0.276724 -5.72632 0
M  V30 6412 H 582.915 -1.04652 -5.90904 0
M  V30 6413 H 583.985 -1.55884 -4.5916 0
M  V30 6414 N 585.328 1.53329 -0.364422 0
M  V30 6415 C 586.577 2.00421 0.226747 0
M  V30 6416 C 586.89 1.25581 1.49963 0
M  V30 6417 O 588.096 1.63256 2.16933 0
M  V30 6418 C 586.552 3.57017 0.454618 0
M  V30 6419 C 586.16 4.40734 -0.803568 0
M  V30 6420 C 587.904 4.12468 1.00351 0
M  V30 6421 C 585.811 5.8888 -0.545345 0
M  V30 6422 H 584.741 0.748787 0.0885082 0
M  V30 6423 H 587.392 1.7703 -0.482983 0
M  V30 6424 H 585.774 3.76558 1.22558 0
M  V30 6425 H 586.948 4.32967 -1.57723 0
M  V30 6426 H 585.263 3.96381 -1.27559 0
M  V30 6427 H 587.86 5.20783 1.212 0
M  V30 6428 H 588.203 3.6699 1.9653 0
M  V30 6429 H 588.736 3.96721 0.29274 0
M  V30 6430 H 585.475 6.38633 -1.47743 0
M  V30 6431 H 584.995 5.99499 0.189842 0
M  V30 6432 H 586.674 6.46776 -0.170425 0
M  V30 6433 N 586.806 0.0935595 1.57322 0
M  V30 6434 C 587.736 -0.863062 2.16964 0
M  V30 6435 C 588.717 -1.29528 1.10256 0
M  V30 6436 O 589.902 -1.36245 1.38387 0
M  V30 6437 C 587.032 -2.12276 2.74875 0
M  V30 6438 C 585.986 -1.82921 3.86942 0
M  V30 6439 C 585.312 -3.15707 4.31548 0
M  V30 6440 C 586.612 -1.11737 5.10208 0
M  V30 6441 H 588.306 -0.366145 2.97153 0
M  V30 6442 H 585.852 -0.174673 1.42937 0
M  V30 6443 H 587.805 -2.79634 3.1525 0
M  V30 6444 H 586.529 -2.64248 1.91938 0
M  V30 6445 H 585.188 -1.17961 3.47103 0
M  V30 6446 H 584.836 -3.65563 3.45504 0
M  V30 6447 H 584.536 -2.96849 5.07104 0
M  V30 6448 H 586.06 -3.84226 4.74555 0
M  V30 6449 H 587.474 -1.69203 5.47762 0
M  V30 6450 H 585.871 -1.03064 5.91183 0
M  V30 6451 H 586.941 -0.0998818 4.84797 0
M  V30 6452 N 588.284 -1.56567 -0.180126 0
M  V30 6453 C 589.247 -1.94852 -1.20686 0
M  V30 6454 C 590.247 -0.831212 -1.3765 0
M  V30 6455 O 591.437 -1.09841 -1.35206 0
M  V30 6456 C 588.569 -2.23565 -2.57355 0
M  V30 6457 H 589.762 -2.86722 -0.879225 0
M  V30 6458 H 587.315 -1.50489 -0.422237 0
M  V30 6459 H 588.05 -1.34381 -2.95148 0
M  V30 6460 H 587.835 -3.04999 -2.46411 0
M  V30 6461 H 589.325 -2.54137 -3.31367 0
M  V30 6462 N 589.762 0.448376 -1.51087 0
M  V30 6463 C 591.008 1.20049 -1.6345 0
M  V30 6464 C 591.341 1.91121 -0.344444 0
M  V30 6465 O 590.616 1.83125 0.655396 0
M  V30 6466 C 590.899 2.22624 -2.83038 0
M  V30 6467 C 590.752 1.55708 -4.21989 0
M  V30 6468 C 592.071 3.23718 -2.98152 0
M  V30 6469 H 589.19 0.435085 -0.59487 0
M  V30 6470 H 591.832 0.491183 -1.83541 0
M  V30 6471 H 589.982 2.83117 -2.66039 0
M  V30 6472 H 591.654 0.986367 -4.50631 0
M  V30 6473 H 589.897 0.859647 -4.25197 0
M  V30 6474 H 590.568 2.30357 -5.01637 0
M  V30 6475 H 593.044 2.73269 -3.13788 0
M  V30 6476 H 591.92 3.92795 -3.83411 0
M  V30 6477 H 592.181 3.89179 -2.09743 0
M  V30 6478 N 591.24 1.41047 0.703093 0
M  V30 6479 C 592.486 1.40207 1.46526 0
M  V30 6480 C 592.819 0.00847763 1.94198 0
M  V30 6481 O 592.094 -0.962437 1.69019 0
M  V30 6482 C 592.377 2.40238 2.6825 0
M  V30 6483 C 592.23 3.88674 2.26391 0
M  V30 6484 C 593.549 2.37627 3.70434 0
M  V30 6485 H 590.668 0.510594 0.531472 0
M  V30 6486 H 593.31 1.72271 0.801422 0
M  V30 6487 H 591.46 2.13026 3.24888 0
M  V30 6488 H 593.132 4.2676 1.75138 0
M  V30 6489 H 591.375 4.03903 1.58255 0
M  V30 6490 H 592.046 4.542 3.13698 0
M  V30 6491 H 594.522 2.61759 3.23452 0
M  V30 6492 H 593.398 3.09645 4.53223 0
M  V30 6493 H 593.659 1.39223 4.19606 0
M  V30 6494 N 592.718 -0.936591 1.26751 0
M  V30 6495 C 593.681 -2.01752 1.08761 0
M  V30 6496 C 594.681 -1.60763 0.0344435 0
M  V30 6497 O 595.871 -1.71963 0.278258 0
M  V30 6498 C 593.003 -3.34543 0.655271 0
M  V30 6499 H 594.196 -2.19143 2.04735 0
M  V30 6500 H 591.749 -1.11618 1.09413 0
M  V30 6501 H 592.484 -3.22851 -0.30626 0
M  V30 6502 H 592.269 -3.65647 1.41578 0
M  V30 6503 H 593.759 -4.13944 0.551378 0
M  V30 6504 N 594.196 -1.08629 -1.14182 0
M  V30 6505 C 595.129 -0.662329 -2.18377 0
M  V30 6506 C 596.107 0.327054 -1.59277 0
M  V30 6507 O 597.291 0.230376 -1.87087 0
M  V30 6508 C 594.418 0.0254765 -3.3869 0
M  V30 6509 C 593.464 -0.924414 -4.16361 0
M  V30 6510 S 594.297 -2.43226 -4.77076 0
M  V30 6511 C 595.453 -1.75663 -6.00744 0
M  V30 6512 H 595.686 -1.54501 -2.54001 0
M  V30 6513 H 593.219 -0.901484 -1.2535 0
M  V30 6514 H 595.177 0.416032 -4.08386 0
M  V30 6515 H 593.838 0.884689 -3.01384 0
M  V30 6516 H 593.031 -0.390099 -5.02488 0
M  V30 6517 H 592.633 -1.25598 -3.5228 0
M  V30 6518 H 594.925 -1.07589 -6.68903 0
M  V30 6519 H 595.868 -2.59673 -6.58768 0
M  V30 6520 H 596.276 -1.22903 -5.50958 0
M  V30 6521 N 595.674 1.31259 -0.872281 0
M  V30 6522 C 596.637 2.26744 -0.334656 0
M  V30 6523 C 597.637 1.52307 0.515681 0
M  V30 6524 O 598.827 1.71148 0.324656 0
M  V30 6525 C 595.959 3.36841 0.524482 0
M  V30 6526 H 597.152 2.75812 -1.17762 0
M  V30 6527 H 594.705 1.42232 -0.648064 0
M  V30 6528 H 595.44 2.93069 1.38855 0
M  V30 6529 H 595.225 3.92009 -0.0844299 0
M  V30 6530 H 596.715 4.07944 0.892838 0
M  V30 6531 N 597.152 0.631951 1.44375 0
M  V30 6532 C 598.382 0.143658 2.061 0
M  V30 6533 C 598.79 -1.18733 1.47306 0
M  V30 6534 O 598.133 -1.73943 0.590724 0
M  V30 6535 C 598.195 -0.0446102 3.59472 0
M  V30 6536 C 597.859 1.20835 4.40736 0
M  V30 6537 C 598.856 2.13224 4.74164 0
M  V30 6538 C 596.541 1.44399 4.81097 0
M  V30 6539 C 598.535 3.27487 5.46838 0
M  V30 6540 C 596.222 2.58959 5.53519 0
M  V30 6541 C 597.22 3.50329 5.86309 0
M  V30 6542 O 596.908 4.62891 6.57257 0
M  V30 6543 H 596.64 0.0772939 0.671567 0
M  V30 6544 H 599.194 0.866677 1.8622 0
M  V30 6545 H 597.424 -0.822783 3.77845 0
M  V30 6546 H 599.113 -0.487561 4.02961 0
M  V30 6547 H 599.879 1.96253 4.4352 0
M  V30 6548 H 595.758 0.741696 4.54994 0
M  V30 6549 H 599.302 3.98826 5.72349 0
M  V30 6550 H 595.199 2.75873 5.83579 0
M  V30 6551 H 595.967 4.61883 6.75726 0
M  V30 6552 N 598.631 -1.53133 0.372548 0
M  V30 6553 C 599.541 -2.29671 -0.478379 0
M  V30 6554 C 600.557 -1.35913 -1.08644 0
M  V30 6555 O 601.733 -1.68975 -1.09588 0
M  V30 6556 C 598.798 -3.07625 -1.599 0
M  V30 6557 C 597.859 -4.17061 -1.01776 0
M  V30 6558 C 597.092 -4.91289 -2.08497 0
M  V30 6559 O 597.315 -4.65442 -3.29727 0
M  V30 6560 O 596.249 -5.7705 -1.71164 0
M  V30 6561 H 600.075 -3.03355 0.144649 0
M  V30 6562 H 597.66 -1.48773 0.136729 0
M  V30 6563 H 599.542 -3.56281 -2.25038 0
M  V30 6564 H 598.217 -2.3677 -2.2073 0
M  V30 6565 H 597.124 -3.72641 -0.330098 0
M  V30 6566 H 598.457 -4.90102 -0.453915 0
M  V30 6567 N 600.109 -0.101901 -1.5727 0
M  V30 6568 C 601.019 0.868647 -2.17926 0
M  V30 6569 C 602.035 1.30527 -1.1506 0
M  V30 6570 O 603.211 1.37178 -1.47459 0
M  V30 6571 C 600.276 2.10727 -2.75309 0
M  V30 6572 C 599.337 1.7242 -3.93154 0
M  V30 6573 C 598.57 2.90377 -4.47791 0
M  V30 6574 O 598.793 4.05305 -4.01353 0
M  V30 6575 O 597.727 2.6845 -5.38719 0
M  V30 6576 H 601.553 0.382544 -3.01281 0
M  V30 6577 H 599.138 0.122812 -1.48894 0
M  V30 6578 H 601.02 2.83303 -3.11958 0
M  V30 6579 H 599.695 2.58376 -1.94996 0
M  V30 6580 H 598.602 0.970039 -3.61305 0
M  V30 6581 H 599.935 1.29528 -4.74851 0
M  V30 6582 N 601.587 1.56661 0.17182 0
M  V30 6583 C 602.519 1.92934 1.2373 0
M  V30 6584 C 603.532 0.822385 1.40502 0
M  V30 6585 O 604.721 1.10083 1.40514 0
M  V30 6586 C 601.821 2.16651 2.60607 0
M  V30 6587 C 600.994 3.47878 2.6514 0
M  V30 6588 C 600.053 3.60429 3.83377 0
M  V30 6589 O 599.079 4.33051 3.69398 0
M  V30 6590 N 600.281 2.95241 4.99813 0
M  V30 6591 H 603.046 2.84931 0.929205 0
M  V30 6592 H 600.607 1.5781 0.361588 0
M  V30 6593 H 602.599 2.22312 3.38171 0
M  V30 6594 H 601.169 1.3104 2.83809 0
M  V30 6595 H 600.389 3.53879 1.73675 0
M  V30 6596 H 601.677 4.34232 2.6518 0
M  V30 6597 H 601.075 2.3611 5.14071 0
M  V30 6598 H 599.632 3.06499 5.75241 0
M  V30 6599 N 603.065 -0.440357 1.51323 0
M  V30 6600 C 604.013 -1.55492 1.72988 0
M  V30 6601 C 605.007 -1.58564 0.596138 0
M  V30 6602 O 606.213 -1.62345 0.777443 0
M  V30 6603 H 602.588 -0.516532 0.546533 0
M  V30 6604 H 604.559 -1.34392 2.66423 0
M  V30 6605 C 603.308 -2.93176 1.86931 0
M  V30 6606 H 602.631 -2.91543 2.73574 0
M  V30 6607 H 604.071 -3.70537 2.06103 0
M  V30 6608 C 602.53 -3.30988 0.628365 0
M  V30 6609 O 603.06 -4.01106 -0.218367 0
M  V30 6610 N 601.266 -2.86719 0.473339 0
M  V30 6611 H 600.813 -2.2983 1.16345 0
M  V30 6612 H 600.771 -3.12381 -0.355727 0
M  V30 6613 N 604.543 -1.41418 -0.695603 0
M  V30 6614 C 605.475 -1.39195 -1.82092 0
M  V30 6615 C 606.488 -0.294132 -1.60121 0
M  V30 6616 O 607.677 -0.555854 -1.69625 0
M  V30 6617 C 604.777 -1.14828 -3.18854 0
M  V30 6618 C 603.95 -2.36649 -3.67853 0
M  V30 6619 C 603.009 -2.08139 -4.83285 0
M  V30 6620 O 602.035 -2.81177 -4.94902 0
M  V30 6621 N 603.237 -1.07162 -5.70523 0
M  V30 6622 H 606.002 -2.36185 -1.84491 0
M  V30 6623 H 603.563 -1.3603 -0.877923 0
M  V30 6624 H 605.555 -0.937075 -3.93702 0
M  V30 6625 H 604.125 -0.264358 -3.1148 0
M  V30 6626 H 603.345 -2.73472 -2.83913 0
M  V30 6627 H 604.633 -3.17816 -3.97329 0
M  V30 6628 H 604.031 -0.467124 -5.63768 0
M  V30 6629 H 602.588 -0.920311 -6.4527 0
M  V30 6630 N 606.021 0.929856 -1.27246 0
M  V30 6631 C 606.984 2.01172 -1.09829 0
M  V30 6632 C 607.984 1.60743 -0.0429687 0
M  V30 6633 O 609.174 1.71813 -0.287373 0
M  V30 6634 C 606.306 3.34191 -0.673003 0
M  V30 6635 H 607.499 2.18054 -2.05895 0
M  V30 6636 H 605.052 1.11036 -1.10003 0
M  V30 6637 H 605.787 3.23009 0.289134 0
M  V30 6638 H 605.572 3.64892 -1.43515 0
M  V30 6639 H 607.062 4.13646 -0.573323 0
M  V30 6640 N 607.499 1.09233 1.13605 0
M  V30 6641 C 608.447 0.724572 2.21027 0
M  V30 6642 C 609.441 -0.273595 1.67176 0
M  V30 6643 O 610.647 -0.135266 1.79491 0
M  V30 6644 H 607.022 0.216319 0.720215 0
M  V30 6645 H 608.993 1.63975 2.49309 0
M  V30 6646 C 607.742 0.159126 3.47336 0
M  V30 6647 H 607.065 0.918387 3.89109 0
M  V30 6648 H 608.505 -0.0602851 4.23957 0
M  V30 6649 C 606.964 -1.10514 3.18258 0
M  V30 6650 O 607.494 -2.18869 3.36837 0
M  V30 6651 N 605.7 -1.01886 2.72154 0
M  V30 6652 H 605.247 -0.137027 2.57235 0
M  V30 6653 H 605.205 -1.8655 2.53074 0
M  V30 6654 N 608.977 -1.30795 0.87923 0
M  V30 6655 C 610.226 -1.95636 0.490875 0
M  V30 6656 C 610.539 -1.70214 -0.963674 0
M  V30 6657 O 611.745 -2.28991 -1.45861 0
M  V30 6658 C 610.201 -3.50271 0.826929 0
M  V30 6659 C 609.809 -3.84521 2.29886 0
M  V30 6660 C 611.553 -4.21456 0.507494 0
M  V30 6661 C 609.46 -5.32309 2.57685 0
M  V30 6662 H 608.39 -0.732238 0.179841 0
M  V30 6663 H 611.041 -1.48829 1.07341 0
M  V30 6664 H 609.423 -3.9562 0.173542 0
M  V30 6665 H 610.597 -3.50102 2.99609 0
M  V30 6666 H 608.912 -3.26425 2.58526 0
M  V30 6667 H 611.509 -5.30199 0.692293 0
M  V30 6668 H 611.852 -4.12614 -0.552718 0
M  V30 6669 H 612.385 -3.81772 1.11782 0
M  V30 6670 H 609.124 -5.46195 3.62424 0
M  V30 6671 H 608.644 -5.68048 1.92566 0
M  V30 6672 H 610.323 -5.99678 2.42889 0
M  V30 6673 N 610.455 -0.639598 -1.44038 0
M  V30 6674 C 611.365 0.0612377 -2.3452 0
M  V30 6675 C 612.381 0.826717 -1.53106 0
M  V30 6676 O 613.557 0.777059 -1.85806 0
M  V30 6677 C 610.622 1.02492 -3.31204 0
M  V30 6678 C 609.683 0.25788 -4.28525 0
M  V30 6679 C 608.916 1.17566 -5.2059 0
M  V30 6680 O 609.139 2.41461 -5.16771 0
M  V30 6681 O 608.073 0.655407 -5.98321 0
M  V30 6682 H 611.899 -0.68318 -2.95916 0
M  V30 6683 H 609.484 -0.399784 -1.43952 0
M  V30 6684 H 611.366 1.57911 -3.90694 0
M  V30 6685 H 610.041 1.7498 -2.7233 0
M  V30 6686 H 608.948 -0.339566 -3.72556 0
M  V30 6687 H 610.281 -0.427154 -4.90343 0
M  V30 6688 N 611.933 1.52934 -0.380664 0
M  V30 6689 C 612.843 2.29921 0.466192 0
M  V30 6690 C 613.859 1.36488 1.07922 0
M  V30 6691 O 615.035 1.69553 1.0869 0
M  V30 6692 C 612.1 3.08468 1.58266 0
M  V30 6693 C 611.161 4.17595 0.995627 0
M  V30 6694 C 610.394 4.92387 2.05889 0
M  V30 6695 O 610.617 4.67184 3.27254 0
M  V30 6696 O 609.551 5.77949 1.68102 0
M  V30 6697 H 613.377 3.03274 -0.160735 0
M  V30 6698 H 610.962 1.48698 -0.144617 0
M  V30 6699 H 612.844 3.57469 2.23145 0
M  V30 6700 H 611.519 2.37937 2.19471 0
M  V30 6701 H 610.426 3.72811 0.310332 0
M  V30 6702 H 611.759 4.90336 0.427918 0
M  V30 6703 N 613.412 0.11024 1.57214 0
M  V30 6704 C 614.375 -0.828808 2.1369 0
M  V30 6705 C 615.375 -1.20059 1.06969 0
M  V30 6706 O 616.565 -1.12754 1.32786 0
M  V30 6707 C 613.697 -2.11959 2.66994 0
M  V30 6708 H 614.89 -0.338146 2.97988 0
M  V30 6709 H 612.443 -0.138913 1.55681 0
M  V30 6710 H 613.178 -2.65476 1.8626 0
M  V30 6711 H 612.963 -1.86258 3.45037 0
M  V30 6712 H 614.453 -2.79105 3.10629 0
M  V30 6713 N 614.89 -1.56749 -0.16351 0
M  V30 6714 C 615.837 -1.97011 -1.2023 0
M  V30 6715 C 616.807 -0.835186 -1.43575 0
M  V30 6716 O 617.992 -1.09594 -1.56185 0
M  V30 6717 C 615.132 -2.34186 -2.53478 0
M  V30 6718 C 614.245 -3.60893 -2.37446 0
M  V30 6719 C 613.38 -3.87245 -3.63614 0
M  V30 6720 C 612.419 -5.07274 -3.42548 0
M  V30 6721 N 611.556 -5.29719 -4.60806 0
M  V30 6722 H 616.396 -2.85562 -0.851958 0
M  V30 6723 H 613.933 -1.41292 -0.409257 0
M  V30 6724 H 615.891 -2.53764 -3.31149 0
M  V30 6725 H 614.521 -1.48736 -2.86492 0
M  V30 6726 H 613.573 -3.49185 -1.50911 0
M  V30 6727 H 614.885 -4.48722 -2.1783 0
M  V30 6728 H 614.039 -4.07232 -4.49719 0
M  V30 6729 H 612.778 -2.97806 -3.86216 0
M  V30 6730 H 611.783 -4.87177 -2.5483 0
M  V30 6731 H 613.008 -5.98251 -3.2136 0
M  V30 6732 H 610.954 -4.43233 -4.83612 0
M  V30 6733 H 610.871 -6.11786 -4.44132 0
M  V30 6734 H 612.139 -5.54192 -5.48171 0
M  V30 6735 N 616.368 0.432326 -1.51554 0
M  V30 6736 C 617.3 1.54357 -1.6943 0
M  V30 6737 C 618.313 1.52311 -0.574897 0
M  V30 6738 O 619.502 1.56997 -0.849369 0
M  V30 6739 C 616.602 2.93273 -1.69836 0
M  V30 6740 C 615.775 3.19768 -2.98442 0
M  V30 6741 C 614.834 4.38433 -2.90969 0
M  V30 6742 O 613.86 4.36842 -3.64908 0
M  V30 6743 N 615.062 5.42276 -2.07163 0
M  V30 6744 H 617.827 1.39426 -2.65293 0
M  V30 6745 H 615.388 0.621331 -1.49503 0
M  V30 6746 H 617.38 3.70687 -1.62399 0
M  V30 6747 H 615.95 3.01777 -0.815456 0
M  V30 6748 H 615.17 2.30607 -3.19709 0
M  V30 6749 H 616.458 3.343 -3.83563 0
M  V30 6750 H 615.856 5.46407 -1.46477 0
M  V30 6751 H 614.413 6.18524 -2.05601 0
M  V30 6752 N 617.846 1.41785 0.688094 0
M  V30 6753 C 618.793 1.44221 1.80191 0
M  V30 6754 C 619.763 0.295688 1.63447 0
M  V30 6755 O 620.948 0.49783 1.84191 0
M  V30 6756 C 618.088 1.33743 3.1813 0
M  V30 6757 C 617.201 2.58325 3.46254 0
M  V30 6758 C 616.336 2.40086 4.73848 0
M  V30 6759 C 615.375 3.60107 4.94964 0
M  V30 6760 N 614.512 3.40892 6.13789 0
M  V30 6761 H 619.352 2.39411 1.77444 0
M  V30 6762 H 616.889 1.18876 0.866423 0
M  V30 6763 H 618.847 1.25669 3.97823 0
M  V30 6764 H 617.477 0.42157 3.20035 0
M  V30 6765 H 616.529 2.7682 2.60912 0
M  V30 6766 H 617.841 3.4758 3.57756 0
M  V30 6767 H 616.995 2.29522 5.61609 0
M  V30 6768 H 615.734 1.483 4.64606 0
M  V30 6769 H 614.739 3.71118 4.05649 0
M  V30 6770 H 615.964 4.52857 5.06061 0
M  V30 6771 H 613.91 2.51812 6.05745 0
M  V30 6772 H 613.827 4.23727 6.26092 0
M  V30 6773 H 615.095 3.34114 7.04264 0
M  V30 6774 N 619.324 -0.923095 1.27737 0
M  V30 6775 C 620.234 -2.05765 1.12685 0
M  V30 6776 C 621.25 -1.73911 0.0557197 0
M  V30 6777 O 622.426 -1.99674 0.263137 0
M  V30 6778 C 619.491 -3.37804 0.780363 0
M  V30 6779 C 618.552 -3.83326 1.93286 0
M  V30 6780 C 617.785 -5.09064 1.60281 0
M  V30 6781 O 618.008 -5.6809 0.512828 0
M  V30 6782 O 616.942 -5.50071 2.44347 0
M  V30 6783 H 620.768 -2.21378 2.07907 0
M  V30 6784 H 618.353 -1.04299 1.06968 0
M  V30 6785 H 620.235 -4.17097 0.600668 0
M  V30 6786 H 618.91 -3.23387 -0.142291 0
M  V30 6787 H 617.817 -3.049 2.16764 0
M  V30 6788 H 619.15 -4.02292 2.83588 0
M  V30 6789 N 620.802 -1.09834 -1.13024 0
M  V30 6790 C 621.732 -0.763451 -2.20666 0
M  V30 6791 C 622.713 0.260778 -1.68089 0
M  V30 6792 O 623.898 0.127915 -1.93778 0
M  V30 6793 C 621.028 -0.187744 -3.46792 0
M  V30 6794 C 619.982 -1.14196 -4.12484 0
M  V30 6795 C 619.308 -0.427755 -5.32986 0
M  V30 6796 C 620.608 -2.48607 -4.59338 0
M  V30 6797 H 622.302 -1.66347 -2.48936 0
M  V30 6798 H 619.848 -0.801261 -1.19649 0
M  V30 6799 H 621.801 0.0586375 -4.21359 0
M  V30 6800 H 620.525 0.747485 -3.17931 0
M  V30 6801 H 619.184 -1.37369 -3.3989 0
M  V30 6802 H 618.832 0.511747 -5.0039 0
M  V30 6803 H 618.532 -1.06403 -5.77886 0
M  V30 6804 H 620.056 -0.189772 -6.10305 0
M  V30 6805 H 621.47 -2.29618 -5.25308 0
M  V30 6806 H 619.867 -3.08062 -5.14993 0
M  V30 6807 H 620.937 -3.09062 -3.73642 0
M  V30 6808 N 622.28 1.30327 -0.886154 0
M  V30 6809 C 623.19 2.31854 -0.357866 0
M  V30 6810 C 624.206 1.65392 0.540502 0
M  V30 6811 O 625.382 1.96683 0.433339 0
M  V30 6812 C 622.447 3.44171 0.417999 0
M  V30 6813 C 621.508 4.26257 -0.510263 0
M  V30 6814 C 620.741 5.3321 0.228669 0
M  V30 6815 O 620.964 5.51542 1.45458 0
M  V30 6816 O 619.898 6.0042 -0.421832 0
M  V30 6817 H 623.724 2.78995 -1.19982 0
M  V30 6818 H 621.309 1.34518 -0.650028 0
M  V30 6819 H 623.191 4.12588 0.857251 0
M  V30 6820 H 621.866 2.99164 1.23623 0
M  V30 6821 H 620.773 3.60533 -0.99835 0
M  V30 6822 H 622.106 4.74871 -1.29454 0
M  V30 6823 N 623.758 0.647228 1.43697 0
M  V30 6824 C 625.005 0.158188 2.01881 0
M  V30 6825 C 625.333 -1.22573 1.51017 0
M  V30 6826 O 624.588 -1.83086 0.69122 0
M  V30 6827 C 624.887 0.111481 3.57226 0
M  V30 6828 C 624.553 1.43633 4.27411 0
M  V30 6829 C 623.215 1.79915 4.463 0
M  V30 6830 C 625.567 2.31011 4.67208 0
M  V30 6831 C 622.895 3.03251 5.02251 0
M  V30 6832 C 625.247 3.53633 5.24525 0
M  V30 6833 C 623.911 3.90118 5.41631 0
M  V30 6834 H 623.181 0.0578851 0.738736 0
M  V30 6835 H 625.828 0.836746 1.72252 0
M  V30 6836 H 624.133 -0.650507 3.86362 0
M  V30 6837 H 625.83 -0.283682 3.99995 0
M  V30 6838 H 622.42 1.14403 4.1305 0
M  V30 6839 H 626.604 2.04272 4.52313 0
M  V30 6840 H 621.86 3.31575 5.13681 0
M  V30 6841 H 626.034 4.21561 5.5431 0
M  V30 6842 H 623.661 4.85768 5.84751 0
M  V30 6843 N 625.236 -1.5273 0.388769 0
M  V30 6844 C 626.168 -2.24081 -0.481704 0
M  V30 6845 C 627.181 -1.26307 -1.02715 0
M  V30 6846 O 628.37 -1.52386 -0.929565 0
M  V30 6847 C 625.47 -2.94315 -1.68024 0
M  V30 6848 C 624.643 -4.18791 -1.26226 0
M  V30 6849 C 623.702 -4.72028 -2.32542 0
M  V30 6850 O 622.728 -5.35129 -1.93972 0
M  V30 6851 N 623.93 -4.51838 -3.64448 0
M  V30 6852 H 626.695 -2.9942 0.129591 0
M  V30 6853 H 624.256 -1.60465 0.2151 0
M  V30 6854 H 626.248 -3.26831 -2.38671 0
M  V30 6855 H 624.818 -2.22287 -2.19789 0
M  V30 6856 H 624.038 -3.92318 -0.384703 0
M  V30 6857 H 625.326 -4.99668 -0.959647 0
M  V30 6858 H 624.724 -4.01468 -3.98547 0
M  V30 6859 H 623.281 -4.88845 -4.31131 0
M  V30 6860 N 626.714 -0.118576 -1.57153 0
M  V30 6861 C 627.646 0.862247 -2.12363 0
M  V30 6862 C 628.659 1.23025 -1.06625 0
M  V30 6863 O 629.848 1.17927 -1.33998 0
M  V30 6864 C 626.948 2.16425 -2.60794 0
M  V30 6865 C 626.121 1.96801 -3.90626 0
M  V30 6866 C 625.18 3.10726 -4.2466 0
M  V30 6867 O 624.206 2.83659 -4.93484 0
M  V30 6868 N 625.408 4.37147 -3.81946 0
M  V30 6869 H 628.173 0.390564 -2.97144 0
M  V30 6870 H 625.734 0.0658591 -1.61766 0
M  V30 6871 H 627.726 2.91633 -2.80593 0
M  V30 6872 H 626.296 2.54943 -1.80895 0
M  V30 6873 H 625.516 1.05787 -3.7974 0
M  V30 6874 H 626.804 1.80993 -4.7552 0
M  V30 6875 H 626.202 4.62014 -3.26435 0
M  V30 6876 H 624.759 5.09229 -4.06853 0
M  V30 6877 N 628.193 1.56834 0.155195 0
M  V30 6878 C 629.126 1.9278 1.22111 0
M  V30 6879 C 630.104 0.792588 1.41975 0
M  V30 6880 O 631.288 1.04743 1.5672 0
M  V30 6881 C 628.415 2.19273 2.58142 0
M  V30 6882 C 627.461 3.41932 2.54921 0
M  V30 6883 S 628.294 4.95769 2.02418 0
M  V30 6884 C 629.45 5.25375 3.40194 0
M  V30 6885 H 629.683 2.82889 0.914393 0
M  V30 6886 H 627.216 1.50133 0.360461 0
M  V30 6887 H 629.174 2.35217 3.36427 0
M  V30 6888 H 627.835 1.29843 2.86007 0
M  V30 6889 H 627.028 3.57721 3.55038 0
M  V30 6890 H 626.63 3.25188 1.8474 0
M  V30 6891 H 628.922 5.1834 4.36268 0
M  V30 6892 H 629.865 6.26889 3.29266 0
M  V30 6893 H 630.273 4.52906 3.36951 0
M  V30 6894 N 629.671 -0.424282 1.51781 0
M  V30 6895 C 630.601 -1.52305 1.7699 0
M  V30 6896 C 631.582 -1.5839 0.620209 0
M  V30 6897 O 632.767 -1.73908 0.864268 0
M  V30 6898 C 629.897 -2.90271 1.90683 0
M  V30 6899 C 628.851 -2.99043 3.06198 0
M  V30 6900 C 628.177 -4.39116 3.05092 0
M  V30 6901 C 629.477 -2.7192 4.45934 0
M  V30 6902 H 631.171 -1.31461 2.68995 0
M  V30 6903 H 628.717 -0.630985 1.29439 0
M  V30 6904 H 630.67 -3.6711 2.06901 0
M  V30 6905 H 629.394 -3.12376 0.953365 0
M  V30 6906 H 628.053 -2.24646 2.89706 0
M  V30 6907 H 627.701 -4.58207 2.07498 0
M  V30 6908 H 627.401 -4.45912 3.82669 0
M  V30 6909 H 628.925 -5.17911 3.2342 0
M  V30 6910 H 630.339 -3.38487 4.62709 0
M  V30 6911 H 628.736 -2.90111 5.25315 0
M  V30 6912 H 629.806 -1.67445 4.55072 0
M  V30 6913 N 631.149 -1.42148 -0.680565 0
M  V30 6914 C 632.426 -1.32795 -1.43614 0
M  V30 6915 C 632.806 0.037415 -2.11067 0
M  V30 6916 O 632.154 1.05258 -2.02813 0
M  V30 6917 C 632.364 -2.49206 -2.44331 0
M  V30 6918 C 633.712 -2.91059 -3.09144 0
M  V30 6919 O 634.736 -2.49054 -2.54657 0
M  V30 6920 O 633.595 -3.63741 -4.07866 0
M  V30 6921 H 630.689 -0.523397 -0.640301 0
M  V30 6922 H 633.235 -1.54144 -0.709775 0
M  V30 6923 H 632.007 -3.40252 -1.93247 0
M  V30 6924 H 631.63 -2.29813 -3.24456 0
M  V30 6925 N 632.627 0.916307 -1.28225 0
M  V30 6926 C 634.043 1.19425 -1.05876 0
M  V30 6927 C 634.243 2.005 0.2005 0
M  V30 6928 O 633.299 2.35806 0.902873 0
M  V30 6929 C 634.612 1.93133 -2.30478 0
M  V30 6930 C 636.16 2.06026 -2.35632 0
M  V30 6931 C 636.635 2.83141 -3.59994 0
M  V30 6932 N 638.126 2.90704 -3.60618 0
M  V30 6933 C 638.861 3.50865 -4.53521 0
M  V30 6934 N 638.357 4.12327 -5.56739 0
M  V30 6935 N 640.15 3.48379 -4.41122 0
M  V30 6936 H 632.301 0.37496 -2.09064 0
M  V30 6937 H 634.564 0.228531 -0.920042 0
M  V30 6938 H 634.27 1.40985 -3.22205 0
M  V30 6939 H 634.144 2.93696 -2.36691 0
M  V30 6940 H 636.531 2.57355 -1.44404 0
M  V30 6941 H 636.612 1.04647 -2.33415 0
M  V30 6942 H 636.256 2.32492 -4.51564 0
M  V30 6943 H 636.186 3.84829 -3.59464 0
M  V30 6944 H 638.677 2.47034 -2.85977 0
M  V30 6945 H 638.99 4.56205 -6.23776 0
M  V30 6946 H 637.335 4.10839 -5.60568 0
M  V30 6947 H 640.526 2.99572 -3.59686 0
M  V30 6948 H 640.699 3.94974 -5.13712 0
M  V30 6949 N 634.105 1.10431 1.1244 0
M  V30 6950 C 635.035 0.775143 2.20258 0
M  V30 6951 C 636.016 -0.25186 1.68225 0
M  V30 6952 O 637.201 -0.117637 1.93843 0
M  V30 6953 C 634.331 0.206133 3.46688 0
M  V30 6954 C 633.285 1.16382 4.11873 0
M  V30 6955 C 632.611 0.456014 5.32752 0
M  V30 6956 C 633.911 2.5104 4.58013 0
M  V30 6957 H 635.605 1.67665 2.4805 0
M  V30 6958 H 633.151 0.807595 1.19222 0
M  V30 6959 H 635.104 -0.036291 4.21384 0
M  V30 6960 H 633.828 -0.730614 3.18323 0
M  V30 6961 H 632.487 1.39169 3.39157 0
M  V30 6962 H 632.135 -0.485203 5.00654 0
M  V30 6963 H 631.835 1.09466 5.77314 0
M  V30 6964 H 633.359 0.222135 6.10196 0
M  V30 6965 H 634.773 2.32401 5.24083 0
M  V30 6966 H 633.17 3.10789 5.13352 0
M  V30 6967 H 634.24 3.11039 3.71998 0
M  V30 6968 N 635.583 -1.29855 0.893053 0
M  V30 6969 C 636.53 -2.27909 0.364161 0
M  V30 6970 C 637.5 -1.56726 -0.550093 0
M  V30 6971 O 638.685 -1.84747 -0.47677 0
M  V30 6972 C 635.825 -3.42678 -0.408178 0
M  V30 6973 C 634.938 -4.28659 0.536212 0
M  V30 6974 C 634.073 -5.30599 -0.252521 0
M  V30 6975 C 633.112 -6.08234 0.686822 0
M  V30 6976 N 632.249 -7.02068 -0.0670902 0
M  V30 6977 H 637.089 -2.72531 1.20544 0
M  V30 6978 H 634.626 -1.34047 0.605779 0
M  V30 6979 H 636.584 -4.07986 -0.871962 0
M  V30 6980 H 635.214 -2.99103 -1.21397 0
M  V30 6981 H 634.266 -3.63584 1.1185 0
M  V30 6982 H 635.578 -4.8274 1.25552 0
M  V30 6983 H 634.732 -6.01694 -0.777801 0
M  V30 6984 H 633.471 -4.77233 -1.005 0
M  V30 6985 H 632.476 -5.3601 1.22366 0
M  V30 6986 H 633.701 -6.63689 1.43852 0
M  V30 6987 H 631.647 -6.5108 -0.801955 0
M  V30 6988 H 631.564 -7.53675 0.59243 0
M  V30 6989 H 632.832 -7.77392 -0.572851 0
M  V30 6990 N 637.061 -0.65484 -1.43351 0
M  V30 6991 C 638.008 0.0357713 -2.30772 0
M  V30 6992 C 638.978 0.813035 -1.44841 0
M  V30 6993 O 640.163 0.789314 -1.73708 0
M  V30 6994 C 637.303 0.995084 -3.30442 0
M  V30 6995 C 636.416 0.21375 -4.31471 0
M  V30 6996 C 635.551 1.16701 -5.18222 0
M  V30 6997 C 634.59 0.376201 -6.10943 0
M  V30 6998 N 633.727 1.28113 -6.90313 0
M  V30 6999 H 638.567 -0.71559 -2.89281 0
M  V30 7000 H 636.104 -0.364645 -1.42509 0
M  V30 7001 H 638.062 1.5649 -3.86739 0
M  V30 7002 H 636.692 1.7133 -2.7358 0
M  V30 7003 H 635.744 -0.472377 -3.77456 0
M  V30 7004 H 637.056 -0.401103 -4.97185 0
M  V30 7005 H 636.21 1.8074 -5.79153 0
M  V30 7006 H 634.949 1.81577 -4.52638 0
M  V30 7007 H 633.954 -0.277534 -5.49099 0
M  V30 7008 H 635.179 -0.268178 -6.7857 0
M  V30 7009 H 633.125 1.91666 -6.27376 0
M  V30 7010 H 633.042 0.720879 -7.52555 0
M  V30 7011 H 634.31 1.90962 -7.55747 0
M  V30 7012 N 638.539 1.52521 -0.396863 0
M  V30 7013 C 639.449 2.30403 0.44178 0
M  V30 7014 C 640.465 1.37625 1.06468 0
M  V30 7015 O 641.641 1.70697 1.06886 0
M  V30 7016 C 638.706 3.1013 1.54986 0
M  V30 7017 C 637.767 4.18628 0.951279 0
M  V30 7018 C 637 4.94543 2.00655 0
M  V30 7019 O 637.223 4.70629 3.22281 0
M  V30 7020 O 636.157 5.797 1.61962 0
M  V30 7021 H 639.983 3.03087 -0.192892 0
M  V30 7022 H 637.568 1.48537 -0.16038 0
M  V30 7023 H 639.45 3.59816 2.19341 0
M  V30 7024 H 638.125 2.40251 2.16935 0
M  V30 7025 H 637.032 3.73119 0.270773 0
M  V30 7026 H 638.365 4.90763 0.375887 0
M  V30 7027 N 640.017 0.126909 1.57088 0
M  V30 7028 C 640.949 -0.850973 2.12817 0
M  V30 7029 C 641.962 -1.22457 1.07276 0
M  V30 7030 O 643.151 -1.17215 1.34622 0
M  V30 7031 C 640.251 -2.15039 2.61938 0
M  V30 7032 C 639.424 -1.94726 3.91664 0
M  V30 7033 C 638.483 -3.0847 4.26301 0
M  V30 7034 O 637.509 -2.81038 4.94981 0
M  V30 7035 N 638.711 -4.35116 3.84259 0
M  V30 7036 H 641.476 -0.3748 2.97347 0
M  V30 7037 H 639.037 -0.0572793 1.61799 0
M  V30 7038 H 641.029 -2.90141 2.82135 0
M  V30 7039 H 639.599 -2.5398 1.82244 0
M  V30 7040 H 638.819 -1.03772 3.80296 0
M  V30 7041 H 640.107 -1.78469 4.76473 0
M  V30 7042 H 639.505 -4.60276 3.2888 0
M  V30 7043 H 638.062 -5.07064 4.09548 0
M  V30 7044 N 641.495 -1.56914 -0.146875 0
M  V30 7045 C 642.405 -2.0154 -1.20079 0
M  V30 7046 C 643.421 -0.930838 -1.47008 0
M  V30 7047 O 644.597 -1.24032 -1.58676 0
M  V30 7048 C 641.662 -2.38715 -2.51428 0
M  V30 7049 C 640.723 -3.6112 -2.32145 0
M  V30 7050 C 639.956 -3.96512 -3.57231 0
M  V30 7051 O 640.179 -3.32566 -4.63418 0
M  V30 7052 O 639.113 -4.89758 -3.49887 0
M  V30 7053 H 642.939 -2.91506 -0.851924 0
M  V30 7054 H 640.524 -1.45106 -0.355607 0
M  V30 7055 H 642.406 -2.63485 -3.28867 0
M  V30 7056 H 641.081 -1.51903 -2.85845 0
M  V30 7057 H 639.988 -3.41536 -1.52656 0
M  V30 7058 H 641.321 -4.48549 -2.02644 0
M  V30 7059 N 642.974 0.416227 -1.52004 0
M  V30 7060 C 643.884 1.53147 -1.77717 0
M  V30 7061 C 644.9 1.609 -0.662368 0
M  V30 7062 O 646.076 1.77747 -0.946991 0
M  V30 7063 C 643.141 2.88948 -1.91598 0
M  V30 7064 C 642.202 2.9114 -3.15493 0
M  V30 7065 C 641.435 4.20464 -3.28703 0
M  V30 7066 O 641.658 5.13981 -2.47345 0
M  V30 7067 O 640.592 4.29368 -4.21813 0
M  V30 7068 H 644.418 1.34357 -2.72363 0
M  V30 7069 H 642.003 0.601373 -1.36762 0
M  V30 7070 H 643.885 3.69505 -2.02593 0
M  V30 7071 H 642.56 3.07821 -1.00141 0
M  V30 7072 H 641.467 2.09461 -3.09962 0
M  V30 7073 H 642.8 2.77216 -4.06709 0
M  V30 7074 N 644.452 1.42507 0.673017 0
M  V30 7075 C 645.415 1.4582 1.76831 0
M  V30 7076 C 646.415 0.345542 1.57043 0
M  V30 7077 O 647.605 0.606447 1.63303 0
M  V30 7078 C 644.737 1.29158 3.15485 0
M  V30 7079 H 645.93 2.43345 1.7528 0
M  V30 7080 H 643.483 1.28981 0.882817 0
M  V30 7081 H 644.218 0.325626 3.22661 0
M  V30 7082 H 644.003 2.09797 3.31252 0
M  V30 7083 H 645.493 1.34363 3.95394 0
M  V30 7084 N 645.93 -0.909495 1.28709 0
M  V30 7085 C 646.84 -2.04558 1.14861 0
M  V30 7086 C 647.856 -1.73842 0.0741621 0
M  V30 7087 O 649.032 -1.99383 0.2843 0
M  V30 7088 C 646.097 -3.36957 0.816148 0
M  V30 7089 C 645.158 -3.81255 1.97341 0
M  V30 7090 C 644.391 -5.07335 1.65671 0
M  V30 7091 O 644.614 -5.67514 0.573053 0
M  V30 7092 O 643.548 -5.47449 2.50167 0
M  V30 7093 H 647.374 -2.19161 2.10243 0
M  V30 7094 H 644.959 -1.03159 1.08068 0
M  V30 7095 H 646.841 -4.16436 0.644873 0
M  V30 7096 H 645.516 -3.2352 -0.107983 0
M  V30 7097 H 644.423 -3.02584 2.19986 0
M  V30 7098 H 645.756 -3.99261 2.87839 0
M  V30 7099 N 647.408 -1.11026 -1.11852 0
M  V30 7100 C 648.371 -0.768006 -2.1595 0
M  V30 7101 C 649.371 0.210538 -1.59416 0
M  V30 7102 O 650.561 -0.0133978 -1.74195 0
M  V30 7103 C 647.693 -0.138678 -3.40618 0
M  V30 7104 H 648.886 -1.69012 -2.4774 0
M  V30 7105 H 646.439 -0.911578 -1.26964 0
M  V30 7106 H 647.174 0.793872 -3.14433 0
M  V30 7107 H 646.959 -0.843012 -3.8293 0
M  V30 7108 H 648.449 0.0848039 -4.17514 0
M  V30 7109 N 648.886 1.2938 -0.899927 0
M  V30 7110 C 650.135 1.9483 -0.521937 0
M  V30 7111 C 650.448 1.71725 0.936473 0
M  V30 7112 O 651.654 2.31282 1.42199 0
M  V30 7113 C 650.11 3.48911 -0.88255 0
M  V30 7114 C 649.718 3.80815 -2.35974 0
M  V30 7115 C 651.462 4.20595 -0.57448 0
M  V30 7116 C 649.369 5.28142 -2.66121 0
M  V30 7117 H 648.299 0.729285 -0.191468 0
M  V30 7118 H 650.95 1.47103 -1.09695 0
M  V30 7119 H 649.332 3.95293 -0.236459 0
M  V30 7120 H 650.506 3.45291 -3.05141 0
M  V30 7121 H 648.821 3.22271 -2.63686 0
M  V30 7122 H 651.418 5.29031 -0.776556 0
M  V30 7123 H 651.761 4.13442 0.487005 0
M  V30 7124 H 652.294 3.79945 -1.17842 0
M  V30 7125 H 649.033 5.4036 -3.71068 0
M  V30 7126 H 648.553 5.64913 -2.01578 0
M  V30 7127 H 650.232 5.95738 -2.52399 0
M  V30 7128 N 650.364 0.662433 1.43002 0
M  V30 7129 C 651.327 -0.0142016 2.29196 0
M  V30 7130 C 652.327 -0.741394 1.42688 0
M  V30 7131 O 653.517 -0.581257 1.64216 0
M  V30 7132 C 650.649 -1.03084 3.24941 0
M  V30 7133 H 651.842 0.7443 2.90517 0
M  V30 7134 H 649.395 0.424133 1.50435 0
M  V30 7135 H 650.13 -1.81826 2.68533 0
M  V30 7136 H 649.915 -0.512946 3.8873 0
M  V30 7137 H 651.405 -1.50308 3.89612 0
M  V30 7138 N 651.842 -1.52309 0.404946 0
M  V30 7139 C 652.805 -2.25491 -0.410651 0
M  V30 7140 C 653.805 -1.27704 -0.977154 0
M  V30 7141 O 654.995 -1.51679 -0.856691 0
M  V30 7142 C 652.127 -3.02197 -1.57765 0
M  V30 7143 H 653.32 -2.99015 0.230277 0
M  V30 7144 H 650.873 -1.55506 0.157377 0
M  V30 7145 H 651.608 -2.33013 -2.25556 0
M  V30 7146 H 651.393 -3.73987 -1.17797 0
M  V30 7147 H 652.883 -3.57719 -2.15469 0
M  V30 7148 N 653.32 -0.135238 -1.57019 0
M  V30 7149 C 654.283 0.794707 -2.14981 0
M  V30 7150 C 655.283 1.18342 -1.08866 0
M  V30 7151 O 656.473 1.10627 -1.34563 0
M  V30 7152 C 653.605 2.07685 -2.70333 0
M  V30 7153 H 654.798 0.290696 -2.98488 0
M  V30 7154 H 652.351 0.114128 -1.55883 0
M  V30 7155 H 653.086 2.6248 -1.9046 0
M  V30 7156 H 652.871 1.80745 -3.47957 0
M  V30 7157 H 654.361 2.74127 -3.1503 0
M  V30 7158 N 654.798 1.5699 0.138552 0
M  V30 7159 C 655.761 1.97984 1.15478 0
M  V30 7160 C 656.761 0.867416 1.35398 0
M  V30 7161 O 657.951 1.13387 1.32246 0
M  V30 7162 C 655.083 2.3031 2.51337 0
M  V30 7163 H 656.276 2.88953 0.802896 0
M  V30 7164 H 653.829 1.51555 0.382189 0
M  V30 7165 H 654.564 1.42159 2.91481 0
M  V30 7166 H 654.349 3.11425 2.38237 0
M  V30 7167 H 655.839 2.62834 3.24512 0
M  V30 7168 N 656.276 -0.40816 1.52223 0
M  V30 7169 C 657.239 -1.48 1.7501 0
M  V30 7170 C 658.239 -1.48367 0.619996 0
M  V30 7171 O 659.429 -1.49874 0.887881 0
M  V30 7172 C 656.561 -2.87403 1.83336 0
M  V30 7173 H 657.754 -1.29086 2.70697 0
M  V30 7174 H 655.307 -0.638715 1.42654 0
M  V30 7175 H 656.042 -3.11686 0.895677 0
M  V30 7176 H 655.827 -2.8854 2.65494 0
M  V30 7177 H 657.317 -3.65103 2.02705 0
M  V30 7178 N 657.755 -1.42862 -0.66545 0
M  V30 7179 C 658.665 -1.49491 -1.80803 0
M  V30 7180 C 659.681 -0.382914 -1.69734 0
M  V30 7181 O 660.857 -0.635223 -1.9112 0
M  V30 7182 C 657.922 -1.40383 -3.17007 0
M  V30 7183 C 656.983 -2.62152 -3.39963 0
M  V30 7184 C 656.216 -2.53469 -4.69669 0
M  V30 7185 O 656.439 -1.57568 -5.48205 0
M  V30 7186 O 655.373 -3.43763 -4.94075 0
M  V30 7187 H 659.199 -2.45949 -1.78165 0
M  V30 7188 H 656.784 -1.24728 -0.822387 0
M  V30 7189 H 658.666 -1.377 -3.98267 0
M  V30 7190 H 657.341 -0.470546 -3.20262 0
M  V30 7191 H 656.248 -2.70409 -2.58515 0
M  V30 7192 H 657.581 -3.54411 -3.41546 0
M  V30 7193 N 659.233 0.902656 -1.29189 0
M  V30 7194 C 660.463 1.68394 -1.19695 0
M  V30 7195 C 660.871 1.87602 0.245384 0
M  V30 7196 O 660.214 1.41084 1.17648 0
M  V30 7197 C 660.276 3.09094 -1.83578 0
M  V30 7198 C 659.94 3.1313 -3.32864 0
M  V30 7199 C 660.937 2.93497 -4.29134 0
M  V30 7200 C 658.622 3.3529 -3.74013 0
M  V30 7201 C 660.616 2.95953 -5.64527 0
M  V30 7202 C 658.303 3.37377 -5.09529 0
M  V30 7203 C 659.301 3.1773 -6.04596 0
M  V30 7204 O 658.989 3.196 -7.37639 0
M  V30 7205 H 658.721 0.532815 -0.416034 0
M  V30 7206 H 661.275 1.1374 -1.71033 0
M  V30 7207 H 659.505 3.65338 -1.26747 0
M  V30 7208 H 661.194 3.69297 -1.68447 0
M  V30 7209 H 661.96 2.76192 -3.98677 0
M  V30 7210 H 657.839 3.49623 -3.00474 0
M  V30 7211 H 661.383 2.80536 -6.38706 0
M  V30 7212 H 657.28 3.54213 -5.39633 0
M  V30 7213 H 658.048 3.35887 -7.46406 0
M  V30 7214 N 660.711 1.11618 1.11262 0
M  V30 7215 C 661.939 0.888739 1.8684 0
M  V30 7216 C 662.354 -0.561558 1.80255 0
M  V30 7217 O 661.711 -1.38782 1.18515 0
M  V30 7218 C 661.762 1.34422 3.35579 0
M  V30 7219 O 661.483 2.73766 3.42029 0
M  V30 7220 C 662.984 1.15246 4.28058 0
M  V30 7221 H 660.204 0.318152 0.590779 0
M  V30 7222 H 662.748 1.48398 1.40707 0
M  V30 7223 H 660.903 0.79239 3.7921 0
M  V30 7224 H 661.317 2.9355 4.34659 0
M  V30 7225 H 662.791 1.52015 5.30656 0
M  V30 7226 H 663.268 0.0922007 4.39103 0
M  V30 7227 H 663.874 1.69136 3.90222 0
M  V30 7228 N 662.189 -1.289 0.906776 0
M  V30 7229 C 663.414 -1.99939 0.551303 0
M  V30 7230 C 663.839 -1.67366 -0.858496 0
M  V30 7231 O 663.197 -0.902176 -1.57259 0
M  V30 7232 C 663.245 -3.52523 0.758937 0
M  V30 7233 O 662.349 -4.11983 -0.185308 0
M  V30 7234 H 661.69 -0.628376 0.214568 0
M  V30 7235 H 664.22 -1.64225 1.2203 0
M  V30 7236 H 664.23 -4.02522 0.666329 0
M  V30 7237 H 662.905 -3.75566 1.78671 0
M  V30 7238 H 661.482 -3.72873 -0.0445577 0
M  V30 7239 N 663.667 -0.670007 -1.42649 0
M  V30 7240 C 664.916 -0.187526 -2.00826 0
M  V30 7241 C 665.229 1.21142 -1.53571 0
M  V30 7242 O 666.435 1.79001 -2.04134 0
M  V30 7243 C 664.891 -0.284409 -3.58774 0
M  V30 7244 C 664.499 -1.6871 -4.15019 0
M  V30 7245 C 666.243 0.139605 -4.2427 0
M  V30 7246 C 664.15 -1.73701 -5.65316 0
M  V30 7247 H 663.08 -0.0663468 -0.751075 0
M  V30 7248 H 665.731 -0.834492 -1.63427 0
M  V30 7249 H 664.113 0.430364 -3.93655 0
M  V30 7250 H 665.287 -2.42857 -3.91608 0
M  V30 7251 H 663.602 -2.05855 -3.61957 0
M  V30 7252 H 666.199 0.122398 -5.3456 0
M  V30 7253 H 666.542 1.17403 -3.99402 0
M  V30 7254 H 667.075 -0.523995 -3.94334 0
M  V30 7255 H 663.814 -2.75109 -5.94975 0
M  V30 7256 H 663.334 -1.03903 -5.90732 0
M  V30 7257 H 665.013 -1.48829 -6.2965 0
M  V30 7258 N 665.145 1.52092 -0.413018 0
M  V30 7259 C 666.561 1.59471 -0.0640836 0
M  V30 7260 C 666.761 1.42562 1.42402 0
M  V30 7261 O 665.817 1.25453 2.19129 0
M  V30 7262 C 667.13 2.95392 -0.562474 0
M  V30 7263 C 668.678 3.08637 -0.520788 0
M  V30 7264 C 669.153 4.47044 -0.995752 0
M  V30 7265 N 670.644 4.53296 -0.952732 0
M  V30 7266 C 671.379 5.58669 -1.29138 0
M  V30 7267 N 670.875 6.71576 -1.70168 0
M  V30 7268 N 672.668 5.48898 -1.2111 0
M  V30 7269 H 664.819 1.6133 -1.38153 0
M  V30 7270 H 667.082 0.75916 -0.567785 0
M  V30 7271 H 666.788 3.13059 -1.60271 0
M  V30 7272 H 666.662 3.77191 0.0257875 0
M  V30 7273 H 669.049 2.90652 0.510412 0
M  V30 7274 H 669.13 2.28735 -1.14515 0
M  V30 7275 H 668.774 4.65773 -2.0253 0
M  V30 7276 H 668.704 5.25448 -0.348162 0
M  V30 7277 H 671.195 3.72248 -0.651119 0
M  V30 7278 H 671.508 7.47973 -1.9431 0
M  V30 7279 H 669.853 6.72847 -1.74075 0
M  V30 7280 H 673.044 4.59573 -0.889396 0
M  V30 7281 H 673.217 6.30912 -1.47833 0
M  V30 7282 N 666.623 0.143563 1.56945 0
M  V30 7283 C 668.039 -0.212877 1.58174 0
M  V30 7284 C 668.239 -1.64926 1.15766 0
M  V30 7285 O 667.295 -2.37535 0.856361 0
M  V30 7286 C 668.608 0.0427573 3.0067 0
M  V30 7287 C 670.156 -0.0212221 3.12993 0
M  V30 7288 C 670.631 0.207036 4.57532 0
M  V30 7289 N 672.122 0.153845 4.62944 0
M  V30 7290 C 672.857 0.305018 5.72588 0
M  V30 7291 N 672.353 0.513722 6.90893 0
M  V30 7292 N 674.146 0.242862 5.61575 0
M  V30 7293 H 666.297 1.08148 1.82805 0
M  V30 7294 H 668.56 0.427831 0.84597 0
M  V30 7295 H 668.266 1.03672 3.36073 0
M  V30 7296 H 668.14 -0.678195 3.71053 0
M  V30 7297 H 670.527 -1.00574 2.77433 0
M  V30 7298 H 670.608 0.732004 2.45103 0
M  V30 7299 H 670.252 1.18863 4.93795 0
M  V30 7300 H 670.182 -0.566473 5.23544 0
M  V30 7301 H 672.673 -0.00294866 3.779 0
M  V30 7302 H 672.986 0.619273 7.70315 0
M  V30 7303 H 671.331 0.550001 6.9282 0
M  V30 7304 H 674.522 0.0806015 4.68031 0
M  V30 7305 H 674.695 0.364112 6.46976 0
M  V30 7306 N 668.101 -1.57061 -0.130224 0
M  V30 7307 C 669.326 -1.88802 -0.858409 0
M  V30 7308 C 669.751 -0.734353 -1.73173 0
M  V30 7309 O 669.109 0.315529 -1.78533 0
M  V30 7310 C 669.157 -3.19228 -1.67708 0
M  V30 7311 O 668.261 -3.04343 -2.78297 0
M  V30 7312 H 667.602 -0.619849 -0.238083 0
M  V30 7313 H 670.132 -2.04271 -0.115995 0
M  V30 7314 H 670.142 -3.51669 -2.06864 0
M  V30 7315 H 668.817 -4.02793 -1.0359 0
M  V30 7316 H 667.394 -2.83346 -2.42425 0
M  V30 7317 N 669.579 0.400081 -1.52437 0
M  V30 7318 C 670.995 0.739359 -1.41441 0
M  V30 7319 C 671.195 1.94512 -0.526053 0
M  V30 7320 O 670.251 2.525 0.00472502 0
M  V30 7321 C 671.564 0.984824 -2.84116 0
M  V30 7322 C 673.112 1.08698 -2.93519 0
M  V30 7323 C 673.587 1.36515 -4.37181 0
M  V30 7324 N 675.078 1.43361 -4.40457 0
M  V30 7325 C 675.813 1.66528 -5.48686 0
M  V30 7326 N 675.309 1.87239 -6.67018 0
M  V30 7327 N 677.102 1.68617 -5.36213 0
M  V30 7328 H 669.253 -0.393484 -2.08723 0
M  V30 7329 H 671.516 -0.1138 -0.941145 0
M  V30 7330 H 671.222 0.171096 -3.51284 0
M  V30 7331 H 671.096 1.90253 -3.25705 0
M  V30 7332 H 673.483 1.89129 -2.26526 0
M  V30 7333 H 673.564 0.147432 -2.55375 0
M  V30 7334 H 673.208 0.565982 -5.04737 0
M  V30 7335 H 673.138 2.31737 -4.7287 0
M  V30 7336 H 675.629 1.29108 -3.55161 0
M  V30 7337 H 675.942 2.04392 -7.45281 0
M  V30 7338 H 674.287 1.84486 -6.70067 0
M  V30 7339 H 677.478 1.5198 -4.42741 0
M  V30 7340 H 677.651 1.86332 -6.20632 0
M  V30 7341 N 671.057 1.43213 0.657864 0
M  V30 7342 C 672.306 1.43871 1.41365 0
M  V30 7343 C 672.619 0.064898 1.95492 0
M  V30 7344 O 673.825 -0.0510796 2.71452 0
M  V30 7345 C 672.281 2.53158 2.55811 0
M  V30 7346 C 671.889 3.96624 2.08311 0
M  V30 7347 C 673.633 2.63004 3.3321 0
M  V30 7348 C 671.54 4.97385 3.1994 0
M  V30 7349 H 670.47 0.535174 0.531136 0
M  V30 7350 H 673.121 1.69185 0.710543 0
M  V30 7351 H 671.503 2.21037 3.2857 0
M  V30 7352 H 672.677 4.38182 1.42593 0
M  V30 7353 H 670.992 3.90781 1.43804 0
M  V30 7354 H 673.589 3.3546 4.16378 0
M  V30 7355 H 673.932 1.67918 3.80932 0
M  V30 7356 H 674.465 2.94403 2.67529 0
M  V30 7357 H 671.204 5.94007 2.77192 0
M  V30 7358 H 670.724 4.60444 3.84385 0
M  V30 7359 H 672.403 5.19877 3.85145 0
M  V30 7360 N 672.536 -0.895792 1.29666 0
M  V30 7361 C 673.469 -2.00238 1.09453 0
M  V30 7362 C 674.447 -1.62599 0.00527044 0
M  V30 7363 O 675.631 -1.87847 0.156729 0
M  V30 7364 C 672.758 -3.32066 0.667054 0
M  V30 7365 C 671.804 -3.88691 1.7556 0
M  V30 7366 S 672.637 -4.17317 3.35569 0
M  V30 7367 C 673.793 -5.52181 2.94698 0
M  V30 7368 H 674.026 -2.17076 2.03138 0
M  V30 7369 H 671.559 -1.04287 1.13858 0
M  V30 7370 H 673.517 -4.08272 0.427136 0
M  V30 7371 H 672.178 -3.13101 -0.250256 0
M  V30 7372 H 671.371 -4.83918 1.40853 0
M  V30 7373 H 670.973 -3.19187 1.94924 0
M  V30 7374 H 673.265 -6.3281 2.41986 0
M  V30 7375 H 674.208 -5.91817 3.88791 0
M  V30 7376 H 674.616 -5.14225 2.32879 0
M  V30 7377 N 674.014 -1.12206 -1.10668 0
M  V30 7378 C 675.262 -0.874144 -1.82217 0
M  V30 7379 C 675.583 0.601736 -1.85484 0
M  V30 7380 O 674.853 1.43725 -1.33116 0
M  V30 7381 H 673.433 -0.320404 -0.674797 0
M  V30 7382 H 676.095 -1.41606 -1.33917 0
M  V30 7383 H 675.191 -1.25349 -2.85822 0
M  V30 7384 N 675.492 1.28418 -0.913599 0
M  V30 7385 C 676.422 2.29713 -0.418847 0
M  V30 7386 C 677.403 1.62165 0.513469 0
M  V30 7387 O 678.588 1.89576 0.421235 0
M  V30 7388 C 675.718 3.45612 0.342042 0
M  V30 7389 C 674.672 4.25056 -0.501123 0
M  V30 7390 C 673.998 5.3329 0.388097 0
M  V30 7391 C 675.298 4.91814 -1.75831 0
M  V30 7392 H 676.992 2.71346 -1.26538 0
M  V30 7393 H 674.538 1.30446 -0.609903 0
M  V30 7394 H 676.491 4.15562 0.699 0
M  V30 7395 H 675.215 3.02858 1.22248 0
M  V30 7396 H 673.874 3.56833 -0.840598 0
M  V30 7397 H 673.522 4.8678 1.26707 0
M  V30 7398 H 673.222 5.87347 -0.172459 0
M  V30 7399 H 674.746 6.06088 0.74094 0
M  V30 7400 H 676.16 5.54126 -1.47026 0
M  V30 7401 H 674.557 5.55866 -2.26126 0
M  V30 7402 H 675.627 4.16313 -2.4862 0
M  V30 7403 N 676.97 0.677563 1.42291 0
M  V30 7404 C 678.195 0.207901 2.06355 0
M  V30 7405 C 678.62 -1.12723 1.50583 0
M  V30 7406 O 677.978 -1.70171 0.62543 0
M  V30 7407 C 678.026 0.156489 3.6026 0
M  V30 7408 O 677.13 -0.874162 4.03029 0
M  V30 7409 H 676.471 0.106056 0.655475 0
M  V30 7410 H 679.001 0.927354 1.82377 0
M  V30 7411 H 679.011 -0.0187258 4.07996 0
M  V30 7412 H 677.686 1.13101 4.00226 0
M  V30 7413 H 676.263 -0.669764 3.66836 0
M  V30 7414 N 678.448 -1.51871 0.421078 0
M  V30 7415 C 679.358 -2.31077 -0.405069 0
M  V30 7416 C 680.374 -1.39301 -1.04265 0
M  V30 7417 O 681.55 -1.72376 -1.04157 0
M  V30 7418 C 678.615 -3.12556 -1.50032 0
M  V30 7419 C 677.676 -4.20088 -0.884559 0
M  V30 7420 C 676.909 -4.97673 -1.92762 0
M  V30 7421 O 677.132 -4.75696 -3.14753 0
M  V30 7422 O 676.066 -5.82203 -1.52719 0
M  V30 7423 H 679.892 -3.02742 0.241086 0
M  V30 7424 H 677.477 -1.48263 0.183991 0
M  V30 7425 H 679.359 -3.6326 -2.13589 0
M  V30 7426 H 678.034 -2.43672 -2.13086 0
M  V30 7427 H 676.941 -3.73502 -0.211379 0
M  V30 7428 H 678.274 -4.91298 -0.297763 0
M  V30 7429 N 679.926 -0.151884 -1.56866 0
M  V30 7430 C 681.151 0.508044 -2.01081 0
M  V30 7431 C 681.576 1.57306 -1.03134 0
M  V30 7432 O 680.934 1.81298 -0.0078309 0
M  V30 7433 C 680.982 1.08106 -3.44014 0
M  V30 7434 O 680.086 2.19577 -3.49084 0
M  V30 7435 H 679.427 0.123757 -0.652365 0
M  V30 7436 H 681.957 -0.250055 -2.03066 0
M  V30 7437 H 681.967 1.40851 -3.82916 0
M  V30 7438 H 680.642 0.301168 -4.14808 0
M  V30 7439 H 679.219 1.88023 -3.22027 0
M  V30 7440 N 681.404 1.57128 0.121893 0
M  V30 7441 C 682.629 1.89254 0.848385 0
M  V30 7442 C 683.054 0.743527 1.72781 0
M  V30 7443 O 682.412 -0.306056 1.78698 0
M  V30 7444 C 682.46 3.20113 1.66012 0
M  V30 7445 O 681.564 3.05815 2.76679 0
M  V30 7446 H 680.905 0.621103 0.234793 0
M  V30 7447 H 683.435 2.0433 0.10516 0
M  V30 7448 H 683.445 3.52761 2.04996 0
M  V30 7449 H 682.12 4.03336 1.01452 0
M  V30 7450 H 680.697 2.84627 2.40918 0
M  V30 7451 N 682.882 -0.391992 1.52647 0
M  V30 7452 C 684.107 -1.16312 1.71716 0
M  V30 7453 C 684.532 -1.83042 0.433279 0
M  V30 7454 O 683.89 -1.70705 -0.610707 0
M  V30 7455 C 683.938 -2.18908 2.86551 0
M  V30 7456 O 683.042 -3.2543 2.53316 0
M  V30 7457 H 682.383 -0.338743 0.571095 0
M  V30 7458 H 684.913 -0.457202 1.99426 0
M  V30 7459 H 684.923 -2.62954 3.1196 0
M  V30 7460 H 683.598 -1.69726 3.79692 0
M  V30 7461 H 682.175 -2.86543 2.38637 0
M  V30 7462 N 684.36 -1.4356 -0.65026 0
M  V30 7463 C 685.27 -1.514 -1.79207 0
M  V30 7464 C 686.286 -0.400895 -1.69319 0
M  V30 7465 O 687.462 -0.655458 -1.90436 0
M  V30 7466 C 684.527 -1.43737 -3.155 0
M  V30 7467 C 683.588 -2.65743 -3.37163 0
M  V30 7468 C 682.821 -2.58436 -4.66954 0
M  V30 7469 O 683.044 -1.63374 -5.46503 0
M  V30 7470 O 681.978 -3.48984 -4.90402 0
M  V30 7471 H 685.804 -2.47825 -1.75547 0
M  V30 7472 H 683.389 -1.25594 -0.809111 0
M  V30 7473 H 685.271 -1.41916 -3.96784 0
M  V30 7474 H 683.946 -0.504488 -3.19745 0
M  V30 7475 H 682.853 -2.73136 -2.55632 0
M  V30 7476 H 684.186 -3.58014 -3.37768 0
M  V30 7477 N 685.838 0.888903 -1.30139 0
M  V30 7478 C 687.066 1.67358 -1.21651 0
M  V30 7479 C 687.481 1.87499 0.221246 0
M  V30 7480 O 686.838 1.41969 1.14677 0
M  V30 7481 C 686.889 3.05213 -1.93719 0
M  V30 7482 O 686.61 2.85984 -3.31881 0
M  V30 7483 C 688.111 3.9964 -1.9184 0
M  V30 7484 H 685.331 0.522365 -0.42116 0
M  V30 7485 H 687.875 1.11086 -1.71698 0
M  V30 7486 H 686.03 3.5823 -1.4748 0
M  V30 7487 H 686.444 3.73411 -3.68327 0
M  V30 7488 H 687.918 4.93749 -2.46811 0
M  V30 7489 H 688.395 4.29955 -0.896409 0
M  V30 7490 H 689.001 3.52558 -2.37872 0
M  V30 7491 N 687.317 1.12792 1.10072 0
M  V30 7492 C 688.542 0.908838 1.86427 0
M  V30 7493 C 688.967 -0.536793 1.80278 0
M  V30 7494 O 688.325 -1.38033 1.17543 0
M  V30 7495 C 688.373 1.39295 3.3261 0
M  V30 7496 O 687.477 0.573846 4.08388 0
M  V30 7497 H 686.818 0.326234 0.578331 0
M  V30 7498 H 689.348 1.50094 1.39043 0
M  V30 7499 H 689.358 1.39366 3.83459 0
M  V30 7500 H 688.033 2.44555 3.36401 0
M  V30 7501 H 686.61 0.640438 3.67359 0
M  V30 7502 N 688.795 -1.27931 0.920396 0
M  V30 7503 C 689.742 -2.27085 0.412422 0
M  V30 7504 C 690.712 -1.57858 -0.516725 0
M  V30 7505 O 691.897 -1.85717 -0.437475 0
M  V30 7506 C 689.037 -3.43466 -0.335399 0
M  V30 7507 C 688.15 -4.27425 0.627017 0
M  V30 7508 C 687.285 -5.31016 -0.139916 0
M  V30 7509 C 686.324 -6.06641 0.815683 0
M  V30 7510 N 685.461 -7.02052 0.0818439 0
M  V30 7511 H 690.301 -2.69913 1.26298 0
M  V30 7512 H 687.838 -1.32732 0.634076 0
M  V30 7513 H 689.796 -4.09744 -0.785226 0
M  V30 7514 H 688.426 -3.01611 -1.15025 0
M  V30 7515 H 687.478 -3.6113 1.19537 0
M  V30 7516 H 688.79 -4.79969 1.35763 0
M  V30 7517 H 687.944 -6.03208 -0.649998 0
M  V30 7518 H 686.683 -4.79257 -0.903543 0
M  V30 7519 H 685.688 -5.33294 1.33708 0
M  V30 7520 H 686.913 -6.60489 1.57897 0
M  V30 7521 H 684.859 -6.52634 -0.663671 0
M  V30 7522 H 684.776 -7.52249 0.752163 0
M  V30 7523 H 686.044 -7.78432 -0.407825 0
M  V30 7524 N 690.273 -0.685099 -1.4193 0
M  V30 7525 C 691.203 -0.0273506 -2.33484 0
M  V30 7526 C 692.184 0.778366 -1.51246 0
M  V30 7527 O 693.369 0.733449 -1.79817 0
M  V30 7528 C 690.499 0.917272 -3.34968 0
M  V30 7529 C 689.453 0.21941 -4.27437 0
M  V30 7530 C 688.779 1.27768 -5.1921 0
M  V30 7531 C 690.079 -0.907894 -5.14349 0
M  V30 7532 H 691.773 -0.791994 -2.88735 0
M  V30 7533 H 689.319 -0.382308 -1.38832 0
M  V30 7534 H 691.272 1.38657 -3.97935 0
M  V30 7535 H 689.996 1.71346 -2.78043 0
M  V30 7536 H 688.655 -0.229757 -3.65879 0
M  V30 7537 H 688.303 2.06612 -4.58607 0
M  V30 7538 H 688.003 0.815803 -5.81909 0
M  V30 7539 H 689.527 1.7477 -5.85054 0
M  V30 7540 H 690.941 -0.519348 -5.70943 0
M  V30 7541 H 689.338 -1.2962 -5.85934 0
M  V30 7542 H 690.408 -1.75218 -4.52136 0
M  V30 7543 N 691.751 1.51645 -0.429126 0
M  V30 7544 C 692.976 2.06917 0.141399 0
M  V30 7545 C 693.401 1.29527 1.36398 0
M  V30 7546 O 692.759 0.33094 1.78254 0
M  V30 7547 C 692.807 3.57776 0.4504 0
M  V30 7548 O 691.911 3.82639 1.53821 0
M  V30 7549 H 691.252 0.663978 0.0054647 0
M  V30 7550 H 693.782 1.95355 -0.608093 0
M  V30 7551 H 693.792 4.01894 0.703249 0
M  V30 7552 H 692.467 4.13532 -0.443213 0
M  V30 7553 H 691.044 3.5039 1.27597 0
M  V30 7554 N 693.229 0.160201 1.56784 0
M  V30 7555 C 694.454 -0.497373 2.01348 0
M  V30 7556 C 694.879 -1.56757 1.03966 0
M  V30 7557 O 694.237 -1.81292 0.0174455 0
M  V30 7558 C 694.285 -1.0628 3.44582 0
M  V30 7559 O 693.389 -2.17723 3.50244 0
M  V30 7560 H 692.73 -0.120295 0.653012 0
M  V30 7561 H 695.26 0.260821 2.02931 0
M  V30 7562 H 695.27 -1.38819 3.83658 0
M  V30 7563 H 693.945 -0.279166 4.14962 0
M  V30 7564 H 692.522 -1.86313 3.2302 0
M  V30 7565 N 694.707 -1.5719 -0.113559 0
M  V30 7566 C 695.654 -2.00736 -1.13901 0
M  V30 7567 C 696.624 -0.88044 -1.40846 0
M  V30 7568 O 697.809 -1.14507 -1.5262 0
M  V30 7569 C 694.949 -2.42132 -2.45899 0
M  V30 7570 C 694.062 -3.68264 -2.25844 0
M  V30 7571 C 693.197 -3.98617 -3.5111 0
M  V30 7572 C 692.236 -5.17915 -3.26236 0
M  V30 7573 N 691.373 -5.44111 -4.4372 0
M  V30 7574 H 696.213 -2.88128 -0.760677 0
M  V30 7575 H 693.75 -1.42523 -0.364099 0
M  V30 7576 H 695.708 -2.6417 -3.22908 0
M  V30 7577 H 694.338 -1.57775 -2.81615 0
M  V30 7578 H 693.39 -3.53809 -1.39726 0
M  V30 7579 H 694.702 -4.55425 -2.03444 0
M  V30 7580 H 693.856 -4.21333 -4.36536 0
M  V30 7581 H 692.595 -3.09942 -3.76546 0
M  V30 7582 H 691.6 -4.95038 -2.39202 0
M  V30 7583 H 692.825 -6.08172 -3.02165 0
M  V30 7584 H 690.771 -4.58394 -4.69266 0
M  V30 7585 H 690.688 -6.25606 -4.24444 0
M  V30 7586 H 691.956 -5.71351 -5.30263 0
M  V30 7587 N 696.185 0.383891 -1.52853 0
M  V30 7588 C 697.41 1.154 -1.7233 0
M  V30 7589 C 697.835 1.82809 -0.44298 0
M  V30 7590 O 697.193 1.71026 0.601645 0
M  V30 7591 C 697.241 2.17386 -2.87708 0
M  V30 7592 O 696.345 3.24082 -2.55038 0
M  V30 7593 H 695.686 0.335709 -0.572883 0
M  V30 7594 H 698.216 0.44662 -1.99666 0
M  V30 7595 H 698.226 2.61296 -3.1335 0
M  V30 7596 H 696.901 1.6771 -3.80587 0
M  V30 7597 H 695.478 2.85273 -2.40153 0
M  V30 7598 N 697.663 1.43903 0.642637 0
M  V30 7599 C 698.626 1.49538 1.73698 0
M  V30 7600 C 699.626 0.378776 1.56275 0
M  V30 7601 O 700.816 0.64095 1.6198 0
M  V30 7602 C 697.948 1.35821 3.12675 0
M  V30 7603 H 699.141 2.47008 1.70079 0
M  V30 7604 H 696.694 1.30824 0.85526 0
M  V30 7605 H 697.429 0.393994 3.21898 0
M  V30 7606 H 697.214 2.16776 3.26727 0
M  V30 7607 H 698.704 1.4272 3.92455 0
M  V30 7608 N 699.141 -0.881989 1.30609 0
M  V30 7609 C 700.088 -1.98803 1.17244 0
M  V30 7610 C 701.058 -1.65987 0.0611905 0
M  V30 7611 O 702.243 -1.89385 0.231911 0
M  V30 7612 C 699.383 -3.33867 0.87333 0
M  V30 7613 C 698.496 -3.79354 2.06675 0
M  V30 7614 C 697.631 -5.03078 1.70547 0
M  V30 7615 C 696.67 -5.40981 2.86366 0
M  V30 7616 N 695.807 -6.55886 2.50514 0
M  V30 7617 H 700.647 -2.09566 2.11863 0
M  V30 7618 H 698.184 -1.02607 1.05405 0
M  V30 7619 H 700.142 -4.11612 0.680519 0
M  V30 7620 H 698.772 -3.2278 -0.0359983 0
M  V30 7621 H 697.824 -2.97492 2.37071 0
M  V30 7622 H 699.136 -4.03382 2.93401 0
M  V30 7623 H 698.29 -5.88457 1.47658 0
M  V30 7624 H 697.029 -4.80927 0.809947 0
M  V30 7625 H 696.034 -4.54127 3.09917 0
M  V30 7626 H 697.259 -5.65104 3.76609 0
M  V30 7627 H 695.205 -6.35306 1.63471 0
M  V30 7628 H 695.122 -6.79799 3.30771 0
M  V30 7629 H 696.39 -7.44489 2.30989 0
M  V30 7630 N 700.619 -1.13374 -1.09472 0
M  V30 7631 C 701.529 -0.824029 -2.19652 0
M  V30 7632 C 702.545 0.19118 -1.72947 0
M  V30 7633 O 703.721 0.0223464 -2.01388 0
M  V30 7634 C 700.786 -0.294009 -3.45451 0
M  V30 7635 C 699.847 -1.3704 -4.0684 0
M  V30 7636 C 699.08 -0.86558 -5.26634 0
M  V30 7637 O 699.303 0.29702 -5.69626 0
M  V30 7638 O 698.237 -1.63968 -5.79136 0
M  V30 7639 H 702.063 -1.74454 -2.48595 0
M  V30 7640 H 699.648 -0.911155 -1.18399 0
M  V30 7641 H 701.53 -0.00381039 -4.214 0
M  V30 7642 H 700.205 0.598921 -3.18111 0
M  V30 7643 H 699.112 -1.71391 -3.3253 0
M  V30 7644 H 700.445 -2.23746 -4.38405 0
M  V30 7645 N 702.098 1.27442 -0.927168 0
M  V30 7646 C 703.514 1.46754 -0.627329 0
M  V30 7647 C 703.714 1.83902 0.823549 0
M  V30 7648 O 702.77 1.95215 1.60148 0
M  V30 7649 C 704.083 2.56045 -1.57674 0
M  V30 7650 C 705.631 2.69906 -1.58491 0
M  V30 7651 C 706.106 3.82355 -2.52128 0
M  V30 7652 N 707.597 3.89728 -2.50332 0
M  V30 7653 C 708.332 4.76155 -3.19475 0
M  V30 7654 N 707.828 5.67073 -3.97995 0
M  V30 7655 N 709.621 4.6988 -3.08496 0
M  V30 7656 H 701.772 1.01613 -1.86517 0
M  V30 7657 H 704.035 0.507443 -0.800753 0
M  V30 7658 H 703.741 2.35542 -2.61176 0
M  V30 7659 H 703.615 3.53423 -1.31804 0
M  V30 7660 H 706.002 2.89792 -0.557208 0
M  V30 7661 H 706.083 1.73018 -1.8841 0
M  V30 7662 H 705.727 3.63224 -3.55008 0
M  V30 7663 H 705.657 4.7867 -2.19505 0
M  V30 7664 H 708.148 3.24717 -1.93306 0
M  V30 7665 H 708.461 6.2988 -4.4774 0
M  V30 7666 H 706.806 5.6687 -4.02098 0
M  V30 7667 H 709.997 3.97848 -2.46646 0
M  V30 7668 H 710.17 5.37017 -3.62652 0
M  V30 7669 N 703.576 0.692616 1.41565 0
M  V30 7670 C 704.992 0.363878 1.55397 0
M  V30 7671 C 705.192 -1.1294 1.66874 0
M  V30 7672 O 704.248 -1.91517 1.64552 0
M  V30 7673 C 705.561 1.10982 2.7947 0
M  V30 7674 C 707.109 1.09387 2.93263 0
M  V30 7675 C 707.584 1.8215 4.20221 0
M  V30 7676 N 709.075 1.79105 4.27172 0
M  V30 7677 C 709.81 2.32247 5.2426 0
M  V30 7678 N 709.306 2.93847 6.27396 0
M  V30 7679 N 711.099 2.22519 5.1618 0
M  V30 7680 H 703.25 1.66116 1.3236 0
M  V30 7681 H 705.513 0.700848 0.63837 0
M  V30 7682 H 705.219 2.1647 2.77188 0
M  V30 7683 H 705.093 0.686492 3.709 0
M  V30 7684 H 707.48 0.0472638 2.95062 0
M  V30 7685 H 707.561 1.55623 2.03015 0
M  V30 7686 H 707.205 2.86789 4.19183 0
M  V30 7687 H 707.135 1.33351 5.09436 0
M  V30 7688 H 709.626 1.34191 3.53272 0
M  V30 7689 H 709.939 3.31972 6.97864 0
M  V30 7690 H 708.284 2.97924 6.27906 0
M  V30 7691 H 711.475 1.7407 4.34531 0
M  V30 7692 H 711.648 2.64239 5.91677 0
M  V30 7693 N 705.054 -1.51416 0.437162 0
M  V30 7694 C 706.002 -2.29328 -0.388765 0
M  V30 7695 C 706.996 -1.35171 -1.02104 0
M  V30 7696 O 708.202 -1.52513 -0.956024 0
M  V30 7697 H 704.577 -0.738048 -0.144183 0
M  V30 7698 H 706.548 -2.96995 0.289212 0
M  V30 7699 C 705.297 -3.14741 -1.47761 0
M  V30 7700 H 704.62 -3.8708 -1.00045 0
M  V30 7701 H 706.06 -3.72313 -2.02877 0
M  V30 7702 C 704.519 -2.30105 -2.46076 0
M  V30 7703 O 705.049 -1.96055 -3.50607 0
M  V30 7704 N 703.255 -1.93331 -2.1696 0
M  V30 7705 H 702.802 -2.2122 -1.31983 0
M  V30 7706 H 702.76 -1.36999 -2.82982 0
M  V30 7707 N 706.532 -0.168513 -1.56696 0
M  V30 7708 C 707.948 0.187686 -1.58493 0
M  V30 7709 C 708.148 1.63063 -1.18375 0
M  V30 7710 O 707.204 2.36142 -0.894042 0
M  V30 7711 C 708.517 -0.0905858 -3.00564 0
M  V30 7712 C 710.065 -0.028575 -3.12987 0
M  V30 7713 C 710.54 -0.279799 -4.57145 0
M  V30 7714 N 712.031 -0.227476 -4.62641 0
M  V30 7715 C 712.766 -0.396073 -5.7203 0
M  V30 7716 N 712.262 -0.623572 -6.89988 0
M  V30 7717 N 714.055 -0.332173 -5.61118 0
M  V30 7718 H 706.206 -1.11042 -1.81062 0
M  V30 7719 H 708.469 -0.441235 -0.839056 0
M  V30 7720 H 708.175 -1.09006 -3.34381 0
M  V30 7721 H 708.049 0.619078 -3.72085 0
M  V30 7722 H 710.436 0.961471 -2.78998 0
M  V30 7723 H 710.517 -0.770905 -2.43907 0
M  V30 7724 H 710.161 -1.26704 -4.91842 0
M  V30 7725 H 710.091 0.48311 -5.24379 0
M  V30 7726 H 712.582 -0.0571723 -3.77857 0
M  V30 7727 H 712.895 -0.741745 -7.69232 0
M  V30 7728 H 711.24 -0.660153 -6.91858 0
M  V30 7729 H 714.431 -0.155051 -4.67843 0
M  V30 7730 H 714.604 -0.466994 -6.46315 0
M  V30 7731 N 708.01 1.57248 0.105221 0
M  V30 7732 C 709.426 1.52853 0.459153 0
M  V30 7733 C 709.626 0.883674 1.8109 0
M  V30 7734 O 708.682 0.471864 2.48052 0
M  V30 7735 C 709.995 2.97596 0.43096 0
M  V30 7736 C 711.543 3.08758 0.513536 0
M  V30 7737 C 712.018 4.55089 0.515593 0
M  V30 7738 N 713.509 4.59597 0.576639 0
M  V30 7739 C 714.244 5.70253 0.599904 0
M  V30 7740 N 713.74 6.90368 0.579985 0
M  V30 7741 N 715.533 5.58399 0.643953 0
M  V30 7742 H 707.684 1.97547 -0.780306 0
M  V30 7743 H 709.947 0.902758 -0.289363 0
M  V30 7744 H 709.653 3.48201 -0.494903 0
M  V30 7745 H 709.527 3.55756 1.2537 0
M  V30 7746 H 711.914 2.58148 1.42982 0
M  V30 7747 H 711.995 2.53568 -0.337148 0
M  V30 7748 H 711.639 5.06348 -0.396701 0
M  V30 7749 H 711.569 5.08105 1.38335 0
M  V30 7750 H 714.06 3.73144 0.597639 0
M  V30 7751 H 714.373 7.70462 0.600741 0
M  V30 7752 H 712.718 6.92843 0.547191 0
M  V30 7753 H 715.909 4.63467 0.656975 0
M  V30 7754 H 716.082 6.44644 0.658616 0
M  V30 7755 N 709.488 -0.375779 1.53054 0
M  V30 7756 C 710.435 -1.45978 1.78771 0
M  V30 7757 C 711.405 -1.53625 0.631552 0
M  V30 7758 O 712.59 -1.69674 0.872667 0
M  V30 7759 C 709.73 -2.8305 1.97425 0
M  V30 7760 C 708.843 -2.84451 3.25134 0
M  V30 7761 C 707.978 -4.13034 3.34031 0
M  V30 7762 C 707.017 -4.08536 4.55812 0
M  V30 7763 N 706.154 -5.2875 4.61918 0
M  V30 7764 H 710.994 -1.23349 2.71273 0
M  V30 7765 H 708.531 -0.598147 1.3439 0
M  V30 7766 H 710.489 -3.62666 2.06225 0
M  V30 7767 H 709.119 -3.04101 1.0827 0
M  V30 7768 H 708.171 -1.97127 3.25338 0
M  V30 7769 H 709.483 -2.76998 4.14818 0
M  V30 7770 H 708.637 -5.0106 3.42087 0
M  V30 7771 H 707.376 -4.23226 2.42345 0
M  V30 7772 H 706.381 -3.18897 4.47867 0
M  V30 7773 H 707.606 -3.99955 5.48828 0
M  V30 7774 H 705.552 -5.39547 3.73129 0
M  V30 7775 H 705.469 -5.23426 5.45492 0
M  V30 7776 H 706.737 -6.18637 4.74245 0
M  V30 7777 N 710.966 -1.44241 -0.634997 0
M  V30 7778 C 711.913 -1.5081 -1.74714 0
M  V30 7779 C 712.883 -0.356147 -1.62237 0
M  V30 7780 O 714.068 -0.565848 -1.82216 0
M  V30 7781 C 711.208 -1.45458 -3.12947 0
M  V30 7782 C 710.321 -2.70998 -3.36428 0
M  V30 7783 C 709.456 -2.57507 -4.64611 0
M  V30 7784 C 708.495 -3.78229 -4.81258 0
M  V30 7785 N 707.632 -3.63438 -6.00714 0
M  V30 7786 H 712.472 -2.45832 -1.68436 0
M  V30 7787 H 710.009 -1.2201 -0.821706 0
M  V30 7788 H 711.967 -1.40347 -3.92885 0
M  V30 7789 H 710.597 -0.540058 -3.1825 0
M  V30 7790 H 709.649 -2.86312 -2.50458 0
M  V30 7791 H 710.961 -3.60619 -3.44609 0
M  V30 7792 H 710.115 -2.50207 -5.52703 0
M  V30 7793 H 708.854 -1.65441 -4.58782 0
M  V30 7794 H 707.859 -3.85918 -3.91596 0
M  V30 7795 H 709.084 -4.71327 -4.88904 0
M  V30 7796 H 707.03 -2.7412 -5.95982 0
M  V30 7797 H 706.947 -4.46672 -6.09934 0
M  V30 7798 H 708.215 -3.60022 -6.91378 0
M  V30 7799 N 712.444 0.87505 -1.31075 0
M  V30 7800 C 713.391 1.98178 -1.18296 0
M  V30 7801 C 714.361 1.65952 -0.0699923 0
M  V30 7802 O 715.546 1.8926 -0.241951 0
M  V30 7803 C 712.686 3.33399 -0.891024 0
M  V30 7804 C 711.799 3.78253 -2.08684 0
M  V30 7805 C 710.934 5.02166 -1.73212 0
M  V30 7806 C 709.973 5.39455 -2.89231 0
M  V30 7807 N 709.11 6.54549 -2.53989 0
M  V30 7808 H 713.95 2.0844 -2.12971 0
M  V30 7809 H 711.487 1.02047 -1.05948 0
M  V30 7810 H 713.445 4.11246 -0.702338 0
M  V30 7811 H 712.075 3.22794 0.0188799 0
M  V30 7812 H 711.127 2.9623 -2.38646 0
M  V30 7813 H 712.439 4.01821 -2.95536 0
M  V30 7814 H 711.593 5.87666 -1.50777 0
M  V30 7815 H 710.332 4.80491 -0.83544 0
M  V30 7816 H 709.337 4.52477 -3.12321 0
M  V30 7817 H 710.562 5.63098 -3.79601 0
M  V30 7818 H 708.508 6.3443 -1.66838 0
M  V30 7819 H 708.425 6.78035 -3.34372 0
M  V30 7820 H 709.693 7.43254 -2.34934 0
M  V30 7821 N 713.922 1.13953 1.08869 0
M  V30 7822 C 714.87 0.817664 2.17754 0
M  V30 7823 C 715.864 -0.202444 1.68186 0
M  V30 7824 O 717.07 -0.0590159 1.79903 0
M  V30 7825 H 713.445 0.246671 0.710392 0
M  V30 7826 H 715.416 1.74401 2.4213 0
M  V30 7827 C 714.165 0.3063 3.46348 0
M  V30 7828 H 713.488 1.08259 3.84864 0
M  V30 7829 H 714.928 0.119584 4.23831 0
M  V30 7830 C 713.387 -0.969158 3.22659 0
M  V30 7831 O 713.917 -2.04386 3.45817 0
M  V30 7832 N 712.123 -0.902516 2.7623 0
M  V30 7833 H 711.67 -0.027801 2.57585 0
M  V30 7834 H 711.628 -1.75649 2.60758 0
M  V30 7835 N 715.4 -1.26948 0.933913 0
M  V30 7836 C 716.332 -2.25768 0.395137 0
M  V30 7837 C 717.345 -1.55637 -0.477585 0
M  V30 7838 O 718.534 -1.76142 -0.289204 0
M  V30 7839 C 715.634 -3.35874 -0.451882 0
M  V30 7840 C 714.807 -4.3554 0.40299 0
M  V30 7841 C 713.866 -5.24809 -0.3824 0
M  V30 7842 O 712.892 -5.68805 0.212057 0
M  V30 7843 N 714.094 -5.55636 -1.68072 0
M  V30 7844 H 716.859 -2.72634 1.24463 0
M  V30 7845 H 714.42 -1.40639 0.802008 0
M  V30 7846 H 716.412 -3.92542 -0.984516 0
M  V30 7847 H 714.982 -2.8856 -1.20215 0
M  V30 7848 H 714.202 -3.78047 1.11688 0
M  V30 7849 H 715.49 -4.99131 0.987201 0
M  V30 7850 H 714.888 -5.2176 -2.18592 0
M  V30 7851 H 713.445 -6.14978 -2.15975 0
M  V30 7852 N 716.879 -0.700114 -1.41195 0
M  V30 7853 C 717.826 -0.0376652 -2.30769 0
M  V30 7854 C 718.796 0.766544 -1.47354 0
M  V30 7855 O 719.981 0.73365 -1.76131 0
M  V30 7856 C 717.121 0.889452 -3.33441 0
M  V30 7857 C 716.234 0.076373 -4.31932 0
M  V30 7858 C 715.369 1.00155 -5.21673 0
M  V30 7859 C 714.408 0.181644 -6.1183 0
M  V30 7860 N 713.545 1.06087 -6.94039 0
M  V30 7861 H 718.385 -0.80726 -2.86858 0
M  V30 7862 H 715.922 -0.409798 -1.41277 0
M  V30 7863 H 717.88 1.44107 -3.91522 0
M  V30 7864 H 716.51 1.6254 -2.78892 0
M  V30 7865 H 715.562 -0.592223 -3.75762 0
M  V30 7866 H 716.874 -0.559076 -4.95657 0
M  V30 7867 H 716.028 1.62223 -5.8461 0
M  V30 7868 H 714.767 1.67085 -4.58186 0
M  V30 7869 H 713.772 -0.452085 -5.47938 0
M  V30 7870 H 714.997 -0.483925 -6.77374 0
M  V30 7871 H 712.943 1.7161 -6.33156 0
M  V30 7872 H 712.86 0.481094 -7.54468 0
M  V30 7873 H 714.128 1.66822 -7.6144 0
M  V30 7874 N 718.357 1.51182 -0.445186 0
M  V30 7875 C 719.304 2.27939 0.362291 0
M  V30 7876 C 720.274 1.31864 1.01 0
M  V30 7877 O 721.459 1.60776 1.02741 0
M  V30 7878 C 718.599 3.13016 1.45311 0
M  V30 7879 C 717.712 4.24093 0.822757 0
M  V30 7880 C 716.847 4.96467 1.88928 0
M  V30 7881 C 715.886 5.99454 1.23778 0
M  V30 7882 N 715.023 6.65206 2.24602 0
M  V30 7883 H 719.863 2.965 -0.29862 0
M  V30 7884 H 717.4 1.46237 -0.15911 0
M  V30 7885 H 719.358 3.60673 2.09692 0
M  V30 7886 H 717.988 2.46553 2.08354 0
M  V30 7887 H 717.04 3.80341 0.0670364 0
M  V30 7888 H 718.352 4.97853 0.307184 0
M  V30 7889 H 717.506 5.47712 2.60953 0
M  V30 7890 H 716.245 4.22355 2.4386 0
M  V30 7891 H 715.25 5.47494 0.503042 0
M  V30 7892 H 716.475 6.75527 0.695694 0
M  V30 7893 H 714.421 5.93901 2.78599 0
M  V30 7894 H 714.338 7.34756 1.77958 0
M  V30 7895 H 715.606 7.21078 2.96085 0
M  V30 7896 N 719.835 0.176821 1.56605 0
M  V30 7897 C 720.765 -0.746841 2.21234 0
M  V30 7898 C 721.746 -1.23502 1.16967 0
M  V30 7899 O 722.931 -1.28718 1.45414 0
M  V30 7900 C 720.061 -1.97407 2.8574 0
M  V30 7901 C 719.015 -1.62153 3.96094 0
M  V30 7902 C 718.341 -2.92387 4.47676 0
M  V30 7903 C 719.641 -0.845353 5.15413 0
M  V30 7904 H 721.335 -0.208116 2.98676 0
M  V30 7905 H 718.881 -0.0986594 1.43662 0
M  V30 7906 H 720.834 -2.62531 3.2963 0
M  V30 7907 H 719.558 -2.53703 2.05676 0
M  V30 7908 H 718.217 -0.993964 3.52868 0
M  V30 7909 H 717.865 -3.46734 3.64396 0
M  V30 7910 H 717.565 -2.69551 5.22127 0
M  V30 7911 H 719.089 -3.5853 4.94255 0
M  V30 7912 H 720.503 -1.39929 5.55961 0
M  V30 7913 H 718.9 -0.715814 5.95815 0
M  V30 7914 H 719.97 0.157239 4.84645 0
M  V30 7915 N 721.313 -1.57302 -0.09688 0
M  V30 7916 C 722.538 -1.9058 -0.818169 0
M  V30 7917 C 722.963 -0.770921 -1.71576 0
M  V30 7918 O 722.321 0.277588 -1.79162 0
M  V30 7919 C 722.369 -3.22714 -1.60898 0
M  V30 7920 O 721.473 -3.10178 -2.71779 0
M  V30 7921 H 720.814 -0.624759 -0.224882 0
M  V30 7922 H 723.344 -2.04471 -0.07264 0
M  V30 7923 H 723.354 -3.55978 -1.99358 0
M  V30 7924 H 722.029 -4.04899 -0.950227 0
M  V30 7925 H 720.606 -2.88424 -2.3636 0
M  V30 7926 N 722.791 0.367657 -1.53252 0
M  V30 7927 C 724.016 1.13566 -1.73544 0
M  V30 7928 C 724.441 1.82329 -0.462344 0
M  V30 7929 O 723.799 1.71655 0.583472 0
M  V30 7930 C 723.847 2.14322 -2.89997 0
M  V30 7931 O 722.951 3.21359 -2.58461 0
M  V30 7932 H 722.292 0.329614 -0.576412 0
M  V30 7933 H 724.822 0.425417 -2.00128 0
M  V30 7934 H 724.832 2.57958 -3.16104 0
M  V30 7935 H 723.507 1.63664 -3.82344 0
M  V30 7936 H 722.084 2.8271 -2.43165 0
M  V30 7937 N 724.269 1.44576 0.627338 0
M  V30 7938 C 725.517 1.47267 1.38408 0
M  V30 7939 C 725.838 0.107971 1.94701 0
M  V30 7940 O 725.108 -0.860206 1.76004 0
M  V30 7941 H 723.688 0.542276 0.513756 0
M  V30 7942 H 726.35 1.80383 0.738099 0
M  V30 7943 H 725.446 2.20025 2.21349 0
M  V30 7944 N 725.747 -0.868086 1.31537 0
M  V30 7945 C 726.657 -2.00801 1.21311 0
M  V30 7946 C 727.673 -1.73518 0.129431 0
M  V30 7947 O 728.849 -1.98378 0.347588 0
M  V30 7948 C 725.914 -3.3419 0.922935 0
M  V30 7949 C 724.975 -3.74783 2.0937 0
M  V30 7950 C 724.208 -5.01807 1.81728 0
M  V30 7951 O 724.431 -5.65404 0.753313 0
M  V30 7952 O 723.365 -5.39213 2.67457 0
M  V30 7953 H 727.191 -2.12361 2.17109 0
M  V30 7954 H 724.776 -0.996684 1.11295 0
M  V30 7955 H 726.658 -4.14174 0.777033 0
M  V30 7956 H 725.333 -3.237 -0.00500301 0
M  V30 7957 H 724.24 -2.95432 2.29501 0
M  V30 7958 H 725.573 -3.89902 3.00396 0
M  V30 7959 N 727.225 -1.14528 -1.08264 0
M  V30 7960 C 728.135 -0.84728 -2.18765 0
M  V30 7961 C 729.151 0.172826 -1.7314 0
M  V30 7962 O 730.327 0.000985336 -2.014 0
M  V30 7963 C 727.392 -0.330633 -3.4512 0
M  V30 7964 C 726.453 -1.41348 -4.05363 0
M  V30 7965 C 725.686 -0.921387 -5.25686 0
M  V30 7966 O 725.909 0.236587 -5.69909 0
M  V30 7967 O 724.843 -1.70101 -5.77364 0
M  V30 7968 H 728.669 -1.7708 -2.46731 0
M  V30 7969 H 726.254 -0.923661 -1.17426 0
M  V30 7970 H 728.136 -0.0485053 -4.21372 0
M  V30 7971 H 726.811 0.565147 -3.18728 0
M  V30 7972 H 725.718 -1.74908 -3.30693 0
M  V30 7973 H 727.051 -2.28383 -4.36007 0
M  V30 7974 N 728.703 1.26451 -0.940633 0
M  V30 7975 C 729.65 2.264 -0.448497 0
M  V30 7976 C 730.62 1.5866 0.491546 0
M  V30 7977 O 731.805 1.86389 0.407874 0
M  V30 7978 C 728.945 3.43956 0.280715 0
M  V30 7979 C 728.058 4.26374 -0.694937 0
M  V30 7980 C 727.193 5.31171 0.0554186 0
M  V30 7981 C 726.232 6.05266 -0.912091 0
M  V30 7982 N 725.369 7.01833 -0.193524 0
M  V30 7983 H 730.209 2.67869 -1.30576 0
M  V30 7984 H 727.746 1.31707 -0.655112 0
M  V30 7985 H 729.704 4.10941 0.71994 0
M  V30 7986 H 728.334 3.03403 1.10212 0
M  V30 7987 H 727.386 3.59183 -1.25267 0
M  V30 7988 H 728.698 4.77748 -1.43382 0
M  V30 7989 H 727.852 6.04166 0.553951 0
M  V30 7990 H 726.591 4.80634 0.827183 0
M  V30 7991 H 725.596 5.31099 -1.42175 0
M  V30 7992 H 726.821 6.57893 -1.68385 0
M  V30 7993 H 724.767 6.53607 0.559758 0
M  V30 7994 H 724.684 7.50957 -0.871744 0
M  V30 7995 H 725.952 7.78983 0.283932 0
M  V30 7996 N 730.181 0.707592 1.40822 0
M  V30 7997 C 731.429 0.243189 2.00632 0
M  V30 7998 C 731.75 -1.16512 1.56365 0
M  V30 7999 O 731.02 -1.78841 0.799553 0
M  V30 8000 H 729.6 0.0869203 0.741926 0
M  V30 8001 H 732.262 0.911438 1.72275 0
M  V30 8002 H 731.358 0.270014 3.1093 0
M  V30 8003 N 731.66 -1.50943 0.453197 0
M  V30 8004 C 732.937 -1.94872 -0.168633 0
M  V30 8005 C 733.317 -1.39272 -1.5864 0
M  V30 8006 O 732.665 -0.586272 -2.20851 0
M  V30 8007 C 732.875 -3.48757 -0.130217 0
M  V30 8008 C 734.223 -4.23331 -0.327975 0
M  V30 8009 O 735.247 -3.55594 -0.207619 0
M  V30 8010 O 734.106 -5.43529 -0.569077 0
M  V30 8011 H 731.2 -0.818042 -0.121394 0
M  V30 8012 H 733.746 -1.61782 0.512316 0
M  V30 8013 H 732.518 -3.81725 0.860346 0
M  V30 8014 H 732.141 -3.88333 -0.853397 0
M  V30 8015 N 733.138 -0.185124 -1.56509 0
M  V30 8016 C 734.101 0.72591 -2.17401 0
M  V30 8017 C 735.101 1.14819 -1.12575 0
M  V30 8018 O 736.291 1.0629 -1.38015 0
M  V30 8019 C 733.423 1.98979 -2.76803 0
M  V30 8020 H 734.616 0.195588 -2.99262 0
M  V30 8021 H 732.169 0.0644772 -1.56167 0
M  V30 8022 H 732.904 2.56287 -1.98714 0
M  V30 8023 H 732.689 1.69583 -3.53531 0
M  V30 8024 H 734.179 2.63966 -3.23592 0
M  V30 8025 N 734.616 1.57351 0.0885366 0
M  V30 8026 C 735.526 2.05858 1.12516 0
M  V30 8027 C 736.542 0.984758 1.43452 0
M  V30 8028 O 737.718 1.29836 1.53963 0
M  V30 8029 C 734.783 2.47882 2.42395 0
M  V30 8030 C 733.844 3.69487 2.18582 0
M  V30 8031 C 733.077 4.09497 3.42268 0
M  V30 8032 O 733.3 3.49536 4.50755 0
M  V30 8033 O 732.234 5.02406 3.31469 0
M  V30 8034 H 736.06 2.94467 0.743146 0
M  V30 8035 H 733.645 1.46326 0.301507 0
M  V30 8036 H 735.527 2.75509 3.18862 0
M  V30 8037 H 734.202 1.62408 2.8001 0
M  V30 8038 H 733.109 3.46967 1.39875 0
M  V30 8039 H 734.442 4.55761 1.85857 0
M  V30 8040 N 736.094 -0.359525 1.53444 0
M  V30 8041 C 737.041 -1.44073 1.8031 0
M  V30 8042 C 738.011 -1.52946 0.647811 0
M  V30 8043 O 739.196 -1.68739 0.890614 0
M  V30 8044 C 736.336 -2.80941 2.00416 0
M  V30 8045 C 735.449 -2.80986 3.28132 0
M  V30 8046 C 734.584 -4.09468 3.38393 0
M  V30 8047 C 733.623 -4.03679 4.60119 0
M  V30 8048 N 732.76 -5.23821 4.675 0
M  V30 8049 H 737.6 -1.20464 2.72566 0
M  V30 8050 H 735.137 -0.583859 1.35017 0
M  V30 8051 H 737.095 -3.60459 2.1006 0
M  V30 8052 H 735.725 -3.02936 1.11489 0
M  V30 8053 H 734.777 -1.93666 3.27411 0
M  V30 8054 H 736.089 -2.72583 4.17732 0
M  V30 8055 H 735.243 -4.97404 3.47382 0
M  V30 8056 H 733.982 -4.20632 2.4682 0
M  V30 8057 H 732.987 -3.14129 4.51224 0
M  V30 8058 H 734.212 -3.94112 5.5304 0
M  V30 8059 H 732.158 -5.35559 3.7883 0
M  V30 8060 H 732.075 -5.17611 5.51013 0
M  V30 8061 H 733.343 -6.13572 4.8078 0
M  V30 8062 N 737.572 -1.44907 -0.619662 0
M  V30 8063 C 738.502 -1.55488 -1.742 0
M  V30 8064 C 739.483 -0.407143 -1.65156 0
M  V30 8065 O 740.668 -0.628743 -1.8374 0
M  V30 8066 C 737.798 -1.5097 -3.1277 0
M  V30 8067 C 736.752 -2.64337 -3.36615 0
M  V30 8068 C 736.078 -2.44872 -4.75333 0
M  V30 8069 C 737.378 -4.06423 -3.28051 0
M  V30 8070 H 739.072 -2.49432 -1.65602 0
M  V30 8071 H 736.618 -1.20047 -0.795281 0
M  V30 8072 H 738.571 -1.56971 -3.91073 0
M  V30 8073 H 737.295 -0.535486 -3.2218 0
M  V30 8074 H 735.954 -2.57744 -2.60698 0
M  V30 8075 H 735.602 -1.45617 -4.81461 0
M  V30 8076 H 735.302 -3.20888 -4.92244 0
M  V30 8077 H 736.826 -2.52709 -5.55851 0
M  V30 8078 H 738.24 -4.14324 -3.96243 0
M  V30 8079 H 736.637 -4.82733 -3.56495 0
M  V30 8080 H 737.707 -4.29183 -2.25676 0
M  V30 8081 N 739.05 0.861098 -1.31996 0
M  V30 8082 C 740.275 1.65264 -1.2531 0
M  V30 8083 C 740.7 1.87265 0.177007 0
M  V30 8084 O 740.058 1.4208 1.12619 0
M  V30 8085 C 740.106 2.99284 -2.0115 0
M  V30 8086 O 739.21 3.89508 -1.3549 0
M  V30 8087 H 738.551 0.50409 -0.432192 0
M  V30 8088 H 741.081 1.07297 -1.74208 0
M  V30 8089 H 741.091 3.49154 -2.11081 0
M  V30 8090 H 739.766 2.82591 -3.05148 0
M  V30 8091 H 738.343 3.47966 -1.34066 0
M  V30 8092 N 740.528 1.15101 1.07655 0
M  V30 8093 C 741.475 0.844958 2.14777 0
M  V30 8094 C 742.445 -0.200798 1.64882 0
M  V30 8095 O 743.63 -0.0690278 1.90675 0
M  V30 8096 C 740.77 0.337018 3.4345 0
M  V30 8097 C 739.883 1.44398 4.07153 0
M  V30 8098 C 739.018 0.892487 5.23649 0
M  V30 8099 C 738.057 1.9766 5.79307 0
M  V30 8100 N 737.194 1.44171 6.87138 0
M  V30 8101 H 742.034 1.76242 2.40297 0
M  V30 8102 H 739.571 0.879435 1.17917 0
M  V30 8103 H 741.529 0.024256 4.17193 0
M  V30 8104 H 740.159 -0.543531 3.18191 0
M  V30 8105 H 739.211 1.87299 3.31094 0
M  V30 8106 H 740.523 2.26262 4.4453 0
M  V30 8107 H 739.677 0.532083 6.04362 0
M  V30 8108 H 738.416 0.0429854 4.87681 0
M  V30 8109 H 737.421 2.34586 4.97242 0
M  V30 8110 H 738.646 2.82982 6.17331 0
M  V30 8111 H 736.592 0.614518 6.53115 0
M  V30 8112 H 736.509 2.19665 7.23383 0
M  V30 8113 H 737.777 1.10945 7.71564 0
M  V30 8114 N 742.006 -1.2595 0.947325 0
M  V30 8115 C 743.231 -1.98083 0.614633 0
M  V30 8116 C 743.656 -1.70013 -0.804815 0
M  V30 8117 O 743.014 -0.95175 -1.54309 0
M  V30 8118 C 743.062 -3.4993 0.870706 0
M  V30 8119 O 742.166 -4.12364 -0.0541451 0
M  V30 8120 H 741.507 -0.621232 0.234451 0
M  V30 8121 H 744.037 -1.60259 1.27193 0
M  V30 8122 H 744.047 -4.00198 0.794051 0
M  V30 8123 H 742.722 -3.69691 1.90529 0
M  V30 8124 H 741.299 -3.72826 0.0740917 0
M  V30 8125 N 743.484 -0.715051 -1.40445 0
M  V30 8126 C 744.394 -0.0631624 -2.34515 0
M  V30 8127 C 745.41 0.744397 -1.57273 0
M  V30 8128 O 746.586 0.677475 -1.89663 0
M  V30 8129 C 743.651 0.847915 -3.36172 0
M  V30 8130 C 742.712 0.0303655 -4.29289 0
M  V30 8131 C 741.945 0.898051 -5.2609 0
M  V30 8132 O 742.168 2.13729 -5.28844 0
M  V30 8133 O 741.102 0.337328 -6.00954 0
M  V30 8134 H 744.928 -0.839078 -2.91879 0
M  V30 8135 H 742.513 -0.475527 -1.4163 0
M  V30 8136 H 744.395 1.3698 -3.98515 0
M  V30 8137 H 743.07 1.60299 -2.81222 0
M  V30 8138 H 741.977 -0.536573 -3.70232 0
M  V30 8139 H 743.31 -0.686474 -4.87389 0
M  V30 8140 N 744.962 1.50701 -0.461195 0
M  V30 8141 C 746.187 2.07171 0.0974773 0
M  V30 8142 C 746.612 1.32391 1.3362 0
M  V30 8143 O 745.97 0.368676 1.77512 0
M  V30 8144 C 746.018 3.58651 0.374409 0
M  V30 8145 O 745.122 3.85816 1.4567 0
M  V30 8146 H 744.463 0.663944 -0.00862047 0
M  V30 8147 H 746.993 1.94021 -0.649394 0
M  V30 8148 H 747.003 4.03295 0.617843 0
M  V30 8149 H 745.678 4.12498 -0.530829 0
M  V30 8150 H 744.255 3.53018 1.20136 0
M  V30 8151 N 746.441 0.193421 1.56409 0
M  V30 8152 C 747.351 -0.740112 2.2262 0
M  V30 8153 C 748.367 -1.23597 1.22474 0
M  V30 8154 O 749.543 -1.28348 1.55206 0
M  V30 8155 C 746.608 -1.94317 2.87127 0
M  V30 8156 C 745.669 -1.49205 4.02538 0
M  V30 8157 C 744.902 -2.63776 4.63959 0
M  V30 8158 O 745.125 -3.81215 4.24301 0
M  V30 8159 O 744.059 -2.36585 5.53454 0
M  V30 8160 H 747.885 -0.206238 3.02999 0
M  V30 8161 H 745.47 -0.0357938 1.49357 0
M  V30 8162 H 747.352 -2.64633 3.27944 0
M  V30 8163 H 746.027 -2.46568 2.09728 0
M  V30 8164 H 744.934 -0.757738 3.66346 0
M  V30 8165 H 746.267 -1.01622 4.81595 0
M  V30 8166 N 747.919 -1.57396 -0.0801906 0
M  V30 8167 C 749.196 -1.77883 -0.813451 0
M  V30 8168 C 749.576 -0.778879 -1.96206 0
M  V30 8169 O 748.924 0.189683 -2.27711 0
M  V30 8170 C 749.134 -3.24116 -1.2942 0
M  V30 8171 C 750.482 -3.87714 -1.73098 0
M  V30 8172 O 751.506 -3.27956 -1.39007 0
M  V30 8173 O 750.365 -4.92828 -2.36184 0
M  V30 8174 H 747.459 -0.729727 -0.389138 0
M  V30 8175 H 750.005 -1.69591 -0.0609166 0
M  V30 8176 H 748.777 -3.88443 -0.471947 0
M  V30 8177 H 748.4 -3.371 -2.1083 0
M  V30 8178 N 749.397 0.351382 -1.53633 0
M  V30 8179 C 750.622 1.11718 -1.74739 0
M  V30 8180 C 751.047 1.81829 -0.481657 0
M  V30 8181 O 750.405 1.72264 0.565233 0
M  V30 8182 C 750.453 2.11234 -2.92254 0
M  V30 8183 O 749.557 3.186 -2.61855 0
M  V30 8184 H 748.898 0.323482 -0.579875 0
M  V30 8185 H 751.428 0.404167 -2.00568 0
M  V30 8186 H 751.438 2.54591 -3.18822 0
M  V30 8187 H 750.113 1.59599 -3.84058 0
M  V30 8188 H 748.69 2.80115 -2.4615 0
M  V30 8189 N 750.875 1.45233 0.611969 0
M  V30 8190 C 752.124 1.48296 1.36716 0
M  V30 8191 C 752.437 0.12706 1.95187 0
M  V30 8192 O 753.643 0.0353066 2.71477 0
M  V30 8193 C 752.099 2.61168 2.47627 0
M  V30 8194 C 751.707 4.03051 1.95587 0
M  V30 8195 C 753.451 2.73472 3.24674 0
M  V30 8196 C 751.358 5.07312 3.03954 0
M  V30 8197 H 750.288 0.5518 0.513841 0
M  V30 8198 H 752.939 1.7136 0.656359 0
M  V30 8199 H 751.321 2.31379 3.21372 0
M  V30 8200 H 752.495 4.42497 1.2858 0
M  V30 8201 H 750.81 3.95158 1.31298 0
M  V30 8202 H 753.407 3.48537 4.05494 0
M  V30 8203 H 753.75 1.79953 3.75397 0
M  V30 8204 H 754.283 3.02765 2.58028 0
M  V30 8205 H 751.022 6.02525 2.58154 0
M  V30 8206 H 750.542 4.7244 3.69541 0
M  V30 8207 H 752.221 5.31867 3.6841 0
M  V30 8208 N 752.353 -0.854086 1.3245 0
M  V30 8209 C 753.769 -1.14238 1.11453 0
M  V30 8210 C 753.969 -2.01228 -0.10461 0
M  V30 8211 O 753.025 -2.39845 -0.789339 0
M  V30 8212 C 754.338 -1.81916 2.39431 0
M  V30 8213 C 755.886 -1.94549 2.45193 0
M  V30 8214 C 756.361 -2.65642 3.73093 0
M  V30 8215 N 757.852 -2.73167 3.74078 0
M  V30 8216 C 758.587 -3.28828 4.69744 0
M  V30 8217 N 758.083 -3.85295 5.75778 0
M  V30 8218 N 759.876 -3.26936 4.57241 0
M  V30 8219 H 752.027 -0.274786 2.10615 0
M  V30 8220 H 754.29 -0.184375 0.929898 0
M  V30 8221 H 753.996 -1.25452 3.28565 0
M  V30 8222 H 753.87 -2.82068 2.50434 0
M  V30 8223 H 756.257 -2.50172 1.56518 0
M  V30 8224 H 756.338 -0.933914 2.38142 0
M  V30 8225 H 755.982 -2.10683 4.62142 0
M  V30 8226 H 755.912 -3.6724 3.77415 0
M  V30 8227 H 758.403 -2.33108 2.97438 0
M  V30 8228 H 758.716 -4.25925 6.44832 0
M  V30 8229 H 757.061 -3.83625 5.79531 0
M  V30 8230 H 760.252 -2.8207 3.7357 0
M  V30 8231 H 760.425 -3.70014 5.31971 0
M  V30 8232 N 753.831 -1.1567 -1.07043 0
M  V30 8233 C 755.247 -0.900006 -1.31803 0
M  V30 8234 C 755.447 0.451293 -1.96381 0
M  V30 8235 O 754.503 1.19252 -2.22565 0
M  V30 8236 C 755.816 -2.04334 -2.20609 0
M  V30 8237 C 757.364 -2.07823 -2.34048 0
M  V30 8238 C 757.839 -3.21488 -3.26204 0
M  V30 8239 N 759.33 -3.21156 -3.33786 0
M  V30 8240 C 760.065 -4.05746 -4.05163 0
M  V30 8241 N 759.561 -5.00407 -4.79129 0
M  V30 8242 N 761.354 -3.93759 -4.01136 0
M  V30 8243 H 753.505 -2.02681 -0.635146 0
M  V30 8244 H 755.768 -0.883956 -0.342528 0
M  V30 8245 H 755.474 -3.01895 -1.80423 0
M  V30 8246 H 755.348 -1.97838 -3.21154 0
M  V30 8247 H 757.735 -1.1086 -2.73485 0
M  V30 8248 H 757.816 -2.18386 -1.33197 0
M  V30 8249 H 757.46 -4.18706 -2.87485 0
M  V30 8250 H 757.39 -3.08162 -4.27017 0
M  V30 8251 H 759.881 -2.52606 -2.81067 0
M  V30 8252 H 760.194 -5.61387 -5.31097 0
M  V30 8253 H 758.539 -5.04393 -4.78135 0
M  V30 8254 H 761.73 -3.19115 -3.42466 0
M  V30 8255 H 761.903 -4.59906 -4.56498 0
M  V30 8256 N 755.309 1.25446 -0.953992 0
M  V30 8257 C 756.256 2.25912 -0.472485 0
M  V30 8258 C 757.226 1.59173 0.47469 0
M  V30 8259 O 758.411 1.86812 0.388082 0
M  V30 8260 C 755.551 3.44235 0.244218 0
M  V30 8261 C 754.664 4.25613 -0.740121 0
M  V30 8262 C 753.799 5.312 -0.000922267 0
M  V30 8263 C 752.838 6.04265 -0.976236 0
M  V30 8264 N 751.975 7.01589 -0.267952 0
M  V30 8265 H 756.815 2.66469 -1.3341 0
M  V30 8266 H 754.352 1.31005 -0.669045 0
M  V30 8267 H 756.31 4.11682 0.676314 0
M  V30 8268 H 754.94 3.04554 1.06988 0
M  V30 8269 H 753.992 3.57834 -1.2907 0
M  V30 8270 H 755.304 4.762 -1.48441 0
M  V30 8271 H 754.458 6.04719 0.48984 0
M  V30 8272 H 753.197 4.81484 0.776159 0
M  V30 8273 H 752.202 5.29561 -1.478 0
M  V30 8274 H 753.427 6.5607 -1.75354 0
M  V30 8275 H 751.373 6.54164 0.490403 0
M  V30 8276 H 751.29 7.4999 -0.951344 0
M  V30 8277 H 752.558 7.7924 0.201294 0
M  V30 8278 N 756.787 0.722489 1.40064 0
M  V30 8279 C 758.012 0.273446 2.05589 0
M  V30 8280 C 758.437 -1.07875 1.54093 0
M  V30 8281 O 757.795 -1.68095 0.679252 0
M  V30 8282 C 757.843 0.271023 3.5958 0
M  V30 8283 O 756.947 -0.745499 4.05606 0
M  V30 8284 H 756.288 0.126856 0.65177 0
M  V30 8285 H 758.818 0.984906 1.79334 0
M  V30 8286 H 758.828 0.111084 4.07849 0
M  V30 8287 H 757.503 1.25776 3.96425 0
M  V30 8288 H 756.08 -0.552719 3.68781 0
M  V30 8289 N 758.265 -1.50454 0.469181 0
M  V30 8290 C 759.512 -2.02315 -0.086469 0
M  V30 8291 C 759.84 -1.3513 -1.39893 0
M  V30 8292 O 759.095 -0.465341 -1.90087 0
M  V30 8293 C 759.394 -3.55963 -0.320207 0
M  V30 8294 C 759.06 -4.41615 0.910318 0
M  V30 8295 C 757.722 -4.64743 1.2477 0
M  V30 8296 C 760.074 -4.91661 1.72971 0
M  V30 8297 C 757.402 -5.35161 2.40457 0
M  V30 8298 C 759.754 -5.6335 2.87785 0
M  V30 8299 C 758.418 -5.84732 3.2194 0
M  V30 8300 H 757.688 -0.740324 -0.0316412 0
M  V30 8301 H 760.335 -1.81087 0.622872 0
M  V30 8302 H 758.64 -3.75695 -1.11177 0
M  V30 8303 H 760.337 -3.93653 -0.764071 0
M  V30 8304 H 756.927 -4.23833 0.637467 0
M  V30 8305 H 761.111 -4.73649 1.48224 0
M  V30 8306 H 756.367 -5.49924 2.67196 0
M  V30 8307 H 760.541 -6.0111 3.51624 0
M  V30 8308 H 758.168 -6.39074 4.1169 0
M  V30 8309 N 759.743 -0.201713 -1.56304 0
M  V30 8310 C 760.693 0.729444 -2.16016 0
M  V30 8311 C 761.677 1.17164 -1.10279 0
M  V30 8312 O 762.869 1.12893 -1.36324 0
M  V30 8313 C 759.998 1.94594 -2.82822 0
M  V30 8314 C 759.084 1.52434 -3.95758 0
M  V30 8315 N 759.475 0.814106 -4.99205 0
M  V30 8316 C 757.773 1.81314 -4.07481 0
M  V30 8317 C 758.474 0.601896 -5.78578 0
M  V30 8318 N 757.45 1.15263 -5.3124 0
M  V30 8319 H 761.252 0.178163 -2.93359 0
M  V30 8320 H 758.766 -0.00218038 -1.624 0
M  V30 8321 H 760.763 2.62357 -3.23998 0
M  V30 8322 H 759.423 2.50188 -2.06969 0
M  V30 8323 H 760.434 0.468872 -5.15773 0
M  V30 8324 H 757.111 2.3837 -3.42762 0
M  V30 8325 H 758.501 0.0380119 -6.71889 0
M  V30 8326 N 761.222 1.57436 0.0718424 0
M  V30 8327 C 762.152 2.06724 1.08571 0
M  V30 8328 C 763.133 0.960731 1.40371 0
M  V30 8329 O 764.318 1.23345 1.49999 0
M  V30 8330 C 761.448 2.51112 2.39916 0
M  V30 8331 C 760.402 3.65639 2.22469 0
M  V30 8332 C 759.728 3.96082 3.59198 0
M  V30 8333 C 761.028 4.95687 1.64596 0
M  V30 8334 H 762.722 2.91679 0.675569 0
M  V30 8335 H 760.268 1.40319 0.32352 0
M  V30 8336 H 762.221 2.84206 3.11135 0
M  V30 8337 H 760.945 1.63186 2.8291 0
M  V30 8338 H 759.604 3.32828 1.53691 0
M  V30 8339 H 759.252 3.05287 3.99761 0
M  V30 8340 H 758.952 4.73199 3.48362 0
M  V30 8341 H 760.476 4.31672 4.31847 0
M  V30 8342 H 761.89 5.27011 2.25681 0
M  V30 8343 H 760.287 5.77126 1.64457 0
M  V30 8344 H 761.357 4.8108 0.60744 0
M  V30 8345 N 762.7 -0.34323 1.53817 0
M  V30 8346 C 763.948 -1.0813 1.70741 0
M  V30 8347 C 764.269 -1.89165 0.473461 0
M  V30 8348 O 763.539 -1.89075 -0.512605 0
M  V30 8349 H 762.119 -0.40219 0.629486 0
M  V30 8350 H 764.781 -0.384426 1.91071 0
M  V30 8351 H 763.877 -1.7585 2.57843 0
M  V30 8352 N 764.178 -1.45556 -0.604258 0
M  V30 8353 C 765.424 -1.49968 -1.36519 0
M  V30 8354 C 765.757 -0.142236 -1.93678 0
M  V30 8355 O 765.032 0.843717 -1.75247 0
M  V30 8356 C 765.315 -2.58146 -2.51063 0
M  V30 8357 C 765.168 -4.03346 -1.99078 0
M  V30 8358 C 766.487 -2.62581 -3.53184 0
M  V30 8359 H 763.606 -0.545993 -0.495036 0
M  V30 8360 H 766.248 -1.77382 -0.680845 0
M  V30 8361 H 764.398 -2.34901 -3.09441 0
M  V30 8362 H 766.07 -4.37811 -1.45323 0
M  V30 8363 H 764.313 -4.13845 -1.30055 0
M  V30 8364 H 764.984 -4.74731 -2.81664 0
M  V30 8365 H 767.46 -2.83419 -3.04652 0
M  V30 8366 H 766.336 -3.40131 -4.30816 0
M  V30 8367 H 766.597 -1.67798 -4.09019 0
M  V30 8368 N 765.656 0.84705 -1.32902 0
M  V30 8369 C 766.566 1.98845 -1.2449 0
M  V30 8370 C 767.582 1.7329 -0.15702 0
M  V30 8371 O 768.758 1.978 -0.379104 0
M  V30 8372 C 765.823 3.32679 -0.975985 0
M  V30 8373 C 764.884 3.71405 -2.15306 0
M  V30 8374 C 764.117 4.98853 -1.89688 0
M  V30 8375 O 764.34 5.64134 -0.843168 0
M  V30 8376 O 763.274 5.34889 -2.76002 0
M  V30 8377 H 767.1 2.0888 -2.2046 0
M  V30 8378 H 764.685 0.978852 -1.12867 0
M  V30 8379 H 766.567 4.12885 -0.842826 0
M  V30 8380 H 765.242 3.23667 -0.0464954 0
M  V30 8381 H 764.149 2.91743 -2.34172 0
M  V30 8382 H 765.482 3.85073 -3.06561 0
M  V30 8383 N 767.134 1.16236 1.06428 0
M  V30 8384 C 768.382 0.941171 1.78847 0
M  V30 8385 C 768.703 -0.53248 1.87589 0
M  V30 8386 O 767.973 -1.38686 1.38358 0
M  V30 8387 H 766.553 0.345228 0.66244 0
M  V30 8388 H 769.215 1.46479 1.28569 0
M  V30 8389 H 768.311 1.35871 2.80972 0
M  V30 8390 N 768.612 -1.24939 0.960631 0
M  V30 8391 C 769.562 -2.23388 0.456266 0
M  V30 8392 C 770.546 -1.54249 -0.45782 0
M  V30 8393 O 771.738 -1.7461 -0.289894 0
M  V30 8394 C 768.867 -3.42321 -0.259024 0
M  V30 8395 C 767.953 -4.18718 0.673478 0
M  V30 8396 N 768.344 -4.72394 1.8077 0
M  V30 8397 C 766.642 -4.43378 0.482859 0
M  V30 8398 C 767.343 -5.30316 2.3904 0
M  V30 8399 N 766.319 -5.17109 1.67629 0
M  V30 8400 H 770.121 -2.62499 1.32179 0
M  V30 8401 H 767.635 -1.40245 0.818851 0
M  V30 8402 H 769.632 -4.11997 -0.637527 0
M  V30 8403 H 768.292 -3.04732 -1.12108 0
M  V30 8404 H 769.303 -4.69345 2.18942 0
M  V30 8405 H 765.98 -4.16147 -0.335821 0
M  V30 8406 H 767.37 -5.82594 3.34715 0
M  V30 8407 N 770.09 -0.729906 -1.39679 0
M  V30 8408 C 771.506 -0.404951 -1.54377 0
M  V30 8409 C 771.706 1.08476 -1.6981 0
M  V30 8410 O 770.762 1.87087 -1.69572 0
M  V30 8411 C 772.075 -1.18352 -2.76429 0
M  V30 8412 C 773.623 -1.17124 -2.9026 0
M  V30 8413 C 774.098 -1.93227 -4.15244 0
M  V30 8414 N 775.589 -1.90368 -4.22273 0
M  V30 8415 C 776.324 -2.46065 -5.17918 0
M  V30 8416 N 775.82 -3.10378 -6.19385 0
M  V30 8417 N 777.613 -2.36127 -5.10099 0
M  V30 8418 H 769.764 -1.69567 -1.27909 0
M  V30 8419 H 772.027 -0.717527 -0.619564 0
M  V30 8420 H 771.733 -2.23743 -2.71352 0
M  V30 8421 H 771.607 -0.784589 -3.6895 0
M  V30 8422 H 773.994 -0.125478 -2.94833 0
M  V30 8423 H 774.075 -1.60951 -1.98817 0
M  V30 8424 H 773.719 -2.97802 -4.11432 0
M  V30 8425 H 773.649 -1.4681 -5.05722 0
M  V30 8426 H 776.14 -1.4351 -3.4959 0
M  V30 8427 H 776.453 -3.50358 -6.88817 0
M  V30 8428 H 774.798 -3.14467 -6.19787 0
M  V30 8429 H 777.989 -1.85529 -4.29763 0
M  V30 8430 H 778.162 -2.79833 -5.84463 0
M  V30 8431 N 771.568 1.50203 -0.477153 0
M  V30 8432 C 772.984 1.59056 -0.131663 0
M  V30 8433 C 773.184 1.48473 1.36227 0
M  V30 8434 O 772.24 1.34635 2.13611 0
M  V30 8435 C 773.553 2.92741 -0.687254 0
M  V30 8436 C 775.101 3.0615 -0.651223 0
M  V30 8437 C 775.576 4.42419 -1.18446 0
M  V30 8438 N 777.067 4.48847 -1.14413 0
M  V30 8439 C 777.802 5.52689 -1.52717 0
M  V30 8440 N 777.298 6.63754 -1.98499 0
M  V30 8441 N 779.091 5.43267 -1.44282 0
M  V30 8442 H 771.242 1.55325 -1.44872 0
M  V30 8443 H 773.505 0.734395 -0.599473 0
M  V30 8444 H 773.211 3.0598 -1.73405 0
M  V30 8445 H 773.085 3.76961 -0.134215 0
M  V30 8446 H 775.472 2.92556 0.386677 0
M  V30 8447 H 775.553 2.23673 -1.24114 0
M  V30 8448 H 775.197 4.56763 -2.22103 0
M  V30 8449 H 775.127 5.23498 -0.570709 0
M  V30 8450 H 777.618 3.69152 -0.808416 0
M  V30 8451 H 777.931 7.39059 -2.25859 0
M  V30 8452 H 776.276 6.64858 -2.02456 0
M  V30 8453 H 779.467 4.55387 -1.08352 0
M  V30 8454 H 779.64 6.24074 -1.74459 0
M  V30 8455 N 773.046 0.209999 1.56195 0
M  V30 8456 C 774.009 -0.691232 2.18528 0
M  V30 8457 C 775.009 -1.13013 1.14388 0
M  V30 8458 O 776.199 -1.04081 1.39688 0
M  V30 8459 C 773.331 -1.94551 2.79934 0
M  V30 8460 H 774.524 -0.147953 2.99535 0
M  V30 8461 H 772.077 -0.0396243 1.5625 0
M  V30 8462 H 772.812 -2.53094 2.02766 0
M  V30 8463 H 772.597 -1.63938 3.56184 0
M  V30 8464 H 774.087 -2.58785 3.2775 0
M  V30 8465 N 774.524 -1.57472 -0.0634922 0
M  V30 8466 C 775.474 -2.00709 -1.08166 0
M  V30 8467 C 776.458 -0.890498 -1.34011 0
M  V30 8468 O 777.65 -1.15441 -1.34173 0
M  V30 8469 C 774.779 -2.46148 -2.39303 0
M  V30 8470 C 773.865 -3.64559 -2.16697 0
M  V30 8471 N 774.256 -4.78459 -1.64043 0
M  V30 8472 C 772.554 -3.71269 -2.47135 0
M  V30 8473 C 773.255 -5.60268 -1.56445 0
M  V30 8474 N 772.231 -5.04357 -2.02792 0
M  V30 8475 H 776.033 -2.86208 -0.668016 0
M  V30 8476 H 773.547 -1.60133 -0.270426 0
M  V30 8477 H 775.544 -2.75367 -3.13016 0
M  V30 8478 H 774.204 -1.62041 -2.81377 0
M  V30 8479 H 775.215 -5.00587 -1.32791 0
M  V30 8480 H 771.892 -2.97891 -2.92518 0
M  V30 8481 H 773.282 -6.6172 -1.16519 0
M  V30 8482 N 776.003 0.335068 -1.53997 0
M  V30 8483 C 776.913 1.43511 -1.85585 0
M  V30 8484 C 777.929 1.57162 -0.746726 0
M  V30 8485 O 779.105 1.72477 -1.03988 0
M  V30 8486 C 776.17 2.78386 -2.06646 0
M  V30 8487 C 775.231 2.74007 -3.30483 0
M  V30 8488 C 774.464 4.02449 -3.50529 0
M  V30 8489 O 774.687 5.00147 -2.74242 0
M  V30 8490 O 773.621 4.06405 -4.4398 0
M  V30 8491 H 777.447 1.19731 -2.79102 0
M  V30 8492 H 775.032 0.528033 -1.39758 0
M  V30 8493 H 776.914 3.58247 -2.21894 0
M  V30 8494 H 775.589 3.0208 -1.16317 0
M  V30 8495 H 774.496 1.92736 -3.2063 0
M  V30 8496 H 775.829 2.55267 -4.20832 0
M  V30 8497 N 777.481 1.45874 0.596531 0
M  V30 8498 C 778.428 1.55389 1.70655 0
M  V30 8499 C 779.398 0.399036 1.61236 0
M  V30 8500 O 780.583 0.61396 1.80652 0
M  V30 8501 C 777.723 1.53705 3.0898 0
M  V30 8502 C 776.836 2.79823 3.29125 0
M  V30 8503 C 775.971 2.69735 4.5762 0
M  V30 8504 C 775.01 3.90856 4.71061 0
M  V30 8505 N 774.147 3.79237 5.90867 0
M  V30 8506 H 778.987 2.50211 1.61859 0
M  V30 8507 H 776.524 1.24146 0.789069 0
M  V30 8508 H 778.482 1.50715 3.89026 0
M  V30 8509 H 777.112 0.624247 3.16706 0
M  V30 8510 H 776.164 2.92852 2.42779 0
M  V30 8511 H 777.476 3.69628 3.34927 0
M  V30 8512 H 776.63 2.64773 5.45875 0
M  V30 8513 H 775.369 1.77547 4.54234 0
M  V30 8514 H 774.374 3.96164 3.81227 0
M  V30 8515 H 775.599 4.84124 4.76236 0
M  V30 8516 H 773.545 2.89825 5.88504 0
M  V30 8517 H 773.462 4.62686 5.97877 0
M  V30 8518 H 774.73 3.78227 6.8159 0
M  V30 8519 N 778.959 -0.83999 1.33349 0
M  V30 8520 C 780.375 -1.13049 1.12659 0
M  V30 8521 C 780.575 -2.01328 -0.0832613 0
M  V30 8522 O 779.631 -2.40669 -0.763856 0
M  V30 8523 C 780.944 -1.79366 2.41347 0
M  V30 8524 C 782.492 -1.91937 2.47243 0
M  V30 8525 C 782.967 -2.6167 3.75889 0
M  V30 8526 N 784.458 -2.69184 3.76954 0
M  V30 8527 C 785.193 -3.23827 4.73206 0
M  V30 8528 N 784.689 -3.79166 5.79832 0
M  V30 8529 N 786.482 -3.22068 4.60683 0
M  V30 8530 H 778.633 -0.252432 2.10895 0
M  V30 8531 H 780.896 -0.174501 0.931801 0
M  V30 8532 H 780.602 -1.2196 3.29877 0
M  V30 8533 H 780.476 -2.79396 2.53412 0
M  V30 8534 H 782.863 -2.48498 1.59163 0
M  V30 8535 H 782.944 -0.908604 2.39119 0
M  V30 8536 H 782.588 -2.05769 4.64351 0
M  V30 8537 H 782.518 -3.63217 3.81289 0
M  V30 8538 H 785.009 -2.2994 2.99893 0
M  V30 8539 H 785.322 -4.19061 6.49313 0
M  V30 8540 H 783.667 -3.77457 5.83568 0
M  V30 8541 H 786.858 -2.78092 3.7654 0
M  V30 8542 H 787.031 -3.64351 5.35866 0
M  V30 8543 N 780.437 -1.16799 -1.0581 0
M  V30 8544 C 781.367 -0.902241 -2.15364 0
M  V30 8545 C 782.348 0.153351 -1.69407 0
M  V30 8546 O 783.533 0.00442032 -1.94199 0
M  V30 8547 C 780.663 -0.407911 -3.44896 0
M  V30 8548 C 779.617 -1.40197 -4.04387 0
M  V30 8549 C 778.943 -0.765848 -5.29187 0
M  V30 8550 C 780.243 -2.77316 -4.42598 0
M  V30 8551 H 781.937 -1.81841 -2.37853 0
M  V30 8552 H 779.483 -0.875731 -1.14311 0
M  V30 8553 H 781.436 -0.20945 -4.20879 0
M  V30 8554 H 780.16 0.54378 -3.22041 0
M  V30 8555 H 778.819 -1.58707 -3.30466 0
M  V30 8556 H 778.467 0.192482 -5.02632 0
M  V30 8557 H 778.167 -1.42939 -5.69949 0
M  V30 8558 H 779.691 -0.577519 -6.07863 0
M  V30 8559 H 781.105 -2.62561 -5.09642 0
M  V30 8560 H 779.502 -3.4019 -4.94359 0
M  V30 8561 H 780.572 -3.32199 -3.53231 0
M  V30 8562 N 781.915 1.24427 -0.967243 0
M  V30 8563 C 783.14 1.9708 -0.646069 0
M  V30 8564 C 783.565 1.71272 0.777665 0
M  V30 8565 O 782.923 0.976179 1.52776 0
M  V30 8566 C 782.971 3.48501 -0.926266 0
M  V30 8567 O 782.075 4.12398 -0.0114653 0
M  V30 8568 H 781.416 0.617423 -0.244304 0
M  V30 8569 H 783.946 1.58215 -1.29727 0
M  V30 8570 H 783.956 3.98885 -0.857619 0
M  V30 8571 H 782.631 3.66613 -1.96386 0
M  V30 8572 H 781.208 3.72661 -0.133396 0
M  V30 8573 N 783.393 0.737304 1.3929 0
M  V30 8574 C 784.621 0.296573 2.04763 0
M  V30 8575 C 785.036 -1.06941 1.55592 0
M  V30 8576 O 784.393 -1.67619 0.721822 0
M  V30 8577 C 784.444 0.291906 3.6032 0
M  V30 8578 O 784.165 1.60397 4.07682 0
M  V30 8579 C 785.666 -0.164708 4.42994 0
M  V30 8580 H 782.886 0.129251 0.658434 0
M  V30 8581 H 785.43 1.0016 1.78293 0
M  V30 8582 H 783.585 -0.364251 3.85684 0
M  V30 8583 H 783.999 1.51909 5.0202 0
M  V30 8584 H 785.473 -0.116814 5.51876 0
M  V30 8585 H 785.95 -1.21022 4.22197 0
M  V30 8586 H 786.556 0.461968 4.22784 0
M  V30 8587 N 784.871 -1.49948 0.485112 0
M  V30 8588 C 786.282 -1.8667 0.0334041 0
M  V30 8589 C 786.633 -1.3988 -1.37579 0
M  V30 8590 O 785.758 -0.769788 -2.02245 0
M  V30 8591 C 786.353 -3.38757 0.0538426 0
M  V30 8592 C 784.912 -3.74839 -0.342453 0
M  V30 8593 C 784.059 -2.73894 0.433281 0
M  V30 8594 H 787.01 -1.42492 0.698699 0
M  V30 8595 H 787.031 -3.73132 -0.745146 0
M  V30 8596 H 786.543 -3.72782 1.07959 0
M  V30 8597 H 784.644 -3.46419 -1.37203 0
M  V30 8598 H 784.757 -4.79088 -0.0340503 0
M  V30 8599 H 783.121 -2.54441 -0.114849 0
M  V30 8600 H 783.904 -3.10763 1.45881 0
M  V30 8601 N 786.349 -0.21828 -1.56081 0
M  V30 8602 C 787.297 0.709679 -2.21509 0
M  V30 8603 C 788.291 1.20221 -1.19346 0
M  V30 8604 O 789.497 1.16241 -1.37433 0
M  V30 8605 H 785.872 0.247271 -0.710184 0
M  V30 8606 H 787.843 0.134386 -2.98097 0
M  V30 8607 C 786.592 1.90853 -2.90638 0
M  V30 8608 H 785.915 1.53865 -3.69006 0
M  V30 8609 H 787.355 2.53568 -3.39822 0
M  V30 8610 C 785.814 2.76189 -1.92929 0
M  V30 8611 O 786.344 3.74842 -1.44416 0
M  V30 8612 N 784.55 2.42157 -1.6065 0
M  V30 8613 H 784.097 1.61987 -2.00294 0
M  V30 8614 H 784.055 2.99534 -0.955347 0
M  V30 8615 N 787.827 1.57504 0.0551401 0
M  V30 8616 C 788.759 2.0158 1.09078 0
M  V30 8617 C 789.772 0.92434 1.34014 0
M  V30 8618 O 790.961 1.20202 1.31961 0
M  V30 8619 C 788.061 2.35385 2.43818 0
M  V30 8620 C 787.234 3.66588 2.38605 0
M  V30 8621 C 786.293 3.87874 3.55585 0
M  V30 8622 O 785.319 4.59259 3.36258 0
M  V30 8623 N 786.521 3.31503 4.76536 0
M  V30 8624 H 789.286 2.91039 0.71529 0
M  V30 8625 H 786.847 1.60058 0.243532 0
M  V30 8626 H 788.839 2.46784 3.20749 0
M  V30 8627 H 787.409 1.51731 2.73307 0
M  V30 8628 H 786.629 3.65787 1.46947 0
M  V30 8629 H 787.917 4.52706 2.32239 0
M  V30 8630 H 787.315 2.73592 4.9514 0
M  V30 8631 H 785.872 3.48324 5.50921 0
M  V30 8632 N 789.305 -0.326896 1.54172 0
M  V30 8633 C 790.53 -1.08924 1.76494 0
M  V30 8634 C 790.955 -1.81039 0.510523 0
M  V30 8635 O 790.313 -1.73141 -0.537756 0
M  V30 8636 C 790.361 -2.06558 2.95578 0
M  V30 8637 O 789.465 -3.14394 2.6689 0
M  V30 8638 H 788.806 -0.314216 0.584948 0
M  V30 8639 H 791.336 -0.372207 2.01186 0
M  V30 8640 H 791.346 -2.49487 3.22832 0
M  V30 8641 H 790.021 -1.53469 3.86549 0
M  V30 8642 H 788.598 -2.76164 2.50576 0
M  V30 8643 N 790.784 -1.46188 -0.588786 0
M  V30 8644 C 792.195 -1.45421 -1.17088 0
M  V30 8645 C 792.546 -0.191801 -1.9526 0
M  V30 8646 O 791.671 0.705497 -2.04577 0
M  V30 8647 C 792.266 -2.63467 -2.13004 0
M  V30 8648 C 790.825 -2.6576 -2.6655 0
M  V30 8649 C 789.972 -2.38002 -1.42304 0
M  V30 8650 H 792.923 -1.54156 -0.377052 0
M  V30 8651 H 792.944 -2.38638 -2.96365 0
M  V30 8652 H 792.456 -3.55331 -1.56081 0
M  V30 8653 H 790.557 -1.77952 -3.27359 0
M  V30 8654 H 790.67 -3.65545 -3.09699 0
M  V30 8655 H 789.034 -1.87936 -1.71907 0
M  V30 8656 H 789.817 -3.32035 -0.872209 0
M  V30 8657 N 792.262 0.832906 -1.33792 0
M  V30 8658 C 793.192 1.95828 -1.27176 0
M  V30 8659 C 794.173 1.69427 -0.15114 0
M  V30 8660 O 795.358 1.91167 -0.341886 0
M  V30 8661 C 792.488 3.32098 -1.01629 0
M  V30 8662 C 791.442 3.72912 -2.10049 0
M  V30 8663 C 790.768 5.07054 -1.69706 0
M  V30 8664 C 792.068 3.86064 -3.51783 0
M  V30 8665 H 793.762 2.01622 -2.21334 0
M  V30 8666 H 791.308 0.96866 -1.0655 0
M  V30 8667 H 793.261 4.10402 -0.956474 0
M  V30 8668 H 791.985 3.26577 -0.0390956 0
M  V30 8669 H 790.644 2.96876 -2.15082 0
M  V30 8670 H 790.292 4.9801 -0.706737 0
M  V30 8671 H 789.992 5.35333 -2.42264 0
M  V30 8672 H 791.516 5.87827 -1.65202 0
M  V30 8673 H 792.93 4.54665 -3.49218 0
M  V30 8674 H 791.327 4.25787 -4.22878 0
M  V30 8675 H 792.397 2.88344 -3.89854 0
M  V30 8676 N 793.74 1.17359 1.05189 0
M  V30 8677 C 794.965 0.98709 1.82404 0
M  V30 8678 C 795.39 -0.459848 1.82392 0
M  V30 8679 O 794.748 -1.32924 1.23292 0
M  V30 8680 C 794.796 1.53276 3.26403 0
M  V30 8681 O 793.9 0.746541 4.05587 0
M  V30 8682 H 793.241 0.35047 0.563974 0
M  V30 8683 H 795.771 1.55856 1.32552 0
M  V30 8684 H 795.781 1.55504 3.77203 0
M  V30 8685 H 794.456 2.58603 3.25726 0
M  V30 8686 H 793.033 0.795671 3.64312 0
M  V30 8687 N 795.218 -1.23913 0.973828 0
M  V30 8688 C 796.467 -1.91455 0.63464 0
M  V30 8689 C 796.78 -1.76893 -0.834759 0
M  V30 8690 O 797.986 -2.3918 -1.28473 0
M  V30 8691 C 796.442 -3.43172 1.08447 0
M  V30 8692 C 796.05 -3.66409 2.57776 0
M  V30 8693 C 797.794 -4.1653 0.818721 0
M  V30 8694 C 795.701 -5.11728 2.9646 0
M  V30 8695 H 794.631 -0.716881 0.233661 0
M  V30 8696 H 797.282 -1.40457 1.18085 0
M  V30 8697 H 795.664 -3.93242 0.466524 0
M  V30 8698 H 796.838 -3.26913 3.24753 0
M  V30 8699 H 795.153 -3.06349 2.82027 0
M  V30 8700 H 797.75 -5.23603 1.08367 0
M  V30 8701 H 798.093 -4.15578 -0.245128 0
M  V30 8702 H 798.626 -3.72428 1.39793 0
M  V30 8703 H 795.365 -5.17806 4.01941 0
M  V30 8704 H 794.885 -5.52199 2.34172 0
M  V30 8705 H 796.564 -5.80009 2.86703 0
M  V30 8706 N 796.696 -0.74468 -1.38897 0
M  V30 8707 C 798.112 -0.421302 -1.53939 0
M  V30 8708 C 798.312 1.06668 -1.70951 0
M  V30 8709 O 797.368 1.85278 -1.71547 0
M  V30 8710 C 798.681 -1.21278 -2.75159 0
M  V30 8711 C 800.229 -1.20196 -2.89001 0
M  V30 8712 C 800.704 -1.97621 -4.13171 0
M  V30 8713 N 802.195 -1.94836 -4.2023 0
M  V30 8714 C 802.93 -2.51545 -5.15279 0
M  V30 8715 N 802.426 -3.1693 -6.16058 0
M  V30 8716 N 804.219 -2.41524 -5.07565 0
M  V30 8717 H 796.37 -1.70914 -1.26103 0
M  V30 8718 H 798.633 -0.724058 -0.611919 0
M  V30 8719 H 798.339 -2.26609 -2.68963 0
M  V30 8720 H 798.213 -0.823677 -3.68097 0
M  V30 8721 H 800.6 -0.156742 -2.94683 0
M  V30 8722 H 800.681 -1.63051 -1.97099 0
M  V30 8723 H 800.325 -3.02149 -4.0825 0
M  V30 8724 H 800.255 -1.52166 -5.04136 0
M  V30 8725 H 802.746 -1.4721 -3.48048 0
M  V30 8726 H 803.059 -3.57644 -6.85062 0
M  V30 8727 H 801.404 -3.21023 -6.16417 0
M  V30 8728 H 804.595 -1.90077 -4.27771 0
M  V30 8729 H 804.768 -2.86016 -5.81462 0
M  V30 8730 N 798.174 1.49689 -0.493057 0
M  V30 8731 C 799.422 2.02027 0.0541642 0
M  V30 8732 C 799.743 1.37554 1.38217 0
M  V30 8733 O 799.013 0.528174 1.88646 0
M  V30 8734 H 797.593 0.746646 0.0230069 0
M  V30 8735 H 800.255 1.83795 -0.648489 0
M  V30 8736 H 799.351 3.11523 0.189652 0
M  V30 8737 N 799.652 0.226554 1.55963 0
M  V30 8738 C 800.877 -0.411527 2.03276 0
M  V30 8739 C 801.302 -1.52206 1.10521 0
M  V30 8740 O 800.66 -1.81054 0.0943217 0
M  V30 8741 C 800.708 -0.915694 3.4878 0
M  V30 8742 O 799.812 -2.02672 3.59163 0
M  V30 8743 H 799.153 -0.0924907 0.657527 0
M  V30 8744 H 801.683 0.346656 2.01642 0
M  V30 8745 H 801.693 -1.22421 3.892 0
M  V30 8746 H 800.368 -0.102915 4.15773 0
M  V30 8747 H 798.945 -1.72445 3.30632 0
M  V30 8748 N 801.13 -1.57531 -0.0467866 0
M  V30 8749 C 802.06 -2.08425 -1.05268 0
M  V30 8750 C 803.041 -0.982941 -1.38825 0
M  V30 8751 O 804.226 -1.25716 -1.48018 0
M  V30 8752 C 801.356 -2.54897 -2.35891 0
M  V30 8753 C 800.31 -3.69132 -2.16623 0
M  V30 8754 C 799.636 -4.01747 -3.52851 0
M  V30 8755 C 800.936 -4.98243 -1.56689 0
M  V30 8756 H 802.63 -2.92716 -0.62908 0
M  V30 8757 H 800.176 -1.40816 -0.301156 0
M  V30 8758 H 802.129 -2.8912 -3.06574 0
M  V30 8759 H 800.853 -1.67666 -2.80278 0
M  V30 8760 H 799.512 -3.35231 -1.48377 0
M  V30 8761 H 799.16 -3.11608 -3.94853 0
M  V30 8762 H 798.86 -4.78681 -3.4079 0
M  V30 8763 H 800.384 -4.38487 -4.24925 0
M  V30 8764 H 801.798 -5.30535 -2.17268 0
M  V30 8765 H 800.195 -5.79669 -1.55255 0
M  V30 8766 H 801.265 -4.81986 -0.530827 0
M  V30 8767 N 802.608 0.318715 -1.54344 0
M  V30 8768 C 803.855 1.05608 -1.72781 0
M  V30 8769 C 804.183 1.87854 -0.504083 0
M  V30 8770 O 803.438 1.88826 0.51414 0
M  V30 8771 C 803.737 2.00514 -2.95853 0
M  V30 8772 C 803.403 1.34385 -4.30409 0
M  V30 8773 C 802.065 1.16081 -4.66989 0
M  V30 8774 C 804.417 0.869627 -5.13894 0
M  V30 8775 C 801.745 0.490114 -5.84649 0
M  V30 8776 C 804.097 0.212735 -6.32242 0
M  V30 8777 C 802.761 0.0175882 -6.67498 0
M  V30 8778 H 802.031 0.386449 -0.632249 0
M  V30 8779 H 804.678 0.332729 -1.88587 0
M  V30 8780 H 802.983 2.79317 -2.74753 0
M  V30 8781 H 804.68 2.57605 -3.07312 0
M  V30 8782 H 801.27 1.49634 -4.01631 0
M  V30 8783 H 805.454 0.998809 -4.86146 0
M  V30 8784 H 800.71 0.327767 -6.10521 0
M  V30 8785 H 804.884 -0.162699 -6.9621 0
M  V30 8786 H 802.511 -0.504137 -7.58527 0
M  V30 8787 N 804.086 1.46499 0.581025 0
M  V30 8788 C 805.311 1.55708 1.37002 0
M  V30 8789 C 805.736 0.19942 1.8704 0
M  V30 8790 O 805.094 -0.820731 1.61659 0
M  V30 8791 C 805.142 2.56716 2.53238 0
M  V30 8792 O 804.246 2.10336 3.54729 0
M  V30 8793 H 803.587 0.523912 0.407937 0
M  V30 8794 H 806.117 1.92085 0.704602 0
M  V30 8795 H 806.127 2.76378 3.00132 0
M  V30 8796 H 804.802 3.55307 2.16171 0
M  V30 8797 H 803.379 2.00669 3.14303 0
M  V30 8798 N 805.565 -0.825799 1.34232 0
M  V30 8799 C 806.528 -1.91808 1.25468 0
M  V30 8800 C 807.528 -1.59893 0.170567 0
M  V30 8801 O 808.718 -1.68986 0.422996 0
M  V30 8802 C 805.85 -3.27786 0.93644 0
M  V30 8803 H 807.043 -2.01003 2.22571 0
M  V30 8804 H 804.596 -1.01944 1.18479 0
M  V30 8805 H 805.331 -3.24285 -0.0315408 0
M  V30 8806 H 805.116 -3.52333 1.72057 0
M  V30 8807 H 806.606 -4.07782 0.900214 0
M  V30 8808 N 807.043 -1.17915 -1.04565 0
M  V30 8809 C 808.459 -0.927761 -1.29864 0
M  V30 8810 C 808.659 0.409536 -1.97294 0
M  V30 8811 O 807.715 1.14505 -2.25044 0
M  V30 8812 C 809.028 -2.08967 -2.16225 0
M  V30 8813 C 810.576 -2.12741 -2.29587 0
M  V30 8814 C 811.051 -3.28335 -3.19312 0
M  V30 8815 N 812.542 -3.28164 -3.26898 0
M  V30 8816 C 813.277 -4.14249 -3.96466 0
M  V30 8817 N 812.773 -5.10457 -4.68407 0
M  V30 8818 N 814.566 -4.02179 -3.92694 0
M  V30 8819 H 806.717 -2.03983 -0.592011 0
M  V30 8820 H 808.98 -0.891023 -0.323701 0
M  V30 8821 H 808.686 -3.05654 -1.73979 0
M  V30 8822 H 808.56 -2.04606 -3.16885 0
M  V30 8823 H 810.947 -1.16636 -2.71072 0
M  V30 8824 H 811.028 -2.21162 -1.28535 0
M  V30 8825 H 810.672 -4.2471 -2.78539 0
M  V30 8826 H 810.602 -3.17151 -4.20384 0
M  V30 8827 H 813.093 -2.58511 -2.75646 0
M  V30 8828 H 813.406 -5.72526 -5.1907 0
M  V30 8829 H 811.751 -5.14422 -4.67328 0
M  V30 8830 H 814.942 -3.26308 -3.3562 0
M  V30 8831 H 815.115 -4.69486 -4.4664 0
M  V30 8832 N 808.521 1.23394 -0.980386 0
M  V30 8833 C 809.937 1.43961 -0.689008 0
M  V30 8834 C 810.137 1.87229 0.744809 0
M  V30 8835 O 809.193 2.01831 1.51725 0
M  V30 8836 C 810.506 2.49128 -1.68392 0
M  V30 8837 C 812.054 2.62941 -1.69796 0
M  V30 8838 C 812.529 3.71317 -2.68118 0
M  V30 8839 N 814.02 3.7876 -2.66636 0
M  V30 8840 C 814.755 4.62176 -3.39383 0
M  V30 8841 N 814.251 5.49682 -4.21688 0
M  V30 8842 N 816.044 4.56372 -3.28147 0
M  V30 8843 H 808.195 0.936106 -1.90659 0
M  V30 8844 H 810.458 0.473023 -0.821555 0
M  V30 8845 H 810.164 2.24252 -2.70931 0
M  V30 8846 H 810.038 3.47514 -1.46675 0
M  V30 8847 H 812.425 2.87168 -0.679617 0
M  V30 8848 H 812.506 1.64871 -1.95579 0
M  V30 8849 H 812.15 3.4784 -3.70095 0
M  V30 8850 H 812.08 4.68929 -2.3961 0
M  V30 8851 H 814.571 3.16226 -2.06904 0
M  V30 8852 H 814.884 6.10323 -4.74053 0
M  V30 8853 H 813.229 5.49306 -4.25779 0
M  V30 8854 H 816.42 3.87029 -2.63299 0
M  V30 8855 H 816.593 5.21153 -3.85102 0
M  V30 8856 N 809.999 0.752036 1.385 0
M  V30 8857 C 811.224 0.316993 2.04963 0
M  V30 8858 C 811.649 -1.04582 1.56346 0
M  V30 8859 O 811.007 -1.66616 0.714755 0
M  V30 8860 C 811.055 0.347235 3.58924 0
M  V30 8861 O 810.159 -0.659296 4.07096 0
M  V30 8862 H 809.5 0.140652 0.648932 0
M  V30 8863 H 812.03 1.02272 1.77205 0
M  V30 8864 H 812.04 0.19757 4.07521 0
M  V30 8865 H 810.715 1.34157 3.93668 0
M  V30 8866 H 809.292 -0.474371 3.6987 0
M  V30 8867 N 811.477 -1.49425 0.500989 0
M  V30 8868 C 812.702 -2.07356 -0.0425154 0
M  V30 8869 C 813.127 -1.35887 -1.30063 0
M  V30 8870 O 812.485 -0.41561 -1.76472 0
M  V30 8871 C 812.533 -3.59518 -0.279188 0
M  V30 8872 O 811.637 -3.89542 -1.3539 0
M  V30 8873 H 810.978 -0.663482 0.0262207 0
M  V30 8874 H 813.508 -1.92231 0.700607 0
M  V30 8875 H 813.518 -4.04791 -0.5107 0
M  V30 8876 H 812.193 -4.10946 0.640009 0
M  V30 8877 H 810.77 -3.56079 -1.10734 0
M  V30 8878 N 812.955 -0.234822 -1.55841 0
M  V30 8879 C 814.371 0.120295 -1.59146 0
M  V30 8880 C 814.571 1.57896 -1.25184 0
M  V30 8881 O 813.627 2.32138 -0.993393 0
M  V30 8882 C 814.94 -0.217984 -2.99909 0
M  V30 8883 C 816.488 -0.161298 -3.12584 0
M  V30 8884 C 816.963 -0.473438 -4.55546 0
M  V30 8885 N 818.454 -0.423494 -4.6126 0
M  V30 8886 C 819.189 -0.638334 -5.69836 0
M  V30 8887 N 818.685 -0.915659 -6.86722 0
M  V30 8888 N 820.478 -0.569864 -5.59204 0
M  V30 8889 H 812.629 -1.18622 -1.76189 0
M  V30 8890 H 814.892 -0.476426 -0.819587 0
M  V30 8891 H 814.598 -1.2309 -3.29457 0
M  V30 8892 H 814.472 0.460707 -3.74376 0
M  V30 8893 H 816.859 0.842274 -2.82825 0
M  V30 8894 H 816.94 -0.873661 -2.40418 0
M  V30 8895 H 816.584 -1.47451 -4.86025 0
M  V30 8896 H 816.514 0.260268 -5.25956 0
M  V30 8897 H 819.005 -0.217383 -3.77274 0
M  V30 8898 H 819.318 -1.06734 -7.65394 0
M  V30 8899 H 817.663 -0.953 -6.88435 0
M  V30 8900 H 820.854 -0.35334 -4.66765 0
M  V30 8901 H 821.027 -0.740698 -6.43753 0
M  V30 8902 N 814.433 1.57553 0.0384317 0
M  V30 8903 C 815.661 1.93093 0.743141 0
M  V30 8904 C 816.076 0.833787 1.69391 0
M  V30 8905 O 815.433 -0.190532 1.81503 0
M  V30 8906 C 815.484 3.28533 1.50826 0
M  V30 8907 O 815.205 4.34032 0.595665 0
M  V30 8908 C 816.706 3.78297 2.31098 0
M  V30 8909 H 813.926 0.637486 0.20941 0
M  V30 8910 H 816.47 2.045 -0.00125154 0
M  V30 8911 H 814.625 3.18552 2.20462 0
M  V30 8912 H 815.039 5.12155 1.13124 0
M  V30 8913 H 816.513 4.75602 2.80191 0
M  V30 8914 H 816.99 3.09008 3.12107 0
M  V30 8915 H 817.596 3.91331 1.66555 0
M  V30 8916 N 815.911 -0.310526 1.54511 0
M  V30 8917 C 817.136 -1.07046 1.7764 0
M  V30 8918 C 817.561 -1.80488 0.529696 0
M  V30 8919 O 816.919 -1.73702 -0.519361 0
M  V30 8920 C 816.967 -2.03411 2.97752 0
M  V30 8921 O 816.071 -3.11545 2.7021 0
M  V30 8922 H 815.412 -0.307994 0.588248 0
M  V30 8923 H 817.942 -0.350848 2.01569 0
M  V30 8924 H 817.952 -2.46048 3.2546 0
M  V30 8925 H 816.627 -1.49361 3.88155 0
M  V30 8926 H 815.204 -2.7349 2.53491 0
M  V30 8927 N 817.389 -1.46805 -0.573248 0
M  V30 8928 C 818.319 -1.60951 -1.69165 0
M  V30 8929 C 819.3 -0.45948 -1.63777 0
M  V30 8930 O 820.485 -0.68688 -1.81647 0
M  V30 8931 C 817.615 -1.60844 -3.07809 0
M  V30 8932 C 816.569 -2.74913 -3.28035 0
M  V30 8933 C 815.895 -2.59871 -4.67302 0
M  V30 8934 C 817.195 -4.16654 -3.14955 0
M  V30 8935 H 818.889 -2.54574 -1.57582 0
M  V30 8936 H 816.435 -1.22516 -0.756686 0
M  V30 8937 H 818.388 -1.69334 -3.85881 0
M  V30 8938 H 817.112 -0.637714 -3.20314 0
M  V30 8939 H 815.771 -2.65908 -2.52366 0
M  V30 8940 H 815.419 -1.60861 -4.76585 0
M  V30 8941 H 815.119 -3.36386 -4.81786 0
M  V30 8942 H 816.643 -2.70265 -5.4753 0
M  V30 8943 H 818.057 -4.26721 -3.82861 0
M  V30 8944 H 816.454 -4.93831 -3.40956 0
M  V30 8945 H 817.524 -4.36146 -2.11908 0
M  V30 8946 N 818.867 0.818669 -1.34668 0
M  V30 8947 C 820.114 1.57512 -1.27264 0
M  V30 8948 C 820.442 1.93871 0.156254 0
M  V30 8949 O 819.697 1.60582 1.11857 0
M  V30 8950 C 819.996 2.88245 -2.11304 0
M  V30 8951 C 819.662 2.71159 -3.60255 0
M  V30 8952 C 818.324 2.66207 -4.00858 0
M  V30 8953 C 820.676 2.54538 -4.54819 0
M  V30 8954 C 818.004 2.4256 -5.34211 0
M  V30 8955 C 820.356 2.32421 -5.88356 0
M  V30 8956 C 819.02 2.25884 -6.28118 0
M  V30 8957 H 818.29 0.576378 -0.465692 0
M  V30 8958 H 820.937 0.9469 -1.66451 0
M  V30 8959 H 819.242 3.55381 -1.64958 0
M  V30 8960 H 820.939 3.45869 -2.02919 0
M  V30 8961 H 817.529 2.75856 -3.28027 0
M  V30 8962 H 821.713 2.57384 -4.24343 0
M  V30 8963 H 816.969 2.35959 -5.64033 0
M  V30 8964 H 821.143 2.18548 -6.61218 0
M  V30 8965 H 818.77 2.07322 -7.31383 0
M  V30 8966 N 820.346 1.18468 1.03938 0
M  V30 8967 C 821.571 1.00638 1.81347 0
M  V30 8968 C 821.996 -0.440477 1.8287 0
M  V30 8969 O 821.354 -1.31609 1.24695 0
M  V30 8970 C 821.402 1.5673 3.24759 0
M  V30 8971 O 820.506 0.789517 4.04772 0
M  V30 8972 H 819.847 0.356432 0.560225 0
M  V30 8973 H 822.377 1.57253 1.30891 0
M  V30 8974 H 822.387 1.59496 3.75533 0
M  V30 8975 H 821.062 2.62043 3.22965 0
M  V30 8976 H 819.639 0.834267 3.63448 0
M  V30 8977 N 821.824 -1.22873 0.986916 0
M  V30 8978 C 823.071 -1.91462 0.659424 0
M  V30 8979 C 823.399 -1.76931 -0.807825 0
M  V30 8980 O 822.654 -1.12829 -1.59901 0
M  V30 8981 C 822.953 -3.43014 1.00379 0
M  V30 8982 C 822.619 -3.77731 2.46232 0
M  V30 8983 C 821.281 -3.86918 2.86091 0
M  V30 8984 C 823.633 -3.94343 3.40798 0
M  V30 8985 C 820.961 -4.10149 4.19518 0
M  V30 8986 C 823.313 -4.19076 4.73875 0
M  V30 8987 C 821.977 -4.26486 5.13484 0
M  V30 8988 H 821.247 -0.700611 0.2413 0
M  V30 8989 H 823.894 -1.45763 1.24199 0
M  V30 8990 H 822.199 -3.90329 0.339226 0
M  V30 8991 H 823.896 -3.94327 0.728518 0
M  V30 8992 H 820.486 -3.71159 2.14334 0
M  V30 8993 H 824.67 -3.86629 3.11178 0
M  V30 8994 H 819.926 -4.1411 4.49803 0
M  V30 8995 H 824.1 -4.30873 5.47102 0
M  V30 8996 H 821.727 -4.4424 6.16891 0
M  V30 8997 N 823.302 -0.75937 -1.38099 0
M  V30 8998 C 824.249 -0.135508 -2.30402 0
M  V30 8999 C 825.219 0.703356 -1.50473 0
M  V30 9000 O 826.404 0.658287 -1.79084 0
M  V30 9001 C 823.544 0.747228 -3.36913 0
M  V30 9002 C 822.657 -0.106893 -4.31868 0
M  V30 9003 C 821.792 0.779388 -5.25451 0
M  V30 9004 C 820.831 -0.0780179 -6.1205 0
M  V30 9005 N 819.968 0.765545 -6.97914 0
M  V30 9006 H 824.808 -0.9282 -2.83176 0
M  V30 9007 H 822.345 -0.46935 -1.39411 0
M  V30 9008 H 824.303 1.27371 -3.97281 0
M  V30 9009 H 822.933 1.50565 -2.85535 0
M  V30 9010 H 821.985 -0.751063 -3.72912 0
M  V30 9011 H 823.297 -0.768798 -4.9284 0
M  V30 9012 H 822.451 1.37282 -5.90964 0
M  V30 9013 H 821.19 1.47501 -4.6486 0
M  V30 9014 H 820.195 -0.684078 -5.45528 0
M  V30 9015 H 821.42 -0.770786 -6.74712 0
M  V30 9016 H 819.366 1.44601 -6.39864 0
M  V30 9017 H 819.283 0.160666 -7.55829 0
M  V30 9018 H 820.551 1.34377 -7.6783 0
M  V30 9019 N 824.78 1.49157 -0.508906 0
M  V30 9020 C 826.028 2.02073 0.0327335 0
M  V30 9021 C 826.349 1.39012 1.3675 0
M  V30 9022 O 825.619 0.548153 1.88075 0
M  V30 9023 H 824.199 0.746848 0.0150864 0
M  V30 9024 H 826.861 1.83097 -0.667946 0
M  V30 9025 H 825.957 3.11707 0.1566 0
M  V30 9026 N 826.258 0.243083 1.55714 0
M  V30 9027 C 827.674 -0.111853 1.59208 0
M  V30 9028 C 827.874 -1.5723 1.2602 0
M  V30 9029 O 826.93 -2.31608 1.00569 0
M  V30 9030 C 828.243 0.233885 2.99789 0
M  V30 9031 C 829.791 0.177873 3.12494 0
M  V30 9032 C 830.266 0.49759 4.55289 0
M  V30 9033 N 831.757 0.447949 4.61029 0
M  V30 9034 C 832.492 0.668545 5.69489 0
M  V30 9035 N 831.988 0.952064 6.86227 0
M  V30 9036 N 833.781 0.599512 5.58894 0
M  V30 9037 H 825.932 1.19554 1.75558 0
M  V30 9038 H 828.195 0.480765 0.817049 0
M  V30 9039 H 827.901 1.24835 3.28799 0
M  V30 9040 H 827.775 -0.440846 3.74615 0
M  V30 9041 H 830.162 -0.827263 2.83267 0
M  V30 9042 H 830.243 0.886399 2.39951 0
M  V30 9043 H 829.887 1.50026 4.85237 0
M  V30 9044 H 829.817 -0.232371 5.26087 0
M  V30 9045 H 832.308 0.237388 3.77154 0
M  V30 9046 H 832.621 1.10791 7.64817 0
M  V30 9047 H 830.966 0.989496 6.8792 0
M  V30 9048 H 834.157 0.378088 4.66571 0
M  V30 9049 H 834.33 0.774828 6.43351 0
M  V30 9050 N 827.736 -1.57571 -0.0300757 0
M  V30 9051 C 828.984 -1.88852 -0.719666 0
M  V30 9052 C 829.305 -0.840645 -1.75949 0
M  V30 9053 O 828.575 0.125854 -1.95495 0
M  V30 9054 H 827.155 -0.696965 -0.268792 0
M  V30 9055 H 829.817 -1.949 0.00373285 0
M  V30 9056 H 828.913 -2.87695 -1.20987 0
M  V30 9057 N 829.214 0.302327 -1.54673 0
M  V30 9058 C 830.63 0.647911 -1.45857 0
M  V30 9059 C 830.83 1.90773 -0.64869 0
M  V30 9060 O 829.886 2.52018 -0.155865 0
M  V30 9061 C 831.199 0.802144 -2.89804 0
M  V30 9062 C 832.747 0.898114 -2.99838 0
M  V30 9063 C 833.222 1.08436 -4.44978 0
M  V30 9064 N 834.713 1.15059 -4.48682 0
M  V30 9065 C 835.448 1.31296 -5.58166 0
M  V30 9066 N 834.944 1.4444 -6.77576 0
M  V30 9067 N 836.737 1.34174 -5.45851 0
M  V30 9068 H 828.888 -0.525428 -2.05798 0
M  V30 9069 H 831.151 -0.173423 -0.932002 0
M  V30 9070 H 830.857 -0.0526531 -3.51661 0
M  V30 9071 H 830.731 1.69155 -3.37145 0
M  V30 9072 H 833.118 1.7434 -2.38096 0
M  V30 9073 H 833.199 -0.0152752 -2.55795 0
M  V30 9074 H 832.843 0.243843 -5.07314 0
M  V30 9075 H 832.773 2.01195 -4.8665 0
M  V30 9076 H 835.264 1.0626 -3.62653 0
M  V30 9077 H 835.577 1.56582 -7.56771 0
M  V30 9078 H 833.922 1.41499 -6.80443 0
M  V30 9079 H 837.113 1.23516 -4.5151 0
M  V30 9080 H 837.286 1.46485 -6.31226 0
M  V30 9081 N 830.692 1.47107 0.565454 0
M  V30 9082 C 831.969 1.43787 1.32607 0
M  V30 9083 C 832.349 0.130428 2.10697 0
M  V30 9084 O 831.697 -0.888086 2.10536 0
M  V30 9085 C 831.907 2.67833 2.23755 0
M  V30 9086 C 833.255 3.14704 2.85037 0
M  V30 9087 O 834.279 2.68503 2.34061 0
M  V30 9088 O 833.138 3.95002 3.77671 0
M  V30 9089 H 830.232 0.572623 0.596684 0
M  V30 9090 H 832.778 1.59296 0.58504 0
M  V30 9091 H 831.55 3.54532 1.65597 0
M  V30 9092 H 831.173 2.54869 3.05168 0
M  V30 9093 N 832.17 -0.811516 1.35101 0
M  V30 9094 C 833.419 -1.56343 1.27435 0
M  V30 9095 C 833.732 -1.95019 -0.150696 0
M  V30 9096 O 834.938 -2.6924 -0.349586 0
M  V30 9097 C 833.394 -2.82124 2.23459 0
M  V30 9098 C 833.002 -2.50706 3.71283 0
M  V30 9099 C 834.746 -3.60137 2.24726 0
M  V30 9100 C 832.653 -3.72748 4.59143 0
M  V30 9101 H 831.583 -0.58682 0.473453 0
M  V30 9102 H 834.234 -0.892465 1.60335 0
M  V30 9103 H 832.616 -3.50905 1.83525 0
M  V30 9104 H 833.79 -1.89962 4.19823 0
M  V30 9105 H 832.105 -1.85947 3.72576 0
M  V30 9106 H 834.702 -4.50775 2.87587 0
M  V30 9107 H 835.045 -3.97101 1.24965 0
M  V30 9108 H 835.578 -2.98311 2.63164 0
M  V30 9109 H 832.317 -3.40896 5.59884 0
M  V30 9110 H 831.837 -4.32735 4.15332 0
M  V30 9111 H 833.516 -4.40033 4.74321 0
M  V30 9112 N 833.648 -1.19017 -1.03309 0
M  V30 9113 C 834.896 -0.988258 -1.76289 0
M  V30 9114 C 835.217 0.482557 -1.88935 0
M  V30 9115 O 834.487 1.34969 -1.41987 0
M  V30 9116 H 833.067 -0.36267 -0.653054 0
M  V30 9117 H 835.729 -1.49836 -1.2464 0
M  V30 9118 H 834.825 -1.43273 -2.77271 0
M  V30 9119 N 835.127 1.22348 -0.993418 0
M  V30 9120 C 836.352 1.95666 -0.687727 0
M  V30 9121 C 836.777 1.72883 0.741161 0
M  V30 9122 O 836.135 1.00837 1.50671 0
M  V30 9123 C 836.183 3.46457 -0.99998 0
M  V30 9124 O 835.287 4.12281 -0.0989386 0
M  V30 9125 H 834.628 0.612102 -0.257346 0
M  V30 9126 H 837.158 1.55428 -1.33054 0
M  V30 9127 H 837.168 3.96976 -0.942035 0
M  V30 9128 H 835.843 3.62365 -2.04118 0
M  V30 9129 H 834.42 3.72295 -0.212413 0
M  V30 9130 N 836.605 0.766683 1.37694 0
M  V30 9131 C 837.515 0.150158 2.34119 0
M  V30 9132 C 838.531 -0.685513 1.59927 0
M  V30 9133 O 839.707 -0.606616 1.92047 0
M  V30 9134 C 836.772 -0.722562 3.39087 0
M  V30 9135 C 835.833 0.128983 4.29106 0
M  V30 9136 C 835.066 -0.702178 5.29061 0
M  V30 9137 O 835.289 -1.93954 5.36412 0
M  V30 9138 O 834.223 -0.114056 6.01792 0
M  V30 9139 H 838.049 0.946829 2.88563 0
M  V30 9140 H 835.634 0.527765 1.39768 0
M  V30 9141 H 837.516 -1.22095 4.03325 0
M  V30 9142 H 836.191 -1.49751 2.86978 0
M  V30 9143 H 835.098 0.673612 3.67985 0
M  V30 9144 H 836.431 0.866892 4.84506 0
M  V30 9145 N 838.083 -1.48885 0.516809 0
M  V30 9146 C 839.311 -2.06892 -0.0184017 0
M  V30 9147 C 839.726 -1.37511 -1.29368 0
M  V30 9148 O 839.083 -0.458409 -1.76649 0
M  V30 9149 C 839.134 -3.60566 -0.259673 0
M  V30 9150 O 838.855 -4.27338 0.965065 0
M  V30 9151 C 840.356 -4.35331 -0.836751 0
M  V30 9152 H 837.576 -0.670433 0.0275743 0
M  V30 9153 H 840.12 -1.91455 0.718689 0
M  V30 9154 H 838.275 -3.75653 -0.94678 0
M  V30 9155 H 838.689 -5.19287 0.737647 0
M  V30 9156 H 840.163 -5.43675 -0.955065 0
M  V30 9157 H 840.64 -3.9887 -1.83845 0
M  V30 9158 H 841.246 -4.2489 -0.186622 0
M  V30 9159 N 839.561 -0.251338 -1.55583 0
M  V30 9160 C 840.471 0.656978 -2.25213 0
M  V30 9161 C 841.487 1.18966 -1.26977 0
M  V30 9162 O 842.663 1.22499 -1.59862 0
M  V30 9163 C 839.728 1.83527 -2.94141 0
M  V30 9164 C 838.789 1.34162 -4.07798 0
M  V30 9165 C 838.022 2.46375 -4.73429 0
M  V30 9166 O 838.245 3.65205 -4.38157 0
M  V30 9167 O 837.179 2.15881 -5.61853 0
M  V30 9168 H 841.005 0.0936395 -3.03556 0
M  V30 9169 H 838.59 -0.0196638 -1.49387 0
M  V30 9170 H 840.472 2.52279 -3.3754 0
M  V30 9171 H 839.147 2.38614 -2.18735 0
M  V30 9172 H 838.054 0.621249 -3.68906 0
M  V30 9173 H 839.387 0.836779 -4.85035 0
M  V30 9174 N 841.039 1.57585 0.0217189 0
M  V30 9175 C 842.286 1.89606 0.711045 0
M  V30 9176 C 842.614 0.849535 1.74966 0
M  V30 9177 O 841.869 -0.14856 1.95135 0
M  V30 9178 C 842.168 3.28377 1.41079 0
M  V30 9179 C 841.834 4.48035 0.507454 0
M  V30 9180 C 840.496 4.80504 0.258672 0
M  V30 9181 C 842.848 5.21071 -0.115793 0
M  V30 9182 C 840.176 5.83393 -0.622013 0
M  V30 9183 C 842.528 6.24897 -0.984224 0
M  V30 9184 C 841.192 6.55836 -1.2424 0
M  V30 9185 H 840.462 0.693817 0.26019 0
M  V30 9186 H 843.109 1.91478 -0.0291424 0
M  V30 9187 H 841.414 3.22528 2.22448 0
M  V30 9188 H 843.111 3.50404 1.94982 0
M  V30 9189 H 839.701 4.22653 0.711516 0
M  V30 9190 H 843.885 4.96259 0.0634327 0
M  V30 9191 H 839.141 6.05736 -0.830267 0
M  V30 9192 H 843.315 6.8063 -1.47363 0
M  V30 9193 H 840.942 7.35383 -1.92653 0
M  V30 9194 N 842.517 -0.29412 1.54831 0
M  V30 9195 C 843.48 -1.3461 1.85507 0
M  V30 9196 C 844.48 -1.43359 0.728343 0
M  V30 9197 O 845.67 -1.42875 0.996609 0
M  V30 9198 C 842.802 -2.73012 2.0415 0
M  V30 9199 H 843.995 -1.08651 2.79526 0
M  V30 9200 H 841.548 -0.531138 1.46999 0
M  V30 9201 H 842.283 -3.04183 1.12441 0
M  V30 9202 H 842.068 -2.68051 2.86166 0
M  V30 9203 H 843.558 -3.49061 2.29229 0
M  V30 9204 N 843.995 -1.47404 -0.557645 0
M  V30 9205 C 845.272 -1.44488 -1.31843 0
M  V30 9206 C 845.652 -0.1416 -2.10625 0
M  V30 9207 O 845 0.876908 -2.11004 0
M  V30 9208 C 845.21 -2.69016 -2.22331 0
M  V30 9209 C 846.558 -3.16212 -2.83364 0
M  V30 9210 O 847.582 -2.69741 -2.32634 0
M  V30 9211 O 846.441 -3.96999 -3.75571 0
M  V30 9212 H 843.535 -0.57578 -0.593639 0
M  V30 9213 H 846.081 -1.59605 -0.576584 0
M  V30 9214 H 844.853 -3.55406 -1.63715 0
M  V30 9215 H 844.476 -2.56484 -3.03812 0
M  V30 9216 N 845.473 0.80434 -1.35529 0
M  V30 9217 C 846.75 1.5486 -1.1949 0
M  V30 9218 C 847.13 2.09897 0.22506 0
M  V30 9219 O 846.478 1.92643 1.22886 0
M  V30 9220 C 846.688 2.65535 -2.26478 0
M  V30 9221 C 848.036 3.33814 -2.62399 0
M  V30 9222 O 849.06 2.75807 -2.25409 0
M  V30 9223 O 847.919 4.38612 -3.26009 0
M  V30 9224 H 845.013 0.68433 -0.464351 0
M  V30 9225 H 847.559 0.844107 -1.47217 0
M  V30 9226 H 846.331 2.22754 -3.21709 0
M  V30 9227 H 845.954 3.43617 -2.00033 0
M  V30 9228 N 846.951 1.19563 1.02676 0
M  V30 9229 C 847.861 0.950691 2.14474 0
M  V30 9230 C 848.877 -0.0900219 1.73767 0
M  V30 9231 O 850.053 0.0951063 2.01175 0
M  V30 9232 C 847.118 0.494917 3.43149 0
M  V30 9233 C 846.179 1.60527 3.98158 0
M  V30 9234 C 845.412 1.17115 5.20692 0
M  V30 9235 O 845.635 0.0355937 5.70389 0
M  V30 9236 O 844.569 1.97454 5.68591 0
M  V30 9237 H 848.395 1.88651 2.38001 0
M  V30 9238 H 845.98 0.978635 1.12885 0
M  V30 9239 H 847.862 0.249492 4.20661 0
M  V30 9240 H 846.537 -0.412434 3.21062 0
M  V30 9241 H 845.444 1.90487 3.21971 0
M  V30 9242 H 846.777 2.48925 4.24614 0
M  V30 9243 N 848.429 -1.21819 0.999893 0
M  V30 9244 C 849.379 -2.21823 0.527104 0
M  V30 9245 C 850.363 -1.55628 -0.408515 0
M  V30 9246 O 851.555 -1.75444 -0.234196 0
M  V30 9247 C 848.684 -3.42972 -0.149986 0
M  V30 9248 C 847.77 -4.16364 0.806349 0
M  V30 9249 N 848.161 -4.66403 1.95708 0
M  V30 9250 C 846.459 -4.41618 0.623672 0
M  V30 9251 C 847.16 -5.22443 2.5579 0
M  V30 9252 N 846.136 -5.11514 1.83995 0
M  V30 9253 H 849.938 -2.58161 1.40464 0
M  V30 9254 H 847.452 -1.37569 0.863054 0
M  V30 9255 H 849.449 -4.13816 -0.50613 0
M  V30 9256 H 848.109 -3.08145 -1.02357 0
M  V30 9257 H 849.12 -4.62142 2.33763 0
M  V30 9258 H 845.797 -4.17005 -0.203257 0
M  V30 9259 H 847.187 -5.7165 3.5308 0
M  V30 9260 N 849.908 -0.773975 -1.37286 0
M  V30 9261 C 851.133 -0.349561 -2.04433 0
M  V30 9262 C 851.558 1.02082 -1.5799 0
M  V30 9263 O 850.916 1.65458 -0.741172 0
M  V30 9264 C 850.964 -0.404292 -3.58326 0
M  V30 9265 O 850.068 0.594447 -4.08093 0
M  V30 9266 H 849.409 -0.150959 -0.646612 0
M  V30 9267 H 851.939 -1.05079 -1.75555 0
M  V30 9268 H 851.949 -0.262378 -4.07155 0
M  V30 9269 H 850.624 -1.40403 -3.91484 0
M  V30 9270 H 849.201 0.415468 -3.70578 0
M  V30 9271 N 851.386 1.48609 -0.524698 0
M  V30 9272 C 852.635 2.01696 0.0132937 0
M  V30 9273 C 852.948 1.40751 1.35825 0
M  V30 9274 O 854.154 1.85304 1.9843 0
M  V30 9275 C 852.61 3.59824 0.0741012 0
M  V30 9276 C 852.218 4.2975 -1.26564 0
M  V30 9277 C 853.962 4.20774 0.5612 0
M  V30 9278 C 851.869 5.79798 -1.16571 0
M  V30 9279 H 850.799 0.753949 0.00873931 0
M  V30 9280 H 853.45 1.70922 -0.667684 0
M  V30 9281 H 851.832 3.87416 0.820043 0
M  V30 9282 H 853.006 4.13836 -2.02674 0
M  V30 9283 H 851.321 3.80649 -1.68806 0
M  V30 9284 H 853.918 5.30687 0.653853 0
M  V30 9285 H 854.261 3.85734 1.56573 0
M  V30 9286 H 854.794 3.97591 -0.128901 0
M  V30 9287 H 851.533 6.19403 -2.14523 0
M  V30 9288 H 851.053 5.9814 -0.445894 0
M  V30 9289 H 852.732 6.41337 -0.854186 0
M  V30 9290 N 852.864 0.259585 1.55447 0
M  V30 9291 C 854.111 -0.361607 1.99245 0
M  V30 9292 C 854.439 -1.57017 1.14787 0
M  V30 9293 O 853.694 -1.94658 0.201724 0
M  V30 9294 C 853.993 -0.802727 3.48269 0
M  V30 9295 C 853.659 0.299472 4.49904 0
M  V30 9296 C 852.321 0.602157 4.77418 0
M  V30 9297 C 854.673 1.04295 5.10658 0
M  V30 9298 C 852.001 1.65217 5.62957 0
M  V30 9299 C 854.353 2.08257 5.97337 0
M  V30 9300 C 853.017 2.39177 6.23178 0
M  V30 9301 H 852.287 -0.132322 0.72909 0
M  V30 9302 H 854.934 0.370059 1.8789 0
M  V30 9303 H 853.239 -1.61381 3.5702 0
M  V30 9304 H 854.936 -1.29385 3.79553 0
M  V30 9305 H 851.526 0.0534256 4.28567 0
M  V30 9306 H 855.71 0.822358 4.89439 0
M  V30 9307 H 850.966 1.89692 5.81229 0
M  V30 9308 H 855.14 2.6635 6.43452 0
M  V30 9309 H 852.767 3.20677 6.89253 0
M  V30 9310 N 854.342 -1.57594 -0.0133615 0
M  V30 9311 C 855.59 -1.89605 -0.699596 0
M  V30 9312 C 855.911 -0.85926 -1.75048 0
M  V30 9313 O 855.181 0.105112 -1.95618 0
M  V30 9314 H 853.761 -0.699776 -0.261385 0
M  V30 9315 H 856.423 -1.94885 0.0244044 0
M  V30 9316 H 855.519 -2.88962 -1.17928 0
M  V30 9317 N 855.82 0.285905 -1.54985 0
M  V30 9318 C 857.097 1.0397 -1.65679 0
M  V30 9319 C 857.477 2.04725 -0.514851 0
M  V30 9320 O 856.825 2.23257 0.486663 0
M  V30 9321 C 857.035 1.70807 -3.04345 0
M  V30 9322 C 858.383 2.22447 -3.61666 0
M  V30 9323 O 859.407 1.80815 -3.06895 0
M  V30 9324 O 858.266 2.98773 -4.57599 0
M  V30 9325 H 855.36 0.481473 -0.672394 0
M  V30 9326 H 857.906 0.282789 -1.67327 0
M  V30 9327 H 856.678 0.977271 -3.789 0
M  V30 9328 H 856.301 2.53217 -3.06541 0
M  V30 9329 N 857.298 1.47698 0.54982 0
M  V30 9330 C 858.246 1.61156 1.67724 0
M  V30 9331 C 859.24 0.478606 1.62498 0
M  V30 9332 O 860.446 0.656661 1.67595 0
M  V30 9333 H 856.821 0.507304 0.55511 0
M  V30 9334 H 858.792 2.55884 1.53512 0
M  V30 9335 C 857.541 1.64994 3.06059 0
M  V30 9336 H 856.864 2.51525 3.10765 0
M  V30 9337 H 858.304 1.78459 3.84615 0
M  V30 9338 C 856.763 0.384677 3.34697 0
M  V30 9339 O 857.293 -0.511057 3.98436 0
M  V30 9340 N 855.499 0.262434 2.89413 0
M  V30 9341 H 855.046 0.99229 2.37721 0
M  V30 9342 H 855.004 -0.583177 3.08944 0
M  V30 9343 N 858.776 -0.797141 1.35954 0
M  V30 9344 C 859.686 -1.94088 1.31784 0
M  V30 9345 C 860.702 -1.72588 0.221227 0
M  V30 9346 O 861.878 -1.96256 0.452255 0
M  V30 9347 C 858.943 -3.28828 1.09878 0
M  V30 9348 C 858.004 -3.63158 2.28942 0
M  V30 9349 C 857.237 -4.91469 2.08072 0
M  V30 9350 O 857.46 -5.60616 1.05196 0
M  V30 9351 O 856.394 -5.24277 2.95664 0
M  V30 9352 H 860.22 -2.00554 2.28061 0
M  V30 9353 H 857.805 -0.936288 1.16422 0
M  V30 9354 H 859.687 -4.09473 0.995485 0
M  V30 9355 H 858.362 -3.23271 0.16659 0
M  V30 9356 H 857.269 -2.82851 2.44839 0
M  V30 9357 H 858.602 -3.7343 3.20641 0
M  V30 9358 N 860.254 -1.20106 -1.0204 0
M  V30 9359 C 861.479 -1.0351 -1.79723 0
M  V30 9360 C 861.904 0.411328 -1.83548 0
M  V30 9361 O 861.262 1.29608 -1.26773 0
M  V30 9362 C 861.31 -1.61876 -3.22224 0
M  V30 9363 O 860.414 -0.853813 -4.03465 0
M  V30 9364 H 859.755 -0.365299 -0.554484 0
M  V30 9365 H 862.285 -1.59316 -1.28373 0
M  V30 9366 H 862.295 -1.65451 -3.72948 0
M  V30 9367 H 860.97 -2.67148 -3.18755 0
M  V30 9368 H 859.547 -0.891983 -3.62075 0
M  V30 9369 N 861.732 1.21287 -1.00634 0
M  V30 9370 C 863.148 1.42467 -0.719389 0
M  V30 9371 C 863.348 1.88767 0.704927 0
M  V30 9372 O 862.404 2.05004 1.47409 0
M  V30 9373 C 863.717 2.455 -1.73639 0
M  V30 9374 C 865.265 2.59281 -1.75335 0
M  V30 9375 C 865.74 3.65547 -2.75934 0
M  V30 9376 N 867.231 3.73019 -2.74611 0
M  V30 9377 C 867.966 4.54873 -3.4911 0
M  V30 9378 N 867.462 5.40614 -4.33253 0
M  V30 9379 N 869.255 4.49309 -3.37754 0
M  V30 9380 H 861.406 0.895454 -1.92602 0
M  V30 9381 H 863.669 0.455491 -0.831404 0
M  V30 9382 H 863.375 2.18455 -2.75627 0
M  V30 9383 H 863.249 3.44325 -1.54014 0
M  V30 9384 H 865.636 2.85661 -0.740377 0
M  V30 9385 H 865.717 1.60685 -1.99032 0
M  V30 9386 H 865.361 3.39911 -3.77389 0
M  V30 9387 H 865.291 4.63741 -2.49503 0
M  V30 9388 H 867.782 3.11766 -2.13565 0
M  V30 9389 H 868.095 6.0013 -4.86892 0
M  V30 9390 H 866.44 5.40151 -4.37335 0
M  V30 9391 H 869.631 3.81357 -2.71449 0
M  V30 9392 H 869.804 5.12867 -3.9607 0
M  V30 9393 N 863.21 0.781244 1.36873 0
M  V30 9394 C 864.626 0.461968 1.52768 0
M  V30 9395 C 864.826 -1.02099 1.73719 0
M  V30 9396 O 863.882 -1.80665 1.76399 0
M  V30 9397 C 865.195 1.2853 2.71846 0
M  V30 9398 C 866.743 1.27817 2.85713 0
M  V30 9399 C 867.218 2.08506 4.07786 0
M  V30 9400 N 868.709 2.05909 4.14917 0
M  V30 9401 C 869.444 2.65118 5.08429 0
M  V30 9402 N 868.94 3.33152 6.07438 0
M  V30 9403 N 870.733 2.54896 5.00983 0
M  V30 9404 H 862.884 1.74198 1.21527 0
M  V30 9405 H 865.147 0.740027 0.592506 0
M  V30 9406 H 864.853 2.3366 2.62861 0
M  V30 9407 H 864.727 0.920981 3.65784 0
M  V30 9408 H 867.114 0.234817 2.94164 0
M  V30 9409 H 867.195 1.68219 1.92707 0
M  V30 9410 H 866.839 3.12867 4.00096 0
M  V30 9411 H 866.769 1.65479 4.99924 0
M  V30 9412 H 869.26 1.56386 3.44023 0
M  V30 9413 H 869.573 3.75681 6.75339 0
M  V30 9414 H 867.918 3.37253 6.07689 0
M  V30 9415 H 871.109 2.01352 4.22581 0
M  V30 9416 H 871.282 3.01332 5.73675 0
M  V30 9417 N 864.689 -1.48329 0.532571 0
M  V30 9418 C 865.937 -2.021 -0.000581206 0
M  V30 9419 C 866.258 -1.4117 -1.34522 0
M  V30 9420 O 865.528 -0.578005 -1.87179 0
M  V30 9421 H 864.108 -0.746993 -0.00320281 0
M  V30 9422 H 866.77 -1.82011 0.696991 0
M  V30 9423 H 865.866 -3.11917 -0.106991 0
M  V30 9424 N 866.167 -0.267825 -1.55308 0
M  V30 9425 C 867.392 0.357487 -2.04296 0
M  V30 9426 C 867.817 1.49222 -1.14518 0
M  V30 9427 O 867.175 1.80741 -0.142292 0
M  V30 9428 C 867.223 0.822899 -3.51085 0
M  V30 9429 O 866.327 1.93078 -3.6441 0
M  V30 9430 H 865.668 0.075025 -0.659748 0
M  V30 9431 H 868.198 -0.399996 -2.00652 0
M  V30 9432 H 868.208 1.12059 -3.92309 0
M  V30 9433 H 866.883 -0.0073562 -4.15899 0
M  V30 9434 H 865.46 1.63618 -3.35087 0
M  V30 9435 N 867.645 1.57599 0.00500368 0
M  V30 9436 C 868.575 2.11143 0.99705 0
M  V30 9437 C 869.556 1.0194 1.3617 0
M  V30 9438 O 870.741 1.29596 1.44632 0
M  V30 9439 C 867.871 2.61062 2.2905 0
M  V30 9440 C 866.825 3.74745 2.0676 0
M  V30 9441 C 866.151 4.10961 3.42075 0
M  V30 9442 C 867.451 5.02222 1.43424 0
M  V30 9443 H 869.145 2.94281 0.551251 0
M  V30 9444 H 866.691 1.41565 0.263715 0
M  V30 9445 H 868.644 2.97146 2.98801 0
M  V30 9446 H 867.368 1.75038 2.75734 0
M  V30 9447 H 866.027 3.39047 1.39436 0
M  V30 9448 H 865.675 3.21968 3.86453 0
M  V30 9449 H 865.375 4.87549 3.27979 0
M  V30 9450 H 866.899 4.49599 4.1315 0
M  V30 9451 H 868.313 5.36109 2.03125 0
M  V30 9452 H 866.71 5.83581 1.39831 0
M  V30 9453 H 867.78 4.83224 0.40285 0
M  V30 9454 N 869.123 -0.277682 1.55134 0
M  V30 9455 C 870.37 -1.0099 1.7552 0
M  V30 9456 C 870.698 -1.86452 0.553712 0
M  V30 9457 O 869.953 -1.90122 -0.463896 0
M  V30 9458 C 870.252 -1.92599 3.01065 0
M  V30 9459 C 869.918 -1.22926 4.3382 0
M  V30 9460 C 868.58 -1.03659 4.69902 0
M  V30 9461 C 870.932 -0.733071 5.16019 0
M  V30 9462 C 868.26 -0.334933 5.85743 0
M  V30 9463 C 870.612 -0.0450319 6.32584 0
M  V30 9464 C 869.276 0.159393 6.6731 0
M  V30 9465 H 868.546 -0.36955 0.642273 0
M  V30 9466 H 871.193 -0.282611 1.89403 0
M  V30 9467 H 869.498 -2.71934 2.82062 0
M  V30 9468 H 871.195 -2.49367 3.14034 0
M  V30 9469 H 867.785 -1.38933 4.05457 0
M  V30 9470 H 871.969 -0.869565 4.88623 0
M  V30 9471 H 867.225 -0.165783 6.11175 0
M  V30 9472 H 871.399 0.34723 6.95534 0
M  V30 9473 H 869.026 0.70507 7.56923 0
M  V30 9474 N 870.601 -1.47988 -0.541979 0
M  V30 9475 C 871.847 -1.55623 -1.30036 0
M  V30 9476 C 872.18 -0.224254 -1.92901 0
M  V30 9477 O 871.455 0.768629 -1.78668 0
M  V30 9478 C 871.738 -2.68562 -2.39888 0
M  V30 9479 C 871.591 -4.11426 -1.81792 0
M  V30 9480 C 872.91 -2.77325 -3.41729 0
M  V30 9481 H 870.029 -0.566498 -0.471433 0
M  V30 9482 H 872.671 -1.8011 -0.604998 0
M  V30 9483 H 870.821 -2.47814 -2.992 0
M  V30 9484 H 872.493 -4.43581 -1.26624 0
M  V30 9485 H 870.736 -4.18989 -1.12386 0
M  V30 9486 H 871.407 -4.8625 -2.61276 0
M  V30 9487 H 873.883 -2.96085 -2.92357 0
M  V30 9488 H 872.759 -3.58097 -4.16002 0
M  V30 9489 H 873.02 -1.84995 -4.01534 0
M  V30 9490 N 872.079 0.78992 -1.36375 0
M  V30 9491 C 873.49 1.36506 -1.2737 0
M  V30 9492 C 873.841 1.96008 0.086711 0
M  V30 9493 O 872.966 1.92521 0.988159 0
M  V30 9494 C 873.561 2.48175 -2.30639 0
M  V30 9495 C 872.12 3.01506 -2.25325 0
M  V30 9496 C 871.267 1.74581 -2.15445 0
M  V30 9497 H 874.218 0.591606 -1.47261 0
M  V30 9498 H 874.239 3.27179 -1.94253 0
M  V30 9499 H 873.751 2.04838 -3.2964 0
M  V30 9500 H 871.852 3.49265 -1.29788 0
M  V30 9501 H 871.965 3.58355 -3.17992 0
M  V30 9502 H 870.329 1.96794 -1.61692 0
M  V30 9503 H 871.112 1.33373 -3.16333 0
M  V30 9504 N 873.557 1.20646 1.01402 0
M  V30 9505 C 874.507 0.925209 2.08384 0
M  V30 9506 C 875.491 -0.115994 1.60481 0
M  V30 9507 O 876.683 0.0917276 1.76762 0
M  V30 9508 C 873.812 0.48193 3.399 0
M  V30 9509 C 872.898 1.5567 3.94497 0
M  V30 9510 N 873.289 2.77971 4.2257 0
M  V30 9511 C 871.587 1.42347 4.22674 0
M  V30 9512 C 872.288 3.47317 4.66632 0
M  V30 9513 N 871.264 2.74736 4.69064 0
M  V30 9514 H 875.066 1.85452 2.28002 0
M  V30 9515 H 872.58 1.10084 1.19395 0
M  V30 9516 H 874.577 0.261835 4.16077 0
M  V30 9517 H 873.237 -0.440725 3.21695 0
M  V30 9518 H 874.248 3.14598 4.11398 0
M  V30 9519 H 870.925 0.565417 4.13654 0
M  V30 9520 H 872.315 4.51985 4.97151 0
M  V30 9521 N 875.035 -1.20752 1.01276 0
M  V30 9522 C 876.451 -1.42084 0.726934 0
M  V30 9523 C 876.651 -1.89138 -0.694907 0
M  V30 9524 O 875.707 -2.05783 -1.4632 0
M  V30 9525 C 877.02 -2.44575 1.74938 0
M  V30 9526 C 878.568 -2.58347 1.76708 0
M  V30 9527 C 879.043 -3.64078 2.77869 0
M  V30 9528 N 880.534 -3.71558 2.76585 0
M  V30 9529 C 881.269 -4.53016 3.51517 0
M  V30 9530 N 880.765 -5.38309 4.36114 0
M  V30 9531 N 882.558 -4.47512 3.40132 0
M  V30 9532 H 874.709 -0.885228 1.93074 0
M  V30 9533 H 876.972 -0.451075 0.833808 0
M  V30 9534 H 876.678 -2.1699 2.76782 0
M  V30 9535 H 876.552 -3.43503 1.55838 0
M  V30 9536 H 878.939 -2.85265 0.755516 0
M  V30 9537 H 879.02 -1.59628 1.99882 0
M  V30 9538 H 878.664 -3.37905 3.79187 0
M  V30 9539 H 878.594 -4.62412 2.51958 0
M  V30 9540 H 881.085 -3.10629 2.15216 0
M  V30 9541 H 881.398 -5.9754 4.90068 0
M  V30 9542 H 879.743 -5.37824 4.40194 0
M  V30 9543 H 882.934 -3.79912 2.73467 0
M  V30 9544 H 883.107 -5.10759 3.98784 0
M  V30 9545 N 876.513 -0.788492 -1.36457 0
M  V30 9546 C 877.924 -0.423742 -1.81828 0
M  V30 9547 C 878.275 1.05221 -1.65599 0
M  V30 9548 O 877.4 1.8163 -1.17641 0
M  V30 9549 C 877.995 -0.762354 -3.30112 0
M  V30 9550 C 876.554 -0.450445 -3.73695 0
M  V30 9551 C 875.701 -0.997482 -2.58738 0
M  V30 9552 H 878.652 -0.981718 -1.24692 0
M  V30 9553 H 878.673 -0.0531136 -3.80463 0
M  V30 9554 H 878.185 -1.83662 -3.41891 0
M  V30 9555 H 876.286 0.615829 -3.67476 0
M  V30 9556 H 876.399 -0.970408 -4.69169 0
M  V30 9557 H 874.763 -0.420761 -2.51201 0
M  V30 9558 H 875.546 -2.07749 -2.73304 0
M  V30 9559 N 877.991 1.48044 -0.54043 0
M  V30 9560 C 878.923 2.2779 0.253854 0
M  V30 9561 C 879.936 1.35999 0.894883 0
M  V30 9562 O 881.125 1.60963 0.771563 0
M  V30 9563 C 878.225 3.09724 1.37566 0
M  V30 9564 C 877.398 4.29364 0.83459 0
M  V30 9565 C 876.457 4.93026 1.83881 0
M  V30 9566 O 875.483 5.51927 1.39159 0
M  V30 9567 N 876.685 4.86207 3.17149 0
M  V30 9568 H 879.45 2.96597 -0.430125 0
M  V30 9569 H 877.011 1.57487 -0.375423 0
M  V30 9570 H 879.003 3.49181 2.04584 0
M  V30 9571 H 877.573 2.43269 1.96314 0
M  V30 9572 H 876.793 3.94198 -0.0118878 0
M  V30 9573 H 878.081 5.06787 0.452155 0
M  V30 9574 H 877.479 4.39523 3.56141 0
M  V30 9575 H 876.036 5.29733 3.79771 0
M  V30 9576 N 879.47 0.276058 1.55163 0
M  V30 9577 C 880.38 -0.621066 2.2623 0
M  V30 9578 C 881.396 -1.16931 1.28853 0
M  V30 9579 O 882.572 -1.1994 1.61791 0
M  V30 9580 C 879.637 -1.78824 2.97023 0
M  V30 9581 C 878.698 -1.27657 4.09881 0
M  V30 9582 C 877.931 -2.38812 4.77289 0
M  V30 9583 O 878.154 -3.58188 4.43912 0
M  V30 9584 O 877.088 -2.06915 5.65217 0
M  V30 9585 H 880.914 -0.0453346 3.03666 0
M  V30 9586 H 878.499 0.0434275 1.49337 0
M  V30 9587 H 880.381 -2.46877 3.41511 0
M  V30 9588 H 879.056 -2.35104 2.22503 0
M  V30 9589 H 877.963 -0.56248 3.69847 0
M  V30 9590 H 879.296 -0.759509 4.86305 0
M  V30 9591 N 880.948 -1.576 0.00335426 0
M  V30 9592 C 882.364 -1.55653 -0.352766 0
M  V30 9593 C 882.564 -1.00632 -1.74572 0
M  V30 9594 O 881.62 -0.641621 -2.44212 0
M  V30 9595 C 882.933 -2.99858 -0.224929 0
M  V30 9596 C 884.481 -3.11563 -0.299619 0
M  V30 9597 C 884.956 -4.57559 -0.200868 0
M  V30 9598 N 886.447 -4.62477 -0.258663 0
M  V30 9599 C 887.182 -5.73031 -0.205644 0
M  V30 9600 N 886.678 -6.92723 -0.103027 0
M  V30 9601 N 888.471 -5.61509 -0.257754 0
M  V30 9602 H 880.622 -1.91703 0.914539 0
M  V30 9603 H 882.885 -0.88068 0.350865 0
M  V30 9604 H 882.591 -3.43964 0.733595 0
M  V30 9605 H 882.465 -3.63547 -1.00564 0
M  V30 9606 H 884.852 -2.67384 -1.24859 0
M  V30 9607 H 884.933 -2.50644 0.511025 0
M  V30 9608 H 884.577 -5.02413 0.744572 0
M  V30 9609 H 884.507 -5.16428 -1.03004 0
M  V30 9610 H 886.998 -3.76375 -0.339168 0
M  V30 9611 H 887.311 -7.7277 -0.0685593 0
M  V30 9612 H 885.656 -6.94966 -0.0686069 0
M  V30 9613 H 888.847 -4.66892 -0.336142 0
M  V30 9614 H 889.02 -6.4765 -0.21297 0
M  V30 9615 N 882.426 0.269451 -1.5528 0
M  V30 9616 C 883.842 0.616827 -1.47199 0
M  V30 9617 C 884.042 1.89354 -0.68901 0
M  V30 9618 O 883.098 2.51631 -0.209287 0
M  V30 9619 C 884.411 0.740492 -2.9144 0
M  V30 9620 C 885.959 0.834312 -3.01676 0
M  V30 9621 C 886.434 0.989725 -4.47178 0
M  V30 9622 N 887.925 1.05516 -4.51022 0
M  V30 9623 C 888.66 1.19427 -5.60825 0
M  V30 9624 N 888.156 1.30035 -6.80487 0
M  V30 9625 N 889.949 1.22566 -5.48575 0
M  V30 9626 H 882.1 -0.568962 -2.04638 0
M  V30 9627 H 884.363 -0.193153 -0.928114 0
M  V30 9628 H 884.069 -0.127234 -3.5147 0
M  V30 9629 H 883.943 1.61965 -3.40657 0
M  V30 9630 H 886.33 1.6925 -2.4174 0
M  V30 9631 H 886.411 -0.0695298 -2.55705 0
M  V30 9632 H 886.055 0.136179 -5.07717 0
M  V30 9633 H 885.985 1.90827 -4.90808 0
M  V30 9634 H 888.476 0.985434 -3.64825 0
M  V30 9635 H 888.789 1.40494 -7.59922 0
M  V30 9636 H 887.134 1.27033 -6.83292 0
M  V30 9637 H 890.325 1.13911 -4.54029 0
M  V30 9638 H 890.498 1.33063 -6.34191 0
M  V30 9639 N 883.904 1.48273 0.534124 0
M  V30 9640 C 885.129 1.59988 1.31979 0
M  V30 9641 C 885.554 0.258824 1.86311 0
M  V30 9642 O 884.912 -0.768885 1.64188 0
M  V30 9643 C 884.96 2.64642 2.44943 0
M  V30 9644 O 884.064 2.21515 3.47858 0
M  V30 9645 H 883.405 0.536625 0.391063 0
M  V30 9646 H 885.935 1.94229 0.643135 0
M  V30 9647 H 885.945 2.85786 2.91187 0
M  V30 9648 H 884.62 3.62004 2.04758 0
M  V30 9649 H 883.197 2.10567 3.0776 0
M  V30 9650 N 885.382 -0.782676 1.36792 0
M  V30 9651 C 886.607 -1.57676 1.34733 0
M  V30 9652 C 887.032 -1.87979 -0.0675253 0
M  V30 9653 O 886.39 -1.48404 -1.04144 0
M  V30 9654 C 886.438 -2.87047 2.18257 0
M  V30 9655 O 885.542 -3.80946 1.57969 0
M  V30 9656 H 884.883 -0.478034 0.460846 0
M  V30 9657 H 887.413 -0.969578 1.80168 0
M  V30 9658 H 887.423 -3.36254 2.31079 0
M  V30 9659 H 886.098 -2.64319 3.21104 0
M  V30 9660 H 884.675 -3.39558 1.54126 0
M  V30 9661 N 886.86 -1.21182 -1.00761 0
M  V30 9662 C 887.808 -0.965728 -2.11604 0
M  V30 9663 C 888.802 0.0861028 -1.69181 0
M  V30 9664 O 890.008 -0.0650558 -1.79882 0
M  V30 9665 H 886.383 -0.295023 -0.691712 0
M  V30 9666 H 888.354 -1.90667 -2.2954 0
M  V30 9667 C 887.103 -0.544164 -3.43415 0
M  V30 9668 H 886.426 -1.34515 -3.76491 0
M  V30 9669 H 887.866 -0.411268 -4.22001 0
M  V30 9670 C 886.325 0.744583 -3.28569 0
M  V30 9671 O 886.855 1.80078 -3.59075 0
M  V30 9672 N 885.061 0.710083 -2.81791 0
M  V30 9673 H 884.608 -0.14971 -2.57165 0
M  V30 9674 H 884.566 1.57268 -2.72239 0
M  V30 9675 N 888.338 1.20213 -1.01915 0
M  V30 9676 C 889.587 1.88968 -0.705261 0
M  V30 9677 C 889.9 1.79869 0.768531 0
M  V30 9678 O 891.106 2.43783 1.19508 0
M  V30 9679 C 889.562 3.38911 -1.21109 0
M  V30 9680 C 889.17 3.5659 -2.71197 0
M  V30 9681 C 890.914 4.13204 -0.97275 0
M  V30 9682 C 888.821 5.00372 -3.15248 0
M  V30 9683 H 887.751 0.707715 -0.260107 0
M  V30 9684 H 890.402 1.35977 -1.23217 0
M  V30 9685 H 888.784 3.9124 -0.612152 0
M  V30 9686 H 889.958 3.14635 -3.36662 0
M  V30 9687 H 888.273 2.95671 -2.93202 0
M  V30 9688 H 890.87 5.19221 -1.27726 0
M  V30 9689 H 891.213 4.16201 0.09072 0
M  V30 9690 H 891.746 3.66983 -1.5352 0
M  V30 9691 H 888.485 5.02532 -4.20882 0
M  V30 9692 H 888.005 5.43127 -2.54505 0
M  V30 9693 H 889.684 5.68969 -3.08032 0
M  V30 9694 N 889.816 0.795718 1.36037 0
M  V30 9695 C 891.041 0.38204 2.03851 0
M  V30 9696 C 891.466 -0.995553 1.59594 0
M  V30 9697 O 890.824 -1.64258 0.767401 0
M  V30 9698 C 890.872 0.461248 3.57638 0
M  V30 9699 O 889.976 -0.529448 4.08987 0
M  V30 9700 H 889.317 0.161227 0.644129 0
M  V30 9701 H 891.847 1.07858 1.73861 0
M  V30 9702 H 891.857 0.32712 4.06687 0
M  V30 9703 H 890.532 1.46613 3.89201 0
M  V30 9704 H 889.109 -0.35646 3.71192 0
M  V30 9705 N 891.294 -1.47756 0.548274 0
M  V30 9706 C 892.226 -2.27921 -0.24177 0
M  V30 9707 C 893.239 -1.36471 -0.887658 0
M  V30 9708 O 894.428 -1.6137 -0.763016 0
M  V30 9709 C 891.528 -3.10449 -1.35922 0
M  V30 9710 C 890.701 -4.298 -0.811808 0
M  V30 9711 C 889.76 -4.93994 -1.81264 0
M  V30 9712 O 888.786 -5.52657 -1.3623 0
M  V30 9713 N 889.988 -4.87882 -3.14566 0
M  V30 9714 H 892.753 -2.96365 0.445848 0
M  V30 9715 H 890.314 -1.57286 0.383769 0
M  V30 9716 H 892.306 -3.50261 -2.02729 0
M  V30 9717 H 890.876 -2.44306 -1.95021 0
M  V30 9718 H 890.096 -3.94186 0.0327929 0
M  V30 9719 H 891.384 -5.0702 -0.425272 0
M  V30 9720 H 890.782 -4.41405 -3.53805 0
M  V30 9721 H 889.339 -5.3174 -3.76956 0
M  V30 9722 N 892.772 -0.284283 -1.55015 0
M  V30 9723 C 893.735 0.586182 -2.21577 0
M  V30 9724 C 894.735 1.07427 -1.1965 0
M  V30 9725 O 895.925 0.972977 -1.44495 0
M  V30 9726 C 893.057 1.80973 -2.88897 0
M  V30 9727 H 894.25 0.00487253 -2.999 0
M  V30 9728 H 891.803 -0.0349696 -1.56261 0
M  V30 9729 H 892.538 2.43131 -2.14611 0
M  V30 9730 H 892.323 1.46757 -3.636 0
M  V30 9731 H 893.813 2.42853 -3.39724 0
M  V30 9732 N 894.251 1.57596 -0.0117121 0
M  V30 9733 C 895.476 1.95764 0.684938 0
M  V30 9734 C 895.901 0.887285 1.65858 0
M  V30 9735 O 895.259 -0.153508 1.80649 0
M  V30 9736 C 895.307 3.33031 1.38285 0
M  V30 9737 O 894.411 3.28163 2.49765 0
M  V30 9738 H 893.752 0.638767 0.181309 0
M  V30 9739 H 896.282 2.04486 -0.0683883 0
M  V30 9740 H 896.292 3.68866 1.74362 0
M  V30 9741 H 894.967 4.10483 0.669043 0
M  V30 9742 H 893.544 3.04021 2.15929 0
M  V30 9743 N 895.729 -0.261212 1.5542 0
M  V30 9744 C 897.145 -0.609012 1.47524 0
M  V30 9745 C 897.345 -1.88986 0.699042 0
M  V30 9746 O 896.401 -2.51517 0.222628 0
M  V30 9747 C 897.714 -0.725025 2.91828 0
M  V30 9748 C 899.262 -0.818302 3.02114 0
M  V30 9749 C 899.737 -0.965996 4.47697 0
M  V30 9750 N 901.228 -1.03123 4.51575 0
M  V30 9751 C 901.963 -1.16451 5.6145 0
M  V30 9752 N 901.459 -1.26425 6.81167 0
M  V30 9753 N 903.252 -1.19655 5.49217 0
M  V30 9754 H 895.403 0.579807 2.04333 0
M  V30 9755 H 897.666 0.198072 0.927077 0
M  V30 9756 H 897.372 0.145871 3.51397 0
M  V30 9757 H 897.246 -1.60156 3.41511 0
M  V30 9758 H 899.633 -1.67966 2.42634 0
M  V30 9759 H 899.714 0.0830895 2.55665 0
M  V30 9760 H 899.358 -0.109251 5.07782 0
M  V30 9761 H 899.288 -1.88221 4.91813 0
M  V30 9762 H 901.779 -0.966072 3.65343 0
M  V30 9763 H 902.092 -1.36462 7.60656 0
M  V30 9764 H 900.437 -1.23408 6.83956 0
M  V30 9765 H 903.628 -1.11501 4.54626 0
M  V30 9766 H 903.801 -1.29698 6.34888 0
M  V30 9767 N 897.207 -1.48554 -0.526253 0
M  V30 9768 C 898.432 -1.60686 -1.31129 0
M  V30 9769 C 898.857 -0.268701 -1.86171 0
M  V30 9770 O 898.215 0.760167 -1.64594 0
M  V30 9771 C 898.263 -2.65938 -2.43536 0
M  V30 9772 O 897.367 -2.23356 -3.46678 0
M  V30 9773 H 896.708 -0.538691 -0.388211 0
M  V30 9774 H 899.238 -1.94567 -0.632826 0
M  V30 9775 H 899.248 -2.87327 -2.89668 0
M  V30 9776 H 897.923 -3.63085 -2.02835 0
M  V30 9777 H 896.5 -2.12196 -3.06639 0
M  V30 9778 N 898.685 0.775411 -1.37205 0
M  V30 9779 C 900.096 1.35147 -1.28811 0
M  V30 9780 C 900.447 1.96089 0.0659168 0
M  V30 9781 O 899.572 1.93558 0.967684 0
M  V30 9782 C 900.167 2.45715 -2.33258 0
M  V30 9783 C 898.726 2.99099 -2.2851 0
M  V30 9784 C 897.873 1.72286 -2.17285 0
M  V30 9785 H 900.824 0.575954 -1.4788 0
M  V30 9786 H 900.845 3.251 -1.97712 0
M  V30 9787 H 900.357 2.01331 -3.31795 0
M  V30 9788 H 898.458 3.47868 -1.33485 0
M  V30 9789 H 898.571 3.54962 -3.21774 0
M  V30 9790 H 896.935 1.95068 -1.6377 0
M  V30 9791 H 897.718 1.3001 -3.1773 0
M  V30 9792 N 900.163 1.21714 1.00117 0
M  V30 9793 C 901.574 1.03477 1.55401 0
M  V30 9794 C 901.925 -0.40429 1.91989 0
M  V30 9795 O 901.05 -1.28807 1.7389 0
M  V30 9796 C 901.645 1.87213 2.82377 0
M  V30 9797 C 900.204 1.73297 3.34133 0
M  V30 9798 C 899.351 1.84189 2.07291 0
M  V30 9799 H 902.302 1.3568 0.823195 0
M  V30 9800 H 902.323 1.38465 3.54412 0
M  V30 9801 H 901.835 2.91944 2.55715 0
M  V30 9802 H 899.936 0.712662 3.65721 0
M  V30 9803 H 900.049 2.55486 4.05294 0
M  V30 9804 H 898.413 1.27538 2.20468 0
M  V30 9805 H 899.196 2.90435 1.83037 0
M  V30 9806 N 901.641 -1.19671 1.02551 0
M  V30 9807 C 902.574 -2.21522 0.547998 0
M  V30 9808 C 903.552 -1.57363 -0.409349 0
M  V30 9809 O 904.736 -1.85638 -0.327248 0
M  V30 9810 C 901.863 -3.38101 -0.201375 0
M  V30 9811 C 900.909 -4.20601 0.706886 0
M  V30 9812 S 901.742 -4.89066 2.18116 0
M  V30 9813 C 902.898 -6.09058 1.4422 0
M  V30 9814 H 903.131 -2.61684 1.41099 0
M  V30 9815 H 900.664 -1.29864 0.835153 0
M  V30 9816 H 902.622 -4.05674 -0.627607 0
M  V30 9817 H 901.283 -2.96381 -1.04005 0
M  V30 9818 H 900.476 -5.03836 0.128554 0
M  V30 9819 H 900.078 -3.58329 1.07129 0
M  V30 9820 H 902.37 -6.73588 0.726975 0
M  V30 9821 H 903.313 -6.71368 2.25102 0
M  V30 9822 H 903.721 -5.56599 0.941176 0
M  V30 9823 N 903.119 -0.802921 -1.35613 0
M  V30 9824 C 904.049 -0.225131 -2.32412 0
M  V30 9825 C 905.03 0.647383 -1.57299 0
M  V30 9826 O 906.215 0.578414 -1.85386 0
M  V30 9827 C 903.345 0.630085 -3.41537 0
M  V30 9828 C 902.299 -0.143635 -4.27759 0
M  V30 9829 C 901.625 0.833046 -5.28171 0
M  V30 9830 C 902.925 -1.34054 -5.04804 0
M  V30 9831 H 904.619 -1.03385 -2.80984 0
M  V30 9832 H 902.165 -0.498593 -1.35093 0
M  V30 9833 H 904.118 1.04433 -4.08254 0
M  V30 9834 H 902.842 1.47165 -2.91565 0
M  V30 9835 H 901.501 -0.539015 -3.62616 0
M  V30 9836 H 901.149 1.67001 -4.74468 0
M  V30 9837 H 900.849 0.319697 -5.8673 0
M  V30 9838 H 902.373 1.24558 -5.97761 0
M  V30 9839 H 903.787 -1.00136 -5.64487 0
M  V30 9840 H 902.184 -1.78812 -5.72841 0
M  V30 9841 H 903.254 -2.12906 -4.35659 0
M  V30 9842 N 904.597 1.47463 -0.556102 0
M  V30 9843 C 906.008 1.86298 -0.122429 0
M  V30 9844 C 906.359 1.46285 1.30749 0
M  V30 9845 O 905.484 0.865405 1.98342 0
M  V30 9846 C 906.079 3.38115 -0.215407 0
M  V30 9847 C 904.638 3.76046 0.163223 0
M  V30 9848 C 903.785 2.71515 -0.563466 0
M  V30 9849 H 906.736 1.38996 -0.765888 0
M  V30 9850 H 906.757 3.76263 0.566271 0
M  V30 9851 H 906.269 3.67207 -1.25622 0
M  V30 9852 H 904.37 3.5257 1.20519 0
M  V30 9853 H 904.483 4.78705 -0.194568 0
M  V30 9854 H 902.847 2.54699 -0.00667879 0
M  V30 9855 H 903.63 3.03449 -1.60542 0
M  V30 9856 N 906.075 0.2925 1.54862 0
M  V30 9857 C 907.321 -0.319736 2.00264 0
M  V30 9858 C 907.654 -1.5419 1.18064 0
M  V30 9859 O 906.929 -1.92821 0.254983 0
M  V30 9860 C 907.212 -0.684753 3.5353 0
M  V30 9861 C 907.065 0.545961 4.46474 0
M  V30 9862 C 908.384 -1.51456 4.13218 0
M  V30 9863 H 905.503 -0.11474 0.728014 0
M  V30 9864 H 908.145 0.402907 1.85679 0
M  V30 9865 H 906.295 -1.30044 3.66089 0
M  V30 9866 H 907.967 1.18448 4.45834 0
M  V30 9867 H 906.21 1.1808 4.1742 0
M  V30 9868 H 906.881 0.246544 5.51449 0
M  V30 9869 H 909.357 -0.994421 4.04043 0
M  V30 9870 H 908.233 -1.73875 5.20633 0
M  V30 9871 H 908.494 -2.5011 3.64551 0
M  V30 9872 N 907.553 -1.57587 0.0200696 0
M  V30 9873 C 908.501 -2.10814 -0.982868 0
M  V30 9874 C 909.495 -1.03263 -1.34287 0
M  V30 9875 O 910.701 -1.21708 -1.32617 0
M  V30 9876 H 907.076 -0.673409 -0.334701 0
M  V30 9877 H 909.047 -2.94034 -0.50856 0
M  V30 9878 C 907.796 -2.64301 -2.25921 0
M  V30 9879 H 907.119 -3.46703 -1.99091 0
M  V30 9880 H 908.559 -3.052 -2.94328 0
M  V30 9881 C 907.018 -1.56628 -2.98277 0
M  V30 9882 O 907.548 -0.960825 -3.9004 0
M  V30 9883 N 905.754 -1.28889 -2.60453 0
M  V30 9884 H 905.301 -1.7831 -1.85912 0
M  V30 9885 H 905.259 -0.570697 -3.09177 0
M  V30 9886 N 909.032 0.252966 -1.55557 0
M  V30 9887 C 910.28 0.979912 -1.76754 0
M  V30 9888 C 910.601 1.86083 -0.582944 0
M  V30 9889 O 909.871 1.91742 0.401497 0
M  V30 9890 H 908.451 0.364805 -0.651864 0
M  V30 9891 H 911.113 0.272372 -1.92987 0
M  V30 9892 H 910.209 1.60518 -2.67657 0
M  V30 9893 N 910.51 1.48831 0.518367 0
M  V30 9894 C 911.457 1.64216 1.62178 0
M  V30 9895 C 912.427 0.483942 1.58894 0
M  V30 9896 O 913.612 0.708857 1.77144 0
M  V30 9897 C 910.752 1.69867 3.00399 0
M  V30 9898 C 909.865 2.96875 3.1383 0
M  V30 9899 C 909 2.93613 4.42679 0
M  V30 9900 C 908.039 4.15276 4.4968 0
M  V30 9901 N 907.176 4.10024 5.69934 0
M  V30 9902 H 912.016 2.58439 1.48368 0
M  V30 9903 H 909.553 1.28154 0.722152 0
M  V30 9904 H 911.511 1.71124 3.8049 0
M  V30 9905 H 910.141 0.791249 3.12952 0
M  V30 9906 H 909.193 3.0531 2.26914 0
M  V30 9907 H 910.505 3.86863 3.14863 0
M  V30 9908 H 909.659 2.93337 5.31073 0
M  V30 9909 H 908.398 2.01375 4.44184 0
M  V30 9910 H 907.403 4.15816 3.59691 0
M  V30 9911 H 908.628 5.08687 4.49904 0
M  V30 9912 H 906.574 3.20613 5.72314 0
M  V30 9913 H 906.491 4.93728 5.72511 0
M  V30 9914 H 907.759 4.13824 6.60583 0
M  V30 9915 N 911.988 -0.768124 1.37614 0
M  V30 9916 C 912.921 -1.88894 1.2804 0
M  V30 9917 C 913.899 -1.61809 0.160226 0
M  V30 9918 O 915.083 -1.85498 0.33506 0
M  V30 9919 C 912.21 -3.24197 0.980523 0
M  V30 9920 C 911.256 -3.70188 2.11808 0
M  V30 9921 S 912.089 -3.83433 3.73817 0
M  V30 9922 C 913.245 -5.21578 3.45987 0
M  V30 9923 H 913.478 -1.96726 2.22904 0
M  V30 9924 H 911.011 -0.929602 1.23279 0
M  V30 9925 H 912.969 -4.02342 0.814331 0
M  V30 9926 H 911.63 -3.14061 0.0493122 0
M  V30 9927 H 910.823 -4.6829 1.86335 0
M  V30 9928 H 910.425 -2.99155 2.2446 0
M  V30 9929 H 912.717 -6.06865 3.012 0
M  V30 9930 H 913.66 -5.52065 4.43429 0
M  V30 9931 H 914.068 -4.89687 2.80832 0
M  V30 9932 N 913.466 -1.22244 -0.994698 0
M  V30 9933 C 914.416 -0.958244 -2.06886 0
M  V30 9934 C 915.4 0.0904481 -1.60646 0
M  V30 9935 O 916.592 -0.119837 -1.76594 0
M  V30 9936 C 913.721 -0.535944 -3.39091 0
M  V30 9937 C 912.807 -1.61927 -3.9197 0
M  V30 9938 N 913.198 -2.84659 -4.18094 0
M  V30 9939 C 911.496 -1.49053 -4.20356 0
M  V30 9940 C 912.197 -3.54697 -4.61048 0
M  V30 9941 N 911.173 -2.82164 -4.64634 0
M  V30 9942 H 914.975 -1.89056 -2.25022 0
M  V30 9943 H 912.489 -1.1197 -1.17629 0
M  V30 9944 H 914.486 -0.327997 -4.15608 0
M  V30 9945 H 913.146 0.38949 -3.22355 0
M  V30 9946 H 914.157 -3.21104 -4.06341 0
M  V30 9947 H 910.834 -0.631154 -4.12702 0
M  V30 9948 H 912.224 -4.59837 -4.89898 0
M  V30 9949 N 914.944 1.19125 -1.03184 0
M  V30 9950 C 916.169 1.93379 -0.749628 0
M  V30 9951 C 916.594 1.75153 0.685785 0
M  V30 9952 O 915.952 1.05579 1.47386 0
M  V30 9953 C 916 3.43101 -1.1097 0
M  V30 9954 O 915.104 4.11758 -0.230053 0
M  V30 9955 H 914.445 0.603605 -0.276689 0
M  V30 9956 H 916.975 1.51116 -1.37931 0
M  V30 9957 H 916.985 3.93778 -1.06785 0
M  V30 9958 H 915.66 3.55688 -2.15544 0
M  V30 9959 H 914.237 3.7143 -0.330748 0
M  V30 9960 N 916.422 0.810101 1.35185 0
M  V30 9961 C 917.385 0.22852 2.28058 0
M  V30 9962 C 918.385 -0.586168 1.49735 0
M  V30 9963 O 919.575 -0.40414 1.69447 0
M  V30 9964 C 916.707 -0.681041 3.34028 0
M  V30 9965 H 917.9 1.04768 2.81005 0
M  V30 9966 H 915.453 0.58101 1.451 0
M  V30 9967 H 916.188 -1.52375 2.86273 0
M  V30 9968 H 915.973 -0.0985276 3.91976 0
M  V30 9969 H 917.463 -1.08217 4.03335 0
M  V30 9970 N 917.9 -1.47166 0.563914 0
M  V30 9971 C 919.146 -2.02756 0.0424338 0
M  V30 9972 C 919.479 -1.43662 -1.3067 0
M  V30 9973 O 918.754 -0.594676 -1.85186 0
M  V30 9974 C 919.037 -3.60074 -0.0434793 0
M  V30 9975 C 918.89 -4.29587 1.33323 0
M  V30 9976 C 920.209 -4.336 -0.753568 0
M  V30 9977 H 917.328 -0.736806 0.0168946 0
M  V30 9978 H 919.97 -1.75521 0.727496 0
M  V30 9979 H 918.12 -3.83409 -0.626906 0
M  V30 9980 H 919.792 -4.17573 1.96037 0
M  V30 9981 H 918.035 -3.8968 1.9061 0
M  V30 9982 H 918.706 -5.38218 1.22576 0
M  V30 9983 H 921.182 -4.15299 -0.258126 0
M  V30 9984 H 920.058 -5.43291 -0.782659 0
M  V30 9985 H 920.319 -4.03302 -1.81108 0
M  V30 9986 N 919.378 -0.300708 -1.54705 0
M  V30 9987 C 920.655 0.361757 -1.92226 0
M  V30 9988 C 921.035 1.71714 -1.2279 0
M  V30 9989 O 920.383 2.2559 -0.363542 0
M  V30 9990 C 920.593 0.476699 -3.45729 0
M  V30 9991 C 921.941 0.7477 -4.17965 0
M  V30 9992 O 922.965 0.560521 -3.51762 0
M  V30 9993 O 921.824 1.10724 -5.35166 0
M  V30 9994 H 918.918 0.202213 -0.801897 0
M  V30 9995 H 921.464 -0.348746 -1.66078 0
M  V30 9996 H 920.236 -0.476132 -3.88392 0
M  V30 9997 H 919.859 1.23568 -3.77911 0
M  V30 9998 N 920.856 1.57574 -0.0284266 0
M  V30 9999 C 922.096 1.93637 0.65453 0
M  V30 10000 C 922.46 0.905015 1.69332 0
M  V30 10001 O 923.661 1.15181 2.42872 0
M  V30 10002 C 921.932 3.3462 1.25555 0
M  V30 10003 S 923.491 3.92609 1.95968 0
M  V30 10004 H 920.309 0.67755 0.215516 0
M  V30 10005 H 922.911 1.95284 -0.0919257 0
M  V30 10006 H 921.615 4.07499 0.487069 0
M  V30 10007 H 921.146 3.36415 2.03933 0
M  V30 10008 H 923.161 3.75988 3.23802 0
M  V30 10009 N 922.334 -0.244713 1.55689 0
M  V30 10010 C 923.282 -1.32276 1.91326 0
M  V30 10011 C 924.276 -1.49714 0.792589 0
M  V30 10012 O 925.482 -1.51163 0.977227 0
M  V30 10013 H 921.857 -0.442979 0.607679 0
M  V30 10014 H 923.828 -0.99486 2.81327 0
M  V30 10015 C 922.577 -2.67077 2.22633 0
M  V30 10016 H 921.9 -2.54458 3.08368 0
M  V30 10017 H 923.34 -3.41378 2.5147 0
M  V30 10018 C 921.799 -3.20335 1.04342 0
M  V30 10019 O 922.329 -4.00633 0.292543 0
M  V30 10020 N 920.535 -2.78392 0.833457 0
M  V30 10021 H 920.082 -2.13202 1.44577 0
M  V30 10022 H 920.04 -3.1437 0.0436713 0
M  V30 10023 N 923.813 -1.49104 -0.510467 0
M  V30 10024 C 925.061 -1.578 -1.26268 0
M  V30 10025 C 925.382 -0.262349 -1.93227 0
M  V30 10026 O 924.652 0.717624 -1.82283 0
M  V30 10027 H 923.232 -0.581387 -0.46904 0
M  V30 10028 H 925.894 -1.85678 -0.592423 0
M  V30 10029 H 924.99 -2.36919 -2.03165 0
M  V30 10030 N 925.291 0.760815 -1.38019 0
M  V30 10031 C 926.537 1.52198 -1.34028 0
M  V30 10032 C 926.87 1.94067 0.0718309 0
M  V30 10033 O 926.145 1.64895 1.0315 0
M  V30 10034 C 926.428 2.77954 -2.2894 0
M  V30 10035 C 926.281 2.42269 -3.7898 0
M  V30 10036 C 927.6 3.79943 -2.22107 0
M  V30 10037 H 924.719 0.552131 -0.488181 0
M  V30 10038 H 927.361 0.871971 -1.6881 0
M  V30 10039 H 925.511 3.33419 -1.9941 0
M  V30 10040 H 927.183 1.92635 -4.19153 0
M  V30 10041 H 925.426 1.74822 -3.97014 0
M  V30 10042 H 926.097 3.32211 -4.4084 0
M  V30 10043 H 928.573 3.34 -2.4816 0
M  V30 10044 H 927.449 4.6564 -2.90639 0
M  V30 10045 H 927.71 4.25004 -1.21753 0
M  V30 10046 N 926.769 1.22769 0.988202 0
M  V30 10047 C 928.015 1.05665 1.73097 0
M  V30 10048 C 928.348 -0.406615 1.89895 0
M  V30 10049 O 927.623 -1.30132 1.44554 0
M  V30 10050 C 927.906 1.77381 3.13382 0
M  V30 10051 C 927.759 3.31332 3.04203 0
M  V30 10052 C 929.078 1.52999 4.12649 0
M  V30 10053 H 926.197 0.385258 0.628288 0
M  V30 10054 H 928.839 1.51171 1.15097 0
M  V30 10055 H 926.989 1.38696 3.62899 0
M  V30 10056 H 928.661 3.79489 2.6227 0
M  V30 10057 H 926.904 3.60767 2.40894 0
M  V30 10058 H 927.575 3.76692 4.03493 0
M  V30 10059 H 930.051 1.86611 3.71908 0
M  V30 10060 H 928.927 2.05666 5.08913 0
M  V30 10061 H 929.188 0.463615 4.39662 0
M  V30 10062 N 928.247 -1.18576 1.03814 0
M  V30 10063 C 929.472 -1.92978 0.759873 0
M  V30 10064 C 929.897 -1.75514 -0.676486 0
M  V30 10065 O 929.255 -1.06359 -1.46824 0
M  V30 10066 C 929.303 -3.42507 1.12788 0
M  V30 10067 O 928.407 -4.1163 0.251886 0
M  V30 10068 H 927.748 -0.602129 0.279886 0
M  V30 10069 H 930.278 -1.50383 1.3873 0
M  V30 10070 H 930.288 -3.93206 1.08872 0
M  V30 10071 H 928.963 -3.5454 2.17427 0
M  V30 10072 H 927.54 -3.7125 0.350441 0
M  V30 10073 N 929.725 -0.817259 -1.34754 0
M  V30 10074 C 930.655 -0.249769 -2.3216 0
M  V30 10075 C 931.636 0.630663 -1.57977 0
M  V30 10076 O 932.821 0.558719 -1.85989 0
M  V30 10077 C 929.951 0.593825 -3.42186 0
M  V30 10078 C 928.905 -0.188997 -4.27583 0
M  V30 10079 C 928.231 0.776979 -5.29025 0
M  V30 10080 C 929.531 -1.39401 -5.03354 0
M  V30 10081 H 931.225 -1.06359 -2.79872 0
M  V30 10082 H 928.771 -0.512894 -1.34556 0
M  V30 10083 H 930.724 1.00097 -4.09339 0
M  V30 10084 H 929.448 1.44064 -2.93109 0
M  V30 10085 H 928.107 -0.577445 -3.62024 0
M  V30 10086 H 927.755 1.61959 -4.76212 0
M  V30 10087 H 927.455 0.257448 -5.87036 0
M  V30 10088 H 928.979 1.18211 -5.99048 0
M  V30 10089 H 930.393 -1.06117 -5.63393 0
M  V30 10090 H 928.79 -1.84878 -5.70912 0
M  V30 10091 H 929.86 -2.17515 -4.33377 0
M  V30 10092 N 931.203 1.46865 -0.571711 0
M  V30 10093 C 932.449 2.0273 -0.0531858 0
M  V30 10094 C 932.782 1.44353 1.29907 0
M  V30 10095 O 932.057 0.604488 1.84868 0
M  V30 10096 C 932.34 3.60092 0.0243831 0
M  V30 10097 C 932.193 4.28874 -1.35599 0
M  V30 10098 C 933.512 4.33994 0.730563 0
M  V30 10099 H 930.631 0.736706 -0.0208018 0
M  V30 10100 H 933.273 1.75132 -0.736794 0
M  V30 10101 H 931.423 3.83736 0.606565 0
M  V30 10102 H 933.095 4.16527 -1.98249 0
M  V30 10103 H 931.338 3.88664 -1.92674 0
M  V30 10104 H 932.009 5.37561 -1.25429 0
M  V30 10105 H 934.485 4.1543 0.236098 0
M  V30 10106 H 933.361 5.43699 0.753836 0
M  V30 10107 H 933.622 4.04257 1.78967 0
M  V30 10108 N 932.681 0.308908 1.54543 0
M  V30 10109 C 933.958 -0.351558 1.92415 0
M  V30 10110 C 934.338 -1.71061 1.23699 0
M  V30 10111 O 933.686 -2.25394 0.3755 0
M  V30 10112 C 933.896 -0.458357 3.45977 0
M  V30 10113 C 935.244 -0.725524 4.18355 0
M  V30 10114 O 936.268 -0.541859 3.52054 0
M  V30 10115 O 935.127 -1.07884 5.35745 0
M  V30 10116 H 932.221 -0.197957 0.802958 0
M  V30 10117 H 934.767 0.357548 1.65891 0
M  V30 10118 H 933.539 0.496723 3.88134 0
M  V30 10119 H 933.162 -1.21562 3.78561 0
M  V30 10120 N 934.159 -1.57557 0.0367827 0
M  V30 10121 C 935.407 -1.91735 -0.63892 0
M  V30 10122 C 935.728 -0.914515 -1.72226 0
M  V30 10123 O 934.998 0.0428248 -1.95853 0
M  V30 10124 H 933.578 -0.707738 -0.23899 0
M  V30 10125 H 936.24 -1.94708 0.0863931 0
M  V30 10126 H 935.336 -2.92568 -1.08676 0
M  V30 10127 N 935.637 0.236453 -1.55816 0
M  V30 10128 C 937.053 0.585465 -1.48474 0
M  V30 10129 C 937.253 1.8785 -0.72902 0
M  V30 10130 O 936.309 2.51131 -0.262614 0
M  V30 10131 C 937.622 0.678506 -2.92945 0
M  V30 10132 C 939.17 0.770135 -3.03378 0
M  V30 10133 C 939.645 0.894649 -4.49177 0
M  V30 10134 N 941.136 0.959253 -4.53158 0
M  V30 10135 C 941.871 1.07505 -5.63232 0
M  V30 10136 N 941.367 1.15572 -6.83092 0
M  V30 10137 N 943.16 1.10902 -5.51051 0
M  V30 10138 H 935.311 -0.612241 -2.03385 0
M  V30 10139 H 937.574 -0.212796 -0.923808 0
M  V30 10140 H 937.28 -0.201757 -3.51121 0
M  V30 10141 H 937.154 1.54703 -3.44016 0
M  V30 10142 H 939.541 1.64085 -2.45276 0
M  V30 10143 H 939.622 -0.123753 -2.555 0
M  V30 10144 H 939.266 0.0284537 -5.07892 0
M  V30 10145 H 939.196 1.80373 -4.94745 0
M  V30 10146 H 941.687 0.907827 -3.66834 0
M  V30 10147 H 942 1.24343 -7.62731 0
M  V30 10148 H 940.345 1.12511 -6.85833 0
M  V30 10149 H 943.536 1.04255 -4.56343 0
M  V30 10150 H 943.709 1.19581 -6.36871 0
M  V30 10151 N 937.115 1.49373 0.502552 0
M  V30 10152 C 938.34 1.62752 1.28556 0
M  V30 10153 C 938.765 0.298285 1.8572 0
M  V30 10154 O 938.123 -0.733885 1.65782 0
M  V30 10155 C 938.171 2.69778 2.39274 0
M  V30 10156 O 937.275 2.28843 3.43081 0
M  V30 10157 H 936.616 0.544799 0.379592 0
M  V30 10158 H 939.146 1.9555 0.601792 0
M  V30 10159 H 939.156 2.91899 2.8506 0
M  V30 10160 H 937.831 3.66266 1.97033 0
M  V30 10161 H 936.408 2.17047 3.03224 0
M  V30 10162 N 938.594 -0.753485 1.38421 0
M  V30 10163 C 939.557 -1.84888 1.35459 0
M  V30 10164 C 940.557 -1.58764 0.255083 0
M  V30 10165 O 941.747 -1.66507 0.511978 0
M  V30 10166 C 938.879 -3.22361 1.10888 0
M  V30 10167 H 940.072 -1.88922 2.32913 0
M  V30 10168 H 937.625 -0.955199 1.23716 0
M  V30 10169 H 938.36 -3.23996 0.1404 0
M  V30 10170 H 938.145 -3.42717 1.90492 0
M  V30 10171 H 939.635 -4.02437 1.1151 0
M  V30 10172 N 940.072 -1.23292 -0.981677 0
M  V30 10173 C 941.002 -1.03738 -2.09191 0
M  V30 10174 C 941.983 0.0453041 -1.7004 0
M  V30 10175 O 943.168 -0.119092 -1.93834 0
M  V30 10176 C 940.298 -0.626426 -3.41604 0
M  V30 10177 C 939.252 -1.65631 -3.94652 0
M  V30 10178 C 938.578 -1.10084 -5.23245 0
M  V30 10179 C 939.878 -3.04903 -4.24066 0
M  V30 10180 H 941.572 -1.966 -2.25807 0
M  V30 10181 H 939.118 -0.946656 -1.0851 0
M  V30 10182 H 941.071 -0.476689 -4.18695 0
M  V30 10183 H 939.795 0.337873 -3.24848 0
M  V30 10184 H 938.454 -1.79402 -3.19704 0
M  V30 10185 H 938.102 -0.127562 -5.02838 0
M  V30 10186 H 937.802 -1.78896 -5.59705 0
M  V30 10187 H 939.326 -0.962928 -6.02959 0
M  V30 10188 H 940.74 -2.94441 -4.91912 0
M  V30 10189 H 939.137 -3.70941 -4.71724 0
M  V30 10190 H 940.207 -3.53991 -3.31389 0
M  V30 10191 N 941.55 1.18024 -1.04442 0
M  V30 10192 C 942.483 2.20623 -0.583171 0
M  V30 10193 C 943.461 1.57994 0.384262 0
M  V30 10194 O 944.645 1.86135 0.297673 0
M  V30 10195 C 941.772 3.38378 0.147561 0
M  V30 10196 C 940.818 4.19423 -0.773711 0
M  V30 10197 S 941.651 4.85534 -2.25869 0
M  V30 10198 C 942.807 6.06686 -1.53891 0
M  V30 10199 H 943.04 2.59406 -1.45244 0
M  V30 10200 H 940.573 1.28518 -0.855708 0
M  V30 10201 H 942.531 4.06621 0.562988 0
M  V30 10202 H 941.192 2.97998 0.992765 0
M  V30 10203 H 940.385 5.03568 -0.208694 0
M  V30 10204 H 939.987 3.56579 -1.12816 0
M  V30 10205 H 942.279 6.72347 -0.834045 0
M  V30 10206 H 943.222 6.67702 -2.35755 0
M  V30 10207 H 943.63 5.55031 -1.02961 0
M  V30 10208 N 943.028 0.824394 1.34319 0
M  V30 10209 C 943.958 0.262077 2.32025 0
M  V30 10210 C 944.939 -0.622277 1.58309 0
M  V30 10211 O 946.124 -0.548848 1.86283 0
M  V30 10212 C 943.254 -0.57567 3.42496 0
M  V30 10213 C 942.208 0.21167 4.27476 0
M  V30 10214 C 941.534 -0.748913 5.29429 0
M  V30 10215 C 942.834 1.42068 5.02607 0
M  V30 10216 H 944.528 1.07842 2.79304 0
M  V30 10217 H 942.074 0.520022 1.34282 0
M  V30 10218 H 944.027 -0.979251 4.09864 0
M  V30 10219 H 942.751 -1.42508 2.93869 0
M  V30 10220 H 941.41 0.596636 3.61712 0
M  V30 10221 H 941.058 -1.59432 4.77064 0
M  V30 10222 H 940.758 -0.226313 5.87164 0
M  V30 10223 H 942.282 -1.15032 5.99667 0
M  V30 10224 H 943.696 1.09103 5.62823 0
M  V30 10225 H 942.093 1.87903 5.69923 0
M  V30 10226 H 943.163 2.1981 4.32217 0
M  V30 10227 N 944.506 -1.46559 0.579492 0
M  V30 10228 C 945.917 -1.8608 0.152052 0
M  V30 10229 C 946.268 -1.48346 -1.28405 0
M  V30 10230 O 945.393 -0.89685 -1.9694 0
M  V30 10231 C 945.988 -3.37729 0.269171 0
M  V30 10232 C 944.547 -3.76258 -0.103376 0
M  V30 10233 C 943.694 -2.70584 0.60659 0
M  V30 10234 H 946.645 -1.3776 0.787904 0
M  V30 10235 H 946.666 -3.77116 -0.506339 0
M  V30 10236 H 946.178 -3.65162 1.31448 0
M  V30 10237 H 944.279 -3.54443 -1.14895 0
M  V30 10238 H 944.392 -4.78335 0.270701 0
M  V30 10239 H 942.756 -2.54656 0.0471984 0
M  V30 10240 H 943.539 -3.00856 1.65349 0
M  V30 10241 N 945.984 -0.3171 -1.54377 0
M  V30 10242 C 946.932 0.567371 -2.25574 0
M  V30 10243 C 947.926 1.12387 -1.2675 0
M  V30 10244 O 949.132 1.07266 -1.44548 0
M  V30 10245 H 945.507 0.201605 -0.724472 0
M  V30 10246 H 947.478 -0.0554644 -2.98348 0
M  V30 10247 C 946.227 1.71984 -3.02187 0
M  V30 10248 H 945.55 1.30086 -3.78044 0
M  V30 10249 H 946.99 2.31443 -3.5526 0
M  V30 10250 C 945.449 2.6336 -2.10103 0
M  V30 10251 O 945.979 3.64899 -1.67962 0
M  V30 10252 N 944.185 2.3145 -1.75725 0
M  V30 10253 H 943.732 1.48921 -2.10191 0
M  V30 10254 H 943.69 2.92852 -1.14391 0
M  V30 10255 N 947.462 1.57535 -0.0451378 0
M  V30 10256 C 948.71 1.92071 0.628743 0
M  V30 10257 C 949.031 0.923635 1.71738 0
M  V30 10258 O 948.301 -0.0324376 1.95873 0
M  V30 10259 H 946.881 0.708995 0.235233 0
M  V30 10260 H 949.543 1.9466 -0.0967177 0
M  V30 10261 H 948.639 2.9314 1.07123 0
M  V30 10262 N 948.94 -0.228186 1.55939 0
M  V30 10263 C 949.872 -1.30605 1.88348 0
M  V30 10264 C 950.885 -1.43375 0.771198 0
M  V30 10265 O 952.074 -1.44391 1.04945 0
M  V30 10266 C 949.174 -2.68248 2.07115 0
M  V30 10267 C 948.347 -2.77509 3.38094 0
M  V30 10268 C 947.406 -3.96121 3.46373 0
M  V30 10269 O 946.432 -3.8477 4.19453 0
M  V30 10270 N 947.634 -5.10132 2.77031 0
M  V30 10271 H 950.399 -1.03132 2.81396 0
M  V30 10272 H 947.96 -0.418245 1.56404 0
M  V30 10273 H 949.952 -3.45966 2.09976 0
M  V30 10274 H 948.522 -2.88348 1.20723 0
M  V30 10275 H 947.742 -1.8632 3.47388 0
M  V30 10276 H 949.03 -2.80662 4.2439 0
M  V30 10277 H 948.428 -5.22249 2.17424 0
M  V30 10278 H 946.985 -5.85916 2.85561 0
M  V30 10279 N 950.418 -1.49637 -0.494624 0
M  V30 10280 C 951.348 -1.69692 -1.60396 0
M  V30 10281 C 952.329 -0.545648 -1.61111 0
M  V30 10282 O 953.514 -0.782202 -1.77751 0
M  V30 10283 C 950.644 -1.76934 -2.9885 0
M  V30 10284 C 949.598 -2.91915 -3.13001 0
M  V30 10285 C 948.924 -2.84276 -4.5287 0
M  V30 10286 C 950.224 -4.32764 -2.92426 0
M  V30 10287 H 951.918 -2.6257 -1.43866 0
M  V30 10288 H 949.464 -1.26355 -0.690679 0
M  V30 10289 H 951.417 -1.8955 -3.76362 0
M  V30 10290 H 950.141 -0.806609 -3.16483 0
M  V30 10291 H 948.8 -2.78911 -2.37916 0
M  V30 10292 H 948.448 -1.85897 -4.67388 0
M  V30 10293 H 948.148 -3.61452 -4.63278 0
M  V30 10294 H 949.672 -2.98909 -5.32434 0
M  V30 10295 H 951.086 -4.46415 -3.59703 0
M  V30 10296 H 949.483 -5.1121 -3.143 0
M  V30 10297 H 950.553 -4.46765 -1.88491 0
M  V30 10298 N 951.896 0.746133 -1.38819 0
M  V30 10299 C 952.826 1.87344 -1.39372 0
M  V30 10300 C 953.807 1.68123 -0.258583 0
M  V30 10301 O 954.992 1.88606 -0.462769 0
M  V30 10302 C 952.122 3.24962 -1.22543 0
M  V30 10303 C 951.076 3.58799 -2.33339 0
M  V30 10304 C 950.402 4.95235 -2.01609 0
M  V30 10305 C 951.702 3.62911 -3.75624 0
M  V30 10306 H 953.396 1.87138 -2.33709 0
M  V30 10307 H 950.942 0.898937 -1.12495 0
M  V30 10308 H 952.895 4.03488 -1.21554 0
M  V30 10309 H 951.619 3.25667 -0.246707 0
M  V30 10310 H 950.278 2.82596 -2.33527 0
M  V30 10311 H 949.926 4.92508 -1.02202 0
M  V30 10312 H 949.626 5.18843 -2.75819 0
M  V30 10313 H 951.15 5.76131 -2.02251 0
M  V30 10314 H 952.564 4.31535 -3.77426 0
M  V30 10315 H 950.961 3.98031 -4.491 0
M  V30 10316 H 952.031 2.62967 -4.07402 0
M  V30 10317 N 953.375 1.23811 0.975125 0
M  V30 10318 C 954.786 1.0675 1.53171 0
M  V30 10319 C 955.137 -0.363475 1.92804 0
M  V30 10320 O 954.262 -1.25089 1.76583 0
M  V30 10321 C 954.857 1.93161 2.78342 0
M  V30 10322 C 953.416 1.80346 3.30382 0
M  V30 10323 C 952.563 1.88544 2.03338 0
M  V30 10324 H 955.514 1.37396 0.79423 0
M  V30 10325 H 955.535 1.45951 3.51395 0
M  V30 10326 H 955.047 2.97302 2.49465 0
M  V30 10327 H 953.148 0.790077 3.64127 0
M  V30 10328 H 953.261 2.64026 3.99784 0
M  V30 10329 H 951.625 1.32186 2.17713 0
M  V30 10330 H 952.408 2.94252 1.76836 0
M  V30 10331 N 954.853 -1.17469 1.05066 0
M  V30 10332 C 955.763 -2.25089 0.661222 0
M  V30 10333 C 956.779 -1.71086 -0.31712 0
M  V30 10334 O 957.955 -2.00685 -0.169534 0
M  V30 10335 C 955.02 -3.46676 0.0406415 0
M  V30 10336 C 954.081 -4.15771 1.06927 0
M  V30 10337 C 953.314 -5.31553 0.478208 0
M  V30 10338 O 953.537 -5.6593 -0.712714 0
M  V30 10339 O 952.471 -5.89574 1.21185 0
M  V30 10340 H 956.297 -2.60685 1.5581 0
M  V30 10341 H 953.882 -1.24744 0.822147 0
M  V30 10342 H 955.764 -4.203 -0.304312 0
M  V30 10343 H 954.439 -3.1288 -0.829909 0
M  V30 10344 H 953.346 -3.44171 1.46619 0
M  V30 10345 H 954.679 -4.53591 1.91092 0
M  V30 10346 N 956.331 -0.831506 -1.3388 0
M  V30 10347 C 957.577 -0.424302 -1.98312 0
M  V30 10348 C 957.91 1.01211 -1.65741 0
M  V30 10349 O 957.185 1.70636 -0.933464 0
M  V30 10350 C 957.468 -0.636815 -3.54424 0
M  V30 10351 C 957.321 -2.11997 -3.96708 0
M  V30 10352 C 958.64 -0.0782411 -4.4003 0
M  V30 10353 H 955.759 -0.155637 -0.720379 0
M  V30 10354 H 958.401 -1.04566 -1.58638 0
M  V30 10355 H 956.551 -0.107907 -3.8835 0
M  V30 10356 H 958.223 -2.71317 -3.73075 0
M  V30 10357 H 956.466 -2.60723 -3.46707 0
M  V30 10358 H 957.137 -2.21944 -5.05416 0
M  V30 10359 H 959.613 -0.530243 -4.12708 0
M  V30 10360 H 958.489 -0.256676 -5.483 0
M  V30 10361 H 958.75 1.01745 -4.30233 0
M  V30 10362 N 957.809 1.4625 -0.587256 0
M  V30 10363 C 959.058 2.01571 -0.0722643 0
M  V30 10364 C 959.371 1.46385 1.29733 0
M  V30 10365 O 960.577 1.93554 1.90392 0
M  V30 10366 C 959.033 3.59814 -0.078579 0
M  V30 10367 C 958.641 4.23996 -1.44678 0
M  V30 10368 C 960.385 4.22776 0.382231 0
M  V30 10369 C 958.292 5.74332 -1.41057 0
M  V30 10370 H 957.222 0.753642 -0.0232461 0
M  V30 10371 H 959.873 1.67936 -0.739577 0
M  V30 10372 H 958.255 3.90546 0.654988 0
M  V30 10373 H 959.429 4.04867 -2.20043 0
M  V30 10374 H 957.744 3.73147 -1.84799 0
M  V30 10375 H 960.341 5.32983 0.428182 0
M  V30 10376 H 960.684 3.92027 1.40072 0
M  V30 10377 H 961.217 3.96687 -0.297417 0
M  V30 10378 H 957.956 6.09747 -2.40601 0
M  V30 10379 H 957.476 5.95711 -0.699185 0
M  V30 10380 H 959.155 6.37137 -1.12543 0
M  V30 10381 N 959.287 0.325282 1.54207 0
M  V30 10382 C 960.536 -0.27768 1.99779 0
M  V30 10383 C 960.849 -1.5311 1.21723 0
M  V30 10384 O 962.055 -2.21017 1.57682 0
M  V30 10385 C 960.511 -0.545329 3.55745 0
M  V30 10386 C 960.119 0.691143 4.42637 0
M  V30 10387 C 961.863 -1.10815 4.09781 0
M  V30 10388 C 959.77 0.395302 5.90077 0
M  V30 10389 H 958.7 -0.107536 0.746292 0
M  V30 10390 H 961.351 0.437773 1.78202 0
M  V30 10391 H 959.733 -1.32101 3.73317 0
M  V30 10392 H 960.907 1.46653 4.3684 0
M  V30 10393 H 959.222 1.1743 3.99499 0
M  V30 10394 H 961.819 -1.34414 5.1753 0
M  V30 10395 H 962.162 -2.05806 3.6187 0
M  V30 10396 H 962.695 -0.393608 3.95848 0
M  V30 10397 H 959.434 1.31443 6.42186 0
M  V30 10398 H 958.954 -0.34235 5.98822 0
M  V30 10399 H 960.633 0.00576877 6.47 0
M  V30 10400 N 960.765 -1.57509 0.0534917 0
M  V30 10401 C 962.042 -1.84137 -0.659767 0
M  V30 10402 C 962.422 -0.942362 -1.88899 0
M  V30 10403 O 961.77 -0.00398566 -2.285 0
M  V30 10404 C 961.98 -3.33919 -1.01486 0
M  V30 10405 C 963.328 -4.00989 -1.39616 0
M  V30 10406 O 964.352 -3.38557 -1.10713 0
M  V30 10407 O 963.211 -5.11071 -1.93567 0
M  V30 10408 H 960.305 -0.760081 -0.325893 0
M  V30 10409 H 962.851 -1.69497 0.0830315 0
M  V30 10410 H 961.623 -3.91046 -0.141041 0
M  V30 10411 H 961.246 -3.53755 -1.81503 0
M  V30 10412 N 962.243 0.219913 -1.56058 0
M  V30 10413 C 963.19 1.27254 -1.92549 0
M  V30 10414 C 964.16 1.46493 -0.782883 0
M  V30 10415 O 965.345 1.60035 -1.03892 0
M  V30 10416 C 962.485 2.61756 -2.24896 0
M  V30 10417 C 961.598 2.50302 -3.52098 0
M  V30 10418 C 960.733 3.77338 -3.73884 0
M  V30 10419 C 959.772 3.60613 -4.94595 0
M  V30 10420 N 958.909 4.79603 -5.12763 0
M  V30 10421 H 963.749 0.954352 -2.82305 0
M  V30 10422 H 961.286 0.459928 -1.39725 0
M  V30 10423 H 963.244 3.40082 -2.4166 0
M  V30 10424 H 961.874 2.91668 -1.38311 0
M  V30 10425 H 960.926 1.63401 -3.43517 0
M  V30 10426 H 962.238 2.33866 -4.40577 0
M  V30 10427 H 961.392 4.64108 -3.90754 0
M  V30 10428 H 960.131 3.96702 -2.83689 0
M  V30 10429 H 959.136 2.72228 -4.77674 0
M  V30 10430 H 960.361 3.42719 -5.86277 0
M  V30 10431 H 958.307 4.99277 -4.2551 0
M  V30 10432 H 958.224 4.65899 -5.95377 0
M  V30 10433 H 959.492 5.67794 -5.34069 0
M  V30 10434 N 963.721 1.49897 0.486681 0
M  V30 10435 C 964.684 1.67086 1.56891 0
M  V30 10436 C 965.684 0.54209 1.51387 0
M  V30 10437 O 966.874 0.80883 1.54284 0
M  V30 10438 C 964.006 1.68159 2.96539 0
M  V30 10439 H 965.199 2.63626 1.42974 0
M  V30 10440 H 962.752 1.39143 0.711954 0
M  V30 10441 H 963.487 0.732562 3.15918 0
M  V30 10442 H 963.272 2.50147 3.01942 0
M  V30 10443 H 964.762 1.83466 3.7514 0
M  V30 10444 N 965.199 -0.738761 1.39212 0
M  V30 10445 C 966.427 -1.52801 1.39497 0
M  V30 10446 C 966.842 -1.88797 -0.0114917 0
M  V30 10447 O 966.199 -1.53835 -0.981887 0
M  V30 10448 C 966.25 -2.81793 2.2644 0
M  V30 10449 O 965.971 -2.47328 3.61608 0
M  V30 10450 C 967.472 -3.75844 2.35067 0
M  V30 10451 H 964.692 -0.472322 0.476606 0
M  V30 10452 H 967.236 -0.913153 1.8298 0
M  V30 10453 H 965.391 -3.3962 1.8638 0
M  V30 10454 H 965.805 -3.30162 4.07545 0
M  V30 10455 H 967.279 -4.6326 3.00157 0
M  V30 10456 H 967.756 -4.17329 1.3687 0
M  V30 10457 H 968.362 -3.23937 2.75581 0
M  V30 10458 N 966.677 -1.24326 -0.968545 0
M  V30 10459 C 967.902 -1.1104 -1.75171 0
M  V30 10460 C 968.327 0.333109 -1.85127 0
M  V30 10461 O 967.685 1.24115 -1.32156 0
M  V30 10462 C 967.733 -1.75397 -3.15068 0
M  V30 10463 O 966.837 -1.02417 -3.9948 0
M  V30 10464 H 966.178 -0.388488 -0.538491 0
M  V30 10465 H 968.708 -1.64617 -1.215 0
M  V30 10466 H 968.718 -1.8112 -3.65595 0
M  V30 10467 H 967.393 -2.80427 -3.07138 0
M  V30 10468 H 965.97 -1.04475 -3.57966 0
M  V30 10469 N 968.156 1.1691 -1.05688 0
M  V30 10470 C 969.433 1.83266 -0.683601 0
M  V30 10471 C 969.813 1.93858 0.835602 0
M  V30 10472 O 969.161 1.47696 1.7435 0
M  V30 10473 C 969.371 3.20625 -1.37842 0
M  V30 10474 C 970.719 3.96473 -1.51967 0
M  V30 10475 O 971.743 3.30122 -1.33783 0
M  V30 10476 O 970.602 5.15393 -1.81749 0
M  V30 10477 H 967.696 0.791028 -0.241254 0
M  V30 10478 H 970.242 1.24165 -1.15677 0
M  V30 10479 H 969.014 3.07914 -2.41463 0
M  V30 10480 H 968.637 3.87398 -0.894921 0
M  V30 10481 N 969.634 0.838594 1.33437 0
M  V30 10482 C 970.911 0.356112 1.92331 0
M  V30 10483 C 971.291 -1.1585 1.76471 0
M  V30 10484 O 970.639 -1.97281 1.15293 0
M  V30 10485 C 970.849 0.802715 3.39643 0
M  V30 10486 C 972.197 0.810575 4.16791 0
M  V30 10487 O 973.221 0.746304 3.48294 0
M  V30 10488 O 972.08 0.898082 5.3907 0
M  V30 10489 H 969.174 0.100711 0.820845 0
M  V30 10490 H 971.72 0.924428 1.42311 0
M  V30 10491 H 970.492 1.84529 3.45057 0
M  V30 10492 H 970.115 0.210956 3.9704 0
M  V30 10493 N 971.112 -1.45937 0.595003 0
M  V30 10494 C 972.337 -2.07207 0.0894416 0
M  V30 10495 C 972.762 -1.43884 -1.21157 0
M  V30 10496 O 972.12 -0.526998 -1.73472 0
M  V30 10497 C 972.168 -3.60565 -0.0499828 0
M  V30 10498 O 971.272 -3.97364 -1.10342 0
M  V30 10499 H 970.613 -0.660471 0.0683627 0
M  V30 10500 H 973.143 -1.87386 0.82144 0
M  V30 10501 H 973.153 -4.0722 -0.252234 0
M  V30 10502 H 971.828 -4.06044 0.90006 0
M  V30 10503 H 970.405 -3.62401 -0.878645 0
M  V30 10504 N 972.59 -0.333456 -1.54032 0
M  V30 10505 C 973.838 0.265608 -2.00347 0
M  V30 10506 C 974.159 1.51873 -1.2231 0
M  V30 10507 O 973.429 1.93142 -0.327549 0
M  V30 10508 H 972.009 0.101135 -0.740122 0
M  V30 10509 H 974.671 -0.452285 -1.8958 0
M  V30 10510 H 973.767 0.51511 -3.0782 0
M  V30 10511 N 974.068 1.57479 -0.061844 0
M  V30 10512 C 975.296 1.97429 0.618837 0
M  V30 10513 C 975.711 0.939826 1.63746 0
M  V30 10514 O 975.068 -0.0747173 1.82347 0
M  V30 10515 C 975.119 3.3746 1.29628 0
M  V30 10516 O 974.84 4.36941 0.318431 0
M  V30 10517 C 976.341 3.92228 2.06572 0
M  V30 10518 H 973.561 0.649513 0.168444 0
M  V30 10519 H 976.105 2.04078 -0.131303 0
M  V30 10520 H 974.26 3.31928 1.99757 0
M  V30 10521 H 974.674 5.18313 0.803239 0
M  V30 10522 H 976.148 4.92458 2.49377 0
M  V30 10523 H 976.625 3.28231 2.91824 0
M  V30 10524 H 977.231 4.01131 1.4133 0
M  V30 10525 N 975.546 -0.211634 1.56173 0
M  V30 10526 C 976.774 -0.951184 1.83739 0
M  V30 10527 C 977.189 -1.7754 0.642252 0
M  V30 10528 O 976.546 -1.78302 -0.389174 0
M  V30 10529 C 976.597 -1.86075 3.09933 0
M  V30 10530 O 976.318 -1.06983 4.24837 0
M  V30 10531 C 977.819 -2.71337 3.50559 0
M  V30 10532 H 975.039 -0.278312 0.61056 0
M  V30 10533 H 977.583 -0.223871 2.03271 0
M  V30 10534 H 975.738 -2.54189 2.92347 0
M  V30 10535 H 976.152 -1.68815 4.9659 0
M  V30 10536 H 977.626 -3.30843 4.41868 0
M  V30 10537 H 978.103 -3.44226 2.72773 0
M  V30 10538 H 978.709 -2.0862 3.70618 0
M  V30 10539 N 977.024 -1.50153 -0.478725 0
M  V30 10540 C 977.972 -1.68975 -1.59844 0
M  V30 10541 C 978.966 -0.555591 -1.6003 0
M  V30 10542 O 980.172 -0.735875 -1.64271 0
M  V30 10543 H 976.547 -0.533211 -0.530274 0
M  V30 10544 H 978.518 -2.62917 -1.41128 0
M  V30 10545 C 977.267 -1.79409 -2.97838 0
M  V30 10546 H 976.59 -2.66066 -2.98411 0
M  V30 10547 H 978.03 -1.96606 -3.75662 0
M  V30 10548 C 976.489 -0.543927 -3.3248 0
M  V30 10549 O 977.019 0.320376 -4.0042 0
M  V30 10550 N 975.225 -0.400217 -2.87831 0
M  V30 10551 H 974.772 -1.10458 -2.32716 0
M  V30 10552 H 974.73 0.435111 -3.11375 0
M  V30 10553 N 978.502 0.731368 -1.39602 0
M  V30 10554 C 979.434 1.85575 -1.34516 0
M  V30 10555 C 980.447 1.60818 -0.253287 0
M  V30 10556 O 981.636 1.70984 -0.512505 0
M  V30 10557 C 978.736 3.21673 -1.06676 0
M  V30 10558 C 977.909 3.73757 -2.27211 0
M  V30 10559 C 976.968 4.88426 -1.95773 0
M  V30 10560 O 975.994 5.01898 -2.68491 0
M  V30 10561 N 977.196 5.73065 -0.926083 0
M  V30 10562 H 979.961 1.90442 -2.31413 0
M  V30 10563 H 977.522 0.912258 -1.33752 0
M  V30 10564 H 979.514 3.95959 -0.836577 0
M  V30 10565 H 978.084 3.12052 -0.185003 0
M  V30 10566 H 977.304 2.90781 -2.66158 0
M  V30 10567 H 978.592 4.05289 -3.07601 0
M  V30 10568 H 977.99 5.64774 -0.323497 0
M  V30 10569 H 976.547 6.47403 -0.755795 0
M  V30 10570 N 979.98 1.24838 0.961938 0
M  V30 10571 C 981.229 1.0855 1.69999 0
M  V30 10572 C 981.542 -0.374645 1.91979 0
M  V30 10573 O 982.748 -0.657822 2.6341 0
M  V30 10574 C 981.204 1.89424 3.06017 0
M  V30 10575 C 980.812 3.39885 2.9186 0
M  V30 10576 C 982.556 1.81684 3.83655 0
M  V30 10577 C 980.463 4.13082 4.23223 0
M  V30 10578 H 979.393 0.402603 0.637516 0
M  V30 10579 H 982.044 1.4897 1.07146 0
M  V30 10580 H 980.426 1.41823 3.69733 0
M  V30 10581 H 981.6 3.95108 2.37121 0
M  V30 10582 H 979.915 3.4864 2.27683 0
M  V30 10583 H 982.512 2.3367 4.80939 0
M  V30 10584 H 982.855 0.783247 4.08865 0
M  V30 10585 H 983.388 2.26997 3.26676 0
M  V30 10586 H 980.127 5.16824 4.03204 0
M  V30 10587 H 979.647 3.62644 4.77755 0
M  V30 10588 H 981.326 4.20397 4.91808 0
M  V30 10589 N 981.458 -1.16348 1.06306 0
M  V30 10590 C 982.408 -2.18717 0.643947 0
M  V30 10591 C 983.392 -1.57574 -0.325445 0
M  V30 10592 O 984.584 -1.76439 -0.140868 0
M  V30 10593 C 981.713 -3.43285 0.0320266 0
M  V30 10594 C 980.799 -4.11504 1.02592 0
M  V30 10595 N 981.19 -4.55374 2.20155 0
M  V30 10596 C 979.488 -4.37691 0.856887 0
M  V30 10597 C 980.189 -5.08149 2.83124 0
M  V30 10598 N 979.165 -5.01042 2.10851 0
M  V30 10599 H 982.967 -2.50353 1.53951 0
M  V30 10600 H 980.481 -1.328 0.934763 0
M  V30 10601 H 982.478 -4.15917 -0.286064 0
M  V30 10602 H 981.138 -3.13137 -0.858786 0
M  V30 10603 H 982.149 -4.49101 2.57931 0
M  V30 10604 H 978.826 -4.17496 0.0180742 0
M  V30 10605 H 980.216 -5.52131 3.82885 0
M  V30 10606 N 982.937 -0.845659 -1.3299 0
M  V30 10607 C 983.884 -0.281761 -2.29074 0
M  V30 10608 C 984.854 0.606237 -1.54641 0
M  V30 10609 O 986.039 0.543063 -1.82908 0
M  V30 10610 C 983.179 0.531451 -3.40983 0
M  V30 10611 C 982.292 -0.381328 -4.30314 0
M  V30 10612 C 981.427 0.443643 -5.29344 0
M  V30 10613 C 980.466 -0.467101 -6.10315 0
M  V30 10614 N 979.603 0.320148 -7.0137 0
M  V30 10615 H 984.443 -1.10641 -2.76699 0
M  V30 10616 H 981.98 -0.55706 -1.36144 0
M  V30 10617 H 983.938 1.01848 -4.04577 0
M  V30 10618 H 982.568 1.32101 -2.94532 0
M  V30 10619 H 981.62 -0.986701 -3.6738 0
M  V30 10620 H 982.932 -1.08067 -4.86953 0
M  V30 10621 H 982.086 0.994212 -5.98498 0
M  V30 10622 H 980.825 1.17639 -4.73299 0
M  V30 10623 H 979.83 -1.02963 -5.40073 0
M  V30 10624 H 981.055 -1.19832 -6.68444 0
M  V30 10625 H 979.001 1.03615 -6.47765 0
M  V30 10626 H 978.918 -0.320338 -7.55321 0
M  V30 10627 H 980.186 0.852735 -7.74822 0
M  V30 10628 N 984.415 1.45619 -0.602734 0
M  V30 10629 C 985.362 2.30493 0.118944 0
M  V30 10630 C 986.332 1.41816 0.864723 0
M  V30 10631 O 987.517 1.7075 0.851424 0
M  V30 10632 C 984.657 3.2664 1.11356 0
M  V30 10633 C 983.77 4.3042 0.369161 0
M  V30 10634 C 982.905 5.13678 1.35307 0
M  V30 10635 C 981.944 6.09189 0.596207 0
M  V30 10636 N 981.081 6.85245 1.52916 0
M  V30 10637 H 985.921 2.91672 -0.610836 0
M  V30 10638 H 983.458 1.43731 -0.313032 0
M  V30 10639 H 985.416 3.80846 1.7033 0
M  V30 10640 H 984.046 2.67225 1.81081 0
M  V30 10641 H 983.098 3.78913 -0.335994 0
M  V30 10642 H 984.41 4.98307 -0.221603 0
M  V30 10643 H 983.564 5.7226 2.01502 0
M  V30 10644 H 982.303 4.45798 1.97777 0
M  V30 10645 H 981.308 5.49743 -0.0793984 0
M  V30 10646 H 982.533 6.79096 -0.0233734 0
M  V30 10647 H 980.479 6.20058 2.14159 0
M  V30 10648 H 980.396 7.49467 0.991713 0
M  V30 10649 H 981.664 7.48371 2.18083 0
M  V30 10650 N 985.893 0.34162 1.53853 0
M  V30 10651 C 987.309 -0.0103769 1.59597 0
M  V30 10652 C 987.509 -1.48897 1.35764 0
M  V30 10653 O 986.565 -2.24743 1.15095 0
M  V30 10654 C 987.878 0.424067 2.97695 0
M  V30 10655 C 989.426 0.376247 3.1073 0
M  V30 10656 C 989.901 0.786129 4.51203 0
M  V30 10657 N 991.392 0.74024 4.57247 0
M  V30 10658 C 992.127 1.02937 5.64085 0
M  V30 10659 N 991.623 1.38655 6.78783 0
M  V30 10660 N 993.416 0.953734 5.5395 0
M  V30 10661 H 985.567 1.30477 1.67599 0
M  V30 10662 H 987.83 0.531753 0.78482 0
M  V30 10663 H 987.536 1.45493 3.20195 0
M  V30 10664 H 987.41 -0.201713 3.7666 0
M  V30 10665 H 989.797 -0.645441 2.87955 0
M  V30 10666 H 989.878 1.0372 2.33828 0
M  V30 10667 H 989.522 1.80582 4.74713 0
M  V30 10668 H 989.452 0.102671 5.265 0
M  V30 10669 H 991.943 0.476763 3.7488 0
M  V30 10670 H 992.256 1.59206 7.56223 0
M  V30 10671 H 990.601 1.42498 6.80235 0
M  V30 10672 H 993.792 0.674044 4.63222 0
M  V30 10673 H 993.965 1.18241 6.37121 0
M  V30 10674 N 987.371 -1.57444 0.0701946 0
M  V30 10675 C 988.787 -1.57009 -0.286431 0
M  V30 10676 C 988.987 -1.07946 -1.70147 0
M  V30 10677 O 988.043 -0.744622 -2.41271 0
M  V30 10678 C 989.356 -3.00542 -0.0975466 0
M  V30 10679 C 990.904 -3.12553 -0.167205 0
M  V30 10680 C 991.379 -4.58 -0.00662047 0
M  V30 10681 N 992.87 -4.63158 -0.0622778 0
M  V30 10682 C 993.605 -5.73388 0.0375831 0
M  V30 10683 N 993.101 -6.92537 0.190873 0
M  V30 10684 N 994.894 -5.62097 -0.0193672 0
M  V30 10685 H 987.045 -1.87651 0.995023 0
M  V30 10686 H 989.308 -0.865006 0.387902 0
M  V30 10687 H 989.014 -3.40543 0.878822 0
M  V30 10688 H 988.888 -3.67485 -0.850547 0
M  V30 10689 H 991.275 -2.72439 -1.13406 0
M  V30 10690 H 991.356 -2.48251 0.616871 0
M  V30 10691 H 991 -4.98803 0.956992 0
M  V30 10692 H 990.93 -5.20332 -0.810081 0
M  V30 10693 H 993.421 -3.77475 -0.179229 0
M  V30 10694 H 993.734 -7.72365 0.25926 0
M  V30 10695 H 992.079 -6.94632 0.226214 0
M  V30 10696 H 995.27 -4.67897 -0.137815 0
M  V30 10697 H 995.443 -6.4797 0.0619121 0
M  V30 10698 N 988.849 0.203349 -1.56283 0
M  V30 10699 C 990.089 0.931871 -1.81922 0
M  V30 10700 C 990.453 1.8079 -0.646459 0
M  V30 10701 O 991.654 2.57157 -0.782556 0
M  V30 10702 C 989.925 1.73347 -3.12547 0
M  V30 10703 S 991.484 2.51514 -3.59564 0
M  V30 10704 H 988.302 0.312706 -0.638542 0
M  V30 10705 H 990.904 0.195931 -1.94516 0
M  V30 10706 H 989.608 1.08038 -3.95924 0
M  V30 10707 H 989.139 2.51138 -3.02809 0
M  V30 10708 H 991.154 3.7552 -3.24345 0
M  V30 10709 N 990.327 1.50405 0.470755 0
M  V30 10710 C 991.552 1.65442 1.25075 0
M  V30 10711 C 991.977 0.337612 1.85045 0
M  V30 10712 O 991.335 -0.698555 1.67302 0
M  V30 10713 C 991.383 2.74793 2.33498 0
M  V30 10714 O 990.487 2.36069 3.3815 0
M  V30 10715 H 989.828 0.552728 0.367951 0
M  V30 10716 H 992.358 1.96782 0.560177 0
M  V30 10717 H 992.368 2.97879 2.78804 0
M  V30 10718 H 991.043 3.70363 1.8922 0
M  V30 10719 H 989.62 2.2343 2.98552 0
M  V30 10720 N 991.805 -0.723954 1.39988 0
M  V30 10721 C 993.03 -1.5182 1.41299 0
M  V30 10722 C 993.455 -1.88096 0.0122636 0
M  V30 10723 O 992.813 -1.52687 -0.977559 0
M  V30 10724 C 992.861 -2.77532 2.30235 0
M  V30 10725 O 991.965 -3.73903 1.73984 0
M  V30 10726 H 991.306 -0.458058 0.480707 0
M  V30 10727 H 993.836 -0.892291 1.84118 0
M  V30 10728 H 993.846 -3.2615 2.45132 0
M  V30 10729 H 992.521 -2.50462 3.32026 0
M  V30 10730 H 991.098 -3.32715 1.68389 0
M  V30 10731 N 993.283 -1.25346 -0.955304 0
M  V30 10732 C 994.513 -1.12629 -1.732 0
M  V30 10733 C 994.921 0.322748 -1.86427 0
M  V30 10734 O 994.264 1.23381 -1.36099 0
M  V30 10735 C 994.326 -1.7064 -3.16421 0
M  V30 10736 C 993.99 -3.19632 -3.26626 0
M  V30 10737 C 994.987 -4.1663 -3.10991 0
M  V30 10738 C 992.672 -3.59829 -3.50468 0
M  V30 10739 C 994.666 -5.51806 -3.19043 0
M  V30 10740 C 992.353 -4.95143 -3.58157 0
M  V30 10741 C 993.351 -5.90941 -3.42459 0
M  V30 10742 O 993.039 -7.23792 -3.49828 0
M  V30 10743 H 992.771 -0.393646 -0.549562 0
M  V30 10744 H 995.325 -1.66184 -1.20715 0
M  V30 10745 H 993.555 -1.11532 -3.70267 0
M  V30 10746 H 995.244 -1.53032 -3.75947 0
M  V30 10747 H 996.01 -3.86915 -2.92441 0
M  V30 10748 H 991.889 -2.8576 -3.61749 0
M  V30 10749 H 995.433 -6.26559 -3.06707 0
M  V30 10750 H 991.33 -5.24525 -3.76224 0
M  V30 10751 H 992.098 -7.31879 -3.66463 0
M  V30 10752 N 994.761 1.15782 -1.06922 0
M  V30 10753 C 995.691 2.22538 -0.707045 0
M  V30 10754 C 996.672 1.67371 0.303471 0
M  V30 10755 O 997.857 1.9339 0.177189 0
M  V30 10756 C 994.987 3.47158 -0.0994269 0
M  V30 10757 C 993.941 4.15257 -1.03661 0
M  V30 10758 C 993.267 5.33902 -0.291974 0
M  V30 10759 C 994.567 4.65516 -2.36837 0
M  V30 10760 H 996.261 2.53089 -1.59958 0
M  V30 10761 H 993.807 1.21649 -0.770552 0
M  V30 10762 H 995.76 4.21073 0.165852 0
M  V30 10763 H 994.484 3.15926 0.828155 0
M  V30 10764 H 993.143 3.43276 -1.28674 0
M  V30 10765 H 992.791 4.98926 0.638928 0
M  V30 10766 H 992.491 5.80407 -0.916613 0
M  V30 10767 H 994.015 6.1059 -0.0343915 0
M  V30 10768 H 995.429 5.30981 -2.16175 0
M  V30 10769 H 993.826 5.22666 -2.94856 0
M  V30 10770 H 994.896 3.81387 -2.99453 0
M  V30 10771 N 996.239 0.8527 1.3254 0
M  V30 10772 C 997.169 0.311234 2.31416 0
M  V30 10773 C 998.15 -0.588557 1.59593 0
M  V30 10774 O 999.335 -0.509211 1.87405 0
M  V30 10775 C 996.465 -0.502892 3.4364 0
M  V30 10776 C 995.419 0.302296 4.26931 0
M  V30 10777 C 994.745 -0.636445 5.30899 0
M  V30 10778 C 996.045 1.52697 4.99481 0
M  V30 10779 H 997.739 1.13742 2.76953 0
M  V30 10780 H 995.285 0.548389 1.33149 0
M  V30 10781 H 997.238 -0.892092 4.11849 0
M  V30 10782 H 995.962 -1.36242 2.96826 0
M  V30 10783 H 994.621 0.673226 3.60365 0
M  V30 10784 H 994.269 -1.49277 4.80339 0
M  V30 10785 H 993.969 -0.101716 5.87512 0
M  V30 10786 H 995.493 -1.02286 6.01972 0
M  V30 10787 H 996.907 1.21017 5.60382 0
M  V30 10788 H 995.304 1.9995 5.65809 0
M  V30 10789 H 996.374 2.28929 4.27457 0
M  V30 10790 N 997.718 -1.45297 0.610449 0
M  V30 10791 C 998.943 -2.07101 0.111414 0
M  V30 10792 C 999.368 -1.45161 -1.19625 0
M  V30 10793 O 998.726 -0.545368 -1.72903 0
M  V30 10794 C 998.774 -3.60598 -0.0117372 0
M  V30 10795 O 997.878 -3.98512 -1.06122 0
M  V30 10796 H 997.219 -0.659709 0.075364 0
M  V30 10797 H 999.749 -1.86504 0.841269 0
M  V30 10798 H 999.759 -4.07464 -0.209028 0
M  V30 10799 H 998.434 -4.05067 0.943076 0
M  V30 10800 H 997.011 -3.63312 -0.840158 0
M  V30 10801 N 999.196 -0.349774 -1.5367 0
M  V30 10802 C 1000.11 0.512421 -2.28935 0
M  V30 10803 C 1001.12 1.1065 -1.34286 0
M  V30 10804 O 1002.3 1.12084 -1.67329 0
M  V30 10805 C 999.363 1.64449 -3.05217 0
M  V30 10806 C 998.424 1.07956 -4.15505 0
M  V30 10807 C 997.657 2.15768 -4.88139 0
M  V30 10808 O 997.88 3.366 -4.60496 0
M  V30 10809 O 996.814 1.79712 -5.74445 0
M  V30 10810 H 1000.64 -0.0996001 -3.03537 0
M  V30 10811 H 998.225 -0.114629 -1.4896 0
M  V30 10812 H 1000.11 2.30302 -3.52901 0
M  V30 10813 H 998.782 2.24221 -2.33467 0
M  V30 10814 H 997.689 0.385381 -3.7211 0
M  V30 10815 H 999.022 0.526621 -4.89375 0
M  V30 10816 N 1000.67 1.57404 -0.0785433 0
M  V30 10817 C 1001.95 1.85163 0.630389 0
M  V30 10818 C 1002.33 0.972295 1.87376 0
M  V30 10819 O 1001.68 0.0403375 2.28464 0
M  V30 10820 C 1001.89 3.35491 0.961604 0
M  V30 10821 C 1003.24 4.0316 1.33219 0
M  V30 10822 O 1004.26 3.40276 1.05313 0
M  V30 10823 O 1003.12 5.14086 1.85412 0
M  V30 10824 H 1000.21 0.765169 0.31376 0
M  V30 10825 H 1002.76 1.69343 -0.109986 0
M  V30 10826 H 1001.53 3.91221 0.0788113 0
M  V30 10827 H 1001.15 3.56598 1.75852 0
M  V30 10828 N 1002.15 -0.195058 1.56388 0
M  V30 10829 C 1003.08 -1.26978 1.8961 0
M  V30 10830 C 1004.06 -1.43946 0.756199 0
M  V30 10831 O 1005.25 -1.59335 1.0072 0
M  V30 10832 C 1002.37 -2.63638 2.12632 0
M  V30 10833 C 1001.42 -2.6354 3.35334 0
M  V30 10834 S 1002.25 -2.1497 4.90457 0
M  V30 10835 C 1003.41 -3.53454 5.16547 0
M  V30 10836 H 1003.64 -0.986091 2.8047 0
M  V30 10837 H 1001.17 -0.398552 1.49167 0
M  V30 10838 H 1003.13 -3.42304 2.26579 0
M  V30 10839 H 1001.79 -2.89218 1.22522 0
M  V30 10840 H 1000.99 -3.64027 3.48569 0
M  V30 10841 H 1000.59 -1.92956 3.20381 0
M  V30 10842 H 1002.88 -4.49318 5.0707 0
M  V30 10843 H 1003.82 -3.45113 6.18306 0
M  V30 10844 H 1004.23 -3.48368 4.44185 0
M  V30 10845 N 1003.63 -1.50653 -0.462772 0
M  V30 10846 C 1004.56 -1.73056 -1.5676 0
M  V30 10847 C 1005.54 -0.579699 -1.59917 0
M  V30 10848 O 1006.73 -0.819729 -1.76051 0
M  V30 10849 C 1003.86 -1.83234 -2.9503 0
M  V30 10850 C 1002.81 -2.98488 -3.06739 0
M  V30 10851 C 1002.14 -2.93818 -4.46738 0
M  V30 10852 C 1003.44 -4.38869 -2.83181 0
M  V30 10853 H 1005.13 -2.65562 -1.38265 0
M  V30 10854 H 1002.68 -1.27792 -0.663722 0
M  V30 10855 H 1004.63 -1.97491 -3.72257 0
M  V30 10856 H 1003.35 -0.873558 -3.14701 0
M  V30 10857 H 1002.01 -2.83895 -2.31946 0
M  V30 10858 H 1001.66 -1.95769 -4.63339 0
M  V30 10859 H 1001.36 -3.71197 -4.55507 0
M  V30 10860 H 1002.88 -3.10135 -5.25974 0
M  V30 10861 H 1004.3 -4.53945 -3.50153 0
M  V30 10862 H 1002.69 -5.17762 -3.03386 0
M  V30 10863 H 1003.76 -4.50663 -1.78972 0
M  V30 10864 N 1005.11 0.71652 -1.4037 0
M  V30 10865 C 1006.06 1.85194 -1.40734 0
M  V30 10866 C 1007.05 1.66934 -0.287969 0
M  V30 10867 O 1008.26 1.74051 -0.458957 0
M  V30 10868 H 1004.63 0.609922 -0.439885 0
M  V30 10869 H 1006.6 1.82003 -2.36468 0
M  V30 10870 C 1005.35 3.23048 -1.28589 0
M  V30 10871 H 1004.67 3.37704 -2.13999 0
M  V30 10872 H 1006.11 4.02633 -1.32902 0
M  V30 10873 C 1004.57 3.369 0.00396512 0
M  V30 10874 O 1005.1 3.89881 0.967243 0
M  V30 10875 N 1003.31 2.90508 0.0731565 0
M  V30 10876 H 1002.86 2.4758 -0.711454 0
M  V30 10877 H 1002.81 3.00155 0.935652 0
M  V30 10878 N 1006.59 1.25851 0.948643 0
M  V30 10879 C 1007.86 1.01717 1.67072 0
M  V30 10880 C 1008.24 -0.454749 2.06144 0
M  V30 10881 O 1007.59 -1.43345 1.77945 0
M  V30 10882 C 1007.8 1.95872 2.88852 0
M  V30 10883 C 1009.15 2.24057 3.60671 0
M  V30 10884 O 1010.17 1.93678 2.98944 0
M  V30 10885 O 1009.03 2.75745 4.71833 0
M  V30 10886 H 1006.13 0.386198 0.731287 0
M  V30 10887 H 1008.67 1.37031 1.00104 0
M  V30 10888 H 1007.44 2.95233 2.56814 0
M  V30 10889 H 1007.07 1.60992 3.63548 0
M  V30 10890 N 1008.06 -1.15214 1.07534 0
M  V30 10891 C 1009.48 -1.67628 0.822045 0
M  V30 10892 C 1009.83 -1.8503 -0.652571 0
M  V30 10893 O 1008.95 -1.55497 -1.50498 0
M  V30 10894 C 1009.55 -3.04489 1.48566 0
M  V30 10895 C 1008.11 -3.53974 1.27983 0
M  V30 10896 C 1007.25 -2.29656 1.55414 0
M  V30 10897 H 1010.2 -0.994016 1.23713 0
M  V30 10898 H 1010.22 -3.69509 0.907916 0
M  V30 10899 H 1009.74 -2.91792 2.55888 0
M  V30 10900 H 1007.84 -3.71908 0.226906 0
M  V30 10901 H 1007.95 -4.35298 2.0013 0
M  V30 10902 H 1006.31 -2.35289 0.975251 0
M  V30 10903 H 1007.1 -2.19544 2.63923 0
M  V30 10904 N 1009.54 -0.859717 -1.32086 0
M  V30 10905 C 1010.49 -0.296897 -2.30697 0
M  V30 10906 C 1011.48 0.582473 -1.59071 0
M  V30 10907 O 1012.69 0.469713 -1.73763 0
M  V30 10908 H 1009.07 -0.0773132 -0.748015 0
M  V30 10909 H 1011.04 -1.14273 -2.75652 0
M  V30 10910 C 1009.79 0.495546 -3.44151 0
M  V30 10911 H 1009.11 -0.171829 -3.99431 0
M  V30 10912 H 1010.55 0.854854 -4.15293 0
M  V30 10913 C 1009.01 1.68278 -2.91863 0
M  V30 10914 O 1009.54 2.78194 -2.89777 0
M  V30 10915 N 1007.74 1.51151 -2.48197 0
M  V30 10916 H 1007.29 0.617345 -2.50093 0
M  V30 10917 H 1007.25 2.3073 -2.13567 0
M  V30 10918 N 1011.02 1.44971 -0.618145 0
M  V30 10919 C 1011.95 2.33357 0.0815955 0
M  V30 10920 C 1012.93 1.47451 0.848072 0
M  V30 10921 O 1014.12 1.762 0.816532 0
M  V30 10922 C 1011.25 3.30324 1.07253 0
M  V30 10923 C 1010.2 4.25948 0.418563 0
M  V30 10924 C 1009.53 5.12685 1.51849 0
M  V30 10925 C 1010.83 5.18024 -0.66697 0
M  V30 10926 H 1012.52 2.92115 -0.656442 0
M  V30 10927 H 1010.07 1.40465 -0.317129 0
M  V30 10928 H 1012.02 3.91033 1.57069 0
M  V30 10929 H 1010.74 2.69748 1.8413 0
M  V30 10930 H 1009.4 3.66553 -0.0588308 0
M  V30 10931 H 1009.05 4.4847 2.2778 0
M  V30 10932 H 1008.75 5.7747 1.08637 0
M  V30 10933 H 1010.27 5.76264 2.01871 0
M  V30 10934 H 1011.69 5.72744 -0.252448 0
M  V30 10935 H 1010.09 5.91343 -1.02146 0
M  V30 10936 H 1011.16 4.59817 -1.53936 0
M  V30 10937 N 1012.5 0.357919 1.53482 0
M  V30 10938 C 1013.91 0.00655107 1.59599 0
M  V30 10939 C 1014.11 -1.47449 1.37336 0
M  V30 10940 O 1013.17 -2.2351 1.17472 0
M  V30 10941 C 1014.48 0.455617 2.97228 0
M  V30 10942 C 1016.03 0.409183 3.10314 0
M  V30 10943 C 1016.51 0.833941 4.50344 0
M  V30 10944 N 1018 0.788695 4.56436 0
M  V30 10945 C 1018.73 1.08914 5.62961 0
M  V30 10946 N 1018.23 1.45847 6.77274 0
M  V30 10947 N 1020.02 1.01243 5.52907 0
M  V30 10948 H 1012.17 1.32248 1.66206 0
M  V30 10949 H 1014.44 0.540047 0.779136 0
M  V30 10950 H 1014.14 1.48881 3.18634 0
M  V30 10951 H 1014.02 -0.161751 3.76853 0
M  V30 10952 H 1016.4 -0.614863 2.88623 0
M  V30 10953 H 1016.48 1.06195 2.32715 0
M  V30 10954 H 1016.13 1.85607 4.72771 0
M  V30 10955 H 1016.06 0.158507 5.26361 0
M  V30 10956 H 1018.55 0.516497 3.74354 0
M  V30 10957 H 1018.86 1.67218 7.54492 0
M  V30 10958 H 1017.21 1.49705 6.78685 0
M  V30 10959 H 1020.4 0.723137 4.62481 0
M  V30 10960 H 1020.57 1.24991 6.35831 0
M  V30 10961 N 1013.98 -1.5736 0.0868897 0
M  V30 10962 C 1014.91 -2.10582 -0.904858 0
M  V30 10963 C 1015.92 -1.04124 -1.25148 0
M  V30 10964 O 1017.11 -1.31595 -1.20603 0
M  V30 10965 C 1014.21 -2.56381 -2.21635 0
M  V30 10966 C 1013.38 -3.86581 -2.04631 0
M  V30 10967 C 1012.44 -4.18313 -3.19219 0
M  V30 10968 O 1011.47 -4.87669 -2.93544 0
M  V30 10969 N 1012.67 -3.73061 -4.44754 0
M  V30 10970 H 1015.44 -2.96297 -0.450352 0
M  V30 10971 H 1013 -1.616 -0.0984376 0
M  V30 10972 H 1014.99 -2.7466 -2.97227 0
M  V30 10973 H 1013.56 -1.75721 -2.58536 0
M  V30 10974 H 1012.78 -3.77532 -1.13417 0
M  V30 10975 H 1014.07 -4.71777 -1.90537 0
M  V30 10976 H 1013.46 -3.1706 -4.68497 0
M  V30 10977 H 1012.02 -3.96511 -5.17322 0
M  V30 10978 N 1015.45 0.186762 -1.56489 0
M  V30 10979 C 1016.87 0.537933 -1.50261 0
M  V30 10980 C 1017.07 1.85435 -0.788414 0
M  V30 10981 O 1016.13 2.50168 -0.342377 0
M  V30 10982 C 1017.44 0.584965 -2.94955 0
M  V30 10983 C 1018.99 0.673228 -3.05674 0
M  V30 10984 C 1019.46 0.751294 -4.51796 0
M  V30 10985 N 1020.95 0.814599 -4.55981 0
M  V30 10986 C 1021.69 0.895313 -5.66367 0
M  V30 10987 N 1021.18 0.937814 -6.86423 0
M  V30 10988 N 1022.98 0.933145 -5.543 0
M  V30 10989 H 1015.13 -0.676636 -2.01334 0
M  V30 10990 H 1017.39 -0.242079 -0.916571 0
M  V30 10991 H 1017.1 -0.313361 -3.50301 0
M  V30 10992 H 1016.97 1.4368 -3.48763 0
M  V30 10993 H 1019.36 1.56198 -2.50372 0
M  V30 10994 H 1019.44 -0.204976 -2.54977 0
M  V30 10995 H 1019.08 -0.133143 -5.07725 0
M  V30 10996 H 1019.01 1.64542 -5.00233 0
M  V30 10997 H 1021.5 0.790662 -3.69536 0
M  V30 10998 H 1021.82 1.00015 -7.66301 0
M  V30 10999 H 1020.16 0.906351 -6.89065 0
M  V30 11000 H 1023.35 0.896836 -4.59428 0
M  V30 11001 H 1023.53 0.992588 -6.40353 0
M  V30 11002 N 1016.93 1.50896 0.454776 0
M  V30 11003 C 1017.9 1.70377 1.53312 0
M  V30 11004 C 1018.9 0.57408 1.50203 0
M  V30 11005 O 1020.09 0.841374 1.52534 0
M  V30 11006 C 1017.22 1.74411 2.92905 0
M  V30 11007 H 1018.41 2.66599 1.37349 0
M  V30 11008 H 1015.96 1.40622 0.68228 0
M  V30 11009 H 1016.7 0.799408 3.14293 0
M  V30 11010 H 1016.48 2.56496 2.96568 0
M  V30 11011 H 1017.97 1.91382 3.71164 0
M  V30 11012 N 1018.41 -0.709066 1.40748 0
M  V30 11013 C 1019.34 -1.83293 1.35937 0
M  V30 11014 C 1020.32 -1.60983 0.22871 0
M  V30 11015 O 1021.51 -1.8391 0.413435 0
M  V30 11016 C 1018.63 -3.19746 1.11714 0
M  V30 11017 C 1017.68 -3.60872 2.27319 0
M  V30 11018 S 1018.51 -3.67233 3.89743 0
M  V30 11019 C 1019.67 -5.06434 3.67797 0
M  V30 11020 H 1019.9 -1.87095 2.31047 0
M  V30 11021 H 1017.43 -0.876479 1.27111 0
M  V30 11022 H 1019.39 -3.98526 0.984245 0
M  V30 11023 H 1018.05 -3.1357 0.182472 0
M  V30 11024 H 1017.25 -4.59965 2.06029 0
M  V30 11025 H 1016.85 -2.89366 2.36946 0
M  V30 11026 H 1019.14 -5.93544 3.26668 0
M  V30 11027 H 1020.08 -5.32761 4.66445 0
M  V30 11028 H 1020.49 -4.77336 3.01348 0
M  V30 11029 N 1019.89 -1.26353 -0.941956 0
M  V30 11030 C 1021.11 -1.14731 -1.72776 0
M  V30 11031 C 1021.54 0.293766 -1.85792 0
M  V30 11032 O 1020.9 1.21284 -1.34759 0
M  V30 11033 C 1020.95 -1.82041 -3.11277 0
M  V30 11034 O 1020.05 -1.10867 -3.97218 0
M  V30 11035 H 1019.39 -0.399823 -0.53013 0
M  V30 11036 H 1021.92 -1.67157 -1.17981 0
M  V30 11037 H 1021.93 -1.88834 -3.61671 0
M  V30 11038 H 1020.61 -2.86879 -3.0112 0
M  V30 11039 H 1019.18 -1.12044 -3.55669 0
M  V30 11040 N 1021.37 1.14642 -1.08144 0
M  V30 11041 C 1022.78 1.37604 -0.808537 0
M  V30 11042 C 1022.98 1.92868 0.583452 0
M  V30 11043 O 1022.04 2.13964 1.34073 0
M  V30 11044 C 1023.35 2.3396 -1.889 0
M  V30 11045 C 1024.9 2.47605 -1.9147 0
M  V30 11046 C 1025.38 3.47258 -2.98623 0
M  V30 11047 N 1026.87 3.548 -2.97777 0
M  V30 11048 C 1027.6 4.31751 -3.77331 0
M  V30 11049 N 1027.1 5.11966 -4.66757 0
M  V30 11050 N 1028.89 4.2692 -3.65645 0
M  V30 11051 H 1021.04 0.771154 -1.97906 0
M  V30 11052 H 1023.3 0.401694 -0.858688 0
M  V30 11053 H 1023.01 2.00484 -2.88962 0
M  V30 11054 H 1022.88 3.33833 -1.756 0
M  V30 11055 H 1025.27 2.80375 -0.920548 0
M  V30 11056 H 1025.35 1.47702 -2.08848 0
M  V30 11057 H 1025 3.15223 -3.98243 0
M  V30 11058 H 1024.93 4.46935 -2.7849 0
M  V30 11059 H 1027.42 2.97553 -2.3296 0
M  V30 11060 H 1027.73 5.67951 -5.24072 0
M  V30 11061 H 1026.08 5.11245 -4.70801 0
M  V30 11062 H 1029.27 3.63322 -2.95152 0
M  V30 11063 H 1029.44 4.8664 -4.27885 0
M  V30 11064 N 1022.85 0.866709 1.31628 0
M  V30 11065 C 1023.81 0.325041 2.26883 0
M  V30 11066 C 1024.81 -0.522133 1.52087 0
M  V30 11067 O 1026 -0.331908 1.71009 0
M  V30 11068 C 1023.13 -0.538756 3.36616 0
M  V30 11069 H 1024.32 1.16592 2.76308 0
M  V30 11070 H 1021.88 0.642029 1.42505 0
M  V30 11071 H 1022.61 -1.40096 2.92478 0
M  V30 11072 H 1022.4 0.0678115 3.92041 0
M  V30 11073 H 1023.89 -0.910123 4.07562 0
M  V30 11074 N 1024.32 -1.44642 0.625825 0
M  V30 11075 C 1025.55 -2.06971 0.133373 0
M  V30 11076 C 1025.97 -1.46421 -1.18078 0
M  V30 11077 O 1025.33 -0.563676 -1.72315 0
M  V30 11078 C 1025.38 -3.6059 0.0265097 0
M  V30 11079 O 1024.48 -3.99615 -1.01889 0
M  V30 11080 H 1023.82 -0.658873 0.0823568 0
M  V30 11081 H 1026.35 -1.85601 0.861002 0
M  V30 11082 H 1026.36 -4.07663 -0.1658 0
M  V30 11083 H 1025.04 -4.04043 0.985986 0
M  V30 11084 H 1023.62 -3.64183 -0.801577 0
M  V30 11085 N 1025.8 -0.366053 -1.5329 0
M  V30 11086 C 1027.05 0.224614 -2.00445 0
M  V30 11087 C 1027.36 1.49829 -1.2574 0
M  V30 11088 O 1028.57 2.16759 -1.63487 0
M  V30 11089 C 1027.03 0.450818 -3.57065 0
M  V30 11090 C 1026.63 -0.808257 -4.40649 0
M  V30 11091 C 1028.38 0.999116 -4.12575 0
M  V30 11092 C 1026.28 -0.551612 -5.88822 0
M  V30 11093 H 1025.21 0.0877114 -0.748881 0
M  V30 11094 H 1027.87 -0.484866 -1.76978 0
M  V30 11095 H 1026.25 1.22157 -3.76688 0
M  V30 11096 H 1027.42 -1.58184 -4.32798 0
M  V30 11097 H 1025.74 -1.27981 -3.96245 0
M  V30 11098 H 1028.33 1.20646 -5.20911 0
M  V30 11099 H 1028.68 1.96139 -3.67199 0
M  V30 11100 H 1029.21 0.288518 -3.96752 0
M  V30 11101 H 1025.95 -1.48423 -6.38475 0
M  V30 11102 H 1025.47 0.183462 -5.99519 0
M  V30 11103 H 1027.15 -0.177307 -6.46757 0
M  V30 11104 N 1027.28 1.57312 -0.0952337 0
M  V30 11105 C 1028.21 2.17056 0.860753 0
M  V30 11106 C 1029.19 1.10394 1.29411 0
M  V30 11107 O 1030.38 1.38532 1.36098 0
M  V30 11108 C 1027.51 2.751 2.11984 0
M  V30 11109 C 1026.46 3.87136 1.8251 0
M  V30 11110 C 1025.79 4.31883 3.15247 0
M  V30 11111 C 1027.09 5.10326 1.11194 0
M  V30 11112 H 1028.78 2.97192 0.362983 0
M  V30 11113 H 1026.33 1.42955 0.173151 0
M  V30 11114 H 1028.28 3.15547 2.79299 0
M  V30 11115 H 1027 1.92219 2.64044 0
M  V30 11116 H 1025.66 3.47229 1.17592 0
M  V30 11117 H 1025.31 3.45893 3.65195 0
M  V30 11118 H 1025.01 5.0742 2.96309 0
M  V30 11119 H 1026.53 4.74964 3.83721 0
M  V30 11120 H 1027.95 5.47942 1.6862 0
M  V30 11121 H 1026.34 5.91293 1.02435 0
M  V30 11122 H 1027.41 4.84807 0.0947227 0
M  V30 11123 N 1028.76 -0.17846 1.56586 0
M  V30 11124 C 1029.99 -0.911996 1.85715 0
M  V30 11125 C 1030.4 -1.76138 0.679766 0
M  V30 11126 O 1029.76 -1.79088 -0.351266 0
M  V30 11127 C 1029.81 -1.79459 3.1381 0
M  V30 11128 O 1029.53 -0.979476 4.2701 0
M  V30 11129 C 1031.03 -2.6384 3.56235 0
M  V30 11130 H 1028.25 -0.265299 0.616326 0
M  V30 11131 H 1030.79 -0.180704 2.037 0
M  V30 11132 H 1028.95 -2.4793 2.97673 0
M  V30 11133 H 1029.36 -1.58244 5.00059 0
M  V30 11134 H 1030.84 -3.21396 4.48786 0
M  V30 11135 H 1031.31 -3.38363 2.80013 0
M  V30 11136 H 1031.92 -2.00712 3.7496 0
M  V30 11137 N 1030.24 -1.51135 -0.446768 0
M  V30 11138 C 1031.18 -1.72328 -1.56224 0
M  V30 11139 C 1032.18 -0.589411 -1.58815 0
M  V30 11140 O 1033.38 -0.770554 -1.62673 0
M  V30 11141 H 1029.76 -0.544339 -0.518844 0
M  V30 11142 H 1031.73 -2.65851 -1.3552 0
M  V30 11143 C 1030.48 -1.85686 -2.93966 0
M  V30 11144 H 1029.8 -2.72336 -2.927 0
M  V30 11145 H 1031.24 -2.0453 -3.71407 0
M  V30 11146 C 1029.7 -0.614328 -3.31252 0
M  V30 11147 O 1030.23 0.235369 -4.0101 0
M  V30 11148 N 1028.44 -0.461181 -2.86917 0
M  V30 11149 H 1027.98 -1.15369 -2.30321 0
M  V30 11150 H 1027.94 0.368966 -3.12227 0
M  V30 11151 N 1031.71 0.701592 -1.41122 0
M  V30 11152 C 1032.94 1.49049 -1.43499 0
M  V30 11153 C 1033.36 1.88761 -0.0385684 0
M  V30 11154 O 1032.71 1.56384 0.940755 0
M  V30 11155 C 1032.76 2.7569 -2.33832 0
M  V30 11156 O 1032.49 2.37653 -3.68039 0
M  V30 11157 C 1033.99 3.69479 -2.44949 0
M  V30 11158 H 1031.21 0.459519 -0.488961 0
M  V30 11159 H 1033.75 0.864318 -1.85337 0
M  V30 11160 H 1031.91 3.34559 -1.95318 0
M  V30 11161 H 1032.32 3.19241 -4.16156 0
M  V30 11162 H 1033.79 4.55139 -3.12334 0
M  V30 11163 H 1034.27 4.13553 -1.47887 0
M  V30 11164 H 1034.88 3.16517 -2.84072 0
M  V30 11165 N 1033.19 1.2685 0.935242 0
M  V30 11166 C 1034.44 1.12912 1.6846 0
M  V30 11167 C 1034.77 -0.325708 1.91449 0
M  V30 11168 O 1034.05 -1.23884 1.49944 0
M  V30 11169 C 1034.33 1.90513 3.05576 0
M  V30 11170 C 1034.18 3.43936 2.89876 0
M  V30 11171 C 1035.5 1.70363 4.05789 0
M  V30 11172 H 1032.62 0.411559 0.611382 0
M  V30 11173 H 1035.26 1.55917 1.08582 0
M  V30 11174 H 1033.41 1.53963 3.5669 0
M  V30 11175 H 1035.08 3.90272 2.45939 0
M  V30 11176 H 1033.33 3.70659 2.25376 0
M  V30 11177 H 1034 3.93467 3.87153 0
M  V30 11178 H 1036.47 2.02217 3.63659 0
M  V30 11179 H 1035.35 2.27066 4.99732 0
M  V30 11180 H 1035.61 0.649674 4.373 0
M  V30 11181 N 1034.67 -1.14067 1.0875 0
M  V30 11182 C 1035.58 -2.22871 0.732498 0
M  V30 11183 C 1036.6 -1.72008 -0.26253 0
M  V30 11184 O 1037.77 -2.01123 -0.105601 0
M  V30 11185 C 1034.84 -3.46371 0.150913 0
M  V30 11186 C 1033.9 -4.12158 1.201 0
M  V30 11187 C 1033.13 -5.29763 0.647075 0
M  V30 11188 O 1033.35 -5.67911 -0.532307 0
M  V30 11189 O 1032.29 -5.8542 1.3988 0
M  V30 11190 H 1036.11 -2.55596 1.64025 0
M  V30 11191 H 1033.7 -1.22065 0.861417 0
M  V30 11192 H 1035.58 -4.21055 -0.170442 0
M  V30 11193 H 1034.26 -3.15362 -0.729948 0
M  V30 11194 H 1033.16 -3.39332 1.57494 0
M  V30 11195 H 1034.5 -4.47282 2.05426 0
M  V30 11196 N 1036.15 -0.873678 -1.31166 0
M  V30 11197 C 1037.06 -0.335726 -2.32185 0
M  V30 11198 C 1038.07 0.556259 -1.64869 0
M  V30 11199 O 1039.25 0.452087 -1.9626 0
M  V30 11200 C 1036.32 0.450822 -3.43756 0
M  V30 11201 C 1035.38 -0.469565 -4.26724 0
M  V30 11202 C 1034.61 0.279538 -5.32967 0
M  V30 11203 O 1034.83 1.50715 -5.50128 0
M  V30 11204 O 1033.77 -0.36452 -6.00795 0
M  V30 11205 H 1037.59 -1.17314 -2.80127 0
M  V30 11206 H 1035.18 -0.637163 -1.35132 0
M  V30 11207 H 1037.06 0.896582 -4.11752 0
M  V30 11208 H 1035.73 1.26472 -2.9797 0
M  V30 11209 H 1034.64 -0.963902 -3.61469 0
M  V30 11210 H 1035.97 -1.24916 -4.76085 0
M  V30 11211 N 1037.63 1.44308 -0.633487 0
M  V30 11212 C 1038.56 2.33431 0.0568402 0
M  V30 11213 C 1039.54 1.48342 0.832386 0
M  V30 11214 O 1040.72 1.77056 0.797798 0
M  V30 11215 C 1037.85 3.31443 1.03743 0
M  V30 11216 C 1036.81 4.26368 0.373362 0
M  V30 11217 C 1036.13 5.14267 1.46403 0
M  V30 11218 C 1037.43 5.17287 -0.721876 0
M  V30 11219 H 1039.13 2.91402 -0.687388 0
M  V30 11220 H 1036.67 1.4012 -0.332009 0
M  V30 11221 H 1038.63 3.92677 1.52913 0
M  V30 11222 H 1037.35 2.71686 1.81258 0
M  V30 11223 H 1036.01 3.6647 -0.0977053 0
M  V30 11224 H 1035.66 4.50861 2.23011 0
M  V30 11225 H 1035.36 5.7859 1.02506 0
M  V30 11226 H 1036.88 5.78373 1.95748 0
M  V30 11227 H 1038.29 5.72444 -0.313181 0
M  V30 11228 H 1036.69 5.90226 -1.08413 0
M  V30 11229 H 1037.76 4.58159 -1.58804 0
M  V30 11230 N 1039.1 0.374177 1.53094 0
M  V30 11231 C 1040.01 -0.475935 2.29722 0
M  V30 11232 C 1041.03 -1.085 1.36029 0
M  V30 11233 O 1042.21 -1.09408 1.69091 0
M  V30 11234 C 1039.27 -1.59572 3.07795 0
M  V30 11235 C 1038.33 -1.01332 4.17169 0
M  V30 11236 C 1037.57 -2.07975 4.9151 0
M  V30 11237 O 1037.79 -3.29232 4.65793 0
M  V30 11238 O 1036.72 -1.7055 5.77232 0
M  V30 11239 H 1040.55 0.147877 3.0334 0
M  V30 11240 H 1038.13 0.138312 1.48758 0
M  V30 11241 H 1040.02 -2.24658 3.5652 0
M  V30 11242 H 1038.69 -2.20478 2.37005 0
M  V30 11243 H 1037.6 -0.326133 3.72676 0
M  V30 11244 H 1038.93 -0.4487 4.90151 0
M  V30 11245 N 1040.58 -1.57259 0.103575 0
M  V30 11246 C 1041.49 -2.18018 -0.866327 0
M  V30 11247 C 1042.51 -1.15198 -1.30404 0
M  V30 11248 O 1043.68 -1.47605 -1.37021 0
M  V30 11249 C 1040.75 -2.75533 -2.10434 0
M  V30 11250 C 1039.81 -3.93337 -1.72002 0
M  V30 11251 C 1039.04 -4.481 -2.89901 0
M  V30 11252 O 1039.27 -4.01784 -4.04877 0
M  V30 11253 O 1038.2 -5.39004 -2.67877 0
M  V30 11254 H 1042.03 -3.01322 -0.379338 0
M  V30 11255 H 1039.61 -1.48907 -0.121228 0
M  V30 11256 H 1041.49 -3.12259 -2.8297 0
M  V30 11257 H 1040.17 -1.9527 -2.58169 0
M  V30 11258 H 1039.08 -3.61408 -0.966193 0
M  V30 11259 H 1040.41 -4.74989 -1.29022 0
M  V30 11260 N 1042.06 0.170153 -1.56679 0
M  V30 11261 C 1043.29 0.90618 -1.86556 0
M  V30 11262 C 1043.71 1.74986 -0.690044 0
M  V30 11263 O 1043.07 1.77672 0.360862 0
M  V30 11264 C 1043.12 1.75777 -3.14857 0
M  V30 11265 O 1042.22 2.85952 -2.97162 0
M  V30 11266 H 1041.56 0.253781 -0.613589 0
M  V30 11267 H 1044.09 0.167943 -2.0391 0
M  V30 11268 H 1044.1 2.15747 -3.46291 0
M  V30 11269 H 1042.78 1.13807 -4.00026 0
M  V30 11270 H 1041.35 2.49557 -2.77084 0
M  V30 11271 N 1043.54 1.5137 0.438746 0
M  V30 11272 C 1044.95 1.39514 0.775116 0
M  V30 11273 C 1045.15 0.47638 1.95788 0
M  V30 11274 O 1044.21 -0.0689832 2.52406 0
M  V30 11275 C 1045.52 2.81517 1.05681 0
M  V30 11276 C 1047.07 2.90658 1.16133 0
M  V30 11277 C 1047.55 4.33566 1.47597 0
M  V30 11278 N 1049.04 4.36665 1.54524 0
M  V30 11279 C 1049.77 5.4427 1.80438 0
M  V30 11280 N 1049.27 6.62037 2.04154 0
M  V30 11281 N 1051.06 5.31749 1.82208 0
M  V30 11282 H 1043.21 2.09657 -0.340237 0
M  V30 11283 H 1045.48 0.943736 -0.0898115 0
M  V30 11284 H 1045.18 3.50734 0.260441 0
M  V30 11285 H 1045.06 3.20757 1.98481 0
M  V30 11286 H 1047.44 2.2164 1.94833 0
M  V30 11287 H 1047.52 2.54917 0.212376 0
M  V30 11288 H 1047.17 5.03133 0.694251 0
M  V30 11289 H 1047.1 4.66819 2.43696 0
M  V30 11290 H 1049.59 3.51761 1.38105 0
M  V30 11291 H 1049.9 7.39838 2.23293 0
M  V30 11292 H 1048.25 6.65155 2.01479 0
M  V30 11293 H 1051.44 4.3873 1.63198 0
M  V30 11294 H 1051.61 6.15689 2.02067 0
M  V30 11295 N 1045.02 -0.694098 1.41492 0
M  V30 11296 C 1045.95 -1.81943 1.39389 0
M  V30 11297 C 1046.96 -1.6009 0.295836 0
M  V30 11298 O 1048.15 -1.69565 0.557658 0
M  V30 11299 C 1045.25 -3.18731 1.15167 0
M  V30 11300 C 1044.42 -3.67601 2.37041 0
M  V30 11301 C 1043.48 -4.83063 2.08654 0
M  V30 11302 O 1042.51 -4.94603 2.81704 0
M  V30 11303 N 1043.71 -5.70409 1.0777 0
M  V30 11304 H 1046.48 -1.84239 2.36381 0
M  V30 11305 H 1044.04 -0.876475 1.36123 0
M  V30 11306 H 1046.03 -3.93602 0.941264 0
M  V30 11307 H 1044.6 -3.11452 0.267673 0
M  V30 11308 H 1043.82 -2.83622 2.73774 0
M  V30 11309 H 1045.11 -3.96991 3.18239 0
M  V30 11310 H 1044.5 -5.63718 0.473123 0
M  V30 11311 H 1043.06 -6.45172 0.927177 0
M  V30 11312 N 1046.49 -1.27344 -0.928501 0
M  V30 11313 C 1047.44 -1.10001 -2.029 0
M  V30 11314 C 1048.41 -0.00131084 -1.661 0
M  V30 11315 O 1049.6 -0.163485 -1.90098 0
M  V30 11316 C 1046.74 -0.7524 -3.36798 0
M  V30 11317 C 1045.85 -1.92865 -3.86558 0
M  V30 11318 C 1044.98 -1.52299 -5.08899 0
M  V30 11319 C 1044.02 -2.66677 -5.50953 0
M  V30 11320 N 1043.16 -2.26706 -6.64491 0
M  V30 11321 H 1048 -2.0417 -2.17068 0
M  V30 11322 H 1045.54 -1.01637 -1.0634 0
M  V30 11323 H 1047.5 -0.531687 -4.13798 0
M  V30 11324 H 1046.13 0.15234 -3.2244 0
M  V30 11325 H 1045.18 -2.26192 -3.05845 0
M  V30 11326 H 1046.49 -2.78668 -4.13698 0
M  V30 11327 H 1045.64 -1.26348 -5.93398 0
M  V30 11328 H 1044.38 -0.636042 -4.83535 0
M  V30 11329 H 1043.39 -2.93344 -4.65004 0
M  V30 11330 H 1044.61 -3.55992 -5.78313 0
M  V30 11331 H 1042.56 -1.40462 -6.40786 0
M  V30 11332 H 1042.48 -3.06049 -6.91281 0
M  V30 11333 H 1043.74 -2.04 -7.52333 0
M  V30 11334 N 1047.97 1.13488 -1.09353 0
M  V30 11335 C 1049.21 1.86397 -0.83877 0
M  V30 11336 C 1049.58 1.81568 0.624259 0
M  V30 11337 O 1050.78 2.49709 0.994923 0
M  V30 11338 C 1049.05 3.30583 -1.35828 0
M  V30 11339 S 1050.61 4.20995 -1.23728 0
M  V30 11340 H 1047.43 0.643022 -0.303387 0
M  V30 11341 H 1050.03 1.36788 -1.39676 0
M  V30 11342 H 1048.73 3.31652 -2.41734 0
M  V30 11343 H 1048.26 3.85255 -0.796386 0
M  V30 11344 H 1050.28 4.95845 -0.187745 0
M  V30 11345 N 1049.45 0.880621 1.30701 0
M  V30 11346 C 1050.86 0.547993 1.78477 0
M  V30 11347 C 1051.21 -0.935633 1.72454 0
M  V30 11348 O 1050.34 -1.73094 1.29874 0
M  V30 11349 C 1050.93 0.98795 3.24076 0
M  V30 11350 C 1049.49 0.706805 3.69704 0
M  V30 11351 C 1048.64 1.17335 2.51252 0
M  V30 11352 H 1051.59 1.06528 1.17633 0
M  V30 11353 H 1051.61 0.31508 3.79193 0
M  V30 11354 H 1051.12 2.06778 3.28427 0
M  V30 11355 H 1049.22 -0.36122 3.70845 0
M  V30 11356 H 1049.34 1.2913 4.6137 0
M  V30 11357 H 1047.7 0.592808 2.47705 0
M  V30 11358 H 1048.48 2.26083 2.58343 0
M  V30 11359 N 1050.93 -1.4397 0.641131 0
M  V30 11360 C 1052.34 -1.85267 0.230838 0
M  V30 11361 C 1052.69 -1.53659 -1.21998 0
M  V30 11362 O 1051.82 -0.979572 -1.92959 0
M  V30 11363 C 1052.41 -3.36284 0.412171 0
M  V30 11364 C 1050.97 -3.76358 0.0563004 0
M  V30 11365 C 1050.12 -2.67768 0.720809 0
M  V30 11366 H 1053.07 -1.34294 0.845624 0
M  V30 11367 H 1053.09 -3.78924 -0.345936 0
M  V30 11368 H 1052.6 -3.59258 1.46818 0
M  V30 11369 H 1050.7 -3.58997 -0.997582 0
M  V30 11370 H 1050.82 -4.76756 0.473335 0
M  V30 11371 H 1049.18 -2.54227 0.155164 0
M  V30 11372 H 1049.96 -2.93573 1.77961 0
M  V30 11373 N 1052.41 -0.382291 -1.52893 0
M  V30 11374 C 1053.65 0.194935 -2.02464 0
M  V30 11375 C 1054.01 1.45051 -1.26404 0
M  V30 11376 O 1053.3 1.88302 -0.353968 0
M  V30 11377 C 1053.5 0.523437 -3.53546 0
M  V30 11378 C 1053.32 -0.698754 -4.44238 0
M  V30 11379 C 1052.09 -1.2159 -4.90453 0
M  V30 11380 C 1054.29 -1.56899 -4.89783 0
M  V30 11381 N 1052.27 -2.39637 -5.65197 0
M  V30 11382 C 1053.65 -2.59595 -5.63037 0
M  V30 11383 C 1055.7 -1.58991 -4.71833 0
M  V30 11384 C 1054.4 -3.6426 -6.20248 0
M  V30 11385 C 1056.43 -2.62559 -5.29922 0
M  V30 11386 C 1055.79 -3.63977 -6.03076 0
M  V30 11387 H 1051.89 0.0336043 -0.781278 0
M  V30 11388 H 1054.47 -0.530603 -1.8733 0
M  V30 11389 H 1052.65 1.21804 -3.68807 0
M  V30 11390 H 1054.38 1.0872 -3.89823 0
M  V30 11391 H 1051.13 -0.777967 -4.67167 0
M  V30 11392 H 1051.56 -2.99348 -6.07223 0
M  V30 11393 H 1056.2 -0.819305 -4.14786 0
M  V30 11394 H 1053.92 -4.42192 -6.76382 0
M  V30 11395 H 1057.5 -2.65052 -5.17918 0
M  V30 11396 H 1056.38 -4.42802 -6.47222 0
M  V30 11397 N 1053.89 1.57202 -0.111913 0
M  V30 11398 C 1055.13 1.96035 0.542393 0
M  V30 11399 C 1055.49 0.993925 1.64739 0
M  V30 11400 O 1054.78 0.0227369 1.91587 0
M  V30 11401 C 1054.97 3.39152 1.12741 0
M  V30 11402 C 1054.8 4.49628 0.0806232 0
M  V30 11403 C 1053.57 5.04095 -0.348737 0
M  V30 11404 C 1055.77 5.09546 -0.697655 0
M  V30 11405 N 1053.75 5.98141 -1.38204 0
M  V30 11406 C 1055.12 5.99468 -1.58234 0
M  V30 11407 C 1057.18 4.92229 -0.749324 0
M  V30 11408 C 1055.88 6.7393 -2.51418 0
M  V30 11409 C 1057.91 5.67366 -1.66884 0
M  V30 11410 C 1057.27 6.56968 -2.54112 0
M  V30 11411 H 1053.37 0.763672 0.168311 0
M  V30 11412 H 1055.95 1.93687 -0.198387 0
M  V30 11413 H 1054.12 3.42161 1.83794 0
M  V30 11414 H 1055.86 3.65125 1.74546 0
M  V30 11415 H 1052.61 4.73581 0.042288 0
M  V30 11416 H 1053.03 6.49868 -1.8974 0
M  V30 11417 H 1057.68 4.22706 -0.0890808 0
M  V30 11418 H 1055.39 7.42704 -3.18459 0
M  V30 11419 H 1058.98 5.55974 -1.71417 0
M  V30 11420 H 1057.86 7.1409 -3.24107 0
M  V30 11421 N 1055.36 -0.161842 1.56767 0
M  V30 11422 C 1056.59 -0.890953 1.86402 0
M  V30 11423 C 1057 -1.75918 0.696373 0
M  V30 11424 O 1056.34 -1.80461 -0.343463 0
M  V30 11425 C 1056.41 -1.81079 3.10565 0
M  V30 11426 C 1056.07 -1.12121 4.43032 0
M  V30 11427 C 1057.07 -0.482152 5.17659 0
M  V30 11428 C 1054.75 -1.11514 4.89765 0
M  V30 11429 C 1056.75 0.153772 6.37214 0
M  V30 11430 C 1054.43 -0.4754 6.09248 0
M  V30 11431 C 1055.43 0.157944 6.82817 0
M  V30 11432 O 1055.12 0.787579 8.00033 0
M  V30 11433 H 1054.85 -0.26379 0.622407 0
M  V30 11434 H 1057.41 -0.163884 2.04745 0
M  V30 11435 H 1055.64 -2.57842 2.88192 0
M  V30 11436 H 1057.32 -2.41056 3.26568 0
M  V30 11437 H 1058.09 -0.478752 4.82631 0
M  V30 11438 H 1053.97 -1.59752 4.32435 0
M  V30 11439 H 1057.51 0.648716 6.94577 0
M  V30 11440 H 1053.41 -0.476416 6.43739 0
M  V30 11441 H 1054.18 0.687769 8.15605 0
M  V30 11442 N 1056.84 -1.516 -0.430713 0
M  V30 11443 C 1058.26 -1.39923 -0.767706 0
M  V30 11444 C 1058.46 -0.486756 -1.95532 0
M  V30 11445 O 1057.51 0.0555965 -2.52439 0
M  V30 11446 C 1058.83 -2.82074 -1.04187 0
M  V30 11447 C 1060.37 -2.9127 -1.1459 0
M  V30 11448 C 1060.85 -4.34342 -1.45295 0
M  V30 11449 N 1062.34 -4.37479 -1.52206 0
M  V30 11450 C 1063.08 -5.45219 -1.77549 0
M  V30 11451 N 1062.57 -6.6311 -2.0064 0
M  V30 11452 N 1064.36 -5.32707 -1.79386 0
M  V30 11453 H 1056.52 -2.09474 0.351351 0
M  V30 11454 H 1058.78 -0.943247 0.0948151 0
M  V30 11455 H 1058.48 -3.50868 -0.241837 0
M  V30 11456 H 1058.36 -3.21805 -1.96777 0
M  V30 11457 H 1060.75 -2.2267 -1.93655 0
M  V30 11458 H 1060.83 -2.55026 -0.198854 0
M  V30 11459 H 1060.47 -5.03494 -0.667559 0
M  V30 11460 H 1060.4 -4.68105 -2.41217 0
M  V30 11461 H 1062.89 -3.52488 -1.36237 0
M  V30 11462 H 1063.2 -7.41012 -2.19366 0
M  V30 11463 H 1061.55 -6.66214 -1.97948 0
M  V30 11464 H 1064.74 -4.39589 -1.60869 0
M  V30 11465 H 1064.91 -6.16752 -1.98799 0
M  V30 11466 N 1058.32 0.686584 -1.41858 0
M  V30 11467 C 1059.57 1.44665 -1.41698 0
M  V30 11468 C 1059.89 1.94478 -0.0292442 0
M  V30 11469 O 1059.15 1.70512 0.960421 0
M  V30 11470 C 1059.45 2.66793 -2.37816 0
M  V30 11471 C 1059.11 2.35587 -3.8446 0
M  V30 11472 C 1057.78 2.26788 -4.24406 0
M  V30 11473 C 1060.13 2.10028 -4.77009 0
M  V30 11474 C 1057.46 1.90538 -5.54898 0
M  V30 11475 C 1059.81 1.75285 -6.07831 0
M  V30 11476 C 1058.47 1.64987 -6.46789 0
M  V30 11477 H 1057.74 0.529367 -0.518509 0
M  V30 11478 H 1060.39 0.783938 -1.74719 0
M  V30 11479 H 1058.69 3.38041 -1.9808 0
M  V30 11480 H 1060.39 3.24953 -2.34961 0
M  V30 11481 H 1056.98 2.43334 -3.52826 0
M  V30 11482 H 1061.17 2.15766 -4.46944 0
M  V30 11483 H 1056.42 1.81125 -5.83955 0
M  V30 11484 H 1060.6 1.5453 -6.79039 0
M  V30 11485 H 1058.22 1.36667 -7.47814 0
M  V30 11486 N 1059.8 1.27835 0.921735 0
M  V30 11487 C 1060.76 1.11108 2.00469 0
M  V30 11488 C 1061.76 0.053203 1.60712 0
M  V30 11489 O 1062.95 0.298308 1.71627 0
M  V30 11490 C 1060.08 0.694269 3.33755 0
M  V30 11491 H 1061.28 2.07279 2.16738 0
M  V30 11492 H 1058.83 1.10708 1.10333 0
M  V30 11493 H 1059.56 -0.268561 3.23186 0
M  V30 11494 H 1059.35 1.45836 3.6397 0
M  V30 11495 H 1060.84 0.59965 4.13272 0
M  V30 11496 N 1061.28 -1.12907 1.09954 0
M  V30 11497 C 1062.23 -2.16558 0.713204 0
M  V30 11498 C 1063.21 -1.5853 -0.27515 0
M  V30 11499 O 1064.4 -1.76797 -0.0846643 0
M  V30 11500 C 1061.53 -3.43009 0.141224 0
M  V30 11501 C 1060.62 -4.08032 1.15632 0
M  V30 11502 N 1061.01 -4.48139 2.34531 0
M  V30 11503 C 1059.31 -4.34743 0.995701 0
M  V30 11504 C 1060.01 -4.98885 2.99147 0
M  V30 11505 N 1058.98 -4.9408 2.26684 0
M  V30 11506 H 1062.78 -2.45328 1.61838 0
M  V30 11507 H 1060.3 -1.29759 0.976539 0
M  V30 11508 H 1062.3 -4.16617 -0.153598 0
M  V30 11509 H 1060.96 -3.15711 -0.758729 0
M  V30 11510 H 1061.97 -4.40668 2.72089 0
M  V30 11511 H 1058.64 -4.17227 0.150888 0
M  V30 11512 H 1060.03 -5.3967 4.00257 0
M  V30 11513 N 1062.75 -0.88754 -1.30232 0
M  V30 11514 C 1063.7 -0.354497 -2.28061 0
M  V30 11515 C 1064.67 0.556732 -1.56492 0
M  V30 11516 O 1065.86 0.484597 -1.84543 0
M  V30 11517 C 1063 0.422701 -3.42501 0
M  V30 11518 C 1062.11 -0.518036 -4.28883 0
M  V30 11519 C 1061.24 0.275011 -5.30488 0
M  V30 11520 C 1060.28 -0.661032 -6.0852 0
M  V30 11521 N 1059.42 0.0968509 -7.02033 0
M  V30 11522 H 1064.26 -1.19388 -2.73039 0
M  V30 11523 H 1061.8 -0.600091 -1.34303 0
M  V30 11524 H 1063.75 0.889249 -4.07613 0
M  V30 11525 H 1062.38 1.22664 -2.98586 0
M  V30 11526 H 1061.44 -1.10308 -3.64055 0
M  V30 11527 H 1062.75 -1.23504 -4.83268 0
M  V30 11528 H 1061.9 0.803301 -6.01358 0
M  V30 11529 H 1060.64 1.02522 -4.76802 0
M  V30 11530 H 1059.65 -1.20093 -5.36524 0
M  V30 11531 H 1060.87 -1.41037 -6.64293 0
M  V30 11532 H 1058.82 0.829548 -6.50734 0
M  V30 11533 H 1058.73 -0.560476 -7.5392 0
M  V30 11534 H 1060 0.6058 -7.77142 0
M  V30 11535 N 1064.23 1.43628 -0.648757 0
M  V30 11536 C 1065.48 2.01864 -0.160336 0
M  V30 11537 C 1065.81 1.51148 1.22412 0
M  V30 11538 O 1065.06 0.693168 1.83013 0
M  V30 11539 C 1065.36 3.57214 -0.115282 0
M  V30 11540 C 1065.03 4.27258 -1.44088 0
M  V30 11541 C 1063.69 4.46109 -1.8039 0
M  V30 11542 C 1066.04 4.66962 -2.31508 0
M  V30 11543 C 1063.37 5.01928 -3.03785 0
M  V30 11544 C 1065.72 5.24148 -3.54191 0
M  V30 11545 C 1064.39 5.41216 -3.90694 0
M  V30 11546 H 1063.66 0.738674 -0.0586712 0
M  V30 11547 H 1066.3 1.72163 -0.838578 0
M  V30 11548 H 1064.61 3.86431 0.646395 0
M  V30 11549 H 1066.3 4.00025 0.279425 0
M  V30 11550 H 1062.89 4.12928 -1.14842 0
M  V30 11551 H 1067.08 4.52095 -2.04753 0
M  V30 11552 H 1062.33 5.13328 -3.32122 0
M  V30 11553 H 1066.51 5.53861 -4.22151 0
M  V30 11554 H 1064.14 5.84234 -4.8639 0
M  V30 11555 N 1065.71 0.390394 1.52688 0
M  V30 11556 C 1066.64 -0.43567 2.294 0
M  V30 11557 C 1067.62 -1.06253 1.32832 0
M  V30 11558 O 1068.81 -1.07509 1.61726 0
M  V30 11559 C 1065.94 -1.56259 3.10162 0
M  V30 11560 C 1064.89 -1.06172 4.14622 0
M  V30 11561 C 1064.22 -2.2808 4.83615 0
M  V30 11562 C 1065.52 -0.128902 5.22141 0
M  V30 11563 H 1067.21 0.204384 2.98702 0
M  V30 11564 H 1064.76 0.0997377 1.43654 0
M  V30 11565 H 1066.71 -2.14732 3.62585 0
M  V30 11566 H 1065.43 -2.23025 2.38595 0
M  V30 11567 H 1064.09 -0.499518 3.63181 0
M  V30 11568 H 1063.74 -2.93358 4.08595 0
M  V30 11569 H 1063.44 -1.95227 5.5422 0
M  V30 11570 H 1064.96 -2.87193 5.38844 0
M  V30 11571 H 1066.38 -0.621849 5.69917 0
M  V30 11572 H 1064.78 0.109919 5.99999 0
M  V30 11573 H 1065.85 0.821884 4.77884 0
M  V30 11574 N 1067.19 -1.57141 0.120249 0
M  V30 11575 C 1068.44 -1.94413 -0.53727 0
M  V30 11576 C 1068.75 -1.00594 -1.67751 0
M  V30 11577 O 1069.96 -1.27336 -2.39787 0
M  V30 11578 C 1068.41 -3.45521 -1.00714 0
M  V30 11579 C 1068.02 -4.47878 0.104706 0
M  V30 11580 C 1069.76 -3.9171 -1.63596 0
M  V30 11581 C 1067.67 -5.90165 -0.381932 0
M  V30 11582 H 1066.6 -0.725745 -0.204475 0
M  V30 11583 H 1069.25 -1.82404 0.200302 0
M  V30 11584 H 1067.63 -3.52769 -1.79917 0
M  V30 11585 H 1068.81 -4.523 0.881002 0
M  V30 11586 H 1067.12 -4.11448 0.640264 0
M  V30 11587 H 1069.72 -4.95433 -2.01122 0
M  V30 11588 H 1070.06 -3.31756 -2.51483 0
M  V30 11589 H 1070.6 -3.87268 -0.909319 0
M  V30 11590 H 1067.34 -6.53877 0.460921 0
M  V30 11591 H 1066.86 -5.89161 -1.12468 0
M  V30 11592 H 1068.53 -6.41488 -0.842748 0
M  V30 11593 N 1068.67 0.153526 -1.5685 0
M  V30 11594 C 1069.91 0.863728 -1.8415 0
M  V30 11595 C 1070.27 1.79084 -0.703324 0
M  V30 11596 O 1069.56 1.8925 0.299149 0
M  V30 11597 C 1069.75 1.68066 -3.15418 0
M  V30 11598 C 1069.58 0.834145 -4.41896 0
M  V30 11599 C 1068.35 0.502294 -5.02797 0
M  V30 11600 C 1070.55 0.167476 -5.14027 0
M  V30 11601 N 1068.53 -0.3585 -6.12852 0
M  V30 11602 C 1069.9 -0.55373 -6.17522 0
M  V30 11603 C 1071.96 0.0874745 -4.97823 0
M  V30 11604 C 1070.66 -1.34737 -7.06568 0
M  V30 11605 C 1072.69 -0.692888 -5.87327 0
M  V30 11606 C 1072.05 -1.4024 -6.90299 0
M  V30 11607 H 1068.15 0.2941 -0.724589 0
M  V30 11608 H 1070.73 0.129515 -1.94269 0
M  V30 11609 H 1068.9 2.38616 -3.06459 0
M  V30 11610 H 1070.64 2.33353 -3.30649 0
M  V30 11611 H 1067.39 0.836557 -4.66153 0
M  V30 11612 H 1067.82 -0.77973 -6.72495 0
M  V30 11613 H 1072.46 0.621662 -4.18205 0
M  V30 11614 H 1070.18 -1.89284 -7.85619 0
M  V30 11615 H 1073.76 -0.756694 -5.76858 0
M  V30 11616 H 1072.64 -1.99655 -7.58359 0
M  V30 11617 N 1070.14 1.51827 0.422667 0
M  V30 11618 C 1071.09 1.74791 1.53463 0
M  V30 11619 C 1072.09 0.614602 1.57858 0
M  V30 11620 O 1073.29 0.796336 1.61426 0
M  V30 11621 H 1069.67 0.552524 0.510118 0
M  V30 11622 H 1071.64 2.67974 1.31273 0
M  V30 11623 C 1070.39 1.90339 2.90975 0
M  V30 11624 H 1069.71 2.76958 2.8833 0
M  V30 11625 H 1071.15 2.10413 3.68106 0
M  V30 11626 C 1069.61 0.66695 3.30232 0
M  V30 11627 O 1070.14 -0.171542 4.01334 0
M  V30 11628 N 1068.35 0.506768 2.86147 0
M  V30 11629 H 1067.89 1.19019 2.28456 0
M  V30 11630 H 1067.85 -0.319247 3.12775 0
M  V30 11631 N 1071.62 -0.679052 1.4222 0
M  V30 11632 C 1072.86 -1.45118 1.43945 0
M  V30 11633 C 1073.23 -1.91928 0.0524851 0
M  V30 11634 O 1074.43 -2.68743 -0.0555318 0
M  V30 11635 C 1072.7 -2.6191 2.43183 0
M  V30 11636 S 1074.26 -3.50819 2.63574 0
M  V30 11637 H 1071.08 -0.495695 0.509713 0
M  V30 11638 H 1073.68 -0.790842 1.7879 0
M  V30 11639 H 1072.38 -2.25752 3.42731 0
M  V30 11640 H 1071.91 -3.3282 2.09748 0
M  V30 11641 H 1073.93 -4.57735 1.91555 0
M  V30 11642 N 1073.1 -1.28322 -0.914942 0
M  V30 11643 C 1074.33 -1.1837 -1.70304 0
M  V30 11644 C 1074.75 0.254291 -1.86373 0
M  V30 11645 O 1074.11 1.18398 -1.37301 0
M  V30 11646 C 1074.16 -1.88603 -3.07346 0
M  V30 11647 O 1073.26 -1.19268 -3.94777 0
M  V30 11648 H 1072.6 -0.410978 -0.52153 0
M  V30 11649 H 1075.13 -1.69622 -1.14409 0
M  V30 11650 H 1075.14 -1.96463 -3.57584 0
M  V30 11651 H 1073.82 -2.93201 -2.94967 0
M  V30 11652 H 1072.39 -1.19563 -3.53212 0
M  V30 11653 N 1074.58 1.12322 -1.10551 0
M  V30 11654 C 1075.99 1.6539 -0.8662 0
M  V30 11655 C 1076.34 1.86695 0.603284 0
M  V30 11656 O 1075.47 1.59432 1.46323 0
M  V30 11657 C 1076.06 3.00443 -1.56587 0
M  V30 11658 C 1074.62 3.50456 -1.37323 0
M  V30 11659 C 1073.77 2.25454 -1.61449 0
M  V30 11660 H 1076.72 0.960866 -1.26305 0
M  V30 11661 H 1076.74 3.66972 -1.00557 0
M  V30 11662 H 1076.25 2.84905 -2.63535 0
M  V30 11663 H 1074.35 3.71176 -0.325431 0
M  V30 11664 H 1074.46 4.29839 -2.11601 0
M  V30 11665 H 1072.83 2.32621 -1.03729 0
M  V30 11666 H 1073.61 2.12469 -2.69651 0
M  V30 11667 N 1076.06 0.894434 1.2976 0
M  V30 11668 C 1077.29 0.532143 1.99629 0
M  V30 11669 C 1077.69 -0.886234 1.6716 0
M  V30 11670 O 1077.04 -1.59573 0.910065 0
M  V30 11671 C 1077.1 0.638335 3.53787 0
M  V30 11672 C 1076.76 2.02273 4.09798 0
M  V30 11673 C 1077.76 2.99327 4.25087 0
M  V30 11674 C 1075.45 2.33069 4.44954 0
M  V30 11675 C 1077.44 4.25304 4.74758 0
M  V30 11676 C 1075.13 3.59289 4.94322 0
M  V30 11677 C 1076.12 4.55222 5.09178 0
M  V30 11678 O 1075.81 5.79202 5.57477 0
M  V30 11679 H 1075.54 0.203326 0.644697 0
M  V30 11680 H 1078.1 1.2043 1.6639 0
M  V30 11681 H 1076.33 -0.0908338 3.86593 0
M  V30 11682 H 1078.02 0.285956 4.04891 0
M  V30 11683 H 1078.78 2.76849 3.9822 0
M  V30 11684 H 1074.66 1.59162 4.32653 0
M  V30 11685 H 1078.21 5.00189 4.86269 0
M  V30 11686 H 1074.1 3.816 5.20626 0
M  V30 11687 H 1074.87 5.81717 5.75802 0
M  V30 11688 N 1077.53 -1.43282 0.656365 0
M  V30 11689 C 1078.78 -2.02603 0.179905 0
M  V30 11690 C 1079.14 -1.50875 -1.19393 0
M  V30 11691 O 1078.43 -0.6935 -1.78609 0
M  V30 11692 C 1078.62 -3.57148 0.134225 0
M  V30 11693 C 1078.45 -4.23872 1.50209 0
M  V30 11694 C 1077.22 -4.59812 2.09526 0
M  V30 11695 C 1079.42 -4.52674 2.44112 0
M  V30 11696 N 1077.4 -5.11624 3.39284 0
M  V30 11697 C 1078.77 -5.05839 3.58506 0
M  V30 11698 C 1080.83 -4.34645 2.42874 0
M  V30 11699 C 1079.53 -5.42872 4.71892 0
M  V30 11700 C 1081.56 -4.72742 3.55343 0
M  V30 11701 C 1080.92 -5.26043 4.68463 0
M  V30 11702 H 1077.02 -0.774177 0.110334 0
M  V30 11703 H 1079.6 -1.74413 0.865352 0
M  V30 11704 H 1077.77 -3.84896 -0.520575 0
M  V30 11705 H 1079.5 -4.03154 -0.3534 0
M  V30 11706 H 1076.26 -4.44958 1.62203 0
M  V30 11707 H 1076.68 -5.4198 4.05693 0
M  V30 11708 H 1081.33 -3.92708 1.56654 0
M  V30 11709 H 1079.04 -5.83752 5.58802 0
M  V30 11710 H 1082.63 -4.60485 3.55591 0
M  V30 11711 H 1081.51 -5.54975 5.54051 0
M  V30 11712 N 1079.01 -0.398486 -1.52479 0
M  V30 11713 C 1080.26 0.182046 -2.00877 0
M  V30 11714 C 1080.58 1.47128 -1.2889 0
M  V30 11715 O 1081.78 2.13242 -1.68048 0
M  V30 11716 C 1080.24 0.374978 -3.57941 0
M  V30 11717 C 1079.85 -0.901544 -4.38835 0
M  V30 11718 C 1081.59 0.911378 -4.14601 0
M  V30 11719 C 1079.5 -0.676385 -5.87519 0
M  V30 11720 H 1078.43 0.0718068 -0.750573 0
M  V30 11721 H 1081.08 -0.522297 -1.7591 0
M  V30 11722 H 1079.46 1.14139 -3.79194 0
M  V30 11723 H 1080.63 -1.67329 -4.29346 0
M  V30 11724 H 1078.95 -1.36357 -3.93441 0
M  V30 11725 H 1081.55 1.09569 -5.23353 0
M  V30 11726 H 1081.89 1.88306 -3.71277 0
M  V30 11727 H 1082.42 0.204296 -3.97275 0
M  V30 11728 H 1079.16 -1.61933 -6.35184 0
M  V30 11729 H 1078.68 0.0562542 -5.99774 0
M  V30 11730 H 1080.36 -0.314454 -6.46235 0
M  V30 11731 N 1080.49 1.57075 -0.12858 0
M  V30 11732 C 1081.44 2.15816 0.818064 0
M  V30 11733 C 1082.41 1.08581 1.25696 0
M  V30 11734 O 1083.59 1.36535 1.33277 0
M  V30 11735 C 1080.73 2.76943 2.05905 0
M  V30 11736 C 1079.85 3.98514 1.66764 0
M  V30 11737 C 1078.98 4.47698 2.85902 0
M  V30 11738 C 1078.02 5.61778 2.43047 0
M  V30 11739 N 1077.16 6.05662 3.5513 0
M  V30 11740 H 1082 2.9638 0.310318 0
M  V30 11741 H 1079.53 1.46418 0.141472 0
M  V30 11742 H 1081.49 3.10519 2.78629 0
M  V30 11743 H 1080.12 1.99053 2.54122 0
M  V30 11744 H 1079.17 3.71038 0.838766 0
M  V30 11745 H 1080.49 4.81215 1.31277 0
M  V30 11746 H 1079.64 4.83233 3.66839 0
M  V30 11747 H 1078.38 3.63967 3.24622 0
M  V30 11748 H 1077.38 5.25838 1.60544 0
M  V30 11749 H 1078.61 6.47282 2.05433 0
M  V30 11750 H 1076.56 5.2487 3.93506 0
M  V30 11751 H 1076.47 6.83242 3.23598 0
M  V30 11752 H 1077.74 6.45838 4.36479 0
M  V30 11753 N 1081.97 -0.145205 1.5693 0
M  V30 11754 C 1083.22 -0.857516 1.83447 0
M  V30 11755 C 1083.54 -1.81088 0.709739 0
M  V30 11756 O 1082.8 -1.9337 -0.301097 0
M  V30 11757 C 1083.1 -1.66391 3.16305 0
M  V30 11758 C 1082.76 -0.857171 4.42678 0
M  V30 11759 C 1081.43 -0.634611 4.76997 0
M  V30 11760 C 1083.78 -0.293105 5.20375 0
M  V30 11761 C 1081.11 0.162693 5.86474 0
M  V30 11762 C 1083.46 0.491248 6.3069 0
M  V30 11763 C 1082.12 0.724368 6.63558 0
M  V30 11764 H 1081.39 -0.313787 0.671281 0
M  V30 11765 H 1084.04 -0.121074 1.91117 0
M  V30 11766 H 1082.34 -2.47051 3.04094 0
M  V30 11767 H 1084.04 -2.21855 3.34038 0
M  V30 11768 H 1080.63 -1.0407 4.15773 0
M  V30 11769 H 1084.82 -0.452326 4.94234 0
M  V30 11770 H 1080.07 0.352788 6.10381 0
M  V30 11771 H 1084.25 0.935449 6.90089 0
M  V30 11772 H 1081.87 1.34403 7.48224 0
M  V30 11773 N 1083.45 -1.52049 -0.414609 0
M  V30 11774 C 1084.39 -1.74998 -1.5048 0
M  V30 11775 C 1085.36 -0.592251 -1.55182 0
M  V30 11776 O 1086.55 -0.829203 -1.7184 0
M  V30 11777 C 1083.69 -1.90157 -2.87983 0
M  V30 11778 C 1082.8 -3.17789 -2.92633 0
M  V30 11779 C 1081.94 -3.23411 -4.21401 0
M  V30 11780 C 1080.98 -4.45267 -4.20004 0
M  V30 11781 N 1080.11 -4.48312 -5.40334 0
M  V30 11782 H 1084.95 -2.68046 -1.30212 0
M  V30 11783 H 1082.49 -1.32824 -0.632154 0
M  V30 11784 H 1084.45 -1.96929 -3.67797 0
M  V30 11785 H 1083.08 -1.00496 -3.06758 0
M  V30 11786 H 1082.13 -3.20216 -2.05343 0
M  V30 11787 H 1083.44 -4.07634 -2.87465 0
M  V30 11788 H 1082.6 -3.29224 -5.09604 0
M  V30 11789 H 1081.34 -2.31495 -4.29257 0
M  V30 11790 H 1080.34 -4.39606 -3.30192 0
M  V30 11791 H 1081.57 -5.38472 -4.13793 0
M  V30 11792 H 1079.51 -3.59277 -5.48868 0
M  V30 11793 H 1079.43 -5.31994 -5.37139 0
M  V30 11794 H 1080.7 -4.58347 -6.30506 0
M  V30 11795 N 1084.93 0.6715 -1.42579 0
M  V30 11796 C 1085.87 1.78496 -1.46314 0
M  V30 11797 C 1086.84 1.63091 -0.314743 0
M  V30 11798 O 1088.03 1.83597 -0.519292 0
M  V30 11799 C 1085.17 3.16548 -1.37447 0
M  V30 11800 C 1084.28 3.43216 -2.62348 0
M  V30 11801 C 1083.42 4.71014 -2.456 0
M  V30 11802 C 1082.45 4.90728 -3.65859 0
M  V30 11803 N 1081.59 6.09769 -3.48032 0
M  V30 11804 H 1086.43 1.74638 -2.41466 0
M  V30 11805 H 1083.97 0.852491 -1.19879 0
M  V30 11806 H 1085.93 3.96329 -1.30303 0
M  V30 11807 H 1084.56 3.19522 -0.458891 0
M  V30 11808 H 1083.61 2.57664 -2.79846 0
M  V30 11809 H 1084.92 3.53675 -3.51732 0
M  V30 11810 H 1084.07 5.58892 -2.3606 0
M  V30 11811 H 1082.81 4.62843 -1.53712 0
M  V30 11812 H 1081.82 4.01291 -3.75827 0
M  V30 11813 H 1083.04 5.00741 -4.58732 0
M  V30 11814 H 1080.99 6.02765 -2.58864 0
M  V30 11815 H 1080.91 6.21104 -4.31005 0
M  V30 11816 H 1082.17 7.00317 -3.42311 0
M  V30 11817 N 1086.4 1.28806 0.908124 0
M  V30 11818 C 1087.64 1.17546 1.67219 0
M  V30 11819 C 1088.01 -0.270396 1.90086 0
M  V30 11820 O 1089.21 -0.505808 2.63998 0
M  V30 11821 C 1087.48 1.95774 2.99011 0
M  V30 11822 S 1089.04 2.00953 3.90081 0
M  V30 11823 H 1085.86 0.419283 0.574215 0
M  V30 11824 H 1088.46 1.6298 1.07971 0
M  V30 11825 H 1087.16 2.99978 2.80074 0
M  V30 11826 H 1086.69 1.50911 3.63303 0
M  V30 11827 H 1088.71 1.1201 4.83392 0
M  V30 11828 N 1087.88 -1.11734 1.11145 0
M  V30 11829 C 1089.13 -1.82766 0.853194 0
M  V30 11830 C 1089.44 -1.85408 -0.623168 0
M  V30 11831 O 1090.65 -2.52509 -0.997574 0
M  V30 11832 C 1089.11 -3.28215 1.47658 0
M  V30 11833 C 1088.71 -3.33911 2.98676 0
M  V30 11834 C 1090.46 -4.04168 1.29803 0
M  V30 11835 C 1088.36 -4.73739 3.54013 0
M  V30 11836 H 1087.29 -0.684807 0.315523 0
M  V30 11837 H 1089.95 -1.25756 1.33633 0
M  V30 11838 H 1088.33 -3.85138 0.921116 0
M  V30 11839 H 1089.5 -2.86887 3.606 0
M  V30 11840 H 1087.82 -2.71437 3.15771 0
M  V30 11841 H 1090.41 -5.07429 1.68582 0
M  V30 11842 H 1090.76 -4.15606 0.240302 0
M  V30 11843 H 1091.29 -3.53623 1.82196 0
M  V30 11844 H 1088.03 -4.67497 4.59485 0
M  V30 11845 H 1087.55 -5.21186 2.9686 0
M  V30 11846 H 1089.23 -5.42691 3.52271 0
M  V30 11847 N 1089.36 -0.901303 -1.29284 0
M  V30 11848 C 1090.59 -0.542723 -1.99344 0
M  V30 11849 C 1091 0.877357 -1.67628 0
M  V30 11850 O 1090.34 1.59088 -0.918515 0
M  V30 11851 C 1090.4 -0.657088 -3.53444 0
M  V30 11852 C 1090.07 -2.04444 -4.0872 0
M  V30 11853 C 1091.06 -3.01577 -4.23494 0
M  V30 11854 C 1088.75 -2.35425 -4.43712 0
M  V30 11855 C 1090.74 -4.27816 -4.72496 0
M  V30 11856 C 1088.43 -3.61906 -4.9241 0
M  V30 11857 C 1089.43 -4.57916 -5.06757 0
M  V30 11858 O 1089.12 -5.8215 -5.54397 0
M  V30 11859 H 1088.85 -0.206742 -0.64361 0
M  V30 11860 H 1091.4 -1.21311 -1.65749 0
M  V30 11861 H 1089.63 0.0703305 -3.86636 0
M  V30 11862 H 1091.32 -0.307425 -4.04734 0
M  V30 11863 H 1092.09 -2.78957 -3.96747 0
M  V30 11864 H 1087.97 -1.61454 -4.31803 0
M  V30 11865 H 1091.51 -5.0276 -4.83609 0
M  V30 11866 H 1087.41 -3.84356 -5.18595 0
M  V30 11867 H 1088.17 -5.84762 -5.72709 0
M  V30 11868 N 1090.84 1.42931 -0.663954 0
M  V30 11869 C 1092.08 2.01683 -0.181738 0
M  V30 11870 C 1092.41 1.52437 1.20802 0
M  V30 11871 O 1091.67 0.71254 1.82267 0
M  V30 11872 C 1091.97 3.57072 -0.153163 0
M  V30 11873 C 1091.63 4.25706 -1.48612 0
M  V30 11874 C 1090.29 4.4417 -1.85111 0
M  V30 11875 C 1092.65 4.6448 -2.36448 0
M  V30 11876 C 1089.97 4.98677 -3.09092 0
M  V30 11877 C 1092.33 5.20362 -3.5973 0
M  V30 11878 C 1090.99 5.37041 -3.96412 0
M  V30 11879 H 1090.26 0.73801 -0.0665026 0
M  V30 11880 H 1092.91 1.71264 -0.856791 0
M  V30 11881 H 1091.21 3.87095 0.605372 0
M  V30 11882 H 1092.91 4.00299 0.236981 0
M  V30 11883 H 1089.5 4.11686 -1.19215 0
M  V30 11884 H 1093.68 4.49898 -2.09537 0
M  V30 11885 H 1088.94 5.09776 -3.37547 0
M  V30 11886 H 1093.11 5.49352 -4.28001 0
M  V30 11887 H 1090.74 5.79042 -4.92559 0
M  V30 11888 N 1092.32 0.406567 1.52266 0
M  V30 11889 C 1093.56 -0.171391 2.00971 0
M  V30 11890 C 1093.88 -1.46443 1.29668 0
M  V30 11891 O 1095.08 -2.12348 1.69176 0
M  V30 11892 C 1093.54 -0.35599 3.58135 0
M  V30 11893 C 1093.15 0.924803 4.38351 0
M  V30 11894 C 1094.89 -0.889378 4.15079 0
M  V30 11895 C 1092.8 0.707534 5.87152 0
M  V30 11896 H 1091.73 -0.0678253 0.750943 0
M  V30 11897 H 1094.38 0.531619 1.7563 0
M  V30 11898 H 1092.76 -1.12127 3.79794 0
M  V30 11899 H 1093.94 1.69603 4.28452 0
M  V30 11900 H 1092.25 1.38442 3.92712 0
M  V30 11901 H 1094.85 -1.06792 5.23927 0
M  V30 11902 H 1095.19 -1.86334 3.7227 0
M  V30 11903 H 1095.72 -0.183224 3.97378 0
M  V30 11904 H 1092.46 1.65299 6.34316 0
M  V30 11905 H 1091.98 -0.024446 5.99795 0
M  V30 11906 H 1093.66 0.348721 6.4606 0
M  V30 11907 N 1093.79 -1.57004 0.136909 0
M  V30 11908 C 1095.04 -1.96087 -0.517477 0
M  V30 11909 C 1095.37 -1.0213 -1.65176 0
M  V30 11910 O 1094.65 -0.0617958 -1.94402 0
M  V30 11911 C 1094.93 -3.44958 -1.03323 0
M  V30 11912 C 1094.78 -4.49691 0.0988609 0
M  V30 11913 C 1096.1 -3.96091 -1.91832 0
M  V30 11914 H 1093.22 -0.712978 -0.186632 0
M  V30 11915 H 1095.86 -1.88767 0.216095 0
M  V30 11916 H 1094.01 -3.51327 -1.65836 0
M  V30 11917 H 1095.69 -4.55409 0.734847 0
M  V30 11918 H 1093.93 -4.271 0.75947 0
M  V30 11919 H 1094.6 -5.51165 -0.303554 0
M  V30 11920 H 1097.08 -3.92139 -1.39164 0
M  V30 11921 H 1095.95 -5.00742 -2.24831 0
M  V30 11922 H 1096.21 -3.37846 -2.85153 0
M  V30 11923 N 1095.27 0.136881 -1.57004 0
M  V30 11924 C 1096.21 1.19853 -1.94192 0
M  V30 11925 C 1097.18 1.4104 -0.809103 0
M  V30 11926 O 1098.37 1.55487 -1.06565 0
M  V30 11927 C 1095.49 2.55565 -2.22271 0
M  V30 11928 C 1094.54 2.50913 -3.44884 0
M  V30 11929 S 1095.37 1.96619 -4.98098 0
M  V30 11930 C 1096.53 3.34039 -5.2931 0
M  V30 11931 H 1096.76 0.881316 -2.83937 0
M  V30 11932 H 1094.3 0.342915 -1.50544 0
M  V30 11933 H 1096.25 3.33659 -2.39127 0
M  V30 11934 H 1094.91 2.84472 -1.33172 0
M  V30 11935 H 1094.11 3.50839 -3.6184 0
M  V30 11936 H 1093.71 1.80932 -3.27322 0
M  V30 11937 H 1096 4.30189 -5.23397 0
M  V30 11938 H 1096.94 3.21927 -6.30689 0
M  V30 11939 H 1097.35 3.31642 -4.56808 0
M  V30 11940 N 1096.75 1.52266 0.40654 0
M  V30 11941 C 1098.03 1.57018 1.1664 0
M  V30 11942 C 1098.41 0.352752 2.08132 0
M  V30 11943 O 1097.76 -0.660208 2.18754 0
M  V30 11944 C 1097.97 2.90016 1.94143 0
M  V30 11945 C 1099.31 3.43112 2.50119 0
M  V30 11946 O 1100.34 2.91773 2.0432 0
M  V30 11947 O 1099.2 4.32765 3.33731 0
M  V30 11948 H 1096.29 0.632574 0.532709 0
M  V30 11949 H 1098.84 1.64595 0.413111 0
M  V30 11950 H 1097.61 3.70071 1.27134 0
M  V30 11951 H 1097.23 2.85744 2.76471 0
M  V30 11952 N 1098.23 -0.663929 1.42933 0
M  V30 11953 C 1099.64 -1.24484 1.39143 0
M  V30 11954 C 1099.99 -1.95993 0.0901142 0
M  V30 11955 O 1099.12 -2.00636 -0.810812 0
M  V30 11956 C 1099.71 -2.26402 2.52047 0
M  V30 11957 C 1098.27 -2.79995 2.51555 0
M  V30 11958 C 1097.42 -1.54475 2.30289 0
M  V30 11959 H 1100.37 -0.456619 1.51989 0
M  V30 11960 H 1100.39 -3.08361 2.22921 0
M  V30 11961 H 1099.9 -1.74328 3.46744 0
M  V30 11962 H 1098 -3.36161 1.60707 0
M  V30 11963 H 1098.11 -3.2827 3.48964 0
M  V30 11964 H 1096.48 -1.81437 1.78753 0
M  V30 11965 H 1097.26 -1.04351 3.27056 0
M  V30 11966 N 1099.71 -1.29285 -0.901281 0
M  V30 11967 C 1100.95 -1.17165 -1.65162 0
M  V30 11968 C 1101.28 0.277184 -1.92515 0
M  V30 11969 O 1100.54 1.2168 -1.53273 0
M  V30 11970 C 1100.84 -1.92865 -3.00895 0
M  V30 11971 C 1100.5 -3.42593 -2.93157 0
M  V30 11972 C 1099.16 -3.83426 -2.90754 0
M  V30 11973 C 1101.52 -4.38011 -2.82481 0
M  V30 11974 C 1098.84 -5.17997 -2.75492 0
M  V30 11975 C 1101.2 -5.7267 -2.68759 0
M  V30 11976 C 1099.86 -6.12764 -2.64721 0
M  V30 11977 H 1099.13 -0.428737 -0.604372 0
M  V30 11978 H 1101.78 -1.60204 -1.04914 0
M  V30 11979 H 1100.08 -1.42412 -3.65001 0
M  V30 11980 H 1101.78 -1.80893 -3.57881 0
M  V30 11981 H 1098.37 -3.10134 -2.95829 0
M  V30 11982 H 1102.55 -4.07417 -2.83416 0
M  V30 11983 H 1097.81 -5.48173 -2.70769 0
M  V30 11984 H 1101.98 -6.46258 -2.59469 0
M  V30 11985 H 1099.61 -7.16987 -2.52652 0
M  V30 11986 N 1101.18 1.11143 -1.11736 0
M  V30 11987 C 1102.43 1.83219 -0.869413 0
M  V30 11988 C 1102.76 1.84588 0.603402 0
M  V30 11989 O 1102.04 1.30119 1.44566 0
M  V30 11990 C 1102.32 3.30247 -1.43559 0
M  V30 11991 C 1102.17 3.37253 -2.97624 0
M  V30 11992 C 1103.49 4.26412 -1.08907 0
M  V30 11993 H 1100.61 0.665205 -0.317286 0
M  V30 11994 H 1103.25 1.30307 -1.38275 0
M  V30 11995 H 1101.4 3.75437 -0.998978 0
M  V30 11996 H 1103.08 3.00599 -3.49911 0
M  V30 11997 H 1101.32 2.77378 -3.33532 0
M  V30 11998 H 1101.99 4.40752 -3.32328 0
M  V30 11999 H 1104.47 3.89418 -1.46604 0
M  V30 12000 H 1103.34 5.27666 -1.51195 0
M  V30 12001 H 1103.6 4.421 -0.000259009 0
M  V30 12002 N 1102.66 0.908147 1.28804 0
M  V30 12003 C 1103.94 0.457561 1.90173 0
M  V30 12004 C 1104.32 -1.06333 1.82364 0
M  V30 12005 O 1103.67 -1.90892 1.25589 0
M  V30 12006 C 1103.88 0.981624 3.34911 0
M  V30 12007 C 1105.23 1.03037 4.11908 0
M  V30 12008 O 1106.25 0.929878 3.43848 0
M  V30 12009 O 1105.11 1.18257 5.33552 0
M  V30 12010 H 1102.2 0.144081 0.814352 0
M  V30 12011 H 1104.75 0.998565 1.37211 0
M  V30 12012 H 1103.52 2.02561 3.34791 0
M  V30 12013 H 1103.14 0.421122 3.95364 0
M  V30 12014 N 1104.14 -1.42577 0.671525 0
M  V30 12015 C 1105.07 -2.33499 0.00506984 0
M  V30 12016 C 1106.05 -1.50497 -0.792763 0
M  V30 12017 O 1107.24 -1.79109 -0.750574 0
M  V30 12018 C 1104.37 -3.34077 -0.949194 0
M  V30 12019 C 1103.32 -4.27208 -0.260187 0
M  V30 12020 C 1102.65 -5.17968 -1.32716 0
M  V30 12021 C 1103.95 -5.15192 0.858772 0
M  V30 12022 H 1105.64 -2.89477 0.764407 0
M  V30 12023 H 1103.19 -1.39191 0.369043 0
M  V30 12024 H 1105.14 -3.96594 -1.42448 0
M  V30 12025 H 1103.86 -2.76396 -1.73991 0
M  V30 12026 H 1102.52 -3.66082 0.194834 0
M  V30 12027 H 1102.17 -4.56615 -2.10979 0
M  V30 12028 H 1101.87 -5.81104 -0.871293 0
M  V30 12029 H 1103.39 -5.83359 -1.80345 0
M  V30 12030 H 1104.81 -5.71412 0.464844 0
M  V30 12031 H 1103.21 -5.87144 1.24023 0
M  V30 12032 H 1104.28 -4.53787 1.70895 0
M  V30 12033 N 1105.62 -0.414636 -1.52048 0
M  V30 12034 C 1106.58 0.396285 -2.25748 0
M  V30 12035 C 1107.58 0.969003 -1.28324 0
M  V30 12036 O 1108.77 0.847016 -1.52221 0
M  V30 12037 C 1105.9 1.55838 -3.03195 0
M  V30 12038 H 1107.1 -0.249311 -2.98862 0
M  V30 12039 H 1104.65 -0.167276 -1.55402 0
M  V30 12040 H 1105.38 2.24068 -2.34444 0
M  V30 12041 H 1105.17 1.15414 -3.74729 0
M  V30 12042 H 1106.66 2.13187 -3.59084 0
M  V30 12043 N 1107.1 1.56929 -0.145233 0
M  V30 12044 C 1108.35 1.95243 0.506273 0
M  V30 12045 C 1108.66 1.0325 1.66129 0
M  V30 12046 O 1109.86 1.31135 2.37731 0
M  V30 12047 C 1108.32 3.47079 0.952042 0
M  V30 12048 C 1107.93 4.47654 -0.175947 0
M  V30 12049 C 1109.67 3.94263 1.57344 0
M  V30 12050 C 1107.58 5.90698 0.287993 0
M  V30 12051 H 1106.51 0.728906 0.192903 0
M  V30 12052 H 1109.16 1.82062 -0.229295 0
M  V30 12053 H 1107.54 3.55587 1.74282 0
M  V30 12054 H 1108.72 4.50841 -0.952848 0
M  V30 12055 H 1107.03 4.10377 -0.70564 0
M  V30 12056 H 1109.63 4.9857 1.93214 0
M  V30 12057 H 1109.97 3.35714 2.46174 0
M  V30 12058 H 1110.5 3.88665 0.847593 0
M  V30 12059 H 1107.24 6.53061 -0.564889 0
M  V30 12060 H 1106.76 5.90876 1.03081 0
M  V30 12061 H 1108.44 6.42747 0.740586 0
M  V30 12062 N 1108.58 -0.128553 1.57075 0
M  V30 12063 C 1109.8 -0.85245 1.88523 0
M  V30 12064 C 1110.22 -1.73886 0.735459 0
M  V30 12065 O 1109.58 -1.80114 -0.294113 0
M  V30 12066 C 1109.63 -1.69384 3.19361 0
M  V30 12067 O 1109.35 -0.84313 4.2991 0
M  V30 12068 C 1110.85 -2.52373 3.64449 0
M  V30 12069 H 1108.07 -0.245556 0.624454 0
M  V30 12070 H 1110.61 -0.115807 2.04172 0
M  V30 12071 H 1108.77 -2.38335 3.0541 0
M  V30 12072 H 1109.18 -1.42255 5.0484 0
M  V30 12073 H 1110.66 -3.06955 4.58784 0
M  V30 12074 H 1111.13 -3.29283 2.90636 0
M  V30 12075 H 1111.74 -1.88681 3.81155 0
M  V30 12076 N 1110.05 -1.5248 -0.398459 0
M  V30 12077 C 1111.3 -1.66287 -1.14155 0
M  V30 12078 C 1111.62 -0.40429 -1.91376 0
M  V30 12079 O 1112.82 -0.422341 -2.68195 0
M  V30 12080 C 1111.28 -2.93831 -2.07825 0
M  V30 12081 C 1110.89 -4.26836 -1.3607 0
M  V30 12082 C 1112.63 -3.17004 -2.82327 0
M  V30 12083 C 1110.54 -5.45495 -2.28451 0
M  V30 12084 H 1109.47 -0.619478 -0.42984 0
M  V30 12085 H 1112.12 -1.78972 -0.405112 0
M  V30 12086 H 1110.5 -2.7487 -2.85065 0
M  V30 12087 H 1111.67 -4.56317 -0.641205 0
M  V30 12088 H 1109.99 -4.0985 -0.735659 0
M  V30 12089 H 1112.59 -4.02834 -3.51609 0
M  V30 12090 H 1112.93 -2.3168 -3.45876 0
M  V30 12091 H 1113.46 -3.36487 -2.12183 0
M  V30 12092 H 1110.2 -6.33198 -1.69532 0
M  V30 12093 H 1109.72 -5.20338 -2.98343 0
M  V30 12094 H 1111.4 -5.78996 -2.88743 0
M  V30 12095 N 1111.53 0.65634 -1.43283 0
M  V30 12096 C 1112.77 1.4281 -1.46235 0
M  V30 12097 C 1113.14 1.9182 -0.0830126 0
M  V30 12098 O 1114.34 2.68797 0.0127701 0
M  V30 12099 C 1112.61 2.58008 -2.47319 0
M  V30 12100 S 1114.17 3.46582 -2.69122 0
M  V30 12101 H 1110.98 0.487523 -0.517534 0
M  V30 12102 H 1113.59 0.762298 -1.80026 0
M  V30 12103 H 1112.29 2.20271 -3.46279 0
M  V30 12104 H 1111.82 3.29441 -2.15016 0
M  V30 12105 H 1113.84 4.54629 -1.98813 0
M  V30 12106 N 1113.01 1.29761 0.894412 0
M  V30 12107 C 1114.26 1.17409 1.64006 0
M  V30 12108 C 1114.57 -0.272355 1.93695 0
M  V30 12109 O 1115.78 -0.517269 2.66527 0
M  V30 12110 C 1114.23 2.05379 2.95546 0
M  V30 12111 C 1113.84 3.54878 2.73433 0
M  V30 12112 C 1115.59 2.01765 3.73485 0
M  V30 12113 C 1113.49 4.34935 4.00731 0
M  V30 12114 H 1112.42 0.43583 0.615279 0
M  V30 12115 H 1115.07 1.5444 0.990983 0
M  V30 12116 H 1113.46 1.61222 3.61695 0
M  V30 12117 H 1114.63 4.07122 2.15844 0
M  V30 12118 H 1112.94 3.60218 2.08882 0
M  V30 12119 H 1115.54 2.58835 4.67877 0
M  V30 12120 H 1115.88 0.998876 4.04139 0
M  V30 12121 H 1116.42 2.43994 3.14184 0
M  V30 12122 H 1113.16 5.3747 3.75241 0
M  V30 12123 H 1112.68 3.87458 4.5786 0
M  V30 12124 H 1114.36 4.45875 4.68833 0
M  V30 12125 N 1114.49 -1.10549 1.12324 0
M  V30 12126 C 1115.73 -1.82755 0.879117 0
M  V30 12127 C 1116.07 -1.84905 -0.593604 0
M  V30 12128 O 1115.34 -1.30884 -1.43873 0
M  V30 12129 C 1115.62 -3.29481 1.45308 0
M  V30 12130 C 1115.48 -3.3567 2.99408 0
M  V30 12131 C 1116.8 -4.25828 1.11167 0
M  V30 12132 H 1113.92 -0.663513 0.32081 0
M  V30 12133 H 1116.56 -1.29572 1.38965 0
M  V30 12134 H 1114.71 -3.74902 1.01887 0
M  V30 12135 H 1116.38 -2.98739 3.515 0
M  V30 12136 H 1114.62 -2.75606 3.34998 0
M  V30 12137 H 1115.29 -4.38983 3.34661 0
M  V30 12138 H 1117.77 -3.88635 1.48667 0
M  V30 12139 H 1116.65 -5.26857 1.53991 0
M  V30 12140 H 1116.91 -4.42094 0.0237046 0
M  V30 12141 N 1115.97 -0.914965 -1.28321 0
M  V30 12142 C 1116.9 -0.421292 -2.29668 0
M  V30 12143 C 1117.88 0.511743 -1.6222 0
M  V30 12144 O 1119.06 0.419218 -1.89621 0
M  V30 12145 C 1116.19 0.338364 -3.45648 0
M  V30 12146 C 1115.15 -0.505646 -4.25003 0
M  V30 12147 C 1114.47 0.382421 -5.33331 0
M  V30 12148 C 1115.77 -1.76354 -4.91626 0
M  V30 12149 H 1117.47 -1.26826 -2.71211 0
M  V30 12150 H 1115.01 -0.611291 -1.30381 0
M  V30 12151 H 1116.96 0.694578 -4.15636 0
M  V30 12152 H 1115.69 1.21925 -3.02988 0
M  V30 12153 H 1114.35 -0.844395 -3.56743 0
M  V30 12154 H 1114 1.26189 -4.86914 0
M  V30 12155 H 1113.7 -0.17871 -5.87328 0
M  V30 12156 H 1115.22 0.73449 -6.06166 0
M  V30 12157 H 1116.63 -1.47616 -5.5397 0
M  V30 12158 H 1115.03 -2.26717 -5.55625 0
M  V30 12159 H 1116.1 -2.49063 -4.16048 0
M  V30 12160 N 1117.44 1.42219 -0.679077 0
M  V30 12161 C 1118.39 2.32599 0.00820028 0
M  V30 12162 C 1119.39 1.50059 0.786046 0
M  V30 12163 O 1120.59 1.66103 0.693528 0
M  V30 12164 H 1116.97 0.751694 0.0214483 0
M  V30 12165 H 1118.94 2.88257 -0.77138 0
M  V30 12166 C 1117.69 3.3468 0.942581 0
M  V30 12167 H 1117.01 3.98234 0.353463 0
M  V30 12168 H 1118.45 4.00496 1.39208 0
M  V30 12169 C 1116.91 2.67275 2.05099 0
M  V30 12170 O 1117.44 2.50793 3.13793 0
M  V30 12171 N 1115.64 2.26232 1.82394 0
M  V30 12172 H 1115.19 2.39838 0.939983 0
M  V30 12173 H 1115.15 1.81465 2.56744 0
M  V30 12174 N 1118.92 0.422693 1.51826 0
M  V30 12175 C 1120.15 -0.147744 2.06372 0
M  V30 12176 C 1120.56 -1.37714 1.29152 0
M  V30 12177 O 1119.92 -1.7917 0.347046 0
M  V30 12178 C 1119.97 -0.484642 3.58237 0
M  V30 12179 O 1119.69 0.695944 4.32537 0
M  V30 12180 C 1121.19 -1.10734 4.29247 0
M  V30 12181 H 1118.41 -0.0144047 0.670845 0
M  V30 12182 H 1120.96 0.597558 1.95575 0
M  V30 12183 H 1119.11 -1.17984 3.68997 0
M  V30 12184 H 1119.53 0.411471 5.22884 0
M  V30 12185 H 1121 -1.29318 5.36639 0
M  V30 12186 H 1121.48 -2.08429 3.86593 0
M  V30 12187 H 1122.08 -0.451958 4.22892 0
M  V30 12188 N 1120.4 -1.5685 0.153553 0
M  V30 12189 C 1121.33 -2.20101 -0.779601 0
M  V30 12190 C 1122.31 -1.15121 -1.25225 0
M  V30 12191 O 1123.5 -1.43487 -1.30862 0
M  V30 12192 C 1120.63 -2.82778 -2.01628 0
M  V30 12193 C 1119.58 -3.93643 -1.68015 0
M  V30 12194 C 1118.91 -4.43286 -2.99001 0
M  V30 12195 C 1120.21 -5.14102 -0.921774 0
M  V30 12196 H 1121.9 -2.98334 -0.252432 0
M  V30 12197 H 1119.45 -1.43499 -0.119975 0
M  V30 12198 H 1121.4 -3.25696 -2.67395 0
M  V30 12199 H 1120.12 -2.01887 -2.56728 0
M  V30 12200 H 1118.78 -3.51354 -1.04624 0
M  V30 12201 H 1118.43 -3.59208 -3.52106 0
M  V30 12202 H 1118.13 -5.18068 -2.77272 0
M  V30 12203 H 1119.65 -4.88878 -3.65828 0
M  V30 12204 H 1121.07 -5.53823 -1.48167 0
M  V30 12205 H 1119.46 -5.94687 -0.804185 0
M  V30 12206 H 1120.53 -4.84825 0.0852757 0
M  V30 12207 N 1121.88 0.120221 -1.57141 0
M  V30 12208 C 1123.12 0.828222 -1.84788 0
M  V30 12209 C 1123.45 1.79936 -0.738459 0
M  V30 12210 O 1122.71 1.93824 0.270295 0
M  V30 12211 C 1123.01 1.61338 -3.18912 0
M  V30 12212 C 1122.67 0.786637 -4.43985 0
M  V30 12213 C 1121.33 0.558645 -4.77946 0
M  V30 12214 C 1123.69 0.210281 -5.20776 0
M  V30 12215 C 1121.01 -0.255975 -5.86141 0
M  V30 12216 C 1123.37 -0.591523 -6.29828 0
M  V30 12217 C 1122.03 -0.829843 -6.62322 0
M  V30 12218 H 1121.3 0.303068 -0.676188 0
M  V30 12219 H 1123.95 0.0906538 -1.91285 0
M  V30 12220 H 1122.25 2.42182 -3.07986 0
M  V30 12221 H 1123.95 2.16513 -3.37525 0
M  V30 12222 H 1120.54 0.974426 -4.17376 0
M  V30 12223 H 1124.72 0.373641 -4.94892 0
M  V30 12224 H 1119.98 -0.449849 -6.09743 0
M  V30 12225 H 1124.15 -1.04512 -6.88513 0
M  V30 12226 H 1121.78 -1.4629 -7.45992 0
M  V30 12227 N 1123.36 1.52689 0.390367 0
M  V30 12228 C 1124.29 1.72118 1.49836 0
M  V30 12229 C 1125.27 0.568986 1.5232 0
M  V30 12230 O 1126.45 0.798623 1.70746 0
M  V30 12231 C 1123.58 1.77754 2.88307 0
M  V30 12232 C 1122.62 2.99492 3.03655 0
M  V30 12233 S 1123.46 4.59496 2.74998 0
M  V30 12234 C 1124.61 4.67946 4.15665 0
M  V30 12235 H 1124.85 2.65826 1.3313 0
M  V30 12236 H 1122.38 1.42964 0.583153 0
M  V30 12237 H 1124.34 1.81687 3.68103 0
M  V30 12238 H 1123 0.851406 3.02341 0
M  V30 12239 H 1122.19 2.99973 4.05009 0
M  V30 12240 H 1121.79 2.93544 2.3175 0
M  V30 12241 H 1124.09 4.46476 5.09573 0
M  V30 12242 H 1125.03 5.69945 4.202 0
M  V30 12243 H 1125.44 3.96799 4.01511 0
M  V30 12244 N 1124.83 -0.648732 1.43629 0
M  V30 12245 C 1125.8 -1.74331 1.488 0
M  V30 12246 C 1126.8 -1.56434 0.372147 0
M  V30 12247 O 1127.99 -1.6225 0.634078 0
M  V30 12248 C 1125.12 -3.13248 1.34494 0
M  V30 12249 H 1126.31 -1.71125 2.46285 0
M  V30 12250 H 1123.87 -0.860798 1.30461 0
M  V30 12251 H 1124.6 -3.22062 0.380345 0
M  V30 12252 H 1124.39 -3.27643 2.15389 0
M  V30 12253 H 1125.88 -3.93056 1.41055 0
M  V30 12254 N 1126.31 -1.30234 -0.887518 0
M  V30 12255 C 1127.25 -1.10726 -1.99537 0
M  V30 12256 C 1128.22 -0.0156237 -1.62592 0
M  V30 12257 O 1129.41 -0.168687 -1.87744 0
M  V30 12258 C 1126.53 -0.688185 -3.31635 0
M  V30 12259 C 1125.58 -1.78031 -3.87566 0
M  V30 12260 S 1126.41 -3.38219 -4.15172 0
M  V30 12261 C 1127.57 -2.98208 -5.50293 0
M  V30 12262 H 1127.8 -2.04516 -2.15778 0
M  V30 12263 H 1125.34 -1.14519 -1.0356 0
M  V30 12264 H 1127.29 -0.453124 -4.07991 0
M  V30 12265 H 1125.95 0.230315 -3.13254 0
M  V30 12266 H 1125.15 -1.43931 -4.83011 0
M  V30 12267 H 1124.75 -1.96952 -3.1794 0
M  V30 12268 H 1127.04 -2.4601 -6.31257 0
M  V30 12269 H 1127.98 -3.92551 -5.89329 0
M  V30 12270 H 1128.39 -2.36149 -5.12732 0
M  V30 12271 N 1127.79 1.09952 -1.12909 0
M  V30 12272 C 1128.7 2.19999 -0.81471 0
M  V30 12273 C 1129.72 1.72864 0.19851 0
M  V30 12274 O 1130.89 2.01376 0.0308832 0
M  V30 12275 C 1127.96 3.45573 -0.279363 0
M  V30 12276 C 1127.02 4.07417 -1.35314 0
M  V30 12277 C 1126.25 5.26996 -0.843247 0
M  V30 12278 O 1126.47 5.69495 0.321164 0
M  V30 12279 O 1125.41 5.79826 -1.61511 0
M  V30 12280 H 1129.23 2.49333 -1.73398 0
M  V30 12281 H 1126.82 1.18784 -0.906128 0
M  V30 12282 H 1128.7 4.21398 0.0140531 0
M  V30 12283 H 1127.38 3.17854 0.612401 0
M  V30 12284 H 1126.28 3.33253 -1.6998 0
M  V30 12285 H 1127.62 4.39349 -2.21885 0
M  V30 12286 N 1129.27 0.921757 1.27833 0
M  V30 12287 C 1130.22 0.387357 2.24685 0
M  V30 12288 C 1131.2 -0.505036 1.52768 0
M  V30 12289 O 1132.39 -0.34345 1.73636 0
M  V30 12290 C 1129.52 -0.364168 3.41363 0
M  V30 12291 C 1128.61 0.544401 4.20591 0
M  V30 12292 N 1129 1.66158 4.77729 0
M  V30 12293 C 1127.3 0.346289 4.44654 0
M  V30 12294 C 1128 2.22619 5.37416 0
M  V30 12295 N 1126.98 1.51648 5.22019 0
M  V30 12296 H 1130.78 1.24045 2.6644 0
M  V30 12297 H 1128.29 0.775338 1.42696 0
M  V30 12298 H 1130.29 -0.763917 4.09841 0
M  V30 12299 H 1128.95 -1.21426 3.01141 0
M  V30 12300 H 1129.96 2.04406 4.75856 0
M  V30 12301 H 1126.64 -0.46363 4.14918 0
M  V30 12302 H 1128.03 3.16641 5.92611 0
M  V30 12303 N 1130.75 -1.41857 0.686609 0
M  V30 12304 C 1131.7 -2.27999 -0.00734666 0
M  V30 12305 C 1132.68 -1.41723 -0.761808 0
M  V30 12306 O 1133.87 -1.65072 -0.638776 0
M  V30 12307 C 1131 -3.29909 -0.949462 0
M  V30 12308 C 1130.09 -4.23666 -0.191722 0
M  V30 12309 N 1130.48 -4.99277 0.809715 0
M  V30 12310 C 1128.78 -4.43937 -0.428489 0
M  V30 12311 C 1129.48 -5.67834 1.2625 0
M  V30 12312 N 1128.45 -5.40387 0.590151 0
M  V30 12313 H 1132.26 -2.83887 0.760608 0
M  V30 12314 H 1129.77 -1.53962 0.516676 0
M  V30 12315 H 1131.77 -3.90436 -1.46169 0
M  V30 12316 H 1130.43 -2.75582 -1.71711 0
M  V30 12317 H 1131.44 -5.04051 1.18966 0
M  V30 12318 H 1128.11 -4.00633 -1.17472 0
M  V30 12319 H 1129.5 -6.38469 2.09301 0
M  V30 12320 N 1132.22 -0.430739 -1.51599 0
M  V30 12321 C 1133.64 0.0339139 -1.86669 0
M  V30 12322 C 1133.99 1.42533 -1.34829 0
M  V30 12323 O 1133.11 2.04889 -0.696376 0
M  V30 12324 C 1133.71 0.0683174 -3.38731 0
M  V30 12325 C 1132.27 0.477363 -3.73361 0
M  V30 12326 C 1131.41 -0.334258 -2.75278 0
M  V30 12327 H 1134.36 -0.646875 -1.44918 0
M  V30 12328 H 1134.38 0.879179 -3.70204 0
M  V30 12329 H 1133.9 -0.944501 -3.76432 0
M  V30 12330 H 1132 1.49603 -3.41247 0
M  V30 12331 H 1132.11 0.206744 -4.78654 0
M  V30 12332 H 1130.47 0.206503 -2.53861 0
M  V30 12333 H 1131.26 -1.34583 -3.1582 0
M  V30 12334 N 1133.7 1.56767 -0.161869 0
M  V30 12335 C 1134.64 2.13321 0.810527 0
M  V30 12336 C 1135.61 1.06073 1.23237 0
M  V30 12337 O 1136.8 1.33993 1.32583 0
M  V30 12338 C 1133.92 2.66506 2.09027 0
M  V30 12339 C 1132.97 3.86038 1.8132 0
M  V30 12340 S 1133.8 5.26253 0.990873 0
M  V30 12341 C 1134.96 5.82837 2.28149 0
M  V30 12342 H 1135.19 2.95467 0.32965 0
M  V30 12343 H 1132.73 1.5431 0.052655 0
M  V30 12344 H 1134.68 2.97797 2.82537 0
M  V30 12345 H 1133.34 1.84463 2.54229 0
M  V30 12346 H 1132.54 4.21547 2.7625 0
M  V30 12347 H 1132.14 3.55585 1.1591 0
M  V30 12348 H 1134.43 5.95175 3.23686 0
M  V30 12349 H 1135.37 6.80109 1.97123 0
M  V30 12350 H 1135.78 5.11186 2.39477 0
M  V30 12351 N 1135.18 -0.111886 1.57202 0
M  V30 12352 C 1136.41 -0.832407 1.89416 0
M  V30 12353 C 1136.82 -1.73096 0.753861 0
M  V30 12354 O 1136.18 -1.80416 -0.274992 0
M  V30 12355 C 1136.23 -1.65988 3.21139 0
M  V30 12356 O 1135.95 -0.797485 4.3078 0
M  V30 12357 C 1137.45 -2.48493 3.67105 0
M  V30 12358 H 1134.67 -0.238919 0.627024 0
M  V30 12359 H 1137.22 -0.0941456 2.04283 0
M  V30 12360 H 1135.37 -2.35082 3.07921 0
M  V30 12361 H 1135.79 -1.36892 5.06321 0
M  V30 12362 H 1137.26 -3.02072 4.62014 0
M  V30 12363 H 1137.74 -3.26182 2.94112 0
M  V30 12364 H 1138.34 -1.84628 3.83135 0
M  V30 12365 N 1136.66 -1.52894 -0.382264 0
M  V30 12366 C 1137.57 -1.81084 -1.4915 0
M  V30 12367 C 1138.58 -0.698045 -1.59384 0
M  V30 12368 O 1139.76 -0.98635 -1.75594 0
M  V30 12369 C 1136.83 -1.97987 -2.84608 0
M  V30 12370 C 1135.89 -3.219 -2.8404 0
M  V30 12371 C 1135.12 -3.37988 -4.13037 0
M  V30 12372 O 1135.34 -2.58733 -5.08344 0
M  V30 12373 O 1134.28 -4.31273 -4.19866 0
M  V30 12374 H 1138.1 -2.75289 -1.28257 0
M  V30 12375 H 1135.69 -1.38068 -0.57076 0
M  V30 12376 H 1137.57 -2.10773 -3.64901 0
M  V30 12377 H 1136.24 -1.06972 -3.05514 0
M  V30 12378 H 1135.15 -3.14551 -2.02505 0
M  V30 12379 H 1136.48 -4.12783 -2.68087 0
M  V30 12380 N 1138.14 0.641106 -1.43971 0
M  V30 12381 C 1139.05 1.78239 -1.52538 0
M  V30 12382 C 1140.06 1.6906 -0.411668 0
M  V30 12383 O 1141.24 1.90014 -0.66757 0
M  V30 12384 C 1138.3 3.14579 -1.45743 0
M  V30 12385 C 1137.37 3.35464 -2.67885 0
M  V30 12386 C 1136.6 4.65299 -2.61404 0
M  V30 12387 O 1136.82 5.45451 -1.66851 0
M  V30 12388 O 1135.76 4.8817 -3.521 0
M  V30 12389 H 1139.58 1.73965 -2.48937 0
M  V30 12390 H 1137.17 0.801098 -1.26106 0
M  V30 12391 H 1139.05 3.95873 -1.4444 0
M  V30 12392 H 1137.72 3.19417 -0.524837 0
M  V30 12393 H 1136.63 2.53888 -2.74758 0
M  V30 12394 H 1137.96 3.35481 -3.60157 0
M  V30 12395 N 1139.62 1.30703 0.880598 0
M  V30 12396 C 1140.86 1.19778 1.63277 0
M  V30 12397 C 1141.19 -0.246521 1.92931 0
M  V30 12398 O 1140.45 -1.19226 1.55189 0
M  V30 12399 C 1140.74 1.97628 2.97789 0
M  V30 12400 C 1140.41 3.47213 2.87669 0
M  V30 12401 C 1139.07 3.88004 2.84617 0
M  V30 12402 C 1141.42 4.4245 2.75477 0
M  V30 12403 C 1138.75 5.22315 2.67216 0
M  V30 12404 C 1141.1 5.76874 2.59614 0
M  V30 12405 C 1139.77 6.16898 2.54939 0
M  V30 12406 H 1139.04 0.438298 0.597475 0
M  V30 12407 H 1141.69 1.61853 1.02352 0
M  V30 12408 H 1139.99 1.48201 3.6269 0
M  V30 12409 H 1141.69 1.86563 3.54958 0
M  V30 12410 H 1138.28 3.14802 2.90857 0
M  V30 12411 H 1142.46 4.11875 2.76899 0
M  V30 12412 H 1137.72 5.52412 2.62014 0
M  V30 12413 H 1141.89 6.50304 2.49155 0
M  V30 12414 H 1139.52 7.20916 2.41214 0
M  V30 12415 N 1141.09 -1.09351 1.1349 0
M  V30 12416 C 1142.04 -2.16008 0.812981 0
M  V30 12417 C 1143.01 -1.64566 -0.225252 0
M  V30 12418 O 1144.2 -1.90552 -0.0973261 0
M  V30 12419 C 1141.34 -3.43913 0.285996 0
M  V30 12420 C 1140.45 -4.09251 1.38338 0
M  V30 12421 C 1139.58 -5.24916 0.814652 0
M  V30 12422 C 1138.62 -5.82178 1.89038 0
M  V30 12423 N 1137.76 -6.89203 1.33955 0
M  V30 12424 H 1142.6 -2.42887 1.72655 0
M  V30 12425 H 1140.14 -1.19209 0.861833 0
M  V30 12426 H 1142.09 -4.17183 -0.0376794 0
M  V30 12427 H 1140.72 -3.17349 -0.590707 0
M  V30 12428 H 1139.78 -3.33838 1.82363 0
M  V30 12429 H 1141.09 -4.4784 2.19638 0
M  V30 12430 H 1140.24 -6.05086 0.442306 0
M  V30 12431 H 1138.98 -4.87691 -0.029416 0
M  V30 12432 H 1137.99 -5.00669 2.27179 0
M  V30 12433 H 1139.21 -6.21464 2.73787 0
M  V30 12434 H 1137.16 -6.53956 0.517494 0
M  V30 12435 H 1137.07 -7.26565 2.08902 0
M  V30 12436 H 1138.34 -7.73126 0.994793 0
M  V30 12437 N 1142.57 -0.928524 -1.27343 0
M  V30 12438 C 1143.52 -0.418768 -2.28799 0
M  V30 12439 C 1144.51 0.497334 -1.61935 0
M  V30 12440 O 1145.72 0.376945 -1.76009 0
M  V30 12441 H 1142.09 -0.116855 -0.742865 0
M  V30 12442 H 1144.07 -1.28725 -2.69207 0
M  V30 12443 C 1142.81 0.312422 -3.46294 0
M  V30 12444 H 1142.14 -0.383317 -3.97958 0
M  V30 12445 H 1143.58 0.633514 -4.19241 0
M  V30 12446 C 1142.04 1.5257 -3.00373 0
M  V30 12447 O 1142.57 2.62443 -3.04116 0
M  V30 12448 N 1140.77 1.37782 -2.5586 0
M  V30 12449 H 1140.32 0.483908 -2.53014 0
M  V30 12450 H 1140.28 2.19085 -2.25498 0
M  V30 12451 N 1144.05 1.41491 -0.694123 0
M  V30 12452 C 1145.3 2.0155 -0.224809 0
M  V30 12453 C 1145.63 1.54844 1.17205 0
M  V30 12454 O 1144.9 0.75899 1.7908 0
M  V30 12455 C 1145.19 3.59003 -0.280884 0
M  V30 12456 C 1145.04 4.15839 -1.71458 0
M  V30 12457 C 1146.36 4.38624 0.360122 0
M  V30 12458 H 1143.48 0.732293 -0.0831632 0
M  V30 12459 H 1146.12 1.68258 -0.882569 0
M  V30 12460 H 1144.27 3.87496 0.279164 0
M  V30 12461 H 1145.94 3.98227 -2.32837 0
M  V30 12462 H 1144.18 3.70936 -2.2492 0
M  V30 12463 H 1144.86 5.24997 -1.70536 0
M  V30 12464 H 1147.33 4.15936 -0.11683 0
M  V30 12465 H 1146.21 5.48132 0.290337 0
M  V30 12466 H 1146.47 4.1797 1.44062 0
M  V30 12467 N 1145.53 0.438773 1.51369 0
M  V30 12468 C 1146.46 -0.362467 2.3067 0
M  V30 12469 C 1147.44 -1.01973 1.36145 0
M  V30 12470 O 1148.62 -1.0231 1.65065 0
M  V30 12471 C 1145.75 -1.46313 3.14976 0
M  V30 12472 C 1144.71 -0.929272 4.1779 0
M  V30 12473 C 1144.03 -2.12579 4.90627 0
M  V30 12474 C 1145.33 0.0372782 5.22287 0
M  V30 12475 H 1147.03 0.29931 2.979 0
M  V30 12476 H 1144.57 0.14539 1.43264 0
M  V30 12477 H 1146.53 -2.03088 3.69233 0
M  V30 12478 H 1145.25 -2.15321 2.45569 0
M  V30 12479 H 1143.91 -0.383722 3.64586 0
M  V30 12480 H 1143.56 -2.8021 4.17722 0
M  V30 12481 H 1143.26 -1.77496 5.60151 0
M  V30 12482 H 1144.78 -2.69905 5.47708 0
M  V30 12483 H 1146.2 -0.44022 5.71607 0
M  V30 12484 H 1144.59 0.300748 5.99346 0
M  V30 12485 H 1145.66 0.973503 4.75027 0
M  V30 12486 N 1147.01 -1.56678 0.170181 0
M  V30 12487 C 1147.97 -2.16698 -0.746622 0
M  V30 12488 C 1148.97 -1.11475 -1.15888 0
M  V30 12489 O 1150.16 -1.36994 -1.07602 0
M  V30 12490 C 1147.29 -2.74892 -2.01612 0
M  V30 12491 H 1148.48 -2.99061 -0.224135 0
M  V30 12492 H 1146.04 -1.56098 -0.0793761 0
M  V30 12493 H 1146.77 -1.96259 -2.58172 0
M  V30 12494 H 1146.56 -3.51896 -1.72949 0
M  V30 12495 H 1148.05 -3.21058 -2.67042 0
M  V30 12496 N 1148.48 0.103547 -1.57259 0
M  V30 12497 C 1149.73 0.807231 -1.84842 0
M  V30 12498 C 1150.05 1.80308 -0.758181 0
M  V30 12499 O 1151.25 2.55406 -0.920877 0
M  V30 12500 C 1149.71 1.4864 -3.27771 0
M  V30 12501 C 1149.32 0.53075 -4.44845 0
M  V30 12502 C 1151.06 2.17431 -3.64587 0
M  V30 12503 C 1148.97 1.21403 -5.78805 0
M  V30 12504 H 1147.9 0.305212 -0.689465 0
M  V30 12505 H 1150.55 0.0600855 -1.83402 0
M  V30 12506 H 1148.93 2.28071 -3.23728 0
M  V30 12507 H 1150.1 -0.231455 -4.60218 0
M  V30 12508 H 1148.42 -0.0510078 -4.16369 0
M  V30 12509 H 1151.02 2.6927 -4.6195 0
M  V30 12510 H 1151.36 2.9594 -2.92789 0
M  V30 12511 H 1151.89 1.4487 -3.70483 0
M  V30 12512 H 1148.63 0.469918 -6.53813 0
M  V30 12513 H 1148.15 1.94787 -5.6729 0
M  V30 12514 H 1149.83 1.74289 -6.23083 0
M  V30 12515 N 1149.96 1.53094 0.37415 0
M  V30 12516 C 1151.21 1.68527 1.11548 0
M  V30 12517 C 1151.53 0.435253 1.9008 0
M  V30 12518 O 1150.8 -0.550594 1.88003 0
M  V30 12519 H 1149.38 0.621255 0.41479 0
M  V30 12520 H 1152.04 1.90258 0.422844 0
M  V30 12521 H 1151.14 2.54248 1.81009 0
M  V30 12522 N 1151.44 -0.633461 1.44309 0
M  V30 12523 C 1152.39 -1.76674 1.51292 0
M  V30 12524 C 1153.38 -1.64972 0.384807 0
M  V30 12525 O 1154.59 -1.71079 0.559653 0
M  V30 12526 H 1150.96 -0.583238 0.474697 0
M  V30 12527 H 1152.93 -1.67907 2.46678 0
M  V30 12528 C 1151.68 -3.15002 1.47205 0
M  V30 12529 H 1151.01 -3.24653 2.33325 0
M  V30 12530 H 1152.45 -3.94199 1.56151 0
M  V30 12531 C 1150.9 -3.3635 0.192464 0
M  V30 12532 O 1151.43 -3.94857 -0.738285 0
M  V30 12533 N 1149.64 -2.9044 0.0963424 0
M  V30 12534 H 1149.19 -2.43011 0.85459 0
M  V30 12535 H 1149.15 -3.05099 -0.759061 0
M  V30 12536 N 1152.92 -1.31168 -0.873655 0
M  V30 12537 C 1153.85 -1.21094 -1.99646 0
M  V30 12538 C 1154.83 -0.0989684 -1.69812 0
M  V30 12539 O 1156.01 -0.282939 -1.92128 0
M  V30 12540 C 1153.14 -0.913684 -3.35066 0
M  V30 12541 C 1152.1 -1.98482 -3.79195 0
M  V30 12542 C 1151.42 -1.54033 -5.12033 0
M  V30 12543 C 1152.72 -3.39745 -3.96699 0
M  V30 12544 H 1154.42 -2.1503 -2.08333 0
M  V30 12545 H 1151.96 -1.03521 -1.00097 0
M  V30 12546 H 1153.92 -0.829821 -4.13149 0
M  V30 12547 H 1152.64 0.0613471 -3.26542 0
M  V30 12548 H 1151.3 -2.05851 -3.03349 0
M  V30 12549 H 1150.95 -0.553261 -4.99948 0
M  V30 12550 H 1150.65 -2.25688 -5.4253 0
M  V30 12551 H 1152.17 -1.47047 -5.92629 0
M  V30 12552 H 1153.59 -3.35071 -4.65188 0
M  V30 12553 H 1151.98 -4.09585 -4.38589 0
M  V30 12554 H 1153.05 -3.80802 -3.00196 0
M  V30 12555 N 1154.4 1.08748 -1.14068 0
M  V30 12556 C 1155.64 1.81333 -0.908081 0
M  V30 12557 C 1155.98 1.85826 0.564112 0
M  V30 12558 O 1155.25 1.33157 1.41773 0
M  V30 12559 C 1155.53 3.27127 -1.50531 0
M  V30 12560 C 1155.39 3.30865 -3.04711 0
M  V30 12561 C 1156.71 4.24006 -1.17928 0
M  V30 12562 H 1153.82 0.658326 -0.331325 0
M  V30 12563 H 1156.47 1.27345 -1.41008 0
M  V30 12564 H 1154.62 3.73233 -1.07839 0
M  V30 12565 H 1156.29 2.93109 -3.56209 0
M  V30 12566 H 1154.53 2.70241 -3.39341 0
M  V30 12567 H 1155.2 4.33603 -3.41603 0
M  V30 12568 H 1157.68 3.86221 -1.54831 0
M  V30 12569 H 1156.55 5.2434 -1.62353 0
M  V30 12570 H 1156.82 4.42 -0.0940349 0
M  V30 12571 N 1155.87 0.935264 1.26849 0
M  V30 12572 C 1157.12 0.57969 1.94025 0
M  V30 12573 C 1157.45 -0.880295 1.73439 0
M  V30 12574 O 1156.7 -1.64429 1.0612 0
M  V30 12575 C 1157 0.861098 3.46872 0
M  V30 12576 C 1156.67 2.30402 3.87589 0
M  V30 12577 C 1155.33 2.69848 3.98417 0
M  V30 12578 C 1157.68 3.242 4.08098 0
M  V30 12579 C 1155.01 4.02199 4.27145 0
M  V30 12580 C 1157.36 4.56141 4.38313 0
M  V30 12581 C 1156.03 4.9541 4.47354 0
M  V30 12582 H 1155.3 0.212123 0.709989 0
M  V30 12583 H 1157.94 1.18066 1.50774 0
M  V30 12584 H 1156.25 0.177534 3.91398 0
M  V30 12585 H 1157.95 0.564841 3.97002 0
M  V30 12586 H 1154.54 1.98803 3.79704 0
M  V30 12587 H 1158.72 2.94924 3.99166 0
M  V30 12588 H 1153.98 4.32295 4.32355 0
M  V30 12589 H 1158.15 5.28818 4.53128 0
M  V30 12590 H 1155.78 5.97994 4.69368 0
M  V30 12591 N 1157.35 -1.41121 0.701616 0
M  V30 12592 C 1158.58 -2.05452 0.244365 0
M  V30 12593 C 1159 -1.5282 -1.10866 0
M  V30 12594 O 1158.35 -0.67893 -1.69401 0
M  V30 12595 C 1158.4 -3.60946 0.200112 0
M  V30 12596 O 1158.12 -4.11632 1.4997 0
M  V30 12597 C 1159.63 -4.42431 -0.277394 0
M  V30 12598 H 1156.85 -0.66151 0.112453 0
M  V30 12599 H 1159.39 -1.80784 0.9559 0
M  V30 12600 H 1157.54 -3.84632 -0.462287 0
M  V30 12601 H 1157.96 -5.05723 1.39084 0
M  V30 12602 H 1159.43 -5.514 -0.257225 0
M  V30 12603 H 1159.91 -4.1898 -1.31728 0
M  V30 12604 H 1160.52 -4.23822 0.354223 0
M  V30 12605 N 1158.83 -0.446794 -1.51134 0
M  V30 12606 C 1160.08 0.116263 -2.01765 0
M  V30 12607 C 1160.4 1.42382 -1.33238 0
M  V30 12608 O 1159.67 1.9018 -0.469915 0
M  V30 12609 H 1158.25 0.0459558 -0.745585 0
M  V30 12610 H 1160.91 -0.591664 -1.85702 0
M  V30 12611 H 1160.01 0.285358 -3.10793 0
M  V30 12612 N 1160.31 1.56586 -0.178487 0
M  V30 12613 C 1161.56 1.96273 0.464745 0
M  V30 12614 C 1161.87 1.0675 1.63902 0
M  V30 12615 O 1163.08 1.36148 2.34896 0
M  V30 12616 C 1161.53 3.49021 0.878207 0
M  V30 12617 C 1161.14 4.4718 -0.270861 0
M  V30 12618 C 1162.88 3.97512 1.48946 0
M  V30 12619 C 1160.79 5.91176 0.162632 0
M  V30 12620 H 1159.72 0.732834 0.177398 0
M  V30 12621 H 1162.37 1.81534 -0.267861 0
M  V30 12622 H 1160.75 3.59203 1.667 0
M  V30 12623 H 1161.93 4.48718 -1.04826 0
M  V30 12624 H 1160.24 4.08788 -0.792529 0
M  V30 12625 H 1162.84 5.02556 1.82595 0
M  V30 12626 H 1163.18 3.40861 2.38997 0
M  V30 12627 H 1163.72 3.90376 0.76496 0
M  V30 12628 H 1160.46 6.51716 -0.703286 0
M  V30 12629 H 1159.98 5.9293 0.905243 0
M  V30 12630 H 1161.65 6.44174 0.604084 0
M  V30 12631 N 1161.79 -0.095206 1.57312 0
M  V30 12632 C 1163.03 -0.798719 1.86083 0
M  V30 12633 C 1163.36 -1.78739 0.766991 0
M  V30 12634 O 1162.62 -1.9423 -0.239425 0
M  V30 12635 C 1162.92 -1.56244 3.21438 0
M  V30 12636 C 1162.58 -0.715903 4.4518 0
M  V30 12637 C 1161.24 -0.482537 4.78774 0
M  V30 12638 C 1163.6 -0.127404 5.21044 0
M  V30 12639 C 1160.92 0.349193 5.8566 0
M  V30 12640 C 1163.28 0.691649 6.28808 0
M  V30 12641 C 1161.94 0.935107 6.60918 0
M  V30 12642 H 1161.21 -0.292272 0.680924 0
M  V30 12643 H 1163.86 -0.0602105 1.91405 0
M  V30 12644 H 1162.16 -2.37251 3.118 0
M  V30 12645 H 1163.86 -2.11116 3.40927 0
M  V30 12646 H 1160.45 -0.907902 4.18874 0
M  V30 12647 H 1164.63 -0.29486 4.95423 0
M  V30 12648 H 1159.89 0.546797 6.0895 0
M  V30 12649 H 1164.06 1.15452 6.86763 0
M  V30 12650 H 1161.69 1.58139 7.4357 0
M  V30 12651 N 1163.26 -1.53291 -0.366026 0
M  V30 12652 C 1164.23 -1.79025 -1.43117 0
M  V30 12653 C 1165.23 -0.660676 -1.46601 0
M  V30 12654 O 1166.42 -0.928875 -1.47369 0
M  V30 12655 C 1163.55 -1.91192 -2.82238 0
M  V30 12656 H 1164.74 -2.74154 -1.21572 0
M  V30 12657 H 1162.3 -1.44361 -0.599132 0
M  V30 12658 H 1163.03 -0.98129 -3.09097 0
M  V30 12659 H 1162.82 -2.7335 -2.81109 0
M  V30 12660 H 1164.31 -2.12696 -3.59375 0
M  V30 12661 N 1164.74 0.6258 -1.44643 0
M  V30 12662 C 1165.71 1.71941 -1.51555 0
M  V30 12663 C 1166.71 1.55822 -0.396988 0
M  V30 12664 O 1167.9 1.61221 -0.65981 0
M  V30 12665 C 1165.03 3.11068 -1.39461 0
M  V30 12666 H 1166.22 1.67185 -2.48976 0
M  V30 12667 H 1163.77 0.839934 -1.31814 0
M  V30 12668 H 1164.51 3.21416 -0.431534 0
M  V30 12669 H 1164.29 3.24175 -2.20574 0
M  V30 12670 H 1165.78 3.90762 -1.4729 0
M  V30 12671 N 1166.22 1.31629 0.866686 0
M  V30 12672 C 1167.13 1.21524 2.00671 0
M  V30 12673 C 1168.15 0.131277 1.73504 0
M  V30 12674 O 1169.32 0.349699 1.98341 0
M  V30 12675 C 1166.39 0.926491 3.34091 0
M  V30 12676 C 1165.45 2.09769 3.7456 0
M  V30 12677 C 1164.68 1.82262 5.01614 0
M  V30 12678 O 1164.9 0.759329 5.65323 0
M  V30 12679 O 1163.84 2.68031 5.38928 0
M  V30 12680 H 1167.66 2.17335 2.1213 0
M  V30 12681 H 1165.25 1.11401 0.995499 0
M  V30 12682 H 1167.13 0.78144 4.14091 0
M  V30 12683 H 1165.81 -0.00155829 3.237 0
M  V30 12684 H 1164.71 2.29816 2.95187 0
M  V30 12685 H 1166.05 3.0081 3.89582 0
M  V30 12686 N 1167.7 -1.08142 1.14644 0
M  V30 12687 C 1168.63 -2.14476 0.779437 0
M  V30 12688 C 1169.61 -1.60812 -0.240454 0
M  V30 12689 O 1170.79 -1.88059 -0.128881 0
M  V30 12690 C 1167.92 -3.38333 0.157692 0
M  V30 12691 C 1166.97 -4.10754 1.14819 0
M  V30 12692 S 1167.8 -4.63227 2.68666 0
M  V30 12693 C 1168.96 -5.90367 2.07888 0
M  V30 12694 H 1169.19 -2.45276 1.68009 0
M  V30 12695 H 1166.72 -1.20292 0.967942 0
M  V30 12696 H 1168.68 -4.10038 -0.194607 0
M  V30 12697 H 1167.34 -3.05726 -0.720435 0
M  V30 12698 H 1166.53 -4.99644 0.661226 0
M  V30 12699 H 1166.14 -3.44974 1.44462 0
M  V30 12700 H 1168.43 -6.62107 1.43599 0
M  V30 12701 H 1169.37 -6.43764 2.94913 0
M  V30 12702 H 1169.78 -5.43507 1.52514 0
M  V30 12703 N 1169.18 -0.941978 -1.26351 0
M  V30 12704 C 1170.42 -0.590845 -1.94002 0
M  V30 12705 C 1170.76 0.868004 -1.73722 0
M  V30 12706 O 1170.03 1.62111 -1.07472 0
M  V30 12707 C 1170.31 -0.934901 -3.47752 0
M  V30 12708 C 1170.17 -2.44855 -3.77314 0
M  V30 12709 C 1171.49 -0.450888 -4.37784 0
M  V30 12710 H 1168.61 -0.21613 -0.704597 0
M  V30 12711 H 1171.25 -1.17634 -1.49205 0
M  V30 12712 H 1169.4 -0.436648 -3.86038 0
M  V30 12713 H 1171.07 -3.01959 -3.48738 0
M  V30 12714 H 1169.31 -2.89169 -3.23363 0
M  V30 12715 H 1169.98 -2.6398 -4.84787 0
M  V30 12716 H 1172.46 -0.878107 -4.06729 0
M  V30 12717 H 1171.34 -0.720439 -5.44152 0
M  V30 12718 H 1171.6 0.649162 -4.37308 0
M  V30 12719 N 1170.66 1.40747 -0.709091 0
M  V30 12720 C 1171.59 2.33404 -0.0669763 0
M  V30 12721 C 1172.57 1.52546 0.752582 0
M  V30 12722 O 1173.75 1.81036 0.702823 0
M  V30 12723 C 1170.88 3.36476 0.860285 0
M  V30 12724 C 1169.84 4.27748 0.146828 0
M  V30 12725 C 1169.16 5.21304 1.18937 0
M  V30 12726 C 1170.46 5.12734 -0.995064 0
M  V30 12727 H 1172.16 2.87349 -0.840888 0
M  V30 12728 H 1169.7 1.38163 -0.405817 0
M  V30 12729 H 1171.65 4.00231 1.31883 0
M  V30 12730 H 1170.38 2.80912 1.66602 0
M  V30 12731 H 1169.04 3.65437 -0.291826 0
M  V30 12732 H 1168.69 4.62048 1.98798 0
M  V30 12733 H 1168.39 5.8321 0.716917 0
M  V30 12734 H 1169.91 5.87936 1.64815 0
M  V30 12735 H 1171.32 5.69979 -0.61618 0
M  V30 12736 H 1169.72 5.83649 -1.39547 0
M  V30 12737 H 1170.79 4.49097 -1.82867 0
M  V30 12738 N 1172.13 0.454803 1.50895 0
M  V30 12739 C 1173.08 -0.347769 2.28165 0
M  V30 12740 C 1174.05 -1.00158 1.32505 0
M  V30 12741 O 1175.24 -1.01715 1.61427 0
M  V30 12742 C 1172.38 -1.43315 3.13934 0
M  V30 12743 C 1171.49 -0.795736 4.24608 0
M  V30 12744 C 1170.62 -1.85763 4.9766 0
M  V30 12745 C 1169.66 -1.19959 6.0023 0
M  V30 12746 N 1168.8 -2.20361 6.66622 0
M  V30 12747 H 1173.64 0.317493 2.96304 0
M  V30 12748 H 1171.18 0.168418 1.46133 0
M  V30 12749 H 1173.13 -2.07391 3.62001 0
M  V30 12750 H 1171.76 -2.0678 2.47875 0
M  V30 12751 H 1170.82 -0.0428173 3.80376 0
M  V30 12752 H 1172.13 -0.275477 4.98039 0
M  V30 12753 H 1171.28 -2.5746 5.49363 0
M  V30 12754 H 1170.02 -2.41166 4.23899 0
M  V30 12755 H 1169.03 -0.46817 5.47803 0
M  V30 12756 H 1170.25 -0.652666 6.75956 0
M  V30 12757 H 1168.2 -2.74812 5.95663 0
M  V30 12758 H 1168.11 -1.73275 7.35875 0
M  V30 12759 H 1169.38 -2.91488 7.22949 0
M  V30 12760 N 1173.61 -1.56489 0.186789 0
M  V30 12761 C 1174.54 -2.21705 -0.732739 0
M  V30 12762 C 1175.52 -1.17751 -1.22755 0
M  V30 12763 O 1176.71 -1.46231 -1.27789 0
M  V30 12764 C 1173.84 -2.86992 -1.95584 0
M  V30 12765 C 1172.79 -3.97118 -1.59628 0
M  V30 12766 C 1172.12 -4.49529 -2.89531 0
M  V30 12767 C 1173.42 -5.15941 -0.812518 0
M  V30 12768 H 1175.11 -2.98802 -0.189094 0
M  V30 12769 H 1172.66 -1.43722 -0.0895099 0
M  V30 12770 H 1174.61 -3.31295 -2.60426 0
M  V30 12771 H 1173.33 -2.07287 -2.52388 0
M  V30 12772 H 1171.99 -3.53494 -0.971475 0
M  V30 12773 H 1171.64 -3.66596 -3.44407 0
M  V30 12774 H 1171.34 -5.23832 -2.66221 0
M  V30 12775 H 1172.87 -4.96528 -3.55376 0
M  V30 12776 H 1174.28 -5.56841 -1.36386 0
M  V30 12777 H 1172.68 -5.96259 -0.677862 0
M  V30 12778 H 1173.75 -4.84535 0.188095 0
M  V30 12779 N 1175.09 0.086862 -1.5736 0
M  V30 12780 C 1176.34 0.787581 -1.85688 0
M  V30 12781 C 1176.65 1.79494 -0.777263 0
M  V30 12782 O 1177.86 2.54415 -0.947914 0
M  V30 12783 C 1176.31 1.45155 -3.2933 0
M  V30 12784 C 1175.92 0.483539 -4.45383 0
M  V30 12785 C 1177.67 2.13552 -3.66873 0
M  V30 12786 C 1175.57 1.15257 -5.8006 0
M  V30 12787 H 1174.5 0.297882 -0.692663 0
M  V30 12788 H 1177.15 0.0406299 -1.83455 0
M  V30 12789 H 1175.54 2.24625 -3.26128 0
M  V30 12790 H 1176.71 -0.280254 -4.59947 0
M  V30 12791 H 1175.02 -0.0951664 -4.16291 0
M  V30 12792 H 1177.62 2.64355 -4.6478 0
M  V30 12793 H 1177.96 2.92818 -2.95911 0
M  V30 12794 H 1178.5 1.40932 -3.71999 0
M  V30 12795 H 1175.24 0.400546 -6.54275 0
M  V30 12796 H 1174.76 1.88759 -5.69324 0
M  V30 12797 H 1176.44 1.67671 -6.24896 0
M  V30 12798 N 1176.57 1.53483 0.357892 0
M  V30 12799 C 1177.53 1.79782 1.42166 0
M  V30 12800 C 1178.53 0.668441 1.46248 0
M  V30 12801 O 1179.72 0.936677 1.46874 0
M  V30 12802 C 1176.85 1.92686 2.8122 0
M  V30 12803 H 1178.05 2.74794 1.20117 0
M  V30 12804 H 1175.6 1.44677 0.591468 0
M  V30 12805 H 1176.33 0.997669 3.08573 0
M  V30 12806 H 1176.12 2.74837 2.79655 0
M  V30 12807 H 1177.61 2.14599 3.58242 0
M  V30 12808 N 1178.05 -0.61812 1.44973 0
M  V30 12809 C 1178.98 -1.74277 1.47318 0
M  V30 12810 C 1179.96 -1.59203 0.330627 0
M  V30 12811 O 1181.14 -1.80909 0.529558 0
M  V30 12812 C 1178.27 -3.11994 1.31823 0
M  V30 12813 C 1177.31 -3.45685 2.49809 0
M  V30 12814 S 1178.15 -3.41704 4.12309 0
M  V30 12815 C 1179.3 -4.82019 3.9926 0
M  V30 12816 H 1179.54 -1.72023 2.42478 0
M  V30 12817 H 1177.07 -0.793867 1.32428 0
M  V30 12818 H 1179.03 -3.9146 1.2357 0
M  V30 12819 H 1177.69 -3.11774 0.381521 0
M  V30 12820 H 1176.88 -4.45931 2.34864 0
M  V30 12821 H 1176.48 -2.73711 2.54869 0
M  V30 12822 H 1178.77 -5.71567 3.63754 0
M  V30 12823 H 1179.72 -5.02019 4.99382 0
M  V30 12824 H 1180.13 -4.57205 3.31095 0
M  V30 12825 N 1179.52 -1.32087 -0.859693 0
M  V30 12826 C 1180.8 -1.12984 -1.59668 0
M  V30 12827 C 1181.18 0.311661 -2.08787 0
M  V30 12828 O 1180.53 1.30746 -1.87397 0
M  V30 12829 C 1180.74 -2.15305 -2.74672 0
M  V30 12830 C 1182.09 -2.48371 -3.44379 0
M  V30 12831 O 1183.11 -2.13811 -2.84891 0
M  V30 12832 O 1181.97 -3.07594 -4.51717 0
M  V30 12833 H 1179.06 -0.435657 -0.702945 0
M  V30 12834 H 1181.61 -1.43601 -0.90426 0
M  V30 12835 H 1180.38 -3.12223 -2.35866 0
M  V30 12836 H 1180 -1.85653 -3.51594 0
M  V30 12837 N 1181 1.07532 -1.15215 0
M  V30 12838 C 1182.41 1.61567 -0.935568 0
M  V30 12839 C 1182.76 1.89085 0.523557 0
M  V30 12840 O 1181.89 1.65495 1.39429 0
M  V30 12841 C 1182.48 2.93531 -1.69189 0
M  V30 12842 C 1181.04 3.44316 -1.52063 0
M  V30 12843 C 1180.19 2.18404 -1.70866 0
M  V30 12844 H 1183.14 0.906431 -1.30267 0
M  V30 12845 H 1183.16 3.62377 -1.16031 0
M  V30 12846 H 1182.67 2.73471 -2.75381 0
M  V30 12847 H 1180.77 3.69462 -0.482567 0
M  V30 12848 H 1180.89 4.20478 -2.29642 0
M  V30 12849 H 1179.25 2.28012 -1.13502 0
M  V30 12850 H 1180.03 2.00841 -2.7842 0
M  V30 12851 N 1182.48 0.948665 1.2585 0
M  V30 12852 C 1183.71 0.616334 1.97193 0
M  V30 12853 C 1184.12 -0.814538 1.70769 0
M  V30 12854 O 1183.46 -1.55569 0.976926 0
M  V30 12855 C 1183.52 0.787814 3.50762 0
M  V30 12856 C 1183.19 2.19472 4.0085 0
M  V30 12857 C 1184.18 3.17087 4.12009 0
M  V30 12858 C 1181.87 2.51731 4.34669 0
M  V30 12859 C 1183.86 4.45058 4.56292 0
M  V30 12860 C 1181.55 3.79932 4.78639 0
M  V30 12861 C 1182.55 4.76408 4.89412 0
M  V30 12862 O 1182.24 6.02325 5.32409 0
M  V30 12863 H 1181.97 0.230487 0.635493 0
M  V30 12864 H 1184.52 1.27379 1.61133 0
M  V30 12865 H 1182.75 0.0732154 3.86631 0
M  V30 12866 H 1184.44 0.457427 4.03314 0
M  V30 12867 H 1185.21 2.9349 3.8612 0
M  V30 12868 H 1181.09 1.77369 4.25513 0
M  V30 12869 H 1184.63 5.20363 4.64616 0
M  V30 12870 H 1180.53 4.03338 5.03973 0
M  V30 12871 H 1181.3 6.05615 5.50611 0
M  V30 12872 N 1183.96 -1.40369 0.716545 0
M  V30 12873 C 1184.87 -2.34508 0.065658 0
M  V30 12874 C 1185.88 -1.57352 -0.742723 0
M  V30 12875 O 1187.06 -1.89735 -0.675456 0
M  V30 12876 C 1184.13 -3.36262 -0.844337 0
M  V30 12877 C 1183.19 -4.29292 -0.0257971 0
M  V30 12878 C 1182.42 -5.26185 -0.892452 0
M  V30 12879 O 1182.64 -5.29071 -2.13166 0
M  V30 12880 O 1181.58 -6.0099 -0.330933 0
M  V30 12881 H 1185.4 -2.91789 0.842184 0
M  V30 12882 H 1182.99 -1.41579 0.477034 0
M  V30 12883 H 1184.87 -3.98661 -1.36555 0
M  V30 12884 H 1183.54 -2.81393 -1.59999 0
M  V30 12885 H 1182.45 -3.70175 0.540512 0
M  V30 12886 H 1183.78 -4.87316 0.69166 0
M  V30 12887 N 1185.44 -0.462799 -1.50652 0
M  V30 12888 C 1186.67 0.0928413 -2.06391 0
M  V30 12889 C 1187.07 1.34791 -1.3277 0
M  V30 12890 O 1186.42 1.79555 -0.388048 0
M  V30 12891 C 1186.48 0.45517 -3.56607 0
M  V30 12892 C 1186.14 -0.696698 -4.51658 0
M  V30 12893 C 1187.14 -1.57633 -4.95427 0
M  V30 12894 C 1184.83 -0.884669 -4.94448 0
M  V30 12895 C 1186.82 -2.62841 -5.80684 0
M  V30 12896 C 1184.51 -1.93998 -5.79489 0
M  V30 12897 C 1185.5 -2.81022 -6.22508 0
M  V30 12898 O 1185.19 -3.84738 -7.05856 0
M  V30 12899 H 1184.92 -3.18898e-05 -0.676 0
M  V30 12900 H 1187.48 -0.648161 -1.94905 0
M  V30 12901 H 1185.71 1.24924 -3.65966 0
M  V30 12902 H 1187.4 0.944923 -3.94748 0
M  V30 12903 H 1188.16 -1.44276 -4.63044 0
M  V30 12904 H 1184.04 -0.216807 -4.6049 0
M  V30 12905 H 1187.59 -3.30797 -6.14182 0
M  V30 12906 H 1183.48 -2.07366 -6.11285 0
M  V30 12907 H 1184.25 -3.81626 -7.24088 0
M  V30 12908 N 1186.91 1.56388 -0.195085 0
M  V30 12909 C 1188.16 1.9758 0.443686 0
M  V30 12910 C 1188.49 1.08196 1.61629 0
M  V30 12911 O 1187.74 0.121061 1.95325 0
M  V30 12912 C 1188.04 3.44651 0.946051 0
M  V30 12913 C 1187.71 4.50758 -0.11318 0
M  V30 12914 C 1186.37 4.79499 -0.404229 0
M  V30 12915 C 1188.72 5.14534 -0.830899 0
M  V30 12916 C 1186.05 5.69307 -1.41797 0
M  V30 12917 C 1188.4 6.05438 -1.83379 0
M  V30 12918 C 1187.07 6.32535 -2.13204 0
M  V30 12919 H 1186.34 0.722995 0.162356 0
M  V30 12920 H 1188.98 1.8926 -0.292049 0
M  V30 12921 H 1187.29 3.50042 1.76006 0
M  V30 12922 H 1188.99 3.73878 1.44969 0
M  V30 12923 H 1185.58 4.28421 0.123833 0
M  V30 12924 H 1189.76 4.92421 -0.61927 0
M  V30 12925 H 1185.02 5.88575 -1.65496 0
M  V30 12926 H 1189.19 6.53915 -2.39516 0
M  V30 12927 H 1186.82 7.01924 -2.91902 0
M  V30 12928 N 1188.39 -0.0785156 1.57404 0
M  V30 12929 C 1189.32 -1.12058 1.99939 0
M  V30 12930 C 1190.34 -1.35372 0.904343 0
M  V30 12931 O 1191.53 -1.33731 1.1823 0
M  V30 12932 C 1188.63 -2.47285 2.31739 0
M  V30 12933 C 1187.8 -2.44021 3.63005 0
M  V30 12934 C 1186.86 -3.61303 3.82552 0
M  V30 12935 O 1185.88 -3.43039 4.54217 0
M  V30 12936 N 1187.09 -4.81404 3.24392 0
M  V30 12937 H 1189.85 -0.758416 2.89945 0
M  V30 12938 H 1187.41 -0.267266 1.59679 0
M  V30 12939 H 1189.4 -3.24377 2.41995 0
M  V30 12940 H 1187.97 -2.75529 1.47657 0
M  V30 12941 H 1187.19 -1.52361 3.63565 0
M  V30 12942 H 1188.48 -2.38934 4.49208 0
M  V30 12943 H 1187.88 -4.99147 2.66211 0
M  V30 12944 H 1186.44 -5.56031 3.40107 0
M  V30 12945 N 1189.87 -1.5367 -0.349747 0
M  V30 12946 C 1191.12 -1.7087 -1.0923 0
M  V30 12947 C 1191.45 -0.467299 -1.88494 0
M  V30 12948 O 1190.72 0.535619 -1.8698 0
M  V30 12949 C 1191.01 -2.9684 -2.03858 0
M  V30 12950 C 1190.86 -4.31174 -1.28097 0
M  V30 12951 C 1192.18 -3.18459 -3.03763 0
M  V30 12952 H 1189.3 -0.621757 -0.395711 0
M  V30 12953 H 1191.94 -1.86333 -0.371481 0
M  V30 12954 H 1190.09 -2.83788 -2.65323 0
M  V30 12955 H 1191.76 -4.56066 -0.692933 0
M  V30 12956 H 1190.01 -4.29866 -0.582924 0
M  V30 12957 H 1190.68 -5.15482 -1.9744 0
M  V30 12958 H 1193.15 -3.30801 -2.52409 0
M  V30 12959 H 1192.03 -4.08006 -3.67182 0
M  V30 12960 H 1192.29 -2.34467 -3.74803 0
M  V30 12961 N 1191.35 0.610423 -1.45298 0
M  V30 12962 C 1192.6 1.3668 -1.48872 0
M  V30 12963 C 1192.92 1.94562 -0.130686 0
M  V30 12964 O 1192.19 1.76996 0.839607 0
M  V30 12965 H 1190.77 0.507393 -0.548235 0
M  V30 12966 H 1193.43 0.716997 -1.81232 0
M  V30 12967 H 1192.53 2.18766 -2.22593 0
M  V30 12968 N 1192.83 1.32541 0.852676 0
M  V30 12969 C 1194.07 1.24406 1.60918 0
M  V30 12970 C 1194.43 -0.19184 1.91441 0
M  V30 12971 O 1193.72 -1.13016 1.54719 0
M  V30 12972 C 1193.91 2.039 2.9353 0
M  V30 12973 C 1193.74 3.55074 2.75957 0
M  V30 12974 C 1192.51 4.24409 2.74236 0
M  V30 12975 C 1194.71 4.49686 2.49574 0
M  V30 12976 N 1192.69 5.61624 2.47895 0
M  V30 12977 C 1194.06 5.74692 2.32658 0
M  V30 12978 C 1196.12 4.38921 2.35058 0
M  V30 12979 C 1194.82 6.90149 2.027 0
M  V30 12980 C 1196.85 5.5418 2.06491 0
M  V30 12981 C 1196.21 6.78186 1.90377 0
M  V30 12982 H 1192.31 0.510401 0.592465 0
M  V30 12983 H 1194.89 1.66929 1.00214 0
M  V30 12984 H 1193.06 1.6372 3.52208 0
M  V30 12985 H 1194.8 1.87644 3.58569 0
M  V30 12986 H 1191.55 3.76546 2.87246 0
M  V30 12987 H 1191.98 6.33918 2.37648 0
M  V30 12988 H 1196.62 3.43697 2.46236 0
M  V30 12989 H 1194.34 7.85383 1.90259 0
M  V30 12990 H 1197.92 5.47779 1.96035 0
M  V30 12991 H 1196.8 7.65864 1.68587 0
M  V30 12992 N 1194.3 -1.0692 1.15784 0
M  V30 12993 C 1195.25 -2.16335 0.854506 0
M  V30 12994 C 1196.25 -1.68505 -0.173868 0
M  V30 12995 O 1197.45 -1.79977 -0.0284722 0
M  V30 12996 H 1193.83 -0.706103 0.258694 0
M  V30 12997 H 1195.8 -2.39135 1.78486 0
M  V30 12998 C 1194.55 -3.45778 0.365042 0
M  V30 12999 H 1193.87 -3.82971 1.14776 0
M  V30 13000 H 1195.31 -4.23567 0.191504 0
M  V30 13001 C 1193.77 -3.24258 -0.914253 0
M  V30 13002 O 1194.3 -3.49236 -1.98487 0
M  V30 13003 N 1192.51 -2.77722 -0.855501 0
M  V30 13004 H 1192.05 -2.57595 0.0159233 0
M  V30 13005 H 1192.01 -2.63702 -1.71198 0
M  V30 13006 N 1195.78 -0.955326 -1.25345 0
M  V30 13007 C 1197.03 -0.606149 -1.92377 0
M  V30 13008 C 1197.34 0.860927 -1.75634 0
M  V30 13009 O 1198.55 1.3201 -2.37246 0
M  V30 13010 C 1197.01 -1.03341 -3.44744 0
M  V30 13011 C 1196.61 -2.52308 -3.70196 0
M  V30 13012 C 1198.36 -0.756797 -4.17699 0
M  V30 13013 C 1196.27 -2.88831 -5.16072 0
M  V30 13014 H 1195.2 -0.222994 -0.720271 0
M  V30 13015 H 1197.85 -1.15987 -1.42194 0
M  V30 13016 H 1196.23 -0.408096 -3.93892 0
M  V30 13017 H 1197.4 -3.19864 -3.31698 0
M  V30 13018 H 1195.72 -2.77448 -3.10502 0
M  V30 13019 H 1198.31 -1.00583 -5.25154 0
M  V30 13020 H 1198.66 0.306794 -4.15168 0
M  V30 13021 H 1199.19 -1.34249 -3.74462 0
M  V30 13022 H 1195.93 -3.9421 -5.23716 0
M  V30 13023 H 1195.45 -2.25948 -5.55614 0
M  V30 13024 H 1197.13 -2.78061 -5.84201 0
M  V30 13025 N 1197.26 1.39987 -0.723979 0
M  V30 13026 C 1198.51 2.00731 -0.267115 0
M  V30 13027 C 1198.84 1.57424 1.14228 0
M  V30 13028 O 1198.09 0.789205 1.79081 0
M  V30 13029 C 1198.39 3.56101 -0.304472 0
M  V30 13030 C 1198.06 4.1902 -1.66533 0
M  V30 13031 C 1196.72 4.3592 -2.03783 0
M  V30 13032 C 1199.07 4.54034 -2.55935 0
M  V30 13033 C 1196.4 4.85119 -3.29964 0
M  V30 13034 C 1198.75 5.04637 -3.81477 0
M  V30 13035 C 1197.41 5.19745 -4.18833 0
M  V30 13036 H 1196.68 0.734525 -0.0977442 0
M  V30 13037 H 1199.33 1.67476 -0.928659 0
M  V30 13038 H 1197.64 3.89314 0.440647 0
M  V30 13039 H 1199.33 4.00944 0.0669875 0
M  V30 13040 H 1195.92 4.0626 -1.36569 0
M  V30 13041 H 1200.11 4.40606 -2.2843 0
M  V30 13042 H 1195.36 4.95001 -3.58865 0
M  V30 13043 H 1199.54 5.30705 -4.50916 0
M  V30 13044 H 1197.16 5.5763 -5.16675 0
M  V30 13045 N 1198.74 0.470782 1.50404 0
M  V30 13046 C 1200.02 -0.145879 1.95055 0
M  V30 13047 C 1200.4 -1.57004 1.41114 0
M  V30 13048 O 1199.74 -2.20152 0.612006 0
M  V30 13049 C 1199.95 -0.0895071 3.48885 0
M  V30 13050 C 1201.3 -0.278548 4.23685 0
M  V30 13051 O 1202.33 -0.166105 3.55812 0
M  V30 13052 O 1201.19 -0.505606 5.44156 0
M  V30 13053 H 1198.28 -0.111838 0.819403 0
M  V30 13054 H 1200.83 0.531162 1.61173 0
M  V30 13055 H 1199.6 0.904836 3.80695 0
M  V30 13056 H 1199.22 -0.808019 3.89303 0
M  V30 13057 N 1200.22 -1.56282 0.203376 0
M  V30 13058 C 1201.44 -2.02643 -0.441658 0
M  V30 13059 C 1201.87 -1.0825 -1.5383 0
M  V30 13060 O 1201.23 -0.0674337 -1.81175 0
M  V30 13061 C 1201.27 -3.47382 -0.967369 0
M  V30 13062 O 1200.38 -3.56115 -2.07981 0
M  V30 13063 H 1199.72 -0.656081 -0.102242 0
M  V30 13064 H 1202.25 -2.02134 0.316684 0
M  V30 13065 H 1202.26 -3.8734 -1.28186 0
M  V30 13066 H 1200.93 -4.15574 -0.164625 0
M  V30 13067 H 1199.51 -3.28035 -1.77334 0
M  V30 13068 N 1201.7 0.070167 -1.57444 0
M  V30 13069 C 1202.63 1.08351 -2.06839 0
M  V30 13070 C 1203.61 1.40269 -0.962224 0
M  V30 13071 O 1204.79 1.49867 -1.23505 0
M  V30 13072 C 1201.92 2.39649 -2.51368 0
M  V30 13073 C 1200.88 2.22079 -3.65875 0
M  V30 13074 C 1200.2 3.58776 -3.96464 0
M  V30 13075 C 1201.5 1.64069 -4.95862 0
M  V30 13076 H 1203.2 0.672465 -2.9175 0
M  V30 13077 H 1200.74 0.322027 -1.40353 0
M  V30 13078 H 1202.69 3.10833 -2.84537 0
M  V30 13079 H 1201.42 2.82736 -1.63487 0
M  V30 13080 H 1200.08 1.53337 -3.32992 0
M  V30 13081 H 1199.73 3.99436 -3.05712 0
M  V30 13082 H 1199.43 3.47859 -4.7357 0
M  V30 13083 H 1200.95 4.31387 -4.32131 0
M  V30 13084 H 1202.36 2.2512 -5.27251 0
M  V30 13085 H 1200.76 1.63843 -5.773 0
M  V30 13086 H 1201.83 0.60232 -4.81145 0
M  V30 13087 N 1203.17 1.53854 0.341593 0
M  V30 13088 C 1204.42 1.7041 1.07905 0
M  V30 13089 C 1204.74 0.475039 1.89744 0
M  V30 13090 O 1205.94 0.521589 2.66443 0
M  V30 13091 C 1204.4 3.01342 1.96776 0
M  V30 13092 C 1204.01 4.31592 1.20135 0
M  V30 13093 C 1205.75 3.27264 2.70367 0
M  V30 13094 C 1203.66 5.53598 2.08047 0
M  V30 13095 H 1202.59 0.635005 0.406553 0
M  V30 13096 H 1205.24 1.80353 0.338409 0
M  V30 13097 H 1203.62 2.85261 2.74667 0
M  V30 13098 H 1204.79 4.58382 0.471404 0
M  V30 13099 H 1203.11 4.12298 0.583039 0
M  V30 13100 H 1205.71 4.15607 3.36415 0
M  V30 13101 H 1206.05 2.44357 3.37039 0
M  V30 13102 H 1206.58 3.4413 1.99548 0
M  V30 13103 H 1203.32 6.39053 1.45914 0
M  V30 13104 H 1202.84 5.31052 2.78825 0
M  V30 13105 H 1204.52 5.89314 2.67055 0
M  V30 13106 N 1204.65 -0.602709 1.4562 0
M  V30 13107 C 1205.9 -1.36359 1.50113 0
M  V30 13108 C 1206.23 -1.93663 0.144297 0
M  V30 13109 O 1205.51 -1.75337 -0.841851 0
M  V30 13110 C 1205.79 -2.50788 2.58413 0
M  V30 13111 C 1205.64 -1.98649 4.03557 0
M  V30 13112 C 1206.96 -3.52905 2.62957 0
M  V30 13113 H 1204.08 -0.494455 0.54652 0
M  V30 13114 H 1206.72 -0.678957 1.77455 0
M  V30 13115 H 1204.87 -3.09191 2.3523 0
M  V30 13116 H 1206.54 -1.44857 4.37966 0
M  V30 13117 H 1204.79 -1.29615 4.13984 0
M  V30 13118 H 1205.46 -2.81159 4.7503 0
M  V30 13119 H 1207.93 -3.0435 2.83743 0
M  V30 13120 H 1206.81 -4.30454 3.40589 0
M  V30 13121 H 1207.07 -4.0884 1.68233 0
M  V30 13122 N 1206.13 -1.32992 -0.845635 0
M  V30 13123 C 1207.36 -1.27087 -1.63268 0
M  V30 13124 C 1207.77 0.159481 -1.88125 0
M  V30 13125 O 1207.13 1.09948 -1.45663 0
M  V30 13126 C 1207.18 -2.03649 -2.98679 0
M  V30 13127 O 1206.9 -3.41104 -2.74918 0
M  V30 13128 C 1208.4 -2.04875 -3.93117 0
M  V30 13129 H 1205.62 -0.438107 -0.508236 0
M  V30 13130 H 1208.17 -1.75257 -1.05381 0
M  V30 13131 H 1206.32 -1.59178 -3.53187 0
M  V30 13132 H 1206.74 -3.80405 -3.61099 0
M  V30 13133 H 1208.21 -2.62911 -4.85368 0
M  V30 13134 H 1208.69 -1.03728 -4.26775 0
M  V30 13135 H 1209.29 -2.49334 -3.44547 0
M  V30 13136 N 1207.61 1.06304 -1.1635 0
M  V30 13137 C 1208.54 2.15745 -0.893103 0
M  V30 13138 C 1209.52 1.69341 0.160531 0
M  V30 13139 O 1210.7 1.94196 0.0126526 0
M  V30 13140 C 1207.83 3.45066 -0.393287 0
M  V30 13141 C 1206.79 4.04978 -1.38482 0
M  V30 13142 C 1206.11 5.29507 -0.743409 0
M  V30 13143 C 1207.41 4.4377 -2.75438 0
M  V30 13144 H 1209.11 2.38622 -1.80831 0
M  V30 13145 H 1206.65 1.14681 -0.870878 0
M  V30 13146 H 1208.61 4.20964 -0.191607 0
M  V30 13147 H 1207.33 3.21808 0.557426 0
M  V30 13148 H 1205.99 3.31136 -1.57304 0
M  V30 13149 H 1205.64 5.02545 0.213787 0
M  V30 13150 H 1205.34 5.7055 -1.40521 0
M  V30 13151 H 1206.86 6.08102 -0.551746 0
M  V30 13152 H 1208.28 5.1075 -2.60398 0
M  V30 13153 H 1206.67 4.95797 -3.38091 0
M  V30 13154 H 1207.74 3.54636 -3.30699 0
M  V30 13155 N 1209.09 0.96196 1.24836 0
M  V30 13156 C 1210.31 0.637709 1.97353 0
M  V30 13157 C 1210.74 -0.784919 1.7094 0
M  V30 13158 O 1210.09 -1.53188 0.969694 0
M  V30 13159 C 1210.14 0.911485 3.4889 0
M  V30 13160 O 1209.25 -0.00601668 4.124 0
M  V30 13161 H 1208.59 0.241685 0.618453 0
M  V30 13162 H 1211.12 1.29055 1.58764 0
M  V30 13163 H 1211.13 0.840702 3.99245 0
M  V30 13164 H 1209.8 1.9483 3.67442 0
M  V30 13165 H 1208.38 0.117597 3.72715 0
M  V30 13166 N 1210.56 -1.39601 0.731392 0
M  V30 13167 C 1211.49 -2.33268 0.1041 0
M  V30 13168 C 1212.47 -1.53724 -0.728219 0
M  V30 13169 O 1213.66 -1.82131 -0.673933 0
M  V30 13170 C 1210.79 -3.37802 -0.806646 0
M  V30 13171 C 1209.74 -4.27928 -0.0787588 0
M  V30 13172 C 1209.07 -5.23131 -1.10628 0
M  V30 13173 C 1210.37 -5.11086 1.07651 0
M  V30 13174 H 1212.06 -2.85975 0.886496 0
M  V30 13175 H 1209.61 -1.375 0.427746 0
M  V30 13176 H 1211.56 -4.02278 -1.25499 0
M  V30 13177 H 1210.29 -2.83527 -1.62112 0
M  V30 13178 H 1208.95 -3.64926 0.349926 0
M  V30 13179 H 1208.59 -4.65152 -1.91422 0
M  V30 13180 H 1208.29 -5.84277 -0.624043 0
M  V30 13181 H 1209.82 -5.90483 -1.5544 0
M  V30 13182 H 1211.23 -5.68927 0.706781 0
M  V30 13183 H 1209.63 -5.81356 1.48814 0
M  V30 13184 H 1210.7 -4.46131 1.89988 0
M  V30 13185 N 1212.04 -0.478751 -1.50152 0
M  V30 13186 C 1213.29 0.073694 -2.02666 0
M  V30 13187 C 1213.62 1.38679 -1.35947 0
M  V30 13188 O 1212.9 1.88286 -0.4877 0
M  V30 13189 C 1213.18 0.249516 -3.59235 0
M  V30 13190 C 1213.03 -1.08514 -4.36514 0
M  V30 13191 C 1214.35 1.00053 -4.28576 0
M  V30 13192 H 1211.47 0.0253082 -0.736565 0
M  V30 13193 H 1214.11 -0.625834 -1.79397 0
M  V30 13194 H 1212.26 0.845343 -3.79192 0
M  V30 13195 H 1213.93 -1.71814 -4.28109 0
M  V30 13196 H 1212.18 -1.67992 -3.99952 0
M  V30 13197 H 1212.85 -0.915676 -5.44352 0
M  V30 13198 H 1215.32 0.495422 -4.1314 0
M  V30 13199 H 1214.2 1.09236 -5.37921 0
M  V30 13200 H 1214.46 2.03896 -3.92274 0
M  V30 13201 N 1213.52 1.56172 -0.211661 0
M  V30 13202 C 1214.43 2.23468 0.714081 0
M  V30 13203 C 1215.45 1.23908 1.22159 0
M  V30 13204 O 1216.62 1.56693 1.26528 0
M  V30 13205 C 1213.69 2.89375 1.90953 0
M  V30 13206 C 1212.75 4.04251 1.44497 0
M  V30 13207 C 1211.98 4.67006 2.58343 0
M  V30 13208 O 1212.2 4.28721 3.76237 0
M  V30 13209 O 1211.14 5.56177 2.3011 0
M  V30 13210 H 1214.96 3.03219 0.170862 0
M  V30 13211 H 1212.55 1.49389 0.0183607 0
M  V30 13212 H 1214.43 3.3101 2.60787 0
M  V30 13213 H 1213.11 2.12591 2.44104 0
M  V30 13214 H 1212.01 3.67205 0.714932 0
M  V30 13215 H 1213.35 4.82748 0.959947 0
M  V30 13216 N 1215 -0.0618163 1.57479 0
M  V30 13217 C 1215.93 -1.07252 2.07411 0
M  V30 13218 C 1216.91 -1.39756 0.969649 0
M  V30 13219 O 1218.09 -1.4921 1.24298 0
M  V30 13220 C 1215.22 -2.38313 2.52635 0
M  V30 13221 C 1214.18 -2.20136 3.67048 0
M  V30 13222 C 1213.5 -3.56668 3.98361 0
M  V30 13223 C 1214.8 -1.61437 4.96725 0
M  V30 13224 H 1216.5 -0.656983 2.92103 0
M  V30 13225 H 1214.04 -0.314579 1.40522 0
M  V30 13226 H 1216 -3.09319 2.86181 0
M  V30 13227 H 1214.72 -2.81865 1.64984 0
M  V30 13228 H 1213.38 -1.51569 3.338 0
M  V30 13229 H 1213.03 -3.97809 3.07826 0
M  V30 13230 H 1212.73 -3.45342 4.75408 0
M  V30 13231 H 1214.25 -4.2909 4.34413 0
M  V30 13232 H 1215.67 -2.2232 5.28438 0
M  V30 13233 H 1214.06 -1.60779 5.78161 0
M  V30 13234 H 1215.13 -0.576795 4.81457 0
M  V30 13235 N 1216.48 -1.54033 -0.333429 0
M  V30 13236 C 1217.72 -1.71765 -1.07252 0
M  V30 13237 C 1218.05 -0.486135 -1.88327 0
M  V30 13238 O 1217.31 0.532135 -1.88326 0
M  V30 13239 C 1217.61 -2.93926 -2.03328 0
M  V30 13240 C 1217.27 -4.29107 -1.38486 0
M  V30 13241 C 1215.93 -4.6586 -1.20532 0
M  V30 13242 C 1218.29 -5.13041 -0.918624 0
M  V30 13243 C 1215.61 -5.84155 -0.545881 0
M  V30 13244 C 1217.97 -6.3201 -0.273055 0
M  V30 13245 C 1216.63 -6.67451 -0.0812815 0
M  V30 13246 H 1215.9 -0.628532 -0.392464 0
M  V30 13247 H 1218.55 -1.88261 -0.350709 0
M  V30 13248 H 1216.85 -2.72075 -2.81926 0
M  V30 13249 H 1218.55 -3.0484 -2.60526 0
M  V30 13250 H 1215.14 -4.00185 -1.5346 0
M  V30 13251 H 1219.32 -4.8517 -1.04515 0
M  V30 13252 H 1214.58 -6.1018 -0.386009 0
M  V30 13253 H 1218.75 -6.96333 0.0962582 0
M  V30 13254 H 1216.38 -7.58973 0.431734 0
M  V30 13255 N 1217.95 0.594978 -1.45938 0
M  V30 13256 C 1218.88 1.71536 -1.58422 0
M  V30 13257 C 1219.87 1.64441 -0.435116 0
M  V30 13258 O 1221.05 1.82647 -0.659839 0
M  V30 13259 C 1218.18 3.10163 -1.56257 0
M  V30 13260 C 1217.13 3.3208 -2.70013 0
M  V30 13261 C 1216.46 4.71108 -2.52905 0
M  V30 13262 C 1217.76 3.21105 -4.11933 0
M  V30 13263 H 1219.45 1.61344 -2.52207 0
M  V30 13264 H 1217 0.774791 -1.2138 0
M  V30 13265 H 1218.95 3.88352 -1.63587 0
M  V30 13266 H 1217.68 3.21225 -0.590093 0
M  V30 13267 H 1216.34 2.56286 -2.62132 0
M  V30 13268 H 1215.98 4.7892 -1.53768 0
M  V30 13269 H 1215.68 4.86727 -3.29197 0
M  V30 13270 H 1217.21 5.51482 -2.62107 0
M  V30 13271 H 1218.62 3.89153 -4.2099 0
M  V30 13272 H 1217.02 3.4825 -4.88715 0
M  V30 13273 H 1218.09 2.18359 -4.32952 0
M  V30 13274 N 1219.43 1.33438 0.838571 0
M  V30 13275 C 1220.4 1.23632 1.92997 0
M  V30 13276 C 1221.4 0.155302 1.60048 0
M  V30 13277 O 1222.59 0.406852 1.69382 0
M  V30 13278 C 1219.72 0.90512 3.28665 0
M  V30 13279 H 1220.91 2.20643 2.03117 0
M  V30 13280 H 1218.46 1.17501 1.03069 0
M  V30 13281 H 1219.2 -0.0624833 3.2424 0
M  V30 13282 H 1218.98 1.68688 3.53959 0
M  V30 13283 H 1220.47 0.861262 4.08622 0
M  V30 13284 N 1220.91 -1.05686 1.16912 0
M  V30 13285 C 1222.19 -1.7546 0.864483 0
M  V30 13286 C 1222.57 -2.0128 -0.636359 0
M  V30 13287 O 1221.92 -1.64485 -1.58609 0
M  V30 13288 C 1222.13 -3.05134 1.69395 0
M  V30 13289 C 1223.47 -3.79176 1.91079 0
M  V30 13290 O 1224.5 -3.1499 1.66312 0
M  V30 13291 O 1223.36 -4.94496 2.32671 0
M  V30 13292 H 1220.45 -0.762748 0.319601 0
M  V30 13293 H 1223 -1.11899 1.27581 0
M  V30 13294 H 1221.77 -2.82063 2.71212 0
M  V30 13295 H 1221.39 -3.76431 1.28007 0
M  V30 13296 N 1222.39 -0.968567 -1.24324 0
M  V30 13297 C 1223.63 -0.631863 -1.92705 0
M  V30 13298 C 1223.97 0.83096 -1.75524 0
M  V30 13299 O 1223.24 1.59795 -1.10887 0
M  V30 13300 C 1223.53 -1.00845 -3.45691 0
M  V30 13301 C 1223.38 -2.52803 -3.72036 0
M  V30 13302 C 1224.7 -0.543647 -4.36729 0
M  V30 13303 H 1221.82 -0.231027 -0.699854 0
M  V30 13304 H 1224.46 -1.20773 -1.46676 0
M  V30 13305 H 1222.61 -0.518434 -3.85025 0
M  V30 13306 H 1224.28 -3.09289 -3.42255 0
M  V30 13307 H 1222.52 -2.95963 -3.17157 0
M  V30 13308 H 1223.19 -2.74203 -4.79079 0
M  V30 13309 H 1225.67 -0.964182 -4.04775 0
M  V30 13310 H 1224.55 -0.8357 -5.42501 0
M  V30 13311 H 1224.81 0.556256 -4.38587 0
M  V30 13312 N 1223.87 1.39211 -0.738786 0
M  V30 13313 C 1224.78 2.34374 -0.102958 0
M  V30 13314 C 1225.79 1.58514 0.717596 0
M  V30 13315 O 1226.97 1.90786 0.645186 0
M  V30 13316 C 1224.03 3.37562 0.790733 0
M  V30 13317 C 1223.09 4.29279 -0.0425028 0
M  V30 13318 C 1222.33 5.27539 0.808628 0
M  V30 13319 O 1222.55 5.32396 2.04722 0
M  V30 13320 O 1221.48 6.0144 0.235279 0
M  V30 13321 H 1225.31 2.90412 -0.888498 0
M  V30 13322 H 1222.9 1.40803 -0.499498 0
M  V30 13323 H 1224.78 4.00783 1.30196 0
M  V30 13324 H 1223.45 2.83903 1.55502 0
M  V30 13325 H 1222.36 3.69268 -0.599335 0
M  V30 13326 H 1223.69 4.86154 -0.7691 0
M  V30 13327 N 1225.34 0.486708 1.49896 0
M  V30 13328 C 1226.59 -0.0627279 2.02003 0
M  V30 13329 C 1226.91 -1.38799 1.36967 0
M  V30 13330 O 1226.18 -1.88868 0.520173 0
M  V30 13331 H 1224.76 -0.0261718 0.746541 0
M  V30 13332 H 1227.43 0.640692 1.84068 0
M  V30 13333 H 1226.52 -0.202856 3.1144 0
M  V30 13334 N 1226.82 -1.56058 0.219941 0
M  V30 13335 C 1227.75 -2.2321 -0.685547 0
M  V30 13336 C 1228.73 -1.20328 -1.20229 0
M  V30 13337 O 1229.92 -1.48909 -1.24659 0
M  V30 13338 C 1227.05 -2.91076 -1.89452 0
M  V30 13339 C 1226 -4.00415 -1.51169 0
M  V30 13340 C 1225.33 -4.55569 -2.79931 0
M  V30 13341 C 1226.63 -5.17549 -0.702896 0
M  V30 13342 H 1228.32 -2.99136 -0.125671 0
M  V30 13343 H 1225.87 -1.43879 -0.0590043 0
M  V30 13344 H 1227.82 -3.36744 -2.53341 0
M  V30 13345 H 1226.55 -2.12594 -2.47934 0
M  V30 13346 H 1225.21 -3.55475 -0.896275 0
M  V30 13347 H 1224.85 -3.73819 -3.36553 0
M  V30 13348 H 1224.55 -5.29361 -2.55049 0
M  V30 13349 H 1226.08 -5.03955 -3.44764 0
M  V30 13350 H 1227.49 -5.59608 -1.24544 0
M  V30 13351 H 1225.89 -5.97563 -0.551234 0
M  V30 13352 H 1226.96 -4.84027 0.29083 0
M  V30 13353 N 1228.3 0.053464 -1.57509 0
M  V30 13354 C 1229.53 0.765301 -1.92764 0
M  V30 13355 C 1229.95 1.69385 -0.817943 0
M  V30 13356 O 1229.31 1.7986 0.228075 0
M  V30 13357 C 1229.36 1.51938 -3.27028 0
M  V30 13358 O 1228.46 2.63121 -3.17555 0
M  V30 13359 H 1227.8 0.207567 -0.630723 0
M  V30 13360 H 1230.33 0.0162254 -2.04594 0
M  V30 13361 H 1230.34 1.89466 -3.6134 0
M  V30 13362 H 1229.02 0.838207 -4.07366 0
M  V30 13363 H 1227.59 2.28316 -2.94832 0
M  V30 13364 N 1229.78 1.54207 0.325255 0
M  V30 13365 C 1231.03 1.72587 1.06497 0
M  V30 13366 C 1231.36 0.497228 1.87727 0
M  V30 13367 O 1230.63 -0.505804 1.87808 0
M  V30 13368 C 1230.92 3.00046 1.99109 0
M  V30 13369 C 1230.77 4.33158 1.21221 0
M  V30 13370 C 1232.09 3.23251 2.98658 0
M  V30 13371 H 1229.21 0.627974 0.38577 0
M  V30 13372 H 1231.85 1.869 0.34179 0
M  V30 13373 H 1230 2.87973 2.60775 0
M  V30 13374 H 1231.67 4.57111 0.620289 0
M  V30 13375 H 1229.91 4.30739 0.514462 0
M  V30 13376 H 1230.59 5.18558 1.89214 0
M  V30 13377 H 1233.06 3.34774 2.47114 0
M  V30 13378 H 1231.94 4.13796 3.60645 0
M  V30 13379 H 1232.2 2.40401 3.71026 0
M  V30 13380 N 1231.26 -0.58723 1.46251 0
M  V30 13381 C 1232.19 -1.70694 1.5933 0
M  V30 13382 C 1233.17 -1.64208 0.443831 0
M  V30 13383 O 1234.35 -1.82294 0.669516 0
M  V30 13384 C 1231.48 -3.0933 1.579 0
M  V30 13385 C 1230.44 -3.30643 2.7177 0
M  V30 13386 C 1229.76 -4.69761 2.554 0
M  V30 13387 C 1231.06 -3.18916 4.1363 0
M  V30 13388 H 1232.76 -1.60004 2.53059 0
M  V30 13389 H 1230.3 -0.768343 1.21789 0
M  V30 13390 H 1232.26 -3.87479 1.65644 0
M  V30 13391 H 1230.98 -3.20907 0.60712 0
M  V30 13392 H 1229.64 -2.54892 2.63488 0
M  V30 13393 H 1229.29 -4.78098 1.56306 0
M  V30 13394 H 1228.99 -4.84974 3.31774 0
M  V30 13395 H 1230.51 -5.50084 2.65028 0
M  V30 13396 H 1231.93 -3.86915 4.23048 0
M  V30 13397 H 1230.32 -3.45653 4.90555 0
M  V30 13398 H 1231.39 -2.1606 4.34104 0
M  V30 13399 N 1232.74 -1.33881 -0.831482 0
M  V30 13400 C 1234.15 -1.13376 -1.1233 0
M  V30 13401 C 1234.35 0.0704402 -2.01377 0
M  V30 13402 O 1233.41 0.748516 -2.4115 0
M  V30 13403 C 1234.72 -2.42484 -1.77826 0
M  V30 13404 C 1236.27 -2.4846 -1.90359 0
M  V30 13405 C 1236.74 -3.77548 -2.59272 0
M  V30 13406 N 1238.23 -3.7866 -2.66778 0
M  V30 13407 C 1238.97 -4.75258 -3.20807 0
M  V30 13408 N 1238.47 -5.82234 -3.75466 0
M  V30 13409 N 1240.26 -4.62724 -3.19128 0
M  V30 13410 H 1232.41 -2.11051 -0.238998 0
M  V30 13411 H 1234.67 -0.932893 -0.168565 0
M  V30 13412 H 1234.38 -3.30647 -1.19857 0
M  V30 13413 H 1234.25 -2.55186 -2.77777 0
M  V30 13414 H 1236.64 -1.60742 -2.47479 0
M  V30 13415 H 1236.72 -2.39693 -0.893359 0
M  V30 13416 H 1236.36 -4.65651 -2.02808 0
M  V30 13417 H 1236.29 -3.83594 -3.60781 0
M  V30 13418 H 1238.79 -3.01351 -2.28026 0
M  V30 13419 H 1239.1 -6.51968 -4.14918 0
M  V30 13420 H 1237.44 -5.85959 -3.73733 0
M  V30 13421 H 1240.63 -3.78303 -2.75688 0
M  V30 13422 H 1240.81 -5.38175 -3.60932 0
M  V30 13423 N 1234.21 1.05064 -1.1747 0
M  V30 13424 C 1235.44 1.82299 -0.98903 0
M  V30 13425 C 1235.86 1.82441 0.457907 0
M  V30 13426 O 1235.22 1.23433 1.32793 0
M  V30 13427 C 1235.27 3.26239 -1.53624 0
M  V30 13428 O 1234.37 4.05507 -0.750857 0
M  V30 13429 H 1233.71 0.563601 -0.35107 0
M  V30 13430 H 1236.24 1.32386 -1.55997 0
M  V30 13431 H 1236.25 3.77038 -1.55906 0
M  V30 13432 H 1234.93 3.25451 -2.58949 0
M  V30 13433 H 1233.51 3.64227 -0.799548 0
M  V30 13434 N 1235.69 0.975146 1.23809 0
M  V30 13435 C 1236.94 0.641124 1.92083 0
M  V30 13436 C 1237.27 -0.824671 1.76152 0
M  V30 13437 O 1236.52 -1.6097 1.11298 0
M  V30 13438 C 1236.82 0.971016 3.43956 0
M  V30 13439 C 1236.49 2.42616 3.80063 0
M  V30 13440 C 1235.15 2.82386 3.8963 0
M  V30 13441 C 1237.5 3.37019 3.97577 0
M  V30 13442 C 1234.83 4.15585 4.14133 0
M  V30 13443 C 1237.18 4.69855 4.23579 0
M  V30 13444 C 1235.84 5.09391 4.31366 0
M  V30 13445 H 1235.11 0.234604 0.702881 0
M  V30 13446 H 1237.76 1.22803 1.46941 0
M  V30 13447 H 1236.07 0.301965 3.90635 0
M  V30 13448 H 1237.76 0.690858 3.95004 0
M  V30 13449 H 1234.35 2.10782 3.73187 0
M  V30 13450 H 1238.54 3.07474 3.89581 0
M  V30 13451 H 1233.79 4.45831 4.18383 0
M  V30 13452 H 1237.97 5.42966 4.36074 0
M  V30 13453 H 1235.59 6.12624 4.50106 0
M  V30 13454 N 1237.17 -1.38817 0.746158 0
M  V30 13455 C 1238.59 -1.53894 0.42294 0
M  V30 13456 C 1238.79 -1.71064 -1.06486 0
M  V30 13457 O 1237.84 -1.71744 -1.85095 0
M  V30 13458 C 1239.15 -2.75029 1.2157 0
M  V30 13459 C 1240.7 -2.88873 1.20504 0
M  V30 13460 C 1241.18 -4.1296 1.9806 0
M  V30 13461 N 1242.67 -4.20022 1.95283 0
M  V30 13462 C 1243.4 -5.15011 2.52093 0
M  V30 13463 N 1242.9 -6.1572 3.17586 0
M  V30 13464 N 1244.69 -5.07308 2.42064 0
M  V30 13465 H 1236.84 -1.25921 1.71049 0
M  V30 13466 H 1239.11 -0.611148 0.724708 0
M  V30 13467 H 1238.81 -2.68722 2.26895 0
M  V30 13468 H 1238.69 -3.68009 0.827593 0
M  V30 13469 H 1241.07 -2.94667 0.159877 0
M  V30 13470 H 1241.15 -1.96925 1.63261 0
M  V30 13471 H 1240.8 -4.07929 3.02583 0
M  V30 13472 H 1240.73 -5.03974 1.52702 0
M  V30 13473 H 1243.22 -3.47892 1.4758 0
M  V30 13474 H 1243.53 -6.84682 3.58373 0
M  V30 13475 H 1241.88 -6.16075 3.21678 0
M  V30 13476 H 1245.07 -4.27569 1.90532 0
M  V30 13477 H 1245.24 -5.81158 2.86635 0
M  V30 13478 N 1238.65 -0.49465 -1.49636 0
M  V30 13479 C 1239.58 0.276606 -2.31856 0
M  V30 13480 C 1240.56 0.968499 -1.39836 0
M  V30 13481 O 1241.74 0.96113 -1.68748 0
M  V30 13482 C 1238.87 1.34522 -3.20189 0
M  V30 13483 C 1237.83 0.773571 -4.20951 0
M  V30 13484 C 1237.15 1.94223 -4.98178 0
M  V30 13485 C 1238.45 -0.231096 -5.21788 0
M  V30 13486 H 1240.15 -0.409668 -2.96584 0
M  V30 13487 H 1237.69 -0.198461 -1.42626 0
M  V30 13488 H 1239.65 1.89244 -3.76517 0
M  V30 13489 H 1238.37 2.06059 -2.53392 0
M  V30 13490 H 1237.03 0.248144 -3.65759 0
M  V30 13491 H 1236.68 2.64514 -4.27834 0
M  V30 13492 H 1236.38 1.56584 -5.66353 0
M  V30 13493 H 1237.9 2.49391 -5.57348 0
M  V30 13494 H 1239.32 0.227768 -5.72847 0
M  V30 13495 H 1237.71 -0.522984 -5.97817 0
M  V30 13496 H 1238.78 -1.14914 -4.71087 0
M  V30 13497 N 1240.13 1.55939 -0.228214 0
M  V30 13498 C 1241.06 2.2357 0.6737 0
M  V30 13499 C 1242.04 1.20964 1.1959 0
M  V30 13500 O 1243.22 1.49568 1.23867 0
M  V30 13501 C 1240.35 2.92076 1.87906 0
M  V30 13502 C 1239.31 4.01211 1.49043 0
M  V30 13503 C 1238.63 4.57047 2.77511 0
M  V30 13504 C 1239.93 5.17914 0.67544 0
M  V30 13505 H 1241.63 2.99199 0.109806 0
M  V30 13506 H 1239.17 1.43908 0.0513732 0
M  V30 13507 H 1241.12 3.38083 2.51551 0
M  V30 13508 H 1239.85 2.13906 2.46803 0
M  V30 13509 H 1238.51 3.55945 0.877411 0
M  V30 13510 H 1238.16 3.75599 3.34566 0
M  V30 13511 H 1237.86 5.30707 2.52239 0
M  V30 13512 H 1239.38 5.05776 3.42087 0
M  V30 13513 H 1240.79 5.60261 1.21575 0
M  V30 13514 H 1239.19 5.97847 0.519536 0
M  V30 13515 H 1240.26 4.83866 -0.316495 0
M  V30 13516 N 1241.6 -0.0451101 1.57535 0
M  V30 13517 C 1243.02 -0.400463 1.54494 0
M  V30 13518 C 1243.22 -1.77584 0.952166 0
M  V30 13519 O 1242.28 -2.46069 0.566221 0
M  V30 13520 C 1243.59 -0.31703 2.99024 0
M  V30 13521 C 1245.14 -0.395284 3.10494 0
M  V30 13522 C 1245.61 -0.341475 4.56725 0
M  V30 13523 N 1247.1 -0.400755 4.61463 0
M  V30 13524 C 1247.84 -0.381757 5.72128 0
M  V30 13525 N 1247.33 -0.315995 6.92079 0
M  V30 13526 N 1249.13 -0.4303 5.60451 0
M  V30 13527 H 1241.28 0.855156 1.94424 0
M  V30 13528 H 1243.54 0.323618 0.891053 0
M  V30 13529 H 1243.25 0.627477 3.46057 0
M  V30 13530 H 1243.12 -1.11696 3.60283 0
M  V30 13531 H 1245.51 -1.33022 2.63418 0
M  V30 13532 H 1245.59 0.433709 2.52096 0
M  V30 13533 H 1245.23 0.589725 5.04465 0
M  V30 13534 H 1245.16 -1.18836 5.13016 0
M  V30 13535 H 1247.65 -0.454745 3.75154 0
M  V30 13536 H 1247.97 -0.306158 7.72193 0
M  V30 13537 H 1246.31 -0.282281 6.94427 0
M  V30 13538 H 1249.5 -0.479555 4.65637 0
M  V30 13539 H 1249.68 -0.412025 6.46689 0
M  V30 13540 N 1243.08 -1.54377 -0.317073 0
M  V30 13541 C 1244.33 -1.73149 -1.05581 0
M  V30 13542 C 1244.66 -0.507176 -1.8746 0
M  V30 13543 O 1243.94 0.495837 -1.88074 0
M  V30 13544 C 1244.22 -3.01098 -1.97515 0
M  V30 13545 C 1244.07 -4.33794 -1.18922 0
M  V30 13546 C 1245.39 -3.24831 -2.9694 0
M  V30 13547 H 1242.51 -0.630011 -0.382434 0
M  V30 13548 H 1245.15 -1.87079 -0.331873 0
M  V30 13549 H 1243.3 -2.89352 -2.59244 0
M  V30 13550 H 1244.97 -4.57433 -0.596039 0
M  V30 13551 H 1243.22 -4.31005 -0.491612 0
M  V30 13552 H 1243.89 -5.19554 -1.86462 0
M  V30 13553 H 1246.36 -3.3608 -2.45335 0
M  V30 13554 H 1245.24 -4.15702 -3.58445 0
M  V30 13555 H 1245.5 -2.42365 -3.69745 0
M  V30 13556 N 1244.56 0.579466 -1.4656 0
M  V30 13557 C 1245.81 1.33756 -1.52038 0
M  V30 13558 C 1246.14 1.93725 -0.173423 0
M  V30 13559 O 1245.39 1.77167 0.831293 0
M  V30 13560 C 1245.69 2.48417 -2.56951 0
M  V30 13561 C 1245.36 2.0642 -4.00876 0
M  V30 13562 C 1244.02 1.94682 -4.4006 0
M  V30 13563 C 1246.37 1.74066 -4.91274 0
M  V30 13564 C 1243.7 1.48852 -5.67503 0
M  V30 13565 C 1246.05 1.29714 -6.19158 0
M  V30 13566 C 1244.71 1.16555 -6.57245 0
M  V30 13567 H 1243.98 0.489447 -0.556347 0
M  V30 13568 H 1246.63 0.652176 -1.80053 0
M  V30 13569 H 1244.94 3.22416 -2.2261 0
M  V30 13570 H 1246.63 3.06629 -2.58418 0
M  V30 13571 H 1243.22 2.16492 -3.69904 0
M  V30 13572 H 1247.41 1.82019 -4.61717 0
M  V30 13573 H 1242.66 1.3731 -5.95782 0
M  V30 13574 H 1246.84 1.03734 -6.88631 0
M  V30 13575 H 1244.46 0.808193 -7.55892 0
M  V30 13576 N 1246.04 1.3432 0.824371 0
M  V30 13577 C 1246.99 1.25776 1.93517 0
M  V30 13578 C 1247.96 0.133298 1.65564 0
M  V30 13579 O 1249.14 0.31403 1.88198 0
M  V30 13580 C 1246.28 1.01766 3.29754 0
M  V30 13581 C 1245.39 2.22973 3.7001 0
M  V30 13582 C 1244.53 1.92258 4.95187 0
M  V30 13583 C 1243.57 3.09616 5.2802 0
M  V30 13584 N 1242.7 2.78793 6.44375 0
M  V30 13585 H 1247.54 2.20774 2.00157 0
M  V30 13586 H 1245.08 1.09766 0.979274 0
M  V30 13587 H 1247.04 0.858831 4.08265 0
M  V30 13588 H 1245.67 0.10437 3.22631 0
M  V30 13589 H 1244.72 2.49781 2.86903 0
M  V30 13590 H 1246.03 3.10661 3.90245 0
M  V30 13591 H 1245.19 1.73102 5.81481 0
M  V30 13592 H 1243.93 1.01827 4.76951 0
M  V30 13593 H 1242.93 3.29368 4.40223 0
M  V30 13594 H 1244.16 4.00822 5.48196 0
M  V30 13595 H 1242.1 1.90938 6.27598 0
M  V30 13596 H 1242.02 3.60014 6.64775 0
M  V30 13597 H 1243.29 2.63139 7.33743 0
M  V30 13598 N 1247.52 -1.0444 1.18026 0
M  V30 13599 C 1248.45 -2.14297 0.927314 0
M  V30 13600 C 1249.43 -1.69575 -0.13357 0
M  V30 13601 O 1250.61 -1.94191 0.0182439 0
M  V30 13602 C 1247.74 -3.44397 0.448134 0
M  V30 13603 C 1246.7 -4.02723 1.44907 0
M  V30 13604 C 1246.02 -5.28257 0.827555 0
M  V30 13605 C 1247.32 -4.39331 2.82463 0
M  V30 13606 H 1249.02 -2.35715 1.84605 0
M  V30 13607 H 1246.56 -1.13281 0.889012 0
M  V30 13608 H 1248.52 -4.20606 0.258554 0
M  V30 13609 H 1247.24 -3.22654 -0.506159 0
M  V30 13610 H 1245.9 -3.28591 1.62552 0
M  V30 13611 H 1245.55 -5.02822 -0.13381 0
M  V30 13612 H 1245.25 -5.68242 1.49581 0
M  V30 13613 H 1246.77 -6.07147 0.64842 0
M  V30 13614 H 1248.18 -5.06543 2.68491 0
M  V30 13615 H 1246.58 -4.90355 3.45936 0
M  V30 13616 H 1247.65 -3.4933 3.36299 0
M  V30 13617 N 1248.99 -0.981699 -1.2329 0
M  V30 13618 C 1249.96 -0.527992 -2.23036 0
M  V30 13619 C 1250.96 0.383083 -1.5617 0
M  V30 13620 O 1252.15 0.176595 -1.73303 0
M  V30 13621 C 1249.28 0.233501 -3.40099 0
M  V30 13622 H 1250.47 -1.40995 -2.64689 0
M  V30 13623 H 1248.03 -0.767724 -1.36146 0
M  V30 13624 H 1248.76 1.13194 -3.03904 0
M  V30 13625 H 1248.55 -0.420505 -3.89839 0
M  V30 13626 H 1250.04 0.539485 -4.14101 0
M  V30 13627 N 1250.47 1.3842 -0.753509 0
M  V30 13628 C 1251.42 2.30457 -0.12574 0
M  V30 13629 C 1252.39 1.50173 0.709728 0
M  V30 13630 O 1253.57 1.78804 0.665872 0
M  V30 13631 C 1250.71 3.36593 0.761503 0
M  V30 13632 C 1249.83 4.31909 -0.0885848 0
M  V30 13633 C 1248.96 5.25116 0.801655 0
M  V30 13634 C 1248 6.12078 -0.0520719 0
M  V30 13635 N 1247.14 6.97583 0.795124 0
M  V30 13636 H 1251.98 2.83567 -0.916187 0
M  V30 13637 H 1249.52 1.39609 -0.463436 0
M  V30 13638 H 1251.47 3.96738 1.29054 0
M  V30 13639 H 1250.1 2.84894 1.51774 0
M  V30 13640 H 1249.16 3.73227 -0.735249 0
M  V30 13641 H 1250.47 4.93161 -0.747899 0
M  V30 13642 H 1249.62 5.90377 1.39786 0
M  V30 13643 H 1248.36 4.6423 1.4947 0
M  V30 13644 H 1247.37 5.45813 -0.660946 0
M  V30 13645 H 1248.59 6.75032 -0.742178 0
M  V30 13646 H 1246.54 6.39246 1.47312 0
M  V30 13647 H 1246.45 7.55754 0.192705 0
M  V30 13648 H 1247.72 7.67254 1.3763 0
M  V30 13649 N 1251.95 0.502579 1.49372 0
M  V30 13650 C 1253.18 -0.0403087 2.07361 0
M  V30 13651 C 1253.6 -1.29918 1.36026 0
M  V30 13652 O 1252.96 -1.76428 0.417488 0
M  V30 13653 C 1253.01 -0.275362 3.59547 0
M  V30 13654 O 1252.11 -1.34975 3.89686 0
M  V30 13655 H 1251.45 0.0269268 0.663454 0
M  V30 13656 H 1253.98 0.702652 1.92156 0
M  V30 13657 H 1253.99 -0.506392 4.04845 0
M  V30 13658 H 1252.67 0.644382 4.10878 0
M  V30 13659 H 1251.24 -1.10355 3.56197 0
M  V30 13660 N 1253.43 -1.55816 0.23648 0
M  V30 13661 C 1254.67 -1.99725 -0.384898 0
M  V30 13662 C 1255.03 -1.12169 -1.5632 0
M  V30 13663 O 1254.32 -0.17491 -1.908 0
M  V30 13664 C 1254.52 -3.47039 -0.85434 0
M  V30 13665 C 1254.35 -4.48847 0.276929 0
M  V30 13666 C 1253.12 -4.9973 0.748215 0
M  V30 13667 C 1255.31 -5.02391 1.10036 0
M  V30 13668 N 1253.3 -5.85267 1.85298 0
M  V30 13669 C 1254.67 -5.84998 2.0537 0
M  V30 13670 C 1256.72 -4.84718 1.1381 0
M  V30 13671 C 1255.42 -6.5182 3.04177 0
M  V30 13672 C 1257.45 -5.5231 2.11442 0
M  V30 13673 C 1256.81 -6.34697 3.05514 0
M  V30 13674 H 1252.91 -0.774632 -0.107094 0
M  V30 13675 H 1255.5 -1.91498 0.351673 0
M  V30 13676 H 1253.67 -3.55684 -1.56023 0
M  V30 13677 H 1255.4 -3.7784 -1.44979 0
M  V30 13678 H 1252.15 -4.7242 0.334178 0
M  V30 13679 H 1252.58 -6.32735 2.40782 0
M  V30 13680 H 1257.22 -4.20662 0.424703 0
M  V30 13681 H 1254.94 -7.15049 3.76471 0
M  V30 13682 H 1258.52 -5.40594 2.15056 0
M  V30 13683 H 1257.4 -6.86077 3.79827 0
M  V30 13684 N 1254.91 0.036755 -1.57557 0
M  V30 13685 C 1256.32 0.584324 -1.7732 0
M  V30 13686 C 1256.67 1.76025 -0.86658 0
M  V30 13687 O 1255.79 2.16318 -0.059443 0
M  V30 13688 C 1256.39 1.06679 -3.21566 0
M  V30 13689 C 1254.95 1.55994 -3.42553 0
M  V30 13690 C 1254.09 0.494604 -2.72853 0
M  V30 13691 H 1257.05 -0.189473 -1.57565 0
M  V30 13692 H 1257.07 1.93446 -3.27657 0
M  V30 13693 H 1256.58 0.210727 -3.87527 0
M  V30 13694 H 1254.68 2.43811 -2.81757 0
M  V30 13695 H 1254.79 1.61274 -4.5114 0
M  V30 13696 H 1253.16 0.947865 -2.36406 0
M  V30 13697 H 1253.94 -0.351868 -3.41492 0
M  V30 13698 N 1256.39 1.54543 0.308881 0
M  V30 13699 C 1257.61 1.77431 1.06422 0
M  V30 13700 C 1258.03 0.529972 1.81209 0
M  V30 13701 O 1257.39 -0.499912 1.7552 0
M  V30 13702 C 1257.44 2.9769 2.05092 0
M  V30 13703 O 1257.16 4.17315 1.33341 0
M  V30 13704 C 1258.66 3.32905 2.92727 0
M  V30 13705 H 1255.88 0.591961 0.315948 0
M  V30 13706 H 1258.42 2.01473 0.350547 0
M  V30 13707 H 1256.58 2.7588 2.71973 0
M  V30 13708 H 1256.99 4.85061 1.99539 0
M  V30 13709 H 1258.47 4.20314 3.57827 0
M  V30 13710 H 1258.94 2.50713 3.6061 0
M  V30 13711 H 1259.55 3.56847 2.31388 0
M  V30 13712 N 1257.86 -0.571685 1.46866 0
M  V30 13713 C 1258.79 -1.68994 1.61131 0
M  V30 13714 C 1259.77 -1.63728 0.461222 0
M  V30 13715 O 1260.96 -1.81574 0.688813 0
M  V30 13716 C 1258.09 -3.07638 1.61172 0
M  V30 13717 C 1257.04 -3.27742 2.75262 0
M  V30 13718 C 1256.37 -4.67025 2.60368 0
M  V30 13719 C 1257.67 -3.14511 4.16989 0
M  V30 13720 H 1259.36 -1.57311 2.54742 0
M  V30 13721 H 1256.91 -0.755382 1.22597 0
M  V30 13722 H 1258.86 -3.857 1.69744 0
M  V30 13723 H 1257.59 -3.20245 0.641122 0
M  V30 13724 H 1256.25 -2.52083 2.66176 0
M  V30 13725 H 1255.89 -4.76413 1.61368 0
M  V30 13726 H 1255.59 -4.81428 3.36899 0
M  V30 13727 H 1257.12 -5.47242 2.70848 0
M  V30 13728 H 1258.53 -3.82407 4.27128 0
M  V30 13729 H 1256.93 -3.40431 4.94193 0
M  V30 13730 H 1258 -2.11443 4.36371 0
M  V30 13731 N 1259.34 -1.34755 -0.817236 0
M  V30 13732 C 1260.29 -1.26816 -1.94988 0
M  V30 13733 C 1261.28 -0.165142 -1.68593 0
M  V30 13734 O 1262.49 -0.330469 -1.7694 0
M  V30 13735 H 1258.86 -0.394113 -0.640452 0
M  V30 13736 H 1260.84 -2.22528 -1.98806 0
M  V30 13737 C 1259.58 -1.04625 -3.31586 0
M  V30 13738 H 1258.91 -1.88735 -3.52447 0
M  V30 13739 H 1260.35 -1.03108 -4.11272 0
M  V30 13740 C 1258.81 0.250283 -3.35969 0
M  V30 13741 O 1259.34 1.24972 -3.81765 0
M  V30 13742 N 1257.54 0.285369 -2.89195 0
M  V30 13743 H 1257.09 -0.528528 -2.5212 0
M  V30 13744 H 1257.05 1.15261 -2.9251 0
M  V30 13745 N 1260.82 1.03812 -1.18578 0
M  V30 13746 C 1261.75 2.11436 -0.858502 0
M  V30 13747 C 1262.73 1.61594 0.180604 0
M  V30 13748 O 1263.91 1.88408 0.058995 0
M  V30 13749 C 1261.04 3.37514 -0.283154 0
M  V30 13750 C 1260.09 4.0621 -1.29985 0
M  V30 13751 S 1260.92 4.52936 -2.85673 0
M  V30 13752 C 1262.08 5.82245 -2.29656 0
M  V30 13753 H 1262.31 2.38871 -1.76997 0
M  V30 13754 H 1259.84 1.16617 -1.01192 0
M  V30 13755 H 1261.8 4.10478 0.0422898 0
M  V30 13756 H 1260.46 3.08189 0.60647 0
M  V30 13757 H 1259.65 4.96845 -0.84621 0
M  V30 13758 H 1259.26 3.39374 -1.57166 0
M  V30 13759 H 1261.55 6.56321 -1.68074 0
M  V30 13760 H 1262.49 6.32375 -3.18602 0
M  V30 13761 H 1262.9 5.37472 -1.72581 0
M  V30 13762 N 1262.3 0.988223 1.22768 0
M  V30 13763 C 1263.23 0.554478 2.26821 0
M  V30 13764 C 1264.21 -0.416293 1.64927 0
M  V30 13765 O 1265.39 -0.30795 1.91743 0
M  V30 13766 C 1262.52 -0.136266 3.47033 0
M  V30 13767 C 1261.48 0.752575 4.21332 0
M  V30 13768 C 1260.8 -0.0708236 5.34653 0
M  V30 13769 C 1262.1 2.04717 4.80508 0
M  V30 13770 H 1263.8 1.42423 2.63355 0
M  V30 13771 H 1261.34 0.686267 1.26595 0
M  V30 13772 H 1263.3 -0.451068 4.18979 0
M  V30 13773 H 1262.02 -1.04053 3.09581 0
M  V30 13774 H 1260.68 1.05095 3.51213 0
M  V30 13775 H 1260.33 -0.975859 4.93443 0
M  V30 13776 H 1260.03 0.520835 5.85287 0
M  V30 13777 H 1261.55 -0.379828 6.09417 0
M  V30 13778 H 1262.97 1.79663 5.44421 0
M  V30 13779 H 1261.36 2.58726 5.41462 0
M  V30 13780 H 1262.43 2.72896 4.00819 0
M  V30 13781 N 1263.78 -1.38018 0.760839 0
M  V30 13782 C 1265.02 -1.99194 0.316984 0
M  V30 13783 C 1265.34 -1.61083 -1.10958 0
M  V30 13784 O 1266.54 -2.15281 -1.65428 0
M  V30 13785 C 1265 -3.56185 0.515792 0
M  V30 13786 C 1264.61 -4.03242 1.95191 0
M  V30 13787 C 1266.35 -4.24285 0.135013 0
M  V30 13788 C 1264.26 -5.52902 2.0989 0
M  V30 13789 H 1263.19 -0.745214 0.114771 0
M  V30 13790 H 1265.84 -1.5769 0.938415 0
M  V30 13791 H 1264.22 -3.95613 -0.174934 0
M  V30 13792 H 1265.4 -3.75086 2.6767 0
M  V30 13793 H 1263.71 -3.47889 2.28827 0
M  V30 13794 H 1266.31 -5.34233 0.223495 0
M  V30 13795 H 1266.65 -4.06158 -0.913322 0
M  V30 13796 H 1267.18 -3.90121 0.777868 0
M  V30 13797 H 1263.92 -5.75942 3.13003 0
M  V30 13798 H 1263.44 -5.82778 1.41881 0
M  V30 13799 H 1265.12 -6.18709 1.89229 0
M  V30 13800 N 1265.25 -0.510493 -1.49103 0
M  V30 13801 C 1266.2 0.262848 -2.29298 0
M  V30 13802 C 1267.17 0.951714 -1.36131 0
M  V30 13803 O 1268.36 0.956534 -1.65091 0
M  V30 13804 C 1265.5 1.31565 -3.19037 0
M  V30 13805 C 1264.61 0.637598 -4.27269 0
M  V30 13806 C 1263.74 1.67165 -5.04212 0
M  V30 13807 C 1262.78 0.975992 -6.04269 0
M  V30 13808 N 1261.92 1.95468 -6.74342 0
M  V30 13809 H 1266.76 -0.427246 -2.94921 0
M  V30 13810 H 1264.3 -0.222538 -1.45407 0
M  V30 13811 H 1266.25 1.93813 -3.69449 0
M  V30 13812 H 1264.88 1.97438 -2.55379 0
M  V30 13813 H 1263.94 -0.0983863 -3.80273 0
M  V30 13814 H 1265.25 0.0904435 -4.98718 0
M  V30 13815 H 1264.4 2.36893 -5.5854 0
M  V30 13816 H 1263.14 2.25267 -4.32557 0
M  V30 13817 H 1262.15 0.264534 -5.49163 0
M  V30 13818 H 1263.37 0.40134 -6.77913 0
M  V30 13819 H 1261.32 2.52515 -6.05452 0
M  V30 13820 H 1261.23 1.45845 -7.41799 0
M  V30 13821 H 1262.5 2.64455 -7.33269 0
M  V30 13822 N 1266.73 1.55688 -0.24474 0
M  V30 13823 C 1267.98 1.98067 0.381081 0
M  V30 13824 C 1268.29 1.13606 1.59227 0
M  V30 13825 O 1269.5 1.45988 2.2891 0
M  V30 13826 C 1267.96 3.52432 0.729385 0
M  V30 13827 C 1267.56 4.45629 -0.460282 0
M  V30 13828 C 1269.31 4.03471 1.31952 0
M  V30 13829 C 1267.21 5.91334 -0.088252 0
M  V30 13830 H 1266.14 0.739699 0.146157 0
M  V30 13831 H 1268.8 1.80235 -0.344615 0
M  V30 13832 H 1267.18 3.65951 1.51315 0
M  V30 13833 H 1268.35 4.43868 -1.23764 0
M  V30 13834 H 1266.67 4.05059 -0.965197 0
M  V30 13835 H 1269.26 5.09849 1.61116 0
M  V30 13836 H 1269.61 3.50691 2.24325 0
M  V30 13837 H 1270.14 3.93269 0.5987 0
M  V30 13838 H 1266.88 6.48147 -0.979069 0
M  V30 13839 H 1266.4 5.96235 0.652947 0
M  V30 13840 H 1268.08 6.46156 0.330324 0
M  V30 13841 N 1268.21 -0.0283989 1.57574 0
M  V30 13842 C 1269.46 -0.718121 1.88483 0
M  V30 13843 C 1269.77 -1.76485 0.843345 0
M  V30 13844 O 1270.98 -2.50721 1.04169 0
M  V30 13845 C 1269.43 -1.32832 3.3449 0
M  V30 13846 C 1269.04 -0.317905 4.46871 0
M  V30 13847 C 1270.79 -1.99788 3.74546 0
M  V30 13848 C 1268.69 -0.936489 5.83938 0
M  V30 13849 H 1267.62 -0.271969 0.703242 0
M  V30 13850 H 1270.27 0.0274862 1.83479 0
M  V30 13851 H 1268.66 -2.12366 3.34241 0
M  V30 13852 H 1269.83 0.450767 4.5859 0
M  V30 13853 H 1268.14 0.249605 4.15651 0
M  V30 13854 H 1270.74 -2.46923 4.74271 0
M  V30 13855 H 1271.08 -2.81633 3.06575 0
M  V30 13856 H 1271.62 -1.27029 3.76973 0
M  V30 13857 H 1268.36 -0.15744 6.55311 0
M  V30 13858 H 1267.88 -1.67499 5.75938 0
M  V30 13859 H 1269.56 -1.44363 6.30689 0
M  V30 13860 N 1269.69 -1.54705 -0.300681 0
M  V30 13861 C 1270.94 -1.73658 -1.0338 0
M  V30 13862 C 1271.26 -0.525447 -1.87787 0
M  V30 13863 O 1270.53 0.460269 -1.90416 0
M  V30 13864 H 1269.11 -0.640338 -0.384677 0
M  V30 13865 H 1271.77 -1.92059 -0.331588 0
M  V30 13866 H 1270.86 -2.62595 -1.68672 0
M  V30 13867 N 1271.17 0.563888 -1.47167 0
M  V30 13868 C 1272.11 1.69254 -1.59549 0
M  V30 13869 C 1273.11 1.62948 -0.463078 0
M  V30 13870 O 1274.31 1.68214 -0.640639 0
M  V30 13871 H 1270.69 0.559925 -0.501984 0
M  V30 13872 H 1272.66 1.55946 -2.54408 0
M  V30 13873 C 1271.41 3.0762 -1.62066 0
M  V30 13874 H 1270.73 3.13151 -2.48549 0
M  V30 13875 H 1272.17 3.863 -1.74781 0
M  V30 13876 C 1270.63 3.35048 -0.352721 0
M  V30 13877 O 1271.16 3.9793 0.549053 0
M  V30 13878 N 1269.37 2.8965 -0.234805 0
M  V30 13879 H 1268.91 2.38657 -0.969561 0
M  V30 13880 H 1268.87 3.08373 0.61263 0
M  V30 13881 N 1272.64 1.35187 0.810078 0
M  V30 13882 C 1273.87 1.31528 1.60359 0
M  V30 13883 C 1274.29 -0.105385 1.87805 0
M  V30 13884 O 1273.65 -1.07113 1.46276 0
M  V30 13885 C 1273.7 2.12429 2.91386 0
M  V30 13886 O 1272.8 1.50262 3.84051 0
M  V30 13887 H 1272.15 0.451122 0.487222 0
M  V30 13888 H 1274.68 1.78178 1.00568 0
M  V30 13889 H 1274.69 2.24257 3.40841 0
M  V30 13890 H 1273.36 3.15714 2.70735 0
M  V30 13891 H 1271.94 1.47253 3.42594 0
M  V30 13892 N 1274.12 -1.03182 1.19127 0
M  V30 13893 C 1275.37 -1.76794 0.993563 0
M  V30 13894 C 1275.7 -1.88306 -0.474809 0
M  V30 13895 O 1274.98 -1.39769 -1.35258 0
M  V30 13896 C 1275.26 -3.19573 1.65968 0
M  V30 13897 C 1275.11 -3.1595 3.2015 0
M  V30 13898 C 1276.43 -4.17897 1.38023 0
M  V30 13899 H 1273.55 -0.641768 0.362357 0
M  V30 13900 H 1276.19 -1.20472 1.46924 0
M  V30 13901 H 1274.34 -3.67663 1.25524 0
M  V30 13902 H 1276.01 -2.7578 3.69788 0
M  V30 13903 H 1274.26 -2.53743 3.51848 0
M  V30 13904 H 1274.93 -4.16811 3.61901 0
M  V30 13905 H 1277.4 -3.78394 1.73082 0
M  V30 13906 H 1276.28 -5.15997 1.87186 0
M  V30 13907 H 1276.54 -4.41048 0.304812 0
M  V30 13908 N 1275.6 -0.99472 -1.22242 0
M  V30 13909 C 1276.85 -0.670275 -1.90661 0
M  V30 13910 C 1277.17 0.800369 -1.77818 0
M  V30 13911 O 1276.44 1.57381 -1.16653 0
M  V30 13912 H 1275.02 -0.244925 -0.705706 0
M  V30 13913 H 1277.68 -1.26162 -1.48557 0
M  V30 13914 H 1276.78 -0.934408 -2.97784 0
M  V30 13915 N 1277.08 1.37613 -0.768148 0
M  V30 13916 C 1278.04 2.28653 -0.158283 0
M  V30 13917 C 1279.04 1.47862 0.631936 0
M  V30 13918 O 1280.23 1.68124 0.456055 0
M  V30 13919 C 1277.36 3.31776 0.783435 0
M  V30 13920 H 1278.56 2.84094 -0.960772 0
M  V30 13921 H 1276.11 1.46818 -0.536116 0
M  V30 13922 H 1276.84 2.81452 1.61106 0
M  V30 13923 H 1276.63 3.91488 0.219016 0
M  V30 13924 H 1278.12 3.99816 1.20568 0
M  V30 13925 N 1278.56 0.518393 1.4883 0
M  V30 13926 C 1279.49 -0.239685 2.32267 0
M  V30 13927 C 1280.47 -0.94613 1.41359 0
M  V30 13928 O 1281.65 -0.934162 1.70256 0
M  V30 13929 C 1278.78 -1.29411 3.22289 0
M  V30 13930 C 1277.74 -0.706504 4.22129 0
M  V30 13931 C 1277.06 -1.86273 5.01205 0
M  V30 13932 C 1278.36 0.314079 5.21355 0
M  V30 13933 H 1280.06 0.4568 2.95895 0
M  V30 13934 H 1277.6 0.221126 1.42292 0
M  V30 13935 H 1279.56 -1.8323 3.7948 0
M  V30 13936 H 1278.28 -2.02001 2.56638 0
M  V30 13937 H 1276.94 -0.189924 3.66108 0
M  V30 13938 H 1276.59 -2.57674 4.31988 0
M  V30 13939 H 1276.29 -1.47554 5.68772 0
M  V30 13940 H 1277.81 -2.40492 5.61245 0
M  V30 13941 H 1279.22 -0.136604 5.73137 0
M  V30 13942 H 1277.62 0.618026 5.96909 0
M  V30 13943 H 1278.69 1.22394 4.69199 0
M  V30 13944 N 1280.03 -1.55556 0.252993 0
M  V30 13945 C 1281.28 -1.98697 -0.369319 0
M  V30 13946 C 1281.6 -1.14256 -1.58021 0
M  V30 13947 O 1280.87 -0.226779 -1.94583 0
M  V30 13948 H 1279.45 -0.733869 -0.139444 0
M  V30 13949 H 1282.12 -1.91673 0.353197 0
M  V30 13950 H 1281.21 -3.04728 -0.674312 0
M  V30 13951 N 1281.51 0.0200419 -1.57587 0
M  V30 13952 C 1282.46 1.0362 -2.08244 0
M  V30 13953 C 1283.45 1.36872 -0.998119 0
M  V30 13954 O 1284.66 1.35671 -1.18293 0
M  V30 13955 H 1281.04 0.351731 -0.664673 0
M  V30 13956 H 1283.01 0.583226 -2.92645 0
M  V30 13957 C 1281.76 2.32574 -2.58466 0
M  V30 13958 H 1281.08 2.0785 -3.41523 0
M  V30 13959 H 1282.52 3.02 -2.97611 0
M  V30 13960 C 1280.98 3.02167 -1.48986 0
M  V30 13961 O 1281.51 3.92359 -0.861251 0
M  V30 13962 N 1279.71 2.63649 -1.22219 0
M  V30 13963 H 1279.26 1.90389 -1.73521 0
M  V30 13964 H 1279.22 3.10529 -0.491828 0
M  V30 13965 N 1282.99 1.54862 0.292472 0
M  V30 13966 C 1283.92 1.89406 1.36556 0
M  V30 13967 C 1284.9 0.753838 1.52484 0
M  V30 13968 O 1286.09 1.01031 1.6585 0
M  V30 13969 C 1283.22 2.14888 2.72838 0
M  V30 13970 C 1282.17 3.3073 2.71665 0
M  V30 13971 C 1281.5 3.41648 4.11316 0
M  V30 13972 C 1282.8 4.67622 2.32651 0
M  V30 13973 H 1284.49 2.79284 1.07894 0
M  V30 13974 H 1282.04 1.34377 0.517585 0
M  V30 13975 H 1283.99 2.3764 3.48002 0
M  V30 13976 H 1282.71 1.2179 3.03042 0
M  V30 13977 H 1281.37 3.07915 1.98958 0
M  V30 13978 H 1281.02 2.46051 4.38711 0
M  V30 13979 H 1280.72 4.19522 4.11431 0
M  V30 13980 H 1282.24 3.6667 4.88248 0
M  V30 13981 H 1283.66 4.90048 2.97533 0
M  V30 13982 H 1282.06 5.48272 2.43963 0
M  V30 13983 H 1283.13 4.67762 1.27777 0
M  V30 13984 N 1284.47 -0.556076 1.47464 0
M  V30 13985 C 1285.7 -1.33858 1.57764 0
M  V30 13986 C 1286.11 -1.87415 0.22825 0
M  V30 13987 O 1285.47 -1.65054 -0.778674 0
M  V30 13988 C 1285.52 -2.5077 2.60378 0
M  V30 13989 O 1285.24 -1.99426 3.90078 0
M  V30 13990 C 1286.74 -3.42965 2.80873 0
M  V30 13991 H 1283.96 -0.408003 0.532705 0
M  V30 13992 H 1286.51 -0.673501 1.93091 0
M  V30 13993 H 1284.66 -3.13214 2.27982 0
M  V30 13994 H 1285.07 -2.75759 4.46158 0
M  V30 13995 H 1286.55 -4.21412 3.56533 0
M  V30 13996 H 1287.03 -3.96579 1.88737 0
M  V30 13997 H 1287.63 -2.86336 3.14471 0
M  V30 13998 N 1285.95 -1.35615 -0.802897 0
M  V30 13999 C 1286.88 -1.31506 -1.92947 0
M  V30 14000 C 1287.86 -0.188843 -1.69048 0
M  V30 14001 O 1289.04 -0.384384 -1.90358 0
M  V30 14002 C 1286.17 -1.09001 -3.29752 0
M  V30 14003 C 1285.13 -2.18303 -3.68141 0
M  V30 14004 C 1284.45 -1.80959 -5.03148 0
M  V30 14005 C 1285.75 -3.60296 -3.78132 0
M  V30 14006 H 1287.45 -2.25771 -1.96642 0
M  V30 14007 H 1284.99 -1.08682 -0.944685 0
M  V30 14008 H 1286.95 -1.04766 -4.08169 0
M  V30 14009 H 1285.67 -0.111832 -3.26408 0
M  V30 14010 H 1284.33 -2.21642 -2.92011 0
M  V30 14011 H 1283.98 -0.817495 -4.96312 0
M  V30 14012 H 1283.68 -2.54129 -5.29804 0
M  V30 14013 H 1285.2 -1.78255 -5.84001 0
M  V30 14014 H 1286.62 -3.59259 -4.46773 0
M  V30 14015 H 1285.01 -4.32258 -4.16261 0
M  V30 14016 H 1286.08 -3.9618 -2.79588 0
M  V30 14017 N 1287.43 1.02549 -1.19673 0
M  V30 14018 C 1288.67 1.76265 -1.00293 0
M  V30 14019 C 1289 1.88555 0.464816 0
M  V30 14020 O 1288.28 1.40484 1.34515 0
M  V30 14021 C 1288.56 3.18688 -1.6766 0
M  V30 14022 C 1288.42 3.14247 -3.21821 0
M  V30 14023 C 1289.73 4.17159 -1.40238 0
M  V30 14024 H 1286.85 0.639837 -0.365756 0
M  V30 14025 H 1289.5 1.19691 -1.4756 0
M  V30 14026 H 1287.65 3.66992 -1.27472 0
M  V30 14027 H 1289.32 2.73815 -3.71245 0
M  V30 14028 H 1287.56 2.51874 -3.53188 0
M  V30 14029 H 1288.23 4.14886 -3.64107 0
M  V30 14030 H 1290.71 3.77471 -1.75086 0
M  V30 14031 H 1289.58 5.14997 -1.89919 0
M  V30 14032 H 1289.84 4.4088 -0.328197 0
M  V30 14033 N 1288.9 1.00119 1.21713 0
M  V30 14034 C 1289.83 0.578504 2.2622 0
M  V30 14035 C 1290.81 -0.398777 1.6536 0
M  V30 14036 O 1292 -0.287596 1.92059 0
M  V30 14037 C 1289.13 -0.0994508 3.47158 0
M  V30 14038 C 1288.08 0.79722 4.2051 0
M  V30 14039 C 1287.41 -0.0141125 5.34698 0
M  V30 14040 C 1288.71 2.09802 4.7831 0
M  V30 14041 H 1290.4 1.45208 2.6183 0
M  V30 14042 H 1287.95 0.699656 1.2586 0
M  V30 14043 H 1289.9 -0.406605 4.19434 0
M  V30 14044 H 1288.63 -1.00763 3.10667 0
M  V30 14045 H 1287.29 1.08814 3.50079 0
M  V30 14046 H 1286.93 -0.923468 4.9445 0
M  V30 14047 H 1286.63 0.582883 5.84702 0
M  V30 14048 H 1288.16 -0.31517 6.09786 0
M  V30 14049 H 1289.57 1.85427 5.42485 0
M  V30 14050 H 1287.97 2.64455 5.38687 0
M  V30 14051 H 1289.04 2.77132 3.97902 0
M  V30 14052 N 1290.38 -1.37203 0.775435 0
M  V30 14053 C 1291.34 -2.28566 0.170406 0
M  V30 14054 C 1292.34 -1.48195 -0.624085 0
M  V30 14055 O 1293.53 -1.68364 -0.447132 0
M  V30 14056 C 1290.67 -3.32186 -0.765829 0
M  V30 14057 H 1291.86 -2.8358 0.975824 0
M  V30 14058 H 1289.41 -1.46531 0.543895 0
M  V30 14059 H 1290.15 -2.82303 -1.59611 0
M  V30 14060 H 1289.93 -3.91598 -0.198251 0
M  V30 14061 H 1291.42 -4.0045 -1.18446 0
M  V30 14062 N 1291.86 -0.526279 -1.48553 0
M  V30 14063 C 1293.11 0.0111473 -2.01697 0
M  V30 14064 C 1293.42 1.35675 -1.40895 0
M  V30 14065 O 1294.63 1.98233 -1.85515 0
M  V30 14066 C 1293.08 0.0702721 -3.59831 0
M  V30 14067 C 1292.69 -1.27022 -4.29616 0
M  V30 14068 C 1294.44 0.556722 -4.20834 0
M  V30 14069 C 1292.34 -1.17188 -5.79673 0
M  V30 14070 H 1291.27 0.00793697 -0.753958 0
M  V30 14071 H 1293.92 -0.669503 -1.70851 0
M  V30 14072 H 1292.31 0.81592 -3.87503 0
M  V30 14073 H 1293.48 -2.03114 -4.1362 0
M  V30 14074 H 1291.79 -1.69211 -3.80469 0
M  V30 14075 H 1294.39 0.648205 -5.30756 0
M  V30 14076 H 1294.73 1.56163 -3.859 0
M  V30 14077 H 1295.27 -0.133132 -3.97577 0
M  V30 14078 H 1292.01 -2.15182 -6.19174 0
M  V30 14079 H 1291.53 -0.452259 -5.98093 0
M  V30 14080 H 1293.21 -0.861011 -6.41245 0
M  V30 14081 N 1293.34 1.5542 -0.261239 0
M  V30 14082 C 1294.59 1.9846 0.360052 0
M  V30 14083 C 1294.9 1.15288 1.58013 0
M  V30 14084 O 1296.11 1.48408 2.27348 0
M  V30 14085 C 1294.56 3.53185 0.691964 0
M  V30 14086 C 1294.17 4.45116 -0.507521 0
M  V30 14087 C 1295.91 4.04848 1.27665 0
M  V30 14088 C 1293.82 5.91207 -0.150966 0
M  V30 14089 H 1292.75 0.741207 0.138303 0
M  V30 14090 H 1295.4 1.79859 -0.363712 0
M  V30 14091 H 1293.78 3.67535 1.47425 0
M  V30 14092 H 1294.96 4.42531 -1.28465 0
M  V30 14093 H 1293.27 4.04013 -1.0081 0
M  V30 14094 H 1295.87 5.11529 1.55699 0
M  V30 14095 H 1296.21 3.5305 2.20593 0
M  V30 14096 H 1296.75 3.93882 0.556955 0
M  V30 14097 H 1293.48 6.47072 -1.04776 0
M  V30 14098 H 1293 5.96894 0.589671 0
M  V30 14099 H 1294.68 6.4647 0.261772 0
M  V30 14100 N 1294.82 -0.0116844 1.57596 0
M  V30 14101 C 1296.06 -0.699994 1.90336 0
M  V30 14102 C 1296.39 -1.74067 0.861072 0
M  V30 14103 O 1295.67 -1.94119 -0.121712 0
M  V30 14104 C 1295.95 -1.35377 3.33684 0
M  V30 14105 C 1295.81 -0.325434 4.48621 0
M  V30 14106 C 1297.12 -2.28312 3.76247 0
M  V30 14107 H 1294.24 -0.253002 0.692213 0
M  V30 14108 H 1296.89 0.037211 1.89964 0
M  V30 14109 H 1295.04 -1.98212 3.34132 0
M  V30 14110 H 1296.71 0.302331 4.60308 0
M  V30 14111 H 1294.95 0.353527 4.32357 0
M  V30 14112 H 1295.62 -0.8217 5.4585 0
M  V30 14113 H 1298.1 -1.75505 3.77276 0
M  V30 14114 H 1296.97 -2.71028 4.77321 0
M  V30 14115 H 1297.23 -3.15727 3.09465 0
M  V30 14116 N 1296.29 -1.55015 -0.284256 0
M  V30 14117 C 1297.54 -1.7509 -1.01733 0
M  V30 14118 C 1297.87 -0.545803 -1.86685 0
M  V30 14119 O 1297.12 0.471951 -1.89924 0
M  V30 14120 C 1297.42 -3.00246 -1.93874 0
M  V30 14121 C 1297.09 -4.33295 -1.24764 0
M  V30 14122 C 1295.75 -4.69459 -1.0565 0
M  V30 14123 C 1298.1 -5.15704 -0.754939 0
M  V30 14124 C 1295.43 -5.85596 -0.35976 0
M  V30 14125 C 1297.78 -6.32559 -0.0718473 0
M  V30 14126 C 1296.45 -6.67371 0.131104 0
M  V30 14127 H 1295.72 -0.6407 -0.372269 0
M  V30 14128 H 1298.36 -1.89282 -0.290638 0
M  V30 14129 H 1296.67 -2.80907 -2.73127 0
M  V30 14130 H 1298.37 -3.12974 -2.50696 0
M  V30 14131 H 1294.96 -4.04865 -1.4065 0
M  V30 14132 H 1299.14 -4.8825 -0.89027 0
M  V30 14133 H 1294.4 -6.11099 -0.19169 0
M  V30 14134 H 1298.57 -6.95675 0.317743 0
M  V30 14135 H 1296.2 -7.57215 0.672977 0
M  V30 14136 N 1297.77 0.548248 -1.47757 0
M  V30 14137 C 1299.02 1.30139 -1.54099 0
M  V30 14138 C 1299.33 1.9445 -0.2118 0
M  V30 14139 O 1300.54 2.71067 -0.153302 0
M  V30 14140 C 1299 2.36039 -2.71687 0
M  V30 14141 C 1298.6 1.77879 -4.11173 0
M  V30 14142 C 1300.35 3.12478 -2.87329 0
M  V30 14143 C 1298.25 2.81611 -5.20047 0
M  V30 14144 H 1297.18 0.489364 -0.573619 0
M  V30 14145 H 1299.84 0.581237 -1.74051 0
M  V30 14146 H 1298.22 3.11008 -2.45132 0
M  V30 14147 H 1299.39 1.09221 -4.47669 0
M  V30 14148 H 1297.71 1.13994 -4.00493 0
M  V30 14149 H 1300.3 3.89958 -3.65837 0
M  V30 14150 H 1300.65 3.67218 -1.96103 0
M  V30 14151 H 1301.18 2.4462 -3.13697 0
M  V30 14152 H 1297.92 2.31714 -6.13179 0
M  V30 14153 H 1297.44 3.48652 -4.88059 0
M  V30 14154 H 1299.12 3.44938 -5.47382 0
M  V30 14155 N 1299.25 1.36039 0.795694 0
M  V30 14156 C 1300.5 1.29919 1.5533 0
M  V30 14157 C 1300.82 -0.123325 1.94109 0
M  V30 14158 O 1300.08 -1.09115 1.62457 0
M  V30 14159 C 1300.38 2.16166 2.84617 0
M  V30 14160 C 1300.04 3.64805 2.65006 0
M  V30 14161 C 1298.71 4.05319 2.59365 0
M  V30 14162 C 1301.06 4.59073 2.46781 0
M  V30 14163 C 1298.39 5.38251 2.33458 0
M  V30 14164 C 1300.74 5.92216 2.22402 0
M  V30 14165 C 1299.4 6.31862 2.1519 0
M  V30 14166 H 1298.67 0.475408 0.568391 0
M  V30 14167 H 1301.32 1.68035 0.918512 0
M  V30 14168 H 1299.62 1.70967 3.5253 0
M  V30 14169 H 1301.32 2.0876 3.42375 0
M  V30 14170 H 1297.91 3.32662 2.70248 0
M  V30 14171 H 1302.1 4.28651 2.50144 0
M  V30 14172 H 1297.35 5.67957 2.26352 0
M  V30 14173 H 1301.53 6.64833 2.07293 0
M  V30 14174 H 1299.15 7.34797 1.94878 0
M  V30 14175 N 1300.73 -1.01913 1.20215 0
M  V30 14176 C 1301.69 -2.08563 0.950481 0
M  V30 14177 C 1302.69 -1.60634 -0.0729659 0
M  V30 14178 O 1303.88 -1.73437 0.162826 0
M  V30 14179 C 1301.01 -3.38171 0.430453 0
M  V30 14180 H 1302.21 -2.32323 1.89647 0
M  V30 14181 H 1299.76 -1.18674 1.01716 0
M  V30 14182 H 1300.49 -3.20086 -0.521126 0
M  V30 14183 H 1300.28 -3.74284 1.1685 0
M  V30 14184 H 1301.77 -4.16702 0.273781 0
M  V30 14185 N 1302.21 -1.00763 -1.2118 0
M  V30 14186 C 1303.45 -0.692851 -1.90598 0
M  V30 14187 C 1303.79 0.774698 -1.78079 0
M  V30 14188 O 1303.06 1.56186 -1.15914 0
M  V30 14189 C 1303.34 -1.11792 -3.42308 0
M  V30 14190 C 1303.2 -2.64511 -3.63805 0
M  V30 14191 C 1304.52 -0.682314 -4.34779 0
M  V30 14192 H 1301.63 -0.253175 -0.69215 0
M  V30 14193 H 1304.28 -1.25378 -1.4276 0
M  V30 14194 H 1302.43 -0.640665 -3.83181 0
M  V30 14195 H 1304.1 -3.20021 -3.32242 0
M  V30 14196 H 1302.34 -3.05903 -3.0758 0
M  V30 14197 H 1303.01 -2.89306 -4.70113 0
M  V30 14198 H 1305.49 -1.09247 -4.01503 0
M  V30 14199 H 1304.36 -1.00787 -5.39568 0
M  V30 14200 H 1304.63 0.416441 -4.40134 0
M  V30 14201 N 1303.68 1.3679 -0.7827 0
M  V30 14202 C 1304.93 1.99712 -0.352533 0
M  V30 14203 C 1305.26 1.61984 1.0712 0
M  V30 14204 O 1304.54 0.871342 1.7389 0
M  V30 14205 C 1304.82 3.5649 -0.508628 0
M  V30 14206 C 1304.67 4.04093 -1.97557 0
M  V30 14207 C 1305.99 4.40026 0.0804447 0
M  V30 14208 H 1303.11 0.725522 -0.129566 0
M  V30 14209 H 1305.75 1.62305 -0.987788 0
M  V30 14210 H 1303.9 3.88487 0.0321664 0
M  V30 14211 H 1305.58 3.82613 -2.57691 0
M  V30 14212 H 1303.82 3.55881 -2.48055 0
M  V30 14213 H 1304.49 5.13088 -2.03579 0
M  V30 14214 H 1306.97 4.14351 -0.381113 0
M  V30 14215 H 1305.84 5.48868 -0.0588424 0
M  V30 14216 H 1306.1 4.26285 1.17189 0
M  V30 14217 N 1305.16 0.53415 1.48272 0
M  V30 14218 C 1306.41 0.00156948 2.021 0
M  V30 14219 C 1306.73 -1.34371 1.41313 0
M  V30 14220 O 1306 -1.87117 0.579996 0
M  V30 14221 H 1304.58 -0.00240789 0.746996 0
M  V30 14222 H 1307.24 0.698928 1.81937 0
M  V30 14223 H 1306.34 -0.103671 3.11928 0
M  V30 14224 N 1306.64 -1.55279 0.269478 0
M  V30 14225 C 1307.57 -2.18397 -0.66165 0
M  V30 14226 C 1308.55 -1.1431 -1.15637 0
M  V30 14227 O 1309.74 -1.42808 -1.23037 0
M  V30 14228 C 1306.86 -2.80272 -1.90172 0
M  V30 14229 C 1305.91 -3.97612 -1.54295 0
M  V30 14230 S 1306.74 -5.31828 -0.625995 0
M  V30 14231 C 1307.9 -5.97169 -1.87456 0
M  V30 14232 H 1308.13 -2.97036 -0.125326 0
M  V30 14233 H 1305.66 -1.54306 0.0537711 0
M  V30 14234 H 1307.62 -3.16553 -2.61351 0
M  V30 14235 H 1306.28 -2.01538 -2.40918 0
M  V30 14236 H 1305.48 -4.39576 -2.46555 0
M  V30 14237 H 1305.08 -3.62725 -0.911395 0
M  V30 14238 H 1307.37 -6.16059 -2.81917 0
M  V30 14239 H 1308.31 -6.92073 -1.49803 0
M  V30 14240 H 1308.72 -5.26469 -2.03693 0
M  V30 14241 N 1308.12 0.00332656 -1.576 0
M  V30 14242 C 1309.05 1.02391 -2.05058 0
M  V30 14243 C 1310.06 1.30903 -0.967901 0
M  V30 14244 O 1311.25 1.27937 -1.24476 0
M  V30 14245 C 1308.35 2.35947 -2.43274 0
M  V30 14246 C 1307.53 2.26423 -3.74234 0
M  V30 14247 C 1306.58 3.4264 -3.99355 0
M  V30 14248 O 1305.61 3.20977 -4.70067 0
M  V30 14249 N 1306.81 4.65379 -3.46991 0
M  V30 14250 H 1309.58 0.619216 -2.93233 0
M  V30 14251 H 1307.14 0.190777 -1.60772 0
M  V30 14252 H 1309.13 3.12462 -2.57196 0
M  V30 14253 H 1307.7 2.6817 -1.60635 0
M  V30 14254 H 1306.92 1.34841 -3.70421 0
M  V30 14255 H 1308.21 2.17229 -4.60097 0
M  V30 14256 H 1307.61 4.85878 -2.89723 0
M  V30 14257 H 1306.16 5.39171 -3.66249 0
M  V30 14258 N 1309.6 1.55164 0.276031 0
M  V30 14259 C 1310.53 1.90844 1.34539 0
M  V30 14260 C 1311.51 0.769968 1.51676 0
M  V30 14261 O 1312.69 1.02785 1.64769 0
M  V30 14262 C 1309.82 2.17769 2.70543 0
M  V30 14263 C 1308.78 3.33592 2.68142 0
M  V30 14264 C 1308.1 3.45991 4.07669 0
M  V30 14265 C 1309.4 4.70064 2.27678 0
M  V30 14266 H 1311.1 2.80412 1.04926 0
M  V30 14267 H 1308.64 1.34918 0.503303 0
M  V30 14268 H 1310.6 2.41317 3.45462 0
M  V30 14269 H 1309.32 1.24997 3.01734 0
M  V30 14270 H 1307.98 3.10007 1.95681 0
M  V30 14271 H 1307.63 2.50691 4.36077 0
M  V30 14272 H 1307.33 4.23862 4.06958 0
M  V30 14273 H 1308.85 3.71828 4.84331 0
M  V30 14274 H 1310.26 4.93176 2.92319 0
M  V30 14275 H 1308.66 5.50829 2.38134 0
M  V30 14276 H 1309.73 4.69091 1.22808 0
M  V30 14277 N 1311.07 -0.540404 1.48045 0
M  V30 14278 C 1312.32 -1.29678 1.55531 0
M  V30 14279 C 1312.65 -1.93197 0.224725 0
M  V30 14280 O 1311.9 -1.79308 -0.784028 0
M  V30 14281 C 1312.2 -2.41517 2.63447 0
M  V30 14282 C 1311.87 -1.95719 4.06208 0
M  V30 14283 C 1310.53 -1.82946 4.45067 0
M  V30 14284 C 1312.88 -1.6098 4.95717 0
M  V30 14285 C 1310.21 -1.33753 5.7125 0
M  V30 14286 C 1312.56 -1.13253 6.2238 0
M  V30 14287 C 1311.23 -0.990886 6.60104 0
M  V30 14288 H 1310.5 -0.474525 0.569129 0
M  V30 14289 H 1313.14 -0.604209 1.81718 0
M  V30 14290 H 1311.45 -3.16401 2.3108 0
M  V30 14291 H 1313.15 -2.9967 2.66457 0
M  V30 14292 H 1309.74 -2.06609 3.75514 0
M  V30 14293 H 1313.92 -1.69713 4.66381 0
M  V30 14294 H 1309.18 -1.21465 5.99213 0
M  V30 14295 H 1313.35 -0.854401 6.91139 0
M  V30 14296 H 1310.98 -0.607497 7.57769 0
M  V30 14297 N 1312.55 -1.36459 -0.788468 0
M  V30 14298 C 1313.8 -1.30483 -1.54333 0
M  V30 14299 C 1314.12 0.115266 -1.94659 0
M  V30 14300 O 1313.39 1.05573 -1.65019 0
M  V30 14301 H 1311.97 -0.480004 -0.572368 0
M  V30 14302 H 1314.63 -1.70765 -0.939428 0
M  V30 14303 H 1313.73 -1.93284 -2.45046 0
M  V30 14304 N 1314.03 1.01274 -1.20754 0
M  V30 14305 C 1314.98 2.09894 -0.959852 0
M  V30 14306 C 1315.95 1.65726 0.111351 0
M  V30 14307 O 1317.13 1.90769 -0.0341721 0
M  V30 14308 C 1314.27 3.41126 -0.52223 0
M  V30 14309 C 1313.39 3.98749 -1.66202 0
M  V30 14310 C 1312.52 5.18057 -1.17432 0
M  V30 14311 C 1311.56 5.67772 -2.28694 0
M  V30 14312 N 1310.7 6.78338 -1.81114 0
M  V30 14313 H 1315.54 2.30416 -1.88977 0
M  V30 14314 H 1313.07 1.12989 -0.941906 0
M  V30 14315 H 1315.03 4.16451 -0.249799 0
M  V30 14316 H 1313.66 3.20665 0.370688 0
M  V30 14317 H 1312.71 3.20483 -2.04927 0
M  V30 14318 H 1314.03 4.31646 -2.49967 0
M  V30 14319 H 1313.18 6.00601 -0.858086 0
M  V30 14320 H 1311.92 4.86735 -0.306614 0
M  V30 14321 H 1310.92 4.8383 -2.61129 0
M  V30 14322 H 1312.15 6.01127 -3.15948 0
M  V30 14323 H 1310.09 6.48837 -0.966761 0
M  V30 14324 H 1310.01 7.10448 -2.58457 0
M  V30 14325 H 1311.28 7.64437 -1.52502 0
M  V30 14326 N 1315.51 1.01404 1.20644 0
M  V30 14327 C 1316.73 0.720839 1.9447 0
M  V30 14328 C 1317.16 -0.711711 1.74116 0
M  V30 14329 O 1316.52 -1.48938 1.03379 0
M  V30 14330 C 1316.57 1.05864 3.4471 0
M  V30 14331 O 1315.67 0.168901 4.12054 0
M  V30 14332 H 1315.01 0.267698 0.607646 0
M  V30 14333 H 1317.54 1.35672 1.53147 0
M  V30 14334 H 1317.55 1.00928 3.9532 0
M  V30 14335 H 1316.23 2.1024 3.58848 0
M  V30 14336 H 1314.8 0.275572 3.7188 0
M  V30 14337 N 1316.99 -1.36373 0.789944 0
M  V30 14338 C 1318.22 -2.03187 0.373987 0
M  V30 14339 C 1318.63 -1.59697 -1.01457 0
M  V30 14340 O 1317.97 -0.782151 -1.66217 0
M  V30 14341 C 1318.03 -3.57703 0.358985 0
M  V30 14342 C 1317.69 -4.24396 1.69521 0
M  V30 14343 C 1318.69 -4.47247 2.65077 0
M  V30 14344 C 1316.38 -4.61858 1.97465 0
M  V30 14345 C 1318.37 -5.06642 3.86772 0
M  V30 14346 C 1316.06 -5.2097 3.19426 0
M  V30 14347 C 1317.06 -5.43302 4.13899 0
M  V30 14348 O 1316.74 -6.01173 5.3371 0
M  V30 14349 H 1316.48 -0.658654 0.152153 0
M  V30 14350 H 1319.03 -1.7532 1.07014 0
M  V30 14351 H 1317.26 -3.84691 -0.39366 0
M  V30 14352 H 1318.95 -4.05887 -0.0323762 0
M  V30 14353 H 1319.71 -4.18701 2.44775 0
M  V30 14354 H 1315.59 -4.438 1.2475 0
M  V30 14355 H 1319.14 -5.23989 4.60523 0
M  V30 14356 H 1315.03 -5.48943 3.39606 0
M  V30 14357 H 1315.8 -6.19638 5.34781 0
M  V30 14358 N 1318.47 -0.542005 -1.47987 0
M  V30 14359 C 1319.41 0.214151 -2.29804 0
M  V30 14360 C 1320.38 0.922625 -1.38119 0
M  V30 14361 O 1321.57 0.921301 -1.67083 0
M  V30 14362 C 1318.71 1.24768 -3.21756 0
M  V30 14363 C 1317.82 0.546824 -4.28525 0
M  V30 14364 C 1316.96 1.56432 -5.07644 0
M  V30 14365 C 1315.99 0.847598 -6.06203 0
M  V30 14366 N 1315.13 1.81121 -6.78336 0
M  V30 14367 H 1319.97 -0.489707 -2.93949 0
M  V30 14368 H 1317.51 -0.253331 -1.44902 0
M  V30 14369 H 1319.47 1.85933 -3.73477 0
M  V30 14370 H 1318.1 1.91976 -2.59509 0
M  V30 14371 H 1317.15 -0.179026 -3.79978 0
M  V30 14372 H 1318.46 -0.0153623 -4.98798 0
M  V30 14373 H 1317.61 2.24992 -5.63439 0
M  V30 14374 H 1316.35 2.16041 -4.37238 0
M  V30 14375 H 1315.36 0.147989 -5.49601 0
M  V30 14376 H 1316.58 0.257454 -6.78612 0
M  V30 14377 H 1314.53 2.39615 -6.10672 0
M  V30 14378 H 1314.45 1.30077 -7.44725 0
M  V30 14379 H 1315.71 2.48842 -7.38714 0
M  V30 14380 N 1319.94 1.55134 -0.277709 0
M  V30 14381 C 1320.85 2.26296 0.618658 0
M  V30 14382 C 1321.87 1.28978 1.16794 0
M  V30 14383 O 1323.05 1.61918 1.19768 0
M  V30 14384 C 1320.11 2.97214 1.78508 0
M  V30 14385 C 1319.17 4.10016 1.27221 0
M  V30 14386 C 1318.4 4.77543 2.38304 0
M  V30 14387 O 1318.63 4.44293 3.57715 0
M  V30 14388 O 1317.56 5.65437 2.06313 0
M  V30 14389 H 1321.39 3.03671 0.0421031 0
M  V30 14390 H 1318.97 1.49332 -0.0450166 0
M  V30 14391 H 1320.85 3.41773 2.46513 0
M  V30 14392 H 1319.53 2.22753 2.34867 0
M  V30 14393 H 1318.44 3.69907 0.558544 0
M  V30 14394 H 1319.77 4.86385 0.754333 0
M  V30 14395 N 1321.42 0.00503138 1.57599 0
M  V30 14396 C 1322.66 -0.683203 1.92644 0
M  V30 14397 C 1323.03 -1.70657 0.879778 0
M  V30 14398 O 1324.23 -2.44555 1.11563 0
M  V30 14399 C 1322.5 -1.30509 3.32719 0
M  V30 14400 S 1324.06 -2.01775 3.89657 0
M  V30 14401 H 1320.87 -0.225551 0.674276 0
M  V30 14402 H 1323.48 0.0629255 1.95399 0
M  V30 14403 H 1322.18 -0.547509 4.06731 0
M  V30 14404 H 1321.71 -2.08904 3.3335 0
M  V30 14405 H 1323.73 -3.29348 3.7114 0
M  V30 14406 N 1322.9 -1.55308 -0.267798 0
M  V30 14407 C 1324.15 -1.7642 -1.00019 0
M  V30 14408 C 1324.48 -0.566559 -1.85752 0
M  V30 14409 O 1323.75 0.435752 -1.89556 0
M  V30 14410 C 1324.04 -3.07229 -1.87836 0
M  V30 14411 C 1323.89 -4.37358 -1.05061 0
M  V30 14412 C 1325.21 -3.34113 -2.86455 0
M  V30 14413 H 1322.33 -0.641859 -0.362197 0
M  V30 14414 H 1324.97 -1.8804 -0.272188 0
M  V30 14415 H 1323.12 -2.97454 -2.49907 0
M  V30 14416 H 1324.79 -4.59098 -0.450208 0
M  V30 14417 H 1323.03 -4.32351 -0.354242 0
M  V30 14418 H 1323.71 -5.25223 -1.69838 0
M  V30 14419 H 1326.18 -3.43715 -2.34519 0
M  V30 14420 H 1325.06 -4.26896 -3.45038 0
M  V30 14421 H 1325.32 -2.54005 -3.61848 0
M  V30 14422 N 1324.38 0.532545 -1.4833 0
M  V30 14423 C 1325.62 1.29902 -1.57812 0
M  V30 14424 C 1325.98 1.90427 -0.245283 0
M  V30 14425 O 1327.18 2.67938 -0.215083 0
M  V30 14426 C 1325.45 2.36119 -2.68296 0
M  V30 14427 S 1327.01 3.22526 -2.97527 0
M  V30 14428 H 1323.83 0.441908 -0.55699 0
M  V30 14429 H 1326.43 0.606983 -1.85839 0
M  V30 14430 H 1325.14 1.90131 -3.63701 0
M  V30 14431 H 1324.67 3.10033 -2.42163 0
M  V30 14432 H 1326.68 4.36144 -2.36628 0
M  V30 14433 N 1325.86 1.36875 0.78122 0
M  V30 14434 C 1326.8 1.31869 1.89418 0
M  V30 14435 C 1327.77 0.185904 1.65056 0
M  V30 14436 O 1328.96 0.373745 1.87104 0
M  V30 14437 C 1326.1 1.12205 3.2635 0
M  V30 14438 C 1325.21 2.34631 3.62729 0
M  V30 14439 C 1324.35 2.07914 4.8882 0
M  V30 14440 C 1323.38 3.26257 5.17902 0
M  V30 14441 N 1322.52 2.99152 6.35179 0
M  V30 14442 H 1327.36 2.2703 1.93032 0
M  V30 14443 H 1324.9 1.12826 0.943857 0
M  V30 14444 H 1326.86 0.988282 4.05326 0
M  V30 14445 H 1325.49 0.206959 3.22136 0
M  V30 14446 H 1324.54 2.58782 2.78812 0
M  V30 14447 H 1325.85 3.22919 3.80164 0
M  V30 14448 H 1325 1.91514 5.7568 0
M  V30 14449 H 1323.74 1.1695 4.7347 0
M  V30 14450 H 1322.75 3.43207 4.29522 0
M  V30 14451 H 1323.97 4.1806 5.35166 0
M  V30 14452 H 1321.92 2.10807 6.21205 0
M  V30 14453 H 1321.84 3.80981 6.52985 0
M  V30 14454 H 1323.1 2.86349 7.25 0
M  V30 14455 N 1327.33 -1.00632 1.21289 0
M  V30 14456 C 1328.58 -1.73802 1.02351 0
M  V30 14457 C 1328.9 -1.90503 -0.443611 0
M  V30 14458 O 1330.1 -2.60868 -0.752356 0
M  V30 14459 C 1328.56 -3.12647 1.78269 0
M  V30 14460 C 1328.17 -3.03923 3.29142 0
M  V30 14461 C 1329.91 -3.89956 1.67735 0
M  V30 14462 C 1327.82 -4.3784 3.97556 0
M  V30 14463 H 1326.75 -0.651616 0.379358 0
M  V30 14464 H 1329.4 -1.12446 1.45011 0
M  V30 14465 H 1327.78 -3.74605 1.28401 0
M  V30 14466 H 1328.95 -2.51211 3.86303 0
M  V30 14467 H 1327.27 -2.40103 3.40205 0
M  V30 14468 H 1329.87 -4.89051 2.1618 0
M  V30 14469 H 1330.21 -4.11423 0.635338 0
M  V30 14470 H 1330.74 -3.34647 2.15072 0
M  V30 14471 H 1327.48 -4.21573 5.01952 0
M  V30 14472 H 1327 -4.90518 3.45184 0
M  V30 14473 H 1328.68 -5.06644 4.02393 0
M  V30 14474 N 1328.81 -1.02043 -1.20104 0
M  V30 14475 C 1329.76 -0.587332 -2.25063 0
M  V30 14476 C 1330.75 0.375844 -1.65178 0
M  V30 14477 O 1331.96 0.245347 -1.7832 0
M  V30 14478 H 1328.33 -0.171637 -0.732151 0
M  V30 14479 H 1330.31 -1.48339 -2.58917 0
M  V30 14480 C 1329.05 0.0546893 -3.47657 0
M  V30 14481 H 1328.38 -0.677457 -3.94018 0
M  V30 14482 H 1329.82 0.320786 -4.22785 0
M  V30 14483 C 1328.28 1.29869 -3.10863 0
M  V30 14484 O 1328.81 2.39161 -3.22746 0
M  V30 14485 N 1327.01 1.18423 -2.65376 0
M  V30 14486 H 1326.56 0.294895 -2.55906 0
M  V30 14487 H 1326.52 2.01755 -2.41128 0
M  V30 14488 N 1330.29 1.35952 -0.797165 0
M  V30 14489 C 1331.57 1.93335 -0.2968 0
M  V30 14490 C 1331.95 1.72825 1.21222 0
M  V30 14491 O 1331.3 1.09172 2.00733 0
M  V30 14492 C 1331.51 3.41951 -0.697894 0
M  V30 14493 C 1332.85 4.19087 -0.682026 0
M  V30 14494 O 1333.88 3.50424 -0.638849 0
M  V30 14495 O 1332.74 5.41577 -0.73189 0
M  V30 14496 H 1329.83 0.823554 -0.0754223 0
M  V30 14497 H 1332.38 1.45086 -0.88023 0
M  V30 14498 H 1331.15 3.50569 -1.73831 0
M  V30 14499 H 1330.77 3.97501 -0.088764 0
M  V30 14500 N 1331.77 0.549846 1.47697 0
M  V30 14501 C 1333.05 -0.0422793 1.95554 0
M  V30 14502 C 1333.43 -1.49303 1.49238 0
M  V30 14503 O 1332.77 -2.16598 0.727844 0
M  V30 14504 C 1332.98 0.0955552 3.48869 0
M  V30 14505 C 1334.33 -0.0535698 4.24566 0
M  V30 14506 O 1335.36 0.0227365 3.56193 0
M  V30 14507 O 1334.21 -0.21645 5.46071 0
M  V30 14508 H 1331.31 -0.0682465 0.824179 0
M  V30 14509 H 1333.85 0.615849 1.58131 0
M  V30 14510 H 1332.63 1.10536 3.75363 0
M  V30 14511 H 1332.25 -0.600522 3.93039 0
M  V30 14512 N 1333.25 -1.54984 0.285932 0
M  V30 14513 C 1334.49 -2.01738 -0.328795 0
M  V30 14514 C 1334.85 -1.16994 -1.52238 0
M  V30 14515 O 1336.05 -1.53377 -2.20746 0
M  V30 14516 C 1334.32 -3.50657 -0.690981 0
M  V30 14517 S 1335.88 -4.19388 -1.29071 0
M  V30 14518 H 1332.7 -0.703686 -0.101721 0
M  V30 14519 H 1335.3 -1.91146 0.410291 0
M  V30 14520 H 1334.01 -4.09976 0.186419 0
M  V30 14521 H 1333.54 -3.65255 -1.46125 0
M  V30 14522 H 1335.55 -4.23912 -2.57901 0
M  V30 14523 N 1334.72 -0.0133892 -1.57594 0
M  V30 14524 C 1335.95 0.679255 -1.95432 0
M  V30 14525 C 1336.37 1.66558 -0.889028 0
M  V30 14526 O 1335.72 1.82031 0.130755 0
M  V30 14527 C 1335.78 1.39943 -3.33314 0
M  V30 14528 O 1335.5 0.452643 -4.35755 0
M  V30 14529 C 1337 2.18535 -3.85691 0
M  V30 14530 H 1334.22 0.188337 -0.644026 0
M  V30 14531 H 1336.76 -0.0684861 -2.04385 0
M  V30 14532 H 1334.92 2.0987 -3.25628 0
M  V30 14533 H 1335.33 0.962243 -5.15598 0
M  V30 14534 H 1336.8 2.64403 -4.84557 0
M  V30 14535 H 1337.28 3.01779 -3.19102 0
M  V30 14536 H 1337.89 1.53598 -3.96595 0
M  V30 14537 N 1336.2 1.55448 0.259558 0
M  V30 14538 C 1337.13 1.9226 1.32508 0
M  V30 14539 C 1338.11 0.786012 1.5085 0
M  V30 14540 O 1339.3 1.04526 1.6367 0
M  V30 14541 C 1336.43 2.20627 2.68218 0
M  V30 14542 C 1335.38 3.36418 2.64589 0
M  V30 14543 C 1334.71 3.50295 4.03977 0
M  V30 14544 C 1336.01 4.72452 2.2268 0
M  V30 14545 H 1337.7 2.81509 1.01945 0
M  V30 14546 H 1335.25 1.35444 0.488965 0
M  V30 14547 H 1337.2 2.44968 3.42883 0
M  V30 14548 H 1335.93 1.28191 3.00391 0
M  V30 14549 H 1334.58 3.12065 1.92382 0
M  V30 14550 H 1334.23 2.55302 4.33394 0
M  V30 14551 H 1333.93 4.28155 4.02439 0
M  V30 14552 H 1335.46 3.76944 4.8036 0
M  V30 14553 H 1336.87 4.96249 2.87071 0
M  V30 14554 H 1335.27 5.53323 2.32279 0
M  V30 14555 H 1336.34 4.70367 1.17826 0
M  V30 14556 N 1337.68 -0.524672 1.4861 0
M  V30 14557 C 1339.09 -1.10655 1.50374 0
M  V30 14558 C 1339.44 -1.94242 0.276512 0
M  V30 14559 O 1338.57 -2.07451 -0.615887 0
M  V30 14560 C 1339.16 -2.01348 2.72478 0
M  V30 14561 C 1337.72 -2.54743 2.77097 0
M  V30 14562 C 1336.87 -1.31822 2.43964 0
M  V30 14563 H 1339.82 -0.309674 1.55649 0
M  V30 14564 H 1339.84 -2.85709 2.51297 0
M  V30 14565 H 1339.35 -1.40485 3.61781 0
M  V30 14566 H 1337.45 -3.19313 1.92016 0
M  V30 14567 H 1337.57 -2.93514 3.78664 0
M  V30 14568 H 1335.93 -1.63574 1.95233 0
M  V30 14569 H 1336.71 -0.727026 3.35513 0
M  V30 14570 N 1339.16 -1.37287 -0.77395 0
M  V30 14571 C 1340.57 -1.18039 -1.0742 0
M  V30 14572 C 1340.77 -0.0150339 -2.01494 0
M  V30 14573 O 1339.83 0.645562 -2.44108 0
M  V30 14574 C 1341.14 -2.49808 -1.67382 0
M  V30 14575 C 1342.69 -2.5631 -1.7965 0
M  V30 14576 C 1343.17 -3.88204 -2.43025 0
M  V30 14577 N 1344.66 -3.89634 -2.50478 0
M  V30 14578 C 1345.39 -4.88437 -3.00361 0
M  V30 14579 N 1344.89 -5.97635 -3.50434 0
M  V30 14580 N 1346.68 -4.75843 -2.99215 0
M  V30 14581 H 1338.83 -2.11875 -0.149269 0
M  V30 14582 H 1341.1 -0.939203 -0.128846 0
M  V30 14583 H 1340.8 -3.35433 -1.05726 0
M  V30 14584 H 1340.68 -2.66737 -2.66704 0
M  V30 14585 H 1343.06 -1.71094 -2.40439 0
M  V30 14586 H 1343.14 -2.43266 -0.790894 0
M  V30 14587 H 1342.79 -4.73834 -1.82876 0
M  V30 14588 H 1342.72 -3.98551 -3.44187 0
M  V30 14589 H 1345.21 -3.10751 -2.15039 0
M  V30 14590 H 1345.52 -6.6898 -3.86893 0
M  V30 14591 H 1343.87 -6.01283 -3.48545 0
M  V30 14592 H 1347.06 -3.89656 -2.59395 0
M  V30 14593 H 1347.23 -5.52999 -3.37781 0
M  V30 14594 N 1340.64 0.999871 -1.21821 0
M  V30 14595 C 1341.88 1.74194 -1.05014 0
M  V30 14596 C 1342.24 1.8795 0.411388 0
M  V30 14597 O 1341.53 1.4065 1.30108 0
M  V30 14598 C 1341.72 3.1509 -1.6868 0
M  V30 14599 C 1341.55 3.15073 -3.20872 0
M  V30 14600 C 1340.32 3.21361 -3.89942 0
M  V30 14601 C 1342.52 2.9978 -4.17896 0
M  V30 14602 N 1340.5 3.11024 -5.2928 0
M  V30 14603 C 1341.87 2.97396 -5.44018 0
M  V30 14604 C 1343.93 2.84119 -4.08877 0
M  V30 14605 C 1342.63 2.80956 -6.6216 0
M  V30 14606 C 1344.66 2.69038 -5.26662 0
M  V30 14607 C 1344.02 2.67335 -6.51699 0
M  V30 14608 H 1340.12 0.647385 -0.438653 0
M  V30 14609 H 1342.7 1.18801 -1.54255 0
M  V30 14610 H 1340.87 3.68742 -1.22 0
M  V30 14611 H 1342.61 3.7782 -1.45031 0
M  V30 14612 H 1339.36 3.28763 -3.40898 0
M  V30 14613 H 1339.79 3.09184 -6.02274 0
M  V30 14614 H 1344.43 2.84238 -3.12999 0
M  V30 14615 H 1342.15 2.79583 -7.58194 0
M  V30 14616 H 1345.73 2.57913 -5.21509 0
M  V30 14617 H 1344.61 2.55805 -7.41305 0
M  V30 14618 N 1342.11 1.02678 1.19562 0
M  V30 14619 C 1343.06 0.576385 2.20594 0
M  V30 14620 C 1344.05 -0.373747 1.56499 0
M  V30 14621 O 1345.24 -0.195058 1.75922 0
M  V30 14622 C 1342.37 -0.0735507 3.43221 0
M  V30 14623 C 1341.46 0.898896 4.14464 0
M  V30 14624 N 1341.85 2.06048 4.61928 0
M  V30 14625 C 1340.14 0.721889 4.40119 0
M  V30 14626 C 1340.85 2.67364 5.16615 0
M  V30 14627 N 1339.82 1.95344 5.07289 0
M  V30 14628 H 1343.62 1.46179 2.54968 0
M  V30 14629 H 1341.14 0.893484 1.35612 0
M  V30 14630 H 1343.13 -0.413825 4.14841 0
M  V30 14631 H 1341.79 -0.954671 3.10348 0
M  V30 14632 H 1342.81 2.43999 4.5682 0
M  V30 14633 H 1339.48 -0.110317 4.17354 0
M  V30 14634 H 1340.87 3.65726 5.63644 0
M  V30 14635 N 1343.59 -1.35528 0.804364 0
M  V30 14636 C 1344.53 -2.27647 0.158767 0
M  V30 14637 C 1345.5 -1.47976 -0.673942 0
M  V30 14638 O 1346.69 -1.77241 -0.641703 0
M  V30 14639 C 1343.81 -3.29597 -0.779973 0
M  V30 14640 C 1342.86 -4.26491 -0.0271676 0
M  V30 14641 S 1343.69 -5.19296 1.30736 0
M  V30 14642 C 1344.85 -6.24788 0.373003 0
M  V30 14643 H 1345.08 -2.82055 0.939805 0
M  V30 14644 H 1342.62 -1.42294 0.599313 0
M  V30 14645 H 1344.57 -3.88831 -1.31609 0
M  V30 14646 H 1343.23 -2.74072 -1.53438 0
M  V30 14647 H 1342.43 -4.98537 -0.740059 0
M  V30 14648 H 1342.03 -3.71415 0.438923 0
M  V30 14649 H 1344.32 -6.76053 -0.442566 0
M  V30 14650 H 1345.26 -7.00082 1.06258 0
M  V30 14651 H 1345.67 -5.64492 -0.0303131 0
M  V30 14652 N 1345.07 -0.557671 -1.47404 0
M  V30 14653 C 1346.02 0.202834 -2.31714 0
M  V30 14654 C 1347.01 0.908873 -1.42954 0
M  V30 14655 O 1348.22 0.830106 -1.59716 0
M  V30 14656 H 1344.59 0.0842824 -0.747262 0
M  V30 14657 H 1346.57 -0.527431 -2.93702 0
M  V30 14658 C 1345.31 1.21937 -3.25617 0
M  V30 14659 H 1344.64 0.685506 -3.93879 0
M  V30 14660 H 1346.08 1.72237 -3.87441 0
M  V30 14661 C 1344.54 2.26748 -2.49173 0
M  V30 14662 O 1345.07 3.33681 -2.23651 0
M  V30 14663 N 1343.27 2.00687 -2.10174 0
M  V30 14664 H 1342.82 1.13741 -2.3113 0
M  V30 14665 H 1342.78 2.71031 -1.59342 0
M  V30 14666 N 1346.55 1.54831 -0.294147 0
M  V30 14667 C 1347.83 1.92071 0.369902 0
M  V30 14668 C 1348.21 1.22061 1.72233 0
M  V30 14669 O 1347.55 0.353975 2.25742 0
M  V30 14670 C 1347.76 3.45524 0.49135 0
M  V30 14671 C 1349.11 4.17644 0.765411 0
M  V30 14672 O 1350.14 3.51521 0.575428 0
M  V30 14673 O 1349 5.34692 1.12992 0
M  V30 14674 H 1346.09 0.801033 0.20561 0
M  V30 14675 H 1348.64 1.66224 -0.341702 0
M  V30 14676 H 1347.41 3.88591 -0.459663 0
M  V30 14677 H 1347.03 3.77384 1.25169 0
M  V30 14678 N 1348.03 0.0217466 1.57585 0
M  V30 14679 C 1349.27 -0.658487 1.91495 0
M  V30 14680 C 1349.6 -1.72557 0.897462 0
M  V30 14681 O 1348.86 -1.95471 -0.0946909 0
M  V30 14682 C 1349.16 -1.3197 3.32143 0
M  V30 14683 C 1348.82 -0.383706 4.49264 0
M  V30 14684 C 1347.48 -0.126065 4.81035 0
M  V30 14685 C 1349.84 0.259445 5.20554 0
M  V30 14686 C 1347.16 0.782659 5.81456 0
M  V30 14687 C 1349.52 1.15618 6.21945 0
M  V30 14688 C 1348.18 1.42278 6.5216 0
M  V30 14689 H 1347.45 -0.240958 0.700729 0
M  V30 14690 H 1350.1 0.0819351 1.91325 0
M  V30 14691 H 1348.4 -2.13469 3.28539 0
M  V30 14692 H 1350.1 -1.85245 3.55648 0
M  V30 14693 H 1346.69 -0.59469 4.24454 0
M  V30 14694 H 1350.87 0.073445 4.96246 0
M  V30 14695 H 1346.13 0.996995 6.03216 0
M  V30 14696 H 1350.3 1.66077 6.76307 0
M  V30 14697 H 1347.93 2.1286 7.29791 0
M  V30 14698 N 1349.51 -1.55583 -0.251311 0
M  V30 14699 C 1350.75 -1.77209 -0.979966 0
M  V30 14700 C 1351.08 -0.585279 -1.85485 0
M  V30 14701 O 1350.34 0.431559 -1.90882 0
M  V30 14702 C 1350.63 -3.04291 -1.87461 0
M  V30 14703 C 1350.3 -4.35844 -1.15545 0
M  V30 14704 C 1348.96 -4.71594 -0.956679 0
M  V30 14705 C 1351.31 -5.17189 -0.645381 0
M  V30 14706 C 1348.64 -5.86227 -0.235465 0
M  V30 14707 C 1350.99 -6.32569 0.0623441 0
M  V30 14708 C 1349.66 -6.66943 0.272634 0
M  V30 14709 H 1348.93 -0.648452 -0.358595 0
M  V30 14710 H 1351.58 -1.89856 -0.250423 0
M  V30 14711 H 1349.88 -2.86637 -2.67108 0
M  V30 14712 H 1351.58 -3.18221 -2.44001 0
M  V30 14713 H 1348.17 -4.07757 -1.32031 0
M  V30 14714 H 1352.35 -4.90028 -0.786505 0
M  V30 14715 H 1347.61 -6.11369 -0.0620232 0
M  V30 14716 H 1351.78 -6.94844 0.465234 0
M  V30 14717 H 1349.41 -7.55617 0.833442 0
M  V30 14718 N 1350.98 0.516783 -1.48886 0
M  V30 14719 C 1351.93 1.61653 -1.60786 0
M  V30 14720 C 1352.92 1.54056 -0.464271 0
M  V30 14721 O 1354.11 1.61853 -0.716412 0
M  V30 14722 C 1351.24 3.0033 -1.66304 0
M  V30 14723 C 1350.32 3.12982 -2.86187 0
M  V30 14724 N 1350.72 2.95568 -4.10455 0
M  V30 14725 C 1349.01 3.44059 -2.83795 0
M  V30 14726 C 1349.71 3.11986 -4.90958 0
M  V30 14727 N 1348.69 3.40156 -4.24022 0
M  V30 14728 H 1352.49 1.4682 -2.546 0
M  V30 14729 H 1350.01 0.722555 -1.4544 0
M  V30 14730 H 1352 3.79345 -1.72924 0
M  V30 14731 H 1350.66 3.16245 -0.736158 0
M  V30 14732 H 1351.67 2.72062 -4.40684 0
M  V30 14733 H 1348.35 3.66249 -2.0042 0
M  V30 14734 H 1349.74 3.03149 -5.99625 0
M  V30 14735 N 1352.46 1.37696 0.766659 0
M  V30 14736 C 1353.69 1.36564 1.56093 0
M  V30 14737 C 1354.11 -0.0455828 1.88045 0
M  V30 14738 O 1353.47 -1.02405 1.49609 0
M  V30 14739 C 1353.52 2.21592 2.84481 0
M  V30 14740 O 1352.62 1.62404 3.79076 0
M  V30 14741 H 1351.96 0.466394 0.472623 0
M  V30 14742 H 1354.49 1.81287 0.948486 0
M  V30 14743 H 1354.5 2.34987 3.33534 0
M  V30 14744 H 1353.18 3.24167 2.60554 0
M  V30 14745 H 1351.75 1.58078 3.37736 0
M  V30 14746 N 1353.94 -0.993397 1.22349 0
M  V30 14747 C 1355.19 -1.73287 1.04775 0
M  V30 14748 C 1355.51 -1.89973 -0.417201 0
M  V30 14749 O 1354.77 -1.43966 -1.32561 0
M  V30 14750 C 1355.07 -3.14191 1.70349 0
M  V30 14751 C 1354.73 -3.17421 3.20241 0
M  V30 14752 C 1353.4 -3.1801 3.61141 0
M  V30 14753 C 1355.75 -3.13751 4.16185 0
M  V30 14754 C 1353.08 -3.12628 4.96468 0
M  V30 14755 C 1355.43 -3.09911 5.51487 0
M  V30 14756 C 1354.09 -3.08815 5.91768 0
M  V30 14757 H 1353.36 -0.634102 0.3834 0
M  V30 14758 H 1356.01 -1.16346 1.52105 0
M  V30 14759 H 1354.31 -3.74437 1.15343 0
M  V30 14760 H 1356.01 -3.70149 1.54242 0
M  V30 14761 H 1352.6 -3.17713 2.87674 0
M  V30 14762 H 1356.79 -3.12446 3.85605 0
M  V30 14763 H 1352.04 -3.10125 5.26909 0
M  V30 14764 H 1356.22 -3.06026 6.25556 0
M  V30 14765 H 1353.84 -3.044 6.96595 0
M  V30 14766 N 1355.42 -1.03311 -1.19015 0
M  V30 14767 C 1356.35 -0.638279 -2.24607 0
M  V30 14768 C 1357.33 0.354795 -1.66359 0
M  V30 14769 O 1358.51 0.236574 -1.92754 0
M  V30 14770 C 1355.64 0.00737316 -3.47299 0
M  V30 14771 C 1354.6 -0.908431 -4.18248 0
M  V30 14772 C 1353.92 -0.127658 -5.34548 0
M  V30 14773 C 1355.22 -2.2241 -4.72579 0
M  V30 14774 H 1356.92 -1.52099 -2.57888 0
M  V30 14775 H 1354.46 -0.732779 -1.23961 0
M  V30 14776 H 1356.42 0.295256 -4.20364 0
M  V30 14777 H 1355.14 0.924912 -3.1323 0
M  V30 14778 H 1353.8 -1.18058 -3.47071 0
M  V30 14779 H 1353.45 0.792048 -4.96725 0
M  V30 14780 H 1353.15 -0.737702 -5.82951 0
M  V30 14781 H 1354.67 0.153385 -6.10407 0
M  V30 14782 H 1356.09 -1.99745 -5.37378 0
M  V30 14783 H 1354.48 -2.78644 -5.31486 0
M  V30 14784 H 1355.55 -2.87584 -3.90415 0
M  V30 14785 N 1356.9 1.35099 -0.81154 0
M  V30 14786 C 1358.14 1.9788 -0.390695 0
M  V30 14787 C 1358.46 1.6509 1.04903 0
M  V30 14788 O 1359.66 2.21273 1.57324 0
M  V30 14789 C 1358.12 3.54025 -0.647632 0
M  V30 14790 C 1357.73 3.9572 -2.10023 0
M  V30 14791 C 1359.47 4.23492 -0.29239 0
M  V30 14792 C 1357.38 5.44731 -2.30266 0
M  V30 14793 H 1356.31 0.740441 -0.14235 0
M  V30 14794 H 1358.96 1.54098 -0.996294 0
M  V30 14795 H 1357.34 3.9599 0.0279838 0
M  V30 14796 H 1358.52 3.64893 -2.81407 0
M  V30 14797 H 1356.83 3.39157 -2.41581 0
M  V30 14798 H 1359.43 5.33035 -0.421618 0
M  V30 14799 H 1359.77 4.09268 0.76195 0
M  V30 14800 H 1360.3 3.86965 -0.922122 0
M  V30 14801 H 1357.04 5.63928 -3.34163 0
M  V30 14802 H 1356.56 5.7711 -1.63413 0
M  V30 14803 H 1358.24 6.1126 -2.12062 0
M  V30 14804 N 1358.37 0.56548 1.47106 0
M  V30 14805 C 1359.62 0.0445914 2.02751 0
M  V30 14806 C 1359.95 -1.30517 1.43801 0
M  V30 14807 O 1359.23 -1.85123 0.596646 0
M  V30 14808 C 1359.51 -0.0396474 3.60078 0
M  V30 14809 C 1359.36 1.3378 4.29445 0
M  V30 14810 C 1360.68 -0.748954 4.3368 0
M  V30 14811 H 1357.8 0.0176787 0.736788 0
M  V30 14812 H 1360.44 0.729363 1.75443 0
M  V30 14813 H 1358.59 -0.622826 3.83475 0
M  V30 14814 H 1360.27 1.96482 4.17364 0
M  V30 14815 H 1358.51 1.91024 3.89477 0
M  V30 14816 H 1359.18 1.23149 5.38088 0
M  V30 14817 H 1361.66 -0.253707 4.15326 0
M  V30 14818 H 1360.53 -0.776877 5.43374 0
M  V30 14819 H 1360.79 -1.80679 4.03494 0
M  V30 14820 N 1359.85 -1.54672 0.302354 0
M  V30 14821 C 1361.1 -2.00167 -0.306524 0
M  V30 14822 C 1361.43 -1.19073 -1.53791 0
M  V30 14823 O 1360.68 -0.255328 -1.94027 0
M  V30 14824 C 1360.98 -3.5035 -0.70638 0
M  V30 14825 C 1360.65 -4.48907 0.423429 0
M  V30 14826 C 1359.31 -4.75575 0.733586 0
M  V30 14827 C 1361.66 -5.07588 1.18338 0
M  V30 14828 C 1358.99 -5.58186 1.80679 0
M  V30 14829 C 1361.34 -5.91367 2.24651 0
M  V30 14830 C 1360.01 -6.16345 2.56272 0
M  V30 14831 H 1359.28 -0.732462 -0.112165 0
M  V30 14832 H 1361.92 -1.86798 0.421732 0
M  V30 14833 H 1360.23 -3.61335 -1.51474 0
M  V30 14834 H 1361.92 -3.82977 -1.18869 0
M  V30 14835 H 1358.51 -4.28256 0.171591 0
M  V30 14836 H 1362.7 -4.86985 0.957018 0
M  V30 14837 H 1357.95 -5.75776 2.05649 0
M  V30 14838 H 1362.13 -6.35862 2.83994 0
M  V30 14839 H 1359.76 -6.80148 3.39563 0
M  V30 14840 N 1361.33 -0.0301034 -1.57571 0
M  V30 14841 C 1362.75 0.326296 -1.56229 0
M  V30 14842 C 1362.95 1.72839 -1.03581 0
M  V30 14843 O 1362 2.43088 -0.682979 0
M  V30 14844 C 1363.32 0.174001 -3.00196 0
M  V30 14845 C 1364.86 0.246694 -3.12026 0
M  V30 14846 C 1365.34 0.123177 -4.57834 0
M  V30 14847 N 1366.83 0.180129 -4.6285 0
M  V30 14848 C 1367.56 0.108353 -5.73298 0
M  V30 14849 N 1367.06 -0.0145648 -6.92798 0
M  V30 14850 N 1368.85 0.162411 -5.61865 0
M  V30 14851 H 1361 -0.946945 -1.90123 0
M  V30 14852 H 1363.27 -0.365762 -0.874598 0
M  V30 14853 H 1362.97 -0.791871 -3.42669 0
M  V30 14854 H 1362.85 0.943794 -3.65202 0
M  V30 14855 H 1365.23 1.20303 -2.69465 0
M  V30 14856 H 1365.32 -0.553493 -2.4974 0
M  V30 14857 H 1364.96 -0.82974 -5.01077 0
M  V30 14858 H 1364.89 0.94224 -5.18102 0
M  V30 14859 H 1367.38 0.275236 -3.76896 0
M  V30 14860 H 1367.69 -0.062614 -7.72775 0
M  V30 14861 H 1366.04 -0.0493606 -6.94982 0
M  V30 14862 H 1369.23 0.256847 -4.67395 0
M  V30 14863 H 1369.4 0.103013 -6.47918 0
M  V30 14864 N 1362.81 1.55714 0.243056 0
M  V30 14865 C 1364.05 1.77989 0.971993 0
M  V30 14866 C 1364.39 0.596038 1.84827 0
M  V30 14867 O 1363.66 -0.40554 1.90225 0
M  V30 14868 C 1363.95 3.10178 1.82925 0
M  V30 14869 C 1363.8 4.38974 0.9809 0
M  V30 14870 C 1365.12 3.38628 2.81103 0
M  V30 14871 H 1362.24 0.64754 0.35194 0
M  V30 14872 H 1364.88 1.88449 0.242237 0
M  V30 14873 H 1363.03 3.01392 2.45143 0
M  V30 14874 H 1364.7 4.59756 0.377113 0
M  V30 14875 H 1362.94 4.3286 0.285414 0
M  V30 14876 H 1363.61 5.27858 1.61461 0
M  V30 14877 H 1366.09 3.47403 2.29021 0
M  V30 14878 H 1364.97 4.32331 3.38203 0
M  V30 14879 H 1365.23 2.5973 3.57761 0
M  V30 14880 N 1364.29 -0.50888 1.49158 0
M  V30 14881 C 1365.22 -1.62008 1.68154 0
M  V30 14882 C 1366.2 -1.61624 0.53025 0
M  V30 14883 O 1367.38 -1.78489 0.765205 0
M  V30 14884 C 1364.51 -3.00525 1.74075 0
M  V30 14885 C 1363.47 -3.15773 2.88915 0
M  V30 14886 C 1362.79 -4.55562 2.79942 0
M  V30 14887 C 1364.09 -2.96542 4.29953 0
M  V30 14888 H 1365.79 -1.46365 2.61185 0
M  V30 14889 H 1363.33 -0.702705 1.2569 0
M  V30 14890 H 1365.29 -3.78154 1.8595 0
M  V30 14891 H 1364.01 -3.17238 0.776373 0
M  V30 14892 H 1362.67 -2.40567 2.76628 0
M  V30 14893 H 1362.32 -4.6914 1.81429 0
M  V30 14894 H 1362.02 -4.66706 3.57015 0
M  V30 14895 H 1363.54 -5.35262 2.93814 0
M  V30 14896 H 1364.95 -3.63947 4.42963 0
M  V30 14897 H 1363.35 -3.19164 5.08187 0
M  V30 14898 H 1364.42 -1.92745 4.44946 0
M  V30 14899 N 1365.76 -1.381 -0.759346 0
M  V30 14900 C 1367 -1.35402 -1.5312 0
M  V30 14901 C 1367.37 0.0574616 -1.91914 0
M  V30 14902 O 1368.57 0.20927 -2.67984 0
M  V30 14903 C 1366.84 -2.27793 -2.754 0
M  V30 14904 S 1368.4 -2.43061 -3.65331 0
M  V30 14905 H 1365.22 -0.480503 -0.524059 0
M  V30 14906 H 1367.82 -1.7397 -0.891886 0
M  V30 14907 H 1366.52 -3.29247 -2.45 0
M  V30 14908 H 1366.05 -1.90353 -3.44281 0
M  V30 14909 H 1368.07 -1.6504 -4.67949 0
M  V30 14910 N 1367.24 0.986894 -1.22875 0
M  V30 14911 C 1368.49 1.72388 -1.05484 0
M  V30 14912 C 1368.81 1.90639 0.410074 0
M  V30 14913 O 1368.08 1.47036 1.2945 0
M  V30 14914 H 1366.66 0.638732 -0.387337 0
M  V30 14915 H 1369.32 1.18829 -1.54485 0
M  V30 14916 H 1368.42 2.71599 -1.53754 0
M  V30 14917 N 1368.72 1.0394 1.18466 0
M  V30 14918 C 1369.63 0.639714 2.2571 0
M  V30 14919 C 1370.65 -0.333431 1.70775 0
M  V30 14920 O 1371.82 -0.188676 2.00514 0
M  V30 14921 C 1368.89 0.007559 3.46699 0
M  V30 14922 C 1367.95 1.02955 4.16772 0
M  V30 14923 C 1367.18 0.427464 5.31985 0
M  V30 14924 O 1367.4 -0.766684 5.65224 0
M  V30 14925 O 1366.34 1.15553 5.90704 0
M  V30 14926 H 1370.16 1.53316 2.6216 0
M  V30 14927 H 1367.75 0.810206 1.25523 0
M  V30 14928 H 1369.63 -0.344404 4.1999 0
M  V30 14929 H 1368.31 -0.859727 3.12074 0
M  V30 14930 H 1367.21 1.43328 3.45554 0
M  V30 14931 H 1368.55 1.86756 4.55393 0
M  V30 14932 N 1370.2 -1.34667 0.818693 0
M  V30 14933 C 1371.44 -1.99131 0.414527 0
M  V30 14934 C 1371.8 -1.63747 -1.01018 0
M  V30 14935 O 1371.09 -0.896699 -1.69322 0
M  V30 14936 C 1371.29 -3.53157 0.549059 0
M  V30 14937 C 1371.12 -4.03505 1.98529 0
M  V30 14938 C 1369.89 -4.32296 2.61627 0
M  V30 14939 C 1372.08 -4.2118 2.95147 0
M  V30 14940 N 1370.07 -4.68651 3.96534 0
M  V30 14941 C 1371.44 -4.60668 4.14952 0
M  V30 14942 C 1373.49 -4.03418 2.91819 0
M  V30 14943 C 1372.19 -4.8425 5.31878 0
M  V30 14944 C 1374.22 -4.28164 4.07958 0
M  V30 14945 C 1373.58 -4.67934 5.26514 0
M  V30 14946 H 1369.68 -0.75607 0.199704 0
M  V30 14947 H 1372.27 -1.63154 1.0625 0
M  V30 14948 H 1370.44 -3.88339 -0.0689894 0
M  V30 14949 H 1372.17 -4.04527 0.118304 0
M  V30 14950 H 1368.92 -4.23051 2.12896 0
M  V30 14951 H 1369.35 -4.9107 4.66025 0
M  V30 14952 H 1373.99 -3.71802 2.01303 0
M  V30 14953 H 1371.71 -5.14734 6.22956 0
M  V30 14954 H 1375.29 -4.15961 4.06777 0
M  V30 14955 H 1374.17 -4.86707 6.14887 0
M  V30 14956 N 1371.68 -0.573274 -1.46804 0
M  V30 14957 C 1372.93 -0.0530267 -2.0163 0
M  V30 14958 C 1373.24 1.31124 -1.45141 0
M  V30 14959 O 1374.44 1.92231 -1.91728 0
M  V30 14960 C 1372.9 -0.0442411 -3.59873 0
M  V30 14961 C 1372.51 -1.40625 -4.25357 0
M  V30 14962 C 1374.25 0.422556 -4.22392 0
M  V30 14963 C 1372.16 -1.3557 -5.75652 0
M  V30 14964 H 1371.09 -0.0160537 -0.753829 0
M  V30 14965 H 1373.74 -0.723518 -1.68634 0
M  V30 14966 H 1372.12 0.692225 -3.89903 0
M  V30 14967 H 1373.3 -2.1617 -4.06949 0
M  V30 14968 H 1371.61 -1.81229 -3.74893 0
M  V30 14969 H 1374.21 0.479021 -5.3255 0
M  V30 14970 H 1374.55 1.43806 -3.90673 0
M  V30 14971 H 1375.08 -0.259551 -3.96952 0
M  V30 14972 H 1371.82 -2.34772 -6.12015 0
M  V30 14973 H 1371.34 -0.642309 -5.96351 0
M  V30 14974 H 1373.02 -1.06458 -6.38182 0
M  V30 14975 N 1373.15 1.5451 -0.310553 0
M  V30 14976 C 1374.06 2.27557 0.570518 0
M  V30 14977 C 1375.08 1.31426 1.14032 0
M  V30 14978 O 1376.26 1.64423 1.16306 0
M  V30 14979 C 1373.32 3.00933 1.72163 0
M  V30 14980 C 1372.38 4.12623 1.18495 0
M  V30 14981 C 1371.62 4.8249 2.28121 0
M  V30 14982 O 1371.84 4.5178 3.48211 0
M  V30 14983 O 1370.77 5.69686 1.94273 0
M  V30 14984 H 1374.6 3.03692 -0.0223195 0
M  V30 14985 H 1372.18 1.49203 -0.0766821 0
M  V30 14986 H 1374.07 3.46925 2.39208 0
M  V30 14987 H 1372.74 2.27685 2.3009 0
M  V30 14988 H 1371.65 3.71008 0.479956 0
M  V30 14989 H 1372.98 4.87876 0.650994 0
M  V30 14990 N 1374.63 0.0384594 1.57553 0
M  V30 14991 C 1375.86 -0.648077 1.96488 0
M  V30 14992 C 1376.28 -1.65123 0.915414 0
M  V30 14993 O 1375.63 -1.82216 -0.101779 0
M  V30 14994 C 1375.68 -1.34623 3.35498 0
M  V30 14995 O 1375.41 -0.383261 4.3642 0
M  V30 14996 C 1376.91 -2.12372 3.89119 0
M  V30 14997 H 1374.13 -0.178068 0.646941 0
M  V30 14998 H 1376.67 0.100993 2.0425 0
M  V30 14999 H 1374.83 -2.04663 3.28926 0
M  V30 15000 H 1375.24 -0.880095 5.17063 0
M  V30 15001 H 1376.71 -2.5666 4.88702 0
M  V30 15002 H 1377.19 -2.96664 3.23863 0
M  V30 15003 H 1377.8 -1.4727 3.98988 0
M  V30 15004 N 1376.11 -1.55841 -0.234795 0
M  V30 15005 C 1377.04 -1.86317 -1.31762 0
M  V30 15006 C 1378.02 -0.719321 -1.45824 0
M  V30 15007 O 1379.21 -0.966329 -1.61847 0
M  V30 15008 C 1376.33 -2.05854 -2.68964 0
M  V30 15009 C 1375.38 -3.28518 -2.71989 0
M  V30 15010 S 1376.21 -4.84827 -2.27382 0
M  V30 15011 C 1377.37 -5.07385 -3.66485 0
M  V30 15012 H 1377.6 -2.7787 -1.05715 0
M  V30 15013 H 1375.13 -1.48105 -0.436386 0
M  V30 15014 H 1377.09 -2.17794 -3.4796 0
M  V30 15015 H 1375.75 -1.15122 -2.92243 0
M  V30 15016 H 1374.95 -3.39192 -3.7278 0
M  V30 15017 H 1374.55 -3.15367 -2.01047 0
M  V30 15018 H 1376.84 -4.95471 -4.62077 0
M  V30 15019 H 1377.78 -6.09323 -3.60737 0
M  V30 15020 H 1378.19 -4.35175 -3.59559 0
M  V30 15021 N 1377.59 0.500963 -1.49426 0
M  V30 15022 C 1378.84 1.25427 -1.60124 0
M  V30 15023 C 1379.19 1.90288 -0.284312 0
M  V30 15024 O 1378.48 1.77741 0.715459 0
M  V30 15025 C 1378.68 2.34448 -2.69757 0
M  V30 15026 C 1378.51 1.80278 -4.11983 0
M  V30 15027 C 1377.28 1.61577 -4.7877 0
M  V30 15028 C 1379.47 1.31462 -4.97215 0
M  V30 15029 N 1377.46 1.02337 -6.0531 0
M  V30 15030 C 1378.83 0.843562 -6.14235 0
M  V30 15031 C 1380.88 1.20035 -4.83214 0
M  V30 15032 C 1379.59 0.269543 -7.18795 0
M  V30 15033 C 1381.61 0.640304 -5.87924 0
M  V30 15034 C 1380.97 0.179474 -7.04171 0
M  V30 15035 H 1377.07 0.448932 -0.6403 0
M  V30 15036 H 1379.66 0.561377 -1.86431 0
M  V30 15037 H 1377.83 3.01198 -2.45223 0
M  V30 15038 H 1379.56 3.01487 -2.69977 0
M  V30 15039 H 1376.31 1.85946 -4.3557 0
M  V30 15040 H 1376.74 0.746441 -6.72872 0
M  V30 15041 H 1381.38 1.54263 -3.93653 0
M  V30 15042 H 1379.1 -0.0849963 -8.08055 0
M  V30 15043 H 1382.68 0.554669 -5.7915 0
M  V30 15044 H 1381.56 -0.247125 -7.83811 0
M  V30 15045 N 1379.07 1.38501 0.752011 0
M  V30 15046 C 1380.34 1.25315 1.50185 0
M  V30 15047 C 1380.72 -0.144762 2.10603 0
M  V30 15048 O 1380.07 -1.15441 1.97194 0
M  V30 15049 C 1380.28 2.36451 2.56694 0
M  V30 15050 C 1381.63 2.74952 3.23553 0
M  V30 15051 O 1382.65 2.35774 2.67 0
M  V30 15052 O 1381.51 3.42517 4.25845 0
M  V30 15053 H 1378.61 0.490139 0.666103 0
M  V30 15054 H 1381.15 1.50333 0.787288 0
M  V30 15055 H 1379.93 3.29978 2.10309 0
M  V30 15056 H 1379.55 2.13006 3.35729 0
M  V30 15057 N 1380.55 -0.980364 1.23396 0
M  V30 15058 C 1381.79 -1.73674 1.07781 0
M  V30 15059 C 1382.15 -1.88227 -0.378759 0
M  V30 15060 O 1383.35 -2.6067 -0.656092 0
M  V30 15061 C 1381.62 -3.09727 1.78337 0
M  V30 15062 S 1383.18 -4.00944 1.78295 0
M  V30 15063 H 1380 -0.597273 0.385728 0
M  V30 15064 H 1382.6 -1.17123 1.56533 0
M  V30 15065 H 1381.3 -2.96786 2.83455 0
M  V30 15066 H 1380.84 -3.71346 1.29868 0
M  V30 15067 H 1382.85 -4.89011 0.841572 0
M  V30 15068 N 1382.02 -1.04567 -1.17913 0
M  V30 15069 C 1382.96 -0.585519 -2.2056 0
M  V30 15070 C 1383.93 0.382581 -1.58035 0
M  V30 15071 O 1385.12 0.295692 -1.86166 0
M  V30 15072 C 1382.25 0.14396 -3.38394 0
M  V30 15073 C 1381.29 -0.778174 -4.19341 0
M  V30 15074 S 1382.12 -2.26385 -4.85294 0
M  V30 15075 C 1383.28 -1.54537 -6.06522 0
M  V30 15076 H 1383.51 -1.4552 -2.59251 0
M  V30 15077 H 1381.05 -0.857075 -1.28427 0
M  V30 15078 H 1383 0.558661 -4.06681 0
M  V30 15079 H 1381.67 0.989593 -2.98104 0
M  V30 15080 H 1380.86 -0.214053 -5.03545 0
M  V30 15081 H 1380.46 -1.13195 -3.56459 0
M  V30 15082 H 1382.75 -0.841199 -6.72257 0
M  V30 15083 H 1383.7 -2.36465 -6.6745 0
M  V30 15084 H 1384.1 -1.03551 -5.54921 0
M  V30 15085 N 1383.5 1.34231 -0.825823 0
M  V30 15086 C 1384.41 2.33245 -0.251803 0
M  V30 15087 C 1385.43 1.62756 0.615334 0
M  V30 15088 O 1386.6 1.94503 0.522547 0
M  V30 15089 C 1383.67 3.41908 0.574456 0
M  V30 15090 C 1382.73 4.2814 -0.315422 0
M  V30 15091 C 1381.96 5.31613 0.471496 0
M  V30 15092 O 1382.19 5.44337 1.70449 0
M  V30 15093 O 1381.12 6.01719 -0.147691 0
M  V30 15094 H 1384.95 2.84174 -1.07139 0
M  V30 15095 H 1382.53 1.37341 -0.588032 0
M  V30 15096 H 1384.41 4.08252 1.04444 0
M  V30 15097 H 1383.09 2.93217 1.37132 0
M  V30 15098 H 1381.99 3.64709 -0.832963 0
M  V30 15099 H 1383.33 4.80279 -1.07672 0
M  V30 15100 N 1384.98 0.581051 1.46498 0
M  V30 15101 C 1386.23 0.0660934 2.02692 0
M  V30 15102 C 1386.56 -1.28985 1.45178 0
M  V30 15103 O 1385.83 -1.84479 0.616247 0
M  V30 15104 C 1386.12 -0.00145411 3.601 0
M  V30 15105 C 1385.97 1.38327 4.28002 0
M  V30 15106 C 1387.29 -0.702914 4.3445 0
M  V30 15107 H 1384.41 0.0254923 0.736559 0
M  V30 15108 H 1387.05 0.74793 1.7466 0
M  V30 15109 H 1385.2 -0.582118 3.84114 0
M  V30 15110 H 1386.87 2.00897 4.15257 0
M  V30 15111 H 1385.11 1.95144 3.87429 0
M  V30 15112 H 1385.79 1.28849 5.36751 0
M  V30 15113 H 1388.26 -0.209641 4.15572 0
M  V30 15114 H 1387.14 -0.719202 5.44168 0
M  V30 15115 H 1387.4 -1.76389 4.05388 0
M  V30 15116 N 1386.46 -1.54343 0.318742 0
M  V30 15117 C 1387.42 -2.22828 -0.536679 0
M  V30 15118 C 1388.42 -1.22013 -1.04735 0
M  V30 15119 O 1389.61 -1.46626 -0.940549 0
M  V30 15120 C 1386.74 -2.92857 -1.74493 0
M  V30 15121 H 1387.94 -2.99836 0.0619325 0
M  V30 15122 H 1385.49 -1.56144 0.0697687 0
M  V30 15123 H 1386.22 -2.19973 -2.3829 0
M  V30 15124 H 1386.01 -3.66779 -1.38621 0
M  V30 15125 H 1387.5 -3.45049 -2.35225 0
M  V30 15126 N 1387.94 -0.0468143 -1.5753 0
M  V30 15127 C 1389.18 0.626699 -1.92138 0
M  V30 15128 C 1389.5 1.7164 -0.925463 0
M  V30 15129 O 1388.77 1.95876 0.0303531 0
M  V30 15130 H 1387.35 0.234479 -0.709245 0
M  V30 15131 H 1390.02 -0.0987892 -1.94649 0
M  V30 15132 H 1389.11 1.06811 -2.93254 0
M  V30 15133 N 1389.41 1.55964 0.226527 0
M  V30 15134 C 1390.35 1.88487 1.30405 0
M  V30 15135 C 1391.36 0.772723 1.43293 0
M  V30 15136 O 1392.55 1.05099 1.44279 0
M  V30 15137 C 1389.65 2.074 2.68027 0
M  V30 15138 C 1388.82 3.38389 2.77149 0
M  V30 15139 C 1387.88 3.46795 3.95752 0
M  V30 15140 O 1386.91 4.19862 3.84323 0
M  V30 15141 N 1388.11 2.77573 5.09836 0
M  V30 15142 H 1390.87 2.81506 1.02833 0
M  V30 15143 H 1388.43 1.56449 0.416581 0
M  V30 15144 H 1390.43 2.10344 3.45742 0
M  V30 15145 H 1389 1.2103 2.8822 0
M  V30 15146 H 1388.22 3.47586 1.8595 0
M  V30 15147 H 1389.5 4.24688 2.8021 0
M  V30 15148 H 1388.9 2.17979 5.22017 0
M  V30 15149 H 1387.46 2.86185 5.85612 0
M  V30 15150 N 1390.89 -0.493031 1.4969 0
M  V30 15151 C 1391.86 -1.57598 1.6642 0
M  V30 15152 C 1392.86 -1.51615 0.535668 0
M  V30 15153 O 1394.05 -1.54626 0.802283 0
M  V30 15154 C 1391.18 -2.97249 1.66901 0
M  V30 15155 H 1392.37 -1.4409 2.63017 0
M  V30 15156 H 1389.92 -0.717846 1.3884 0
M  V30 15157 H 1390.66 -3.16225 0.719164 0
M  V30 15158 H 1390.44 -3.02999 2.48865 0
M  V30 15159 H 1391.93 -3.75914 1.81874 0
M  V30 15160 N 1392.37 -1.38898 -0.744656 0
M  V30 15161 C 1393.3 -1.31228 -1.86693 0
M  V30 15162 C 1394.28 -0.187667 -1.61513 0
M  V30 15163 O 1395.47 -0.366497 -1.84903 0
M  V30 15164 C 1392.59 -1.03541 -3.22486 0
M  V30 15165 C 1391.64 -2.18061 -3.6654 0
M  V30 15166 S 1392.47 -3.80271 -3.77033 0
M  V30 15167 C 1393.63 -3.5479 -5.15631 0
M  V30 15168 H 1393.86 -2.26211 -1.92914 0
M  V30 15169 H 1391.39 -1.24839 -0.908544 0
M  V30 15170 H 1393.35 -0.882504 -4.00902 0
M  V30 15171 H 1392.01 -0.102611 -3.13932 0
M  V30 15172 H 1391.21 -1.94257 -4.65059 0
M  V30 15173 H 1390.81 -2.29505 -2.95302 0
M  V30 15174 H 1393.1 -3.11457 -6.01665 0
M  V30 15175 H 1394.04 -4.52735 -5.4446 0
M  V30 15176 H 1394.45 -2.89103 -4.8485 0
M  V30 15177 N 1393.85 0.973806 -1.23914 0
M  V30 15178 C 1395.09 1.731 -1.08701 0
M  V30 15179 C 1395.45 1.88425 0.368772 0
M  V30 15180 O 1396.65 2.61014 0.642259 0
M  V30 15181 C 1394.92 3.08777 -1.79977 0
M  V30 15182 S 1396.48 3.99993 -1.80419 0
M  V30 15183 H 1393.3 0.595219 -0.38889 0
M  V30 15184 H 1395.9 1.16291 -1.57152 0
M  V30 15185 H 1394.61 2.95278 -2.85024 0
M  V30 15186 H 1394.14 3.70652 -1.31835 0
M  V30 15187 H 1396.15 4.88558 -0.867494 0
M  V30 15188 N 1395.33 1.05191 1.17357 0
M  V30 15189 C 1396.26 0.673931 2.23563 0
M  V30 15190 C 1397.24 -0.328284 1.66902 0
M  V30 15191 O 1398.42 -0.205878 1.93106 0
M  V30 15192 C 1395.55 0.0478801 3.47267 0
M  V30 15193 C 1394.51 0.974855 4.1675 0
M  V30 15194 C 1393.83 0.212684 5.34277 0
M  V30 15195 C 1395.13 2.299 4.68981 0
M  V30 15196 H 1396.83 1.56183 2.55436 0
M  V30 15197 H 1394.37 0.752408 1.2278 0
M  V30 15198 H 1396.33 -0.228343 4.20781 0
M  V30 15199 H 1395.05 -0.874963 3.14662 0
M  V30 15200 H 1393.71 1.23564 3.45148 0
M  V30 15201 H 1393.36 -0.712924 4.97922 0
M  V30 15202 H 1393.06 0.830351 5.81703 0
M  V30 15203 H 1394.58 -0.056255 6.10574 0
M  V30 15204 H 1395.99 2.08269 5.34132 0
M  V30 15205 H 1394.39 2.87064 5.26986 0
M  V30 15206 H 1395.46 2.93759 3.8579 0
M  V30 15207 N 1396.8 -1.33791 0.83293 0
M  V30 15208 C 1398.05 -1.97233 0.422127 0
M  V30 15209 C 1398.37 -1.66738 -1.02264 0
M  V30 15210 O 1399.57 -2.23747 -1.53783 0
M  V30 15211 C 1398.03 -3.5295 0.703872 0
M  V30 15212 C 1397.64 -3.92329 2.16292 0
M  V30 15213 C 1399.38 -4.22973 0.359727 0
M  V30 15214 C 1397.29 -5.40999 2.38903 0
M  V30 15215 H 1396.22 -0.738082 0.154112 0
M  V30 15216 H 1398.87 -1.52494 1.02068 0
M  V30 15217 H 1397.25 -3.95985 0.0350184 0
M  V30 15218 H 1398.42 -3.6037 2.87176 0
M  V30 15219 H 1396.74 -3.35271 2.46947 0
M  V30 15220 H 1399.34 -5.32297 0.506366 0
M  V30 15221 H 1399.68 -4.10428 -0.696743 0
M  V30 15222 H 1400.21 -3.85449 0.983568 0
M  V30 15223 H 1396.95 -5.58541 3.43093 0
M  V30 15224 H 1396.47 -5.74438 1.72573 0
M  V30 15225 H 1398.15 -6.07809 2.2176 0
M  V30 15226 N 1398.28 -0.588812 -1.46187 0
M  V30 15227 C 1399.53 -0.0768417 -2.02654 0
M  V30 15228 C 1399.86 1.28213 -1.4586 0
M  V30 15229 O 1399.14 1.8415 -0.626022 0
M  V30 15230 C 1399.42 -0.0176429 -3.60096 0
M  V30 15231 C 1399.27 -1.40595 -4.27262 0
M  V30 15232 C 1400.59 0.679864 -4.34817 0
M  V30 15233 H 1397.71 -0.0293981 -0.736413 0
M  V30 15234 H 1400.35 -0.757183 -1.74261 0
M  V30 15235 H 1398.5 0.56174 -3.84417 0
M  V30 15236 H 1400.17 -2.03097 -4.14185 0
M  V30 15237 H 1398.42 -1.97196 -3.86388 0
M  V30 15238 H 1399.09 -1.31694 -5.3606 0
M  V30 15239 H 1401.56 0.1876 -4.15677 0
M  V30 15240 H 1400.44 0.690333 -5.44542 0
M  V30 15241 H 1400.7 1.74237 -4.06318 0
M  V30 15242 N 1399.76 1.54172 -0.326923 0
M  V30 15243 C 1400.99 2.04747 0.276107 0
M  V30 15244 C 1401.4 1.20251 1.4607 0
M  V30 15245 O 1400.74 0.226753 1.82295 0
M  V30 15246 C 1400.8 3.51143 0.770651 0
M  V30 15247 C 1400.47 4.56066 -0.292079 0
M  V30 15248 C 1401.46 5.07487 -1.12928 0
M  V30 15249 C 1399.15 5.00358 -0.441232 0
M  V30 15250 C 1401.14 6.01767 -2.10133 0
M  V30 15251 C 1398.83 5.94452 -1.4167 0
M  V30 15252 C 1399.83 6.45042 -2.24521 0
M  V30 15253 O 1399.52 7.37288 -3.20409 0
M  V30 15254 H 1399.25 0.673322 0.0601144 0
M  V30 15255 H 1401.8 1.99899 -0.472176 0
M  V30 15256 H 1400.03 3.53399 1.5699 0
M  V30 15257 H 1401.72 3.84775 1.2924 0
M  V30 15258 H 1402.49 4.74044 -1.02505 0
M  V30 15259 H 1398.37 4.60593 0.193767 0
M  V30 15260 H 1401.91 6.41178 -2.74839 0
M  V30 15261 H 1397.81 6.27311 -1.52155 0
M  V30 15262 H 1398.58 7.55171 -3.15687 0
M  V30 15263 N 1401.24 0.0551678 1.57503 0
M  V30 15264 C 1402.17 -0.953348 2.07332 0
M  V30 15265 C 1403.15 -1.30148 0.974699 0
M  V30 15266 O 1404.33 -1.41366 1.24692 0
M  V30 15267 C 1401.46 -2.26622 2.51715 0
M  V30 15268 C 1400.51 -2.07085 3.72851 0
M  V30 15269 S 1401.34 -1.34553 5.1832 0
M  V30 15270 C 1402.5 -2.67155 5.6602 0
M  V30 15271 H 1402.73 -0.529294 2.9255 0
M  V30 15272 H 1400.26 -0.157196 1.53598 0
M  V30 15273 H 1402.22 -3.02085 2.77948 0
M  V30 15274 H 1400.88 -2.66155 1.66795 0
M  V30 15275 H 1400.07 -3.04206 4.01839 0
M  V30 15276 H 1399.68 -1.39761 3.46905 0
M  V30 15277 H 1401.97 -3.63309 5.7185 0
M  V30 15278 H 1402.91 -2.42798 6.65173 0
M  V30 15279 H 1403.32 -2.73597 4.93766 0
M  V30 15280 N 1402.72 -1.56081 -0.218252 0
M  V30 15281 C 1403.65 -1.87704 -1.29779 0
M  V30 15282 C 1404.63 -0.734747 -1.45053 0
M  V30 15283 O 1405.81 -0.98344 -1.60813 0
M  V30 15284 C 1402.94 -2.08695 -2.66766 0
M  V30 15285 C 1401.98 -3.31385 -2.68489 0
M  V30 15286 S 1402.82 -4.87212 -2.22227 0
M  V30 15287 C 1403.97 -5.11243 -3.61083 0
M  V30 15288 H 1404.21 -2.78975 -1.02762 0
M  V30 15289 H 1401.74 -1.48559 -0.420653 0
M  V30 15290 H 1403.7 -2.21472 -3.4563 0
M  V30 15291 H 1402.36 -1.18215 -2.91005 0
M  V30 15292 H 1401.55 -3.43127 -3.69161 0
M  V30 15293 H 1401.15 -3.17482 -1.9769 0
M  V30 15294 H 1403.45 -5.00344 -4.56796 0
M  V30 15295 H 1404.39 -6.13115 -3.54254 0
M  V30 15296 H 1404.8 -4.38964 -3.54924 0
M  V30 15297 N 1404.2 0.485086 -1.49949 0
M  V30 15298 C 1405.44 1.23999 -1.60474 0
M  V30 15299 C 1405.77 1.91904 -0.297736 0
M  V30 15300 O 1405.05 1.81472 0.699857 0
M  V30 15301 C 1405.33 2.2946 -2.77525 0
M  V30 15302 C 1405.19 1.65952 -4.18067 0
M  V30 15303 C 1406.5 3.30893 -2.90169 0
M  V30 15304 H 1403.62 0.449462 -0.584083 0
M  V30 15305 H 1406.27 0.535795 -1.82289 0
M  V30 15306 H 1404.42 2.89521 -2.59056 0
M  V30 15307 H 1406.09 1.09596 -4.48092 0
M  V30 15308 H 1404.33 0.963079 -4.22974 0
M  V30 15309 H 1405 2.42521 -4.9587 0
M  V30 15310 H 1407.48 2.8084 -3.07031 0
M  V30 15311 H 1406.35 4.02027 -3.73718 0
M  V30 15312 H 1406.61 3.94178 -2.0019 0
M  V30 15313 N 1405.67 1.39291 0.737279 0
M  V30 15314 C 1406.61 1.32216 1.85995 0
M  V30 15315 C 1407.58 0.19623 1.61412 0
M  V30 15316 O 1408.77 0.376297 1.84706 0
M  V30 15317 C 1405.9 1.0525 3.21932 0
M  V30 15318 C 1404.94 2.20002 3.65378 0
M  V30 15319 S 1405.77 3.82265 3.75011 0
M  V30 15320 C 1406.93 3.57519 5.13742 0
M  V30 15321 H 1407.16 2.27231 1.91712 0
M  V30 15322 H 1404.7 1.25319 0.901911 0
M  V30 15323 H 1406.65 0.903753 4.00428 0
M  V30 15324 H 1405.32 0.119258 3.13874 0
M  V30 15325 H 1404.51 1.9672 4.64023 0
M  V30 15326 H 1404.11 2.31068 2.94081 0
M  V30 15327 H 1406.4 3.14643 6.00005 0
M  V30 15328 H 1407.35 4.55616 5.42051 0
M  V30 15329 H 1407.75 2.9167 4.8331 0
M  V30 15330 N 1407.15 -0.967221 1.24429 0
M  V30 15331 C 1408.4 -1.71279 1.08588 0
M  V30 15332 C 1408.73 -1.90558 -0.374325 0
M  V30 15333 O 1408.01 -1.46742 -1.27659 0
M  V30 15334 C 1408.29 -3.10326 1.82674 0
M  V30 15335 C 1408.14 -2.98535 3.36447 0
M  V30 15336 C 1409.46 -4.09993 1.59981 0
M  V30 15337 H 1406.58 -0.621658 0.395867 0
M  V30 15338 H 1409.22 -1.12514 1.53103 0
M  V30 15339 H 1407.37 -3.60492 1.44836 0
M  V30 15340 H 1409.04 -2.55791 3.83886 0
M  V30 15341 H 1407.29 -2.34736 3.64803 0
M  V30 15342 H 1407.96 -3.97041 3.83487 0
M  V30 15343 H 1410.43 -3.68687 1.92897 0
M  V30 15344 H 1409.31 -5.05349 2.14274 0
M  V30 15345 H 1409.57 -4.38812 0.538173 0
M  V30 15346 N 1408.63 -1.05812 -1.16797 0
M  V30 15347 C 1409.88 -0.767008 -1.86547 0
M  V30 15348 C 1410.19 0.708979 -1.82299 0
M  V30 15349 O 1411.4 1.11428 -2.4758 0
M  V30 15350 C 1409.85 -1.32186 -3.34746 0
M  V30 15351 C 1409.46 -2.82774 -3.4748 0
M  V30 15352 C 1411.21 -1.10808 -4.09783 0
M  V30 15353 C 1409.11 -3.31529 -4.89737 0
M  V30 15354 H 1408.04 -0.283235 -0.698781 0
M  V30 15355 H 1410.69 -1.27621 -1.31853 0
M  V30 15356 H 1409.08 -0.740453 -3.89016 0
M  V30 15357 H 1410.25 -3.46825 -3.03396 0
M  V30 15358 H 1408.56 -3.02765 -2.85871 0
M  V30 15359 H 1411.16 -1.44728 -5.14741 0
M  V30 15360 H 1411.5 -0.046167 -4.16274 0
M  V30 15361 H 1412.04 -1.65502 -3.61737 0
M  V30 15362 H 1408.78 -4.37177 -4.88422 0
M  V30 15363 H 1408.3 -2.72224 -5.34466 0
M  V30 15364 H 1409.98 -3.26572 -5.58534 0
M  V30 15365 N 1410.11 1.33347 -0.840014 0
M  V30 15366 C 1411.36 1.97354 -0.435412 0
M  V30 15367 C 1411.68 1.66866 1.009 0
M  V30 15368 O 1410.95 0.968186 1.70303 0
M  V30 15369 H 1409.53 0.730096 -0.158017 0
M  V30 15370 H 1412.19 1.6269 -1.07322 0
M  V30 15371 H 1411.28 3.0688 -0.56841 0
M  V30 15372 N 1411.59 0.596556 1.45873 0
M  V30 15373 C 1412.53 -0.141327 2.3217 0
M  V30 15374 C 1413.53 -0.870652 1.45314 0
M  V30 15375 O 1414.73 -0.787469 1.61861 0
M  V30 15376 H 1411.11 -0.0644404 0.749234 0
M  V30 15377 H 1413.08 0.605115 2.922 0
M  V30 15378 C 1411.83 -1.13261 3.28736 0
M  V30 15379 H 1411.15 -0.580835 3.95558 0
M  V30 15380 H 1412.59 -1.61904 3.91871 0
M  V30 15381 C 1411.05 -2.20062 2.55097 0
M  V30 15382 O 1411.58 -3.27634 2.3242 0
M  V30 15383 N 1409.79 -1.95044 2.15421 0
M  V30 15384 H 1409.33 -1.07573 2.34064 0
M  V30 15385 H 1409.29 -2.66711 1.66472 0
M  V30 15386 N 1413.06 -1.53996 0.335095 0
M  V30 15387 C 1413.99 -2.2768 -0.518087 0
M  V30 15388 C 1414.97 -1.28915 -1.10972 0
M  V30 15389 O 1416.16 -1.57745 -1.1327 0
M  V30 15390 C 1413.29 -3.04327 -1.67339 0
M  V30 15391 C 1412.24 -4.10525 -1.2105 0
M  V30 15392 C 1411.57 -4.75078 -2.45366 0
M  V30 15393 C 1412.87 -5.21337 -0.317055 0
M  V30 15394 H 1414.56 -2.99244 0.0965669 0
M  V30 15395 H 1412.11 -1.4392 0.0478842 0
M  V30 15396 H 1414.06 -3.54608 -2.27664 0
M  V30 15397 H 1412.79 -2.30399 -2.31481 0
M  V30 15398 H 1411.45 -3.61144 -0.630124 0
M  V30 15399 H 1411.09 -3.97754 -3.07897 0
M  V30 15400 H 1410.79 -5.46822 -2.1508 0
M  V30 15401 H 1412.32 -5.2814 -3.06432 0
M  V30 15402 H 1413.73 -5.67305 -0.826905 0
M  V30 15403 H 1412.13 -6.00006 -0.106458 0
M  V30 15404 H 1413.2 -4.80536 0.649068 0
M  V30 15405 N 1414.54 -0.0635198 -1.57472 0
M  V30 15406 C 1415.79 0.608384 -1.93459 0
M  V30 15407 C 1416.12 1.6976 -0.943141 0
M  V30 15408 O 1415.4 1.94478 0.0289567 0
M  V30 15409 C 1415.68 1.19302 -3.39763 0
M  V30 15410 C 1415.53 0.11102 -4.49663 0
M  V30 15411 C 1416.85 2.101 -3.86712 0
M  V30 15412 H 1413.97 0.219688 -0.703496 0
M  V30 15413 H 1416.61 -0.127803 -1.8957 0
M  V30 15414 H 1414.76 1.82044 -3.43209 0
M  V30 15415 H 1416.43 -0.521606 -4.58342 0
M  V30 15416 H 1414.68 -0.559408 -4.30178 0
M  V30 15417 H 1415.35 0.560332 -5.49149 0
M  V30 15418 H 1417.82 1.57305 -3.8522 0
M  V30 15419 H 1416.7 2.47945 -4.89708 0
M  V30 15420 H 1416.96 3.00603 -3.24177 0
M  V30 15421 N 1416.02 1.56195 0.209972 0
M  V30 15422 C 1417.27 1.80011 0.93402 0
M  V30 15423 C 1417.6 0.635109 1.83521 0
M  V30 15424 O 1416.87 -0.365099 1.91043 0
M  V30 15425 C 1417.16 3.13989 1.76304 0
M  V30 15426 C 1417.01 4.40956 0.887567 0
M  V30 15427 C 1418.33 3.44514 2.73857 0
M  V30 15428 H 1415.45 0.654859 0.338125 0
M  V30 15429 H 1418.09 1.88921 0.20221 0
M  V30 15430 H 1416.24 3.06524 2.38695 0
M  V30 15431 H 1417.91 4.60452 0.279507 0
M  V30 15432 H 1416.15 4.33368 0.193533 0
M  V30 15433 H 1416.83 5.31164 1.50228 0
M  V30 15434 H 1419.3 3.52182 2.216 0
M  V30 15435 H 1418.18 4.39407 3.28957 0
M  V30 15436 H 1418.44 2.6726 3.52171 0
M  V30 15437 N 1417.5 -0.477127 1.50204 0
M  V30 15438 C 1418.43 -1.58405 1.71552 0
M  V30 15439 C 1419.41 -1.60463 0.564413 0
M  V30 15440 O 1420.59 -1.76826 0.802893 0
M  V30 15441 C 1417.72 -2.96765 1.8041 0
M  V30 15442 C 1416.68 -3.09573 2.95548 0
M  V30 15443 C 1416 -4.49522 2.89542 0
M  V30 15444 C 1417.3 -2.87356 4.36147 0
M  V30 15445 H 1419 -1.40792 2.64231 0
M  V30 15446 H 1416.54 -0.675886 1.27153 0
M  V30 15447 H 1418.5 -3.74125 1.9393 0
M  V30 15448 H 1417.22 -3.1552 0.843489 0
M  V30 15449 H 1415.88 -2.34645 2.81669 0
M  V30 15450 H 1415.53 -4.65186 1.91339 0
M  V30 15451 H 1415.23 -4.59028 3.66834 0
M  V30 15452 H 1416.75 -5.28909 3.05102 0
M  V30 15453 H 1418.17 -3.54469 4.50583 0
M  V30 15454 H 1416.56 -3.08313 5.14843 0
M  V30 15455 H 1417.63 -1.83264 4.48935 0
M  V30 15456 N 1418.98 -1.3968 -0.729882 0
M  V30 15457 C 1419.92 -1.3896 -1.86528 0
M  V30 15458 C 1420.92 -0.272027 -1.67202 0
M  V30 15459 O 1422.12 -0.442328 -1.74481 0
M  V30 15460 H 1418.5 -0.434045 -0.614092 0
M  V30 15461 H 1420.47 -2.34721 -1.84252 0
M  V30 15462 C 1419.22 -1.255 -3.24261 0
M  V30 15463 H 1418.54 -2.10767 -3.39731 0
M  V30 15464 H 1419.98 -1.29054 -4.03882 0
M  V30 15465 C 1418.44 0.0361127 -3.36881 0
M  V30 15466 O 1418.97 1.0044 -3.8894 0
M  V30 15467 N 1417.18 0.100874 -2.90425 0
M  V30 15468 H 1416.72 -0.687797 -2.48248 0
M  V30 15469 H 1416.68 0.964251 -2.99248 0
M  V30 15470 N 1420.45 0.960609 -1.2494 0
M  V30 15471 C 1421.38 2.074 -1.07274 0
M  V30 15472 C 1422.37 1.70092 0.0164365 0
M  V30 15473 O 1423.55 1.93604 -0.151975 0
M  V30 15474 C 1420.68 3.40491 -0.684317 0
M  V30 15475 C 1419.63 3.91784 -1.72306 0
M  V30 15476 C 1418.96 5.21301 -1.18949 0
M  V30 15477 C 1420.26 4.18829 -3.12056 0
M  V30 15478 H 1421.95 2.22438 -2.00404 0
M  V30 15479 H 1419.5 1.06888 -0.964937 0
M  V30 15480 H 1421.45 4.17826 -0.547686 0
M  V30 15481 H 1420.18 3.25374 0.282687 0
M  V30 15482 H 1418.84 3.16613 -1.84802 0
M  V30 15483 H 1418.48 5.02549 -0.212892 0
M  V30 15484 H 1418.18 5.56588 -1.8837 0
M  V30 15485 H 1419.71 6.01238 -1.06513 0
M  V30 15486 H 1421.12 4.86844 -3.02748 0
M  V30 15487 H 1419.52 4.6536 -3.78894 0
M  V30 15488 H 1420.59 3.25333 -3.59564 0
M  V30 15489 N 1421.93 1.0643 1.16234 0
M  V30 15490 C 1423.18 0.78184 1.86798 0
M  V30 15491 C 1423.51 -0.691734 1.81784 0
M  V30 15492 O 1422.76 -1.52271 1.22931 0
M  V30 15493 C 1423.06 1.22348 3.35806 0
M  V30 15494 C 1422.73 2.7014 3.61019 0
M  V30 15495 C 1421.39 3.1051 3.6761 0
M  V30 15496 C 1423.74 3.65582 3.71482 0
M  V30 15497 C 1421.07 4.45159 3.82165 0
M  V30 15498 C 1423.42 4.99981 3.87559 0
M  V30 15499 C 1422.09 5.39986 3.92392 0
M  V30 15500 H 1421.36 0.286096 0.683542 0
M  V30 15501 H 1424 1.33364 1.37427 0
M  V30 15502 H 1422.31 0.590896 3.87319 0
M  V30 15503 H 1424 0.981959 3.88791 0
M  V30 15504 H 1420.59 2.37884 3.56524 0
M  V30 15505 H 1424.78 3.35525 3.657 0
M  V30 15506 H 1420.03 4.75637 3.8416 0
M  V30 15507 H 1424.21 5.73817 3.94597 0
M  V30 15508 H 1421.84 6.44324 4.03423 0
M  V30 15509 N 1423.41 -1.329 0.847073 0
M  V30 15510 C 1424.34 -2.31546 0.301422 0
M  V30 15511 C 1425.32 -1.59342 -0.595317 0
M  V30 15512 O 1426.51 -1.87188 -0.517151 0
M  V30 15513 C 1423.64 -3.43423 -0.517454 0
M  V30 15514 C 1422.59 -4.27055 0.284195 0
M  V30 15515 C 1421.92 -5.30624 -0.658944 0
M  V30 15516 C 1423.22 -5.00123 1.50578 0
M  V30 15517 H 1424.91 -2.77433 1.12567 0
M  V30 15518 H 1422.46 -1.3338 0.542739 0
M  V30 15519 H 1424.41 -4.11467 -0.909543 0
M  V30 15520 H 1423.13 -2.96246 -1.37499 0
M  V30 15521 H 1421.79 -3.60648 0.657944 0
M  V30 15522 H 1421.44 -4.79702 -1.51311 0
M  V30 15523 H 1421.14 -5.87464 -0.12662 0
M  V30 15524 H 1422.66 -6.01533 -1.04837 0
M  V30 15525 H 1424.08 -5.6089 1.18641 0
M  V30 15526 H 1422.48 -5.66652 1.97549 0
M  V30 15527 H 1423.55 -4.28424 2.27115 0
M  V30 15528 N 1424.89 -0.604284 -1.45555 0
M  V30 15529 C 1425.85 0.106526 -2.28952 0
M  V30 15530 C 1426.85 0.798277 -1.39586 0
M  V30 15531 O 1428.04 0.646943 -1.61741 0
M  V30 15532 C 1425.17 1.16091 -3.20524 0
M  V30 15533 H 1426.37 -0.626655 -2.9328 0
M  V30 15534 H 1423.92 -0.363183 -1.52022 0
M  V30 15535 H 1424.65 1.92496 -2.6099 0
M  V30 15536 H 1424.44 0.669137 -3.86348 0
M  V30 15537 H 1425.93 1.65882 -3.8324 0
M  V30 15538 N 1426.37 1.53816 -0.343257 0
M  V30 15539 C 1427.3 2.27951 0.506005 0
M  V30 15540 C 1428.28 1.29502 1.10287 0
M  V30 15541 O 1429.46 1.58344 1.12432 0
M  V30 15542 C 1426.59 3.0521 1.65723 0
M  V30 15543 C 1425.55 4.11161 1.18871 0
M  V30 15544 C 1424.87 4.76373 2.42843 0
M  V30 15545 C 1426.17 5.21498 0.289403 0
M  V30 15546 H 1427.87 2.99189 -0.112435 0
M  V30 15547 H 1425.41 1.43893 -0.055516 0
M  V30 15548 H 1427.37 3.55811 2.2578 0
M  V30 15549 H 1426.09 2.31624 2.30256 0
M  V30 15550 H 1424.75 3.61473 0.610962 0
M  V30 15551 H 1424.4 3.99381 3.05784 0
M  V30 15552 H 1424.1 5.47955 2.12177 0
M  V30 15553 H 1425.62 5.29758 3.03627 0
M  V30 15554 H 1427.03 5.67736 0.796808 0
M  V30 15555 H 1425.43 6.00054 0.0746366 0
M  V30 15556 H 1426.5 4.80185 -0.674543 0
M  V30 15557 N 1427.84 0.0718701 1.57436 0
M  V30 15558 C 1428.77 -0.89288 2.15754 0
M  V30 15559 C 1429.76 -1.31036 1.0846 0
M  V30 15560 O 1430.94 -1.38139 1.36496 0
M  V30 15561 C 1428.07 -2.16044 2.71923 0
M  V30 15562 C 1427.02 -1.88236 3.84384 0
M  V30 15563 C 1426.35 -3.21624 4.27156 0
M  V30 15564 C 1427.65 -1.18758 5.0862 0
M  V30 15565 H 1429.34 -0.407061 2.9662 0
M  V30 15566 H 1426.89 -0.194354 1.42682 0
M  V30 15567 H 1428.84 -2.83952 3.11366 0
M  V30 15568 H 1427.57 -2.66868 1.88279 0
M  V30 15569 H 1426.23 -1.22734 3.45445 0
M  V30 15570 H 1425.87 -3.70289 3.40433 0
M  V30 15571 H 1425.57 -3.03809 5.02965 0
M  V30 15572 H 1427.1 -3.90729 4.69215 0
M  V30 15573 H 1428.51 -1.76735 5.45378 0
M  V30 15574 H 1426.91 -1.11201 5.89707 0
M  V30 15575 H 1427.98 -0.166682 4.84613 0
M  V30 15576 N 1429.32 -1.56304 -0.201686 0
M  V30 15577 C 1430.25 -1.97046 -1.25281 0
M  V30 15578 C 1431.23 -0.841458 -1.47829 0
M  V30 15579 O 1432.42 -1.10529 -1.59678 0
M  V30 15580 C 1429.55 -2.30429 -2.59845 0
M  V30 15581 C 1428.5 -3.46006 -2.5192 0
M  V30 15582 C 1427.83 -3.65047 -3.90697 0
M  V30 15583 C 1429.13 -4.80391 -2.04992 0
M  V30 15584 H 1430.82 -2.85099 -0.914272 0
M  V30 15585 H 1428.37 -1.37166 -0.438359 0
M  V30 15586 H 1430.32 -2.57525 -3.33555 0
M  V30 15587 H 1429.05 -1.39251 -2.95426 0
M  V30 15588 H 1427.7 -3.18991 -1.80667 0
M  V30 15589 H 1427.35 -2.71211 -4.2362 0
M  V30 15590 H 1427.05 -4.42796 -3.86271 0
M  V30 15591 H 1428.58 -3.94512 -4.66039 0
M  V30 15592 H 1429.99 -5.06561 -2.68456 0
M  V30 15593 H 1428.39 -5.61563 -2.11582 0
M  V30 15594 H 1429.46 -4.74416 -1.00288 0
M  V30 15595 N 1430.8 0.469154 -1.50455 0
M  V30 15596 C 1432.03 1.24899 -1.65575 0
M  V30 15597 C 1432.45 1.85009 -0.339581 0
M  V30 15598 O 1431.81 1.67376 0.696774 0
M  V30 15599 C 1431.86 2.33205 -2.75041 0
M  V30 15600 O 1430.96 3.37898 -2.36429 0
M  V30 15601 H 1430.3 0.367362 -0.553119 0
M  V30 15602 H 1432.83 0.558083 -1.96842 0
M  V30 15603 H 1432.84 2.78487 -2.98176 0
M  V30 15604 H 1431.52 1.88826 -3.70564 0
M  V30 15605 H 1430.09 2.98314 -2.23748 0
M  V30 15606 N 1432.28 1.40065 0.722464 0
M  V30 15607 C 1433.5 1.4146 1.5167 0
M  V30 15608 C 1433.93 0.0142653 1.88095 0
M  V30 15609 O 1433.29 -0.975934 1.52791 0
M  V30 15610 C 1433.33 2.30531 2.77287 0
M  V30 15611 O 1432.44 1.74382 3.73717 0
M  V30 15612 H 1431.78 0.481194 0.457546 0
M  V30 15613 H 1434.31 1.84213 0.890331 0
M  V30 15614 H 1434.32 2.45479 3.25889 0
M  V30 15615 H 1432.99 3.32292 2.50109 0
M  V30 15616 H 1431.57 1.68743 3.32536 0
M  V30 15617 N 1433.76 -0.95397 1.25448 0
M  V30 15618 C 1435 -1.69866 1.10235 0
M  V30 15619 C 1435.33 -1.91204 -0.356552 0
M  V30 15620 O 1434.59 -1.4811 -1.27914 0
M  V30 15621 C 1434.89 -3.08613 1.80258 0
M  V30 15622 C 1434.55 -3.07072 3.30178 0
M  V30 15623 C 1433.21 -3.0636 3.71076 0
M  V30 15624 C 1435.57 -3.00351 4.25956 0
M  V30 15625 C 1432.89 -2.96675 5.06163 0
M  V30 15626 C 1435.25 -2.92209 5.61067 0
M  V30 15627 C 1433.91 -2.89832 6.01293 0
M  V30 15628 H 1433.18 -0.621583 0.40338 0
M  V30 15629 H 1435.83 -1.11448 1.55729 0
M  V30 15630 H 1434.13 -3.70578 1.27197 0
M  V30 15631 H 1435.83 -3.65055 1.6594 0
M  V30 15632 H 1432.42 -3.084 2.97637 0
M  V30 15633 H 1436.6 -3.0002 3.9535 0
M  V30 15634 H 1431.86 -2.93204 5.36508 0
M  V30 15635 H 1436.03 -2.8597 6.34976 0
M  V30 15636 H 1433.66 -2.82084 7.05927 0
M  V30 15637 N 1435.24 -1.07045 -1.15668 0
M  V30 15638 C 1436.46 -0.812802 -1.9081 0
M  V30 15639 C 1436.89 0.627827 -1.77313 0
M  V30 15640 O 1436.24 1.43836 -1.10368 0
M  V30 15641 C 1436.29 -1.2219 -3.39267 0
M  V30 15642 O 1435.4 -0.365305 -4.10779 0
M  V30 15643 H 1434.74 -0.296385 -0.594182 0
M  V30 15644 H 1437.27 -1.42825 -1.465 0
M  V30 15645 H 1437.28 -1.19674 -3.90054 0
M  V30 15646 H 1435.95 -2.27121 -3.48409 0
M  V30 15647 H 1434.53 -0.452687 -3.70142 0
M  V30 15648 N 1436.71 1.32449 -0.85411 0
M  V30 15649 C 1437.94 2.01997 -0.470307 0
M  V30 15650 C 1438.36 1.63772 0.925225 0
M  V30 15651 O 1437.72 0.838089 1.60766 0
M  V30 15652 C 1437.77 3.55294 -0.616301 0
M  V30 15653 O 1436.87 4.10902 0.351133 0
M  V30 15654 H 1436.21 0.63651 -0.189079 0
M  V30 15655 H 1438.74 1.69008 -1.15315 0
M  V30 15656 H 1438.75 4.0488 -0.503624 0
M  V30 15657 H 1437.43 3.82459 -1.63396 0
M  V30 15658 H 1436.01 3.72391 0.194741 0
M  V30 15659 N 1438.19 0.611994 1.45232 0
M  V30 15660 C 1439.47 0.0407 1.95558 0
M  V30 15661 C 1439.85 -1.42839 1.55436 0
M  V30 15662 O 1439.2 -2.13316 0.819055 0
M  V30 15663 C 1439.41 0.243436 3.4815 0
M  V30 15664 C 1440.75 0.126551 4.24411 0
M  V30 15665 O 1441.78 0.17379 3.55776 0
M  V30 15666 O 1440.64 0.0153526 5.46498 0
M  V30 15667 H 1437.73 -0.0332288 0.826332 0
M  V30 15668 H 1440.28 0.682364 1.55377 0
M  V30 15669 H 1439.05 1.26357 3.70337 0
M  V30 15670 H 1438.67 -0.43328 3.95232 0
M  V30 15671 N 1439.67 -1.53632 0.351409 0
M  V30 15672 C 1440.62 -2.26782 -0.516983 0
M  V30 15673 C 1441.61 -1.29222 -1.09536 0
M  V30 15674 O 1442.82 -1.46901 -1.04019 0
M  V30 15675 H 1439.19 -0.728783 -0.185417 0
M  V30 15676 H 1441.16 -2.98151 0.121909 0
M  V30 15677 C 1439.91 -3.05943 -1.6521 0
M  V30 15678 H 1439.24 -3.80848 -1.21633 0
M  V30 15679 H 1440.68 -3.60328 -2.23472 0
M  V30 15680 C 1439.13 -2.15917 -2.58614 0
M  V30 15681 O 1439.66 -1.76049 -3.61067 0
M  V30 15682 N 1437.87 -1.80837 -2.27478 0
M  V30 15683 H 1437.42 -2.13456 -1.44202 0
M  V30 15684 H 1437.38 -1.20886 -2.90231 0
M  V30 15685 N 1441.15 -0.0802183 -1.57396 0
M  V30 15686 C 1442.08 0.881426 -2.16225 0
M  V30 15687 C 1443.06 1.30459 -1.09154 0
M  V30 15688 O 1444.24 1.37413 -1.37227 0
M  V30 15689 C 1441.37 2.14599 -2.73065 0
M  V30 15690 C 1440.33 1.86195 -3.85377 0
M  V30 15691 C 1439.65 3.19354 -4.28856 0
M  V30 15692 C 1440.95 1.16059 -5.09242 0
M  V30 15693 H 1442.65 0.391325 -2.96832 0
M  V30 15694 H 1440.19 0.186785 -1.42783 0
M  V30 15695 H 1442.15 2.82297 -3.12868 0
M  V30 15696 H 1440.87 2.65866 -1.89691 0
M  V30 15697 H 1439.53 1.209 -3.46091 0
M  V30 15698 H 1439.18 3.68479 -3.42392 0
M  V30 15699 H 1438.88 3.01137 -5.04569 0
M  V30 15700 H 1440.4 3.88235 -4.71281 0
M  V30 15701 H 1441.82 1.7384 -5.46308 0
M  V30 15702 H 1440.21 1.08072 -5.90288 0
M  V30 15703 H 1441.28 0.14098 -4.84695 0
M  V30 15704 N 1442.63 1.56409 0.193394 0
M  V30 15705 C 1443.85 1.84837 0.929676 0
M  V30 15706 C 1444.27 0.662928 1.76779 0
M  V30 15707 O 1443.63 -0.368339 1.78744 0
M  V30 15708 C 1443.68 3.12083 1.82445 0
M  V30 15709 O 1443.4 4.26056 1.02018 0
M  V30 15710 C 1444.9 3.53701 2.67227 0
M  V30 15711 H 1442.12 0.613766 0.271168 0
M  V30 15712 H 1444.66 2.03518 0.200134 0
M  V30 15713 H 1442.82 2.95294 2.5076 0
M  V30 15714 H 1443.23 4.98526 1.63008 0
M  V30 15715 H 1444.71 4.45699 3.25663 0
M  V30 15716 H 1445.18 2.76771 3.41019 0
M  V30 15717 H 1445.79 3.73027 2.04281 0
M  V30 15718 N 1444.1 -0.461169 1.50702 0
M  V30 15719 C 1445.07 -1.54032 1.69725 0
M  V30 15720 C 1446.07 -1.50445 0.567707 0
M  V30 15721 O 1447.26 -1.52889 0.834901 0
M  V30 15722 C 1444.39 -2.93642 1.73168 0
M  V30 15723 H 1445.58 -1.38478 2.66015 0
M  V30 15724 H 1443.13 -0.688235 1.40332 0
M  V30 15725 H 1443.87 -3.14629 0.786078 0
M  V30 15726 H 1443.65 -2.97652 2.55236 0
M  V30 15727 H 1445.14 -3.71972 1.89807 0
M  V30 15728 N 1445.58 -1.40446 -0.715026 0
M  V30 15729 C 1446.83 -1.38059 -1.47046 0
M  V30 15730 C 1447.14 0.0139125 -1.95595 0
M  V30 15731 O 1448.35 0.160398 -2.71026 0
M  V30 15732 C 1446.81 -2.42646 -2.65802 0
M  V30 15733 C 1446.41 -3.8791 -2.2412 0
M  V30 15734 C 1448.16 -2.49367 -3.43535 0
M  V30 15735 C 1446.06 -4.84092 -3.39719 0
M  V30 15736 H 1444.99 -0.513341 -0.552265 0
M  V30 15737 H 1447.65 -1.66185 -0.778126 0
M  V30 15738 H 1446.03 -2.07621 -3.37208 0
M  V30 15739 H 1447.2 -4.32082 -1.6013 0
M  V30 15740 H 1445.52 -3.8467 -1.5943 0
M  V30 15741 H 1448.11 -3.18414 -4.29554 0
M  V30 15742 H 1448.46 -1.52436 -3.87388 0
M  V30 15743 H 1448.99 -2.83386 -2.79173 0
M  V30 15744 H 1445.73 -5.82358 -3.00898 0
M  V30 15745 H 1445.25 -4.44584 -4.02623 0
M  V30 15746 H 1446.93 -5.03939 -4.05776 0
M  V30 15747 N 1447.06 0.947303 -1.25952 0
M  V30 15748 C 1447.97 2.07878 -1.08738 0
M  V30 15749 C 1448.99 1.73985 -0.0225212 0
M  V30 15750 O 1450.16 2.00139 -0.224984 0
M  V30 15751 C 1447.23 3.39231 -0.715756 0
M  V30 15752 C 1446.29 3.86945 -1.85935 0
M  V30 15753 C 1445.52 5.1203 -1.50537 0
M  V30 15754 O 1445.74 5.68965 -0.404323 0
M  V30 15755 O 1444.68 5.54634 -2.33805 0
M  V30 15756 H 1448.5 2.25305 -2.03645 0
M  V30 15757 H 1446.09 1.06321 -1.04958 0
M  V30 15758 H 1447.97 4.18167 -0.520962 0
M  V30 15759 H 1446.65 3.23057 0.203978 0
M  V30 15760 H 1445.55 3.08981 -2.10906 0
M  V30 15761 H 1446.89 4.0763 -2.75859 0
M  V30 15762 N 1448.54 1.07657 1.15099 0
M  V30 15763 C 1449.45 0.711198 2.2356 0
M  V30 15764 C 1450.46 -0.278932 1.7175 0
M  V30 15765 O 1451.64 -0.124788 2.01013 0
M  V30 15766 C 1448.71 0.117855 3.465 0
M  V30 15767 C 1447.77 1.16162 4.13286 0
M  V30 15768 C 1447 0.596494 5.30356 0
M  V30 15769 O 1447.22 -0.586474 5.67377 0
M  V30 15770 O 1446.16 1.34288 5.86729 0
M  V30 15771 H 1449.98 1.61578 2.5715 0
M  V30 15772 H 1447.57 0.84973 1.22882 0
M  V30 15773 H 1449.45 -0.210613 4.20873 0
M  V30 15774 H 1448.12 -0.760008 3.14652 0
M  V30 15775 H 1447.03 1.54249 3.4082 0
M  V30 15776 H 1448.36 2.01149 4.49221 0
M  V30 15777 N 1450.02 -1.31994 0.861122 0
M  V30 15778 C 1451.29 -1.91699 0.388705 0
M  V30 15779 C 1451.67 -1.78412 -1.12838 0
M  V30 15780 O 1451.02 -1.18625 -1.95296 0
M  V30 15781 C 1451.23 -3.38232 0.860248 0
M  V30 15782 C 1452.58 -4.15355 0.881201 0
M  V30 15783 O 1453.6 -3.46977 0.805313 0
M  V30 15784 O 1452.46 -5.37468 0.98945 0
M  V30 15785 H 1449.56 -0.819017 0.114629 0
M  V30 15786 H 1452.1 -1.40721 0.94845 0
M  V30 15787 H 1450.87 -3.41876 1.9036 0
M  V30 15788 H 1450.5 -3.96625 0.278316 0
M  V30 15789 N 1451.49 -0.619688 -1.44906 0
M  V30 15790 C 1452.91 -0.203309 -1.8559 0
M  V30 15791 C 1453.26 1.24265 -1.51831 0
M  V30 15792 O 1452.38 1.94392 -0.950819 0
M  V30 15793 C 1452.98 -0.362204 -3.36858 0
M  V30 15794 C 1451.54 -0.000423575 -3.764 0
M  V30 15795 C 1450.68 -0.680979 -2.68808 0
M  V30 15796 H 1453.63 -0.825595 -1.35535 0
M  V30 15797 H 1453.65 0.402149 -3.78369 0
M  V30 15798 H 1453.17 -1.41468 -3.61398 0
M  V30 15799 H 1451.27 1.05077 -3.57477 0
M  V30 15800 H 1451.38 -0.402508 -4.77406 0
M  V30 15801 H 1449.74 -0.117407 -2.54429 0
M  V30 15802 H 1450.53 -1.73583 -2.96182 0
M  V30 15803 N 1452.97 1.53444 -0.359552 0
M  V30 15804 C 1454.25 1.93467 0.288106 0
M  V30 15805 C 1454.63 1.29256 1.66901 0
M  V30 15806 O 1453.98 0.449402 2.24037 0
M  V30 15807 C 1454.19 3.47297 0.344359 0
M  V30 15808 C 1455.54 4.20515 0.587585 0
M  V30 15809 O 1456.56 3.53646 0.425818 0
M  V30 15810 O 1455.42 5.39003 0.902119 0
M  V30 15811 H 1452.51 0.809033 0.171451 0
M  V30 15812 H 1455.06 1.64625 -0.411896 0
M  V30 15813 H 1453.83 3.86292 -0.624064 0
M  V30 15814 H 1453.45 3.82353 1.0905 0
M  V30 15815 N 1454.45 0.0885642 1.57351 0
M  V30 15816 C 1455.41 -0.858178 2.12528 0
M  V30 15817 C 1456.41 -1.21522 1.05304 0
M  V30 15818 O 1457.6 -1.14573 1.3122 0
M  V30 15819 C 1454.74 -2.15619 2.64048 0
M  V30 15820 H 1455.93 -0.37918 2.97493 0
M  V30 15821 H 1453.48 -0.160354 1.55475 0
M  V30 15822 H 1454.22 -2.68018 1.82584 0
M  V30 15823 H 1454 -1.90995 3.42437 0
M  V30 15824 H 1455.49 -2.83359 3.06753 0
M  V30 15825 N 1455.93 -1.56509 -0.185096 0
M  V30 15826 C 1456.88 -1.96237 -1.24875 0
M  V30 15827 C 1457.87 -0.849169 -1.46579 0
M  V30 15828 O 1459.08 -1.03422 -1.47322 0
M  V30 15829 H 1455.45 -0.624147 -0.419457 0
M  V30 15830 H 1457.42 -2.8492 -0.88673 0
M  V30 15831 C 1456.17 -2.32667 -2.58382 0
M  V30 15832 H 1455.49 -3.17858 -2.425 0
M  V30 15833 H 1456.93 -2.6432 -3.31528 0
M  V30 15834 C 1455.39 -1.16496 -3.16118 0
M  V30 15835 O 1455.92 -0.445283 -3.99224 0
M  V30 15836 N 1454.13 -0.939133 -2.75007 0
M  V30 15837 H 1453.68 -1.52611 -2.07527 0
M  V30 15838 H 1453.63 -0.163659 -3.13974 0
M  V30 15839 N 1457.41 0.45317 -1.50944 0
M  V30 15840 C 1458.35 1.56953 -1.71664 0
M  V30 15841 C 1459.35 1.59064 -0.582673 0
M  V30 15842 O 1460.55 1.62998 -0.763651 0
M  V30 15843 H 1456.93 0.521147 -0.542135 0
M  V30 15844 H 1458.9 1.36645 -2.65275 0
M  V30 15845 C 1457.65 2.9475 -1.84438 0
M  V30 15846 H 1456.97 2.93852 -2.71093 0
M  V30 15847 H 1458.41 3.72271 -2.02954 0
M  V30 15848 C 1456.87 3.31509 -0.600281 0
M  V30 15849 O 1457.4 4.00906 0.252366 0
M  V30 15850 N 1455.61 2.8711 -0.449014 0
M  V30 15851 H 1455.15 2.30808 -1.14392 0
M  V30 15852 H 1455.11 3.12068 0.382199 0
M  V30 15853 N 1458.88 1.40823 0.707568 0
M  V30 15854 C 1459.81 1.44485 1.83429 0
M  V30 15855 C 1460.8 0.304848 1.67346 0
M  V30 15856 O 1461.98 0.514605 1.87258 0
M  V30 15857 C 1459.11 1.31458 3.21459 0
M  V30 15858 C 1458.06 2.43145 3.52228 0
M  V30 15859 C 1457.39 2.15189 4.89487 0
M  V30 15860 C 1458.69 3.85489 3.52414 0
M  V30 15861 H 1460.38 2.38781 1.80622 0
M  V30 15862 H 1457.93 1.14931 0.867572 0
M  V30 15863 H 1459.88 1.32635 3.99983 0
M  V30 15864 H 1458.61 0.336422 3.24863 0
M  V30 15865 H 1457.27 2.41231 2.76049 0
M  V30 15866 H 1456.91 1.15745 4.89502 0
M  V30 15867 H 1456.61 2.90022 5.11039 0
M  V30 15868 H 1458.14 2.18062 5.70334 0
M  V30 15869 H 1459.55 3.89183 4.20963 0
M  V30 15870 H 1457.95 4.59906 3.85495 0
M  V30 15871 H 1459.02 4.14499 2.51632 0
M  V30 15872 N 1460.36 -0.94061 1.26453 0
M  V30 15873 C 1461.29 -2.04322 1.03852 0
M  V30 15874 C 1462.31 -1.628 -0.00122618 0
M  V30 15875 O 1463.5 -1.76894 0.238911 0
M  V30 15876 C 1460.6 -3.34394 0.550789 0
M  V30 15877 C 1459.77 -4.0468 1.6599 0
M  V30 15878 C 1458.83 -5.13025 1.17012 0
M  V30 15879 O 1457.85 -5.37699 1.8673 0
M  V30 15880 N 1459.06 -5.80497 0.0188478 0
M  V30 15881 H 1461.82 -2.24276 1.98797 0
M  V30 15882 H 1459.38 -1.11013 1.17846 0
M  V30 15883 H 1461.37 -4.04169 0.207305 0
M  V30 15884 H 1459.94 -3.11108 -0.30509 0
M  V30 15885 H 1459.16 -3.28813 2.17429 0
M  V30 15886 H 1460.45 -4.48392 2.40463 0
M  V30 15887 H 1459.85 -5.62888 -0.563368 0
M  V30 15888 H 1458.41 -6.51259 -0.265556 0
M  V30 15889 N 1461.84 -1.08266 -1.14527 0
M  V30 15890 C 1463.09 -0.806405 -1.84878 0
M  V30 15891 C 1463.4 0.670151 -1.83762 0
M  V30 15892 O 1464.61 1.06151 -2.49888 0
M  V30 15893 C 1463.06 -1.39257 -3.31867 0
M  V30 15894 C 1462.67 -2.90081 -3.41404 0
M  V30 15895 C 1464.42 -1.19475 -4.0734 0
M  V30 15896 C 1462.32 -3.41842 -4.82595 0
M  V30 15897 H 1461.25 -0.297993 -0.692615 0
M  V30 15898 H 1463.9 -1.30389 -1.29116 0
M  V30 15899 H 1462.29 -0.822802 -3.87358 0
M  V30 15900 H 1463.46 -3.53182 -2.95971 0
M  V30 15901 H 1461.78 -3.08761 -2.79385 0
M  V30 15902 H 1464.37 -1.55614 -5.11555 0
M  V30 15903 H 1464.72 -0.134455 -4.16083 0
M  V30 15904 H 1465.25 -1.73138 -3.58145 0
M  V30 15905 H 1461.99 -4.47439 -4.79039 0
M  V30 15906 H 1461.51 -2.835 -5.28572 0
M  V30 15907 H 1463.19 -3.38346 -5.51481 0
M  V30 15908 N 1463.32 1.31536 -0.86811 0
M  V30 15909 C 1464.28 2.26849 -0.327456 0
M  V30 15910 C 1465.28 1.52142 0.520514 0
M  V30 15911 O 1466.47 1.71044 0.330088 0
M  V30 15912 C 1463.6 3.36673 0.535174 0
M  V30 15913 H 1464.8 2.76184 -1.16886 0
M  V30 15914 H 1462.35 1.42437 -0.643545 0
M  V30 15915 H 1463.09 2.92627 1.39785 0
M  V30 15916 H 1462.87 3.92034 -0.0719835 0
M  V30 15917 H 1464.36 4.07658 0.905786 0
M  V30 15918 N 1464.8 0.627364 1.44575 0
M  V30 15919 C 1466.04 0.130545 2.02379 0
M  V30 15920 C 1466.38 -1.24301 1.49208 0
M  V30 15921 O 1465.65 -1.82425 0.674626 0
M  V30 15922 C 1465.93 0.11311 3.59922 0
M  V30 15923 C 1465.79 1.51874 4.23385 0
M  V30 15924 C 1467.11 -0.564341 4.36467 0
M  V30 15925 H 1464.23 0.0489125 0.735375 0
M  V30 15926 H 1466.87 0.803118 1.72192 0
M  V30 15927 H 1465.02 -0.459621 3.85772 0
M  V30 15928 H 1466.69 2.14007 4.08655 0
M  V30 15929 H 1464.93 2.07371 3.81024 0
M  V30 15930 H 1465.6 1.4586 5.3238 0
M  V30 15931 H 1468.08 -0.0773244 4.16028 0
M  V30 15932 H 1466.96 -0.545715 5.46181 0
M  V30 15933 H 1467.22 -1.63403 4.10794 0
M  V30 15934 N 1466.28 -1.53251 0.367684 0
M  V30 15935 C 1467.5 -2.05705 -0.222047 0
M  V30 15936 C 1467.92 -1.24104 -1.4228 0
M  V30 15937 O 1467.28 -0.282228 -1.80305 0
M  V30 15938 C 1467.33 -3.56257 -0.613475 0
M  V30 15939 O 1467.05 -4.34765 0.539558 0
M  V30 15940 C 1468.55 -4.24976 -1.26137 0
M  V30 15941 H 1465.77 -0.66989 -0.0385799 0
M  V30 15942 H 1468.31 -1.97602 0.526663 0
M  V30 15943 H 1466.47 -3.64503 -1.3121 0
M  V30 15944 H 1466.88 -5.24027 0.222699 0
M  V30 15945 H 1468.36 -5.31628 -1.4858 0
M  V30 15946 H 1468.83 -3.78828 -2.2223 0
M  V30 15947 H 1469.44 -4.20987 -0.604121 0
M  V30 15948 N 1467.75 -0.0969077 -1.57302 0
M  V30 15949 C 1469.17 0.25974 -1.57472 0
M  V30 15950 C 1469.37 1.6829 -1.10818 0
M  V30 15951 O 1468.43 2.39972 -0.785466 0
M  V30 15952 C 1469.74 0.0465211 -3.00664 0
M  V30 15953 C 1471.29 0.114131 -3.12792 0
M  V30 15954 C 1471.76 -0.0711175 -4.57945 0
M  V30 15955 N 1473.25 -0.0163438 -4.63197 0
M  V30 15956 C 1473.99 -0.1349 -5.73241 0
M  V30 15957 N 1473.48 -0.308391 -6.92113 0
M  V30 15958 N 1475.28 -0.0760411 -5.62049 0
M  V30 15959 H 1467.43 -1.02673 -1.85935 0
M  V30 15960 H 1469.69 -0.402528 -0.858298 0
M  V30 15961 H 1469.4 -0.936496 -3.39002 0
M  V30 15962 H 1469.27 0.78805 -3.68876 0
M  V30 15963 H 1471.66 1.08765 -2.74325 0
M  V30 15964 H 1471.74 -0.658918 -2.47168 0
M  V30 15965 H 1471.38 -1.04152 -4.97106 0
M  V30 15966 H 1471.31 0.721647 -5.21632 0
M  V30 15967 H 1473.8 0.115134 -3.77725 0
M  V30 15968 H 1474.12 -0.390318 -7.71814 0
M  V30 15969 H 1472.46 -0.344082 -6.94148 0
M  V30 15970 H 1475.65 0.0583778 -4.68064 0
M  V30 15971 H 1475.83 -0.171884 -6.47772 0
M  V30 15972 N 1469.23 1.56605 0.176793 0
M  V30 15973 C 1470.48 1.80875 0.892578 0
M  V30 15974 C 1470.79 0.673245 1.83648 0
M  V30 15975 O 1472 0.800732 2.59423 0
M  V30 15976 C 1470.46 3.20481 1.63768 0
M  V30 15977 C 1470.06 4.41885 0.737685 0
M  V30 15978 C 1471.81 3.54048 2.34202 0
M  V30 15979 C 1469.71 5.72512 1.48271 0
M  V30 15980 H 1468.64 0.674476 0.337042 0
M  V30 15981 H 1471.3 1.82922 0.145574 0
M  V30 15982 H 1469.68 3.12736 2.42924 0
M  V30 15983 H 1470.85 4.60797 -0.0165186 0
M  V30 15984 H 1469.17 4.16153 0.143277 0
M  V30 15985 H 1471.76 4.48886 2.90526 0
M  V30 15986 H 1472.11 2.78665 3.09276 0
M  V30 15987 H 1472.64 3.63322 1.61995 0
M  V30 15988 H 1469.38 6.5091 0.774399 0
M  V30 15989 H 1468.9 5.57586 2.21038 0
M  V30 15990 H 1470.58 6.14274 2.03165 0
M  V30 15991 N 1470.71 -0.445159 1.51182 0
M  V30 15992 C 1471.66 -1.53975 1.71931 0
M  V30 15993 C 1472.63 -1.56344 0.560865 0
M  V30 15994 O 1473.81 -1.73475 0.794414 0
M  V30 15995 C 1470.95 -2.91756 1.84316 0
M  V30 15996 C 1470.06 -2.98976 3.11829 0
M  V30 15997 C 1469.2 -4.27831 3.14855 0
M  V30 15998 C 1468.24 -4.2889 4.36715 0
M  V30 15999 N 1467.38 -5.49257 4.37334 0
M  V30 16000 H 1472.22 -1.35586 2.65368 0
M  V30 16001 H 1469.75 -0.658787 1.31523 0
M  V30 16002 H 1471.71 -3.7169 1.89479 0
M  V30 16003 H 1470.34 -3.08721 0.942947 0
M  V30 16004 H 1469.39 -2.11753 3.16014 0
M  V30 16005 H 1470.7 -2.95619 4.01759 0
M  V30 16006 H 1469.86 -5.16134 3.1889 0
M  V30 16007 H 1468.6 -4.33833 2.228 0
M  V30 16008 H 1467.6 -3.38982 4.32864 0
M  V30 16009 H 1468.83 -4.24558 5.30026 0
M  V30 16010 H 1466.77 -5.55995 3.48145 0
M  V30 16011 H 1466.69 -5.47748 5.21064 0
M  V30 16012 H 1467.96 -6.39613 4.45551 0
M  V30 16013 N 1472.19 -1.41197 -0.700089 0
M  V30 16014 C 1473.13 -1.42688 -1.81407 0
M  V30 16015 C 1474.1 -0.28182 -1.63692 0
M  V30 16016 O 1475.29 -0.482196 -1.84606 0
M  V30 16017 C 1472.43 -1.31041 -3.19252 0
M  V30 16018 C 1471.54 -2.5538 -3.48432 0
M  V30 16019 C 1470.68 -2.3606 -4.75867 0
M  V30 16020 C 1469.72 -3.55898 -4.97999 0
M  V30 16021 N 1468.85 -3.35676 -6.16657 0
M  V30 16022 H 1473.69 -2.37898 -1.79467 0
M  V30 16023 H 1471.23 -1.18137 -0.87647 0
M  V30 16024 H 1473.19 -1.22292 -3.98874 0
M  V30 16025 H 1471.82 -0.394422 -3.20381 0
M  V30 16026 H 1470.87 -2.74598 -2.6325 0
M  V30 16027 H 1472.18 -3.44535 -3.6069 0
M  V30 16028 H 1471.34 -2.24752 -5.63535 0
M  V30 16029 H 1470.08 -1.44355 -4.65846 0
M  V30 16030 H 1469.08 -3.67665 -4.08781 0
M  V30 16031 H 1470.31 -4.4855 -5.09882 0
M  V30 16032 H 1468.25 -2.46667 -6.07858 0
M  V30 16033 H 1468.17 -4.18404 -6.29662 0
M  V30 16034 H 1469.44 -3.28132 -7.07071 0
M  V30 16035 N 1473.67 0.933891 -1.2695 0
M  V30 16036 C 1474.91 1.67759 -1.12701 0
M  V30 16037 C 1475.23 1.92207 0.328848 0
M  V30 16038 O 1474.5 1.52394 1.23097 0
M  V30 16039 H 1473.08 0.621729 -0.41408 0
M  V30 16040 H 1475.75 1.1217 -1.59386 0
M  V30 16041 H 1474.84 2.64834 -1.65135 0
M  V30 16042 N 1475.14 1.08871 1.13951 0
M  V30 16043 C 1476.39 0.816198 1.84448 0
M  V30 16044 C 1476.71 -0.660396 1.84114 0
M  V30 16045 O 1477.91 -1.04825 2.50448 0
M  V30 16046 C 1476.37 1.41015 3.31123 0
M  V30 16047 C 1475.98 2.91888 3.39861 0
M  V30 16048 C 1477.72 1.21633 4.06701 0
M  V30 16049 C 1475.63 3.44397 4.80775 0
M  V30 16050 H 1474.56 0.301662 0.691025 0
M  V30 16051 H 1477.21 1.31072 1.28423 0
M  V30 16052 H 1475.59 0.843333 3.86916 0
M  V30 16053 H 1476.76 3.54747 2.94094 0
M  V30 16054 H 1475.08 3.10238 2.77743 0
M  V30 16055 H 1477.68 1.58324 5.10723 0
M  V30 16056 H 1478.02 0.156519 4.16006 0
M  V30 16057 H 1478.55 1.75035 3.57222 0
M  V30 16058 H 1475.29 4.49973 4.7666 0
M  V30 16059 H 1474.81 2.86299 5.27061 0
M  V30 16060 H 1476.49 3.41266 5.49679 0
M  V30 16061 N 1476.62 -1.31073 0.875073 0
M  V30 16062 C 1477.57 -2.30335 0.3238 0
M  V30 16063 C 1478.56 -1.5974 -0.563869 0
M  V30 16064 O 1479.77 -1.743 -0.449402 0
M  V30 16065 H 1476.14 -0.747062 0.0860376 0
M  V30 16066 H 1478.12 -2.743 1.17483 0
M  V30 16067 C 1476.86 -3.44705 -0.455348 0
M  V30 16068 H 1476.19 -3.99203 0.218433 0
M  V30 16069 H 1477.63 -4.16262 -0.806329 0
M  V30 16070 C 1476.09 -2.93807 -1.6486 0
M  V30 16071 O 1476.62 -2.93004 -2.74794 0
M  V30 16072 N 1474.82 -2.49944 -1.48244 0
M  V30 16073 H 1474.37 -2.50797 -0.588116 0
M  V30 16074 H 1474.33 -2.16245 -2.28222 0
M  V30 16075 N 1478.1 -0.635022 -1.4424 0
M  V30 16076 C 1479.33 -0.148045 -2.06069 0
M  V30 16077 C 1479.74 1.1842 -1.47558 0
M  V30 16078 O 1479.08 1.73817 -0.594425 0
M  V30 16079 C 1479.14 0.0369593 -3.59481 0
M  V30 16080 C 1478.81 -1.21773 -4.40478 0
M  V30 16081 C 1479.8 -2.14233 -4.73709 0
M  V30 16082 C 1477.49 -1.45423 -4.80788 0
M  V30 16083 C 1479.48 -3.2865 -5.46139 0
M  V30 16084 C 1477.17 -2.60136 -5.52967 0
M  V30 16085 C 1478.17 -3.51576 -5.85562 0
M  V30 16086 O 1477.86 -4.64289 -6.5627 0
M  V30 16087 H 1477.59 -0.0787231 -0.671401 0
M  V30 16088 H 1480.14 -0.870639 -1.86035 0
M  V30 16089 H 1478.37 0.814739 -3.7802 0
M  V30 16090 H 1480.06 0.478984 -4.03064 0
M  V30 16091 H 1480.83 -1.97196 -4.43101 0
M  V30 16092 H 1476.71 -0.751378 -4.54835 0
M  V30 16093 H 1480.25 -4.00043 -5.71499 0
M  V30 16094 H 1476.15 -2.77114 -5.82991 0
M  V30 16095 H 1476.92 -4.6332 -6.74742 0
M  V30 16096 N 1479.58 1.53054 -0.375806 0
M  V30 16097 C 1480.82 2.017 0.210985 0
M  V30 16098 C 1481.16 1.26228 1.47581 0
M  V30 16099 O 1480.43 0.358869 1.91161 0
M  V30 16100 C 1480.72 3.56715 0.492596 0
M  V30 16101 C 1480.57 4.42869 -0.786573 0
M  V30 16102 C 1481.89 4.20803 1.28891 0
M  V30 16103 H 1479.01 0.733153 0.0752084 0
M  V30 16104 H 1481.65 1.83229 -0.502715 0
M  V30 16105 H 1479.8 3.72585 1.10059 0
M  V30 16106 H 1481.47 4.38777 -1.42381 0
M  V30 16107 H 1479.71 4.10425 -1.40478 0
M  V30 16108 H 1480.38 5.49309 -0.544354 0
M  V30 16109 H 1482.86 4.08828 0.774498 0
M  V30 16110 H 1481.74 5.29273 1.45469 0
M  V30 16111 H 1482 3.77541 2.30033 0
M  V30 16112 N 1481.06 0.105248 1.57248 0
M  V30 16113 C 1482 -0.850012 2.14577 0
M  V30 16114 C 1482.97 -1.27294 1.06703 0
M  V30 16115 O 1484.16 -1.35289 1.34542 0
M  V30 16116 C 1481.3 -2.09993 2.73856 0
M  V30 16117 C 1480.41 -1.72662 3.95995 0
M  V30 16118 C 1479.55 -2.92517 4.43404 0
M  V30 16119 C 1478.59 -2.5136 5.58108 0
M  V30 16120 N 1477.72 -3.64082 6.00324 0
M  V30 16121 H 1482.56 -0.354282 2.95887 0
M  V30 16122 H 1480.1 -0.163192 1.46192 0
M  V30 16123 H 1482.06 -2.83208 3.06348 0
M  V30 16124 H 1480.69 -2.57048 1.95259 0
M  V30 16125 H 1479.74 -0.893754 3.69752 0
M  V30 16126 H 1481.05 -1.38406 4.79213 0
M  V30 16127 H 1480.21 -3.73973 4.77734 0
M  V30 16128 H 1478.94 -3.2999 3.59107 0
M  V30 16129 H 1477.95 -1.68333 5.23397 0
M  V30 16130 H 1479.17 -2.15019 6.44161 0
M  V30 16131 H 1477.12 -4.01255 5.18971 0
M  V30 16132 H 1477.04 -3.33705 6.78363 0
M  V30 16133 H 1478.31 -4.46019 6.39287 0
M  V30 16134 N 1482.53 -1.56697 -0.168486 0
M  V30 16135 C 1483.47 -1.93197 -1.23319 0
M  V30 16136 C 1484.48 -0.825373 -1.40326 0
M  V30 16137 O 1485.67 -1.10381 -1.40279 0
M  V30 16138 C 1482.77 -2.17205 -2.60145 0
M  V30 16139 C 1481.94 -3.48442 -2.64399 0
M  V30 16140 C 1481 -3.61244 -3.82609 0
M  V30 16141 O 1480.03 -4.33837 -3.68476 0
M  V30 16142 N 1481.23 -2.96304 -4.99183 0
M  V30 16143 H 1483.99 -2.85128 -0.923138 0
M  V30 16144 H 1481.55 -1.57887 -0.358229 0
M  V30 16145 H 1483.55 -2.23031 -3.37697 0
M  V30 16146 H 1482.12 -1.31643 -2.83529 0
M  V30 16147 H 1481.34 -3.54248 -1.72922 0
M  V30 16148 H 1482.62 -4.34795 -2.64255 0
M  V30 16149 H 1482.02 -2.37203 -5.13567 0
M  V30 16150 H 1480.58 -3.07722 -5.74587 0
M  V30 16151 N 1484.01 0.437135 -1.51416 0
M  V30 16152 C 1485.24 1.20898 -1.67903 0
M  V30 16153 C 1485.66 1.85009 -0.376458 0
M  V30 16154 O 1485.01 1.7072 0.645051 0
M  V30 16155 C 1485.06 2.29286 -2.79482 0
M  V30 16156 O 1484.78 1.67798 -4.04692 0
M  V30 16157 C 1486.29 3.19561 -3.07238 0
M  V30 16158 H 1483.51 0.364381 -0.563442 0
M  V30 16159 H 1486.05 0.517931 -1.97833 0
M  V30 16160 H 1484.2 2.94107 -2.5215 0
M  V30 16161 H 1484.62 2.39433 -4.6666 0
M  V30 16162 H 1486.09 3.91748 -3.88893 0
M  V30 16163 H 1486.57 3.80327 -2.19654 0
M  V30 16164 H 1487.18 2.60441 -3.3623 0
M  V30 16165 N 1485.49 1.41566 0.692592 0
M  V30 16166 C 1486.42 1.46423 1.81886 0
M  V30 16167 C 1487.4 0.32258 1.67013 0
M  V30 16168 O 1488.59 0.534437 1.86701 0
M  V30 16169 C 1485.72 1.3486 3.20047 0
M  V30 16170 C 1484.67 2.46867 3.49629 0
M  V30 16171 C 1484 2.20369 4.87177 0
M  V30 16172 C 1485.3 3.89205 3.48306 0
M  V30 16173 H 1486.99 2.40683 1.78079 0
M  V30 16174 H 1484.54 1.15845 0.855334 0
M  V30 16175 H 1486.49 1.36869 3.98553 0
M  V30 16176 H 1485.21 0.370859 3.24488 0
M  V30 16177 H 1483.87 2.44146 2.73475 0
M  V30 16178 H 1483.52 1.20931 4.88247 0
M  V30 16179 H 1483.22 2.95426 5.07934 0
M  V30 16180 H 1484.74 2.24099 5.6799 0
M  V30 16181 H 1486.16 3.93626 4.16811 0
M  V30 16182 H 1484.56 4.63969 3.80595 0
M  V30 16183 H 1485.63 4.17144 2.47222 0
M  V30 16184 N 1486.97 -0.927146 1.27443 0
M  V30 16185 C 1488.38 -1.20319 1.0486 0
M  V30 16186 C 1488.58 -2.00323 -0.217491 0
M  V30 16187 O 1487.64 -2.35032 -0.922833 0
M  V30 16188 C 1488.95 -1.9508 2.28833 0
M  V30 16189 C 1490.5 -2.08016 2.33877 0
M  V30 16190 C 1490.98 -2.86183 3.5758 0
M  V30 16191 N 1492.47 -2.93751 3.58141 0
M  V30 16192 C 1493.2 -3.54698 4.5053 0
M  V30 16193 N 1492.7 -4.17032 5.53223 0
M  V30 16194 N 1494.49 -3.52107 4.38152 0
M  V30 16195 H 1486.64 -0.392671 2.08739 0
M  V30 16196 H 1488.91 -0.236323 0.918072 0
M  V30 16197 H 1488.61 -1.43712 3.20998 0
M  V30 16198 H 1488.49 -2.95692 2.34193 0
M  V30 16199 H 1490.87 -2.5857 1.42217 0
M  V30 16200 H 1490.95 -1.06622 2.3252 0
M  V30 16201 H 1490.6 -2.36312 4.49576 0
M  V30 16202 H 1490.53 -3.87863 3.56188 0
M  V30 16203 H 1493.02 -2.49449 2.83872 0
M  V30 16204 H 1493.33 -4.61477 6.19886 0
M  V30 16205 H 1491.68 -4.15576 5.57065 0
M  V30 16206 H 1494.87 -3.02611 3.57134 0
M  V30 16207 H 1495.04 -3.99315 5.10344 0
M  V30 16208 N 1488.45 -1.09474 -1.13372 0
M  V30 16209 C 1489.36 -0.746674 -2.224 0
M  V30 16210 C 1490.37 0.251572 -1.72172 0
M  V30 16211 O 1491.55 0.092793 -2.01186 0
M  V30 16212 C 1488.61 -0.172965 -3.46268 0
M  V30 16213 C 1487.67 -1.22722 -4.11385 0
M  V30 16214 C 1486.91 -0.680794 -5.2934 0
M  V30 16215 O 1487.13 0.496135 -5.68238 0
M  V30 16216 O 1486.06 -1.43605 -5.84518 0
M  V30 16217 H 1489.89 -1.65649 -2.54547 0
M  V30 16218 H 1487.48 -0.869172 -1.21514 0
M  V30 16219 H 1489.36 0.143629 -4.21155 0
M  V30 16220 H 1488.03 0.709853 -3.15821 0
M  V30 16221 H 1486.94 -1.59652 -3.38323 0
M  V30 16222 H 1488.27 -2.0827 -4.45965 0
M  V30 16223 N 1489.92 1.30607 -0.882012 0
M  V30 16224 C 1491.17 1.96256 -0.498964 0
M  V30 16225 C 1491.5 1.69651 0.951259 0
M  V30 16226 O 1490.75 0.992303 1.68677 0
M  V30 16227 C 1491.05 3.50136 -0.716929 0
M  V30 16228 C 1490.72 3.96785 -2.14178 0
M  V30 16229 C 1489.38 4.09234 -2.53142 0
M  V30 16230 C 1491.73 4.21154 -3.07048 0
M  V30 16231 C 1489.06 4.43411 -3.84192 0
M  V30 16232 C 1491.41 4.56799 -4.37627 0
M  V30 16233 C 1490.08 4.67456 -4.76488 0
M  V30 16234 H 1489.35 0.718153 -0.182584 0
M  V30 16235 H 1491.99 1.55527 -1.1173 0
M  V30 16236 H 1490.3 3.91797 -0.0155388 0
M  V30 16237 H 1492 3.98998 -0.400196 0
M  V30 16238 H 1488.59 3.876 -1.82932 0
M  V30 16239 H 1492.77 4.1102 -2.78167 0
M  V30 16240 H 1488.03 4.49861 -4.14047 0
M  V30 16241 H 1492.2 4.74607 -5.09629 0
M  V30 16242 H 1489.83 4.93694 -5.78074 0
M  V30 16243 N 1491.4 0.642663 1.43901 0
M  V30 16244 C 1492.65 0.149167 2.01148 0
M  V30 16245 C 1492.96 -1.2405 1.51231 0
M  V30 16246 O 1494.17 -1.82864 2.00681 0
M  V30 16247 C 1492.63 0.215891 3.59252 0
M  V30 16248 C 1492.23 1.60759 4.18163 0
M  V30 16249 C 1493.98 -0.220546 4.23927 0
M  V30 16250 C 1491.89 1.62881 5.68528 0
M  V30 16251 H 1490.82 0.0520015 0.752205 0
M  V30 16252 H 1493.47 0.803152 1.6499 0
M  V30 16253 H 1491.85 -0.505409 3.92762 0
M  V30 16254 H 1493.02 2.3534 3.96171 0
M  V30 16255 H 1491.34 1.9891 3.65819 0
M  V30 16256 H 1493.93 -0.224389 5.34229 0
M  V30 16257 H 1494.28 -1.25003 3.97089 0
M  V30 16258 H 1494.81 0.448646 3.95262 0
M  V30 16259 H 1491.55 2.63704 6.00117 0
M  V30 16260 H 1491.07 0.926104 5.92607 0
M  V30 16261 H 1492.75 1.36785 6.32375 0
M  V30 16262 N 1492.88 -1.52852 0.383918 0
M  V30 16263 C 1493.81 -2.29213 -0.44539 0
M  V30 16264 C 1494.79 -1.3238 -1.06815 0
M  V30 16265 O 1495.98 -1.61269 -1.08194 0
M  V30 16266 C 1493.11 -3.09497 -1.57573 0
M  V30 16267 C 1492.06 -4.14168 -1.07928 0
M  V30 16268 C 1491.39 -4.82644 -2.30128 0
M  V30 16269 C 1492.69 -5.22082 -0.151035 0
M  V30 16270 H 1494.38 -2.98786 0.19172 0
M  V30 16271 H 1491.93 -1.43695 0.0936471 0
M  V30 16272 H 1493.88 -3.61672 -2.16267 0
M  V30 16273 H 1492.6 -2.37647 -2.24034 0
M  V30 16274 H 1491.26 -3.62966 -0.514909 0
M  V30 16275 H 1490.91 -4.07348 -2.95087 0
M  V30 16276 H 1490.61 -5.53388 -1.97574 0
M  V30 16277 H 1492.14 -5.37621 -2.89475 0
M  V30 16278 H 1493.55 -5.69649 -0.646003 0
M  V30 16279 H 1491.95 -6.00041 0.0844833 0
M  V30 16280 H 1493.02 -4.78228 0.801618 0
M  V30 16281 N 1494.36 -0.113586 -1.5719 0
M  V30 16282 C 1495.31 0.83862 -2.15025 0
M  V30 16283 C 1496.28 1.26726 -1.07376 0
M  V30 16284 O 1497.46 1.34574 -1.35257 0
M  V30 16285 C 1494.6 2.08538 -2.74965 0
M  V30 16286 C 1493.71 1.70559 -3.96905 0
M  V30 16287 C 1492.85 2.90161 -4.44949 0
M  V30 16288 C 1491.89 2.48396 -5.59433 0
M  V30 16289 N 1491.03 3.60894 -6.02246 0
M  V30 16290 H 1495.87 0.338585 -2.9607 0
M  V30 16291 H 1493.4 0.155437 -1.46276 0
M  V30 16292 H 1495.36 2.81579 -3.07846 0
M  V30 16293 H 1493.99 2.56009 -1.96619 0
M  V30 16294 H 1493.04 0.874133 -3.7022 0
M  V30 16295 H 1494.35 1.35863 -4.7994 0
M  V30 16296 H 1493.51 3.71434 -4.7971 0
M  V30 16297 H 1492.25 3.28081 -3.60852 0
M  V30 16298 H 1491.25 1.65555 -5.24282 0
M  V30 16299 H 1492.48 2.116 -6.45292 0
M  V30 16300 H 1490.42 3.98497 -5.21091 0
M  V30 16301 H 1490.34 3.30103 -6.80124 0
M  V30 16302 H 1491.61 4.42622 -6.41643 0
M  V30 16303 N 1495.84 1.56784 0.160173 0
M  V30 16304 C 1496.8 1.96373 1.18195 0
M  V30 16305 C 1497.8 0.848674 1.3658 0
M  V30 16306 O 1498.99 1.11553 1.33796 0
M  V30 16307 C 1496.12 2.26824 2.54487 0
M  V30 16308 H 1497.32 2.87819 0.842641 0
M  V30 16309 H 1494.87 1.51014 0.403038 0
M  V30 16310 H 1495.6 1.38129 2.93413 0
M  V30 16311 H 1495.39 3.08112 2.42507 0
M  V30 16312 H 1496.88 2.58337 3.28104 0
M  V30 16313 N 1497.32 -0.429099 1.51646 0
M  V30 16314 C 1498.56 -1.17784 1.64722 0
M  V30 16315 C 1498.89 -1.90998 0.367415 0
M  V30 16316 O 1498.15 -1.8463 -0.648862 0
M  V30 16317 C 1498.44 -2.2131 2.80636 0
M  V30 16318 C 1498.11 -1.65048 4.19607 0
M  V30 16319 C 1496.77 -1.49428 4.57411 0
M  V30 16320 C 1499.12 -1.23765 5.06292 0
M  V30 16321 C 1496.45 -0.910109 5.79598 0
M  V30 16322 C 1498.8 -0.667743 6.29066 0
M  V30 16323 C 1497.47 -0.498507 6.65636 0
M  V30 16324 H 1496.74 -0.431001 0.60276 0
M  V30 16325 H 1499.39 -0.46775 1.857 0
M  V30 16326 H 1497.69 -2.98388 2.53913 0
M  V30 16327 H 1499.39 -2.79079 2.87951 0
M  V30 16328 H 1495.98 -1.78185 3.89805 0
M  V30 16329 H 1500.16 -1.3465 4.77685 0
M  V30 16330 H 1495.42 -0.766825 6.06572 0
M  V30 16331 H 1499.59 -0.339377 6.95573 0
M  V30 16332 H 1497.22 -0.0437292 7.60187 0
M  V30 16333 N 1498.79 -1.41931 -0.685074 0
M  V30 16334 C 1500.02 -1.45432 -1.47866 0
M  V30 16335 C 1500.44 -0.0641302 -1.87991 0
M  V30 16336 O 1499.8 0.935081 -1.55325 0
M  V30 16337 C 1499.85 -2.37801 -2.71077 0
M  V30 16338 O 1498.95 -1.84229 -3.68963 0
M  V30 16339 H 1498.29 -0.493156 -0.444627 0
M  V30 16340 H 1500.82 -1.86508 -0.841177 0
M  V30 16341 H 1500.83 -2.54033 -3.19266 0
M  V30 16342 H 1499.51 -3.38807 -2.41211 0
M  V30 16343 H 1498.09 -1.775 -3.27945 0
M  V30 16344 N 1500.27 0.920374 -1.27933 0
M  V30 16345 C 1501.22 2.02196 -1.1129 0
M  V30 16346 C 1502.19 1.66096 -0.0118871 0
M  V30 16347 O 1503.37 1.8999 -0.175586 0
M  V30 16348 C 1500.51 3.36312 -0.77383 0
M  V30 16349 C 1499.63 3.85322 -1.95322 0
M  V30 16350 C 1498.76 5.07919 -1.55537 0
M  V30 16351 C 1497.8 5.49244 -2.7018 0
M  V30 16352 N 1496.94 6.63034 -2.30933 0
M  V30 16353 H 1501.78 2.15764 -2.05548 0
M  V30 16354 H 1499.31 1.05691 -1.02312 0
M  V30 16355 H 1501.27 4.13451 -0.558024 0
M  V30 16356 H 1499.9 3.22531 0.131806 0
M  V30 16357 H 1498.95 3.04399 -2.28135 0
M  V30 16358 H 1500.27 4.11915 -2.81296 0
M  V30 16359 H 1499.42 5.92581 -1.30123 0
M  V30 16360 H 1498.16 4.8312 -0.666818 0
M  V30 16361 H 1497.16 4.63127 -2.96299 0
M  V30 16362 H 1498.39 5.76035 -3.59667 0
M  V30 16363 H 1496.34 6.39878 -1.44539 0
M  V30 16364 H 1496.25 6.89319 -3.10444 0
M  V30 16365 H 1497.52 7.51018 -2.08786 0
M  V30 16366 N 1501.75 1.10074 1.1279 0
M  V30 16367 C 1502.7 0.746173 2.18405 0
M  V30 16368 C 1503.67 -0.275751 1.63795 0
M  V30 16369 O 1504.85 -0.155876 1.90162 0
M  V30 16370 C 1501.99 0.180105 3.4463 0
M  V30 16371 C 1501.1 1.25688 4.13312 0
M  V30 16372 C 1500.24 0.652852 5.27173 0
M  V30 16373 C 1499.28 1.71046 5.87716 0
M  V30 16374 N 1498.42 1.12698 6.92996 0
M  V30 16375 H 1503.26 1.65105 2.48081 0
M  V30 16376 H 1500.79 0.824768 1.21803 0
M  V30 16377 H 1502.75 -0.165948 4.1687 0
M  V30 16378 H 1501.38 -0.688014 3.15383 0
M  V30 16379 H 1500.43 1.72011 3.39288 0
M  V30 16380 H 1501.74 2.05762 4.54382 0
M  V30 16381 H 1500.9 0.25603 6.0616 0
M  V30 16382 H 1499.64 -0.17937 4.8737 0
M  V30 16383 H 1498.64 2.11676 5.07418 0
M  V30 16384 H 1499.87 2.54547 6.29589 0
M  V30 16385 H 1497.81 0.316154 6.55238 0
M  V30 16386 H 1497.73 1.86461 7.32645 0
M  V30 16387 H 1499 0.756582 7.7582 0
M  V30 16388 N 1503.23 -1.30138 0.888926 0
M  V30 16389 C 1504.64 -1.78124 0.559346 0
M  V30 16390 C 1504.99 -1.73046 -0.924633 0
M  V30 16391 O 1504.11 -1.30974 -1.72264 0
M  V30 16392 C 1504.71 -3.2344 1.00856 0
M  V30 16393 C 1503.27 -3.69247 0.730332 0
M  V30 16394 C 1502.42 -2.505 1.18933 0
M  V30 16395 H 1505.37 -1.16952 1.07275 0
M  V30 16396 H 1505.39 -3.78985 0.339219 0
M  V30 16397 H 1504.9 -3.27104 2.08865 0
M  V30 16398 H 1503 -3.71067 -0.337599 0
M  V30 16399 H 1503.11 -4.60538 1.32066 0
M  V30 16400 H 1501.48 -2.47323 0.608568 0
M  V30 16401 H 1502.26 -2.56899 2.27724 0
M  V30 16402 N 1504.71 -0.650285 -1.43559 0
M  V30 16403 C 1505.65 0.043098 -2.3076 0
M  V30 16404 C 1506.62 0.81763 -1.44582 0
M  V30 16405 O 1507.81 0.794825 -1.73457 0
M  V30 16406 C 1504.95 1.00557 -3.30125 0
M  V30 16407 C 1504.06 0.227448 -4.31401 0
M  V30 16408 C 1503.2 1.18345 -5.17849 0
M  V30 16409 C 1502.23 0.395596 -6.1082 0
M  V30 16410 N 1501.37 1.30304 -6.89902 0
M  V30 16411 H 1506.21 -0.706402 -2.89506 0
M  V30 16412 H 1503.75 -0.360118 -1.42624 0
M  V30 16413 H 1505.71 1.57717 -3.8624 0
M  V30 16414 H 1504.34 1.72198 -2.73034 0
M  V30 16415 H 1503.39 -0.460391 -3.77604 0
M  V30 16416 H 1504.7 -0.385316 -4.9731 0
M  V30 16417 H 1503.85 1.82578 -5.78576 0
M  V30 16418 H 1502.59 1.83013 -4.52059 0
M  V30 16419 H 1501.6 -0.260099 -5.49184 0
M  V30 16420 H 1502.82 -0.246633 -6.78652 0
M  V30 16421 H 1500.77 1.93657 -6.26764 0
M  V30 16422 H 1500.69 0.744768 -7.52323 0
M  V30 16423 H 1501.95 1.93361 -7.55137 0
M  V30 16424 N 1506.18 1.52647 -0.392018 0
M  V30 16425 C 1507.43 2.00798 0.19056 0
M  V30 16426 C 1507.75 1.28265 1.47673 0
M  V30 16427 O 1508.95 1.67142 2.13953 0
M  V30 16428 C 1507.41 3.57779 0.390148 0
M  V30 16429 C 1507.02 4.39213 -0.882933 0
M  V30 16430 C 1508.76 4.14211 0.928945 0
M  V30 16431 C 1506.67 5.87801 -0.651474 0
M  V30 16432 H 1505.6 0.750262 0.0749879 0
M  V30 16433 H 1508.25 1.7613 -0.514835 0
M  V30 16434 H 1506.63 3.78707 1.15746 0
M  V30 16435 H 1507.8 4.30051 -1.65507 0
M  V30 16436 H 1506.12 3.94015 -1.34688 0
M  V30 16437 H 1508.72 5.22884 1.11787 0
M  V30 16438 H 1509.06 3.70475 1.89878 0
M  V30 16439 H 1509.59 3.97185 0.221135 0
M  V30 16440 H 1506.33 6.35864 -1.59239 0
M  V30 16441 H 1505.85 5.99744 0.0816786 0
M  V30 16442 H 1507.53 6.46363 -0.287057 0
M  V30 16443 N 1507.66 0.121921 1.57128 0
M  V30 16444 C 1508.89 -0.546325 2.00075 0
M  V30 16445 C 1509.31 -1.59245 1.00113 0
M  V30 16446 O 1508.67 -1.8128 -0.0267687 0
M  V30 16447 C 1508.72 -1.14651 3.41888 0
M  V30 16448 O 1507.82 -2.26199 3.4483 0
M  V30 16449 H 1507.16 -0.136184 0.649885 0
M  V30 16450 H 1509.69 0.211257 2.03506 0
M  V30 16451 H 1509.7 -1.48133 3.80159 0
M  V30 16452 H 1508.38 -0.380273 4.14158 0
M  V30 16453 H 1506.96 -1.94134 3.18381 0
M  V30 16454 N 1509.14 -1.56867 -0.151857 0
M  V30 16455 C 1510.56 -1.51422 -0.504328 0
M  V30 16456 C 1510.76 -0.829524 -1.83633 0
M  V30 16457 O 1509.81 -0.398018 -2.49343 0
M  V30 16458 C 1511.13 -2.96185 -0.519117 0
M  V30 16459 C 1512.67 -3.07098 -0.60497 0
M  V30 16460 C 1513.15 -4.53357 -0.650468 0
M  V30 16461 N 1514.64 -4.57682 -0.712825 0
M  V30 16462 C 1515.37 -5.68221 -0.768931 0
M  V30 16463 N 1514.87 -6.88342 -0.784678 0
M  V30 16464 N 1516.66 -5.56241 -0.809441 0
M  V30 16465 H 1508.81 -1.99777 0.721316 0
M  V30 16466 H 1511.08 -0.910951 0.262436 0
M  V30 16467 H 1510.78 -3.49516 0.391315 0
M  V30 16468 H 1510.66 -3.51877 -1.35876 0
M  V30 16469 H 1513.04 -2.53789 -1.50582 0
M  V30 16470 H 1513.13 -2.54458 0.261722 0
M  V30 16471 H 1512.77 -5.07303 0.246207 0
M  V30 16472 H 1512.7 -5.03775 -1.53358 0
M  V30 16473 H 1515.19 -3.71206 -0.708151 0
M  V30 16474 H 1515.5 -7.68339 -0.829202 0
M  V30 16475 H 1513.85 -6.90913 -0.752634 0
M  V30 16476 H 1517.04 -4.61312 -0.794274 0
M  V30 16477 H 1517.21 -6.42405 -0.849701 0
M  V30 16478 N 1510.62 0.421051 -1.51871 0
M  V30 16479 C 1511.53 1.5371 -1.7723 0
M  V30 16480 C 1512.54 1.61109 -0.657256 0
M  V30 16481 O 1513.72 1.78047 -0.941343 0
M  V30 16482 C 1510.79 2.89555 -1.9068 0
M  V30 16483 C 1509.85 2.9214 -3.14567 0
M  V30 16484 C 1509.08 4.21505 -3.27367 0
M  V30 16485 O 1509.3 5.14764 -2.45712 0
M  V30 16486 O 1508.24 4.30706 -4.20448 0
M  V30 16487 H 1512.06 1.35221 -2.71935 0
M  V30 16488 H 1509.65 0.605712 -1.3657 0
M  V30 16489 H 1511.53 3.70147 -2.01418 0
M  V30 16490 H 1510.2 3.08137 -0.991627 0
M  V30 16491 H 1509.11 2.10444 -3.09296 0
M  V30 16492 H 1510.44 2.78505 -4.05827 0
M  V30 16493 N 1512.1 1.42293 0.677538 0
M  V30 16494 C 1513.35 1.41909 1.43334 0
M  V30 16495 C 1513.66 0.037951 1.95563 0
M  V30 16496 O 1514.86 -0.0884836 2.71356 0
M  V30 16497 C 1513.32 2.49608 2.59275 0
M  V30 16498 C 1512.93 3.93716 2.13757 0
M  V30 16499 C 1514.67 2.58387 3.36803 0
M  V30 16500 C 1512.58 4.92929 3.26764 0
M  V30 16501 H 1511.51 0.527803 0.538461 0
M  V30 16502 H 1514.16 1.6819 0.733791 0
M  V30 16503 H 1512.54 2.16488 3.31585 0
M  V30 16504 H 1513.72 4.36176 1.48618 0
M  V30 16505 H 1512.03 3.88762 1.49175 0
M  V30 16506 H 1514.63 3.29691 4.20961 0
M  V30 16507 H 1514.97 1.62653 3.8321 0
M  V30 16508 H 1515.5 2.90688 2.71561 0
M  V30 16509 H 1512.24 5.90131 2.85352 0
M  V30 16510 H 1511.76 4.55103 3.90694 0
M  V30 16511 H 1513.44 5.1452 3.92273 0
M  V30 16512 N 1513.57 -0.913576 1.28419 0
M  V30 16513 C 1514.99 -1.192 1.0613 0
M  V30 16514 C 1515.19 -2.00542 -0.196232 0
M  V30 16515 O 1514.25 -2.35998 -0.897853 0
M  V30 16516 C 1515.56 -1.92642 2.30889 0
M  V30 16517 C 1517.11 -2.05524 2.3607 0
M  V30 16518 C 1517.58 -2.82374 3.60595 0
M  V30 16519 N 1519.07 -2.89935 3.61236 0
M  V30 16520 C 1519.81 -3.49899 4.54266 0
M  V30 16521 N 1519.3 -4.11141 5.57615 0
M  V30 16522 N 1521.1 -3.4744 4.41862 0
M  V30 16523 H 1513.25 -0.370509 2.09143 0
M  V30 16524 H 1515.51 -0.226573 0.920526 0
M  V30 16525 H 1515.22 -1.40299 3.22504 0
M  V30 16526 H 1515.09 -2.93191 2.37316 0
M  V30 16527 H 1517.48 -2.57047 1.44951 0
M  V30 16528 H 1517.56 -1.0415 2.33637 0
M  V30 16529 H 1517.2 -2.3153 4.52058 0
M  V30 16530 H 1517.13 -3.84063 3.60282 0
M  V30 16531 H 1519.62 -2.46424 2.86502 0
M  V30 16532 H 1519.94 -4.54877 6.24746 0
M  V30 16533 H 1518.28 -4.09645 5.61441 0
M  V30 16534 H 1521.47 -2.98806 3.60323 0
M  V30 16535 H 1521.65 -3.9388 5.14551 0
M  V30 16536 N 1515.05 -1.1067 -1.12204 0
M  V30 16537 C 1515.98 -0.715581 -2.17743 0
M  V30 16538 C 1517 0.248892 -1.60886 0
M  V30 16539 O 1518.19 0.0329917 -1.7847 0
M  V30 16540 C 1515.29 -0.0356388 -3.38881 0
M  V30 16541 C 1514.46 -1.0249 -4.25223 0
M  V30 16542 C 1513.52 -0.375998 -5.24855 0
M  V30 16543 O 1512.54 -1.02753 -5.59849 0
M  V30 16544 N 1513.75 0.864525 -5.74026 0
M  V30 16545 H 1516.51 -1.62362 -2.5191 0
M  V30 16546 H 1514.07 -0.995851 -1.2765 0
M  V30 16547 H 1516.06 0.41 -4.02618 0
M  V30 16548 H 1514.63 0.77485 -3.02845 0
M  V30 16549 H 1513.85 -1.64874 -3.58065 0
M  V30 16550 H 1515.14 -1.69446 -4.79756 0
M  V30 16551 H 1514.54 1.41317 -5.47764 0
M  V30 16552 H 1513.1 1.25327 -6.39638 0
M  V30 16553 N 1516.53 1.29665 -0.895815 0
M  V30 16554 C 1517.49 2.26103 -0.3755 0
M  V30 16555 C 1518.49 1.53212 0.488126 0
M  V30 16556 O 1519.68 1.71706 0.293733 0
M  V30 16557 C 1516.82 3.37732 0.46364 0
M  V30 16558 H 1518.01 2.73643 -1.22718 0
M  V30 16559 H 1515.56 1.4104 -0.673613 0
M  V30 16560 H 1516.3 2.95526 1.33546 0
M  V30 16561 H 1516.08 3.91793 -0.155123 0
M  V30 16562 H 1517.57 4.09488 0.819112 0
M  V30 16563 N 1518.01 0.657889 1.43212 0
M  V30 16564 C 1518.92 -0.0313677 2.34579 0
M  V30 16565 C 1519.93 -0.807153 1.54146 0
M  V30 16566 O 1521.11 -0.753335 1.8678 0
M  V30 16567 C 1518.18 -0.982659 3.32483 0
M  V30 16568 C 1517.24 -0.203288 4.28818 0
M  V30 16569 C 1516.47 -1.10927 5.22045 0
M  V30 16570 O 1516.69 -2.34861 5.19804 0
M  V30 16571 O 1515.63 -0.57916 5.99107 0
M  V30 16572 H 1519.45 0.720808 2.95022 0
M  V30 16573 H 1517.04 0.418083 1.43431 0
M  V30 16574 H 1518.92 -1.52923 3.92673 0
M  V30 16575 H 1517.59 -1.71498 2.74536 0
M  V30 16576 H 1516.5 0.386982 3.72093 0
M  V30 16577 H 1517.83 0.489562 4.89759 0
M  V30 16578 N 1519.49 -1.52437 0.400108 0
M  V30 16579 C 1520.76 -1.94162 -0.23671 0
M  V30 16580 C 1521.14 -1.33636 -1.63416 0
M  V30 16581 O 1520.49 -0.508643 -2.22767 0
M  V30 16582 C 1520.7 -3.48088 -0.252159 0
M  V30 16583 C 1522.05 -4.21925 -0.475887 0
M  V30 16584 O 1523.07 -3.5465 -0.331905 0
M  V30 16585 O 1521.93 -5.41205 -0.758895 0
M  V30 16586 H 1519.03 -0.813294 -0.14994 0
M  V30 16587 H 1521.57 -1.63475 0.455399 0
M  V30 16588 H 1520.34 -3.84501 0.726263 0
M  V30 16589 H 1519.97 -3.8511 -0.988742 0
M  V30 16590 N 1520.96 -0.130252 -1.57061 0
M  V30 16591 C 1521.89 0.812189 -2.18919 0
M  V30 16592 C 1522.88 1.2692 -1.13249 0
M  V30 16593 O 1524.06 1.32978 -1.41529 0
M  V30 16594 C 1521.19 2.05803 -2.79754 0
M  V30 16595 C 1520.14 1.73841 -3.91105 0
M  V30 16596 C 1519.47 3.05549 -4.38799 0
M  V30 16597 C 1520.77 0.997991 -5.12677 0
M  V30 16598 H 1522.46 0.296692 -2.97926 0
M  V30 16599 H 1520.01 0.141265 -1.43305 0
M  V30 16600 H 1521.96 2.72201 -3.21691 0
M  V30 16601 H 1520.69 2.59697 -1.98053 0
M  V30 16602 H 1519.35 1.09828 -3.49762 0
M  V30 16603 H 1518.99 3.57399 -3.53942 0
M  V30 16604 H 1518.69 2.84932 -5.13894 0
M  V30 16605 H 1520.22 3.73045 -4.83394 0
M  V30 16606 H 1521.63 1.56372 -5.51562 0
M  V30 16607 H 1520.03 0.892378 -5.93428 0
M  V30 16608 H 1521.1 -0.0132936 -4.84898 0
M  V30 16609 N 1522.44 1.56945 0.143535 0
M  V30 16610 C 1523.39 1.99479 1.19628 0
M  V30 16611 C 1524.39 0.887733 1.44276 0
M  V30 16612 O 1525.59 1.07292 1.44528 0
M  V30 16613 H 1521.97 0.635049 0.402761 0
M  V30 16614 H 1523.94 2.87171 0.810877 0
M  V30 16615 C 1522.69 2.39436 2.52123 0
M  V30 16616 H 1522.01 3.24176 2.33987 0
M  V30 16617 H 1523.45 2.73017 3.24404 0
M  V30 16618 C 1521.91 1.24836 3.12918 0
M  V30 16619 O 1522.44 0.550973 3.97903 0
M  V30 16620 N 1520.64 1.01172 2.7242 0
M  V30 16621 H 1520.19 1.5806 2.03408 0
M  V30 16622 H 1520.15 0.246846 3.13429 0
M  V30 16623 N 1523.92 -0.412991 1.52093 0
M  V30 16624 C 1525.15 -1.18212 1.69805 0
M  V30 16625 C 1525.56 -1.84386 0.405844 0
M  V30 16626 O 1524.92 -1.71725 -0.617809 0
M  V30 16627 C 1524.97 -2.24811 2.83094 0
M  V30 16628 O 1524.69 -1.61338 4.0731 0
M  V30 16629 C 1526.19 -3.14633 3.12283 0
M  V30 16630 H 1523.41 -0.355371 0.569168 0
M  V30 16631 H 1525.96 -0.486392 1.98632 0
M  V30 16632 H 1524.11 -2.90058 2.56797 0
M  V30 16633 H 1524.53 -2.31979 4.7041 0
M  V30 16634 H 1526 -3.85511 3.95076 0
M  V30 16635 H 1526.48 -3.76785 2.25677 0
M  V30 16636 H 1527.08 -2.55059 3.40331 0
M  V30 16637 N 1525.4 -1.4265 -0.669982 0
M  V30 16638 C 1526.35 -1.46504 -1.7834 0
M  V30 16639 C 1527.32 -0.316478 -1.63057 0
M  V30 16640 O 1528.5 -0.521245 -1.83542 0
M  V30 16641 C 1525.64 -1.37784 -3.16401 0
M  V30 16642 C 1524.75 -2.62714 -3.42937 0
M  V30 16643 C 1523.89 -2.46101 -4.70752 0
M  V30 16644 C 1522.93 -3.66381 -4.90338 0
M  V30 16645 N 1522.07 -3.48681 -6.09398 0
M  V30 16646 H 1526.91 -2.41651 -1.74381 0
M  V30 16647 H 1524.44 -1.1997 -0.851215 0
M  V30 16648 H 1526.4 -1.30725 -3.9619 0
M  V30 16649 H 1525.03 -0.462291 -3.19473 0
M  V30 16650 H 1524.08 -2.8012 -2.57366 0
M  V30 16651 H 1525.39 -3.52108 -3.53301 0
M  V30 16652 H 1524.55 -2.36655 -5.58641 0
M  V30 16653 H 1523.29 -1.54204 -4.6268 0
M  V30 16654 H 1522.29 -3.76254 -4.00891 0
M  V30 16655 H 1523.52 -4.59265 -5.00253 0
M  V30 16656 H 1521.46 -2.59505 -6.02489 0
M  V30 16657 H 1521.38 -4.31666 -6.20645 0
M  V30 16658 H 1522.65 -3.43056 -6.99952 0
M  V30 16659 N 1526.88 0.906753 -1.28902 0
M  V30 16660 C 1527.82 2.01004 -1.13429 0
M  V30 16661 C 1528.79 1.66074 -0.0295031 0
M  V30 16662 O 1529.98 1.89793 -0.195727 0
M  V30 16663 C 1527.12 3.35473 -0.809457 0
M  V30 16664 C 1526.23 3.83229 -1.99398 0
M  V30 16665 C 1525.37 5.06241 -1.60915 0
M  V30 16666 C 1524.41 5.46348 -2.7599 0
M  V30 16667 N 1523.54 6.60548 -2.37952 0
M  V30 16668 H 1528.38 2.13571 -2.07825 0
M  V30 16669 H 1525.92 1.046 -1.03428 0
M  V30 16670 H 1527.88 4.12836 -0.601845 0
M  V30 16671 H 1526.51 3.22652 0.0975896 0
M  V30 16672 H 1525.56 3.01962 -2.31351 0
M  V30 16673 H 1526.87 4.08908 -2.85649 0
M  V30 16674 H 1526.03 5.91168 -1.36401 0
M  V30 16675 H 1524.77 4.82385 -0.718021 0
M  V30 16676 H 1523.77 4.59959 -3.01195 0
M  V30 16677 H 1525 5.72188 -3.65757 0
M  V30 16678 H 1522.94 6.38309 -1.51318 0
M  V30 16679 H 1522.86 6.85987 -3.17738 0
M  V30 16680 H 1524.13 7.48762 -2.1674 0
M  V30 16681 N 1528.36 1.11264 1.11616 0
M  V30 16682 C 1529.27 0.781961 2.21184 0
M  V30 16683 C 1530.28 -0.224149 1.7255 0
M  V30 16684 O 1531.46 -0.0607743 2.01308 0
M  V30 16685 C 1528.52 0.228031 3.45949 0
M  V30 16686 C 1527.58 1.29251 4.09381 0
M  V30 16687 C 1526.82 0.764921 5.2819 0
M  V30 16688 O 1527.04 -0.405671 5.68956 0
M  V30 16689 O 1525.97 1.52886 5.82159 0
M  V30 16690 H 1529.8 1.69678 2.51879 0
M  V30 16691 H 1527.38 0.888394 1.20116 0
M  V30 16692 H 1529.27 -0.0766085 4.2133 0
M  V30 16693 H 1527.94 -0.659519 3.1691 0
M  V30 16694 H 1526.85 1.65014 3.3574 0
M  V30 16695 H 1528.18 2.15339 4.42595 0
M  V30 16696 N 1529.83 -1.29188 0.902679 0
M  V30 16697 C 1530.78 -2.29597 0.372585 0
M  V30 16698 C 1531.78 -1.609 -0.529858 0
M  V30 16699 O 1532.98 -1.75214 -0.41233 0
M  V30 16700 H 1529.36 -0.745069 0.101864 0
M  V30 16701 H 1531.33 -2.71746 1.23275 0
M  V30 16702 C 1530.08 -3.45594 -0.382128 0
M  V30 16703 H 1529.4 -3.9865 0.303061 0
M  V30 16704 H 1530.84 -4.17879 -0.717852 0
M  V30 16705 C 1529.3 -2.97238 -1.58591 0
M  V30 16706 O 1529.83 -2.98767 -2.68517 0
M  V30 16707 N 1528.03 -2.53032 -1.42909 0
M  V30 16708 H 1527.58 -2.51988 -0.534786 0
M  V30 16709 H 1527.54 -2.21038 -2.23584 0
M  V30 16710 N 1531.31 -0.665475 -1.42861 0
M  V30 16711 C 1532.54 -0.191722 -2.05709 0
M  V30 16712 C 1532.95 1.15263 -1.50037 0
M  V30 16713 O 1532.29 1.72517 -0.63116 0
M  V30 16714 C 1532.35 -0.0393003 -3.59479 0
M  V30 16715 C 1532.02 -1.31088 -4.37795 0
M  V30 16716 C 1533.02 -2.24232 -4.69058 0
M  V30 16717 C 1530.7 -1.55588 -4.77596 0
M  V30 16718 C 1532.69 -3.4016 -5.39045 0
M  V30 16719 C 1530.38 -2.71807 -5.47325 0
M  V30 16720 C 1531.38 -3.63918 -5.77973 0
M  V30 16721 O 1531.07 -4.78105 -6.46275 0
M  V30 16722 H 1530.8 -0.0929467 -0.66958 0
M  V30 16723 H 1533.35 -0.909904 -1.84146 0
M  V30 16724 H 1531.58 0.734372 -3.79663 0
M  V30 16725 H 1533.27 0.39338 -4.03989 0
M  V30 16726 H 1534.04 -2.06551 -4.38819 0
M  V30 16727 H 1529.92 -0.847686 -4.53139 0
M  V30 16728 H 1533.46 -4.12076 -5.62885 0
M  V30 16729 H 1529.36 -2.89418 -5.76981 0
M  V30 16730 H 1530.13 -4.77529 -6.64762 0
M  V30 16731 N 1532.79 1.52222 -0.408187 0
M  V30 16732 C 1534.04 2.00989 0.169252 0
M  V30 16733 C 1534.35 1.29824 1.46305 0
M  V30 16734 O 1535.56 1.69402 2.12168 0
M  V30 16735 C 1534.01 3.58173 0.352179 0
M  V30 16736 C 1533.62 4.38252 -0.929468 0
M  V30 16737 C 1535.37 4.15173 0.88496 0
M  V30 16738 C 1533.27 5.87077 -0.713781 0
M  V30 16739 H 1532.2 0.751015 0.0670261 0
M  V30 16740 H 1534.85 1.75574 -0.533487 0
M  V30 16741 H 1533.24 3.79913 1.11723 0
M  V30 16742 H 1534.41 4.28272 -1.70059 0
M  V30 16743 H 1532.72 3.92565 -1.38859 0
M  V30 16744 H 1535.32 5.2404 1.06235 0
M  V30 16745 H 1535.66 3.72468 1.85938 0
M  V30 16746 H 1536.2 3.97397 0.178995 0
M  V30 16747 H 1532.94 6.3414 -1.65974 0
M  V30 16748 H 1532.46 5.99797 0.0180631 0
M  V30 16749 H 1534.14 6.46022 -0.355596 0
M  V30 16750 N 1534.27 0.138579 1.5699 0
M  V30 16751 C 1535.49 -0.525074 2.00643 0
M  V30 16752 C 1535.92 -1.58174 1.01796 0
M  V30 16753 O 1535.28 -1.81298 -0.00754003 0
M  V30 16754 C 1535.32 -1.11019 3.43085 0
M  V30 16755 O 1534.43 -2.22529 3.4721 0
M  V30 16756 H 1533.77 -0.129283 0.651292 0
M  V30 16757 H 1536.3 0.23283 2.03271 0
M  V30 16758 H 1536.31 -1.44093 3.81708 0
M  V30 16759 H 1534.98 -0.336325 4.14538 0
M  V30 16760 H 1533.56 -1.90747 3.20422 0
M  V30 16761 N 1535.75 -1.57019 -0.13521 0
M  V30 16762 C 1536.69 -2.0011 -1.18569 0
M  V30 16763 C 1537.69 -0.895372 -1.43804 0
M  V30 16764 O 1538.89 -1.08057 -1.43957 0
M  V30 16765 H 1535.27 -0.637176 -0.399388 0
M  V30 16766 H 1537.24 -2.87597 -0.795636 0
M  V30 16767 C 1535.99 -2.40769 -2.50849 0
M  V30 16768 H 1535.31 -3.25412 -2.32265 0
M  V30 16769 H 1536.75 -2.74733 -3.22951 0
M  V30 16770 C 1535.21 -1.26494 -3.12251 0
M  V30 16771 O 1535.74 -0.572067 -3.97606 0
M  V30 16772 N 1533.95 -1.02615 -2.7188 0
M  V30 16773 H 1533.49 -1.59136 -2.02567 0
M  V30 16774 H 1533.45 -0.263464 -3.13294 0
M  V30 16775 N 1537.22 0.404919 -1.52309 0
M  V30 16776 C 1538.17 1.49281 -1.72334 0
M  V30 16777 C 1539.16 1.50188 -0.577267 0
M  V30 16778 O 1540.35 1.56093 -0.834497 0
M  V30 16779 C 1537.48 2.87166 -1.88123 0
M  V30 16780 C 1536.57 2.90891 -3.08615 0
M  V30 16781 N 1536.96 2.64307 -4.31249 0
M  V30 16782 C 1535.25 3.2206 -3.08535 0
M  V30 16783 C 1535.96 2.74708 -5.12748 0
M  V30 16784 N 1534.93 3.07766 -4.48086 0
M  V30 16785 H 1538.73 1.2753 -2.64789 0
M  V30 16786 H 1536.25 0.61268 -1.50399 0
M  V30 16787 H 1538.24 3.65473 -2.00587 0
M  V30 16788 H 1536.9 3.09913 -0.968712 0
M  V30 16789 H 1537.92 2.38624 -4.59651 0
M  V30 16790 H 1534.59 3.50373 -2.27035 0
M  V30 16791 H 1535.98 2.57835 -6.2046 0
M  V30 16792 N 1538.7 1.43003 0.662408 0
M  V30 16793 C 1539.93 1.47555 1.45035 0
M  V30 16794 C 1540.35 0.0906083 1.88582 0
M  V30 16795 O 1539.7 -0.897271 1.58919 0
M  V30 16796 C 1539.75 2.41345 2.69137 0
M  V30 16797 O 1539.47 3.74453 2.27413 0
M  V30 16798 C 1540.98 2.55045 3.62584 0
M  V30 16799 H 1538.2 0.501448 0.44586 0
M  V30 16800 H 1540.74 1.8765 0.812879 0
M  V30 16801 H 1538.89 2.0447 3.29045 0
M  V30 16802 H 1539.31 4.24801 3.07643 0
M  V30 16803 H 1540.78 3.24766 4.46353 0
M  V30 16804 H 1541.26 1.59235 4.09318 0
M  V30 16805 H 1541.87 2.92693 3.08563 0
M  V30 16806 N 1540.18 -0.899904 1.29381 0
M  V30 16807 C 1541.11 -2.02045 1.17047 0
M  V30 16808 C 1542.09 -1.69977 0.0647354 0
M  V30 16809 O 1543.28 -1.92659 0.244173 0
M  V30 16810 C 1540.41 -3.36839 0.845991 0
M  V30 16811 C 1539.36 -3.83117 1.90802 0
M  V30 16812 C 1538.69 -5.15032 1.43686 0
M  V30 16813 C 1539.99 -4.03464 3.31684 0
M  V30 16814 H 1541.68 -2.12623 2.10789 0
M  V30 16815 H 1539.23 -1.02162 1.01484 0
M  V30 16816 H 1541.18 -4.14737 0.746413 0
M  V30 16817 H 1539.9 -3.26352 -0.127125 0
M  V30 16818 H 1538.56 -3.07435 1.99698 0
M  V30 16819 H 1538.21 -5.00961 0.452422 0
M  V30 16820 H 1537.91 -5.46967 2.14711 0
M  V30 16821 H 1539.43 -5.95472 1.35078 0
M  V30 16822 H 1540.85 -4.71845 3.25631 0
M  V30 16823 H 1539.25 -4.46752 4.00665 0
M  V30 16824 H 1540.32 -3.07807 3.74677 0
M  V30 16825 N 1541.66 -1.11854 -1.11024 0
M  V30 16826 C 1542.62 -0.784033 -2.15373 0
M  V30 16827 C 1543.62 0.198686 -1.59568 0
M  V30 16828 O 1544.81 -0.0263428 -1.7418 0
M  V30 16829 C 1541.94 -0.163987 -3.40505 0
M  V30 16830 H 1543.14 -1.70849 -2.46477 0
M  V30 16831 H 1540.69 -0.920988 -1.26283 0
M  V30 16832 H 1541.42 0.770483 -3.15014 0
M  V30 16833 H 1541.21 -0.871447 -3.82293 0
M  V30 16834 H 1542.7 0.0537739 -4.17565 0
M  V30 16835 N 1543.14 1.28707 -0.909517 0
M  V30 16836 C 1544.05 2.31171 -0.399628 0
M  V30 16837 C 1545.06 1.6634 0.510582 0
M  V30 16838 O 1546.24 1.97432 0.397792 0
M  V30 16839 C 1543.3 3.44869 0.355852 0
M  V30 16840 C 1542.36 4.25267 -0.587065 0
M  V30 16841 C 1541.6 5.33536 0.132456 0
M  V30 16842 O 1541.82 5.54075 1.35486 0
M  V30 16843 O 1540.75 5.99561 -0.530062 0
M  V30 16844 H 1544.58 2.76785 -1.24995 0
M  V30 16845 H 1542.17 1.33323 -0.674186 0
M  V30 16846 H 1544.05 4.14068 0.782692 0
M  V30 16847 H 1542.72 3.01345 1.18207 0
M  V30 16848 H 1541.63 3.58673 -1.06322 0
M  V30 16849 H 1542.96 4.72459 -1.37998 0
M  V30 16850 N 1544.61 0.673042 1.42506 0
M  V30 16851 C 1545.55 -0.056507 2.2813 0
M  V30 16852 C 1546.53 -0.810416 1.40965 0
M  V30 16853 O 1547.71 -0.805904 1.70404 0
M  V30 16854 C 1544.84 -1.08716 3.20778 0
M  V30 16855 C 1543.88 -0.429034 4.24337 0
M  V30 16856 S 1544.72 0.812075 5.29307 0
M  V30 16857 C 1545.87 -0.217548 6.25522 0
M  V30 16858 H 1546.1 0.669772 2.89657 0
M  V30 16859 H 1543.64 0.462526 1.47309 0
M  V30 16860 H 1545.6 -1.67672 3.74695 0
M  V30 16861 H 1544.26 -1.78587 2.5839 0
M  V30 16862 H 1543.45 -1.20666 4.89342 0
M  V30 16863 H 1543.05 0.0868926 3.73899 0
M  V30 16864 H 1545.34 -1.07781 6.68872 0
M  V30 16865 H 1546.29 0.397993 7.06981 0
M  V30 16866 H 1546.69 -0.562237 5.61693 0
M  V30 16867 N 1546.09 -1.52004 0.416254 0
M  V30 16868 C 1547.32 -2.0679 -0.158937 0
M  V30 16869 C 1547.74 -1.28366 -1.37491 0
M  V30 16870 O 1547.1 -0.315815 -1.78528 0
M  V30 16871 C 1547.15 -3.57381 -0.480717 0
M  V30 16872 O 1546.25 -3.81321 -1.5706 0
M  V30 16873 H 1545.59 -0.663907 -0.0110938 0
M  V30 16874 H 1548.12 -1.95863 0.591509 0
M  V30 16875 H 1548.13 -4.01283 -0.737297 0
M  V30 16876 H 1546.81 -4.13893 0.408137 0
M  V30 16877 H 1545.39 -3.49296 -1.30563 0
M  V30 16878 N 1547.57 -0.146903 -1.56914 0
M  V30 16879 C 1548.52 0.792821 -2.16756 0
M  V30 16880 C 1549.49 1.2442 -1.1004 0
M  V30 16881 O 1550.67 1.31674 -1.38081 0
M  V30 16882 C 1547.81 2.02659 -2.79327 0
M  V30 16883 C 1546.93 1.62102 -4.00433 0
M  V30 16884 C 1546.06 2.80658 -4.51004 0
M  V30 16885 C 1545.1 2.36474 -5.64576 0
M  V30 16886 N 1544.24 3.48038 -6.09766 0
M  V30 16887 H 1549.08 0.275708 -2.96722 0
M  V30 16888 H 1546.61 0.124374 -1.46573 0
M  V30 16889 H 1548.57 2.74986 -3.13749 0
M  V30 16890 H 1547.2 2.51781 -2.02005 0
M  V30 16891 H 1546.25 0.795407 -3.71991 0
M  V30 16892 H 1547.57 1.25652 -4.82714 0
M  V30 16893 H 1546.72 3.61175 -4.87481 0
M  V30 16894 H 1545.46 3.20353 -3.6773 0
M  V30 16895 H 1544.46 1.54397 -5.27676 0
M  V30 16896 H 1545.69 1.97865 -6.49635 0
M  V30 16897 H 1543.63 3.87354 -5.29427 0
M  V30 16898 H 1543.55 3.15602 -6.86972 0
M  V30 16899 H 1544.82 4.28912 -6.50887 0
M  V30 16900 N 1549.05 1.57088 0.126881 0
M  V30 16901 C 1550.3 1.84071 0.834397 0
M  V30 16902 C 1550.62 0.730896 1.80784 0
M  V30 16903 O 1549.89 -0.245791 1.94352 0
M  V30 16904 H 1548.47 0.679123 0.311128 0
M  V30 16905 H 1551.13 1.94554 0.116083 0
M  V30 16906 H 1550.23 2.79714 1.38443 0
M  V30 16907 N 1550.53 -0.396836 1.52522 0
M  V30 16908 C 1551.48 -1.48365 1.73123 0
M  V30 16909 C 1552.46 -1.4988 0.585224 0
M  V30 16910 O 1553.65 -1.55649 0.842763 0
M  V30 16911 C 1550.78 -2.86165 1.89644 0
M  V30 16912 C 1549.87 -2.8925 3.10153 0
M  V30 16913 N 1550.26 -2.62017 4.32644 0
M  V30 16914 C 1548.56 -3.20419 3.10238 0
M  V30 16915 C 1549.26 -2.71985 5.14197 0
M  V30 16916 N 1548.23 -3.05385 4.49712 0
M  V30 16917 H 1552.04 -1.26124 2.65462 0
M  V30 16918 H 1549.55 -0.604696 1.50722 0
M  V30 16919 H 1551.55 -3.64404 2.02522 0
M  V30 16920 H 1550.21 -3.09395 0.985134 0
M  V30 16921 H 1551.22 -2.36183 4.6091 0
M  V30 16922 H 1547.89 -3.49164 2.2889 0
M  V30 16923 H 1549.28 -2.54541 6.21819 0
M  V30 16924 N 1552.01 -1.43353 -0.654814 0
M  V30 16925 C 1552.95 -1.48652 -1.789 0
M  V30 16926 C 1553.95 -0.360274 -1.65525 0
M  V30 16927 O 1555.15 -0.534194 -1.71891 0
M  V30 16928 H 1551.53 -0.465987 -0.590221 0
M  V30 16929 H 1553.5 -2.44158 -1.7155 0
M  V30 16930 C 1552.25 -1.42512 -3.17152 0
M  V30 16931 H 1551.57 -2.28479 -3.28081 0
M  V30 16932 H 1553.01 -1.50282 -3.96474 0
M  V30 16933 C 1551.47 -0.142511 -3.36598 0
M  V30 16934 O 1552 0.796821 -3.93718 0
M  V30 16935 N 1550.21 -0.0532157 -2.90551 0
M  V30 16936 H 1549.75 -0.818421 -2.44253 0
M  V30 16937 H 1549.71 0.80427 -3.03939 0
M  V30 16938 N 1553.48 0.89303 -1.29857 0
M  V30 16939 C 1554.73 1.64413 -1.18214 0
M  V30 16940 C 1555.06 1.92687 0.26492 0
M  V30 16941 O 1554.31 1.54044 1.20702 0
M  V30 16942 C 1554.61 2.99661 -1.94777 0
M  V30 16943 C 1554.28 2.90969 -3.44453 0
M  V30 16944 C 1552.94 2.88306 -3.8527 0
M  V30 16945 C 1555.29 2.79686 -4.39801 0
M  V30 16946 C 1552.62 2.72188 -5.19741 0
M  V30 16947 C 1554.97 2.65107 -5.7437 0
M  V30 16948 C 1553.64 2.60814 -6.14437 0
M  V30 16949 H 1552.91 0.60163 -0.432577 0
M  V30 16950 H 1555.55 1.03891 -1.60869 0
M  V30 16951 H 1553.86 3.64087 -1.44733 0
M  V30 16952 H 1555.56 3.56722 -1.83168 0
M  V30 16953 H 1552.15 2.93848 -3.12012 0
M  V30 16954 H 1556.33 2.80816 -4.09214 0
M  V30 16955 H 1551.59 2.67273 -5.49886 0
M  V30 16956 H 1555.76 2.55349 -6.47897 0
M  V30 16957 H 1553.39 2.48082 -7.18582 0
M  V30 16958 N 1554.96 1.12442 1.10429 0
M  V30 16959 C 1555.89 0.814745 2.18824 0
M  V30 16960 C 1556.87 -0.221476 1.68652 0
M  V30 16961 O 1558.06 -0.0826537 1.94024 0
M  V30 16962 C 1555.19 0.268632 3.4626 0
M  V30 16963 C 1554.14 1.23792 4.09707 0
M  V30 16964 C 1553.47 0.552034 5.31843 0
M  V30 16965 C 1554.77 2.5926 4.53411 0
M  V30 16966 H 1556.46 1.72111 2.44986 0
M  V30 16967 H 1554.01 0.828968 1.17746 0
M  V30 16968 H 1555.96 0.0397207 4.21381 0
M  V30 16969 H 1554.68 -0.673079 3.19589 0
M  V30 16970 H 1553.34 1.45264 3.36592 0
M  V30 16971 H 1552.99 -0.394821 5.01448 0
M  V30 16972 H 1552.69 1.19861 5.75245 0
M  V30 16973 H 1554.22 0.332161 6.09696 0
M  V30 16974 H 1555.63 2.41816 5.19806 0
M  V30 16975 H 1554.03 3.19997 5.07663 0
M  V30 16976 H 1555.1 3.17699 3.66327 0
M  V30 16977 N 1556.44 -1.28223 0.91633 0
M  V30 16978 C 1557.39 -2.27215 0.40521 0
M  V30 16979 C 1558.36 -1.57693 -0.521734 0
M  V30 16980 O 1559.54 -1.85577 -0.443369 0
M  V30 16981 C 1556.68 -3.43358 -0.346303 0
M  V30 16982 C 1555.79 -4.27622 0.613443 0
M  V30 16983 C 1554.93 -5.30969 -0.156775 0
M  V30 16984 C 1553.97 -6.06897 0.796418 0
M  V30 16985 N 1553.11 -7.02075 0.0595539 0
M  V30 16986 H 1557.95 -2.70312 1.2544 0
M  V30 16987 H 1555.48 -1.32933 0.629859 0
M  V30 16988 H 1557.44 -4.09492 -0.798231 0
M  V30 16989 H 1556.07 -3.01244 -1.15982 0
M  V30 16990 H 1555.12 -3.61508 1.1839 0
M  V30 16991 H 1556.43 -4.80397 1.34239 0
M  V30 16992 H 1555.59 -6.02999 -0.669146 0
M  V30 16993 H 1554.33 -4.78968 -0.918755 0
M  V30 16994 H 1553.33 -5.33716 1.32014 0
M  V30 16995 H 1554.56 -6.60987 1.558 0
M  V30 16996 H 1552.5 -6.5242 -0.684388 0
M  V30 16997 H 1552.42 -7.52484 0.728275 0
M  V30 16998 H 1553.69 -7.78299 -0.432538 0
M  V30 16999 N 1557.92 -0.68059 -1.42147 0
M  V30 17000 C 1558.83 -0.00595573 -2.34599 0
M  V30 17001 C 1559.84 0.782528 -1.55411 0
M  V30 17002 O 1561.02 0.723524 -1.87955 0
M  V30 17003 C 1558.08 0.92964 -3.34004 0
M  V30 17004 C 1557.15 0.135041 -4.29088 0
M  V30 17005 C 1556.38 1.02607 -5.23744 0
M  V30 17006 O 1556.6 2.26562 -5.23475 0
M  V30 17007 O 1555.54 0.483774 -5.99953 0
M  V30 17008 H 1559.36 -0.767652 -2.93838 0
M  V30 17009 H 1556.95 -0.440849 -1.42748 0
M  V30 17010 H 1558.83 1.46657 -3.95057 0
M  V30 17011 H 1557.5 1.67109 -2.7723 0
M  V30 17012 H 1556.41 -0.44613 -3.7143 0
M  V30 17013 H 1557.74 -0.567417 -4.88918 0
M  V30 17014 N 1559.4 1.51781 -0.424309 0
M  V30 17015 C 1560.34 2.27418 0.393668 0
M  V30 17016 C 1561.31 1.3046 1.02808 0
M  V30 17017 O 1562.5 1.59345 1.04946 0
M  V30 17018 C 1559.64 3.10983 1.49611 0
M  V30 17019 C 1558.75 4.22919 0.881123 0
M  V30 17020 C 1557.89 4.93816 1.95752 0
M  V30 17021 C 1556.92 5.97691 1.32028 0
M  V30 17022 N 1556.06 6.62047 2.33747 0
M  V30 17023 H 1560.9 2.96883 -0.257731 0
M  V30 17024 H 1558.44 1.46442 -0.138942 0
M  V30 17025 H 1560.4 3.57749 2.14642 0
M  V30 17026 H 1559.03 2.43658 2.11732 0
M  V30 17027 H 1558.08 3.80212 0.119445 0
M  V30 17028 H 1559.39 4.97383 0.375764 0
M  V30 17029 H 1558.54 5.44064 2.68476 0
M  V30 17030 H 1557.28 4.18954 2.49658 0
M  V30 17031 H 1556.29 5.46749 0.578444 0
M  V30 17032 H 1557.51 6.74504 0.788722 0
M  V30 17033 H 1555.46 5.90005 2.86757 0
M  V30 17034 H 1555.38 7.32234 1.88066 0
M  V30 17035 H 1556.64 7.16929 3.05995 0
M  V30 17036 N 1560.87 0.155222 1.56834 0
M  V30 17037 C 1562.15 -0.539327 1.88018 0
M  V30 17038 C 1562.53 -1.8241 1.06253 0
M  V30 17039 O 1561.88 -2.27996 0.151721 0
M  V30 17040 C 1562.09 -0.796826 3.39782 0
M  V30 17041 C 1563.44 -1.13397 4.09178 0
M  V30 17042 O 1564.46 -0.885907 3.45007 0
M  V30 17043 O 1563.32 -1.60117 5.22518 0
M  V30 17044 H 1560.41 -0.276066 0.779562 0
M  V30 17045 H 1562.96 0.192451 1.68605 0
M  V30 17046 H 1561.73 0.112097 3.91139 0
M  V30 17047 H 1561.35 -1.5825 3.6475 0
M  V30 17048 N 1562.35 -1.57153 -0.118549 0
M  V30 17049 C 1563.3 -2.00374 -1.14538 0
M  V30 17050 C 1564.27 -0.875964 -1.41124 0
M  V30 17051 O 1565.45 -1.14022 -1.52982 0
M  V30 17052 C 1562.59 -2.4135 -2.46666 0
M  V30 17053 C 1561.71 -3.67545 -2.27012 0
M  V30 17054 C 1560.84 -3.975 -3.52374 0
M  V30 17055 C 1559.88 -5.16877 -3.27879 0
M  V30 17056 N 1559.02 -5.427 -4.45445 0
M  V30 17057 H 1563.86 -2.87885 -0.769821 0
M  V30 17058 H 1561.39 -1.42406 -0.368622 0
M  V30 17059 H 1563.35 -2.63144 -3.23745 0
M  V30 17060 H 1561.98 -1.5688 -2.82114 0
M  V30 17061 H 1561.03 -3.53364 -1.40848 0
M  V30 17062 H 1562.35 -4.54777 -2.04889 0
M  V30 17063 H 1561.5 -4.19945 -4.37871 0
M  V30 17064 H 1560.24 -3.08745 -3.77529 0
M  V30 17065 H 1559.24 -4.94276 -2.40773 0
M  V30 17066 H 1560.47 -6.0721 -3.04094 0
M  V30 17067 H 1558.42 -4.56902 -4.70719 0
M  V30 17068 H 1558.33 -6.24256 -4.26428 0
M  V30 17069 H 1559.6 -5.69664 -5.32074 0
M  V30 17070 N 1563.83 0.388742 -1.5273 0
M  V30 17071 C 1565.08 1.13094 -1.67011 0
M  V30 17072 C 1565.39 1.91115 -0.416467 0
M  V30 17073 O 1566.6 2.67921 -0.43941 0
M  V30 17074 C 1565.05 2.0595 -2.95149 0
M  V30 17075 C 1564.66 1.3335 -4.27694 0
M  V30 17076 C 1566.41 2.80303 -3.18795 0
M  V30 17077 C 1564.31 2.24973 -5.46938 0
M  V30 17078 H 1563.24 0.425887 -0.622203 0
M  V30 17079 H 1565.89 0.393708 -1.79227 0
M  V30 17080 H 1564.28 2.83309 -2.7668 0
M  V30 17081 H 1565.45 0.612137 -4.56716 0
M  V30 17082 H 1563.76 0.709547 -4.1031 0
M  V30 17083 H 1566.36 3.49036 -4.05065 0
M  V30 17084 H 1566.7 3.44394 -2.33877 0
M  V30 17085 H 1567.24 2.10036 -3.37831 0
M  V30 17086 H 1563.98 1.65497 -6.34264 0
M  V30 17087 H 1563.5 2.95024 -5.22227 0
M  V30 17088 H 1565.18 2.8505 -5.80823 0
M  V30 17089 N 1565.31 1.43698 0.647203 0
M  V30 17090 C 1566.53 1.49301 1.43958 0
M  V30 17091 C 1566.96 0.11395 1.87755 0
M  V30 17092 O 1566.32 -0.893571 1.5775 0
M  V30 17093 C 1566.36 2.44905 2.64677 0
M  V30 17094 O 1565.47 1.93947 3.63948 0
M  V30 17095 H 1564.81 0.504771 0.431396 0
M  V30 17096 H 1567.34 1.88673 0.791432 0
M  V30 17097 H 1567.35 2.62409 3.12419 0
M  V30 17098 H 1566.02 3.45083 2.32143 0
M  V30 17099 H 1564.6 1.86133 3.23124 0
M  V30 17100 N 1566.79 -0.886131 1.30328 0
M  V30 17101 C 1568.03 -1.6346 1.18849 0
M  V30 17102 C 1568.36 -1.93295 -0.257285 0
M  V30 17103 O 1567.63 -1.56858 -1.17356 0
M  V30 17104 H 1566.21 -0.605932 0.43687 0
M  V30 17105 H 1568.87 -1.06177 1.63439 0
M  V30 17106 H 1567.96 -2.58522 1.7485 0
M  V30 17107 N 1568.26 -1.13026 -1.09832 0
M  V30 17108 C 1569.51 -0.889419 -1.81922 0
M  V30 17109 C 1569.84 0.584572 -1.85507 0
M  V30 17110 O 1569.09 1.44844 -1.316 0
M  V30 17111 C 1569.39 -1.41718 -3.28102 0
M  V30 17112 C 1569.06 -2.90729 -3.44655 0
M  V30 17113 C 1567.72 -3.31415 -3.48881 0
M  V30 17114 C 1570.07 -3.86619 -3.49536 0
M  V30 17115 C 1567.4 -4.66683 -3.55561 0
M  V30 17116 C 1569.75 -5.21726 -3.5775 0
M  V30 17117 C 1568.42 -5.61945 -3.60242 0
M  V30 17118 H 1567.69 -0.325461 -0.6657 0
M  V30 17119 H 1570.33 -1.4115 -1.29418 0
M  V30 17120 H 1568.64 -0.815709 -3.83215 0
M  V30 17121 H 1570.34 -1.20696 -3.82405 0
M  V30 17122 H 1566.93 -2.58266 -3.42048 0
M  V30 17123 H 1571.11 -3.56276 -3.45516 0
M  V30 17124 H 1566.37 -4.97226 -3.55776 0
M  V30 17125 H 1570.54 -5.95847 -3.60471 0
M  V30 17126 H 1568.17 -6.66749 -3.65171 0
M  V30 17127 N 1569.74 1.27735 -0.923117 0
M  V30 17128 C 1570.99 1.94185 -0.56004 0
M  V30 17129 C 1571.31 1.72945 0.90084 0
M  V30 17130 O 1570.58 1.07453 1.63801 0
M  V30 17131 H 1569.16 0.718568 -0.204129 0
M  V30 17132 H 1571.82 1.55535 -1.17451 0
M  V30 17133 H 1570.92 3.02644 -0.762424 0
M  V30 17134 N 1571.22 0.688118 1.41784 0
M  V30 17135 C 1572.45 0.223231 2.06195 0
M  V30 17136 C 1572.87 -1.11601 1.51416 0
M  V30 17137 O 1572.23 -1.69701 0.638059 0
M  V30 17138 C 1572.28 0.183257 3.60134 0
M  V30 17139 O 1571.38 -0.844186 4.03667 0
M  V30 17140 H 1570.72 0.110925 0.654669 0
M  V30 17141 H 1573.25 0.940882 1.81683 0
M  V30 17142 H 1573.26 0.0115951 4.07998 0
M  V30 17143 H 1571.94 1.16072 3.99375 0
M  V30 17144 H 1570.51 -0.642484 3.67323 0
M  V30 17145 N 1572.7 -1.51554 0.432352 0
M  V30 17146 C 1573.92 -2.06947 -0.136995 0
M  V30 17147 C 1574.35 -1.29817 -1.36122 0
M  V30 17148 O 1573.71 -0.334733 -1.78183 0
M  V30 17149 C 1573.75 -3.57871 -0.442785 0
M  V30 17150 O 1572.86 -3.82966 -1.53007 0
M  V30 17151 H 1572.2 -0.663988 -0.00405152 0
M  V30 17152 H 1574.73 -1.95225 0.612249 0
M  V30 17153 H 1574.74 -4.02042 -0.694694 0
M  V30 17154 H 1573.41 -4.13436 0.452013 0
M  V30 17155 H 1571.99 -3.50661 -1.26851 0
M  V30 17156 N 1574.18 -0.163538 -1.56749 0
M  V30 17157 C 1575.42 0.48412 -1.96937 0
M  V30 17158 C 1575.76 1.63418 -1.04919 0
M  V30 17159 O 1575.03 1.94269 -0.094783 0
M  V30 17160 C 1575.31 0.974532 -3.46663 0
M  V30 17161 C 1575.17 -0.175173 -4.49459 0
M  V30 17162 C 1576.49 1.85082 -3.9929 0
M  V30 17163 H 1573.6 0.174503 -0.716043 0
M  V30 17164 H 1576.25 -0.248103 -1.88373 0
M  V30 17165 H 1574.4 1.59849 -3.54091 0
M  V30 17166 H 1576.07 -0.812038 -4.54096 0
M  V30 17167 H 1574.31 -0.831853 -4.2575 0
M  V30 17168 H 1574.98 0.20996 -5.51601 0
M  V30 17169 H 1577.46 1.32488 -3.94444 0
M  V30 17170 H 1576.33 2.163 -5.04485 0
M  V30 17171 H 1576.6 2.79378 -3.42638 0
M  V30 17172 N 1575.65 1.57214 0.110213 0
M  V30 17173 C 1576.93 1.76298 0.847249 0
M  V30 17174 C 1577.31 0.741294 1.97656 0
M  V30 17175 O 1576.66 -0.233104 2.27308 0
M  V30 17176 C 1576.87 3.21588 1.35582 0
M  V30 17177 C 1578.22 3.8434 1.80465 0
M  V30 17178 O 1579.24 3.25244 1.45241 0
M  V30 17179 O 1578.1 4.88231 2.45546 0
M  V30 17180 H 1575.19 0.722167 0.402993 0
M  V30 17181 H 1577.74 1.69443 0.0932694 0
M  V30 17182 H 1576.51 3.87472 0.54599 0
M  V30 17183 H 1576.14 3.33015 2.17225 0
M  V30 17184 N 1577.13 -0.380637 1.52934 0
M  V30 17185 C 1578.08 -1.46544 1.78307 0
M  V30 17186 C 1579.05 -1.53825 0.626671 0
M  V30 17187 O 1580.23 -1.6995 0.867276 0
M  V30 17188 C 1577.37 -2.83676 1.96525 0
M  V30 17189 C 1576.49 -2.85481 3.24229 0
M  V30 17190 C 1575.62 -4.14092 3.32718 0
M  V30 17191 C 1574.66 -4.09982 4.54512 0
M  V30 17192 N 1573.8 -5.30214 4.60237 0
M  V30 17193 H 1578.64 -1.24209 2.7088 0
M  V30 17194 H 1576.18 -0.60241 1.34199 0
M  V30 17195 H 1578.13 -3.63319 2.05073 0
M  V30 17196 H 1576.76 -3.04443 1.07304 0
M  V30 17197 H 1575.82 -1.98159 3.24711 0
M  V30 17198 H 1577.13 -2.78313 4.13936 0
M  V30 17199 H 1576.28 -5.02144 3.40494 0
M  V30 17200 H 1575.02 -4.23993 2.41 0
M  V30 17201 H 1574.03 -3.20317 4.46852 0
M  V30 17202 H 1575.25 -4.01696 5.47556 0
M  V30 17203 H 1573.2 -5.40729 3.71414 0
M  V30 17204 H 1573.11 -5.25155 5.43827 0
M  V30 17205 H 1574.38 -6.2014 4.72279 0
M  V30 17206 N 1578.61 -1.44039 -0.639573 0
M  V30 17207 C 1579.56 -1.46693 -1.74543 0
M  V30 17208 C 1580.54 -0.333712 -1.57401 0
M  V30 17209 O 1581.74 -0.578443 -1.67281 0
M  V30 17210 C 1578.87 -1.40586 -3.13194 0
M  V30 17211 C 1577.95 -2.5899 -3.35835 0
M  V30 17212 N 1578.34 -3.84279 -3.28882 0
M  V30 17213 C 1576.64 -2.54005 -3.66602 0
M  V30 17214 C 1577.34 -4.63125 -3.5198 0
M  V30 17215 N 1576.32 -3.94067 -3.74449 0
M  V30 17216 H 1580.12 -2.41419 -1.67612 0
M  V30 17217 H 1577.63 -1.38883 -0.841739 0
M  V30 17218 H 1579.63 -1.4057 -3.92486 0
M  V30 17219 H 1578.29 -0.46891 -3.21296 0
M  V30 17220 H 1579.3 -4.16369 -3.07988 0
M  V30 17221 H 1575.98 -1.69065 -3.81737 0
M  V30 17222 H 1577.37 -5.72151 -3.52268 0
M  V30 17223 N 1580.09 0.879207 -1.30796 0
M  V30 17224 C 1581.02 2.00158 -1.20246 0
M  V30 17225 C 1582 1.69852 -0.091769 0
M  V30 17226 O 1583.18 1.92246 -0.274792 0
M  V30 17227 C 1580.31 3.3545 -0.899472 0
M  V30 17228 C 1579.27 3.80033 -1.96873 0
M  V30 17229 C 1578.59 5.12681 -1.51861 0
M  V30 17230 C 1579.89 3.98136 -3.38061 0
M  V30 17231 H 1581.59 2.09242 -2.14145 0
M  V30 17232 H 1579.13 1.00535 -1.03096 0
M  V30 17233 H 1581.09 4.13497 -0.812299 0
M  V30 17234 H 1579.81 3.26513 0.075189 0
M  V30 17235 H 1578.47 3.04219 -2.04564 0
M  V30 17236 H 1578.12 5.00178 -0.532063 0
M  V30 17237 H 1577.82 5.43482 -2.23386 0
M  V30 17238 H 1579.34 5.93247 -1.44534 0
M  V30 17239 H 1580.76 4.66604 -3.33096 0
M  V30 17240 H 1579.15 4.40321 -4.07722 0
M  V30 17241 H 1580.22 3.01807 -3.79526 0
M  V30 17242 N 1581.57 1.13606 1.09231 0
M  V30 17243 C 1582.5 0.758936 2.1521 0
M  V30 17244 C 1583.48 -0.255788 1.60575 0
M  V30 17245 O 1584.66 -0.14682 1.87927 0
M  V30 17246 C 1581.79 0.125401 3.38468 0
M  V30 17247 C 1580.84 1.10894 4.11831 0
M  V30 17248 S 1581.67 2.64233 4.65769 0
M  V30 17249 C 1582.82 2.02246 5.92324 0
M  V30 17250 H 1583.06 1.65661 2.46868 0
M  V30 17251 H 1580.59 0.956419 1.2121 0
M  V30 17252 H 1582.55 -0.233725 4.09834 0
M  V30 17253 H 1581.21 -0.749575 3.05025 0
M  V30 17254 H 1580.4 0.613519 5.00252 0
M  V30 17255 H 1580 1.41163 3.46336 0
M  V30 17256 H 1582.3 1.37275 6.63447 0
M  V30 17257 H 1583.24 2.88756 6.46549 0
M  V30 17258 H 1583.65 1.47321 5.44937 0
M  V30 17259 N 1583.05 -1.27244 0.929878 0
M  V30 17260 C 1583.96 -2.30506 0.436355 0
M  V30 17261 C 1584.97 -1.67131 -0.484054 0
M  V30 17262 O 1586.15 -1.9804 -0.366332 0
M  V30 17263 C 1583.21 -3.45391 -0.300942 0
M  V30 17264 C 1582.27 -4.24279 0.654647 0
M  V30 17265 C 1581.51 -5.33679 -0.047558 0
M  V30 17266 O 1581.73 -5.56161 -1.26654 0
M  V30 17267 O 1580.66 -5.98642 0.62538 0
M  V30 17268 H 1584.49 -2.74762 1.29382 0
M  V30 17269 H 1582.07 -1.32234 0.695311 0
M  V30 17270 H 1583.96 -4.1526 -0.716718 0
M  V30 17271 H 1582.63 -3.03187 -1.13398 0
M  V30 17272 H 1581.54 -3.56936 1.12015 0
M  V30 17273 H 1582.87 -4.70204 1.45497 0
M  V30 17274 N 1584.52 -0.695628 -1.41417 0
M  V30 17275 C 1585.8 -0.154646 -1.94988 0
M  V30 17276 C 1586.18 1.33534 -1.63499 0
M  V30 17277 O 1585.53 2.08178 -0.942031 0
M  V30 17278 C 1585.74 -0.446004 -3.46138 0
M  V30 17279 C 1587.09 -0.37378 -4.22952 0
M  V30 17280 O 1588.11 -0.380921 -3.54157 0
M  V30 17281 O 1586.97 -0.33395 -5.45479 0
M  V30 17282 H 1584.06 -0.0150053 -0.826864 0
M  V30 17283 H 1586.61 -0.771792 -1.51134 0
M  V30 17284 H 1585.38 -1.47734 -3.6234 0
M  V30 17285 H 1585 0.202111 -3.97086 0
M  V30 17286 N 1586 1.51322 -0.440383 0
M  V30 17287 C 1587.23 2.07017 0.126018 0
M  V30 17288 C 1587.65 1.30537 1.35431 0
M  V30 17289 O 1587.01 0.344178 1.78003 0
M  V30 17290 C 1587.06 3.58101 0.4238 0
M  V30 17291 O 1586.16 3.83772 1.50973 0
M  V30 17292 H 1585.5 0.664 0.000530178 0
M  V30 17293 H 1588.03 1.94897 -0.622594 0
M  V30 17294 H 1588.04 4.02405 0.673363 0
M  V30 17295 H 1586.72 4.13191 -0.473932 0
M  V30 17296 H 1585.29 3.51329 1.24989 0
M  V30 17297 N 1587.48 0.171848 1.5666 0
M  V30 17298 C 1588.76 -0.519355 1.88579 0
M  V30 17299 C 1589.14 -1.81273 1.08182 0
M  V30 17300 O 1588.48 -2.27822 0.175895 0
M  V30 17301 C 1588.69 -0.760743 3.40608 0
M  V30 17302 C 1590.04 -1.09051 4.10357 0
M  V30 17303 O 1591.07 -0.849264 3.45928 0
M  V30 17304 O 1589.93 -1.54566 5.24187 0
M  V30 17305 H 1587.02 -0.267782 0.782446 0
M  V30 17306 H 1589.57 0.210323 1.68392 0
M  V30 17307 H 1588.34 0.153577 3.90999 0
M  V30 17308 H 1587.96 -1.54372 3.66408 0
M  V30 17309 N 1588.96 -1.5727 -0.101874 0
M  V30 17310 C 1590.21 -1.85375 -0.805007 0
M  V30 17311 C 1590.53 -0.759564 -1.79599 0
M  V30 17312 O 1589.8 0.21484 -1.94718 0
M  V30 17313 H 1588.38 -0.683987 -0.300284 0
M  V30 17314 H 1591.04 -1.94714 -0.0851166 0
M  V30 17315 H 1590.13 -2.81881 -1.33976 0
M  V30 17316 N 1590.44 0.372521 -1.53134 0
M  V30 17317 C 1591.37 1.4759 -1.75357 0
M  V30 17318 C 1592.38 1.49938 -0.634223 0
M  V30 17319 O 1593.57 1.53543 -0.910322 0
M  V30 17320 C 1590.67 2.86382 -1.81214 0
M  V30 17321 C 1589.84 3.0781 -3.1076 0
M  V30 17322 C 1588.9 4.26677 -3.07949 0
M  V30 17323 O 1587.93 4.22186 -3.81769 0
M  V30 17324 N 1589.13 5.33729 -2.28283 0
M  V30 17325 H 1591.89 1.28908 -2.7056 0
M  V30 17326 H 1589.46 0.562186 -1.51826 0
M  V30 17327 H 1591.45 3.64029 -1.7682 0
M  V30 17328 H 1590.02 2.98344 -0.933249 0
M  V30 17329 H 1589.24 2.17884 -3.28512 0
M  V30 17330 H 1590.53 3.18991 -3.96386 0
M  V30 17331 H 1589.92 5.40238 -1.67806 0
M  V30 17332 H 1588.48 6.09979 -2.29714 0
M  V30 17333 N 1591.91 1.44376 0.631925 0
M  V30 17334 C 1593.14 1.5082 1.42366 0
M  V30 17335 C 1593.56 0.133858 1.87623 0
M  V30 17336 O 1592.92 -0.876789 1.58689 0
M  V30 17337 C 1592.97 2.47698 2.62065 0
M  V30 17338 O 1592.07 1.97796 3.61871 0
M  V30 17339 H 1591.41 0.509318 0.426018 0
M  V30 17340 H 1593.94 1.89502 0.771376 0
M  V30 17341 H 1593.95 2.65708 3.09618 0
M  V30 17342 H 1592.63 3.47526 2.2847 0
M  V30 17343 H 1591.21 1.89549 3.21131 0
M  V30 17344 N 1593.39 -0.872258 1.31261 0
M  V30 17345 C 1594.64 -1.62511 1.20815 0
M  V30 17346 C 1594.97 -1.93084 -0.234231 0
M  V30 17347 O 1594.22 -1.55945 -1.18236 0
M  V30 17348 C 1594.52 -2.96524 1.9952 0
M  V30 17349 C 1594.19 -2.85453 3.49038 0
M  V30 17350 C 1592.85 -2.8214 3.89808 0
M  V30 17351 C 1595.2 -2.72654 4.44195 0
M  V30 17352 C 1592.53 -2.63885 5.24005 0
M  V30 17353 C 1594.88 -2.55936 5.78515 0
M  V30 17354 C 1593.54 -2.51005 6.18508 0
M  V30 17355 H 1592.81 -0.594672 0.442093 0
M  V30 17356 H 1595.46 -1.01319 1.62501 0
M  V30 17357 H 1593.77 -3.61739 1.50507 0
M  V30 17358 H 1595.46 -3.53763 1.8882 0
M  V30 17359 H 1592.05 -2.88847 3.16647 0
M  V30 17360 H 1596.24 -2.7427 4.1363 0
M  V30 17361 H 1591.49 -2.58491 5.54069 0
M  V30 17362 H 1595.67 -2.45009 6.51877 0
M  V30 17363 H 1593.29 -2.36619 7.22437 0
M  V30 17364 N 1594.87 -1.14184 -1.08627 0
M  V30 17365 C 1596.12 -0.903271 -1.80344 0
M  V30 17366 C 1596.43 0.571801 -1.87056 0
M  V30 17367 O 1597.64 0.92756 -2.55164 0
M  V30 17368 C 1596.09 -1.56653 -3.24018 0
M  V30 17369 C 1595.7 -3.07771 -3.25548 0
M  V30 17370 C 1597.45 -1.40899 -4.00434 0
M  V30 17371 C 1595.35 -3.66943 -4.63796 0
M  V30 17372 H 1594.28 -0.334288 -0.675846 0
M  V30 17373 H 1596.93 -1.3705 -1.22023 0
M  V30 17374 H 1595.32 -1.02698 -3.82452 0
M  V30 17375 H 1596.49 -3.68375 -2.76834 0
M  V30 17376 H 1594.8 -3.23136 -2.62625 0
M  V30 17377 H 1597.4 -1.82511 -5.02587 0
M  V30 17378 H 1597.74 -0.354822 -4.14785 0
M  V30 17379 H 1598.28 -1.91879 -3.48464 0
M  V30 17380 H 1595.02 -4.72203 -4.54648 0
M  V30 17381 H 1594.54 -3.11119 -5.12801 0
M  V30 17382 H 1596.22 -3.67103 -5.32771 0
M  V30 17383 N 1596.35 1.26749 -0.936613 0
M  V30 17384 C 1597.3 2.24218 -0.413552 0
M  V30 17385 C 1598.28 1.53347 0.487172 0
M  V30 17386 O 1599.47 1.74025 0.323163 0
M  V30 17387 C 1596.6 3.41765 0.324304 0
M  V30 17388 C 1595.69 4.19927 -0.593449 0
M  V30 17389 N 1596.08 4.75757 -1.71722 0
M  V30 17390 C 1594.38 4.44219 -0.398158 0
M  V30 17391 C 1595.08 5.34781 -2.28876 0
M  V30 17392 N 1594.06 5.20214 -1.5773 0
M  V30 17393 H 1597.86 2.64974 -1.27146 0
M  V30 17394 H 1595.37 1.41782 -0.791938 0
M  V30 17395 H 1597.37 4.10705 0.716034 0
M  V30 17396 H 1596.03 3.02538 1.17903 0
M  V30 17397 H 1597.04 4.73438 -2.09945 0
M  V30 17398 H 1593.72 4.15431 0.415175 0
M  V30 17399 H 1595.11 5.88875 -3.23536 0
M  V30 17400 N 1597.83 0.703118 1.41046 0
M  V30 17401 C 1598.77 0.0312802 2.32579 0
M  V30 17402 C 1599.77 -0.760463 1.51371 0
M  V30 17403 O 1600.97 -0.665235 1.67256 0
M  V30 17404 H 1597.35 -0.00868655 0.75195 0
M  V30 17405 H 1599.32 0.820195 2.86907 0
M  V30 17406 C 1598.07 -0.885639 3.36232 0
M  V30 17407 H 1597.39 -0.285819 3.98777 0
M  V30 17408 H 1598.83 -1.3239 4.02801 0
M  V30 17409 C 1597.29 -2.00533 2.70718 0
M  V30 17410 O 1597.82 -3.09491 2.56082 0
M  V30 17411 N 1596.03 -1.78528 2.29295 0
M  V30 17412 H 1595.57 -0.899139 2.41399 0
M  V30 17413 H 1595.53 -2.53627 1.85797 0
M  V30 17414 N 1599.3 -1.51086 0.448402 0
M  V30 17415 C 1600.72 -1.86696 -0.0121264 0
M  V30 17416 C 1601.07 -1.36483 -1.40949 0
M  V30 17417 O 1600.19 -0.72024 -2.04062 0
M  V30 17418 C 1600.79 -3.38788 -0.0287814 0
M  V30 17419 C 1599.35 -3.73892 -0.433758 0
M  V30 17420 C 1598.49 -2.74869 0.366362 0
M  V30 17421 H 1601.44 -1.44153 0.663744 0
M  V30 17422 H 1601.46 -3.71204 -0.835915 0
M  V30 17423 H 1600.98 -3.75304 0.988368 0
M  V30 17424 H 1599.08 -3.4297 -1.4561 0
M  V30 17425 H 1599.19 -4.78862 -0.150869 0
M  V30 17426 H 1597.55 -2.54085 -0.176862 0
M  V30 17427 H 1598.34 -3.14228 1.3826 0
M  V30 17428 N 1600.78 -0.180154 -1.56567 0
M  V30 17429 C 1602.01 0.471692 -2.01965 0
M  V30 17430 C 1602.43 1.5542 -1.05954 0
M  V30 17431 O 1601.79 1.81255 -0.0405307 0
M  V30 17432 C 1601.84 1.01883 -3.45908 0
M  V30 17433 O 1600.94 2.13245 -3.52988 0
M  V30 17434 H 1600.28 0.11197 -0.654491 0
M  V30 17435 H 1602.81 -0.286642 -2.02582 0
M  V30 17436 H 1602.82 1.33922 -3.85395 0
M  V30 17437 H 1601.5 0.226299 -4.15284 0
M  V30 17438 H 1600.08 1.82184 -3.25367 0
M  V30 17439 N 1602.26 1.57322 0.0935319 0
M  V30 17440 C 1603.19 2.05208 1.11409 0
M  V30 17441 C 1604.17 0.941295 1.41681 0
M  V30 17442 O 1605.36 1.21266 1.51684 0
M  V30 17443 C 1602.49 2.47782 2.43354 0
M  V30 17444 C 1601.44 3.62538 2.27486 0
M  V30 17445 C 1600.77 3.91095 3.64622 0
M  V30 17446 C 1602.07 4.93371 1.71412 0
M  V30 17447 H 1603.76 2.9072 0.715702 0
M  V30 17448 H 1601.31 1.3986 0.342827 0
M  V30 17449 H 1603.26 2.79891 3.15022 0
M  V30 17450 H 1601.98 1.59272 2.85132 0
M  V30 17451 H 1600.64 3.30679 1.58263 0
M  V30 17452 H 1600.29 2.99749 4.0393 0
M  V30 17453 H 1599.99 4.68353 3.5485 0
M  V30 17454 H 1601.51 4.25679 4.37755 0
M  V30 17455 H 1602.93 5.23851 2.32922 0
M  V30 17456 H 1601.33 5.74804 1.72395 0
M  V30 17457 H 1602.4 4.80197 0.67368 0
M  V30 17458 N 1603.74 -0.364395 1.53329 0
M  V30 17459 C 1604.97 -1.1275 1.7348 0
M  V30 17460 C 1605.38 -1.83002 0.4643 0
M  V30 17461 O 1604.74 -1.73603 -0.562864 0
M  V30 17462 C 1604.79 -2.15691 2.90103 0
M  V30 17463 O 1604.51 -1.48298 4.12237 0
M  V30 17464 C 1606.01 -3.04539 3.22135 0
M  V30 17465 H 1603.23 -0.337084 0.580186 0
M  V30 17466 H 1605.78 -0.422952 2.00078 0
M  V30 17467 H 1603.93 -2.81742 2.65895 0
M  V30 17468 H 1604.34 -2.16896 4.77553 0
M  V30 17469 H 1605.82 -3.72747 4.07141 0
M  V30 17470 H 1606.3 -3.69414 2.3755 0
M  V30 17471 H 1606.9 -2.44103 3.48273 0
M  V30 17472 N 1605.22 -1.44709 -0.62426 0
M  V30 17473 C 1606.46 -1.48072 -1.38573 0
M  V30 17474 C 1606.8 -0.115532 -1.93856 0
M  V30 17475 O 1606.07 0.867787 -1.74068 0
M  V30 17476 C 1606.35 -2.54662 -2.54596 0
M  V30 17477 C 1606.21 -4.00564 -2.04618 0
M  V30 17478 C 1607.53 -2.57689 -3.56769 0
M  V30 17479 H 1604.64 -0.539119 -0.502513 0
M  V30 17480 H 1607.29 -1.76427 -0.705225 0
M  V30 17481 H 1605.44 -2.30614 -3.12649 0
M  V30 17482 H 1607.11 -4.35767 -1.51343 0
M  V30 17483 H 1605.35 -4.12014 -1.35746 0
M  V30 17484 H 1606.02 -4.70804 -2.8818 0
M  V30 17485 H 1608.5 -2.79194 -3.08529 0
M  V30 17486 H 1607.37 -3.34161 -4.35462 0
M  V30 17487 H 1607.64 -1.62146 -4.11292 0
M  V30 17488 N 1606.69 0.865285 -1.31722 0
M  V30 17489 C 1607.92 1.65137 -1.24649 0
M  V30 17490 C 1608.34 1.87868 0.187391 0
M  V30 17491 O 1607.69 1.44015 1.12098 0
M  V30 17492 C 1607.75 3.0167 -1.99193 0
M  V30 17493 O 1607.47 2.79951 -3.36985 0
M  V30 17494 C 1608.97 3.96115 -1.99017 0
M  V30 17495 H 1606.19 0.514683 -0.430514 0
M  V30 17496 H 1608.73 1.07971 -1.73674 0
M  V30 17497 H 1606.89 3.55511 -1.53918 0
M  V30 17498 H 1607.3 3.66706 -3.75002 0
M  V30 17499 H 1608.77 4.89217 -2.55677 0
M  V30 17500 H 1609.25 4.28268 -0.973815 0
M  V30 17501 H 1609.86 3.4821 -2.44192 0
M  V30 17502 N 1608.17 1.14759 1.0802 0
M  V30 17503 C 1609.42 0.919609 1.80751 0
M  V30 17504 C 1609.75 -0.552268 1.86182 0
M  V30 17505 O 1609.03 -1.40922 1.34057 0
M  V30 17506 C 1609.31 1.52611 3.26162 0
M  V30 17507 C 1609.16 3.06811 3.28918 0
M  V30 17508 C 1610.48 1.20625 4.23246 0
M  V30 17509 H 1607.6 0.33551 0.656203 0
M  V30 17510 H 1610.24 1.41816 1.26444 0
M  V30 17511 H 1608.39 1.10213 3.72539 0
M  V30 17512 H 1610.06 3.58068 2.90835 0
M  V30 17513 H 1608.31 3.41055 2.68075 0
M  V30 17514 H 1608.98 3.44357 4.31419 0
M  V30 17515 H 1611.45 1.57287 3.85227 0
M  V30 17516 H 1610.33 1.65689 5.23296 0
M  V30 17517 H 1610.59 0.122177 4.41931 0
M  V30 17518 N 1609.65 -1.26251 0.943322 0
M  V30 17519 C 1611.06 -1.75591 0.634391 0
M  V30 17520 C 1611.41 -1.76812 -0.850406 0
M  V30 17521 O 1610.54 -1.38162 -1.66554 0
M  V30 17522 C 1611.13 -3.18871 1.14484 0
M  V30 17523 C 1609.69 -3.65817 0.886285 0
M  V30 17524 C 1608.84 -2.4523 1.2945 0
M  V30 17525 H 1611.79 -1.12297 1.12139 0
M  V30 17526 H 1611.81 -3.77205 0.499654 0
M  V30 17527 H 1611.32 -3.17951 2.22551 0
M  V30 17528 H 1609.42 -3.72165 -0.179913 0
M  V30 17529 H 1609.54 -4.54523 1.5148 0
M  V30 17530 H 1607.9 -2.44519 0.712919 0
M  V30 17531 H 1608.68 -2.47009 2.38415 0
M  V30 17532 N 1611.13 -0.710588 -1.40671 0
M  V30 17533 C 1612.38 -0.244967 -2.00207 0
M  V30 17534 C 1612.69 1.16693 -1.56978 0
M  V30 17535 O 1613.9 1.73081 -2.09177 0
M  V30 17536 C 1612.35 -0.387049 -3.57813 0
M  V30 17537 C 1611.96 -1.80527 -4.10017 0
M  V30 17538 C 1613.71 0.0180338 -4.24496 0
M  V30 17539 C 1611.61 -1.89821 -5.60109 0
M  V30 17540 H 1610.54 -0.087831 -0.748867 0
M  V30 17541 H 1613.19 -0.880956 -1.6097 0
M  V30 17542 H 1611.58 0.317442 -3.94726 0
M  V30 17543 H 1612.75 -2.53974 -3.84492 0
M  V30 17544 H 1611.06 -2.16137 -3.55913 0
M  V30 17545 H 1613.66 -0.0307544 -5.34691 0
M  V30 17546 H 1614 1.05915 -4.02601 0
M  V30 17547 H 1614.54 -0.63672 -3.92671 0
M  V30 17548 H 1611.28 -2.92036 -5.86852 0
M  V30 17549 H 1610.8 -1.20779 -5.87514 0
M  V30 17550 H 1612.48 -1.66801 -6.25129 0
M  V30 17551 N 1612.61 1.50847 -0.456408 0
M  V30 17552 C 1613.57 2.26755 0.33388 0
M  V30 17553 C 1614.57 1.30947 0.933247 0
M  V30 17554 O 1615.76 1.54499 0.804716 0
M  V30 17555 C 1612.89 3.07378 1.47417 0
M  V30 17556 H 1614.09 2.98061 -0.331634 0
M  V30 17557 H 1611.64 1.54882 -0.210067 0
M  V30 17558 H 1612.37 2.40534 2.17518 0
M  V30 17559 H 1612.16 3.7777 1.05036 0
M  V30 17560 H 1613.65 3.64826 2.03204 0
M  V30 17561 N 1614.09 0.188454 1.56469 0
M  V30 17562 C 1615.5 -0.325309 1.83844 0
M  V30 17563 C 1615.85 -1.61858 1.1089 0
M  V30 17564 O 1614.97 -2.13256 0.36752 0
M  V30 17565 C 1615.57 -0.597002 3.33499 0
M  V30 17566 C 1614.13 -1.05515 3.61308 0
M  V30 17567 C 1613.27 -0.100182 2.77119 0
M  V30 17568 H 1616.22 0.412378 1.53249 0
M  V30 17569 H 1616.25 -1.44709 3.51908 0
M  V30 17570 H 1615.76 0.344429 3.86569 0
M  V30 17571 H 1613.86 -2.01109 3.13665 0
M  V30 17572 H 1613.97 -0.952461 4.69537 0
M  V30 17573 H 1612.34 -0.600815 2.47512 0
M  V30 17574 H 1613.12 0.835574 3.32976 0
M  V30 17575 N 1615.56 -1.5737 -0.0851874 0
M  V30 17576 C 1616.81 -1.86219 -0.7853 0
M  V30 17577 C 1617.13 -0.77857 -1.78783 0
M  V30 17578 O 1616.4 0.194176 -1.94935 0
M  V30 17579 H 1614.98 -0.687134 -0.293013 0
M  V30 17580 H 1617.64 -1.94793 -0.0644597 0
M  V30 17581 H 1616.74 -2.83286 -1.30978 0
M  V30 17582 N 1617.04 0.356258 -1.53521 0
M  V30 17583 C 1617.95 1.46055 -1.83589 0
M  V30 17584 C 1618.97 1.58176 -0.724997 0
M  V30 17585 O 1620.14 1.73894 -1.01601 0
M  V30 17586 C 1617.21 2.81207 -2.0279 0
M  V30 17587 C 1616.27 2.78535 -3.26675 0
M  V30 17588 C 1615.5 4.07241 -3.4495 0
M  V30 17589 O 1615.73 5.03879 -2.67324 0
M  V30 17590 O 1614.66 4.12485 -4.38337 0
M  V30 17591 H 1618.49 1.23566 -2.77426 0
M  V30 17592 H 1616.07 0.547243 -1.39017 0
M  V30 17593 H 1617.95 3.61271 -2.16936 0
M  V30 17594 H 1616.63 3.03654 -1.12143 0
M  V30 17595 H 1615.53 1.97137 -3.17943 0
M  V30 17596 H 1616.87 2.61042 -4.17274 0
M  V30 17597 N 1618.52 1.45038 0.616577 0
M  V30 17598 C 1619.74 1.52321 1.40759 0
M  V30 17599 C 1620.17 0.15375 1.87471 0
M  V30 17600 O 1619.53 -0.859908 1.5961 0
M  V30 17601 C 1619.58 2.50464 2.59423 0
M  V30 17602 O 1618.68 2.01623 3.59753 0
M  V30 17603 H 1618.02 0.513808 0.420592 0
M  V30 17604 H 1620.55 1.90309 0.751234 0
M  V30 17605 H 1620.56 2.68977 3.06783 0
M  V30 17606 H 1619.24 3.4993 2.24771 0
M  V30 17607 H 1617.81 1.92945 3.19103 0
M  V30 17608 N 1620 -0.858287 1.32179 0
M  V30 17609 C 1621.27 -1.59548 1.13154 0
M  V30 17610 C 1621.65 -2.0882 -0.309439 0
M  V30 17611 O 1621 -1.87536 -1.30547 0
M  V30 17612 C 1621.21 -2.74443 2.15597 0
M  V30 17613 C 1622.56 -3.44115 2.48737 0
M  V30 17614 O 1623.58 -2.84664 2.14114 0
M  V30 17615 O 1622.44 -4.51389 3.08074 0
M  V30 17616 H 1619.54 -0.702481 0.436405 0
M  V30 17617 H 1622.08 -0.902731 1.43697 0
M  V30 17618 H 1620.86 -2.35533 3.12473 0
M  V30 17619 H 1620.48 -3.51397 1.86028 0
M  V30 17620 N 1621.48 -1.1533 -1.07409 0
M  V30 17621 C 1622.41 -0.872476 -2.16587 0
M  V30 17622 C 1623.39 0.176683 -1.6918 0
M  V30 17623 O 1624.57 0.0311826 -1.94175 0
M  V30 17624 C 1621.7 -0.360342 -3.45426 0
M  V30 17625 C 1620.66 -1.34611 -4.06281 0
M  V30 17626 C 1619.98 -0.692848 -5.30192 0
M  V30 17627 C 1621.28 -2.71191 -4.46378 0
M  V30 17628 H 1622.98 -1.78546 -2.40336 0
M  V30 17629 H 1620.52 -0.859895 -1.15507 0
M  V30 17630 H 1622.47 -0.151429 -4.21128 0
M  V30 17631 H 1621.2 0.588109 -3.21261 0
M  V30 17632 H 1619.86 -1.54137 -3.32622 0
M  V30 17633 H 1619.51 0.261732 -5.02319 0
M  V30 17634 H 1619.21 -1.35071 -5.71865 0
M  V30 17635 H 1620.73 -0.493695 -6.08601 0
M  V30 17636 H 1622.14 -2.55513 -5.13212 0
M  V30 17637 H 1620.54 -3.33345 -4.99 0
M  V30 17638 H 1621.61 -3.273 -3.57775 0
M  V30 17639 N 1622.95 1.25748 -0.950004 0
M  V30 17640 C 1623.86 2.29783 -0.472971 0
M  V30 17641 C 1624.88 1.6788 0.457403 0
M  V30 17642 O 1626.06 1.98598 0.334779 0
M  V30 17643 C 1623.12 3.45826 0.245955 0
M  V30 17644 C 1622.18 4.23184 -0.722063 0
M  V30 17645 C 1621.41 5.33687 -0.0373517 0
M  V30 17646 O 1621.64 5.58105 1.1779 0
M  V30 17647 O 1620.57 5.97572 -0.72054 0
M  V30 17648 H 1624.4 2.72668 -1.33737 0
M  V30 17649 H 1621.98 1.31111 -0.71626 0
M  V30 17650 H 1623.86 4.16348 0.650563 0
M  V30 17651 H 1622.54 3.04953 1.0856 0
M  V30 17652 H 1621.45 3.55109 -1.17679 0
M  V30 17653 H 1622.78 4.67829 -1.52959 0
M  V30 17654 N 1624.43 0.718038 1.40292 0
M  V30 17655 C 1625.38 0.0559466 2.32533 0
M  V30 17656 C 1626.37 -0.744365 1.5217 0
M  V30 17657 O 1627.58 -0.647458 1.67952 0
M  V30 17658 H 1623.95 -0.000710627 0.752 0
M  V30 17659 H 1625.93 0.850579 2.8602 0
M  V30 17660 C 1624.67 -0.849927 3.37152 0
M  V30 17661 H 1624 -0.243507 3.99058 0
M  V30 17662 H 1625.44 -1.28111 4.04183 0
M  V30 17663 C 1623.9 -1.9765 2.7283 0
M  V30 17664 O 1624.43 -3.06757 2.59351 0
M  V30 17665 N 1622.63 -1.76086 2.31176 0
M  V30 17666 H 1622.18 -0.873485 2.42339 0
M  V30 17667 H 1622.14 -2.51643 1.88477 0
M  V30 17668 N 1625.91 -1.50602 0.464402 0
M  V30 17669 C 1626.84 -2.25029 -0.379075 0
M  V30 17670 C 1627.82 -1.28064 -1.00192 0
M  V30 17671 O 1629.01 -1.5727 -1.03915 0
M  V30 17672 C 1626.13 -3.02144 -1.53057 0
M  V30 17673 C 1625.18 -4.13981 -1.02576 0
M  V30 17674 S 1626.01 -5.35473 0.0541453 0
M  V30 17675 C 1627.17 -6.16133 -1.10138 0
M  V30 17676 H 1627.4 -2.96224 0.252731 0
M  V30 17677 H 1624.93 -1.52376 0.249205 0
M  V30 17678 H 1626.89 -3.47167 -2.19056 0
M  V30 17679 H 1625.55 -2.30489 -2.13387 0
M  V30 17680 H 1624.75 -4.67316 -1.88763 0
M  V30 17681 H 1624.35 -3.7136 -0.443597 0
M  V30 17682 H 1626.64 -6.46861 -2.01437 0
M  V30 17683 H 1627.58 -7.0549 -0.60743 0
M  V30 17684 H 1627.99 -5.48066 -1.35218 0
M  V30 17685 N 1627.39 -0.19675 -1.56367 0
M  V30 17686 C 1628.34 0.740138 -2.2051 0
M  V30 17687 C 1629.33 1.21854 -1.17677 0
M  V30 17688 O 1630.54 1.18124 -1.35819 0
M  V30 17689 H 1626.91 0.257034 -0.706709 0
M  V30 17690 H 1628.88 0.175454 -2.97884 0
M  V30 17691 C 1627.63 1.94841 -2.8798 0
M  V30 17692 H 1626.95 1.58936 -3.66851 0
M  V30 17693 H 1628.39 2.58227 -3.36296 0
M  V30 17694 C 1626.85 2.78821 -1.89104 0
M  V30 17695 O 1627.38 3.76797 -1.39237 0
M  V30 17696 N 1625.59 2.44348 -1.57297 0
M  V30 17697 H 1625.14 1.64732 -1.98043 0
M  V30 17698 H 1625.09 3.00822 -0.913978 0
M  V30 17699 N 1628.87 1.57413 0.0768405 0
M  V30 17700 C 1629.83 2.02363 1.0762 0
M  V30 17701 C 1630.83 0.919879 1.3189 0
M  V30 17702 O 1632.02 1.18489 1.27695 0
M  V30 17703 C 1629.15 2.39995 2.42106 0
M  V30 17704 H 1630.34 2.91881 0.688889 0
M  V30 17705 H 1627.9 1.52938 0.322422 0
M  V30 17706 H 1628.63 1.53488 2.85678 0
M  V30 17707 H 1628.42 3.20534 2.25833 0
M  V30 17708 H 1629.91 2.75365 3.13948 0
M  V30 17709 N 1630.34 -0.348112 1.53707 0
M  V30 17710 C 1631.25 -1.45079 1.84361 0
M  V30 17711 C 1632.27 -1.5779 0.733375 0
M  V30 17712 O 1633.45 -1.73353 1.02522 0
M  V30 17713 C 1630.51 -2.80127 2.04278 0
M  V30 17714 C 1629.57 -2.76799 3.28148 0
M  V30 17715 C 1628.81 -4.05406 3.47105 0
M  V30 17716 O 1629.03 -5.02454 2.69992 0
M  V30 17717 O 1627.96 -4.10155 4.40519 0
M  V30 17718 H 1631.79 -1.22093 2.78077 0
M  V30 17719 H 1629.37 -0.539863 1.39305 0
M  V30 17720 H 1631.26 -3.60115 2.18849 0
M  V30 17721 H 1629.93 -3.03055 1.13751 0
M  V30 17722 H 1628.84 -1.95448 3.18984 0
M  V30 17723 H 1630.17 -2.58826 4.18653 0
M  V30 17724 N 1631.82 -1.45363 -0.608876 0
M  V30 17725 C 1632.73 -1.56471 -1.74797 0
M  V30 17726 C 1633.75 -0.449225 -1.68101 0
M  V30 17727 O 1634.92 -0.709731 -1.8848 0
M  V30 17728 C 1631.99 -1.52714 -3.11254 0
M  V30 17729 C 1631.05 -2.75291 -3.29414 0
M  V30 17730 C 1630.28 -2.71704 -4.59361 0
M  V30 17731 O 1630.51 -1.78959 -5.41599 0
M  V30 17732 O 1629.44 -3.62886 -4.80205 0
M  V30 17733 H 1633.27 -2.52751 -1.68377 0
M  V30 17734 H 1630.85 -1.27859 -0.772808 0
M  V30 17735 H 1632.73 -1.53222 -3.92557 0
M  V30 17736 H 1631.41 -0.595858 -3.18169 0
M  V30 17737 H 1630.32 -2.80345 -2.47704 0
M  V30 17738 H 1631.65 -3.67541 -3.27375 0
M  V30 17739 N 1633.3 0.851265 -1.32632 0
M  V30 17740 C 1634.23 1.97562 -1.24465 0
M  V30 17741 C 1635.21 1.69619 -0.127777 0
M  V30 17742 O 1636.4 1.9162 -0.315509 0
M  V30 17743 C 1633.53 3.33467 -0.970423 0
M  V30 17744 C 1632.48 3.75772 -2.0489 0
M  V30 17745 C 1631.81 5.09345 -1.62702 0
M  V30 17746 C 1633.11 3.90876 -3.4643 0
M  V30 17747 H 1634.8 2.04653 -2.18535 0
M  V30 17748 H 1632.35 0.983252 -1.05205 0
M  V30 17749 H 1634.3 4.11681 -0.899825 0
M  V30 17750 H 1633.02 3.26599 0.00591373 0
M  V30 17751 H 1631.68 2.99812 -2.1097 0
M  V30 17752 H 1631.33 4.98937 -0.638039 0
M  V30 17753 H 1631.03 5.38621 -2.34864 0
M  V30 17754 H 1632.55 5.90048 -1.57085 0
M  V30 17755 H 1633.97 4.59434 -3.42919 0
M  V30 17756 H 1632.37 4.31574 -4.1697 0
M  V30 17757 H 1633.44 2.93689 -3.85843 0
M  V30 17758 N 1634.78 1.15898 1.06796 0
M  V30 17759 C 1636 0.961859 1.83747 0
M  V30 17760 C 1636.43 -0.48494 1.81741 0
M  V30 17761 O 1635.79 -1.3461 1.21449 0
M  V30 17762 C 1635.83 1.48764 3.28484 0
M  V30 17763 O 1634.94 0.690576 4.06577 0
M  V30 17764 H 1634.28 0.342664 0.568751 0
M  V30 17765 H 1636.81 1.54015 1.34687 0
M  V30 17766 H 1636.82 1.50291 3.79311 0
M  V30 17767 H 1635.49 2.54089 3.29259 0
M  V30 17768 H 1634.07 0.74539 3.65374 0
M  V30 17769 N 1636.26 -1.25243 0.956659 0
M  V30 17770 C 1637.48 -1.97621 0.629337 0
M  V30 17771 C 1637.91 -1.70606 -0.792158 0
M  V30 17772 O 1637.26 -0.963192 -1.53598 0
M  V30 17773 C 1637.31 -3.49273 0.896687 0
M  V30 17774 O 1636.42 -4.12393 -0.0234986 0
M  V30 17775 H 1635.76 -0.619472 0.239061 0
M  V30 17776 H 1638.29 -1.5931 1.28381 0
M  V30 17777 H 1638.3 -3.99597 0.82377 0
M  V30 17778 H 1636.97 -3.68265 1.93271 0
M  V30 17779 H 1635.55 -3.72761 0.101796 0
M  V30 17780 N 1637.73 -0.725468 -1.3991 0
M  V30 17781 C 1639.01 -0.195971 -1.94616 0
M  V30 17782 C 1639.39 1.30035 -1.66295 0
M  V30 17783 O 1638.74 2.06133 -0.985977 0
M  V30 17784 C 1638.95 -0.519325 -3.45115 0
M  V30 17785 C 1640.3 -0.46341 -4.22064 0
M  V30 17786 O 1641.32 -0.455958 -3.5327 0
M  V30 17787 O 1640.18 -0.449579 -5.44648 0
M  V30 17788 H 1637.27 -0.0325409 -0.82636 0
M  V30 17789 H 1639.82 -0.803676 -1.49463 0
M  V30 17790 H 1638.59 -1.55386 -3.59125 0
M  V30 17791 H 1638.22 0.117838 -3.97425 0
M  V30 17792 N 1639.21 1.50354 -0.472382 0
M  V30 17793 C 1640.44 2.07238 0.0820787 0
M  V30 17794 C 1640.86 1.3338 1.32632 0
M  V30 17795 O 1640.22 0.381857 1.77233 0
M  V30 17796 C 1640.27 3.58919 0.347746 0
M  V30 17797 O 1639.37 3.86888 1.42799 0
M  V30 17798 H 1638.71 0.663862 -0.0135544 0
M  V30 17799 H 1641.24 1.93533 -0.663795 0
M  V30 17800 H 1641.25 4.03743 0.587855 0
M  V30 17801 H 1639.93 4.12093 -0.56147 0
M  V30 17802 H 1638.51 3.53901 1.17509 0
M  V30 17803 N 1640.69 0.205039 1.56261 0
M  V30 17804 C 1641.97 -0.479238 1.89638 0
M  V30 17805 C 1642.35 -1.78938 1.12002 0
M  V30 17806 O 1641.7 -2.27398 0.224179 0
M  V30 17807 C 1641.91 -0.688324 3.42145 0
M  V30 17808 C 1643.25 -1.00322 4.12578 0
M  V30 17809 O 1644.28 -0.775697 3.47651 0
M  V30 17810 O 1643.14 -1.43412 5.27347 0
M  V30 17811 H 1640.23 -0.251125 0.78795 0
M  V30 17812 H 1642.78 0.245994 1.67908 0
M  V30 17813 H 1641.55 0.236479 3.90585 0
M  V30 17814 H 1641.17 -1.46565 3.696 0
M  V30 17815 N 1642.17 -1.57451 -0.0684915 0
M  V30 17816 C 1643.39 -1.92025 -0.78366 0
M  V30 17817 C 1643.82 -0.801743 -1.70158 0
M  V30 17818 O 1643.18 0.245227 -1.79634 0
M  V30 17819 C 1643.23 -3.25563 -1.55051 0
M  V30 17820 O 1642.33 -3.15029 -2.6614 0
M  V30 17821 H 1641.67 -0.628714 -0.213576 0
M  V30 17822 H 1644.2 -2.04569 -0.0357474 0
M  V30 17823 H 1644.21 -3.59516 -1.92905 0
M  V30 17824 H 1642.89 -4.06547 -0.87704 0
M  V30 17825 H 1641.46 -2.9264 -2.31119 0
M  V30 17826 N 1643.65 0.339955 -1.5389 0
M  V30 17827 C 1644.56 1.441 -1.85128 0
M  V30 17828 C 1645.57 1.57399 -0.741733 0
M  V30 17829 O 1646.75 1.72807 -1.0344 0
M  V30 17830 C 1643.81 2.7904 -2.05761 0
M  V30 17831 C 1642.88 2.75055 -3.29611 0
M  V30 17832 C 1642.11 4.0356 -3.4925 0
M  V30 17833 O 1642.33 5.01015 -2.72653 0
M  V30 17834 O 1641.27 4.07813 -4.42687 0
M  V30 17835 H 1645.09 1.20616 -2.78721 0
M  V30 17836 H 1642.68 0.532468 -1.39589 0
M  V30 17837 H 1644.56 3.5895 -2.20756 0
M  V30 17838 H 1643.23 3.02447 -1.15357 0
M  V30 17839 H 1642.14 1.93753 -3.20016 0
M  V30 17840 H 1643.47 2.56602 -4.20019 0
M  V30 17841 N 1645.13 1.45684 0.601159 0
M  V30 17842 C 1646.36 1.53351 1.38445 0
M  V30 17843 C 1646.76 0.167103 1.88461 0
M  V30 17844 O 1646.11 -0.842684 1.63231 0
M  V30 17845 C 1646.17 2.46214 2.61952 0
M  V30 17846 C 1645.83 3.92826 2.33532 0
M  V30 17847 C 1646.83 4.8255 1.93498 0
M  V30 17848 C 1644.51 4.378 2.46245 0
M  V30 17849 C 1646.51 6.15257 1.66547 0
M  V30 17850 C 1644.2 5.70546 2.18908 0
M  V30 17851 C 1645.19 6.59094 1.79121 0
M  V30 17852 O 1644.88 7.89378 1.52108 0
M  V30 17853 H 1644.61 0.521638 0.429965 0
M  V30 17854 H 1647.17 1.91622 0.739617 0
M  V30 17855 H 1645.4 2.02926 3.29178 0
M  V30 17856 H 1647.09 2.44492 3.24004 0
M  V30 17857 H 1647.85 4.49066 1.83207 0
M  V30 17858 H 1643.73 3.69115 2.76179 0
M  V30 17859 H 1647.28 6.8433 1.35418 0
M  V30 17860 H 1643.17 6.03583 2.28818 0
M  V30 17861 H 1643.94 8.01468 1.66107 0
M  V30 17862 N 1646.6 -0.84422 1.33082 0
M  V30 17863 C 1647.83 -1.63654 1.27405 0
M  V30 17864 C 1648.25 -1.87476 -0.153146 0
M  V30 17865 O 1647.61 -1.43502 -1.10801 0
M  V30 17866 C 1647.66 -2.96698 2.04945 0
M  V30 17867 O 1646.76 -3.87751 1.40439 0
M  V30 17868 H 1646.1 -0.498545 0.438576 0
M  V30 17869 H 1648.63 -1.0507 1.7556 0
M  V30 17870 H 1648.64 -3.46438 2.1551 0
M  V30 17871 H 1647.32 -2.78682 3.08722 0
M  V30 17872 H 1645.9 -3.46231 1.38487 0
M  V30 17873 N 1648.08 -1.16463 -1.0618 0
M  V30 17874 C 1649.03 -0.87224 -2.13683 0
M  V30 17875 C 1650 0.179784 -1.65124 0
M  V30 17876 O 1651.18 0.0447406 -1.90748 0
M  V30 17877 C 1648.32 -0.380728 -3.42993 0
M  V30 17878 C 1647.44 -1.49571 -4.05281 0
M  V30 17879 C 1646.57 -0.959099 -5.2247 0
M  V30 17880 C 1645.61 -2.05021 -5.76743 0
M  V30 17881 N 1644.75 -1.5291 -6.85247 0
M  V30 17882 H 1649.59 -1.79288 -2.38033 0
M  V30 17883 H 1647.12 -0.894379 -1.16787 0
M  V30 17884 H 1649.08 -0.0773816 -4.17128 0
M  V30 17885 H 1647.71 0.502966 -3.18857 0
M  V30 17886 H 1646.76 -1.915 -3.28682 0
M  V30 17887 H 1648.08 -2.31904 -4.41613 0
M  V30 17888 H 1647.23 -0.609003 -6.03636 0
M  V30 17889 H 1645.97 -0.105086 -4.87587 0
M  V30 17890 H 1644.97 -2.40899 -4.94214 0
M  V30 17891 H 1646.2 -2.90821 -6.13678 0
M  V30 17892 H 1644.15 -0.697639 -6.5228 0
M  V30 17893 H 1644.06 -2.28859 -7.20527 0
M  V30 17894 H 1645.33 -1.20762 -7.70089 0
M  V30 17895 N 1649.56 1.24734 -0.963288 0
M  V30 17896 C 1650.81 1.92971 -0.623688 0
M  V30 17897 C 1651.14 1.7517 0.838393 0
M  V30 17898 O 1650.41 1.10208 1.60264 0
M  V30 17899 C 1650.7 3.46115 -0.99379 0
M  V30 17900 C 1650.55 3.73104 -2.51224 0
M  V30 17901 C 1651.87 4.36956 -0.525128 0
M  V30 17902 H 1648.99 0.700827 -0.228058 0
M  V30 17903 H 1651.63 1.47187 -1.2015 0
M  V30 17904 H 1649.78 3.85242 -0.502108 0
M  V30 17905 H 1651.45 3.43563 -3.07835 0
M  V30 17906 H 1649.69 3.18409 -2.94616 0
M  V30 17907 H 1650.37 4.80237 -2.7217 0
M  V30 17908 H 1652.84 4.0518 -0.947015 0
M  V30 17909 H 1651.72 5.4285 -0.812695 0
M  V30 17910 H 1651.98 4.38347 0.574843 0
M  V30 17911 N 1651.04 0.732878 1.39523 0
M  V30 17912 C 1652.45 0.408236 1.54291 0
M  V30 17913 C 1652.65 -1.08114 1.7004 0
M  V30 17914 O 1651.71 -1.86726 1.6997 0
M  V30 17915 C 1653.02 1.1894 2.76177 0
M  V30 17916 C 1654.57 1.17742 2.9001 0
M  V30 17917 C 1655.05 1.94111 4.14831 0
M  V30 17918 N 1656.54 1.91266 4.21867 0
M  V30 17919 C 1657.27 2.47167 5.17394 0
M  V30 17920 N 1656.77 3.11696 6.18723 0
M  V30 17921 N 1658.56 2.37212 5.09595 0
M  V30 17922 H 1650.71 1.69839 1.27548 0
M  V30 17923 H 1652.97 0.718844 0.618035 0
M  V30 17924 H 1652.68 2.24321 2.70875 0
M  V30 17925 H 1652.55 0.792439 3.68782 0
M  V30 17926 H 1654.94 0.131752 2.94806 0
M  V30 17927 H 1655.02 1.61374 1.98474 0
M  V30 17928 H 1654.67 2.98677 4.10797 0
M  V30 17929 H 1654.6 1.47886 5.05408 0
M  V30 17930 H 1657.09 1.44254 3.49284 0
M  V30 17931 H 1657.4 3.51823 6.8807 0
M  V30 17932 H 1655.75 3.15785 6.19116 0
M  V30 17933 H 1658.94 1.86444 4.29367 0
M  V30 17934 H 1659.11 2.81076 5.83866 0
M  V30 17935 N 1652.52 -1.50101 0.480349 0
M  V30 17936 C 1653.45 -2.31581 -0.298718 0
M  V30 17937 C 1654.43 -1.38905 -0.981798 0
M  V30 17938 O 1655.61 -1.67823 -0.977188 0
M  V30 17939 C 1652.74 -3.18891 -1.37571 0
M  V30 17940 C 1651.7 -4.20194 -0.813704 0
M  V30 17941 C 1651.02 -4.96302 -1.98968 0
M  V30 17942 C 1652.32 -5.21985 0.181295 0
M  V30 17943 H 1654.02 -2.96961 0.381349 0
M  V30 17944 H 1651.56 -1.42809 0.184842 0
M  V30 17945 H 1653.51 -3.74694 -1.92828 0
M  V30 17946 H 1652.24 -2.51414 -2.08467 0
M  V30 17947 H 1650.9 -3.65506 -0.283034 0
M  V30 17948 H 1650.55 -4.2529 -2.68584 0
M  V30 17949 H 1650.25 -5.64833 -1.61981 0
M  V30 17950 H 1651.77 -5.54943 -2.54698 0
M  V30 17951 H 1653.18 -5.72604 -0.28242 0
M  V30 17952 H 1651.58 -5.98289 0.465916 0
M  V30 17953 H 1652.65 -4.72162 1.10413 0
M  V30 17954 N 1653.99 -0.213323 -1.5615 0
M  V30 17955 C 1654.94 0.716708 -2.21283 0
M  V30 17956 C 1655.94 1.20599 -1.18963 0
M  V30 17957 O 1657.14 1.16677 -1.37064 0
M  V30 17958 H 1653.52 0.249524 -0.709395 0
M  V30 17959 H 1655.49 0.14385 -2.98053 0
M  V30 17960 C 1654.24 1.91775 -2.9003 0
M  V30 17961 H 1653.56 1.55036 -3.68516 0
M  V30 17962 H 1655 2.54646 -3.39016 0
M  V30 17963 C 1653.46 2.768 -1.92051 0
M  V30 17964 O 1653.99 3.75299 -1.43225 0
M  V30 17965 N 1652.19 2.42666 -1.5988 0
M  V30 17966 H 1651.74 1.62622 -1.99779 0
M  V30 17967 H 1651.7 2.99836 -0.945833 0
M  V30 17968 N 1655.47 1.57485 0.0601405 0
M  V30 17969 C 1656.89 1.54105 0.415187 0
M  V30 17970 C 1657.09 0.935177 1.78484 0
M  V30 17971 O 1656.14 0.542715 2.46599 0
M  V30 17972 C 1657.46 2.98708 0.34555 0
M  V30 17973 C 1659.01 3.10103 0.424895 0
M  V30 17974 C 1659.48 4.56379 0.385041 0
M  V30 17975 N 1660.97 4.6106 0.444771 0
M  V30 17976 C 1661.71 5.71737 0.436334 0
M  V30 17977 N 1661.2 6.91746 0.38202 0
M  V30 17978 N 1663 5.60014 0.483759 0
M  V30 17979 H 1655.15 1.95232 -0.836565 0
M  V30 17980 H 1657.41 0.894101 -0.3151 0
M  V30 17981 H 1657.12 3.4664 -0.594427 0
M  V30 17982 H 1656.99 3.59201 1.15129 0
M  V30 17983 H 1659.38 2.62137 1.3553 0
M  V30 17984 H 1659.46 2.52499 -0.409633 0
M  V30 17985 H 1659.1 5.05004 -0.541561 0
M  V30 17986 H 1659.03 5.11859 1.23726 0
M  V30 17987 H 1661.52 3.74703 0.490522 0
M  V30 17988 H 1661.84 7.71866 0.379829 0
M  V30 17989 H 1660.18 6.94126 0.348532 0
M  V30 17990 H 1663.37 4.65158 0.523965 0
M  V30 17991 H 1663.54 6.46266 0.473715 0
M  V30 17992 N 1656.95 -0.331789 1.54068 0
M  V30 17993 C 1658.18 -1.09484 1.76148 0
M  V30 17994 C 1658.6 -1.81201 0.504772 0
M  V30 17995 O 1657.96 -1.7297 -0.54325 0
M  V30 17996 C 1658.01 -2.07495 2.94921 0
M  V30 17997 O 1657.11 -3.15239 2.65891 0
M  V30 17998 H 1656.45 -0.316071 0.583948 0
M  V30 17999 H 1658.98 -0.378593 2.01067 0
M  V30 18000 H 1658.99 -2.5051 3.22038 0
M  V30 18001 H 1657.67 -1.54696 3.8606 0
M  V30 18002 H 1656.24 -2.76958 2.49697 0
M  V30 18003 N 1658.43 -1.46001 -0.593424 0
M  V30 18004 C 1659.65 -1.54541 -1.38318 0
M  V30 18005 C 1660.08 -0.183555 -1.87202 0
M  V30 18006 O 1659.44 0.834407 -1.60958 0
M  V30 18007 C 1659.48 -2.54559 -2.55405 0
M  V30 18008 O 1658.59 -2.07321 -3.56499 0
M  V30 18009 H 1657.93 -0.520434 -0.412364 0
M  V30 18010 H 1660.46 -1.9148 -0.720862 0
M  V30 18011 H 1660.47 -2.73823 -3.02465 0
M  V30 18012 H 1659.14 -3.53461 -2.19176 0
M  V30 18013 H 1657.72 -1.97997 -3.15993 0
M  V30 18014 N 1659.91 0.83715 -1.33527 0
M  V30 18015 C 1661.13 1.62976 -1.28271 0
M  V30 18016 C 1661.56 1.87554 0.143201 0
M  V30 18017 O 1660.91 1.44088 1.10038 0
M  V30 18018 C 1660.96 2.95607 -2.06516 0
M  V30 18019 O 1660.07 3.87 -1.42494 0
M  V30 18020 H 1659.41 0.496212 -0.441214 0
M  V30 18021 H 1661.94 1.04137 -1.76115 0
M  V30 18022 H 1661.95 3.4529 -2.17344 0
M  V30 18023 H 1660.62 2.77041 -3.10195 0
M  V30 18024 H 1659.2 3.45492 -1.40321 0
M  V30 18025 N 1661.38 1.17024 1.05561 0
M  V30 18026 C 1662.61 0.981293 1.82717 0
M  V30 18027 C 1663.03 -0.465636 1.82246 0
M  V30 18028 O 1662.39 -1.33315 1.22869 0
M  V30 18029 C 1662.44 1.52239 3.26888 0
M  V30 18030 O 1661.54 0.73366 4.05822 0
M  V30 18031 H 1660.89 0.348677 0.565084 0
M  V30 18032 H 1663.42 1.55435 1.33046 0
M  V30 18033 H 1663.43 1.54306 3.77695 0
M  V30 18034 H 1662.1 2.57567 3.26545 0
M  V30 18035 H 1660.68 0.784101 3.64563 0
M  V30 18036 N 1662.86 -1.24221 0.969889 0
M  V30 18037 C 1663.77 -2.29001 0.509467 0
M  V30 18038 C 1664.79 -1.68587 -0.430637 0
M  V30 18039 O 1665.96 -1.99106 -0.303142 0
M  V30 18040 C 1663.03 -3.46174 -0.190906 0
M  V30 18041 C 1662.09 -4.21982 0.789296 0
M  V30 18042 C 1661.32 -5.3356 0.122252 0
M  V30 18043 O 1661.55 -5.59909 -1.08896 0
M  V30 18044 O 1660.48 -5.9635 0.815517 0
M  V30 18045 H 1664.31 -2.70506 1.38058 0
M  V30 18046 H 1661.89 -1.29955 0.737028 0
M  V30 18047 H 1663.77 -4.1733 -0.584244 0
M  V30 18048 H 1662.45 -3.06642 -1.03695 0
M  V30 18049 H 1661.36 -3.53192 1.23313 0
M  V30 18050 H 1662.69 -4.65337 1.60382 0
M  V30 18051 N 1664.34 -0.740267 -1.39132 0
M  V30 18052 C 1665.58 -0.295271 -2.02256 0
M  V30 18053 C 1665.94 1.09839 -1.57478 0
M  V30 18054 O 1667.15 1.64176 -2.12838 0
M  V30 18055 C 1665.42 -0.399327 -3.55162 0
M  V30 18056 S 1666.98 -0.0349493 -4.38786 0
M  V30 18057 H 1663.79 -0.115356 -0.70158 0
M  V30 18058 H 1666.4 -0.967946 -1.69856 0
M  V30 18059 H 1665.1 -1.41482 -3.85241 0
M  V30 18060 H 1664.63 0.290988 -3.92322 0
M  V30 18061 H 1666.65 1.17965 -4.81974 0
M  V30 18062 N 1665.82 1.49844 -0.488302 0
M  V30 18063 C 1667.04 2.07313 0.0600937 0
M  V30 18064 C 1667.47 1.3478 1.3121 0
M  V30 18065 O 1666.83 0.400634 1.76818 0
M  V30 18066 C 1666.87 3.59268 0.309658 0
M  V30 18067 O 1665.98 3.88381 1.38688 0
M  V30 18068 H 1665.32 0.663681 -0.0205947 0
M  V30 18069 H 1667.85 1.92818 -0.684284 0
M  V30 18070 H 1667.86 4.04344 0.545 0
M  V30 18071 H 1666.53 4.11474 -0.605146 0
M  V30 18072 H 1665.11 3.55128 1.13749 0
M  V30 18073 N 1667.3 0.221601 1.56034 0
M  V30 18074 C 1668.52 -0.414945 2.02696 0
M  V30 18075 C 1668.94 -1.53344 1.10141 0
M  V30 18076 O 1668.3 -1.82162 0.111026 0
M  V30 18077 C 1668.35 -0.946532 3.48888 0
M  V30 18078 O 1668.07 0.12737 4.37915 0
M  V30 18079 C 1669.57 -1.65631 4.11195 0
M  V30 18080 H 1666.79 -0.101548 0.663271 0
M  V30 18081 H 1669.33 0.338069 2.01686 0
M  V30 18082 H 1667.49 -1.64982 3.50514 0
M  V30 18083 H 1667.9 -0.272211 5.23793 0
M  V30 18084 H 1669.38 -1.98027 5.15257 0
M  V30 18085 H 1669.85 -2.56947 3.56195 0
M  V30 18086 H 1670.46 -0.998231 4.13419 0
M  V30 18087 N 1668.77 -1.57515 -0.0517878 0
M  V30 18088 C 1670.02 -1.88493 -0.748206 0
M  V30 18089 C 1670.35 -0.816494 -1.76202 0
M  V30 18090 O 1669.63 0.171075 -1.93746 0
M  V30 18091 C 1669.91 -3.30131 -1.43825 0
M  V30 18092 C 1669.76 -4.47648 -0.4395 0
M  V30 18093 C 1671.08 -3.70315 -2.37813 0
M  V30 18094 H 1668.2 -0.68555 -0.270537 0
M  V30 18095 H 1670.84 -1.89997 -0.0111457 0
M  V30 18096 H 1668.99 -3.2898 -2.06651 0
M  V30 18097 H 1670.67 -4.60929 0.185088 0
M  V30 18098 H 1668.91 -4.33117 0.243381 0
M  V30 18099 H 1669.58 -5.43582 -0.96035 0
M  V30 18100 H 1672.06 -3.72687 -1.8505 0
M  V30 18101 H 1670.93 -4.70269 -2.83087 0
M  V30 18102 H 1671.19 -3.0133 -3.23501 0
M  V30 18103 N 1670.25 0.323614 -1.54242 0
M  V30 18104 C 1671.53 1.07979 -1.63095 0
M  V30 18105 C 1671.91 2.0592 -0.464774 0
M  V30 18106 O 1671.26 2.22004 0.540961 0
M  V30 18107 C 1671.47 1.78178 -3.0009 0
M  V30 18108 C 1672.82 2.31201 -3.56134 0
M  V30 18109 O 1673.84 1.88245 -3.02394 0
M  V30 18110 O 1672.7 3.09843 -4.50177 0
M  V30 18111 H 1669.79 0.497726 -0.660453 0
M  V30 18112 H 1672.34 0.323509 -1.66588 0
M  V30 18113 H 1671.11 1.06938 -3.76404 0
M  V30 18114 H 1670.73 2.60616 -3.00275 0
M  V30 18115 N 1671.73 1.46313 0.585673 0
M  V30 18116 C 1672.68 1.57018 1.71604 0
M  V30 18117 C 1673.67 0.438838 1.63617 0
M  V30 18118 O 1674.88 0.615597 1.69146 0
M  V30 18119 H 1671.25 0.493616 0.567316 0
M  V30 18120 H 1673.23 2.52065 1.59706 0
M  V30 18121 C 1671.97 1.57482 3.09992 0
M  V30 18122 H 1671.3 2.43872 3.16806 0
M  V30 18123 H 1672.74 1.69027 3.88852 0
M  V30 18124 C 1671.2 0.302944 3.35535 0
M  V30 18125 O 1671.73 -0.608066 3.97071 0
M  V30 18126 N 1669.93 0.191781 2.89966 0
M  V30 18127 H 1669.48 0.934025 2.4007 0
M  V30 18128 H 1669.44 -0.658341 3.0743 0
M  V30 18129 N 1673.21 -0.830057 1.33969 0
M  V30 18130 C 1674.62 -1.40227 1.23261 0
M  V30 18131 C 1674.97 -1.95664 -0.144862 0
M  V30 18132 O 1674.1 -1.89503 -1.04488 0
M  V30 18133 C 1674.69 -2.54913 2.2317 0
M  V30 18134 C 1673.25 -3.08062 2.16274 0
M  V30 18135 C 1672.4 -1.809 2.10168 0
M  V30 18136 H 1675.35 -0.635062 1.4544 0
M  V30 18137 H 1675.37 -3.32801 1.84455 0
M  V30 18138 H 1674.88 -2.14534 3.23414 0
M  V30 18139 H 1672.98 -3.52964 1.19362 0
M  V30 18140 H 1673.1 -3.67637 3.07213 0
M  V30 18141 H 1671.46 -2.01508 1.55778 0
M  V30 18142 H 1672.24 -1.42705 3.12234 0
M  V30 18143 N 1674.69 -1.17582 -1.04939 0
M  V30 18144 C 1675.62 -0.918221 -2.14688 0
M  V30 18145 C 1676.6 0.140757 -1.69517 0
M  V30 18146 O 1677.78 -0.0100118 -1.94197 0
M  V30 18147 C 1674.91 -0.433531 -3.44584 0
M  V30 18148 C 1673.87 -1.43199 -4.03334 0
M  V30 18149 C 1673.19 -0.805154 -5.28603 0
M  V30 18150 C 1674.49 -2.80598 -4.40525 0
M  V30 18151 H 1676.19 -1.83604 -2.36495 0
M  V30 18152 H 1673.73 -0.884202 -1.13657 0
M  V30 18153 H 1675.69 -0.240722 -4.20712 0
M  V30 18154 H 1674.41 0.519832 -3.22437 0
M  V30 18155 H 1673.07 -1.61158 -3.29277 0
M  V30 18156 H 1672.72 0.155124 -5.02761 0
M  V30 18157 H 1672.42 -1.4717 -5.68871 0
M  V30 18158 H 1673.94 -0.622677 -6.07417 0
M  V30 18159 H 1675.36 -2.66341 -5.07676 0
M  V30 18160 H 1673.75 -3.43854 -4.91817 0
M  V30 18161 H 1674.82 -3.34815 -3.50752 0
M  V30 18162 N 1676.17 1.23705 -0.976463 0
M  V30 18163 C 1677.58 1.73848 -0.680723 0
M  V30 18164 C 1677.93 1.79005 0.803228 0
M  V30 18165 O 1677.05 1.42529 1.62832 0
M  V30 18166 C 1677.65 3.15724 -1.22898 0
M  V30 18167 C 1676.21 3.63338 -0.982963 0
M  V30 18168 C 1675.35 2.41712 -1.35906 0
M  V30 18169 H 1678.3 1.09284 -1.15077 0
M  V30 18170 H 1678.33 3.75748 -0.599487 0
M  V30 18171 H 1677.84 3.11938 -2.30903 0
M  V30 18172 H 1675.94 3.72512 0.0811766 0
M  V30 18173 H 1676.05 4.50347 -1.63477 0
M  V30 18174 H 1674.42 2.42543 -0.777498 0
M  V30 18175 H 1675.2 2.40601 -2.4488 0
M  V30 18176 N 1677.64 0.747635 1.38738 0
M  V30 18177 C 1678.89 0.300552 1.99853 0
M  V30 18178 C 1679.21 -1.11986 1.59638 0
M  V30 18179 O 1678.48 -1.76477 0.850447 0
M  V30 18180 H 1677.06 0.108134 0.739132 0
M  V30 18181 H 1679.72 0.960405 1.69594 0
M  V30 18182 H 1678.82 0.358956 3.10029 0
M  V30 18183 N 1679.12 -1.49583 0.496242 0
M  V30 18184 C 1680.03 -2.32808 -0.289404 0
M  V30 18185 C 1681.05 -1.44324 -0.971933 0
M  V30 18186 O 1682.22 -1.77352 -0.954366 0
M  V30 18187 C 1679.29 -3.19645 -1.34269 0
M  V30 18188 C 1678.35 -4.23975 -0.6741 0
M  V30 18189 C 1677.58 -5.06661 -1.6772 0
M  V30 18190 O 1677.81 -4.90792 -2.90654 0
M  V30 18191 O 1676.74 -5.89091 -1.23514 0
M  V30 18192 H 1680.57 -3.01164 0.391664 0
M  V30 18193 H 1678.15 -1.47162 0.257652 0
M  V30 18194 H 1680.03 -3.73453 -1.9522 0
M  V30 18195 H 1678.71 -2.53989 -2.00677 0
M  V30 18196 H 1677.61 -3.74092 -0.0249732 0
M  V30 18197 H 1678.95 -4.92172 -0.0525442 0
M  V30 18198 N 1680.6 -0.229873 -1.55915 0
M  V30 18199 C 1681.85 0.398775 -1.98127 0
M  V30 18200 C 1682.17 1.597 -1.11897 0
M  V30 18201 O 1681.44 1.94898 -0.197868 0
M  V30 18202 H 1680.02 0.150323 -0.731719 0
M  V30 18203 H 1682.68 -0.324704 -1.92176 0
M  V30 18204 H 1681.78 0.719475 -3.03694 0
M  V30 18205 N 1682.08 1.5754 0.0434337 0
M  V30 18206 C 1682.99 2.08996 1.06574 0
M  V30 18207 C 1684 1.02544 1.40573 0
M  V30 18208 O 1685.18 1.34192 1.50181 0
M  V30 18209 C 1682.24 2.54723 2.35196 0
M  V30 18210 C 1681.31 3.75595 2.0791 0
M  V30 18211 C 1680.54 4.19132 3.304 0
M  V30 18212 O 1680.76 3.62303 4.40559 0
M  V30 18213 O 1679.7 5.11694 3.16944 0
M  V30 18214 H 1683.52 2.96475 0.658503 0
M  V30 18215 H 1681.11 1.47129 0.259475 0
M  V30 18216 H 1682.99 2.84529 3.1084 0
M  V30 18217 H 1681.66 1.70361 2.75243 0
M  V30 18218 H 1680.57 3.5083 1.2988 0
M  V30 18219 H 1681.9 4.60897 1.72727 0
M  V30 18220 N 1683.56 -0.31543 1.54411 0
M  V30 18221 C 1684.47 -1.41136 1.87397 0
M  V30 18222 C 1685.48 -1.56199 0.76668 0
M  V30 18223 O 1686.66 -1.71139 1.06176 0
M  V30 18224 C 1683.72 -2.75731 2.10174 0
M  V30 18225 C 1682.78 -2.69776 3.33945 0
M  V30 18226 C 1682.02 -3.97952 3.55626 0
M  V30 18227 O 1682.24 -4.96614 2.80589 0
M  V30 18228 O 1681.17 -4.00719 4.49119 0
M  V30 18229 H 1685 -1.16167 2.80605 0
M  V30 18230 H 1682.58 -0.510193 1.40419 0
M  V30 18231 H 1684.47 -3.55392 2.26439 0
M  V30 18232 H 1683.14 -3.00574 1.20154 0
M  V30 18233 H 1682.05 -1.88638 3.23058 0
M  V30 18234 H 1683.38 -2.49887 4.24049 0
M  V30 18235 N 1685.03 -1.46622 -0.577906 0
M  V30 18236 C 1686 -1.57126 -1.66865 0
M  V30 18237 C 1687 -0.448004 -1.54433 0
M  V30 18238 O 1688.19 -0.712459 -1.58964 0
M  V30 18239 C 1685.32 -1.49612 -3.06315 0
M  V30 18240 H 1686.51 -2.54338 -1.58909 0
M  V30 18241 H 1684.07 -1.34504 -0.796142 0
M  V30 18242 H 1684.8 -0.536976 -3.19823 0
M  V30 18243 H 1684.59 -2.31113 -3.16748 0
M  V30 18244 H 1686.08 -1.60058 -3.85709 0
M  V30 18245 N 1686.51 0.822941 -1.34408 0
M  V30 18246 C 1687.42 1.96567 -1.28056 0
M  V30 18247 C 1688.44 1.72979 -0.188251 0
M  V30 18248 O 1689.61 1.97084 -0.41472 0
M  V30 18249 C 1686.68 3.30865 -1.03583 0
M  V30 18250 C 1685.74 3.67461 -2.2197 0
M  V30 18251 C 1684.97 4.9535 -1.98655 0
M  V30 18252 O 1685.2 5.62521 -0.944785 0
M  V30 18253 O 1684.13 5.29824 -2.85605 0
M  V30 18254 H 1687.96 2.0487 -2.24192 0
M  V30 18255 H 1685.54 0.958334 -1.14614 0
M  V30 18256 H 1687.42 4.11298 -0.917162 0
M  V30 18257 H 1686.1 3.2353 -0.104868 0
M  V30 18258 H 1685.01 2.87472 -2.39396 0
M  V30 18259 H 1686.34 3.79481 -3.13456 0
M  V30 18260 N 1687.99 1.18137 1.04314 0
M  V30 18261 C 1688.95 0.908268 2.10436 0
M  V30 18262 C 1689.95 -0.105315 1.60455 0
M  V30 18263 O 1691.14 0.12785 1.7373 0
M  V30 18264 C 1688.28 0.362233 3.3897 0
M  V30 18265 H 1689.47 1.84928 2.36096 0
M  V30 18266 H 1687.02 0.993048 1.20699 0
M  V30 18267 H 1687.76 -0.58551 3.18971 0
M  V30 18268 H 1687.54 1.09285 3.76562 0
M  V30 18269 H 1689.03 0.18977 4.17169 0
M  V30 18270 N 1689.47 -1.23186 0.98301 0
M  V30 18271 C 1690.38 -2.28448 0.533727 0
M  V30 18272 C 1691.39 -1.69034 -0.412732 0
M  V30 18273 O 1692.57 -1.99416 -0.282007 0
M  V30 18274 C 1689.64 -3.46357 -0.154179 0
M  V30 18275 C 1688.7 -4.21121 0.834009 0
M  V30 18276 C 1687.93 -5.334 0.178836 0
M  V30 18277 O 1688.15 -5.61032 -1.02952 0
M  V30 18278 O 1687.09 -5.95451 0.878722 0
M  V30 18279 H 1690.91 -2.69027 1.40919 0
M  V30 18280 H 1688.5 -1.29166 0.75077 0
M  V30 18281 H 1690.38 -4.17926 -0.539947 0
M  V30 18282 H 1689.05 -3.07724 -1.00437 0
M  V30 18283 H 1687.96 -3.51864 1.27053 0
M  V30 18284 H 1689.29 -4.6361 1.65309 0
M  V30 18285 N 1690.95 -0.754982 -1.38339 0
M  V30 18286 C 1692.36 -0.379276 -1.82807 0
M  V30 18287 C 1692.71 1.09228 -1.62984 0
M  V30 18288 O 1691.83 1.84445 -1.13177 0
M  V30 18289 C 1692.43 -0.681628 -3.31872 0
M  V30 18290 C 1690.99 -0.359183 -3.74682 0
M  V30 18291 C 1690.13 -0.93409 -2.61094 0
M  V30 18292 H 1693.09 -0.951019 -1.27048 0
M  V30 18293 H 1693.11 0.0396803 -3.80479 0
M  V30 18294 H 1692.62 -1.75271 -3.46268 0
M  V30 18295 H 1690.72 0.705257 -3.65865 0
M  V30 18296 H 1690.83 -0.85571 -4.71396 0
M  V30 18297 H 1689.2 -0.359379 -2.52152 0
M  V30 18298 H 1689.98 -2.01023 -2.78289 0
M  V30 18299 N 1692.42 1.49318 -0.504168 0
M  V30 18300 C 1693.36 2.25955 0.319279 0
M  V30 18301 C 1694.34 1.30675 0.967609 0
M  V30 18302 O 1695.52 1.5997 0.997086 0
M  V30 18303 C 1692.65 3.06096 1.44992 0
M  V30 18304 C 1691.69 4.16555 0.915644 0
M  V30 18305 S 1692.53 5.35141 -0.196097 0
M  V30 18306 C 1693.68 6.18837 0.937637 0
M  V30 18307 H 1693.91 2.9545 -0.33118 0
M  V30 18308 H 1691.45 1.51661 -0.289517 0
M  V30 18309 H 1693.41 3.52853 2.09774 0
M  V30 18310 H 1692.07 2.36065 2.07201 0
M  V30 18311 H 1691.26 4.72157 1.76306 0
M  V30 18312 H 1690.86 3.72406 0.344981 0
M  V30 18313 H 1693.15 6.51975 1.84216 0
M  V30 18314 H 1694.1 7.06852 0.420168 0
M  V30 18315 H 1694.5 5.51458 1.2064 0
M  V30 18316 N 1693.9 0.238138 1.5579 0
M  V30 18317 C 1694.85 -0.681413 2.22395 0
M  V30 18318 C 1695.84 -1.18691 1.20867 0
M  V30 18319 O 1697.05 -1.14482 1.38903 0
M  V30 18320 H 1693.43 -0.238207 0.713275 0
M  V30 18321 H 1695.4 -0.0964141 2.98244 0
M  V30 18322 C 1694.15 -1.87137 2.93045 0
M  V30 18323 H 1693.47 -1.49153 3.70936 0
M  V30 18324 H 1694.91 -2.4922 3.43024 0
M  V30 18325 C 1693.37 -2.73709 1.9643 0
M  V30 18326 O 1693.9 -3.72973 1.49178 0
M  V30 18327 N 1692.1 -2.40092 1.6372 0
M  V30 18328 H 1691.65 -1.59423 2.02341 0
M  V30 18329 H 1691.61 -2.98293 0.993414 0
M  V30 18330 N 1695.38 -1.57561 -0.0350783 0
M  V30 18331 C 1696.61 -1.93644 -0.742753 0
M  V30 18332 C 1697.03 -0.837655 -1.68419 0
M  V30 18333 O 1696.39 0.207069 -1.80114 0
M  V30 18334 C 1696.44 -3.28779 -1.48111 0
M  V30 18335 O 1695.54 -3.20604 -2.59398 0
M  V30 18336 H 1694.88 -0.633103 -0.200192 0
M  V30 18337 H 1697.41 -2.04599 0.00765271 0
M  V30 18338 H 1697.42 -3.63527 -1.85236 0
M  V30 18339 H 1696.1 -4.08316 -0.790608 0
M  V30 18340 H 1694.67 -2.97477 -2.2486 0
M  V30 18341 N 1696.86 0.307236 -1.54576 0
M  V30 18342 C 1698.14 1.06243 -1.64231 0
M  V30 18343 C 1698.52 2.05415 -0.486589 0
M  V30 18344 O 1697.86 2.22565 0.517384 0
M  V30 18345 C 1698.07 1.74985 -3.01962 0
M  V30 18346 C 1699.42 2.2741 -3.58566 0
M  V30 18347 O 1700.45 1.85027 -3.04374 0
M  V30 18348 O 1699.3 3.05051 -4.53438 0
M  V30 18349 H 1696.4 0.490693 -0.665695 0
M  V30 18350 H 1698.94 0.305822 -1.66922 0
M  V30 18351 H 1697.72 1.02939 -3.77517 0
M  V30 18352 H 1697.34 2.57417 -3.03022 0
M  V30 18353 N 1698.34 1.46926 0.570122 0
M  V30 18354 C 1699.25 1.6105 1.70587 0
M  V30 18355 C 1700.26 0.493636 1.66851 0
M  V30 18356 O 1701.44 0.759454 1.86532 0
M  V30 18357 C 1698.5 1.60913 3.07096 0
M  V30 18358 C 1697.56 2.83928 3.21999 0
M  V30 18359 C 1696.8 2.83788 4.51996 0
M  V30 18360 O 1697.02 1.93256 5.36664 0
M  V30 18361 O 1695.95 3.75491 4.70415 0
M  V30 18362 H 1699.78 2.57126 1.61616 0
M  V30 18363 H 1697.37 1.29863 0.738637 0
M  V30 18364 H 1699.25 1.63576 3.88356 0
M  V30 18365 H 1697.92 0.680005 3.16477 0
M  V30 18366 H 1696.83 2.86814 2.40185 0
M  V30 18367 H 1698.16 3.76091 3.17516 0
M  V30 18368 N 1699.82 -0.815801 1.34842 0
M  V30 18369 C 1701.23 -1.38911 1.24742 0
M  V30 18370 C 1701.58 -1.95807 -0.124101 0
M  V30 18371 O 1700.7 -1.906 -1.02472 0
M  V30 18372 C 1701.3 -2.52532 2.25861 0
M  V30 18373 C 1699.86 -3.05751 2.1953 0
M  V30 18374 C 1699 -1.78661 2.12075 0
M  V30 18375 H 1701.95 -0.619601 1.46105 0
M  V30 18376 H 1701.98 -3.30826 1.87974 0
M  V30 18377 H 1701.49 -2.11092 3.25671 0
M  V30 18378 H 1699.59 -3.51678 1.23099 0
M  V30 18379 H 1699.7 -3.64358 3.11095 0
M  V30 18380 H 1698.07 -1.99844 1.57907 0
M  V30 18381 H 1698.85 -1.39385 3.1373 0
M  V30 18382 N 1701.29 -1.18689 -1.03686 0
M  V30 18383 C 1702.2 -0.932473 -2.15272 0
M  V30 18384 C 1703.22 0.104751 -1.73684 0
M  V30 18385 O 1704.4 -0.0780471 -2.01249 0
M  V30 18386 C 1701.46 -0.465807 -3.43557 0
M  V30 18387 C 1700.52 -1.57146 -3.99504 0
M  V30 18388 C 1699.75 -1.12696 -5.21666 0
M  V30 18389 O 1699.98 0.0127657 -5.70399 0
M  V30 18390 O 1698.91 -1.92627 -5.70244 0
M  V30 18391 H 1702.74 -1.86626 -2.39592 0
M  V30 18392 H 1700.32 -0.969029 -1.13711 0
M  V30 18393 H 1702.2 -0.213819 -4.20857 0
M  V30 18394 H 1700.88 0.43964 -3.20701 0
M  V30 18395 H 1699.79 -1.8775 -3.23575 0
M  V30 18396 H 1701.12 -2.45317 -4.26709 0
M  V30 18397 N 1702.77 1.22662 -0.989529 0
M  V30 18398 C 1703.73 2.22695 -0.542183 0
M  V30 18399 C 1704.73 1.56411 0.373132 0
M  V30 18400 O 1705.92 1.73412 0.165556 0
M  V30 18401 C 1703.06 3.40241 0.211841 0
M  V30 18402 H 1704.25 2.63786 -1.42678 0
M  V30 18403 H 1701.8 1.35654 -0.776377 0
M  V30 18404 H 1702.54 3.04618 1.11257 0
M  V30 18405 H 1702.32 3.89563 -0.445319 0
M  V30 18406 H 1703.81 4.14436 0.513107 0
M  V30 18407 N 1704.25 0.762308 1.37937 0
M  V30 18408 C 1705.49 0.327411 2.01761 0
M  V30 18409 C 1705.85 -1.07319 1.59206 0
M  V30 18410 O 1707.05 -1.60769 2.15423 0
M  V30 18411 C 1705.33 0.455779 3.54482 0
M  V30 18412 S 1706.88 0.104752 4.38675 0
M  V30 18413 H 1703.7 0.126503 0.699656 0
M  V30 18414 H 1706.3 0.994846 1.68295 0
M  V30 18415 H 1705.01 1.47593 3.82942 0
M  V30 18416 H 1704.54 -0.228536 3.92736 0
M  V30 18417 H 1706.55 -1.10282 4.83789 0
M  V30 18418 N 1705.73 -1.49049 0.51208 0
M  V30 18419 C 1706.97 -2.0248 -0.0284889 0
M  V30 18420 C 1707.3 -1.39082 -1.35965 0
M  V30 18421 O 1706.56 -0.519593 -1.88676 0
M  V30 18422 C 1706.86 -3.56734 -0.218125 0
M  V30 18423 C 1706.52 -4.38827 1.03643 0
M  V30 18424 C 1705.18 -4.60979 1.38029 0
M  V30 18425 C 1707.54 -4.86505 1.86982 0
M  V30 18426 C 1704.86 -5.28055 2.55686 0
M  V30 18427 C 1707.22 -5.54876 3.03801 0
M  V30 18428 C 1705.88 -5.75271 3.38555 0
M  V30 18429 H 1705.15 -0.740927 -0.0104248 0
M  V30 18430 H 1707.8 -1.79229 0.674481 0
M  V30 18431 H 1706.1 -3.78725 -1.00372 0
M  V30 18432 H 1707.8 -3.9568 -0.651013 0
M  V30 18433 H 1704.39 -4.21833 0.758594 0
M  V30 18434 H 1708.57 -4.69209 1.61729 0
M  V30 18435 H 1703.83 -5.42046 2.82837 0
M  V30 18436 H 1708 -5.90793 3.68696 0
M  V30 18437 H 1705.63 -6.2702 4.29825 0
M  V30 18438 N 1707.21 -0.246397 -1.55662 0
M  V30 18439 C 1708.43 0.382645 -2.03331 0
M  V30 18440 C 1708.85 1.51573 -1.12566 0
M  V30 18441 O 1708.21 1.81962 -0.139992 0
M  V30 18442 C 1708.26 0.890907 -3.5035 0
M  V30 18443 O 1707.98 -0.197023 -4.37657 0
M  V30 18444 C 1709.48 1.59069 -4.13778 0
M  V30 18445 H 1706.7 0.0909834 -0.664803 0
M  V30 18446 H 1709.24 -0.370113 -2.01123 0
M  V30 18447 H 1707.4 1.59385 -3.53094 0
M  V30 18448 H 1707.81 0.188846 -5.2416 0
M  V30 18449 H 1709.29 1.89805 -5.18342 0
M  V30 18450 H 1709.76 2.51248 -3.60238 0
M  V30 18451 H 1710.37 0.932333 -4.14955 0
M  V30 18452 N 1708.68 1.57577 0.026722 0
M  V30 18453 C 1709.96 1.80541 0.752606 0
M  V30 18454 C 1710.34 0.845025 1.93449 0
M  V30 18455 O 1709.69 -0.112286 2.28224 0
M  V30 18456 C 1709.9 3.28322 1.18345 0
M  V30 18457 C 1711.25 3.93366 1.59839 0
M  V30 18458 O 1712.27 3.32486 1.27796 0
M  V30 18459 O 1711.13 5.0056 2.19321 0
M  V30 18460 H 1708.22 0.742514 0.364146 0
M  V30 18461 H 1710.77 1.697 0.00332 0
M  V30 18462 H 1709.54 3.89822 0.339832 0
M  V30 18463 H 1709.16 3.44061 1.99267 0
M  V30 18464 N 1710.16 -0.299034 1.54737 0
M  V30 18465 C 1711.41 -1.03195 1.73767 0
M  V30 18466 C 1711.73 -1.87731 0.527445 0
M  V30 18467 O 1711 -1.90465 -0.458242 0
M  V30 18468 H 1709.58 -0.383996 0.640747 0
M  V30 18469 H 1712.24 -0.329544 1.92094 0
M  V30 18470 H 1711.34 -1.68393 2.62774 0
M  V30 18471 N 1711.64 -1.47227 -0.562322 0
M  V30 18472 C 1712.88 -1.55163 -1.33056 0
M  V30 18473 C 1713.24 -0.206867 -1.90882 0
M  V30 18474 O 1714.44 -0.161056 -2.68317 0
M  V30 18475 C 1712.72 -2.63484 -2.41477 0
M  V30 18476 S 1714.27 -2.90968 -3.28455 0
M  V30 18477 H 1711.09 -0.547974 -0.45304 0
M  V30 18478 H 1713.69 -1.84578 -0.644301 0
M  V30 18479 H 1712.4 -3.59797 -1.9742 0
M  V30 18480 H 1711.93 -2.35867 -3.14849 0
M  V30 18481 H 1713.94 -2.27793 -4.40823 0
M  V30 18482 N 1713.12 0.808639 -1.35273 0
M  V30 18483 C 1714.36 1.56794 -1.28621 0
M  V30 18484 C 1714.7 1.93697 0.139686 0
M  V30 18485 O 1713.97 1.61185 1.08856 0
M  V30 18486 C 1714.25 2.85794 -2.19075 0
M  V30 18487 C 1714.11 2.5538 -3.70271 0
M  V30 18488 C 1715.43 3.87481 -2.08678 0
M  V30 18489 H 1712.55 0.568873 -0.468564 0
M  V30 18490 H 1715.19 0.930499 -1.65655 0
M  V30 18491 H 1713.34 3.40191 -1.87622 0
M  V30 18492 H 1715.01 2.07182 -4.12157 0
M  V30 18493 H 1713.25 1.88605 -3.90654 0
M  V30 18494 H 1713.92 3.47432 -4.28947 0
M  V30 18495 H 1716.4 3.42478 -2.36323 0
M  V30 18496 H 1715.28 4.75523 -2.7417 0
M  V30 18497 H 1715.54 4.29004 -1.06809 0
M  V30 18498 N 1714.6 1.19237 1.03055 0
M  V30 18499 C 1715.84 1.00547 1.7681 0
M  V30 18500 C 1716.2 -0.459087 1.86843 0
M  V30 18501 O 1715.49 -1.33645 1.37293 0
M  V30 18502 C 1715.68 1.60607 3.19281 0
M  V30 18503 C 1715.51 3.1275 3.23137 0
M  V30 18504 C 1714.28 3.81638 3.31181 0
M  V30 18505 C 1716.48 4.10131 3.10318 0
M  V30 18506 N 1714.46 5.21193 3.24393 0
M  V30 18507 C 1715.83 5.36274 3.11144 0
M  V30 18508 C 1717.89 4.01514 2.94433 0
M  V30 18509 C 1716.59 6.54796 2.97716 0
M  V30 18510 C 1718.62 5.19644 2.82354 0
M  V30 18511 C 1717.98 6.44684 2.83834 0
M  V30 18512 H 1714.08 0.422035 0.658339 0
M  V30 18513 H 1716.66 1.51181 1.22688 0
M  V30 18514 H 1714.83 1.12576 3.71727 0
M  V30 18515 H 1716.57 1.35369 3.81389 0
M  V30 18516 H 1713.32 3.32421 3.37332 0
M  V30 18517 H 1713.75 5.94211 3.24411 0
M  V30 18518 H 1718.39 3.05664 2.92112 0
M  V30 18519 H 1716.11 7.50834 2.98788 0
M  V30 18520 H 1719.69 5.14777 2.71102 0
M  V30 18521 H 1718.57 7.34555 2.74588 0
M  V30 18522 N 1716.07 -1.22136 0.99602 0
M  V30 18523 C 1717.49 -1.43072 0.707285 0
M  V30 18524 C 1717.69 -1.88163 -0.720906 0
M  V30 18525 O 1716.75 -2.03747 -1.49142 0
M  V30 18526 C 1718.06 -2.46963 1.71551 0
M  V30 18527 C 1719.61 -2.60758 1.73131 0
M  V30 18528 C 1720.08 -3.67873 2.72825 0
M  V30 18529 N 1721.57 -3.75334 2.71438 0
M  V30 18530 C 1722.31 -4.57817 3.45241 0
M  V30 18531 N 1721.8 -5.44268 4.28654 0
M  V30 18532 N 1723.6 -4.52157 3.33932 0
M  V30 18533 H 1715.75 -0.911751 1.91836 0
M  V30 18534 H 1718.01 -0.462523 0.827512 0
M  V30 18535 H 1717.72 -2.20784 2.73765 0
M  V30 18536 H 1717.59 -3.45618 1.51089 0
M  V30 18537 H 1719.98 -2.86279 0.716132 0
M  V30 18538 H 1720.06 -1.62367 1.97663 0
M  V30 18539 H 1719.7 -3.43098 3.74494 0
M  V30 18540 H 1719.63 -4.6584 2.45562 0
M  V30 18541 H 1722.12 -3.13566 2.10915 0
M  V30 18542 H 1722.44 -6.04236 4.81786 0
M  V30 18543 H 1720.78 -5.43839 4.3274 0
M  V30 18544 H 1723.97 -3.83645 2.68206 0
M  V30 18545 H 1724.15 -5.16207 3.91707 0
M  V30 18546 N 1717.55 -0.769612 -1.37531 0
M  V30 18547 C 1718.8 -0.332966 -1.99744 0
M  V30 18548 C 1719.13 1.0899 -1.61094 0
M  V30 18549 O 1718.38 1.7639 -0.847656 0
M  V30 18550 C 1718.68 -0.421385 -3.54907 0
M  V30 18551 C 1718.35 -1.8022 -4.13318 0
M  V30 18552 C 1717.01 -2.18005 -4.28984 0
M  V30 18553 C 1719.36 -2.70724 -4.45374 0
M  V30 18554 C 1716.69 -3.45736 -4.74008 0
M  V30 18555 C 1719.04 -3.97862 -4.91822 0
M  V30 18556 C 1717.71 -4.35695 -5.05694 0
M  V30 18557 H 1716.98 -0.121841 -0.730914 0
M  V30 18558 H 1719.62 -0.98322 -1.64332 0
M  V30 18559 H 1717.93 0.312411 -3.90552 0
M  V30 18560 H 1719.62 -0.0648705 -4.00948 0
M  V30 18561 H 1716.21 -1.49852 -4.0155 0
M  V30 18562 H 1720.4 -2.42792 -4.32857 0
M  V30 18563 H 1715.65 -3.74946 -4.82935 0
M  V30 18564 H 1719.83 -4.68121 -5.15593 0
M  V30 18565 H 1717.46 -5.34729 -5.40341 0
M  V30 18566 N 1719.03 1.48775 -0.519977 0
M  V30 18567 C 1720.26 2.07394 0.0161061 0
M  V30 18568 C 1720.68 1.37532 1.28322 0
M  V30 18569 O 1720.04 0.438049 1.75928 0
M  V30 18570 C 1720.09 3.59844 0.233382 0
M  V30 18571 O 1719.19 3.91235 1.30418 0
M  V30 18572 H 1718.53 0.663094 -0.0346678 0
M  V30 18573 H 1721.06 1.91323 -0.725029 0
M  V30 18574 H 1721.07 4.05409 0.45911 0
M  V30 18575 H 1719.75 4.10098 -0.69229 0
M  V30 18576 H 1718.32 3.5746 1.0619 0
M  V30 18577 N 1720.51 0.254649 1.55529 0
M  V30 18578 C 1721.75 -0.369374 2.01035 0
M  V30 18579 C 1722.11 -1.54564 1.13904 0
M  V30 18580 O 1723.31 -2.23792 1.48899 0
M  V30 18581 C 1721.58 -0.761489 3.49194 0
M  V30 18582 S 1723.14 -1.37494 4.16702 0
M  V30 18583 H 1719.96 -0.115878 0.701494 0
M  V30 18584 H 1722.56 0.371696 1.91934 0
M  V30 18585 H 1721.27 0.103781 4.10269 0
M  V30 18586 H 1720.8 -1.53454 3.62237 0
M  V30 18587 H 1722.81 -2.66389 4.1863 0
M  V30 18588 N 1721.99 -1.57589 -0.0183649 0
M  V30 18589 C 1723.23 -1.91608 -0.711726 0
M  V30 18590 C 1723.59 -0.854347 -1.71945 0
M  V30 18591 O 1724.79 -1.07921 -2.46184 0
M  V30 18592 C 1723.06 -3.30745 -1.35434 0
M  V30 18593 S 1724.62 -3.86618 -2.07537 0
M  V30 18594 H 1721.44 -0.670853 -0.235536 0
M  V30 18595 H 1724.04 -1.95471 0.0339114 0
M  V30 18596 H 1722.75 -4.05874 -0.607828 0
M  V30 18597 H 1722.28 -3.30212 -2.1383 0
M  V30 18598 H 1724.29 -3.66209 -3.34821 0
M  V30 18599 N 1723.46 0.290824 -1.54893 0
M  V30 18600 C 1724.4 1.38087 -1.82933 0
M  V30 18601 C 1725.41 1.46365 -0.712811 0
M  V30 18602 O 1726.6 1.48501 -0.990432 0
M  V30 18603 C 1723.7 2.76374 -1.9614 0
M  V30 18604 C 1722.87 2.90905 -3.26639 0
M  V30 18605 C 1721.93 4.09754 -3.30134 0
M  V30 18606 O 1720.96 4.01356 -4.03611 0
M  V30 18607 N 1722.16 5.20878 -2.56254 0
M  V30 18608 H 1724.92 1.14385 -2.77013 0
M  V30 18609 H 1722.48 0.480916 -1.54592 0
M  V30 18610 H 1724.48 3.54144 -1.95868 0
M  V30 18611 H 1723.05 2.92978 -1.09008 0
M  V30 18612 H 1722.27 2.00164 -3.396 0
M  V30 18613 H 1723.55 2.97531 -4.12738 0
M  V30 18614 H 1722.95 5.30584 -1.96207 0
M  V30 18615 H 1721.51 5.96945 -2.61725 0
M  V30 18616 N 1724.94 1.47523 0.554506 0
M  V30 18617 C 1726.19 1.54515 1.3135 0
M  V30 18618 C 1726.52 0.207892 1.93084 0
M  V30 18619 O 1725.8 -0.783749 1.7801 0
M  V30 18620 C 1726.08 2.66519 2.42156 0
M  V30 18621 C 1725.93 4.0987 1.85274 0
M  V30 18622 C 1727.25 2.74418 3.44068 0
M  V30 18623 H 1724.37 0.562481 0.476219 0
M  V30 18624 H 1727.01 1.79591 0.620246 0
M  V30 18625 H 1725.16 2.45268 3.0129 0
M  V30 18626 H 1726.83 4.42492 1.3038 0
M  V30 18627 H 1725.08 4.18021 1.15934 0
M  V30 18628 H 1725.75 4.84017 2.65389 0
M  V30 18629 H 1728.22 2.93596 2.94857 0
M  V30 18630 H 1727.1 3.54557 4.19023 0
M  V30 18631 H 1727.36 1.81584 4.03088 0
M  V30 18632 N 1726.42 -0.801453 1.357 0
M  V30 18633 C 1727.37 -1.93495 1.29083 0
M  V30 18634 C 1728.36 -1.68389 0.184806 0
M  V30 18635 O 1729.57 -1.76543 0.351097 0
M  V30 18636 H 1725.94 -0.635809 0.40156 0
M  V30 18637 H 1727.91 -1.96195 2.24833 0
M  V30 18638 C 1726.66 -3.30342 1.08487 0
M  V30 18639 H 1725.99 -3.50221 1.92835 0
M  V30 18640 H 1727.43 -4.10041 1.079 0
M  V30 18641 C 1725.89 -3.36238 -0.211057 0
M  V30 18642 O 1726.42 -3.83198 -1.20508 0
M  V30 18643 N 1724.62 -2.89509 -0.251599 0
M  V30 18644 H 1724.17 -2.51486 0.557916 0
M  V30 18645 H 1724.13 -2.93836 -1.11839 0
M  V30 18646 N 1727.9 -1.19782 -1.02421 0
M  V30 18647 C 1729.15 -0.997598 -1.75302 0
M  V30 18648 C 1729.46 0.471843 -1.89824 0
M  V30 18649 O 1730.67 0.790999 -2.59722 0
M  V30 18650 C 1729.12 -1.73608 -3.15259 0
M  V30 18651 C 1728.73 -3.24594 -3.08776 0
M  V30 18652 C 1730.47 -1.61927 -3.92403 0
M  V30 18653 C 1728.38 -3.91012 -4.43693 0
M  V30 18654 H 1727.31 -0.369643 -0.657176 0
M  V30 18655 H 1729.96 -1.43325 -1.14587 0
M  V30 18656 H 1728.34 -1.22826 -3.7647 0
M  V30 18657 H 1729.52 -3.82531 -2.56918 0
M  V30 18658 H 1727.83 -3.36603 -2.45127 0
M  V30 18659 H 1730.43 -2.08896 -4.92206 0
M  V30 18660 H 1730.77 -0.574192 -4.12321 0
M  V30 18661 H 1731.31 -2.10081 -3.37803 0
M  V30 18662 H 1728.05 -4.95639 -4.28979 0
M  V30 18663 H 1727.57 -3.37864 -4.95588 0
M  V30 18664 H 1729.24 -3.94828 -5.12562 0
M  V30 18665 N 1729.38 1.21606 -1.00248 0
M  V30 18666 C 1730.29 2.2757 -0.570004 0
M  V30 18667 C 1731.3 1.69669 0.385788 0
M  V30 18668 O 1732.48 1.99839 0.250246 0
M  V30 18669 C 1729.54 3.46558 0.0990566 0
M  V30 18670 C 1728.61 4.19741 -0.9009 0
M  V30 18671 C 1727.84 5.33048 -0.263673 0
M  V30 18672 O 1728.06 5.62599 0.940131 0
M  V30 18673 O 1727 5.93978 -0.973342 0
M  V30 18674 H 1730.82 2.66751 -1.45182 0
M  V30 18675 H 1728.41 1.27955 -0.771224 0
M  V30 18676 H 1730.29 4.18733 0.47339 0
M  V30 18677 H 1728.96 3.09283 0.955285 0
M  V30 18678 H 1727.87 3.49798 -1.32634 0
M  V30 18679 H 1729.2 4.60921 -1.72664 0
M  V30 18680 N 1730.86 0.776895 1.37121 0
M  V30 18681 C 1732.08 0.353911 2.04358 0
M  V30 18682 C 1732.51 -1.01745 1.58207 0
M  V30 18683 O 1731.86 -1.653 0.744691 0
M  V30 18684 C 1731.91 0.411918 3.5824 0
M  V30 18685 O 1731.02 -0.58576 4.08219 0
M  V30 18686 H 1730.36 0.152335 0.64629 0
M  V30 18687 H 1732.89 1.05452 1.75331 0
M  V30 18688 H 1732.9 0.271043 4.07099 0
M  V30 18689 H 1731.57 1.41236 3.91185 0
M  V30 18690 H 1730.15 -0.40758 3.70666 0
M  V30 18691 N 1732.33 -1.48497 0.527859 0
M  V30 18692 C 1733.58 -2.02099 -0.00699772 0
M  V30 18693 C 1733.9 -1.40742 -1.34969 0
M  V30 18694 O 1733.17 -0.572059 -1.87361 0
M  V30 18695 H 1731.75 -0.746979 -0.00557445 0
M  V30 18696 H 1734.41 -1.82231 0.691209 0
M  V30 18697 H 1733.51 -3.11881 -0.116893 0
M  V30 18698 N 1733.81 -0.262893 -1.55392 0
M  V30 18699 C 1734.76 0.629853 -2.22039 0
M  V30 18700 C 1735.73 1.15915 -1.18966 0
M  V30 18701 O 1736.91 1.21069 -1.47468 0
M  V30 18702 C 1734.05 1.8138 -2.9359 0
M  V30 18703 C 1733.17 1.31952 -4.11355 0
M  V30 18704 C 1732.3 2.4643 -4.7058 0
M  V30 18705 C 1731.34 1.93944 -5.80562 0
M  V30 18706 N 1730.48 3.01848 -6.33902 0
M  V30 18707 H 1735.32 0.0548473 -2.9795 0
M  V30 18708 H 1732.85 0.0153072 -1.47092 0
M  V30 18709 H 1734.81 2.50955 -3.33283 0
M  V30 18710 H 1733.44 2.36103 -2.20125 0
M  V30 18711 H 1732.49 0.517281 -3.76866 0
M  V30 18712 H 1733.81 0.894993 -4.90705 0
M  V30 18713 H 1732.96 3.2402 -5.12929 0
M  V30 18714 H 1731.7 2.92193 -3.9048 0
M  V30 18715 H 1730.7 1.1483 -5.37675 0
M  V30 18716 H 1731.93 1.49132 -6.62523 0
M  V30 18717 H 1729.88 3.47015 -5.56701 0
M  V30 18718 H 1729.79 2.63775 -7.08491 0
M  V30 18719 H 1731.06 3.79449 -6.8091 0
M  V30 18720 N 1735.29 1.57597 0.0100073 0
M  V30 18721 C 1736.54 1.89754 0.695559 0
M  V30 18722 C 1736.86 0.862983 1.74865 0
M  V30 18723 O 1736.13 -0.100949 1.9564 0
M  V30 18724 H 1734.71 0.700331 0.259895 0
M  V30 18725 H 1737.37 1.94879 -0.0285521 0
M  V30 18726 H 1736.47 2.89213 1.17313 0
M  V30 18727 N 1736.77 -0.282606 1.55045 0
M  V30 18728 C 1737.71 -1.34908 1.87266 0
M  V30 18729 C 1738.68 -1.49528 0.72323 0
M  V30 18730 O 1739.87 -1.6409 0.973602 0
M  V30 18731 C 1737.01 -2.70603 2.14168 0
M  V30 18732 C 1736.12 -2.64284 3.41728 0
M  V30 18733 C 1735.26 -3.92094 3.58379 0
M  V30 18734 C 1734.3 -3.80246 4.79666 0
M  V30 18735 N 1733.43 -4.99871 4.93025 0
M  V30 18736 H 1738.27 -1.06731 2.78231 0
M  V30 18737 H 1735.81 -0.515845 1.37759 0
M  V30 18738 H 1737.77 -3.49542 2.27763 0
M  V30 18739 H 1736.4 -2.97003 1.26448 0
M  V30 18740 H 1735.45 -1.77108 3.36656 0
M  V30 18741 H 1736.76 -2.51425 4.30798 0
M  V30 18742 H 1735.92 -4.79473 3.7174 0
M  V30 18743 H 1734.66 -4.07808 2.67476 0
M  V30 18744 H 1733.66 -2.91251 4.66319 0
M  V30 18745 H 1734.89 -3.6606 5.71994 0
M  V30 18746 H 1732.83 -5.16014 4.0505 0
M  V30 18747 H 1732.75 -4.89507 5.76124 0
M  V30 18748 H 1734.02 -5.88849 5.10761 0
M  V30 18749 N 1738.25 -1.47815 -0.546675 0
M  V30 18750 C 1739.49 -1.54238 -1.29975 0
M  V30 18751 C 1739.81 -0.213869 -1.94427 0
M  V30 18752 O 1741.01 -0.156187 -2.7105 0
M  V30 18753 C 1739.47 -2.71938 -2.35749 0
M  V30 18754 C 1739.08 -4.11362 -1.77441 0
M  V30 18755 C 1740.82 -2.87661 -3.12172 0
M  V30 18756 C 1738.73 -5.20347 -2.81057 0
M  V30 18757 H 1737.66 -0.574139 -0.488754 0
M  V30 18758 H 1740.31 -1.74113 -0.579384 0
M  V30 18759 H 1738.69 -2.45463 -3.10747 0
M  V30 18760 H 1739.87 -4.47785 -1.08744 0
M  V30 18761 H 1738.18 -4.00614 -1.13568 0
M  V30 18762 H 1740.78 -3.66252 -3.89568 0
M  V30 18763 H 1741.12 -1.96494 -3.67009 0
M  V30 18764 H 1741.65 -3.13957 -2.44286 0
M  V30 18765 H 1738.39 -6.13426 -2.31061 0
M  V30 18766 H 1737.91 -4.8843 -3.48132 0
M  V30 18767 H 1739.59 -5.47748 -3.44355 0
M  V30 18768 N 1739.72 0.794246 -1.36123 0
M  V30 18769 C 1740.97 1.55357 -1.31285 0
M  V30 18770 C 1741.32 1.92094 0.108426 0
M  V30 18771 O 1740.62 1.59486 1.06182 0
M  V30 18772 C 1740.81 2.84387 -2.16469 0
M  V30 18773 C 1740.64 2.60259 -3.66736 0
M  V30 18774 C 1739.41 2.55525 -4.3593 0
M  V30 18775 C 1741.61 2.29787 -4.60111 0
M  V30 18776 N 1739.59 2.23243 -5.7187 0
M  V30 18777 C 1740.96 2.07452 -5.84263 0
M  V30 18778 C 1743.02 2.15753 -4.48726 0
M  V30 18779 C 1741.72 1.72503 -6.98309 0
M  V30 18780 C 1743.75 1.82202 -5.62633 0
M  V30 18781 C 1743.11 1.60711 -6.85822 0
M  V30 18782 H 1739.21 0.569714 -0.535677 0
M  V30 18783 H 1741.79 0.928621 -1.71128 0
M  V30 18784 H 1739.96 3.44757 -1.78878 0
M  V30 18785 H 1741.69 3.50072 -2.03056 0
M  V30 18786 H 1738.45 2.70603 -3.88678 0
M  V30 18787 H 1738.87 2.09862 -6.43651 0
M  V30 18788 H 1743.51 2.31061 -3.54077 0
M  V30 18789 H 1741.23 1.55933 -7.92913 0
M  V30 18790 H 1744.82 1.72034 -5.55784 0
M  V30 18791 H 1743.7 1.35131 -7.7247 0
M  V30 18792 N 1741.2 1.20323 1.01785 0
M  V30 18793 C 1742.45 1.02417 1.75734 0
M  V30 18794 C 1742.8 -0.439244 1.87319 0
M  V30 18795 O 1742.1 -1.32182 1.38703 0
M  V30 18796 C 1742.29 1.63984 3.1756 0
M  V30 18797 C 1742.12 3.1616 3.19802 0
M  V30 18798 C 1740.89 3.85129 3.27114 0
M  V30 18799 C 1743.09 4.13399 3.0595 0
M  V30 18800 N 1741.07 5.24604 3.18847 0
M  V30 18801 C 1742.44 5.39543 3.05439 0
M  V30 18802 C 1744.49 4.04615 2.90158 0
M  V30 18803 C 1743.2 6.57917 2.90755 0
M  V30 18804 C 1745.22 5.2261 2.76827 0
M  V30 18805 C 1744.59 6.47658 2.7698 0
M  V30 18806 H 1740.68 0.428994 0.653826 0
M  V30 18807 H 1743.27 1.52474 1.21078 0
M  V30 18808 H 1741.44 1.16512 3.70512 0
M  V30 18809 H 1743.17 1.39406 3.79932 0
M  V30 18810 H 1739.93 3.3598 3.33788 0
M  V30 18811 H 1740.35 5.97618 3.18091 0
M  V30 18812 H 1744.99 3.08745 2.88853 0
M  V30 18813 H 1742.71 7.5396 2.90808 0
M  V30 18814 H 1746.3 5.17623 2.65626 0
M  V30 18815 H 1745.18 7.37426 2.66781 0
M  V30 18816 N 1742.68 -1.21073 1.00892 0
M  V30 18817 C 1743.63 -2.25613 0.565829 0
M  V30 18818 C 1744.62 -1.64812 -0.391588 0
M  V30 18819 O 1745.83 -1.78078 -0.262352 0
M  V30 18820 H 1742.2 -0.733755 0.164643 0
M  V30 18821 H 1744.17 -2.60321 1.45862 0
M  V30 18822 C 1742.92 -3.47589 -0.087861 0
M  V30 18823 H 1742.25 -3.94647 0.639828 0
M  V30 18824 H 1743.69 -4.22459 -0.361115 0
M  V30 18825 C 1742.14 -3.09609 -1.32829 0
M  V30 18826 O 1742.67 -3.20449 -2.4223 0
M  V30 18827 N 1740.88 -2.64234 -1.2095 0
M  V30 18828 H 1740.43 -2.55613 -0.319301 0
M  V30 18829 H 1740.39 -2.39191 -2.04046 0
M  V30 18830 N 1744.16 -0.784156 -1.36707 0
M  V30 18831 C 1745.41 -0.350748 -1.98627 0
M  V30 18832 C 1745.72 1.08208 -1.62943 0
M  V30 18833 O 1746.93 1.6175 -2.18058 0
M  V30 18834 C 1745.38 -0.576173 -3.55258 0
M  V30 18835 C 1744.99 -2.02008 -3.99871 0
M  V30 18836 C 1746.73 -0.207008 -4.23995 0
M  V30 18837 C 1744.64 -2.19244 -5.4926 0
M  V30 18838 H 1743.57 -0.127403 -0.743158 0
M  V30 18839 H 1746.22 -0.965044 -1.56074 0
M  V30 18840 H 1744.6 0.10776 -3.95853 0
M  V30 18841 H 1745.78 -2.73998 -3.70489 0
M  V30 18842 H 1744.09 -2.34699 -3.43955 0
M  V30 18843 H 1746.69 -0.314139 -5.33776 0
M  V30 18844 H 1747.03 0.844253 -4.07649 0
M  V30 18845 H 1747.57 -0.843971 -3.88744 0
M  V30 18846 H 1744.31 -3.22734 -5.70546 0
M  V30 18847 H 1743.83 -1.51752 -5.80286 0
M  V30 18848 H 1745.5 -1.99703 -6.15408 0
M  V30 18849 N 1745.64 1.48215 -0.535727 0
M  V30 18850 C 1747.05 1.58417 -0.193977 0
M  V30 18851 C 1747.25 1.53705 1.30296 0
M  V30 18852 O 1746.31 1.42913 2.08164 0
M  V30 18853 C 1747.62 2.89819 -0.8016 0
M  V30 18854 C 1749.17 3.03359 -0.770858 0
M  V30 18855 C 1749.64 4.3743 -1.35716 0
M  V30 18856 N 1751.14 4.44012 -1.31938 0
M  V30 18857 C 1751.87 5.4627 -1.74287 0
M  V30 18858 N 1751.37 6.55454 -2.24393 0
M  V30 18859 N 1753.16 5.37187 -1.65489 0
M  V30 18860 H 1745.31 1.49521 -1.50855 0
M  V30 18861 H 1747.57 0.710306 -0.627829 0
M  V30 18862 H 1747.28 2.98939 -1.85278 0
M  V30 18863 H 1747.15 3.76144 -0.282036 0
M  V30 18864 H 1749.54 2.93848 0.271577 0
M  V30 18865 H 1749.62 2.1863 -1.32795 0
M  V30 18866 H 1749.27 4.47696 -2.39855 0
M  V30 18867 H 1749.2 5.20856 -0.775696 0
M  V30 18868 H 1751.69 3.65695 -0.952653 0
M  V30 18869 H 1752 7.29626 -2.54686 0
M  V30 18870 H 1750.34 6.56402 -2.2839 0
M  V30 18871 H 1753.54 4.50785 -1.26138 0
M  V30 18872 H 1753.71 6.16747 -1.98814 0
M  V30 18873 N 1747.11 0.27113 1.5525 0
M  V30 18874 C 1748.06 -0.618069 2.2237 0
M  V30 18875 C 1749.03 -1.15282 1.19579 0
M  V30 18876 O 1750.22 -1.20285 1.48108 0
M  V30 18877 C 1747.36 -1.79821 2.94548 0
M  V30 18878 C 1746.47 -1.29769 4.12049 0
M  V30 18879 C 1745.6 -2.43931 4.7188 0
M  V30 18880 C 1744.64 -1.90862 5.81582 0
M  V30 18881 N 1743.78 -2.98482 6.35494 0
M  V30 18882 H 1748.62 -0.0390456 2.97974 0
M  V30 18883 H 1746.16 -0.00750636 1.47098 0
M  V30 18884 H 1748.12 -2.49184 3.34609 0
M  V30 18885 H 1746.75 -2.34933 2.21374 0
M  V30 18886 H 1745.8 -0.497288 3.77136 0
M  V30 18887 H 1747.11 -0.868957 4.91173 0
M  V30 18888 H 1746.26 -3.21295 5.1464 0
M  V30 18889 H 1745 -2.90118 3.92024 0
M  V30 18890 H 1744.01 -1.11977 5.38276 0
M  V30 18891 H 1745.23 -1.45616 6.63304 0
M  V30 18892 H 1743.18 -3.44058 5.58534 0
M  V30 18893 H 1743.1 -2.60014 7.09879 0
M  V30 18894 H 1744.36 -3.75833 6.82913 0
M  V30 18895 N 1748.59 -1.576 -0.00164943 0
M  V30 18896 C 1749.82 -1.94775 -0.697872 0
M  V30 18897 C 1750.24 -0.873094 -1.67399 0
M  V30 18898 O 1749.59 0.148119 -1.81898 0
M  V30 18899 C 1749.64 -3.31963 -1.43117 0
M  V30 18900 O 1749.36 -4.35304 -0.494203 0
M  V30 18901 C 1750.87 -3.83588 -2.22206 0
M  V30 18902 H 1748.09 -0.6422 -0.194474 0
M  V30 18903 H 1750.63 -2.04441 0.04898 0
M  V30 18904 H 1748.78 -3.2361 -2.12967 0
M  V30 18905 H 1749.2 -5.14656 -1.0114 0
M  V30 18906 H 1750.67 -4.82012 -2.69014 0
M  V30 18907 H 1751.15 -3.16208 -3.0481 0
M  V30 18908 H 1751.76 -3.95111 -1.57376 0
M  V30 18909 N 1750.07 0.274379 -1.55193 0
M  V30 18910 C 1751.31 1.01383 -1.77485 0
M  V30 18911 C 1751.67 1.83549 -0.563373 0
M  V30 18912 O 1752.88 2.60457 -0.664517 0
M  V30 18913 C 1751.15 1.87414 -3.0432 0
M  V30 18914 S 1752.71 2.67644 -3.47725 0
M  V30 18915 H 1749.52 0.341489 -0.623623 0
M  V30 18916 H 1752.13 0.284398 -1.9342 0
M  V30 18917 H 1750.83 1.25974 -3.90588 0
M  V30 18918 H 1750.36 2.6468 -2.91046 0
M  V30 18919 H 1752.38 3.89914 -3.06889 0
M  V30 18920 N 1751.55 1.48103 0.538828 0
M  V30 18921 C 1752.78 1.59085 1.31816 0
M  V30 18922 C 1753.19 0.246886 1.87582 0
M  V30 18923 O 1752.53 -0.772694 1.66659 0
M  V30 18924 C 1752.59 2.57102 2.51274 0
M  V30 18925 C 1752.26 4.02377 2.16661 0
M  V30 18926 C 1753.25 4.90323 1.72857 0
M  V30 18927 C 1750.94 4.4785 2.27455 0
M  V30 18928 C 1752.93 6.21767 1.40302 0
M  V30 18929 C 1750.62 5.79317 1.94512 0
M  V30 18930 C 1751.62 6.66098 1.51006 0
M  V30 18931 O 1751.3 7.9512 1.18491 0
M  V30 18932 H 1751.04 0.539404 0.407454 0
M  V30 18933 H 1753.59 1.94586 0.657678 0
M  V30 18934 H 1751.82 2.16705 3.20275 0
M  V30 18935 H 1753.51 2.58014 3.13342 0
M  V30 18936 H 1754.28 4.56432 1.63995 0
M  V30 18937 H 1750.15 3.80497 2.60275 0
M  V30 18938 H 1753.7 6.89458 1.06271 0
M  V30 18939 H 1749.6 6.12745 2.03012 0
M  V30 18940 H 1750.36 8.07792 1.31964 0
M  V30 18941 N 1753.03 -0.787016 1.36542 0
M  V30 18942 C 1753.97 -1.89975 1.31065 0
M  V30 18943 C 1754.94 -1.65134 0.178905 0
M  V30 18944 O 1756.13 -1.8726 0.36581 0
M  V30 18945 C 1753.27 -3.26822 1.10821 0
M  V30 18946 C 1752.38 -3.6372 2.33091 0
M  V30 18947 C 1751.52 -4.89697 2.0584 0
M  V30 18948 C 1750.56 -5.1928 3.24059 0
M  V30 18949 N 1749.69 -6.36441 2.96457 0
M  V30 18950 H 1754.53 -1.93993 2.2621 0
M  V30 18951 H 1752.07 -0.948631 1.12425 0
M  V30 18952 H 1754.03 -4.05741 0.971091 0
M  V30 18953 H 1752.66 -3.22221 0.193302 0
M  V30 18954 H 1751.71 -2.79906 2.57598 0
M  V30 18955 H 1753.02 -3.81529 3.21305 0
M  V30 18956 H 1752.18 -5.76486 1.89072 0
M  V30 18957 H 1750.91 -4.73962 1.14941 0
M  V30 18958 H 1749.92 -4.30973 3.41383 0
M  V30 18959 H 1751.14 -5.36934 4.15787 0
M  V30 18960 H 1749.09 -6.22093 2.08172 0
M  V30 18961 H 1749.01 -6.54594 3.78209 0
M  V30 18962 H 1750.28 -7.26207 2.83273 0
M  V30 18963 N 1754.5 -1.20861 -1.01145 0
M  V30 18964 C 1755.75 -1.01613 -1.74234 0
M  V30 18965 C 1756.07 0.451683 -1.90313 0
M  V30 18966 O 1757.27 0.763408 -2.60546 0
M  V30 18967 C 1755.73 -1.76942 -3.134 0
M  V30 18968 C 1755.34 -3.27851 -3.05316 0
M  V30 18969 C 1757.08 -1.6608 -3.90663 0
M  V30 18970 C 1754.99 -3.95696 -4.39521 0
M  V30 18971 H 1753.92 -0.376593 -0.653218 0
M  V30 18972 H 1756.57 -1.44533 -1.1306 0
M  V30 18973 H 1754.95 -1.26812 -3.75146 0
M  V30 18974 H 1756.12 -3.85234 -2.52846 0
M  V30 18975 H 1754.44 -3.39184 -2.41543 0
M  V30 18976 H 1757.04 -2.14105 -4.89963 0
M  V30 18977 H 1757.38 -0.617892 -4.11689 0
M  V30 18978 H 1757.91 -2.13652 -3.35556 0
M  V30 18979 H 1754.65 -5.00161 -4.23697 0
M  V30 18980 H 1754.17 -3.43102 -4.91977 0
M  V30 18981 H 1755.85 -4.00242 -5.08346 0
M  V30 18982 N 1755.98 1.20536 -1.01532 0
M  V30 18983 C 1757.23 1.90152 -0.704973 0
M  V30 18984 C 1757.56 1.78569 0.763343 0
M  V30 18985 O 1756.84 1.16906 1.55445 0
M  V30 18986 C 1757.12 3.41589 -1.1397 0
M  V30 18987 C 1756.97 3.62113 -2.66823 0
M  V30 18988 C 1758.29 4.34335 -0.709984 0
M  V30 18989 H 1755.41 0.690524 -0.257577 0
M  V30 18990 H 1758.05 1.41959 -1.26284 0
M  V30 18991 H 1756.2 3.82765 -0.66505 0
M  V30 18992 H 1757.87 3.30197 -3.2213 0
M  V30 18993 H 1756.12 3.05626 -3.07855 0
M  V30 18994 H 1756.79 4.68261 -2.92294 0
M  V30 18995 H 1759.26 4.00799 -1.11801 0
M  V30 18996 H 1758.14 5.38915 -1.04221 0
M  V30 18997 H 1758.4 4.40391 0.388408 0
M  V30 18998 N 1757.46 0.791395 1.36289 0
M  V30 18999 C 1758.37 0.192362 2.3381 0
M  V30 19000 C 1759.39 -0.656556 1.61138 0
M  V30 19001 O 1760.56 -0.571877 1.9311 0
M  V30 19002 C 1757.63 -0.661283 3.40335 0
M  V30 19003 C 1756.69 0.206361 4.28804 0
M  V30 19004 C 1755.92 -0.606636 5.30241 0
M  V30 19005 O 1756.14 -1.84247 5.39823 0
M  V30 19006 O 1755.08 -0.00549116 6.019 0
M  V30 19007 H 1758.9 0.998723 2.86809 0
M  V30 19008 H 1756.49 0.552889 1.38793 0
M  V30 19009 H 1758.37 -1.148 4.05461 0
M  V30 19010 H 1757.05 -1.4455 2.89632 0
M  V30 19011 H 1755.95 0.739877 3.66711 0
M  V30 19012 H 1757.29 0.954142 4.82863 0
M  V30 19013 N 1758.94 -1.47929 0.54358 0
M  V30 19014 C 1759.89 -2.26818 -0.23183 0
M  V30 19015 C 1760.87 -1.33532 -0.897665 0
M  V30 19016 O 1762.07 -1.57979 -0.798223 0
M  V30 19017 C 1759.19 -3.18956 -1.26972 0
M  V30 19018 C 1758.28 -4.19719 -0.607991 0
M  V30 19019 N 1758.67 -5.04824 0.314122 0
M  V30 19020 C 1756.97 -4.3756 -0.863569 0
M  V30 19021 C 1757.67 -5.77507 0.697198 0
M  V30 19022 N 1756.65 -5.43572 0.055142 0
M  V30 19023 H 1760.45 -2.89997 0.477356 0
M  V30 19024 H 1757.96 -1.58301 0.362553 0
M  V30 19025 H 1759.96 -3.74144 -1.83907 0
M  V30 19026 H 1758.62 -2.57333 -1.98014 0
M  V30 19027 H 1759.63 -5.13316 0.687517 0
M  V30 19028 H 1756.31 -3.87117 -1.56353 0
M  V30 19029 H 1757.7 -6.55977 1.45411 0
M  V30 19030 N 1760.42 -0.27936 -1.55104 0
M  V30 19031 C 1761.64 0.342295 -2.04556 0
M  V30 19032 C 1762.07 1.48367 -1.15624 0
M  V30 19033 O 1761.43 1.8063 -0.15572 0
M  V30 19034 C 1761.47 0.796785 -3.51687 0
M  V30 19035 O 1760.58 1.90364 -3.65835 0
M  V30 19036 H 1759.92 0.07012 -0.660287 0
M  V30 19037 H 1762.45 -0.414896 -2.00349 0
M  V30 19038 H 1762.46 1.09141 -3.93131 0
M  V30 19039 H 1761.13 -0.0382637 -4.15882 0
M  V30 19040 H 1759.71 1.61123 -3.36294 0
M  V30 19041 N 1761.9 1.57599 -0.0067085 0
M  V30 19042 C 1763.14 1.91976 0.672064 0
M  V30 19043 C 1763.5 0.88172 1.71007 0
M  V30 19044 O 1762.79 -0.105225 1.91311 0
M  V30 19045 C 1762.98 3.30868 1.35133 0
M  V30 19046 C 1762.81 4.48086 0.380635 0
M  V30 19047 C 1761.58 5.05299 -0.011403 0
M  V30 19048 C 1763.78 5.13067 -0.355902 0
M  V30 19049 N 1761.76 6.06034 -0.97961 0
M  V30 19050 C 1763.13 6.08695 -1.17858 0
M  V30 19051 C 1765.19 4.96134 -0.419018 0
M  V30 19052 C 1763.89 6.89212 -2.05862 0
M  V30 19053 C 1765.92 5.77242 -1.28632 0
M  V30 19054 C 1765.28 6.72468 -2.09683 0
M  V30 19055 H 1761.38 0.750731 0.218922 0
M  V30 19056 H 1763.96 1.94579 -0.0686305 0
M  V30 19057 H 1762.13 3.29127 2.06228 0
M  V30 19058 H 1763.87 3.52656 1.98534 0
M  V30 19059 H 1760.62 4.72242 0.358377 0
M  V30 19060 H 1761.04 6.61085 -1.45928 0
M  V30 19061 H 1765.69 4.22358 0.193335 0
M  V30 19062 H 1763.4 7.62309 -2.68162 0
M  V30 19063 H 1766.99 5.66178 -1.33915 0
M  V30 19064 H 1765.87 7.34135 -2.75708 0
M  V30 19065 N 1763.37 -0.266145 1.55336 0
M  V30 19066 C 1764.62 -0.996831 1.76265 0
M  V30 19067 C 1764.95 -1.86035 0.567553 0
M  V30 19068 O 1764.2 -1.90462 -0.449754 0
M  V30 19069 C 1764.5 -1.90357 3.02488 0
M  V30 19070 C 1764.17 -1.19699 4.34722 0
M  V30 19071 C 1762.83 -1.00164 4.7066 0
M  V30 19072 C 1765.18 -0.694703 5.16549 0
M  V30 19073 C 1762.51 -0.291394 5.85976 0
M  V30 19074 C 1764.86 0.00198006 6.326 0
M  V30 19075 C 1763.53 0.20898 6.67173 0
M  V30 19076 H 1762.8 -0.364766 0.645001 0
M  V30 19077 H 1765.44 -0.268528 1.89608 0
M  V30 19078 H 1763.75 -2.69831 2.84075 0
M  V30 19079 H 1765.45 -2.47026 3.15878 0
M  V30 19080 H 1762.04 -1.35916 4.06479 0
M  V30 19081 H 1766.22 -0.833229 4.89256 0
M  V30 19082 H 1761.48 -0.120359 6.11282 0
M  V30 19083 H 1765.65 0.398909 6.95257 0
M  V30 19084 H 1763.28 0.761301 7.56378 0
M  V30 19085 N 1764.85 -1.48386 -0.530967 0
M  V30 19086 C 1765.76 -1.65516 -1.66257 0
M  V30 19087 C 1766.78 -0.5377 -1.65483 0
M  V30 19088 O 1767.95 -0.808642 -1.84453 0
M  V30 19089 C 1765.02 -1.68999 -3.02722 0
M  V30 19090 C 1764.08 -2.92365 -3.14358 0
M  V30 19091 C 1763.31 -2.95672 -4.44313 0
M  V30 19092 O 1763.54 -2.07417 -5.31352 0
M  V30 19093 O 1762.47 -3.87831 -4.60294 0
M  V30 19094 H 1766.3 -2.61321 -1.54742 0
M  V30 19095 H 1763.88 -1.31776 -0.703946 0
M  V30 19096 H 1765.76 -1.73816 -3.83883 0
M  V30 19097 H 1764.44 -0.763675 -3.14563 0
M  V30 19098 H 1763.34 -2.93081 -2.32496 0
M  V30 19099 H 1764.68 -3.84378 -3.07433 0
M  V30 19100 N 1766.33 0.779763 -1.36958 0
M  V30 19101 C 1767.55 1.57389 -1.35068 0
M  V30 19102 C 1767.98 1.87993 0.0635244 0
M  V30 19103 O 1767.34 1.48625 1.03828 0
M  V30 19104 C 1767.39 2.86582 -2.18868 0
M  V30 19105 O 1766.49 3.80609 -1.58779 0
M  V30 19106 H 1765.83 0.477052 -0.461863 0
M  V30 19107 H 1768.36 0.965741 -1.80373 0
M  V30 19108 H 1768.37 3.35761 -2.31794 0
M  V30 19109 H 1767.05 2.63635 -3.21666 0
M  V30 19110 H 1765.62 3.39229 -1.54848 0
M  V30 19111 N 1767.81 1.21396 1.00503 0
M  V30 19112 C 1769.05 1.03117 1.74279 0
M  V30 19113 C 1769.38 -0.43531 1.89566 0
M  V30 19114 O 1768.64 -1.33929 1.42694 0
M  V30 19115 C 1768.94 1.67343 3.15802 0
M  V30 19116 C 1768.6 3.17198 3.20463 0
M  V30 19117 C 1767.26 3.5809 3.21442 0
M  V30 19118 C 1769.62 4.13172 3.17708 0
M  V30 19119 C 1766.94 4.93462 3.17352 0
M  V30 19120 C 1769.3 5.48505 3.15159 0
M  V30 19121 C 1767.96 5.88794 3.14448 0
M  V30 19122 H 1767.23 0.377332 0.637732 0
M  V30 19123 H 1769.88 1.50987 1.17792 0
M  V30 19124 H 1768.18 1.11765 3.75521 0
M  V30 19125 H 1769.88 1.50703 3.71604 0
M  V30 19126 H 1766.47 2.8463 3.20443 0
M  V30 19127 H 1770.65 3.82606 3.16112 0
M  V30 19128 H 1765.91 5.23925 3.15138 0
M  V30 19129 H 1770.08 6.22608 3.11982 0
M  V30 19130 H 1767.71 6.93659 3.11033 0
M  V30 19131 N 1769.29 -1.19996 1.0217 0
M  V30 19132 C 1770.53 -1.88818 0.709281 0
M  V30 19133 C 1770.85 -1.80032 -0.764702 0
M  V30 19134 O 1772.05 -2.44037 -1.18988 0
M  V30 19135 C 1770.51 -3.38652 1.2183 0
M  V30 19136 C 1770.12 -3.56012 2.71955 0
M  V30 19137 C 1771.86 -4.12996 0.981542 0
M  V30 19138 C 1769.77 -4.997 3.16313 0
M  V30 19139 H 1768.7 -0.70716 0.261613 0
M  V30 19140 H 1771.35 -1.35715 1.23506 0
M  V30 19141 H 1769.73 -3.91109 0.620478 0
M  V30 19142 H 1770.91 -3.13918 3.37331 0
M  V30 19143 H 1769.22 -2.95046 2.93831 0
M  V30 19144 H 1771.82 -5.18948 1.28831 0
M  V30 19145 H 1772.16 -4.1622 -0.0818616 0
M  V30 19146 H 1772.69 -3.66656 1.543 0
M  V30 19147 H 1769.43 -5.01635 4.21951 0
M  V30 19148 H 1768.95 -5.42585 2.5566 0
M  V30 19149 H 1770.63 -5.68312 3.09242 0
M  V30 19150 N 1770.76 -0.798611 -1.35867 0
M  V30 19151 C 1772.01 -0.375816 -1.99287 0
M  V30 19152 C 1772.34 1.05223 -1.63223 0
M  V30 19153 O 1771.62 1.72862 -0.891576 0
M  V30 19154 C 1771.9 -0.550197 -3.55872 0
M  V30 19155 C 1771.75 -2.0226 -4.0176 0
M  V30 19156 C 1773.07 0.0290862 -4.4009 0
M  V30 19157 H 1770.19 -0.138024 -0.72396 0
M  V30 19158 H 1772.83 -1.00666 -1.61141 0
M  V30 19159 H 1770.98 -0.0131739 -3.88498 0
M  V30 19160 H 1772.66 -2.62139 -3.7958 0
M  V30 19161 H 1770.9 -2.52191 -3.52962 0
M  V30 19162 H 1771.57 -2.09553 -5.10678 0
M  V30 19163 H 1774.05 -0.429444 -4.13878 0
M  V30 19164 H 1772.92 -0.122894 -5.48762 0
M  V30 19165 H 1773.18 1.12206 -4.27624 0
M  V30 19166 N 1772.24 1.47639 -0.551417 0
M  V30 19167 C 1773.17 2.32743 0.187887 0
M  V30 19168 C 1774.15 1.43432 0.914407 0
M  V30 19169 O 1775.34 1.72295 0.896005 0
M  V30 19170 C 1772.47 3.25092 1.22199 0
M  V30 19171 C 1771.42 4.23598 0.612298 0
M  V30 19172 C 1770.75 5.0523 1.75062 0
M  V30 19173 C 1772.05 5.20526 -0.430135 0
M  V30 19174 H 1773.74 2.94804 -0.522598 0
M  V30 19175 H 1771.29 1.41764 -0.252768 0
M  V30 19176 H 1773.24 3.83467 1.74731 0
M  V30 19177 H 1771.96 2.61074 1.96235 0
M  V30 19178 H 1770.62 3.6644 0.108324 0
M  V30 19179 H 1770.27 4.3762 2.47987 0
M  V30 19180 H 1769.97 5.71918 1.34848 0
M  V30 19181 H 1771.5 5.66463 2.27931 0
M  V30 19182 H 1772.91 5.73299 0.00890168 0
M  V30 19183 H 1771.31 5.95384 -0.750836 0
M  V30 19184 H 1772.38 4.66356 -1.32815 0
M  V30 19185 N 1773.72 0.287581 1.54954 0
M  V30 19186 C 1774.65 -0.636117 2.19155 0
M  V30 19187 C 1775.63 -1.14295 1.15652 0
M  V30 19188 O 1776.82 -1.21362 1.44234 0
M  V30 19189 C 1773.94 -1.86888 2.82472 0
M  V30 19190 C 1772.99 -1.49645 3.99385 0
M  V30 19191 S 1773.82 -0.563886 5.32523 0
M  V30 19192 C 1774.98 -1.80474 5.99316 0
M  V30 19193 H 1775.21 -0.0906517 2.97162 0
M  V30 19194 H 1772.74 0.0717757 1.54233 0
M  V30 19195 H 1774.7 -2.57639 3.19581 0
M  V30 19196 H 1773.36 -2.38549 2.04336 0
M  V30 19197 H 1772.56 -2.41408 4.42423 0
M  V30 19198 H 1772.16 -0.869001 3.63764 0
M  V30 19199 H 1774.45 -2.74708 6.19307 0
M  V30 19200 H 1775.39 -1.41716 6.93774 0
M  V30 19201 H 1775.8 -1.97535 5.2881 0
M  V30 19202 N 1775.2 -1.57593 0.0150662 0
M  V30 19203 C 1776.45 -1.90392 -0.66587 0
M  V30 19204 C 1776.76 -0.891694 -1.74092 0
M  V30 19205 O 1777.97 -1.11043 -2.47753 0
M  V30 19206 C 1776.42 -3.38026 -1.23558 0
M  V30 19207 C 1776.03 -4.47577 -0.19455 0
M  V30 19208 C 1777.77 -3.79913 -1.89384 0
M  V30 19209 C 1775.68 -5.86299 -0.7751 0
M  V30 19210 H 1774.61 -0.710474 -0.252473 0
M  V30 19211 H 1777.26 -1.83334 0.0780739 0
M  V30 19212 H 1775.64 -3.3997 -2.03068 0
M  V30 19213 H 1776.82 -4.57172 0.577061 0
M  V30 19214 H 1775.13 -4.14805 0.364134 0
M  V30 19215 H 1777.73 -4.809 -2.3375 0
M  V30 19216 H 1778.07 -3.14225 -2.73072 0
M  V30 19217 H 1778.61 -3.80333 -1.16585 0
M  V30 19218 H 1775.35 -6.55496 0.0233354 0
M  V30 19219 H 1774.87 -5.80338 -1.51552 0
M  V30 19220 H 1776.54 -6.3443 -1.26915 0
M  V30 19221 N 1776.68 0.257904 -1.55475 0
M  V30 19222 C 1777.61 1.32303 -1.92401 0
M  V30 19223 C 1778.59 1.50767 -0.787617 0
M  V30 19224 O 1779.77 1.63559 -1.047 0
M  V30 19225 C 1776.9 2.67984 -2.20912 0
M  V30 19226 C 1775.86 2.64231 -3.36699 0
M  V30 19227 C 1775.18 4.03604 -3.50725 0
M  V30 19228 C 1776.48 2.22177 -4.72689 0
M  V30 19229 H 1778.18 1.01646 -2.81618 0
M  V30 19230 H 1775.72 0.487523 -1.35496 0
M  V30 19231 H 1777.68 3.42622 -2.45332 0
M  V30 19232 H 1776.4 3.00254 -1.2851 0
M  V30 19233 H 1775.06 1.92049 -3.1227 0
M  V30 19234 H 1774.71 4.33122 -2.55763 0
M  V30 19235 H 1774.41 4.01983 -4.28583 0
M  V30 19236 H 1775.93 4.79959 -3.77455 0
M  V30 19237 H 1777.34 2.86543 -4.96554 0
M  V30 19238 H 1775.74 2.3169 -5.5357 0
M  V30 19239 H 1776.81 1.17326 -4.70492 0
M  V30 19240 N 1778.15 1.48666 0.52309 0
M  V30 19241 C 1779.08 1.666 1.63605 0
M  V30 19242 C 1780.07 0.514803 1.62123 0
M  V30 19243 O 1781.25 0.748138 1.79211 0
M  V30 19244 C 1778.38 1.71199 3.02172 0
M  V30 19245 C 1777.33 2.85888 3.18515 0
M  V30 19246 C 1776.66 2.75582 4.58213 0
M  V30 19247 C 1777.96 4.27104 3.00631 0
M  V30 19248 H 1779.65 2.59776 1.48851 0
M  V30 19249 H 1777.2 1.25014 0.714667 0
M  V30 19250 H 1779.15 1.82333 3.79911 0
M  V30 19251 H 1777.88 0.746066 3.17964 0
M  V30 19252 H 1776.54 2.7432 2.43195 0
M  V30 19253 H 1776.18 1.76944 4.7085 0
M  V30 19254 H 1775.88 3.52545 4.70091 0
M  V30 19255 H 1777.41 2.88693 5.38041 0
M  V30 19256 H 1778.82 4.3947 3.68157 0
M  V30 19257 H 1777.22 5.05119 3.23999 0
M  V30 19258 H 1778.29 4.43087 1.96982 0
M  V30 19259 N 1779.63 -0.772489 1.37369 0
M  V30 19260 C 1780.86 -1.56671 1.35901 0
M  V30 19261 C 1781.28 -1.88024 -0.0535538 0
M  V30 19262 O 1780.64 -1.49174 -1.03038 0
M  V30 19263 C 1780.69 -2.85417 2.20384 0
M  V30 19264 O 1779.79 -3.79761 1.60796 0
M  V30 19265 H 1779.13 -0.474596 0.464386 0
M  V30 19266 H 1781.66 -0.956162 1.80883 0
M  V30 19267 H 1781.67 -3.34527 2.33571 0
M  V30 19268 H 1780.35 -2.61926 3.2306 0
M  V30 19269 H 1778.93 -3.38403 1.56645 0
M  V30 19270 N 1781.11 -1.21927 -0.998575 0
M  V30 19271 C 1782.34 -1.06735 -1.77827 0
M  V30 19272 C 1782.76 0.378154 -1.8426 0
M  V30 19273 O 1782.12 1.27301 -1.2909 0
M  V30 19274 C 1782.17 -1.67662 -3.19252 0
M  V30 19275 O 1781.27 -0.926448 -4.01859 0
M  V30 19276 H 1780.61 -0.375241 -0.547805 0
M  V30 19277 H 1783.14 -1.61605 -1.25478 0
M  V30 19278 H 1783.15 -1.72151 -3.69903 0
M  V30 19279 H 1781.83 -2.72854 -3.13885 0
M  V30 19280 H 1780.4 -0.957145 -3.60407 0
M  V30 19281 N 1782.59 1.19452 -1.02805 0
M  V30 19282 C 1783.84 1.8874 -0.722599 0
M  V30 19283 C 1784.16 1.79957 0.751028 0
M  V30 19284 O 1783.43 1.20949 1.54104 0
M  V30 19285 H 1782.01 0.698683 -0.264294 0
M  V30 19286 H 1784.67 1.45021 -1.30211 0
M  V30 19287 H 1783.77 2.95094 -1.01617 0
M  V30 19288 N 1784.07 0.805805 1.35442 0
M  V30 19289 C 1785.03 0.221278 2.28129 0
M  V30 19290 C 1786.03 -0.590919 1.49549 0
M  V30 19291 O 1787.22 -0.409518 1.69318 0
M  V30 19292 C 1784.35 -0.691643 3.3381 0
M  V30 19293 H 1785.54 1.03875 2.81336 0
M  V30 19294 H 1783.1 0.5764 1.45284 0
M  V30 19295 H 1783.83 -1.53283 2.85788 0
M  V30 19296 H 1783.62 -0.110972 3.91943 0
M  V30 19297 H 1785.11 -1.09497 4.02989 0
M  V30 19298 N 1785.54 -1.47344 0.559239 0
M  V30 19299 C 1786.47 -2.32839 -0.175542 0
M  V30 19300 C 1787.46 -1.43914 -0.906787 0
M  V30 19301 O 1788.64 -1.72767 -0.886855 0
M  V30 19302 C 1785.77 -3.25735 -1.20474 0
M  V30 19303 C 1784.72 -4.23916 -0.589825 0
M  V30 19304 C 1784.05 -5.06151 -1.7238 0
M  V30 19305 C 1785.35 -5.2029 0.457733 0
M  V30 19306 H 1787.04 -2.94522 0.538225 0
M  V30 19307 H 1784.59 -1.41628 0.260282 0
M  V30 19308 H 1786.54 -3.84388 -1.72695 0
M  V30 19309 H 1785.27 -2.62111 -1.94847 0
M  V30 19310 H 1783.93 -3.66492 -0.0888897 0
M  V30 19311 H 1783.57 -4.38929 -2.45663 0
M  V30 19312 H 1783.27 -5.72625 -1.31813 0
M  V30 19313 H 1784.8 -5.67663 -2.24923 0
M  V30 19314 H 1786.21 -5.73296 0.0215019 0
M  V30 19315 H 1784.61 -5.94978 0.7824 0
M  V30 19316 H 1785.68 -4.65645 1.35286 0
M  V30 19317 N 1787.02 -0.295795 -1.54799 0
M  V30 19318 C 1787.99 0.569699 -2.22007 0
M  V30 19319 C 1788.99 1.06535 -1.20445 0
M  V30 19320 O 1790.18 0.962212 -1.45214 0
M  V30 19321 C 1787.31 1.78821 -2.90234 0
M  V30 19322 H 1788.5 -0.0174148 -2.99895 0
M  V30 19323 H 1786.05 -0.0465813 -1.56231 0
M  V30 19324 H 1786.79 2.4153 -2.16412 0
M  V30 19325 H 1786.57 1.44051 -3.6468 0
M  V30 19326 H 1788.06 2.40321 -3.41519 0
M  V30 19327 N 1788.5 1.57583 -0.0234236 0
M  V30 19328 C 1789.75 1.91565 0.656449 0
M  V30 19329 C 1790.08 0.899298 1.72461 0
M  V30 19330 O 1789.33 -0.0926107 1.95481 0
M  V30 19331 C 1789.63 3.32283 1.31616 0
M  V30 19332 C 1789.3 4.49305 0.378925 0
M  V30 19333 C 1787.96 4.81048 0.120945 0
M  V30 19334 C 1790.31 5.20526 -0.264985 0
M  V30 19335 C 1787.64 5.81373 -0.788846 0
M  V30 19336 C 1789.99 6.21821 -1.1628 0
M  V30 19337 C 1788.65 6.52009 -1.42972 0
M  V30 19338 H 1787.92 0.700985 0.240212 0
M  V30 19339 H 1790.57 1.91316 -0.0839711 0
M  V30 19340 H 1788.88 3.28766 2.13119 0
M  V30 19341 H 1790.57 3.55845 1.84866 0
M  V30 19342 H 1787.16 4.24517 0.590173 0
M  V30 19343 H 1791.35 4.96238 -0.0787258 0
M  V30 19344 H 1786.6 6.0311 -1.00341 0
M  V30 19345 H 1790.78 6.7613 -1.66796 0
M  V30 19346 H 1788.4 7.29564 -2.13636 0
M  V30 19347 N 1789.98 -0.249655 1.5561 0
M  V30 19348 C 1790.89 -1.33061 1.93215 0
M  V30 19349 C 1791.91 -1.52806 0.832239 0
M  V30 19350 O 1793.08 -1.66482 1.13339 0
M  V30 19351 C 1790.15 -2.66569 2.2168 0
M  V30 19352 C 1789.21 -2.5537 3.45087 0
M  V30 19353 C 1788.44 -3.82511 3.72184 0
M  V30 19354 O 1788.66 -4.84267 3.014 0
M  V30 19355 O 1787.6 -3.81309 4.65711 0
M  V30 19356 H 1791.42 -1.04161 2.85279 0
M  V30 19357 H 1789.01 -0.450177 1.42456 0
M  V30 19358 H 1790.89 -3.45468 2.41308 0
M  V30 19359 H 1789.57 -2.95207 1.32794 0
M  V30 19360 H 1788.47 -1.74766 3.30768 0
M  V30 19361 H 1789.81 -2.31677 4.34266 0
M  V30 19362 N 1791.46 -1.48941 -0.515198 0
M  V30 19363 C 1792.73 -1.48205 -1.27651 0
M  V30 19364 C 1793.11 -0.201866 -2.10133 0
M  V30 19365 O 1792.46 0.816115 -2.13429 0
M  V30 19366 C 1792.67 -2.75274 -2.14535 0
M  V30 19367 C 1794.02 -3.24198 -2.74192 0
M  V30 19368 O 1795.04 -2.76293 -2.24813 0
M  V30 19369 O 1793.9 -4.07593 -3.64047 0
M  V30 19370 H 1791 -0.592546 -0.576904 0
M  V30 19371 H 1793.54 -1.6119 -0.530636 0
M  V30 19372 H 1792.32 -3.59949 -1.53469 0
M  V30 19373 H 1791.94 -2.6508 -2.96342 0
M  V30 19374 N 1792.94 0.765193 -1.37777 0
M  V30 19375 C 1794.18 1.51928 -1.32668 0
M  V30 19376 C 1794.5 1.95418 0.0844172 0
M  V30 19377 O 1795.7 2.70271 0.258001 0
M  V30 19378 C 1794.16 2.74377 -2.32906 0
M  V30 19379 C 1793.77 2.37959 -3.79578 0
M  V30 19380 C 1795.51 3.52302 -2.3682 0
M  V30 19381 C 1793.42 3.5695 -4.7153 0
M  V30 19382 H 1792.35 0.570412 -0.493098 0
M  V30 19383 H 1795 0.837531 -1.63272 0
M  V30 19384 H 1793.38 3.44474 -1.95329 0
M  V30 19385 H 1794.56 1.75603 -4.26028 0
M  V30 19386 H 1792.87 1.73194 -3.78672 0
M  V30 19387 H 1795.47 4.40754 -3.02721 0
M  V30 19388 H 1795.81 3.92631 -1.38371 0
M  V30 19389 H 1796.34 2.89207 -2.73137 0
M  V30 19390 H 1793.08 3.21697 -5.71132 0
M  V30 19391 H 1792.6 4.18388 -4.2978 0
M  V30 19392 H 1794.28 4.2368 -4.88983 0
M  V30 19393 N 1794.41 1.22455 0.992094 0
M  V30 19394 C 1795.64 1.07438 1.76467 0
M  V30 19395 C 1796.05 -0.37795 1.85387 0
M  V30 19396 O 1795.39 -1.27367 1.32376 0
M  V30 19397 C 1795.46 1.61171 3.21347 0
M  V30 19398 C 1795.12 3.09794 3.35971 0
M  V30 19399 C 1796.12 4.07214 3.23222 0
M  V30 19400 C 1793.8 3.49266 3.60996 0
M  V30 19401 C 1795.8 5.42092 3.35284 0
M  V30 19402 C 1793.48 4.84292 3.72699 0
M  V30 19403 C 1794.48 5.80514 3.59851 0
M  V30 19404 O 1794.17 7.13088 3.71161 0
M  V30 19405 H 1793.9 0.377158 0.561006 0
M  V30 19406 H 1796.46 1.62527 1.25595 0
M  V30 19407 H 1794.69 1.00491 3.73415 0
M  V30 19408 H 1796.37 1.41804 3.80324 0
M  V30 19409 H 1797.14 3.78063 3.03798 0
M  V30 19410 H 1793.02 2.74895 3.70073 0
M  V30 19411 H 1796.56 6.17178 3.25172 0
M  V30 19412 H 1792.46 5.13124 3.91629 0
M  V30 19413 H 1793.23 7.20677 3.88029 0
M  V30 19414 N 1795.89 -1.18905 1.03437 0
M  V30 19415 C 1797.14 -1.88055 0.729268 0
M  V30 19416 C 1797.45 -1.80833 -0.745564 0
M  V30 19417 O 1798.66 -2.45285 -1.16393 0
M  V30 19418 C 1797.12 -3.37341 1.25415 0
M  V30 19419 C 1796.72 -3.53107 2.75716 0
M  V30 19420 C 1798.47 -4.11932 1.02529 0
M  V30 19421 C 1796.37 -4.96317 3.21595 0
M  V30 19422 H 1795.3 -0.704345 0.269098 0
M  V30 19423 H 1797.96 -1.34397 1.24938 0
M  V30 19424 H 1796.34 -3.90429 0.661925 0
M  V30 19425 H 1797.51 -3.10322 3.40642 0
M  V30 19426 H 1795.83 -2.91913 2.96944 0
M  V30 19427 H 1798.42 -5.17552 1.34328 0
M  V30 19428 H 1798.77 -4.16283 -0.0377114 0
M  V30 19429 H 1799.3 -3.64998 1.5818 0
M  V30 19430 H 1796.04 -4.97131 4.27248 0
M  V30 19431 H 1795.56 -5.39842 2.61401 0
M  V30 19432 H 1797.24 -5.65 3.15253 0
M  V30 19433 N 1797.37 -0.812977 -1.35013 0
M  V30 19434 C 1798.28 -0.229534 -2.33474 0
M  V30 19435 C 1799.3 0.630837 -1.62162 0
M  V30 19436 O 1800.47 0.541083 -1.93995 0
M  V30 19437 C 1797.54 0.607055 -3.41344 0
M  V30 19438 C 1796.6 -0.274554 -4.28421 0
M  V30 19439 C 1795.83 0.522202 -5.31139 0
M  V30 19440 O 1796.05 1.75636 -5.42686 0
M  V30 19441 O 1794.99 -0.0902666 -6.01832 0
M  V30 19442 H 1798.81 -1.04423 -2.85183 0
M  V30 19443 H 1796.4 -0.5749 -1.37896 0
M  V30 19444 H 1798.28 1.08335 -4.07236 0
M  V30 19445 H 1796.96 1.39924 -2.91895 0
M  V30 19446 H 1795.86 -0.798124 -3.65487 0
M  V30 19447 H 1797.2 -1.03084 -4.81284 0
M  V30 19448 N 1798.85 1.47045 -0.567045 0
M  V30 19449 C 1800.26 1.5797 -0.227536 0
M  V30 19450 C 1800.46 1.56434 1.27006 0
M  V30 19451 O 1799.52 1.47297 2.05085 0
M  V30 19452 C 1800.83 2.88053 -0.862894 0
M  V30 19453 C 1802.38 3.01656 -0.835032 0
M  V30 19454 C 1802.86 4.34453 -1.44964 0
M  V30 19455 N 1804.35 4.41113 -1.41327 0
M  V30 19456 C 1805.08 5.42451 -1.85835 0
M  V30 19457 N 1804.58 6.50547 -2.38245 0
M  V30 19458 N 1806.37 5.33556 -1.76847 0
M  V30 19459 H 1798.52 1.46287 -1.53993 0
M  V30 19460 H 1800.78 0.696829 -0.642755 0
M  V30 19461 H 1800.49 2.94942 -1.91578 0
M  V30 19462 H 1800.36 3.75461 -0.361758 0
M  V30 19463 H 1802.75 2.94358 0.209187 0
M  V30 19464 H 1802.83 2.15764 -1.37403 0
M  V30 19465 H 1802.48 4.42508 -2.49298 0
M  V30 19466 H 1802.41 5.19093 -0.886003 0
M  V30 19467 H 1804.9 3.63592 -1.03001 0
M  V30 19468 H 1805.21 7.2406 -2.70105 0
M  V30 19469 H 1803.56 6.51409 -2.42262 0
M  V30 19470 H 1806.75 4.48008 -1.35671 0
M  V30 19471 H 1806.92 6.12391 -2.11851 0
M  V30 19472 N 1800.33 0.304 1.5464 0
M  V30 19473 C 1801.27 -0.570762 2.23631 0
M  V30 19474 C 1802.24 -1.1272 1.21998 0
M  V30 19475 O 1803.43 -1.17117 1.50626 0
M  V30 19476 C 1800.57 -1.73533 2.98296 0
M  V30 19477 C 1799.68 -1.21 4.14708 0
M  V30 19478 C 1798.82 -2.33867 4.76948 0
M  V30 19479 C 1797.85 -1.78483 5.855 0
M  V30 19480 N 1796.99 -2.84935 6.41682 0
M  V30 19481 H 1801.83 0.024168 2.9799 0
M  V30 19482 H 1799.37 0.023697 1.47081 0
M  V30 19483 H 1801.33 -2.42031 3.39819 0
M  V30 19484 H 1799.96 -2.30184 2.26308 0
M  V30 19485 H 1799.01 -0.41718 3.78105 0
M  V30 19486 H 1800.32 -0.764576 4.92905 0
M  V30 19487 H 1799.47 -3.10306 5.21339 0
M  V30 19488 H 1798.21 -2.81737 3.9809 0
M  V30 19489 H 1797.22 -1.00534 5.4053 0
M  V30 19490 H 1798.44 -1.31513 6.66244 0
M  V30 19491 H 1796.39 -3.32133 5.65706 0
M  V30 19492 H 1796.31 -2.44898 7.15235 0
M  V30 19493 H 1797.57 -3.61263 6.90731 0
M  V30 19494 N 1801.8 -1.57568 0.0317802 0
M  V30 19495 C 1802.75 -2.10379 -0.949183 0
M  V30 19496 C 1803.72 -1.00649 -1.32133 0
M  V30 19497 O 1804.91 -1.28084 -1.41418 0
M  V30 19498 C 1802.05 -2.63762 -2.22539 0
M  V30 19499 C 1801.16 -3.87509 -1.90946 0
M  V30 19500 C 1800.29 -4.29276 -3.12882 0
M  V30 19501 C 1799.33 -5.45775 -2.77121 0
M  V30 19502 N 1798.47 -5.82686 -3.9169 0
M  V30 19503 H 1803.31 -2.93912 -0.491922 0
M  V30 19504 H 1800.85 -1.45272 -0.23121 0
M  V30 19505 H 1802.8 -2.92803 -2.9719 0
M  V30 19506 H 1801.43 -1.83055 -2.65877 0
M  V30 19507 H 1800.49 -3.6518 -1.06526 0
M  V30 19508 H 1801.8 -4.72235 -1.6061 0
M  V30 19509 H 1800.95 -4.59768 -3.95851 0
M  V30 19510 H 1799.69 -3.43323 -3.46382 0
M  V30 19511 H 1798.7 -5.14974 -1.92565 0
M  V30 19512 H 1799.92 -6.3343 -2.44834 0
M  V30 19513 H 1797.87 -4.99688 -4.25027 0
M  V30 19514 H 1797.78 -6.62058 -3.64986 0
M  V30 19515 H 1799.05 -6.17785 -4.75355 0
M  V30 19516 N 1803.28 0.241399 -1.5574 0
M  V30 19517 C 1804.51 0.986075 -1.81891 0
M  V30 19518 C 1804.93 1.78734 -0.608254 0
M  V30 19519 O 1804.28 1.77527 0.423129 0
M  V30 19520 C 1804.33 1.91956 -3.06325 0
M  V30 19521 O 1804.05 1.15071 -4.22718 0
M  V30 19522 C 1805.56 2.77977 -3.45317 0
M  V30 19523 H 1802.78 0.289913 -0.605137 0
M  V30 19524 H 1805.32 0.262622 -2.02807 0
M  V30 19525 H 1803.47 2.59721 -2.87443 0
M  V30 19526 H 1803.89 1.78261 -4.93278 0
M  V30 19527 H 1805.36 3.39215 -4.35474 0
M  V30 19528 H 1805.84 3.49369 -2.66154 0
M  V30 19529 H 1806.45 2.15655 -3.66569 0
M  V30 19530 N 1804.76 1.49212 0.507292 0
M  V30 19531 C 1806.01 1.5763 1.2584 0
M  V30 19532 C 1806.32 0.265343 1.93792 0
M  V30 19533 O 1807.53 0.227996 2.70541 0
M  V30 19534 C 1805.98 2.78093 2.28457 0
M  V30 19535 C 1805.59 4.15922 1.66472 0
M  V30 19536 C 1807.34 2.95837 3.04435 0
M  V30 19537 C 1805.24 5.27616 2.67162 0
M  V30 19538 H 1804.17 0.586896 0.47336 0
M  V30 19539 H 1806.82 1.75588 0.533018 0
M  V30 19540 H 1805.21 2.53616 3.0413 0
M  V30 19541 H 1806.38 4.50511 0.968337 0
M  V30 19542 H 1804.7 4.03484 1.02906 0
M  V30 19543 H 1807.29 3.76452 3.79721 0
M  V30 19544 H 1807.64 2.06156 3.61671 0
M  V30 19545 H 1808.17 3.20323 2.35877 0
M  V30 19546 H 1804.91 6.19336 2.14716 0
M  V30 19547 H 1804.43 4.97488 3.3506 0
M  V30 19548 H 1806.11 5.56686 3.29712 0
M  V30 19549 N 1806.24 -0.757876 1.38181 0
M  V30 19550 C 1807.19 -1.87152 1.35065 0
M  V30 19551 C 1808.16 -1.64717 0.213892 0
M  V30 19552 O 1809.34 -1.86442 0.405448 0
M  V30 19553 C 1806.48 -3.24398 1.17728 0
M  V30 19554 C 1805.59 -3.58694 2.40754 0
M  V30 19555 C 1804.73 -4.85221 2.16181 0
M  V30 19556 C 1803.77 -5.1229 3.35001 0
M  V30 19557 N 1802.9 -6.3001 3.0989 0
M  V30 19558 H 1807.74 -1.89151 2.30274 0
M  V30 19559 H 1805.28 -0.924571 1.14412 0
M  V30 19560 H 1807.24 -4.0359 1.05694 0
M  V30 19561 H 1805.87 -3.21738 0.261606 0
M  V30 19562 H 1804.92 -2.74379 2.63477 0
M  V30 19563 H 1806.23 -3.74628 3.29325 0
M  V30 19564 H 1805.39 -5.72346 2.01258 0
M  V30 19565 H 1804.13 -4.71417 1.24969 0
M  V30 19566 H 1803.13 -4.23635 3.50448 0
M  V30 19567 H 1804.36 -5.27993 4.27083 0
M  V30 19568 H 1802.3 -6.17538 2.21321 0
M  V30 19569 H 1802.22 -6.46425 3.92009 0
M  V30 19570 H 1803.49 -7.20035 2.98613 0
M  V30 19571 N 1807.72 -1.22979 -0.985586 0
M  V30 19572 C 1808.97 -1.05286 -1.7204 0
M  V30 19573 C 1809.28 0.411213 -1.91229 0
M  V30 19574 O 1810.48 0.70797 -2.62107 0
M  V30 19575 C 1808.94 -1.8355 -3.09576 0
M  V30 19576 C 1808.55 -3.34254 -2.98293 0
M  V30 19577 C 1810.29 -1.74329 -3.87052 0
M  V30 19578 C 1808.2 -4.0493 -4.31029 0
M  V30 19579 H 1807.13 -0.390364 -0.645083 0
M  V30 19580 H 1809.78 -1.46898 -1.09969 0
M  V30 19581 H 1808.16 -1.34741 -3.72372 0
M  V30 19582 H 1809.34 -3.90511 -2.44618 0
M  V30 19583 H 1807.65 -3.44231 -2.34294 0
M  V30 19584 H 1810.25 -2.24449 -4.85311 0
M  V30 19585 H 1810.59 -0.705078 -4.10286 0
M  V30 19586 H 1811.12 -2.20721 -3.30949 0
M  V30 19587 H 1807.86 -5.09035 -4.12993 0
M  V30 19588 H 1807.38 -3.5346 -4.84588 0
M  V30 19589 H 1809.06 -4.10935 -4.99742 0
M  V30 19590 N 1809.19 1.18355 -1.04066 0
M  V30 19591 C 1810.44 1.87665 -0.73923 0
M  V30 19592 C 1810.76 1.81226 0.735963 0
M  V30 19593 O 1811.96 2.45899 1.15091 0
M  V30 19594 C 1810.42 3.36671 -1.27203 0
M  V30 19595 C 1810.03 3.5164 -2.77585 0
M  V30 19596 C 1811.77 4.11383 -1.04712 0
M  V30 19597 C 1809.68 4.94605 -3.24222 0
M  V30 19598 H 1808.61 0.702908 -0.27283 0
M  V30 19599 H 1811.26 1.33733 -1.25649 0
M  V30 19600 H 1809.64 3.90072 -0.682621 0
M  V30 19601 H 1810.81 3.08511 -3.42283 0
M  V30 19602 H 1809.13 2.90334 -2.98488 0
M  V30 19603 H 1811.73 5.16832 -1.37071 0
M  V30 19604 H 1812.07 4.16297 0.0156344 0
M  V30 19605 H 1812.6 3.64154 -1.60114 0
M  V30 19606 H 1809.34 4.94859 -4.29878 0
M  V30 19607 H 1808.86 5.38449 -2.6426 0
M  V30 19608 H 1810.54 5.6332 -3.18245 0
M  V30 19609 N 1810.67 0.820125 1.3458 0
M  V30 19610 C 1811.6 0.254709 2.32107 0
M  V30 19611 C 1812.58 -0.6273 1.58111 0
M  V30 19612 O 1813.77 -0.554759 1.86108 0
M  V30 19613 C 1810.9 -0.586541 3.42311 0
M  V30 19614 C 1809.85 0.198096 4.27541 0
M  V30 19615 C 1809.18 -0.765718 5.29189 0
M  V30 19616 C 1810.48 1.40472 5.03056 0
M  V30 19617 H 1812.17 1.06955 2.79644 0
M  V30 19618 H 1809.72 0.515756 1.34447 0
M  V30 19619 H 1811.67 -0.992259 4.09551 0
M  V30 19620 H 1810.4 -1.4344 2.93415 0
M  V30 19621 H 1809.05 0.585149 3.619 0
M  V30 19622 H 1808.7 -1.60946 4.76556 0
M  V30 19623 H 1808.4 -0.244954 5.87089 0
M  V30 19624 H 1809.93 -1.16935 5.99298 0
M  V30 19625 H 1811.34 1.07316 5.63166 0
M  V30 19626 H 1809.74 1.86092 5.70517 0
M  V30 19627 H 1810.81 2.18437 4.32913 0
M  V30 19628 N 1812.15 -1.46743 0.574835 0
M  V30 19629 C 1813.06 -2.34015 -0.16559 0
M  V30 19630 C 1814.08 -1.49273 -0.894064 0
M  V30 19631 O 1815.25 -1.82162 -0.859013 0
M  V30 19632 C 1812.32 -3.26313 -1.17136 0
M  V30 19633 C 1811.38 -4.26952 -0.448413 0
M  V30 19634 C 1810.61 -5.1484 -1.40627 0
M  V30 19635 O 1810.83 -5.05508 -2.6423 0
M  V30 19636 O 1809.77 -5.9481 -0.921143 0
M  V30 19637 H 1813.59 -2.98664 0.550754 0
M  V30 19638 H 1811.18 -1.45589 0.335297 0
M  V30 19639 H 1813.06 -3.83276 -1.75149 0
M  V30 19640 H 1811.74 -2.64269 -1.86931 0
M  V30 19641 H 1810.64 -3.73698 0.17336 0
M  V30 19642 H 1811.98 -4.91759 0.208419 0
M  V30 19643 N 1813.63 -0.312197 -1.54477 0
M  V30 19644 C 1814.86 0.295632 -2.04474 0
M  V30 19645 C 1815.27 1.47211 -1.18851 0
M  V30 19646 O 1814.61 1.82503 -0.209347 0
M  V30 19647 C 1814.67 0.804123 -3.50391 0
M  V30 19648 C 1814.34 -0.248547 -4.56324 0
M  V30 19649 C 1815.33 -1.0808 -5.08542 0
M  V30 19650 C 1813.02 -0.393467 -5.00757 0
M  V30 19651 C 1815.01 -2.04381 -6.03744 0
M  V30 19652 C 1812.7 -1.35991 -5.95777 0
M  V30 19653 C 1813.7 -2.18355 -6.47155 0
M  V30 19654 O 1813.38 -3.13359 -7.40311 0
M  V30 19655 H 1813.12 0.0665366 -0.672718 0
M  V30 19656 H 1815.67 -0.45308 -2.00341 0
M  V30 19657 H 1813.9 1.60355 -3.51885 0
M  V30 19658 H 1815.59 1.32905 -3.83524 0
M  V30 19659 H 1816.36 -0.979766 -4.75001 0
M  V30 19660 H 1812.23 0.237709 -4.60387 0
M  V30 19661 H 1815.78 -2.68708 -6.43771 0
M  V30 19662 H 1811.68 -1.46162 -6.28734 0
M  V30 19663 H 1812.44 -3.08467 -7.58149 0
M  V30 19664 N 1815.11 1.57549 -0.040136 0
M  V30 19665 C 1816.07 2.09788 0.923126 0
M  V30 19666 C 1817.07 1.01518 1.24703 0
M  V30 19667 O 1818.26 1.27635 1.18554 0
M  V30 19668 C 1815.39 2.57293 2.23636 0
M  V30 19669 H 1816.58 2.96187 0.470482 0
M  V30 19670 H 1814.14 1.54909 0.208088 0
M  V30 19671 H 1814.87 1.74256 2.73506 0
M  V30 19672 H 1814.66 3.36402 2.01435 0
M  V30 19673 H 1816.15 2.97895 2.92658 0
M  V30 19674 N 1816.58 -0.233136 1.55866 0
M  V30 19675 C 1817.86 -0.982866 1.69113 0
M  V30 19676 C 1818.24 -2.0286 0.584041 0
M  V30 19677 O 1817.59 -2.24781 -0.410606 0
M  V30 19678 C 1817.8 -1.60378 3.09967 0
M  V30 19679 C 1819.15 -2.10044 3.69008 0
M  V30 19680 O 1820.17 -1.70294 3.12855 0
M  V30 19681 O 1819.03 -2.8307 4.67476 0
M  V30 19682 H 1816.12 -0.458373 0.688348 0
M  V30 19683 H 1818.67 -0.225833 1.68191 0
M  V30 19684 H 1817.44 -0.848104 3.81999 0
M  V30 19685 H 1817.07 -2.42666 3.14959 0
M  V30 19686 N 1818.06 -1.49479 -0.499372 0
M  V30 19687 C 1819.01 -1.66268 -1.60073 0
M  V30 19688 C 1819.98 -0.504137 -1.58265 0
M  V30 19689 O 1821.17 -0.731358 -1.76227 0
M  V30 19690 C 1818.31 -1.73678 -2.98211 0
M  V30 19691 C 1817.42 -3.00848 -3.10023 0
M  V30 19692 C 1816.55 -2.99227 -4.38904 0
M  V30 19693 C 1815.59 -4.20969 -4.44355 0
M  V30 19694 N 1814.73 -4.17249 -5.64666 0
M  V30 19695 H 1819.57 -2.60308 -1.45065 0
M  V30 19696 H 1817.11 -1.29063 -0.705774 0
M  V30 19697 H 1819.06 -1.75956 -3.7828 0
M  V30 19698 H 1817.69 -0.831037 -3.11919 0
M  V30 19699 H 1816.75 -3.08175 -2.23008 0
M  V30 19700 H 1818.06 -3.90841 -3.09911 0
M  V30 19701 H 1817.21 -3.00076 -5.27294 0
M  V30 19702 H 1815.95 -2.07015 -4.41584 0
M  V30 19703 H 1814.96 -4.20362 -3.54366 0
M  V30 19704 H 1816.18 -5.14376 -4.4339 0
M  V30 19705 H 1814.13 -3.27875 -5.68185 0
M  V30 19706 H 1814.04 -5.00979 -5.66177 0
M  V30 19707 H 1815.31 -4.22203 -6.55259 0
M  V30 19708 N 1819.54 0.750537 -1.38581 0
M  V30 19709 C 1820.79 1.50512 -1.34272 0
M  V30 19710 C 1821.1 1.95496 0.0636858 0
M  V30 19711 O 1822.31 2.7053 0.22932 0
M  V30 19712 C 1820.77 2.71891 -2.35803 0
M  V30 19713 C 1820.37 2.3392 -3.8208 0
M  V30 19714 C 1822.12 3.4977 -2.40543 0
M  V30 19715 C 1820.02 3.51928 -4.7529 0
M  V30 19716 H 1818.95 0.56515 -0.49912 0
M  V30 19717 H 1821.61 0.820167 -1.64151 0
M  V30 19718 H 1819.99 3.42383 -1.98972 0
M  V30 19719 H 1821.16 1.71075 -4.27867 0
M  V30 19720 H 1819.48 1.69168 -3.80488 0
M  V30 19721 H 1822.07 4.37519 -3.07379 0
M  V30 19722 H 1822.42 3.91141 -1.42527 0
M  V30 19723 H 1822.95 2.86294 -2.76189 0
M  V30 19724 H 1819.69 3.15621 -5.74512 0
M  V30 19725 H 1819.21 4.13807 -4.34194 0
M  V30 19726 H 1820.89 4.1847 -4.93449 0
M  V30 19727 N 1821.02 1.235 0.979051 0
M  V30 19728 C 1822.27 1.06791 1.72052 0
M  V30 19729 C 1822.59 -0.395002 1.90447 0
M  V30 19730 O 1821.85 -1.30872 1.45503 0
M  V30 19731 C 1822.15 1.74004 3.12182 0
M  V30 19732 C 1821.81 3.23924 3.13662 0
M  V30 19733 C 1820.48 3.64828 3.13774 0
M  V30 19734 C 1822.83 4.19818 3.08872 0
M  V30 19735 C 1820.16 5.00083 3.06813 0
M  V30 19736 C 1822.51 5.55066 3.03454 0
M  V30 19737 C 1821.17 5.95332 3.01888 0
M  V30 19738 H 1820.44 0.390774 0.629584 0
M  V30 19739 H 1823.09 1.53452 1.14563 0
M  V30 19740 H 1821.39 1.19705 3.73066 0
M  V30 19741 H 1823.09 1.58551 3.68324 0
M  V30 19742 H 1819.68 2.91363 3.14334 0
M  V30 19743 H 1823.87 3.89225 3.07925 0
M  V30 19744 H 1819.12 5.30492 3.03954 0
M  V30 19745 H 1823.3 6.29085 2.98705 0
M  V30 19746 H 1820.92 7.001 2.96249 0
M  V30 19747 N 1822.5 -1.17802 1.04693 0
M  V30 19748 C 1823.73 -1.91867 0.774246 0
M  V30 19749 C 1824.14 -1.76534 -0.669425 0
M  V30 19750 O 1823.5 -1.09915 -1.45688 0
M  V30 19751 C 1823.55 -3.43086 1.13904 0
M  V30 19752 O 1823.27 -3.57943 2.52604 0
M  V30 19753 C 1824.77 -4.34238 0.891767 0
M  V30 19754 H 1821.99 -0.60892 0.281882 0
M  V30 19755 H 1824.53 -1.49414 1.39627 0
M  V30 19756 H 1822.69 -3.83304 0.561863 0
M  V30 19757 H 1823.1 -4.51599 2.66756 0
M  V30 19758 H 1824.58 -5.3887 1.1968 0
M  V30 19759 H 1825.05 -4.38858 -0.17323 0
M  V30 19760 H 1825.66 -3.99727 1.45254 0
M  V30 19761 N 1823.98 -0.827251 -1.34143 0
M  V30 19762 C 1825.21 -0.429878 -2.02078 0
M  V30 19763 C 1825.61 0.970141 -1.62434 0
M  V30 19764 O 1824.96 1.63997 -0.827692 0
M  V30 19765 C 1825.02 -0.457493 -3.56577 0
M  V30 19766 C 1824.68 -1.8116 -4.19559 0
M  V30 19767 C 1825.68 -2.7731 -4.39767 0
M  V30 19768 C 1823.36 -2.10126 -4.56237 0
M  V30 19769 C 1825.36 -4.00596 -4.95784 0
M  V30 19770 C 1823.05 -3.33672 -5.11963 0
M  V30 19771 C 1824.04 -4.28724 -5.31681 0
M  V30 19772 O 1823.73 -5.50086 -5.86226 0
M  V30 19773 H 1823.46 -0.170259 -0.654208 0
M  V30 19774 H 1826.02 -1.11808 -1.72303 0
M  V30 19775 H 1824.25 0.287424 -3.8563 0
M  V30 19776 H 1825.94 -0.0795677 -4.05822 0
M  V30 19777 H 1826.7 -2.56228 -4.11791 0
M  V30 19778 H 1822.58 -1.36941 -4.40191 0
M  V30 19779 H 1826.13 -4.74798 -5.11089 0
M  V30 19780 H 1822.02 -3.54615 -5.39369 0
M  V30 19781 H 1822.79 -5.51665 -6.04655 0
M  V30 19782 N 1825.45 1.46436 -0.582609 0
M  V30 19783 C 1826.7 2.01592 -0.0658642 0
M  V30 19784 C 1827.02 1.45972 1.30198 0
M  V30 19785 O 1828.22 1.92948 1.91006 0
M  V30 19786 C 1826.68 3.59837 -0.0671547 0
M  V30 19787 C 1826.29 4.24453 -1.43331 0
M  V30 19788 C 1828.03 4.22652 0.395652 0
M  V30 19789 C 1825.94 5.74777 -1.39233 0
M  V30 19790 H 1824.87 0.753712 -0.0208533 0
M  V30 19791 H 1827.52 1.6817 -0.734241 0
M  V30 19792 H 1825.9 3.90336 0.667385 0
M  V30 19793 H 1827.07 4.05564 -2.18757 0
M  V30 19794 H 1825.39 3.73732 -1.83613 0
M  V30 19795 H 1827.99 5.32844 0.445101 0
M  V30 19796 H 1828.33 3.91581 1.41316 0
M  V30 19797 H 1828.86 3.96779 -0.284821 0
M  V30 19798 H 1825.6 6.10508 -2.38664 0
M  V30 19799 H 1825.12 5.9593 -0.680268 0
M  V30 19800 H 1826.8 6.37491 -1.1052 0
M  V30 19801 N 1826.93 0.320385 1.54309 0
M  V30 19802 C 1828.18 -0.283143 2.00511 0
M  V30 19803 C 1828.51 -1.52391 1.2086 0
M  V30 19804 O 1827.76 -1.93716 0.277955 0
M  V30 19805 C 1828.06 -0.665444 3.5115 0
M  V30 19806 C 1827.73 0.475789 4.48383 0
M  V30 19807 C 1826.39 0.789037 4.74687 0
M  V30 19808 C 1828.74 1.24253 5.06172 0
M  V30 19809 C 1826.07 1.87181 5.5604 0
M  V30 19810 C 1828.42 2.31537 5.88705 0
M  V30 19811 C 1827.08 2.63447 6.13312 0
M  V30 19812 H 1826.35 -0.103609 0.733721 0
M  V30 19813 H 1829 0.443504 1.86294 0
M  V30 19814 H 1827.31 -1.47247 3.63078 0
M  V30 19815 H 1829 -1.14391 3.84338 0
M  V30 19816 H 1825.59 0.221559 4.28027 0
M  V30 19817 H 1829.78 1.01379 4.85835 0
M  V30 19818 H 1825.03 2.12354 5.73337 0
M  V30 19819 H 1829.21 2.91395 6.32504 0
M  V30 19820 H 1826.83 3.47477 6.76139 0
M  V30 19821 N 1828.41 -1.57525 0.0484906 0
M  V30 19822 C 1829.66 -1.91761 -0.625335 0
M  V30 19823 C 1829.97 -0.928421 -1.72162 0
M  V30 19824 O 1831.18 -1.16273 -2.45342 0
M  V30 19825 C 1829.63 -3.40571 -1.1636 0
M  V30 19826 C 1829.24 -4.47889 -0.0995687 0
M  V30 19827 C 1830.99 -3.83845 -1.81282 0
M  V30 19828 C 1828.89 -5.87811 -0.650563 0
M  V30 19829 H 1827.82 -0.71567 -0.237346 0
M  V30 19830 H 1830.47 -1.83127 0.116944 0
M  V30 19831 H 1828.86 -3.44201 -1.95811 0
M  V30 19832 H 1830.03 -4.55846 0.673904 0
M  V30 19833 H 1828.34 -4.13939 0.452038 0
M  V30 19834 H 1830.94 -4.8575 -2.23497 0
M  V30 19835 H 1831.28 -3.19947 -2.66345 0
M  V30 19836 H 1831.82 -3.8272 -1.08491 0
M  V30 19837 H 1828.56 -6.55299 0.162371 0
M  V30 19838 H 1828.08 -5.83422 -1.39208 0
M  V30 19839 H 1829.76 -6.36979 -1.1343 0
M  V30 19840 N 1829.89 0.224867 -1.55988 0
M  V30 19841 C 1830.82 1.28192 -1.95164 0
M  V30 19842 C 1831.8 1.49062 -0.81942 0
M  V30 19843 O 1832.98 1.61301 -1.08146 0
M  V30 19844 C 1830.11 2.63237 -2.26547 0
M  V30 19845 C 1829.07 2.57029 -3.42228 0
M  V30 19846 C 1828.39 3.96073 -3.59207 0
M  V30 19847 C 1829.69 2.12101 -4.77295 0
M  V30 19848 H 1831.39 0.956495 -2.8371 0
M  V30 19849 H 1828.93 0.458673 -1.365 0
M  V30 19850 H 1830.89 3.37341 -2.52545 0
M  V30 19851 H 1829.61 2.97461 -1.3485 0
M  V30 19852 H 1828.27 1.85382 -3.16273 0
M  V30 19853 H 1827.92 4.27599 -2.64892 0
M  V30 19854 H 1827.62 3.92802 -4.37013 0
M  V30 19855 H 1829.14 4.71844 -3.8755 0
M  V30 19856 H 1830.56 2.75946 -5.0252 0
M  V30 19857 H 1828.95 2.19895 -5.5836 0
M  V30 19858 H 1830.02 1.07319 -4.72875 0
M  V30 19859 N 1831.37 1.49742 0.491438 0
M  V30 19860 C 1832.28 1.69866 1.6181 0
M  V30 19861 C 1833.29 0.581386 1.64 0
M  V30 19862 O 1834.47 0.857263 1.82244 0
M  V30 19863 C 1831.53 1.76965 2.98135 0
M  V30 19864 C 1830.59 3.00597 3.06496 0
M  V30 19865 C 1829.83 3.07348 4.36317 0
M  V30 19866 O 1830.05 2.21432 5.25665 0
M  V30 19867 O 1828.98 3.99898 4.4985 0
M  V30 19868 H 1832.81 2.65332 1.47759 0
M  V30 19869 H 1830.39 1.33596 0.668761 0
M  V30 19870 H 1832.28 1.83932 3.7914 0
M  V30 19871 H 1830.95 0.846807 3.12427 0
M  V30 19872 H 1829.86 2.99142 2.24643 0
M  V30 19873 H 1831.19 3.92393 2.97133 0
M  V30 19874 N 1832.84 -0.743177 1.38977 0
M  V30 19875 C 1833.78 -1.86554 1.31427 0
M  V30 19876 C 1834.76 -1.61493 0.189386 0
M  V30 19877 O 1835.94 -1.84864 0.368464 0
M  V30 19878 C 1833.07 -3.22375 1.03884 0
M  V30 19879 C 1832.11 -3.66308 2.18451 0
M  V30 19880 S 1832.95 -3.76628 3.80672 0
M  V30 19881 C 1834.1 -5.15253 3.55338 0
M  V30 19882 H 1834.33 -1.92674 2.26416 0
M  V30 19883 H 1831.87 -0.907215 1.24936 0
M  V30 19884 H 1833.83 -4.00807 0.88677 0
M  V30 19885 H 1832.49 -3.13921 0.105952 0
M  V30 19886 H 1831.68 -4.64852 1.94752 0
M  V30 19887 H 1831.28 -2.95058 2.29819 0
M  V30 19888 H 1833.57 -6.01333 3.12097 0
M  V30 19889 H 1834.52 -5.43977 4.53315 0
M  V30 19890 H 1834.92 -4.84542 2.89619 0
M  V30 19891 N 1834.32 -1.24018 -0.972487 0
M  V30 19892 C 1835.25 -1.0529 -2.08414 0
M  V30 19893 C 1836.23 0.0326663 -1.70069 0
M  V30 19894 O 1837.42 -0.133494 -1.93741 0
M  V30 19895 C 1834.55 -0.651796 -3.41129 0
M  V30 19896 C 1833.5 -1.68559 -3.9341 0
M  V30 19897 C 1832.83 -1.1397 -5.22413 0
M  V30 19898 C 1834.13 -3.08046 -4.21788 0
M  V30 19899 H 1835.82 -1.98272 -2.2434 0
M  V30 19900 H 1833.37 -0.954694 -1.07804 0
M  V30 19901 H 1835.32 -0.507792 -4.18329 0
M  V30 19902 H 1834.05 0.313722 -3.2509 0
M  V30 19903 H 1832.7 -1.81773 -3.18362 0
M  V30 19904 H 1832.35 -0.164928 -5.0273 0
M  V30 19905 H 1832.05 -1.83051 -5.5836 0
M  V30 19906 H 1833.58 -1.00771 -6.02227 0
M  V30 19907 H 1834.99 -2.98088 -4.8971 0
M  V30 19908 H 1833.39 -3.74436 -4.68954 0
M  V30 19909 H 1834.46 -3.56444 -3.28749 0
M  V30 19910 N 1835.8 1.17245 -1.05316 0
M  V30 19911 C 1836.73 2.23491 -0.67631 0
M  V30 19912 C 1837.71 1.66937 0.326507 0
M  V30 19913 O 1838.9 1.93127 0.203823 0
M  V30 19914 C 1836.03 3.47262 -0.0515755 0
M  V30 19915 C 1834.98 4.16646 -0.97929 0
M  V30 19916 C 1834.31 5.34254 -0.218369 0
M  V30 19917 C 1835.61 4.68736 -2.30399 0
M  V30 19918 H 1837.3 2.55269 -1.56455 0
M  V30 19919 H 1834.85 1.22699 -0.753714 0
M  V30 19920 H 1836.8 4.20805 0.223865 0
M  V30 19921 H 1835.52 3.14755 0.871614 0
M  V30 19922 H 1834.18 3.45017 -1.23931 0
M  V30 19923 H 1833.83 4.97998 0.707624 0
M  V30 19924 H 1833.53 5.81615 -0.83654 0
M  V30 19925 H 1835.05 6.1058 0.0497574 0
M  V30 19926 H 1836.47 5.3391 -2.08837 0
M  V30 19927 H 1834.87 5.2668 -2.87625 0
M  V30 19928 H 1835.94 3.85477 -2.94169 0
M  V30 19929 N 1837.28 0.834353 1.33702 0
M  V30 19930 C 1838.23 0.26233 2.29304 0
M  V30 19931 C 1839.2 -0.619326 1.54122 0
M  V30 19932 O 1840.38 -0.558551 1.82441 0
M  V30 19933 C 1837.52 -0.560341 3.4052 0
M  V30 19934 C 1836.63 0.344832 4.30622 0
M  V30 19935 C 1835.77 -0.488505 5.28949 0
M  V30 19936 C 1834.81 0.415341 6.10689 0
M  V30 19937 N 1833.94 -0.3796 7.01073 0
M  V30 19938 H 1838.78 1.08291 2.77628 0
M  V30 19939 H 1836.32 0.545497 1.36612 0
M  V30 19940 H 1838.28 -1.05274 4.03699 0
M  V30 19941 H 1836.91 -1.34593 2.93402 0
M  V30 19942 H 1835.96 0.955519 3.68204 0
M  V30 19943 H 1837.27 1.03935 4.87851 0
M  V30 19944 H 1836.43 -1.04492 5.97634 0
M  V30 19945 H 1835.17 -1.21648 4.72285 0
M  V30 19946 H 1834.17 0.983803 5.40926 0
M  V30 19947 H 1835.4 1.1416 6.69436 0
M  V30 19948 H 1833.34 -1.09103 6.46864 0
M  V30 19949 H 1833.26 0.25629 7.55565 0
M  V30 19950 H 1834.53 -0.918394 7.74071 0
M  V30 19951 N 1838.76 -1.46125 0.590367 0
M  V30 19952 C 1840 -2.03212 0.0873611 0
M  V30 19953 C 1840.36 -1.45275 -1.26146 0
M  V30 19954 O 1839.65 -0.61136 -1.81585 0
M  V30 19955 C 1839.84 -3.57388 -0.0287217 0
M  V30 19956 C 1839.67 -4.30279 1.3073 0
M  V30 19957 C 1838.44 -4.68885 1.88347 0
M  V30 19958 C 1840.64 -4.63332 2.23223 0
M  V30 19959 N 1838.62 -5.26559 3.15609 0
M  V30 19960 C 1839.99 -5.21656 3.35075 0
M  V30 19961 C 1842.05 -4.45265 2.22808 0
M  V30 19962 C 1840.75 -5.63819 4.46655 0
M  V30 19963 C 1842.78 -4.88449 3.33424 0
M  V30 19964 C 1842.14 -5.46851 4.43996 0
M  V30 19965 H 1838.24 -0.778402 0.0749284 0
M  V30 19966 H 1840.82 -1.78176 0.784946 0
M  V30 19967 H 1838.99 -3.82122 -0.69549 0
M  V30 19968 H 1840.73 -4.01124 -0.536811 0
M  V30 19969 H 1837.48 -4.51889 1.41751 0
M  V30 19970 H 1837.91 -5.5991 3.80565 0
M  V30 19971 H 1842.55 -3.99441 1.3859 0
M  V30 19972 H 1840.27 -6.08618 5.3161 0
M  V30 19973 H 1843.85 -4.76216 3.3423 0
M  V30 19974 H 1842.73 -5.79655 5.28176 0
M  V30 19975 N 1840.23 -0.328564 -1.54137 0
M  V30 19976 C 1841.48 0.273427 -1.99838 0
M  V30 19977 C 1841.8 1.52851 -1.22049 0
M  V30 19978 O 1843 2.20681 -1.58152 0
M  V30 19979 C 1841.46 0.537757 -3.5586 0
M  V30 19980 C 1841.07 -0.700562 -4.42489 0
M  V30 19981 C 1842.81 1.09943 -4.10016 0
M  V30 19982 C 1840.72 -0.40786 -5.89992 0
M  V30 19983 H 1839.65 0.105947 -0.746519 0
M  V30 19984 H 1842.3 -0.441565 -1.78108 0
M  V30 19985 H 1840.68 1.31307 -3.73597 0
M  V30 19986 H 1841.85 -1.47583 -4.36527 0
M  V30 19987 H 1840.17 -1.1828 -3.99248 0
M  V30 19988 H 1842.77 1.33312 -5.17815 0
M  V30 19989 H 1843.11 2.05035 -3.62307 0
M  V30 19990 H 1843.64 0.385182 -3.95931 0
M  V30 19991 H 1840.38 -1.32809 -6.41905 0
M  V30 19992 H 1839.9 0.329604 -5.98894 0
M  V30 19993 H 1841.58 -0.0195391 -6.46997 0
M  V30 19994 N 1841.71 1.57497 -0.0568439 0
M  V30 19995 C 1842.68 2.10755 0.900823 0
M  V30 19996 C 1843.68 1.02835 1.23619 0
M  V30 19997 O 1844.87 1.28885 1.17194 0
M  V30 19998 C 1842 2.5965 2.20895 0
M  V30 19999 H 1843.19 2.96669 0.439041 0
M  V30 20000 H 1840.74 1.55121 0.191646 0
M  V30 20001 H 1841.48 1.77147 2.71642 0
M  V30 20002 H 1841.26 3.3852 1.97855 0
M  V30 20003 H 1842.75 3.00982 2.89482 0
M  V30 20004 N 1843.19 -0.216591 1.56105 0
M  V30 20005 C 1844.42 -0.955625 1.8317 0
M  V30 20006 C 1844.83 -1.78247 0.634397 0
M  V30 20007 O 1844.17 -1.79148 -0.406391 0
M  V30 20008 C 1844.23 -1.91834 3.04039 0
M  V30 20009 C 1843.9 -1.27553 4.38838 0
M  V30 20010 C 1844.89 -0.662972 5.15656 0
M  V30 20011 C 1842.58 -1.28582 4.85564 0
M  V30 20012 C 1844.57 -0.0692674 6.37362 0
M  V30 20013 C 1842.26 -0.688269 6.07212 0
M  V30 20014 C 1843.26 -0.0810524 6.82952 0
M  V30 20015 O 1842.95 0.507186 8.02298 0
M  V30 20016 H 1842.68 -0.285405 0.612797 0
M  V30 20017 H 1845.23 -0.235419 2.04046 0
M  V30 20018 H 1843.46 -2.67767 2.78994 0
M  V30 20019 H 1845.15 -2.52334 3.17934 0
M  V30 20020 H 1845.92 -0.647319 4.80661 0
M  V30 20021 H 1841.8 -1.74784 4.26581 0
M  V30 20022 H 1845.34 0.405305 6.96422 0
M  V30 20023 H 1841.24 -0.701352 6.41679 0
M  V30 20024 H 1842.01 0.401989 8.17512 0
M  V30 20025 N 1844.67 -1.5 -0.48349 0
M  V30 20026 C 1845.92 -1.60052 -1.23401 0
M  V30 20027 C 1846.24 -0.297159 -1.92723 0
M  V30 20028 O 1845.51 0.684629 -1.83547 0
M  V30 20029 H 1844.09 -0.589753 -0.458477 0
M  V30 20030 H 1846.75 -1.86716 -0.558835 0
M  V30 20031 H 1845.85 -2.40545 -1.98858 0
M  V30 20032 N 1846.15 0.735796 -1.39369 0
M  V30 20033 C 1847.38 1.52283 -1.39619 0
M  V30 20034 C 1847.78 1.89197 0.0112732 0
M  V30 20035 O 1847.13 1.54562 0.992786 0
M  V30 20036 C 1847.19 2.83993 -2.20427 0
M  V30 20037 C 1846.85 2.69518 -3.69065 0
M  V30 20038 C 1847.85 2.38119 -4.62164 0
M  V30 20039 C 1845.54 2.86414 -4.12641 0
M  V30 20040 C 1847.53 2.23797 -5.9682 0
M  V30 20041 C 1845.22 2.7171 -5.47373 0
M  V30 20042 C 1846.21 2.40447 -6.39277 0
M  V30 20043 O 1845.9 2.25833 -7.71527 0
M  V30 20044 H 1845.63 0.477218 -0.478789 0
M  V30 20045 H 1848.19 0.916936 -1.83797 0
M  V30 20046 H 1846.42 3.46839 -1.70996 0
M  V30 20047 H 1848.11 3.45606 -2.12865 0
M  V30 20048 H 1848.87 2.24717 -4.29799 0
M  V30 20049 H 1844.75 3.0974 -3.41441 0
M  V30 20050 H 1848.3 1.99316 -6.6852 0
M  V30 20051 H 1844.19 2.8469 -5.79329 0
M  V30 20052 H 1844.96 2.40909 -7.82244 0
M  V30 20053 N 1847.63 1.24532 0.965897 0
M  V30 20054 C 1848.57 1.03929 2.06076 0
M  V30 20055 C 1849.54 -0.0479997 1.66031 0
M  V30 20056 O 1850.73 0.106979 1.905 0
M  V30 20057 C 1847.87 0.652084 3.38883 0
M  V30 20058 C 1846.98 1.81304 3.92113 0
M  V30 20059 C 1846.12 1.37125 5.13196 0
M  V30 20060 C 1845.15 2.50204 5.58627 0
M  V30 20061 N 1844.29 2.0688 6.70929 0
M  V30 20062 H 1849.13 1.97636 2.23033 0
M  V30 20063 H 1846.67 0.984356 1.09311 0
M  V30 20064 H 1848.63 0.408608 4.15194 0
M  V30 20065 H 1847.26 -0.247995 3.21846 0
M  V30 20066 H 1846.31 2.17013 3.12425 0
M  V30 20067 H 1847.62 2.66264 4.21788 0
M  V30 20068 H 1846.77 1.08676 5.96887 0
M  V30 20069 H 1845.51 0.492215 4.8521 0
M  V30 20070 H 1844.52 2.7941 4.73508 0
M  V30 20071 H 1845.74 3.38667 5.88627 0
M  V30 20072 H 1843.69 1.21377 6.44673 0
M  V30 20073 H 1843.61 2.85392 7.00062 0
M  V30 20074 H 1844.87 1.81575 7.58057 0
M  V30 20075 N 1849.1 -1.16685 1.05936 0
M  V30 20076 C 1850.33 -1.91035 0.794553 0
M  V30 20077 C 1850.75 -1.77234 -0.650663 0
M  V30 20078 O 1850.1 -1.11454 -1.44514 0
M  V30 20079 C 1850.15 -3.41859 1.17536 0
M  V30 20080 O 1849.88 -3.55243 2.56386 0
M  V30 20081 C 1851.38 -4.33267 0.937774 0
M  V30 20082 H 1848.6 -0.605896 0.288325 0
M  V30 20083 H 1851.14 -1.47925 1.41203 0
M  V30 20084 H 1849.3 -3.82686 0.602486 0
M  V30 20085 H 1849.71 -4.48744 2.71531 0
M  V30 20086 H 1851.18 -5.3757 1.25389 0
M  V30 20087 H 1851.66 -4.39017 -0.126673 0
M  V30 20088 H 1852.27 -3.98163 1.49486 0
M  V30 20089 N 1850.58 -0.841432 -1.33258 0
M  V30 20090 C 1851.81 -0.451287 -2.01611 0
M  V30 20091 C 1852.22 0.952858 -1.63454 0
M  V30 20092 O 1851.56 1.6311 -0.845039 0
M  V30 20093 C 1851.62 -0.495287 -3.56072 0
M  V30 20094 C 1851.29 -1.856 -4.17614 0
M  V30 20095 C 1852.29 -2.81959 -4.36801 0
M  V30 20096 C 1849.97 -2.14953 -4.53983 0
M  V30 20097 C 1851.96 -4.05832 -4.91507 0
M  V30 20098 C 1849.65 -3.39083 -5.08395 0
M  V30 20099 C 1850.65 -4.34339 -5.27104 0
M  V30 20100 O 1850.34 -5.56273 -5.80359 0
M  V30 20101 H 1850.07 -0.177188 -0.652365 0
M  V30 20102 H 1852.62 -1.13629 -1.71107 0
M  V30 20103 H 1850.85 0.246506 -3.85914 0
M  V30 20104 H 1852.54 -0.122606 -4.05715 0
M  V30 20105 H 1853.31 -2.60582 -4.0905 0
M  V30 20106 H 1849.19 -1.41602 -4.38714 0
M  V30 20107 H 1852.73 -4.80192 -5.06025 0
M  V30 20108 H 1848.63 -3.60316 -5.35577 0
M  V30 20109 H 1849.4 -5.58047 -5.9877 0
M  V30 20110 N 1852.06 1.4581 -0.598108 0
M  V30 20111 C 1853.31 2.02302 -0.0896112 0
M  V30 20112 C 1853.63 1.46772 1.27625 0
M  V30 20113 O 1852.89 0.628712 1.85326 0
M  V30 20114 C 1853.19 3.57399 0.00976809 0
M  V30 20115 C 1852.85 4.32038 -1.29051 0
M  V30 20116 C 1851.52 4.52147 -1.64671 0
M  V30 20117 C 1853.87 4.74776 -2.15028 0
M  V30 20118 C 1851.2 5.12249 -2.86038 0
M  V30 20119 C 1853.55 5.3622 -3.35635 0
M  V30 20120 C 1852.21 5.54554 -3.71519 0
M  V30 20121 H 1851.48 0.740274 -0.0327911 0
M  V30 20122 H 1854.13 1.74992 -0.77783 0
M  V30 20123 H 1852.43 3.83933 0.781201 0
M  V30 20124 H 1854.13 3.98803 0.419212 0
M  V30 20125 H 1850.72 4.16693 -1.00324 0
M  V30 20126 H 1854.91 4.58982 -1.8881 0
M  V30 20127 H 1850.16 5.24633 -3.13958 0
M  V30 20128 H 1854.34 5.68292 -4.02514 0
M  V30 20129 H 1851.96 6.00894 -4.65651 0
M  V30 20130 N 1853.54 0.336733 1.53961 0
M  V30 20131 C 1854.77 -0.263446 2.05216 0
M  V30 20132 C 1855.18 -1.44752 1.21212 0
M  V30 20133 O 1854.54 -1.80837 0.245844 0
M  V30 20134 C 1854.59 -0.685127 3.54948 0
M  V30 20135 O 1854.31 0.451854 4.35764 0
M  V30 20136 C 1855.81 -1.34674 4.22348 0
M  V30 20137 H 1853.03 -0.0520687 0.668977 0
M  V30 20138 H 1855.57 0.486744 1.98623 0
M  V30 20139 H 1853.73 -1.38527 3.61786 0
M  V30 20140 H 1854.14 0.117076 5.24369 0
M  V30 20141 H 1855.62 -1.59261 5.28526 0
M  V30 20142 H 1856.09 -2.29818 3.74273 0
M  V30 20143 H 1856.7 -0.688817 4.19685 0
M  V30 20144 N 1855.02 -1.57465 0.0651956 0
M  V30 20145 C 1855.96 -2.13542 -0.922087 0
M  V30 20146 C 1856.96 -1.07067 -1.31275 0
M  V30 20147 O 1858.16 -1.25456 -1.29076 0
M  V30 20148 H 1854.54 -0.682718 -0.315277 0
M  V30 20149 H 1856.51 -2.9537 -0.424138 0
M  V30 20150 C 1855.26 -2.70663 -2.18258 0
M  V30 20151 H 1854.58 -3.52262 -1.8908 0
M  V30 20152 H 1856.02 -3.13505 -2.85466 0
M  V30 20153 C 1854.48 -1.65106 -2.93669 0
M  V30 20154 O 1855.01 -1.07214 -3.87128 0
M  V30 20155 N 1853.22 -1.36296 -2.56655 0
M  V30 20156 H 1852.76 -1.83562 -1.80728 0
M  V30 20157 H 1852.72 -0.659013 -3.07416 0
M  V30 20158 N 1856.49 0.20831 -1.56217 0
M  V30 20159 C 1857.46 1.24178 -1.92646 0
M  V30 20160 C 1858.46 1.39125 -0.806274 0
M  V30 20161 O 1859.65 1.37163 -1.07386 0
M  V30 20162 C 1856.78 2.61342 -2.18891 0
M  V30 20163 H 1857.97 0.930748 -2.85091 0
M  V30 20164 H 1855.52 0.449285 -1.49703 0
M  V30 20165 H 1856.26 2.97521 -1.29041 0
M  V30 20166 H 1856.04 2.51866 -3.00509 0
M  V30 20167 H 1857.53 3.35892 -2.48125 0
M  V30 20168 N 1857.97 1.50255 0.475528 0
M  V30 20169 C 1859.22 1.6223 1.22691 0
M  V30 20170 C 1859.57 0.316569 1.89778 0
M  V30 20171 O 1858.87 -0.685188 1.78929 0
M  V30 20172 C 1859.06 2.73698 2.29835 0
M  V30 20173 C 1858.89 4.14984 1.73259 0
M  V30 20174 C 1857.66 4.81444 1.53428 0
M  V30 20175 C 1859.86 4.99374 1.23004 0
M  V30 20176 N 1857.84 6.0696 0.920483 0
M  V30 20177 C 1859.21 6.15578 0.739186 0
M  V30 20178 C 1861.26 4.85182 1.11816 0
M  V30 20179 C 1859.97 7.19149 0.147502 0
M  V30 20180 C 1861.99 5.88926 0.540422 0
M  V30 20181 C 1861.36 7.04375 0.0599282 0
M  V30 20182 H 1857.45 0.647828 0.437999 0
M  V30 20183 H 1860.04 1.87357 0.529653 0
M  V30 20184 H 1858.21 2.503 2.96992 0
M  V30 20185 H 1859.94 2.75055 2.96861 0
M  V30 20186 H 1856.7 4.38663 1.78526 0
M  V30 20187 H 1857.12 6.74042 0.632126 0
M  V30 20188 H 1861.76 3.96215 1.47559 0
M  V30 20189 H 1859.48 8.07795 -0.222137 0
M  V30 20190 H 1863.07 5.80008 0.456289 0
M  V30 20191 H 1861.95 7.83278 -0.380127 0
M  V30 20192 N 1859.45 -0.728395 1.39758 0
M  V30 20193 C 1860.69 -1.50065 1.38779 0
M  V30 20194 C 1861.05 -1.91994 -0.0146977 0
M  V30 20195 O 1862.25 -2.68384 -0.149524 0
M  V30 20196 C 1860.53 -2.70258 2.33871 0
M  V30 20197 S 1862.08 -3.59826 2.51139 0
M  V30 20198 H 1858.9 -0.513225 0.492058 0
M  V30 20199 H 1861.5 -0.852912 1.75914 0
M  V30 20200 H 1860.21 -2.37605 3.34622 0
M  V30 20201 H 1859.74 -3.39955 1.97975 0
M  V30 20202 H 1861.75 -4.64157 1.75423 0
M  V30 20203 N 1860.93 -1.25042 -0.959279 0
M  V30 20204 C 1862.17 -1.10684 -1.70647 0
M  V30 20205 C 1862.53 0.349371 -1.89201 0
M  V30 20206 O 1861.82 1.25413 -1.44852 0
M  V30 20207 C 1862.02 -1.78948 -3.09374 0
M  V30 20208 C 1861.84 -3.31058 -3.04353 0
M  V30 20209 C 1860.61 -4.00297 -3.08367 0
M  V30 20210 C 1862.81 -4.27526 -2.85878 0
M  V30 20211 N 1860.79 -5.3922 -2.93454 0
M  V30 20212 C 1862.17 -5.53502 -2.79349 0
M  V30 20213 C 1864.22 -4.17998 -2.70523 0
M  V30 20214 C 1862.92 -6.7104 -2.59033 0
M  V30 20215 C 1864.95 -5.35222 -2.51577 0
M  V30 20216 C 1864.31 -6.60136 -2.45764 0
M  V30 20217 H 1860.41 -0.4597 -0.632613 0
M  V30 20218 H 1862.99 -1.58077 -1.13665 0
M  V30 20219 H 1861.17 -1.34057 -3.64532 0
M  V30 20220 H 1862.9 -1.57374 -3.72848 0
M  V30 20221 H 1859.65 -3.51523 -3.17378 0
M  V30 20222 H 1860.08 -6.12114 -2.89215 0
M  V30 20223 H 1864.72 -3.22175 -2.73794 0
M  V30 20224 H 1862.44 -7.66977 -2.54504 0
M  V30 20225 H 1866.02 -5.29707 -2.40627 0
M  V30 20226 H 1864.9 -7.49315 -2.31294 0
M  V30 20227 N 1862.41 1.16121 -1.06553 0
M  V30 20228 C 1863.34 2.22761 -0.699976 0
M  V30 20229 C 1864.32 1.67274 0.308783 0
M  V30 20230 O 1865.5 1.93333 0.183328 0
M  V30 20231 C 1862.63 3.47187 -0.0884044 0
M  V30 20232 C 1861.59 4.15584 -1.02343 0
M  V30 20233 C 1860.91 5.33992 -0.275022 0
M  V30 20234 C 1862.21 4.66266 -2.35358 0
M  V30 20235 H 1863.91 2.53595 -1.59153 0
M  V30 20236 H 1861.45 1.21893 -0.766686 0
M  V30 20237 H 1863.41 4.21019 0.17922 0
M  V30 20238 H 1862.13 3.15661 0.838181 0
M  V30 20239 H 1860.79 3.43683 -1.27584 0
M  V30 20240 H 1860.44 4.9872 0.654765 0
M  V30 20241 H 1860.14 5.80695 -0.898181 0
M  V30 20242 H 1861.66 6.10598 -0.0150056 0
M  V30 20243 H 1863.07 5.31665 -2.14488 0
M  V30 20244 H 1861.47 5.236 -2.93195 0
M  V30 20245 H 1862.54 3.82335 -2.98241 0
M  V30 20246 N 1863.88 0.848487 1.3281 0
M  V30 20247 C 1865.16 0.370395 1.92061 0
M  V30 20248 C 1865.54 -1.14535 1.77327 0
M  V30 20249 O 1864.89 -1.96419 1.16756 0
M  V30 20250 C 1865.1 0.827934 3.39037 0
M  V30 20251 C 1866.45 0.841527 4.16177 0
M  V30 20252 O 1867.47 0.772167 3.4773 0
M  V30 20253 O 1866.33 0.938119 5.38388 0
M  V30 20254 H 1863.42 0.106809 0.820074 0
M  V30 20255 H 1865.97 0.934979 1.4162 0
M  V30 20256 H 1864.74 1.87089 3.43676 0
M  V30 20257 H 1864.37 0.240456 3.96872 0
M  V30 20258 N 1865.36 -1.4549 0.605832 0
M  V30 20259 C 1866.61 -2.02251 0.100338 0
M  V30 20260 C 1866.94 -1.47447 -1.26845 0
M  V30 20261 O 1866.19 -0.638532 -1.8499 0
M  V30 20262 C 1866.49 -3.57399 0.00918576 0
M  V30 20263 C 1866.16 -4.31347 1.31341 0
M  V30 20264 C 1864.82 -4.51267 1.67067 0
M  V30 20265 C 1867.17 -4.73629 2.17543 0
M  V30 20266 C 1864.5 -5.10725 2.88751 0
M  V30 20267 C 1866.85 -5.34432 3.38474 0
M  V30 20268 C 1865.52 -5.52576 3.74455 0
M  V30 20269 H 1864.79 -0.74009 0.0367165 0
M  V30 20270 H 1867.43 -1.74577 0.787099 0
M  V30 20271 H 1865.74 -3.84342 -0.760829 0
M  V30 20272 H 1867.43 -3.99019 -0.398057 0
M  V30 20273 H 1864.02 -4.16155 1.02533 0
M  V30 20274 H 1868.21 -4.57974 1.91241 0
M  V30 20275 H 1863.46 -5.22961 3.16736 0
M  V30 20276 H 1867.64 -5.66149 4.05522 0
M  V30 20277 H 1865.27 -5.98416 4.68831 0
M  V30 20278 N 1866.84 -0.344893 -1.5378 0
M  V30 20279 C 1867.77 0.503579 -2.28005 0
M  V30 20280 C 1868.75 1.10149 -1.29619 0
M  V30 20281 O 1869.94 1.12263 -1.58463 0
M  V30 20282 C 1867.07 1.65398 -3.05386 0
M  V30 20283 C 1866.02 1.18434 -4.11288 0
M  V30 20284 C 1865.35 2.42336 -4.76631 0
M  V30 20285 C 1866.65 0.283853 -5.21528 0
M  V30 20286 H 1868.34 -0.115619 -2.99177 0
M  V30 20287 H 1865.89 -0.0570472 -1.43887 0
M  V30 20288 H 1867.84 2.25401 -3.56051 0
M  V30 20289 H 1866.56 2.3001 -2.31869 0
M  V30 20290 H 1865.22 0.607115 -3.61538 0
M  V30 20291 H 1864.87 3.05358 -3.99707 0
M  V30 20292 H 1864.57 2.11594 -5.4818 0
M  V30 20293 H 1866.09 3.03063 -5.3008 0
M  V30 20294 H 1867.51 0.790766 -5.6782 0
M  V30 20295 H 1865.91 0.0682509 -6.00061 0
M  V30 20296 H 1866.98 -0.679653 -4.80113 0
M  V30 20297 N 1868.32 1.57428 -0.0735454 0
M  V30 20298 C 1869.57 1.92732 0.594748 0
M  V30 20299 C 1869.88 0.955693 1.70663 0
M  V30 20300 O 1871.09 1.20162 2.43461 0
M  V30 20301 C 1869.54 3.42379 1.10927 0
M  V30 20302 C 1869.15 4.47991 0.0283008 0
M  V30 20303 C 1870.89 3.8668 1.75153 0
M  V30 20304 C 1868.8 5.88771 0.556965 0
M  V30 20305 H 1867.73 0.719355 0.22593 0
M  V30 20306 H 1870.38 1.82918 -0.146063 0
M  V30 20307 H 1868.76 3.47272 1.9031 0
M  V30 20308 H 1869.94 4.54716 -0.74634 0
M  V30 20309 H 1868.25 4.13168 -0.517835 0
M  V30 20310 H 1870.85 4.89244 2.15741 0
M  V30 20311 H 1871.19 3.24144 2.61221 0
M  V30 20312 H 1871.73 3.84397 1.02389 0
M  V30 20313 H 1868.47 6.54958 -0.266602 0
M  V30 20314 H 1867.99 5.85563 1.29909 0
M  V30 20315 H 1869.66 6.38703 1.03281 0
M  V30 20316 N 1869.8 -0.200022 1.56326 0
M  V30 20317 C 1871.04 -0.922539 1.80602 0
M  V30 20318 C 1871.38 -1.83113 0.646781 0
M  V30 20319 O 1870.65 -1.91271 -0.352928 0
M  V30 20320 C 1870.93 -1.74301 3.15105 0
M  V30 20321 C 1870.79 -0.859471 4.41512 0
M  V30 20322 C 1872.11 -2.71658 3.46251 0
M  V30 20323 H 1869.22 -0.333949 0.656999 0
M  V30 20324 H 1871.87 -0.190177 1.89046 0
M  V30 20325 H 1870.02 -2.36739 3.08037 0
M  V30 20326 H 1871.69 -0.250183 4.60621 0
M  V30 20327 H 1869.93 -0.165935 4.33483 0
M  V30 20328 H 1870.6 -1.46842 5.3211 0
M  V30 20329 H 1873.08 -2.19353 3.53586 0
M  V30 20330 H 1871.95 -3.26152 4.41493 0
M  V30 20331 H 1872.22 -3.50462 2.69497 0
M  V30 20332 N 1871.27 -1.50505 -0.467553 0
M  V30 20333 C 1872.55 -1.52191 -1.22871 0
M  V30 20334 C 1872.93 -0.268616 -2.09384 0
M  V30 20335 O 1872.28 0.747802 -2.15917 0
M  V30 20336 C 1872.49 -2.8196 -2.05669 0
M  V30 20337 C 1873.84 -3.32757 -2.63739 0
M  V30 20338 O 1874.86 -2.83305 -2.15909 0
M  V30 20339 O 1873.72 -4.18969 -3.50895 0
M  V30 20340 H 1870.81 -0.610599 -0.557761 0
M  V30 20341 H 1873.36 -1.62797 -0.479085 0
M  V30 20342 H 1872.13 -3.64649 -1.41939 0
M  V30 20343 H 1871.76 -2.74374 -2.87758 0
M  V30 20344 N 1872.75 0.720973 -1.40142 0
M  V30 20345 C 1874 1.48297 -1.38332 0
M  V30 20346 C 1874.33 1.94193 0.0162191 0
M  V30 20347 O 1873.61 1.67781 0.983853 0
M  V30 20348 C 1873.89 2.71283 -2.36807 0
M  V30 20349 C 1873.74 2.31316 -3.85763 0
M  V30 20350 C 1875.06 3.73426 -2.32897 0
M  V30 20351 H 1872.18 0.537922 -0.503794 0
M  V30 20352 H 1874.82 0.823265 -1.71238 0
M  V30 20353 H 1872.97 3.27571 -2.08877 0
M  V30 20354 H 1874.64 1.80551 -4.24499 0
M  V30 20355 H 1872.89 1.63379 -4.01858 0
M  V30 20356 H 1873.56 3.19449 -4.50174 0
M  V30 20357 H 1876.03 3.26755 -2.57624 0
M  V30 20358 H 1874.91 4.57124 -3.03856 0
M  V30 20359 H 1875.17 4.21343 -1.33876 0
M  V30 20360 N 1874.23 1.25549 0.952634 0
M  V30 20361 C 1875.46 1.13262 1.73743 0
M  V30 20362 C 1875.88 -0.309507 1.85536 0
M  V30 20363 O 1875.24 -1.22422 1.33726 0
M  V30 20364 C 1875.29 1.79395 3.12809 0
M  V30 20365 O 1874.39 1.07496 3.98144 0
M  V30 20366 H 1873.73 0.395314 0.5335 0
M  V30 20367 H 1876.26 1.66151 1.19394 0
M  V30 20368 H 1876.27 1.85761 3.63259 0
M  V30 20369 H 1874.95 2.84316 3.03542 0
M  V30 20370 H 1873.52 1.09025 3.56606 0
M  V30 20371 N 1875.71 -1.15554 1.07168 0
M  V30 20372 C 1876.64 -2.22387 0.71178 0
M  V30 20373 C 1877.62 -1.67435 -0.299908 0
M  V30 20374 O 1878.8 -1.93427 -0.173073 0
M  V30 20375 C 1875.93 -3.47136 0.106815 0
M  V30 20376 C 1874.89 -4.15035 1.04545 0
M  V30 20377 C 1874.21 -5.33839 0.303337 0
M  V30 20378 C 1875.51 -4.65011 2.37827 0
M  V30 20379 H 1877.21 -2.52748 1.60496 0
M  V30 20380 H 1874.75 -1.21485 0.773139 0
M  V30 20381 H 1876.71 -4.21108 -0.15689 0
M  V30 20382 H 1875.43 -3.16101 -0.821429 0
M  V30 20383 H 1874.09 -3.43001 1.29405 0
M  V30 20384 H 1873.74 -4.9906 -0.628308 0
M  V30 20385 H 1873.44 -5.8021 0.928964 0
M  V30 20386 H 1874.96 -6.10582 0.0473869 0
M  V30 20387 H 1876.38 -5.3052 2.17305 0
M  V30 20388 H 1874.77 -5.22038 2.95967 0
M  V30 20389 H 1875.84 -3.80748 3.00264 0
M  V30 20390 N 1877.19 -0.855519 -1.32358 0
M  V30 20391 C 1878.43 -0.460002 -1.97514 0
M  V30 20392 C 1878.77 0.982052 -1.67539 0
M  V30 20393 O 1878.04 1.68925 -0.964091 0
M  V30 20394 C 1878.32 -0.70064 -3.53218 0
M  V30 20395 C 1878.18 -2.19118 -3.9282 0
M  V30 20396 C 1879.5 -0.157597 -4.39818 0
M  V30 20397 H 1876.62 -0.168606 -0.717455 0
M  V30 20398 H 1879.26 -1.0741 -1.56726 0
M  V30 20399 H 1877.41 -0.177937 -3.88092 0
M  V30 20400 H 1879.08 -2.78002 -3.6812 0
M  V30 20401 H 1877.32 -2.66934 -3.41948 0
M  V30 20402 H 1877.99 -2.31024 -5.0133 0
M  V30 20403 H 1880.47 -0.604597 -4.11684 0
M  V30 20404 H 1879.35 -0.355532 -5.47747 0
M  V30 20405 H 1879.61 0.939679 -4.31998 0
M  V30 20406 N 1878.67 1.45167 -0.61354 0
M  V30 20407 C 1879.89 2.06565 -0.117608 0
M  V30 20408 C 1880.31 1.45716 1.20051 0
M  V30 20409 O 1879.67 0.573512 1.73254 0
M  V30 20410 C 1879.72 3.61493 0.0221474 0
M  V30 20411 O 1879.44 4.20072 -1.24383 0
M  V30 20412 C 1880.94 4.39889 0.548841 0
M  V30 20413 H 1878.16 0.667172 -0.0715756 0
M  V30 20414 H 1880.7 1.86318 -0.84296 0
M  V30 20415 H 1878.86 3.81063 0.697854 0
M  V30 20416 H 1879.27 5.13317 -1.07733 0
M  V30 20417 H 1880.75 5.48776 0.595696 0
M  V30 20418 H 1881.22 4.1009 1.57234 0
M  V30 20419 H 1881.83 4.25198 -0.0930203 0
M  V30 20420 N 1880.14 0.353044 1.53595 0
M  V30 20421 C 1881.07 -0.491481 2.28269 0
M  V30 20422 C 1882.05 -1.0946 1.30201 0
M  V30 20423 O 1883.24 -1.11421 1.59056 0
M  V30 20424 C 1880.37 -1.63776 3.06259 0
M  V30 20425 C 1879.32 -1.16251 4.1191 0
M  V30 20426 C 1878.65 -2.39805 4.7791 0
M  V30 20427 C 1879.95 -0.256191 5.21671 0
M  V30 20428 H 1881.64 0.131483 2.99111 0
M  V30 20429 H 1879.19 0.0646771 1.43855 0
M  V30 20430 H 1881.14 -2.2351 3.57241 0
M  V30 20431 H 1879.87 -2.28777 2.33085 0
M  V30 20432 H 1878.53 -0.587934 3.61855 0
M  V30 20433 H 1878.17 -3.03234 4.0132 0
M  V30 20434 H 1877.87 -2.08684 5.49295 0
M  V30 20435 H 1879.4 -3.00248 5.3168 0
M  V30 20436 H 1880.81 -0.760642 5.68232 0
M  V30 20437 H 1879.21 -0.0364273 6.00089 0
M  V30 20438 H 1880.28 0.705105 4.79746 0
M  V30 20439 N 1881.62 -1.57387 0.0818932 0
M  V30 20440 C 1882.87 -1.94156 -0.585765 0
M  V30 20441 C 1883.2 -0.962889 -1.68648 0
M  V30 20442 O 1882.48 0.00625819 -1.94499 0
M  V30 20443 C 1882.76 -3.41132 -1.15329 0
M  V30 20444 C 1882.61 -4.49762 -0.0585349 0
M  V30 20445 C 1883.93 -3.89137 -2.05573 0
M  V30 20446 H 1881.05 -0.706012 -0.211463 0
M  V30 20447 H 1883.69 -1.89408 0.149918 0
M  V30 20448 H 1881.84 -3.4531 -1.78026 0
M  V30 20449 H 1883.51 -4.57702 0.575061 0
M  V30 20450 H 1881.76 -4.29496 0.609574 0
M  V30 20451 H 1882.43 -5.49765 -0.496206 0
M  V30 20452 H 1884.9 -3.87029 -1.52798 0
M  V30 20453 H 1883.78 -4.92569 -2.42213 0
M  V30 20454 H 1884.04 -3.27663 -2.96799 0
M  V30 20455 N 1883.1 0.191729 -1.56429 0
M  V30 20456 C 1884.06 1.22128 -1.93952 0
M  V30 20457 C 1885.06 1.38262 -0.820984 0
M  V30 20458 O 1886.25 1.36017 -1.08835 0
M  V30 20459 C 1883.38 2.59005 -2.21651 0
M  V30 20460 H 1884.58 0.900458 -2.86063 0
M  V30 20461 H 1882.13 0.433382 -1.50172 0
M  V30 20462 H 1882.87 2.96136 -1.32189 0
M  V30 20463 H 1882.65 2.48665 -3.03164 0
M  V30 20464 H 1884.14 3.33242 -2.51674 0
M  V30 20465 N 1884.58 1.50751 0.459565 0
M  V30 20466 C 1885.53 1.70997 1.57679 0
M  V30 20467 C 1886.52 0.575925 1.59309 0
M  V30 20468 O 1887.73 0.756735 1.6332 0
M  V30 20469 H 1884.1 0.539921 0.52344 0
M  V30 20470 H 1886.07 2.64693 1.37769 0
M  V30 20471 C 1884.82 1.83187 2.9553 0
M  V30 20472 H 1884.14 2.69844 2.94998 0
M  V30 20473 H 1885.58 2.01374 3.73128 0
M  V30 20474 C 1884.04 0.586222 3.31761 0
M  V30 20475 O 1884.57 -0.269358 4.00796 0
M  V30 20476 N 1882.78 0.436839 2.87298 0
M  V30 20477 H 1882.33 1.13413 2.31291 0
M  V30 20478 H 1882.28 -0.395424 3.11903 0
M  V30 20479 N 1886.06 -0.713531 1.40522 0
M  V30 20480 C 1887.28 -1.5026 1.4223 0
M  V30 20481 C 1887.7 -1.88787 0.0225637 0
M  V30 20482 O 1887.06 -1.55581 -0.95398 0
M  V30 20483 C 1887.11 -2.77663 2.31486 0
M  V30 20484 O 1886.83 -2.40765 3.66011 0
M  V30 20485 C 1888.33 -3.71543 2.41807 0
M  V30 20486 H 1885.55 -0.463648 0.485048 0
M  V30 20487 H 1888.09 -0.88 1.84598 0
M  V30 20488 H 1886.25 -3.36203 1.92475 0
M  V30 20489 H 1886.66 -3.22757 4.13434 0
M  V30 20490 H 1888.14 -4.57771 3.08464 0
M  V30 20491 H 1888.61 -4.14792 1.44375 0
M  V30 20492 H 1889.22 -3.18914 2.81379 0
M  V30 20493 N 1887.53 -1.26053 -0.945962 0
M  V30 20494 C 1888.46 -1.09687 -2.06134 0
M  V30 20495 C 1889.44 -0.00341513 -1.701 0
M  V30 20496 O 1890.63 -0.174559 -1.93414 0
M  V30 20497 C 1887.76 -0.724007 -3.3967 0
M  V30 20498 C 1886.71 -1.76866 -3.89747 0
M  V30 20499 C 1886.04 -1.25025 -5.19878 0
M  V30 20500 C 1887.34 -3.16923 -4.15159 0
M  V30 20501 H 1889.03 -2.02986 -2.20084 0
M  V30 20502 H 1886.58 -0.977346 -1.05754 0
M  V30 20503 H 1888.53 -0.596411 -4.17158 0
M  V30 20504 H 1887.26 0.244695 -3.25682 0
M  V30 20505 H 1885.92 -1.88485 -3.14435 0
M  V30 20506 H 1885.56 -0.271527 -5.02267 0
M  V30 20507 H 1885.26 -1.94853 -5.54352 0
M  V30 20508 H 1886.79 -1.13523 -5.99954 0
M  V30 20509 H 1888.2 -3.08409 -4.83277 0
M  V30 20510 H 1886.6 -3.84299 -4.60906 0
M  V30 20511 H 1887.67 -3.63337 -3.21114 0
M  V30 20512 N 1889.01 1.14984 -1.07779 0
M  V30 20513 C 1890.26 1.85506 -0.802 0
M  V30 20514 C 1890.58 1.82981 0.674026 0
M  V30 20515 O 1889.85 1.27376 1.48836 0
M  V30 20516 H 1888.43 0.686845 -0.293689 0
M  V30 20517 H 1891.09 1.39368 -1.36244 0
M  V30 20518 H 1890.19 2.90518 -1.14042 0
M  V30 20519 N 1890.49 0.862526 1.31902 0
M  V30 20520 C 1891.72 0.483304 2.00867 0
M  V30 20521 C 1892.13 -0.926733 1.64949 0
M  V30 20522 O 1891.47 -1.61745 0.870881 0
M  V30 20523 C 1891.53 0.551872 3.55239 0
M  V30 20524 C 1891.2 1.9222 4.14609 0
M  V30 20525 C 1892.19 2.88872 4.3226 0
M  V30 20526 C 1889.88 2.22149 4.50506 0
M  V30 20527 C 1891.87 4.136 4.84988 0
M  V30 20528 C 1889.56 3.47128 5.02937 0
M  V30 20529 C 1890.56 4.4267 5.20127 0
M  V30 20530 O 1890.25 5.65435 5.71435 0
M  V30 20531 H 1889.98 0.187544 0.649464 0
M  V30 20532 H 1892.53 1.16337 1.69278 0
M  V30 20533 H 1890.76 -0.18508 3.86257 0
M  V30 20534 H 1892.45 0.187136 4.05468 0
M  V30 20535 H 1893.22 2.67056 4.04853 0
M  V30 20536 H 1889.1 1.48564 4.36406 0
M  V30 20537 H 1892.64 4.88182 4.98321 0
M  V30 20538 H 1888.54 3.68791 5.29777 0
M  V30 20539 H 1889.3 5.67503 5.89816 0
M  V30 20540 N 1891.97 -1.4484 0.62123 0
M  V30 20541 C 1893.19 -2.07012 0.126801 0
M  V30 20542 C 1893.62 -1.46046 -1.18542 0
M  V30 20543 O 1892.98 -0.558202 -1.72493 0
M  V30 20544 C 1893.02 -3.60597 0.0150611 0
M  V30 20545 O 1892.13 -3.9929 -1.03157 0
M  V30 20546 H 1891.47 -0.659131 0.0802646 0
M  V30 20547 H 1894 -1.85874 0.855105 0
M  V30 20548 H 1894.01 -4.07608 -0.178742 0
M  V30 20549 H 1892.68 -4.04354 0.973153 0
M  V30 20550 H 1891.26 -3.63927 -0.813135 0
M  V30 20551 N 1893.45 -0.361184 -1.53405 0
M  V30 20552 C 1894.72 0.286047 -1.93497 0
M  V30 20553 C 1895.1 1.66764 -1.29434 0
M  V30 20554 O 1894.45 2.23989 -0.451785 0
M  V30 20555 C 1894.66 0.340663 -3.47333 0
M  V30 20556 C 1896.01 0.58311 -4.20577 0
M  V30 20557 O 1897.03 0.422054 -3.53691 0
M  V30 20558 O 1895.89 0.896383 -5.39099 0
M  V30 20559 H 1892.99 0.17059 -0.809215 0
M  V30 20560 H 1895.53 -0.413648 -1.64581 0
M  V30 20561 H 1894.3 -0.628175 -3.86225 0
M  V30 20562 H 1893.93 1.08643 -3.82469 0
M  V30 20563 N 1894.92 1.57341 -0.0902386 0
M  V30 20564 C 1895.85 2.16782 0.86764 0
M  V30 20565 C 1896.84 1.09982 1.29761 0
M  V30 20566 O 1898.02 1.38099 1.36537 0
M  V30 20567 C 1895.15 2.74426 2.12856 0
M  V30 20568 C 1894.1 3.86555 1.83738 0
M  V30 20569 C 1893.43 4.3088 3.16617 0
M  V30 20570 C 1894.73 5.09971 1.12814 0
M  V30 20571 H 1896.42 2.97075 0.372417 0
M  V30 20572 H 1893.97 1.42899 0.177689 0
M  V30 20573 H 1895.92 3.14659 2.80299 0
M  V30 20574 H 1894.65 1.9138 2.64653 0
M  V30 20575 H 1893.31 3.46853 1.18694 0
M  V30 20576 H 1892.95 3.44732 3.66291 0
M  V30 20577 H 1892.65 5.06477 2.97918 0
M  V30 20578 H 1894.18 4.73743 3.85227 0
M  V30 20579 H 1895.59 5.47404 1.70358 0
M  V30 20580 H 1893.99 5.90965 1.04311 0
M  V30 20581 H 1895.06 4.84775 0.110114 0
M  V30 20582 N 1896.4 -0.183431 1.56529 0
M  V30 20583 C 1897.65 -0.900214 1.80944 0
M  V30 20584 C 1897.97 -1.83302 0.665246 0
M  V30 20585 O 1897.24 -1.9334 -0.315697 0
M  V30 20586 H 1895.82 -0.335409 0.667465 0
M  V30 20587 H 1898.48 -0.186146 1.94009 0
M  V30 20588 H 1897.58 -1.48437 2.74541 0
M  V30 20589 N 1897.88 -1.50992 -0.451564 0
M  V30 20590 C 1899.29 -1.55592 -1.03189 0
M  V30 20591 C 1899.64 -0.370923 -1.92662 0
M  V30 20592 O 1898.77 0.513972 -2.10208 0
M  V30 20593 C 1899.36 -2.81975 -1.87818 0
M  V30 20594 C 1897.92 -2.89192 -2.40925 0
M  V30 20595 C 1897.07 -2.50103 -1.19766 0
M  V30 20596 H 1900.02 -1.56974 -0.233388 0
M  V30 20597 H 1900.04 -2.64934 -2.73112 0
M  V30 20598 H 1899.55 -3.68203 -1.22672 0
M  V30 20599 H 1897.65 -2.07362 -3.09567 0
M  V30 20600 H 1897.77 -3.92529 -2.74696 0
M  V30 20601 H 1896.13 -2.02978 -1.53857 0
M  V30 20602 H 1896.91 -3.3866 -0.562517 0
M  V30 20603 N 1899.36 0.706069 -1.40899 0
M  V30 20604 C 1900.61 1.46164 -1.38993 0
M  V30 20605 C 1900.92 1.956 0.00145788 0
M  V30 20606 O 1902.13 2.71122 0.143137 0
M  V30 20607 C 1900.58 2.64252 -2.44334 0
M  V30 20608 C 1900.19 2.21646 -3.89329 0
M  V30 20609 C 1901.93 3.41941 -2.51549 0
M  V30 20610 C 1899.84 3.36629 -4.86245 0
M  V30 20611 H 1898.77 0.548985 -0.516847 0
M  V30 20612 H 1901.42 0.767528 -1.66677 0
M  V30 20613 H 1899.8 3.3588 -2.09764 0
M  V30 20614 H 1900.98 1.57376 -4.33093 0
M  V30 20615 H 1899.29 1.56978 -3.85677 0
M  V30 20616 H 1901.89 4.27518 -3.21142 0
M  V30 20617 H 1902.23 3.86409 -1.54899 0
M  V30 20618 H 1902.77 2.77363 -2.85158 0
M  V30 20619 H 1899.51 2.97183 -5.84262 0
M  V30 20620 H 1899.03 3.99784 -4.47139 0
M  V30 20621 H 1900.7 4.02559 -5.06513 0
M  V30 20622 N 1900.84 1.26553 0.939264 0
M  V30 20623 C 1901.78 1.08276 2.03826 0
M  V30 20624 C 1902.75 -0.0127713 1.66095 0
M  V30 20625 O 1903.94 0.147362 1.9023 0
M  V30 20626 C 1901.08 0.723819 3.37424 0
M  V30 20627 C 1900.19 1.8958 3.88179 0
M  V30 20628 C 1899.33 1.4798 5.10172 0
M  V30 20629 C 1898.37 2.61997 5.53194 0
M  V30 20630 N 1897.5 2.21064 6.66389 0
M  V30 20631 H 1902.34 2.02323 2.18791 0
M  V30 20632 H 1899.88 1.00732 1.07198 0
M  V30 20633 H 1901.84 0.496585 4.14234 0
M  V30 20634 H 1900.47 -0.179671 3.223 0
M  V30 20635 H 1899.52 2.23591 3.07752 0
M  V30 20636 H 1900.83 2.7515 4.16045 0
M  V30 20637 H 1899.99 1.21312 5.94448 0
M  V30 20638 H 1898.72 0.595025 4.84057 0
M  V30 20639 H 1897.73 2.89391 4.67475 0
M  V30 20640 H 1898.95 3.51076 5.81311 0
M  V30 20641 H 1896.9 1.35024 6.41954 0
M  V30 20642 H 1896.82 3.00177 6.93851 0
M  V30 20643 H 1898.09 1.97614 7.54035 0
M  V30 20644 N 1902.31 -1.14411 1.08387 0
M  V30 20645 C 1903.54 -1.89848 0.835015 0
M  V30 20646 C 1903.96 -1.78034 -0.607091 0
M  V30 20647 O 1903.32 -1.12039 -1.42538 0
M  V30 20648 C 1903.37 -3.37818 1.26141 0
M  V30 20649 O 1902.47 -4.10325 0.41322 0
M  V30 20650 H 1901.82 -0.590682 0.303299 0
M  V30 20651 H 1904.35 -1.44823 1.44525 0
M  V30 20652 H 1904.36 -3.88631 1.24218 0
M  V30 20653 H 1903.03 -3.45735 2.31172 0
M  V30 20654 H 1901.61 -3.69589 0.495854 0
M  V30 20655 N 1903.79 -0.869509 -1.31443 0
M  V30 20656 C 1904.72 -0.340679 -2.31001 0
M  V30 20657 C 1905.7 0.568186 -1.6033 0
M  V30 20658 O 1906.89 0.485305 -1.88038 0
M  V30 20659 C 1904.02 0.45909 -3.44252 0
M  V30 20660 C 1902.97 -0.356639 -4.26512 0
M  V30 20661 C 1902.3 0.568786 -5.31666 0
M  V30 20662 C 1903.6 -1.59045 -4.97496 0
M  V30 20663 H 1905.29 -1.1726 -2.75482 0
M  V30 20664 H 1902.84 -0.5653 -1.3244 0
M  V30 20665 H 1904.79 0.839573 -4.12952 0
M  V30 20666 H 1903.52 1.32451 -2.98537 0
M  V30 20667 H 1902.17 -0.719063 -3.59479 0
M  V30 20668 H 1901.82 1.43148 -4.82201 0
M  V30 20669 H 1901.52 0.0268906 -5.87594 0
M  V30 20670 H 1903.05 0.946122 -6.03225 0
M  V30 20671 H 1904.46 -1.28144 -5.58795 0
M  V30 20672 H 1902.86 -2.07139 -5.63217 0
M  V30 20673 H 1903.93 -2.34354 -4.24507 0
M  V30 20674 N 1905.27 1.44508 -0.628902 0
M  V30 20675 C 1906.69 1.56863 -0.294332 0
M  V30 20676 C 1906.89 1.6168 1.20257 0
M  V30 20677 O 1905.94 1.55862 1.98653 0
M  V30 20678 C 1907.26 2.84134 -0.984291 0
M  V30 20679 C 1908.8 2.97843 -0.962223 0
M  V30 20680 C 1909.28 4.27914 -1.6326 0
M  V30 20681 N 1910.77 4.34722 -1.59909 0
M  V30 20682 C 1911.5 5.34081 -2.08675 0
M  V30 20683 N 1911 6.39857 -2.65623 0
M  V30 20684 N 1912.79 5.25575 -1.99317 0
M  V30 20685 H 1904.94 1.39624 -1.60059 0
M  V30 20686 H 1907.21 0.66894 -0.671731 0
M  V30 20687 H 1906.91 2.86551 -2.03915 0
M  V30 20688 H 1906.79 3.73589 -0.520679 0
M  V30 20689 H 1909.17 2.9498 0.0841512 0
M  V30 20690 H 1909.26 2.09742 -1.4643 0
M  V30 20691 H 1908.9 4.31536 -2.67842 0
M  V30 20692 H 1908.83 5.14868 -1.10537 0
M  V30 20693 H 1911.32 3.58896 -1.18329 0
M  V30 20694 H 1911.63 7.11952 -3.00572 0
M  V30 20695 H 1909.98 6.40548 -2.69672 0
M  V30 20696 H 1913.17 4.4185 -1.54551 0
M  V30 20697 H 1913.34 6.02855 -2.37634 0
M  V30 20698 N 1906.75 0.369315 1.53212 0
M  V30 20699 C 1907.98 -0.219858 2.05729 0
M  V30 20700 C 1908.39 -1.42148 1.24255 0
M  V30 20701 O 1907.75 -1.80274 0.284146 0
M  V30 20702 C 1907.8 -0.609683 3.56322 0
M  V30 20703 O 1907.52 0.544184 4.34707 0
M  V30 20704 C 1909.02 -1.25685 4.2511 0
M  V30 20705 H 1906.24 -0.037867 0.669931 0
M  V30 20706 H 1908.79 0.528765 1.97546 0
M  V30 20707 H 1906.94 -1.30822 3.64643 0
M  V30 20708 H 1907.36 0.228276 5.24003 0
M  V30 20709 H 1908.83 -1.48014 5.31785 0
M  V30 20710 H 1909.31 -2.21827 3.79064 0
M  V30 20711 H 1909.91 -0.59964 4.21052 0
M  V30 20712 N 1908.23 -1.57291 0.0985816 0
M  V30 20713 C 1909.16 -2.17239 -0.856131 0
M  V30 20714 C 1910.14 -1.10669 -1.29176 0
M  V30 20715 O 1911.32 -1.38821 -1.35803 0
M  V30 20716 C 1908.45 -2.75551 -2.11398 0
M  V30 20717 C 1907.41 -3.87524 -1.81685 0
M  V30 20718 C 1906.73 -4.32553 -3.14327 0
M  V30 20719 C 1908.03 -5.10562 -1.10108 0
M  V30 20720 H 1909.73 -2.97268 -0.356657 0
M  V30 20721 H 1907.27 -1.42992 -0.170108 0
M  V30 20722 H 1909.23 -3.16141 -2.78627 0
M  V30 20723 H 1907.95 -1.92781 -2.63634 0
M  V30 20724 H 1906.61 -3.47478 -1.16853 0
M  V30 20725 H 1906.26 -3.46669 -3.64458 0
M  V30 20726 H 1905.96 -5.08049 -2.95228 0
M  V30 20727 H 1907.48 -4.7578 -3.82709 0
M  V30 20728 H 1908.9 -5.483 -1.67453 0
M  V30 20729 H 1907.29 -5.91509 -1.01176 0
M  V30 20730 H 1908.36 -4.84827 -0.0844041 0
M  V30 20731 N 1909.71 0.175127 -1.56624 0
M  V30 20732 C 1911.12 0.526752 -1.50657 0
M  V30 20733 C 1911.32 1.84844 -0.802173 0
M  V30 20734 O 1910.38 2.49907 -0.360958 0
M  V30 20735 C 1911.69 0.563029 -2.95382 0
M  V30 20736 C 1913.24 0.650493 -3.06166 0
M  V30 20737 C 1913.71 0.717698 -4.52342 0
M  V30 20738 N 1915.2 0.78069 -4.56574 0
M  V30 20739 C 1915.94 0.853199 -5.67017 0
M  V30 20740 N 1915.44 0.886777 -6.87101 0
M  V30 20741 N 1917.23 0.891926 -5.54978 0
M  V30 20742 H 1909.38 -0.69158 -2.00826 0
M  V30 20743 H 1911.64 -0.248884 -0.914746 0
M  V30 20744 H 1911.35 -0.339385 -3.50059 0
M  V30 20745 H 1911.22 1.41084 -3.49821 0
M  V30 20746 H 1913.61 1.54333 -2.51526 0
M  V30 20747 H 1913.69 -0.223919 -2.54818 0
M  V30 20748 H 1913.33 -0.170871 -5.07612 0
M  V30 20749 H 1913.26 1.6082 -5.01442 0
M  V30 20750 H 1915.76 0.763178 -3.70113 0
M  V30 20751 H 1916.07 0.943172 -7.67023 0
M  V30 20752 H 1914.41 0.855117 -6.89719 0
M  V30 20753 H 1917.6 0.862669 -4.60082 0
M  V30 20754 H 1917.78 0.944973 -6.41073 0
M  V30 20755 N 1911.18 1.5123 0.44355 0
M  V30 20756 C 1912.15 1.71511 1.52041 0
M  V30 20757 C 1913.15 0.585226 1.49772 0
M  V30 20758 O 1914.34 0.852687 1.51904 0
M  V30 20759 C 1911.47 1.76583 2.91601 0
M  V30 20760 H 1912.66 2.67613 1.35364 0
M  V30 20761 H 1910.21 1.41125 0.671811 0
M  V30 20762 H 1910.95 0.822743 3.1369 0
M  V30 20763 H 1910.73 2.58693 2.94653 0
M  V30 20764 H 1912.22 1.94135 3.69732 0
M  V30 20765 N 1912.66 -0.698586 1.41271 0
M  V30 20766 C 1913.59 -1.82505 1.4565 0
M  V30 20767 C 1914.57 -1.67149 0.315497 0
M  V30 20768 O 1915.76 -1.86926 0.526518 0
M  V30 20769 C 1912.89 -3.20616 1.33502 0
M  V30 20770 C 1911.84 -3.50672 2.45383 0
M  V30 20771 C 1911.17 -4.88107 2.18302 0
M  V30 20772 C 1912.47 -3.49952 3.87725 0
M  V30 20773 H 1914.16 -1.79098 2.39926 0
M  V30 20774 H 1911.71 -0.860237 1.15481 0
M  V30 20775 H 1913.66 -3.9913 1.35179 0
M  V30 20776 H 1912.38 -3.24642 0.357101 0
M  V30 20777 H 1911.04 -2.74507 2.42984 0
M  V30 20778 H 1910.69 -4.88755 1.1886 0
M  V30 20779 H 1910.39 -5.09182 2.9327 0
M  V30 20780 H 1911.92 -5.68934 2.21689 0
M  V30 20781 H 1913.33 -4.18476 3.91855 0
M  V30 20782 H 1911.73 -3.82559 4.62351 0
M  V30 20783 H 1912.8 -2.48988 4.16093 0
M  V30 20784 N 1914.14 -1.27049 -0.93254 0
M  V30 20785 C 1915.56 -1.04349 -1.20762 0
M  V30 20786 C 1915.76 0.225981 -2.00229 0
M  V30 20787 O 1914.81 0.932788 -2.34639 0
M  V30 20788 C 1916.12 -2.28004 -1.96048 0
M  V30 20789 C 1917.67 -2.32993 -2.09006 0
M  V30 20790 C 1918.15 -3.56364 -2.87696 0
M  V30 20791 N 1919.64 -3.56892 -2.95266 0
M  V30 20792 C 1920.37 -4.49022 -3.56604 0
M  V30 20793 N 1919.87 -5.51451 -4.19374 0
M  V30 20794 N 1921.66 -4.36656 -3.53961 0
M  V30 20795 H 1913.81 -2.0857 -0.401516 0
M  V30 20796 H 1916.08 -0.917061 -0.240213 0
M  V30 20797 H 1915.78 -3.20386 -1.45072 0
M  V30 20798 H 1915.66 -2.32937 -2.96682 0
M  V30 20799 H 1918.04 -1.41119 -2.5917 0
M  V30 20800 H 1918.12 -2.32065 -1.07607 0
M  V30 20801 H 1917.77 -4.48571 -2.38216 0
M  V30 20802 H 1917.7 -3.54541 -3.89369 0
M  V30 20803 H 1920.19 -2.82812 -2.5065 0
M  V30 20804 H 1920.5 -6.17924 -4.64101 0
M  V30 20805 H 1918.85 -5.55298 -4.17934 0
M  V30 20806 H 1922.04 -3.55848 -3.04122 0
M  V30 20807 H 1922.21 -5.08647 -4.01475 0
M  V30 20808 N 1915.62 1.13835 -1.08993 0
M  V30 20809 C 1917.03 1.66568 -0.843325 0
M  V30 20810 C 1917.38 1.85846 0.628955 0
M  V30 20811 O 1916.5 1.57401 1.48506 0
M  V30 20812 C 1917.1 3.02573 -1.52431 0
M  V30 20813 C 1915.66 3.52315 -1.3248 0
M  V30 20814 C 1914.81 2.27658 -1.58326 0
M  V30 20815 H 1917.76 0.978181 -1.24969 0
M  V30 20816 H 1917.78 3.68323 -0.954898 0
M  V30 20817 H 1917.29 2.8851 -2.59584 0
M  V30 20818 H 1915.39 3.71589 -0.274248 0
M  V30 20819 H 1915.5 4.32715 -2.05657 0
M  V30 20820 H 1913.87 2.34028 -1.00514 0
M  V30 20821 H 1914.65 2.16165 -2.66698 0
M  V30 20822 N 1917.1 0.876467 1.3098 0
M  V30 20823 C 1918.03 0.352925 2.30817 0
M  V30 20824 C 1919.01 -0.559675 1.60629 0
M  V30 20825 O 1920.19 -0.475326 1.88293 0
M  V30 20826 C 1917.32 -0.440827 3.44491 0
M  V30 20827 C 1916.28 0.379253 4.26316 0
M  V30 20828 C 1915.6 -0.540582 5.3196 0
M  V30 20829 C 1916.9 1.61682 4.96645 0
M  V30 20830 H 1918.6 1.18719 2.74857 0
M  V30 20831 H 1916.14 0.572316 1.32138 0
M  V30 20832 H 1918.09 -0.817661 4.13391 0
M  V30 20833 H 1916.82 -1.30866 2.99235 0
M  V30 20834 H 1915.48 0.738117 3.59092 0
M  V30 20835 H 1915.13 -1.40588 4.82953 0
M  V30 20836 H 1914.83 0.00427133 5.876 0
M  V30 20837 H 1916.35 -0.914118 6.03719 0
M  V30 20838 H 1917.76 1.31105 5.58108 0
M  V30 20839 H 1916.16 2.10123 5.62111 0
M  V30 20840 H 1917.23 2.36602 4.23258 0
M  V30 20841 N 1918.57 -1.44173 0.636557 0
M  V30 20842 C 1919.99 -1.56704 0.302646 0
M  V30 20843 C 1920.19 -1.62316 -1.19398 0
M  V30 20844 O 1919.25 -1.56914 -1.97824 0
M  V30 20845 C 1920.56 -2.83608 0.999346 0
M  V30 20846 C 1922.11 -2.97328 0.978005 0
M  V30 20847 C 1922.58 -4.27042 1.65527 0
M  V30 20848 N 1924.07 -4.33868 1.62212 0
M  V30 20849 C 1924.81 -5.32966 2.11505 0
M  V30 20850 N 1924.3 -6.38439 2.69012 0
M  V30 20851 N 1926.1 -5.24511 2.02102 0
M  V30 20852 H 1918.25 -1.38773 1.60797 0
M  V30 20853 H 1920.51 -0.665369 0.675269 0
M  V30 20854 H 1920.22 -2.85466 2.05432 0
M  V30 20855 H 1920.09 -3.73308 0.540484 0
M  V30 20856 H 1922.48 -2.9502 -0.0685065 0
M  V30 20857 H 1922.56 -2.08963 1.47541 0
M  V30 20858 H 1922.2 -4.30109 2.70126 0
M  V30 20859 H 1922.13 -5.14275 1.13266 0
M  V30 20860 H 1924.62 -3.58264 1.20231 0
M  V30 20861 H 1924.94 -7.10348 3.04344 0
M  V30 20862 H 1923.28 -6.39109 2.73066 0
M  V30 20863 H 1926.47 -4.41024 1.56892 0
M  V30 20864 H 1926.65 -6.01586 2.40828 0
M  V30 20865 N 1920.05 -0.377435 -1.53014 0
M  V30 20866 C 1921.01 0.451217 -2.24715 0
M  V30 20867 C 1922.01 1.00001 -1.25923 0
M  V30 20868 O 1923.2 0.883884 -1.5011 0
M  V30 20869 C 1920.34 1.63185 -2.99305 0
M  V30 20870 H 1921.53 -0.176358 -2.99381 0
M  V30 20871 H 1919.08 -0.12933 -1.55764 0
M  V30 20872 H 1919.82 2.29718 -2.2891 0
M  V30 20873 H 1919.6 1.24517 -3.71804 0
M  V30 20874 H 1921.09 2.2188 -3.53778 0
M  V30 20875 N 1921.53 1.57237 -0.106922 0
M  V30 20876 C 1922.46 2.1769 0.844599 0
M  V30 20877 C 1923.44 1.11352 1.28587 0
M  V30 20878 O 1924.63 1.39539 1.35065 0
M  V30 20879 C 1921.76 2.76668 2.09933 0
M  V30 20880 C 1920.71 3.88482 1.79627 0
M  V30 20881 C 1920.04 4.34214 3.12029 0
M  V30 20882 C 1921.34 5.11139 1.07399 0
M  V30 20883 H 1923.03 2.97453 0.340887 0
M  V30 20884 H 1920.58 1.4308 0.162523 0
M  V30 20885 H 1922.53 3.17614 2.76946 0
M  V30 20886 H 1921.25 1.94176 2.62608 0
M  V30 20887 H 1919.91 3.48093 1.15008 0
M  V30 20888 H 1919.56 3.48597 3.62614 0
M  V30 20889 H 1919.26 5.09608 2.9253 0
M  V30 20890 H 1920.78 4.77803 3.8018 0
M  V30 20891 H 1922.2 5.4918 1.64543 0
M  V30 20892 H 1920.6 5.92038 0.980375 0
M  V30 20893 H 1921.67 4.84864 0.0586914 0
M  V30 20894 N 1923.01 -0.166818 1.56715 0
M  V30 20895 C 1924.23 -0.902208 1.86748 0
M  V30 20896 C 1924.66 -1.74838 0.693767 0
M  V30 20897 O 1924.02 -1.77749 -0.35708 0
M  V30 20898 C 1924.06 -1.75107 3.1523 0
M  V30 20899 O 1923.17 -2.85319 2.9777 0
M  V30 20900 H 1922.51 -0.252474 0.614128 0
M  V30 20901 H 1925.04 -0.163603 2.03945 0
M  V30 20902 H 1925.05 -2.15009 3.46749 0
M  V30 20903 H 1923.72 -1.12955 4.00267 0
M  V30 20904 H 1922.3 -2.48967 2.77615 0
M  V30 20905 N 1924.49 -1.51463 -0.435524 0
M  V30 20906 C 1925.9 -1.39679 -0.772145 0
M  V30 20907 C 1926.1 -0.480546 -1.95686 0
M  V30 20908 O 1925.16 0.063611 -2.5242 0
M  V30 20909 C 1926.47 -2.81742 -1.05082 0
M  V30 20910 C 1928.02 -2.90905 -1.15514 0
M  V30 20911 C 1928.49 -4.33879 -1.46674 0
M  V30 20912 N 1929.99 -4.36993 -1.53594 0
M  V30 20913 C 1930.72 -5.44653 -1.79279 0
M  V30 20914 N 1930.22 -6.6247 -2.02744 0
M  V30 20915 N 1932.01 -5.32135 -1.81076 0
M  V30 20916 H 1924.16 -2.09584 0.344699 0
M  V30 20917 H 1926.42 -0.943543 0.0918199 0
M  V30 20918 H 1926.13 -3.50789 -0.252975 0
M  V30 20919 H 1926 -3.21179 -1.97798 0
M  V30 20920 H 1928.39 -2.22054 -1.94361 0
M  V30 20921 H 1928.47 -2.54961 -0.20695 0
M  V30 20922 H 1928.12 -5.03279 -0.683541 0
M  V30 20923 H 1928.05 -4.67337 -2.42702 0
M  V30 20924 H 1930.54 -3.52054 -1.37356 0
M  V30 20925 H 1930.85 -7.40311 -2.21718 0
M  V30 20926 H 1929.19 -6.65582 -2.00063 0
M  V30 20927 H 1932.39 -4.39076 -1.62264 0
M  V30 20928 H 1932.56 -6.16118 -2.00756 0
M  V30 20929 N 1925.96 0.691085 -1.4164 0
M  V30 20930 C 1927.21 1.45114 -1.41238 0
M  V30 20931 C 1927.54 1.94486 -0.0230695 0
M  V30 20932 O 1926.79 1.70206 0.96583 0
M  V30 20933 C 1927.09 2.67547 -2.36967 0
M  V30 20934 C 1926.76 2.36807 -3.8371 0
M  V30 20935 C 1925.42 2.28134 -4.23684 0
M  V30 20936 C 1927.77 2.11542 -4.7634 0
M  V30 20937 C 1925.1 1.92299 -5.54291 0
M  V30 20938 C 1927.45 1.77214 -6.07271 0
M  V30 20939 C 1926.12 1.6704 -6.46262 0
M  V30 20940 H 1925.39 0.531011 -0.516825 0
M  V30 20941 H 1928.03 0.789481 -1.74469 0
M  V30 20942 H 1926.34 3.38668 -1.97006 0
M  V30 20943 H 1928.04 3.25697 -2.33928 0
M  V30 20944 H 1924.63 2.44453 -3.52052 0
M  V30 20945 H 1928.81 2.17184 -4.46256 0
M  V30 20946 H 1924.07 1.82978 -5.83377 0
M  V30 20947 H 1928.24 1.56685 -6.78545 0
M  V30 20948 H 1925.87 1.3904 -7.47377 0
M  V30 20949 N 1927.44 1.27542 0.925789 0
M  V30 20950 C 1928.35 1.1225 2.06002 0
M  V30 20951 C 1929.37 0.0520487 1.73922 0
M  V30 20952 O 1930.54 0.258921 1.99729 0
M  V30 20953 C 1927.61 0.773231 3.37967 0
M  V30 20954 C 1926.67 1.92476 3.83733 0
M  V30 20955 C 1925.9 1.59206 5.09401 0
M  V30 20956 O 1926.13 0.500836 5.68197 0
M  V30 20957 O 1925.06 2.43185 5.50586 0
M  V30 20958 H 1928.89 2.07439 2.21817 0
M  V30 20959 H 1926.47 1.06747 1.04525 0
M  V30 20960 H 1928.35 0.591863 4.17223 0
M  V30 20961 H 1927.03 -0.149116 3.23356 0
M  V30 20962 H 1925.94 2.1612 3.05357 0
M  V30 20963 H 1927.27 2.82738 4.02889 0
M  V30 20964 N 1928.92 -1.13255 1.09595 0
M  V30 20965 C 1930.17 -1.84206 0.831411 0
M  V30 20966 C 1930.49 -1.8403 -0.64483 0
M  V30 20967 O 1929.76 -1.29728 -1.46791 0
M  V30 20968 H 1928.34 -0.682085 0.304579 0
M  V30 20969 H 1931 -1.37183 1.38444 0
M  V30 20970 H 1930.1 -2.88667 1.18649 0
M  V30 20971 N 1930.4 -0.883401 -1.30514 0
M  V30 20972 C 1931.33 -0.293631 -2.26303 0
M  V30 20973 C 1932.31 0.584908 -1.51715 0
M  V30 20974 O 1933.49 0.535352 -1.80738 0
M  V30 20975 C 1930.62 0.582932 -3.33646 0
M  V30 20976 C 1929.67 -0.226068 -4.259 0
M  V30 20977 S 1930.5 -1.61333 -5.10619 0
M  V30 20978 C 1931.66 -0.743252 -6.21471 0
M  V30 20979 H 1931.89 -1.10559 -2.75978 0
M  V30 20980 H 1929.42 -0.682729 -1.38485 0
M  V30 20981 H 1931.38 1.08294 -3.95958 0
M  V30 20982 H 1930.04 1.36897 -2.82698 0
M  V30 20983 H 1929.23 0.442796 -5.02051 0
M  V30 20984 H 1928.84 -0.65864 -3.68155 0
M  V30 20985 H 1931.13 0.0404453 -6.77488 0
M  V30 20986 H 1932.07 -1.47631 -6.92539 0
M  V30 20987 H 1932.48 -0.304852 -5.63676 0
M  V30 20988 N 1931.88 1.43833 -0.644194 0
M  V30 20989 C 1933.29 1.56542 -0.310952 0
M  V30 20990 C 1933.49 1.62946 1.18536 0
M  V30 20991 O 1932.55 1.57961 1.96989 0
M  V30 20992 C 1933.86 2.83074 -1.01437 0
M  V30 20993 C 1935.41 2.96805 -0.993759 0
M  V30 20994 C 1935.88 4.26158 -1.6779 0
M  V30 20995 N 1937.38 4.33002 -1.64511 0
M  V30 20996 C 1938.11 5.31837 -2.14328 0
M  V30 20997 N 1937.61 6.37003 -2.72394 0
M  V30 20998 N 1939.4 5.23431 -2.04881 0
M  V30 20999 H 1931.55 1.37919 -1.61531 0
M  V30 21000 H 1933.81 0.661778 -0.678789 0
M  V30 21001 H 1933.52 2.84372 -2.06943 0
M  V30 21002 H 1933.39 3.73016 -0.560273 0
M  V30 21003 H 1935.78 2.95053 0.0528599 0
M  V30 21004 H 1935.86 2.08177 -1.48647 0
M  V30 21005 H 1935.51 4.28671 -2.72404 0
M  V30 21006 H 1935.44 5.13667 -1.15992 0
M  V30 21007 H 1937.93 3.57621 -1.22129 0
M  V30 21008 H 1938.24 7.08724 -3.08107 0
M  V30 21009 H 1936.58 6.37652 -2.76451 0
M  V30 21010 H 1939.78 4.40186 -1.59229 0
M  V30 21011 H 1939.95 6.00301 -2.44015 0
M  V30 21012 N 1933.35 0.385544 1.52811 0
M  V30 21013 C 1934.6 -0.198138 2.0183 0
M  V30 21014 C 1934.93 -1.46774 1.27165 0
M  V30 21015 O 1934.21 -1.90928 0.371034 0
M  V30 21016 C 1934.49 -0.469873 3.57021 0
M  V30 21017 C 1934.34 0.814756 4.42359 0
M  V30 21018 C 1935.66 -1.26209 4.21615 0
M  V30 21019 H 1932.78 -0.0705386 0.733617 0
M  V30 21020 H 1935.42 0.514372 1.82905 0
M  V30 21021 H 1933.57 -1.07684 3.73278 0
M  V30 21022 H 1935.25 1.45172 4.37862 0
M  V30 21023 H 1933.49 1.43088 4.09522 0
M  V30 21024 H 1934.16 0.57932 5.48952 0
M  V30 21025 H 1936.64 -0.748451 4.09313 0
M  V30 21026 H 1935.51 -1.42096 5.30188 0
M  V30 21027 H 1935.77 -2.27624 3.78998 0
M  V30 21028 N 1934.83 -1.57178 0.115259 0
M  V30 21029 C 1936.08 -1.95355 -0.54445 0
M  V30 21030 C 1936.41 -0.998445 -1.66567 0
M  V30 21031 O 1935.69 -0.0349993 -1.94469 0
M  V30 21032 C 1935.97 -3.43502 -1.08067 0
M  V30 21033 C 1935.82 -4.49785 0.0368794 0
M  V30 21034 C 1937.14 -3.9341 -1.97273 0
M  V30 21035 H 1934.26 -0.710338 -0.19644 0
M  V30 21036 H 1936.9 -1.89047 0.19006 0
M  V30 21037 H 1935.05 -3.49008 -1.70662 0
M  V30 21038 H 1936.72 -4.56379 0.672017 0
M  V30 21039 H 1934.97 -4.28106 0.700539 0
M  V30 21040 H 1935.64 -5.50694 -0.379481 0
M  V30 21041 H 1938.11 -3.90184 -1.44555 0
M  V30 21042 H 1936.99 -4.97596 -2.31711 0
M  V30 21043 H 1937.25 -3.33884 -2.89782 0
M  V30 21044 N 1936.31 0.158505 -1.56801 0
M  V30 21045 C 1937.56 0.874331 -1.82984 0
M  V30 21046 C 1937.89 1.81334 -0.695103 0
M  V30 21047 O 1937.17 1.9214 0.302091 0
M  V30 21048 C 1937.45 1.65886 -3.19615 0
M  V30 21049 C 1937.3 0.74211 -4.43636 0
M  V30 21050 C 1938.62 2.62382 -3.53332 0
M  V30 21051 H 1935.74 0.316412 -0.665622 0
M  V30 21052 H 1938.38 0.139988 -1.89484 0
M  V30 21053 H 1936.53 2.28488 -3.14206 0
M  V30 21054 H 1938.2 0.127969 -4.61122 0
M  V30 21055 H 1936.45 0.0509465 -4.3377 0
M  V30 21056 H 1937.12 1.32683 -5.35816 0
M  V30 21057 H 1939.59 2.09902 -3.59278 0
M  V30 21058 H 1938.47 3.14332 -4.49985 0
M  V30 21059 H 1938.73 3.43194 -2.78694 0
M  V30 21060 N 1937.79 1.51692 0.427485 0
M  V30 21061 C 1938.74 1.74303 1.54017 0
M  V30 21062 C 1939.73 0.609588 1.58052 0
M  V30 21063 O 1940.94 0.791207 1.61678 0
M  V30 21064 H 1937.31 0.550902 0.51187 0
M  V30 21065 H 1939.28 2.67556 1.32123 0
M  V30 21066 C 1938.03 1.89415 2.91577 0
M  V30 21067 H 1937.36 2.76041 2.89208 0
M  V30 21068 H 1938.8 2.09244 3.68772 0
M  V30 21069 C 1937.25 0.656462 3.30442 0
M  V30 21070 O 1937.78 -0.184283 4.01277 0
M  V30 21071 N 1935.99 0.497681 2.86307 0
M  V30 21072 H 1935.54 1.18293 2.28833 0
M  V30 21073 H 1935.5 -0.329176 3.12672 0
M  V30 21074 N 1939.27 -0.683564 1.42004 0
M  V30 21075 C 1940.23 -1.77907 1.44505 0
M  V30 21076 C 1941.23 -1.57295 0.333889 0
M  V30 21077 O 1942.42 -1.63748 0.594323 0
M  V30 21078 C 1939.55 -3.16434 1.26815 0
M  V30 21079 H 1940.75 -1.7708 2.42039 0
M  V30 21080 H 1938.3 -0.892355 1.28323 0
M  V30 21081 H 1939.03 -3.22894 0.301695 0
M  V30 21082 H 1938.82 -3.32798 2.07335 0
M  V30 21083 H 1940.31 -3.96379 1.31428 0
M  V30 21084 N 1940.75 -1.28031 -0.919012 0
M  V30 21085 C 1941.68 -1.14034 -2.03761 0
M  V30 21086 C 1942.66 -0.039495 -1.70054 0
M  V30 21087 O 1943.84 -0.215546 -1.93 0
M  V30 21088 C 1940.97 -0.795894 -3.38057 0
M  V30 21089 C 1939.93 -1.85093 -3.85907 0
M  V30 21090 C 1939.25 -1.36024 -5.17109 0
M  V30 21091 C 1940.55 -3.25658 -4.08343 0
M  V30 21092 H 1942.25 -2.07609 -2.15729 0
M  V30 21093 H 1939.79 -0.999558 -1.03657 0
M  V30 21094 H 1941.74 -0.684762 -4.15799 0
M  V30 21095 H 1940.47 0.175558 -3.26128 0
M  V30 21096 H 1939.13 -1.95112 -3.10366 0
M  V30 21097 H 1938.78 -0.378004 -5.01578 0
M  V30 21098 H 1938.48 -2.06568 -5.50094 0
M  V30 21099 H 1940 -1.26223 -5.97411 0
M  V30 21100 H 1941.41 -3.1859 -4.76627 0
M  V30 21101 H 1939.81 -3.93989 -4.52651 0
M  V30 21102 H 1940.88 -3.70066 -3.13335 0
M  V30 21103 N 1942.22 1.12672 -1.10194 0
M  V30 21104 C 1943.47 1.83483 -0.837668 0
M  V30 21105 C 1943.79 1.84873 0.638864 0
M  V30 21106 O 1944.99 2.51654 1.01895 0
M  V30 21107 C 1943.45 3.29455 -1.4487 0
M  V30 21108 C 1943.06 3.36431 -2.95834 0
M  V30 21109 C 1944.8 4.05254 -1.26371 0
M  V30 21110 C 1942.71 4.76723 -3.49984 0
M  V30 21111 H 1941.64 0.687458 -0.309706 0
M  V30 21112 H 1944.29 1.26884 -1.32562 0
M  V30 21113 H 1942.67 3.85905 -0.88843 0
M  V30 21114 H 1943.84 2.89934 -3.58155 0
M  V30 21115 H 1942.16 2.74104 -3.13458 0
M  V30 21116 H 1944.76 5.0884 -1.64274 0
M  V30 21117 H 1945.1 4.15795 -0.205058 0
M  V30 21118 H 1945.63 3.55155 -1.79192 0
M  V30 21119 H 1942.37 4.71376 -4.55505 0
M  V30 21120 H 1941.89 5.23684 -2.9243 0
M  V30 21121 H 1943.57 5.45659 -3.47657 0
M  V30 21122 N 1943.7 0.89031 1.30043 0
M  V30 21123 C 1944.95 0.51044 1.95548 0
M  V30 21124 C 1945.27 -0.944562 1.70596 0
M  V30 21125 O 1944.54 -1.66482 1.0325 0
M  V30 21126 H 1943.12 0.185776 0.723531 0
M  V30 21127 H 1945.78 1.13455 1.58474 0
M  V30 21128 H 1944.88 0.685155 3.04487 0
M  V30 21129 N 1945.18 -1.43489 0.651812 0
M  V30 21130 C 1946.14 -2.29179 -0.0311937 0
M  V30 21131 C 1947.14 -1.42135 -0.751953 0
M  V30 21132 O 1948.33 -1.63781 -0.593416 0
M  V30 21133 C 1945.46 -3.24168 -1.0549 0
M  V30 21134 H 1946.66 -2.91061 0.722741 0
M  V30 21135 H 1944.21 -1.50746 0.412968 0
M  V30 21136 H 1944.95 -2.67177 -1.83812 0
M  V30 21137 H 1944.73 -3.88339 -0.541752 0
M  V30 21138 H 1946.22 -3.88487 -1.53193 0
M  V30 21139 N 1946.66 -0.393643 -1.52605 0
M  V30 21140 C 1947.91 0.188423 -2.00818 0
M  V30 21141 C 1948.22 1.47537 -1.28422 0
M  V30 21142 O 1949.43 2.13775 -1.6737 0
M  V30 21143 C 1947.88 0.386341 -3.5782 0
M  V30 21144 C 1947.49 -0.887606 -4.39119 0
M  V30 21145 C 1949.23 0.924537 -4.1431 0
M  V30 21146 C 1947.14 -0.657729 -5.87731 0
M  V30 21147 H 1946.07 0.0741894 -0.750341 0
M  V30 21148 H 1948.72 -0.516709 -1.76075 0
M  V30 21149 H 1947.1 1.15343 -3.7883 0
M  V30 21150 H 1948.28 -1.65965 -4.29875 0
M  V30 21151 H 1946.59 -1.35107 -3.93872 0
M  V30 21152 H 1949.19 1.1123 -5.23003 0
M  V30 21153 H 1949.53 1.89484 -3.70677 0
M  V30 21154 H 1950.07 0.216908 -3.97208 0
M  V30 21155 H 1946.8 -1.59915 -6.35694 0
M  V30 21156 H 1946.32 0.0752963 -5.99753 0
M  V30 21157 H 1948 -0.293935 -6.46332 0
M  V30 21158 N 1948.14 1.57115 -0.123593 0
M  V30 21159 C 1949.55 1.82342 0.401051 0
M  V30 21160 C 1949.9 1.04102 1.66304 0
M  V30 21161 O 1949.02 0.279024 2.14594 0
M  V30 21162 C 1949.62 3.30745 0.734394 0
M  V30 21163 C 1948.18 3.56636 1.20365 0
M  V30 21164 C 1947.32 2.76468 0.214686 0
M  V30 21165 H 1950.27 1.54823 -0.348657 0
M  V30 21166 H 1950.3 3.45624 1.59137 0
M  V30 21167 H 1949.81 3.87662 -0.184288 0
M  V30 21168 H 1947.91 3.05081 2.13908 0
M  V30 21169 H 1948.02 4.65197 1.1458 0
M  V30 21170 H 1946.39 2.44816 0.702648 0
M  V30 21171 H 1947.17 3.36146 -0.697174 0
M  V30 21172 N 1949.61 -0.150187 1.56883 0
M  V30 21173 C 1950.84 -0.88235 1.87695 0
M  V30 21174 C 1951.26 -1.74093 0.712272 0
M  V30 21175 O 1950.62 -1.78118 -0.338207 0
M  V30 21176 C 1950.67 -1.71754 3.1707 0
M  V30 21177 O 1949.77 -2.82145 3.00779 0
M  V30 21178 H 1949.11 -0.245947 0.616771 0
M  V30 21179 H 1951.64 -0.141963 2.04107 0
M  V30 21180 H 1951.65 -2.1132 3.4901 0
M  V30 21181 H 1950.33 -1.08704 4.01443 0
M  V30 21182 H 1948.91 -2.46008 2.8024 0
M  V30 21183 N 1951.09 -1.51916 -0.419434 0
M  V30 21184 C 1952.34 -1.64698 -1.16436 0
M  V30 21185 C 1952.65 -0.377878 -1.91915 0
M  V30 21186 O 1953.86 -0.385341 -2.68752 0
M  V30 21187 C 1952.32 -2.90939 -2.11854 0
M  V30 21188 C 1951.92 -4.2492 -1.4194 0
M  V30 21189 C 1953.67 -3.13083 -2.86669 0
M  V30 21190 C 1951.58 -5.42294 -2.35946 0
M  V30 21191 H 1950.51 -0.613496 -0.438337 0
M  V30 21192 H 1953.16 -1.78397 -0.429738 0
M  V30 21193 H 1951.54 -2.70916 -2.88826 0
M  V30 21194 H 1952.71 -4.5539 -0.70403 0
M  V30 21195 H 1951.03 -4.08797 -0.792071 0
M  V30 21196 H 1953.62 -3.97951 -3.57127 0
M  V30 21197 H 1953.97 -2.26891 -3.49036 0
M  V30 21198 H 1954.5 -3.33531 -2.168 0
M  V30 21199 H 1951.24 -6.30801 -1.78242 0
M  V30 21200 H 1950.76 -5.16177 -3.05485 0
M  V30 21201 H 1952.44 -5.74962 -2.96695 0
M  V30 21202 N 1952.57 0.676023 -1.42365 0
M  V30 21203 C 1953.5 1.80071 -1.40178 0
M  V30 21204 C 1954.48 1.60406 -0.266221 0
M  V30 21205 O 1955.67 1.82895 -0.456245 0
M  V30 21206 C 1952.79 3.17052 -1.19147 0
M  V30 21207 C 1951.84 3.55468 -2.35679 0
M  V30 21208 S 1952.67 3.58037 -3.98208 0
M  V30 21209 C 1953.83 4.97712 -3.79517 0
M  V30 21210 H 1954.06 1.81652 -2.35351 0
M  V30 21211 H 1951.59 0.846573 -1.29122 0
M  V30 21212 H 1953.55 3.9612 -1.07699 0
M  V30 21213 H 1952.21 3.13058 -0.255607 0
M  V30 21214 H 1951.41 4.55031 -2.16709 0
M  V30 21215 H 1951.01 2.83757 -2.43635 0
M  V30 21216 H 1953.3 5.85758 -3.40432 0
M  V30 21217 H 1954.24 5.2173 -4.78752 0
M  V30 21218 H 1954.65 4.70172 -3.12407 0
M  V30 21219 N 1954.05 1.28517 0.912209 0
M  V30 21220 C 1955 1.12437 2.03619 0
M  V30 21221 C 1955.99 0.0432331 1.69345 0
M  V30 21222 O 1957.2 0.202116 1.78862 0
M  V30 21223 H 1953.57 0.34694 0.667185 0
M  V30 21224 H 1955.54 2.07625 2.14323 0
M  V30 21225 C 1954.29 0.804603 3.38262 0
M  V30 21226 H 1953.61 1.62849 3.65131 0
M  V30 21227 H 1955.05 0.732055 4.17633 0
M  V30 21228 C 1953.51 -0.491715 3.33292 0
M  V30 21229 O 1954.04 -1.52155 3.71768 0
M  V30 21230 N 1952.25 -0.493007 2.86388 0
M  V30 21231 H 1951.8 0.34549 2.55273 0
M  V30 21232 H 1951.75 -1.36038 2.83445 0
M  V30 21233 N 1955.53 -1.12086 1.1079 0
M  V30 21234 C 1956.77 -1.83949 0.853848 0
M  V30 21235 C 1957.11 -1.8407 -0.619029 0
M  V30 21236 O 1956.38 -1.28889 -1.45664 0
M  V30 21237 C 1956.66 -3.31452 1.40754 0
M  V30 21238 C 1956.52 -3.39765 2.94754 0
M  V30 21239 C 1957.84 -4.2732 1.05288 0
M  V30 21240 H 1954.95 -0.667872 0.311635 0
M  V30 21241 H 1957.6 -1.31475 1.37166 0
M  V30 21242 H 1955.75 -3.7627 0.967112 0
M  V30 21243 H 1957.42 -3.03555 3.4735 0
M  V30 21244 H 1955.66 -2.80196 3.31168 0
M  V30 21245 H 1956.33 -4.43553 3.2858 0
M  V30 21246 H 1958.81 -3.90647 1.43297 0
M  V30 21247 H 1957.68 -5.28929 1.46716 0
M  V30 21248 H 1957.95 -4.42084 -0.0372227 0
M  V30 21249 N 1957 -0.897194 -1.29569 0
M  V30 21250 C 1957.93 -0.389601 -2.30227 0
M  V30 21251 C 1958.92 0.53405 -1.61499 0
M  V30 21252 O 1960.1 0.44531 -1.89025 0
M  V30 21253 C 1957.23 0.385966 -3.45149 0
M  V30 21254 C 1956.18 -0.447028 -4.25659 0
M  V30 21255 C 1955.51 0.455883 -5.32753 0
M  V30 21256 C 1956.81 -1.69562 -4.9401 0
M  V30 21257 H 1958.5 -1.23077 -2.72933 0
M  V30 21258 H 1956.05 -0.593265 -1.31211 0
M  V30 21259 H 1958 0.751791 -4.1464 0
M  V30 21260 H 1956.73 1.26089 -3.01279 0
M  V30 21261 H 1955.39 -0.795152 -3.57873 0
M  V30 21262 H 1955.03 1.32887 -4.85129 0
M  V30 21263 H 1954.73 -0.0977528 -5.87519 0
M  V30 21264 H 1956.26 0.817956 -6.05097 0
M  V30 21265 H 1957.67 -1.39968 -5.55951 0
M  V30 21266 H 1956.07 -2.19039 -5.58697 0
M  V30 21267 H 1957.14 -2.43305 -4.19441 0
M  V30 21268 N 1958.48 1.43142 -0.659413 0
M  V30 21269 C 1959.41 2.33495 0.0147266 0
M  V30 21270 C 1960.39 1.49819 0.805493 0
M  V30 21271 O 1961.58 1.78466 0.765732 0
M  V30 21272 C 1958.71 3.33261 0.977483 0
M  V30 21273 C 1957.66 4.26972 0.296396 0
M  V30 21274 C 1956.99 5.16824 1.37103 0
M  V30 21275 C 1958.29 5.15901 -0.815063 0
M  V30 21276 H 1959.98 2.90115 -0.739837 0
M  V30 21277 H 1957.53 1.39499 -0.357229 0
M  V30 21278 H 1959.48 3.95372 1.45805 0
M  V30 21279 H 1958.21 2.74911 1.76328 0
M  V30 21280 H 1956.86 3.66234 -0.16379 0
M  V30 21281 H 1956.51 4.5481 2.14842 0
M  V30 21282 H 1956.21 5.80345 0.920528 0
M  V30 21283 H 1957.74 5.81809 1.85284 0
M  V30 21284 H 1959.15 5.71786 -0.416382 0
M  V30 21285 H 1957.55 5.88175 -1.19041 0
M  V30 21286 H 1958.62 4.5522 -1.67042 0
M  V30 21287 N 1959.96 0.40173 1.52394 0
M  V30 21288 C 1961.21 -0.17672 2.02029 0
M  V30 21289 C 1961.54 -1.45417 1.28715 0
M  V30 21290 O 1960.81 -1.90524 0.391263 0
M  V30 21291 C 1961.1 -0.43198 3.575 0
M  V30 21292 C 1960.95 0.861628 4.4147 0
M  V30 21293 C 1962.27 -1.2173 4.2293 0
M  V30 21294 H 1959.39 -0.0627536 0.734323 0
M  V30 21295 H 1962.03 0.533742 1.82349 0
M  V30 21296 H 1960.18 -1.03719 3.74399 0
M  V30 21297 H 1961.85 1.49808 4.36297 0
M  V30 21298 H 1960.1 1.47424 4.07981 0
M  V30 21299 H 1960.77 0.637511 5.48306 0
M  V30 21300 H 1963.24 -0.704996 4.10084 0
M  V30 21301 H 1962.12 -1.36465 5.31666 0
M  V30 21302 H 1962.38 -2.23592 3.81391 0
M  V30 21303 N 1961.44 -1.57047 0.131923 0
M  V30 21304 C 1962.68 -1.9752 -0.525856 0
M  V30 21305 C 1963.04 -1.01434 -1.63019 0
M  V30 21306 O 1964.24 -1.30894 -2.34777 0
M  V30 21307 C 1962.51 -3.42148 -1.03293 0
M  V30 21308 S 1964.07 -4.04639 -1.69742 0
M  V30 21309 H 1960.89 -0.690249 -0.170522 0
M  V30 21310 H 1963.49 -1.94257 0.220068 0
M  V30 21311 H 1962.2 -4.09819 -0.218206 0
M  V30 21312 H 1961.73 -3.4909 -1.81383 0
M  V30 21313 H 1963.74 -3.96455 -2.98392 0
M  V30 21314 N 1962.92 0.141865 -1.5696 0
M  V30 21315 C 1963.85 1.17667 -2.01685 0
M  V30 21316 C 1964.83 1.44509 -0.897282 0
M  V30 21317 O 1966.01 1.55342 -1.16544 0
M  V30 21318 C 1963.14 2.50859 -2.40182 0
M  V30 21319 C 1962.1 2.38527 -3.55371 0
M  V30 21320 C 1961.42 3.76476 -3.79697 0
M  V30 21321 C 1962.72 1.86502 -4.87867 0
M  V30 21322 H 1964.42 0.804761 -2.88382 0
M  V30 21323 H 1961.96 0.385672 -1.38739 0
M  V30 21324 H 1963.92 3.2348 -2.70071 0
M  V30 21325 H 1962.64 2.89895 -1.50428 0
M  V30 21326 H 1961.3 1.68357 -3.25656 0
M  V30 21327 H 1960.95 4.12957 -2.87186 0
M  V30 21328 H 1960.65 3.69085 -4.5722 0
M  V30 21329 H 1962.17 4.50638 -4.12017 0
M  V30 21330 H 1963.58 2.48921 -5.16441 0
M  V30 21331 H 1961.98 1.89989 -5.69231 0
M  V30 21332 H 1963.05 0.821025 -4.77899 0
M  V30 21333 N 1964.39 1.52136 0.411372 0
M  V30 21334 C 1965.64 1.65314 1.15561 0
M  V30 21335 C 1965.96 0.38805 1.91712 0
M  V30 21336 O 1967.16 0.399588 2.68543 0
M  V30 21337 C 1965.62 2.92059 2.10308 0
M  V30 21338 C 1965.23 4.25667 1.39684 0
M  V30 21339 C 1966.97 3.14599 2.85005 0
M  V30 21340 C 1964.88 5.43538 2.33067 0
M  V30 21341 H 1963.81 0.615812 0.435077 0
M  V30 21342 H 1966.46 1.78622 0.420271 0
M  V30 21343 H 1964.84 2.72444 2.87385 0
M  V30 21344 H 1966.01 4.55757 0.679869 0
M  V30 21345 H 1964.33 4.09212 0.77038 0
M  V30 21346 H 1966.93 3.99839 3.55011 0
M  V30 21347 H 1967.27 2.28739 3.47828 0
M  V30 21348 H 1967.8 3.34676 2.15028 0
M  V30 21349 H 1964.54 6.31738 1.74894 0
M  V30 21350 H 1964.06 5.1779 3.02744 0
M  V30 21351 H 1965.74 5.76527 2.93641 0
M  V30 21352 N 1965.87 -0.668464 1.42721 0
M  V30 21353 C 1967.12 -1.42849 1.43528 0
M  V30 21354 C 1967.45 -1.94425 0.0540077 0
M  V30 21355 O 1966.7 -1.71721 -0.938629 0
M  V30 21356 C 1967 -2.63743 2.41194 0
M  V30 21357 C 1966.67 -2.30672 3.87429 0
M  V30 21358 C 1965.33 -2.21365 4.2726 0
M  V30 21359 C 1967.68 -2.03937 4.79645 0
M  V30 21360 C 1965.01 -1.83456 5.5728 0
M  V30 21361 C 1967.36 -1.6753 6.10013 0
M  V30 21362 C 1966.03 -1.56737 6.48837 0
M  V30 21363 H 1965.3 -0.522721 0.525208 0
M  V30 21364 H 1967.94 -0.761625 1.75703 0
M  V30 21365 H 1966.25 -3.35491 2.02369 0
M  V30 21366 H 1967.95 -3.21934 2.3908 0
M  V30 21367 H 1964.54 -2.38821 3.55896 0
M  V30 21368 H 1968.72 -2.10057 4.49655 0
M  V30 21369 H 1963.98 -1.73674 5.86214 0
M  V30 21370 H 1968.15 -1.4587 6.80952 0
M  V30 21371 H 1965.78 -1.27133 7.49494 0
M  V30 21372 N 1967.35 -1.28999 -0.905381 0
M  V30 21373 C 1968.6 -1.17823 -1.65799 0
M  V30 21374 C 1968.95 0.26881 -1.90513 0
M  V30 21375 O 1968.25 1.19157 -1.50041 0
M  V30 21376 C 1968.44 -1.91909 -3.01506 0
M  V30 21377 C 1968.27 -3.43669 -2.90038 0
M  V30 21378 C 1967.04 -4.13016 -2.91111 0
M  V30 21379 C 1969.24 -4.39266 -2.67488 0
M  V30 21380 N 1967.22 -5.51181 -2.7032 0
M  V30 21381 C 1968.59 -5.64852 -2.55621 0
M  V30 21382 C 1970.64 -4.29095 -2.5255 0
M  V30 21383 C 1969.35 -6.81422 -2.30339 0
M  V30 21384 C 1971.37 -5.45411 -2.2865 0
M  V30 21385 C 1970.74 -6.69966 -2.17544 0
M  V30 21386 H 1966.83 -0.486118 -0.612547 0
M  V30 21387 H 1969.42 -1.62756 -1.06858 0
M  V30 21388 H 1967.59 -1.49398 -3.58518 0
M  V30 21389 H 1969.32 -1.73046 -3.65837 0
M  V30 21390 H 1966.08 -3.64668 -3.02183 0
M  V30 21391 H 1966.5 -6.2383 -2.62993 0
M  V30 21392 H 1971.14 -3.33498 -2.59883 0
M  V30 21393 H 1968.86 -7.77081 -2.21745 0
M  V30 21394 H 1972.45 -5.39436 -2.17944 0
M  V30 21395 H 1971.33 -7.58451 -1.99305 0
M  V30 21396 N 1968.83 1.11497 -1.11383 0
M  V30 21397 C 1969.76 2.19592 -0.793827 0
M  V30 21398 C 1970.74 1.68433 0.237559 0
M  V30 21399 O 1971.93 1.93936 0.101164 0
M  V30 21400 C 1969.06 3.465 -0.235579 0
M  V30 21401 C 1968.01 4.10869 -1.19877 0
M  V30 21402 C 1967.34 5.32345 -0.501259 0
M  V30 21403 C 1968.64 4.55864 -2.54922 0
M  V30 21404 H 1970.33 2.46617 -1.69766 0
M  V30 21405 H 1967.88 1.18532 -0.817695 0
M  V30 21406 H 1969.83 4.214 0.000490272 0
M  V30 21407 H 1968.55 3.18932 0.703544 0
M  V30 21408 H 1967.21 3.37962 -1.42046 0
M  V30 21409 H 1966.86 5.01048 0.442652 0
M  V30 21410 H 1966.56 5.76363 -1.14367 0
M  V30 21411 H 1968.08 6.09985 -0.273968 0
M  V30 21412 H 1969.5 5.22089 -2.36845 0
M  V30 21413 H 1967.89 5.10693 -3.15139 0
M  V30 21414 H 1968.96 3.69342 -3.14189 0
M  V30 21415 N 1970.31 0.904053 1.29092 0
M  V30 21416 C 1971.56 0.528154 1.94662 0
M  V30 21417 C 1971.87 -0.930986 1.72023 0
M  V30 21418 O 1973.08 -1.4146 2.31735 0
M  V30 21419 C 1971.53 0.893684 3.48628 0
M  V30 21420 C 1971.14 2.37189 3.8006 0
M  V30 21421 C 1972.88 0.587904 4.20409 0
M  V30 21422 C 1970.79 2.67805 5.2729 0
M  V30 21423 H 1969.72 0.193795 0.72867 0
M  V30 21424 H 1972.37 1.10164 1.46752 0
M  V30 21425 H 1970.75 0.249078 3.95216 0
M  V30 21426 H 1971.93 3.06241 3.44315 0
M  V30 21427 H 1970.24 2.64714 3.21428 0
M  V30 21428 H 1972.84 0.793441 5.2878 0
M  V30 21429 H 1973.18 -0.473803 4.13595 0
M  V30 21430 H 1973.72 1.19054 3.79567 0
M  V30 21431 H 1970.45 3.72791 5.39172 0
M  V30 21432 H 1969.97 2.03381 5.64266 0
M  V30 21433 H 1971.65 2.543 5.94929 0
M  V30 21434 N 1971.79 -1.4279 0.666995 0
M  V30 21435 C 1973.03 -2.01644 0.18603 0
M  V30 21436 C 1973.36 -1.52694 -1.20477 0
M  V30 21437 O 1972.62 -0.716418 -1.82115 0
M  V30 21438 C 1972.91 -3.57038 0.160763 0
M  V30 21439 C 1972.58 -4.25389 1.49517 0
M  V30 21440 C 1971.24 -4.43775 1.86056 0
M  V30 21441 C 1973.59 -4.63976 2.37436 0
M  V30 21442 C 1970.92 -4.98018 3.10152 0
M  V30 21443 C 1973.27 -5.19596 3.60837 0
M  V30 21444 C 1971.94 -5.36197 3.97554 0
M  V30 21445 H 1971.21 -0.737867 0.0680731 0
M  V30 21446 H 1973.86 -1.71081 0.860435 0
M  V30 21447 H 1972.16 -3.87223 -0.597132 0
M  V30 21448 H 1973.86 -4.00349 -0.228461 0
M  V30 21449 H 1970.45 -4.11432 1.20091 0
M  V30 21450 H 1974.63 -4.49451 2.10494 0
M  V30 21451 H 1969.89 -5.09057 3.38632 0
M  V30 21452 H 1974.06 -5.4844 4.2917 0
M  V30 21453 H 1971.69 -5.77992 4.9379 0
M  V30 21454 N 1973.26 -0.409806 -1.52179 0
M  V30 21455 C 1974.49 0.167702 -2.06721 0
M  V30 21456 C 1974.91 1.38034 -1.27782 0
M  V30 21457 O 1974.27 1.7866 -0.308244 0
M  V30 21458 C 1974.32 0.495862 -3.57174 0
M  V30 21459 O 1973.42 1.58675 -3.80652 0
M  V30 21460 H 1972.76 0.013908 -0.663854 0
M  V30 21461 H 1975.29 -0.583201 -1.96112 0
M  V30 21462 H 1975.3 0.754301 -4.00967 0
M  V30 21463 H 1973.98 -0.390588 -4.14062 0
M  V30 21464 H 1972.56 1.32042 -3.48739 0
M  V30 21465 N 1974.74 1.56975 -0.14025 0
M  V30 21466 C 1975.99 1.95081 0.512469 0
M  V30 21467 C 1976.3 1.02722 1.66456 0
M  V30 21468 O 1977.51 1.3038 2.38146 0
M  V30 21469 C 1975.97 3.46775 0.963057 0
M  V30 21470 C 1975.57 4.47708 -0.161733 0
M  V30 21471 C 1977.32 3.93761 1.58595 0
M  V30 21472 C 1975.22 5.90604 0.306746 0
M  V30 21473 H 1974.15 0.72829 0.195216 0
M  V30 21474 H 1976.81 1.82134 -0.223514 0
M  V30 21475 H 1975.19 3.55032 1.7541 0
M  V30 21476 H 1976.36 4.51141 -0.938529 0
M  V30 21477 H 1974.68 4.10599 -0.692608 0
M  V30 21478 H 1977.27 4.97954 1.94796 0
M  V30 21479 H 1977.62 3.34931 2.47238 0
M  V30 21480 H 1978.15 3.88394 0.859928 0
M  V30 21481 H 1974.89 6.53238 -0.544152 0
M  V30 21482 H 1974.41 5.90546 1.04956 0
M  V30 21483 H 1976.09 6.42509 0.760989 0
M  V30 21484 N 1976.22 -0.133539 1.57033 0
M  V30 21485 C 1977.15 -1.1944 1.94446 0
M  V30 21486 C 1978.13 -1.40868 0.812103 0
M  V30 21487 O 1979.31 -1.5526 1.06895 0
M  V30 21488 C 1976.44 -2.55091 2.22814 0
M  V30 21489 C 1975.49 -2.50178 3.45417 0
M  V30 21490 S 1976.32 -1.95558 4.98515 0
M  V30 21491 C 1977.48 -3.32912 5.30019 0
M  V30 21492 H 1977.71 -0.875271 2.84124 0
M  V30 21493 H 1975.24 -0.33971 1.50616 0
M  V30 21494 H 1977.2 -3.3315 2.39837 0
M  V30 21495 H 1975.86 -2.84188 1.33777 0
M  V30 21496 H 1975.05 -3.50068 3.62586 0
M  V30 21497 H 1974.66 -1.80235 3.27706 0
M  V30 21498 H 1976.95 -4.29074 5.24311 0
M  V30 21499 H 1977.89 -3.20584 6.31373 0
M  V30 21500 H 1978.3 -3.30669 4.57513 0
M  V30 21501 N 1977.7 -1.52352 -0.403298 0
M  V30 21502 C 1978.95 -1.66368 -1.14744 0
M  V30 21503 C 1979.27 -0.398899 -1.90876 0
M  V30 21504 O 1978.54 0.586372 -1.86918 0
M  V30 21505 H 1977.12 -0.613226 -0.426571 0
M  V30 21506 H 1979.78 -1.89416 -0.459075 0
M  V30 21507 H 1978.87 -2.50748 -1.85828 0
M  V30 21508 N 1979.18 0.660885 -1.43074 0
M  V30 21509 C 1980.42 1.42296 -1.44498 0
M  V30 21510 C 1980.75 1.94087 -0.0661594 0
M  V30 21511 O 1980.03 1.71803 0.911806 0
M  V30 21512 C 1980.31 2.60995 -2.481 0
M  V30 21513 C 1980.17 2.14746 -3.95227 0
M  V30 21514 C 1981.48 3.63212 -2.48526 0
M  V30 21515 H 1978.6 0.516071 -0.526156 0
M  V30 21516 H 1981.25 0.749896 -1.74575 0
M  V30 21517 H 1979.4 3.18417 -2.22583 0
M  V30 21518 H 1981.07 1.62384 -4.31774 0
M  V30 21519 H 1979.31 1.46188 -4.08426 0
M  V30 21520 H 1979.98 3.00068 -4.63318 0
M  V30 21521 H 1982.46 3.15534 -2.71251 0
M  V30 21522 H 1981.33 4.43825 -3.22971 0
M  V30 21523 H 1981.59 4.15285 -1.51626 0
M  V30 21524 N 1980.65 1.29477 0.898527 0
M  V30 21525 C 1981.6 1.1459 2.02415 0
M  V30 21526 C 1982.6 0.0611919 1.69289 0
M  V30 21527 O 1983.8 0.221075 1.78637 0
M  V30 21528 H 1980.18 0.353997 0.663468 0
M  V30 21529 H 1982.15 2.09886 2.12109 0
M  V30 21530 C 1980.9 0.840435 3.3739 0
M  V30 21531 H 1980.22 1.66712 3.63383 0
M  V30 21532 H 1981.66 0.77631 4.16833 0
M  V30 21533 C 1980.12 -0.456337 3.33795 0
M  V30 21534 O 1980.65 -1.48204 3.73361 0
M  V30 21535 N 1978.86 -0.462604 2.86894 0
M  V30 21536 H 1978.4 0.372545 2.54892 0
M  V30 21537 H 1978.36 -1.33024 2.84872 0
M  V30 21538 N 1982.13 -1.10905 1.11972 0
M  V30 21539 C 1983.06 -2.19168 0.805461 0
M  V30 21540 C 1984.04 -1.68557 -0.228623 0
M  V30 21541 O 1985.23 -1.93987 -0.0908778 0
M  V30 21542 C 1982.36 -3.4637 0.253951 0
M  V30 21543 C 1981.31 -4.10228 1.22054 0
M  V30 21544 C 1980.64 -5.32072 0.529483 0
M  V30 21545 C 1981.94 -4.54506 2.57336 0
M  V30 21546 H 1983.63 -2.45713 1.71071 0
M  V30 21547 H 1981.18 -1.18096 0.823969 0
M  V30 21548 H 1983.13 -4.21394 0.0218576 0
M  V30 21549 H 1981.86 -3.19301 -0.68662 0
M  V30 21550 H 1980.51 -3.37204 1.43836 0
M  V30 21551 H 1980.16 -5.01276 -0.416074 0
M  V30 21552 H 1979.86 -5.75748 1.17422 0
M  V30 21553 H 1981.39 -6.09831 0.306313 0
M  V30 21554 H 1982.8 -5.20826 2.3961 0
M  V30 21555 H 1981.2 -5.09015 3.17842 0
M  V30 21556 H 1982.27 -3.67671 3.16143 0
M  V30 21557 N 1983.61 -0.910886 -1.2861 0
M  V30 21558 C 1984.86 -0.542557 -1.95096 0
M  V30 21559 C 1985.19 0.913233 -1.71727 0
M  V30 21560 O 1984.44 1.66424 -1.02963 0
M  V30 21561 C 1984.74 -0.794745 -3.48452 0
M  V30 21562 C 1984.41 -2.22964 -3.91916 0
M  V30 21563 C 1983.07 -2.62195 -4.03494 0
M  V30 21564 C 1985.42 -3.16353 -4.1421 0
M  V30 21565 C 1982.75 -3.93974 -4.34743 0
M  V30 21566 C 1985.1 -4.47694 -4.46938 0
M  V30 21567 C 1983.76 -4.86783 -4.56726 0
M  V30 21568 H 1983.03 -0.198536 -0.713908 0
M  V30 21569 H 1985.68 -1.15167 -1.53 0
M  V30 21570 H 1983.99 -0.102809 -3.91665 0
M  V30 21571 H 1985.68 -0.488975 -3.98008 0
M  V30 21572 H 1982.27 -1.91521 -3.83429 0
M  V30 21573 H 1986.46 -2.87253 -4.04721 0
M  V30 21574 H 1981.71 -4.23965 -4.40526 0
M  V30 21575 H 1985.89 -5.20074 -4.63137 0
M  V30 21576 H 1983.51 -5.88928 -4.80695 0
M  V30 21577 N 1985.09 1.42434 -0.674558 0
M  V30 21578 C 1986.05 2.29199 -0.00527063 0
M  V30 21579 C 1987.05 1.43313 0.729245 0
M  V30 21580 O 1988.24 1.64704 0.567284 0
M  V30 21581 C 1985.37 3.25805 1.0032 0
M  V30 21582 H 1986.57 2.89874 -0.768954 0
M  V30 21583 H 1984.12 1.5007 -0.436898 0
M  V30 21584 H 1984.85 2.70068 1.79538 0
M  V30 21585 H 1984.64 3.89152 0.479902 0
M  V30 21586 H 1986.13 3.90875 1.46993 0
M  V30 21587 N 1986.57 0.417871 1.51959 0
M  V30 21588 C 1987.81 -0.154746 2.01507 0
M  V30 21589 C 1988.14 -1.44898 1.30497 0
M  V30 21590 O 1987.41 -1.91043 0.433536 0
M  V30 21591 H 1985.99 -0.0601759 0.744572 0
M  V30 21592 H 1988.65 0.556118 1.86798 0
M  V30 21593 H 1987.74 -0.344616 3.10192 0
M  V30 21594 N 1988.04 -1.56898 0.148573 0
M  V30 21595 C 1988.99 -2.1684 -0.790514 0
M  V30 21596 C 1989.96 -1.10173 -1.24303 0
M  V30 21597 O 1991.15 -1.38221 -1.31527 0
M  V30 21598 C 1988.29 -2.79542 -2.02361 0
M  V30 21599 C 1987.4 -4.00606 -1.61676 0
M  V30 21600 C 1986.53 -4.51303 -2.80178 0
M  V30 21601 C 1985.57 -5.64828 -2.35873 0
M  V30 21602 N 1984.71 -6.10136 -3.47389 0
M  V30 21603 H 1989.55 -2.96751 -0.27255 0
M  V30 21604 H 1987.09 -1.46586 -0.122814 0
M  V30 21605 H 1989.05 -3.14042 -2.74652 0
M  V30 21606 H 1987.68 -2.02273 -2.51566 0
M  V30 21607 H 1986.73 -3.72076 -0.791448 0
M  V30 21608 H 1988.04 -4.82848 -1.25138 0
M  V30 21609 H 1987.19 -4.87865 -3.60656 0
M  V30 21610 H 1985.93 -3.68071 -3.19961 0
M  V30 21611 H 1984.94 -5.2784 -1.53835 0
M  V30 21612 H 1986.16 -6.49846 -1.97174 0
M  V30 21613 H 1984.11 -5.29839 -3.8679 0
M  V30 21614 H 1984.03 -6.87308 -3.14871 0
M  V30 21615 H 1985.29 -6.51344 -4.28219 0
M  V30 21616 N 1989.52 0.125209 -1.57102 0
M  V30 21617 C 1990.77 0.834085 -1.84524 0
M  V30 21618 C 1991.1 1.8017 -0.732742 0
M  V30 21619 O 1990.35 1.93738 0.276448 0
M  V30 21620 C 1990.65 1.62349 -3.18398 0
M  V30 21621 C 1990.32 0.800729 -4.43733 0
M  V30 21622 C 1988.98 0.573817 -4.77766 0
M  V30 21623 C 1991.33 0.226814 -5.20706 0
M  V30 21624 C 1988.66 -0.237364 -5.8622 0
M  V30 21625 C 1991.01 -0.571524 -6.30013 0
M  V30 21626 C 1989.68 -0.80881 -6.62582 0
M  V30 21627 H 1988.95 0.305213 -0.675223 0
M  V30 21628 H 1991.59 0.0967265 -1.91256 0
M  V30 21629 H 1989.9 2.43158 -3.07215 0
M  V30 21630 H 1991.59 2.17583 -3.36836 0
M  V30 21631 H 1988.18 0.987673 -4.17065 0
M  V30 21632 H 1992.37 0.389351 -4.9477 0
M  V30 21633 H 1987.62 -0.430488 -6.09883 0
M  V30 21634 H 1991.8 -1.02325 -6.88841 0
M  V30 21635 H 1989.43 -1.4392 -7.46452 0
M  V30 21636 N 1991 1.52564 0.395213 0
M  V30 21637 C 1992.23 1.70924 1.16053 0
M  V30 21638 C 1992.64 0.424554 1.84375 0
M  V30 21639 O 1991.98 -0.610327 1.73265 0
M  V30 21640 C 1992.04 2.79882 2.25625 0
M  V30 21641 C 1991.71 4.21196 1.77322 0
M  V30 21642 C 1992.7 5.04566 1.25336 0
M  V30 21643 C 1990.39 4.6749 1.83733 0
M  V30 21644 C 1992.38 6.32309 0.804005 0
M  V30 21645 C 1990.07 5.95219 1.3841 0
M  V30 21646 C 1991.07 6.77458 0.868299 0
M  V30 21647 O 1990.76 8.02793 0.421654 0
M  V30 21648 H 1990.49 0.575785 0.354186 0
M  V30 21649 H 1993.04 1.99969 0.469216 0
M  V30 21650 H 1991.27 2.46245 2.98162 0
M  V30 21651 H 1992.96 2.86705 2.87324 0
M  V30 21652 H 1993.73 4.69985 1.19744 0
M  V30 21653 H 1989.61 4.03572 2.22823 0
M  V30 21654 H 1993.15 6.96448 0.400726 0
M  V30 21655 H 1989.05 6.29305 1.43685 0
M  V30 21656 H 1989.82 8.16692 0.543698 0
M  V30 21657 N 1992.48 -0.653289 1.43422 0
M  V30 21658 C 1993.39 -1.79526 1.51022 0
M  V30 21659 C 1994.4 -1.69403 0.39732 0
M  V30 21660 O 1995.58 -1.90574 0.651437 0
M  V30 21661 C 1992.65 -3.15803 1.43071 0
M  V30 21662 C 1991.71 -3.37723 2.65031 0
M  V30 21663 C 1990.94 -4.67499 2.5745 0
M  V30 21664 O 1991.16 -5.46846 1.6222 0
M  V30 21665 O 1990.1 -4.91137 3.47948 0
M  V30 21666 H 1993.92 -1.76069 2.47454 0
M  V30 21667 H 1991.51 -0.81176 1.25423 0
M  V30 21668 H 1993.39 -3.97083 1.41079 0
M  V30 21669 H 1992.06 -3.1985 0.497738 0
M  V30 21670 H 1990.97 -2.56208 2.72595 0
M  V30 21671 H 1992.3 -3.38523 3.573 0
M  V30 21672 N 1993.96 -1.29952 -0.891648 0
M  V30 21673 C 1995.2 -1.19666 -1.65709 0
M  V30 21674 C 1995.56 0.246168 -1.90415 0
M  V30 21675 O 1996.76 0.472148 -2.64621 0
M  V30 21676 C 1995.03 -1.99566 -2.96493 0
M  V30 21677 S 1996.59 -2.05904 -3.87491 0
M  V30 21678 H 1993.41 -0.426562 -0.568829 0
M  V30 21679 H 1996.01 -1.64342 -1.05887 0
M  V30 21680 H 1994.72 -3.0352 -2.76231 0
M  V30 21681 H 1994.25 -1.55525 -3.61352 0
M  V30 21682 H 1996.26 -1.18157 -4.81927 0
M  V30 21683 N 1995.44 1.1031 -1.12559 0
M  V30 21684 C 1996.68 1.81665 -0.876399 0
M  V30 21685 C 1997 1.86186 0.599506 0
M  V30 21686 O 1998.2 2.53759 0.965337 0
M  V30 21687 C 1996.66 3.26308 -1.51826 0
M  V30 21688 C 1996.27 3.30081 -3.02904 0
M  V30 21689 C 1998.01 4.02482 -1.34939 0
M  V30 21690 C 1995.92 4.69192 -3.60018 0
M  V30 21691 H 1994.85 0.680734 -0.324218 0
M  V30 21692 H 1997.5 1.24044 -1.35223 0
M  V30 21693 H 1995.88 3.83934 -0.970087 0
M  V30 21694 H 1997.06 2.82272 -3.64224 0
M  V30 21695 H 1995.37 2.67393 -3.19202 0
M  V30 21696 H 1997.97 5.05241 -1.7503 0
M  V30 21697 H 1998.31 4.15266 -0.293208 0
M  V30 21698 H 1998.84 3.51274 -1.86685 0
M  V30 21699 H 1995.58 4.61608 -4.65401 0
M  V30 21700 H 1995.1 5.17363 -3.03473 0
M  V30 21701 H 1996.78 5.38161 -3.59153 0
M  V30 21702 N 1996.91 0.917694 1.28125 0
M  V30 21703 C 1997.86 0.399355 2.29146 0
M  V30 21704 C 1998.86 -0.511045 1.61508 0
M  V30 21705 O 2000.06 -0.391853 1.75683 0
M  V30 21706 H 1996.44 0.110553 0.743829 0
M  V30 21707 H 1998.41 1.26438 2.70289 0
M  V30 21708 C 1997.16 -0.34177 3.46016 0
M  V30 21709 H 1996.48 0.349564 3.98269 0
M  V30 21710 H 1997.92 -0.669035 4.18688 0
M  V30 21711 C 1996.38 -1.55111 2.99069 0
M  V30 21712 O 1996.91 -2.65012 3.0188 0
M  V30 21713 N 1995.11 -1.39946 2.54683 0
M  V30 21714 H 1994.66 -0.505341 2.52595 0
M  V30 21715 H 1994.62 -2.20989 2.23632 0
M  V30 21716 N 1998.39 -1.42074 0.682102 0
M  V30 21717 C 1999.62 -2.05769 0.216029 0
M  V30 21718 C 2000.03 -1.51278 -1.12962 0
M  V30 21719 O 1999.39 -0.655521 -1.70321 0
M  V30 21720 C 1999.44 -3.61187 0.150351 0
M  V30 21721 O 1999.16 -4.13659 1.44283 0
M  V30 21722 C 2000.66 -4.42007 -0.338339 0
M  V30 21723 H 1997.88 -0.662997 0.103326 0
M  V30 21724 H 2000.43 -1.82084 0.930895 0
M  V30 21725 H 1998.58 -3.83958 -0.515249 0
M  V30 21726 H 1999 -5.07592 1.32101 0
M  V30 21727 H 2000.47 -5.50994 -0.33319 0
M  V30 21728 H 2000.95 -4.17125 -1.37489 0
M  V30 21729 H 2001.55 -4.2427 0.295782 0
M  V30 21730 N 1999.87 -0.425924 -1.51735 0
M  V30 21731 C 2001.1 0.143351 -2.06403 0
M  V30 21732 C 2001.51 1.37439 -1.29445 0
M  V30 21733 O 2000.87 1.79096 -0.350858 0
M  V30 21734 C 2000.92 0.477017 -3.58339 0
M  V30 21735 O 2000.64 -0.705148 -4.32388 0
M  V30 21736 C 2002.14 1.09821 -4.29481 0
M  V30 21737 H 1999.36 0.0129769 -0.670875 0
M  V30 21738 H 2001.91 -0.601719 -1.95447 0
M  V30 21739 H 2000.06 1.17198 -3.69247 0
M  V30 21740 H 2000.48 -0.422599 -5.22795 0
M  V30 21741 H 2001.95 1.28175 -5.36913 0
M  V30 21742 H 2002.43 2.07605 -3.87036 0
M  V30 21743 H 2003.03 0.442957 -4.22987 0
M  V30 21744 N 2001.35 1.56817 -0.156891 0
M  V30 21745 C 2002.62 1.88075 0.537326 0
M  V30 21746 C 2003 1.06447 1.82297 0
M  V30 21747 O 2002.35 0.154147 2.27979 0
M  V30 21748 C 2002.56 3.39866 0.79321 0
M  V30 21749 C 2003.91 4.09298 1.12961 0
M  V30 21750 O 2004.93 3.45102 0.882235 0
M  V30 21751 O 2003.79 5.22688 1.59561 0
M  V30 21752 H 2000.89 0.779855 0.275236 0
M  V30 21753 H 2003.43 1.68585 -0.194246 0
M  V30 21754 H 2002.21 3.91127 -0.11626 0
M  V30 21755 H 2001.83 3.64919 1.57861 0
M  V30 21756 N 2002.83 -0.116876 1.57166 0
M  V30 21757 C 2004.07 -0.822659 1.84599 0
M  V30 21758 C 2004.39 -1.80315 0.742392 0
M  V30 21759 O 2003.66 -1.94505 -0.233411 0
M  V30 21760 H 2002.24 -0.306797 0.681091 0
M  V30 21761 H 2004.91 -0.103693 1.94624 0
M  V30 21762 H 2004 -1.36659 2.8059 0
M  V30 21763 N 2004.3 -1.52772 -0.387116 0
M  V30 21764 C 2005.53 -1.72086 -1.15763 0
M  V30 21765 C 2005.95 -0.43912 -1.82903 0
M  V30 21766 O 2005.31 0.605254 -1.70899 0
M  V30 21767 C 2005.36 -2.87248 -2.17992 0
M  V30 21768 O 2004.46 -2.54353 -3.2462 0
M  V30 21769 H 2003.8 -0.572174 -0.336918 0
M  V30 21770 H 2006.33 -1.99571 -0.450833 0
M  V30 21771 H 2006.34 -3.12798 -2.61957 0
M  V30 21772 H 2005.02 -3.80232 -1.68513 0
M  V30 21773 H 2003.6 -2.39551 -2.8578 0
M  V30 21774 N 2005.78 0.645673 -1.43767 0
M  V30 21775 C 2007.2 0.962209 -1.27333 0
M  V30 21776 C 2007.4 2.0052 -0.198519 0
M  V30 21777 O 2006.45 2.48974 0.420512 0
M  V30 21778 C 2007.77 1.4393 -2.64016 0
M  V30 21779 C 2009.31 1.55555 -2.71609 0
M  V30 21780 C 2009.79 2.06652 -4.08728 0
M  V30 21781 N 2011.28 2.13944 -4.10831 0
M  V30 21782 C 2012.02 2.54619 -5.13767 0
M  V30 21783 N 2011.51 2.94536 -6.27073 0
M  V30 21784 N 2013.3 2.54625 -5.01121 0
M  V30 21785 H 2005.46 -0.0443554 -2.12354 0
M  V30 21786 H 2007.72 0.042755 -0.947035 0
M  V30 21787 H 2007.42 0.747304 -3.43669 0
M  V30 21788 H 2007.3 2.41297 -2.89923 0
M  V30 21789 H 2009.69 2.23854 -1.92285 0
M  V30 21790 H 2009.77 0.566006 -2.49459 0
M  V30 21791 H 2009.41 1.38952 -4.88523 0
M  V30 21792 H 2009.34 3.06451 -4.28247 0
M  V30 21793 H 2011.83 1.85838 -3.29048 0
M  V30 21794 H 2012.14 3.24345 -7.01442 0
M  V30 21795 H 2010.49 2.92323 -6.30533 0
M  V30 21796 H 2013.68 2.22822 -4.11665 0
M  V30 21797 H 2013.85 2.86002 -5.81469 0
M  V30 21798 N 2007.26 1.30423 0.884744 0
M  V30 21799 C 2008.51 1.19259 1.63657 0
M  V30 21800 C 2008.83 -0.252645 1.92852 0
M  V30 21801 O 2008.09 -1.19718 1.5481 0
M  V30 21802 C 2008.39 1.96681 2.98415 0
M  V30 21803 C 2008.05 3.46298 2.8877 0
M  V30 21804 C 2006.72 3.87098 2.85847 0
M  V30 21805 C 2009.07 4.41573 2.7688 0
M  V30 21806 C 2006.4 5.21464 2.68873 0
M  V30 21807 C 2008.75 5.76047 2.61444 0
M  V30 21808 C 2007.41 6.16085 2.56896 0
M  V30 21809 H 2006.68 0.436399 0.598863 0
M  V30 21810 H 2009.33 1.61527 1.02865 0
M  V30 21811 H 2007.63 1.47049 3.63158 0
M  V30 21812 H 2009.33 1.85436 3.55548 0
M  V30 21813 H 2005.92 3.13877 2.91855 0
M  V30 21814 H 2010.11 4.10994 2.78205 0
M  V30 21815 H 2005.36 5.51577 2.63766 0
M  V30 21816 H 2009.54 6.49509 2.51218 0
M  V30 21817 H 2007.16 7.20147 2.43501 0
M  V30 21818 N 2008.74 -1.09711 1.13142 0
M  V30 21819 C 2010.15 -1.63323 0.904565 0
M  V30 21820 C 2010.5 -1.88052 -0.559546 0
M  V30 21821 O 2009.62 -1.62804 -1.42562 0
M  V30 21822 C 2010.22 -2.96707 1.63556 0
M  V30 21823 C 2008.78 -3.47156 1.45465 0
M  V30 21824 C 2007.93 -2.21625 1.66667 0
M  V30 21825 H 2010.88 -0.931125 1.28514 0
M  V30 21826 H 2010.9 -3.64525 1.09094 0
M  V30 21827 H 2010.41 -2.78677 2.70113 0
M  V30 21828 H 2008.51 -3.70315 0.411972 0
M  V30 21829 H 2008.62 -4.24784 2.21576 0
M  V30 21830 H 2006.99 -2.30136 1.0913 0
M  V30 21831 H 2007.77 -2.06118 2.74537 0
M  V30 21832 N 2010.22 -0.924476 -1.27637 0
M  V30 21833 C 2011.18 -0.425772 -2.25211 0
M  V30 21834 C 2012.18 0.453876 -1.54261 0
M  V30 21835 O 2013.37 0.255412 -1.72317 0
M  V30 21836 C 2010.5 0.388294 -3.38681 0
M  V30 21837 H 2011.69 -1.28783 -2.70841 0
M  V30 21838 H 2009.25 -0.704863 -1.39504 0
M  V30 21839 H 2009.98 1.2693 -2.98428 0
M  V30 21840 H 2009.77 -0.242358 -3.9135 0
M  V30 21841 H 2011.26 0.727693 -4.11211 0
M  V30 21842 N 2011.69 1.41711 -0.689627 0
M  V30 21843 C 2012.92 2.06171 -0.225425 0
M  V30 21844 C 2013.34 1.51535 1.11439 0
M  V30 21845 O 2012.7 0.639865 1.69633 0
M  V30 21846 C 2012.75 3.60114 -0.187089 0
M  V30 21847 O 2011.85 4.03757 0.83989 0
M  V30 21848 H 2011.2 0.654551 -0.111621 0
M  V30 21849 H 2013.73 1.81582 -0.942814 0
M  V30 21850 H 2013.74 4.07997 -0.0159369 0
M  V30 21851 H 2012.41 3.99251 -1.16497 0
M  V30 21852 H 2010.99 3.67392 0.638575 0
M  V30 21853 N 2013.17 0.433965 1.51507 0
M  V30 21854 C 2014.1 -0.41493 2.25413 0
M  V30 21855 C 2015.12 -0.989176 1.29303 0
M  V30 21856 O 2016.31 -0.883889 1.55079 0
M  V30 21857 C 2013.41 -1.59207 2.99176 0
M  V30 21858 C 2012.58 -1.1373 4.22355 0
M  V30 21859 C 2011.64 -2.18418 4.78727 0
M  V30 21860 O 2010.66 -1.77991 5.40655 0
M  V30 21861 N 2011.87 -3.50866 4.62465 0
M  V30 21862 H 2014.63 0.218474 2.98903 0
M  V30 21863 H 2012.19 0.26267 1.59755 0
M  V30 21864 H 2014.18 -2.28857 3.33776 0
M  V30 21865 H 2012.75 -2.13089 2.28718 0
M  V30 21866 H 2011.97 -0.267997 3.93288 0
M  V30 21867 H 2013.26 -0.8108 5.02298 0
M  V30 21868 H 2012.66 -3.86446 4.1313 0
M  V30 21869 H 2011.22 -4.1642 5.01436 0
M  V30 21870 N 2014.65 -1.56732 0.165206 0
M  V30 21871 C 2015.9 -1.96988 -0.482024 0
M  V30 21872 C 2016.23 -1.05093 -1.63307 0
M  V30 21873 O 2015.5 -0.0968503 -1.94259 0
M  V30 21874 C 2015.79 -3.46766 -0.970842 0
M  V30 21875 C 2015.64 -4.4944 0.179956 0
M  V30 21876 C 2016.96 -3.99487 -1.84657 0
M  V30 21877 H 2014.08 -0.716228 -0.173741 0
M  V30 21878 H 2016.72 -1.88347 0.250108 0
M  V30 21879 H 2014.87 -3.54261 -1.59472 0
M  V30 21880 H 2016.54 -4.5401 0.81687 0
M  V30 21881 H 2014.79 -4.25661 0.836383 0
M  V30 21882 H 2015.46 -5.51623 -0.20409 0
M  V30 21883 H 2017.93 -3.94585 -1.32068 0
M  V30 21884 H 2016.81 -5.04715 -2.15763 0
M  V30 21885 H 2017.07 -3.42935 -2.79013 0
M  V30 21886 N 2016.13 0.10854 -1.57226 0
M  V30 21887 C 2017.54 0.664549 -1.74472 0
M  V30 21888 C 2017.89 1.79792 -0.785438 0
M  V30 21889 O 2017.02 2.16364 0.0392281 0
M  V30 21890 C 2017.61 1.21227 -3.16369 0
M  V30 21891 C 2016.17 1.71447 -3.35086 0
M  V30 21892 C 2015.32 0.618471 -2.70315 0
M  V30 21893 H 2018.27 -0.11745 -1.58265 0
M  V30 21894 H 2018.29 2.08181 -3.18498 0
M  V30 21895 H 2017.8 0.387164 -3.86164 0
M  V30 21896 H 2015.9 2.56402 -2.7035 0
M  V30 21897 H 2016.01 1.81672 -4.4332 0
M  V30 21898 H 2014.38 1.05465 -2.31839 0
M  V30 21899 H 2015.16 -0.195832 -3.42741 0
M  V30 21900 N 2017.61 1.52975 0.379009 0
M  V30 21901 C 2018.55 1.79115 1.48393 0
M  V30 21902 C 2019.55 0.659562 1.56032 0
M  V30 21903 O 2020.75 0.842243 1.59079 0
M  V30 21904 H 2017.13 0.566908 0.494084 0
M  V30 21905 H 2019.1 2.71624 1.23544 0
M  V30 21906 C 2017.85 1.98595 2.85404 0
M  V30 21907 H 2017.17 2.85102 2.8028 0
M  V30 21908 H 2018.61 2.2087 3.61929 0
M  V30 21909 C 2017.07 0.761257 3.28187 0
M  V30 21910 O 2017.6 -0.0565264 4.0166 0
M  V30 21911 N 2015.81 0.588515 2.84578 0
M  V30 21912 H 2015.35 1.25513 2.24954 0
M  V30 21913 H 2015.31 -0.229535 3.13561 0
M  V30 21914 N 2019.08 -0.63804 1.44107 0
M  V30 21915 C 2020.5 -0.955442 1.27842 0
M  V30 21916 C 2020.7 -2.00412 0.209151 0
M  V30 21917 O 2019.76 -2.49193 -0.407303 0
M  V30 21918 C 2021.07 -1.42528 2.64776 0
M  V30 21919 C 2022.62 -1.54112 2.72431 0
M  V30 21920 C 2023.09 -2.04482 4.09819 0
M  V30 21921 N 2024.58 -2.11762 4.1196 0
M  V30 21922 C 2025.32 -2.51891 5.1511 0
M  V30 21923 N 2024.81 -2.91207 6.28626 0
M  V30 21924 N 2026.61 -2.51964 5.02464 0
M  V30 21925 H 2018.76 0.0556164 2.12327 0
M  V30 21926 H 2021.02 -0.037732 0.947249 0
M  V30 21927 H 2020.73 -0.729067 3.4406 0
M  V30 21928 H 2020.6 -2.39756 2.91199 0
M  V30 21929 H 2022.99 -2.22831 1.93469 0
M  V30 21930 H 2023.07 -0.552769 2.49756 0
M  V30 21931 H 2022.71 -1.3636 4.89253 0
M  V30 21932 H 2022.64 -3.04176 4.29866 0
M  V30 21933 H 2025.13 -1.8409 3.30029 0
M  V30 21934 H 2025.45 -3.2062 7.03152 0
M  V30 21935 H 2023.79 -2.88975 6.32075 0
M  V30 21936 H 2026.98 -2.20635 4.12841 0
M  V30 21937 H 2027.16 -2.82915 5.82978 0
M  V30 21938 N 2020.56 -1.3089 -0.877815 0
M  V30 21939 C 2021.79 -1.23199 -1.66844 0
M  V30 21940 C 2022.21 0.200808 -1.87025 0
M  V30 21941 O 2021.57 1.14417 -1.40636 0
M  V30 21942 C 2021.62 -1.97328 -3.01818 0
M  V30 21943 O 2020.72 -1.30526 -3.91199 0
M  V30 21944 H 2020.06 -0.425746 -0.509545 0
M  V30 21945 H 2022.59 -1.7283 -1.09504 0
M  V30 21946 H 2022.6 -2.06624 -3.51811 0
M  V30 21947 H 2021.28 -3.01529 -2.86449 0
M  V30 21948 H 2019.86 -1.29631 -3.49643 0
M  V30 21949 N 2022.04 1.0911 -1.13723 0
M  V30 21950 C 2022.95 2.19388 -0.831037 0
M  V30 21951 C 2023.97 1.73007 0.185658 0
M  V30 21952 O 2025.14 2.01394 0.015917 0
M  V30 21953 C 2022.21 3.45355 -0.305036 0
M  V30 21954 C 2021.27 4.064 -1.38338 0
M  V30 21955 C 2020.5 5.26355 -0.882388 0
M  V30 21956 O 2020.72 5.69718 0.278833 0
M  V30 21957 O 2019.66 5.78609 -1.65816 0
M  V30 21958 H 2023.48 2.48037 -1.75246 0
M  V30 21959 H 2021.07 1.18108 -0.91493 0
M  V30 21960 H 2022.95 4.21396 -0.0172636 0
M  V30 21961 H 2021.63 3.18301 0.588762 0
M  V30 21962 H 2020.53 3.31981 -1.72452 0
M  V30 21963 H 2021.87 4.37688 -2.25144 0
M  V30 21964 N 2023.52 0.931232 1.27145 0
M  V30 21965 C 2024.76 0.580868 1.95973 0
M  V30 21966 C 2025.12 -0.862425 1.71541 0
M  V30 21967 O 2026.32 -1.32124 2.34087 0
M  V30 21968 C 2024.59 0.902054 3.45829 0
M  V30 21969 S 2026.15 0.660737 4.33797 0
M  V30 21970 H 2022.97 0.21429 0.677939 0
M  V30 21971 H 2025.57 1.20042 1.54305 0
M  V30 21972 H 2024.28 1.95008 3.61109 0
M  V30 21973 H 2023.81 0.271831 3.9246 0
M  V30 21974 H 2025.82 -0.479804 4.93875 0
M  V30 21975 N 2025 -1.41343 0.697132 0
M  V30 21976 C 2026.24 -2.01204 0.22876 0
M  V30 21977 C 2026.57 -1.55215 -1.17211 0
M  V30 21978 O 2025.83 -0.754886 -1.80555 0
M  V30 21979 C 2026.13 -3.56617 0.236459 0
M  V30 21980 C 2025.79 -4.22121 1.58507 0
M  V30 21981 C 2024.45 -4.39729 1.95427 0
M  V30 21982 C 2026.81 -4.58835 2.47224 0
M  V30 21983 C 2024.13 -4.91328 3.20646 0
M  V30 21984 C 2026.49 -5.11825 3.71777 0
M  V30 21985 C 2025.15 -5.27643 4.08838 0
M  V30 21986 H 2024.42 -0.736257 0.0837091 0
M  V30 21987 H 2027.07 -1.69218 0.89653 0
M  V30 21988 H 2025.37 -3.88402 -0.514862 0
M  V30 21989 H 2027.07 -4.00743 -0.14349 0
M  V30 21990 H 2023.66 -4.08792 1.28791 0
M  V30 21991 H 2027.84 -4.44885 2.1998 0
M  V30 21992 H 2023.1 -5.01759 3.49353 0
M  V30 21993 H 2027.27 -5.39213 4.40706 0
M  V30 21994 H 2024.9 -5.67388 5.05939 0
M  V30 21995 N 2026.48 -0.441993 -1.51275 0
M  V30 21996 C 2027.44 0.355502 -2.26426 0
M  V30 21997 C 2028.44 0.945699 -1.30051 0
M  V30 21998 O 2029.63 0.819422 -1.53724 0
M  V30 21999 C 2026.76 1.50344 -3.05957 0
M  V30 22000 H 2027.95 -0.303177 -2.98364 0
M  V30 22001 H 2025.51 -0.195279 -1.55075 0
M  V30 22002 H 2026.24 2.19803 -2.38447 0
M  V30 22003 H 2026.03 1.08636 -3.7675 0
M  V30 22004 H 2027.52 2.06676 -3.6287 0
M  V30 22005 N 2027.95 1.56642 -0.173515 0
M  V30 22006 C 2028.88 2.21076 0.751509 0
M  V30 22007 C 2029.86 1.16706 1.23749 0
M  V30 22008 O 2031.05 1.45142 1.29025 0
M  V30 22009 C 2028.18 2.85323 1.9801 0
M  V30 22010 C 2027.13 3.95751 1.62989 0
M  V30 22011 C 2026.46 4.47058 2.93332 0
M  V30 22012 C 2027.76 5.15234 0.856231 0
M  V30 22013 H 2029.45 2.98631 0.21442 0
M  V30 22014 H 2027 1.4364 0.101692 0
M  V30 22015 H 2028.95 3.29075 2.63226 0
M  V30 22016 H 2027.68 2.0514 2.54136 0
M  V30 22017 H 2026.34 3.52658 1.00141 0
M  V30 22018 H 2025.98 3.63663 3.47503 0
M  V30 22019 H 2025.68 5.21556 2.70652 0
M  V30 22020 H 2027.21 4.93497 3.59573 0
M  V30 22021 H 2028.62 5.55665 1.41102 0
M  V30 22022 H 2027.02 5.95663 0.728389 0
M  V30 22023 H 2028.09 4.84677 -0.147009 0
M  V30 22024 N 2029.43 -0.1002 1.57281 0
M  V30 22025 C 2030.36 -1.15288 1.96936 0
M  V30 22026 C 2031.34 -1.39113 0.8418 0
M  V30 22027 O 2032.53 -1.52958 1.10165 0
M  V30 22028 C 2029.65 -2.50308 2.28175 0
M  V30 22029 C 2028.7 -2.42795 3.50646 0
M  V30 22030 S 2029.53 -1.8494 5.02551 0
M  V30 22031 C 2030.69 -3.21595 5.36962 0
M  V30 22032 H 2030.92 -0.814808 2.85916 0
M  V30 22033 H 2028.45 -0.307686 1.51303 0
M  V30 22034 H 2030.41 -3.27987 2.46849 0
M  V30 22035 H 2029.07 -2.81286 1.39775 0
M  V30 22036 H 2028.27 -3.42298 3.6993 0
M  V30 22037 H 2027.87 -1.73243 3.31456 0
M  V30 22038 H 2030.16 -4.17856 5.33294 0
M  V30 22039 H 2031.1 -3.0712 6.38031 0
M  V30 22040 H 2031.51 -3.2089 4.64424 0
M  V30 22041 N 2030.91 -1.53174 -0.370891 0
M  V30 22042 C 2031.86 -1.79899 -1.47442 0
M  V30 22043 C 2032.85 -0.667827 -1.55681 0
M  V30 22044 O 2034.06 -0.850668 -1.58631 0
M  V30 22045 H 2030.43 -0.56952 -0.491071 0
M  V30 22046 H 2032.4 -2.72275 -1.22102 0
M  V30 22047 C 2031.15 -2.00106 -2.84347 0
M  V30 22048 H 2030.48 -2.86585 -2.78764 0
M  V30 22049 H 2031.92 -2.22786 -3.60752 0
M  V30 22050 C 2030.37 -0.778651 -3.27778 0
M  V30 22051 O 2030.9 0.0352246 -4.01685 0
M  V30 22052 N 2029.11 -0.603599 -2.84262 0
M  V30 22053 H 2028.66 -1.26705 -2.24285 0
M  V30 22054 H 2028.62 0.212903 -3.13678 0
M  V30 22055 N 2032.39 0.630389 -1.44443 0
M  V30 22056 C 2033.63 1.39199 -1.47484 0
M  V30 22057 C 2033.97 1.93903 -0.107313 0
M  V30 22058 O 2033.24 1.73699 0.875158 0
M  V30 22059 C 2033.52 2.55674 -2.5358 0
M  V30 22060 C 2033.38 2.06314 -3.99693 0
M  V30 22061 C 2034.7 3.57858 -2.56174 0
M  V30 22062 H 2031.82 0.504794 -0.536984 0
M  V30 22063 H 2034.46 0.712698 -1.76127 0
M  V30 22064 H 2032.61 3.13624 -2.29287 0
M  V30 22065 H 2034.28 1.53189 -4.35122 0
M  V30 22066 H 2032.52 1.37492 -4.11435 0
M  V30 22067 H 2033.19 2.90173 -4.69578 0
M  V30 22068 H 2035.67 3.0971 -2.77883 0
M  V30 22069 H 2034.55 4.36875 -3.32312 0
M  V30 22070 H 2034.81 4.11976 -1.60401 0
M  V30 22071 N 2033.87 1.31354 0.870861 0
M  V30 22072 C 2035.09 1.24082 1.66188 0
M  V30 22073 C 2035.52 -0.190886 1.87129 0
M  V30 22074 O 2034.87 -1.13669 1.41241 0
M  V30 22075 C 2034.92 1.98926 3.00767 0
M  V30 22076 O 2034.03 1.32599 3.90501 0
M  V30 22077 H 2033.37 0.428443 0.50728 0
M  V30 22078 H 2035.9 1.73408 1.08586 0
M  V30 22079 H 2035.91 2.08487 3.5071 0
M  V30 22080 H 2034.58 3.03044 2.84846 0
M  V30 22081 H 2033.16 1.31483 3.48951 0
M  V30 22082 N 2035.34 -1.08505 1.143 0
M  V30 22083 C 2036.28 -2.15273 0.786783 0
M  V30 22084 C 2037.29 -1.61618 -0.195861 0
M  V30 22085 O 2038.48 -1.78481 0.0257031 0
M  V30 22086 C 2035.58 -3.38581 0.147036 0
M  V30 22087 C 2034.75 -4.21623 1.16415 0
M  V30 22088 C 2033.81 -5.23335 0.548355 0
M  V30 22089 O 2032.84 -5.56168 1.21104 0
M  V30 22090 N 2034.04 -5.76558 -0.67533 0
M  V30 22091 H 2036.8 -2.46436 1.70557 0
M  V30 22092 H 2034.36 -1.24306 1.03728 0
M  V30 22093 H 2036.36 -4.03748 -0.277407 0
M  V30 22094 H 2034.93 -3.05228 -0.674862 0
M  V30 22095 H 2034.15 -3.5245 1.76557 0
M  V30 22096 H 2035.43 -4.73925 1.85128 0
M  V30 22097 H 2034.83 -5.52115 -1.23232 0
M  V30 22098 H 2033.39 -6.43412 -1.0423 0
M  V30 22099 N 2036.82 -0.937962 -1.26649 0
M  V30 22100 C 2037.77 -0.435759 -2.28482 0
M  V30 22101 C 2038.76 0.485286 -1.623 0
M  V30 22102 O 2039.97 0.363854 -1.76284 0
M  V30 22103 H 2036.34 -0.122373 -0.741976 0
M  V30 22104 H 2038.32 -1.30722 -2.68243 0
M  V30 22105 C 2037.06 0.286679 -3.46516 0
M  V30 22106 H 2036.39 -0.412881 -3.97662 0
M  V30 22107 H 2037.83 0.602341 -4.197 0
M  V30 22108 C 2036.29 1.50334 -3.01499 0
M  V30 22109 O 2036.82 2.60176 -3.06058 0
M  V30 22110 N 2035.02 1.35877 -2.56877 0
M  V30 22111 H 2034.57 0.465092 -2.53367 0
M  V30 22112 H 2034.53 2.17403 -2.27119 0
M  V30 22113 N 2038.3 1.40971 -0.704618 0
M  V30 22114 C 2039.55 2.01377 -0.239781 0
M  V30 22115 C 2039.88 1.5571 1.16051 0
M  V30 22116 O 2039.15 0.772278 1.78511 0
M  V30 22117 C 2039.44 3.58784 -0.307556 0
M  V30 22118 C 2039.29 4.14553 -1.74544 0
M  V30 22119 C 2040.61 4.3888 0.327516 0
M  V30 22120 H 2037.73 0.731655 -0.088603 0
M  V30 22121 H 2040.37 1.67597 -0.895048 0
M  V30 22122 H 2038.52 3.87692 0.25036 0
M  V30 22123 H 2040.19 3.96486 -2.3579 0
M  V30 22124 H 2038.43 3.69254 -2.2767 0
M  V30 22125 H 2039.11 5.23715 -1.74433 0
M  V30 22126 H 2041.58 4.15838 -0.147737 0
M  V30 22127 H 2040.46 5.48332 0.249594 0
M  V30 22128 H 2040.72 4.19029 1.40952 0
M  V30 22129 N 2039.78 0.45001 1.51039 0
M  V30 22130 C 2041.19 0.10298 1.59267 0
M  V30 22131 C 2041.39 -1.38881 1.45995 0
M  V30 22132 O 2040.45 -2.16003 1.30763 0
M  V30 22133 C 2041.76 0.634392 2.93932 0
M  V30 22134 C 2043.31 0.59595 3.07274 0
M  V30 22135 C 2043.79 1.10455 4.44481 0
M  V30 22136 N 2045.28 1.06307 4.50836 0
M  V30 22137 C 2046.01 1.42733 5.55351 0
M  V30 22138 N 2045.51 1.86506 6.67224 0
M  V30 22139 N 2047.3 1.34469 5.45779 0
M  V30 22140 H 2039.45 1.42049 1.57911 0
M  V30 22141 H 2041.72 0.586142 0.745078 0
M  V30 22142 H 2041.42 1.67863 3.09055 0
M  V30 22143 H 2041.3 0.0662668 3.77142 0
M  V30 22144 H 2043.68 -0.439332 2.91811 0
M  V30 22145 H 2043.76 1.20063 2.25873 0
M  V30 22146 H 2043.41 2.13836 4.60692 0
M  V30 22147 H 2043.34 0.476284 5.24442 0
M  V30 22148 H 2045.83 0.741765 3.70549 0
M  V30 22149 H 2046.14 2.12505 7.43009 0
M  V30 22150 H 2044.49 1.90443 6.68398 0
M  V30 22151 H 2047.68 1.00128 4.57266 0
M  V30 22152 H 2047.85 1.63185 6.27116 0
M  V30 22153 N 2041.26 -1.56548 0.18182 0
M  V30 22154 C 2042.5 -1.98256 -0.454541 0
M  V30 22155 C 2042.86 -1.06631 -1.60148 0
M  V30 22156 O 2042.15 -0.108046 -1.91295 0
M  V30 22157 C 2042.34 -3.43837 -0.975236 0
M  V30 22158 C 2042.17 -4.49541 0.11972 0
M  V30 22159 C 2040.94 -5.02042 0.572914 0
M  V30 22160 C 2043.14 -5.05933 0.923913 0
M  V30 22161 N 2041.12 -5.91392 1.64708 0
M  V30 22162 C 2042.49 -5.91826 1.84777 0
M  V30 22163 C 2044.55 -4.88403 0.967818 0
M  V30 22164 C 2043.25 -6.62063 2.81185 0
M  V30 22165 C 2045.28 -5.5937 1.91989 0
M  V30 22166 C 2044.64 -6.44998 2.83121 0
M  V30 22167 H 2040.74 -0.770411 -0.13413 0
M  V30 22168 H 2043.32 -1.92611 0.284458 0
M  V30 22169 H 2041.49 -3.50008 -1.68372 0
M  V30 22170 H 2043.23 -3.72536 -1.5811 0
M  V30 22171 H 2039.98 -4.73299 0.168686 0
M  V30 22172 H 2040.41 -6.40772 2.18496 0
M  V30 22173 H 2045.05 -4.2189 0.277265 0
M  V30 22174 H 2042.77 -7.27783 3.51223 0
M  V30 22175 H 2046.35 -5.47788 1.9601 0
M  V30 22176 H 2045.23 -6.98946 3.55591 0
M  V30 22177 N 2042.73 0.0918577 -1.57332 0
M  V30 22178 C 2043.68 1.11121 -2.02289 0
M  V30 22179 C 2044.65 1.39617 -0.899791 0
M  V30 22180 O 2045.84 1.51025 -1.16602 0
M  V30 22181 C 2042.98 2.42534 -2.45502 0
M  V30 22182 C 2042.09 2.20741 -3.71345 0
M  V30 22183 C 2041.22 3.45576 -4.03424 0
M  V30 22184 C 2040.26 3.19059 -5.22368 0
M  V30 22185 N 2039.4 4.36169 -5.50182 0
M  V30 22186 H 2044.24 0.720847 -2.8915 0
M  V30 22187 H 2041.78 0.344398 -1.43012 0
M  V30 22188 H 2043.74 3.19232 -2.68601 0
M  V30 22189 H 2042.37 2.79411 -1.61646 0
M  V30 22190 H 2041.42 1.3483 -3.55704 0
M  V30 22191 H 2042.73 1.97141 -4.58189 0
M  V30 22192 H 2041.88 4.3068 -4.27317 0
M  V30 22193 H 2040.62 3.72234 -3.15108 0
M  V30 22194 H 2039.63 2.32349 -4.98291 0
M  V30 22195 H 2040.85 2.93744 -6.12284 0
M  V30 22196 H 2038.8 4.62896 -4.64826 0
M  V30 22197 H 2038.72 4.15771 -6.31404 0
M  V30 22198 H 2039.98 5.22328 -5.78613 0
M  V30 22199 N 2044.21 1.53368 0.362763 0
M  V30 22200 C 2045.16 1.80679 1.46485 0
M  V30 22201 C 2046.15 0.676074 1.55324 0
M  V30 22202 O 2047.36 0.859068 1.58177 0
M  V30 22203 H 2043.74 0.572116 0.488044 0
M  V30 22204 H 2045.71 2.72919 1.20656 0
M  V30 22205 C 2044.46 2.01611 2.83281 0
M  V30 22206 H 2043.78 2.88059 2.7724 0
M  V30 22207 H 2045.22 2.24696 3.59566 0
M  V30 22208 C 2043.68 0.796023 3.27361 0
M  V30 22209 O 2044.21 -0.0139218 4.01698 0
M  V30 22210 N 2042.41 0.618665 2.83938 0
M  V30 22211 H 2041.96 1.27892 2.2361 0
M  V30 22212 H 2041.92 -0.196265 3.13787 0
M  V30 22213 N 2045.69 -0.62272 1.44776 0
M  V30 22214 C 2046.62 -1.74528 1.5512 0
M  V30 22215 C 2047.6 -1.65241 0.403656 0
M  V30 22216 O 2048.79 -1.83873 0.624863 0
M  V30 22217 C 2045.92 -3.13088 1.5031 0
M  V30 22218 C 2044.87 -3.37172 2.63626 0
M  V30 22219 C 2044.2 -4.75849 2.43868 0
M  V30 22220 C 2045.5 -3.28908 4.0573 0
M  V30 22221 H 2047.19 -1.66128 2.49082 0
M  V30 22222 H 2044.74 -0.797813 1.19879 0
M  V30 22223 H 2046.69 -3.91403 1.56146 0
M  V30 22224 H 2045.41 -3.22293 0.528684 0
M  V30 22225 H 2044.07 -2.61241 2.57194 0
M  V30 22226 H 2043.72 -4.81767 1.446 0
M  V30 22227 H 2043.42 -4.92921 3.19849 0
M  V30 22228 H 2044.94 -5.56383 2.51535 0
M  V30 22229 H 2046.36 -3.97117 4.13487 0
M  V30 22230 H 2044.76 -3.57513 4.8198 0
M  V30 22231 H 2045.83 -2.26581 4.28706 0
M  V30 22232 N 2047.17 -1.31814 -0.863883 0
M  V30 22233 C 2048.12 -1.19976 -1.97166 0
M  V30 22234 C 2049.09 -0.0840886 -1.65887 0
M  V30 22235 O 2050.27 -0.258021 -1.89047 0
M  V30 22236 C 2047.41 -0.919316 -3.3263 0
M  V30 22237 C 2046.52 -2.1189 -3.76466 0
M  V30 22238 C 2045.66 -1.77472 -5.00677 0
M  V30 22239 C 2044.7 -2.93804 -5.36978 0
M  V30 22240 N 2043.83 -2.59541 -6.52367 0
M  V30 22241 H 2048.67 -2.14735 -2.06623 0
M  V30 22242 H 2046.21 -1.06811 -1.01143 0
M  V30 22243 H 2048.17 -0.737251 -4.10634 0
M  V30 22244 H 2046.8 -0.0085443 -3.22799 0
M  V30 22245 H 2045.85 -2.41154 -2.94192 0
M  V30 22246 H 2047.16 -2.98939 -3.99295 0
M  V30 22247 H 2046.32 -1.55764 -5.86364 0
M  V30 22248 H 2045.06 -0.876231 -4.79764 0
M  V30 22249 H 2044.06 -3.16154 -4.49807 0
M  V30 22250 H 2045.29 -3.84371 -5.59853 0
M  V30 22251 H 2043.23 -1.72222 -6.32989 0
M  V30 22252 H 2043.15 -3.4012 -6.7517 0
M  V30 22253 H 2044.42 -2.4124 -7.41231 0
M  V30 22254 N 2048.65 1.07897 -1.14873 0
M  V30 22255 C 2049.89 1.80653 -0.921532 0
M  V30 22256 C 2050.23 1.8624 0.550287 0
M  V30 22257 O 2049.5 1.34206 1.4078 0
M  V30 22258 C 2049.78 3.26 -1.52958 0
M  V30 22259 C 2049.64 3.28591 -3.07161 0
M  V30 22260 C 2050.96 4.23118 -1.21076 0
M  V30 22261 H 2048.07 0.655845 -0.336208 0
M  V30 22262 H 2050.72 1.26293 -1.41951 0
M  V30 22263 H 2048.87 3.72421 -1.1061 0
M  V30 22264 H 2050.54 2.90454 -3.58377 0
M  V30 22265 H 2048.78 2.67712 -3.4134 0
M  V30 22266 H 2049.45 4.31053 -3.44815 0
M  V30 22267 H 2051.93 3.85059 -1.57697 0
M  V30 22268 H 2050.8 5.23119 -1.66246 0
M  V30 22269 H 2051.07 4.41918 -0.12688 0
M  V30 22270 N 2050.12 0.944665 1.2615 0
M  V30 22271 C 2051.07 0.44787 2.28247 0
M  V30 22272 C 2052.07 -0.476672 1.62555 0
M  V30 22273 O 2053.27 -0.3545 1.76475 0
M  V30 22274 H 2049.65 0.126306 0.741317 0
M  V30 22275 H 2051.62 1.32142 2.67546 0
M  V30 22276 C 2050.37 -0.268298 3.46663 0
M  V30 22277 H 2049.69 0.433964 3.97438 0
M  V30 22278 H 2051.13 -0.580074 4.20013 0
M  V30 22279 C 2049.59 -1.48732 3.02292 0
M  V30 22280 O 2050.12 -2.58549 3.07434 0
M  V30 22281 N 2048.33 -1.34513 2.57594 0
M  V30 22282 H 2047.87 -0.451649 2.5361 0
M  V30 22283 H 2047.83 -2.16196 2.28269 0
M  V30 22284 N 2051.6 -1.40596 0.712085 0
M  V30 22285 C 2052.85 -2.0095 0.250087 0
M  V30 22286 C 2053.18 -1.5645 -1.15558 0
M  V30 22287 O 2052.43 -0.773994 -1.79744 0
M  V30 22288 C 2052.73 -3.56346 0.27427 0
M  V30 22289 C 2052.4 -4.20416 1.62975 0
M  V30 22290 C 2051.06 -4.37632 2.0008 0
M  V30 22291 C 2053.41 -4.56187 2.52076 0
M  V30 22292 C 2050.74 -4.87899 3.2584 0
M  V30 22293 C 2053.09 -5.07853 3.77185 0
M  V30 22294 C 2051.76 -5.23277 4.14412 0
M  V30 22295 H 2051.03 -0.735327 0.0915134 0
M  V30 22296 H 2053.67 -1.68257 0.914427 0
M  V30 22297 H 2051.98 -3.88927 -0.473638 0
M  V30 22298 H 2053.67 -4.00873 -0.100977 0
M  V30 22299 H 2050.26 -4.07403 1.3312 0
M  V30 22300 H 2054.45 -4.42527 2.24686 0
M  V30 22301 H 2049.7 -4.98026 3.54655 0
M  V30 22302 H 2053.88 -5.34509 4.46401 0
M  V30 22303 H 2051.51 -5.6199 5.11929 0
M  V30 22304 N 2053.08 -0.458013 -1.50798 0
M  V30 22305 C 2054.36 0.162411 -1.94925 0
M  V30 22306 C 2054.74 1.58194 -1.39777 0
M  V30 22307 O 2054.09 2.20663 -0.59332 0
M  V30 22308 C 2054.3 0.119083 -3.48797 0
M  V30 22309 C 2055.64 0.314458 -4.23434 0
M  V30 22310 O 2056.67 0.196266 -3.55659 0
M  V30 22311 O 2055.53 0.551722 -5.43708 0
M  V30 22312 H 2052.62 0.118781 -0.818425 0
M  V30 22313 H 2055.17 -0.517478 -1.61618 0
M  V30 22314 H 2053.94 -0.872528 -3.81448 0
M  V30 22315 H 2053.56 0.840995 -3.88604 0
M  V30 22316 N 2054.56 1.56449 -0.190119 0
M  V30 22317 C 2055.51 2.20194 0.749479 0
M  V30 22318 C 2056.5 1.1716 1.22352 0
M  V30 22319 O 2057.71 1.35317 1.18699 0
M  V30 22320 H 2054.08 0.705613 0.260028 0
M  V30 22321 H 2056.05 2.97807 0.18808 0
M  V30 22322 C 2054.8 2.87151 1.9606 0
M  V30 22323 H 2054.13 3.66174 1.60489 0
M  V30 22324 H 2055.57 3.35198 2.5965 0
M  V30 22325 C 2054.02 1.87921 2.7962 0
M  V30 22326 O 2054.55 1.37638 3.77384 0
M  V30 22327 N 2052.76 1.5626 2.45013 0
M  V30 22328 H 2052.31 1.97343 1.6557 0
M  V30 22329 H 2052.27 0.901217 3.01207 0
M  V30 22330 N 2056.04 -0.0835127 1.57379 0
M  V30 22331 C 2057.28 -0.786031 1.86948 0
M  V30 22332 C 2057.62 -1.77811 0.780828 0
M  V30 22333 O 2056.89 -1.93362 -0.210075 0
M  V30 22334 C 2057.17 -1.50447 3.27166 0
M  V30 22335 C 2057.03 -0.529601 4.46671 0
M  V30 22336 C 2058.35 -2.45226 3.65448 0
M  V30 22337 H 2055.47 -0.284294 0.67996 0
M  V30 22338 H 2058.11 -0.0494231 1.89936 0
M  V30 22339 H 2056.26 -2.13237 3.24749 0
M  V30 22340 H 2057.93 0.0921842 4.61208 0
M  V30 22341 H 2056.17 0.156069 4.33519 0
M  V30 22342 H 2056.84 -1.06967 5.41537 0
M  V30 22343 H 2059.32 -1.92521 3.68883 0
M  V30 22344 H 2058.2 -2.92505 4.6447 0
M  V30 22345 H 2058.46 -3.29506 2.94751 0
M  V30 22346 N 2057.52 -1.53558 -0.354624 0
M  V30 22347 C 2058.76 -1.69934 -1.09393 0
M  V30 22348 C 2059.08 -0.459423 -1.89511 0
M  V30 22349 O 2058.35 0.526608 -1.88689 0
M  V30 22350 H 2056.93 -0.626487 -0.406845 0
M  V30 22351 H 2059.6 -1.90781 -0.398582 0
M  V30 22352 H 2058.69 -2.56533 -1.77757 0
M  V30 22353 N 2058.99 0.615033 -1.45104 0
M  V30 22354 C 2059.92 1.73703 -1.56043 0
M  V30 22355 C 2060.9 1.65025 -0.412413 0
M  V30 22356 O 2062.09 1.83539 -0.634606 0
M  V30 22357 C 2059.22 3.12287 -1.51968 0
M  V30 22358 C 2058.17 3.35769 -2.65411 0
M  V30 22359 C 2057.5 4.74549 -2.46389 0
M  V30 22360 C 2058.8 3.26752 -4.07469 0
M  V30 22361 H 2060.49 1.64805 -2.4996 0
M  V30 22362 H 2058.04 0.791445 -1.203 0
M  V30 22363 H 2059.99 3.9057 -1.58219 0
M  V30 22364 H 2058.72 3.22008 -0.545769 0
M  V30 22365 H 2057.38 2.59874 -2.58575 0
M  V30 22366 H 2057.02 4.80994 -1.47153 0
M  V30 22367 H 2056.72 4.91217 -3.22458 0
M  V30 22368 H 2058.25 5.55041 -2.54482 0
M  V30 22369 H 2059.66 3.94918 -4.15587 0
M  V30 22370 H 2058.06 3.54952 -4.83869 0
M  V30 22371 H 2059.13 2.24305 -4.29902 0
M  V30 22372 N 2060.47 1.3227 0.85688 0
M  V30 22373 C 2061.72 1.22461 1.60772 0
M  V30 22374 C 2062.04 -0.214164 1.9382 0
M  V30 22375 O 2061.31 -1.13833 1.59433 0
M  V30 22376 H 2059.89 0.450259 0.596051 0
M  V30 22377 H 2062.55 1.65764 1.0251 0
M  V30 22378 H 2061.65 1.80566 2.54563 0
M  V30 22379 N 2061.95 -1.07287 1.15444 0
M  V30 22380 C 2063.18 -1.83348 0.952215 0
M  V30 22381 C 2063.59 -1.82396 -0.50282 0
M  V30 22382 O 2062.93 -1.23432 -1.36052 0
M  V30 22383 C 2062.99 -3.31539 1.39004 0
M  V30 22384 C 2062.66 -3.56209 2.86293 0
M  V30 22385 C 2063.65 -3.50097 3.84354 0
M  V30 22386 C 2061.34 -3.83854 3.23977 0
M  V30 22387 C 2063.33 -3.7128 5.18102 0
M  V30 22388 C 2061.02 -4.04688 4.57898 0
M  V30 22389 C 2062.02 -3.98396 5.5477 0
M  V30 22390 O 2061.71 -4.18672 6.86271 0
M  V30 22391 H 2061.44 -0.585295 0.338239 0
M  V30 22392 H 2063.99 -1.36329 1.53634 0
M  V30 22393 H 2062.22 -3.79371 0.74932 0
M  V30 22394 H 2063.91 -3.89066 1.15682 0
M  V30 22395 H 2064.68 -3.28741 3.56587 0
M  V30 22396 H 2060.56 -3.87866 2.49161 0
M  V30 22397 H 2064.1 -3.66284 5.93702 0
M  V30 22398 H 2060 -4.25531 4.8538 0
M  V30 22399 H 2060.76 -4.36016 6.92699 0
M  V30 22400 N 2063.43 -0.951342 -1.25647 0
M  V30 22401 C 2064.36 -0.486897 -2.28367 0
M  V30 22402 C 2065.34 0.465072 -1.63619 0
M  V30 22403 O 2066.52 0.364737 -1.90744 0
M  V30 22404 C 2063.65 0.239229 -3.46475 0
M  V30 22405 C 2062.61 -0.627163 -4.2338 0
M  V30 22406 C 2061.93 0.229514 -5.34207 0
M  V30 22407 C 2063.23 -1.90362 -4.86374 0
M  V30 22408 H 2064.93 -1.34542 -2.67467 0
M  V30 22409 H 2062.47 -0.648383 -1.28577 0
M  V30 22410 H 2064.43 0.575251 -4.17455 0
M  V30 22411 H 2063.15 1.13197 -3.06356 0
M  V30 22412 H 2061.81 -0.946222 -3.54178 0
M  V30 22413 H 2061.46 1.12192 -4.90328 0
M  V30 22414 H 2061.16 -0.346852 -5.86575 0
M  V30 22415 H 2062.68 0.560578 -6.08021 0
M  V30 22416 H 2064.1 -1.63422 -5.49515 0
M  V30 22417 H 2062.49 -2.42538 -5.48904 0
M  V30 22418 H 2063.56 -2.60876 -4.08744 0
M  V30 22419 N 2064.91 1.40216 -0.719531 0
M  V30 22420 C 2066.13 2.05647 -0.269106 0
M  V30 22421 C 2066.56 1.53865 1.082 0
M  V30 22422 O 2065.91 0.675703 1.68238 0
M  V30 22423 C 2065.96 3.59636 -0.263433 0
M  V30 22424 O 2065.07 4.05448 0.754058 0
M  V30 22425 H 2064.41 0.652036 -0.12548 0
M  V30 22426 H 2066.94 1.79542 -0.981119 0
M  V30 22427 H 2066.95 4.07871 -0.102475 0
M  V30 22428 H 2065.62 3.9669 -1.24939 0
M  V30 22429 H 2064.2 3.68664 0.560502 0
M  V30 22430 N 2066.38 0.466004 1.50553 0
M  V30 22431 C 2067.31 -0.320802 2.31286 0
M  V30 22432 C 2068.29 -0.995008 1.37962 0
M  V30 22433 O 2069.48 -0.993158 1.66883 0
M  V30 22434 C 2066.61 -1.40607 3.17564 0
M  V30 22435 C 2065.56 -0.853763 4.19398 0
M  V30 22436 C 2064.89 -2.03694 4.94381 0
M  V30 22437 C 2066.19 0.131478 5.22134 0
M  V30 22438 H 2067.88 0.352995 2.97312 0
M  V30 22439 H 2065.43 0.171207 1.42979 0
M  V30 22440 H 2067.38 -1.96395 3.72836 0
M  V30 22441 H 2066.11 -2.10857 2.49413 0
M  V30 22442 H 2064.77 -0.317899 3.65219 0
M  V30 22443 H 2064.41 -2.7263 4.22708 0
M  V30 22444 H 2064.11 -1.67364 5.63261 0
M  V30 22445 H 2065.64 -2.59982 5.52487 0
M  V30 22446 H 2067.05 -0.337046 5.72308 0
M  V30 22447 H 2065.45 0.408804 5.98706 0
M  V30 22448 H 2066.52 1.05903 4.73194 0
M  V30 22449 N 2067.86 -1.56346 0.198413 0
M  V30 22450 C 2068.79 -2.22244 -0.716243 0
M  V30 22451 C 2069.77 -1.1866 -1.21876 0
M  V30 22452 O 2070.96 -1.47177 -1.26699 0
M  V30 22453 C 2068.09 -2.88437 -1.93446 0
M  V30 22454 C 2067.04 -3.98294 -1.56672 0
M  V30 22455 C 2066.37 -4.51668 -2.86182 0
M  V30 22456 C 2067.67 -5.16531 -0.774153 0
M  V30 22457 H 2069.36 -2.98935 -0.166883 0
M  V30 22458 H 2066.91 -1.43784 -0.0788267 0
M  V30 22459 H 2068.86 -3.33221 -2.57957 0
M  V30 22460 H 2067.58 -2.09157 -2.5084 0
M  V30 22461 H 2066.24 -3.54206 -0.945178 0
M  V30 22462 H 2065.89 -3.69146 -3.41673 0
M  V30 22463 H 2065.59 -5.25796 -2.6232 0
M  V30 22464 H 2067.12 -4.99155 -3.51676 0
M  V30 22465 H 2068.53 -5.57839 -1.32244 0
M  V30 22466 H 2066.93 -5.96746 -0.633532 0
M  V30 22467 H 2068 -4.84382 0.224098 0
M  V30 22468 N 2069.34 0.0751653 -1.57421 0
M  V30 22469 C 2070.27 1.11632 -2.00177 0
M  V30 22470 C 2071.29 1.35179 -0.907222 0
M  V30 22471 O 2072.47 1.33479 -1.18515 0
M  V30 22472 C 2069.57 2.46792 -2.32265 0
M  V30 22473 C 2068.75 2.43248 -3.63524 0
M  V30 22474 C 2067.81 3.60488 -3.8332 0
M  V30 22475 O 2066.83 3.42071 -4.54946 0
M  V30 22476 N 2068.03 4.80713 -3.25416 0
M  V30 22477 H 2070.8 0.752243 -2.90106 0
M  V30 22478 H 2068.36 0.263867 -1.59735 0
M  V30 22479 H 2070.35 3.23861 -2.42685 0
M  V30 22480 H 2068.92 2.75214 -1.48243 0
M  V30 22481 H 2068.14 1.51587 -3.63889 0
M  V30 22482 H 2069.43 2.37977 -4.49716 0
M  V30 22483 H 2068.83 4.9858 -2.67273 0
M  V30 22484 H 2067.39 5.55306 -3.4129 0
M  V30 22485 N 2070.82 1.53744 0.346476 0
M  V30 22486 C 2072.06 1.71103 1.08866 0
M  V30 22487 C 2072.4 0.47131 1.88394 0
M  V30 22488 O 2071.67 -0.531638 1.87093 0
M  V30 22489 C 2071.96 2.97273 2.03225 0
M  V30 22490 C 2071.81 4.31446 1.27179 0
M  V30 22491 C 2073.13 3.19105 3.03084 0
M  V30 22492 H 2070.25 0.622598 0.394387 0
M  V30 22493 H 2072.89 1.86412 0.367514 0
M  V30 22494 H 2071.04 2.84352 2.64719 0
M  V30 22495 H 2072.71 4.56212 0.683225 0
M  V30 22496 H 2070.95 4.29989 0.573773 0
M  V30 22497 H 2071.62 5.15901 1.96343 0
M  V30 22498 H 2074.1 3.31337 2.51704 0
M  V30 22499 H 2072.98 4.08786 3.66313 0
M  V30 22500 H 2073.24 2.35265 3.74303 0
M  V30 22501 N 2072.3 -0.607329 1.45428 0
M  V30 22502 C 2073.26 -1.69997 1.53732 0
M  V30 22503 C 2074.26 -1.55304 0.416799 0
M  V30 22504 O 2075.45 -1.60367 0.680287 0
M  V30 22505 C 2072.58 -3.09267 1.43411 0
M  V30 22506 H 2073.77 -1.64001 2.51085 0
M  V30 22507 H 2071.33 -0.82308 1.32872 0
M  V30 22508 H 2072.06 -3.2084 0.47243 0
M  V30 22509 H 2071.85 -3.2134 2.24685 0
M  V30 22510 H 2073.34 -3.88855 1.52255 0
M  V30 22511 N 2073.77 -1.32722 -0.849853 0
M  V30 22512 C 2075 -1.26568 -1.63671 0
M  V30 22513 C 2075.42 0.165453 -1.88074 0
M  V30 22514 O 2074.77 1.1041 -1.45313 0
M  V30 22515 C 2074.83 -2.027 -2.99324 0
M  V30 22516 O 2074.55 -3.40229 -2.75999 0
M  V30 22517 C 2076.05 -2.03626 -3.93766 0
M  V30 22518 H 2073.27 -0.436491 -0.509624 0
M  V30 22519 H 2075.81 -1.74922 -1.05937 0
M  V30 22520 H 2073.97 -1.58056 -3.53691 0
M  V30 22521 H 2074.38 -3.79256 -3.62305 0
M  V30 22522 H 2075.85 -2.61369 -4.862 0
M  V30 22523 H 2076.33 -1.02373 -4.27102 0
M  V30 22524 H 2076.94 -2.48239 -3.45337 0
M  V30 22525 N 2075.25 1.06673 -1.16011 0
M  V30 22526 C 2076.5 1.794 -0.939249 0
M  V30 22527 C 2076.83 1.87049 0.533193 0
M  V30 22528 O 2076.08 1.35544 1.4116 0
M  V30 22529 C 2076.38 3.24069 -1.50712 0
M  V30 22530 C 2076.05 3.36507 -3.00123 0
M  V30 22531 C 2074.71 3.39609 -3.4091 0
M  V30 22532 C 2077.06 3.38741 -3.96111 0
M  V30 22533 C 2074.39 3.42556 -4.76311 0
M  V30 22534 C 2076.74 3.43226 -5.31393 0
M  V30 22535 C 2075.41 3.44608 -5.71665 0
M  V30 22536 H 2074.68 0.656471 -0.343696 0
M  V30 22537 H 2077.32 1.25476 -1.44665 0
M  V30 22538 H 2075.63 3.80819 -0.921077 0
M  V30 22539 H 2077.32 3.78931 -1.31196 0
M  V30 22540 H 2073.91 3.34796 -2.676 0
M  V30 22541 H 2078.1 3.35559 -3.65669 0
M  V30 22542 H 2073.35 3.41928 -5.06848 0
M  V30 22543 H 2077.53 3.43902 -6.05561 0
M  V30 22544 H 2075.16 3.46645 -6.76566 0
M  V30 22545 N 2076.73 0.957992 1.25141 0
M  V30 22546 C 2077.68 0.479695 2.2576 0
M  V30 22547 C 2078.65 -0.469606 1.59323 0
M  V30 22548 O 2079.83 -0.382116 1.86935 0
M  V30 22549 C 2076.97 -0.233227 3.44311 0
M  V30 22550 C 2076.09 0.753705 4.25374 0
M  V30 22551 C 2075.22 0.0178808 5.31197 0
M  V30 22552 C 2074.26 0.995522 6.0395 0
M  V30 22553 N 2073.4 0.290349 7.01499 0
M  V30 22554 H 2078.24 1.3426 2.66042 0
M  V30 22555 H 2075.77 0.673224 1.3079 0
M  V30 22556 H 2077.73 -0.663168 4.11896 0
M  V30 22557 H 2076.36 -1.06015 3.04894 0
M  V30 22558 H 2075.41 1.30212 3.5742 0
M  V30 22559 H 2076.73 1.4996 4.75724 0
M  V30 22560 H 2075.88 -0.470532 6.04873 0
M  V30 22561 H 2074.62 -0.760784 4.8173 0
M  V30 22562 H 2073.62 1.4949 5.29087 0
M  V30 22563 H 2074.85 1.77447 6.55507 0
M  V30 22564 H 2072.79 -0.469516 6.54318 0
M  V30 22565 H 2072.71 0.975282 7.49683 0
M  V30 22566 H 2073.98 -0.176416 7.793 0
M  V30 22567 N 2078.21 -1.39832 0.726957 0
M  V30 22568 C 2079.46 -2.00277 0.27085 0
M  V30 22569 C 2079.78 -1.57958 -1.14343 0
M  V30 22570 O 2079.05 -0.824155 -1.7772 0
M  V30 22571 H 2077.63 -0.740656 0.0971496 0
M  V30 22572 H 2080.29 -1.71001 0.935123 0
M  V30 22573 H 2079.39 -3.10528 0.312892 0
M  V30 22574 N 2079.69 -0.473982 -1.50304 0
M  V30 22575 C 2080.93 0.072235 -2.03272 0
M  V30 22576 C 2081.29 1.37148 -1.34938 0
M  V30 22577 O 2080.58 1.85819 -0.467108 0
M  V30 22578 C 2080.77 0.308841 -3.56063 0
M  V30 22579 C 2080.6 -0.965919 -4.39204 0
M  V30 22580 C 2079.37 -1.51005 -4.82209 0
M  V30 22581 C 2081.57 -1.86208 -4.79407 0
M  V30 22582 N 2079.55 -2.73353 -5.49683 0
M  V30 22583 C 2080.92 -2.93143 -5.46321 0
M  V30 22584 C 2082.98 -1.87212 -4.61363 0
M  V30 22585 C 2081.68 -4.01074 -5.97103 0
M  V30 22586 C 2083.71 -2.94101 -5.13088 0
M  V30 22587 C 2083.07 -3.99754 -5.79979 0
M  V30 22588 H 2079.17 -0.0136677 -0.781881 0
M  V30 22589 H 2081.75 -0.642832 -1.83782 0
M  V30 22590 H 2079.92 0.992949 -3.75493 0
M  V30 22591 H 2081.66 0.849657 -3.9568 0
M  V30 22592 H 2078.41 -1.05884 -4.61612 0
M  V30 22593 H 2078.84 -3.35494 -5.88025 0
M  V30 22594 H 2083.48 -1.06845 -4.09077 0
M  V30 22595 H 2081.2 -4.82256 -6.48425 0
M  V30 22596 H 2084.78 -2.95864 -5.00955 0
M  V30 22597 H 2083.66 -4.81103 -6.19282 0
M  V30 22598 N 2081.16 1.56239 -0.206702 0
M  V30 22599 C 2082.39 2.02291 0.434267 0
M  V30 22600 C 2082.81 1.08672 1.54388 0
M  V30 22601 O 2082.16 0.0936387 1.8226 0
M  V30 22602 C 2082.22 3.47969 0.97978 0
M  V30 22603 O 2081.94 4.38016 -0.0855779 0
M  V30 22604 C 2083.44 4.09596 1.69548 0
M  V30 22605 H 2080.66 0.662272 0.107873 0
M  V30 22606 H 2083.2 2.02 -0.318809 0
M  V30 22607 H 2081.36 3.48923 1.68319 0
M  V30 22608 H 2081.77 5.2351 0.32218 0
M  V30 22609 H 2083.24 5.13343 2.02935 0
M  V30 22610 H 2083.72 3.53727 2.60334 0
M  V30 22611 H 2084.33 4.12448 1.03764 0
M  V30 22612 N 2082.64 -0.0668159 1.57458 0
M  V30 22613 C 2083.89 -0.76387 1.86676 0
M  V30 22614 C 2084.2 -1.78489 0.800057 0
M  V30 22615 O 2085.41 -2.53187 0.980236 0
M  V30 22616 C 2083.87 -1.4095 3.31151 0
M  V30 22617 C 2083.47 -0.426782 4.45963 0
M  V30 22618 C 2085.22 -2.08863 3.69563 0
M  V30 22619 C 2083.13 -1.07861 5.81481 0
M  V30 22620 H 2082.06 -0.289037 0.6964 0
M  V30 22621 H 2084.71 -0.0172645 1.83492 0
M  V30 22622 H 2083.09 -2.20453 3.28962 0
M  V30 22623 H 2084.26 0.338803 4.59553 0
M  V30 22624 H 2082.58 0.148171 4.16136 0
M  V30 22625 H 2085.17 -2.58415 4.68109 0
M  V30 22626 H 2085.52 -2.89026 2.99616 0
M  V30 22627 H 2086.05 -1.36184 3.73763 0
M  V30 22628 H 2082.79 -0.317194 6.54732 0
M  V30 22629 H 2082.31 -1.81493 5.71682 0
M  V30 22630 H 2083.99 -1.597 6.26981 0
M  V30 22631 N 2084.12 -1.53926 -0.338317 0
M  V30 22632 C 2085.37 -1.70639 -1.07542 0
M  V30 22633 C 2085.68 -0.479077 -1.89642 0
M  V30 22634 O 2086.89 -0.527259 -2.66331 0
M  V30 22635 C 2085.35 -3.0176 -1.96134 0
M  V30 22636 C 2084.95 -4.31847 -1.19216 0
M  V30 22637 C 2086.7 -3.27839 -2.6967 0
M  V30 22638 C 2084.6 -5.54039 -2.06869 0
M  V30 22639 H 2083.53 -0.635868 -0.4052 0
M  V30 22640 H 2086.19 -1.80424 -0.334569 0
M  V30 22641 H 2084.57 -2.85845 -2.7406 0
M  V30 22642 H 2085.74 -4.58482 -0.461647 0
M  V30 22643 H 2084.06 -4.12421 -0.574263 0
M  V30 22644 H 2086.65 -4.16322 -3.3553 0
M  V30 22645 H 2087 -2.45074 -3.36518 0
M  V30 22646 H 2087.53 -3.44554 -1.98815 0
M  V30 22647 H 2084.27 -6.39363 -1.44554 0
M  V30 22648 H 2083.79 -5.31645 -2.77694 0
M  V30 22649 H 2085.47 -5.89881 -2.658 0
M  V30 22650 N 2085.6 0.599608 -1.45748 0
M  V30 22651 C 2086.53 1.72387 -1.49526 0
M  V30 22652 C 2087.51 1.58769 -0.350874 0
M  V30 22653 O 2088.69 1.8022 -0.552553 0
M  V30 22654 C 2085.82 3.1029 -1.35785 0
M  V30 22655 C 2084.87 3.42475 -2.54191 0
M  V30 22656 S 2085.7 3.36425 -4.16627 0
M  V30 22657 C 2086.86 4.76895 -4.05366 0
M  V30 22658 H 2087.09 1.68921 -2.44649 0
M  V30 22659 H 2084.62 0.776938 -1.33428 0
M  V30 22660 H 2086.58 3.89854 -1.28545 0
M  V30 22661 H 2085.24 3.11263 -0.421193 0
M  V30 22662 H 2084.43 4.42904 -2.40524 0
M  V30 22663 H 2084.04 2.70444 -2.58334 0
M  V30 22664 H 2086.33 5.66889 -3.71003 0
M  V30 22665 H 2087.27 4.95619 -5.05735 0
M  V30 22666 H 2087.68 4.52951 -3.36891 0
M  V30 22667 N 2087.08 1.33171 0.842803 0
M  V30 22668 C 2088.31 1.2725 1.62761 0
M  V30 22669 C 2088.72 -0.159577 1.88526 0
M  V30 22670 O 2088.06 -1.11091 1.46302 0
M  V30 22671 C 2088.12 1.97482 3.00401 0
M  V30 22672 C 2087.78 3.46798 2.97624 0
M  V30 22673 C 2088.78 4.42071 2.73622 0
M  V30 22674 C 2086.47 3.88915 3.17885 0
M  V30 22675 C 2088.46 5.77436 2.69901 0
M  V30 22676 C 2086.15 5.24385 3.1379 0
M  V30 22677 C 2087.15 6.18457 2.89828 0
M  V30 22678 O 2086.83 7.51446 2.85629 0
M  V30 22679 H 2086.57 0.439899 0.513288 0
M  V30 22680 H 2089.12 1.76042 1.05822 0
M  V30 22681 H 2087.35 1.43276 3.59178 0
M  V30 22682 H 2089.04 1.85113 3.61231 0
M  V30 22683 H 2089.8 4.10857 2.57724 0
M  V30 22684 H 2085.68 3.16105 3.35557 0
M  V30 22685 H 2089.23 6.50835 2.51118 0
M  V30 22686 H 2085.12 5.55225 3.29235 0
M  V30 22687 H 2085.89 7.60947 3.01499 0
M  V30 22688 N 2088.56 -1.06056 1.16576 0
M  V30 22689 C 2089.52 -2.11761 0.876928 0
M  V30 22690 C 2090.52 -1.60281 -0.129123 0
M  V30 22691 O 2091.71 -1.73901 0.102046 0
M  V30 22692 C 2088.84 -3.3947 0.311872 0
M  V30 22693 H 2090.03 -2.38816 1.81403 0
M  V30 22694 H 2087.59 -1.2216 0.975021 0
M  V30 22695 H 2088.32 -3.18066 -0.632797 0
M  V30 22696 H 2088.11 -3.78143 1.03683 0
M  V30 22697 H 2089.6 -4.17404 0.12782 0
M  V30 22698 N 2090.03 -0.964615 -1.24631 0
M  V30 22699 C 2091 -0.497206 -2.23742 0
M  V30 22700 C 2092 0.404569 -1.55627 0
M  V30 22701 O 2093.19 0.200461 -1.73043 0
M  V30 22702 C 2090.32 0.280348 -3.39745 0
M  V30 22703 H 2091.51 -1.37334 -2.66607 0
M  V30 22704 H 2089.06 -0.748889 -1.37191 0
M  V30 22705 H 2089.8 1.17372 -3.02315 0
M  V30 22706 H 2089.58 -0.366741 -3.90381 0
M  V30 22707 H 2091.07 0.596501 -4.13318 0
M  V30 22708 N 2091.51 1.39445 -0.734362 0
M  V30 22709 C 2092.76 2.00824 -0.282443 0
M  V30 22710 C 2093.09 1.58137 1.12722 0
M  V30 22711 O 2092.37 0.809969 1.76833 0
M  V30 22712 C 2092.65 3.58051 -0.38359 0
M  V30 22713 C 2092.5 4.10758 -1.83298 0
M  V30 22714 C 2093.82 4.39476 0.234349 0
M  V30 22715 H 2090.94 0.729611 -0.104103 0
M  V30 22716 H 2093.58 1.65661 -0.930397 0
M  V30 22717 H 2091.73 3.88136 0.168068 0
M  V30 22718 H 2093.4 3.91395 -2.44147 0
M  V30 22719 H 2091.65 3.64342 -2.35451 0
M  V30 22720 H 2092.32 5.19897 -1.85503 0
M  V30 22721 H 2094.79 4.15431 -0.235909 0
M  V30 22722 H 2093.67 5.48738 0.133228 0
M  V30 22723 H 2093.93 4.21924 1.32032 0
M  V30 22724 N 2092.99 0.481946 1.5005 0
M  V30 22725 C 2094.27 -0.131379 1.95158 0
M  V30 22726 C 2094.65 -1.55951 1.42276 0
M  V30 22727 O 2093.99 -2.19691 0.62835 0
M  V30 22728 C 2094.2 -0.0635771 3.48942 0
M  V30 22729 C 2095.55 -0.247054 4.23881 0
M  V30 22730 O 2096.58 -0.139659 3.55926 0
M  V30 22731 O 2095.44 -0.465153 5.44517 0
M  V30 22732 H 2092.53 -0.105746 0.820211 0
M  V30 22733 H 2095.08 0.543125 1.60774 0
M  V30 22734 H 2093.85 0.933103 3.80012 0
M  V30 22735 H 2093.47 -0.779065 3.89893 0
M  V30 22736 N 2094.47 -1.56127 0.214985 0
M  V30 22737 C 2095.69 -2.02966 -0.426587 0
M  V30 22738 C 2096.12 -1.0939 -1.53021 0
M  V30 22739 O 2095.48 -0.0808958 -1.81119 0
M  V30 22740 C 2095.52 -3.48091 -0.941527 0
M  V30 22741 O 2094.63 -3.5765 -2.05329 0
M  V30 22742 H 2093.97 -0.656823 -0.097363 0
M  V30 22743 H 2096.5 -2.01893 0.331697 0
M  V30 22744 H 2096.51 -3.88282 -1.25304 0
M  V30 22745 H 2095.18 -4.15685 -0.133737 0
M  V30 22746 H 2093.76 -3.29344 -1.74891 0
M  V30 22747 N 2095.95 0.0584645 -1.57492 0
M  V30 22748 C 2097.19 0.75619 -1.88174 0
M  V30 22749 C 2097.52 1.76546 -0.809018 0
M  V30 22750 O 2096.8 1.93672 0.179286 0
M  V30 22751 C 2097.08 1.45223 -3.29518 0
M  V30 22752 C 2096.94 0.458472 -4.47457 0
M  V30 22753 C 2098.25 2.39381 -3.69303 0
M  V30 22754 H 2095.37 0.27344 -0.684397 0
M  V30 22755 H 2098.02 0.0191997 -1.8999 0
M  V30 22756 H 2096.17 2.08044 -3.28101 0
M  V30 22757 H 2097.84 -0.165547 -4.61003 0
M  V30 22758 H 2096.08 -0.225018 -4.33216 0
M  V30 22759 H 2096.75 0.983384 -5.4317 0
M  V30 22760 H 2099.23 1.86628 -3.719 0
M  V30 22761 H 2098.1 2.85078 -4.69065 0
M  V30 22762 H 2098.36 3.24775 -2.99956 0
M  V30 22763 N 2097.42 1.54103 0.330149 0
M  V30 22764 C 2098.37 1.83745 1.4262 0
M  V30 22765 C 2099.37 0.708869 1.53855 0
M  V30 22766 O 2100.57 0.892427 1.56319 0
M  V30 22767 H 2096.95 0.58234 0.475799 0
M  V30 22768 H 2098.92 2.75417 1.1484 0
M  V30 22769 C 2097.67 2.07574 2.78941 0
M  V30 22770 H 2096.99 2.93875 2.71068 0
M  V30 22771 H 2098.43 2.32273 3.54719 0
M  V30 22772 C 2096.89 0.865282 3.25599 0
M  V30 22773 O 2097.42 0.0712874 4.01637 0
M  V30 22774 N 2095.62 0.678754 2.82562 0
M  V30 22775 H 2095.17 1.32607 2.20847 0
M  V30 22776 H 2095.13 -0.129662 3.14133 0
M  V30 22777 N 2098.9 -0.59187 1.46064 0
M  V30 22778 C 2100.15 -1.3524 1.51122 0
M  V30 22779 C 2100.48 -1.93551 0.158686 0
M  V30 22780 O 2099.76 -1.75958 -0.828798 0
M  V30 22781 C 2100.04 -2.48861 2.6027 0
M  V30 22782 C 2099.89 -1.95645 4.05023 0
M  V30 22783 C 2101.21 -3.50941 2.65572 0
M  V30 22784 H 2098.33 -0.49038 0.550179 0
M  V30 22785 H 2100.97 -0.66575 1.77954 0
M  V30 22786 H 2099.12 -3.07434 2.37521 0
M  V30 22787 H 2100.79 -1.41599 4.3903 0
M  V30 22788 H 2099.04 -1.26535 4.14935 0
M  V30 22789 H 2099.71 -2.77621 4.77107 0
M  V30 22790 H 2102.18 -3.02233 2.85997 0
M  V30 22791 H 2101.06 -4.27911 3.43779 0
M  V30 22792 H 2101.32 -4.07578 1.71267 0
M  V30 22793 N 2100.38 -1.33616 -0.835729 0
M  V30 22794 C 2101.66 -1.15846 -1.57604 0
M  V30 22795 C 2102.04 0.273951 -2.09315 0
M  V30 22796 O 2101.39 1.27345 -1.89725 0
M  V30 22797 C 2101.6 -2.20224 -2.70744 0
M  V30 22798 C 2102.94 -2.54542 -3.39843 0
M  V30 22799 O 2103.97 -2.18915 -2.80989 0
M  V30 22800 O 2102.83 -3.15692 -4.46095 0
M  V30 22801 H 2099.92 -0.448265 -0.694973 0
M  V30 22802 H 2102.47 -1.45209 -0.878211 0
M  V30 22803 H 2101.24 -3.16426 -2.30196 0
M  V30 22804 H 2100.86 -1.91965 -3.48188 0
M  V30 22805 N 2101.86 1.05436 -1.17136 0
M  V30 22806 C 2102.81 2.13124 -0.885828 0
M  V30 22807 C 2103.78 1.65235 0.169267 0
M  V30 22808 O 2104.96 1.90772 0.032594 0
M  V30 22809 C 2102.1 3.42744 -0.40256 0
M  V30 22810 C 2101.21 4.0432 -1.52149 0
M  V30 22811 C 2100.35 5.21849 -0.992347 0
M  V30 22812 C 2099.39 5.75426 -2.08689 0
M  V30 22813 N 2098.52 6.84259 -1.5727 0
M  V30 22814 H 2103.36 2.36887 -1.808 0
M  V30 22815 H 2100.9 1.16215 -0.901798 0
M  V30 22816 H 2102.86 4.17071 -0.10394 0
M  V30 22817 H 2101.49 3.19171 0.482653 0
M  V30 22818 H 2100.54 3.27456 -1.93589 0
M  V30 22819 H 2101.85 4.40127 -2.34711 0
M  V30 22820 H 2101.01 6.03236 -0.647426 0
M  V30 22821 H 2099.75 4.8751 -0.13613 0
M  V30 22822 H 2098.75 4.9267 -2.44041 0
M  V30 22823 H 2099.98 6.11813 -2.94722 0
M  V30 22824 H 2097.92 6.51822 -0.739158 0
M  V30 22825 H 2097.84 7.19055 -2.33442 0
M  V30 22826 H 2099.11 7.69304 -1.25663 0
M  V30 22827 N 2103.34 0.971211 1.24118 0
M  V30 22828 C 2104.27 0.462026 2.24495 0
M  V30 22829 C 2105.28 -0.431143 1.56987 0
M  V30 22830 O 2106.47 -0.236754 1.76923 0
M  V30 22831 C 2103.57 -0.351913 3.37068 0
M  V30 22832 C 2102.74 0.532187 4.3415 0
M  V30 22833 C 2101.8 -0.22634 5.25713 0
M  V30 22834 O 2100.83 0.380923 5.67924 0
M  V30 22835 N 2102.03 -1.51493 5.60384 0
M  V30 22836 H 2104.8 1.32507 2.68816 0
M  V30 22837 H 2102.36 0.843431 1.38195 0
M  V30 22838 H 2104.35 -0.867478 3.95293 0
M  V30 22839 H 2102.92 -1.1159 2.92004 0
M  V30 22840 H 2102.14 1.22869 3.74562 0
M  V30 22841 H 2103.43 1.13503 4.95978 0
M  V30 22842 H 2102.82 -2.02997 5.28023 0
M  V30 22843 H 2101.38 -1.97612 6.21122 0
M  V30 22844 N 2104.81 -1.39054 0.741747 0
M  V30 22845 C 2106.23 -1.83161 0.361815 0
M  V30 22846 C 2106.58 -1.61934 -1.10778 0
M  V30 22847 O 2105.7 -1.11412 -1.85516 0
M  V30 22848 C 2106.3 -3.32508 0.649929 0
M  V30 22849 C 2104.86 -3.75008 0.323414 0
M  V30 22850 C 2104 -2.61973 0.909134 0
M  V30 22851 H 2106.95 -1.2795 0.938853 0
M  V30 22852 H 2106.97 -3.80424 -0.0759846 0
M  V30 22853 H 2106.49 -3.47925 1.71959 0
M  V30 22854 H 2104.59 -3.65175 -0.740136 0
M  V30 22855 H 2104.7 -4.72191 0.81069 0
M  V30 22856 H 2103.06 -2.52483 0.335302 0
M  V30 22857 H 2103.85 -2.80194 1.98358 0
M  V30 22858 N 2106.29 -0.489897 -1.49792 0
M  V30 22859 C 2107.24 0.294423 -2.28914 0
M  V30 22860 C 2108.21 0.970384 -1.34806 0
M  V30 22861 O 2109.39 0.979195 -1.63757 0
M  V30 22862 C 2106.53 1.35949 -3.17194 0
M  V30 22863 C 2105.65 0.696419 -4.2635 0
M  V30 22864 C 2104.78 1.74098 -5.0186 0
M  V30 22865 C 2103.82 1.05917 -6.02866 0
M  V30 22866 N 2102.96 2.04743 -6.71584 0
M  V30 22867 H 2107.8 -0.386562 -2.95482 0
M  V30 22868 H 2105.34 -0.202479 -1.457 0
M  V30 22869 H 2107.29 1.98886 -3.66743 0
M  V30 22870 H 2105.92 2.00938 -2.52633 0
M  V30 22871 H 2104.98 -0.0459714 -3.80372 0
M  V30 22872 H 2106.29 0.159163 -4.98546 0
M  V30 22873 H 2105.44 2.44568 -5.55222 0
M  V30 22874 H 2104.18 2.31207 -4.29412 0
M  V30 22875 H 2103.19 0.340189 -5.48747 0
M  V30 22876 H 2104.41 0.494725 -6.77296 0
M  V30 22877 H 2102.36 2.60835 -6.01915 0
M  V30 22878 H 2102.27 1.56053 -7.39718 0
M  V30 22879 H 2103.54 2.74536 -7.29555 0
M  V30 22880 N 2107.77 1.56011 -0.223262 0
M  V30 22881 C 2109 2.02446 0.412189 0
M  V30 22882 C 2109.41 1.1023 1.53772 0
M  V30 22883 O 2108.75 0.104539 1.83402 0
M  V30 22884 C 2108.81 3.45214 1.00337 0
M  V30 22885 C 2108.48 4.56998 0.0130627 0
M  V30 22886 C 2109.47 5.13895 -0.787936 0
M  V30 22887 C 2107.16 5.02188 -0.106187 0
M  V30 22888 C 2109.15 6.14453 -1.69487 0
M  V30 22889 C 2106.84 6.02584 -1.01665 0
M  V30 22890 C 2107.84 6.58593 -1.80954 0
M  V30 22891 O 2107.53 7.57034 -2.7047 0
M  V30 22892 H 2107.26 0.667806 0.104934 0
M  V30 22893 H 2109.81 2.02606 -0.337661 0
M  V30 22894 H 2108.04 3.42129 1.80234 0
M  V30 22895 H 2109.73 3.75288 1.54641 0
M  V30 22896 H 2110.5 4.7983 -0.706267 0
M  V30 22897 H 2106.38 4.58271 0.500846 0
M  V30 22898 H 2109.92 6.58097 -2.31418 0
M  V30 22899 H 2105.82 6.3607 -1.09933 0
M  V30 22900 H 2106.59 7.74563 -2.64564 0
M  V30 22901 N 2109.25 -0.0501116 1.5752 0
M  V30 22902 C 2110.16 -1.07459 2.08542 0
M  V30 22903 C 2111.17 -1.41006 1.01947 0
M  V30 22904 O 2112.35 -1.50749 1.33555 0
M  V30 22905 C 2109.42 -2.36274 2.53723 0
M  V30 22906 C 2108.48 -2.095 3.74711 0
M  V30 22907 C 2107.71 -3.32174 4.17728 0
M  V30 22908 O 2107.93 -4.42091 3.60432 0
M  V30 22909 O 2106.87 -3.1911 5.10346 0
M  V30 22910 H 2110.69 -0.671065 2.96193 0
M  V30 22911 H 2108.28 -0.265709 1.47018 0
M  V30 22912 H 2110.16 -3.12043 2.83208 0
M  V30 22913 H 2108.83 -2.75963 1.69192 0
M  V30 22914 H 2107.74 -1.31366 3.50277 0
M  V30 22915 H 2109.07 -1.74679 4.60161 0
M  V30 22916 N 2110.73 -1.54276 -0.321972 0
M  V30 22917 C 2111.96 -1.76267 -1.07766 0
M  V30 22918 C 2112.36 -0.512038 -1.8214 0
M  V30 22919 O 2111.71 0.526965 -1.75979 0
M  V30 22920 C 2111.77 -2.90328 -2.12014 0
M  V30 22921 C 2111.43 -4.29176 -1.57024 0
M  V30 22922 C 2112.43 -5.09971 -1.0112 0
M  V30 22923 C 2110.12 -4.75724 -1.6122 0
M  V30 22924 C 2112.11 -6.35425 -0.501407 0
M  V30 22925 C 2109.8 -6.01145 -1.09853 0
M  V30 22926 C 2110.79 -6.80829 -0.544086 0
M  V30 22927 O 2110.48 -8.03891 -0.0381506 0
M  V30 22928 H 2110.21 -0.592028 -0.326312 0
M  V30 22929 H 2112.77 -2.0198 -0.373274 0
M  V30 22930 H 2111 -2.6019 -2.86074 0
M  V30 22931 H 2112.69 -3.00087 -2.73317 0
M  V30 22932 H 2113.45 -4.75163 -0.971843 0
M  V30 22933 H 2109.33 -4.13744 -2.03315 0
M  V30 22934 H 2112.88 -6.97567 -0.067985 0
M  V30 22935 H 2108.77 -6.35444 -1.13496 0
M  V30 22936 H 2109.54 -8.18356 -0.153425 0
M  V30 22937 N 2112.2 0.584116 -1.46376 0
M  V30 22938 C 2113.43 1.37331 -1.55419 0
M  V30 22939 C 2113.85 1.87082 -0.195472 0
M  V30 22940 O 2113.21 1.61486 0.824141 0
M  V30 22941 C 2113.26 2.53779 -2.56181 0
M  V30 22942 O 2112.36 3.55172 -2.09586 0
M  V30 22943 H 2111.71 0.409042 -0.523049 0
M  V30 22944 H 2114.24 0.708655 -1.91936 0
M  V30 22945 H 2114.25 3.00715 -2.75744 0
M  V30 22946 H 2112.92 2.16921 -3.5485 0
M  V30 22947 H 2111.5 3.14726 -2.00005 0
M  V30 22948 N 2113.68 1.34058 0.828631 0
M  V30 22949 C 2114.61 1.278 1.95421 0
M  V30 22950 C 2115.59 0.156548 1.69378 0
M  V30 22951 O 2116.78 0.347987 1.91057 0
M  V30 22952 C 2113.91 1.02688 3.31772 0
M  V30 22953 C 2112.86 2.11238 3.7224 0
M  V30 22954 C 2112.19 1.71324 5.0651 0
M  V30 22955 C 2113.49 3.53014 3.84939 0
M  V30 22956 H 2115.18 2.21977 2.00914 0
M  V30 22957 H 2112.73 1.06859 0.965253 0
M  V30 22958 H 2114.68 0.969571 4.10094 0
M  V30 22959 H 2113.41 0.0495214 3.26562 0
M  V30 22960 H 2112.07 2.16029 2.96188 0
M  V30 22961 H 2111.71 0.722632 4.97782 0
M  V30 22962 H 2111.41 2.43972 5.34557 0
M  V30 22963 H 2112.94 1.67077 5.87297 0
M  V30 22964 H 2114.35 3.50667 4.53547 0
M  V30 22965 H 2112.75 4.24235 4.24434 0
M  V30 22966 H 2113.82 3.90772 2.87098 0
M  V30 22967 N 2115.16 -1.04814 1.17694 0
M  V30 22968 C 2116.39 -1.81287 0.990891 0
M  V30 22969 C 2116.8 -1.83422 -0.464018 0
M  V30 22970 O 2116.14 -1.2629 -1.33403 0
M  V30 22971 C 2116.2 -3.28516 1.46005 0
M  V30 22972 C 2115.87 -3.50056 2.93785 0
M  V30 22973 C 2116.87 -3.41866 3.91693 0
M  V30 22974 C 2114.55 -3.76896 3.32046 0
M  V30 22975 C 2116.54 -3.60206 5.25861 0
M  V30 22976 C 2114.23 -3.94884 4.66379 0
M  V30 22977 C 2115.23 -3.86539 5.63095 0
M  V30 22978 O 2114.92 -4.04021 6.94998 0
M  V30 22979 H 2114.65 -0.577989 0.350578 0
M  V30 22980 H 2117.2 -1.3304 1.56491 0
M  V30 22981 H 2115.43 -3.77696 0.829622 0
M  V30 22982 H 2117.12 -3.86525 1.23908 0
M  V30 22983 H 2117.89 -3.21104 3.6348 0
M  V30 22984 H 2113.77 -3.82493 2.57332 0
M  V30 22985 H 2117.31 -3.53609 6.01337 0
M  V30 22986 H 2113.21 -4.15139 4.94297 0
M  V30 22987 H 2113.98 -4.21225 7.01792 0
M  V30 22988 N 2116.64 -0.977779 -1.23601 0
M  V30 22989 C 2117.57 -0.460688 -2.23501 0
M  V30 22990 C 2118.55 0.470758 -1.55636 0
M  V30 22991 O 2119.73 0.39981 -1.84211 0
M  V30 22992 C 2116.86 0.333836 -3.37051 0
M  V30 22993 C 2115.91 -0.541367 -4.2305 0
M  V30 22994 S 2116.74 -1.98765 -4.97245 0
M  V30 22995 C 2117.9 -1.2022 -6.14246 0
M  V30 22996 H 2118.13 -1.30726 -2.67017 0
M  V30 22997 H 2115.66 -0.783573 -1.33039 0
M  V30 22998 H 2117.62 0.786244 -4.029 0
M  V30 22999 H 2116.28 1.1555 -2.92074 0
M  V30 23000 H 2115.47 0.0691671 -5.03953 0
M  V30 23001 H 2115.08 -0.929914 -3.62255 0
M  V30 23002 H 2117.37 -0.46221 -6.75921 0
M  V30 23003 H 2118.31 -1.98596 -6.7968 0
M  V30 23004 H 2118.72 -0.722133 -5.59862 0
M  V30 23005 N 2118.12 1.38658 -0.749111 0
M  V30 23006 C 2119.35 2.04208 -0.313503 0
M  V30 23007 C 2119.76 1.56615 1.06153 0
M  V30 23008 O 2119.1 0.732462 1.68466 0
M  V30 23009 C 2119.16 3.58611 -0.252636 0
M  V30 23010 C 2118.82 4.29241 -1.56847 0
M  V30 23011 C 2119.82 4.5492 -2.51683 0
M  V30 23012 C 2117.51 4.67517 -1.83667 0
M  V30 23013 C 2119.5 5.17901 -3.71561 0
M  V30 23014 C 2117.19 5.30223 -3.0382 0
M  V30 23015 C 2118.19 5.5535 -3.97587 0
M  V30 23016 O 2117.87 6.16752 -5.15628 0
M  V30 23017 H 2117.61 0.662881 -0.132533 0
M  V30 23018 H 2120.16 1.7842 -1.01762 0
M  V30 23019 H 2118.39 3.83353 0.507689 0
M  V30 23020 H 2120.08 4.05612 0.152857 0
M  V30 23021 H 2120.84 4.25783 -2.32237 0
M  V30 23022 H 2116.72 4.47308 -1.1152 0
M  V30 23023 H 2120.27 5.37429 -4.44765 0
M  V30 23024 H 2116.16 5.58783 -3.2316 0
M  V30 23025 H 2116.93 6.35241 -5.1615 0
M  V30 23026 N 2119.6 0.497834 1.49531 0
M  V30 23027 C 2120.84 -0.0496362 2.01639 0
M  V30 23028 C 2121.16 -1.3834 1.38281 0
M  V30 23029 O 2122.36 -2.01737 1.81699 0
M  V30 23030 C 2120.82 -0.138928 3.59632 0
M  V30 23031 C 2120.43 1.188 4.31961 0
M  V30 23032 C 2122.17 -0.636931 4.19694 0
M  V30 23033 C 2120.08 1.06104 5.81804 0
M  V30 23034 H 2119.01 -0.0223237 0.753669 0
M  V30 23035 H 2121.66 0.636776 1.72097 0
M  V30 23036 H 2120.04 -0.88972 3.85876 0
M  V30 23037 H 2121.22 1.95184 4.17421 0
M  V30 23038 H 2119.53 1.61919 3.83629 0
M  V30 23039 H 2122.13 -0.749374 5.29423 0
M  V30 23040 H 2122.47 -1.63499 3.8285 0
M  V30 23041 H 2123 0.0572358 3.97759 0
M  V30 23042 H 2119.74 2.03327 6.23168 0
M  V30 23043 H 2119.26 0.33804 5.98847 0
M  V30 23044 H 2120.94 0.738481 6.42772 0
M  V30 23045 N 2121.07 -1.5589 0.231532 0
M  V30 23046 C 2122.3 -2.02662 -0.401447 0
M  V30 23047 C 2122.71 -1.11044 -1.53186 0
M  V30 23048 O 2122.05 -0.114263 -1.83344 0
M  V30 23049 C 2122.12 -3.45741 -0.985048 0
M  V30 23050 C 2121.78 -4.56999 0.0111732 0
M  V30 23051 C 2122.78 -5.13469 0.815178 0
M  V30 23052 C 2120.46 -5.02124 0.132817 0
M  V30 23053 C 2122.46 -6.13546 1.72743 0
M  V30 23054 C 2120.14 -6.02036 1.0486 0
M  V30 23055 C 2121.14 -6.57624 1.84444 0
M  V30 23056 O 2120.83 -7.55589 2.74481 0
M  V30 23057 H 2120.56 -0.668353 -0.101391 0
M  V30 23058 H 2123.12 -2.02424 0.348401 0
M  V30 23059 H 2121.35 -3.4308 -1.78417 0
M  V30 23060 H 2123.03 -3.76103 -1.52648 0
M  V30 23061 H 2123.8 -4.79449 0.731703 0
M  V30 23062 H 2119.68 -4.5853 -0.476536 0
M  V30 23063 H 2123.22 -6.5686 2.34905 0
M  V30 23064 H 2119.12 -6.35478 1.13305 0
M  V30 23065 H 2119.89 -7.73149 2.68668 0
M  V30 23066 N 2122.55 0.0417572 -1.57545 0
M  V30 23067 C 2123.8 0.7351 -1.88686 0
M  V30 23068 C 2124.13 1.76032 -0.827216 0
M  V30 23069 O 2123.38 1.94931 0.173363 0
M  V30 23070 C 2123.68 1.45244 -3.26556 0
M  V30 23071 C 2123.35 0.56439 -4.47354 0
M  V30 23072 C 2122.01 0.319756 -4.80136 0
M  V30 23073 C 2124.36 -0.0495197 -5.21176 0
M  V30 23074 C 2121.69 -0.547773 -5.84137 0
M  V30 23075 C 2124.04 -0.904676 -6.26098 0
M  V30 23076 C 2122.7 -1.15889 -6.57363 0
M  V30 23077 H 2121.97 0.268992 -0.690452 0
M  V30 23078 H 2124.62 -0.00478987 -1.91499 0
M  V30 23079 H 2122.93 2.26532 -3.19673 0
M  V30 23080 H 2124.62 1.99422 -3.47896 0
M  V30 23081 H 2121.21 0.765207 -4.21714 0
M  V30 23082 H 2125.4 0.126537 -4.96139 0
M  V30 23083 H 2120.65 -0.753169 -6.06743 0
M  V30 23084 H 2124.83 -1.38695 -6.82449 0
M  V30 23085 H 2122.45 -1.83286 -7.37774 0
M  V30 23086 N 2124.03 1.54445 0.313786 0
M  V30 23087 C 2125.28 1.73373 1.05212 0
M  V30 23088 C 2125.61 0.511165 1.87352 0
M  V30 23089 O 2124.88 -0.491833 1.88179 0
M  V30 23090 C 2125.17 3.01517 1.96874 0
M  V30 23091 C 2125.02 4.34046 1.17999 0
M  V30 23092 C 2126.34 3.25462 2.96248 0
M  V30 23093 H 2123.46 0.630823 0.381092 0
M  V30 23094 H 2126.1 1.87149 0.327891 0
M  V30 23095 H 2124.25 2.89903 2.58628 0
M  V30 23096 H 2125.92 4.57559 0.586302 0
M  V30 23097 H 2124.16 4.31109 0.482437 0
M  V30 23098 H 2124.84 5.19949 1.85355 0
M  V30 23099 H 2127.31 3.36602 2.44619 0
M  V30 23100 H 2126.19 4.16464 3.57559 0
M  V30 23101 H 2126.45 2.43151 3.69229 0
M  V30 23102 N 2125.51 -0.576345 1.46683 0
M  V30 23103 C 2126.75 -1.3363 1.52548 0
M  V30 23104 C 2127.09 -1.93371 0.179205 0
M  V30 23105 O 2126.36 -1.76827 -0.810088 0
M  V30 23106 C 2126.64 -2.46086 2.62895 0
M  V30 23107 C 2126.5 -1.91338 4.07075 0
M  V30 23108 C 2127.82 -3.48104 2.6928 0
M  V30 23109 H 2124.94 -0.484517 0.555349 0
M  V30 23110 H 2127.58 -0.646838 1.78651 0
M  V30 23111 H 2125.73 -3.04898 2.40769 0
M  V30 23112 H 2127.4 -1.36934 4.40507 0
M  V30 23113 H 2125.64 -1.22127 4.16254 0
M  V30 23114 H 2126.31 -2.72545 4.80024 0
M  V30 23115 H 2128.79 -2.99183 2.89187 0
M  V30 23116 H 2127.67 -4.2424 3.48298 0
M  V30 23117 H 2127.93 -4.05739 1.7558 0
M  V30 23118 N 2126.99 -1.34495 -0.82151 0
M  V30 23119 C 2128.23 -1.26931 -1.57781 0
M  V30 23120 C 2128.56 0.160345 -1.93838 0
M  V30 23121 O 2127.82 1.12196 -1.60345 0
M  V30 23122 C 2128.11 -2.10695 -2.88691 0
M  V30 23123 C 2127.78 -3.59682 -2.71919 0
M  V30 23124 C 2126.44 -4.00295 -2.67053 0
M  V30 23125 C 2128.79 -4.5428 -2.55497 0
M  V30 23126 C 2126.12 -5.33698 -2.43687 0
M  V30 23127 C 2128.47 -5.87864 -2.33663 0
M  V30 23128 C 2127.14 -6.2764 -2.27209 0
M  V30 23129 H 2126.41 -0.464474 -0.57736 0
M  V30 23130 H 2129.06 -1.66251 -0.950411 0
M  V30 23131 H 2127.36 -1.64208 -3.55729 0
M  V30 23132 H 2129.06 -2.02188 -3.46296 0
M  V30 23133 H 2125.65 -3.27444 -2.76547 0
M  V30 23134 H 2129.83 -4.23799 -2.58279 0
M  V30 23135 H 2125.09 -5.63534 -2.37149 0
M  V30 23136 H 2129.26 -6.60756 -2.19943 0
M  V30 23137 H 2126.89 -7.30944 -2.08865 0
M  V30 23138 N 2128.46 1.04188 -1.18248 0
M  V30 23139 C 2129.71 1.76764 -0.971464 0
M  V30 23140 C 2130.03 1.89102 0.49997 0
M  V30 23141 O 2131.23 2.58519 0.829468 0
M  V30 23142 C 2129.69 3.17801 -1.68909 0
M  V30 23143 C 2129.3 3.1356 -3.19975 0
M  V30 23144 C 2131.04 3.94763 -1.56084 0
M  V30 23145 C 2128.95 4.49449 -3.84382 0
M  V30 23146 H 2127.88 0.662591 -0.359847 0
M  V30 23147 H 2130.53 1.16702 -1.41608 0
M  V30 23148 H 2128.91 3.78252 -1.17224 0
M  V30 23149 H 2130.08 2.62568 -3.78675 0
M  V30 23150 H 2128.4 2.50097 -3.32927 0
M  V30 23151 H 2131 4.95253 -2.01566 0
M  V30 23152 H 2131.34 4.13128 -0.512919 0
M  V30 23153 H 2131.87 3.40885 -2.05043 0
M  V30 23154 H 2128.61 4.36289 -4.89216 0
M  V30 23155 H 2128.13 5.00549 -3.3047 0
M  V30 23156 H 2129.81 5.18367 -3.87175 0
M  V30 23157 N 2129.94 0.98432 1.23081 0
M  V30 23158 C 2131.19 0.650883 1.90909 0
M  V30 23159 C 2131.5 -0.819701 1.77596 0
M  V30 23160 O 2132.71 -1.26436 2.40263 0
M  V30 23161 C 2131.17 1.11359 3.42239 0
M  V30 23162 C 2130.77 2.60879 3.64206 0
M  V30 23163 C 2132.52 0.854079 4.15819 0
M  V30 23164 C 2130.43 3.00797 5.09191 0
M  V30 23165 H 2129.36 0.239743 0.71487 0
M  V30 23166 H 2132.01 1.19274 1.39449 0
M  V30 23167 H 2130.39 0.499916 3.92832 0
M  V30 23168 H 2131.56 3.27519 3.24142 0
M  V30 23169 H 2129.88 2.84619 3.03942 0
M  V30 23170 H 2132.47 1.12812 5.22664 0
M  V30 23171 H 2132.82 -0.209813 4.15771 0
M  V30 23172 H 2133.35 1.42952 3.71227 0
M  V30 23173 H 2130.09 4.06326 5.14373 0
M  V30 23174 H 2129.61 2.38854 5.5019 0
M  V30 23175 H 2131.29 2.9162 5.77552 0
M  V30 23176 N 2131.42 -1.38259 0.756453 0
M  V30 23177 C 2132.67 -2.00052 0.313891 0
M  V30 23178 C 2133 -1.60047 -1.10523 0
M  V30 23179 O 2132.25 -0.830786 -1.7719 0
M  V30 23180 C 2132.55 -3.55293 0.3875 0
M  V30 23181 C 2132.22 -4.15019 1.76268 0
M  V30 23182 C 2130.88 -4.31045 2.13902 0
M  V30 23183 C 2133.23 -4.47937 2.66462 0
M  V30 23184 C 2130.56 -4.77286 3.41197 0
M  V30 23185 C 2132.91 -4.95596 3.93151 0
M  V30 23186 C 2131.57 -5.09828 4.3085 0
M  V30 23187 H 2130.84 -0.732044 0.114861 0
M  V30 23188 H 2133.49 -1.65263 0.967494 0
M  V30 23189 H 2131.8 -3.90237 -0.349664 0
M  V30 23190 H 2133.49 -4.00991 0.0266083 0
M  V30 23191 H 2130.08 -4.02962 1.46014 0
M  V30 23192 H 2134.27 -4.35154 2.38651 0
M  V30 23193 H 2129.52 -4.8649 3.7032 0
M  V30 23194 H 2133.7 -5.20036 4.6318 0
M  V30 23195 H 2131.32 -5.45419 5.29549 0
M  V30 23196 N 2132.9 -0.505757 -1.49264 0
M  V30 23197 C 2134.15 0.0369987 -2.02066 0
M  V30 23198 C 2134.47 1.37044 -1.38723 0
M  V30 23199 O 2133.74 1.8819 -0.544182 0
M  V30 23200 H 2132.32 0.0166628 -0.746814 0
M  V30 23201 H 2134.98 -0.66408 -1.83238 0
M  V30 23202 H 2134.08 0.163179 -3.11673 0
M  V30 23203 N 2134.38 1.55765 -0.239796 0
M  V30 23204 C 2135.6 2.03618 0.394243 0
M  V30 23205 C 2136.03 1.1181 1.51261 0
M  V30 23206 O 2135.38 0.1097 1.80968 0
M  V30 23207 C 2135.43 3.49545 0.886029 0
M  V30 23208 O 2134.54 3.60872 1.99613 0
M  V30 23209 H 2133.88 0.658289 0.0869012 0
M  V30 23210 H 2136.41 2.0134 -0.363774 0
M  V30 23211 H 2136.42 3.90226 1.1911 0
M  V30 23212 H 2135.09 4.15845 0.0675883 0
M  V30 23213 H 2133.67 3.32085 1.6963 0
M  V30 23214 N 2135.85 -0.0334016 1.57565 0
M  V30 23215 C 2137.1 -0.725083 1.89074 0
M  V30 23216 C 2137.43 -1.75591 0.83654 0
M  V30 23217 O 2136.68 -1.9502 -0.163023 0
M  V30 23218 C 2136.98 -1.4351 3.27322 0
M  V30 23219 C 2136.65 -0.540657 4.47647 0
M  V30 23220 C 2135.31 -0.294289 4.80299 0
M  V30 23221 C 2137.66 0.0771583 5.21143 0
M  V30 23222 C 2134.99 0.578743 5.83839 0
M  V30 23223 C 2137.34 0.937867 6.25609 0
M  V30 23224 C 2136.01 1.19374 6.56739 0
M  V30 23225 H 2135.28 -0.265327 0.691869 0
M  V30 23226 H 2137.92 0.0149455 1.91494 0
M  V30 23227 H 2136.23 -2.24833 3.2087 0
M  V30 23228 H 2137.93 -1.97575 3.48949 0
M  V30 23229 H 2134.52 -0.742832 4.22114 0
M  V30 23230 H 2138.7 -0.100223 4.96199 0
M  V30 23231 H 2133.96 0.785335 6.06335 0
M  V30 23232 H 2138.13 1.42313 6.81704 0
M  V30 23233 H 2135.76 1.87196 7.36792 0
M  V30 23234 N 2137.33 -1.54609 -0.305591 0
M  V30 23235 C 2138.58 -1.73672 -1.04137 0
M  V30 23236 C 2138.91 -0.520024 -1.87419 0
M  V30 23237 O 2138.16 0.49808 -1.89256 0
M  V30 23238 C 2138.46 -2.97546 -1.97993 0
M  V30 23239 C 2138.13 -4.31535 -1.30723 0
M  V30 23240 C 2136.79 -4.67958 -1.12109 0
M  V30 23241 C 2139.14 -5.14614 -0.825937 0
M  V30 23242 C 2136.47 -5.85045 -0.440427 0
M  V30 23243 C 2138.82 -6.324 -0.159014 0
M  V30 23244 C 2137.49 -6.67489 0.0391208 0
M  V30 23245 H 2136.76 -0.635509 -0.381063 0
M  V30 23246 H 2139.4 -1.88863 -0.316695 0
M  V30 23247 H 2137.71 -2.77116 -2.76973 0
M  V30 23248 H 2139.4 -3.09489 -2.54985 0
M  V30 23249 H 2135.99 -4.02888 -1.46217 0
M  V30 23250 H 2140.18 -4.86977 -0.957472 0
M  V30 23251 H 2135.43 -6.10777 -0.275887 0
M  V30 23252 H 2139.61 -6.96047 0.221841 0
M  V30 23253 H 2137.24 -7.58071 0.568561 0
M  V30 23254 N 2138.81 0.568558 -1.46987 0
M  V30 23255 C 2140.04 1.35191 -1.56624 0
M  V30 23256 C 2140.45 1.87602 -0.212353 0
M  V30 23257 O 2139.81 1.64388 0.792639 0
M  V30 23258 C 2139.86 2.52969 -2.58242 0
M  V30 23259 O 2139.58 2.02726 -3.88373 0
M  V30 23260 C 2141.08 3.45334 -2.77955 0
M  V30 23261 H 2138.3 0.412505 -0.529227 0
M  V30 23262 H 2140.85 0.689847 -1.92513 0
M  V30 23263 H 2139 3.15136 -2.25318 0
M  V30 23264 H 2139.42 2.79532 -4.43804 0
M  V30 23265 H 2140.89 4.2442 -3.52947 0
M  V30 23266 H 2141.37 3.98165 -1.85368 0
M  V30 23267 H 2141.97 2.88992 -3.12032 0
M  V30 23268 N 2140.29 1.34929 0.814366 0
M  V30 23269 C 2141.22 1.29866 1.94055 0
M  V30 23270 C 2142.2 0.174504 1.69203 0
M  V30 23271 O 2143.38 0.368232 1.90677 0
M  V30 23272 C 2140.51 1.06201 3.30664 0
M  V30 23273 C 2139.47 2.15174 3.69978 0
M  V30 23274 C 2138.79 1.76686 5.04664 0
M  V30 23275 C 2140.09 3.57077 3.81174 0
M  V30 23276 H 2141.79 2.24095 1.98549 0
M  V30 23277 H 2139.33 1.07877 0.953865 0
M  V30 23278 H 2141.29 1.01301 4.09043 0
M  V30 23279 H 2140.01 0.0841549 3.26492 0
M  V30 23280 H 2138.67 2.19158 2.9388 0
M  V30 23281 H 2138.32 0.775388 4.96988 0
M  V30 23282 H 2138.02 2.49628 5.3194 0
M  V30 23283 H 2139.54 1.73297 5.85492 0
M  V30 23284 H 2140.96 3.55458 4.49803 0
M  V30 23285 H 2139.35 4.28713 4.19911 0
M  V30 23286 H 2140.42 3.93795 2.82937 0
M  V30 23287 N 2141.77 -1.0356 1.18799 0
M  V30 23288 C 2142.71 -2.13799 0.916116 0
M  V30 23289 C 2143.71 -1.68934 -0.125535 0
M  V30 23290 O 2144.91 -1.79985 0.0230864 0
M  V30 23291 H 2141.29 -0.698404 0.278811 0
M  V30 23292 H 2143.26 -2.33925 1.85262 0
M  V30 23293 C 2142.01 -3.44591 0.463926 0
M  V30 23294 H 2141.33 -3.79526 1.25698 0
M  V30 23295 H 2142.77 -4.22845 0.312739 0
M  V30 23296 C 2141.23 -3.26743 -0.821008 0
M  V30 23297 O 2141.76 -3.54778 -1.88403 0
M  V30 23298 N 2139.97 -2.80058 -0.775608 0
M  V30 23299 H 2139.51 -2.57444 0.089694 0
M  V30 23300 H 2139.47 -2.68497 -1.63575 0
M  V30 23301 N 2143.25 -0.990834 -1.22557 0
M  V30 23302 C 2144.18 -0.559304 -2.26703 0
M  V30 23303 C 2145.16 0.412782 -1.65016 0
M  V30 23304 O 2146.34 0.303868 -1.91808 0
M  V30 23305 C 2143.47 0.12888 -3.47061 0
M  V30 23306 C 2142.43 -0.76154 -4.2117 0
M  V30 23307 C 2141.75 0.0594442 -5.34667 0
M  V30 23308 C 2143.05 -2.0574 -4.80071 0
M  V30 23309 H 2144.75 -1.42983 -2.63052 0
M  V30 23310 H 2142.29 -0.68896 -1.26449 0
M  V30 23311 H 2144.24 0.44215 -4.19074 0
M  V30 23312 H 2142.97 1.03394 -3.09802 0
M  V30 23313 H 2141.63 -1.05842 -3.50989 0
M  V30 23314 H 2141.28 0.965355 -4.9365 0
M  V30 23315 H 2140.98 -0.533291 -5.85175 0
M  V30 23316 H 2142.5 0.366857 -6.09497 0
M  V30 23317 H 2143.91 -1.80821 -5.44037 0
M  V30 23318 H 2142.31 -2.59878 -5.4091 0
M  V30 23319 H 2143.38 -2.73748 -4.00237 0
M  V30 23320 N 2144.72 1.37856 -0.763775 0
M  V30 23321 C 2145.97 1.99883 -0.324496 0
M  V30 23322 C 2146.3 1.60631 1.09672 0
M  V30 23323 O 2145.55 0.840171 1.76747 0
M  V30 23324 C 2145.85 3.55083 -0.406337 0
M  V30 23325 C 2145.52 4.14078 -1.78466 0
M  V30 23326 C 2144.18 4.29904 -2.16185 0
M  V30 23327 C 2146.53 4.46517 -2.68834 0
M  V30 23328 C 2143.86 4.7547 -3.43723 0
M  V30 23329 C 2146.21 4.93504 -3.95774 0
M  V30 23330 C 2144.88 5.07536 -4.33547 0
M  V30 23331 H 2144.15 0.731424 -0.118741 0
M  V30 23332 H 2146.79 1.64747 -0.976245 0
M  V30 23333 H 2145.1 3.90417 0.328964 0
M  V30 23334 H 2146.8 4.00971 -0.0478734 0
M  V30 23335 H 2143.39 4.02182 -1.48149 0
M  V30 23336 H 2147.57 4.33883 -2.40955 0
M  V30 23337 H 2142.83 4.8452 -3.72895 0
M  V30 23338 H 2147 5.17572 -4.65931 0
M  V30 23339 H 2144.63 5.42603 -5.32434 0
M  V30 23340 N 2146.2 0.513665 1.48994 0
M  V30 23341 C 2147.45 -0.0282469 2.0168 0
M  V30 23342 C 2147.76 -1.36865 1.3974 0
M  V30 23343 O 2148.97 -1.99799 1.83828 0
M  V30 23344 C 2147.43 -0.100776 3.59759 0
M  V30 23345 C 2147.03 1.23375 4.30677 0
M  V30 23346 C 2148.78 -0.592381 4.20346 0
M  V30 23347 C 2146.68 1.12269 5.80646 0
M  V30 23348 H 2145.61 -0.0143288 0.753864 0
M  V30 23349 H 2148.27 0.654994 1.71412 0
M  V30 23350 H 2146.65 -0.848743 3.86798 0
M  V30 23351 H 2147.82 1.996 4.15327 0
M  V30 23352 H 2146.14 1.65979 3.8189 0
M  V30 23353 H 2148.73 -0.69318 5.30188 0
M  V30 23354 H 2149.08 -1.59429 3.84562 0
M  V30 23355 H 2149.61 0.0994202 3.97676 0
M  V30 23356 H 2146.35 2.09925 6.20976 0
M  V30 23357 H 2145.87 0.401536 5.98454 0
M  V30 23358 H 2147.55 0.806614 6.41952 0
M  V30 23359 N 2147.68 -1.55636 0.248053 0
M  V30 23360 C 2148.93 -1.98579 -0.375626 0
M  V30 23361 C 2149.25 -1.13753 -1.58383 0
M  V30 23362 O 2148.52 -0.2206 -1.94654 0
M  V30 23363 H 2147.1 -0.733423 -0.141773 0
M  V30 23364 H 2149.76 -1.91784 0.34711 0
M  V30 23365 H 2148.86 -3.04513 -0.683983 0
M  V30 23366 N 2149.16 0.0250451 -1.5758 0
M  V30 23367 C 2150.4 0.716105 -1.89736 0
M  V30 23368 C 2150.74 1.7479 -0.846284 0
M  V30 23369 O 2150.01 1.94009 0.138165 0
M  V30 23370 C 2150.29 1.38201 -3.32524 0
M  V30 23371 C 2150.15 0.363457 -4.48329 0
M  V30 23372 C 2151.47 2.31493 -3.74298 0
M  V30 23373 H 2148.59 0.258862 -0.690043 0
M  V30 23374 H 2151.23 -0.0211043 -1.89988 0
M  V30 23375 H 2149.38 2.01037 -3.3244 0
M  V30 23376 H 2151.05 -0.263295 -4.60548 0
M  V30 23377 H 2149.29 -0.316859 -4.32641 0
M  V30 23378 H 2149.96 0.867948 -5.45134 0
M  V30 23379 H 2152.44 1.78697 -3.75774 0
M  V30 23380 H 2151.32 2.75065 -4.75006 0
M  V30 23381 H 2151.58 3.1834 -3.06777 0
M  V30 23382 N 2150.64 1.54769 0.297388 0
M  V30 23383 C 2151.88 1.7343 1.0298 0
M  V30 23384 C 2152.2 0.529189 1.88305 0
M  V30 23385 O 2153.4 0.597687 2.64839 0
M  V30 23386 C 2151.86 3.06854 1.88065 0
M  V30 23387 C 2151.47 4.34856 1.07724 0
M  V30 23388 C 2153.21 3.34873 2.60883 0
M  V30 23389 C 2151.12 5.59329 1.92107 0
M  V30 23390 H 2150.05 0.646388 0.388199 0
M  V30 23391 H 2152.7 1.81248 0.286615 0
M  V30 23392 H 2151.08 2.93011 2.66385 0
M  V30 23393 H 2152.26 4.59544 0.339927 0
M  V30 23394 H 2150.57 4.13799 0.464715 0
M  V30 23395 H 2153.17 4.25071 3.24374 0
M  V30 23396 H 2153.51 2.5391 3.29902 0
M  V30 23397 H 2154.04 3.49704 1.8961 0
M  V30 23398 H 2150.78 6.4297 1.27551 0
M  V30 23399 H 2150.3 5.3882 2.63501 0
M  V30 23400 H 2151.98 5.96721 2.50067 0
M  V30 23401 N 2152.11 -0.560755 1.47286 0
M  V30 23402 C 2153.36 -1.31441 1.52991 0
M  V30 23403 C 2153.68 -1.94622 0.195307 0
M  V30 23404 O 2154.88 -2.71187 0.130315 0
M  V30 23405 C 2153.34 -2.38334 2.69676 0
M  V30 23406 C 2152.95 -1.81358 4.0965 0
M  V30 23407 C 2154.69 -3.14902 2.8467 0
M  V30 23408 C 2152.6 -2.8601 5.17641 0
M  V30 23409 H 2151.53 -0.49421 0.569449 0
M  V30 23410 H 2154.18 -0.595972 1.73552 0
M  V30 23411 H 2152.56 -3.13075 2.42487 0
M  V30 23412 H 2153.73 -1.13012 4.46727 0
M  V30 23413 H 2152.05 -1.17385 3.99512 0
M  V30 23414 H 2154.65 -3.93045 3.62518 0
M  V30 23415 H 2154.99 -3.68868 1.92983 0
M  V30 23416 H 2155.52 -2.47271 3.11612 0
M  V30 23417 H 2152.26 -2.36904 6.11193 0
M  V30 23418 H 2151.78 -3.52777 4.85086 0
M  V30 23419 H 2153.46 -3.49566 5.44438 0
M  V30 23420 N 2153.59 -1.35359 -0.807199 0
M  V30 23421 C 2154.87 -1.19163 -1.55111 0
M  V30 23422 C 2155.25 0.22949 -2.09849 0
M  V30 23423 O 2154.6 1.23292 -1.92383 0
M  V30 23424 C 2154.81 -2.25917 -2.66012 0
M  V30 23425 C 2156.15 -2.61693 -3.34368 0
M  V30 23426 O 2157.18 -2.24826 -2.76282 0
M  V30 23427 O 2156.04 -3.25083 -4.39299 0
M  V30 23428 H 2153.13 -0.462906 -0.685308 0
M  V30 23429 H 2155.68 -1.47039 -0.847213 0
M  V30 23430 H 2154.45 -3.21238 -2.23432 0
M  V30 23431 H 2154.07 -1.99307 -3.44038 0
M  V30 23432 N 2155.07 1.02928 -1.19346 0
M  V30 23433 C 2156.02 2.1331 -0.927441 0
M  V30 23434 C 2157.01 1.68998 0.116575 0
M  V30 23435 O 2158.22 1.7997 -0.0326311 0
M  V30 23436 H 2154.59 0.696916 -0.282511 0
M  V30 23437 H 2156.56 2.32939 -1.865 0
M  V30 23438 C 2155.31 3.4434 -0.482194 0
M  V30 23439 H 2154.64 3.78854 -1.27709 0
M  V30 23440 H 2156.08 4.22673 -0.335159 0
M  V30 23441 C 2154.53 3.27174 0.803669 0
M  V30 23442 O 2155.06 3.55772 1.86519 0
M  V30 23443 N 2153.27 2.80466 0.760745 0
M  V30 23444 H 2152.82 2.57393 -0.103346 0
M  V30 23445 H 2152.78 2.69361 1.62149 0
M  V30 23446 N 2156.55 0.997319 1.2203 0
M  V30 23447 C 2157.79 0.675666 1.90895 0
M  V30 23448 C 2158.12 -0.792764 1.77611 0
M  V30 23449 O 2157.38 -1.58936 1.14183 0
M  V30 23450 C 2157.68 1.0329 3.42149 0
M  V30 23451 C 2157.34 2.49432 3.75625 0
M  V30 23452 C 2156 2.89368 3.84473 0
M  V30 23453 C 2158.36 3.44136 3.91433 0
M  V30 23454 C 2155.68 4.22987 4.0657 0
M  V30 23455 C 2158.04 4.77419 4.15035 0
M  V30 23456 C 2156.7 5.17089 4.22108 0
M  V30 23457 H 2155.97 0.247244 0.698535 0
M  V30 23458 H 2158.62 1.25433 1.44703 0
M  V30 23459 H 2156.92 0.372375 3.90026 0
M  V30 23460 H 2158.62 0.761993 3.93694 0
M  V30 23461 H 2155.21 2.17479 3.69325 0
M  V30 23462 H 2159.39 3.14451 3.83972 0
M  V30 23463 H 2154.65 4.53305 4.10274 0
M  V30 23464 H 2158.82 5.50743 4.2621 0
M  V30 23465 H 2156.45 6.20643 4.38983 0
M  V30 23466 N 2158.03 -1.37449 0.771075 0
M  V30 23467 C 2158.97 -2.3215 0.144682 0
M  V30 23468 C 2159.97 -1.549 -0.685728 0
M  V30 23469 O 2161.17 -1.70302 -0.582865 0
M  V30 23470 H 2157.55 -0.751479 0.0279996 0
M  V30 23471 H 2159.52 -2.82565 0.959155 0
M  V30 23472 C 2158.27 -3.40151 -0.720591 0
M  V30 23473 H 2157.59 -3.99696 -0.0909784 0
M  V30 23474 H 2159.03 -4.08779 -1.12586 0
M  V30 23475 C 2157.49 -2.80177 -1.8709 0
M  V30 23476 O 2158.02 -2.70873 -2.96632 0
M  V30 23477 N 2156.23 -2.3773 -1.67132 0
M  V30 23478 H 2155.77 -2.45497 -0.780329 0
M  V30 23479 H 2155.73 -1.97946 -2.44263 0
M  V30 23480 N 2159.5 -0.52156 -1.4872 0
M  V30 23481 C 2160.44 0.282802 -2.27449 0
M  V30 23482 C 2161.45 0.912106 -1.3485 0
M  V30 23483 O 2162.64 0.79197 -1.59969 0
M  V30 23484 C 2159.74 1.41494 -3.07949 0
M  V30 23485 C 2158.91 0.889125 -4.28268 0
M  V30 23486 C 2157.97 1.90136 -4.90647 0
M  V30 23487 O 2157 1.46166 -5.50113 0
M  V30 23488 N 2158.2 3.23306 -4.82134 0
M  V30 23489 H 2160.96 -0.392372 -2.9712 0
M  V30 23490 H 2158.52 -0.355365 -1.57952 0
M  V30 23491 H 2160.52 2.09008 -3.46551 0
M  V30 23492 H 2159.09 1.99391 -2.40753 0
M  V30 23493 H 2158.31 0.0382432 -3.94181 0
M  V30 23494 H 2159.59 0.516566 -5.06171 0
M  V30 23495 H 2158.99 3.61702 -4.34958 0
M  V30 23496 H 2157.55 3.86477 -5.24861 0
M  V30 23497 N 2160.98 1.55502 -0.256304 0
M  V30 23498 C 2161.91 2.19122 0.672174 0
M  V30 23499 C 2162.93 1.17029 1.13172 0
M  V30 23500 O 2164.12 1.43849 1.05687 0
M  V30 23501 C 2161.22 2.78814 1.92655 0
M  V30 23502 C 2160.39 4.06417 1.6169 0
M  V30 23503 C 2159.45 4.50337 2.72182 0
M  V30 23504 O 2158.47 5.16515 2.39167 0
M  V30 23505 N 2159.68 4.18905 4.01869 0
M  V30 23506 H 2162.44 2.99428 0.127769 0
M  V30 23507 H 2160 1.61719 -0.0766386 0
M  V30 23508 H 2161.99 3.05149 2.65831 0
M  V30 23509 H 2160.56 2.02611 2.38049 0
M  V30 23510 H 2159.78 3.87571 0.719867 0
M  V30 23511 H 2161.07 4.89593 1.38479 0
M  V30 23512 H 2160.47 3.65795 4.31521 0
M  V30 23513 H 2159.03 4.50054 4.71481 0
M  V30 23514 N 2162.46 -0.0166879 1.57591 0
M  V30 23515 C 2163.41 -1.01343 2.0736 0
M  V30 23516 C 2164.38 -1.35165 0.96538 0
M  V30 23517 O 2165.56 -1.4529 1.23675 0
M  V30 23518 C 2162.7 -2.30545 2.56794 0
M  V30 23519 C 2161.82 -2.02772 3.81454 0
M  V30 23520 C 2160.95 -3.25935 4.19452 0
M  V30 23521 C 2159.99 -2.93773 5.36995 0
M  V30 23522 N 2159.13 -4.09423 5.70366 0
M  V30 23523 H 2163.97 -0.582069 2.9226 0
M  V30 23524 H 2161.5 -0.275773 1.44492 0
M  V30 23525 H 2163.46 -3.06054 2.83526 0
M  V30 23526 H 2162.09 -2.7138 1.74793 0
M  V30 23527 H 2161.14 -1.17706 3.61731 0
M  V30 23528 H 2162.46 -1.75056 4.67073 0
M  V30 23529 H 2161.61 -4.09802 4.47378 0
M  V30 23530 H 2160.35 -3.56776 3.32509 0
M  V30 23531 H 2159.35 -2.0831 5.08809 0
M  V30 23532 H 2160.58 -2.64197 6.25601 0
M  V30 23533 H 2158.52 -4.40192 4.86382 0
M  V30 23534 H 2158.44 -3.85172 6.50521 0
M  V30 23535 H 2159.71 -4.94127 6.02875 0
M  V30 23536 N 2163.94 -1.54924 -0.289176 0
M  V30 23537 C 2164.89 -1.86692 -1.35701 0
M  V30 23538 C 2165.86 -0.716885 -1.49833 0
M  V30 23539 O 2167.04 -0.966637 -1.64502 0
M  V30 23540 C 2164.18 -2.13019 -2.71509 0
M  V30 23541 C 2163.29 -3.40605 -2.6573 0
M  V30 23542 C 2162.43 -3.56714 -3.9361 0
M  V30 23543 C 2161.47 -4.78049 -3.82276 0
M  V30 23544 N 2160.6 -4.90901 -5.01957 0
M  V30 23545 H 2165.44 -2.77776 -1.07909 0
M  V30 23546 H 2162.98 -1.37539 -0.52168 0
M  V30 23547 H 2164.94 -2.2628 -3.50504 0
M  V30 23548 H 2163.57 -1.25188 -2.97536 0
M  V30 23549 H 2162.62 -3.35902 -1.78533 0
M  V30 23550 H 2163.93 -4.29728 -2.53249 0
M  V30 23551 H 2163.09 -3.69704 -4.81045 0
M  V30 23552 H 2161.83 -2.65745 -4.08939 0
M  V30 23553 H 2160.83 -4.6508 -2.93225 0
M  V30 23554 H 2162.06 -5.70437 -3.68482 0
M  V30 23555 H 2160 -4.02859 -5.17726 0
M  V30 23556 H 2159.92 -5.74044 -4.91945 0
M  V30 23557 H 2161.19 -5.0826 -5.91009 0
M  V30 23558 N 2165.42 0.552936 -1.47582 0
M  V30 23559 C 2166.36 1.65963 -1.60389 0
M  V30 23560 C 2167.33 1.59979 -0.446754 0
M  V30 23561 O 2168.52 1.78749 -0.667351 0
M  V30 23562 C 2165.66 3.04278 -1.62815 0
M  V30 23563 C 2164.77 3.20668 -2.89476 0
M  V30 23564 C 2163.91 4.49406 -2.8321 0
M  V30 23565 C 2162.95 4.59243 -4.04676 0
M  V30 23566 N 2162.08 5.79341 -3.96621 0
M  V30 23567 H 2166.92 1.54355 -2.54909 0
M  V30 23568 H 2164.46 0.751844 -1.26435 0
M  V30 23569 H 2166.42 3.84377 -1.62204 0
M  V30 23570 H 2165.05 3.14712 -0.718048 0
M  V30 23571 H 2164.1 2.33973 -2.99935 0
M  V30 23572 H 2165.41 3.238 -3.79414 0
M  V30 23573 H 2164.57 5.3777 -2.80872 0
M  V30 23574 H 2163.3 4.4876 -1.90961 0
M  V30 23575 H 2162.31 3.69291 -4.07314 0
M  V30 23576 H 2163.53 4.61645 -4.98057 0
M  V30 23577 H 2161.48 5.79636 -3.07178 0
M  V30 23578 H 2161.4 5.8387 -4.80242 0
M  V30 23579 H 2162.67 6.70054 -3.98306 0
M  V30 23580 N 2166.89 1.35785 0.800009 0
M  V30 23581 C 2167.82 1.31917 1.92666 0
M  V30 23582 C 2168.81 0.19244 1.69008 0
M  V30 23583 O 2169.99 0.388435 1.90276 0
M  V30 23584 C 2167.12 1.09703 3.29519 0
M  V30 23585 C 2166.07 2.19086 3.67675 0
M  V30 23586 C 2165.4 1.82029 5.02762 0
M  V30 23587 C 2166.7 3.611 3.77365 0
M  V30 23588 H 2168.39 2.26189 1.96161 0
M  V30 23589 H 2165.94 1.08882 0.94237 0
M  V30 23590 H 2167.89 1.05634 4.07945 0
M  V30 23591 H 2166.62 0.118779 3.26384 0
M  V30 23592 H 2165.28 2.22263 2.91539 0
M  V30 23593 H 2164.92 0.828056 4.96137 0
M  V30 23594 H 2164.62 2.55256 5.29262 0
M  V30 23595 H 2166.15 1.79497 5.83621 0
M  V30 23596 H 2167.56 3.60209 4.46007 0
M  V30 23597 H 2165.96 4.33143 4.1534 0
M  V30 23598 H 2167.03 3.96774 2.78744 0
M  V30 23599 N 2168.37 -1.02294 1.19891 0
M  V30 23600 C 2169.62 -1.75443 1.0032 0
M  V30 23601 C 2169.94 -1.89338 -0.466488 0
M  V30 23602 O 2169.21 -1.43128 -1.33758 0
M  V30 23603 H 2167.79 -0.649949 0.368205 0
M  V30 23604 H 2170.45 -1.23363 1.50889 0
M  V30 23605 H 2169.55 -2.76044 1.45623 0
M  V30 23606 N 2169.85 -1.00378 -1.21499 0
M  V30 23607 C 2171.1 -0.684425 -1.90158 0
M  V30 23608 C 2171.42 0.787132 -1.78407 0
M  V30 23609 O 2170.69 1.5651 -1.17819 0
M  V30 23610 H 2169.27 -0.250163 -0.703866 0
M  V30 23611 H 2171.93 -1.27262 -1.47615 0
M  V30 23612 H 2171.03 -0.956513 -2.97081 0
M  V30 23613 N 2171.33 1.37038 -0.778354 0
M  V30 23614 C 2172.26 2.28847 -0.127244 0
M  V30 23615 C 2173.27 1.48951 0.657071 0
M  V30 23616 O 2174.46 1.71526 0.494075 0
M  V30 23617 C 2171.56 3.28242 0.843228 0
M  V30 23618 C 2170.74 4.37258 0.111327 0
M  V30 23619 C 2169.79 5.16685 0.996125 0
M  V30 23620 O 2168.82 5.67359 0.457454 0
M  V30 23621 N 2170.02 5.32051 2.32167 0
M  V30 23622 H 2172.79 2.85364 -0.915817 0
M  V30 23623 H 2170.35 1.49085 -0.631281 0
M  V30 23624 H 2172.34 3.78263 1.43873 0
M  V30 23625 H 2170.91 2.72445 1.53273 0
M  V30 23626 H 2170.13 3.88548 -0.66515 0
M  V30 23627 H 2171.42 5.07271 -0.394155 0
M  V30 23628 H 2170.82 4.92476 2.78358 0
M  V30 23629 H 2169.37 5.85356 2.86708 0
M  V30 23630 N 2172.81 0.529439 1.48441 0
M  V30 23631 C 2174.08 -0.0692247 1.95477 0
M  V30 23632 C 2174.46 -1.51345 1.47166 0
M  V30 23633 O 2173.81 -2.1758 0.697925 0
M  V30 23634 C 2174.02 0.0474683 3.48968 0
M  V30 23635 C 2175.37 -0.112074 4.24452 0
M  V30 23636 O 2176.39 -0.0263527 3.5619 0
M  V30 23637 O 2175.25 -0.291683 5.45721 0
M  V30 23638 H 2172.35 -0.079598 0.82316 0
M  V30 23639 H 2174.89 0.593999 1.58965 0
M  V30 23640 H 2173.67 1.05353 3.76851 0
M  V30 23641 H 2173.29 -0.65463 3.92174 0
M  V30 23642 N 2174.29 -1.55364 0.264547 0
M  V30 23643 C 2175.53 -1.98537 -0.355827 0
M  V30 23644 C 2175.85 -1.15624 -1.57767 0
M  V30 23645 O 2177.05 -1.48892 -2.27032 0
M  V30 23646 C 2175.51 -3.53332 -0.684446 0
M  V30 23647 C 2175.12 -4.45007 0.516993 0
M  V30 23648 C 2176.86 -4.05119 -1.26803 0
M  V30 23649 C 2174.77 -5.91174 0.163548 0
M  V30 23650 H 2173.7 -0.7415 -0.136725 0
M  V30 23651 H 2176.35 -1.79782 0.367539 0
M  V30 23652 H 2174.73 -3.67848 -1.46643 0
M  V30 23653 H 2175.91 -4.42256 1.29406 0
M  V30 23654 H 2174.22 -4.03797 1.0167 0
M  V30 23655 H 2176.82 -5.11859 -1.5461 0
M  V30 23656 H 2177.16 -3.53519 -2.19841 0
M  V30 23657 H 2177.69 -3.93999 -0.548571 0
M  V30 23658 H 2174.43 -6.46848 1.06153 0
M  V30 23659 H 2173.95 -5.97019 -0.576966 0
M  V30 23660 H 2175.63 -6.46524 -0.248012 0
M  V30 23661 N 2175.76 0.00833021 -1.57598 0
M  V30 23662 C 2177.01 0.694911 -1.90203 0
M  V30 23663 C 2177.34 1.74238 -0.864369 0
M  V30 23664 O 2176.59 1.95254 0.131976 0
M  V30 23665 C 2176.89 1.38284 -3.29564 0
M  V30 23666 C 2176.56 0.469372 -4.4845 0
M  V30 23667 C 2175.22 0.21784 -4.80707 0
M  V30 23668 C 2177.57 -0.160058 -5.20954 0
M  V30 23669 C 2174.9 -0.671554 -5.82844 0
M  V30 23670 C 2177.25 -1.03728 -6.24038 0
M  V30 23671 C 2175.92 -1.29807 -6.54757 0
M  V30 23672 H 2175.19 0.254286 -0.696003 0
M  V30 23673 H 2177.83 -0.0454086 -1.91446 0
M  V30 23674 H 2176.14 2.197 -3.24406 0
M  V30 23675 H 2177.84 1.91998 -3.52048 0
M  V30 23676 H 2174.43 0.675583 -4.23242 0
M  V30 23677 H 2178.61 0.0212698 -4.96295 0
M  V30 23678 H 2173.87 -0.881698 -6.05009 0
M  V30 23679 H 2178.04 -1.5314 -6.79353 0
M  V30 23680 H 2175.67 -1.98894 -7.3372 0
M  V30 23681 N 2177.24 1.55075 0.280956 0
M  V30 23682 C 2178.17 1.82323 1.37235 0
M  V30 23683 C 2179.15 0.675713 1.47895 0
M  V30 23684 O 2180.34 0.917856 1.64644 0
M  V30 23685 C 2177.46 1.97779 2.74957 0
M  V30 23686 C 2176.51 3.20299 2.81622 0
M  V30 23687 S 2177.34 4.77863 2.41675 0
M  V30 23688 C 2178.5 4.96281 3.81387 0
M  V30 23689 H 2178.73 2.74609 1.13917 0
M  V30 23690 H 2176.26 1.46744 0.480161 0
M  V30 23691 H 2178.22 2.07368 3.54272 0
M  V30 23692 H 2176.88 1.06395 2.95532 0
M  V30 23693 H 2176.08 3.27976 3.82685 0
M  V30 23694 H 2175.68 3.09259 2.1032 0
M  V30 23695 H 2177.97 4.81535 4.76582 0
M  V30 23696 H 2178.91 5.98345 3.78667 0
M  V30 23697 H 2179.32 4.24309 3.7232 0
M  V30 23698 N 2178.72 -0.545102 1.47873 0
M  V30 23699 C 2179.95 -1.32682 1.58755 0
M  V30 23700 C 2180.36 -1.8724 0.242172 0
M  V30 23701 O 2179.72 -1.65628 -0.766386 0
M  V30 23702 C 2179.77 -2.48828 2.62234 0
M  V30 23703 O 2179.49 -1.96522 3.91549 0
M  V30 23704 C 2180.99 -3.40869 2.83414 0
M  V30 23705 H 2178.21 -0.404033 0.535722 0
M  V30 23706 H 2180.76 -0.659132 1.93586 0
M  V30 23707 H 2178.91 -3.11511 2.30303 0
M  V30 23708 H 2179.33 -2.72436 4.48195 0
M  V30 23709 H 2180.8 -4.18751 3.59655 0
M  V30 23710 H 2181.28 -3.95166 1.91679 0
M  V30 23711 H 2181.88 -2.83991 3.1659 0
M  V30 23712 N 2180.2 -1.36208 -0.792797 0
M  V30 23713 C 2181.11 -1.32403 -1.93666 0
M  V30 23714 C 2182.12 -0.226736 -1.72516 0
M  V30 23715 O 2183.3 -0.458518 -1.96111 0
M  V30 23716 C 2180.36 -1.10928 -3.28475 0
M  V30 23717 C 2179.43 -2.301 -3.62426 0
M  V30 23718 C 2178.66 -2.0964 -4.90802 0
M  V30 23719 O 2178.88 -1.06985 -5.60277 0
M  V30 23720 O 2177.82 -2.97336 -5.23331 0
M  V30 23721 H 2181.64 -2.287 -1.99825 0
M  V30 23722 H 2179.23 -1.1672 -0.932566 0
M  V30 23723 H 2181.11 -1.00855 -4.09153 0
M  V30 23724 H 2179.78 -0.17691 -3.23216 0
M  V30 23725 H 2178.69 -2.45741 -2.82068 0
M  V30 23726 H 2180.02 -3.21832 -3.72405 0
M  V30 23727 N 2181.68 1.01656 -1.20431 0
M  V30 23728 C 2182.59 2.13658 -0.968877 0
M  V30 23729 C 2183.6 1.73837 0.075256 0
M  V30 23730 O 2184.78 2.01087 -0.112194 0
M  V30 23731 C 2181.84 3.42716 -0.524052 0
M  V30 23732 C 2180.9 3.9678 -1.63904 0
M  V30 23733 C 2180.14 5.19678 -1.21534 0
M  V30 23734 O 2180.36 5.70338 -0.0840508 0
M  V30 23735 O 2179.29 5.66893 -2.02278 0
M  V30 23736 H 2183.12 2.3639 -1.90666 0
M  V30 23737 H 2180.7 1.1205 -0.98819 0
M  V30 23738 H 2182.59 4.20434 -0.285221 0
M  V30 23739 H 2181.26 3.21401 0.385143 0
M  V30 23740 H 2180.17 3.20341 -1.93215 0
M  V30 23741 H 2181.5 4.22484 -2.52524 0
M  V30 23742 N 2183.15 1.01021 1.20965 0
M  V30 23743 C 2184.09 0.533213 2.22911 0
M  V30 23744 C 2185.1 -0.38098 1.58279 0
M  V30 23745 O 2186.29 -0.180348 1.77587 0
M  V30 23746 C 2183.39 -0.244499 3.38017 0
M  V30 23747 C 2182.56 0.670039 4.32237 0
M  V30 23748 C 2181.62 -0.0589738 5.26167 0
M  V30 23749 O 2180.65 0.561411 5.66425 0
M  V30 23750 N 2181.85 -1.33588 5.6492 0
M  V30 23751 H 2184.61 1.40992 2.64464 0
M  V30 23752 H 2182.17 0.886969 1.35442 0
M  V30 23753 H 2184.17 -0.74128 3.97853 0
M  V30 23754 H 2182.74 -1.02244 2.95406 0
M  V30 23755 H 2181.96 1.34723 3.70464 0
M  V30 23756 H 2183.24 1.29225 4.92116 0
M  V30 23757 H 2182.64 -1.86096 5.34214 0
M  V30 23758 H 2181.2 -1.77752 6.27095 0
M  V30 23759 N 2184.63 -1.36623 0.78561 0
M  V30 23760 C 2185.58 -2.30101 0.179493 0
M  V30 23761 C 2186.55 -1.51789 -0.674485 0
M  V30 23762 O 2187.73 -1.80309 -0.623959 0
M  V30 23763 C 2184.87 -3.38279 -0.682737 0
M  V30 23764 C 2183.99 -4.31585 0.189365 0
M  V30 23765 C 2183.12 -5.26844 -0.678879 0
M  V30 23766 C 2182.16 -6.1179 0.194912 0
M  V30 23767 N 2181.3 -6.99249 -0.632096 0
M  V30 23768 H 2186.14 -2.81351 0.98212 0
M  V30 23769 H 2183.67 -1.38489 0.495893 0
M  V30 23770 H 2185.63 -3.99642 -1.19759 0
M  V30 23771 H 2184.26 -2.88359 -1.45083 0
M  V30 23772 H 2183.31 -3.71409 0.822157 0
M  V30 23773 H 2184.63 -4.91281 0.862795 0
M  V30 23774 H 2183.78 -5.93478 -1.25969 0
M  V30 23775 H 2182.52 -4.67593 -1.38595 0
M  V30 23776 H 2181.52 -5.44121 0.788155 0
M  V30 23777 H 2182.75 -6.73116 0.899523 0
M  V30 23778 H 2180.7 -6.4251 -1.32353 0
M  V30 23779 H 2180.61 -7.55998 -0.0162646 0
M  V30 23780 H 2181.88 -7.70257 -1.19686 0
M  V30 23781 N 2186.11 -0.537304 -1.48158 0
M  V30 23782 C 2187.06 0.221446 -2.29735 0
M  V30 23783 C 2188.03 0.927005 -1.37825 0
M  V30 23784 O 2189.21 0.926601 -1.6679 0
M  V30 23785 C 2186.35 1.25789 -3.21358 0
M  V30 23786 C 2185.46 0.560427 -4.28349 0
M  V30 23787 C 2184.6 1.58043 -5.07145 0
M  V30 23788 C 2183.64 0.86684 -6.05931 0
M  V30 23789 N 2182.78 1.83273 -6.77758 0
M  V30 23790 H 2187.62 -0.480372 -2.94103 0
M  V30 23791 H 2185.15 -0.248729 -1.44982 0
M  V30 23792 H 2187.11 1.87117 -3.72885 0
M  V30 23793 H 2185.74 1.92799 -2.58898 0
M  V30 23794 H 2184.79 -0.166961 -3.80033 0
M  V30 23795 H 2186.1 0.000474239 -4.988 0
M  V30 23796 H 2185.26 2.2678 -5.62722 0
M  V30 23797 H 2184 2.17429 -4.3655 0
M  V30 23798 H 2183 0.165438 -5.49551 0
M  V30 23799 H 2184.23 0.278998 -6.78527 0
M  V30 23800 H 2182.17 2.41553 -6.09908 0
M  V30 23801 H 2182.09 1.32441 -7.44309 0
M  V30 23802 H 2183.36 2.51186 -7.3792 0
M  V30 23803 N 2187.59 1.55221 -0.272782 0
M  V30 23804 C 2188.82 2.03655 0.347573 0
M  V30 23805 C 2189.23 1.15066 1.50188 0
M  V30 23806 O 2188.57 0.162834 1.82977 0
M  V30 23807 C 2188.63 3.48231 0.893035 0
M  V30 23808 C 2188.3 4.56808 -0.132334 0
M  V30 23809 C 2189.29 5.11128 -0.951029 0
M  V30 23810 C 2186.98 5.01596 -0.2659 0
M  V30 23811 C 2188.97 6.0875 -1.8895 0
M  V30 23812 C 2186.66 5.99044 -1.20785 0
M  V30 23813 C 2187.66 6.52503 -2.01815 0
M  V30 23814 O 2187.34 7.48046 -2.94418 0
M  V30 23815 H 2187.08 0.670806 0.0836353 0
M  V30 23816 H 2189.63 2.01429 -0.401948 0
M  V30 23817 H 2187.86 3.4769 1.69258 0
M  V30 23818 H 2189.55 3.80018 1.42623 0
M  V30 23819 H 2190.32 4.7734 -0.858563 0
M  V30 23820 H 2186.19 4.59633 0.354797 0
M  V30 23821 H 2189.74 6.50401 -2.52238 0
M  V30 23822 H 2185.64 6.3225 -1.30114 0
M  V30 23823 H 2186.4 7.65754 -2.89073 0
M  V30 23824 N 2189.07 2.77022e-05 1.576 0
M  V30 23825 C 2190.3 -0.69479 1.94567 0
M  V30 23826 C 2190.7 -1.67836 0.873374 0
M  V30 23827 O 2190.05 -1.83034 -0.156298 0
M  V30 23828 C 2190.11 -1.48224 3.27521 0
M  V30 23829 C 2189.77 -0.660251 4.52205 0
M  V30 23830 C 2190.77 0.0520805 5.19874 0
M  V30 23831 C 2188.46 -0.606213 4.98628 0
M  V30 23832 C 2190.45 0.807435 6.32265 0
M  V30 23833 C 2188.14 0.152866 6.10909 0
M  V30 23834 C 2189.13 0.858424 6.77584 0
M  V30 23835 O 2188.82 1.60512 7.87713 0
M  V30 23836 H 2188.55 -0.198468 0.646209 0
M  V30 23837 H 2191.11 0.0472739 2.05346 0
M  V30 23838 H 2189.34 -2.26878 3.1315 0
M  V30 23839 H 2191.03 -2.0624 3.496 0
M  V30 23840 H 2191.79 0.0194852 4.84996 0
M  V30 23841 H 2187.67 -1.14492 4.46556 0
M  V30 23842 H 2191.22 1.35868 6.84241 0
M  V30 23843 H 2187.11 0.187282 6.45228 0
M  V30 23844 H 2187.88 1.52183 8.04228 0
M  V30 23845 N 2190.54 -1.55222 -0.272728 0
M  V30 23846 C 2191.49 -1.88912 -1.35702 0
M  V30 23847 C 2192.49 -0.765483 -1.51118 0
M  V30 23848 O 2193.69 -0.949829 -1.52899 0
M  V30 23849 H 2190.07 -0.599598 -0.453858 0
M  V30 23850 H 2192.04 -2.79489 -1.04539 0
M  V30 23851 C 2190.79 -2.17784 -2.71045 0
M  V30 23852 H 2190.11 -3.03733 -2.59974 0
M  V30 23853 H 2191.55 -2.45278 -3.45854 0
M  V30 23854 C 2190.01 -0.985529 -3.22163 0
M  V30 23855 O 2190.54 -0.220303 -4.01095 0
M  V30 23856 N 2188.75 -0.783157 -2.79848 0
M  V30 23857 H 2188.29 -1.40712 -2.15773 0
M  V30 23858 H 2188.25 0.012984 -3.14397 0
M  V30 23859 N 2192.02 0.537252 -1.4816 0
M  V30 23860 C 2192.99 1.62469 -1.61668 0
M  V30 23861 C 2193.99 1.53139 -0.490422 0
M  V30 23862 O 2195.18 1.56939 -0.756026 0
M  V30 23863 C 2192.31 3.02073 -1.58003 0
M  V30 23864 H 2193.5 1.51834 -2.58624 0
M  V30 23865 H 2191.05 0.758747 -1.36648 0
M  V30 23866 H 2191.79 3.18221 -0.624969 0
M  V30 23867 H 2191.57 3.10254 -2.3976 0
M  V30 23868 H 2193.06 3.81148 -1.70634 0
M  V30 23869 N 2193.5 1.36626 0.785562 0
M  V30 23870 C 2194.43 1.25628 1.90507 0
M  V30 23871 C 2195.41 0.139636 1.61999 0
M  V30 23872 O 2196.6 0.311443 1.85909 0
M  V30 23873 C 2193.72 0.939216 3.25417 0
M  V30 23874 C 2192.77 2.07084 3.72852 0
M  V30 23875 S 2193.6 3.68911 3.88156 0
M  V30 23876 C 2194.76 3.39326 5.25936 0
M  V30 23877 H 2194.99 2.20384 1.99545 0
M  V30 23878 H 2192.52 1.22087 0.945204 0
M  V30 23879 H 2194.48 0.7631 4.03345 0
M  V30 23880 H 2193.14 0.00936923 3.14099 0
M  V30 23881 H 2192.34 1.80365 4.70621 0
M  V30 23882 H 2191.94 2.20637 3.01986 0
M  V30 23883 H 2194.23 2.93458 6.10646 0
M  V30 23884 H 2195.17 4.36373 5.5766 0
M  V30 23885 H 2195.58 2.74582 4.93219 0
M  V30 23886 N 2194.98 -1.01016 1.20969 0
M  V30 23887 C 2195.93 -2.09689 0.964317 0
M  V30 23888 C 2196.9 -1.6575 -0.107824 0
M  V30 23889 O 2198.08 -1.90762 0.0382323 0
M  V30 23890 C 2195.22 -3.41014 0.52949 0
M  V30 23891 C 2194.33 -3.98395 1.6705 0
M  V30 23892 C 2193.47 -5.17806 1.18534 0
M  V30 23893 C 2192.51 -5.67284 2.29902 0
M  V30 23894 N 2191.64 -6.77951 1.82558 0
M  V30 23895 H 2196.48 -2.30013 1.89467 0
M  V30 23896 H 2194.02 -1.12788 0.944309 0
M  V30 23897 H 2195.98 -4.16397 0.258662 0
M  V30 23898 H 2194.61 -3.20743 -0.363862 0
M  V30 23899 H 2193.66 -3.20046 2.05609 0
M  V30 23900 H 2194.97 -4.31113 2.50885 0
M  V30 23901 H 2194.13 -6.00417 0.870867 0
M  V30 23902 H 2192.87 -4.86669 0.316973 0
M  V30 23903 H 2191.87 -4.83273 2.62158 0
M  V30 23904 H 2193.1 -6.00453 3.17226 0
M  V30 23905 H 2191.04 -6.4863 0.980568 0
M  V30 23906 H 2190.96 -7.09896 2.59969 0
M  V30 23907 H 2192.23 -7.6411 1.54129 0
M  V30 23908 N 2196.46 -1.01661 -1.20428 0
M  V30 23909 C 2197.4 -0.586861 -2.23214 0
M  V30 23910 C 2198.37 0.393056 -1.61382 0
M  V30 23911 O 2199.56 0.292492 -1.88545 0
M  V30 23912 C 2196.7 0.0686858 -3.45032 0
M  V30 23913 C 2195.81 -0.955798 -4.21294 0
M  V30 23914 C 2194.95 -0.271301 -5.30507 0
M  V30 23915 C 2193.99 -1.28254 -5.98513 0
M  V30 23916 N 2193.12 -0.624713 -6.99315 0
M  V30 23917 H 2197.96 -1.468 -2.59333 0
M  V30 23918 H 2195.5 -0.734859 -1.27429 0
M  V30 23919 H 2197.46 0.465892 -4.14591 0
M  V30 23920 H 2196.09 0.913474 -3.09605 0
M  V30 23921 H 2195.14 -1.47116 -3.508 0
M  V30 23922 H 2196.45 -1.72487 -4.68027 0
M  V30 23923 H 2195.61 0.181403 -6.06429 0
M  V30 23924 H 2194.34 0.530078 -4.84811 0
M  V30 23925 H 2193.35 -1.74563 -5.21352 0
M  V30 23926 H 2194.57 -2.0852 -6.46294 0
M  V30 23927 H 2192.52 0.156798 -6.55813 0
M  V30 23928 H 2192.44 -1.33185 -7.44176 0
M  V30 23929 H 2193.71 -0.195599 -7.79255 0
M  V30 23930 N 2197.93 1.36205 -0.792844 0
M  V30 23931 C 2198.86 2.32573 -0.207894 0
M  V30 23932 C 2199.85 1.56815 0.659028 0
M  V30 23933 O 2201.03 1.84952 0.592143 0
M  V30 23934 C 2198.16 3.4106 0.655389 0
M  V30 23935 C 2197.11 4.27854 -0.111917 0
M  V30 23936 C 2196.44 5.27539 0.872181 0
M  V30 23937 C 2197.74 5.05784 -1.30308 0
M  V30 23938 H 2199.43 2.81743 -1.01299 0
M  V30 23939 H 2196.98 1.35459 -0.488564 0
M  V30 23940 H 2198.93 4.07469 1.07457 0
M  V30 23941 H 2197.66 2.90466 1.49323 0
M  V30 23942 H 2196.32 3.63005 -0.512116 0
M  V30 23943 H 2195.96 4.73217 1.70514 0
M  V30 23944 H 2195.66 5.86477 0.363188 0
M  V30 23945 H 2197.19 5.96821 1.28986 0
M  V30 23946 H 2198.6 5.65214 -0.959478 0
M  V30 23947 H 2197 5.7415 -1.7456 0
M  V30 23948 H 2198.07 4.37226 -2.0967 0
M  V30 23949 N 2199.41 0.545154 1.47871 0
M  V30 23950 C 2200.66 0.0165886 2.02093 0
M  V30 23951 C 2200.98 -1.33317 1.42308 0
M  V30 23952 O 2200.25 -1.86681 0.593886 0
M  V30 23953 H 2198.83 0.00314351 0.746993 0
M  V30 23954 H 2201.49 0.712429 1.81412 0
M  V30 23955 H 2200.59 -0.0804873 3.11996 0
M  V30 23956 N 2200.89 -1.55074 0.28101 0
M  V30 23957 C 2202.12 -2.04592 -0.340118 0
M  V30 23958 C 2202.54 -1.15782 -1.48244 0
M  V30 23959 O 2201.9 -0.157642 -1.80613 0
M  V30 23960 C 2201.95 -3.51772 -0.793042 0
M  V30 23961 O 2201.05 -3.66037 -1.89975 0
M  V30 23962 H 2200.39 -0.660361 -0.0694173 0
M  V30 23963 H 2202.92 -2.00305 0.417028 0
M  V30 23964 H 2202.93 -3.93247 -1.08722 0
M  V30 23965 H 2201.61 -4.15878 0.0426894 0
M  V30 23966 H 2200.18 -3.36465 -1.60765 0
M  V30 23967 N 2202.37 -0.00838561 -1.57598 0
M  V30 23968 C 2203.32 0.980309 -2.08946 0
M  V30 23969 C 2204.29 1.33612 -0.986761 0
M  V30 23970 O 2205.47 1.43304 -1.25971 0
M  V30 23971 C 2202.61 2.2643 -2.60429 0
M  V30 23972 C 2201.72 1.96678 -3.84632 0
M  V30 23973 C 2200.86 3.1922 -4.24584 0
M  V30 23974 C 2199.9 2.85192 -5.41601 0
M  V30 23975 N 2199.04 4.00297 -5.76807 0
M  V30 23976 H 2203.88 0.535499 -2.93149 0
M  V30 23977 H 2201.41 0.252751 -1.44912 0
M  V30 23978 H 2203.37 3.01504 -2.88359 0
M  V30 23979 H 2202 2.68565 -1.79088 0
M  V30 23980 H 2201.05 1.11936 -3.63558 0
M  V30 23981 H 2202.36 1.67603 -4.69799 0
M  V30 23982 H 2201.52 4.02633 -4.53841 0
M  V30 23983 H 2200.26 3.51441 -3.38143 0
M  V30 23984 H 2199.26 2.00189 -5.12059 0
M  V30 23985 H 2200.49 2.54211 -6.29725 0
M  V30 23986 H 2198.43 4.32398 -4.93323 0
M  V30 23987 H 2198.35 3.74774 -6.56567 0
M  V30 23988 H 2199.62 4.84473 -6.1066 0
M  V30 23989 N 2203.85 1.55365 0.264492 0
M  V30 23990 C 2204.79 1.88827 1.32714 0
M  V30 23991 C 2205.76 0.740631 1.48674 0
M  V30 23992 O 2206.95 0.992686 1.62943 0
M  V30 23993 C 2204.09 2.17311 2.68086 0
M  V30 23994 C 2203.2 3.44789 2.60278 0
M  V30 23995 C 2202.34 3.6293 3.87885 0
M  V30 23996 C 2201.38 4.84071 3.74623 0
M  V30 23997 N 2200.51 4.98825 4.94083 0
M  V30 23998 H 2205.35 2.79458 1.03477 0
M  V30 23999 H 2202.89 1.38351 0.499733 0
M  V30 24000 H 2204.85 2.31827 3.4686 0
M  V30 24001 H 2203.48 1.29906 2.95507 0
M  V30 24002 H 2202.53 3.387 1.73167 0
M  V30 24003 H 2203.84 4.33703 2.46381 0
M  V30 24004 H 2203 3.7731 4.75102 0
M  V30 24005 H 2201.74 2.72217 4.04659 0
M  V30 24006 H 2200.74 4.69686 2.85789 0
M  V30 24007 H 2201.97 5.76227 3.5936 0
M  V30 24008 H 2199.91 4.11045 5.11252 0
M  V30 24009 H 2199.83 5.81798 4.8275 0
M  V30 24010 H 2201.1 5.17598 5.82848 0
M  V30 24011 N 2205.33 -0.529387 1.48443 0
M  V30 24012 C 2206.74 -1.11132 1.50022 0
M  V30 24013 C 2207.09 -1.94329 0.270344 0
M  V30 24014 O 2206.21 -2.07254 -0.62247 0
M  V30 24015 C 2206.81 -2.02212 2.71838 0
M  V30 24016 C 2205.37 -2.55622 2.76287 0
M  V30 24017 C 2204.51 -1.32596 2.43544 0
M  V30 24018 H 2207.46 -0.314614 1.5555 0
M  V30 24019 H 2207.49 -2.86506 2.50389 0
M  V30 24020 H 2207 -1.41633 3.61333 0
M  V30 24021 H 2205.1 -3.19921 1.91001 0
M  V30 24022 H 2205.21 -2.94715 3.7773 0
M  V30 24023 H 2203.58 -1.64193 1.94712 0
M  V30 24024 H 2204.36 -0.737675 3.35281 0
M  V30 24025 N 2206.8 -1.37041 -0.778305 0
M  V30 24026 C 2207.74 -1.28143 -1.90032 0
M  V30 24027 C 2208.75 -0.198586 -1.61584 0
M  V30 24028 O 2209.94 -0.454206 -1.72625 0
M  V30 24029 C 2207.04 -0.957025 -3.25107 0
M  V30 24030 C 2206.21 -2.14401 -3.81249 0
M  V30 24031 C 2205.27 -1.79091 -4.94786 0
M  V30 24032 O 2204.3 -2.5131 -5.10717 0
M  V30 24033 N 2205.5 -0.731144 -5.75877 0
M  V30 24034 H 2208.26 -2.24819 -1.98183 0
M  V30 24035 H 2205.82 -1.3058 -0.957106 0
M  V30 24036 H 2207.82 -0.701771 -3.98569 0
M  V30 24037 H 2206.39 -0.0790361 -3.125 0
M  V30 24038 H 2205.61 -2.56141 -2.99642 0
M  V30 24039 H 2206.89 -2.93675 -4.1549 0
M  V30 24040 H 2206.29 -0.131718 -5.65547 0
M  V30 24041 H 2204.85 -0.535736 -6.49595 0
M  V30 24042 N 2208.28 1.00373 -1.21503 0
M  V30 24043 C 2209.23 2.09175 -0.975424 0
M  V30 24044 C 2210.2 1.65805 0.0990324 0
M  V30 24045 O 2211.38 1.90739 -0.0483483 0
M  V30 24046 C 2208.52 3.40728 -0.547567 0
M  V30 24047 C 2207.64 3.97503 -1.6916 0
M  V30 24048 C 2206.77 5.1717 -1.21279 0
M  V30 24049 C 2205.81 5.66057 -2.32907 0
M  V30 24050 N 2204.95 6.76973 -1.8615 0
M  V30 24051 H 2209.79 2.29005 -1.90684 0
M  V30 24052 H 2207.32 1.12286 -0.950277 0
M  V30 24053 H 2209.28 4.16254 -0.280741 0
M  V30 24054 H 2207.91 3.20931 0.346848 0
M  V30 24055 H 2206.96 3.18951 -2.07303 0
M  V30 24056 H 2208.28 4.29776 -2.53167 0
M  V30 24057 H 2207.43 5.99947 -0.902697 0
M  V30 24058 H 2206.17 4.86494 -0.342777 0
M  V30 24059 H 2205.17 4.81876 -2.64718 0
M  V30 24060 H 2206.4 5.98763 -3.20406 0
M  V30 24061 H 2204.35 6.48101 -1.01495 0
M  V30 24062 H 2204.26 7.08507 -2.6373 0
M  V30 24063 H 2205.53 7.63282 -1.58179 0
M  V30 24064 N 2209.76 1.02298 1.19887 0
M  V30 24065 C 2211.17 0.746598 1.71122 0
M  V30 24066 C 2211.52 -0.734303 1.81941 0
M  V30 24067 O 2210.65 -1.57272 1.48642 0
M  V30 24068 C 2211.24 1.34862 3.10802 0
M  V30 24069 C 2209.8 1.12096 3.59321 0
M  V30 24070 C 2208.95 1.45035 2.36347 0
M  V30 24071 H 2211.9 1.19165 1.04811 0
M  V30 24072 H 2211.92 0.742503 3.73185 0
M  V30 24073 H 2211.43 2.42643 3.02896 0
M  V30 24074 H 2209.53 0.0610992 3.7255 0
M  V30 24075 H 2209.65 1.80551 4.43777 0
M  V30 24076 H 2208.01 0.869529 2.39398 0
M  V30 24077 H 2208.79 2.53887 2.31076 0
M  V30 24078 N 2211.24 -1.35782 0.800057 0
M  V30 24079 C 2212.49 -1.98204 0.373905 0
M  V30 24080 C 2212.8 -1.64194 -1.06299 0
M  V30 24081 O 2214.01 -2.19931 -1.59194 0
M  V30 24082 C 2212.46 -3.54561 0.617594 0
M  V30 24083 C 2212.07 -3.97486 2.06661 0
M  V30 24084 C 2213.81 -4.23725 0.256476 0
M  V30 24085 C 2211.72 -5.46663 2.25639 0
M  V30 24086 H 2210.65 -0.741621 0.136068 0
M  V30 24087 H 2213.3 -1.54937 0.983193 0
M  V30 24088 H 2211.68 -3.95952 -0.0615552 0
M  V30 24089 H 2212.86 -3.67266 2.78303 0
M  V30 24090 H 2211.17 -3.41193 2.38697 0
M  V30 24091 H 2213.77 -5.33373 0.376412 0
M  V30 24092 H 2214.11 -4.08607 -0.796621 0
M  V30 24093 H 2214.65 -3.87733 0.889282 0
M  V30 24094 H 2211.38 -5.66741 3.2937 0
M  V30 24095 H 2210.9 -5.78475 1.58514 0
M  V30 24096 H 2212.58 -6.13036 2.06872 0
M  V30 24097 N 2212.72 -0.552988 -1.4758 0
M  V30 24098 C 2214.13 -0.118496 -1.86324 0
M  V30 24099 C 2214.48 1.31057 -1.46008 0
M  V30 24100 O 2213.6 1.98525 -0.861217 0
M  V30 24101 C 2214.2 -0.208269 -3.38159 0
M  V30 24102 C 2212.76 0.17116 -3.76011 0
M  V30 24103 C 2211.9 -0.557734 -2.71633 0
M  V30 24104 H 2214.85 -0.762953 -1.39157 0
M  V30 24105 H 2214.88 0.574212 -3.76142 0
M  V30 24106 H 2214.39 -1.24847 -3.67471 0
M  V30 24107 H 2212.49 1.21263 -3.52315 0
M  V30 24108 H 2212.6 -0.184463 -4.78745 0
M  V30 24109 H 2210.97 -0.00130269 -2.547 0
M  V30 24110 H 2211.75 -1.59901 -3.03787 0
M  V30 24111 N 2214.19 1.54923 -0.28923 0
M  V30 24112 C 2215.61 1.5947 0.0645122 0
M  V30 24113 C 2215.81 1.30635 1.53417 0
M  V30 24114 O 2214.87 1.07404 2.28518 0
M  V30 24115 C 2216.18 2.98962 -0.322833 0
M  V30 24116 C 2217.73 3.11828 -0.270619 0
M  V30 24117 C 2218.2 4.5361 -0.632611 0
M  V30 24118 N 2219.69 4.59495 -0.584698 0
M  V30 24119 C 2220.43 5.67252 -0.837414 0
M  V30 24120 N 2219.92 6.83096 -1.15548 0
M  V30 24121 N 2221.72 5.56866 -0.765264 0
M  V30 24122 H 2213.87 1.71929 -1.24717 0
M  V30 24123 H 2216.13 0.802407 -0.504823 0
M  V30 24124 H 2215.84 3.24946 -1.34547 0
M  V30 24125 H 2215.71 3.75759 0.329374 0
M  V30 24126 H 2218.1 2.856 0.742755 0
M  V30 24127 H 2218.18 2.37212 -0.957284 0
M  V30 24128 H 2217.82 4.80566 -1.64374 0
M  V30 24129 H 2217.75 5.26545 0.0759974 0
M  V30 24130 H 2220.24 3.76282 -0.349314 0
M  V30 24131 H 2220.56 7.61189 -1.33461 0
M  V30 24132 H 2218.9 6.84677 -1.1934 0
M  V30 24133 H 2222.09 4.65242 -0.516514 0
M  V30 24134 H 2222.27 6.40765 -0.96559 0
M  V30 24135 N 2215.67 0.0167433 1.57591 0
M  V30 24136 C 2217.08 -0.523803 1.79202 0
M  V30 24137 C 2217.43 -1.72982 0.925826 0
M  V30 24138 O 2216.56 -2.15992 0.13283 0
M  V30 24139 C 2217.15 -0.957034 3.25002 0
M  V30 24140 C 2215.71 -1.44277 3.47651 0
M  V30 24141 C 2214.86 -0.401709 2.74375 0
M  V30 24142 H 2217.81 0.242844 1.56831 0
M  V30 24143 H 2217.83 -1.82213 3.34034 0
M  V30 24144 H 2217.34 -0.0790733 3.88019 0
M  V30 24145 H 2215.44 -2.34107 2.8987 0
M  V30 24146 H 2215.56 -1.45869 4.56354 0
M  V30 24147 H 2213.92 -0.867079 2.39487 0
M  V30 24148 H 2214.7 0.467573 3.40101 0
M  V30 24149 N 2217.15 -1.55503 -0.256249 0
M  V30 24150 C 2218.4 -1.76547 -0.983641 0
M  V30 24151 C 2218.72 -0.579015 -1.86205 0
M  V30 24152 O 2217.99 0.405543 -1.91656 0
M  V30 24153 H 2216.57 -0.651093 -0.36618 0
M  V30 24154 H 2219.23 -1.92929 -0.276445 0
M  V30 24155 H 2218.33 -2.67318 -1.61082 0
M  V30 24156 N 2218.63 0.521507 -1.48721 0
M  V30 24157 C 2219.58 1.64615 -1.64331 0
M  V30 24158 C 2220.57 1.61555 -0.509558 0
M  V30 24159 O 2221.78 1.6631 -0.688554 0
M  V30 24160 H 2218.15 0.545319 -0.517814 0
M  V30 24161 H 2220.12 1.48596 -2.5877 0
M  V30 24162 C 2218.87 3.02852 -1.7081 0
M  V30 24163 H 2218.19 3.05904 -2.57415 0
M  V30 24164 H 2219.63 3.81136 -1.85773 0
M  V30 24165 C 2218.09 3.33901 -0.448537 0
M  V30 24166 O 2218.62 3.99339 0.434858 0
M  V30 24167 N 2216.83 2.88859 -0.317667 0
M  V30 24168 H 2216.38 2.35782 -1.03752 0
M  V30 24169 H 2216.33 3.10002 0.524058 0
M  V30 24170 N 2220.11 1.37452 0.771027 0
M  V30 24171 C 2221.05 1.33273 1.88433 0
M  V30 24172 C 2222.02 0.198165 1.64914 0
M  V30 24173 O 2223.21 0.387639 1.86821 0
M  V30 24174 C 2220.35 1.14627 3.25507 0
M  V30 24175 C 2219.46 2.3732 3.60975 0
M  V30 24176 C 2218.6 2.11541 4.87261 0
M  V30 24177 C 2217.64 3.30097 5.15463 0
M  V30 24178 N 2216.77 3.03864 6.32938 0
M  V30 24179 H 2221.61 2.28458 1.9134 0
M  V30 24180 H 2219.15 1.13525 0.935446 0
M  V30 24181 H 2221.11 1.01838 4.0458 0
M  V30 24182 H 2219.74 0.230893 3.21973 0
M  V30 24183 H 2218.79 2.60847 2.76881 0
M  V30 24184 H 2220.1 3.25736 3.77754 0
M  V30 24185 H 2219.26 1.95787 5.74241 0
M  V30 24186 H 2217.99 1.20465 4.72588 0
M  V30 24187 H 2217 3.46389 4.26959 0
M  V30 24188 H 2218.22 4.22025 5.32045 0
M  V30 24189 H 2216.17 2.15418 6.19622 0
M  V30 24190 H 2216.09 3.85823 6.50136 0
M  V30 24191 H 2217.36 2.91729 7.22852 0
M  V30 24192 N 2221.58 -0.997276 1.22033 0
M  V30 24193 C 2222.83 -1.73037 1.0364 0
M  V30 24194 C 2223.15 -1.90828 -0.429442 0
M  V30 24195 O 2224.35 -2.61419 -0.732949 0
M  V30 24196 C 2222.81 -3.11314 1.80588 0
M  V30 24197 C 2222.42 -3.01469 3.31392 0
M  V30 24198 C 2224.16 -3.88698 1.70628 0
M  V30 24199 C 2222.07 -4.34873 4.00798 0
M  V30 24200 H 2221 -0.648779 0.38419 0
M  V30 24201 H 2223.65 -1.11366 1.45842 0
M  V30 24202 H 2222.03 -3.73641 1.31182 0
M  V30 24203 H 2223.2 -2.48333 3.88159 0
M  V30 24204 H 2221.52 -2.37569 3.4198 0
M  V30 24205 H 2224.12 -4.87431 2.19808 0
M  V30 24206 H 2224.46 -4.1094 0.665895 0
M  V30 24207 H 2224.99 -3.3304 2.17553 0
M  V30 24208 H 2221.73 -4.17832 5.05071 0
M  V30 24209 H 2221.25 -4.87939 3.4882 0
M  V30 24210 H 2222.93 -5.0364 4.06147 0
M  V30 24211 N 2223.06 -1.02932 -1.19343 0
M  V30 24212 C 2223.99 -0.568609 -2.22035 0
M  V30 24213 C 2225.01 0.355751 -1.58866 0
M  V30 24214 O 2226.2 0.152072 -1.77851 0
M  V30 24215 C 2223.3 0.190693 -3.38363 0
M  V30 24216 C 2222.47 -0.738719 -4.31117 0
M  V30 24217 C 2221.53 -0.0247422 -5.26194 0
M  V30 24218 O 2220.55 -0.651454 -5.6546 0
M  V30 24219 N 2221.76 1.24584 -5.66974 0
M  V30 24220 H 2224.52 -1.45181 -2.62188 0
M  V30 24221 H 2222.08 -0.908405 -1.34013 0
M  V30 24222 H 2224.07 0.677891 -3.98982 0
M  V30 24223 H 2222.64 0.975314 -2.96996 0
M  V30 24224 H 2221.86 -1.406 -3.68273 0
M  V30 24225 H 2223.15 -1.37037 -4.89998 0
M  V30 24226 H 2222.55 1.77573 -5.37107 0
M  V30 24227 H 2221.11 1.67753 -6.29843 0
M  V30 24228 N 2224.54 1.35356 -0.807246 0
M  V30 24229 C 2225.79 1.98357 -0.387157 0
M  V30 24230 C 2226.11 1.64355 1.04939 0
M  V30 24231 O 2225.38 0.926369 1.72613 0
M  V30 24232 H 2223.96 0.733732 -0.140167 0
M  V30 24233 H 2226.62 1.65258 -1.03323 0
M  V30 24234 H 2225.72 3.08175 -0.493406 0
M  V30 24235 N 2226.02 0.560807 1.47284 0
M  V30 24236 C 2227.26 0.0404987 2.0436 0
M  V30 24237 C 2227.62 -1.28637 1.42536 0
M  V30 24238 O 2228.82 -1.89459 1.9068 0
M  V30 24239 C 2227.09 -0.0471228 3.57369 0
M  V30 24240 S 2228.65 -0.513033 4.35791 0
M  V30 24241 H 2225.47 0.0268799 0.710492 0
M  V30 24242 H 2228.07 0.748355 1.8061 0
M  V30 24243 H 2226.78 0.922887 3.99889 0
M  V30 24244 H 2226.31 -0.778424 3.85622 0
M  V30 24245 H 2228.32 -1.77204 4.63479 0
M  V30 24246 N 2227.5 -1.54768 0.297442 0
M  V30 24247 C 2228.75 -1.99247 -0.313634 0
M  V30 24248 C 2229.06 -1.18945 -1.55279 0
M  V30 24249 O 2230.26 -1.53674 -2.23823 0
M  V30 24250 C 2228.72 -3.54704 -0.609345 0
M  V30 24251 C 2228.33 -4.4381 0.61127 0
M  V30 24252 C 2230.07 -4.07717 -1.18181 0
M  V30 24253 C 2227.98 -5.90694 0.288908 0
M  V30 24254 H 2226.91 -0.744233 -0.120966 0
M  V30 24255 H 2229.56 -1.78961 0.405591 0
M  V30 24256 H 2227.94 -3.70876 -1.38807 0
M  V30 24257 H 2229.12 -4.39412 1.38758 0
M  V30 24258 H 2227.43 -4.0155 1.10212 0
M  V30 24259 H 2230.03 -5.15023 -1.43718 0
M  V30 24260 H 2230.37 -3.58102 -2.12293 0
M  V30 24261 H 2230.9 -3.95074 -0.464874 0
M  V30 24262 H 2227.64 -6.4445 1.19849 0
M  V30 24263 H 2227.16 -5.98108 -0.4502 0
M  V30 24264 H 2228.84 -6.46905 -0.110819 0
M  V30 24265 N 2228.97 -0.0251005 -1.5758 0
M  V30 24266 C 2230.22 0.65441 -1.91634 0
M  V30 24267 C 2230.55 1.72365 -0.901133 0
M  V30 24268 O 2229.8 1.9549 0.0905304 0
M  V30 24269 C 2230.1 1.31262 -3.32423 0
M  V30 24270 C 2229.77 0.374144 -4.49345 0
M  V30 24271 C 2228.43 0.115826 -4.81061 0
M  V30 24272 C 2230.78 -0.270524 -5.20497 0
M  V30 24273 C 2228.11 -0.795032 -5.81288 0
M  V30 24274 C 2230.46 -1.16941 -6.21697 0
M  V30 24275 C 2229.13 -1.43666 -6.51856 0
M  V30 24276 H 2228.4 0.239466 -0.70124 0
M  V30 24277 H 2231.04 -0.086007 -1.91307 0
M  V30 24278 H 2229.35 2.12769 -3.28993 0
M  V30 24279 H 2231.05 1.84488 -3.56041 0
M  V30 24280 H 2227.64 0.585655 -4.2458 0
M  V30 24281 H 2231.82 -0.0840066 -4.96229 0
M  V30 24282 H 2227.08 -1.00983 -6.03003 0
M  V30 24283 H 2231.25 -1.67516 -6.75952 0
M  V30 24284 H 2228.88 -2.14412 -7.29336 0
M  V30 24285 N 2230.45 1.55637 0.247999 0
M  V30 24286 C 2231.73 1.68167 0.998959 0
M  V30 24287 C 2232.11 0.564657 2.03408 0
M  V30 24288 O 2231.46 -0.432036 2.24378 0
M  V30 24289 C 2231.67 3.08423 1.63329 0
M  V30 24290 C 2233.02 3.66987 2.13555 0
M  V30 24291 O 2234.04 3.11216 1.73272 0
M  V30 24292 O 2232.9 4.64754 2.87517 0
M  V30 24293 H 2229.99 0.683943 0.464921 0
M  V30 24294 H 2232.54 1.67967 0.241872 0
M  V30 24295 H 2231.31 3.81172 0.884516 0
M  V30 24296 H 2230.93 3.12629 2.45661 0
M  V30 24297 N 2231.93 -0.513613 1.48996 0
M  V30 24298 C 2232.86 -1.62541 1.67639 0
M  V30 24299 C 2233.84 -1.61792 0.525116 0
M  V30 24300 O 2235.03 -1.78731 0.759534 0
M  V30 24301 C 2232.16 -3.01076 1.7312 0
M  V30 24302 C 2231.11 -3.16688 2.87911 0
M  V30 24303 C 2230.44 -4.56448 2.78494 0
M  V30 24304 C 2231.74 -2.97906 4.2901 0
M  V30 24305 H 2233.43 -1.47194 2.60719 0
M  V30 24306 H 2230.98 -0.706692 1.25467 0
M  V30 24307 H 2232.93 -3.78742 1.84749 0
M  V30 24308 H 2231.65 -3.17483 0.766297 0
M  V30 24309 H 2230.31 -2.41444 2.75863 0
M  V30 24310 H 2229.96 -4.69714 1.79938 0
M  V30 24311 H 2229.66 -4.67837 3.55531 0
M  V30 24312 H 2231.19 -5.36192 2.92113 0
M  V30 24313 H 2232.6 -3.65351 4.41805 0
M  V30 24314 H 2231 -3.20776 5.07172 0
M  V30 24315 H 2232.07 -1.94157 4.44332 0
M  V30 24316 N 2233.41 -1.37859 -0.763727 0
M  V30 24317 C 2234.66 -1.33707 -1.52481 0
M  V30 24318 C 2234.99 0.075927 -1.94052 0
M  V30 24319 O 2234.26 1.03498 -1.64677 0
M  V30 24320 C 2234.55 -2.28353 -2.78437 0
M  V30 24321 C 2234.4 -3.78468 -2.43069 0
M  V30 24322 C 2235.72 -2.21304 -3.80411 0
M  V30 24323 H 2232.84 -0.487014 -0.55316 0
M  V30 24324 H 2235.48 -1.68625 -0.875532 0
M  V30 24325 H 2233.63 -1.98705 -3.33839 0
M  V30 24326 H 2235.3 -4.18746 -1.93519 0
M  V30 24327 H 2233.54 -3.96644 -1.75659 0
M  V30 24328 H 2234.22 -4.40138 -3.33141 0
M  V30 24329 H 2236.69 -2.47455 -3.34523 0
M  V30 24330 H 2235.57 -2.89656 -4.66252 0
M  V30 24331 H 2235.83 -1.20856 -4.2526 0
M  V30 24332 N 2234.89 0.990791 -1.22561 0
M  V30 24333 C 2236.12 1.76609 -1.07782 0
M  V30 24334 C 2236.53 1.85109 0.371481 0
M  V30 24335 O 2235.89 1.32276 1.25735 0
M  V30 24336 C 2235.94 3.19819 -1.68518 0
M  V30 24337 O 2235.66 3.11775 -3.07779 0
M  V30 24338 C 2237.16 4.13788 -1.59042 0
M  V30 24339 H 2234.38 0.554576 -0.377738 0
M  V30 24340 H 2236.92 1.24548 -1.62197 0
M  V30 24341 H 2235.08 3.6894 -1.18161 0
M  V30 24342 H 2235.49 4.01852 -3.37069 0
M  V30 24343 H 2236.97 5.12017 -2.06259 0
M  V30 24344 H 2237.44 4.35776 -0.547349 0
M  V30 24345 H 2238.05 3.70564 -2.08715 0
M  V30 24346 N 2236.37 1.03564 1.18795 0
M  V30 24347 C 2237.31 0.615945 2.24296 0
M  V30 24348 C 2238.31 -0.354779 1.65643 0
M  V30 24349 O 2239.51 -0.222619 1.78618 0
M  V30 24350 H 2235.89 0.180947 0.729906 0
M  V30 24351 H 2237.86 1.51624 2.57007 0
M  V30 24352 C 2236.61 -0.0104124 3.47698 0
M  V30 24353 H 2235.93 0.727578 3.93124 0
M  V30 24354 H 2237.37 -0.266921 4.23159 0
M  V30 24355 C 2235.83 -1.25899 3.12491 0
M  V30 24356 O 2236.36 -2.35032 3.25765 0
M  V30 24357 N 2234.57 -1.15034 2.66862 0
M  V30 24358 H 2234.11 -0.262283 2.56261 0
M  V30 24359 H 2234.07 -1.98668 2.43677 0
M  V30 24360 N 2237.84 -1.34926 0.814413 0
M  V30 24361 C 2238.78 -2.28429 0.187874 0
M  V30 24362 C 2239.79 -1.50641 -0.617348 0
M  V30 24363 O 2240.98 -1.72776 -0.448424 0
M  V30 24364 C 2238.08 -3.30362 -0.755904 0
M  V30 24365 C 2237.25 -4.374 0.00464374 0
M  V30 24366 C 2236.31 -5.19145 -0.858785 0
M  V30 24367 O 2235.34 -5.68372 -0.306868 0
M  V30 24368 N 2236.54 -5.3802 -2.17979 0
M  V30 24369 H 2239.3 -2.82836 0.991154 0
M  V30 24370 H 2236.86 -1.47359 0.670587 0
M  V30 24371 H 2238.86 -3.81944 -1.33793 0
M  V30 24372 H 2237.43 -2.76413 -1.45996 0
M  V30 24373 H 2236.65 -3.86648 0.767933 0
M  V30 24374 H 2237.93 -5.06048 0.528511 0
M  V30 24375 H 2237.33 -4.99684 -2.65203 0
M  V30 24376 H 2235.89 -5.92752 -2.71087 0
M  V30 24377 N 2239.32 -0.56861 -1.46985 0
M  V30 24378 C 2240.28 0.162326 -2.28624 0
M  V30 24379 C 2241.28 0.832078 -1.37598 0
M  V30 24380 O 2242.47 0.686192 -1.60116 0
M  V30 24381 C 2239.61 1.23873 -3.17598 0
M  V30 24382 H 2240.8 -0.554951 -2.94721 0
M  V30 24383 H 2238.35 -0.326003 -1.52862 0
M  V30 24384 H 2239.09 1.98804 -2.56218 0
M  V30 24385 H 2238.87 0.763151 -3.84602 0
M  V30 24386 H 2240.36 1.75178 -3.79081 0
M  V30 24387 N 2240.8 1.54608 -0.305646 0
M  V30 24388 C 2242.05 2.00231 0.302263 0
M  V30 24389 C 2242.37 1.194 1.53538 0
M  V30 24390 O 2241.63 0.259457 1.93972 0
M  V30 24391 C 2241.93 3.50499 0.698922 0
M  V30 24392 C 2241.59 4.48816 -0.432982 0
M  V30 24393 C 2240.26 4.75418 -0.743706 0
M  V30 24394 C 2242.61 5.07335 -1.19418 0
M  V30 24395 C 2239.94 5.57801 -1.81867 0
M  V30 24396 C 2242.29 5.90887 -2.25909 0
M  V30 24397 C 2240.95 6.15798 -2.57583 0
M  V30 24398 H 2240.22 0.732699 0.110606 0
M  V30 24399 H 2242.87 1.86708 -0.425707 0
M  V30 24400 H 2241.17 3.61656 1.50705 0
M  V30 24401 H 2242.87 3.83229 1.18054 0
M  V30 24402 H 2239.46 4.28219 -0.180706 0
M  V30 24403 H 2243.65 4.86781 -0.96738 0
M  V30 24404 H 2238.9 5.75337 -2.06874 0
M  V30 24405 H 2243.08 6.35256 -2.85346 0
M  V30 24406 H 2240.7 6.79424 -3.41009 0
M  V30 24407 N 2242.28 0.033457 1.57564 0
M  V30 24408 C 2243.55 -0.683131 1.83283 0
M  V30 24409 C 2243.93 -1.90082 0.918264 0
M  V30 24410 O 2243.28 -2.28486 -0.0250729 0
M  V30 24411 C 2243.49 -1.05724 3.32601 0
M  V30 24412 C 2244.84 -1.44704 3.99181 0
M  V30 24413 O 2245.86 -1.15009 3.37122 0
M  V30 24414 O 2244.72 -2.00051 5.08569 0
M  V30 24415 H 2241.82 -0.335533 0.755875 0
M  V30 24416 H 2244.36 0.06147 1.69589 0
M  V30 24417 H 2243.14 -0.190759 3.90835 0
M  V30 24418 H 2242.76 -1.85987 3.51418 0
M  V30 24419 N 2243.76 -1.55766 -0.239741 0
M  V30 24420 C 2245 -1.77133 -0.964722 0
M  V30 24421 C 2245.32 -0.598712 -1.86212 0
M  V30 24422 O 2246.52 -0.695568 -2.62439 0
M  V30 24423 C 2244.98 -3.13623 -1.76547 0
M  V30 24424 C 2244.59 -4.38554 -0.915108 0
M  V30 24425 C 2246.33 -3.44325 -2.48275 0
M  V30 24426 C 2244.24 -5.66074 -1.71215 0
M  V30 24427 H 2243.17 -0.66035 -0.363941 0
M  V30 24428 H 2245.82 -1.82187 -0.219149 0
M  V30 24429 H 2244.2 -3.02696 -2.55326 0
M  V30 24430 H 2245.38 -4.60489 -0.169136 0
M  V30 24431 H 2243.69 -4.15238 -0.310816 0
M  V30 24432 H 2246.29 -4.36817 -3.08374 0
M  V30 24433 H 2246.63 -2.65979 -3.20251 0
M  V30 24434 H 2247.16 -3.565 -1.765 0
M  V30 24435 H 2243.9 -6.47261 -1.036 0
M  V30 24436 H 2243.42 -5.48229 -2.43322 0
M  V30 24437 H 2245.1 -6.05591 -2.27748 0
M  V30 24438 N 2245.23 0.505704 -1.49266 0
M  V30 24439 C 2246.46 1.28899 -1.6248 0
M  V30 24440 C 2246.88 1.85782 -0.294365 0
M  V30 24441 O 2246.24 1.65627 0.737383 0
M  V30 24442 C 2246.29 2.39843 -2.69273 0
M  V30 24443 O 2245.39 3.43563 -2.28119 0
M  V30 24444 H 2244.73 0.380741 -0.543996 0
M  V30 24445 H 2247.26 0.605918 -1.95422 0
M  V30 24446 H 2247.27 2.85676 -2.91296 0
M  V30 24447 H 2245.95 1.97806 -3.65849 0
M  V30 24448 H 2244.53 3.03682 -2.16407 0
M  V30 24449 N 2246.71 1.38262 0.756405 0
M  V30 24450 C 2247.96 1.33633 1.5108 0
M  V30 24451 C 2248.27 -0.0719725 1.95468 0
M  V30 24452 O 2249.48 -0.240786 2.7043 0
M  V30 24453 C 2247.94 2.34648 2.72888 0
M  V30 24454 C 2247.54 3.81085 2.35537 0
M  V30 24455 C 2249.29 2.39058 3.50787 0
M  V30 24456 C 2247.2 4.73794 3.5394 0
M  V30 24457 H 2246.13 0.49672 0.567261 0
M  V30 24458 H 2248.78 1.63802 0.827118 0
M  V30 24459 H 2247.16 1.97519 3.43223 0
M  V30 24460 H 2248.33 4.27138 1.72887 0
M  V30 24461 H 2246.65 3.79767 1.7078 0
M  V30 24462 H 2249.24 3.05521 4.38818 0
M  V30 24463 H 2249.59 1.40868 3.91742 0
M  V30 24464 H 2250.12 2.74973 2.87462 0
M  V30 24465 H 2246.86 5.73169 3.18053 0
M  V30 24466 H 2246.38 4.32436 4.15643 0
M  V30 24467 H 2248.06 4.91671 4.20558 0
M  V30 24468 N 2248.19 -0.984277 1.23084 0
M  V30 24469 C 2249.12 -2.07402 0.951822 0
M  V30 24470 C 2250.1 -1.62238 -0.108451 0
M  V30 24471 O 2251.29 -1.88483 0.0249798 0
M  V30 24472 C 2248.41 -3.35918 0.433201 0
M  V30 24473 C 2247.46 -4.00017 1.47948 0
M  V30 24474 S 2248.29 -4.39763 3.05563 0
M  V30 24475 C 2249.45 -5.71438 2.55361 0
M  V30 24476 H 2249.68 -2.30751 1.8746 0
M  V30 24477 H 2247.21 -1.11994 1.06286 0
M  V30 24478 H 2249.17 -4.10259 0.140578 0
M  V30 24479 H 2247.83 -3.10585 -0.468602 0
M  V30 24480 H 2247.03 -4.92583 1.06666 0
M  V30 24481 H 2246.63 -3.32037 1.72125 0
M  V30 24482 H 2248.92 -6.48184 1.9714 0
M  V30 24483 H 2249.86 -6.17557 3.46452 0
M  V30 24484 H 2250.27 -5.29252 1.96348 0
M  V30 24485 N 2249.67 -1.04192 -1.18244 0
M  V30 24486 C 2250.91 -0.747155 -1.88535 0
M  V30 24487 C 2251.25 0.723377 -1.80225 0
M  V30 24488 O 2250.52 1.52802 -1.2034 0
M  V30 24489 C 2250.81 -1.2155 -3.38965 0
M  V30 24490 C 2250.66 -2.74823 -3.56079 0
M  V30 24491 C 2251.98 -0.806558 -4.32646 0
M  V30 24492 H 2249.1 -0.272895 -0.684615 0
M  V30 24493 H 2251.74 -1.29415 -1.3911 0
M  V30 24494 H 2249.89 -0.750148 -3.81189 0
M  V30 24495 H 2251.56 -3.29405 -3.2294 0
M  V30 24496 H 2249.8 -3.14587 -2.98693 0
M  V30 24497 H 2250.47 -3.02652 -4.61634 0
M  V30 24498 H 2252.95 -1.20702 -3.98209 0
M  V30 24499 H 2251.83 -1.16199 -5.3646 0
M  V30 24500 H 2252.09 0.290213 -4.41146 0
M  V30 24501 N 2251.15 1.34492 -0.821557 0
M  V30 24502 C 2252.08 2.32079 -0.257179 0
M  V30 24503 C 2253.06 1.58177 0.625617 0
M  V30 24504 O 2254.24 1.86167 0.552779 0
M  V30 24505 C 2251.37 3.42373 0.582898 0
M  V30 24506 C 2250.33 4.2752 -0.202646 0
M  V30 24507 C 2249.65 5.2927 0.760086 0
M  V30 24508 C 2250.95 5.02906 -1.41007 0
M  V30 24509 H 2252.65 2.79531 -1.07252 0
M  V30 24510 H 2250.19 1.34392 -0.517187 0
M  V30 24511 H 2252.15 4.09657 0.9879 0
M  V30 24512 H 2250.87 2.93568 1.43128 0
M  V30 24513 H 2249.53 3.61837 -0.589 0
M  V30 24514 H 2249.18 4.76727 1.60438 0
M  V30 24515 H 2248.88 5.87115 0.238706 0
M  V30 24516 H 2250.4 5.99422 1.16297 0
M  V30 24517 H 2251.81 5.63052 -1.07915 0
M  V30 24518 H 2250.21 5.70319 -1.86699 0
M  V30 24519 H 2251.28 4.3268 -2.18897 0
M  V30 24520 N 2252.62 0.576397 1.46681 0
M  V30 24521 C 2253.87 0.057318 2.01619 0
M  V30 24522 C 2254.19 -1.30815 1.45419 0
M  V30 24523 O 2255.39 -1.91822 1.92137 0
M  V30 24524 C 2253.85 0.0519003 3.59863 0
M  V30 24525 C 2253.46 1.4153 4.25057 0
M  V30 24526 C 2255.2 -0.413565 4.22481 0
M  V30 24527 C 2253.11 1.36795 5.75362 0
M  V30 24528 H 2252.04 0.017658 0.753793 0
M  V30 24529 H 2254.69 0.727106 1.6848 0
M  V30 24530 H 2253.07 -0.683925 3.90049 0
M  V30 24531 H 2254.24 2.17036 4.06488 0
M  V30 24532 H 2252.56 1.82027 3.74507 0
M  V30 24533 H 2255.16 -0.467685 5.32651 0
M  V30 24534 H 2255.5 -1.42975 3.90978 0
M  V30 24535 H 2256.03 0.267999 3.96896 0
M  V30 24536 H 2252.77 2.36074 6.11514 0
M  V30 24537 H 2252.29 0.655 5.96213 0
M  V30 24538 H 2253.97 1.07816 6.37953 0
M  V30 24539 N 2254.1 -1.54444 0.313841 0
M  V30 24540 C 2255.34 -2.02298 -0.292354 0
M  V30 24541 C 2255.71 -1.19721 -1.50103 0
M  V30 24542 O 2256.91 -1.57334 -2.17944 0
M  V30 24543 C 2255.18 -3.51846 -0.62762 0
M  V30 24544 S 2256.74 -4.21648 -1.21485 0
M  V30 24545 H 2253.56 -0.705406 -0.0890123 0
M  V30 24546 H 2256.16 -1.90375 0.444702 0
M  V30 24547 H 2254.86 -4.09573 0.260337 0
M  V30 24548 H 2254.39 -3.67831 -1.39513 0
M  V30 24549 H 2256.41 -4.28495 -2.50213 0
M  V30 24550 N 2255.58 -0.0418125 -1.57545 0
M  V30 24551 C 2256.51 0.933891 -2.14011 0
M  V30 24552 C 2257.49 1.33082 -1.0594 0
M  V30 24553 O 2258.68 1.40719 -1.33835 0
M  V30 24554 C 2255.81 2.21194 -2.67751 0
M  V30 24555 C 2254.76 1.95538 -3.80722 0
M  V30 24556 C 2254.09 3.29717 -4.20941 0
M  V30 24557 C 2255.39 1.28443 -5.06261 0
M  V30 24558 H 2257.08 0.463593 -2.95789 0
M  V30 24559 H 2254.63 0.221548 -1.42286 0
M  V30 24560 H 2256.58 2.89843 -3.05891 0
M  V30 24561 H 2255.3 2.70413 -1.83151 0
M  V30 24562 H 2253.96 1.29304 -3.4304 0
M  V30 24563 H 2253.61 3.76719 -3.33305 0
M  V30 24564 H 2253.31 3.13352 -4.97076 0
M  V30 24565 H 2254.83 3.99612 -4.61673 0
M  V30 24566 H 2256.25 1.87111 -5.41906 0
M  V30 24567 H 2254.65 1.22434 -5.87477 0
M  V30 24568 H 2255.72 0.259134 -4.84207 0
M  V30 24569 N 2257.06 1.55891 0.231477 0
M  V30 24570 C 2258.01 1.92443 1.30646 0
M  V30 24571 C 2259 0.80528 1.49036 0
M  V30 24572 O 2260.21 0.990034 1.50327 0
M  V30 24573 H 2256.58 0.61142 0.437801 0
M  V30 24574 H 2258.55 2.82162 0.970923 0
M  V30 24575 C 2257.3 2.24894 2.65176 0
M  V30 24576 H 2256.62 3.10519 2.51829 0
M  V30 24577 H 2258.06 2.54361 3.39229 0
M  V30 24578 C 2256.52 1.0706 3.19437 0
M  V30 24579 O 2257.05 0.326569 4.0037 0
M  V30 24580 N 2255.26 0.857079 2.77673 0
M  V30 24581 H 2254.81 1.46383 2.11966 0
M  V30 24582 H 2254.76 0.0703775 3.14321 0
M  V30 24583 N 2258.54 -0.497781 1.49532 0
M  V30 24584 C 2259.47 -1.61677 1.61046 0
M  V30 24585 C 2260.45 -1.55975 0.459413 0
M  V30 24586 O 2261.63 -1.75985 0.675389 0
M  V30 24587 C 2258.76 -3.00199 1.56838 0
M  V30 24588 C 2257.8 -3.24151 2.77179 0
M  V30 24589 S 2258.64 -3.06926 4.38813 0
M  V30 24590 C 2259.79 -4.47838 4.37255 0
M  V30 24591 H 2260.03 -1.51666 2.55704 0
M  V30 24592 H 2257.56 -0.683177 1.38463 0
M  V30 24593 H 2259.52 -3.80073 1.55096 0
M  V30 24594 H 2258.18 -3.07622 0.634615 0
M  V30 24595 H 2257.37 -4.25283 2.70463 0
M  V30 24596 H 2256.97 -2.52005 2.7635 0
M  V30 24597 H 2259.27 -5.39985 4.09173 0
M  V30 24598 H 2260.21 -4.59602 5.38676 0
M  V30 24599 H 2260.62 -4.28668 3.67293 0
M  V30 24600 N 2260.01 -1.38661 -0.749062 0
M  V30 24601 C 2261.26 -1.35317 -1.51054 0
M  V30 24602 C 2261.59 0.055341 -1.94121 0
M  V30 24603 O 2260.87 1.01746 -1.65765 0
M  V30 24604 C 2261.15 -2.31293 -2.75999 0
M  V30 24605 C 2261 -3.81024 -2.39041 0
M  V30 24606 C 2262.32 -2.25327 -3.78042 0
M  V30 24607 H 2259.44 -0.492854 -0.547963 0
M  V30 24608 H 2262.08 -1.69544 -0.857598 0
M  V30 24609 H 2260.23 -2.02235 -3.31713 0
M  V30 24610 H 2261.91 -4.20775 -1.89067 0
M  V30 24611 H 2260.15 -3.98485 -1.71442 0
M  V30 24612 H 2260.82 -4.43646 -3.28454 0
M  V30 24613 H 2263.3 -2.50989 -3.31879 0
M  V30 24614 H 2262.17 -2.94584 -4.63154 0
M  V30 24615 H 2262.43 -1.2536 -4.23954 0
M  V30 24616 N 2261.49 0.977736 -1.23605 0
M  V30 24617 C 2262.72 1.75456 -1.09649 0
M  V30 24618 C 2263.14 1.85493 0.351826 0
M  V30 24619 O 2262.49 1.33602 1.24325 0
M  V30 24620 C 2262.54 3.18013 -1.71901 0
M  V30 24621 O 2262.27 3.08493 -3.11069 0
M  V30 24622 C 2263.77 4.12078 -1.63422 0
M  V30 24623 H 2260.99 0.550538 -0.383599 0
M  V30 24624 H 2263.53 1.22821 -1.63509 0
M  V30 24625 H 2261.69 3.67666 -1.22067 0
M  V30 24626 H 2262.1 3.98254 -3.41312 0
M  V30 24627 H 2263.57 5.098 -2.11678 0
M  V30 24628 H 2264.05 4.35171 -0.593538 0
M  V30 24629 H 2264.66 3.6833 -2.12634 0
M  V30 24630 N 2262.97 1.04818 1.1769 0
M  V30 24631 C 2263.9 0.590212 2.20435 0
M  V30 24632 C 2264.88 -0.379216 1.58116 0
M  V30 24633 O 2266.07 -0.291729 1.86229 0
M  V30 24634 C 2263.19 -0.136757 3.38424 0
M  V30 24635 C 2262.24 0.787097 4.19174 0
M  V30 24636 S 2263.07 2.27418 4.84811 0
M  V30 24637 C 2264.23 1.55827 6.06192 0
M  V30 24638 H 2264.46 1.46071 2.58941 0
M  V30 24639 H 2261.99 0.859806 1.28245 0
M  V30 24640 H 2263.95 -0.550004 4.06799 0
M  V30 24641 H 2262.61 -0.983246 2.98314 0
M  V30 24642 H 2261.81 0.224769 5.03499 0
M  V30 24643 H 2261.41 1.13954 3.56217 0
M  V30 24644 H 2263.7 0.855505 6.72077 0
M  V30 24645 H 2264.64 2.37885 6.66946 0
M  V30 24646 H 2265.05 1.04732 5.54699 0
M  V30 24647 N 2264.45 -1.34055 0.828678 0
M  V30 24648 C 2265.38 -2.27324 0.199803 0
M  V30 24649 C 2266.36 -1.49167 -0.647142 0
M  V30 24650 O 2267.54 -1.7837 -0.609629 0
M  V30 24651 C 2264.67 -3.3095 -0.720396 0
M  V30 24652 C 2263.72 -4.26471 0.0497638 0
M  V30 24653 S 2264.55 -5.16854 1.40081 0
M  V30 24654 C 2265.71 -6.24013 0.485637 0
M  V30 24655 H 2265.94 -2.80314 0.990527 0
M  V30 24656 H 2263.47 -1.4119 0.624881 0
M  V30 24657 H 2265.43 -3.91141 -1.24574 0
M  V30 24658 H 2264.09 -2.76795 -1.48469 0
M  V30 24659 H 2263.28 -4.99791 -0.650017 0
M  V30 24660 H 2262.89 -3.70563 0.505844 0
M  V30 24661 H 2265.18 -6.76741 -0.320553 0
M  V30 24662 H 2266.12 -6.98052 1.18868 0
M  V30 24663 H 2266.53 -5.64455 0.0715101 0
M  V30 24664 N 2265.93 -0.584167 -1.46374 0
M  V30 24665 C 2267.17 -0.0704072 -2.02678 0
M  V30 24666 C 2267.51 1.28676 -1.45452 0
M  V30 24667 O 2266.78 1.84348 -0.620172 0
M  V30 24668 C 2267.06 -0.00621004 -3.60099 0
M  V30 24669 C 2266.92 -1.39238 -4.27707 0
M  V30 24670 C 2268.24 0.693666 -4.34599 0
M  V30 24671 H 2265.36 -0.0270599 -0.736503 0
M  V30 24672 H 2268 -0.751646 -1.745 0
M  V30 24673 H 2266.15 0.573942 -3.84237 0
M  V30 24674 H 2267.82 -2.01781 -4.14828 0
M  V30 24675 H 2266.06 -1.95969 -3.87013 0
M  V30 24676 H 2266.73 -1.29991 -5.36476 0
M  V30 24677 H 2269.21 0.200796 -4.15615 0
M  V30 24678 H 2268.09 0.707618 -5.4432 0
M  V30 24679 H 2268.35 1.75526 -4.05762 0
M  V30 24680 N 2267.41 1.54275 -0.322027 0
M  V30 24681 C 2268.32 2.27975 0.553591 0
M  V30 24682 C 2269.33 1.3227 1.13052 0
M  V30 24683 O 2270.51 1.65282 1.15081 0
M  V30 24684 C 2267.57 3.02204 1.69922 0
M  V30 24685 C 2266.63 4.13492 1.15426 0
M  V30 24686 C 2265.87 4.84172 2.24529 0
M  V30 24687 O 2266.09 4.54356 3.44844 0
M  V30 24688 O 2265.02 5.71114 1.90034 0
M  V30 24689 H 2268.85 3.03667 -0.0448878 0
M  V30 24690 H 2266.43 1.49142 -0.087768 0
M  V30 24691 H 2268.32 3.48694 2.36624 0
M  V30 24692 H 2266.99 2.29389 2.28391 0
M  V30 24693 H 2265.9 3.71355 0.452371 0
M  V30 24694 H 2267.23 4.88346 0.614719 0
M  V30 24695 N 2268.88 0.0501669 1.5752 0
M  V30 24696 C 2269.83 -0.924566 2.11472 0
M  V30 24697 C 2270.8 -1.30949 1.02184 0
M  V30 24698 O 2271.99 -1.39914 1.29726 0
M  V30 24699 C 2269.13 -2.19446 2.66341 0
M  V30 24700 C 2268.24 -1.86411 3.89711 0
M  V30 24701 C 2267.37 -3.07851 4.32899 0
M  V30 24702 C 2266.41 -2.70733 5.48972 0
M  V30 24703 N 2265.55 -3.84863 5.87218 0
M  V30 24704 H 2270.39 -0.457588 2.94466 0
M  V30 24705 H 2267.93 -0.214241 1.45532 0
M  V30 24706 H 2269.88 -2.93753 2.96252 0
M  V30 24707 H 2268.51 -2.63723 1.86146 0
M  V30 24708 H 2267.57 -1.02257 3.66398 0
M  V30 24709 H 2268.88 -1.55088 4.74077 0
M  V30 24710 H 2268.03 -3.90458 4.64357 0
M  V30 24711 H 2266.77 -3.42352 3.47342 0
M  V30 24712 H 2265.78 -1.86542 5.17187 0
M  V30 24713 H 2267 -2.37425 6.36244 0
M  V30 24714 H 2264.95 -4.19166 5.04614 0
M  V30 24715 H 2264.86 -3.57235 6.66273 0
M  V30 24716 H 2266.13 -4.68113 6.2329 0
M  V30 24717 N 2270.36 -1.56011 -0.223207 0
M  V30 24718 C 2271.27 -1.95445 -1.29762 0
M  V30 24719 C 2272.29 -0.858055 -1.51372 0
M  V30 24720 O 2273.46 -1.16148 -1.64534 0
M  V30 24721 C 2270.53 -2.26172 -2.62768 0
M  V30 24722 C 2269.59 -3.49371 -2.49476 0
M  V30 24723 C 2268.82 -3.78623 -3.76139 0
M  V30 24724 O 2269.05 -3.09576 -4.79081 0
M  V30 24725 O 2267.98 -4.72116 -3.7335 0
M  V30 24726 H 2271.81 -2.87006 -0.993039 0
M  V30 24727 H 2269.39 -1.432 -0.425933 0
M  V30 24728 H 2271.27 -2.47137 -3.41323 0
M  V30 24729 H 2269.95 -1.37786 -2.92911 0
M  V30 24730 H 2268.85 -3.33687 -1.69127 0
M  V30 24731 H 2270.19 -4.38135 -2.24273 0
M  V30 24732 N 2271.84 0.489844 -1.49794 0
M  V30 24733 C 2273.09 1.24079 -1.59527 0
M  V30 24734 C 2273.41 1.92847 -0.288987 0
M  V30 24735 O 2272.68 1.83256 0.692403 0
M  V30 24736 H 2271.26 0.460973 -0.587804 0
M  V30 24737 H 2273.92 0.566746 -1.86478 0
M  V30 24738 H 2273.02 1.99876 -2.397 0
M  V30 24739 N 2273.32 1.39056 0.741698 0
M  V30 24740 C 2274.25 1.33136 1.86567 0
M  V30 24741 C 2275.26 0.241357 1.61001 0
M  V30 24742 O 2276.45 0.499814 1.7136 0
M  V30 24743 C 2273.55 1.04288 3.22455 0
M  V30 24744 C 2272.72 2.24434 3.75431 0
M  V30 24745 C 2271.78 1.92146 4.89864 0
M  V30 24746 O 2270.81 2.64763 5.03874 0
M  V30 24747 N 2272.01 0.883571 5.73736 0
M  V30 24748 H 2274.78 2.29995 1.92152 0
M  V30 24749 H 2272.34 1.33072 0.922149 0
M  V30 24750 H 2274.33 0.807197 3.96568 0
M  V30 24751 H 2272.9 0.161862 3.12181 0
M  V30 24752 H 2272.12 2.63995 2.92746 0
M  V30 24753 H 2273.41 3.04588 4.07558 0
M  V30 24754 H 2272.81 0.281616 5.64999 0
M  V30 24755 H 2271.36 0.707776 6.47946 0
M  V30 24756 N 2274.8 -0.971167 1.24121 0
M  V30 24757 C 2276.02 -1.75405 1.1067 0
M  V30 24758 C 2276.45 -1.85056 -0.337016 0
M  V30 24759 O 2275.8 -1.31894 -1.24393 0
M  V30 24760 C 2275.85 -3.15438 1.74732 0
M  V30 24761 O 2274.96 -3.99696 1.01573 0
M  V30 24762 H 2274.3 -0.53931 0.387351 0
M  V30 24763 H 2276.83 -1.21847 1.6436 0
M  V30 24764 H 2276.84 -3.65976 1.80348 0
M  V30 24765 H 2275.51 -3.07729 2.79778 0
M  V30 24766 H 2274.09 -3.58185 1.03719 0
M  V30 24767 N 2276.27 -1.05441 -1.17133 0
M  V30 24768 C 2277.21 -0.615578 -2.20779 0
M  V30 24769 C 2278.22 0.321973 -1.59584 0
M  V30 24770 O 2279.41 0.114313 -1.78134 0
M  V30 24771 C 2276.51 0.118878 -3.38691 0
M  V30 24772 C 2275.68 -0.829999 -4.29453 0
M  V30 24773 C 2274.74 -0.13635 -5.26023 0
M  V30 24774 O 2273.77 -0.771249 -5.63951 0
M  V30 24775 N 2274.97 1.1253 -5.69489 0
M  V30 24776 H 2277.73 -1.5071 -2.59049 0
M  V30 24777 H 2275.29 -0.936627 -1.32056 0
M  V30 24778 H 2277.29 0.593108 -4.0033 0
M  V30 24779 H 2275.86 0.912097 -2.98998 0
M  V30 24780 H 2275.08 -1.4838 -3.65208 0
M  V30 24781 H 2276.36 -1.474 -4.86981 0
M  V30 24782 H 2275.76 1.6614 -5.40753 0
M  V30 24783 H 2274.32 1.54355 -6.3326 0
M  V30 24784 N 2277.75 1.33613 -0.835776 0
M  V30 24785 C 2278.7 2.26745 -0.238896 0
M  V30 24786 C 2279.69 1.4912 0.604317 0
M  V30 24787 O 2280.88 1.71004 0.456792 0
M  V30 24788 C 2278.01 3.38233 0.587665 0
M  V30 24789 C 2277.09 4.23259 -0.266886 0
M  V30 24790 N 2277.48 4.87614 -1.34411 0
M  V30 24791 C 2275.78 4.45968 -0.0533915 0
M  V30 24792 C 2276.48 5.50881 -1.86828 0
M  V30 24793 N 2275.46 5.30855 -1.17022 0
M  V30 24794 H 2279.26 2.74014 -1.06271 0
M  V30 24795 H 2276.78 1.47482 -0.679907 0
M  V30 24796 H 2278.77 4.03937 1.03154 0
M  V30 24797 H 2277.43 2.92512 1.40949 0
M  V30 24798 H 2278.44 4.88258 -1.72699 0
M  V30 24799 H 2275.12 4.10975 0.73524 0
M  V30 24800 H 2276.51 6.12135 -2.77021 0
M  V30 24801 N 2279.23 0.591922 1.46062 0
M  V30 24802 C 2280.16 -0.184577 2.27452 0
M  V30 24803 C 2281.14 -0.888327 1.36189 0
M  V30 24804 O 2282.33 -0.900361 1.65607 0
M  V30 24805 C 2279.45 -1.26565 3.14164 0
M  V30 24806 C 2278.5 -0.66674 4.21256 0
M  V30 24807 S 2279.33 0.513439 5.33033 0
M  V30 24808 C 2280.49 -0.56861 6.23312 0
M  V30 24809 H 2280.72 0.50599 2.92963 0
M  V30 24810 H 2278.25 0.379041 1.49675 0
M  V30 24811 H 2280.21 -1.88457 3.64684 0
M  V30 24812 H 2278.87 -1.92821 2.47949 0
M  V30 24813 H 2278.07 -1.47966 4.81791 0
M  V30 24814 H 2277.67 -0.123294 3.73797 0
M  V30 24815 H 2279.96 -1.45186 6.61761 0
M  V30 24816 H 2280.9 0.000196849 7.081 0
M  V30 24817 H 2281.31 -0.876898 5.57648 0
M  V30 24818 N 2280.71 -1.54102 0.330204 0
M  V30 24819 C 2281.94 -2.05102 -0.272143 0
M  V30 24820 C 2282.35 -1.20597 -1.45264 0
M  V30 24821 O 2281.71 -0.238175 -1.80939 0
M  V30 24822 C 2281.76 -3.54655 -0.700168 0
M  V30 24823 O 2281.48 -4.35951 0.433378 0
M  V30 24824 C 2282.98 -4.21773 -1.36463 0
M  V30 24825 H 2280.2 -0.66875 -0.0549041 0
M  V30 24826 H 2282.75 -1.98827 0.47832 0
M  V30 24827 H 2280.9 -3.61195 -1.40059 0
M  V30 24828 H 2281.31 -5.24414 0.0948461 0
M  V30 24829 H 2282.79 -5.27846 -1.615 0
M  V30 24830 H 2283.27 -3.73296 -2.31402 0
M  V30 24831 H 2283.87 -4.19389 -0.706601 0
M  V30 24832 N 2282.19 -0.0585199 -1.57491 0
M  V30 24833 C 2283.1 0.928376 -2.15449 0
M  V30 24834 C 2284.11 1.33648 -1.11419 0
M  V30 24835 O 2285.29 1.4119 -1.43622 0
M  V30 24836 C 2282.35 2.18234 -2.69397 0
M  V30 24837 C 2281.41 1.8319 -3.88253 0
M  V30 24838 C 2280.65 3.02608 -4.39618 0
M  V30 24839 O 2280.87 4.16212 -3.90031 0
M  V30 24840 O 2279.8 2.83195 -5.31116 0
M  V30 24841 H 2283.63 0.46543 -3.00112 0
M  V30 24842 H 2281.22 0.1638 -1.48499 0
M  V30 24843 H 2283.1 2.91792 -3.04032 0
M  V30 24844 H 2281.77 2.63652 -1.87801 0
M  V30 24845 H 2280.68 1.06924 -3.58494 0
M  V30 24846 H 2282.01 1.42565 -4.71101 0
M  V30 24847 N 2283.66 1.56128 0.21493 0
M  V30 24848 C 2284.91 1.79713 0.93973 0
M  V30 24849 C 2285.24 0.629279 1.83722 0
M  V30 24850 O 2284.52 -0.371163 1.90926 0
M  V30 24851 C 2284.8 3.13427 1.773 0
M  V30 24852 C 2284.65 4.40672 0.901562 0
M  V30 24853 C 2285.97 3.43643 2.7495 0
M  V30 24854 H 2283.09 0.653782 0.340203 0
M  V30 24855 H 2285.73 1.88856 0.208207 0
M  V30 24856 H 2283.88 3.05764 2.39667 0
M  V30 24857 H 2285.56 4.60361 0.294125 0
M  V30 24858 H 2283.8 4.33304 0.207291 0
M  V30 24859 H 2284.47 5.30685 1.51913 0
M  V30 24860 H 2286.95 3.51477 2.22717 0
M  V30 24861 H 2285.82 4.38361 3.3035 0
M  V30 24862 H 2286.08 2.66141 3.53018 0
M  V30 24863 N 2285.14 -0.481893 1.50052 0
M  V30 24864 C 2286.07 -1.58948 1.71049 0
M  V30 24865 C 2287.05 -1.60641 0.559316 0
M  V30 24866 O 2288.24 -1.7708 0.797274 0
M  V30 24867 C 2285.37 -2.97336 1.79467 0
M  V30 24868 C 2284.32 -3.1051 2.94563 0
M  V30 24869 C 2283.65 -4.50439 2.88113 0
M  V30 24870 C 2284.95 -2.88739 4.35232 0
M  V30 24871 H 2286.64 -1.41631 2.63782 0
M  V30 24872 H 2284.19 -0.67992 1.26937 0
M  V30 24873 H 2286.14 -3.74738 1.92741 0
M  V30 24874 H 2284.87 -3.15786 0.833467 0
M  V30 24875 H 2283.52 -2.35538 2.80923 0
M  V30 24876 H 2283.17 -4.65791 1.89861 0
M  V30 24877 H 2282.87 -4.6019 3.65375 0
M  V30 24878 H 2284.4 -5.29875 3.03421 0
M  V30 24879 H 2285.81 -3.55898 4.49455 0
M  V30 24880 H 2284.21 -3.09946 5.13862 0
M  V30 24881 H 2285.28 -1.84688 4.48351 0
M  V30 24882 N 2286.62 -1.39448 -0.734313 0
M  V30 24883 C 2287.85 -1.39781 -1.52134 0
M  V30 24884 C 2288.26 0.00925986 -1.89198 0
M  V30 24885 O 2287.6 0.991141 -1.54668 0
M  V30 24886 C 2287.66 -2.20729 -2.83758 0
M  V30 24887 C 2287.33 -3.69352 -2.69125 0
M  V30 24888 C 2288.32 -4.62417 -2.37627 0
M  V30 24889 C 2286.01 -4.12945 -2.85974 0
M  V30 24890 C 2288 -5.97058 -2.23161 0
M  V30 24891 C 2285.69 -5.47662 -2.71127 0
M  V30 24892 C 2286.69 -6.39532 -2.39766 0
M  V30 24893 O 2286.38 -7.71767 -2.25012 0
M  V30 24894 H 2286.11 -0.479297 -0.476708 0
M  V30 24895 H 2288.66 -1.83895 -0.91498 0
M  V30 24896 H 2286.89 -1.71365 -3.46657 0
M  V30 24897 H 2288.58 -2.13232 -3.45379 0
M  V30 24898 H 2289.35 -4.30038 -2.2426 0
M  V30 24899 H 2285.23 -3.4177 -3.09377 0
M  V30 24900 H 2288.77 -6.68732 -1.98605 0
M  V30 24901 H 2284.67 -5.79631 -2.84073 0
M  V30 24902 H 2285.44 -7.82499 -2.40077 0
M  V30 24903 N 2288.1 0.964571 -1.24635 0
M  V30 24904 C 2289.34 1.71115 -1.0996 0
M  V30 24905 C 2289.7 1.89052 0.357388 0
M  V30 24906 O 2288.99 1.44319 1.26026 0
M  V30 24907 C 2289.19 3.1013 -1.77635 0
M  V30 24908 C 2289.02 3.05754 -3.29765 0
M  V30 24909 C 2287.79 3.10061 -3.98987 0
M  V30 24910 C 2289.98 2.87688 -4.2631 0
M  V30 24911 N 2287.97 2.95738 -5.37971 0
M  V30 24912 C 2289.34 2.81692 -5.52313 0
M  V30 24913 C 2291.39 2.72292 -4.16847 0
M  V30 24914 C 2290.09 2.61876 -6.69936 0
M  V30 24915 C 2292.12 2.53844 -5.34151 0
M  V30 24916 C 2291.48 2.4856 -6.59088 0
M  V30 24917 H 2287.58 0.634556 -0.457015 0
M  V30 24918 H 2290.17 1.14334 -1.57594 0
M  V30 24919 H 2288.34 3.65097 -1.32511 0
M  V30 24920 H 2290.07 3.73511 -1.55792 0
M  V30 24921 H 2286.82 3.18865 -3.50175 0
M  V30 24922 H 2287.25 2.91807 -6.10882 0
M  V30 24923 H 2291.89 2.75157 -3.21011 0
M  V30 24924 H 2289.61 2.57753 -7.65891 0
M  V30 24925 H 2293.19 2.42871 -5.28682 0
M  V30 24926 H 2292.07 2.34468 -7.48328 0
M  V30 24927 N 2289.58 1.0606 1.16572 0
M  V30 24928 C 2290.83 0.770977 1.86384 0
M  V30 24929 C 2291.14 -0.705097 1.82449 0
M  V30 24930 O 2292.34 -1.10901 2.47817 0
M  V30 24931 C 2290.8 1.32899 3.34464 0
M  V30 24932 C 2290.41 2.83513 3.46878 0
M  V30 24933 C 2292.15 1.1168 4.09546 0
M  V30 24934 C 2290.06 3.32571 4.8903 0
M  V30 24935 H 2288.99 0.284721 0.698176 0
M  V30 24936 H 2291.64 1.27901 1.31581 0
M  V30 24937 H 2290.02 0.748731 3.88857 0
M  V30 24938 H 2291.2 3.4747 3.02657 0
M  V30 24939 H 2289.51 3.03373 2.85226 0
M  V30 24940 H 2292.11 1.45823 5.14431 0
M  V30 24941 H 2292.45 0.0550267 4.16264 0
M  V30 24942 H 2292.98 1.66272 3.61384 0
M  V30 24943 H 2289.72 4.38216 4.87491 0
M  V30 24944 H 2289.24 2.73361 5.33886 0
M  V30 24945 H 2290.92 3.2776 5.57837 0
M  V30 24946 N 2291.06 -1.33168 0.84285 0
M  V30 24947 C 2292 -2.31056 0.267536 0
M  V30 24948 C 2293 -1.58318 -0.602654 0
M  V30 24949 O 2294.2 -1.73152 -0.491773 0
M  V30 24950 H 2290.58 -0.748938 0.0677944 0
M  V30 24951 H 2292.55 -2.77083 1.10759 0
M  V30 24952 C 2291.3 -3.43493 -0.539271 0
M  V30 24953 H 2290.62 -3.99617 0.12102 0
M  V30 24954 H 2292.06 -4.14172 -0.907597 0
M  V30 24955 C 2290.52 -2.897 -1.71976 0
M  V30 24956 O 2291.05 -2.86216 -2.81857 0
M  V30 24957 N 2289.26 -2.46255 -1.54295 0
M  V30 24958 H 2288.8 -2.49288 -0.649099 0
M  V30 24959 H 2288.76 -2.10616 -2.33427 0
M  V30 24960 N 2292.53 -0.599659 -1.45746 0
M  V30 24961 C 2293.78 -0.0918999 -2.02592 0
M  V30 24962 C 2294.11 1.27126 -1.46808 0
M  V30 24963 O 2293.39 1.8368 -0.63969 0
M  V30 24964 C 2293.67 -0.044403 -3.60073 0
M  V30 24965 C 2293.52 -1.43766 -4.26206 0
M  V30 24966 C 2294.84 0.647532 -4.3531 0
M  V30 24967 H 2291.96 -0.03487 -0.736175 0
M  V30 24968 H 2294.6 -0.770112 -1.73693 0
M  V30 24969 H 2292.75 0.533156 -3.84824 0
M  V30 24970 H 2294.43 -2.06169 -4.12665 0
M  V30 24971 H 2292.67 -2.00062 -3.84912 0
M  V30 24972 H 2293.34 -1.35674 -5.35067 0
M  V30 24973 H 2295.82 0.156703 -4.15805 0
M  V30 24974 H 2294.69 0.649846 -5.4504 0
M  V30 24975 H 2294.95 1.71212 -4.07601 0
M  V30 24976 N 2294.01 1.53925 -0.338371 0
M  V30 24977 C 2295.26 2.01125 0.260108 0
M  V30 24978 C 2295.59 1.22592 1.50615 0
M  V30 24979 O 2294.87 0.312147 1.91979 0
M  V30 24980 C 2295.15 3.55408 0.579437 0
M  V30 24981 C 2295 4.44656 -0.678342 0
M  V30 24982 C 2296.32 4.17535 1.39114 0
M  V30 24983 H 2293.44 0.731101 0.0930644 0
M  V30 24984 H 2296.08 1.844 -0.457884 0
M  V30 24985 H 2294.23 3.6979 1.19112 0
M  V30 24986 H 2295.9 4.42119 -1.31639 0
M  V30 24987 H 2294.15 4.13728 -1.30427 0
M  V30 24988 H 2294.82 5.50473 -0.41024 0
M  V30 24989 H 2297.29 4.06818 0.873963 0
M  V30 24990 H 2296.17 5.25568 1.58333 0
M  V30 24991 H 2296.43 3.71819 2.39171 0
M  V30 24992 N 2295.49 0.0668712 1.57458 0
M  V30 24993 C 2296.74 -0.603372 1.93302 0
M  V30 24994 C 2297.06 -1.69916 0.946516 0
M  V30 24995 O 2296.32 -1.95662 -0.0386677 0
M  V30 24996 C 2296.62 -1.22403 3.35786 0
M  V30 24997 C 2296.28 -0.254876 4.50179 0
M  V30 24998 C 2294.95 0.0117592 4.81199 0
M  V30 24999 C 2297.3 0.40843 5.19597 0
M  V30 25000 C 2294.63 0.948871 5.78976 0
M  V30 25001 C 2296.98 1.33383 6.18378 0
M  V30 25002 C 2295.64 1.60898 6.47818 0
M  V30 25003 H 2294.91 -0.220789 0.707342 0
M  V30 25004 H 2297.56 0.136698 1.91011 0
M  V30 25005 H 2295.86 -2.03972 3.34519 0
M  V30 25006 H 2297.56 -1.74983 3.60807 0
M  V30 25007 H 2294.15 -0.47288 4.25983 0
M  V30 25008 H 2298.34 0.215543 4.95832 0
M  V30 25009 H 2293.59 1.16935 6.00113 0
M  V30 25010 H 2297.77 1.85378 6.71273 0
M  V30 25011 H 2295.39 2.33674 7.23395 0
M  V30 25012 N 2296.97 -1.56239 -0.206647 0
M  V30 25013 C 2298.22 -1.79139 -0.926933 0
M  V30 25014 C 2298.53 -0.638076 -1.849 0
M  V30 25015 O 2299.74 -0.751079 -2.60904 0
M  V30 25016 C 2298.19 -3.17297 -1.69854 0
M  V30 25017 C 2297.8 -4.40397 -0.821878 0
M  V30 25018 C 2299.54 -3.49514 -2.40915 0
M  V30 25019 C 2297.45 -5.69578 -1.59169 0
M  V30 25020 H 2296.38 -0.667922 -0.349852 0
M  V30 25021 H 2299.03 -1.82611 -0.180455 0
M  V30 25022 H 2297.41 -3.08043 -2.48848 0
M  V30 25023 H 2298.59 -4.60745 -0.0714209 0
M  V30 25024 H 2296.9 -4.15804 -0.222668 0
M  V30 25025 H 2299.5 -4.4326 -2.99039 0
M  V30 25026 H 2299.84 -2.72712 -3.14537 0
M  V30 25027 H 2300.38 -3.60164 -1.68899 0
M  V30 25028 H 2297.11 -6.49313 -0.898475 0
M  V30 25029 H 2296.63 -5.53267 -2.31638 0
M  V30 25030 H 2298.31 -6.10285 -2.14851 0
M  V30 25031 N 2298.45 0.473929 -1.50305 0
M  V30 25032 C 2299.69 1.22298 -1.60394 0
M  V30 25033 C 2300.01 1.93153 -0.308445 0
M  V30 25034 O 2301.21 2.69966 -0.288204 0
M  V30 25035 C 2299.67 2.22205 -2.83113 0
M  V30 25036 C 2299.28 1.57166 -4.19527 0
M  V30 25037 C 2301.02 2.9777 -3.02545 0
M  V30 25038 C 2298.93 2.55343 -5.33436 0
M  V30 25039 H 2297.86 0.460169 -0.597294 0
M  V30 25040 H 2300.51 0.493772 -1.76732 0
M  V30 25041 H 2298.89 2.98405 -2.60327 0
M  V30 25042 H 2300.07 0.867744 -4.52556 0
M  V30 25043 H 2298.38 0.938931 -4.05676 0
M  V30 25044 H 2300.98 3.71241 -3.84817 0
M  V30 25045 H 2301.32 3.56989 -2.14161 0
M  V30 25046 H 2301.85 2.28683 -3.25498 0
M  V30 25047 H 2298.59 2.00867 -6.23965 0
M  V30 25048 H 2298.11 3.23895 -5.04829 0
M  V30 25049 H 2299.79 3.1723 -5.63892 0
M  V30 25050 N 2299.92 1.39835 0.726907 0
M  V30 25051 C 2300.85 1.41944 1.85403 0
M  V30 25052 C 2301.83 0.281757 1.6775 0
M  V30 25053 O 2303.02 0.48875 1.87949 0
M  V30 25054 C 2300.15 1.27015 3.2324 0
M  V30 25055 C 2299.1 2.38268 3.55545 0
M  V30 25056 C 2298.43 2.08423 4.92406 0
M  V30 25057 C 2299.73 3.80595 3.57693 0
M  V30 25058 H 2301.42 2.36269 1.83895 0
M  V30 25059 H 2298.97 1.13725 0.883329 0
M  V30 25060 H 2300.92 1.2711 4.01772 0
M  V30 25061 H 2299.65 0.291621 3.25295 0
M  V30 25062 H 2298.31 2.37404 2.79347 0
M  V30 25063 H 2297.95 1.08988 4.9105 0
M  V30 25064 H 2297.65 2.82952 5.14987 0
M  V30 25065 H 2299.18 2.10181 5.73285 0
M  V30 25066 H 2300.59 3.83344 4.26286 0
M  V30 25067 H 2298.99 4.5455 3.91796 0
M  V30 25068 H 2300.06 4.10992 2.5732 0
M  V30 25069 N 2301.4 -0.957948 1.25144 0
M  V30 25070 C 2302.65 -1.70215 1.09695 0
M  V30 25071 C 2302.98 -1.9109 -0.362621 0
M  V30 25072 O 2302.23 -1.47703 -1.28383 0
M  V30 25073 C 2302.53 -3.09183 1.79277 0
M  V30 25074 C 2302.2 -3.08119 3.29201 0
M  V30 25075 C 2300.86 -3.07536 3.70101 0
M  V30 25076 C 2303.21 -3.01702 4.25 0
M  V30 25077 C 2300.54 -2.98281 5.05218 0
M  V30 25078 C 2302.89 -2.93989 5.60137 0
M  V30 25079 C 2301.55 -2.9174 6.0037 0
M  V30 25080 H 2300.82 -0.622861 0.401404 0
M  V30 25081 H 2303.47 -1.11942 1.55374 0
M  V30 25082 H 2301.78 -3.7098 1.2602 0
M  V30 25083 H 2303.47 -3.6558 1.6478 0
M  V30 25084 H 2300.06 -3.09343 2.96656 0
M  V30 25085 H 2304.25 -3.01274 3.94395 0
M  V30 25086 H 2299.5 -2.94906 5.35575 0
M  V30 25087 H 2303.68 -2.87984 6.34065 0
M  V30 25088 H 2301.3 -2.84324 7.05028 0
M  V30 25089 N 2302.88 -1.06677 -1.16008 0
M  V30 25090 C 2304.11 -0.806701 -1.90525 0
M  V30 25091 C 2304.52 0.639365 -1.77644 0
M  V30 25092 O 2303.88 1.43802 -1.12372 0
M  V30 25093 C 2303.93 -1.19711 -3.41104 0
M  V30 25094 O 2303.65 -2.58643 -3.53604 0
M  V30 25095 C 2305.15 -0.965343 -4.32662 0
M  V30 25096 H 2302.37 -0.292177 -0.604048 0
M  V30 25097 H 2304.92 -1.42142 -1.47023 0
M  V30 25098 H 2303.07 -0.626841 -3.82295 0
M  V30 25099 H 2303.49 -2.74383 -4.47006 0
M  V30 25100 H 2304.96 -1.28809 -5.36761 0
M  V30 25101 H 2305.44 0.0987165 -4.39089 0
M  V30 25102 H 2306.04 -1.52018 -3.97204 0
M  V30 25103 N 2304.36 1.32719 -0.8499 0
M  V30 25104 C 2305.61 1.97025 -0.450067 0
M  V30 25105 C 2305.93 1.67611 0.996574 0
M  V30 25106 O 2305.2 0.980815 1.69578 0
M  V30 25107 H 2303.78 0.728901 -0.163439 0
M  V30 25108 H 2306.44 1.61888 -1.08528 0
M  V30 25109 H 2305.53 3.06449 -0.5912 0
M  V30 25110 N 2305.84 0.60738 1.45426 0
M  V30 25111 C 2306.75 -0.113422 2.34326 0
M  V30 25112 C 2307.76 -0.860591 1.51228 0
M  V30 25113 O 2308.94 -0.818223 1.8403 0
M  V30 25114 C 2306 -1.09838 3.28841 0
M  V30 25115 C 2305.06 -0.353196 4.27845 0
M  V30 25116 C 2304.3 -1.29124 5.17844 0
M  V30 25117 O 2304.52 -2.52904 5.11269 0
M  V30 25118 O 2303.45 -0.788418 5.96714 0
M  V30 25119 H 2307.28 0.617146 2.97363 0
M  V30 25120 H 2304.87 0.367644 1.44806 0
M  V30 25121 H 2306.75 -1.66568 3.87083 0
M  V30 25122 H 2305.42 -1.80998 2.68368 0
M  V30 25123 H 2304.33 0.25656 3.73219 0
M  V30 25124 H 2305.66 0.317909 4.91172 0
M  V30 25125 N 2307.31 -1.53743 0.34653 0
M  V30 25126 C 2308.55 -2.02873 -0.249377 0
M  V30 25127 C 2308.92 -1.22878 -1.47529 0
M  V30 25128 O 2310.12 -1.61921 -2.14557 0
M  V30 25129 C 2308.39 -3.53098 -0.552847 0
M  V30 25130 S 2309.95 -4.2413 -1.12514 0
M  V30 25131 H 2306.77 -0.707136 -0.0740295 0
M  V30 25132 H 2309.37 -1.89389 0.484983 0
M  V30 25133 H 2308.07 -4.08929 0.347155 0
M  V30 25134 H 2307.6 -3.70708 -1.31679 0
M  V30 25135 H 2309.62 -4.33706 -2.41067 0
M  V30 25136 N 2308.79 -0.0752207 -1.5742 0
M  V30 25137 C 2310.04 0.593991 -1.93906 0
M  V30 25138 C 2310.37 1.69055 -0.955731 0
M  V30 25139 O 2309.65 1.94495 0.0145031 0
M  V30 25140 C 2309.93 1.16774 -3.4064 0
M  V30 25141 C 2309.78 0.0776002 -4.49733 0
M  V30 25142 C 2311.1 2.07221 -3.88262 0
M  V30 25143 H 2308.22 0.214454 -0.705109 0
M  V30 25144 H 2310.86 -0.141887 -1.89469 0
M  V30 25145 H 2309.01 1.79488 -3.44552 0
M  V30 25146 H 2310.68 -0.555653 -4.57941 0
M  V30 25147 H 2308.93 -0.591361 -4.2975 0
M  V30 25148 H 2309.6 0.519507 -5.4955 0
M  V30 25149 H 2312.07 1.54438 -3.86378 0
M  V30 25150 H 2310.95 2.44299 -4.91537 0
M  V30 25151 H 2311.21 2.98185 -3.26402 0
M  V30 25152 N 2310.27 1.56347 0.198358 0
M  V30 25153 C 2311.2 1.97312 1.24861 0
M  V30 25154 C 2312.18 0.844602 1.4765 0
M  V30 25155 O 2313.37 1.10868 1.59442 0
M  V30 25156 C 2310.5 2.30982 2.59354 0
M  V30 25157 C 2309.45 3.46541 2.51183 0
M  V30 25158 C 2308.78 3.65878 3.8992 0
M  V30 25159 C 2310.08 4.80826 2.03969 0
M  V30 25160 H 2311.77 2.85293 0.908202 0
M  V30 25161 H 2309.32 1.37259 0.435438 0
M  V30 25162 H 2311.27 2.58234 3.33006 0
M  V30 25163 H 2309.99 1.3988 2.95129 0
M  V30 25164 H 2308.65 3.19374 1.79988 0
M  V30 25165 H 2308.3 2.72112 4.23041 0
M  V30 25166 H 2308 4.43617 3.85328 0
M  V30 25167 H 2309.52 3.95503 4.65198 0
M  V30 25168 H 2310.94 5.07132 2.67377 0
M  V30 25169 H 2309.34 5.62012 2.10387 0
M  V30 25170 H 2310.41 4.74628 0.992778 0
M  V30 25171 N 2311.75 -0.465951 1.50554 0
M  V30 25172 C 2312.7 -1.5633 1.69793 0
M  V30 25173 C 2313.67 -1.57102 0.539266 0
M  V30 25174 O 2314.85 -1.74554 0.770432 0
M  V30 25175 C 2311.99 -2.94268 1.80278 0
M  V30 25176 C 2311.1 -3.03245 3.07679 0
M  V30 25177 C 2310.24 -4.3213 3.08929 0
M  V30 25178 C 2309.28 -4.34868 4.30763 0
M  V30 25179 N 2308.41 -5.55232 4.29723 0
M  V30 25180 H 2313.25 -1.39231 2.63475 0
M  V30 25181 H 2310.79 -0.67685 1.30603 0
M  V30 25182 H 2312.75 -3.74266 1.84338 0
M  V30 25183 H 2311.38 -3.09991 0.900312 0
M  V30 25184 H 2310.43 -2.16088 3.13066 0
M  V30 25185 H 2311.74 -3.01128 3.97647 0
M  V30 25186 H 2310.9 -5.20479 3.11747 0
M  V30 25187 H 2309.64 -4.36863 2.168 0
M  V30 25188 H 2308.64 -3.44915 4.28152 0
M  V30 25189 H 2309.87 -4.31822 5.24125 0
M  V30 25190 H 2307.81 -5.6074 3.4045 0
M  V30 25191 H 2307.73 -5.54877 5.13466 0
M  V30 25192 H 2309 -6.45692 4.36694 0
M  V30 25193 N 2313.23 -1.40218 -0.719481 0
M  V30 25194 C 2314.16 -1.42925 -1.84647 0
M  V30 25195 C 2315.14 -0.290649 -1.67598 0
M  V30 25196 O 2316.32 -0.49871 -1.87687 0
M  V30 25197 C 2313.45 -1.28728 -3.22562 0
M  V30 25198 C 2312.41 -2.4015 -3.54277 0
M  V30 25199 C 2311.73 -2.11032 -4.91294 0
M  V30 25200 C 2313.03 -3.82487 -3.5567 0
M  V30 25201 H 2314.73 -2.37241 -1.8264 0
M  V30 25202 H 2312.27 -1.14192 -0.877285 0
M  V30 25203 H 2314.23 -1.29239 -4.01093 0
M  V30 25204 H 2312.95 -0.308868 -3.25136 0
M  V30 25205 H 2311.61 -2.38882 -2.78084 0
M  V30 25206 H 2311.26 -1.11591 -4.90466 0
M  V30 25207 H 2310.96 -2.85679 -5.1348 0
M  V30 25208 H 2312.48 -2.13219 -5.72163 0
M  V30 25209 H 2313.89 -3.856 -4.24247 0
M  V30 25210 H 2312.29 -4.56621 -3.8938 0
M  V30 25211 H 2313.36 -4.12351 -2.55137 0
M  V30 25212 N 2314.7 0.951297 -1.25651 0
M  V30 25213 C 2315.95 1.69071 -1.09991 0
M  V30 25214 C 2316.27 1.9229 0.358322 0
M  V30 25215 O 2317.47 2.6396 0.63542 0
M  V30 25216 C 2315.93 3.04397 -1.92017 0
M  V30 25217 C 2315.54 2.88962 -3.42353 0
M  V30 25218 C 2317.28 3.82098 -1.84937 0
M  V30 25219 C 2315.19 4.19698 -4.16662 0
M  V30 25220 H 2314.12 0.634073 -0.408005 0
M  V30 25221 H 2316.77 1.05876 -1.49875 0
M  V30 25222 H 2315.15 3.68515 -1.44959 0
M  V30 25223 H 2316.32 2.33755 -3.97108 0
M  V30 25224 H 2314.64 2.24712 -3.50561 0
M  V30 25225 H 2317.24 4.78937 -2.37747 0
M  V30 25226 H 2317.58 4.08185 -0.817954 0
M  V30 25227 H 2318.11 3.24736 -2.29764 0
M  V30 25228 H 2314.85 3.98798 -5.20231 0
M  V30 25229 H 2314.37 4.74657 -3.66689 0
M  V30 25230 H 2316.05 4.88219 -4.2456 0
M  V30 25231 N 2316.18 1.07291 1.1544 0
M  V30 25232 C 2317.41 0.816861 1.90636 0
M  V30 25233 C 2317.83 -0.624052 1.77446 0
M  V30 25234 O 2317.19 -1.436 1.10674 0
M  V30 25235 C 2317.24 1.22912 3.39006 0
M  V30 25236 O 2316.34 0.374047 4.107 0
M  V30 25237 H 2315.68 0.297649 0.59355 0
M  V30 25238 H 2318.21 1.43136 1.46196 0
M  V30 25239 H 2318.22 1.20504 3.89798 0
M  V30 25240 H 2316.9 2.27862 3.47925 0
M  V30 25241 H 2315.48 0.460564 3.70045 0
M  V30 25242 N 2317.66 -1.32267 0.856927 0
M  V30 25243 C 2318.59 -2.31316 0.318621 0
M  V30 25244 C 2319.57 -1.5978 -0.583459 0
M  V30 25245 O 2320.76 -1.87567 -0.503226 0
M  V30 25246 C 2317.89 -3.43799 -0.491918 0
M  V30 25247 C 2316.84 -4.26832 0.315924 0
M  V30 25248 C 2316.17 -5.31099 -0.619492 0
M  V30 25249 C 2317.47 -4.98991 1.54291 0
M  V30 25250 H 2319.16 -2.76589 1.14626 0
M  V30 25251 H 2316.71 -1.32973 0.552637 0
M  V30 25252 H 2318.66 -4.12132 -0.878939 0
M  V30 25253 H 2317.38 -2.97259 -1.35294 0
M  V30 25254 H 2316.04 -3.60149 0.684728 0
M  V30 25255 H 2315.69 -4.80813 -1.47742 0
M  V30 25256 H 2315.39 -5.87541 -0.0829589 0
M  V30 25257 H 2316.91 -6.02295 -1.00364 0
M  V30 25258 H 2318.33 -5.59993 1.22806 0
M  V30 25259 H 2316.73 -5.65168 2.01755 0
M  V30 25260 H 2317.8 -4.26724 2.30292 0
M  V30 25261 N 2319.14 -0.615084 -1.45102 0
M  V30 25262 C 2320.55 -0.27935 -1.57136 0
M  V30 25263 C 2320.75 1.21795 -1.60525 0
M  V30 25264 O 2319.81 2.00132 -1.5396 0
M  V30 25265 C 2321.12 -0.957134 -2.8506 0
M  V30 25266 C 2322.67 -0.933758 -2.98747 0
M  V30 25267 C 2323.15 -1.5917 -4.29452 0
M  V30 25268 N 2324.64 -1.55753 -4.36228 0
M  V30 25269 C 2325.37 -2.0357 -5.36048 0
M  V30 25270 N 2324.87 -2.59505 -6.42362 0
M  V30 25271 N 2326.66 -1.94293 -5.27453 0
M  V30 25272 H 2318.81 -1.58719 -1.41145 0
M  V30 25273 H 2321.08 -0.665318 -0.67532 0
M  V30 25274 H 2320.78 -2.01171 -2.88484 0
M  V30 25275 H 2320.66 -0.485006 -3.74069 0
M  V30 25276 H 2323.04 0.112295 -2.94886 0
M  V30 25277 H 2323.12 -1.44422 -2.1113 0
M  V30 25278 H 2322.77 -2.63712 -4.34072 0
M  V30 25279 H 2322.7 -1.05619 -5.15899 0
M  V30 25280 H 2325.19 -1.14899 -3.60009 0
M  V30 25281 H 2325.5 -2.93765 -7.14788 0
M  V30 25282 H 2323.85 -2.63548 -6.43092 0
M  V30 25283 H 2327.04 -1.50328 -4.43305 0
M  V30 25284 H 2327.21 -2.31871 -6.05095 0
M  V30 25285 N 2320.62 1.53557 -0.354678 0
M  V30 25286 C 2321.57 2.22151 0.51314 0
M  V30 25287 C 2322.55 1.21283 1.05732 0
M  V30 25288 O 2323.74 1.4678 0.989176 0
M  V30 25289 C 2320.87 3.00612 1.65792 0
M  V30 25290 C 2319.96 4.08847 1.12714 0
M  V30 25291 N 2320.35 5.04796 0.318474 0
M  V30 25292 C 2318.65 4.23358 1.40299 0
M  V30 25293 C 2319.35 5.81693 0.0291202 0
M  V30 25294 N 2318.32 5.40009 0.623796 0
M  V30 25295 H 2322.13 2.93688 -0.111637 0
M  V30 25296 H 2319.64 1.61589 -0.16212 0
M  V30 25297 H 2321.64 3.48262 2.2917 0
M  V30 25298 H 2320.3 2.30604 2.28587 0
M  V30 25299 H 2321.31 5.17883 -0.0414001 0
M  V30 25300 H 2317.99 3.64573 2.03452 0
M  V30 25301 H 2319.38 6.68997 -0.623926 0
M  V30 25302 N 2322.1 0.083568 1.57378 0
M  V30 25303 C 2323.33 -0.590678 1.97976 0
M  V30 25304 C 2323.73 -1.6297 0.961112 0
M  V30 25305 O 2323.08 -1.83605 -0.0590556 0
M  V30 25306 C 2323.14 -1.30654 3.34918 0
M  V30 25307 C 2322.8 -0.419618 4.55069 0
M  V30 25308 C 2323.8 0.327581 5.18867 0
M  V30 25309 C 2321.48 -0.341049 5.01141 0
M  V30 25310 C 2323.48 1.14145 6.27096 0
M  V30 25311 C 2321.17 0.476481 6.0924 0
M  V30 25312 C 2322.16 1.21639 6.72081 0
M  V30 25313 O 2321.85 2.02041 7.78097 0
M  V30 25314 H 2321.58 -0.163935 0.655821 0
M  V30 25315 H 2324.14 0.156057 2.04806 0
M  V30 25316 H 2322.37 -2.0996 3.24736 0
M  V30 25317 H 2324.06 -1.87418 3.60041 0
M  V30 25318 H 2324.82 0.276544 4.84211 0
M  V30 25319 H 2320.7 -0.9066 4.51998 0
M  V30 25320 H 2324.25 1.71947 6.76077 0
M  V30 25321 H 2320.14 0.52904 6.43328 0
M  V30 25322 H 2320.91 1.946 7.9503 0
M  V30 25323 N 2323.57 -1.5645 -0.190064 0
M  V30 25324 C 2324.8 -1.84766 -0.924397 0
M  V30 25325 C 2325.21 -0.66456 -1.77145 0
M  V30 25326 O 2324.55 0.375926 -1.79812 0
M  V30 25327 C 2324.62 -3.07252 -1.86646 0
M  V30 25328 C 2324.28 -4.4094 -1.20087 0
M  V30 25329 C 2325.28 -5.16707 -0.575354 0
M  V30 25330 C 2322.96 -4.87676 -1.20322 0
M  V30 25331 C 2324.96 -6.37388 0.0389231 0
M  V30 25332 C 2322.64 -6.08292 -0.585107 0
M  V30 25333 C 2323.64 -6.82991 0.0348778 0
M  V30 25334 O 2323.33 -8.01322 0.643288 0
M  V30 25335 H 2323.06 -0.617553 -0.274963 0
M  V30 25336 H 2325.62 -2.04417 -0.200752 0
M  V30 25337 H 2323.85 -2.83499 -2.62993 0
M  V30 25338 H 2325.53 -3.22172 -2.46901 0
M  V30 25339 H 2326.3 -4.8169 -0.565643 0
M  V30 25340 H 2322.18 -4.29486 -1.67518 0
M  V30 25341 H 2325.72 -6.95633 0.523451 0
M  V30 25342 H 2321.62 -6.42776 -0.592338 0
M  V30 25343 H 2322.39 -8.16712 0.540688 0
M  V30 25344 N 2325.05 0.45796 -1.50799 0
M  V30 25345 C 2326.3 1.20906 -1.62444 0
M  V30 25346 C 2326.63 1.91665 -0.330898 0
M  V30 25347 O 2325.88 1.83358 0.683978 0
M  V30 25348 C 2326.18 2.26625 -2.76362 0
M  V30 25349 C 2325.85 1.73026 -4.16381 0
M  V30 25350 C 2324.51 1.5813 -4.54476 0
M  V30 25351 C 2326.86 1.33405 -5.03838 0
M  V30 25352 C 2324.19 1.02055 -5.77756 0
M  V30 25353 C 2326.54 0.78767 -6.27677 0
M  V30 25354 C 2325.2 0.625444 -6.64563 0
M  V30 25355 H 2324.47 0.442425 -0.594425 0
M  V30 25356 H 2327.12 0.503103 -1.84773 0
M  V30 25357 H 2325.43 3.03179 -2.48172 0
M  V30 25358 H 2327.12 2.84523 -2.82573 0
M  V30 25359 H 2323.71 1.85591 -3.86334 0
M  V30 25360 H 2327.9 1.43742 -4.75028 0
M  V30 25361 H 2323.15 0.882441 -6.04998 0
M  V30 25362 H 2327.33 0.472055 -6.94798 0
M  V30 25363 H 2324.95 0.188792 -7.59966 0
M  V30 25364 N 2326.53 1.40598 0.712035 0
M  V30 25365 C 2327.76 1.4239 1.50109 0
M  V30 25366 C 2328.17 0.0245727 1.88784 0
M  V30 25367 O 2327.53 -0.952324 1.55683 0
M  V30 25368 C 2327.58 2.31781 2.77416 0
M  V30 25369 O 2327.3 3.66267 2.40375 0
M  V30 25370 C 2328.8 2.42203 3.71285 0
M  V30 25371 H 2326.02 0.485541 0.463132 0
M  V30 25372 H 2328.57 1.84691 0.878035 0
M  V30 25373 H 2326.72 1.92833 3.35997 0
M  V30 25374 H 2327.14 4.13778 3.22317 0
M  V30 25375 H 2328.61 3.08951 4.57442 0
M  V30 25376 H 2329.09 1.44817 4.14638 0
M  V30 25377 H 2329.69 2.81718 3.18614 0
M  V30 25378 N 2328.01 -0.94462 1.26153 0
M  V30 25379 C 2329.25 -1.69292 1.1166 0
M  V30 25380 C 2329.59 -1.91202 -0.339893 0
M  V30 25381 O 2328.86 -1.49021 -1.24992 0
M  V30 25382 C 2329.14 -3.06981 1.88242 0
M  V30 25383 C 2329 -2.92418 3.41777 0
M  V30 25384 C 2330.32 -4.0704 1.6735 0
M  V30 25385 H 2327.44 -0.614417 0.407015 0
M  V30 25386 H 2330.08 -1.09735 1.55108 0
M  V30 25387 H 2328.23 -3.57821 1.51315 0
M  V30 25388 H 2329.9 -2.48825 3.88438 0
M  V30 25389 H 2328.14 -2.28118 3.68978 0
M  V30 25390 H 2328.81 -3.9006 3.90586 0
M  V30 25391 H 2331.29 -3.65148 1.99515 0
M  V30 25392 H 2330.17 -5.01402 2.23354 0
M  V30 25393 H 2330.43 -4.3777 0.617235 0
M  V30 25394 N 2329.49 -1.07901 -1.1487 0
M  V30 25395 C 2330.73 -0.803973 -1.8542 0
M  V30 25396 C 2331.05 0.672078 -1.83052 0
M  V30 25397 O 2330.32 1.487 -1.27534 0
M  V30 25398 H 2328.9 -0.29442 -0.686532 0
M  V30 25399 H 2331.57 -1.36393 -1.39223 0
M  V30 25400 H 2330.66 -1.14351 -2.90397 0
M  V30 25401 N 2330.96 1.31811 -0.863929 0
M  V30 25402 C 2332.21 1.9761 -0.481876 0
M  V30 25403 C 2332.56 1.67082 0.954019 0
M  V30 25404 O 2331.86 0.953653 1.66181 0
M  V30 25405 C 2332.05 3.5109 -0.668609 0
M  V30 25406 C 2331.88 3.96534 -2.1211 0
M  V30 25407 C 2330.65 4.23167 -2.76149 0
M  V30 25408 C 2332.85 4.1092 -3.09272 0
M  V30 25409 N 2330.83 4.54922 -4.12213 0
M  V30 25410 C 2332.2 4.46318 -4.30349 0
M  V30 25411 C 2334.26 3.93281 -3.05343 0
M  V30 25412 C 2332.96 4.65918 -5.48008 0
M  V30 25413 C 2334.99 4.1407 -4.22255 0
M  V30 25414 C 2334.35 4.49794 -5.42093 0
M  V30 25415 H 2330.45 0.748856 -0.225251 0
M  V30 25416 H 2333.03 1.59453 -1.11726 0
M  V30 25417 H 2331.2 3.88349 -0.062858 0
M  V30 25418 H 2332.93 4.03892 -0.255538 0
M  V30 25419 H 2329.69 4.15581 -2.27133 0
M  V30 25420 H 2330.11 4.74969 -4.82424 0
M  V30 25421 H 2334.75 3.64755 -2.13807 0
M  V30 25422 H 2332.47 4.93294 -6.40068 0
M  V30 25423 H 2336.06 4.01915 -4.20661 0
M  V30 25424 H 2334.94 4.65556 -6.31053 0
M  V30 25425 N 2332.44 0.62277 1.44773 0
M  V30 25426 C 2333.39 -0.0994274 2.32387 0
M  V30 25427 C 2334.38 -0.8443 1.4686 0
M  V30 25428 O 2335.59 -0.758146 1.63255 0
M  V30 25429 H 2331.96 -0.0509159 0.750274 0
M  V30 25430 H 2333.94 0.657721 2.91061 0
M  V30 25431 C 2332.68 -1.07313 3.30725 0
M  V30 25432 H 2332.01 -0.509393 3.96542 0
M  V30 25433 H 2333.45 -1.5481 3.94728 0
M  V30 25434 C 2331.91 -2.15425 2.59025 0
M  V30 25435 O 2332.44 -3.23388 2.38291 0
M  V30 25436 N 2330.64 -1.91127 2.18904 0
M  V30 25437 H 2330.19 -1.03333 2.35966 0
M  V30 25438 H 2330.15 -2.63665 1.71255 0
M  V30 25439 N 2333.92 -1.53367 0.362817 0
M  V30 25440 C 2335.17 -2.00398 -0.228845 0
M  V30 25441 C 2335.48 -1.25424 -1.50094 0
M  V30 25442 O 2336.69 -1.63029 -2.17103 0
M  V30 25443 C 2335.14 -3.56969 -0.458354 0
M  V30 25444 C 2334.75 -4.40818 0.798955 0
M  V30 25445 C 2336.5 -4.12363 -1.00782 0
M  V30 25446 C 2334.4 -5.88937 0.539182 0
M  V30 25447 H 2333.33 -0.748694 -0.0892919 0
M  V30 25448 H 2335.98 -1.7708 0.48113 0
M  V30 25449 H 2334.37 -3.76429 -1.22952 0
M  V30 25450 H 2335.54 -4.33131 1.5727 0
M  V30 25451 H 2333.85 -3.96514 1.27144 0
M  V30 25452 H 2336.45 -5.20656 -1.21745 0
M  V30 25453 H 2336.79 -3.66784 -1.96914 0
M  V30 25454 H 2337.33 -3.96691 -0.296891 0
M  V30 25455 H 2334.07 -6.38787 1.47075 0
M  V30 25456 H 2333.59 -5.99479 -0.196116 0
M  V30 25457 H 2335.27 -6.46793 0.163655 0
M  V30 25458 N 2335.4 -0.091913 -1.57332 0
M  V30 25459 C 2336.65 0.572543 -1.94237 0
M  V30 25460 C 2336.97 1.68388 -0.973428 0
M  V30 25461 O 2336.23 1.95699 0.00753472 0
M  V30 25462 C 2336.53 1.17045 -3.37691 0
M  V30 25463 C 2336.19 0.183224 -4.50528 0
M  V30 25464 C 2334.86 -0.0883122 -4.81119 0
M  V30 25465 C 2337.21 -0.491041 -5.18882 0
M  V30 25466 C 2334.54 -1.04086 -5.77393 0
M  V30 25467 C 2336.89 -1.43204 -6.16178 0
M  V30 25468 C 2335.55 -1.71184 -6.45176 0
M  V30 25469 H 2334.82 0.209508 -0.710765 0
M  V30 25470 H 2337.47 -0.167069 -1.9077 0
M  V30 25471 H 2335.77 1.98624 -3.37721 0
M  V30 25472 H 2337.47 1.69221 -3.63546 0
M  V30 25473 H 2334.06 0.405049 -4.26682 0
M  V30 25474 H 2338.24 -0.294399 -4.95426 0
M  V30 25475 H 2333.5 -1.26468 -5.98177 0
M  V30 25476 H 2337.67 -1.96034 -6.68239 0
M  V30 25477 H 2335.3 -2.45153 -7.19586 0
M  V30 25478 N 2336.88 1.56548 0.181765 0
M  V30 25479 C 2338.15 1.72253 0.926734 0
M  V30 25480 C 2338.53 0.650421 2.0083 0
M  V30 25481 O 2337.88 -0.336481 2.26009 0
M  V30 25482 C 2338.09 3.15073 1.50101 0
M  V30 25483 C 2339.44 3.75714 1.97798 0
M  V30 25484 O 2340.46 3.18285 1.59916 0
M  V30 25485 O 2339.32 4.7653 2.67547 0
M  V30 25486 H 2336.42 0.703046 0.435494 0
M  V30 25487 H 2338.96 1.68842 0.170414 0
M  V30 25488 H 2337.73 3.8458 0.722053 0
M  V30 25489 H 2337.36 3.22767 2.3218 0
M  V30 25490 N 2338.35 -0.449957 1.5104 0
M  V30 25491 C 2339.6 -1.20042 1.63083 0
M  V30 25492 C 2339.93 -1.91486 0.341058 0
M  V30 25493 O 2339.18 -1.83718 -0.674244 0
M  V30 25494 C 2339.48 -2.25157 2.77559 0
M  V30 25495 C 2339.15 -1.70815 4.17292 0
M  V30 25496 C 2337.81 -1.55717 4.55308 0
M  V30 25497 C 2340.16 -1.30731 5.04538 0
M  V30 25498 C 2337.49 -0.989897 5.78289 0
M  V30 25499 C 2339.84 -0.754372 6.28086 0
M  V30 25500 C 2338.51 -0.590192 6.64886 0
M  V30 25501 H 2337.78 -0.439266 0.596763 0
M  V30 25502 H 2340.42 -0.493297 1.85037 0
M  V30 25503 H 2338.73 -3.01859 2.49777 0
M  V30 25504 H 2340.43 -2.83021 2.84078 0
M  V30 25505 H 2337.02 -1.8354 3.87313 0
M  V30 25506 H 2341.2 -1.41221 4.75784 0
M  V30 25507 H 2336.46 -0.850344 6.05458 0
M  V30 25508 H 2340.63 -0.435202 6.95039 0
M  V30 25509 H 2338.26 -0.148487 7.60055 0
M  V30 25510 N 2339.83 -1.40974 -0.704569 0
M  V30 25511 C 2341.08 -1.40054 -1.46672 0
M  V30 25512 C 2341.41 -0.00644516 -1.94199 0
M  V30 25513 O 2340.69 0.964205 -1.68918 0
M  V30 25514 C 2340.97 -2.39957 -2.68501 0
M  V30 25515 C 2340.82 -3.88436 -2.26798 0
M  V30 25516 C 2342.14 -2.3724 -3.70682 0
M  V30 25517 H 2339.26 -0.510038 -0.532006 0
M  V30 25518 H 2341.9 -1.72187 -0.803225 0
M  V30 25519 H 2340.05 -2.12686 -3.25111 0
M  V30 25520 H 2341.72 -4.26577 -1.75585 0
M  V30 25521 H 2339.97 -4.03737 -1.58678 0
M  V30 25522 H 2340.64 -4.53871 -3.14173 0
M  V30 25523 H 2343.11 -2.6142 -3.23726 0
M  V30 25524 H 2341.99 -3.0917 -4.53547 0
M  V30 25525 H 2342.25 -1.38784 -4.19752 0
M  V30 25526 N 2341.31 0.937917 -1.26653 0
M  V30 25527 C 2342.56 1.68698 -1.12556 0
M  V30 25528 C 2342.89 1.9138 0.329748 0
M  V30 25529 O 2342.16 1.49682 1.242 0
M  V30 25530 C 2342.45 3.05978 -1.89867 0
M  V30 25531 C 2342.3 2.90601 -3.43323 0
M  V30 25532 C 2343.62 4.06147 -1.69506 0
M  V30 25533 H 2340.74 0.612249 -0.410268 0
M  V30 25534 H 2343.38 1.0891 -1.55687 0
M  V30 25535 H 2341.53 3.57014 -1.5321 0
M  V30 25536 H 2343.2 2.46762 -3.89752 0
M  V30 25537 H 2341.45 2.26158 -3.70183 0
M  V30 25538 H 2342.12 3.87983 -3.92649 0
M  V30 25539 H 2344.59 3.64085 -2.01449 0
M  V30 25540 H 2343.47 5.0021 -2.2601 0
M  V30 25541 H 2343.73 4.37437 -0.640442 0
M  V30 25542 N 2342.79 1.08509 1.14296 0
M  V30 25543 C 2344.03 0.816614 1.85632 0
M  V30 25544 C 2344.37 -0.655989 1.82785 0
M  V30 25545 O 2343.64 -1.48231 1.25928 0
M  V30 25546 C 2343.93 1.34047 3.34221 0
M  V30 25547 C 2343.78 2.87849 3.45634 0
M  V30 25548 C 2345.1 0.966576 4.29355 0
M  V30 25549 H 2342.22 0.298116 0.674015 0
M  V30 25550 H 2344.86 1.34489 1.34211 0
M  V30 25551 H 2343.01 0.891107 3.78142 0
M  V30 25552 H 2344.68 3.41164 3.10492 0
M  V30 25553 H 2342.92 3.25456 2.86812 0
M  V30 25554 H 2343.59 3.19576 4.50083 0
M  V30 25555 H 2346.07 1.35398 3.93455 0
M  V30 25556 H 2344.95 1.3603 5.31777 0
M  V30 25557 H 2345.21 -0.126284 4.4192 0
M  V30 25558 N 2344.27 -1.31351 0.870907 0
M  V30 25559 C 2345.52 -1.95943 0.478443 0
M  V30 25560 C 2345.83 -1.69598 -0.974463 0
M  V30 25561 O 2347.03 -2.2806 -1.47312 0
M  V30 25562 C 2345.49 -3.50789 0.804671 0
M  V30 25563 C 2345.1 -3.85973 2.2744 0
M  V30 25564 C 2346.84 -4.21769 0.480722 0
M  V30 25565 C 2344.75 -5.33934 2.54299 0
M  V30 25566 H 2343.68 -0.733366 0.175188 0
M  V30 25567 H 2346.33 -1.49508 1.06394 0
M  V30 25568 H 2344.71 -3.95722 0.148417 0
M  V30 25569 H 2345.89 -3.51997 2.9738 0
M  V30 25570 H 2344.2 -3.2806 2.56448 0
M  V30 25571 H 2346.8 -5.30628 0.658612 0
M  V30 25572 H 2347.14 -4.12255 -0.578907 0
M  V30 25573 H 2347.67 -3.82474 1.09356 0
M  V30 25574 H 2344.41 -5.48485 3.58949 0
M  V30 25575 H 2343.93 -5.69259 1.88955 0
M  V30 25576 H 2345.61 -6.01208 2.39077 0
M  V30 25577 N 2345.74 -0.630439 -1.44441 0
M  V30 25578 C 2346.99 -0.132108 -2.01267 0
M  V30 25579 C 2347.31 1.25328 -1.50174 0
M  V30 25580 O 2348.51 1.84559 -1.99124 0
M  V30 25581 C 2346.97 -0.185425 -3.59422 0
M  V30 25582 C 2346.58 -1.57208 -4.19511 0
M  V30 25583 C 2348.32 0.256479 -4.23724 0
M  V30 25584 C 2346.23 -1.58055 -5.69888 0
M  V30 25585 H 2345.16 -0.0456224 -0.752618 0
M  V30 25586 H 2347.81 -0.789135 -1.65665 0
M  V30 25587 H 2346.19 0.53869 -3.92319 0
M  V30 25588 H 2347.36 -2.31973 -3.98152 0
M  V30 25589 H 2345.68 -1.95801 -3.67493 0
M  V30 25590 H 2348.28 0.269673 -5.3402 0
M  V30 25591 H 2348.62 1.28365 -3.96015 0
M  V30 25592 H 2349.15 -0.415119 -3.95628 0
M  V30 25593 H 2345.89 -2.58607 -6.02331 0
M  V30 25594 H 2345.41 -0.875829 -5.93371 0
M  V30 25595 H 2347.09 -1.31419 -6.33512 0
M  V30 25596 N 2347.22 1.53172 -0.370945 0
M  V30 25597 C 2348.45 2.06227 0.220257 0
M  V30 25598 C 2348.87 1.24228 1.41241 0
M  V30 25599 O 2348.23 0.262677 1.79387 0
M  V30 25600 C 2348.28 3.55797 0.5866 0
M  V30 25601 O 2347.38 3.76491 1.68311 0
M  V30 25602 H 2346.72 0.663285 0.0307982 0
M  V30 25603 H 2349.25 1.97533 -0.533102 0
M  V30 25604 H 2349.26 3.98917 0.8561 0
M  V30 25605 H 2347.94 4.14922 -0.285086 0
M  V30 25606 H 2346.52 3.45266 1.40875 0
M  V30 25607 N 2348.7 0.100255 1.57281 0
M  V30 25608 C 2349.95 -0.56195 1.93714 0
M  V30 25609 C 2350.26 -1.69016 0.984522 0
M  V30 25610 O 2351.47 -2.41387 1.24277 0
M  V30 25611 C 2349.92 -1.051 3.44212 0
M  V30 25612 C 2349.53 0.0477415 4.47975 0
M  V30 25613 C 2351.28 -1.68564 3.89598 0
M  V30 25614 C 2349.18 -0.456952 5.89632 0
M  V30 25615 H 2348.11 -0.213688 0.723086 0
M  V30 25616 H 2350.76 0.177089 1.82643 0
M  V30 25617 H 2349.15 -1.84388 3.50452 0
M  V30 25618 H 2350.32 0.823412 4.53383 0
M  V30 25619 H 2348.64 0.587888 4.12229 0
M  V30 25620 H 2351.23 -2.07406 4.92836 0
M  V30 25621 H 2351.58 -2.55682 3.28531 0
M  V30 25622 H 2352.11 -0.958494 3.8608 0
M  V30 25623 H 2348.85 0.377731 6.54411 0
M  V30 25624 H 2348.37 -1.19951 5.87683 0
M  V30 25625 H 2350.05 -0.924258 6.40364 0
M  V30 25626 N 2350.18 -1.56643 -0.17346 0
M  V30 25627 C 2351.43 -1.82142 -0.891752 0
M  V30 25628 C 2351.76 -0.677768 -1.81989 0
M  V30 25629 O 2351.03 0.320412 -1.91843 0
M  V30 25630 C 2351.32 -3.18018 -1.68928 0
M  V30 25631 C 2351.17 -4.42908 -0.784409 0
M  V30 25632 C 2352.49 -3.50812 -2.65742 0
M  V30 25633 H 2349.61 -0.662572 -0.322749 0
M  V30 25634 H 2352.25 -1.89341 -0.158062 0
M  V30 25635 H 2350.4 -3.12011 -2.31476 0
M  V30 25636 H 2352.07 -4.60979 -0.171965 0
M  V30 25637 H 2350.31 -4.33702 -0.0923355 0
M  V30 25638 H 2350.99 -5.34526 -1.3779 0
M  V30 25639 H 2353.46 -3.57259 -2.1332 0
M  V30 25640 H 2352.34 -4.46965 -3.18612 0
M  V30 25641 H 2352.6 -2.75407 -3.45838 0
M  V30 25642 N 2351.66 0.44194 -1.51277 0
M  V30 25643 C 2352.91 1.1894 -1.63394 0
M  V30 25644 C 2353.23 1.9183 -0.350193 0
M  V30 25645 O 2352.5 1.85366 0.633752 0
M  V30 25646 H 2351.08 0.442039 -0.602172 0
M  V30 25647 H 2353.74 0.507132 -1.88187 0
M  V30 25648 H 2352.83 1.92149 -2.45937 0
M  V30 25649 N 2353.14 1.41345 0.697083 0
M  V30 25650 C 2354.07 1.37489 1.82132 0
M  V30 25651 C 2355.05 0.242379 1.60783 0
M  V30 25652 O 2356.23 0.429044 1.83552 0
M  V30 25653 C 2353.36 1.14427 3.18786 0
M  V30 25654 C 2352.4 2.30376 3.58928 0
M  V30 25655 S 2353.24 3.92849 3.63909 0
M  V30 25656 C 2354.39 3.72087 5.03291 0
M  V30 25657 H 2354.63 2.32628 1.85125 0
M  V30 25658 H 2352.16 1.27851 0.865648 0
M  V30 25659 H 2354.12 1.01807 3.97675 0
M  V30 25660 H 2352.78 0.209105 3.13403 0
M  V30 25661 H 2351.97 2.0993 4.58198 0
M  V30 25662 H 2351.57 2.39396 2.87343 0
M  V30 25663 H 2353.86 3.31699 5.90747 0
M  V30 25664 H 2354.81 4.70954 5.28779 0
M  V30 25665 H 2355.22 3.05393 4.74758 0
M  V30 25666 N 2354.61 -0.931187 1.27148 0
M  V30 25667 C 2355.86 -1.6785 1.13281 0
M  V30 25668 C 2356.19 -1.91816 -0.322006 0
M  V30 25669 O 2355.44 -1.50393 -1.25221 0
M  V30 25670 C 2355.74 -3.05311 1.85795 0
M  V30 25671 C 2355.41 -3.01067 3.35663 0
M  V30 25672 C 2354.07 -2.99617 3.76541 0
M  V30 25673 C 2356.42 -2.9262 4.31304 0
M  V30 25674 C 2353.75 -2.87497 5.11431 0
M  V30 25675 C 2356.1 -2.82041 5.66247 0
M  V30 25676 C 2354.77 -2.78939 6.06423 0
M  V30 25677 H 2354.04 -0.614206 0.414526 0
M  V30 25678 H 2356.68 -1.08621 1.57714 0
M  V30 25679 H 2354.99 -3.68223 1.33861 0
M  V30 25680 H 2356.69 -3.62002 1.72497 0
M  V30 25681 H 2353.28 -3.02981 3.03151 0
M  V30 25682 H 2357.46 -2.92841 4.00697 0
M  V30 25683 H 2352.72 -2.8348 5.4171 0
M  V30 25684 H 2356.89 -2.7447 6.40031 0
M  V30 25685 H 2354.52 -2.69305 7.109 0
M  V30 25686 N 2356.09 -1.09114 -1.13719 0
M  V30 25687 C 2357.02 -0.749423 -2.21147 0
M  V30 25688 C 2358 0.271446 -1.6792 0
M  V30 25689 O 2359.19 0.140217 -1.93693 0
M  V30 25690 C 2356.32 -0.16572 -3.46904 0
M  V30 25691 C 2355.27 -1.11574 -4.13201 0
M  V30 25692 C 2354.6 -0.393903 -5.33247 0
M  V30 25693 C 2355.9 -2.45686 -4.60908 0
M  V30 25694 H 2357.59 -1.64763 -2.49987 0
M  V30 25695 H 2355.14 -0.793647 -1.20155 0
M  V30 25696 H 2357.09 0.0853919 -4.21313 0
M  V30 25697 H 2355.81 0.767658 -3.1745 0
M  V30 25698 H 2354.47 -1.35208 -3.40756 0
M  V30 25699 H 2354.12 0.543511 -5.00055 0
M  V30 25700 H 2353.82 -1.02731 -5.7855 0
M  V30 25701 H 2355.35 -0.151015 -6.10413 0
M  V30 25702 H 2356.76 -2.26278 -5.26755 0
M  V30 25703 H 2355.16 -3.04785 -5.16939 0
M  V30 25704 H 2356.23 -3.06684 -3.75597 0
M  V30 25705 N 2357.57 1.30887 -0.877861 0
M  V30 25706 C 2358.53 2.26599 -0.344305 0
M  V30 25707 C 2359.53 1.52525 0.509193 0
M  V30 25708 O 2360.72 1.71285 0.317368 0
M  V30 25709 C 2357.85 3.37061 0.510139 0
M  V30 25710 H 2359.05 2.75308 -1.18935 0
M  V30 25711 H 2356.6 1.41954 -0.654113 0
M  V30 25712 H 2357.34 2.93658 1.37606 0
M  V30 25713 H 2357.12 3.9197 -0.101116 0
M  V30 25714 H 2358.61 4.0832 0.875465 0
M  V30 25715 N 2359.05 0.638091 1.44105 0
M  V30 25716 C 2360.32 0.0759664 1.95452 0
M  V30 25717 C 2360.7 -1.40012 1.57987 0
M  V30 25718 O 2360.05 -2.11804 0.857398 0
M  V30 25719 C 2360.26 0.306193 3.47654 0
M  V30 25720 C 2361.61 0.203083 4.24114 0
M  V30 25721 O 2362.63 0.237933 3.55404 0
M  V30 25722 O 2361.49 0.113923 5.46381 0
M  V30 25723 H 2358.59 -0.0183187 0.826797 0
M  V30 25724 H 2361.13 0.710278 1.54121 0
M  V30 25725 H 2359.91 1.33016 3.67998 0
M  V30 25726 H 2359.53 -0.361921 3.95949 0
M  V30 25727 N 2360.53 -1.52973 0.379063 0
M  V30 25728 C 2361.46 -2.2907 -0.452665 0
M  V30 25729 C 2362.44 -1.32041 -1.07235 0
M  V30 25730 O 2363.62 -1.60925 -1.08705 0
M  V30 25731 C 2360.75 -3.08995 -1.58554 0
M  V30 25732 C 2359.71 -4.13824 -1.09243 0
M  V30 25733 C 2359.03 -4.81911 -2.31659 0
M  V30 25734 C 2360.33 -5.22031 -0.16761 0
M  V30 25735 H 2362.03 -2.98845 0.182233 0
M  V30 25736 H 2359.57 -1.43724 0.0890845 0
M  V30 25737 H 2361.52 -3.60983 -2.17414 0
M  V30 25738 H 2360.25 -2.36935 -2.24788 0
M  V30 25739 H 2358.91 -3.62801 -0.526431 0
M  V30 25740 H 2358.56 -4.06409 -2.96379 0
M  V30 25741 H 2358.26 -5.52758 -1.9933 0
M  V30 25742 H 2359.78 -5.367 -2.9118 0
M  V30 25743 H 2361.19 -5.69441 -0.664086 0
M  V30 25744 H 2359.59 -6.00064 0.065432 0
M  V30 25745 H 2360.66 -4.7848 0.786431 0
M  V30 25746 N 2362 -0.108595 -1.57225 0
M  V30 25747 C 2363.25 0.551669 -1.94009 0
M  V30 25748 C 2363.57 1.68492 -0.993471 0
M  V30 25749 O 2364.77 2.40724 -1.25555 0
M  V30 25750 C 2363.23 1.03273 -3.44765 0
M  V30 25751 C 2362.84 -0.071498 -4.47943 0
M  V30 25752 C 2364.58 1.66496 -3.90486 0
M  V30 25753 C 2362.49 0.425676 -5.89866 0
M  V30 25754 H 2361.42 0.20985 -0.724209 0
M  V30 25755 H 2364.07 -0.186773 -1.82547 0
M  V30 25756 H 2362.45 1.82527 -3.51425 0
M  V30 25757 H 2363.62 -0.847445 -4.5294 0
M  V30 25758 H 2361.94 -0.609741 -4.11912 0
M  V30 25759 H 2364.54 2.04789 -4.93929 0
M  V30 25760 H 2364.88 2.53936 -3.29882 0
M  V30 25761 H 2365.41 0.938006 -3.86583 0
M  V30 25762 H 2362.15 -0.412431 -6.54201 0
M  V30 25763 H 2361.67 1.16833 -5.88311 0
M  V30 25764 H 2363.35 0.890285 -6.40845 0
M  V30 25765 N 2363.48 1.56732 0.16515 0
M  V30 25766 C 2364.39 2.00127 1.22419 0
M  V30 25767 C 2365.41 0.913645 1.48083 0
M  V30 25768 O 2366.58 1.22175 1.6011 0
M  V30 25769 C 2363.65 2.35769 2.54193 0
M  V30 25770 C 2362.71 3.5839 2.36337 0
M  V30 25771 C 2361.94 3.92322 3.61827 0
M  V30 25772 O 2362.17 3.27143 4.67262 0
M  V30 25773 O 2361.1 4.85647 3.5557 0
M  V30 25774 H 2364.93 2.90494 0.885835 0
M  V30 25775 H 2362.51 1.44682 0.372492 0
M  V30 25776 H 2364.39 2.59635 3.31915 0
M  V30 25777 H 2363.07 1.48562 2.87595 0
M  V30 25778 H 2361.97 3.39734 1.56626 0
M  V30 25779 H 2363.31 4.46157 2.07857 0
M  V30 25780 N 2364.96 -0.433911 1.51509 0
M  V30 25781 C 2366.19 -1.2054 1.68159 0
M  V30 25782 C 2366.6 -1.84928 0.380395 0
M  V30 25783 O 2365.96 -1.70857 -0.641416 0
M  V30 25784 C 2366.01 -2.28691 2.79969 0
M  V30 25785 O 2365.73 -1.66936 4.05048 0
M  V30 25786 C 2367.23 -3.18907 3.07918 0
M  V30 25787 H 2364.45 -0.363181 0.564217 0
M  V30 25788 H 2367 -0.513719 1.97942 0
M  V30 25789 H 2365.15 -2.9357 2.52776 0
M  V30 25790 H 2365.57 -2.3844 4.67169 0
M  V30 25791 H 2367.04 -3.90919 3.89726 0
M  V30 25792 H 2367.52 -3.79859 2.20463 0
M  V30 25793 H 2368.12 -2.59725 3.36783 0
M  V30 25794 N 2366.44 -1.41713 -0.689577 0
M  V30 25795 C 2367.67 -1.4455 -1.4761 0
M  V30 25796 C 2368.08 -0.0509366 -1.89131 0
M  V30 25797 O 2367.42 0.941432 -1.57743 0
M  V30 25798 C 2367.48 -2.29645 -2.76592 0
M  V30 25799 C 2367.15 -3.77727 -2.57238 0
M  V30 25800 C 2368.14 -4.69743 -2.22795 0
M  V30 25801 C 2365.83 -4.21834 -2.72692 0
M  V30 25802 C 2367.82 -6.03855 -2.04053 0
M  V30 25803 C 2365.51 -5.5601 -2.53567 0
M  V30 25804 C 2366.51 -6.46836 -2.19298 0
M  V30 25805 O 2366.19 -7.78535 -2.00345 0
M  V30 25806 H 2365.93 -0.49422 -0.461218 0
M  V30 25807 H 2368.48 -1.86713 -0.856012 0
M  V30 25808 H 2366.71 -1.82307 -3.4103 0
M  V30 25809 H 2368.4 -2.24112 -3.3842 0
M  V30 25810 H 2369.17 -4.36955 -2.10465 0
M  V30 25811 H 2365.04 -3.5144 -2.98347 0
M  V30 25812 H 2368.59 -6.74712 -1.77229 0
M  V30 25813 H 2364.49 -5.88376 -2.65489 0
M  V30 25814 H 2365.25 -7.89741 -2.15061 0
M  V30 25815 N 2367.92 0.924431 -1.2764 0
M  V30 25816 C 2369.16 1.67247 -1.1417 0
M  V30 25817 C 2369.49 1.91984 0.311829 0
M  V30 25818 O 2368.75 1.51055 1.24422 0
M  V30 25819 C 2369.05 3.04321 -1.87412 0
M  V30 25820 C 2368.71 2.99283 -3.37255 0
M  V30 25821 C 2367.37 2.97616 -3.78125 0
M  V30 25822 C 2369.73 2.90328 -4.3285 0
M  V30 25823 C 2367.05 2.84781 -5.12949 0
M  V30 25824 C 2369.41 2.79035 -5.67735 0
M  V30 25825 C 2368.07 2.75719 -6.07894 0
M  V30 25826 H 2367.34 0.611999 -0.417777 0
M  V30 25827 H 2369.99 1.07783 -1.58288 0
M  V30 25828 H 2368.29 3.67508 -1.35812 0
M  V30 25829 H 2369.99 3.61082 -1.74415 0
M  V30 25830 H 2366.58 3.01369 -3.04753 0
M  V30 25831 H 2370.76 2.90712 -4.02244 0
M  V30 25832 H 2366.02 2.80603 -5.43205 0
M  V30 25833 H 2370.19 2.71072 -6.41477 0
M  V30 25834 H 2367.82 2.65531 -7.12318 0
M  V30 25835 N 2369.39 1.09715 1.13139 0
M  V30 25836 C 2370.64 0.836257 1.84755 0
M  V30 25837 C 2370.97 -0.636566 1.83471 0
M  V30 25838 O 2370.25 -1.46887 1.27493 0
M  V30 25839 C 2370.53 1.37584 3.3278 0
M  V30 25840 C 2370.38 2.91499 3.42562 0
M  V30 25841 C 2371.7 1.01206 4.28305 0
M  V30 25842 H 2368.82 0.305248 0.670815 0
M  V30 25843 H 2371.46 1.35905 1.32777 0
M  V30 25844 H 2369.61 0.931164 3.77176 0
M  V30 25845 H 2371.29 3.44438 3.06856 0
M  V30 25846 H 2369.53 3.2848 2.83343 0
M  V30 25847 H 2370.2 3.24332 4.46668 0
M  V30 25848 H 2372.68 1.39563 3.91997 0
M  V30 25849 H 2371.55 1.41662 5.30305 0
M  V30 25850 H 2371.81 -0.0794056 4.42029 0
M  V30 25851 N 2370.87 -1.30419 0.88479 0
M  V30 25852 C 2372.1 -2.00845 0.517323 0
M  V30 25853 C 2372.52 -1.65887 -0.88675 0
M  V30 25854 O 2371.88 -0.875382 -1.58766 0
M  V30 25855 C 2371.93 -3.53759 0.699056 0
M  V30 25856 O 2371.03 -4.1161 -0.255136 0
M  V30 25857 H 2370.37 -0.631924 0.203883 0
M  V30 25858 H 2372.9 -1.6627 1.19228 0
M  V30 25859 H 2372.91 -4.03594 0.597983 0
M  V30 25860 H 2371.59 -3.78541 1.72277 0
M  V30 25861 H 2370.17 -3.72744 -0.107774 0
M  V30 25862 N 2372.35 -0.645724 -1.43764 0
M  V30 25863 C 2373.76 -0.236751 -1.85193 0
M  V30 25864 C 2374.11 1.21506 -1.54047 0
M  V30 25865 O 2373.24 1.92646 -0.985727 0
M  V30 25866 C 2373.83 -0.422904 -3.3615 0
M  V30 25867 C 2372.39 -0.0683154 -3.76338 0
M  V30 25868 C 2371.54 -0.729353 -2.67536 0
M  V30 25869 H 2374.49 -0.849907 -1.34023 0
M  V30 25870 H 2374.51 0.333837 -3.79033 0
M  V30 25871 H 2374.02 -1.47964 -3.58787 0
M  V30 25872 H 2372.12 0.986116 -3.59314 0
M  V30 25873 H 2372.24 -0.488553 -4.76603 0
M  V30 25874 H 2370.6 -0.16328 -2.54176 0
M  V30 25875 H 2371.38 -1.78897 -2.93003 0
M  V30 25876 N 2373.83 1.5277 -0.38717 0
M  V30 25877 C 2375.06 2.05971 0.195833 0
M  V30 25878 C 2375.47 1.25905 1.40689 0
M  V30 25879 O 2374.83 0.305166 1.79931 0
M  V30 25880 C 2374.88 3.57009 0.568058 0
M  V30 25881 O 2374.6 4.34042 -0.594879 0
M  V30 25882 C 2376.1 4.26547 1.20715 0
M  V30 25883 H 2373.32 0.670327 0.0300461 0
M  V30 25884 H 2375.87 1.96915 -0.551784 0
M  V30 25885 H 2374.02 3.66145 1.26557 0
M  V30 25886 H 2374.43 5.23701 -0.289414 0
M  V30 25887 H 2375.91 5.33477 1.41798 0
M  V30 25888 H 2376.39 3.81627 2.17388 0
M  V30 25889 H 2376.99 4.21723 0.550461 0
M  V30 25890 N 2375.31 0.116931 1.57166 0
M  V30 25891 C 2376.24 -0.83072 2.18223 0
M  V30 25892 C 2377.22 -1.27875 1.12169 0
M  V30 25893 O 2378.4 -1.34173 1.40396 0
M  V30 25894 C 2375.53 -2.08168 2.77999 0
M  V30 25895 C 2374.49 -1.7715 3.89618 0
M  V30 25896 C 2373.81 -3.09258 4.36192 0
M  V30 25897 C 2375.11 -1.04142 5.11812 0
M  V30 25898 H 2376.81 -0.32194 2.97664 0
M  V30 25899 H 2374.35 -0.153409 1.43181 0
M  V30 25900 H 2376.31 -2.74918 3.19371 0
M  V30 25901 H 2375.03 -2.61366 1.95845 0
M  V30 25902 H 2373.69 -1.1279 3.48818 0
M  V30 25903 H 2373.34 -3.60387 3.50899 0
M  V30 25904 H 2373.04 -2.89279 5.1146 0
M  V30 25905 H 2374.56 -3.7713 4.80214 0
M  V30 25906 H 2375.97 -1.61043 5.50216 0
M  V30 25907 H 2374.37 -0.942657 5.9265 0
M  V30 25908 H 2375.44 -0.027817 4.84892 0
M  V30 25909 N 2376.78 -1.56818 -0.156836 0
M  V30 25910 C 2378.03 -1.82807 -0.871093 0
M  V30 25911 C 2378.36 -0.696294 -1.81609 0
M  V30 25912 O 2377.61 0.315425 -1.93141 0
M  V30 25913 C 2377.91 -3.15063 -1.68731 0
M  V30 25914 C 2377.58 -4.4203 -0.889968 0
M  V30 25915 C 2376.24 -4.76513 -0.669958 0
M  V30 25916 C 2378.59 -5.20144 -0.331678 0
M  V30 25917 C 2375.92 -5.86579 0.119207 0
M  V30 25918 C 2378.27 -6.31037 0.444476 0
M  V30 25919 C 2376.94 -6.64077 0.675152 0
M  V30 25920 H 2376.21 -0.668936 -0.318755 0
M  V30 25921 H 2378.85 -1.91022 -0.13524 0
M  V30 25922 H 2377.16 -3.02254 -2.49299 0
M  V30 25923 H 2378.86 -3.32384 -2.24326 0
M  V30 25924 H 2375.45 -4.1499 -1.0715 0
M  V30 25925 H 2379.63 -4.93886 -0.488956 0
M  V30 25926 H 2374.89 -6.10626 0.307525 0
M  V30 25927 H 2379.06 -6.90763 0.884261 0
M  V30 25928 H 2376.69 -7.492 1.28852 0
M  V30 25929 N 2378.26 0.425871 -1.51737 0
M  V30 25930 C 2379.68 0.763235 -1.40167 0
M  V30 25931 C 2379.88 1.95376 -0.492996 0
M  V30 25932 O 2378.93 2.52455 0.0475371 0
M  V30 25933 C 2380.25 1.03286 -2.82405 0
M  V30 25934 C 2381.8 1.13659 -2.91634 0
M  V30 25935 C 2382.27 1.43908 -4.34804 0
M  V30 25936 N 2383.76 1.50808 -4.37962 0
M  V30 25937 C 2384.5 1.75807 -5.45783 0
M  V30 25938 N 2383.99 1.98522 -6.63748 0
M  V30 25939 N 2385.79 1.77684 -5.33277 0
M  V30 25940 H 2377.94 -0.358037 -2.09361 0
M  V30 25941 H 2380.2 -0.097826 -0.942939 0
M  V30 25942 H 2379.91 0.230634 -3.50943 0
M  V30 25943 H 2379.78 1.95749 -3.22432 0
M  V30 25944 H 2382.17 1.92943 -2.23287 0
M  V30 25945 H 2382.25 0.190711 -2.55088 0
M  V30 25946 H 2381.89 0.651482 -5.03704 0
M  V30 25947 H 2381.82 2.39721 -4.68872 0
M  V30 25948 H 2384.31 1.35111 -3.52921 0
M  V30 25949 H 2384.63 2.17 -7.41708 0
M  V30 25950 H 2382.97 1.95821 -6.66843 0
M  V30 25951 H 2386.16 1.59465 -4.401 0
M  V30 25952 H 2386.33 1.96829 -6.17384 0
M  V30 25953 N 2379.74 1.42077 0.682052 0
M  V30 25954 C 2380.99 1.42369 1.44426 0
M  V30 25955 C 2381.32 0.0373397 1.94164 0
M  V30 25956 O 2380.59 -0.93721 1.70431 0
M  V30 25957 C 2380.88 2.44198 2.64649 0
M  V30 25958 C 2380.73 3.91995 2.20589 0
M  V30 25959 C 2382.05 2.43107 3.66861 0
M  V30 25960 H 2379.17 0.518437 0.523825 0
M  V30 25961 H 2381.81 1.73443 0.77573 0
M  V30 25962 H 2379.96 2.17831 3.21686 0
M  V30 25963 H 2381.63 4.29316 1.68776 0
M  V30 25964 H 2379.88 4.06211 1.52235 0
M  V30 25965 H 2380.55 4.58812 3.06913 0
M  V30 25966 H 2383.02 2.66537 3.19526 0
M  V30 25967 H 2381.9 3.16347 4.48571 0
M  V30 25968 H 2382.16 1.45444 4.17491 0
M  V30 25969 N 2381.22 -0.917649 1.28129 0
M  V30 25970 C 2382.47 -1.66095 1.14435 0
M  V30 25971 C 2382.78 -1.93172 -0.307213 0
M  V30 25972 O 2383.99 -2.65552 -0.565212 0
M  V30 25973 C 2382.44 -2.99199 2.0002 0
M  V30 25974 C 2382.05 -2.79783 3.49893 0
M  V30 25975 C 2383.8 -3.7706 1.95002 0
M  V30 25976 C 2381.7 -4.08503 4.27643 0
M  V30 25977 H 2380.63 -0.623032 0.424673 0
M  V30 25978 H 2383.28 -1.01865 1.52629 0
M  V30 25979 H 2381.67 -3.64542 1.54678 0
M  V30 25980 H 2382.84 -2.23145 4.03166 0
M  V30 25981 H 2381.15 -2.15339 3.56396 0
M  V30 25982 H 2383.75 -4.72465 2.50362 0
M  V30 25983 H 2384.09 -4.05873 0.92589 0
M  V30 25984 H 2384.63 -3.1853 2.38293 0
M  V30 25985 H 2381.37 -3.84865 5.30621 0
M  V30 25986 H 2380.89 -4.64768 3.79145 0
M  V30 25987 H 2382.57 -4.76791 4.37355 0
M  V30 25988 N 2382.7 -1.10314 -1.12555 0
M  V30 25989 C 2384.11 -0.834673 -1.36034 0
M  V30 25990 C 2384.31 0.546505 -1.93947 0
M  V30 25991 O 2383.37 1.29962 -2.16486 0
M  V30 25992 C 2384.68 -1.93335 -2.30309 0
M  V30 25993 C 2386.23 -1.96164 -2.43903 0
M  V30 25994 C 2386.71 -3.05201 -3.41491 0
M  V30 25995 N 2388.2 -3.045 -3.49047 0
M  V30 25996 C 2388.93 -3.8551 -4.24464 0
M  V30 25997 N 2388.43 -4.76451 -5.02957 0
M  V30 25998 N 2390.22 -3.73732 -4.19858 0
M  V30 25999 H 2382.37 -1.99343 -0.733211 0
M  V30 26000 H 2384.63 -0.866204 -0.385219 0
M  V30 26001 H 2384.34 -2.92739 -1.94928 0
M  V30 26002 H 2384.21 -1.81944 -3.30418 0
M  V30 26003 H 2386.6 -0.973935 -2.78565 0
M  V30 26004 H 2386.68 -2.11632 -1.43686 0
M  V30 26005 H 2386.33 -4.04191 -3.07558 0
M  V30 26006 H 2386.26 -2.86976 -4.41534 0
M  V30 26007 H 2388.75 -2.38601 -2.93049 0
M  V30 26008 H 2389.06 -5.34825 -5.57837 0
M  V30 26009 H 2387.41 -4.80481 -5.02158 0
M  V30 26010 H 2390.6 -3.02038 -3.57618 0
M  V30 26011 H 2390.77 -4.37102 -4.78378 0
M  V30 26012 N 2384.18 1.29948 -0.891694 0
M  V30 26013 C 2385.11 2.3039 -0.379838 0
M  V30 26014 C 2386.09 1.61271 0.540891 0
M  V30 26015 O 2387.27 1.88835 0.453319 0
M  V30 26016 C 2384.4 3.44982 0.400593 0
M  V30 26017 C 2383.36 4.25845 -0.42898 0
M  V30 26018 C 2382.68 5.32555 0.478463 0
M  V30 26019 C 2383.98 4.94724 -1.67467 0
M  V30 26020 H 2385.68 2.73452 -1.21919 0
M  V30 26021 H 2383.22 1.31461 -0.587698 0
M  V30 26022 H 2385.17 4.14317 0.769361 0
M  V30 26023 H 2383.9 3.00742 1.27365 0
M  V30 26024 H 2382.56 3.58207 -0.779974 0
M  V30 26025 H 2382.21 4.84561 1.34943 0
M  V30 26026 H 2381.91 5.87555 -0.0728465 0
M  V30 26027 H 2383.43 6.04744 0.843599 0
M  V30 26028 H 2384.84 5.5654 -1.3761 0
M  V30 26029 H 2383.24 5.5962 -2.16668 0
M  V30 26030 H 2384.31 4.20468 -2.41525 0
M  V30 26031 N 2385.65 0.653339 1.4342 0
M  V30 26032 C 2386.62 -0.0287548 2.29182 0
M  V30 26033 C 2387.62 -0.75044 1.42215 0
M  V30 26034 O 2388.81 -0.591672 1.63844 0
M  V30 26035 C 2385.94 -1.05145 3.2428 0
M  V30 26036 H 2387.13 0.725838 2.90984 0
M  V30 26037 H 2384.68 0.414572 1.50702 0
M  V30 26038 H 2385.42 -1.83527 2.67373 0
M  V30 26039 H 2385.2 -0.537619 3.88397 0
M  V30 26040 H 2386.69 -1.52779 3.88649 0
M  V30 26041 N 2387.13 -1.52563 0.395266 0
M  V30 26042 C 2388.55 -1.59535 0.0454962 0
M  V30 26043 C 2388.75 -1.40893 -1.44054 0
M  V30 26044 O 2387.8 -1.22891 -2.20576 0
M  V30 26045 C 2389.12 -2.96028 0.528015 0
M  V30 26046 C 2390.66 -3.09223 0.484788 0
M  V30 26047 C 2391.14 -4.48174 0.943591 0
M  V30 26048 N 2392.63 -4.54375 0.899845 0
M  V30 26049 C 2393.37 -5.60136 1.22619 0
M  V30 26050 N 2392.86 -6.73514 1.62331 0
M  V30 26051 N 2394.65 -5.50272 1.14706 0
M  V30 26052 H 2386.81 -1.62929 1.36264 0
M  V30 26053 H 2389.07 -0.765725 0.5589 0
M  V30 26054 H 2388.77 -3.14905 1.56612 0
M  V30 26055 H 2388.65 -3.77136 -0.0697393 0
M  V30 26056 H 2391.04 -2.90038 -0.544247 0
M  V30 26057 H 2391.12 -2.30054 1.11842 0
M  V30 26058 H 2390.76 -4.68101 1.97088 0
M  V30 26059 H 2390.69 -5.25818 0.286909 0
M  V30 26060 H 2393.18 -3.72982 0.607697 0
M  V30 26061 H 2393.49 -7.50186 1.8558 0
M  V30 26062 H 2391.84 -6.7483 1.66223 0
M  V30 26063 H 2395.03 -4.60578 0.835782 0
M  V30 26064 H 2395.2 -6.32592 1.40471 0
M  V30 26065 N 2388.61 -0.125265 -1.57101 0
M  V30 26066 C 2389.86 0.531061 -1.94583 0
M  V30 26067 C 2390.17 1.67429 -1.01129 0
M  V30 26068 O 2391.38 2.39379 -1.28101 0
M  V30 26069 C 2389.83 0.996103 -3.45841 0
M  V30 26070 C 2389.44 -0.119004 -4.47842 0
M  V30 26071 C 2391.19 1.62345 -3.9223 0
M  V30 26072 C 2389.09 0.363089 -5.90284 0
M  V30 26073 H 2388.02 0.202157 -0.726394 0
M  V30 26074 H 2390.67 -0.206124 -1.82339 0
M  V30 26075 H 2389.06 1.7879 -3.53342 0
M  V30 26076 H 2390.23 -0.895437 -4.52016 0
M  V30 26077 H 2388.54 -0.653396 -4.11242 0
M  V30 26078 H 2391.14 1.99539 -4.96073 0
M  V30 26079 H 2391.48 2.50423 -3.32557 0
M  V30 26080 H 2392.02 0.896951 -3.87556 0
M  V30 26081 H 2388.76 -0.481794 -6.53727 0
M  V30 26082 H 2388.28 1.10587 -5.89517 0
M  V30 26083 H 2389.96 0.822264 -6.41754 0
M  V30 26084 N 2390.09 1.56899 0.148518 0
M  V30 26085 C 2391.34 1.82904 0.859684 0
M  V30 26086 C 2391.66 0.705912 1.81774 0
M  V30 26087 O 2390.93 -0.272552 1.93995 0
M  V30 26088 H 2389.51 0.674771 0.320457 0
M  V30 26089 H 2392.17 1.94376 0.142884 0
M  V30 26090 H 2391.26 2.7778 1.42285 0
M  V30 26091 N 2391.57 -0.417818 1.51961 0
M  V30 26092 C 2392.98 -0.755791 1.4057 0
M  V30 26093 C 2393.18 -1.95112 0.503351 0
M  V30 26094 O 2392.24 -2.52477 -0.0341481 0
M  V30 26095 C 2393.55 -1.01787 2.82949 0
M  V30 26096 C 2395.1 -1.12111 2.92233 0
M  V30 26097 C 2395.57 -1.416 4.35561 0
M  V30 26098 N 2397.06 -1.48483 4.38756 0
M  V30 26099 C 2397.8 -1.7291 5.46708 0
M  V30 26100 N 2397.3 -1.94999 6.64791 0
M  V30 26101 N 2399.09 -1.74854 5.34212 0
M  V30 26102 H 2391.24 0.369135 2.09168 0
M  V30 26103 H 2393.5 0.102825 0.942407 0
M  V30 26104 H 2393.21 -0.212019 3.5106 0
M  V30 26105 H 2393.08 -1.94036 3.23465 0
M  V30 26106 H 2395.47 -1.91756 2.24307 0
M  V30 26107 H 2395.55 -0.17718 2.55186 0
M  V30 26108 H 2395.19 -0.62476 5.04043 0
M  V30 26109 H 2395.12 -2.37231 4.70137 0
M  V30 26110 H 2397.62 -1.33238 3.53633 0
M  V30 26111 H 2397.93 -2.13063 7.42849 0
M  V30 26112 H 2396.27 -1.92281 6.67872 0
M  V30 26113 H 2399.46 -1.57129 4.4094 0
M  V30 26114 H 2399.64 -1.93552 6.18419 0
M  V30 26115 N 2393.04 -1.42436 -0.674508 0
M  V30 26116 C 2394.29 -1.42214 -1.43032 0
M  V30 26117 C 2394.61 -0.0421131 -1.95555 0
M  V30 26118 O 2395.81 0.0827081 -2.71374 0
M  V30 26119 C 2394.27 -2.50159 -2.58744 0
M  V30 26120 C 2393.88 -3.9417 -2.12918 0
M  V30 26121 C 2395.62 -2.59104 -3.36252 0
M  V30 26122 C 2393.53 -4.93623 -3.25714 0
M  V30 26123 H 2392.46 -0.528948 -0.537336 0
M  V30 26124 H 2395.11 -1.68345 -0.73021 0
M  V30 26125 H 2393.49 -2.17194 -3.31124 0
M  V30 26126 H 2394.66 -4.36491 -1.4769 0
M  V30 26127 H 2392.98 -3.89078 -1.48348 0
M  V30 26128 H 2395.58 -3.30586 -4.20258 0
M  V30 26129 H 2395.92 -1.63468 -3.82863 0
M  V30 26130 H 2396.45 -2.91265 -2.70942 0
M  V30 26131 H 2393.19 -5.90737 -2.84095 0
M  V30 26132 H 2392.71 -4.55933 -3.89724 0
M  V30 26133 H 2394.39 -5.15354 -3.91177 0
M  V30 26134 N 2394.52 0.910841 -1.28614 0
M  V30 26135 C 2395.45 2.0303 -1.15329 0
M  V30 26136 C 2396.43 1.70026 -0.0503222 0
M  V30 26137 O 2397.62 1.92859 -0.22783 0
M  V30 26138 C 2394.75 3.37544 -0.817403 0
M  V30 26139 C 2393.7 3.84721 -1.87547 0
M  V30 26140 C 2393.03 5.16232 -1.39314 0
M  V30 26141 C 2394.33 4.06261 -3.28251 0
M  V30 26142 H 2396.02 2.14402 -2.08979 0
M  V30 26143 H 2393.57 1.03019 -1.00614 0
M  V30 26144 H 2395.52 4.15355 -0.711224 0
M  V30 26145 H 2394.24 3.26233 0.154789 0
M  V30 26146 H 2392.9 3.09117 -1.97084 0
M  V30 26147 H 2392.55 5.01327 -0.409934 0
M  V30 26148 H 2392.25 5.48768 -2.10066 0
M  V30 26149 H 2393.78 5.96595 -1.30024 0
M  V30 26150 H 2395.19 4.74588 -3.21619 0
M  V30 26151 H 2393.59 4.50133 -3.96863 0
M  V30 26152 H 2394.66 3.10973 -3.72054 0
M  V30 26153 N 2396 1.10909 1.11969 0
M  V30 26154 C 2397.42 0.841876 1.3559 0
M  V30 26155 C 2397.62 -0.536212 1.94234 0
M  V30 26156 O 2396.67 -1.28812 2.17172 0
M  V30 26157 C 2397.99 1.94553 2.29281 0
M  V30 26158 C 2399.53 1.97455 2.42859 0
M  V30 26159 C 2400.01 3.07008 3.39868 0
M  V30 26160 N 2401.5 3.06347 3.47427 0
M  V30 26161 C 2402.23 3.87755 4.22414 0
M  V30 26162 N 2401.73 4.79112 5.00424 0
M  V30 26163 N 2403.52 3.75954 4.1787 0
M  V30 26164 H 2395.67 1.99729 0.722629 0
M  V30 26165 H 2397.94 0.868235 0.38062 0
M  V30 26166 H 2397.64 2.93769 1.93373 0
M  V30 26167 H 2397.52 1.83694 3.29449 0
M  V30 26168 H 2399.9 0.988694 2.78045 0
M  V30 26169 H 2399.99 2.12391 1.42562 0
M  V30 26170 H 2399.63 4.05816 3.0541 0
M  V30 26171 H 2399.56 2.89313 4.40006 0
M  V30 26172 H 2402.05 2.40152 2.9178 0
M  V30 26173 H 2402.36 5.37776 5.54993 0
M  V30 26174 H 2400.71 4.83137 4.99603 0
M  V30 26175 H 2403.9 3.03931 3.56011 0
M  V30 26176 H 2404.07 4.39633 4.76054 0
M  V30 26177 N 2397.48 -1.29474 0.898573 0
M  V30 26178 C 2398.41 -2.30185 0.392051 0
M  V30 26179 C 2399.39 -1.61556 -0.532331 0
M  V30 26180 O 2400.57 -1.89073 -0.443298 0
M  V30 26181 C 2397.7 -3.4519 -0.382293 0
M  V30 26182 C 2396.66 -4.25611 0.451558 0
M  V30 26183 C 2395.98 -5.32801 -0.450214 0
M  V30 26184 C 2397.28 -4.93829 1.70088 0
M  V30 26185 H 2398.98 -2.72802 1.23367 0
M  V30 26186 H 2396.52 -1.31148 0.594661 0
M  V30 26187 H 2398.48 -4.14719 -0.747378 0
M  V30 26188 H 2397.2 -3.01413 -1.25769 0
M  V30 26189 H 2395.86 -3.57788 0.79896 0
M  V30 26190 H 2395.51 -4.8527 -1.32371 0
M  V30 26191 H 2395.21 -5.87508 0.104005 0
M  V30 26192 H 2396.73 -6.05183 -0.811516 0
M  V30 26193 H 2398.15 -5.55802 1.40559 0
M  V30 26194 H 2396.54 -5.58463 2.19633 0
M  V30 26195 H 2397.61 -4.19182 2.43752 0
M  V30 26196 N 2398.96 -0.660936 -1.43071 0
M  V30 26197 C 2400.2 -0.177743 -2.0202 0
M  V30 26198 C 2400.54 1.20785 -1.52068 0
M  V30 26199 O 2399.81 1.80801 -0.717019 0
M  V30 26200 C 2400.09 -0.197082 -3.5956 0
M  V30 26201 C 2399.95 -1.61714 -4.19725 0
M  V30 26202 C 2401.27 0.462319 -4.37665 0
M  V30 26203 H 2398.38 -0.0660623 -0.734033 0
M  V30 26204 H 2401.03 -0.843088 -1.7027 0
M  V30 26205 H 2399.18 0.369459 -3.86739 0
M  V30 26206 H 2400.85 -2.23486 -4.03549 0
M  V30 26207 H 2399.09 -2.16208 -3.76081 0
M  V30 26208 H 2399.76 -1.58246 -5.28831 0
M  V30 26209 H 2402.24 -0.0197947 -4.16095 0
M  V30 26210 H 2401.11 0.418091 -5.47305 0
M  V30 26211 H 2401.38 1.5377 -4.14496 0
M  V30 26212 N 2400.43 1.52351 -0.403352 0
M  V30 26213 C 2401.38 2.26854 0.424972 0
M  V30 26214 C 2402.35 1.29031 1.04596 0
M  V30 26215 O 2403.54 1.57884 1.07132 0
M  V30 26216 C 2400.68 3.08892 1.53882 0
M  V30 26217 C 2399.79 4.21664 0.939322 0
M  V30 26218 C 2398.92 4.91072 2.02539 0
M  V30 26219 C 2397.96 5.95815 1.40252 0
M  V30 26220 N 2397.1 6.58763 2.42849 0
M  V30 26221 H 2401.94 2.9721 -0.216793 0
M  V30 26222 H 2399.48 1.4662 -0.118747 0
M  V30 26223 H 2401.44 3.54757 2.19552 0
M  V30 26224 H 2400.07 2.40717 2.1507 0
M  V30 26225 H 2399.12 3.80012 0.171831 0
M  V30 26226 H 2400.43 4.96818 0.444273 0
M  V30 26227 H 2399.58 5.40312 2.75948 0
M  V30 26228 H 2398.32 4.15473 2.55408 0
M  V30 26229 H 2397.33 5.459 0.653737 0
M  V30 26230 H 2398.55 6.73353 0.881601 0
M  V30 26231 H 2396.5 5.85998 2.94861 0
M  V30 26232 H 2396.42 7.29573 1.98139 0
M  V30 26233 H 2397.68 7.12644 3.15845 0
M  V30 26234 N 2401.91 0.133594 1.57033 0
M  V30 26235 C 2403.16 -0.519814 1.95301 0
M  V30 26236 C 2403.48 -1.66276 1.01869 0
M  V30 26237 O 2402.75 -1.95746 0.0776857 0
M  V30 26238 H 2401.33 -0.195019 0.721094 0
M  V30 26239 H 2403.99 0.205955 1.93809 0
M  V30 26240 H 2403.09 -0.904801 2.98697 0
M  V30 26241 N 2403.39 -1.56975 -0.140195 0
M  V30 26242 C 2404.35 -1.97863 -1.15685 0
M  V30 26243 C 2405.35 -0.865998 -1.35488 0
M  V30 26244 O 2406.54 -1.13248 -1.32365 0
M  V30 26245 C 2403.68 -2.30047 -2.51578 0
M  V30 26246 H 2404.87 -2.88868 -0.80592 0
M  V30 26247 H 2402.42 -1.51515 -0.383775 0
M  V30 26248 H 2403.16 -1.41854 -2.9163 0
M  V30 26249 H 2402.94 -3.11175 -2.38563 0
M  V30 26250 H 2404.43 -2.62494 -3.24787 0
M  V30 26251 N 2404.87 0.409753 -1.5218 0
M  V30 26252 C 2405.82 1.49921 -1.75478 0
M  V30 26253 C 2406.79 1.54993 -0.597202 0
M  V30 26254 O 2407.97 1.71574 -0.834685 0
M  V30 26255 C 2405.11 2.87375 -1.91076 0
M  V30 26256 C 2404.22 2.91617 -3.18722 0
M  V30 26257 C 2403.36 4.20366 -3.24755 0
M  V30 26258 C 2402.4 4.18581 -4.46606 0
M  V30 26259 N 2401.53 5.389 -4.50034 0
M  V30 26260 H 2406.37 1.29356 -2.6846 0
M  V30 26261 H 2403.91 0.627911 -1.33025 0
M  V30 26262 H 2405.87 3.67167 -1.98102 0
M  V30 26263 H 2404.5 3.06436 -1.01474 0
M  V30 26264 H 2403.55 2.0432 -3.2087 0
M  V30 26265 H 2404.86 2.86162 -4.08549 0
M  V30 26266 H 2404.02 5.0855 -3.3085 0
M  V30 26267 H 2402.76 4.28515 -2.32865 0
M  V30 26268 H 2401.76 3.28787 -4.40658 0
M  V30 26269 H 2402.99 4.12072 -5.3979 0
M  V30 26270 H 2400.93 5.47718 -3.61027 0
M  V30 26271 H 2400.85 5.35438 -5.33706 0
M  V30 26272 H 2402.12 6.2904 -4.60358 0
M  V30 26273 N 2406.35 1.42792 0.666944 0
M  V30 26274 C 2407.59 1.43397 1.42414 0
M  V30 26275 C 2407.92 0.0542716 1.94924 0
M  V30 26276 O 2407.19 -0.908385 1.73566 0
M  V30 26277 H 2405.77 0.527911 0.528506 0
M  V30 26278 H 2408.43 1.78281 0.787531 0
M  V30 26279 H 2407.52 2.13841 2.27329 0
M  V30 26280 N 2407.82 -0.904008 1.29095 0
M  V30 26281 C 2409.07 -1.64872 1.1619 0
M  V30 26282 C 2409.39 -1.93487 -0.286708 0
M  V30 26283 O 2410.59 -2.66136 -0.537015 0
M  V30 26284 C 2409.05 -2.9706 2.03183 0
M  V30 26285 C 2408.66 -2.76056 3.52841 0
M  V30 26286 C 2410.4 -3.74971 1.98991 0
M  V30 26287 C 2408.31 -4.03945 4.31952 0
M  V30 26288 H 2407.24 -0.618493 0.431257 0
M  V30 26289 H 2409.89 -1.00241 1.53701 0
M  V30 26290 H 2408.27 -3.62881 1.58536 0
M  V30 26291 H 2409.44 -2.18856 4.0551 0
M  V30 26292 H 2407.76 -2.11547 3.5866 0
M  V30 26293 H 2410.36 -4.69783 2.55359 0
M  V30 26294 H 2410.7 -4.04868 0.968886 0
M  V30 26295 H 2411.23 -3.15985 2.41658 0
M  V30 26296 H 2407.97 -3.79215 5.34674 0
M  V30 26297 H 2407.49 -4.6072 3.84053 0
M  V30 26298 H 2409.17 -4.72126 4.42387 0
M  V30 26299 N 2409.3 -1.11501 -1.11379 0
M  V30 26300 C 2410.72 -0.849054 -1.35142 0
M  V30 26301 C 2410.92 0.525904 -1.94516 0
M  V30 26302 O 2409.97 1.27659 -2.17852 0
M  V30 26303 C 2411.29 -1.95766 -2.28246 0
M  V30 26304 C 2412.84 -1.9874 -2.41808 0
M  V30 26305 C 2413.31 -3.08806 -3.38235 0
M  V30 26306 N 2414.8 -3.08185 -3.45798 0
M  V30 26307 C 2415.54 -3.8999 -4.20352 0
M  V30 26308 N 2415.03 -4.81759 -4.97876 0
M  V30 26309 N 2416.83 -3.78165 -4.1587 0
M  V30 26310 H 2408.98 -2.0011 -0.712027 0
M  V30 26311 H 2411.24 -0.870242 -0.37601 0
M  V30 26312 H 2410.95 -2.9479 -1.91812 0
M  V30 26313 H 2410.82 -1.85439 -3.2847 0
M  V30 26314 H 2413.21 -1.00343 -2.77516 0
M  V30 26315 H 2413.29 -2.13144 -1.41434 0
M  V30 26316 H 2412.93 -4.0743 -3.03254 0
M  V30 26317 H 2412.86 -2.91643 -4.38466 0
M  V30 26318 H 2415.35 -2.41696 -2.90502 0
M  V30 26319 H 2415.67 -5.40712 -5.52133 0
M  V30 26320 H 2414.01 -4.8578 -4.97034 0
M  V30 26321 H 2417.2 -3.05814 -3.54394 0
M  V30 26322 H 2417.37 -4.42151 -4.73716 0
M  V30 26323 N 2410.78 1.28995 -0.905426 0
M  V30 26324 C 2412.01 1.99459 -0.549881 0
M  V30 26325 C 2412.42 1.67726 0.866804 0
M  V30 26326 O 2411.78 0.925432 1.57296 0
M  V30 26327 C 2411.83 3.53856 -0.739449 0
M  V30 26328 O 2411.55 3.84468 -2.10038 0
M  V30 26329 C 2413.05 4.41584 -0.389619 0
M  V30 26330 H 2410.27 0.637147 -0.21044 0
M  V30 26331 H 2412.82 1.64394 -1.21635 0
M  V30 26332 H 2410.97 3.87214 -0.120091 0
M  V30 26333 H 2411.39 4.79128 -2.13393 0
M  V30 26334 H 2412.86 5.49017 -0.573068 0
M  V30 26335 H 2413.34 4.34003 0.67368 0
M  V30 26336 H 2413.94 4.13709 -0.986162 0
M  V30 26337 N 2412.26 0.668514 1.42719 0
M  V30 26338 C 2413.19 0.000141219 2.335 0
M  V30 26339 C 2414.17 -0.795938 1.50329 0
M  V30 26340 O 2415.36 -0.754353 1.7895 0
M  V30 26341 C 2412.49 -0.956243 3.33876 0
M  V30 26342 C 2411.44 -0.269203 4.27153 0
M  V30 26343 C 2410.77 -1.33809 5.17686 0
M  V30 26344 C 2412.07 0.847896 5.15372 0
M  V30 26345 H 2413.76 0.758295 2.89638 0
M  V30 26346 H 2411.31 0.366104 1.39268 0
M  V30 26347 H 2413.26 -1.43285 3.96292 0
M  V30 26348 H 2411.98 -1.74574 2.76028 0
M  V30 26349 H 2410.64 0.187106 3.66122 0
M  V30 26350 H 2410.29 -2.11942 4.56168 0
M  V30 26351 H 2409.99 -0.883557 5.80919 0
M  V30 26352 H 2411.51 -1.81576 5.82977 0
M  V30 26353 H 2412.93 0.452782 5.71509 0
M  V30 26354 H 2411.32 1.22784 5.87405 0
M  V30 26355 H 2412.39 1.69937 4.54147 0
M  V30 26356 N 2413.74 -1.52135 0.411426 0
M  V30 26357 C 2414.67 -2.29979 -0.403974 0
M  V30 26358 C 2415.65 -1.34286 -1.0441 0
M  V30 26359 O 2416.83 -1.63194 -1.05268 0
M  V30 26360 C 2413.96 -3.12288 -1.51965 0
M  V30 26361 C 2412.92 -4.16048 -1.0044 0
M  V30 26362 C 2412.24 -4.86716 -2.21385 0
M  V30 26363 C 2413.54 -5.22269 -0.0568418 0
M  V30 26364 H 2415.24 -2.98391 0.245581 0
M  V30 26365 H 2412.78 -1.43503 0.11955 0
M  V30 26366 H 2414.74 -3.65514 -2.09708 0
M  V30 26367 H 2413.46 -2.41649 -2.19711 0
M  V30 26368 H 2412.12 -3.63836 -0.449357 0
M  V30 26369 H 2411.77 -4.12605 -2.87692 0
M  V30 26370 H 2411.47 -5.56861 -1.87561 0
M  V30 26371 H 2412.99 -5.42755 -2.7973 0
M  V30 26372 H 2414.41 -5.70721 -0.54315 0
M  V30 26373 H 2412.8 -5.99791 0.1927 0
M  V30 26374 H 2413.87 -4.76704 0.887747 0
M  V30 26375 N 2415.22 -0.14192 -1.5696 0
M  V30 26376 C 2416.46 0.510458 -1.95961 0
M  V30 26377 C 2416.79 1.65206 -1.02651 0
M  V30 26378 O 2416.05 1.95623 -0.0547291 0
M  V30 26379 C 2416.34 1.06243 -3.41244 0
M  V30 26380 C 2416.01 0.0397998 -4.50882 0
M  V30 26381 C 2414.67 -0.241332 -4.80594 0
M  V30 26382 C 2417.02 -0.655871 -5.17057 0
M  V30 26383 C 2414.35 -1.22403 -5.7379 0
M  V30 26384 C 2416.7 -1.62735 -6.1131 0
M  V30 26385 C 2415.37 -1.91623 -6.39403 0
M  V30 26386 H 2414.64 0.18679 -0.717071 0
M  V30 26387 H 2417.29 -0.227677 -1.90142 0
M  V30 26388 H 2415.59 1.87779 -3.43869 0
M  V30 26389 H 2417.29 1.57569 -3.68745 0
M  V30 26390 H 2413.88 0.269099 -4.27754 0
M  V30 26391 H 2418.06 -0.451866 -4.94239 0
M  V30 26392 H 2413.32 -1.45434 -5.93851 0
M  V30 26393 H 2417.49 -2.17195 -6.61664 0
M  V30 26394 H 2415.12 -2.67922 -7.11422 0
M  V30 26395 N 2416.69 1.57047 0.131868 0
M  V30 26396 C 2417.66 1.98473 1.14634 0
M  V30 26397 C 2418.66 0.873171 1.35027 0
M  V30 26398 O 2419.85 1.13949 1.31762 0
M  V30 26399 C 2416.98 2.31378 2.50354 0
M  V30 26400 H 2418.17 2.89292 0.790589 0
M  V30 26401 H 2415.72 1.51717 0.375734 0
M  V30 26402 H 2416.46 1.43398 2.90873 0
M  V30 26403 H 2416.24 3.12436 2.3691 0
M  V30 26404 H 2417.73 2.64213 3.23391 0
M  V30 26405 N 2418.17 -0.401677 1.52395 0
M  V30 26406 C 2419.1 -1.49658 1.79234 0
M  V30 26407 C 2420.08 -1.57451 0.643682 0
M  V30 26408 O 2421.27 -1.72604 0.89002 0
M  V30 26409 C 2418.4 -2.87405 1.94976 0
M  V30 26410 C 2417.35 -2.94459 3.10609 0
M  V30 26411 C 2416.68 -4.34533 3.11585 0
M  V30 26412 C 2417.98 -2.65262 4.49926 0
M  V30 26413 H 2419.67 -1.27449 2.70919 0
M  V30 26414 H 2417.22 -0.611677 1.30363 0
M  V30 26415 H 2419.17 -3.63995 2.12334 0
M  V30 26416 H 2417.89 -3.10924 0.999687 0
M  V30 26417 H 2416.55 -2.20316 2.93013 0
M  V30 26418 H 2416.2 -4.55072 2.14285 0
M  V30 26419 H 2415.9 -4.40176 3.89255 0
M  V30 26420 H 2417.43 -5.13047 3.31082 0
M  V30 26421 H 2418.84 -3.31573 4.67689 0
M  V30 26422 H 2417.24 -2.82271 5.29569 0
M  V30 26423 H 2418.31 -1.60663 4.5751 0
M  V30 26424 N 2419.65 -1.43144 -0.659362 0
M  V30 26425 C 2420.58 -1.4227 -1.78422 0
M  V30 26426 C 2421.56 -0.284922 -1.60084 0
M  V30 26427 O 2422.74 -0.477559 -1.8235 0
M  V30 26428 C 2419.87 -1.22839 -3.1564 0
M  V30 26429 C 2418.92 -2.39812 -3.52693 0
M  V30 26430 S 2419.75 -4.0236 -3.53365 0
M  V30 26431 C 2420.91 -3.853 -4.93249 0
M  V30 26432 H 2421.14 -2.37455 -1.78893 0
M  V30 26433 H 2418.67 -1.30101 -0.831447 0
M  V30 26434 H 2420.63 -1.12315 -3.94836 0
M  V30 26435 H 2419.29 -0.292125 -3.12739 0
M  V30 26436 H 2418.48 -2.22004 -4.52471 0
M  V30 26437 H 2418.09 -2.4693 -2.80894 0
M  V30 26438 H 2420.38 -3.47245 -5.81745 0
M  V30 26439 H 2421.32 -4.84808 -5.16107 0
M  V30 26440 H 2421.73 -3.17873 -4.66495 0
M  V30 26441 N 2421.13 0.897149 -1.29572 0
M  V30 26442 C 2422.06 2.00352 -1.09244 0
M  V30 26443 C 2423.04 1.626 -0.00356869 0
M  V30 26444 O 2424.22 1.87864 -0.154763 0
M  V30 26445 C 2421.35 3.32136 -0.663578 0
M  V30 26446 C 2420.4 3.88875 -1.75153 0
M  V30 26447 S 2421.23 4.17668 -3.35132 0
M  V30 26448 C 2422.38 5.52489 -2.9412 0
M  V30 26449 H 2422.62 2.17289 -2.02911 0
M  V30 26450 H 2420.15 1.04406 -1.13748 0
M  V30 26451 H 2422.11 4.08316 -0.422863 0
M  V30 26452 H 2420.77 3.13075 0.253533 0
M  V30 26453 H 2419.96 4.84065 -1.40346 0
M  V30 26454 H 2419.56 3.19391 -1.9459 0
M  V30 26455 H 2421.86 6.33063 -2.41323 0
M  V30 26456 H 2422.8 5.92224 -3.88171 0
M  V30 26457 H 2423.21 5.14469 -2.32341 0
M  V30 26458 N 2422.61 1.1209 1.10786 0
M  V30 26459 C 2423.83 0.896981 1.87 0
M  V30 26460 C 2424.26 -0.548229 1.79933 0
M  V30 26461 O 2423.61 -1.38777 1.16665 0
M  V30 26462 C 2423.66 1.3718 3.33488 0
M  V30 26463 O 2422.77 0.547903 4.08744 0
M  V30 26464 H 2422.11 0.322555 0.580391 0
M  V30 26465 H 2424.64 1.49208 1.39993 0
M  V30 26466 H 2424.65 1.36928 3.84337 0
M  V30 26467 H 2423.32 2.42414 3.37947 0
M  V30 26468 H 2421.9 0.617098 3.67758 0
M  V30 26469 N 2424.08 -1.28513 0.912254 0
M  V30 26470 C 2425.01 -2.29756 0.416443 0
M  V30 26471 C 2425.99 -1.62111 -0.515166 0
M  V30 26472 O 2427.18 -1.89532 -0.423219 0
M  V30 26473 C 2424.31 -3.45576 -0.345659 0
M  V30 26474 C 2423.26 -4.25108 0.496674 0
M  V30 26475 C 2422.59 -5.33249 -0.393678 0
M  V30 26476 C 2423.89 -4.91998 1.75316 0
M  V30 26477 H 2425.58 -2.71478 1.26254 0
M  V30 26478 H 2423.13 -1.3051 0.608538 0
M  V30 26479 H 2425.08 -4.15489 -0.703349 0
M  V30 26480 H 2423.81 -3.0273 -1.22565 0
M  V30 26481 H 2422.47 -3.5692 0.836863 0
M  V30 26482 H 2422.11 -4.86647 -1.27217 0
M  V30 26483 H 2421.81 -5.87365 0.166312 0
M  V30 26484 H 2423.34 -6.0601 -0.747283 0
M  V30 26485 H 2424.75 -5.5428 1.46446 0
M  V30 26486 H 2423.15 -5.56102 2.25544 0
M  V30 26487 H 2424.22 -4.16573 2.48184 0
M  V30 26488 N 2425.56 -0.676073 -1.42362 0
M  V30 26489 C 2426.97 -0.27598 -1.84649 0
M  V30 26490 C 2427.32 1.18212 -1.5659 0
M  V30 26491 O 2426.45 1.90512 -1.02637 0
M  V30 26492 C 2427.04 -0.494112 -3.35178 0
M  V30 26493 C 2425.6 -0.148127 -3.76108 0
M  V30 26494 C 2424.75 -0.785938 -2.65929 0
M  V30 26495 H 2427.7 -0.878144 -1.3219 0
M  V30 26496 H 2427.72 0.253363 -3.79656 0
M  V30 26497 H 2427.23 -1.55541 -3.55568 0
M  V30 26498 H 2425.34 0.909678 -3.61325 0
M  V30 26499 H 2425.45 -0.589538 -4.75459 0
M  V30 26500 H 2423.81 -0.217158 -2.53773 0
M  V30 26501 H 2424.6 -1.85072 -2.89142 0
M  V30 26502 N 2427.04 1.51915 -0.419488 0
M  V30 26503 C 2428 2.25874 0.389076 0
M  V30 26504 C 2429 1.28632 0.964901 0
M  V30 26505 O 2430.19 1.52491 0.842152 0
M  V30 26506 C 2427.33 3.03691 1.54869 0
M  V30 26507 H 2428.52 2.98781 -0.258851 0
M  V30 26508 H 2426.07 1.55348 -0.172236 0
M  V30 26509 H 2426.81 2.35158 2.23318 0
M  V30 26510 H 2426.59 3.75096 1.14217 0
M  V30 26511 H 2428.08 3.59762 2.1204 0
M  V30 26512 N 2428.52 0.150242 1.56882 0
M  V30 26513 C 2429.45 -0.784245 2.19936 0
M  V30 26514 C 2430.43 -1.25467 1.14856 0
M  V30 26515 O 2431.61 -1.31165 1.43211 0
M  V30 26516 C 2428.74 -2.02224 2.82352 0
M  V30 26517 C 2427.7 -1.68846 3.93287 0
M  V30 26518 C 2427.02 -2.99936 4.42654 0
M  V30 26519 C 2428.32 -0.932623 5.13906 0
M  V30 26520 H 2430.02 -0.258729 2.9828 0
M  V30 26521 H 2427.56 -0.123004 1.43474 0
M  V30 26522 H 2429.52 -2.68082 3.25131 0
M  V30 26523 H 2428.24 -2.57154 2.01345 0
M  V30 26524 H 2426.9 -1.05365 3.51132 0
M  V30 26525 H 2426.55 -3.52863 3.58464 0
M  V30 26526 H 2426.25 -2.78365 5.17481 0
M  V30 26527 H 2427.77 -3.66859 4.88105 0
M  V30 26528 H 2429.19 -1.49336 5.53509 0
M  V30 26529 H 2427.58 -0.816735 5.94516 0
M  V30 26530 H 2428.65 0.0750421 4.84842 0
M  V30 26531 N 2430 -1.57115 -0.123538 0
M  V30 26532 C 2431.24 -1.84613 -0.832121 0
M  V30 26533 C 2431.57 -0.734659 -1.80092 0
M  V30 26534 O 2430.83 0.274386 -1.93767 0
M  V30 26535 C 2431.13 -3.18571 -1.6201 0
M  V30 26536 C 2430.79 -4.43818 -0.796006 0
M  V30 26537 C 2429.45 -4.77827 -0.568732 0
M  V30 26538 C 2431.81 -5.2073 -0.221273 0
M  V30 26539 C 2429.13 -5.86194 0.243602 0
M  V30 26540 C 2431.49 -6.29952 0.578228 0
M  V30 26541 C 2430.15 -6.62495 0.815861 0
M  V30 26542 H 2429.42 -0.675547 -0.304495 0
M  V30 26543 H 2432.07 -1.91266 -0.0946912 0
M  V30 26544 H 2430.37 -3.07474 -2.42831 0
M  V30 26545 H 2432.07 -3.37067 -2.17225 0
M  V30 26546 H 2428.66 -4.1717 -0.983234 0
M  V30 26547 H 2432.84 -4.94812 -0.384086 0
M  V30 26548 H 2428.1 -6.09836 0.436978 0
M  V30 26549 H 2432.27 -6.88732 1.03058 0
M  V30 26550 H 2429.9 -7.46299 1.44715 0
M  V30 26551 N 2431.47 0.393589 -1.52606 0
M  V30 26552 C 2432.42 1.50096 -1.77691 0
M  V30 26553 C 2433.42 1.56655 -0.644643 0
M  V30 26554 O 2434.62 1.59876 -0.827025 0
M  V30 26555 H 2431 0.499472 -0.562167 0
M  V30 26556 H 2432.97 1.26131 -2.70432 0
M  V30 26557 C 2431.72 2.87286 -1.95863 0
M  V30 26558 H 2431.04 2.82987 -2.82415 0
M  V30 26559 H 2432.48 3.6402 -2.17406 0
M  V30 26560 C 2430.94 3.28898 -0.729906 0
M  V30 26561 O 2431.47 4.01588 0.0948511 0
M  V30 26562 N 2429.68 2.85127 -0.561333 0
M  V30 26563 H 2429.22 2.26141 -1.23361 0
M  V30 26564 H 2429.18 3.13328 0.259445 0
M  V30 26565 N 2432.95 1.43492 0.651762 0
M  V30 26566 C 2434.2 1.44472 1.40751 0
M  V30 26567 C 2434.51 0.0732189 1.95463 0
M  V30 26568 O 2435.72 -0.0395244 2.71471 0
M  V30 26569 C 2434.18 2.54244 2.54731 0
M  V30 26570 C 2433.78 3.97507 2.06621 0
M  V30 26571 C 2435.53 2.6442 3.32088 0
M  V30 26572 C 2433.44 4.98743 3.1782 0
M  V30 26573 H 2432.37 0.53743 0.528853 0
M  V30 26574 H 2435.02 1.69486 0.703335 0
M  V30 26575 H 2433.4 2.22434 3.27626 0
M  V30 26576 H 2434.57 4.38785 1.40727 0
M  V30 26577 H 2432.89 3.91389 1.42139 0
M  V30 26578 H 2435.48 3.3723 4.14946 0
M  V30 26579 H 2435.83 1.69538 3.80214 0
M  V30 26580 H 2436.36 2.95539 2.66274 0
M  V30 26581 H 2433.1 5.95182 2.74661 0
M  V30 26582 H 2432.62 4.62076 3.82421 0
M  V30 26583 H 2434.3 5.21512 3.82928 0
M  V30 26584 N 2434.43 -0.890264 1.30046 0
M  V30 26585 C 2435.68 -1.63837 1.1833 0
M  V30 26586 C 2436 -1.93213 -0.263421 0
M  V30 26587 O 2435.27 -1.56485 -1.17853 0
M  V30 26588 H 2433.85 -0.607316 0.434944 0
M  V30 26589 H 2436.51 -1.06695 1.63101 0
M  V30 26590 H 2435.61 -2.59076 1.74029 0
M  V30 26591 N 2435.91 -1.12676 -1.1019 0
M  V30 26592 C 2436.84 -0.8194 -2.18651 0
M  V30 26593 C 2437.82 0.217886 -1.68699 0
M  V30 26594 O 2439 0.078524 -1.94041 0
M  V30 26595 C 2436.13 -0.276001 -3.46202 0
M  V30 26596 C 2435.09 -1.24664 -4.09442 0
M  V30 26597 C 2434.41 -0.563352 -5.31724 0
M  V30 26598 C 2435.71 -2.60225 -4.52858 0
M  V30 26599 H 2437.41 -1.72632 -2.44619 0
M  V30 26600 H 2434.95 -0.831472 -1.17569 0
M  V30 26601 H 2436.91 -0.048689 -4.21372 0
M  V30 26602 H 2435.63 0.666275 -3.19732 0
M  V30 26603 H 2434.29 -1.4598 -3.36282 0
M  V30 26604 H 2433.94 0.384147 -5.01531 0
M  V30 26605 H 2433.64 -1.21085 -5.74989 0
M  V30 26606 H 2435.16 -0.345137 -6.09624 0
M  V30 26607 H 2436.58 -2.42922 -5.1929 0
M  V30 26608 H 2434.97 -3.21077 -5.06981 0
M  V30 26609 H 2436.04 -3.18478 -3.6565 0
M  V30 26610 N 2437.39 1.28028 -0.919057 0
M  V30 26611 C 2438.32 2.29532 -0.428622 0
M  V30 26612 C 2439.3 1.62382 0.506561 0
M  V30 26613 O 2440.48 1.89754 0.413162 0
M  V30 26614 C 2437.61 3.45754 0.327328 0
M  V30 26615 C 2436.57 4.24839 -0.519212 0
M  V30 26616 C 2435.89 5.3345 0.365393 0
M  V30 26617 C 2437.19 4.91061 -1.77923 0
M  V30 26618 H 2438.89 2.70805 -1.27692 0
M  V30 26619 H 2436.43 1.30185 -0.615451 0
M  V30 26620 H 2438.39 4.15856 0.681305 0
M  V30 26621 H 2437.11 3.03376 1.20957 0
M  V30 26622 H 2435.77 3.56472 -0.855779 0
M  V30 26623 H 2435.42 4.87314 1.24634 0
M  V30 26624 H 2435.12 5.87268 -0.197459 0
M  V30 26625 H 2436.64 6.06398 0.715134 0
M  V30 26626 H 2438.05 5.53496 -1.49384 0
M  V30 26627 H 2436.45 5.54898 -2.2849 0
M  V30 26628 H 2437.52 4.15251 -2.50389 0
M  V30 26629 N 2438.86 0.683613 1.42002 0
M  V30 26630 C 2439.79 0.024907 2.33487 0
M  V30 26631 C 2440.78 -0.779948 1.51165 0
M  V30 26632 O 2441.96 -0.735331 1.7974 0
M  V30 26633 C 2439.09 -0.920777 3.34872 0
M  V30 26634 C 2438.04 -0.223883 4.27414 0
M  V30 26635 C 2437.37 -1.28311 5.19076 0
M  V30 26636 C 2438.67 0.90251 5.14443 0
M  V30 26637 H 2440.36 0.788972 2.88818 0
M  V30 26638 H 2437.91 0.380854 1.38872 0
M  V30 26639 H 2439.86 -1.39074 3.97789 0
M  V30 26640 H 2438.59 -1.71637 2.77864 0
M  V30 26641 H 2437.25 0.225928 3.65903 0
M  V30 26642 H 2436.89 -2.07092 4.58391 0
M  V30 26643 H 2436.59 -0.821893 5.81824 0
M  V30 26644 H 2438.12 -1.75382 5.8487 0
M  V30 26645 H 2439.53 0.513372 5.70997 0
M  V30 26646 H 2437.93 1.29007 5.86069 0
M  V30 26647 H 2439 1.74745 4.52319 0
M  V30 26648 N 2440.34 -1.5169 0.427538 0
M  V30 26649 C 2441.59 -2.02 -0.142193 0
M  V30 26650 C 2441.92 -1.31224 -1.43564 0
M  V30 26651 O 2441.17 -0.412777 -1.91297 0
M  V30 26652 C 2441.47 -3.54945 -0.418187 0
M  V30 26653 C 2441.14 -4.43956 0.788265 0
M  V30 26654 C 2439.8 -4.68005 1.11915 0
M  V30 26655 C 2442.15 -4.96241 1.59356 0
M  V30 26656 C 2439.48 -5.41585 2.25617 0
M  V30 26657 C 2441.83 -5.71067 2.7215 0
M  V30 26658 C 2440.5 -5.93382 3.05703 0
M  V30 26659 H 2439.77 -0.739171 -0.0520321 0
M  V30 26660 H 2442.41 -1.82735 0.572729 0
M  V30 26661 H 2440.72 -3.72488 -1.21489 0
M  V30 26662 H 2442.42 -3.91398 -0.87227 0
M  V30 26663 H 2439.01 -4.25429 0.520419 0
M  V30 26664 H 2443.19 -4.77554 1.35114 0
M  V30 26665 H 2438.45 -5.57079 2.51939 0
M  V30 26666 H 2442.62 -6.10572 3.34925 0
M  V30 26667 H 2440.25 -6.50177 3.93922 0
M  V30 26668 N 2441.82 -0.15856 -1.568 0
M  V30 26669 C 2442.75 0.77257 -2.20349 0
M  V30 26670 C 2443.73 1.24857 -1.1552 0
M  V30 26671 O 2444.92 1.30404 -1.43905 0
M  V30 26672 C 2442.05 2.00724 -2.83421 0
M  V30 26673 C 2441 1.66758 -3.94177 0
M  V30 26674 C 2440.33 2.97584 -4.44238 0
M  V30 26675 C 2441.63 0.905357 -5.14393 0
M  V30 26676 H 2443.32 0.242906 -2.98413 0
M  V30 26677 H 2440.87 0.115393 -1.43537 0
M  V30 26678 H 2442.82 2.66354 -3.26548 0
M  V30 26679 H 2441.54 2.56082 -2.02705 0
M  V30 26680 H 2440.2 1.03502 -3.51686 0
M  V30 26681 H 2439.85 3.50957 -3.60331 0
M  V30 26682 H 2439.55 2.75617 -5.1895 0
M  V30 26683 H 2441.08 3.64266 -4.90044 0
M  V30 26684 H 2442.49 1.46398 -5.54293 0
M  V30 26685 H 2440.89 0.785195 -5.94941 0
M  V30 26686 H 2441.96 -0.100753 -4.84795 0
M  V30 26687 N 2443.3 1.57178 0.115204 0
M  V30 26688 C 2444.55 1.85326 0.823537 0
M  V30 26689 C 2444.88 0.744845 1.79348 0
M  V30 26690 O 2444.15 -0.24899 1.929 0
M  V30 26691 C 2444.44 3.24068 1.57008 0
M  V30 26692 C 2444.29 4.45514 0.619486 0
M  V30 26693 C 2445.61 3.60433 2.52539 0
M  V30 26694 H 2442.73 0.674094 0.297936 0
M  V30 26695 H 2445.37 1.89798 0.0876805 0
M  V30 26696 H 2443.52 3.20387 2.19737 0
M  V30 26697 H 2445.19 4.613 0.000756553 0
M  V30 26698 H 2443.43 4.33746 -0.0686937 0
M  V30 26699 H 2444.11 5.39272 1.17856 0
M  V30 26700 H 2446.58 3.6493 1.99914 0
M  V30 26701 H 2445.46 4.58482 3.01803 0
M  V30 26702 H 2445.72 2.88052 3.35378 0
M  V30 26703 N 2444.78 -0.38549 1.52813 0
M  V30 26704 C 2445.71 -1.49286 1.72595 0
M  V30 26705 C 2446.69 -1.52137 0.573846 0
M  V30 26706 O 2447.87 -1.7049 0.80407 0
M  V30 26707 C 2445 -2.87738 1.78674 0
M  V30 26708 C 2444.05 -3.02698 3.0046 0
M  V30 26709 S 2444.88 -2.7353 4.60371 0
M  V30 26710 C 2446.03 -4.14169 4.6927 0
M  V30 26711 H 2446.27 -1.32281 2.6625 0
M  V30 26712 H 2443.8 -0.578586 1.43149 0
M  V30 26713 H 2445.76 -3.67521 1.82862 0
M  V30 26714 H 2444.42 -3.02067 0.861054 0
M  V30 26715 H 2443.61 -4.04049 3.01265 0
M  V30 26716 H 2443.21 -2.30812 2.94282 0
M  V30 26717 H 2445.51 -5.08145 4.48101 0
M  V30 26718 H 2446.45 -4.18378 5.71284 0
M  V30 26719 H 2446.86 -4.00242 3.98079 0
M  V30 26720 N 2446.26 -1.43835 -0.644143 0
M  V30 26721 C 2447.5 -1.45932 -1.40392 0
M  V30 26722 C 2447.83 -0.0869999 -1.94305 0
M  V30 26723 O 2447.09 0.909347 -1.7329 0
M  V30 26724 C 2447.38 -2.45636 -2.59611 0
M  V30 26725 C 2447.05 -3.91288 -2.24063 0
M  V30 26726 C 2445.71 -4.30956 -2.14081 0
M  V30 26727 C 2448.06 -4.83037 -1.95766 0
M  V30 26728 C 2445.39 -5.60313 -1.73971 0
M  V30 26729 C 2447.74 -6.12769 -1.57152 0
M  V30 26730 C 2446.41 -6.51404 -1.45702 0
M  V30 26731 H 2445.68 -0.534005 -0.513732 0
M  V30 26732 H 2448.33 -1.7697 -0.731693 0
M  V30 26733 H 2446.63 -2.08034 -3.32008 0
M  V30 26734 H 2448.33 -2.4451 -3.1783 0
M  V30 26735 H 2444.92 -3.59899 -2.32746 0
M  V30 26736 H 2449.1 -4.53156 -2.02395 0
M  V30 26737 H 2444.36 -5.89078 -1.63699 0
M  V30 26738 H 2448.53 -6.83329 -1.34291 0
M  V30 26739 H 2446.16 -7.51544 -1.14393 0
M  V30 26740 N 2447.73 0.883355 -1.30517 0
M  V30 26741 C 2448.98 1.63003 -1.18798 0
M  V30 26742 C 2449.3 1.93919 0.255889 0
M  V30 26743 O 2450.5 2.66957 0.494607 0
M  V30 26744 C 2448.96 2.9379 -2.07883 0
M  V30 26745 C 2448.57 2.70408 -3.57188 0
M  V30 26746 C 2450.31 3.71757 -2.04931 0
M  V30 26747 C 2448.22 3.97022 -4.38324 0
M  V30 26748 H 2447.15 0.611554 -0.441042 0
M  V30 26749 H 2449.8 0.977826 -1.55277 0
M  V30 26750 H 2448.18 3.60313 -1.64289 0
M  V30 26751 H 2449.35 2.12377 -4.08941 0
M  V30 26752 H 2447.67 2.05814 -3.6198 0
M  V30 26753 H 2450.27 4.65661 -2.628 0
M  V30 26754 H 2450.61 4.03276 -1.03317 0
M  V30 26755 H 2451.14 3.121 -2.46654 0
M  V30 26756 H 2447.88 3.70661 -5.40639 0
M  V30 26757 H 2447.4 4.54552 -3.91334 0
M  V30 26758 H 2449.08 4.65028 -4.49842 0
M  V30 26759 N 2449.21 1.13259 1.09591 0
M  V30 26760 C 2450.44 0.915081 1.85229 0
M  V30 26761 C 2450.85 -0.539467 1.81346 0
M  V30 26762 O 2450.19 -1.38511 1.20666 0
M  V30 26763 C 2450.25 1.32296 3.34272 0
M  V30 26764 C 2449.92 2.79059 3.61905 0
M  V30 26765 C 2450.92 3.77222 3.5777 0
M  V30 26766 C 2448.6 3.16178 3.90304 0
M  V30 26767 C 2450.59 5.10517 3.81643 0
M  V30 26768 C 2448.28 4.49652 4.13832 0
M  V30 26769 C 2449.28 5.4663 4.09493 0
M  V30 26770 O 2448.97 6.77697 4.32414 0
M  V30 26771 H 2448.7 0.326378 0.591991 0
M  V30 26772 H 2451.25 1.50856 1.39397 0
M  V30 26773 H 2449.48 0.672734 3.80803 0
M  V30 26774 H 2451.17 1.07819 3.91318 0
M  V30 26775 H 2451.94 3.49891 3.35859 0
M  V30 26776 H 2447.82 2.41296 3.92807 0
M  V30 26777 H 2451.36 5.86201 3.78172 0
M  V30 26778 H 2447.26 4.76708 4.35224 0
M  V30 26779 H 2448.03 6.83774 4.49884 0
M  V30 26780 N 2450.69 -1.27539 0.925834 0
M  V30 26781 C 2451.65 -2.25165 0.428168 0
M  V30 26782 C 2452.65 -1.5431 -0.452234 0
M  V30 26783 O 2453.84 -1.72344 -0.253578 0
M  V30 26784 C 2450.97 -3.38723 -0.384689 0
M  V30 26785 H 2452.17 -2.70704 1.29071 0
M  V30 26786 H 2449.72 -1.39429 0.706347 0
M  V30 26787 H 2450.46 -2.98563 -1.26613 0
M  V30 26788 H 2450.24 -3.91324 0.246523 0
M  V30 26789 H 2451.73 -4.11288 -0.723317 0
M  V30 26790 N 2452.17 -0.691135 -1.41637 0
M  V30 26791 C 2453.42 -0.217353 -2.00525 0
M  V30 26792 C 2453.73 1.18846 -1.55355 0
M  V30 26793 O 2454.94 1.75947 -2.06772 0
M  V30 26794 C 2453.39 -0.337702 -3.58312 0
M  V30 26795 C 2453 -1.7486 -4.12466 0
M  V30 26796 C 2454.74 0.076532 -4.24431 0
M  V30 26797 C 2452.65 -1.82084 -5.62672 0
M  V30 26798 H 2451.58 -0.0775025 -0.750006 0
M  V30 26799 H 2454.23 -0.858689 -1.62169 0
M  V30 26800 H 2452.61 0.371809 -3.94251 0
M  V30 26801 H 2453.79 -2.48651 -3.87955 0
M  V30 26802 H 2452.1 -2.11212 -3.58857 0
M  V30 26803 H 2454.7 0.0429344 -5.34683 0
M  V30 26804 H 2455.04 1.11453 -4.01103 0
M  V30 26805 H 2455.58 -0.582545 -3.93511 0
M  V30 26806 H 2452.31 -2.83921 -5.90821 0
M  V30 26807 H 2451.83 -1.12671 -5.89122 0
M  V30 26808 H 2453.51 -1.5817 -6.27368 0
M  V30 26809 N 2453.65 1.51461 -0.435577 0
M  V30 26810 C 2454.89 2.02073 0.131479 0
M  V30 26811 C 2455.22 1.31983 1.42866 0
M  V30 26812 O 2454.48 0.422917 1.91076 0
M  V30 26813 C 2454.77 3.55162 0.399357 0
M  V30 26814 C 2454.44 4.43532 -0.811798 0
M  V30 26815 C 2453.1 4.67405 -1.14395 0
M  V30 26816 C 2455.45 4.95389 -1.61985 0
M  V30 26817 C 2452.78 5.4038 -2.28486 0
M  V30 26818 C 2455.13 5.69616 -2.75174 0
M  V30 26819 C 2453.8 5.91752 -3.08845 0
M  V30 26820 H 2453.07 0.739436 0.0481114 0
M  V30 26821 H 2455.72 1.82429 -0.582412 0
M  V30 26822 H 2454.02 3.73127 1.19512 0
M  V30 26823 H 2455.72 3.91855 0.851501 0
M  V30 26824 H 2452.31 4.25147 -0.542973 0
M  V30 26825 H 2456.49 4.76831 -1.37645 0
M  V30 26826 H 2451.75 5.55735 -2.5489 0
M  V30 26827 H 2455.92 6.08787 -3.38158 0
M  V30 26828 H 2453.55 6.48079 -3.97364 0
M  V30 26829 N 2455.12 0.166873 1.56714 0
M  V30 26830 C 2456.37 -0.478271 1.96359 0
M  V30 26831 C 2456.69 -1.64078 1.05373 0
M  V30 26832 O 2455.96 -1.95537 0.119189 0
M  V30 26833 H 2454.54 -0.17968 0.725068 0
M  V30 26834 H 2457.21 0.247018 1.93328 0
M  V30 26835 H 2456.3 -0.84124 3.00549 0
M  V30 26836 N 2456.6 -1.57237 -0.106866 0
M  V30 26837 C 2457.54 -1.96446 -1.16122 0
M  V30 26838 C 2458.51 -0.835895 -1.39469 0
M  V30 26839 O 2459.7 -1.09515 -1.53423 0
M  V30 26840 C 2456.82 -2.27112 -2.51273 0
M  V30 26841 C 2455.87 -3.49614 -2.44279 0
M  V30 26842 S 2456.7 -5.01762 -1.87069 0
M  V30 26843 C 2457.86 -5.35593 -3.23868 0
M  V30 26844 H 2458.09 -2.85568 -0.82692 0
M  V30 26845 H 2455.63 -1.51171 -0.314097 0
M  V30 26846 H 2457.58 -2.45457 -3.29031 0
M  V30 26847 H 2456.24 -1.38581 -2.81876 0
M  V30 26848 H 2455.44 -3.68475 -3.43863 0
M  V30 26849 H 2455.04 -3.30718 -1.74647 0
M  V30 26850 H 2457.33 -5.31518 -4.20113 0
M  V30 26851 H 2458.27 -6.36723 -3.09822 0
M  V30 26852 H 2458.68 -4.63059 -3.22856 0
M  V30 26853 N 2458.08 0.377381 -1.53015 0
M  V30 26854 C 2459.31 1.14665 -1.7282 0
M  V30 26855 C 2459.73 1.82619 -0.450757 0
M  V30 26856 O 2459.09 1.71281 0.59436 0
M  V30 26857 C 2459.14 2.16159 -2.88631 0
M  V30 26858 O 2458.24 3.22994 -2.56415 0
M  V30 26859 H 2457.58 0.333268 -0.574307 0
M  V30 26860 H 2460.11 0.438117 -1.99854 0
M  V30 26861 H 2460.12 2.5996 -3.14459 0
M  V30 26862 H 2458.8 1.66088 -3.81297 0
M  V30 26863 H 2457.37 2.84248 -2.41365 0
M  V30 26864 N 2459.56 1.44175 0.636506 0
M  V30 26865 C 2460.51 1.50918 1.76993 0
M  V30 26866 C 2461.5 0.381324 1.65052 0
M  V30 26867 O 2462.71 0.556041 1.71196 0
M  V30 26868 H 2459.08 0.473465 0.584239 0
M  V30 26869 H 2461.05 2.46323 1.68427 0
M  V30 26870 C 2459.8 1.4654 3.15312 0
M  V30 26871 H 2459.12 2.32639 3.25145 0
M  V30 26872 H 2460.56 1.55319 3.94528 0
M  V30 26873 C 2459.02 0.185364 3.3639 0
M  V30 26874 O 2459.55 -0.746618 3.94701 0
M  V30 26875 N 2457.76 0.0902117 2.9046 0
M  V30 26876 H 2457.31 0.849459 2.43191 0
M  V30 26877 H 2457.26 -0.7655 3.04938 0
M  V30 26878 N 2461.04 -0.876421 1.30983 0
M  V30 26879 C 2462.28 -1.62894 1.20298 0
M  V30 26880 C 2462.61 -1.93009 -0.240361 0
M  V30 26881 O 2461.87 -1.55569 -1.1873 0
M  V30 26882 C 2462.17 -2.97156 1.98577 0
M  V30 26883 C 2461.83 -2.86559 3.4813 0
M  V30 26884 C 2460.49 -2.83377 3.8891 0
M  V30 26885 C 2462.85 -2.74063 4.43327 0
M  V30 26886 C 2460.17 -2.65547 5.23165 0
M  V30 26887 C 2462.53 -2.57771 5.777 0
M  V30 26888 C 2461.19 -2.52968 6.17708 0
M  V30 26889 H 2460.46 -0.596072 0.440203 0
M  V30 26890 H 2463.11 -1.01834 1.62179 0
M  V30 26891 H 2461.41 -3.62215 1.49358 0
M  V30 26892 H 2463.11 -3.5436 1.87696 0
M  V30 26893 H 2459.7 -2.89851 3.15729 0
M  V30 26894 H 2463.88 -2.75582 4.12757 0
M  V30 26895 H 2459.14 -2.60249 5.53245 0
M  V30 26896 H 2463.31 -2.47077 6.51096 0
M  V30 26897 H 2460.94 -2.38911 7.21682 0
M  V30 26898 N 2462.51 -1.13839 -1.08989 0
M  V30 26899 C 2463.48 -0.822752 -2.13924 0
M  V30 26900 C 2464.48 0.169872 -1.599 0
M  V30 26901 O 2465.67 -0.0577557 -1.74104 0
M  V30 26902 C 2462.8 -0.225378 -3.40154 0
M  V30 26903 H 2463.99 -1.75267 -2.43355 0
M  V30 26904 H 2461.55 -0.943616 -1.24602 0
M  V30 26905 H 2462.28 0.713538 -3.16353 0
M  V30 26906 H 2462.07 -0.94026 -3.80659 0
M  V30 26907 H 2463.56 -0.0215518 -4.17594 0
M  V30 26908 N 2463.99 1.27046 -0.932584 0
M  V30 26909 C 2465.22 1.9796 -0.591207 0
M  V30 26910 C 2465.63 1.69719 0.836189 0
M  V30 26911 O 2464.97 0.957064 1.56799 0
M  V30 26912 C 2465.04 3.51735 -0.743144 0
M  V30 26913 C 2464.7 4.03609 -2.14357 0
M  V30 26914 C 2465.7 4.16009 -3.11822 0
M  V30 26915 C 2463.38 4.37835 -2.46183 0
M  V30 26916 C 2465.38 4.61915 -4.39219 0
M  V30 26917 C 2463.06 4.83431 -3.73814 0
M  V30 26918 C 2464.06 4.95431 -4.70146 0
M  V30 26919 O 2463.75 5.40026 -5.95506 0
M  V30 26920 H 2463.48 0.638373 -0.222387 0
M  V30 26921 H 2466.03 1.6274 -1.25319 0
M  V30 26922 H 2464.26 3.86693 -0.0240419 0
M  V30 26923 H 2465.95 4.03863 -0.406101 0
M  V30 26924 H 2466.72 3.89821 -2.88556 0
M  V30 26925 H 2462.6 4.27734 -1.71943 0
M  V30 26926 H 2466.14 4.71196 -5.14412 0
M  V30 26927 H 2462.04 5.09061 -3.96897 0
M  V30 26928 H 2462.81 5.58268 -5.98564 0
M  V30 26929 N 2465.47 0.698636 1.41269 0
M  V30 26930 C 2466.72 0.231243 2.01477 0
M  V30 26931 C 2467.05 -1.1671 1.55217 0
M  V30 26932 O 2466.32 -1.78837 0.764703 0
M  V30 26933 C 2466.61 0.292344 3.58911 0
M  V30 26934 C 2466.46 1.72785 4.15289 0
M  V30 26935 C 2467.78 -0.346117 4.38737 0
M  V30 26936 H 2464.9 0.0855006 0.732024 0
M  V30 26937 H 2467.54 0.887936 1.67975 0
M  V30 26938 H 2465.69 -0.266792 3.87583 0
M  V30 26939 H 2467.36 2.34107 3.97482 0
M  V30 26940 H 2465.61 2.26103 3.70216 0
M  V30 26941 H 2466.28 1.72211 5.24449 0
M  V30 26942 H 2468.75 0.130108 4.15897 0
M  V30 26943 H 2467.63 -0.272836 5.48222 0
M  V30 26944 H 2467.89 -1.42727 4.18427 0
M  V30 26945 N 2466.95 -1.51228 0.443603 0
M  V30 26946 C 2467.9 -2.27901 -0.364676 0
M  V30 26947 C 2468.87 -1.31759 -1.01138 0
M  V30 26948 O 2470.05 -1.60669 -1.02909 0
M  V30 26949 C 2467.19 -3.12863 -1.45638 0
M  V30 26950 C 2466.3 -4.24006 -0.827195 0
M  V30 26951 C 2465.44 -4.96269 -1.89448 0
M  V30 26952 C 2464.48 -5.99324 -1.24406 0
M  V30 26953 N 2463.61 -6.6497 -2.25298 0
M  V30 26954 H 2468.45 -2.96531 0.295517 0
M  V30 26955 H 2465.99 -1.46254 0.157579 0
M  V30 26956 H 2467.95 -3.60454 -2.10069 0
M  V30 26957 H 2466.58 -2.46335 -2.08612 0
M  V30 26958 H 2465.63 -3.80334 -0.071017 0
M  V30 26959 H 2466.94 -4.97821 -0.312394 0
M  V30 26960 H 2466.1 -5.47439 -2.61526 0
M  V30 26961 H 2464.84 -4.22099 -2.44302 0
M  V30 26962 H 2463.84 -5.47441 -0.508771 0
M  V30 26963 H 2465.07 -6.75454 -0.702763 0
M  V30 26964 H 2463.01 -5.93609 -2.7922 0
M  V30 26965 H 2462.93 -7.3457 -1.78726 0
M  V30 26966 H 2464.2 -7.20768 -2.9684 0
M  V30 26967 N 2468.43 -0.175182 -1.56623 0
M  V30 26968 C 2469.37 0.753596 -2.1815 0
M  V30 26969 C 2470.34 1.22415 -1.12267 0
M  V30 26970 O 2471.53 1.29162 -1.40434 0
M  V30 26971 C 2468.67 1.97587 -2.82937 0
M  V30 26972 C 2467.78 1.54853 -4.03292 0
M  V30 26973 C 2466.92 2.72477 -4.55993 0
M  V30 26974 C 2465.96 2.26252 -5.6875 0
M  V30 26975 N 2465.09 3.36983 -6.15944 0
M  V30 26976 H 2469.93 0.222143 -2.97171 0
M  V30 26977 H 2467.47 0.0979164 -1.46774 0
M  V30 26978 H 2469.43 2.69282 -3.18658 0
M  V30 26979 H 2468.06 2.48097 -2.06514 0
M  V30 26980 H 2467.11 0.728181 -3.73365 0
M  V30 26981 H 2468.42 1.16925 -4.84902 0
M  V30 26982 H 2467.58 3.52323 -4.93916 0
M  V30 26983 H 2466.31 3.13668 -3.73449 0
M  V30 26984 H 2465.32 1.44854 -5.30375 0
M  V30 26985 H 2466.54 1.86115 -6.53099 0
M  V30 26986 H 2464.49 3.77742 -5.36328 0
M  V30 26987 H 2464.41 3.0316 -6.92553 0
M  V30 26988 H 2465.68 4.17102 -6.58518 0
M  V30 26989 N 2469.91 1.57292 0.0985263 0
M  V30 26990 C 2470.82 2.05139 1.13821 0
M  V30 26991 C 2471.83 0.975629 1.44075 0
M  V30 26992 O 2473.01 1.28856 1.54784 0
M  V30 26993 C 2470.07 2.46338 2.43964 0
M  V30 26994 C 2469.13 3.68091 2.20924 0
M  V30 26995 C 2468.37 4.07316 3.44862 0
M  V30 26996 O 2468.59 3.46667 4.52966 0
M  V30 26997 O 2467.52 5.00291 3.34652 0
M  V30 26998 H 2471.35 2.9399 0.761829 0
M  V30 26999 H 2468.93 1.46132 0.310792 0
M  V30 27000 H 2470.82 2.73479 3.20605 0
M  V30 27001 H 2469.49 1.60626 2.81035 0
M  V30 27002 H 2468.4 3.46071 1.42075 0
M  V30 27003 H 2469.73 4.54572 1.88747 0
M  V30 27004 N 2471.38 -0.369261 1.53213 0
M  V30 27005 C 2472.66 -1.12773 1.59817 0
M  V30 27006 C 2473.04 -2.07209 0.403438 0
M  V30 27007 O 2472.39 -2.203 -0.606629 0
M  V30 27008 C 2472.6 -1.87008 2.94668 0
M  V30 27009 C 2473.95 -2.41671 3.49113 0
M  V30 27010 O 2474.97 -1.97139 2.96673 0
M  V30 27011 O 2473.83 -3.23071 4.4078 0
M  V30 27012 H 2470.92 -0.517114 0.645386 0
M  V30 27013 H 2473.47 -0.372821 1.65554 0
M  V30 27014 H 2472.24 -1.18065 3.73064 0
M  V30 27015 H 2471.86 -2.69416 2.92405 0
M  V30 27016 N 2472.86 -1.4451 -0.628851 0
M  V30 27017 C 2474.11 -1.47122 -1.38562 0
M  V30 27018 C 2474.43 -0.105933 -1.94712 0
M  V30 27019 O 2473.7 0.862048 -1.75913 0
M  V30 27020 H 2472.28 -0.541738 -0.514324 0
M  V30 27021 H 2474.94 -1.80306 -0.739986 0
M  V30 27022 H 2474.04 -2.19793 -2.21579 0
M  V30 27023 N 2474.34 0.869463 -1.31446 0
M  V30 27024 C 2475.59 1.61734 -1.2052 0
M  V30 27025 C 2475.9 1.94179 0.235307 0
M  V30 27026 O 2477.11 2.67466 0.466265 0
M  V30 27027 C 2475.56 2.91569 -2.10987 0
M  V30 27028 C 2475.17 2.66604 -3.60036 0
M  V30 27029 C 2476.92 3.69563 -2.08862 0
M  V30 27030 C 2474.82 3.9235 -4.4251 0
M  V30 27031 H 2473.75 0.606842 -0.447503 0
M  V30 27032 H 2476.4 0.961302 -1.56305 0
M  V30 27033 H 2474.79 3.5855 -1.68101 0
M  V30 27034 H 2475.96 2.08028 -4.1117 0
M  V30 27035 H 2474.27 2.01963 -3.64143 0
M  V30 27036 H 2476.87 4.62847 -2.67725 0
M  V30 27037 H 2477.21 4.02157 -1.07589 0
M  V30 27038 H 2477.75 3.09466 -2.49951 0
M  V30 27039 H 2474.49 3.64906 -5.4454 0
M  V30 27040 H 2474.01 4.50376 -3.96133 0
M  V30 27041 H 2475.69 4.6023 -4.54749 0
M  V30 27042 N 2475.82 1.14415 1.08383 0
M  V30 27043 C 2476.77 0.826926 2.17404 0
M  V30 27044 C 2477.76 -0.195283 1.68271 0
M  V30 27045 O 2478.97 -0.0513575 1.79927 0
M  V30 27046 H 2475.34 0.249693 0.709336 0
M  V30 27047 H 2477.31 1.7543 2.41385 0
M  V30 27048 C 2476.06 0.32104 3.46215 0
M  V30 27049 H 2475.38 1.09897 3.84399 0
M  V30 27050 H 2476.82 0.137624 4.23777 0
M  V30 27051 C 2475.28 -0.955415 3.23069 0
M  V30 27052 O 2475.81 -2.02912 3.46684 0
M  V30 27053 N 2474.02 -0.89075 2.76612 0
M  V30 27054 H 2473.57 -0.0168362 2.57594 0
M  V30 27055 H 2473.52 -1.74537 2.61504 0
M  V30 27056 N 2477.3 -1.26549 0.939309 0
M  V30 27057 C 2478.57 -1.89 0.503833 0
M  V30 27058 C 2478.95 -1.84904 -1.01851 0
M  V30 27059 O 2478.3 -1.3021 -1.8777 0
M  V30 27060 C 2478.51 -3.32415 1.06306 0
M  V30 27061 C 2479.86 -4.09271 1.13058 0
M  V30 27062 O 2480.88 -3.41477 1.01351 0
M  V30 27063 O 2479.74 -5.30507 1.31242 0
M  V30 27064 H 2476.84 -0.810594 0.163911 0
M  V30 27065 H 2479.38 -1.34733 1.03175 0
M  V30 27066 H 2478.15 -3.29748 2.1067 0
M  V30 27067 H 2477.78 -3.94218 0.517477 0
M  V30 27068 N 2478.77 -0.706118 -1.40896 0
M  V30 27069 C 2479.71 0.0032477 -2.282 0
M  V30 27070 C 2480.68 0.777295 -1.42818 0
M  V30 27071 O 2481.87 0.765914 -1.72238 0
M  V30 27072 C 2479 1.012 -3.23228 0
M  V30 27073 C 2478.04 0.32988 -4.25222 0
M  V30 27074 S 2478.87 -0.935391 -5.27267 0
M  V30 27075 C 2480.03 0.0714961 -6.25859 0
M  V30 27076 H 2480.26 -0.737193 -2.88015 0
M  V30 27077 H 2477.8 -0.496781 -1.4619 0
M  V30 27078 H 2479.75 1.58881 -3.78506 0
M  V30 27079 H 2478.42 1.72508 -2.62488 0
M  V30 27080 H 2477.61 1.09212 -4.92025 0
M  V30 27081 H 2477.21 -0.174134 -3.73594 0
M  V30 27082 H 2479.5 0.921403 -6.71205 0
M  V30 27083 H 2480.45 -0.562889 -7.05859 0
M  V30 27084 H 2480.85 0.430989 -5.62852 0
M  V30 27085 N 2480.25 1.50991 -0.451617 0
M  V30 27086 C 2481.5 2.02201 0.110039 0
M  V30 27087 C 2481.83 1.33491 1.41458 0
M  V30 27088 O 2481.08 0.443159 1.90616 0
M  V30 27089 C 2481.38 3.55565 0.361665 0
M  V30 27090 C 2481.05 4.42646 -0.858795 0
M  V30 27091 C 2479.71 4.66165 -1.19346 0
M  V30 27092 C 2482.06 4.93643 -1.6723 0
M  V30 27093 C 2479.39 5.37927 -2.34205 0
M  V30 27094 C 2481.74 5.66665 -2.812 0
M  V30 27095 C 2480.4 5.88443 -3.15104 0
M  V30 27096 H 2479.67 0.739905 0.040266 0
M  V30 27097 H 2482.32 1.81801 -0.601728 0
M  V30 27098 H 2480.63 3.74374 1.15548 0
M  V30 27099 H 2482.32 3.92736 0.809891 0
M  V30 27100 H 2478.91 4.24547 -0.588035 0
M  V30 27101 H 2483.1 4.75344 -1.42695 0
M  V30 27102 H 2478.35 5.53 -2.6077 0
M  V30 27103 H 2482.53 6.05167 -3.44596 0
M  V30 27104 H 2480.15 6.43828 -4.04215 0
M  V30 27105 N 2481.73 0.183486 1.56528 0
M  V30 27106 C 2482.68 -0.758806 2.19875 0
M  V30 27107 C 2483.67 -1.22847 1.1664 0
M  V30 27108 O 2484.88 -1.19271 1.34812 0
M  V30 27109 H 2481.25 -0.263016 0.704504 0
M  V30 27110 H 2483.22 -0.200703 2.97724 0
M  V30 27111 C 2481.97 -1.97275 2.86318 0
M  V30 27112 H 2481.3 -1.6204 3.6549 0
M  V30 27113 H 2482.74 -2.61069 3.34094 0
M  V30 27114 C 2481.19 -2.80414 1.86734 0
M  V30 27115 O 2481.72 -3.77964 1.36037 0
M  V30 27116 N 2479.93 -2.45673 1.5522 0
M  V30 27117 H 2479.48 -1.66405 1.96639 0
M  V30 27118 H 2479.44 -3.01586 0.888441 0
M  V30 27119 N 2483.21 -1.57342 -0.0901833 0
M  V30 27120 C 2484.45 -1.86337 -0.792775 0
M  V30 27121 C 2484.78 -0.772694 -1.78493 0
M  V30 27122 O 2484.04 0.233223 -1.94305 0
M  V30 27123 C 2484.34 -3.21936 -1.55217 0
M  V30 27124 C 2484 -4.45407 -0.701687 0
M  V30 27125 C 2482.66 -4.78926 -0.46725 0
M  V30 27126 C 2485.02 -5.21082 -0.110769 0
M  V30 27127 C 2482.34 -5.85545 0.367888 0
M  V30 27128 C 2484.7 -6.28584 0.71172 0
M  V30 27129 C 2483.36 -6.60616 0.956202 0
M  V30 27130 H 2482.63 -0.681854 -0.290097 0
M  V30 27131 H 2485.28 -1.91424 -0.0540996 0
M  V30 27132 H 2483.58 -3.12556 -2.36255 0
M  V30 27133 H 2485.28 -3.41599 -2.10026 0
M  V30 27134 H 2481.87 -4.19161 -0.894525 0
M  V30 27135 H 2486.05 -4.95515 -0.279042 0
M  V30 27136 H 2481.31 -6.08772 0.566235 0
M  V30 27137 H 2485.48 -6.86391 1.17644 0
M  V30 27138 H 2483.11 -7.43061 1.60512 0
M  V30 27139 N 2484.69 0.36113 -1.53407 0
M  V30 27140 C 2485.6 1.46637 -1.83125 0
M  V30 27141 C 2486.61 1.58406 -0.719971 0
M  V30 27142 O 2487.79 1.74216 -1.01049 0
M  V30 27143 C 2484.85 2.81849 -2.01896 0
M  V30 27144 C 2483.91 2.79571 -3.25789 0
M  V30 27145 C 2483.15 4.08334 -3.43655 0
M  V30 27146 O 2483.37 5.04725 -2.65723 0
M  V30 27147 O 2482.3 4.13875 -4.37025 0
M  V30 27148 H 2486.13 1.24446 -2.77032 0
M  V30 27149 H 2483.72 0.551654 -1.38842 0
M  V30 27150 H 2485.6 3.61958 -2.15788 0
M  V30 27151 H 2484.27 3.04008 -1.11178 0
M  V30 27152 H 2483.18 1.98145 -3.17316 0
M  V30 27153 H 2484.51 2.62366 -4.16443 0
M  V30 27154 N 2486.16 1.44842 0.621179 0
M  V30 27155 C 2487.39 1.51648 1.40749 0
M  V30 27156 C 2487.81 0.144583 1.88246 0
M  V30 27157 O 2487.16 -0.851388 1.61424 0
M  V30 27158 C 2487.22 2.48955 2.62114 0
M  V30 27159 O 2486.94 3.80812 2.16596 0
M  V30 27160 C 2488.44 2.65325 3.5513 0
M  V30 27161 H 2485.66 0.514012 0.431316 0
M  V30 27162 H 2488.2 1.89901 0.758801 0
M  V30 27163 H 2486.36 2.13811 3.23054 0
M  V30 27164 H 2486.77 4.33438 2.9535 0
M  V30 27165 H 2488.24 3.37417 4.36868 0
M  V30 27166 H 2488.72 1.70893 4.04589 0
M  V30 27167 H 2489.33 3.0141 3.00053 0
M  V30 27168 N 2487.64 -0.862479 1.31905 0
M  V30 27169 C 2488.89 -1.61609 1.22019 0
M  V30 27170 C 2489.22 -1.93253 -0.219876 0
M  V30 27171 O 2488.47 -1.56819 -1.17073 0
M  V30 27172 C 2488.77 -2.95033 2.01718 0
M  V30 27173 C 2488.44 -2.82851 3.5115 0
M  V30 27174 C 2487.1 -2.79236 3.91894 0
M  V30 27175 C 2489.45 -2.69346 4.46209 0
M  V30 27176 C 2486.78 -2.59983 5.25952 0
M  V30 27177 C 2489.13 -2.51629 5.80401 0
M  V30 27178 C 2487.8 -2.46402 6.20357 0
M  V30 27179 H 2487.07 -0.59137 0.446501 0
M  V30 27180 H 2489.71 -1.00109 1.6325 0
M  V30 27181 H 2488.02 -3.6061 1.53191 0
M  V30 27182 H 2489.71 -3.5235 1.91444 0
M  V30 27183 H 2486.3 -2.86486 3.18785 0
M  V30 27184 H 2490.49 -2.71189 4.15656 0
M  V30 27185 H 2485.74 -2.54366 5.55975 0
M  V30 27186 H 2489.92 -2.40158 6.5368 0
M  V30 27187 H 2487.55 -2.31243 7.24176 0
M  V30 27188 N 2489.12 -1.14988 -1.07775 0
M  V30 27189 C 2490.37 -0.920266 -1.79932 0
M  V30 27190 C 2490.69 0.554303 -1.86956 0
M  V30 27191 O 2489.96 1.40289 -1.36733 0
M  V30 27192 H 2488.54 -0.337485 -0.666418 0
M  V30 27193 H 2491.2 -1.4497 -1.30267 0
M  V30 27194 H 2490.3 -1.32588 -2.82537 0
M  V30 27195 N 2490.6 1.26049 -0.946007 0
M  V30 27196 C 2491.55 2.282 -0.450299 0
M  V30 27197 C 2492.54 1.62606 0.474941 0
M  V30 27198 O 2493.75 1.76512 0.352622 0
M  V30 27199 H 2490.12 0.741182 -0.127095 0
M  V30 27200 H 2492.09 2.67405 -1.32427 0
M  V30 27201 C 2490.84 3.46692 0.264609 0
M  V30 27202 H 2490.16 3.97391 -0.438193 0
M  V30 27203 H 2491.6 4.20075 0.575604 0
M  V30 27204 C 2490.06 3.0245 1.48411 0
M  V30 27205 O 2490.59 3.07709 2.58221 0
M  V30 27206 N 2488.8 2.57737 1.34238 0
M  V30 27207 H 2488.35 2.53658 0.44895 0
M  V30 27208 H 2488.3 2.28499 2.15953 0
M  V30 27209 N 2492.08 0.71358 1.4052 0
M  V30 27210 C 2493.3 0.260386 2.05759 0
M  V30 27211 C 2493.73 -1.08851 1.53405 0
M  V30 27212 O 2493.08 -1.68523 0.668565 0
M  V30 27213 C 2493.13 0.248185 3.59745 0
M  V30 27214 O 2492.24 -0.771239 4.05124 0
M  V30 27215 H 2491.58 0.122715 0.652562 0
M  V30 27216 H 2494.11 0.973499 1.79956 0
M  V30 27217 H 2494.12 0.0851846 4.07911 0
M  V30 27218 H 2492.79 1.23256 3.97216 0
M  V30 27219 H 2491.37 -0.576125 3.68423 0
M  V30 27220 N 2493.55 -1.50749 0.459618 0
M  V30 27221 C 2494.49 -2.24908 -0.386217 0
M  V30 27222 C 2495.47 -1.27745 -1.00598 0
M  V30 27223 O 2496.65 -1.5694 -1.04414 0
M  V30 27224 C 2493.78 -3.01657 -1.54015 0
M  V30 27225 C 2492.82 -4.13653 -1.0389 0
M  V30 27226 S 2493.66 -5.35487 0.0371442 0
M  V30 27227 C 2494.81 -6.15781 -1.12094 0
M  V30 27228 H 2495.04 -2.96303 0.243324 0
M  V30 27229 H 2492.58 -1.52454 0.244366 0
M  V30 27230 H 2494.54 -3.4647 -2.20157 0
M  V30 27231 H 2493.2 -2.2981 -2.14117 0
M  V30 27232 H 2492.39 -4.66715 -1.90245 0
M  V30 27233 H 2491.99 -3.71217 -0.455385 0
M  V30 27234 H 2494.28 -6.46218 -2.0349 0
M  V30 27235 H 2495.23 -7.05293 -0.629826 0
M  V30 27236 H 2495.63 -5.47634 -1.36958 0
M  V30 27237 N 2495.03 -0.191784 -1.56429 0
M  V30 27238 C 2496.28 0.448053 -1.96661 0
M  V30 27239 C 2496.59 1.62989 -1.08139 0
M  V30 27240 O 2497.8 2.3373 -1.38139 0
M  V30 27241 C 2496.26 0.848524 -3.49754 0
M  V30 27242 C 2495.86 -0.308842 -4.46934 0
M  V30 27243 C 2497.61 1.45563 -3.98763 0
M  V30 27244 C 2495.52 0.112402 -5.91293 0
M  V30 27245 H 2494.45 0.171166 -0.734315 0
M  V30 27246 H 2497.1 -0.283274 -1.813 0
M  V30 27247 H 2495.48 1.63642 -3.60607 0
M  V30 27248 H 2496.65 -1.08635 -4.47811 0
M  V30 27249 H 2494.97 -0.827229 -4.081 0
M  V30 27250 H 2497.56 1.78319 -5.0409 0
M  V30 27251 H 2497.91 2.36093 -3.42879 0
M  V30 27252 H 2498.44 0.731768 -3.91012 0
M  V30 27253 H 2495.18 -0.758629 -6.51095 0
M  V30 27254 H 2494.7 0.854837 -5.93677 0
M  V30 27255 H 2496.38 0.549335 -6.44664 0
M  V30 27256 N 2496.51 1.57387 0.0818378 0
M  V30 27257 C 2497.75 1.88586 0.788342 0
M  V30 27258 C 2498.11 0.784382 1.75247 0
M  V30 27259 O 2499.32 0.979149 2.50332 0
M  V30 27260 C 2497.59 3.2502 1.48649 0
M  V30 27261 S 2499.15 3.77943 2.22944 0
M  V30 27262 H 2495.96 0.66082 0.262371 0
M  V30 27263 H 2498.57 1.95449 0.0448651 0
M  V30 27264 H 2497.27 4.03096 0.770849 0
M  V30 27265 H 2496.8 3.2133 2.2696 0
M  V30 27266 H 2498.82 3.52423 3.49303 0
M  V30 27267 N 2497.99 -0.35299 1.53596 0
M  V30 27268 C 2498.92 -1.4388 1.83904 0
M  V30 27269 C 2499.9 -1.55323 0.693448 0
M  V30 27270 O 2501.08 -1.69686 0.944482 0
M  V30 27271 C 2498.21 -2.81057 2.04021 0
M  V30 27272 C 2497.17 -2.84428 3.19819 0
M  V30 27273 C 2496.49 -4.244 3.25252 0
M  V30 27274 C 2497.79 -2.50814 4.58137 0
M  V30 27275 H 2499.49 -1.18765 2.74837 0
M  V30 27276 H 2497.03 -0.569894 1.32243 0
M  V30 27277 H 2498.99 -3.57055 2.23807 0
M  V30 27278 H 2497.71 -3.07586 1.0981 0
M  V30 27279 H 2496.37 -2.10882 2.99874 0
M  V30 27280 H 2496.02 -4.48025 2.28654 0
M  V30 27281 H 2495.72 -4.27569 4.03061 0
M  V30 27282 H 2497.24 -5.02254 3.47237 0
M  V30 27283 H 2498.66 -3.16526 4.78001 0
M  V30 27284 H 2497.05 -2.65281 5.38281 0
M  V30 27285 H 2498.12 -1.46026 4.6239 0
M  V30 27286 N 2499.47 -1.45169 -0.613489 0
M  V30 27287 C 2500.71 -1.48878 -1.37265 0
M  V30 27288 C 2501.04 -0.128195 -1.94077 0
M  V30 27289 O 2500.3 0.872385 -1.7518 0
M  V30 27290 C 2500.6 -2.51087 -2.54342 0
M  V30 27291 C 2500.26 -3.95953 -2.15713 0
M  V30 27292 C 2498.92 -4.354 -2.04892 0
M  V30 27293 C 2501.28 -4.87081 -1.85476 0
M  V30 27294 C 2498.6 -5.63877 -1.62047 0
M  V30 27295 C 2500.96 -6.15965 -1.44119 0
M  V30 27296 C 2499.62 -6.54348 -1.31852 0
M  V30 27297 H 2498.89 -0.544781 -0.502289 0
M  V30 27298 H 2501.54 -1.78483 -0.69399 0
M  V30 27299 H 2499.84 -2.1503 -3.2752 0
M  V30 27300 H 2501.54 -2.51196 -3.12572 0
M  V30 27301 H 2498.13 -3.64755 -2.2506 0
M  V30 27302 H 2502.31 -4.57347 -1.92737 0
M  V30 27303 H 2497.57 -5.92418 -1.51167 0
M  V30 27304 H 2501.74 -6.86024 -1.19766 0
M  V30 27305 H 2499.37 -7.53801 -0.98426 0
M  V30 27306 N 2500.95 0.855472 -1.32361 0
M  V30 27307 C 2501.88 1.97055 -1.17056 0
M  V30 27308 C 2502.89 1.62456 -0.105769 0
M  V30 27309 O 2504.08 1.74941 -0.35465 0
M  V30 27310 C 2501.18 3.30052 -0.769363 0
M  V30 27311 C 2500.35 3.92897 -1.92226 0
M  V30 27312 C 2499.41 5.04226 -1.50475 0
M  V30 27313 O 2498.44 5.24265 -2.21664 0
M  V30 27314 N 2499.64 5.79118 -0.40031 0
M  V30 27315 H 2502.4 2.10726 -2.13107 0
M  V30 27316 H 2499.97 1.03028 -1.24887 0
M  V30 27317 H 2501.96 4.01933 -0.472477 0
M  V30 27318 H 2500.53 3.1244 0.09997 0
M  V30 27319 H 2499.75 3.13813 -2.38569 0
M  V30 27320 H 2501.04 4.31619 -2.69411 0
M  V30 27321 H 2500.43 5.65373 0.19222 0
M  V30 27322 H 2498.99 6.51596 -0.163027 0
M  V30 27323 N 2502.42 1.15558 1.07164 0
M  V30 27324 C 2503.67 0.926164 1.79179 0
M  V30 27325 C 2503.99 -0.547934 1.87769 0
M  V30 27326 O 2505.19 -0.894991 2.56324 0
M  V30 27327 C 2503.65 1.60766 3.21997 0
M  V30 27328 C 2503.26 3.11891 3.21602 0
M  V30 27329 C 2505 1.45987 3.98608 0
M  V30 27330 C 2502.91 3.7282 4.59085 0
M  V30 27331 H 2501.84 0.342868 0.671534 0
M  V30 27332 H 2504.49 1.38593 1.20268 0
M  V30 27333 H 2502.87 1.0756 3.81113 0
M  V30 27334 H 2504.04 3.7187 2.7212 0
M  V30 27335 H 2502.36 3.26454 2.58489 0
M  V30 27336 H 2504.96 1.88897 5.00222 0
M  V30 27337 H 2505.3 0.407614 4.143 0
M  V30 27338 H 2505.83 1.96301 3.45992 0
M  V30 27339 H 2502.57 4.77954 4.48598 0
M  V30 27340 H 2502.09 3.17624 5.08797 0
M  V30 27341 H 2503.77 3.73858 5.28052 0
M  V30 27342 N 2503.9 -1.25546 0.952678 0
M  V30 27343 C 2505.13 -1.97281 0.62353 0
M  V30 27344 C 2505.54 -1.70827 -0.803957 0
M  V30 27345 O 2504.9 -0.983174 -1.53753 0
M  V30 27346 C 2504.95 -3.50868 0.870271 0
M  V30 27347 O 2504.67 -3.76408 2.24162 0
M  V30 27348 C 2506.17 -4.39834 0.553242 0
M  V30 27349 H 2503.39 -0.628898 0.233942 0
M  V30 27350 H 2505.94 -1.59766 1.27652 0
M  V30 27351 H 2504.09 -3.86501 0.26372 0
M  V30 27352 H 2504.51 -4.70878 2.31029 0
M  V30 27353 H 2505.98 -5.46512 0.776438 0
M  V30 27354 H 2506.46 -4.36204 -0.512138 0
M  V30 27355 H 2507.06 -4.09764 1.13903 0
M  V30 27356 N 2505.38 -0.721022 -1.40139 0
M  V30 27357 C 2506.61 -0.272692 -2.05095 0
M  V30 27358 C 2507.02 1.08747 -1.54336 0
M  V30 27359 O 2506.38 1.68448 -0.702241 0
M  V30 27360 C 2506.43 -0.249898 -3.60635 0
M  V30 27361 O 2506.15 -1.55636 -4.09523 0
M  V30 27362 C 2507.65 0.216318 -4.42772 0
M  V30 27363 H 2504.87 -0.12157 -0.659895 0
M  V30 27364 H 2507.42 -0.980754 -1.79448 0
M  V30 27365 H 2505.57 0.409169 -3.85233 0
M  V30 27366 H 2505.99 -1.46049 -5.03756 0
M  V30 27367 H 2507.46 0.181115 -5.51703 0
M  V30 27368 H 2507.94 1.25934 -4.20758 0
M  V30 27369 H 2508.54 -0.412671 -4.23293 0
M  V30 27370 N 2506.86 1.50503 -0.467606 0
M  V30 27371 C 2508.08 2.0721 0.0886579 0
M  V30 27372 C 2508.51 1.32959 1.33055 0
M  V30 27373 O 2507.87 0.376228 1.77353 0
M  V30 27374 C 2507.91 3.58807 0.359139 0
M  V30 27375 O 2507.02 3.86432 1.44027 0
M  V30 27376 H 2506.36 0.663901 -0.0114466 0
M  V30 27377 H 2508.89 1.93743 -0.657647 0
M  V30 27378 H 2508.9 4.03554 0.600671 0
M  V30 27379 H 2507.57 4.12269 -0.548383 0
M  V30 27380 H 2506.15 3.53526 1.18632 0
M  V30 27381 N 2508.34 0.200077 1.56325 0
M  V30 27382 C 2509.3 -0.705094 2.18085 0
M  V30 27383 C 2510.3 -1.13738 1.13668 0
M  V30 27384 O 2511.49 -1.04966 1.39025 0
M  V30 27385 C 2508.62 -1.96324 2.78693 0
M  V30 27386 H 2509.81 -0.16697 2.99435 0
M  V30 27387 H 2507.37 -0.049545 1.56221 0
M  V30 27388 H 2508.1 -2.54376 2.01155 0
M  V30 27389 H 2507.89 -1.66196 3.55136 0
M  V30 27390 H 2509.38 -2.60861 3.261 0
M  V30 27391 N 2509.81 -1.57429 -0.0734901 0
M  V30 27392 C 2511.06 -1.86797 -0.77144 0
M  V30 27393 C 2511.38 -0.791835 -1.78199 0
M  V30 27394 O 2510.65 0.179684 -1.95074 0
M  V30 27395 H 2509.23 -0.689292 -0.287898 0
M  V30 27396 H 2511.89 -1.94836 -0.0499818 0
M  V30 27397 H 2510.99 -2.84252 -1.28869 0
M  V30 27398 N 2511.29 0.344839 -1.53781 0
M  V30 27399 C 2512.54 1.08317 -1.7216 0
M  V30 27400 C 2512.89 1.86361 -0.478251 0
M  V30 27401 O 2512.19 1.84149 0.52912 0
M  V30 27402 C 2512.38 2.05501 -2.92411 0
M  V30 27403 C 2512.21 1.3701 -4.2832 0
M  V30 27404 C 2510.98 1.11549 -4.92834 0
M  V30 27405 C 2513.18 0.796982 -5.08087 0
M  V30 27406 N 2511.16 0.396251 -6.1262 0
M  V30 27407 C 2512.53 0.208227 -6.1965 0
M  V30 27408 C 2514.58 0.697701 -4.92987 0
M  V30 27409 C 2513.29 -0.470149 -7.17762 0
M  V30 27410 C 2515.31 0.033067 -5.91391 0
M  V30 27411 C 2514.68 -0.544722 -7.02291 0
M  V30 27412 H 2510.77 0.380793 -0.683023 0
M  V30 27413 H 2513.36 0.366927 -1.91211 0
M  V30 27414 H 2511.53 2.74419 -2.74862 0
M  V30 27415 H 2513.26 2.72164 -2.99515 0
M  V30 27416 H 2510.02 1.40226 -4.52365 0
M  V30 27417 H 2510.44 0.0513929 -6.7698 0
M  V30 27418 H 2515.08 1.13015 -4.07416 0
M  V30 27419 H 2512.8 -0.914492 -8.02909 0
M  V30 27420 H 2516.39 -0.0431032 -5.81784 0
M  V30 27421 H 2515.27 -1.05086 -7.77127 0
M  V30 27422 N 2512.77 1.45492 0.605781 0
M  V30 27423 C 2514.05 1.40078 1.3652 0
M  V30 27424 C 2514.43 0.0723115 2.10976 0
M  V30 27425 O 2513.77 -0.945771 2.08008 0
M  V30 27426 C 2513.98 2.61565 2.31051 0
M  V30 27427 C 2515.33 3.06729 2.93602 0
M  V30 27428 O 2516.36 2.61951 2.41372 0
M  V30 27429 O 2515.22 3.84444 3.88414 0
M  V30 27430 H 2512.31 0.555961 0.612238 0
M  V30 27431 H 2514.86 1.57624 0.628719 0
M  V30 27432 H 2513.63 3.49834 1.75305 0
M  V30 27433 H 2513.25 2.46362 3.12076 0
M  V30 27434 N 2514.25 -0.848441 1.32813 0
M  V30 27435 C 2515.5 -1.59989 1.23482 0
M  V30 27436 C 2515.82 -1.93953 -0.201819 0
M  V30 27437 O 2515.09 -1.60155 -1.12815 0
M  V30 27438 H 2513.67 -0.593172 0.454045 0
M  V30 27439 H 2516.33 -1.01452 1.66413 0
M  V30 27440 H 2515.43 -2.53408 1.82183 0
M  V30 27441 N 2515.73 -1.16125 -1.06549 0
M  V30 27442 C 2516.66 -0.888548 -2.15933 0
M  V30 27443 C 2517.64 0.164105 -1.69307 0
M  V30 27444 O 2518.82 0.0167515 -1.94193 0
M  V30 27445 C 2515.95 -0.386003 -3.45148 0
M  V30 27446 C 2514.91 -1.37627 -4.05269 0
M  V30 27447 C 2514.23 -0.73223 -5.29663 0
M  V30 27448 C 2515.53 -2.745 -4.4435 0
M  V30 27449 H 2517.23 -1.80327 -2.39003 0
M  V30 27450 H 2514.77 -0.868455 -1.14865 0
M  V30 27451 H 2516.73 -0.182721 -4.21004 0
M  V30 27452 H 2515.45 0.564218 -3.2169 0
M  V30 27453 H 2514.11 -1.56605 -3.31467 0
M  V30 27454 H 2513.76 0.224394 -5.02499 0
M  V30 27455 H 2513.46 -1.39317 -5.70846 0
M  V30 27456 H 2514.98 -0.538909 -6.08217 0
M  V30 27457 H 2516.39 -2.5932 -5.11299 0
M  V30 27458 H 2514.79 -3.37044 -4.96509 0
M  V30 27459 H 2515.86 -3.29949 -3.55333 0
M  V30 27460 N 2517.2 1.25039 -0.959323 0
M  V30 27461 C 2518.13 2.28053 -0.501429 0
M  V30 27462 C 2519.12 1.63912 0.454644 0
M  V30 27463 O 2520.3 1.90972 0.352584 0
M  V30 27464 C 2517.43 3.4662 0.217163 0
M  V30 27465 C 2516.38 4.22972 -0.654108 0
M  V30 27466 C 2515.71 5.34343 0.195495 0
M  V30 27467 C 2517.01 4.85152 -1.93455 0
M  V30 27468 H 2518.7 2.66605 -1.36242 0
M  V30 27469 H 2516.25 1.28161 -0.656556 0
M  V30 27470 H 2518.2 4.17813 0.548659 0
M  V30 27471 H 2516.93 3.0707 1.11244 0
M  V30 27472 H 2515.59 3.53569 -0.968755 0
M  V30 27473 H 2515.23 4.91033 1.09067 0
M  V30 27474 H 2514.93 5.86343 -0.384194 0
M  V30 27475 H 2516.46 6.08366 0.521851 0
M  V30 27476 H 2517.87 5.48463 -1.66917 0
M  V30 27477 H 2516.27 5.47348 -2.46028 0
M  V30 27478 H 2517.34 4.07075 -2.63474 0
M  V30 27479 N 2518.68 0.728444 1.39755 0
M  V30 27480 C 2519.65 0.09277 2.29012 0
M  V30 27481 C 2520.65 -0.674 1.45993 0
M  V30 27482 O 2521.84 -0.50399 1.6675 0
M  V30 27483 C 2518.97 -0.878079 3.29397 0
M  V30 27484 H 2520.16 0.879061 2.86727 0
M  V30 27485 H 2517.71 0.493873 1.48292 0
M  V30 27486 H 2518.45 -1.69096 2.76725 0
M  V30 27487 H 2518.23 -0.330983 3.90701 0
M  V30 27488 H 2519.72 -1.31963 3.96201 0
M  V30 27489 N 2520.16 -1.50253 0.475581 0
M  V30 27490 C 2521.57 -1.86688 0.0215502 0
M  V30 27491 C 2521.92 -1.39003 -1.38465 0
M  V30 27492 O 2521.05 -0.75693 -2.0273 0
M  V30 27493 C 2521.64 -3.38785 0.032331 0
M  V30 27494 C 2520.2 -3.74614 -0.366248 0
M  V30 27495 C 2519.35 -2.74164 0.415881 0
M  V30 27496 H 2522.3 -1.42932 0.689637 0
M  V30 27497 H 2522.32 -3.72652 -0.768824 0
M  V30 27498 H 2521.83 -3.7346 1.0559 0
M  V30 27499 H 2519.93 -3.45541 -1.394 0
M  V30 27500 H 2520.05 -4.79057 -0.0644708 0
M  V30 27501 H 2518.41 -2.54363 -0.131003 0
M  V30 27502 H 2519.19 -3.11683 1.43905 0
M  V30 27503 N 2521.64 -0.208365 -1.56217 0
M  V30 27504 C 2522.89 0.42717 -1.97125 0
M  V30 27505 C 2523.2 1.61833 -1.09861 0
M  V30 27506 O 2524.41 2.32252 -1.4061 0
M  V30 27507 C 2522.86 0.81138 -3.50635 0
M  V30 27508 C 2522.47 -0.356228 -4.46581 0
M  V30 27509 C 2524.21 1.41325 -4.00284 0
M  V30 27510 C 2522.12 0.0496813 -5.91379 0
M  V30 27511 H 2521.05 0.163368 -0.736089 0
M  V30 27512 H 2523.7 -0.302488 -1.8099 0
M  V30 27513 H 2522.08 1.59808 -3.62322 0
M  V30 27514 H 2523.26 -1.13378 -4.46634 0
M  V30 27515 H 2521.57 -0.870467 -4.072 0
M  V30 27516 H 2524.17 1.72963 -5.05953 0
M  V30 27517 H 2524.51 2.32443 -3.45364 0
M  V30 27518 H 2525.05 0.690255 -3.91766 0
M  V30 27519 H 2521.79 -0.827643 -6.50254 0
M  V30 27520 H 2521.31 0.791821 -5.9455 0
M  V30 27521 H 2522.98 0.480929 -6.4521 0
M  V30 27522 N 2523.12 1.57465 0.0651402 0
M  V30 27523 C 2524.05 2.07184 1.0769 0
M  V30 27524 C 2525.03 0.966697 1.39961 0
M  V30 27525 O 2526.21 1.23982 1.49472 0
M  V30 27526 C 2523.34 2.52131 2.38845 0
M  V30 27527 C 2522.3 3.66582 2.2091 0
M  V30 27528 C 2521.62 3.97608 3.57508 0
M  V30 27529 C 2522.92 4.96383 1.62485 0
M  V30 27530 H 2524.62 2.91964 0.663148 0
M  V30 27531 H 2522.16 1.40455 0.317544 0
M  V30 27532 H 2524.12 2.85528 3.09923 0
M  V30 27533 H 2522.84 1.64389 2.82213 0
M  V30 27534 H 2521.5 3.33479 1.52273 0
M  V30 27535 H 2521.15 3.06986 3.98458 0
M  V30 27536 H 2520.85 4.74678 3.46345 0
M  V30 27537 H 2522.37 4.33506 4.30006 0
M  V30 27538 H 2523.78 5.27967 2.23435 0
M  V30 27539 H 2522.18 5.7782 1.61999 0
M  V30 27540 H 2523.25 4.81334 0.586956 0
M  V30 27541 N 2524.59 -0.336679 1.53962 0
M  V30 27542 C 2525.54 -1.43398 1.83139 0
M  V30 27543 C 2526.54 -1.54154 0.70234 0
M  V30 27544 O 2527.74 -1.56696 0.885792 0
M  V30 27545 H 2524.12 -0.478263 0.580318 0
M  V30 27546 H 2526.09 -1.16007 2.74927 0
M  V30 27547 C 2524.84 -2.79819 2.0639 0
M  V30 27548 H 2524.16 -2.72311 2.92723 0
M  V30 27549 H 2525.6 -3.557 2.30767 0
M  V30 27550 C 2524.06 -3.25963 0.851472 0
M  V30 27551 O 2524.59 -4.01663 0.054261 0
M  V30 27552 N 2522.8 -2.82847 0.66677 0
M  V30 27553 H 2522.34 -2.21407 1.31669 0
M  V30 27554 H 2522.3 -3.14075 -0.142977 0
M  V30 27555 N 2526.07 -1.45812 -0.598057 0
M  V30 27556 C 2527.3 -1.54101 -1.38808 0
M  V30 27557 C 2527.72 -0.177611 -1.8726 0
M  V30 27558 O 2527.08 0.839513 -1.60692 0
M  V30 27559 C 2527.13 -2.53747 -2.56212 0
M  V30 27560 O 2526.23 -2.06188 -3.57156 0
M  V30 27561 H 2525.57 -0.519122 -0.414015 0
M  V30 27562 H 2528.1 -1.91251 -0.726938 0
M  V30 27563 H 2528.11 -2.72862 -3.03332 0
M  V30 27564 H 2526.79 -3.52763 -2.20297 0
M  V30 27565 H 2525.37 -1.96993 -3.1662 0
M  V30 27566 N 2527.55 0.841385 -1.33261 0
M  V30 27567 C 2528.5 1.95101 -1.23305 0
M  V30 27568 C 2529.47 1.6572 -0.112233 0
M  V30 27569 O 2530.65 1.88582 -0.290072 0
M  V30 27570 C 2527.79 3.31022 -0.975641 0
M  V30 27571 C 2526.91 3.72815 -2.18249 0
M  V30 27572 C 2526.04 4.97592 -1.85945 0
M  V30 27573 C 2525.08 5.31914 -3.02876 0
M  V30 27574 N 2524.22 6.47868 -2.70576 0
M  V30 27575 H 2529.06 2.02948 -2.18211 0
M  V30 27576 H 2526.59 0.993154 -1.08512 0
M  V30 27577 H 2528.55 4.09324 -0.806842 0
M  V30 27578 H 2527.18 3.22738 -0.0633322 0
M  V30 27579 H 2526.23 2.90057 -2.46112 0
M  V30 27580 H 2527.55 3.94164 -3.05673 0
M  V30 27581 H 2526.7 5.83636 -1.65694 0
M  V30 27582 H 2525.44 4.78208 -0.957536 0
M  V30 27583 H 2524.44 4.44376 -3.23743 0
M  V30 27584 H 2525.67 5.53248 -3.93818 0
M  V30 27585 H 2523.61 6.29975 -1.82941 0
M  V30 27586 H 2523.53 6.693 -3.51531 0
M  V30 27587 H 2524.8 7.3703 -2.53787 0
M  V30 27588 N 2529.03 1.16688 1.05932 0
M  V30 27589 C 2530.44 0.957773 1.60261 0
M  V30 27590 C 2530.79 -0.497416 1.8979 0
M  V30 27591 O 2529.92 -1.37132 1.67403 0
M  V30 27592 C 2530.51 1.73223 2.91169 0
M  V30 27593 C 2529.07 1.568 3.42185 0
M  V30 27594 C 2528.22 1.73863 2.16025 0
M  V30 27595 H 2531.17 1.31505 0.888369 0
M  V30 27596 H 2531.19 1.2102 3.60741 0
M  V30 27597 H 2530.7 2.79129 2.69646 0
M  V30 27598 H 2528.8 0.533501 3.68761 0
M  V30 27599 H 2528.92 2.35422 4.17269 0
M  V30 27600 H 2527.28 1.16637 2.26424 0
M  V30 27601 H 2528.06 2.81165 1.9698 0
M  V30 27602 N 2530.51 -1.24529 0.96594 0
M  V30 27603 C 2531.92 -1.74419 0.66596 0
M  V30 27604 C 2532.27 -1.78317 -0.818376 0
M  V30 27605 O 2531.39 -1.41144 -1.64035 0
M  V30 27606 C 2531.99 -3.16754 1.20217 0
M  V30 27607 C 2530.55 -3.64159 0.952123 0
M  V30 27608 C 2529.7 -2.42856 1.33852 0
M  V30 27609 H 2532.65 -1.10256 1.14146 0
M  V30 27610 H 2532.67 -3.76243 0.56761 0
M  V30 27611 H 2532.18 -3.13885 2.2825 0
M  V30 27612 H 2530.28 -3.72429 -0.112756 0
M  V30 27613 H 2530.39 -4.51716 1.59653 0
M  V30 27614 H 2528.76 -2.43193 0.756907 0
M  V30 27615 H 2529.54 -2.42668 2.42831 0
M  V30 27616 N 2531.99 -0.735845 -1.39367 0
M  V30 27617 C 2533.26 -0.210429 -1.94465 0
M  V30 27618 C 2533.64 1.28796 -1.67257 0
M  V30 27619 O 2532.99 2.05394 -1.00127 0
M  V30 27620 C 2533.2 -0.544958 -3.44719 0
M  V30 27621 C 2534.55 -0.494763 -4.21708 0
M  V30 27622 O 2535.57 -0.482199 -3.52921 0
M  V30 27623 O 2534.43 -0.490043 -5.44298 0
M  V30 27624 H 2531.53 -0.0386811 -0.826095 0
M  V30 27625 H 2534.07 -0.814761 -1.48861 0
M  V30 27626 H 2532.84 -1.58051 -3.5796 0
M  V30 27627 H 2532.47 0.0883001 -3.97502 0
M  V30 27628 N 2533.46 1.49999 -0.483543 0
M  V30 27629 C 2534.7 2.04294 0.065711 0
M  V30 27630 C 2535.07 1.35662 1.35867 0
M  V30 27631 O 2536.27 1.80581 1.99108 0
M  V30 27632 C 2534.54 3.56642 0.232695 0
M  V30 27633 S 2536.1 4.32537 0.738712 0
M  V30 27634 H 2532.92 0.710929 0.010063 0
M  V30 27635 H 2535.52 1.84253 -0.653527 0
M  V30 27636 H 2534.22 4.04143 -0.713918 0
M  V30 27637 H 2533.75 3.81058 0.977684 0
M  V30 27638 H 2535.77 4.53649 2.0104 0
M  V30 27639 N 2534.94 0.216646 1.56104 0
M  V30 27640 C 2536.22 -0.465131 1.89989 0
M  V30 27641 C 2536.6 -1.781 1.13329 0
M  V30 27642 O 2535.95 -2.27225 0.241072 0
M  V30 27643 C 2536.16 -0.662878 3.42647 0
M  V30 27644 C 2537.5 -0.972529 4.13312 0
M  V30 27645 O 2538.53 -0.74984 3.48218 0
M  V30 27646 O 2537.39 -1.39489 5.28398 0
M  V30 27647 H 2534.48 -0.245262 0.789795 0
M  V30 27648 H 2537.03 0.258466 1.6772 0
M  V30 27649 H 2535.8 0.265499 3.90398 0
M  V30 27650 H 2535.42 -1.43814 3.70679 0
M  V30 27651 N 2536.42 -1.57498 -0.0567885 0
M  V30 27652 C 2537.83 -1.76563 -0.606827 0
M  V30 27653 C 2538.18 -0.844125 -1.77113 0
M  V30 27654 O 2537.31 -0.0319291 -2.16376 0
M  V30 27655 C 2537.9 -3.20184 -1.1076 0
M  V30 27656 C 2536.46 -3.40542 -1.60338 0
M  V30 27657 C 2535.61 -2.72202 -0.529263 0
M  V30 27658 H 2538.56 -1.57793 0.16942 0
M  V30 27659 H 2538.58 -3.2517 -1.97597 0
M  V30 27660 H 2538.09 -3.87228 -0.259992 0
M  V30 27661 H 2536.19 -2.78633 -2.47374 0
M  V30 27662 H 2536.31 -4.49053 -1.66998 0
M  V30 27663 H 2534.67 -2.35181 -0.977852 0
M  V30 27664 H 2535.45 -3.41912 0.308412 0
M  V30 27665 N 2537.9 0.328509 -1.54138 0
M  V30 27666 C 2538.84 1.40408 -1.83178 0
M  V30 27667 C 2539.81 1.51609 -0.678521 0
M  V30 27668 O 2541 1.66908 -0.924459 0
M  V30 27669 C 2538.14 2.76842 -2.0604 0
M  V30 27670 C 2537.25 2.74312 -3.33732 0
M  V30 27671 C 2536.39 4.02561 -3.46581 0
M  V30 27672 C 2535.43 3.94319 -4.68166 0
M  V30 27673 N 2534.56 5.14287 -4.77968 0
M  V30 27674 H 2539.4 1.14944 -2.7494 0
M  V30 27675 H 2536.94 0.556514 -1.36167 0
M  V30 27676 H 2538.9 3.5615 -2.17286 0
M  V30 27677 H 2537.53 3.00626 -1.17575 0
M  V30 27678 H 2536.58 1.87024 -3.31249 0
M  V30 27679 H 2537.89 2.64103 -4.23144 0
M  V30 27680 H 2537.05 4.90298 -3.57342 0
M  V30 27681 H 2535.79 4.15569 -2.55252 0
M  V30 27682 H 2534.79 3.04966 -4.57467 0
M  V30 27683 H 2536.02 3.8288 -5.60874 0
M  V30 27684 H 2533.96 5.27811 -3.89553 0
M  V30 27685 H 2533.88 5.06394 -5.61338 0
M  V30 27686 H 2535.15 6.03753 -4.93055 0
M  V30 27687 N 2539.38 1.46127 0.590316 0
M  V30 27688 C 2540.32 1.56114 1.69992 0
M  V30 27689 C 2541.29 0.405895 1.61064 0
M  V30 27690 O 2542.48 0.621645 1.80389 0
M  V30 27691 C 2539.62 1.55018 3.08323 0
M  V30 27692 C 2538.73 2.81221 3.27931 0
M  V30 27693 C 2537.87 2.71681 4.56468 0
M  V30 27694 C 2536.9 3.92857 4.69393 0
M  V30 27695 N 2536.04 3.81749 5.89247 0
M  V30 27696 H 2540.88 2.50898 1.60792 0
M  V30 27697 H 2538.42 1.2448 0.783777 0
M  V30 27698 H 2540.38 1.52369 3.88381 0
M  V30 27699 H 2539.01 0.637722 3.16438 0
M  V30 27700 H 2538.06 2.93883 2.4153 0
M  V30 27701 H 2539.37 3.71051 3.33351 0
M  V30 27702 H 2538.52 2.67095 5.44743 0
M  V30 27703 H 2537.26 1.79478 4.53474 0
M  V30 27704 H 2536.27 3.97784 3.79537 0
M  V30 27705 H 2537.49 4.86147 4.74171 0
M  V30 27706 H 2535.44 2.92327 5.87265 0
M  V30 27707 H 2535.36 4.65227 5.95902 0
M  V30 27708 H 2536.62 3.81124 6.79974 0
M  V30 27709 N 2540.85 -0.834306 1.33705 0
M  V30 27710 C 2542.1 -1.5922 1.25606 0
M  V30 27711 C 2542.43 -1.93395 -0.176625 0
M  V30 27712 O 2541.71 -1.59078 -1.11913 0
M  V30 27713 C 2541.99 -2.89923 2.13581 0
M  V30 27714 C 2541.84 -2.624 3.6533 0
M  V30 27715 C 2543.16 -3.91393 2.01245 0
M  V30 27716 H 2540.28 -0.577711 0.457623 0
M  V30 27717 H 2542.92 -0.961943 1.6385 0
M  V30 27718 H 2541.07 -3.4371 1.81096 0
M  V30 27719 H 2542.75 -2.1501 4.08128 0
M  V30 27720 H 2540.99 -1.96026 3.86984 0
M  V30 27721 H 2541.66 -3.55554 4.22238 0
M  V30 27722 H 2544.14 -3.46925 2.29744 0
M  V30 27723 H 2543.01 -4.80669 2.65045 0
M  V30 27724 H 2543.27 -4.30964 0.986026 0
M  V30 27725 N 2542.33 -1.17248 -1.05312 0
M  V30 27726 C 2543.28 -0.856234 -2.11312 0
M  V30 27727 C 2544.27 0.168666 -1.60014 0
M  V30 27728 O 2545.46 -0.0335935 -1.76968 0
M  V30 27729 C 2542.59 -0.369977 -3.41301 0
M  V30 27730 C 2541.67 -1.42623 -3.99399 0
M  V30 27731 N 2542.06 -2.63935 -4.31476 0
M  V30 27732 C 2540.36 -1.28381 -4.27123 0
M  V30 27733 C 2541.06 -3.31796 -4.77793 0
M  V30 27734 N 2540.04 -2.59174 -4.77839 0
M  V30 27735 H 2543.84 -1.7786 -2.33972 0
M  V30 27736 H 2541.35 -1.06102 -1.22948 0
M  V30 27737 H 2543.35 -0.12497 -4.16713 0
M  V30 27738 H 2542.01 0.546197 -3.20073 0
M  V30 27739 H 2543.02 -3.0091 -4.21514 0
M  V30 27740 H 2539.7 -0.429184 -4.15288 0
M  V30 27741 H 2541.09 -4.35404 -5.11735 0
M  V30 27742 N 2543.81 1.24015 -0.972531 0
M  V30 27743 C 2545.22 1.74063 -0.6752 0
M  V30 27744 C 2545.57 1.78749 0.808908 0
M  V30 27745 O 2544.7 1.42012 1.63284 0
M  V30 27746 C 2545.29 3.16112 -1.21895 0
M  V30 27747 C 2543.85 3.63649 -0.971422 0
M  V30 27748 C 2543 2.42142 -1.35138 0
M  V30 27749 H 2545.95 1.09649 -1.14729 0
M  V30 27750 H 2545.97 3.75936 -0.587555 0
M  V30 27751 H 2545.48 3.1267 -2.29911 0
M  V30 27752 H 2543.58 3.72484 0.0930031 0
M  V30 27753 H 2543.7 4.50863 -1.62047 0
M  V30 27754 H 2542.06 2.42789 -0.769794 0
M  V30 27755 H 2542.84 2.41377 -2.44115 0
M  V30 27756 N 2545.29 0.743226 1.38974 0
M  V30 27757 C 2546.54 0.294205 1.99947 0
M  V30 27758 C 2546.86 -1.12492 1.59281 0
M  V30 27759 O 2546.13 -1.76746 0.844839 0
M  V30 27760 H 2544.71 0.105787 0.739472 0
M  V30 27761 H 2547.37 0.955016 1.69898 0
M  V30 27762 H 2546.47 0.349111 3.10141 0
M  V30 27763 N 2546.77 -1.4974 0.491491 0
M  V30 27764 C 2547.99 -2.07325 -0.0556813 0
M  V30 27765 C 2548.42 -1.35059 -1.30923 0
M  V30 27766 O 2547.77 -0.404396 -1.76732 0
M  V30 27767 C 2547.82 -3.59333 -0.302011 0
M  V30 27768 O 2546.93 -3.88675 -1.37861 0
M  V30 27769 H 2546.27 -0.663635 0.0220072 0
M  V30 27770 H 2548.8 -1.92672 0.688386 0
M  V30 27771 H 2548.81 -4.04459 -0.536393 0
M  V30 27772 H 2547.48 -4.11344 0.613902 0
M  V30 27773 H 2546.06 -3.55369 -1.12993 0
M  V30 27774 N 2548.24 -0.224922 -1.55987 0
M  V30 27775 C 2549.47 0.413654 -2.03233 0
M  V30 27776 C 2549.89 1.52322 -1.10362 0
M  V30 27777 O 2549.25 1.81064 -0.0924268 0
M  V30 27778 C 2549.3 0.919343 -3.48684 0
M  V30 27779 O 2548.4 2.03047 -3.58951 0
M  V30 27780 H 2547.75 0.0931788 -0.65743 0
M  V30 27781 H 2550.28 -0.344545 -2.01678 0
M  V30 27782 H 2550.29 1.22829 -3.89072 0
M  V30 27783 H 2548.96 0.107266 -4.15762 0
M  V30 27784 H 2547.54 1.72791 -3.30451 0
M  V30 27785 N 2549.72 1.57526 0.0484352 0
M  V30 27786 C 2550.97 1.88652 0.744193 0
M  V30 27787 C 2551.3 0.820243 1.76027 0
M  V30 27788 O 2550.58 -0.166951 1.93782 0
M  V30 27789 C 2550.86 3.30436 1.43122 0
M  V30 27790 C 2550.71 4.4774 0.429971 0
M  V30 27791 C 2552.03 3.7082 2.37024 0
M  V30 27792 H 2549.15 0.686124 0.269077 0
M  V30 27793 H 2551.79 1.89999 0.00710192 0
M  V30 27794 H 2549.94 3.29419 2.0595 0
M  V30 27795 H 2551.61 4.60888 -0.194897 0
M  V30 27796 H 2549.86 4.33064 -0.252598 0
M  V30 27797 H 2550.53 5.43785 0.948778 0
M  V30 27798 H 2553 3.7308 1.84256 0
M  V30 27799 H 2551.88 4.7087 2.82086 0
M  V30 27800 H 2552.14 3.02018 3.22859 0
M  V30 27801 N 2551.2 -0.32033 1.5431 0
M  V30 27802 C 2552.11 -1.4173 1.86948 0
M  V30 27803 C 2553.13 -1.56441 0.761717 0
M  V30 27804 O 2554.3 -1.71475 1.05632 0
M  V30 27805 C 2551.37 -2.76397 2.09297 0
M  V30 27806 C 2550.43 -2.70835 3.33087 0
M  V30 27807 C 2549.66 -3.99079 3.5436 0
M  V30 27808 O 2549.88 -4.97503 2.79011 0
M  V30 27809 O 2548.82 -4.02142 4.47845 0
M  V30 27810 H 2552.64 -1.17057 2.80234 0
M  V30 27811 H 2550.23 -0.514649 1.40256 0
M  V30 27812 H 2552.11 -3.56109 2.25309 0
M  V30 27813 H 2550.79 -3.00954 1.19199 0
M  V30 27814 H 2549.69 -1.89663 3.22458 0
M  V30 27815 H 2551.03 -2.51232 4.23253 0
M  V30 27816 N 2552.68 -1.46438 -0.582558 0
M  V30 27817 C 2553.93 -1.51456 -1.33812 0
M  V30 27818 C 2554.25 -0.167826 -1.94276 0
M  V30 27819 O 2553.52 0.805646 -1.78567 0
M  V30 27820 H 2552.1 -0.557827 -0.496828 0
M  V30 27821 H 2554.76 -1.82569 -0.682249 0
M  V30 27822 H 2553.86 -2.26731 -2.14475 0
M  V30 27823 N 2554.16 0.827204 -1.34146 0
M  V30 27824 C 2555.43 1.56863 -1.16847 0
M  V30 27825 C 2555.81 2.09485 0.260617 0
M  V30 27826 O 2555.16 1.90532 1.26134 0
M  V30 27827 C 2555.37 2.69336 -2.21943 0
M  V30 27828 C 2556.72 3.38216 -2.56701 0
M  V30 27829 O 2557.74 2.79589 -2.207 0
M  V30 27830 O 2556.6 4.44076 -3.18526 0
M  V30 27831 H 2553.7 0.692105 -0.452681 0
M  V30 27832 H 2556.24 0.868948 -1.45765 0
M  V30 27833 H 2555.01 2.28176 -3.17886 0
M  V30 27834 H 2554.64 3.46959 -1.94178 0
M  V30 27835 N 2555.63 1.17805 1.04688 0
M  V30 27836 C 2556.87 0.980455 1.7935 0
M  V30 27837 C 2557.24 -0.481926 1.85853 0
M  V30 27838 O 2558.44 -0.798764 2.56658 0
M  V30 27839 C 2556.71 1.60995 3.19085 0
M  V30 27840 S 2558.27 1.55926 4.10162 0
M  V30 27841 H 2555.09 0.352222 0.617625 0
M  V30 27842 H 2557.69 1.49839 1.25572 0
M  V30 27843 H 2556.39 2.66666 3.11957 0
M  V30 27844 H 2555.92 1.09204 3.77939 0
M  V30 27845 H 2557.94 0.570772 4.92906 0
M  V30 27846 N 2557.11 -1.23497 0.979094 0
M  V30 27847 C 2558.36 -1.91498 0.645974 0
M  V30 27848 C 2558.68 -1.76785 -0.822917 0
M  V30 27849 O 2557.95 -1.14642 -1.58852 0
M  V30 27850 H 2556.53 -0.708763 0.235931 0
M  V30 27851 H 2559.19 -1.50149 1.24262 0
M  V30 27852 H 2558.29 -2.98948 0.896464 0
M  V30 27853 N 2558.59 -0.750586 -1.38578 0
M  V30 27854 C 2559.54 -0.110203 -2.32339 0
M  V30 27855 C 2560.53 0.708647 -1.53865 0
M  V30 27856 O 2561.74 0.608082 -1.69418 0
M  V30 27857 H 2558.11 -0.0168407 -0.751811 0
M  V30 27858 H 2560.09 -0.917102 -2.83957 0
M  V30 27859 C 2558.83 0.771007 -3.39044 0
M  V30 27860 H 2558.16 0.150304 -3.99517 0
M  V30 27861 H 2559.6 1.18642 -4.07063 0
M  V30 27862 C 2558.06 1.91229 -2.77368 0
M  V30 27863 O 2558.59 3.00621 -2.66439 0
M  V30 27864 N 2556.79 1.70642 -2.35222 0
M  V30 27865 H 2556.34 0.816687 -2.44311 0
M  V30 27866 H 2556.3 2.47175 -1.94298 0
M  V30 27867 N 2560.07 1.49477 -0.499425 0
M  V30 27868 C 2561.48 1.8663 -0.0512479 0
M  V30 27869 C 2561.83 1.41189 1.36236 0
M  V30 27870 O 2560.96 0.789087 2.015 0
M  V30 27871 C 2561.55 3.3869 -0.0862246 0
M  V30 27872 C 2560.11 3.75149 0.306604 0
M  V30 27873 C 2559.26 2.73467 -0.459445 0
M  V30 27874 H 2562.21 1.41817 -0.712289 0
M  V30 27875 H 2562.23 3.73828 0.709441 0
M  V30 27876 H 2561.74 3.71733 -1.11518 0
M  V30 27877 H 2559.84 3.47715 1.33885 0
M  V30 27878 H 2559.96 4.79099 -0.0117511 0
M  V30 27879 H 2558.32 2.54539 0.0905198 0
M  V30 27880 H 2559.1 3.09354 -1.48845 0
M  V30 27881 N 2561.55 0.233191 1.55865 0
M  V30 27882 C 2562.77 -0.402871 2.0345 0
M  V30 27883 C 2563.2 -1.51734 1.11168 0
M  V30 27884 O 2562.56 -1.81013 0.102028 0
M  V30 27885 C 2562.6 -0.900839 3.49167 0
M  V30 27886 O 2561.71 -2.01141 3.60022 0
M  V30 27887 H 2561.05 -0.089691 0.657915 0
M  V30 27888 H 2563.58 0.355236 2.01493 0
M  V30 27889 H 2563.59 -1.20764 3.89718 0
M  V30 27890 H 2562.26 -0.0852158 4.15813 0
M  V30 27891 H 2560.84 -1.71036 3.31363 0
M  V30 27892 N 2563.03 -1.57549 -0.0400806 0
M  V30 27893 C 2564.27 -1.89044 -0.734178 0
M  V30 27894 C 2564.6 -0.829566 -1.7559 0
M  V30 27895 O 2563.88 0.156672 -1.93868 0
M  V30 27896 C 2564.16 -3.3119 -1.41368 0
M  V30 27897 C 2564.02 -4.47962 -0.406221 0
M  V30 27898 C 2565.33 -3.72072 -2.35054 0
M  V30 27899 H 2562.45 -0.687542 -0.265435 0
M  V30 27900 H 2565.1 -1.9 0.00297427 0
M  V30 27901 H 2563.25 -3.30506 -2.042 0
M  V30 27902 H 2564.92 -4.60778 0.219336 0
M  V30 27903 H 2563.16 -4.32924 0.275561 0
M  V30 27904 H 2563.83 -5.44281 -0.919927 0
M  V30 27905 H 2566.31 -3.74052 -1.82275 0
M  V30 27906 H 2565.18 -4.7236 -2.79585 0
M  V30 27907 H 2565.44 -3.03726 -3.21252 0
M  V30 27908 N 2564.5 0.312142 -1.54478 0
M  V30 27909 C 2565.75 1.04665 -1.72886 0
M  V30 27910 C 2566.07 1.88172 -0.51151 0
M  V30 27911 O 2565.34 1.9007 0.474373 0
M  V30 27912 H 2563.92 0.389414 -0.637468 0
M  V30 27913 H 2566.58 0.345818 -1.91807 0
M  V30 27914 H 2565.68 1.70615 -2.61337 0
M  V30 27915 N 2565.98 1.46745 0.574784 0
M  V30 27916 C 2567.23 1.51729 1.32895 0
M  V30 27917 C 2567.54 0.176727 1.948 0
M  V30 27918 O 2568.75 0.104432 2.71299 0
M  V30 27919 C 2567.21 2.6739 2.40896 0
M  V30 27920 C 2566.81 4.07901 1.85259 0
M  V30 27921 C 2568.56 2.81652 3.17604 0
M  V30 27922 C 2566.46 5.14889 2.90936 0
M  V30 27923 H 2565.39 0.564707 0.499621 0
M  V30 27924 H 2568.05 1.72976 0.612506 0
M  V30 27925 H 2566.43 2.39488 3.15375 0
M  V30 27926 H 2567.6 4.45628 1.1727 0
M  V30 27927 H 2565.92 3.98373 1.21192 0
M  V30 27928 H 2568.51 3.58751 3.96487 0
M  V30 27929 H 2568.86 1.89454 3.70692 0
M  V30 27930 H 2569.39 3.09238 2.50233 0
M  V30 27931 H 2566.13 6.08904 2.42726 0
M  V30 27932 H 2565.65 4.81697 3.5739 0
M  V30 27933 H 2567.33 5.41077 3.54746 0
M  V30 27934 N 2567.46 -0.820078 1.34583 0
M  V30 27935 C 2568.71 -1.57645 1.27099 0
M  V30 27936 C 2569.03 -1.93855 -0.158283 0
M  V30 27937 O 2568.29 -1.60465 -1.12025 0
M  V30 27938 C 2568.59 -2.88466 2.11002 0
M  V30 27939 C 2568.25 -2.71536 3.59971 0
M  V30 27940 C 2566.92 -2.66627 4.00579 0
M  V30 27941 C 2569.27 -2.55013 4.54552 0
M  V30 27942 C 2566.6 -2.43119 5.33957 0
M  V30 27943 C 2568.95 -2.33037 5.88113 0
M  V30 27944 C 2567.61 -2.26541 6.27882 0
M  V30 27945 H 2566.88 -0.576865 0.465089 0
M  V30 27946 H 2569.53 -0.948642 1.66352 0
M  V30 27947 H 2567.83 -3.55554 1.64586 0
M  V30 27948 H 2569.53 -3.46081 2.02556 0
M  V30 27949 H 2566.12 -2.76199 3.27738 0
M  V30 27950 H 2570.31 -2.57828 4.24074 0
M  V30 27951 H 2565.56 -2.3655 5.63786 0
M  V30 27952 H 2569.74 -2.1924 6.60989 0
M  V30 27953 H 2567.36 -2.08087 7.31166 0
M  V30 27954 N 2568.94 -1.18359 -1.04062 0
M  V30 27955 C 2570.17 -1.00241 -1.80652 0
M  V30 27956 C 2570.58 0.45233 -1.83713 0
M  V30 27957 O 2569.92 1.32596 -1.27137 0
M  V30 27958 C 2569.98 -1.48094 -3.2758 0
M  V30 27959 C 2569.64 -2.96008 -3.48179 0
M  V30 27960 C 2570.64 -3.93862 -3.39365 0
M  V30 27961 C 2568.33 -3.34439 -3.74774 0
M  V30 27962 C 2570.32 -5.28144 -3.56851 0
M  V30 27963 C 2568.01 -4.68884 -3.91907 0
M  V30 27964 C 2569.01 -5.65545 -3.82946 0
M  V30 27965 O 2568.69 -6.97556 -3.99588 0
M  V30 27966 H 2568.43 -0.354251 -0.575745 0
M  V30 27967 H 2570.98 -1.57335 -1.32041 0
M  V30 27968 H 2569.21 -0.853654 -3.7716 0
M  V30 27969 H 2570.9 -1.26367 -3.85728 0
M  V30 27970 H 2571.66 -3.65517 -3.18783 0
M  V30 27971 H 2567.54 -2.59762 -3.80847 0
M  V30 27972 H 2571.09 -6.03577 -3.49773 0
M  V30 27973 H 2566.98 -4.9693 -4.11984 0
M  V30 27974 H 2567.75 -7.0446 -4.16748 0
M  V30 27975 N 2570.42 1.22976 -0.98563 0
M  V30 27976 C 2571.66 1.91531 -0.65742 0
M  V30 27977 C 2571.99 1.76846 0.809676 0
M  V30 27978 O 2571.25 1.12661 1.60019 0
M  V30 27979 C 2571.54 3.43119 -1.0002 0
M  V30 27980 C 2571.21 3.77988 -2.45837 0
M  V30 27981 C 2569.87 3.87217 -2.85686 0
M  V30 27982 C 2572.22 3.94699 -3.40385 0
M  V30 27983 C 2569.55 4.10588 -4.19088 0
M  V30 27984 C 2571.9 4.19572 -4.73437 0
M  V30 27985 C 2570.57 4.27023 -5.13038 0
M  V30 27986 H 2569.84 0.700863 -0.240567 0
M  V30 27987 H 2572.49 1.45893 -1.24046 0
M  V30 27988 H 2570.79 3.90364 -0.335141 0
M  V30 27989 H 2572.49 3.94403 -0.724391 0
M  V30 27990 H 2569.08 3.71383 -2.13945 0
M  V30 27991 H 2573.26 3.86955 -3.10773 0
M  V30 27992 H 2568.52 4.14581 -4.49369 0
M  V30 27993 H 2572.69 4.31446 -5.46651 0
M  V30 27994 H 2570.32 4.44885 -6.16426 0
M  V30 27995 N 2571.89 0.757924 1.38178 0
M  V30 27996 C 2573.14 0.316488 2.00315 0
M  V30 27997 C 2573.47 -1.10022 1.60028 0
M  V30 27998 O 2572.75 -1.75432 0.839866 0
M  V30 27999 C 2573.03 0.444307 3.57348 0
M  V30 28000 C 2572.88 1.90243 4.07587 0
M  V30 28001 C 2574.2 -0.159723 4.3981 0
M  V30 28002 H 2571.32 0.116471 0.727739 0
M  V30 28003 H 2573.96 0.958381 1.64058 0
M  V30 28004 H 2572.11 -0.102165 3.88366 0
M  V30 28005 H 2573.79 2.50755 3.87195 0
M  V30 28006 H 2572.03 2.41602 3.60293 0
M  V30 28007 H 2572.7 1.943 5.16673 0
M  V30 28008 H 2575.18 0.306387 4.1497 0
M  V30 28009 H 2574.05 -0.040071 5.48885 0
M  V30 28010 H 2574.31 -1.24851 4.24104 0
M  V30 28011 N 2573.37 -1.4921 0.507345 0
M  V30 28012 C 2574.6 -2.07373 -0.0336885 0
M  V30 28013 C 2575.02 -1.3644 -1.29483 0
M  V30 28014 O 2574.38 -0.423118 -1.76294 0
M  V30 28015 C 2574.43 -3.59633 -0.263882 0
M  V30 28016 O 2573.53 -3.90115 -1.33731 0
M  V30 28017 H 2572.87 -0.663364 0.0290447 0
M  V30 28018 H 2575.4 -1.91931 0.708783 0
M  V30 28019 H 2575.41 -4.05005 -0.493464 0
M  V30 28020 H 2574.09 -4.1067 0.657496 0
M  V30 28021 H 2572.67 -3.56547 -1.09217 0
M  V30 28022 N 2574.85 -0.241454 -1.55739 0
M  V30 28023 C 2576.08 0.388534 -2.02914 0
M  V30 28024 C 2576.49 1.52476 -1.12017 0
M  V30 28025 O 2575.83 1.83268 -0.125935 0
M  V30 28026 C 2575.89 0.963014 -3.46362 0
M  V30 28027 C 2575.56 -0.0402719 -4.56982 0
M  V30 28028 C 2576.55 -0.847857 -5.1294 0
M  V30 28029 C 2574.24 -0.164787 -5.0203 0
M  V30 28030 C 2576.23 -1.76647 -6.12433 0
M  V30 28031 C 2573.92 -1.08691 -6.01356 0
M  V30 28032 C 2574.92 -1.88628 -6.56436 0
M  V30 28033 O 2574.61 -2.79286 -7.53826 0
M  V30 28034 H 2574.34 0.0971335 -0.668985 0
M  V30 28035 H 2576.89 -0.361283 -2.02198 0
M  V30 28036 H 2575.12 1.76229 -3.44209 0
M  V30 28037 H 2576.81 1.5025 -3.77067 0
M  V30 28038 H 2577.58 -0.762217 -4.78973 0
M  V30 28039 H 2573.46 0.44733 -4.58825 0
M  V30 28040 H 2577 -2.39083 -6.55351 0
M  V30 28041 H 2572.9 -1.17349 -6.34744 0
M  V30 28042 H 2573.67 -2.73586 -7.71423 0
M  V30 28043 N 2576.33 1.57568 0.0317248 0
M  V30 28044 C 2577.58 1.88331 0.722098 0
M  V30 28045 C 2577.89 0.839618 1.76663 0
M  V30 28046 O 2579.1 1.03639 2.50941 0
M  V30 28047 C 2577.55 3.34209 1.33538 0
M  V30 28048 C 2577.16 4.46803 0.327336 0
M  V30 28049 C 2578.9 3.74124 2.00579 0
M  V30 28050 C 2576.81 5.83739 0.948812 0
M  V30 28051 H 2575.74 0.702666 0.273453 0
M  V30 28052 H 2578.39 1.83485 -0.0236134 0
M  V30 28053 H 2576.77 3.33792 2.13071 0
M  V30 28054 H 2577.95 4.58684 -0.441086 0
M  V30 28055 H 2576.26 4.15703 -0.240831 0
M  V30 28056 H 2578.86 4.73749 2.47924 0
M  V30 28057 H 2579.2 3.0598 2.8228 0
M  V30 28058 H 2579.74 3.76704 1.27824 0
M  V30 28059 H 2576.48 6.55276 0.171271 0
M  V30 28060 H 2576 5.75583 1.68714 0
M  V30 28061 H 2577.67 6.30383 1.45694 0
M  V30 28062 N 2577.81 -0.303946 1.54641 0
M  V30 28063 C 2579.06 -1.03714 1.72992 0
M  V30 28064 C 2579.37 -1.88528 0.521201 0
M  V30 28065 O 2580.57 -2.6509 0.586454 0
M  V30 28066 C 2579.03 -1.89364 3.06054 0
M  V30 28067 C 2578.64 -1.09567 4.34395 0
M  V30 28068 C 2580.38 -2.62301 3.33764 0
M  V30 28069 C 2578.29 -1.94476 5.5851 0
M  V30 28070 H 2577.22 -0.390936 0.644737 0
M  V30 28071 H 2579.87 -0.294296 1.81125 0
M  V30 28072 H 2578.25 -2.67624 2.91879 0
M  V30 28073 H 2579.43 -0.359404 4.59396 0
M  V30 28074 H 2577.74 -0.482252 4.13598 0
M  V30 28075 H 2580.34 -3.26173 4.23692 0
M  V30 28076 H 2580.68 -3.30976 2.52509 0
M  V30 28077 H 2581.21 -1.91091 3.48897 0
M  V30 28078 H 2577.95 -1.30276 6.42424 0
M  V30 28079 H 2577.47 -2.65783 5.37698 0
M  V30 28080 H 2579.15 -2.52594 5.95655 0
M  V30 28081 N 2579.28 -1.47047 -0.566994 0
M  V30 28082 C 2580.53 -1.52432 -1.32089 0
M  V30 28083 C 2580.85 -0.187055 -1.94704 0
M  V30 28084 O 2582.05 -0.118818 -2.7124 0
M  V30 28085 C 2580.51 -2.68663 -2.39475 0
M  V30 28086 C 2580.12 -4.08878 -1.83093 0
M  V30 28087 C 2581.86 -2.83332 -3.16106 0
M  V30 28088 C 2579.77 -5.16424 -2.88201 0
M  V30 28089 H 2578.7 -0.567349 -0.49662 0
M  V30 28090 H 2581.35 -1.73298 -0.603324 0
M  V30 28091 H 2579.73 -2.41157 -3.14101 0
M  V30 28092 H 2580.9 -4.46244 -1.14905 0
M  V30 28093 H 2579.22 -3.99011 -1.19078 0
M  V30 28094 H 2581.82 -3.60849 -3.94579 0
M  V30 28095 H 2582.16 -1.91418 -3.69682 0
M  V30 28096 H 2582.69 -3.10561 -2.4859 0
M  V30 28097 H 2579.43 -6.10183 -2.39493 0
M  V30 28098 H 2578.95 -4.83586 -3.5483 0
M  V30 28099 H 2580.63 -5.42951 -3.51871 0
M  V30 28100 N 2580.76 0.812929 -1.35016 0
M  V30 28101 C 2581.99 1.60636 -1.3119 0
M  V30 28102 C 2582.41 1.87782 0.109349 0
M  V30 28103 O 2581.77 1.46049 1.07421 0
M  V30 28104 C 2581.82 2.91834 -2.11814 0
M  V30 28105 O 2580.92 3.84367 -1.49451 0
M  V30 28106 H 2580.26 0.488173 -0.450092 0
M  V30 28107 H 2582.79 1.00944 -1.77965 0
M  V30 28108 H 2582.8 3.41314 -2.23537 0
M  V30 28109 H 2581.48 2.71401 -3.15142 0
M  V30 28110 H 2580.06 3.42904 -1.4653 0
M  V30 28111 N 2582.24 1.18909 1.03433 0
M  V30 28112 C 2583.49 0.988365 1.76742 0
M  V30 28113 C 2583.82 -0.481407 1.88448 0
M  V30 28114 O 2583.07 -1.37369 1.39386 0
M  V30 28115 C 2583.37 1.59592 3.19789 0
M  V30 28116 C 2583.04 3.09289 3.28102 0
M  V30 28117 C 2581.7 3.50145 3.30078 0
M  V30 28118 C 2584.05 4.05302 3.27689 0
M  V30 28119 C 2581.38 4.85577 3.29291 0
M  V30 28120 C 2583.73 5.40656 3.28441 0
M  V30 28121 C 2582.39 5.80951 3.28712 0
M  V30 28122 H 2581.66 0.361668 0.646743 0
M  V30 28123 H 2584.31 1.4807 1.21439 0
M  V30 28124 H 2582.62 1.02575 3.78134 0
M  V30 28125 H 2584.31 1.41596 3.75169 0
M  V30 28126 H 2580.9 2.76731 3.27289 0
M  V30 28127 H 2585.09 3.74783 3.25348 0
M  V30 28128 H 2580.34 5.16085 3.27821 0
M  V30 28129 H 2584.52 6.14815 3.27071 0
M  V30 28130 H 2582.14 6.85868 3.27856 0
M  V30 28131 N 2583.72 -1.22452 0.992137 0
M  V30 28132 C 2584.65 -2.26643 0.561716 0
M  V30 28133 C 2585.63 -1.65059 -0.411026 0
M  V30 28134 O 2586.81 -1.9184 -0.301827 0
M  V30 28135 C 2583.94 -3.47074 -0.125186 0
M  V30 28136 C 2582.9 -4.21089 0.766022 0
M  V30 28137 C 2582.22 -5.34673 -0.0537544 0
M  V30 28138 C 2583.52 -4.79852 2.0625 0
M  V30 28139 H 2585.22 -2.62899 1.43263 0
M  V30 28140 H 2582.76 -1.26376 0.690305 0
M  V30 28141 H 2584.72 -4.19121 -0.43769 0
M  V30 28142 H 2583.44 -3.09912 -1.03064 0
M  V30 28143 H 2582.1 -3.50876 1.06216 0
M  V30 28144 H 2581.75 -4.93752 -0.960101 0
M  V30 28145 H 2581.45 -5.85118 0.539517 0
M  V30 28146 H 2582.97 -6.09536 -0.36037 0
M  V30 28147 H 2584.39 -5.43845 1.814 0
M  V30 28148 H 2582.78 -5.40633 2.60453 0
M  V30 28149 H 2583.85 -3.99946 2.74174 0
M  V30 28150 N 2585.2 -0.765242 -1.37774 0
M  V30 28151 C 2586.44 -0.327107 -2.00145 0
M  V30 28152 C 2586.78 1.09172 -1.60609 0
M  V30 28153 O 2586.05 1.74984 -0.849158 0
M  V30 28154 C 2586.33 -0.463252 -3.57108 0
M  V30 28155 C 2586.19 -1.92402 -4.06573 0
M  V30 28156 C 2587.51 0.136396 -4.39889 0
M  V30 28157 H 2584.62 -0.120329 -0.727111 0
M  V30 28158 H 2587.27 -0.967068 -1.63548 0
M  V30 28159 H 2585.42 0.0815675 -3.88414 0
M  V30 28160 H 2587.09 -2.52805 -3.85859 0
M  V30 28161 H 2585.33 -2.43509 -3.59007 0
M  V30 28162 H 2586 -1.97038 -5.15636 0
M  V30 28163 H 2588.48 -0.328389 -4.14802 0
M  V30 28164 H 2587.35 0.0109617 -5.48899 0
M  V30 28165 H 2587.62 1.226 -4.24761 0
M  V30 28166 N 2586.67 1.48939 -0.515251 0
M  V30 28167 C 2587.92 2.02786 0.0242152 0
M  V30 28168 C 2588.25 1.39291 1.35321 0
M  V30 28169 O 2587.53 0.533502 1.8704 0
M  V30 28170 C 2587.81 3.59736 0.161777 0
M  V30 28171 C 2587.66 4.33736 -1.19134 0
M  V30 28172 C 2588.98 4.3089 0.895644 0
M  V30 28173 H 2586.1 0.736964 0.00732618 0
M  V30 28174 H 2588.74 1.77816 -0.669426 0
M  V30 28175 H 2586.89 3.81141 0.752557 0
M  V30 28176 H 2588.57 4.23789 -1.8221 0
M  V30 28177 H 2586.81 3.95733 -1.77702 0
M  V30 28178 H 2587.48 5.41956 -1.04824 0
M  V30 28179 H 2589.96 4.14226 0.394455 0
M  V30 28180 H 2588.83 5.40426 0.960764 0
M  V30 28181 H 2589.09 3.97133 1.94263 0
M  V30 28182 N 2588.15 0.249709 1.55609 0
M  V30 28183 C 2589.4 -0.374806 1.99306 0
M  V30 28184 C 2589.73 -1.57385 1.13769 0
M  V30 28185 O 2589.01 -1.93451 0.201745 0
M  V30 28186 C 2589.29 -0.781924 3.51508 0
M  V30 28187 C 2589.14 0.422707 4.47809 0
M  V30 28188 C 2590.46 -1.62786 4.08887 0
M  V30 28189 H 2587.58 -0.13476 0.724575 0
M  V30 28190 H 2590.22 0.351582 1.86719 0
M  V30 28191 H 2588.37 -1.40083 3.62366 0
M  V30 28192 H 2590.05 1.06116 4.48929 0
M  V30 28193 H 2588.29 1.06532 4.20516 0
M  V30 28194 H 2588.96 0.0944736 5.51919 0
M  V30 28195 H 2591.44 -1.10539 4.01149 0
M  V30 28196 H 2590.31 -1.88157 5.15643 0
M  V30 28197 H 2590.57 -2.60062 3.57519 0
M  V30 28198 N 2589.63 -1.57583 -0.0233682 0
M  V30 28199 C 2590.58 -2.08025 -1.04059 0
M  V30 28200 C 2591.57 -0.995228 -1.37082 0
M  V30 28201 O 2592.78 -1.18007 -1.35921 0
M  V30 28202 H 2589.15 -0.663929 -0.353133 0
M  V30 28203 H 2591.13 -2.92521 -0.589402 0
M  V30 28204 C 2589.87 -2.57975 -2.33119 0
M  V30 28205 H 2589.2 -3.41084 -2.08571 0
M  V30 28206 H 2590.64 -2.96973 -3.02627 0
M  V30 28207 C 2589.1 -1.48348 -3.02481 0
M  V30 28208 O 2589.63 -0.852967 -3.9254 0
M  V30 28209 N 2587.83 -1.21662 -2.63906 0
M  V30 28210 H 2587.38 -1.73119 -1.90755 0
M  V30 28211 H 2587.34 -0.485272 -3.10632 0
M  V30 28212 N 2591.11 0.29574 -1.548 0
M  V30 28213 C 2592.04 1.38969 -1.81005 0
M  V30 28214 C 2593.02 1.48533 -0.66157 0
M  V30 28215 O 2594.2 1.65512 -0.902103 0
M  V30 28216 C 2591.33 2.76832 -1.95146 0
M  V30 28217 C 2590.38 2.84665 -3.17597 0
M  V30 28218 S 2591.21 2.46224 -4.75536 0
M  V30 28219 C 2592.37 3.86105 -4.92619 0
M  V30 28220 H 2592.6 1.16533 -2.73509 0
M  V30 28221 H 2590.13 0.494142 -1.46279 0
M  V30 28222 H 2592.09 3.56235 -2.03978 0
M  V30 28223 H 2590.75 2.96533 -1.0357 0
M  V30 28224 H 2589.94 3.85797 -3.2431 0
M  V30 28225 H 2589.55 2.13262 -3.07238 0
M  V30 28226 H 2591.84 4.81155 -4.76965 0
M  V30 28227 H 2592.78 3.84359 -5.94705 0
M  V30 28228 H 2593.19 3.76352 -4.20737 0
M  V30 28229 N 2592.59 1.47346 0.559187 0
M  V30 28230 C 2593.82 1.57253 1.33996 0
M  V30 28231 C 2594.23 0.221011 1.87905 0
M  V30 28232 O 2593.57 -0.795588 1.65578 0
M  V30 28233 C 2593.63 2.53615 2.54793 0
M  V30 28234 C 2593.29 3.99353 2.22185 0
M  V30 28235 C 2594.29 4.87894 1.79598 0
M  V30 28236 C 2591.98 4.44673 2.33605 0
M  V30 28237 C 2593.97 6.19774 1.48858 0
M  V30 28238 C 2591.66 5.76581 2.02477 0
M  V30 28239 C 2592.66 6.63954 1.60171 0
M  V30 28240 O 2592.34 7.93411 1.29437 0
M  V30 28241 H 2592.08 0.533738 0.414849 0
M  V30 28242 H 2594.63 1.93661 0.684431 0
M  V30 28243 H 2592.86 2.1227 3.23231 0
M  V30 28244 H 2594.55 2.53671 3.16868 0
M  V30 28245 H 2595.31 4.54129 1.7027 0
M  V30 28246 H 2591.19 3.76874 2.65494 0
M  V30 28247 H 2594.74 6.87928 1.15763 0
M  V30 28248 H 2590.63 6.09889 2.11437 0
M  V30 28249 H 2591.4 8.05897 1.43084 0
M  V30 28250 N 2594.07 -0.805758 1.35445 0
M  V30 28251 C 2595.31 -1.55799 1.281 0
M  V30 28252 C 2595.63 -1.95081 -0.142393 0
M  V30 28253 O 2596.83 -2.69386 -0.338122 0
M  V30 28254 C 2595.29 -2.8117 2.24658 0
M  V30 28255 C 2594.9 -2.49123 3.72346 0
M  V30 28256 C 2596.64 -3.59177 2.26257 0
M  V30 28257 C 2594.55 -3.70791 4.60726 0
M  V30 28258 H 2593.48 -0.5848 0.475947 0
M  V30 28259 H 2596.13 -0.885632 1.60713 0
M  V30 28260 H 2594.51 -3.50121 1.85017 0
M  V30 28261 H 2595.69 -1.88173 4.20627 0
M  V30 28262 H 2594 -1.8436 3.73364 0
M  V30 28263 H 2596.6 -4.49547 2.89503 0
M  V30 28264 H 2596.94 -3.96566 1.26654 0
M  V30 28265 H 2597.47 -2.97189 2.64431 0
M  V30 28266 H 2594.21 -3.3851 5.6133 0
M  V30 28267 H 2593.73 -4.30963 4.1717 0
M  V30 28268 H 2595.41 -4.3801 4.7619 0
M  V30 28269 N 2595.54 -1.19456 -1.02801 0
M  V30 28270 C 2596.51 -0.934992 -2.09262 0
M  V30 28271 C 2597.51 0.0848733 -1.60576 0
M  V30 28272 O 2598.7 -0.149963 -1.73553 0
M  V30 28273 C 2595.83 -0.405369 -3.38481 0
M  V30 28274 H 2597.02 -1.8792 -2.33722 0
M  V30 28275 H 2594.57 -1.00834 -1.19425 0
M  V30 28276 H 2595.31 0.544843 -3.1969 0
M  V30 28277 H 2595.09 -1.14072 -3.7514 0
M  V30 28278 H 2596.58 -0.242879 -4.16893 0
M  V30 28279 N 2597.02 1.21924 -0.998617 0
M  V30 28280 C 2598.27 1.91106 -0.678701 0
M  V30 28281 C 2598.6 1.775 0.787879 0
M  V30 28282 O 2597.88 1.14753 1.57041 0
M  V30 28283 C 2598.16 3.43127 -1.09251 0
M  V30 28284 C 2598.01 3.65756 -2.61807 0
M  V30 28285 C 2599.33 4.35273 -0.650061 0
M  V30 28286 H 2596.45 0.694008 -0.248037 0
M  V30 28287 H 2599.09 1.43686 -1.24316 0
M  V30 28288 H 2597.24 3.83646 -0.612238 0
M  V30 28289 H 2598.91 3.34605 -3.17549 0
M  V30 28290 H 2597.16 3.0984 -3.03614 0
M  V30 28291 H 2597.83 4.72245 -2.85813 0
M  V30 28292 H 2600.3 4.02301 -1.06267 0
M  V30 28293 H 2599.18 5.403 -0.967838 0
M  V30 28294 H 2599.44 4.39813 0.449061 0
M  V30 28295 N 2598.5 0.772537 1.37367 0
M  V30 28296 C 2599.75 0.333896 1.98917 0
M  V30 28297 C 2600.06 -1.09586 1.62019 0
M  V30 28298 O 2601.27 -1.63593 2.16679 0
M  V30 28299 C 2599.72 0.546033 3.55734 0
M  V30 28300 C 2599.33 1.9861 4.01569 0
M  V30 28301 C 2601.08 0.171054 4.24155 0
M  V30 28302 C 2598.98 2.14579 5.51099 0
M  V30 28303 H 2597.91 0.121098 0.744212 0
M  V30 28304 H 2600.56 0.951778 1.56887 0
M  V30 28305 H 2598.95 -0.141317 3.95748 0
M  V30 28306 H 2600.12 2.70847 3.72798 0
M  V30 28307 H 2598.43 2.31775 3.45933 0
M  V30 28308 H 2601.03 0.268874 5.34024 0
M  V30 28309 H 2601.37 -0.878783 4.06919 0
M  V30 28310 H 2601.91 0.810983 3.89446 0
M  V30 28311 H 2598.65 3.17885 5.73262 0
M  V30 28312 H 2598.17 1.46827 5.81551 0
M  V30 28313 H 2599.85 1.94479 6.17079 0
M  V30 28314 N 2599.98 -1.48664 0.523142 0
M  V30 28315 C 2600.91 -2.32342 -0.232269 0
M  V30 28316 C 2601.89 -1.4166 -0.941612 0
M  V30 28317 O 2603.07 -1.70553 -0.928721 0
M  V30 28318 C 2600.2 -3.227 -1.28381 0
M  V30 28319 C 2599.16 -4.22352 -0.693024 0
M  V30 28320 C 2598.48 -5.01797 -1.84672 0
M  V30 28321 C 2599.78 -5.21252 0.330721 0
M  V30 28322 H 2601.48 -2.95747 0.466244 0
M  V30 28323 H 2599.02 -1.42221 0.225668 0
M  V30 28324 H 2600.98 -3.80063 -1.82018 0
M  V30 28325 H 2599.7 -2.57281 -2.01181 0
M  V30 28326 H 2598.36 -3.66166 -0.178235 0
M  V30 28327 H 2598.01 -4.32808 -2.56293 0
M  V30 28328 H 2597.71 -5.6924 -1.45737 0
M  V30 28329 H 2599.23 -5.6201 -2.38699 0
M  V30 28330 H 2600.65 -5.73178 -0.118306 0
M  V30 28331 H 2599.04 -5.96709 0.637079 0
M  V30 28332 H 2600.11 -4.68806 1.23891 0
M  V30 28333 N 2601.46 -0.257958 -1.55475 0
M  V30 28334 C 2602.37 0.647386 -2.25491 0
M  V30 28335 C 2603.38 1.18424 -1.27482 0
M  V30 28336 O 2604.56 1.21817 -1.60382 0
M  V30 28337 C 2601.62 1.82273 -2.94919 0
M  V30 28338 C 2600.68 1.32425 -4.08365 0
M  V30 28339 C 2599.92 2.44357 -4.74474 0
M  V30 28340 O 2600.14 3.63336 -4.39708 0
M  V30 28341 O 2599.07 2.13487 -5.62767 0
M  V30 28342 H 2602.9 0.0807173 -3.03593 0
M  V30 28343 H 2600.48 -0.0260225 -1.49377 0
M  V30 28344 H 2602.37 2.5084 -3.38611 0
M  V30 28345 H 2601.04 2.37681 -2.19748 0
M  V30 28346 H 2599.95 0.60554 -3.69167 0
M  V30 28347 H 2601.28 0.816126 -4.85387 0
M  V30 28348 N 2602.93 1.57593 0.0150108 0
M  V30 28349 C 2603.88 2.08574 1.02955 0
M  V30 28350 C 2604.88 1.00248 1.36553 0
M  V30 28351 O 2606.08 1.18726 1.35293 0
M  V30 28352 H 2602.46 0.665792 0.349607 0
M  V30 28353 H 2604.43 2.9283 0.57388 0
M  V30 28354 C 2603.18 2.59207 2.31747 0
M  V30 28355 H 2602.5 3.42185 2.06759 0
M  V30 28356 H 2603.94 2.98574 3.01048 0
M  V30 28357 C 2602.4 1.4995 3.0169 0
M  V30 28358 O 2602.93 0.873772 3.92082 0
M  V30 28359 N 2601.14 1.2306 2.63258 0
M  V30 28360 H 2600.68 1.74128 1.89834 0
M  V30 28361 H 2600.64 0.501739 3.10371 0
M  V30 28362 N 2604.41 -0.287527 1.54955 0
M  V30 28363 C 2605.66 -1.02103 1.74875 0
M  V30 28364 C 2605.99 -1.868 0.541862 0
M  V30 28365 O 2605.24 -1.89824 -0.475959 0
M  V30 28366 C 2605.54 -1.94507 2.99836 0
M  V30 28367 C 2605.21 -1.25678 4.33031 0
M  V30 28368 C 2603.87 -1.0664 4.69235 0
M  V30 28369 C 2606.22 -0.765823 5.15543 0
M  V30 28370 C 2603.55 -0.37212 5.85519 0
M  V30 28371 C 2605.9 -0.0851989 6.32543 0
M  V30 28372 C 2604.57 0.117017 6.67397 0
M  V30 28373 H 2603.84 -0.373621 0.639913 0
M  V30 28374 H 2606.48 -0.294632 1.8922 0
M  V30 28375 H 2604.79 -2.7372 2.8033 0
M  V30 28376 H 2606.48 -2.51356 3.12444 0
M  V30 28377 H 2603.07 -1.41505 4.04567 0
M  V30 28378 H 2607.26 -0.900574 4.88061 0
M  V30 28379 H 2602.51 -0.204588 6.11058 0
M  V30 28380 H 2606.69 0.303058 6.9574 0
M  V30 28381 H 2604.32 0.656992 7.57356 0
M  V30 28382 N 2605.89 -1.47641 -0.551365 0
M  V30 28383 C 2607.12 -1.58439 -1.33835 0
M  V30 28384 C 2607.54 -0.237096 -1.866 0
M  V30 28385 O 2606.9 0.787965 -1.63281 0
M  V30 28386 C 2606.95 -2.6177 -2.4801 0
M  V30 28387 O 2606.05 -2.17446 -3.50415 0
M  V30 28388 H 2605.39 -0.532031 -0.397289 0
M  V30 28389 H 2607.92 -1.93466 -0.665725 0
M  V30 28390 H 2607.93 -2.82374 -2.94498 0
M  V30 28391 H 2606.61 -3.59594 -2.08962 0
M  V30 28392 H 2605.18 -2.06966 -3.10193 0
M  V30 28393 N 2607.37 0.798563 -1.3587 0
M  V30 28394 C 2608.61 1.55834 -1.29783 0
M  V30 28395 C 2608.95 1.93795 0.125287 0
M  V30 28396 O 2608.22 1.61989 1.07656 0
M  V30 28397 C 2608.51 2.84158 -2.21193 0
M  V30 28398 C 2608.36 2.52622 -3.72159 0
M  V30 28399 C 2609.68 3.8592 -2.11551 0
M  V30 28400 H 2606.8 0.565375 -0.472779 0
M  V30 28401 H 2609.44 0.918163 -1.66342 0
M  V30 28402 H 2607.59 3.38788 -1.90145 0
M  V30 28403 H 2609.26 2.04113 -4.13685 0
M  V30 28404 H 2607.5 1.85697 -3.92045 0
M  V30 28405 H 2608.17 3.44234 -4.31517 0
M  V30 28406 H 2610.65 3.40712 -2.38861 0
M  V30 28407 H 2609.53 4.73473 -2.77696 0
M  V30 28408 H 2609.79 4.28198 -1.09994 0
M  V30 28409 N 2608.85 1.19999 1.02166 0
M  V30 28410 C 2609.81 0.946077 2.08763 0
M  V30 28411 C 2610.81 -0.0763563 1.60619 0
M  V30 28412 O 2612 0.159165 1.73471 0
M  V30 28413 C 2609.13 0.423314 3.38262 0
M  V30 28414 H 2610.32 1.89157 2.32722 0
M  V30 28415 H 2607.88 1.01466 1.18888 0
M  V30 28416 H 2608.61 -0.527881 3.19975 0
M  V30 28417 H 2608.4 1.1606 3.7453 0
M  V30 28418 H 2609.89 0.264985 4.16758 0
M  V30 28419 N 2610.32 -1.21392 1.00507 0
M  V30 28420 C 2611.55 -1.94459 0.706643 0
M  V30 28421 C 2611.97 -1.74083 -0.73078 0
M  V30 28422 O 2611.32 -1.0475 -1.49445 0
M  V30 28423 C 2611.38 -3.46861 1.0183 0
M  V30 28424 O 2611.1 -3.66562 2.39926 0
M  V30 28425 C 2612.6 -4.37092 0.739293 0
M  V30 28426 H 2609.82 -0.618409 0.260405 0
M  V30 28427 H 2612.36 -1.54208 1.34313 0
M  V30 28428 H 2610.52 -3.85035 0.427411 0
M  V30 28429 H 2610.93 -4.60655 2.50792 0
M  V30 28430 H 2612.4 -5.42727 1.00753 0
M  V30 28431 H 2612.88 -4.37983 -0.326669 0
M  V30 28432 H 2613.49 -4.04564 1.3118 0
M  V30 28433 N 2611.8 -0.779811 -1.36955 0
M  V30 28434 C 2612.71 -0.172532 -2.33965 0
M  V30 28435 C 2613.73 0.670193 -1.60575 0
M  V30 28436 O 2614.9 0.588229 -1.92618 0
M  V30 28437 C 2611.97 0.690113 -3.39762 0
M  V30 28438 C 2611.03 -0.169999 -4.28963 0
M  V30 28439 C 2610.26 0.651569 -5.29708 0
M  V30 28440 O 2610.49 1.88817 -5.38242 0
M  V30 28441 O 2609.42 0.0565206 -6.01873 0
M  V30 28442 H 2613.25 -0.974372 -2.87645 0
M  V30 28443 H 2610.83 -0.541102 -1.39257 0
M  V30 28444 H 2612.71 1.18233 -4.04474 0
M  V30 28445 H 2611.39 1.47 -2.88397 0
M  V30 28446 H 2610.3 -0.70876 -3.67325 0
M  V30 28447 H 2611.63 -0.91317 -4.83655 0
M  V30 28448 N 2613.28 1.48384 -0.531019 0
M  V30 28449 C 2614.19 2.3342 0.234989 0
M  V30 28450 C 2615.21 1.46553 0.937984 0
M  V30 28451 O 2616.38 1.79531 0.912713 0
M  V30 28452 C 2613.45 3.22691 1.26772 0
M  V30 28453 C 2612.51 4.25432 0.574964 0
M  V30 28454 C 2611.74 5.10438 1.55849 0
M  V30 28455 O 2611.96 4.97442 2.7912 0
M  V30 28456 O 2610.9 5.91813 1.09732 0
M  V30 28457 H 2614.72 3.00168 -0.461847 0
M  V30 28458 H 2612.31 1.4652 -0.291928 0
M  V30 28459 H 2614.19 3.77908 1.8645 0
M  V30 28460 H 2612.87 2.58604 1.94694 0
M  V30 28461 H 2611.77 3.74048 -0.062344 0
M  V30 28462 H 2613.11 4.92161 -0.0623395 0
M  V30 28463 N 2614.76 0.2662 1.55336 0
M  V30 28464 C 2615.98 -0.359625 2.04258 0
M  V30 28465 C 2616.41 -1.49342 1.14362 0
M  V30 28466 O 2615.77 -1.80756 0.1404 0
M  V30 28467 C 2615.81 -0.826573 3.50999 0
M  V30 28468 O 2614.92 -1.93459 3.64208 0
M  V30 28469 H 2614.26 -0.0757154 0.659669 0
M  V30 28470 H 2616.79 0.397896 2.00694 0
M  V30 28471 H 2616.8 -1.1247 3.92192 0
M  V30 28472 H 2615.47 0.00300343 4.159 0
M  V30 28473 H 2614.05 -1.63969 3.34916 0
M  V30 28474 N 2616.24 -1.57599 -0.0066531 0
M  V30 28475 C 2617.46 -1.94553 -0.704053 0
M  V30 28476 C 2617.88 -0.867775 -1.67676 0
M  V30 28477 O 2617.24 0.153893 -1.8185 0
M  V30 28478 C 2617.29 -3.31507 -1.44171 0
M  V30 28479 O 2617.01 -4.35145 -0.508021 0
M  V30 28480 C 2618.51 -3.8288 -2.23422 0
M  V30 28481 H 2615.73 -0.641579 -0.196512 0
M  V30 28482 H 2618.27 -2.04456 0.0424889 0
M  V30 28483 H 2616.43 -3.22933 -2.13994 0
M  V30 28484 H 2616.84 -5.14332 -1.02773 0
M  V30 28485 H 2618.32 -4.81155 -2.70543 0
M  V30 28486 H 2618.79 -3.15239 -3.05812 0
M  V30 28487 H 2619.4 -3.9461 -1.5863 0
M  V30 28488 N 2617.72 0.279305 -1.55105 0
M  V30 28489 C 2618.63 1.36724 -1.9064 0
M  V30 28490 C 2619.64 1.54367 -0.802926 0
M  V30 28491 O 2620.82 1.68615 -1.10141 0
M  V30 28492 C 2617.88 2.70751 -2.16552 0
M  V30 28493 C 2616.94 2.61909 -3.40151 0
M  V30 28494 C 2616.18 3.89544 -3.64817 0
M  V30 28495 O 2616.4 4.8993 -2.92103 0
M  V30 28496 O 2615.33 3.90127 -4.5835 0
M  V30 28497 H 2619.16 1.09586 -2.83239 0
M  V30 28498 H 2616.74 0.477281 -1.41571 0
M  V30 28499 H 2618.63 3.5001 -2.34671 0
M  V30 28500 H 2617.3 2.97688 -1.27136 0
M  V30 28501 H 2616.21 1.81046 -3.27373 0
M  V30 28502 H 2617.54 2.39922 -4.29765 0
M  V30 28503 N 2619.19 1.47931 0.543528 0
M  V30 28504 C 2620.6 1.48955 1.12558 0
M  V30 28505 C 2620.96 0.251788 1.94578 0
M  V30 28506 O 2620.08 -0.642219 2.06651 0
M  V30 28507 C 2620.68 2.69896 2.04797 0
M  V30 28508 C 2619.23 2.73835 2.58246 0
M  V30 28509 C 2618.38 2.42268 1.34914 0
M  V30 28510 H 2621.33 1.55243 0.329443 0
M  V30 28511 H 2621.35 2.47644 2.88882 0
M  V30 28512 H 2620.87 3.59965 1.45074 0
M  V30 28513 H 2618.97 1.8794 3.21729 0
M  V30 28514 H 2619.08 3.74901 2.98306 0
M  V30 28515 H 2617.44 1.93137 1.66043 0
M  V30 28516 H 2618.23 3.34562 0.769634 0
M  V30 28517 N 2620.67 -0.791347 1.36292 0
M  V30 28518 C 2621.6 -1.91822 1.33141 0
M  V30 28519 C 2622.58 -1.68882 0.203198 0
M  V30 28520 O 2623.77 -1.90024 0.400543 0
M  V30 28521 C 2620.9 -3.28814 1.11799 0
M  V30 28522 C 2619.85 -3.66273 2.21423 0
M  V30 28523 C 2619.18 -5.01593 1.85227 0
M  V30 28524 C 2620.48 -3.75058 3.63495 0
M  V30 28525 H 2622.17 -1.94716 2.27433 0
M  V30 28526 H 2619.72 -0.935418 1.0948 0
M  V30 28527 H 2621.67 -4.07264 1.08229 0
M  V30 28528 H 2620.39 -3.26302 0.139559 0
M  V30 28529 H 2619.05 -2.90118 2.24115 0
M  V30 28530 H 2618.7 -4.956 0.859631 0
M  V30 28531 H 2618.4 -5.27626 2.58621 0
M  V30 28532 H 2619.93 -5.82466 1.8321 0
M  V30 28533 H 2621.34 -4.43705 3.63042 0
M  V30 28534 H 2619.74 -4.12574 4.35778 0
M  V30 28535 H 2620.81 -2.76212 3.98541 0
M  V30 28536 N 2622.15 -1.2054 -1.01528 0
M  V30 28537 C 2623.37 -1.04274 -1.79281 0
M  V30 28538 C 2623.8 0.403511 -1.83721 0
M  V30 28539 O 2623.16 1.29067 -1.27324 0
M  V30 28540 C 2623.21 -1.63247 -3.21532 0
M  V30 28541 O 2622.31 -0.870979 -4.03098 0
M  V30 28542 H 2621.65 -0.367656 -0.552924 0
M  V30 28543 H 2624.18 -1.59861 -1.27694 0
M  V30 28544 H 2624.19 -1.67037 -3.7224 0
M  V30 28545 H 2622.87 -2.68502 -3.17615 0
M  V30 28546 H 2621.44 -0.907387 -3.61692 0
M  V30 28547 N 2623.63 1.20858 -1.01149 0
M  V30 28548 C 2624.54 2.2714 -0.5869 0
M  V30 28549 C 2625.55 1.69951 0.373168 0
M  V30 28550 O 2626.73 2.0002 0.235388 0
M  V30 28551 C 2623.79 3.46623 0.0732993 0
M  V30 28552 C 2622.86 4.1906 -0.932068 0
M  V30 28553 C 2622.09 5.32838 -0.303279 0
M  V30 28554 O 2622.31 5.63282 0.898296 0
M  V30 28555 O 2621.25 5.93238 -1.01746 0
M  V30 28556 H 2625.07 2.65665 -1.4716 0
M  V30 28557 H 2622.66 1.27378 -0.780712 0
M  V30 28558 H 2624.54 4.19073 0.442259 0
M  V30 28559 H 2623.21 3.09984 0.932274 0
M  V30 28560 H 2622.12 3.48803 -1.3523 0
M  V30 28561 H 2623.45 4.59625 -1.76084 0
M  V30 28562 N 2625.11 0.787064 1.3654 0
M  V30 28563 C 2626.38 0.282458 1.9355 0
M  V30 28564 C 2626.76 -1.225 1.71922 0
M  V30 28565 O 2626.11 -2.01537 1.07681 0
M  V30 28566 C 2626.32 0.672522 3.42459 0
M  V30 28567 C 2627.67 0.650936 4.19581 0
M  V30 28568 O 2628.69 0.612851 3.50888 0
M  V30 28569 O 2627.55 0.691718 5.42105 0
M  V30 28570 H 2624.65 0.0693144 0.82409 0
M  V30 28571 H 2627.19 0.869449 1.45735 0
M  V30 28572 H 2625.96 1.71228 3.51848 0
M  V30 28573 H 2625.59 0.059291 3.97556 0
M  V30 28574 N 2626.58 -1.48101 0.53888 0
M  V30 28575 C 2627.86 -1.95518 -0.0567765 0
M  V30 28576 C 2628.24 -1.48127 -1.50405 0
M  V30 28577 O 2627.59 -0.711765 -2.17132 0
M  V30 28578 C 2627.8 -3.4893 0.0696875 0
M  V30 28579 C 2629.15 -4.24515 -0.0850455 0
M  V30 28580 O 2630.17 -3.562 -0.00367209 0
M  V30 28581 O 2629.03 -5.45896 -0.256929 0
M  V30 28582 H 2626.12 -0.823651 -0.074355 0
M  V30 28583 H 2628.67 -1.58583 0.604108 0
M  V30 28584 H 2627.44 -3.76172 1.0775 0
M  V30 28585 H 2627.06 -3.92583 -0.629645 0
M  V30 28586 N 2628.06 -0.274434 -1.55192 0
M  V30 28587 C 2629.31 0.342544 -1.99582 0
M  V30 28588 C 2629.64 1.55912 -1.16283 0
M  V30 28589 O 2628.89 1.94456 -0.220324 0
M  V30 28590 C 2629.19 0.769397 -3.4902 0
M  V30 28591 C 2628.86 -0.342468 -4.49598 0
M  V30 28592 C 2627.52 -0.64777 -4.7682 0
M  V30 28593 C 2629.87 -1.09172 -5.09638 0
M  V30 28594 C 2627.2 -1.70591 -5.61351 0
M  V30 28595 C 2629.55 -2.13958 -5.95319 0
M  V30 28596 C 2628.21 -2.45124 -6.20863 0
M  V30 28597 H 2627.48 0.125346 -0.730321 0
M  V30 28598 H 2630.13 -0.388004 -1.87528 0
M  V30 28599 H 2628.44 1.57961 -3.58547 0
M  V30 28600 H 2630.13 1.25751 -3.80773 0
M  V30 28601 H 2626.72 -0.0943933 -4.28496 0
M  V30 28602 H 2630.91 -0.86911 -4.88631 0
M  V30 28603 H 2626.16 -1.9524 -5.79389 0
M  V30 28604 H 2630.34 -2.7249 -6.40876 0
M  V30 28605 H 2627.96 -3.27252 -6.86156 0
M  V30 28606 N 2629.54 1.576 -0.00170483 0
M  V30 28607 C 2630.45 2.11962 1.00544 0
M  V30 28608 C 2631.47 1.06528 1.37578 0
M  V30 28609 O 2632.64 1.38439 1.46276 0
M  V30 28610 C 2629.71 2.61354 2.27804 0
M  V30 28611 C 2628.77 3.81396 1.97067 0
M  V30 28612 C 2628 4.28423 3.1826 0
M  V30 28613 O 2628.22 3.74772 4.30002 0
M  V30 28614 O 2627.16 5.20561 3.02158 0
M  V30 28615 H 2630.98 2.98239 0.573321 0
M  V30 28616 H 2628.57 1.47812 0.217229 0
M  V30 28617 H 2630.45 2.93315 3.02563 0
M  V30 28618 H 2629.13 1.78174 2.70251 0
M  V30 28619 H 2628.03 3.54406 1.19779 0
M  V30 28620 H 2629.37 4.65655 1.59456 0
M  V30 28621 N 2631.02 -0.271076 1.55251 0
M  V30 28622 C 2631.95 -1.36072 1.83193 0
M  V30 28623 C 2632.93 -1.47462 0.685117 0
M  V30 28624 O 2634.11 -1.64056 0.928321 0
M  V30 28625 C 2631.24 -2.73692 1.99525 0
M  V30 28626 C 2630.29 -2.79576 3.22086 0
M  V30 28627 S 2631.12 -2.38627 4.79393 0
M  V30 28628 C 2632.27 -3.78219 4.987 0
M  V30 28629 H 2632.51 -1.12167 2.75329 0
M  V30 28630 H 2630.04 -0.470808 1.47047 0
M  V30 28631 H 2632 -3.52945 2.0962 0
M  V30 28632 H 2630.66 -2.94848 1.08275 0
M  V30 28633 H 2629.85 -3.80589 3.30406 0
M  V30 28634 H 2629.45 -2.08347 3.10592 0
M  V30 28635 H 2631.75 -4.73506 4.84559 0
M  V30 28636 H 2632.69 -3.74849 6.00744 0
M  V30 28637 H 2633.1 -3.69611 4.26671 0
M  V30 28638 N 2632.5 -1.48217 -0.535675 0
M  V30 28639 C 2633.74 -1.55944 -1.29181 0
M  V30 28640 C 2634.07 -0.230891 -1.93125 0
M  V30 28641 O 2633.33 0.7783 -1.79558 0
M  V30 28642 C 2633.63 -2.64216 -2.40675 0
M  V30 28643 C 2633.29 -4.06831 -1.94421 0
M  V30 28644 C 2631.95 -4.45648 -1.81524 0
M  V30 28645 C 2634.31 -4.96228 -1.59396 0
M  V30 28646 C 2631.63 -5.71674 -1.31929 0
M  V30 28647 C 2633.99 -6.22738 -1.11265 0
M  V30 28648 C 2632.65 -6.60417 -0.969808 0
M  V30 28649 H 2631.92 -0.570641 -0.472705 0
M  V30 28650 H 2634.57 -1.8191 -0.598405 0
M  V30 28651 H 2632.87 -2.32088 -3.15661 0
M  V30 28652 H 2634.57 -2.67412 -2.98817 0
M  V30 28653 H 2631.16 -3.76172 -2.05409 0
M  V30 28654 H 2635.34 -4.6692 -1.68223 0
M  V30 28655 H 2630.6 -5.99598 -1.19552 0
M  V30 28656 H 2634.77 -6.91408 -0.832332 0
M  V30 28657 H 2632.4 -7.57959 -0.583302 0
M  V30 28658 N 2633.97 0.784108 -1.3671 0
M  V30 28659 C 2635.2 1.57075 -1.34206 0
M  V30 28660 C 2635.61 1.89041 0.0774613 0
M  V30 28661 O 2634.96 1.50994 1.04626 0
M  V30 28662 C 2635.02 2.91531 -2.10356 0
M  V30 28663 C 2634.68 2.82265 -3.5941 0
M  V30 28664 C 2635.68 2.54143 -4.5355 0
M  V30 28665 C 2633.36 3.00676 -4.02367 0
M  V30 28666 C 2635.36 2.44541 -5.88624 0
M  V30 28667 C 2633.04 2.90695 -5.37531 0
M  V30 28668 C 2634.04 2.62666 -6.30473 0
M  V30 28669 O 2633.73 2.52689 -7.63154 0
M  V30 28670 H 2633.46 0.493677 -0.461799 0
M  V30 28671 H 2636.02 0.980681 -1.80477 0
M  V30 28672 H 2634.25 3.52609 -1.58756 0
M  V30 28673 H 2635.94 3.52842 -2.00643 0
M  V30 28674 H 2636.7 2.39617 -4.21673 0
M  V30 28675 H 2632.58 3.21497 -3.30395 0
M  V30 28676 H 2636.12 2.22584 -6.61137 0
M  V30 28677 H 2632.02 3.04785 -5.69014 0
M  V30 28678 H 2632.79 2.68131 -7.73336 0
M  V30 28679 N 2635.45 1.21076 1.00888 0
M  V30 28680 C 2636.36 0.982462 2.13037 0
M  V30 28681 C 2637.38 -0.0641856 1.73882 0
M  V30 28682 O 2638.55 0.124996 2.01012 0
M  V30 28683 C 2635.62 0.545864 3.42376 0
M  V30 28684 C 2634.68 1.66427 3.95728 0
M  V30 28685 C 2633.91 1.24841 5.18893 0
M  V30 28686 O 2634.14 0.120365 5.70273 0
M  V30 28687 O 2633.07 2.05883 5.65593 0
M  V30 28688 H 2636.9 1.92167 2.35171 0
M  V30 28689 H 2634.48 0.995305 1.11418 0
M  V30 28690 H 2636.36 0.311986 4.20244 0
M  V30 28691 H 2635.04 -0.364671 3.21639 0
M  V30 28692 H 2633.95 1.95251 3.19105 0
M  V30 28693 H 2635.28 2.55209 4.20867 0
M  V30 28694 N 2636.93 -1.2032 1.01789 0
M  V30 28695 C 2638.18 -1.90002 0.709018 0
M  V30 28696 C 2638.51 -1.78731 -0.759541 0
M  V30 28697 O 2637.78 -1.17237 -1.55196 0
M  V30 28698 C 2638.07 -3.41346 1.14696 0
M  V30 28699 C 2637.92 -3.61544 2.67593 0
M  V30 28700 C 2639.24 -4.34183 0.719226 0
M  V30 28701 H 2636.36 -0.689974 0.259046 0
M  V30 28702 H 2639 -1.4169 1.26586 0
M  V30 28703 H 2637.15 -3.82623 0.673195 0
M  V30 28704 H 2638.82 -3.29511 3.22832 0
M  V30 28705 H 2637.07 -3.04971 3.08505 0
M  V30 28706 H 2637.74 -4.67638 2.93289 0
M  V30 28707 H 2640.21 -4.0056 1.12654 0
M  V30 28708 H 2639.09 -5.38692 1.05367 0
M  V30 28709 H 2639.35 -4.40472 -0.379034 0
M  V30 28710 N 2638.41 -0.794293 -1.3612 0
M  V30 28711 C 2639.65 -0.378577 -1.99846 0
M  V30 28712 C 2640.01 1.03952 -1.619 0
M  V30 28713 O 2639.3 1.7091 -0.866043 0
M  V30 28714 C 2639.5 -0.485332 -3.54089 0
M  V30 28715 C 2639.33 -1.91226 -4.07017 0
M  V30 28716 C 2638.1 -2.53794 -4.3694 0
M  V30 28717 C 2640.29 -2.87509 -4.2643 0
M  V30 28718 N 2638.28 -3.88025 -4.7572 0
M  V30 28719 C 2639.65 -4.06584 -4.6807 0
M  V30 28720 C 2641.7 -2.84502 -4.08611 0
M  V30 28721 C 2640.4 -5.23066 -4.93755 0
M  V30 28722 C 2642.43 -4.00176 -4.35446 0
M  V30 28723 C 2641.79 -5.17996 -4.77346 0
M  V30 28724 H 2637.89 -0.186048 -0.759546 0
M  V30 28725 H 2640.48 -1.03293 -1.65042 0
M  V30 28726 H 2638.65 0.138955 -3.88151 0
M  V30 28727 H 2640.38 -0.0453903 -4.04675 0
M  V30 28728 H 2637.13 -2.05239 -4.26819 0
M  V30 28729 H 2637.56 -4.57101 -4.99388 0
M  V30 28730 H 2642.2 -1.94571 -3.75369 0
M  V30 28731 H 2639.92 -6.13579 -5.25876 0
M  V30 28732 H 2643.5 -3.99216 -4.23223 0
M  V30 28733 H 2642.38 -6.06017 -4.97708 0
M  V30 28734 N 2639.89 1.47813 -0.546727 0
M  V30 28735 C 2640.8 2.33656 0.210219 0
M  V30 28736 C 2641.81 1.4754 0.922387 0
M  V30 28737 O 2642.99 1.80489 0.89362 0
M  V30 28738 C 2640.05 3.24018 1.23342 0
M  V30 28739 C 2639.11 4.26018 0.529809 0
M  V30 28740 C 2638.35 5.12062 1.50426 0
M  V30 28741 O 2638.57 5.00374 2.73828 0
M  V30 28742 O 2637.5 5.92944 1.03449 0
M  V30 28743 H 2641.33 2.99661 -0.493658 0
M  V30 28744 H 2638.92 1.46202 -0.307452 0
M  V30 28745 H 2640.8 3.79864 1.82432 0
M  V30 28746 H 2639.47 2.60654 1.91941 0
M  V30 28747 H 2638.38 3.73961 -0.102013 0
M  V30 28748 H 2639.71 4.92067 -0.114536 0
M  V30 28749 N 2641.36 0.28266 1.55044 0
M  V30 28750 C 2642.31 -0.601526 2.22823 0
M  V30 28751 C 2643.28 -1.1439 1.20433 0
M  V30 28752 O 2644.47 -1.19181 1.48998 0
M  V30 28753 C 2641.61 -1.77627 2.95876 0
M  V30 28754 C 2640.72 -1.26703 4.13002 0
M  V30 28755 C 2639.85 -2.40418 4.7368 0
M  V30 28756 C 2638.89 -1.86535 5.82985 0
M  V30 28757 N 2638.03 -2.93751 6.37695 0
M  V30 28758 H 2642.87 -0.0169004 2.97995 0
M  V30 28759 H 2640.41 0.0034255 1.471 0
M  V30 28760 H 2642.37 -2.46691 3.36451 0
M  V30 28761 H 2641 -2.33281 2.23114 0
M  V30 28762 H 2640.05 -0.469247 3.77495 0
M  V30 28763 H 2641.36 -0.832431 4.91805 0
M  V30 28764 H 2640.51 -3.17461 5.17014 0
M  V30 28765 H 2639.25 -2.87196 3.94169 0
M  V30 28766 H 2638.26 -1.07973 5.39094 0
M  V30 28767 H 2639.48 -1.40683 6.64368 0
M  V30 28768 H 2637.43 -3.39898 5.61075 0
M  V30 28769 H 2637.35 -2.54731 7.11792 0
M  V30 28770 H 2638.61 -3.70748 6.85687 0
M  V30 28771 N 2642.84 -1.57597 0.0100627 0
M  V30 28772 C 2644.09 -1.91001 -0.672667 0
M  V30 28773 C 2644.42 -0.884644 -1.73217 0
M  V30 28774 O 2643.67 0.10918 -1.95395 0
M  V30 28775 C 2643.97 -3.31155 -1.34429 0
M  V30 28776 C 2643.64 -4.48968 -0.417004 0
M  V30 28777 C 2642.3 -4.80928 -0.161725 0
M  V30 28778 C 2644.65 -5.20732 0.220845 0
M  V30 28779 C 2641.98 -5.82021 0.739528 0
M  V30 28780 C 2644.33 -6.22785 1.11003 0
M  V30 28781 C 2643 -6.53197 1.37439 0
M  V30 28782 H 2642.27 -0.698923 -0.246146 0
M  V30 28783 H 2644.91 -1.9138 0.0677482 0
M  V30 28784 H 2643.22 -3.26948 -2.15899 0
M  V30 28785 H 2644.91 -3.54265 -1.87877 0
M  V30 28786 H 2641.5 -4.24002 -0.626143 0
M  V30 28787 H 2645.69 -4.96286 0.0366515 0
M  V30 28788 H 2640.94 -6.03939 0.952245 0
M  V30 28789 H 2645.12 -6.7752 1.61058 0
M  V30 28790 H 2642.75 -7.31349 2.07443 0
M  V30 28791 N 2644.32 0.262839 -1.55393 0
M  V30 28792 C 2645.6 1.01496 -1.67206 0
M  V30 28793 C 2645.98 2.03938 -0.545222 0
M  V30 28794 O 2645.33 2.23956 0.453427 0
M  V30 28795 C 2645.54 1.66265 -3.0685 0
M  V30 28796 C 2646.88 2.17048 -3.64932 0
M  V30 28797 O 2647.91 1.76234 -3.09548 0
M  V30 28798 O 2646.77 2.91939 -4.61989 0
M  V30 28799 H 2643.86 0.471426 -0.679475 0
M  V30 28800 H 2646.41 0.257889 -1.67729 0
M  V30 28801 H 2645.18 0.920848 -3.8031 0
M  V30 28802 H 2644.8 2.48633 -3.1027 0
M  V30 28803 N 2645.8 1.48499 0.527807 0
M  V30 28804 C 2647.21 1.5014 1.10972 0
M  V30 28805 C 2647.56 0.272412 1.943 0
M  V30 28806 O 2646.69 -0.620264 2.0732 0
M  V30 28807 C 2647.28 2.72053 2.01923 0
M  V30 28808 C 2645.84 2.76559 2.55328 0
M  V30 28809 C 2644.99 2.43685 1.32336 0
M  V30 28810 H 2647.94 1.55584 0.312958 0
M  V30 28811 H 2647.96 2.50694 2.86239 0
M  V30 28812 H 2647.47 3.61484 1.41248 0
M  V30 28813 H 2645.57 1.91341 3.19717 0
M  V30 28814 H 2645.68 3.78044 2.94313 0
M  V30 28815 H 2644.05 1.94887 1.63985 0
M  V30 28816 H 2644.83 3.35359 0.734106 0
M  V30 28817 N 2647.28 -0.776847 1.37123 0
M  V30 28818 C 2648.55 -1.52419 1.22588 0
M  V30 28819 C 2648.93 -2.10308 -0.182689 0
M  V30 28820 O 2648.28 -1.95082 -1.18976 0
M  V30 28821 C 2648.49 -2.60914 2.31787 0
M  V30 28822 C 2649.84 -3.28455 2.69077 0
M  V30 28823 O 2650.86 -2.71205 2.30925 0
M  V30 28824 O 2649.72 -4.31948 3.34788 0
M  V30 28825 H 2646.82 -0.674827 0.478056 0
M  V30 28826 H 2649.36 -0.814249 1.48889 0
M  V30 28827 H 2648.14 -2.16221 3.26135 0
M  V30 28828 H 2647.76 -3.39513 2.06922 0
M  V30 28829 N 2648.76 -1.2161 -1.00244 0
M  V30 28830 C 2649.72 -0.979169 -2.07232 0
M  V30 28831 C 2650.72 0.0507937 -1.6072 0
M  V30 28832 O 2651.91 -0.186743 -1.73196 0
M  V30 28833 C 2649.04 -0.477075 -3.37545 0
M  V30 28834 H 2650.23 -1.92835 -2.29684 0
M  V30 28835 H 2647.79 -1.03344 -1.17259 0
M  V30 28836 H 2648.52 0.476909 -3.20774 0
M  V30 28837 H 2648.31 -1.22003 -3.72636 0
M  V30 28838 H 2649.8 -0.331254 -4.16284 0
M  V30 28839 N 2650.23 1.19778 -1.02425 0
M  V30 28840 C 2651.46 1.9331 -0.73749 0
M  V30 28841 C 2651.88 1.75224 0.702992 0
M  V30 28842 O 2651.23 1.07114 1.47759 0
M  V30 28843 C 2651.28 3.45197 -1.07336 0
M  V30 28844 O 2651.01 3.62698 -2.45727 0
M  V30 28845 C 2652.51 4.3586 -0.808737 0
M  V30 28846 H 2649.73 0.614188 -0.270211 0
M  V30 28847 H 2652.27 1.52052 -1.3675 0
M  V30 28848 H 2650.43 3.84306 -0.488613 0
M  V30 28849 H 2650.84 4.56607 -2.58089 0
M  V30 28850 H 2652.31 5.41056 -1.09375 0
M  V30 28851 H 2652.79 4.38448 0.256948 0
M  V30 28852 H 2653.4 4.02426 -1.37599 0
M  V30 28853 N 2651.71 0.801501 1.35697 0
M  V30 28854 C 2652.64 0.166069 2.28598 0
M  V30 28855 C 2653.66 -0.631694 1.50045 0
M  V30 28856 O 2654.85 -0.46489 1.7234 0
M  V30 28857 C 2651.95 -0.787393 3.29626 0
M  V30 28858 C 2651.12 -0.0370941 4.37384 0
M  V30 28859 C 2650.18 -0.908284 5.18302 0
M  V30 28860 O 2649.2 -0.361089 5.68054 0
M  V30 28861 N 2650.41 -2.23103 5.35915 0
M  V30 28862 H 2653.17 0.96412 2.83769 0
M  V30 28863 H 2650.73 0.656495 1.47992 0
M  V30 28864 H 2652.72 -1.37432 3.8065 0
M  V30 28865 H 2651.29 -1.48627 2.75007 0
M  V30 28866 H 2650.51 0.731003 3.87363 0
M  V30 28867 H 2651.8 0.480198 5.06529 0
M  V30 28868 H 2651.2 -2.69959 4.9713 0
M  V30 28869 H 2649.76 -2.76731 5.90138 0
M  V30 28870 N 2653.19 -1.47521 0.554558 0
M  V30 28871 C 2654.44 -2.02478 0.0295146 0
M  V30 28872 C 2654.76 -1.42919 -1.31926 0
M  V30 28873 O 2654.02 -0.573418 -1.87111 0
M  V30 28874 C 2654.32 -3.57212 -0.115864 0
M  V30 28875 C 2653.98 -4.35678 1.16168 0
M  V30 28876 C 2652.65 -4.56836 1.51176 0
M  V30 28877 C 2655 -4.8095 2.00839 0
M  V30 28878 C 2652.33 -5.20515 2.70705 0
M  V30 28879 C 2654.68 -5.45947 3.19569 0
M  V30 28880 C 2653.34 -5.65339 3.54892 0
M  V30 28881 H 2652.61 -0.740921 0.0108002 0
M  V30 28882 H 2655.26 -1.77224 0.725537 0
M  V30 28883 H 2653.56 -3.81445 -0.894835 0
M  V30 28884 H 2655.26 -3.97382 -0.53742 0
M  V30 28885 H 2651.85 -4.19488 0.8791 0
M  V30 28886 H 2656.04 -4.64385 1.75101 0
M  V30 28887 H 2651.29 -5.33723 2.98245 0
M  V30 28888 H 2655.47 -5.7999 3.85466 0
M  V30 28889 H 2653.09 -6.14453 4.47607 0
M  V30 28890 N 2654.67 -0.290879 -1.54892 0
M  V30 28891 C 2655.92 0.322078 -1.99112 0
M  V30 28892 C 2656.23 1.55782 -1.18285 0
M  V30 28893 O 2657.44 2.24472 -1.52724 0
M  V30 28894 C 2655.89 0.624375 -3.54443 0
M  V30 28895 C 2655.5 -0.592451 -4.44065 0
M  V30 28896 C 2657.24 1.19909 -4.07213 0
M  V30 28897 C 2655.15 -0.263866 -5.90811 0
M  V30 28898 H 2654.08 0.12412 -0.743714 0
M  V30 28899 H 2656.73 -0.398001 -1.79132 0
M  V30 28900 H 2655.11 1.40378 -3.70284 0
M  V30 28901 H 2656.29 -1.36894 -4.39996 0
M  V30 28902 H 2654.6 -1.08509 -4.02013 0
M  V30 28903 H 2657.2 1.459 -5.1441 0
M  V30 28904 H 2657.54 2.13809 -3.57199 0
M  V30 28905 H 2658.08 0.481618 -3.94874 0
M  V30 28906 H 2654.81 -1.17117 -6.44953 0
M  V30 28907 H 2654.33 0.47555 -5.97912 0
M  V30 28908 H 2656.01 0.138241 -6.46852 0
M  V30 28909 N 2656.15 1.57589 -0.0184203 0
M  V30 28910 C 2657.06 2.13017 0.982906 0
M  V30 28911 C 2658.07 1.07981 1.36441 0
M  V30 28912 O 2659.25 1.39982 1.448 0
M  V30 28913 C 2656.31 2.63756 2.25019 0
M  V30 28914 C 2655.37 3.83465 1.93011 0
M  V30 28915 C 2654.61 4.31775 3.13698 0
M  V30 28916 O 2654.83 3.79312 4.26003 0
M  V30 28917 O 2653.76 5.23737 2.9662 0
M  V30 28918 H 2657.59 2.98831 0.541656 0
M  V30 28919 H 2655.17 1.48034 0.201539 0
M  V30 28920 H 2657.06 2.96507 2.99435 0
M  V30 28921 H 2655.73 1.8103 2.68346 0
M  V30 28922 H 2654.64 3.55657 1.16013 0
M  V30 28923 H 2655.97 4.6732 1.54508 0
M  V30 28924 N 2657.62 -0.254594 1.5553 0
M  V30 28925 C 2658.87 -0.983705 1.77001 0
M  V30 28926 C 2659.2 -1.85608 0.581363 0
M  V30 28927 O 2658.45 -1.90791 -0.435587 0
M  V30 28928 C 2658.75 -1.88103 3.03895 0
M  V30 28929 C 2658.42 -1.16465 4.35599 0
M  V30 28930 C 2657.08 -0.966631 4.71391 0
M  V30 28931 C 2659.43 -0.656296 5.17051 0
M  V30 28932 C 2656.76 -0.247839 5.86176 0
M  V30 28933 C 2659.11 0.0489919 6.32581 0
M  V30 28934 C 2657.78 0.258556 6.66999 0
M  V30 28935 H 2657.05 -0.359963 0.647694 0
M  V30 28936 H 2659.69 -0.25443 1.89802 0
M  V30 28937 H 2658 -2.67712 2.86073 0
M  V30 28938 H 2659.7 -2.44672 3.17705 0
M  V30 28939 H 2656.29 -1.32891 4.07477 0
M  V30 28940 H 2660.47 -0.796847 4.89861 0
M  V30 28941 H 2655.73 -0.0749276 6.11354 0
M  V30 28942 H 2659.9 0.450567 6.94941 0
M  V30 28943 H 2657.53 0.817491 7.55792 0
M  V30 28944 N 2659.1 -1.48777 -0.519925 0
M  V30 28945 C 2660.33 -1.61243 -1.30444 0
M  V30 28946 C 2660.75 -0.276624 -1.86055 0
M  V30 28947 O 2660.11 0.753154 -1.64916 0
M  V30 28948 C 2660.16 -2.66972 -2.42401 0
M  V30 28949 O 2659.26 -2.2483 -3.45724 0
M  V30 28950 H 2658.6 -0.540338 -0.385915 0
M  V30 28951 H 2661.13 -1.94835 -0.624538 0
M  V30 28952 H 2661.14 -2.88557 -2.88442 0
M  V30 28953 H 2659.82 -3.63945 -2.01288 0
M  V30 28954 H 2658.39 -2.13499 -3.05733 0
M  V30 28955 N 2660.58 0.769564 -1.37534 0
M  V30 28956 C 2661.53 1.88291 -1.33474 0
M  V30 28957 C 2662.5 1.64892 -0.19992 0
M  V30 28958 O 2663.68 1.86779 -0.389627 0
M  V30 28959 C 2660.82 3.25384 -1.14974 0
M  V30 28960 C 2659.93 3.60722 -2.37704 0
M  V30 28961 C 2659.07 4.87036 -2.1206 0
M  V30 28962 C 2658.11 5.15112 -3.30646 0
M  V30 28963 N 2657.25 6.32615 -3.04538 0
M  V30 28964 H 2662.09 1.91096 -2.28662 0
M  V30 28965 H 2659.62 0.934238 -1.13624 0
M  V30 28966 H 2661.58 4.04471 -1.02268 0
M  V30 28967 H 2660.21 3.21948 -0.23432 0
M  V30 28968 H 2659.26 2.76603 -2.61142 0
M  V30 28969 H 2660.57 3.77407 -3.26137 0
M  V30 28970 H 2659.73 5.74032 -1.96398 0
M  V30 28971 H 2658.47 4.7246 -1.20968 0
M  V30 28972 H 2657.47 4.26591 -3.46844 0
M  V30 28973 H 2658.7 5.31595 -4.22591 0
M  V30 28974 H 2656.64 6.19392 -2.16077 0
M  V30 28975 H 2656.56 6.49725 -3.86515 0
M  V30 28976 H 2657.83 7.22541 -2.92498 0
M  V30 28977 N 2662.06 1.22139 0.995977 0
M  V30 28978 C 2662.99 1.01293 2.10385 0
M  V30 28979 C 2663.97 -0.0651155 1.69975 0
M  V30 28980 O 2665.15 0.0964969 1.9396 0
M  V30 28981 C 2662.28 0.586577 3.42311 0
M  V30 28982 C 2661.24 1.61021 3.96556 0
M  V30 28983 C 2660.56 1.03979 5.24493 0
M  V30 28984 C 2661.86 2.9994 4.2759 0
M  V30 28985 H 2663.56 1.93955 2.28083 0
M  V30 28986 H 2661.1 0.933947 1.09606 0
M  V30 28987 H 2663.06 0.427867 4.19222 0
M  V30 28988 H 2661.78 -0.375704 3.24432 0
M  V30 28989 H 2660.44 1.75664 3.21773 0
M  V30 28990 H 2660.09 0.0689587 5.02953 0
M  V30 28991 H 2659.79 1.72362 5.61752 0
M  V30 28992 H 2661.31 0.892601 6.04041 0
M  V30 28993 H 2662.73 2.88689 4.9531 0
M  V30 28994 H 2661.12 3.65418 4.76014 0
M  V30 28995 H 2662.19 3.50105 3.35491 0
M  V30 28996 N 2663.54 -1.19233 1.03059 0
M  V30 28997 C 2664.76 -1.93457 0.747604 0
M  V30 28998 C 2665.19 -1.75081 -0.687617 0
M  V30 28999 O 2664.54 -1.05425 -1.47497 0
M  V30 29000 C 2664.59 -3.43217 1.10611 0
M  V30 29001 O 2663.7 -4.11782 0.225743 0
M  V30 29002 H 2663.04 -0.603894 0.276057 0
M  V30 29003 H 2665.57 -1.51261 1.37773 0
M  V30 29004 H 2665.58 -3.93889 1.06373 0
M  V30 29005 H 2664.25 -3.55913 2.15171 0
M  V30 29006 H 2662.83 -3.71465 0.32686 0
M  V30 29007 N 2665.01 -0.808686 -1.3527 0
M  V30 29008 C 2666.29 -0.313215 -1.93076 0
M  V30 29009 C 2666.67 1.19749 -1.73849 0
M  V30 29010 O 2666.02 1.99798 -1.10874 0
M  V30 29011 C 2666.23 -0.726919 -3.41346 0
M  V30 29012 C 2667.58 -0.717606 -4.18492 0
M  V30 29013 O 2668.6 -0.668596 -3.49869 0
M  V30 29014 O 2667.46 -0.777874 -5.40936 0
M  V30 29015 H 2664.55 -0.0824162 -0.822883 0
M  V30 29016 H 2667.1 -0.892524 -1.44333 0
M  V30 29017 H 2665.87 -1.76804 -3.49079 0
M  V30 29018 H 2665.5 -0.122531 -3.97411 0
M  V30 29019 N 2666.49 1.47225 -0.562374 0
M  V30 29020 C 2667.74 2.0246 -0.0402521 0
M  V30 29021 C 2668.07 1.43616 1.31166 0
M  V30 29022 O 2667.32 0.583333 1.86804 0
M  V30 29023 C 2667.62 3.57269 0.0969189 0
M  V30 29024 C 2667.29 4.35056 -1.18477 0
M  V30 29025 C 2665.95 4.56028 -1.53596 0
M  V30 29026 C 2668.3 4.79878 -2.03387 0
M  V30 29027 C 2665.63 5.19072 -2.73462 0
M  V30 29028 C 2667.98 5.44245 -3.2246 0
M  V30 29029 C 2666.65 5.63449 -3.57885 0
M  V30 29030 H 2665.92 0.740854 -0.0147293 0
M  V30 29031 H 2668.56 1.76836 -0.734926 0
M  V30 29032 H 2666.87 3.81914 0.874593 0
M  V30 29033 H 2668.56 3.97662 0.516338 0
M  V30 29034 H 2665.15 4.19015 -0.901334 0
M  V30 29035 H 2669.34 4.6345 -1.77561 0
M  V30 29036 H 2664.59 5.32133 -3.01071 0
M  V30 29037 H 2668.77 5.77938 -3.88536 0
M  V30 29038 H 2666.4 6.1207 -4.50859 0
M  V30 29039 N 2667.97 0.299089 1.54736 0
M  V30 29040 C 2668.93 -0.564973 2.22128 0
M  V30 29041 C 2669.93 -1.06278 1.20671 0
M  V30 29042 O 2671.12 -0.959119 1.45419 0
M  V30 29043 C 2668.26 -1.78203 2.90614 0
M  V30 29044 H 2669.45 0.0237975 2.99891 0
M  V30 29045 H 2667 0.0499063 1.5622 0
M  V30 29046 H 2667.74 -2.41068 2.16925 0
M  V30 29047 H 2667.52 -1.43274 3.64986 0
M  V30 29048 H 2669.01 -2.39594 3.4203 0
M  V30 29049 N 2669.45 -1.57577 0.0267774 0
M  V30 29050 C 2670.41 -2.08998 -0.940879 0
M  V30 29051 C 2671.41 -1.00457 -1.25559 0
M  V30 29052 O 2672.6 -1.26625 -1.19632 0
M  V30 29053 C 2669.73 -2.55387 -2.2581 0
M  V30 29054 H 2670.93 -2.95777 -0.495576 0
M  V30 29055 H 2668.48 -1.54727 -0.221214 0
M  V30 29056 H 2669.21 -1.71931 -2.74973 0
M  V30 29057 H 2669 -3.34682 -2.0428 0
M  V30 29058 H 2670.49 -2.95403 -2.95173 0
M  V30 29059 N 2670.93 0.246342 -1.55663 0
M  V30 29060 C 2671.89 1.28839 -1.8956 0
M  V30 29061 C 2672.89 1.4105 -0.772107 0
M  V30 29062 O 2674.08 1.39741 -1.0401 0
M  V30 29063 C 2671.21 2.66602 -2.12453 0
M  V30 29064 H 2672.4 0.999992 -2.82737 0
M  V30 29065 H 2669.96 0.485658 -1.48563 0
M  V30 29066 H 2670.69 3.0058 -1.21747 0
M  V30 29067 H 2670.48 2.5912 -2.94278 0
M  V30 29068 H 2671.97 3.41843 -2.3986 0
M  V30 29069 N 2672.4 1.4905 0.512027 0
M  V30 29070 C 2673.33 1.67812 1.62362 0
M  V30 29071 C 2674.32 0.526837 1.61736 0
M  V30 29072 O 2675.5 0.761435 1.7865 0
M  V30 29073 C 2672.63 1.7344 3.00892 0
M  V30 29074 C 2671.58 2.88248 3.16382 0
M  V30 29075 C 2670.91 2.7898 4.56152 0
M  V30 29076 C 2672.21 4.29327 2.97449 0
M  V30 29077 H 2673.9 2.60875 1.46916 0
M  V30 29078 H 2671.45 1.25542 0.705357 0
M  V30 29079 H 2673.4 1.85152 3.78546 0
M  V30 29080 H 2672.13 0.769675 3.17401 0
M  V30 29081 H 2670.79 2.7612 2.4115 0
M  V30 29082 H 2670.43 1.80438 4.69522 0
M  V30 29083 H 2670.13 3.56029 4.67458 0
M  V30 29084 H 2671.66 2.92684 5.35881 0
M  V30 29085 H 2673.07 4.42193 3.64881 0
M  V30 29086 H 2671.47 5.07513 3.20236 0
M  V30 29087 H 2672.54 4.44539 1.93684 0
M  V30 29088 N 2673.88 -0.762259 1.3794 0
M  V30 29089 C 2675.16 -1.5111 1.24198 0
M  V30 29090 C 2675.54 -2.1049 -0.160372 0
M  V30 29091 O 2674.89 -1.96333 -1.169 0
M  V30 29092 C 2675.1 -2.5844 2.34541 0
M  V30 29093 C 2676.45 -3.25583 2.72545 0
M  V30 29094 O 2677.47 -2.68741 2.33788 0
M  V30 29095 O 2676.33 -4.28373 3.3935 0
M  V30 29096 H 2673.42 -0.669718 0.485187 0
M  V30 29097 H 2675.97 -0.798412 1.49745 0
M  V30 29098 H 2674.74 -2.1275 3.2841 0
M  V30 29099 H 2674.36 -3.37299 2.10511 0
M  V30 29100 N 2675.36 -1.22666 -0.989486 0
M  V30 29101 C 2676.77 -1.04958 -1.54404 0
M  V30 29102 C 2677.12 0.385917 -1.92367 0
M  V30 29103 O 2676.25 1.27139 -1.75113 0
M  V30 29104 C 2676.84 -1.89904 -2.80574 0
M  V30 29105 C 2675.4 -1.76483 -3.32461 0
M  V30 29106 C 2674.55 -1.86162 -2.05521 0
M  V30 29107 H 2677.5 -1.36461 -0.810187 0
M  V30 29108 H 2677.52 -1.41846 -3.53072 0
M  V30 29109 H 2677.03 -2.94375 -2.52913 0
M  V30 29110 H 2675.13 -0.747592 -3.65023 0
M  V30 29111 H 2675.25 -2.59349 -4.02833 0
M  V30 29112 H 2673.61 -1.2964 -2.19238 0
M  V30 29113 H 2674.39 -2.92171 -1.80252 0
M  V30 29114 N 2676.84 1.18685 -1.0369 0
M  V30 29115 C 2678.25 1.70239 -0.766518 0
M  V30 29116 C 2678.6 1.82785 0.713019 0
M  V30 29117 O 2677.73 1.50467 1.55527 0
M  V30 29118 C 2678.32 3.09207 -1.3848 0
M  V30 29119 C 2676.88 3.57988 -1.16282 0
M  V30 29120 C 2676.03 2.34639 -1.47784 0
M  V30 29121 H 2678.98 1.03413 -1.2038 0
M  V30 29122 H 2679 3.72293 -0.786004 0
M  V30 29123 H 2678.51 3.00043 -2.46162 0
M  V30 29124 H 2676.61 3.72453 -0.104573 0
M  V30 29125 H 2676.73 4.4164 -1.85718 0
M  V30 29126 H 2675.09 2.38367 -0.897408 0
M  V30 29127 H 2675.87 2.28098 -2.56566 0
M  V30 29128 N 2678.32 0.815849 1.34839 0
M  V30 29129 C 2679.25 0.247339 2.32186 0
M  V30 29130 C 2680.23 -0.632316 1.57911 0
M  V30 29131 O 2681.41 -0.560665 1.85931 0
M  V30 29132 C 2678.54 -0.597406 3.42123 0
M  V30 29133 C 2677.5 0.184521 4.27602 0
M  V30 29134 C 2676.82 -0.782516 5.28943 0
M  V30 29135 C 2678.12 1.38874 5.03499 0
M  V30 29136 H 2679.82 1.06066 2.79983 0
M  V30 29137 H 2677.36 0.511485 1.3461 0
M  V30 29138 H 2679.32 -1.00526 4.09234 0
M  V30 29139 H 2678.04 -1.44371 2.92958 0
M  V30 29140 H 2676.7 0.573656 3.62084 0
M  V30 29141 H 2676.35 -1.62458 4.76043 0
M  V30 29142 H 2676.05 -0.263592 5.87008 0
M  V30 29143 H 2677.57 -1.18837 5.98924 0
M  V30 29144 H 2678.99 1.05527 5.63504 0
M  V30 29145 H 2677.38 1.8428 5.71105 0
M  V30 29146 H 2678.45 2.17061 4.33604 0
M  V30 29147 N 2679.8 -1.46924 0.570174 0
M  V30 29148 C 2680.73 -2.32963 -0.158233 0
M  V30 29149 C 2681.71 -1.44584 -0.896067 0
M  V30 29150 O 2682.89 -1.73422 -0.873991 0
M  V30 29151 C 2680.02 -3.26621 -1.1805 0
M  V30 29152 C 2678.98 -4.24343 -0.558305 0
M  V30 29153 C 2678.3 -5.07418 -1.68614 0
M  V30 29154 C 2679.6 -5.19936 0.496386 0
M  V30 29155 H 2681.3 -2.94114 0.560098 0
M  V30 29156 H 2678.84 -1.41431 0.2708 0
M  V30 29157 H 2680.79 -3.85661 -1.69834 0
M  V30 29158 H 2679.52 -2.63552 -1.92894 0
M  V30 29159 H 2678.18 -3.66548 -0.0616513 0
M  V30 29160 H 2677.83 -4.40743 -2.42394 0
M  V30 29161 H 2677.53 -5.73589 -1.27554 0
M  V30 29162 H 2679.05 -5.69319 -2.20699 0
M  V30 29163 H 2680.46 -5.73264 0.064106 0
M  V30 29164 H 2678.86 -5.9438 0.826595 0
M  V30 29165 H 2679.93 -4.64627 1.38743 0
M  V30 29166 N 2681.27 -0.307291 -1.54575 0
M  V30 29167 C 2682.52 0.300941 -1.99442 0
M  V30 29168 C 2682.84 1.54518 -1.19931 0
M  V30 29169 O 2684.04 2.2284 -1.55096 0
M  V30 29170 C 2682.5 0.586747 -3.55085 0
M  V30 29171 C 2682.11 -0.639516 -4.43412 0
M  V30 29172 C 2683.85 1.15583 -4.08462 0
M  V30 29173 C 2681.76 -0.326514 -5.90498 0
M  V30 29174 H 2680.69 0.116225 -0.744988 0
M  V30 29175 H 2683.34 -0.416978 -1.787 0
M  V30 29176 H 2681.72 1.36443 -3.71752 0
M  V30 29177 H 2682.89 -1.41553 -4.3852 0
M  V30 29178 H 2681.21 -1.12767 -4.0084 0
M  V30 29179 H 2683.81 1.40436 -5.15928 0
M  V30 29180 H 2684.15 2.10009 -3.59447 0
M  V30 29181 H 2684.68 0.439709 -3.95362 0
M  V30 29182 H 2681.42 -1.23951 -6.43674 0
M  V30 29183 H 2680.94 0.412107 -5.98383 0
M  V30 29184 H 2682.62 0.0696256 -6.46963 0
M  V30 29185 N 2682.75 1.57561 -0.0351337 0
M  V30 29186 C 2683.71 2.09494 0.929782 0
M  V30 29187 C 2684.71 1.01121 1.25024 0
M  V30 29188 O 2685.9 1.27258 1.18959 0
M  V30 29189 C 2683.04 2.56581 2.24452 0
M  V30 29190 H 2684.23 2.96036 0.479883 0
M  V30 29191 H 2681.78 1.54842 0.213005 0
M  V30 29192 H 2682.52 1.73386 2.74058 0
M  V30 29193 H 2682.3 3.35761 2.02502 0
M  V30 29194 H 2683.79 2.96964 2.93602 0
M  V30 29195 N 2684.23 -0.238084 1.55791 0
M  V30 29196 C 2685.18 -1.29489 1.91053 0
M  V30 29197 C 2686.15 -1.47395 0.765759 0
M  V30 29198 O 2687.33 -1.61235 1.0202 0
M  V30 29199 C 2684.47 -2.64358 2.2183 0
M  V30 29200 C 2683.58 -2.54388 3.49157 0
M  V30 29201 C 2682.72 -3.81669 3.69462 0
M  V30 29202 C 2681.76 -3.66352 4.90359 0
M  V30 29203 N 2680.9 -4.85545 5.07139 0
M  V30 29204 H 2685.74 -0.987183 2.81174 0
M  V30 29205 H 2683.27 -0.476179 1.3918 0
M  V30 29206 H 2685.23 -3.42875 2.37681 0
M  V30 29207 H 2683.86 -2.9326 1.34902 0
M  V30 29208 H 2682.91 -1.67393 3.4159 0
M  V30 29209 H 2684.22 -2.38984 4.37822 0
M  V30 29210 H 2683.38 -4.6863 3.8532 0
M  V30 29211 H 2682.12 -3.9998 2.79047 0
M  V30 29212 H 2681.12 -2.77776 4.74469 0
M  V30 29213 H 2682.35 -3.49528 5.82243 0
M  V30 29214 H 2680.29 -5.04201 4.19663 0
M  V30 29215 H 2680.21 -4.72805 5.89908 0
M  V30 29216 H 2681.48 -5.73979 5.27417 0
M  V30 29217 N 2685.71 -1.4932 -0.504115 0
M  V30 29218 C 2687.12 -1.51887 -1.08569 0
M  V30 29219 C 2687.47 -0.303289 -1.93842 0
M  V30 29220 O 2686.59 0.587203 -2.08281 0
M  V30 29221 C 2687.19 -2.75231 -1.97569 0
M  V30 29222 C 2685.75 -2.80586 -2.50895 0
M  V30 29223 C 2684.9 -2.45759 -1.28443 0
M  V30 29224 H 2687.85 -1.56062 -0.288167 0
M  V30 29225 H 2687.87 -2.55216 -2.82215 0
M  V30 29226 H 2687.38 -3.63685 -1.35479 0
M  V30 29227 H 2685.48 -1.96404 -3.16633 0
M  V30 29228 H 2685.59 -3.82678 -2.88261 0
M  V30 29229 H 2683.96 -1.97471 -1.60864 0
M  V30 29230 H 2684.74 -3.36485 -0.680661 0
M  V30 29231 N 2687.19 0.754933 -1.38342 0
M  V30 29232 C 2688.13 1.89002 -1.35576 0
M  V30 29233 C 2689.13 1.67665 -0.241853 0
M  V30 29234 O 2690.33 1.75249 -0.410815 0
M  V30 29235 H 2686.71 0.621813 -0.422909 0
M  V30 29236 H 2688.68 1.88451 -2.31363 0
M  V30 29237 C 2687.43 3.26469 -1.19637 0
M  V30 29238 H 2686.75 3.43474 -2.04611 0
M  V30 29239 H 2688.19 4.06142 -1.21756 0
M  V30 29240 C 2686.65 3.36761 0.0968113 0
M  V30 29241 O 2687.18 3.87067 1.07432 0
M  V30 29242 N 2685.39 2.90196 0.153191 0
M  V30 29243 H 2684.93 2.49447 -0.642952 0
M  V30 29244 H 2684.89 2.97462 1.01802 0
M  V30 29245 N 2688.66 1.23189 0.982967 0
M  V30 29246 C 2689.61 1.01079 2.07489 0
M  V30 29247 C 2690.58 -0.0708758 1.65949 0
M  V30 29248 O 2691.77 0.0807157 1.90629 0
M  V30 29249 C 2688.91 0.60532 3.3975 0
M  V30 29250 C 2688.02 1.75883 3.94575 0
M  V30 29251 C 2687.15 1.30039 5.15037 0
M  V30 29252 C 2686.19 2.42481 5.62022 0
M  V30 29253 N 2685.33 1.97614 6.73716 0
M  V30 29254 H 2690.17 1.94544 2.25736 0
M  V30 29255 H 2687.71 0.969199 1.10657 0
M  V30 29256 H 2689.66 0.351352 4.15718 0
M  V30 29257 H 2688.29 -0.292325 3.21474 0
M  V30 29258 H 2687.35 2.12687 3.15386 0
M  V30 29259 H 2688.66 2.60426 4.25417 0
M  V30 29260 H 2687.81 1.0044 5.98328 0
M  V30 29261 H 2686.55 0.425301 4.85842 0
M  V30 29262 H 2685.56 2.72858 4.77314 0
M  V30 29263 H 2686.78 3.30523 5.93238 0
M  V30 29264 H 2684.73 1.12481 6.46285 0
M  V30 29265 H 2684.64 2.75717 7.03929 0
M  V30 29266 H 2685.91 1.71111 7.60487 0
M  V30 29267 N 2690.14 -1.18133 1.04318 0
M  V30 29268 C 2691.39 -1.88455 0.749161 0
M  V30 29269 C 2691.72 -1.80301 -0.721459 0
M  V30 29270 O 2691 -1.20502 -1.52674 0
M  V30 29271 C 2691.28 -3.38836 1.21911 0
M  V30 29272 C 2691.13 -3.55787 2.75201 0
M  V30 29273 C 2692.45 -4.3256 0.811161 0
M  V30 29274 H 2689.57 -0.684324 0.273624 0
M  V30 29275 H 2692.21 -1.38973 1.29563 0
M  V30 29276 H 2690.36 -3.81109 0.754204 0
M  V30 29277 H 2692.03 -3.22589 3.29748 0
M  V30 29278 H 2690.28 -2.98358 3.14905 0
M  V30 29279 H 2690.95 -4.61312 3.03143 0
M  V30 29280 H 2693.42 -3.9808 1.21125 0
M  V30 29281 H 2692.3 -5.36336 1.1677 0
M  V30 29282 H 2692.56 -4.41177 -0.285518 0
M  V30 29283 N 2691.62 -0.822988 -1.34405 0
M  V30 29284 C 2692.55 -0.202415 -2.28304 0
M  V30 29285 C 2693.57 0.607743 -1.51031 0
M  V30 29286 O 2694.75 0.437414 -1.73058 0
M  V30 29287 C 2691.85 0.734853 -3.30837 0
M  V30 29288 C 2691.03 -0.0324946 -4.37388 0
M  V30 29289 C 2690.09 0.825711 -5.19681 0
M  V30 29290 O 2689.11 0.270671 -5.68556 0
M  V30 29291 N 2690.31 2.14549 -5.39397 0
M  V30 29292 H 2693.08 -1.00914 -2.82199 0
M  V30 29293 H 2690.64 -0.679956 -1.46929 0
M  V30 29294 H 2692.63 1.31359 -3.82788 0
M  V30 29295 H 2691.2 1.44233 -2.77337 0
M  V30 29296 H 2690.42 -0.792537 -3.86151 0
M  V30 29297 H 2691.71 -0.560722 -5.05701 0
M  V30 29298 H 2691.11 2.62016 -5.01362 0
M  V30 29299 H 2689.67 2.67307 -5.94466 0
M  V30 29300 N 2693.1 1.4662 -0.577957 0
M  V30 29301 C 2694.03 2.33044 0.145876 0
M  V30 29302 C 2695.01 1.45058 0.888387 0
M  V30 29303 O 2696.19 1.73883 0.864782 0
M  V30 29304 C 2693.32 3.27243 1.16316 0
M  V30 29305 C 2692.28 4.24633 0.535793 0
M  V30 29306 C 2691.6 5.08306 1.6592 0
M  V30 29307 C 2692.9 5.19665 -0.523953 0
M  V30 29308 H 2694.6 2.93813 -0.575688 0
M  V30 29309 H 2692.14 1.41285 -0.278297 0
M  V30 29310 H 2694.1 3.86556 1.67786 0
M  V30 29311 H 2692.82 2.64571 1.91494 0
M  V30 29312 H 2691.48 3.66576 0.0422115 0
M  V30 29313 H 2691.13 4.42022 2.40053 0
M  V30 29314 H 2690.83 5.74257 1.2451 0
M  V30 29315 H 2692.35 5.70482 2.17676 0
M  V30 29316 H 2693.77 5.73222 -0.0945067 0
M  V30 29317 H 2692.16 5.93933 -0.858105 0
M  V30 29318 H 2693.23 4.63885 -1.41205 0
M  V30 29319 N 2694.58 0.315484 1.5441 0
M  V30 29320 C 2695.83 -0.29036 1.99599 0
M  V30 29321 C 2696.14 -1.5388 1.20749 0
M  V30 29322 O 2697.34 -2.22014 1.56275 0
M  V30 29323 C 2695.8 -0.567908 3.55391 0
M  V30 29324 C 2695.41 0.663023 4.43067 0
M  V30 29325 C 2697.15 -1.13415 4.09069 0
M  V30 29326 C 2695.06 0.357825 5.90317 0
M  V30 29327 H 2693.99 -0.112272 0.745594 0
M  V30 29328 H 2696.64 0.426449 1.78476 0
M  V30 29329 H 2695.02 -1.34469 3.7247 0
M  V30 29330 H 2696.2 1.43877 4.37763 0
M  V30 29331 H 2694.51 1.14891 4.00236 0
M  V30 29332 H 2697.11 -1.37698 5.16666 0
M  V30 29333 H 2697.45 -2.08099 3.60556 0
M  V30 29334 H 2697.98 -0.418736 3.9559 0
M  V30 29335 H 2694.72 1.27362 6.43008 0
M  V30 29336 H 2694.24 -0.380367 5.98593 0
M  V30 29337 H 2695.92 -0.0353146 6.4699 0
M  V30 29338 N 2696.05 -1.5754 0.0434891 0
M  V30 29339 C 2697.02 -2.09984 -0.918659 0
M  V30 29340 C 2698.02 -1.01783 -1.24486 0
M  V30 29341 O 2699.21 -1.27887 -1.18282 0
M  V30 29342 C 2696.34 -2.57768 -2.23088 0
M  V30 29343 H 2697.53 -2.96286 -0.464177 0
M  V30 29344 H 2695.09 -1.54953 -0.204791 0
M  V30 29345 H 2695.82 -1.74837 -2.73134 0
M  V30 29346 H 2695.61 -3.3683 -2.00718 0
M  V30 29347 H 2697.1 -2.98517 -2.92023 0
M  V30 29348 N 2697.53 0.229818 -1.55915 0
M  V30 29349 C 2698.47 1.31167 -1.86737 0
M  V30 29350 C 2699.44 1.45593 -0.723973 0
M  V30 29351 O 2700.63 1.61537 -0.971491 0
M  V30 29352 C 2697.75 2.68306 -2.06712 0
M  V30 29353 C 2696.8 2.70939 -3.29385 0
M  V30 29354 S 2697.63 2.25833 -4.85551 0
M  V30 29355 C 2698.79 3.64864 -5.08552 0
M  V30 29356 H 2699.02 1.04827 -2.78206 0
M  V30 29357 H 2696.56 0.431655 -1.48243 0
M  V30 29358 H 2698.51 3.47263 -2.18904 0
M  V30 29359 H 2697.17 2.91874 -1.16054 0
M  V30 29360 H 2696.37 3.71695 -3.40381 0
M  V30 29361 H 2695.97 2.00039 -3.16007 0
M  V30 29362 H 2698.26 4.60493 -4.96943 0
M  V30 29363 H 2699.2 3.5879 -6.10471 0
M  V30 29364 H 2699.61 3.58168 -4.36321 0
M  V30 29365 N 2699.01 1.49585 0.49619 0
M  V30 29366 C 2700.29 1.49818 1.25753 0
M  V30 29367 C 2700.67 0.228609 2.09858 0
M  V30 29368 O 2700.02 -0.78887 2.14451 0
M  V30 29369 C 2700.23 2.77983 2.11013 0
M  V30 29370 C 2701.57 3.27663 2.70041 0
M  V30 29371 O 2702.6 2.79133 2.21276 0
M  V30 29372 O 2701.46 4.12196 3.58827 0
M  V30 29373 H 2698.55 0.599844 0.569312 0
M  V30 29374 H 2701.1 1.61853 0.510066 0
M  V30 29375 H 2699.87 3.61874 1.48872 0
M  V30 29376 H 2699.49 2.68832 2.92942 0
M  V30 29377 N 2700.49 -0.747586 1.3874 0
M  V30 29378 C 2701.42 -1.87489 1.39176 0
M  V30 29379 C 2702.4 -1.6815 0.256823 0
M  V30 29380 O 2703.58 -1.88654 0.460795 0
M  V30 29381 C 2700.71 -3.2509 1.22203 0
M  V30 29382 C 2699.67 -3.59043 2.32964 0
M  V30 29383 C 2698.99 -4.95446 2.01091 0
M  V30 29384 C 2700.29 -3.63304 3.75244 0
M  V30 29385 H 2701.99 -1.87382 2.33513 0
M  V30 29386 H 2699.53 -0.900114 1.12401 0
M  V30 29387 H 2701.49 -4.03615 1.21131 0
M  V30 29388 H 2700.21 -3.25693 0.243298 0
M  V30 29389 H 2698.87 -2.82841 2.33231 0
M  V30 29390 H 2698.52 -4.92614 1.01687 0
M  V30 29391 H 2698.22 -5.19131 2.75276 0
M  V30 29392 H 2699.74 -5.76342 2.01648 0
M  V30 29393 H 2701.16 -4.3193 3.76974 0
M  V30 29394 H 2699.55 -3.98501 4.48684 0
M  V30 29395 H 2700.62 -2.63393 4.07127 0
M  V30 29396 N 2701.97 -1.23709 -0.97642 0
M  V30 29397 C 2703.38 -1.0659 -1.53282 0
M  V30 29398 C 2703.73 0.365492 -1.92766 0
M  V30 29399 O 2702.85 1.25274 -1.76452 0
M  V30 29400 C 2703.45 -1.92869 -2.78544 0
M  V30 29401 C 2702.01 -1.8 -3.30571 0
M  V30 29402 C 2701.15 -1.88331 -2.03535 0
M  V30 29403 H 2704.11 -1.37313 -0.795668 0
M  V30 29404 H 2704.13 -1.45583 -3.51548 0
M  V30 29405 H 2703.64 -2.97041 -2.49776 0
M  V30 29406 H 2701.74 -0.786266 -3.6421 0
M  V30 29407 H 2701.85 -2.63607 -4.0006 0
M  V30 29408 H 2700.22 -1.31958 -2.17851 0
M  V30 29409 H 2701 -2.94067 -1.77143 0
M  V30 29410 N 2703.44 1.17579 -1.04943 0
M  V30 29411 C 2704.38 2.20372 -0.592557 0
M  V30 29412 C 2705.36 1.58156 0.377534 0
M  V30 29413 O 2706.54 1.8626 0.289747 0
M  V30 29414 C 2703.67 3.38438 0.133156 0
M  V30 29415 C 2702.71 4.1909 -0.791557 0
M  V30 29416 S 2703.55 4.84568 -2.27934 0
M  V30 29417 C 2704.7 6.06026 -1.56472 0
M  V30 29418 H 2704.93 2.58785 -1.46347 0
M  V30 29419 H 2702.47 1.28153 -0.861171 0
M  V30 29420 H 2704.43 4.06857 0.545675 0
M  V30 29421 H 2703.09 2.98418 0.980071 0
M  V30 29422 H 2702.28 5.03474 -0.230127 0
M  V30 29423 H 2701.88 3.56096 -1.14333 0
M  V30 29424 H 2704.17 6.71985 -0.862657 0
M  V30 29425 H 2705.12 6.66692 -2.38595 0
M  V30 29426 H 2705.52 5.54588 -1.05322 0
M  V30 29427 N 2704.92 0.830104 1.33967 0
M  V30 29428 C 2706.17 0.422226 1.98356 0
M  V30 29429 C 2706.5 -1.01385 1.65635 0
M  V30 29430 O 2705.78 -1.70734 0.931678 0
M  V30 29431 C 2706.06 0.633105 3.54491 0
M  V30 29432 C 2705.91 2.11581 3.9693 0
M  V30 29433 C 2707.23 0.0736357 4.40038 0
M  V30 29434 H 2704.35 0.154883 0.720542 0
M  V30 29435 H 2706.99 1.044 1.58747 0
M  V30 29436 H 2705.14 0.103843 3.88361 0
M  V30 29437 H 2706.81 2.70927 3.73358 0
M  V30 29438 H 2705.06 2.6036 3.4698 0
M  V30 29439 H 2705.73 2.21415 5.05648 0
M  V30 29440 H 2708.2 0.525923 4.12763 0
M  V30 29441 H 2707.08 0.250938 5.48326 0
M  V30 29442 H 2707.34 -1.02195 4.30126 0
M  V30 29443 N 2706.4 -1.46311 0.585725 0
M  V30 29444 C 2707.63 -2.0726 0.0762826 0
M  V30 29445 C 2708.05 -1.43111 -1.22069 0
M  V30 29446 O 2707.41 -0.515973 -1.73803 0
M  V30 29447 C 2707.46 -3.60526 -0.072877 0
M  V30 29448 O 2706.56 -3.96656 -1.12863 0
M  V30 29449 H 2705.9 -0.660892 0.0641674 0
M  V30 29450 H 2708.43 -1.87904 0.809525 0
M  V30 29451 H 2708.44 -4.07051 -0.278086 0
M  V30 29452 H 2707.12 -4.06607 0.874259 0
M  V30 29453 H 2705.69 -3.61835 -0.901639 0
M  V30 29454 N 2707.88 -0.323668 -1.54241 0
M  V30 29455 C 2709.13 0.278324 -2.00174 0
M  V30 29456 C 2709.45 1.52646 -1.21343 0
M  V30 29457 O 2708.72 1.93346 -0.315278 0
M  V30 29458 H 2707.3 0.105832 -0.739465 0
M  V30 29459 H 2709.96 -0.440238 -1.89863 0
M  V30 29460 H 2709.06 0.534646 -3.07487 0
M  V30 29461 N 2709.36 1.57515 -0.0518432 0
M  V30 29462 C 2710.63 1.84068 0.661694 0
M  V30 29463 C 2711.01 0.940384 1.88997 0
M  V30 29464 O 2710.36 0.0015942 2.285 0
M  V30 29465 C 2710.57 3.33812 1.01835 0
M  V30 29466 C 2711.92 4.00843 1.40036 0
M  V30 29467 O 2712.94 3.38441 1.11067 0
M  V30 29468 O 2711.8 5.10869 1.94102 0
M  V30 29469 H 2708.9 0.759739 0.326688 0
M  V30 29470 H 2711.44 1.69505 -0.0812575 0
M  V30 29471 H 2710.22 3.91031 0.145134 0
M  V30 29472 H 2709.84 3.53565 1.81873 0
M  V30 29473 N 2710.84 -0.221546 1.56035 0
M  V30 29474 C 2712.25 -0.571245 1.49027 0
M  V30 29475 C 2712.45 -1.87144 0.746944 0
M  V30 29476 O 2711.51 -2.50868 0.28661 0
M  V30 29477 C 2712.82 -0.65047 2.9358 0
M  V30 29478 C 2714.37 -0.741097 3.041 0
M  V30 29479 C 2714.84 -0.851668 4.50012 0
M  V30 29480 N 2716.33 -0.915888 4.54055 0
M  V30 29481 C 2717.07 -1.02115 5.64234 0
M  V30 29482 N 2716.57 -1.09036 6.84166 0
M  V30 29483 N 2718.36 -1.05629 5.52086 0
M  V30 29484 H 2710.51 0.631656 2.0279 0
M  V30 29485 H 2712.77 0.221618 0.921732 0
M  V30 29486 H 2712.48 0.235314 3.50912 0
M  V30 29487 H 2712.35 -1.51407 3.45479 0
M  V30 29488 H 2714.74 -1.61732 2.46833 0
M  V30 29489 H 2714.82 0.148173 2.5537 0
M  V30 29490 H 2714.46 0.020101 5.07896 0
M  V30 29491 H 2714.39 -1.75635 4.96447 0
M  V30 29492 H 2716.89 -0.872717 3.67685 0
M  V30 29493 H 2717.2 -1.17046 7.63885 0
M  V30 29494 H 2715.54 -1.0595 6.86877 0
M  V30 29495 H 2718.73 -0.998873 4.57318 0
M  V30 29496 H 2718.91 -1.13487 6.37985 0
M  V30 29497 N 2712.31 -1.49846 -0.48825 0
M  V30 29498 C 2713.56 -1.59219 -1.23823 0
M  V30 29499 C 2713.88 -0.29 -1.93438 0
M  V30 29500 O 2715.08 -0.26243 -2.70229 0
M  V30 29501 C 2713.54 -2.8098 -2.24897 0
M  V30 29502 C 2713.15 -4.18008 -1.61162 0
M  V30 29503 C 2714.89 -2.9969 -3.00643 0
M  V30 29504 C 2712.8 -5.30975 -2.60422 0
M  V30 29505 H 2711.73 -0.592876 -0.465847 0
M  V30 29506 H 2714.38 -1.76253 -0.510614 0
M  V30 29507 H 2712.76 -2.57468 -3.00876 0
M  V30 29508 H 2713.93 -4.51707 -0.910888 0
M  V30 29509 H 2712.25 -4.04762 -0.977599 0
M  V30 29510 H 2714.85 -3.81257 -3.74896 0
M  V30 29511 H 2715.19 -2.10745 -3.59016 0
M  V30 29512 H 2715.72 -3.23301 -2.31778 0
M  V30 29513 H 2712.46 -6.2202 -2.06812 0
M  V30 29514 H 2711.98 -5.01715 -3.28698 0
M  V30 29515 H 2713.66 -5.60839 -3.22596 0
M  V30 29516 N 2713.79 0.740218 -1.39135 0
M  V30 29517 C 2714.74 1.84516 -1.33932 0
M  V30 29518 C 2715.73 1.59373 -0.221125 0
M  V30 29519 O 2716.92 1.70966 -0.458225 0
M  V30 29520 C 2714.05 3.22385 -1.17996 0
M  V30 29521 C 2713.13 3.53374 -2.34494 0
M  V30 29522 N 2713.52 3.55334 -3.59961 0
M  V30 29523 C 2711.82 3.8371 -2.27338 0
M  V30 29524 C 2712.52 3.8397 -4.36969 0
M  V30 29525 N 2711.5 4.0148 -3.66489 0
M  V30 29526 H 2715.3 1.84329 -2.28911 0
M  V30 29527 H 2712.81 0.938213 -1.32557 0
M  V30 29528 H 2714.81 4.01476 -1.12352 0
M  V30 29529 H 2713.47 3.23815 -0.239627 0
M  V30 29530 H 2714.48 3.36771 -3.93454 0
M  V30 29531 H 2711.16 3.92776 -1.41538 0
M  V30 29532 H 2712.55 3.91998 -5.45699 0
M  V30 29533 N 2715.27 1.24225 0.969846 0
M  V30 29534 C 2716.51 1.09253 1.72752 0
M  V30 29535 C 2716.87 -0.362754 1.88542 0
M  V30 29536 O 2718.07 -0.633923 2.61218 0
M  V30 29537 C 2716.35 1.80962 3.082 0
M  V30 29538 S 2717.9 1.81695 3.99415 0
M  V30 29539 H 2714.72 0.390788 0.593975 0
M  V30 29540 H 2717.32 1.57522 1.15789 0
M  V30 29541 H 2716.03 2.85966 2.94367 0
M  V30 29542 H 2715.56 1.33018 3.70229 0
M  V30 29543 H 2717.57 0.883086 4.88279 0
M  V30 29544 N 2716.75 -1.1702 1.05565 0
M  V30 29545 C 2717.68 -2.23347 0.681065 0
M  V30 29546 C 2718.66 -1.67006 -0.322954 0
M  V30 29547 O 2719.84 -1.9317 -0.199712 0
M  V30 29548 C 2716.97 -3.4725 0.0589663 0
M  V30 29549 C 2715.93 -4.16437 0.988155 0
M  V30 29550 C 2715.25 -5.34206 0.22974 0
M  V30 29551 C 2716.55 -4.68245 2.31396 0
M  V30 29552 H 2718.25 -2.54936 1.56997 0
M  V30 29553 H 2715.79 -1.22539 0.756324 0
M  V30 29554 H 2717.75 -4.20852 -0.214908 0
M  V30 29555 H 2716.47 -3.14939 -0.864913 0
M  V30 29556 H 2715.13 -3.44752 1.24666 0
M  V30 29557 H 2714.78 -4.98147 -0.697024 0
M  V30 29558 H 2714.48 -5.81435 0.848917 0
M  V30 29559 H 2716 -6.10589 -0.0367621 0
M  V30 29560 H 2717.42 -5.33464 2.09973 0
M  V30 29561 H 2715.81 -5.26067 2.88745 0
M  V30 29562 H 2716.88 -3.8485 2.94989 0
M  V30 29563 N 2718.23 -0.837197 -1.33524 0
M  V30 29564 C 2719.5 -0.354099 -1.92368 0
M  V30 29565 C 2719.88 1.16034 -1.7635 0
M  V30 29566 O 2719.23 1.97401 -1.15087 0
M  V30 29567 C 2719.44 -0.79916 -3.39727 0
M  V30 29568 C 2720.79 -0.806213 -4.16876 0
M  V30 29569 O 2721.81 -0.742658 -3.48372 0
M  V30 29570 O 2720.67 -0.89244 -5.39164 0
M  V30 29571 H 2717.77 -0.0998523 -0.82095 0
M  V30 29572 H 2720.31 -0.922938 -1.42408 0
M  V30 29573 H 2719.08 -1.84168 -3.4525 0
M  V30 29574 H 2718.71 -0.2068 -3.97062 0
M  V30 29575 N 2719.7 1.45999 -0.593476 0
M  V30 29576 C 2720.95 2.01538 -0.0808438 0
M  V30 29577 C 2721.27 1.46936 1.29109 0
M  V30 29578 O 2722.47 1.94362 1.89567 0
M  V30 29579 C 2720.93 3.59777 -0.0938943 0
M  V30 29580 C 2720.54 4.23376 -1.46481 0
M  V30 29581 C 2722.28 4.22935 0.364231 0
M  V30 29582 C 2720.19 5.73726 -1.43501 0
M  V30 29583 H 2719.12 0.753536 -0.0264539 0
M  V30 29584 H 2721.77 1.6762 -0.746719 0
M  V30 29585 H 2720.15 3.90821 0.638358 0
M  V30 29586 H 2721.32 4.03927 -2.21765 0
M  V30 29587 H 2719.64 3.72357 -1.86385 0
M  V30 29588 H 2722.24 5.3316 0.405491 0
M  V30 29589 H 2722.58 3.9262 1.38402 0
M  V30 29590 H 2723.11 3.96556 -0.3143 0
M  V30 29591 H 2719.85 6.08717 -2.43194 0
M  V30 29592 H 2719.37 5.95408 -0.724536 0
M  V30 29593 H 2721.05 6.36652 -1.15254 0
M  V30 29594 N 2721.18 0.331843 1.54067 0
M  V30 29595 C 2722.11 -0.522892 2.2757 0
M  V30 29596 C 2723.09 -1.11244 1.28681 0
M  V30 29597 O 2724.28 -1.13603 1.57506 0
M  V30 29598 C 2721.41 -1.67981 3.03973 0
M  V30 29599 C 2720.36 -1.21917 4.10269 0
M  V30 29600 C 2719.69 -2.46369 4.74559 0
M  V30 29601 C 2720.99 -0.328058 5.21269 0
M  V30 29602 H 2722.68 0.0902503 2.99264 0
M  V30 29603 H 2720.23 0.0448463 1.4393 0
M  V30 29604 H 2722.18 -2.28412 3.54127 0
M  V30 29605 H 2720.91 -2.31967 2.2991 0
M  V30 29606 H 2719.56 -0.637745 3.6101 0
M  V30 29607 H 2719.21 -3.08736 3.97103 0
M  V30 29608 H 2718.91 -2.16234 5.46367 0
M  V30 29609 H 2720.44 -3.07546 5.27492 0
M  V30 29610 H 2721.85 -0.838878 5.67129 0
M  V30 29611 H 2720.25 -0.119122 5.99982 0
M  V30 29612 H 2721.32 0.638924 4.80672 0
M  V30 29613 N 2722.66 -1.57485 0.0601958 0
M  V30 29614 C 2723.91 -1.93045 -0.611561 0
M  V30 29615 C 2724.24 -0.939304 -1.70315 0
M  V30 29616 O 2723.49 0.0469616 -1.95644 0
M  V30 29617 C 2723.79 -3.35264 -1.23825 0
M  V30 29618 C 2723.46 -4.50067 -0.273958 0
M  V30 29619 C 2722.12 -4.81199 -0.00863935 0
M  V30 29620 C 2724.47 -5.19766 0.3864 0
M  V30 29621 C 2721.8 -5.79373 0.924319 0
M  V30 29622 C 2724.15 -6.18938 1.30761 0
M  V30 29623 C 2722.81 -6.48494 1.58151 0
M  V30 29624 H 2722.08 -0.7064 -0.223786 0
M  V30 29625 H 2724.73 -1.91068 0.1286 0
M  V30 29626 H 2723.04 -3.33651 -2.05388 0
M  V30 29627 H 2724.73 -3.60062 -1.76511 0
M  V30 29628 H 2721.32 -4.25779 -0.490933 0
M  V30 29629 H 2725.51 -4.95919 0.194523 0
M  V30 29630 H 2720.76 -6.00604 1.1439 0
M  V30 29631 H 2724.94 -6.72053 1.82531 0
M  V30 29632 H 2722.56 -7.24379 2.30605 0
M  V30 29633 N 2724.14 0.213268 -1.5615 0
M  V30 29634 C 2725.1 1.24789 -1.92251 0
M  V30 29635 C 2726.1 1.39381 -0.801852 0
M  V30 29636 O 2727.29 1.37504 -1.0695 0
M  V30 29637 C 2724.42 2.62035 -2.1806 0
M  V30 29638 H 2725.62 0.939795 -2.84794 0
M  V30 29639 H 2723.17 0.454036 -1.4956 0
M  V30 29640 H 2723.9 2.9793 -1.28095 0
M  V30 29641 H 2723.69 2.52819 -2.99708 0
M  V30 29642 H 2725.18 3.36679 -2.47057 0
M  V30 29643 N 2725.62 1.50103 0.480296 0
M  V30 29644 C 2726.86 1.60631 1.23304 0
M  V30 29645 C 2727.19 0.302409 1.92135 0
M  V30 29646 O 2726.45 -0.711122 1.82323 0
M  V30 29647 C 2726.75 2.72967 2.30703 0
M  V30 29648 C 2726.41 4.13766 1.79188 0
M  V30 29649 C 2725.07 4.52078 1.64859 0
M  V30 29650 C 2727.43 5.01802 1.40869 0
M  V30 29651 C 2724.75 5.76177 1.10621 0
M  V30 29652 C 2727.11 6.26439 0.880762 0
M  V30 29653 C 2725.77 6.63562 0.72403 0
M  V30 29654 H 2725.04 0.587792 0.451201 0
M  V30 29655 H 2727.69 1.84006 0.530477 0
M  V30 29656 H 2725.99 2.43644 3.0683 0
M  V30 29657 H 2727.69 2.78318 2.88687 0
M  V30 29658 H 2724.28 3.83536 1.91306 0
M  V30 29659 H 2728.46 4.72842 1.50778 0
M  V30 29660 H 2723.72 6.03622 0.972156 0
M  V30 29661 H 2727.89 6.94021 0.575147 0
M  V30 29662 H 2725.52 7.59602 0.301589 0
M  V30 29663 N 2727.09 -0.732829 1.39526 0
M  V30 29664 C 2728.32 -1.52206 1.40146 0
M  V30 29665 C 2728.74 -1.888 -0.00345517 0
M  V30 29666 O 2728.09 -1.54252 -0.97533 0
M  V30 29667 C 2728.15 -2.80826 2.27637 0
M  V30 29668 O 2727.87 -2.45786 3.62658 0
M  V30 29669 C 2729.37 -3.7484 2.36664 0
M  V30 29670 H 2726.59 -0.470289 0.478612 0
M  V30 29671 H 2729.13 -0.905356 1.83367 0
M  V30 29672 H 2727.29 -3.38823 1.87824 0
M  V30 29673 H 2727.7 -3.28424 4.08947 0
M  V30 29674 H 2729.17 -4.61978 3.02126 0
M  V30 29675 H 2729.65 -4.16742 1.38645 0
M  V30 29676 H 2730.26 -3.22761 2.76957 0
M  V30 29677 N 2728.57 -1.24737 -0.963244 0
M  V30 29678 C 2729.52 -1.04367 -2.05855 0
M  V30 29679 C 2730.49 0.0444659 -1.6604 0
M  V30 29680 O 2731.67 -0.111033 -1.90477 0
M  V30 29681 C 2728.81 -0.659295 -3.38744 0
M  V30 29682 C 2727.93 -1.82138 -3.91727 0
M  V30 29683 C 2727.06 -1.38217 -5.12903 0
M  V30 29684 C 2726.1 -2.51392 -5.58094 0
M  V30 29685 N 2725.24 -2.08307 -6.70487 0
M  V30 29686 H 2730.08 -1.9811 -2.22612 0
M  V30 29687 H 2727.62 -0.986681 -1.09101 0
M  V30 29688 H 2729.57 -0.417444 -4.15106 0
M  V30 29689 H 2728.2 0.241145 -3.21898 0
M  V30 29690 H 2727.26 -2.17677 -3.11963 0
M  V30 29691 H 2728.57 -2.67161 -4.2122 0
M  V30 29692 H 2727.72 -1.09946 -5.96655 0
M  V30 29693 H 2726.46 -0.502541 -4.85104 0
M  V30 29694 H 2725.47 -2.80418 -4.72912 0
M  V30 29695 H 2726.69 -3.39919 -5.87905 0
M  V30 29696 H 2724.64 -1.22749 -6.44414 0
M  V30 29697 H 2724.55 -2.86881 -6.99453 0
M  V30 29698 H 2725.82 -1.83188 -7.57669 0
M  V30 29699 N 2730.05 1.16459 -1.06184 0
M  V30 29700 C 2731.47 1.38955 -0.785089 0
M  V30 29701 C 2731.67 1.91851 0.61607 0
M  V30 29702 O 2730.72 2.1166 1.37682 0
M  V30 29703 C 2732.04 2.37129 -1.84906 0
M  V30 29704 C 2733.58 2.50816 -1.87244 0
M  V30 29705 C 2734.06 3.52272 -2.92692 0
M  V30 29706 N 2735.55 3.59798 -2.91719 0
M  V30 29707 C 2736.28 4.38086 -3.69957 0
M  V30 29708 N 2735.78 5.19807 -4.58009 0
M  V30 29709 N 2737.57 4.33058 -3.58353 0
M  V30 29710 H 2729.72 0.8046 -1.9657 0
M  V30 29711 H 2731.99 0.416196 -0.851754 0
M  V30 29712 H 2731.69 2.05355 -2.85521 0
M  V30 29713 H 2731.57 3.36763 -1.69914 0
M  V30 29714 H 2733.95 2.81895 -0.872877 0
M  V30 29715 H 2734.04 1.51222 -2.06314 0
M  V30 29716 H 2733.68 3.2193 -3.92841 0
M  V30 29717 H 2733.61 4.51593 -2.70872 0
M  V30 29718 H 2736.1 3.0146 -2.27882 0
M  V30 29719 H 2736.41 5.76755 -5.14367 0
M  V30 29720 H 2734.76 5.19154 -4.62065 0
M  V30 29721 H 2737.95 3.68274 -2.88949 0
M  V30 29722 H 2738.12 4.93825 -4.19572 0
M  V30 29723 N 2731.53 0.844266 1.33079 0
M  V30 29724 C 2732.77 0.44324 1.97897 0
M  V30 29725 C 2733.11 -0.996221 1.66701 0
M  V30 29726 O 2732.38 -1.69736 0.949734 0
M  V30 29727 C 2732.67 0.670668 3.53799 0
M  V30 29728 C 2732.52 2.15779 3.94664 0
M  V30 29729 C 2733.84 0.120304 4.39936 0
M  V30 29730 H 2730.96 0.162517 0.718858 0
M  V30 29731 H 2733.6 1.06078 1.57631 0
M  V30 29732 H 2731.75 0.145028 3.88229 0
M  V30 29733 H 2733.42 2.74871 3.70464 0
M  V30 29734 H 2731.66 2.64026 3.44199 0
M  V30 29735 H 2732.33 2.26765 5.03271 0
M  V30 29736 H 2734.81 0.569672 4.12182 0
M  V30 29737 H 2733.69 0.309081 5.48029 0
M  V30 29738 H 2733.95 -0.976271 4.31186 0
M  V30 29739 N 2733.01 -1.45682 0.60121 0
M  V30 29740 C 2733.94 -2.33246 -0.108783 0
M  V30 29741 C 2734.92 -1.46453 -0.865197 0
M  V30 29742 O 2736.1 -1.75236 -0.837009 0
M  V30 29743 C 2733.23 -3.29052 -1.11095 0
M  V30 29744 C 2732.19 -4.25432 -0.46817 0
M  V30 29745 C 2731.51 -5.10881 -1.57813 0
M  V30 29746 C 2732.81 -5.18766 0.606561 0
M  V30 29747 H 2734.51 -2.9286 0.622358 0
M  V30 29748 H 2732.05 -1.40825 0.300739 0
M  V30 29749 H 2734.01 -3.89177 -1.61615 0
M  V30 29750 H 2732.73 -2.67584 -1.8726 0
M  V30 29751 H 2731.39 -3.66596 0.0161129 0
M  V30 29752 H 2731.04 -4.45785 -2.32991 0
M  V30 29753 H 2730.74 -5.76165 -1.15358 0
M  V30 29754 H 2732.26 -5.73873 -2.08573 0
M  V30 29755 H 2733.67 -5.72999 0.185689 0
M  V30 29756 H 2732.07 -5.92493 0.952486 0
M  V30 29757 H 2733.14 -4.6158 1.48567 0
M  V30 29758 N 2734.48 -0.340009 -1.53889 0
M  V30 29759 C 2735.73 0.257077 -2.00458 0
M  V30 29760 C 2736.05 1.51351 -1.22955 0
M  V30 29761 O 2735.32 1.93001 -0.335768 0
M  V30 29762 H 2733.9 0.0979835 -0.740546 0
M  V30 29763 H 2736.57 -0.46035 -1.89385 0
M  V30 29764 H 2735.66 0.502002 -3.08036 0
M  V30 29765 N 2735.96 1.57451 -0.0685468 0
M  V30 29766 C 2736.87 2.16036 0.914639 0
M  V30 29767 C 2737.89 1.12267 1.32936 0
M  V30 29768 O 2739.07 1.44518 1.40273 0
M  V30 29769 C 2736.13 2.70781 2.16514 0
M  V30 29770 C 2735.19 3.89411 1.80714 0
M  V30 29771 C 2734.42 4.41536 2.99803 0
M  V30 29772 O 2734.65 3.92673 4.1372 0
M  V30 29773 O 2733.58 5.32908 2.79808 0
M  V30 29774 H 2737.41 3.00403 0.446311 0
M  V30 29775 H 2734.99 1.48601 0.154341 0
M  V30 29776 H 2736.87 3.05883 2.89851 0
M  V30 29777 H 2735.55 1.89476 2.62451 0
M  V30 29778 H 2734.46 3.59168 1.0464 0
M  V30 29779 H 2735.79 4.71999 1.39562 0
M  V30 29780 N 2737.44 -0.204984 1.56261 0
M  V30 29781 C 2738.67 -0.947479 1.84493 0
M  V30 29782 C 2739.09 -1.76478 0.650925 0
M  V30 29783 O 2738.45 -1.76825 -0.400319 0
M  V30 29784 C 2738.5 -1.82742 3.10866 0
M  V30 29785 O 2737.6 -2.92495 2.90724 0
M  V30 29786 H 2736.94 -0.267375 0.607788 0
M  V30 29787 H 2739.47 -0.213287 2.03485 0
M  V30 29788 H 2739.48 -2.23401 3.41403 0
M  V30 29789 H 2738.16 -1.22683 3.97394 0
M  V30 29790 H 2736.73 -2.55662 2.71461 0
M  V30 29791 N 2738.92 -1.50356 -0.472329 0
M  V30 29792 C 2740.17 -1.60964 -1.22208 0
M  V30 29793 C 2740.49 -0.311473 -1.92496 0
M  V30 29794 O 2739.76 0.67097 -1.84051 0
M  V30 29795 H 2738.34 -0.593143 -0.454081 0
M  V30 29796 H 2741 -1.87127 -0.544944 0
M  V30 29797 H 2740.1 -2.42016 -1.97065 0
M  V30 29798 N 2740.4 0.725419 -1.39912 0
M  V30 29799 C 2741.31 1.86978 -1.41691 0
M  V30 29800 C 2742.32 1.71205 -0.31061 0
M  V30 29801 O 2743.5 1.93641 -0.553624 0
M  V30 29802 C 2740.56 3.22674 -1.26817 0
M  V30 29803 C 2739.63 3.50771 -2.47504 0
M  V30 29804 C 2738.86 4.79993 -2.33329 0
M  V30 29805 O 2739.08 5.54392 -1.34185 0
M  V30 29806 O 2738.02 5.08205 -3.22507 0
M  V30 29807 H 2741.84 1.88432 -2.38174 0
M  V30 29808 H 2739.43 0.874527 -1.2113 0
M  V30 29809 H 2741.31 4.03747 -1.20691 0
M  V30 29810 H 2739.98 3.21969 -0.334345 0
M  V30 29811 H 2738.89 2.69747 -2.59206 0
M  V30 29812 H 2740.22 3.56264 -3.39612 0
M  V30 29813 N 2741.88 1.25246 0.956615 0
M  V30 29814 C 2742.81 0.997786 2.0523 0
M  V30 29815 C 2743.79 -0.0722852 1.62439 0
M  V30 29816 O 2744.97 0.0669591 1.88381 0
M  V30 29817 C 2742.1 0.50792 3.3487 0
M  V30 29818 C 2741.14 1.56822 3.96622 0
M  V30 29819 S 2741.98 3.15283 4.32847 0
M  V30 29820 C 2743.13 2.68027 5.65608 0
M  V30 29821 H 2743.37 1.92554 2.26518 0
M  V30 29822 H 2740.9 1.08754 1.09599 0
M  V30 29823 H 2742.86 0.23193 4.09844 0
M  V30 29824 H 2741.52 -0.399301 3.11552 0
M  V30 29825 H 2740.71 1.17612 4.90085 0
M  V30 29826 H 2740.31 1.79479 3.28121 0
M  V30 29827 H 2742.6 2.11529 6.43632 0
M  V30 29828 H 2743.55 3.60122 6.09686 0
M  V30 29829 H 2743.96 2.08089 5.24747 0
M  V30 29830 N 2743.35 -1.15894 1.068 0
M  V30 29831 C 2744.63 -1.82604 0.70109 0
M  V30 29832 C 2745.01 -1.94648 -0.817032 0
M  V30 29833 O 2744.36 -1.49356 -1.7293 0
M  V30 29834 C 2744.57 -3.19293 1.409 0
M  V30 29835 C 2745.92 -3.95002 1.55751 0
M  V30 29836 O 2746.94 -3.28828 1.36933 0
M  V30 29837 O 2745.8 -5.13632 1.86667 0
M  V30 29838 H 2742.89 -0.788686 0.248805 0
M  V30 29839 H 2745.44 -1.23053 1.16859 0
M  V30 29840 H 2744.21 -3.05592 2.44396 0
M  V30 29841 H 2743.83 -3.86524 0.931915 0
M  V30 29842 N 2744.83 -0.851312 -1.32629 0
M  V30 29843 C 2746.06 -0.466042 -2.02096 0
M  V30 29844 C 2746.48 0.92868 -1.63576 0
M  V30 29845 O 2745.84 1.60943 -0.834694 0
M  V30 29846 C 2745.89 -0.6088 -3.55424 0
M  V30 29847 O 2744.99 0.359806 -4.10827 0
M  V30 29848 H 2744.33 -0.187735 -0.636908 0
M  V30 29849 H 2746.86 -1.14958 -1.69251 0
M  V30 29850 H 2746.87 -0.495077 -4.04985 0
M  V30 29851 H 2745.55 -1.62588 -3.82803 0
M  V30 29852 H 2744.12 0.202601 -3.72349 0
M  V30 29853 N 2746.31 1.45361 -0.608928 0
M  V30 29854 C 2747.24 2.33301 0.0964116 0
M  V30 29855 C 2748.22 1.46909 0.857418 0
M  V30 29856 O 2749.41 1.75678 0.827704 0
M  V30 29857 C 2746.54 3.29637 1.09348 0
M  V30 29858 C 2745.49 4.25674 0.445601 0
M  V30 29859 C 2744.82 5.11711 1.55101 0
M  V30 29860 C 2746.12 5.18437 -0.634063 0
M  V30 29861 H 2747.81 2.92526 -0.63788 0
M  V30 29862 H 2745.36 1.40663 -0.308203 0
M  V30 29863 H 2747.31 3.90028 1.59549 0
M  V30 29864 H 2746.03 2.68573 1.85839 0
M  V30 29865 H 2744.69 3.66583 -0.0355542 0
M  V30 29866 H 2744.34 4.47014 2.30623 0
M  V30 29867 H 2744.04 5.76769 1.12301 0
M  V30 29868 H 2745.56 5.74971 2.05527 0
M  V30 29869 H 2746.98 5.72893 -0.216074 0
M  V30 29870 H 2745.37 5.91979 -0.983893 0
M  V30 29871 H 2746.44 4.60785 -1.51013 0
M  V30 29872 N 2747.79 0.348166 1.53706 0
M  V30 29873 C 2749.2 -0.00358329 1.596 0
M  V30 29874 C 2749.4 -1.48318 1.36397 0
M  V30 29875 O 2748.46 -2.24251 1.1605 0
M  V30 29876 C 2749.77 0.436735 2.97512 0
M  V30 29877 C 2751.32 0.389471 3.10567 0
M  V30 29878 C 2751.8 0.805328 4.50864 0
M  V30 29879 N 2753.29 0.759697 4.56928 0
M  V30 29880 C 2754.02 1.05337 5.63641 0
M  V30 29881 N 2753.52 1.41543 6.78187 0
M  V30 29882 N 2755.31 0.977305 5.53539 0
M  V30 29883 H 2747.46 1.31189 1.67042 0
M  V30 29884 H 2749.72 0.535089 0.782549 0
M  V30 29885 H 2749.43 1.46855 3.19572 0
M  V30 29886 H 2749.3 -0.185678 3.76743 0
M  V30 29887 H 2751.69 -0.633178 2.88227 0
M  V30 29888 H 2751.77 1.04715 2.33385 0
M  V30 29889 H 2751.42 1.82601 4.7394 0
M  V30 29890 H 2751.35 0.125081 5.26451 0
M  V30 29891 H 2753.84 0.492716 3.74674 0
M  V30 29892 H 2754.15 1.62424 7.55538 0
M  V30 29893 H 2752.5 1.45393 6.79622 0
M  V30 29894 H 2755.69 0.693756 4.6293 0
M  V30 29895 H 2755.86 1.20952 6.36612 0
M  V30 29896 N 2749.27 -1.57412 0.0768958 0
M  V30 29897 C 2750.49 -1.98429 -0.603369 0
M  V30 29898 C 2750.92 -0.955137 -1.62046 0
M  V30 29899 O 2750.27 0.0786459 -1.81129 0
M  V30 29900 C 2750.32 -3.38466 -1.2439 0
M  V30 29901 O 2749.43 -3.38214 -2.35976 0
M  V30 29902 H 2748.77 -0.64572 -0.15473 0
M  V30 29903 H 2751.3 -2.04028 0.152921 0
M  V30 29904 H 2751.31 -3.75763 -1.58954 0
M  V30 29905 H 2749.98 -4.129 -0.498663 0
M  V30 29906 H 2748.56 -3.12693 -2.03168 0
M  V30 29907 N 2750.74 0.196695 -1.56368 0
M  V30 29908 C 2751.68 1.2678 -1.90943 0
M  V30 29909 C 2752.69 1.41791 -0.799953 0
M  V30 29910 O 2753.88 1.42245 -1.07836 0
M  V30 29911 C 2750.98 2.64017 -2.12482 0
M  V30 29912 C 2750.15 2.70635 -3.43621 0
M  V30 29913 C 2749.21 3.89056 -3.54291 0
M  V30 29914 O 2748.24 3.76233 -4.27126 0
M  V30 29915 N 2749.44 5.04442 -2.87261 0
M  V30 29916 H 2752.2 0.974367 -2.83419 0
M  V30 29917 H 2749.76 0.386621 -1.57216 0
M  V30 29918 H 2751.76 3.41661 -2.1691 0
M  V30 29919 H 2750.33 2.85855 -1.26513 0
M  V30 29920 H 2749.55 1.79277 -3.51075 0
M  V30 29921 H 2750.83 2.72047 -4.29963 0
M  V30 29922 H 2750.23 5.17758 -2.2791 0
M  V30 29923 H 2748.79 5.80039 -2.97318 0
M  V30 29924 N 2752.22 1.50604 0.464349 0
M  V30 29925 C 2753.16 1.64607 1.58049 0
M  V30 29926 C 2754.13 0.494043 1.54913 0
M  V30 29927 O 2755.32 0.714423 1.74437 0
M  V30 29928 C 2752.44 1.63486 2.96631 0
M  V30 29929 C 2751.49 2.84331 3.17896 0
M  V30 29930 S 2752.32 4.45541 2.97075 0
M  V30 29931 C 2753.48 4.47123 4.37986 0
M  V30 29932 H 2753.71 2.59019 1.45933 0
M  V30 29933 H 2751.25 1.39951 0.652164 0
M  V30 29934 H 2753.2 1.63524 3.76524 0
M  V30 29935 H 2751.86 0.702982 3.06132 0
M  V30 29936 H 2751.06 2.7987 4.19153 0
M  V30 29937 H 2750.66 2.81895 2.45787 0
M  V30 29938 H 2752.95 4.211 5.30736 0
M  V30 29939 H 2753.89 5.4878 4.47489 0
M  V30 29940 H 2754.3 3.76751 4.2038 0
M  V30 29941 N 2753.7 -0.717989 1.40295 0
M  V30 29942 C 2754.61 -1.86224 1.42681 0
M  V30 29943 C 2755.63 -1.71038 0.319685 0
M  V30 29944 O 2756.8 -1.93345 0.563886 0
M  V30 29945 C 2753.87 -3.21997 1.28526 0
M  V30 29946 C 2752.93 -3.49454 2.4936 0
M  V30 29947 C 2752.16 -4.78749 2.35871 0
M  V30 29948 O 2752.38 -5.53673 1.37123 0
M  V30 29949 O 2751.32 -5.06488 3.25198 0
M  V30 29950 H 2755.14 -1.87167 2.3917 0
M  V30 29951 H 2752.73 -0.868091 1.21592 0
M  V30 29952 H 2754.61 -4.03101 1.22831 0
M  V30 29953 H 2753.29 -3.21787 0.351415 0
M  V30 29954 H 2752.19 -2.68368 2.60633 0
M  V30 29955 H 2753.53 -3.54458 3.41497 0
M  V30 29956 N 2755.18 -1.25752 -0.94996 0
M  V30 29957 C 2756.09 -1.08299 -2.08107 0
M  V30 29958 C 2757.1 -0.0188487 -1.7399 0
M  V30 29959 O 2758.28 -0.220759 -2.00186 0
M  V30 29960 C 2755.35 -0.708594 -3.39382 0
M  V30 29961 C 2754.41 -1.85118 -3.87337 0
M  V30 29962 C 2753.64 -1.49456 -5.12346 0
M  V30 29963 O 2753.86 -0.392312 -5.69049 0
M  V30 29964 O 2752.8 -2.32634 -5.55126 0
M  V30 29965 H 2756.62 -2.03169 -2.25735 0
M  V30 29966 H 2754.21 -1.04733 -1.06543 0
M  V30 29967 H 2756.09 -0.512134 -4.18276 0
M  V30 29968 H 2754.76 0.210797 -3.23013 0
M  V30 29969 H 2753.67 -2.10254 -3.09426 0
M  V30 29970 H 2755 -2.74998 -4.08212 0
M  V30 29971 N 2756.66 1.15326 -1.07413 0
M  V30 29972 C 2758.07 1.38115 -0.799783 0
M  V30 29973 C 2758.27 1.92494 0.595687 0
M  V30 29974 O 2757.33 2.13108 1.35429 0
M  V30 29975 C 2758.64 2.35155 -1.87411 0
M  V30 29976 C 2760.19 2.48816 -1.89894 0
M  V30 29977 C 2760.66 3.49148 -2.96412 0
M  V30 29978 N 2762.16 3.56684 -2.95518 0
M  V30 29979 C 2762.89 4.34138 -3.74582 0
M  V30 29980 N 2762.39 5.1492 -4.63497 0
M  V30 29981 N 2764.18 4.29233 -3.62926 0
M  V30 29982 H 2756.33 0.783705 -1.97413 0
M  V30 29983 H 2758.59 0.407139 -0.85612 0
M  V30 29984 H 2758.3 2.02315 -2.87683 0
M  V30 29985 H 2758.17 3.34941 -1.73476 0
M  V30 29986 H 2760.56 2.80953 -0.902726 0
M  V30 29987 H 2760.64 1.49026 -2.07906 0
M  V30 29988 H 2760.29 3.17745 -3.96233 0
M  V30 29989 H 2760.22 4.48695 -2.75646 0
M  V30 29990 H 2762.71 2.99026 -2.31066 0
M  V30 29991 H 2763.02 5.71267 -5.20455 0
M  V30 29992 H 2761.36 5.14224 -4.67546 0
M  V30 29993 H 2764.56 3.65189 -2.92839 0
M  V30 29994 H 2764.73 4.89348 -4.24786 0
M  V30 29995 N 2758.13 0.858334 1.32176 0
M  V30 29996 C 2759.38 0.463518 1.97124 0
M  V30 29997 C 2759.71 -0.981675 1.67909 0
M  V30 29998 O 2758.96 -1.70437 0.961747 0
M  V30 29999 C 2759.26 0.65372 3.51371 0
M  V30 30000 C 2758.93 2.06994 4.0058 0
M  V30 30001 C 2757.59 2.45727 4.13729 0
M  V30 30002 C 2759.94 2.99409 4.26619 0
M  V30 30003 C 2757.27 3.7614 4.50262 0
M  V30 30004 C 2759.62 4.29324 4.64611 0
M  V30 30005 C 2758.29 4.67987 4.75966 0
M  V30 30006 H 2757.56 0.169613 0.721327 0
M  V30 30007 H 2760.2 1.08909 1.57515 0
M  V30 30008 H 2758.51 -0.0550639 3.91761 0
M  V30 30009 H 2760.21 0.328234 3.99654 0
M  V30 30010 H 2756.8 1.75918 3.90833 0
M  V30 30011 H 2760.98 2.70715 4.15965 0
M  V30 30012 H 2756.24 4.05873 4.57249 0
M  V30 30013 H 2760.41 5.00994 4.83713 0
M  V30 30014 H 2758.04 5.69084 5.04031 0
M  V30 30015 N 2759.61 -1.45036 0.616628 0
M  V30 30016 C 2760.55 -2.27733 -0.145944 0
M  V30 30017 C 2761.52 -1.37677 -0.865084 0
M  V30 30018 O 2762.71 -1.67112 -0.872122 0
M  V30 30019 C 2759.83 -3.16267 -1.21214 0
M  V30 30020 C 2758.88 -4.22327 -0.595144 0
M  V30 30021 S 2759.71 -5.32085 0.603837 0
M  V30 30022 C 2760.87 -6.24187 -0.462732 0
M  V30 30023 H 2761.1 -2.92061 0.555643 0
M  V30 30024 H 2758.64 -1.4901 0.404391 0
M  V30 30025 H 2760.59 -3.6783 -1.8224 0
M  V30 30026 H 2759.25 -2.51186 -1.88585 0
M  V30 30027 H 2758.45 -4.84233 -1.39767 0
M  V30 30028 H 2758.05 -3.73952 -0.0598308 0
M  V30 30029 H 2760.34 -6.6413 -1.33933 0
M  V30 30030 H 2761.28 -7.07998 0.120384 0
M  V30 30031 H 2761.69 -5.59056 -0.782121 0
M  V30 30032 N 2761.09 -0.356312 -1.53519 0
M  V30 30033 C 2762.32 0.239925 -2.06008 0
M  V30 30034 C 2762.74 1.4242 -1.22874 0
M  V30 30035 O 2762.1 1.79629 -0.245547 0
M  V30 30036 C 2762.15 0.620524 -3.55221 0
M  V30 30037 O 2761.25 1.71896 -3.74867 0
M  V30 30038 H 2760.59 0.0371261 -0.662961 0
M  V30 30039 H 2763.12 -0.514229 -1.98032 0
M  V30 30040 H 2763.13 0.894127 -3.98082 0
M  V30 30041 H 2761.81 -0.24548 -4.15175 0
M  V30 30042 H 2760.38 1.44163 -3.43906 0
M  V30 30043 N 2762.57 1.57369 -0.0852427 0
M  V30 30044 C 2763.53 2.12346 0.862662 0
M  V30 30045 C 2764.53 1.05048 1.21744 0
M  V30 30046 O 2765.72 1.30978 1.1485 0
M  V30 30047 C 2762.85 2.63592 2.16176 0
M  V30 30048 H 2764.05 2.97413 0.385459 0
M  V30 30049 H 2761.6 1.55441 0.163636 0
M  V30 30050 H 2762.33 1.82018 2.68403 0
M  V30 30051 H 2762.12 3.42033 1.91717 0
M  V30 30052 H 2763.61 3.06154 2.84006 0
M  V30 30053 N 2764.05 -0.188399 1.5647 0
M  V30 30054 C 2764.99 -1.25289 1.95973 0
M  V30 30055 C 2765.99 -1.46758 0.846073 0
M  V30 30056 O 2767.19 -1.4754 1.03111 0
M  V30 30057 H 2763.57 -0.420773 0.623261 0
M  V30 30058 H 2765.54 -0.892742 2.84733 0
M  V30 30059 C 2764.29 -2.58873 2.32121 0
M  V30 30060 H 2763.61 -2.4317 3.17345 0
M  V30 30061 H 2765.05 -3.32086 2.63619 0
M  V30 30062 C 2763.51 -3.16363 1.15828 0
M  V30 30063 O 2764.04 -3.99318 0.436855 0
M  V30 30064 N 2762.25 -2.75204 0.933327 0
M  V30 30065 H 2761.79 -2.07849 1.52173 0
M  V30 30066 H 2761.75 -3.14008 0.157031 0
M  V30 30067 N 2765.53 -1.50848 -0.456355 0
M  V30 30068 C 2766.94 -1.55264 -1.03682 0
M  V30 30069 C 2767.29 -0.364805 -1.92779 0
M  V30 30070 O 2766.41 0.520643 -2.10043 0
M  V30 30071 C 2767.01 -2.81377 -1.88713 0
M  V30 30072 C 2765.57 -2.88426 -2.41842 0
M  V30 30073 C 2764.71 -2.49721 -1.20559 0
M  V30 30074 H 2767.66 -1.569 -0.238371 0
M  V30 30075 H 2767.69 -2.64065 -2.73952 0
M  V30 30076 H 2767.2 -3.67811 -1.2384 0
M  V30 30077 H 2765.3 -2.06378 -3.10224 0
M  V30 30078 H 2765.41 -3.91655 -2.7594 0
M  V30 30079 H 2763.78 -2.02489 -1.545 0
M  V30 30080 H 2764.56 -3.3848 -0.573266 0
M  V30 30081 N 2767 0.710538 -1.40674 0
M  V30 30082 C 2768.23 1.50462 -1.42744 0
M  V30 30083 C 2768.65 1.88076 -0.0302447 0
M  V30 30084 O 2768.01 1.53615 0.962918 0
M  V30 30085 C 2768.06 2.75318 -2.32878 0
M  V30 30086 O 2767.16 3.72222 -1.77551 0
M  V30 30087 H 2766.5 0.453441 -0.485064 0
M  V30 30088 H 2769.03 0.874648 -1.84962 0
M  V30 30089 H 2769.04 3.23792 -2.48239 0
M  V30 30090 H 2767.72 2.47277 -3.34405 0
M  V30 30091 H 2766.3 3.3109 -1.71562 0
M  V30 30092 N 2768.48 1.26254 0.943277 0
M  V30 30093 C 2769.43 1.07629 2.04168 0
M  V30 30094 C 2770.4 -0.0180446 1.6609 0
M  V30 30095 O 2771.58 0.141322 1.90276 0
M  V30 30096 C 2768.72 0.713103 3.37652 0
M  V30 30097 C 2767.84 1.88347 3.88779 0
M  V30 30098 C 2766.97 1.46359 5.10639 0
M  V30 30099 C 2766.01 2.60239 5.54024 0
M  V30 30100 N 2765.15 2.18948 6.67088 0
M  V30 30101 H 2769.99 2.01627 2.19432 0
M  V30 30102 H 2767.52 1.00391 1.07517 0
M  V30 30103 H 2769.48 0.483431 4.1439 0
M  V30 30104 H 2768.11 -0.189903 3.22241 0
M  V30 30105 H 2767.16 2.22613 3.0846 0
M  V30 30106 H 2768.48 2.73828 4.16917 0
M  V30 30107 H 2767.63 1.19424 5.9483 0
M  V30 30108 H 2766.37 0.579653 4.84243 0
M  V30 30109 H 2765.37 2.87906 4.68391 0
M  V30 30110 H 2766.6 3.49229 5.82422 0
M  V30 30111 H 2764.55 1.32985 6.42379 0
M  V30 30112 H 2764.46 2.97973 6.94801 0
M  V30 30113 H 2765.73 1.95219 7.54659 0
M  V30 30114 N 2769.96 -1.14755 1.08024 0
M  V30 30115 C 2771.21 -1.85977 0.808738 0
M  V30 30116 C 2771.54 -1.82505 -0.663732 0
M  V30 30117 O 2770.81 -1.25299 -1.48763 0
M  V30 30118 C 2771.1 -3.34786 1.32629 0
M  V30 30119 C 2770.95 -3.46851 2.86381 0
M  V30 30120 C 2772.27 -4.2976 0.948366 0
M  V30 30121 H 2769.39 -0.675272 0.295256 0
M  V30 30122 H 2772.03 -1.3478 1.33919 0
M  V30 30123 H 2770.18 -3.78517 0.875069 0
M  V30 30124 H 2771.85 -3.11935 3.39844 0
M  V30 30125 H 2770.09 -2.88189 3.24237 0
M  V30 30126 H 2770.77 -4.51434 3.17666 0
M  V30 30127 H 2773.24 -3.94025 1.33729 0
M  V30 30128 H 2772.12 -5.32349 1.33774 0
M  V30 30129 H 2772.38 -4.41862 -0.145016 0
M  V30 30130 N 2771.44 -0.865331 -1.31719 0
M  V30 30131 C 2772.66 -0.487451 -2.0159 0
M  V30 30132 C 2773.09 0.911278 -1.64552 0
M  V30 30133 O 2772.45 1.60048 -0.851717 0
M  V30 30134 C 2772.49 -0.646463 -3.54758 0
M  V30 30135 O 2771.6 0.316212 -4.11186 0
M  V30 30136 H 2770.94 -0.194479 -0.634881 0
M  V30 30137 H 2773.47 -1.16747 -1.68022 0
M  V30 30138 H 2773.48 -0.538003 -4.04437 0
M  V30 30139 H 2772.15 -1.66639 -3.81057 0
M  V30 30140 H 2770.73 0.163097 -3.72543 0
M  V30 30141 N 2772.92 1.44707 -0.624311 0
M  V30 30142 C 2774.15 2.06173 -0.132763 0
M  V30 30143 C 2774.55 1.46676 1.1951 0
M  V30 30144 O 2773.9 0.581522 1.74253 0
M  V30 30145 C 2773.96 3.59444 0.0636101 0
M  V30 30146 C 2773.62 4.41368 -1.18503 0
M  V30 30147 C 2774.62 4.75285 -2.10715 0
M  V30 30148 C 2772.3 4.81853 -1.41854 0
M  V30 30149 C 2774.3 5.48561 -3.24592 0
M  V30 30150 C 2771.99 5.5488 -2.56029 0
M  V30 30151 C 2772.98 5.88153 -3.47225 0
M  V30 30152 O 2772.67 6.59695 -4.59411 0
M  V30 30153 H 2772.4 0.671966 -0.0737432 0
M  V30 30154 H 2774.96 1.86675 -0.856822 0
M  V30 30155 H 2773.19 3.77405 0.842743 0
M  V30 30156 H 2774.88 4.02698 0.508853 0
M  V30 30157 H 2775.64 4.44551 -1.93906 0
M  V30 30158 H 2771.52 4.5538 -0.717636 0
M  V30 30159 H 2775.07 5.74449 -3.95795 0
M  V30 30160 H 2770.96 5.85029 -2.72784 0
M  V30 30161 H 2771.73 6.78158 -4.58305 0
M  V30 30162 N 2774.39 0.364449 1.53328 0
M  V30 30163 C 2775.3 -0.490512 2.29415 0
M  V30 30164 C 2776.32 -1.09361 1.35337 0
M  V30 30165 O 2777.5 -1.1048 1.68393 0
M  V30 30166 C 2774.56 -1.61524 3.06775 0
M  V30 30167 C 2773.62 -1.03979 4.16518 0
M  V30 30168 C 2772.85 -2.11091 4.9018 0
M  V30 30169 O 2773.08 -3.32183 4.63693 0
M  V30 30170 O 2772.01 -1.74212 5.76137 0
M  V30 30171 H 2775.84 0.128613 3.03428 0
M  V30 30172 H 2773.42 0.128864 1.48843 0
M  V30 30173 H 2775.3 -2.26918 3.55086 0
M  V30 30174 H 2773.98 -2.21978 2.356 0
M  V30 30175 H 2772.89 -0.34979 3.72461 0
M  V30 30176 H 2774.22 -0.479814 4.89856 0
M  V30 30177 N 2775.87 -1.57322 0.0935872 0
M  V30 30178 C 2777.28 -1.81543 -0.435775 0
M  V30 30179 C 2777.63 -1.00909 -1.68261 0
M  V30 30180 O 2776.76 -0.238021 -2.15087 0
M  V30 30181 C 2777.35 -3.29283 -0.797378 0
M  V30 30182 C 2775.91 -3.54274 -1.27149 0
M  V30 30183 C 2775.06 -2.76008 -0.267407 0
M  V30 30184 H 2778.01 -1.5546 0.319048 0
M  V30 30185 H 2778.03 -3.42524 -1.65704 0
M  V30 30186 H 2777.54 -3.87943 0.110274 0
M  V30 30187 H 2775.64 -3.00943 -2.19691 0
M  V30 30188 H 2775.76 -4.62926 -1.23437 0
M  V30 30189 H 2774.12 -2.43431 -0.74924 0
M  V30 30190 H 2774.9 -3.37416 0.632898 0
M  V30 30191 N 2777.35 0.180099 -1.56568 0
M  V30 30192 C 2778.6 0.896394 -1.80687 0
M  V30 30193 C 2778.91 1.8379 -0.669367 0
M  V30 30194 O 2780.12 2.59592 -0.795254 0
M  V30 30195 C 2778.57 1.64444 -3.20134 0
M  V30 30196 C 2778.18 0.747011 -4.41728 0
M  V30 30197 C 2779.93 2.34948 -3.53553 0
M  V30 30198 C 2777.83 1.49479 -5.72198 0
M  V30 30199 H 2776.76 0.338465 -0.673764 0
M  V30 30200 H 2779.41 0.149435 -1.82891 0
M  V30 30201 H 2777.8 2.43584 -3.12223 0
M  V30 30202 H 2778.97 -0.00679229 -4.60799 0
M  V30 30203 H 2777.28 0.15206 -4.16122 0
M  V30 30204 H 2779.88 2.91473 -4.48272 0
M  V30 30205 H 2780.22 3.09863 -2.78012 0
M  V30 30206 H 2780.76 1.62761 -3.62979 0
M  V30 30207 H 2777.5 0.788136 -6.50745 0
M  V30 30208 H 2777.02 2.22214 -5.57118 0
M  V30 30209 H 2778.7 2.04462 -6.13844 0
M  V30 30210 N 2778.83 1.51088 0.448349 0
M  V30 30211 C 2780.06 1.67002 1.2214 0
M  V30 30212 C 2780.47 0.362731 1.85283 0
M  V30 30213 O 2779.83 -0.65769 1.70237 0
M  V30 30214 C 2779.88 2.77774 2.31352 0
M  V30 30215 O 2779.6 4.03437 1.70794 0
M  V30 30216 C 2781.1 3.04861 3.2183 0
M  V30 30217 H 2778.32 0.560725 0.368549 0
M  V30 30218 H 2780.86 1.97443 0.532584 0
M  V30 30219 H 2779.02 2.49963 2.95969 0
M  V30 30220 H 2779.43 4.64872 2.42887 0
M  V30 30221 H 2780.91 3.85978 3.9462 0
M  V30 30222 H 2781.38 2.16828 3.81945 0
M  V30 30223 H 2781.99 3.3429 2.62927 0
M  V30 30224 N 2780.31 -0.703068 1.41049 0
M  V30 30225 C 2781.53 -1.49199 1.43343 0
M  V30 30226 C 2781.95 -1.88765 0.0365928 0
M  V30 30227 O 2781.31 -1.56286 -0.942391 0
M  V30 30228 C 2781.36 -2.75935 2.33543 0
M  V30 30229 O 2781.08 -2.38038 3.6779 0
M  V30 30230 C 2782.58 -3.69736 2.44562 0
M  V30 30231 H 2779.8 -0.460031 0.48848 0
M  V30 30232 H 2782.34 -0.866257 1.85246 0
M  V30 30233 H 2780.5 -3.34763 1.94968 0
M  V30 30234 H 2780.91 -3.19676 4.15822 0
M  V30 30235 H 2782.39 -4.55466 3.11857 0
M  V30 30236 H 2782.86 -4.13708 1.47454 0
M  V30 30237 H 2783.47 -3.16814 2.83741 0
M  V30 30238 N 2781.78 -1.26752 -0.936569 0
M  V30 30239 C 2783.01 -1.15358 -1.71756 0
M  V30 30240 C 2783.43 0.29065 -1.86549 0
M  V30 30241 O 2782.78 1.19865 -1.37618 0
M  V30 30242 C 2782.84 -1.82263 -3.1219 0
M  V30 30243 O 2782.56 -3.21043 -2.98099 0
M  V30 30244 C 2784.06 -1.76882 -4.06482 0
M  V30 30245 H 2781.28 -0.401492 -0.537629 0
M  V30 30246 H 2783.82 -1.67459 -1.17379 0
M  V30 30247 H 2781.98 -1.34089 -3.63454 0
M  V30 30248 H 2782.39 -3.54221 -3.86817 0
M  V30 30249 H 2783.86 -2.28325 -5.02565 0
M  V30 30250 H 2784.34 -0.736292 -4.32984 0
M  V30 30251 H 2784.95 -2.24629 -3.6114 0
M  V30 30252 N 2783.26 1.1418 -1.08631 0
M  V30 30253 C 2784.19 2.21462 -0.740042 0
M  V30 30254 C 2785.17 1.67804 0.278562 0
M  V30 30255 O 2786.36 1.93632 0.148427 0
M  V30 30256 C 2783.49 3.46972 -0.151013 0
M  V30 30257 C 2782.44 4.1367 -1.09822 0
M  V30 30258 C 2781.77 5.33409 -0.371294 0
M  V30 30259 C 2783.07 4.61945 -2.4373 0
M  V30 30260 H 2784.76 2.50683 -1.63701 0
M  V30 30261 H 2782.31 1.2049 -0.788547 0
M  V30 30262 H 2784.26 4.21273 0.103251 0
M  V30 30263 H 2782.99 3.17122 0.781108 0
M  V30 30264 H 2781.64 3.41326 -1.33762 0
M  V30 30265 H 2781.29 4.9982 0.564704 0
M  V30 30266 H 2780.99 5.7898 -1.00278 0
M  V30 30267 H 2782.52 6.10472 -0.125138 0
M  V30 30268 H 2783.93 5.2771 -2.24043 0
M  V30 30269 H 2782.33 5.18226 -3.02591 0
M  V30 30270 H 2783.4 3.76894 -3.05089 0
M  V30 30271 N 2784.74 0.872304 1.31258 0
M  V30 30272 C 2785.69 0.327897 2.28459 0
M  V30 30273 C 2786.66 -0.57493 1.55832 0
M  V30 30274 O 2787.84 -0.506069 1.83966 0
M  V30 30275 C 2784.98 -0.462584 3.41986 0
M  V30 30276 C 2784.1 0.468024 4.29457 0
M  V30 30277 C 2783.23 -0.33681 5.30131 0
M  V30 30278 C 2782.27 0.590077 6.09249 0
M  V30 30279 N 2781.41 -0.178651 7.01873 0
M  V30 30280 H 2786.25 1.16198 2.74412 0
M  V30 30281 H 2783.78 0.5844 1.34993 0
M  V30 30282 H 2785.74 -0.936688 4.06549 0
M  V30 30283 H 2784.37 -1.26135 2.97136 0
M  V30 30284 H 2783.42 1.06058 3.65316 0
M  V30 30285 H 2784.74 1.17864 4.84675 0
M  V30 30286 H 2783.89 -0.873322 6.00382 0
M  V30 30287 H 2782.63 -1.08071 4.75575 0
M  V30 30288 H 2781.63 1.13833 5.37887 0
M  V30 30289 H 2782.86 1.33287 6.65891 0
M  V30 30290 H 2780.8 -0.90532 6.49723 0
M  V30 30291 H 2780.72 0.472585 7.54521 0
M  V30 30292 H 2781.99 -0.696318 7.76384 0
M  V30 30293 N 2786.22 -1.44374 0.631976 0
M  V30 30294 C 2787.63 -1.568 0.297669 0
M  V30 30295 C 2787.83 -1.61936 -1.19913 0
M  V30 30296 O 2786.89 -1.56285 -1.98321 0
M  V30 30297 C 2788.2 -2.83924 0.990336 0
M  V30 30298 C 2789.75 -2.97637 0.96856 0
M  V30 30299 C 2790.23 -4.27565 1.64171 0
M  V30 30300 N 2791.72 -4.34381 1.60834 0
M  V30 30301 C 2792.45 -5.33635 2.09812 0
M  V30 30302 N 2791.95 -6.3929 2.66984 0
M  V30 30303 N 2793.74 -5.2515 2.00436 0
M  V30 30304 H 2785.89 -1.39283 1.60356 0
M  V30 30305 H 2788.16 -0.667509 0.673153 0
M  V30 30306 H 2787.86 -2.86117 2.04524 0
M  V30 30307 H 2787.74 -3.73477 0.528629 0
M  V30 30308 H 2790.12 -2.94997 -0.0778728 0
M  V30 30309 H 2790.2 -2.0943 1.46877 0
M  V30 30310 H 2789.85 -4.30965 2.6876 0
M  V30 30311 H 2789.78 -5.14632 1.11633 0
M  V30 30312 H 2792.27 -3.58644 1.19093 0
M  V30 30313 H 2792.58 -7.11311 3.02087 0
M  V30 30314 H 2790.93 -6.39973 2.71035 0
M  V30 30315 H 2794.12 -4.4152 1.55491 0
M  V30 30316 H 2794.29 -6.02348 2.38917 0
M  V30 30317 N 2787.7 -0.372575 -1.53133 0
M  V30 30318 C 2788.64 0.470591 -2.25952 0
M  V30 30319 C 2789.61 1.07174 -1.26897 0
M  V30 30320 O 2790.8 1.10292 -1.55693 0
M  V30 30321 C 2787.94 1.60074 -3.05729 0
M  V30 30322 C 2787.05 1.02409 -4.19686 0
M  V30 30323 C 2786.19 2.12392 -4.86891 0
M  V30 30324 C 2785.23 1.52228 -5.92869 0
M  V30 30325 N 2784.36 2.56072 -6.53737 0
M  V30 30326 H 2789.2 -0.156868 -2.97587 0
M  V30 30327 H 2786.74 -0.089183 -1.46829 0
M  V30 30328 H 2788.7 2.26655 -3.50262 0
M  V30 30329 H 2787.33 2.19876 -2.36335 0
M  V30 30330 H 2786.38 0.248359 -3.79588 0
M  V30 30331 H 2787.69 0.544279 -4.95822 0
M  V30 30332 H 2786.85 2.86778 -5.34643 0
M  V30 30333 H 2785.58 2.63727 -4.10243 0
M  V30 30334 H 2784.59 0.763589 -5.44472 0
M  V30 30335 H 2785.81 1.01709 -6.7144 0
M  V30 30336 H 2783.76 3.06607 -5.79938 0
M  V30 30337 H 2783.68 2.12798 -7.25433 0
M  V30 30338 H 2784.95 3.30139 -7.06136 0
M  V30 30339 N 2789.17 1.5727 -0.101929 0
M  V30 30340 C 2790.11 2.11438 0.884685 0
M  V30 30341 C 2791.12 1.05316 1.24147 0
M  V30 30342 O 2792.31 1.32742 1.19339 0
M  V30 30343 C 2789.41 2.58488 2.19174 0
M  V30 30344 C 2788.58 3.8852 2.00926 0
M  V30 30345 C 2787.64 4.21346 3.15205 0
M  V30 30346 O 2786.67 4.90453 2.88868 0
M  V30 30347 N 2787.87 3.77295 4.41167 0
M  V30 30348 H 2790.63 2.96714 0.422006 0
M  V30 30349 H 2788.19 1.61687 0.0829844 0
M  V30 30350 H 2790.19 2.77489 2.94588 0
M  V30 30351 H 2788.76 1.78185 2.56844 0
M  V30 30352 H 2787.98 3.78599 1.09803 0
M  V30 30353 H 2789.26 4.73577 1.86018 0
M  V30 30354 H 2788.66 3.21524 4.65445 0
M  V30 30355 H 2787.22 4.01438 5.13508 0
M  V30 30356 N 2790.65 -0.171793 1.56661 0
M  V30 30357 C 2791.56 -1.23266 1.99606 0
M  V30 30358 C 2792.58 -1.48469 0.907359 0
M  V30 30359 O 2793.75 -1.60627 1.21495 0
M  V30 30360 C 2790.82 -2.5519 2.34689 0
M  V30 30361 C 2789.88 -2.37854 3.57385 0
M  V30 30362 C 2789.11 -3.63487 3.90785 0
M  V30 30363 O 2789.34 -4.68644 3.2516 0
M  V30 30364 O 2788.27 -3.57626 4.84136 0
M  V30 30365 H 2792.1 -0.898141 2.90116 0
M  V30 30366 H 2789.68 -0.378622 1.44523 0
M  V30 30367 H 2791.56 -3.33013 2.58225 0
M  V30 30368 H 2790.24 -2.88222 1.47342 0
M  V30 30369 H 2789.15 -1.58064 3.39067 0
M  V30 30370 H 2790.48 -2.09747 4.45272 0
M  V30 30371 N 2792.13 -1.51324 -0.44033 0
M  V30 30372 C 2793.41 -1.54382 -1.20106 0
M  V30 30373 C 2793.79 -0.306339 -2.08865 0
M  V30 30374 O 2793.14 0.708735 -2.17231 0
M  V30 30375 C 2793.35 -2.85623 -2.0055 0
M  V30 30376 C 2794.69 -3.3746 -2.57694 0
M  V30 30377 O 2795.72 -2.87153 -2.10764 0
M  V30 30378 O 2794.58 -4.2523 -3.43281 0
M  V30 30379 H 2791.67 -0.620561 -0.546657 0
M  V30 30380 H 2794.22 -1.63635 -0.449644 0
M  V30 30381 H 2792.99 -3.6715 -1.35339 0
M  V30 30382 H 2792.61 -2.79519 -2.82763 0
M  V30 30383 N 2793.61 0.695578 -1.41419 0
M  V30 30384 C 2794.85 1.45778 -1.40985 0
M  V30 30385 C 2795.19 1.94191 -0.0188104 0
M  V30 30386 O 2794.46 1.69529 0.95343 0
M  V30 30387 C 2794.75 2.66967 -2.41662 0
M  V30 30388 C 2794.6 2.2432 -3.89873 0
M  V30 30389 C 2795.92 3.69164 -2.39595 0
M  V30 30390 H 2793.04 0.528748 -0.513415 0
M  V30 30391 H 2795.68 0.792245 -1.72695 0
M  V30 30392 H 2793.83 3.2375 -2.14752 0
M  V30 30393 H 2795.5 1.72865 -4.27686 0
M  V30 30394 H 2793.74 1.56104 -4.04739 0
M  V30 30395 H 2794.41 3.11277 -4.55862 0
M  V30 30396 H 2796.89 3.22055 -2.63476 0
M  V30 30397 H 2795.77 4.51569 -3.12052 0
M  V30 30398 H 2796.03 4.18859 -1.41454 0
M  V30 30399 N 2795.09 1.27247 0.929833 0
M  V30 30400 C 2796.31 1.16377 1.71672 0
M  V30 30401 C 2796.74 -0.275991 1.86064 0
M  V30 30402 O 2796.1 -1.1999 1.35912 0
M  V30 30403 C 2796.14 1.85008 3.09523 0
M  V30 30404 O 2795.25 1.1466 3.9614 0
M  V30 30405 H 2794.59 0.404873 0.526283 0
M  V30 30406 H 2797.12 1.68278 1.16378 0
M  V30 30407 H 2797.13 1.92283 3.59849 0
M  V30 30408 H 2795.8 2.89744 2.98364 0
M  V30 30409 H 2794.38 1.15439 3.54582 0
M  V30 30410 N 2796.57 -1.13603 1.09235 0
M  V30 30411 C 2797.53 -2.17143 0.733591 0
M  V30 30412 C 2798.53 -1.59061 -0.235845 0
M  V30 30413 O 2799.72 -1.74194 -0.0142861 0
M  V30 30414 C 2796.85 -3.40795 0.0845309 0
M  V30 30415 H 2798.04 -2.50394 1.65054 0
M  V30 30416 H 2795.6 -1.28397 0.891286 0
M  V30 30417 H 2796.33 -3.13132 -0.84374 0
M  V30 30418 H 2796.12 -3.84222 0.782052 0
M  V30 30419 H 2797.61 -4.17326 -0.151143 0
M  V30 30420 N 2798.04 -0.879253 -1.30793 0
M  V30 30421 C 2799.27 -0.509584 -2.00526 0
M  V30 30422 C 2799.69 0.900421 -1.65945 0
M  V30 30423 O 2799.04 1.59129 -0.893553 0
M  V30 30424 C 2799.09 -0.668005 -3.55274 0
M  V30 30425 O 2798.82 -2.02249 -3.88622 0
M  V30 30426 C 2800.32 -0.300572 -4.4228 0
M  V30 30427 H 2797.54 -0.19756 -0.641257 0
M  V30 30428 H 2800.08 -1.18298 -1.66811 0
M  V30 30429 H 2798.24 -0.0420524 -3.87377 0
M  V30 30430 H 2798.65 -2.03697 -4.8333 0
M  V30 30431 H 2800.12 -0.462339 -5.5006 0
M  V30 30432 H 2800.6 0.760984 -4.32557 0
M  V30 30433 H 2801.21 -0.902609 -4.15612 0
M  V30 30434 N 2799.52 1.44037 -0.639624 0
M  V30 30435 C 2800.77 2.02261 -0.147734 0
M  V30 30436 C 2801.1 1.50258 1.23029 0
M  V30 30437 O 2800.38 0.6901 1.81846 0
M  V30 30438 C 2800.66 3.59813 -0.143683 0
M  V30 30439 C 2800.51 4.22079 -1.55465 0
M  V30 30440 C 2801.83 4.3693 0.52724 0
M  V30 30441 H 2798.95 0.734933 -0.0551582 0
M  V30 30442 H 2801.59 1.71503 -0.817718 0
M  V30 30443 H 2799.74 3.86148 0.42683 0
M  V30 30444 H 2801.41 4.06822 -2.17471 0
M  V30 30445 H 2799.66 3.79249 -2.10601 0
M  V30 30446 H 2800.33 5.31122 -1.50378 0
M  V30 30447 H 2802.8 4.16079 0.0419772 0
M  V30 30448 H 2801.68 5.46624 0.499293 0
M  V30 30449 H 2801.94 4.12168 1.59907 0
M  V30 30450 N 2801 0.380691 1.52933 0
M  V30 30451 C 2802.25 -0.205442 2.00651 0
M  V30 30452 C 2802.56 -1.4862 1.27167 0
M  V30 30453 O 2803.77 -2.15186 1.65551 0
M  V30 30454 C 2802.22 -0.416663 3.5748 0
M  V30 30455 C 2801.83 0.850346 4.39856 0
M  V30 30456 C 2803.58 -0.959629 4.13511 0
M  V30 30457 C 2801.48 0.607877 5.88268 0
M  V30 30458 H 2800.41 -0.0805482 0.749685 0
M  V30 30459 H 2803.06 0.501763 1.76507 0
M  V30 30460 H 2801.45 -1.1855 3.77838 0
M  V30 30461 H 2802.62 1.62314 4.31266 0
M  V30 30462 H 2800.93 1.31763 3.95003 0
M  V30 30463 H 2803.53 -1.1566 5.22041 0
M  V30 30464 H 2803.87 -1.9262 3.69057 0
M  V30 30465 H 2804.41 -0.250576 3.9701 0
M  V30 30466 H 2801.15 1.5452 6.37027 0
M  V30 30467 H 2800.67 -0.126141 5.99667 0
M  V30 30468 H 2802.35 0.239128 6.46558 0
M  V30 30469 N 2802.48 -1.57214 0.110268 0
M  V30 30470 C 2803.41 -2.11904 -0.87346 0
M  V30 30471 C 2804.42 -1.05973 -1.23586 0
M  V30 30472 O 2805.61 -1.33373 -1.18633 0
M  V30 30473 C 2802.71 -2.59646 -2.178 0
M  V30 30474 C 2801.88 -3.8958 -1.98863 0
M  V30 30475 C 2800.94 -4.23011 -3.12966 0
M  V30 30476 O 2799.97 -4.91978 -2.86263 0
M  V30 30477 N 2801.17 -3.7963 -4.3916 0
M  V30 30478 H 2803.94 -2.96934 -0.406265 0
M  V30 30479 H 2801.5 -1.61729 -0.0744086 0
M  V30 30480 H 2803.49 -2.79047 -2.93112 0
M  V30 30481 H 2802.06 -1.79545 -2.55896 0
M  V30 30482 H 2801.28 -3.79176 -1.07793 0
M  V30 30483 H 2802.57 -4.74556 -1.83504 0
M  V30 30484 H 2801.97 -3.23988 -4.63733 0
M  V30 30485 H 2800.52 -4.04156 -5.11372 0
M  V30 30486 N 2803.96 0.163482 -1.5675 0
M  V30 30487 C 2805.37 0.515541 -1.51044 0
M  V30 30488 C 2805.57 1.84243 -0.815887 0
M  V30 30489 O 2804.63 2.49632 -0.37952 0
M  V30 30490 C 2805.94 0.541062 -2.95792 0
M  V30 30491 C 2807.49 0.627722 -3.06641 0
M  V30 30492 C 2807.96 0.684062 -4.52863 0
M  V30 30493 N 2809.45 0.746738 -4.57141 0
M  V30 30494 C 2810.19 0.811037 -5.67635 0
M  V30 30495 N 2809.69 0.83569 -6.87741 0
M  V30 30496 N 2811.48 0.850658 -5.55626 0
M  V30 30497 H 2803.63 -0.706485 -2.00306 0
M  V30 30498 H 2805.89 -0.255675 -0.912872 0
M  V30 30499 H 2805.6 -0.365391 -3.49797 0
M  V30 30500 H 2805.47 1.38481 -3.5086 0
M  V30 30501 H 2807.86 1.5246 -2.52666 0
M  V30 30502 H 2807.94 -0.24285 -2.54645 0
M  V30 30503 H 2807.58 -0.208589 -5.07471 0
M  V30 30504 H 2807.51 1.57089 -5.02624 0
M  V30 30505 H 2810.01 0.735652 -3.7067 0
M  V30 30506 H 2810.32 0.886144 -7.67703 0
M  V30 30507 H 2808.66 0.803837 -6.90336 0
M  V30 30508 H 2811.85 0.828454 -4.60711 0
M  V30 30509 H 2812.03 0.897305 -6.41757 0
M  V30 30510 N 2805.43 1.51555 0.432299 0
M  V30 30511 C 2806.4 1.72636 1.50762 0
M  V30 30512 C 2807.4 0.59634 1.49333 0
M  V30 30513 O 2808.59 0.863952 1.51266 0
M  V30 30514 C 2805.72 1.78746 2.90281 0
M  V30 30515 H 2806.91 2.68611 1.33372 0
M  V30 30516 H 2804.46 1.41621 0.661304 0
M  V30 30517 H 2805.2 0.846032 3.1307 0
M  V30 30518 H 2804.98 2.60875 2.92723 0
M  V30 30519 H 2806.47 1.96877 3.68279 0
M  V30 30520 N 2806.91 -0.688069 1.41786 0
M  V30 30521 C 2808.14 -1.47456 1.44707 0
M  V30 30522 C 2808.55 -1.89126 0.0529493 0
M  V30 30523 O 2807.89 -1.57843 -0.939753 0
M  V30 30524 C 2807.95 -2.76348 2.29939 0
M  V30 30525 C 2807.62 -2.56836 3.78 0
M  V30 30526 C 2808.62 -2.22295 4.6998 0
M  V30 30527 C 2806.3 -2.72243 4.22124 0
M  V30 30528 C 2808.29 -2.03411 6.04072 0
M  V30 30529 C 2805.98 -2.52975 5.5628 0
M  V30 30530 C 2806.98 -2.1861 6.47069 0
M  V30 30531 O 2806.67 -1.99516 7.78748 0
M  V30 30532 H 2806.4 -0.460692 0.494711 0
M  V30 30533 H 2808.95 -0.854024 1.86804 0
M  V30 30534 H 2807.18 -3.40835 1.82669 0
M  V30 30535 H 2808.87 -3.38182 2.24472 0
M  V30 30536 H 2809.64 -2.1 4.37178 0
M  V30 30537 H 2805.52 -2.97973 3.51757 0
M  V30 30538 H 2809.06 -1.76511 6.749 0
M  V30 30539 H 2804.96 -2.64863 5.88658 0
M  V30 30540 H 2805.73 -2.1422 7.8997 0
M  V30 30541 N 2808.39 -1.27739 -0.923072 0
M  V30 30542 C 2809.81 -1.05243 -1.19983 0
M  V30 30543 C 2810.01 0.211095 -2.00391 0
M  V30 30544 O 2809.06 0.915325 -2.35325 0
M  V30 30545 C 2810.37 -2.29454 -1.94348 0
M  V30 30546 C 2811.92 -2.34539 -2.07268 0
M  V30 30547 C 2812.4 -3.58492 -2.8504 0
M  V30 30548 N 2813.89 -3.59077 -2.92606 0
M  V30 30549 C 2814.62 -4.5166 -3.53258 0
M  V30 30550 N 2814.12 -5.54552 -4.15264 0
M  V30 30551 N 2815.91 -4.39274 -3.50706 0
M  V30 30552 H 2808.06 -2.08863 -0.386005 0
M  V30 30553 H 2810.33 -0.918821 -0.233391 0
M  V30 30554 H 2810.03 -3.21455 -1.42687 0
M  V30 30555 H 2809.91 -2.35135 -2.94943 0
M  V30 30556 H 2812.29 -1.43042 -2.58115 0
M  V30 30557 H 2812.37 -2.32859 -1.05879 0
M  V30 30558 H 2812.02 -4.50329 -2.34876 0
M  V30 30559 H 2811.95 -3.57425 -3.86724 0
M  V30 30560 H 2814.44 -2.84667 -2.48542 0
M  V30 30561 H 2814.75 -6.21356 -4.59496 0
M  V30 30562 H 2813.1 -5.58389 -4.13796 0
M  V30 30563 H 2816.29 -3.58098 -3.01469 0
M  V30 30564 H 2816.46 -5.11617 -3.97684 0
M  V30 30565 N 2809.87 1.13022 -1.09836 0
M  V30 30566 C 2811.28 1.36387 -0.828899 0
M  V30 30567 C 2811.48 1.93714 0.554722 0
M  V30 30568 O 2810.54 2.15933 1.30879 0
M  V30 30569 C 2811.85 2.31127 -1.92356 0
M  V30 30570 C 2813.4 2.44732 -1.95129 0
M  V30 30571 C 2813.88 3.42782 -3.03751 0
M  V30 30572 N 2815.37 3.50335 -3.03018 0
M  V30 30573 C 2816.1 4.26095 -3.83707 0
M  V30 30574 N 2815.6 5.04973 -4.74315 0
M  V30 30575 N 2817.39 4.21438 -3.71949 0
M  V30 30576 H 2809.54 0.741655 -1.99031 0
M  V30 30577 H 2811.81 0.388888 -0.864564 0
M  V30 30578 H 2811.51 1.96167 -2.9191 0
M  V30 30579 H 2811.39 3.31186 -1.80542 0
M  V30 30580 H 2813.77 2.78975 -0.962118 0
M  V30 30581 H 2813.85 1.44582 -2.11021 0
M  V30 30582 H 2813.5 3.09269 -4.02884 0
M  V30 30583 H 2813.43 4.42747 -2.85102 0
M  V30 30584 H 2815.92 2.94058 -2.37357 0
M  V30 30585 H 2816.23 5.60099 -5.32456 0
M  V30 30586 H 2814.58 5.04191 -4.78348 0
M  V30 30587 H 2817.77 3.58895 -3.0052 0
M  V30 30588 H 2817.94 4.80227 -4.3507 0
M  V30 30589 N 2811.35 0.886177 1.30325 0
M  V30 30590 C 2812.58 0.519457 1.99963 0
M  V30 30591 C 2812.98 -0.89683 1.66594 0
M  V30 30592 O 2812.33 -1.60148 0.899914 0
M  V30 30593 C 2812.39 0.615857 3.54186 0
M  V30 30594 C 2812.05 1.99667 4.11074 0
M  V30 30595 C 2813.05 2.96622 4.2698 0
M  V30 30596 C 2810.74 2.30238 4.46425 0
M  V30 30597 C 2812.73 4.22281 4.77449 0
M  V30 30598 C 2810.42 3.56143 4.96594 0
M  V30 30599 C 2811.41 4.51979 5.12058 0
M  V30 30600 O 2811.1 5.7565 5.61144 0
M  V30 30601 H 2810.83 0.199228 0.645975 0
M  V30 30602 H 2813.39 1.19371 1.67152 0
M  V30 30603 H 2811.62 -0.11538 3.86528 0
M  V30 30604 H 2813.31 0.260241 4.05065 0
M  V30 30605 H 2814.07 2.74315 3.9997 0
M  V30 30606 H 2809.95 1.56411 4.33655 0
M  V30 30607 H 2813.5 4.97091 4.89435 0
M  V30 30608 H 2809.39 3.78286 5.23039 0
M  V30 30609 H 2810.16 5.78049 5.79484 0
M  V30 30610 N 2812.82 -1.43695 0.647253 0
M  V30 30611 C 2814.24 -1.56475 0.314283 0
M  V30 30612 C 2814.44 -1.63198 -1.18189 0
M  V30 30613 O 2813.5 -1.58379 -1.96652 0
M  V30 30614 C 2814.81 -2.82858 1.02039 0
M  V30 30615 C 2816.36 -2.96593 1.00007 0
M  V30 30616 C 2816.83 -4.258 1.68696 0
M  V30 30617 N 2818.32 -4.32651 1.65432 0
M  V30 30618 C 2819.06 -5.3138 2.1546 0
M  V30 30619 N 2818.55 -6.36422 2.7375 0
M  V30 30620 N 2820.35 -5.22994 2.05994 0
M  V30 30621 H 2812.5 -1.37575 1.61824 0
M  V30 30622 H 2814.76 -0.660332 0.680195 0
M  V30 30623 H 2814.47 -2.83931 2.07547 0
M  V30 30624 H 2814.34 -3.72896 0.568211 0
M  V30 30625 H 2816.73 -2.95063 -0.0465801 0
M  V30 30626 H 2816.81 -2.0786 1.4909 0
M  V30 30627 H 2816.45 -4.2809 2.73315 0
M  V30 30628 H 2816.38 -5.13419 1.17085 0
M  V30 30629 H 2818.87 -3.5736 1.2289 0
M  V30 30630 H 2819.19 -7.08067 3.09614 0
M  V30 30631 H 2817.53 -6.37062 2.77808 0
M  V30 30632 H 2820.72 -4.39846 1.60165 0
M  V30 30633 H 2820.9 -5.9978 2.45292 0
M  V30 30634 N 2814.3 -0.388796 -1.52729 0
M  V30 30635 C 2815.23 0.43807 -2.29354 0
M  V30 30636 C 2816.21 1.06392 -1.32721 0
M  V30 30637 O 2817.4 1.07679 -1.61614 0
M  V30 30638 C 2814.53 1.56584 -3.09998 0
M  V30 30639 C 2813.48 1.06606 -4.14511 0
M  V30 30640 C 2812.81 2.28586 -4.83376 0
M  V30 30641 C 2814.11 0.134367 -5.22127 0
M  V30 30642 H 2815.8 -0.201258 -2.98723 0
M  V30 30643 H 2813.35 -0.0982341 -1.43665 0
M  V30 30644 H 2815.3 2.15111 -3.62361 0
M  V30 30645 H 2814.03 2.23274 -2.38361 0
M  V30 30646 H 2812.68 0.503319 -3.63128 0
M  V30 30647 H 2812.33 2.93785 -4.08288 0
M  V30 30648 H 2812.03 1.95807 -5.54016 0
M  V30 30649 H 2813.56 2.87757 -5.38543 0
M  V30 30650 H 2814.97 0.627814 -5.69852 0
M  V30 30651 H 2813.37 -0.103639 -6.0001 0
M  V30 30652 H 2814.44 -0.816882 -4.7797 0
M  V30 30653 N 2815.78 1.57153 -0.118604 0
M  V30 30654 C 2817.2 1.57816 0.237986 0
M  V30 30655 C 2817.4 1.1313 1.66745 0
M  V30 30656 O 2816.45 0.818504 2.38866 0
M  V30 30657 C 2817.77 3.007 0.00502921 0
M  V30 30658 C 2819.31 3.1292 0.0709589 0
M  V30 30659 C 2819.79 4.57803 -0.134301 0
M  V30 30660 N 2821.28 4.6313 -0.080257 0
M  V30 30661 C 2822.01 5.73001 -0.213986 0
M  V30 30662 N 2821.51 6.91622 -0.403864 0
M  V30 30663 N 2823.3 5.6189 -0.153589 0
M  V30 30664 H 2815.45 1.84501 -1.05229 0
M  V30 30665 H 2817.72 0.852662 -0.414333 0
M  V30 30666 H 2817.42 3.37678 -0.983184 0
M  V30 30667 H 2817.3 3.69928 0.737075 0
M  V30 30668 H 2819.68 2.758 1.0497 0
M  V30 30669 H 2819.77 2.46235 -0.692961 0
M  V30 30670 H 2819.41 4.95622 -1.11001 0
M  V30 30671 H 2819.34 5.22578 0.649601 0
M  V30 30672 H 2821.83 3.77847 0.0630025 0
M  V30 30673 H 2822.14 7.71202 -0.49678 0
M  V30 30674 H 2820.49 6.93607 -0.439832 0
M  V30 30675 H 2823.68 4.681 -0.00621402 0
M  V30 30676 H 2823.85 6.47473 -0.261251 0
M  V30 30677 N 2817.26 -0.155167 1.56834 0
M  V30 30678 C 2818.19 -1.21673 1.94238 0
M  V30 30679 C 2819.2 -1.3962 0.837265 0
M  V30 30680 O 2820.39 -1.39336 1.11569 0
M  V30 30681 C 2817.49 -2.5829 2.19407 0
M  V30 30682 C 2816.67 -2.61429 3.50676 0
M  V30 30683 C 2815.72 -3.79526 3.64481 0
M  V30 30684 O 2814.75 -3.64777 4.36951 0
M  V30 30685 N 2815.95 -4.96648 3.00535 0
M  V30 30686 H 2818.72 -0.898881 2.85902 0
M  V30 30687 H 2816.28 -0.344802 1.58186 0
M  V30 30688 H 2818.27 -3.3579 2.25892 0
M  V30 30689 H 2816.84 -2.82401 1.34047 0
M  V30 30690 H 2816.06 -1.69906 3.55705 0
M  V30 30691 H 2817.35 -2.60551 4.37025 0
M  V30 30692 H 2816.75 -5.11533 2.41558 0
M  V30 30693 H 2815.3 -5.71952 3.12593 0
M  V30 30694 N 2818.74 -1.51782 -0.424256 0
M  V30 30695 C 2819.68 -1.74631 -1.53645 0
M  V30 30696 C 2820.68 -0.61295 -1.57922 0
M  V30 30697 O 2821.88 -0.794646 -1.6151 0
M  V30 30698 H 2818.26 -0.55199 -0.510696 0
M  V30 30699 H 2820.23 -2.67836 -1.31553 0
M  V30 30700 C 2818.98 -1.90035 -2.91174 0
M  V30 30701 H 2818.3 -2.76656 -2.8862 0
M  V30 30702 H 2819.74 -2.10028 -3.68326 0
M  V30 30703 C 2818.2 -0.663493 -3.30302 0
M  V30 30704 O 2818.73 0.175742 -4.01315 0
M  V30 30705 N 2816.94 -0.503773 -2.862 0
M  V30 30706 H 2816.48 -1.1878 -2.28581 0
M  V30 30707 H 2816.44 0.32252 -3.12741 0
M  V30 30708 N 2820.21 0.68054 -1.42149 0
M  V30 30709 C 2821.46 1.44274 -1.42523 0
M  V30 30710 C 2821.79 1.9416 -0.0394059 0
M  V30 30711 O 2821.07 1.7053 0.935395 0
M  V30 30712 C 2821.35 2.64389 -2.4448 0
M  V30 30713 C 2821.2 2.20172 -3.9223 0
M  V30 30714 C 2822.52 3.66602 -2.43497 0
M  V30 30715 H 2819.64 0.523273 -0.518994 0
M  V30 30716 H 2822.28 0.773883 -1.73525 0
M  V30 30717 H 2820.43 3.21454 -2.18173 0
M  V30 30718 H 2822.11 1.68319 -4.29496 0
M  V30 30719 H 2820.35 1.51803 -4.06372 0
M  V30 30720 H 2821.02 3.06425 -4.59138 0
M  V30 30721 H 2823.5 3.19242 -2.66877 0
M  V30 30722 H 2822.37 4.48234 -3.16824 0
M  V30 30723 H 2822.63 4.17336 -1.45889 0
M  V30 30724 N 2821.69 1.28226 0.916285 0
M  V30 30725 C 2822.64 1.11935 2.01839 0
M  V30 30726 C 2823.61 0.0171896 1.66091 0
M  V30 30727 O 2824.79 0.181651 1.89933 0
M  V30 30728 C 2821.93 0.784563 3.36063 0
M  V30 30729 C 2821.05 1.96551 3.84697 0
M  V30 30730 C 2820.18 1.57157 5.0742 0
M  V30 30731 C 2819.22 2.71932 5.48379 0
M  V30 30732 N 2818.36 2.33048 6.62294 0
M  V30 30733 H 2823.2 2.06236 2.15106 0
M  V30 30734 H 2820.74 1.02649 1.05364 0
M  V30 30735 H 2822.69 0.571221 4.13271 0
M  V30 30736 H 2821.32 -0.121508 3.22571 0
M  V30 30737 H 2820.38 2.29106 3.03669 0
M  V30 30738 H 2821.69 2.8261 4.11015 0
M  V30 30739 H 2820.84 1.32015 5.92163 0
M  V30 30740 H 2819.58 0.682238 4.82905 0
M  V30 30741 H 2818.59 2.97776 4.62179 0
M  V30 30742 H 2819.81 3.61504 5.74884 0
M  V30 30743 H 2817.76 1.46581 6.39414 0
M  V30 30744 H 2817.67 3.12643 6.88324 0
M  V30 30745 H 2818.94 2.11183 7.50348 0
M  V30 30746 N 2823.17 -1.12438 1.10433 0
M  V30 30747 C 2824.12 -2.20244 0.748012 0
M  V30 30748 C 2825.11 -1.67457 -0.255819 0
M  V30 30749 O 2826.32 -1.79625 -0.116189 0
M  V30 30750 H 2822.69 -0.717876 0.223959 0
M  V30 30751 H 2824.66 -2.47553 1.66614 0
M  V30 30752 C 2823.41 -3.47147 0.196018 0
M  V30 30753 H 2822.74 -3.88111 0.959674 0
M  V30 30754 H 2824.18 -4.23997 -0.0152408 0
M  V30 30755 C 2822.64 -3.19414 -1.07126 0
M  V30 30756 O 2823.17 -3.39143 -2.15278 0
M  V30 30757 N 2821.37 -2.73221 -0.989892 0
M  V30 30758 H 2820.92 -2.57366 -0.10969 0
M  V30 30759 H 2820.88 -2.55041 -1.83851 0
M  V30 30760 N 2824.65 -0.893076 -1.29853 0
M  V30 30761 C 2825.9 -0.511632 -1.95103 0
M  V30 30762 C 2826.21 0.945537 -1.71228 0
M  V30 30763 O 2827.42 1.4342 -2.30528 0
M  V30 30764 C 2825.87 -0.864095 -3.49373 0
M  V30 30765 C 2825.48 -2.33958 -3.82057 0
M  V30 30766 C 2827.23 -0.552241 -4.20893 0
M  V30 30767 C 2825.13 -2.63325 -5.29541 0
M  V30 30768 H 2824.06 -0.18761 -0.730287 0
M  V30 30769 H 2826.71 -1.08916 -1.4768 0
M  V30 30770 H 2825.1 -0.215562 -3.95413 0
M  V30 30771 H 2826.27 -3.03311 -3.46899 0
M  V30 30772 H 2824.58 -2.61979 -3.2366 0
M  V30 30773 H 2827.18 -0.748582 -5.29434 0
M  V30 30774 H 2827.52 0.508851 -4.13178 0
M  V30 30775 H 2828.06 -1.15832 -3.80562 0
M  V30 30776 H 2824.8 -3.68207 -5.42314 0
M  V30 30777 H 2824.32 -1.9859 -5.6597 0
M  V30 30778 H 2826 -2.49247 -5.97064 0
M  V30 30779 N 2826.13 1.4335 -0.654865 0
M  V30 30780 C 2827.35 2.0666 -0.175082 0
M  V30 30781 C 2827.78 1.48772 1.15102 0
M  V30 30782 O 2827.14 0.598309 1.71143 0
M  V30 30783 C 2827.18 3.60463 -0.0992178 0
M  V30 30784 O 2826.29 4.01589 0.938099 0
M  V30 30785 H 2825.63 0.657078 -0.0956263 0
M  V30 30786 H 2828.16 1.83828 -0.898254 0
M  V30 30787 H 2828.17 4.07914 0.0835603 0
M  V30 30788 H 2826.84 4.01973 -1.06726 0
M  V30 30789 H 2825.42 3.65725 0.727976 0
M  V30 30790 N 2827.61 0.39689 1.52521 0
M  V30 30791 C 2828.83 -0.185222 2.06571 0
M  V30 30792 C 2829.26 -1.39112 1.26607 0
M  V30 30793 O 2828.61 -1.78915 0.293086 0
M  V30 30794 C 2828.66 -0.526126 3.56741 0
M  V30 30795 O 2827.77 -1.61896 3.79293 0
M  V30 30796 H 2827.11 -0.0195358 0.663713 0
M  V30 30797 H 2829.64 0.566553 1.96599 0
M  V30 30798 H 2829.65 -0.788268 4.00313 0
M  V30 30799 H 2828.32 0.35547 4.14378 0
M  V30 30800 H 2826.9 -1.34994 3.47607 0
M  V30 30801 N 2829.08 -1.57088 0.126936 0
M  V30 30802 C 2830.33 -1.9464 -0.52899 0
M  V30 30803 C 2830.65 -1.01307 -1.67321 0
M  V30 30804 O 2831.85 -1.28356 -2.39243 0
M  V30 30805 C 2830.31 -3.45947 -0.992422 0
M  V30 30806 C 2829.92 -4.47829 0.12377 0
M  V30 30807 C 2831.66 -3.92403 -1.61927 0
M  V30 30808 C 2829.57 -5.90323 -0.356807 0
M  V30 30809 H 2828.5 -0.726609 -0.201384 0
M  V30 30810 H 2831.15 -1.82317 0.208064 0
M  V30 30811 H 2829.53 -3.53532 -1.78414 0
M  V30 30812 H 2830.7 -4.51921 0.900247 0
M  V30 30813 H 2829.02 -4.11172 0.657772 0
M  V30 30814 H 2831.62 -4.96285 -1.99011 0
M  V30 30815 H 2831.96 -3.32823 -2.50069 0
M  V30 30816 H 2832.49 -3.87651 -0.892826 0
M  V30 30817 H 2829.23 -6.53675 0.488751 0
M  V30 30818 H 2828.75 -5.89635 -1.09959 0
M  V30 30819 H 2830.43 -6.41841 -0.815435 0
M  V30 30820 N 2830.56 0.146848 -1.56914 0
M  V30 30821 C 2831.79 0.873093 -1.87245 0
M  V30 30822 C 2832.2 1.75245 -0.713158 0
M  V30 30823 O 2831.54 1.80781 0.326196 0
M  V30 30824 C 2831.6 1.78102 -3.12282 0
M  V30 30825 C 2831.27 1.07881 -4.44084 0
M  V30 30826 C 2832.27 0.432643 -5.18097 0
M  V30 30827 C 2829.95 1.06827 -4.90809 0
M  V30 30828 C 2831.94 -0.214681 -6.37038 0
M  V30 30829 C 2829.63 0.417136 -6.09675 0
M  V30 30830 C 2830.63 -0.223213 -6.82635 0
M  V30 30831 O 2830.32 -0.864024 -7.99243 0
M  V30 30832 H 2830.05 0.257828 -0.624901 0
M  V30 30833 H 2832.6 0.144304 -2.04892 0
M  V30 30834 H 2830.83 2.55075 -2.90643 0
M  V30 30835 H 2832.52 2.37923 -3.28858 0
M  V30 30836 H 2833.29 0.432592 -4.83067 0
M  V30 30837 H 2829.17 1.55611 -4.33943 0
M  V30 30838 H 2832.71 -0.715087 -6.93925 0
M  V30 30839 H 2828.61 0.414854 -6.44166 0
M  V30 30840 H 2829.38 -0.765708 -8.14911 0
M  V30 30841 N 2832.04 1.52005 0.4162 0
M  V30 30842 C 2833.29 1.64946 1.16085 0
M  V30 30843 C 2833.6 0.381962 1.91834 0
M  V30 30844 O 2834.81 0.39106 2.68669 0
M  V30 30845 C 2833.26 2.9139 2.11235 0
M  V30 30846 C 2832.87 4.25221 1.41035 0
M  V30 30847 C 2834.62 3.13693 2.86002 0
M  V30 30848 C 2832.52 5.42795 2.34792 0
M  V30 30849 H 2831.45 0.614427 0.43703 0
M  V30 30850 H 2834.1 1.78488 0.42594 0
M  V30 30851 H 2832.49 2.7153 2.88249 0
M  V30 30852 H 2833.66 4.55539 0.694336 0
M  V30 30853 H 2831.97 4.08965 0.783368 0
M  V30 30854 H 2834.57 3.9871 3.56279 0
M  V30 30855 H 2834.91 2.27634 3.48552 0
M  V30 30856 H 2835.45 3.33991 2.16089 0
M  V30 30857 H 2832.19 6.31179 1.76899 0
M  V30 30858 H 2831.71 5.16826 3.04386 0
M  V30 30859 H 2833.39 5.75592 2.9547 0
M  V30 30860 N 2833.52 -0.672992 1.42508 0
M  V30 30861 C 2834.46 -1.78649 1.46127 0
M  V30 30862 C 2835.43 -1.63124 0.313036 0
M  V30 30863 O 2836.62 -1.83652 0.51737 0
M  V30 30864 C 2833.76 -3.16691 1.37116 0
M  V30 30865 C 2832.87 -3.4349 2.61989 0
M  V30 30866 C 2832.01 -4.71271 2.45107 0
M  V30 30867 C 2831.05 -4.9111 3.65345 0
M  V30 30868 N 2830.18 -6.10133 3.47394 0
M  V30 30869 H 2835.02 -1.7489 2.41283 0
M  V30 30870 H 2832.56 -0.853745 1.1979 0
M  V30 30871 H 2834.52 -3.96465 1.29888 0
M  V30 30872 H 2833.15 -3.19569 0.455546 0
M  V30 30873 H 2832.2 -2.57956 2.79576 0
M  V30 30874 H 2833.51 -3.54043 3.51361 0
M  V30 30875 H 2832.67 -5.59139 2.35475 0
M  V30 30876 H 2831.41 -4.63004 1.53227 0
M  V30 30877 H 2830.41 -4.01684 3.75407 0
M  V30 30878 H 2831.64 -5.01221 4.58208 0
M  V30 30879 H 2829.58 -6.03036 2.58233 0
M  V30 30880 H 2829.5 -6.21555 4.30355 0
M  V30 30881 H 2830.77 -7.00675 3.41578 0
M  V30 30882 N 2835 -1.2871 -0.909472 0
M  V30 30883 C 2836.27 -1.06809 -1.63863 0
M  V30 30884 C 2836.65 0.391107 -2.07445 0
M  V30 30885 O 2836 1.37802 -1.82271 0
M  V30 30886 C 2836.21 -2.04666 -2.82688 0
M  V30 30887 C 2837.56 -2.35048 -3.53606 0
M  V30 30888 O 2838.58 -2.02784 -2.92843 0
M  V30 30889 O 2837.44 -2.90132 -4.63126 0
M  V30 30890 H 2834.54 -0.408515 -0.719058 0
M  V30 30891 H 2837.08 -1.40046 -0.9584 0
M  V30 30892 H 2835.85 -3.02995 -2.47609 0
M  V30 30893 H 2835.48 -1.72101 -3.58423 0
M  V30 30894 N 2836.47 1.1185 -1.11028 0
M  V30 30895 C 2837.72 1.83133 -0.854801 0
M  V30 30896 C 2838.04 1.84836 0.621342 0
M  V30 30897 O 2837.31 1.31587 1.45127 0
M  V30 30898 H 2835.89 0.678151 -0.313241 0
M  V30 30899 H 2838.55 1.35409 -1.4018 0
M  V30 30900 H 2837.65 2.87133 -1.22316 0
M  V30 30901 N 2837.95 0.89995 1.29378 0
M  V30 30902 C 2839.23 0.445477 1.9046 0
M  V30 30903 C 2839.61 -1.07488 1.81685 0
M  V30 30904 O 2838.96 -1.91686 1.24374 0
M  V30 30905 C 2839.17 0.960338 3.35527 0
M  V30 30906 C 2840.51 1.00419 4.12554 0
M  V30 30907 O 2841.54 0.908025 3.44432 0
M  V30 30908 O 2840.4 1.14867 5.34292 0
M  V30 30909 H 2837.49 0.138907 0.815251 0
M  V30 30910 H 2840.04 0.989832 1.37842 0
M  V30 30911 H 2838.81 2.00431 3.3607 0
M  V30 30912 H 2838.43 0.396008 3.95623 0
M  V30 30913 N 2839.43 -1.43001 0.662458 0
M  V30 30914 C 2840.85 -1.56133 0.330862 0
M  V30 30915 C 2841.05 -1.64443 -1.16451 0
M  V30 30916 O 2840.1 -1.60456 -1.94962 0
M  V30 30917 C 2841.42 -2.81759 1.05034 0
M  V30 30918 C 2842.96 -2.95516 1.03148 0
M  V30 30919 C 2843.44 -4.23987 1.73203 0
M  V30 30920 N 2844.93 -4.30872 1.70011 0
M  V30 30921 C 2845.66 -5.29065 2.21084 0
M  V30 30922 N 2845.16 -6.33483 2.80484 0
M  V30 30923 N 2846.95 -5.2078 2.1153 0
M  V30 30924 H 2839.1 -1.35851 1.63274 0
M  V30 30925 H 2841.37 -0.65308 0.687161 0
M  V30 30926 H 2841.07 -2.81714 2.10547 0
M  V30 30927 H 2840.95 -3.72272 0.60773 0
M  V30 30928 H 2843.33 -2.95096 -0.015282 0
M  V30 30929 H 2843.42 -2.06267 1.51286 0
M  V30 30930 H 2843.06 -4.25167 2.7784 0
M  V30 30931 H 2842.99 -5.12148 1.22524 0
M  V30 30932 H 2845.48 -3.56037 1.26673 0
M  V30 30933 H 2845.79 -7.04743 3.17107 0
M  V30 30934 H 2844.14 -6.3408 2.84549 0
M  V30 30935 H 2847.33 -4.38123 1.64821 0
M  V30 30936 H 2847.5 -5.97145 2.51639 0
M  V30 30937 N 2840.91 -0.404973 -1.52308 0
M  V30 30938 C 2842.19 0.23051 -1.94237 0
M  V30 30939 C 2842.57 1.62988 -1.34157 0
M  V30 30940 O 2841.91 2.22603 -0.515752 0
M  V30 30941 C 2842.12 0.241045 -3.48167 0
M  V30 30942 C 2843.47 0.462414 -4.22075 0
M  V30 30943 O 2844.5 0.320581 -3.54754 0
M  V30 30944 O 2843.35 0.741613 -5.41445 0
M  V30 30945 H 2840.45 0.147343 -0.813768 0
M  V30 30946 H 2842.99 -0.460615 -1.63329 0
M  V30 30947 H 2841.77 -0.738535 -3.84267 0
M  V30 30948 H 2841.39 0.976443 -3.85424 0
M  V30 30949 N 2842.39 1.57018 -0.135265 0
M  V30 30950 C 2843.66 1.87317 0.563194 0
M  V30 30951 C 2844.04 1.03925 1.83747 0
M  V30 30952 O 2843.39 0.122715 2.2817 0
M  V30 30953 C 2843.6 3.38741 0.839972 0
M  V30 30954 C 2844.95 4.07702 1.18591 0
M  V30 30955 O 2845.97 3.43853 0.92971 0
M  V30 30956 O 2844.83 5.20439 1.66749 0
M  V30 30957 H 2841.93 0.775988 0.285957 0
M  V30 30958 H 2844.47 1.68836 -0.170994 0
M  V30 30959 H 2843.24 3.9125 -0.0623472 0
M  V30 30960 H 2842.87 3.62708 1.62875 0
M  V30 30961 N 2843.86 -0.138524 1.5699 0
M  V30 30962 C 2845.14 -0.87888 1.74743 0
M  V30 30963 C 2845.52 -1.9896 0.705557 0
M  V30 30964 O 2844.87 -2.26851 -0.274026 0
M  V30 30965 C 2845.08 -1.41355 3.19092 0
M  V30 30966 C 2846.43 -1.87362 3.81026 0
M  V30 30967 O 2847.45 -1.51078 3.22574 0
M  V30 30968 O 2846.31 -2.54304 4.83727 0
M  V30 30969 H 2843.4 -0.41594 0.714788 0
M  V30 30970 H 2845.95 -0.123787 1.69248 0
M  V30 30971 H 2844.72 -0.615722 3.86425 0
M  V30 30972 H 2844.35 -2.23191 3.29047 0
M  V30 30973 N 2845.34 -1.52224 -0.408133 0
M  V30 30974 C 2846.27 -1.78598 -1.50416 0
M  V30 30975 C 2847.25 -0.637002 -1.57722 0
M  V30 30976 O 2848.44 -0.882695 -1.7298 0
M  V30 30977 C 2845.57 -1.93756 -2.88229 0
M  V30 30978 C 2844.52 -3.09358 -2.95773 0
M  V30 30979 C 2843.85 -3.0974 -4.3585 0
M  V30 30980 C 2845.15 -4.48797 -2.67167 0
M  V30 30981 H 2846.84 -2.70376 -1.28596 0
M  V30 30982 H 2844.39 -1.30103 -0.617198 0
M  V30 30983 H 2846.34 -2.10789 -3.64892 0
M  V30 30984 H 2845.07 -0.986497 -3.11345 0
M  V30 30985 H 2843.72 -2.92076 -2.21556 0
M  V30 30986 H 2843.37 -2.12354 -4.55977 0
M  V30 30987 H 2843.07 -3.87385 -4.41822 0
M  V30 30988 H 2844.6 -3.28904 -5.14446 0
M  V30 30989 H 2846.01 -4.66279 -3.33552 0
M  V30 30990 H 2844.41 -5.28367 -2.84514 0
M  V30 30991 H 2845.48 -4.56825 -1.62601 0
M  V30 30992 N 2846.82 0.665425 -1.42863 0
M  V30 30993 C 2847.75 1.79056 -1.4987 0
M  V30 30994 C 2848.73 1.66367 -0.354423 0
M  V30 30995 O 2849.92 1.85646 -0.570002 0
M  V30 30996 C 2847.05 3.17413 -1.40949 0
M  V30 30997 C 2846 3.4485 -2.53501 0
M  V30 30998 C 2845.33 4.82879 -2.29634 0
M  V30 30999 C 2846.63 3.40808 -3.95787 0
M  V30 31000 H 2848.32 1.73449 -2.44041 0
M  V30 31001 H 2845.87 0.83305 -1.17458 0
M  V30 31002 H 2847.82 3.95866 -1.44457 0
M  V30 31003 H 2846.54 3.2372 -0.432773 0
M  V30 31004 H 2845.2 2.68761 -2.49325 0
M  V30 31005 H 2844.85 4.85848 -1.30235 0
M  V30 31006 H 2844.55 5.02199 -3.05074 0
M  V30 31007 H 2846.07 5.63605 -2.34907 0
M  V30 31008 H 2847.49 4.09217 -4.01515 0
M  V30 31009 H 2845.89 3.71664 -4.71154 0
M  V30 31010 H 2846.96 2.39209 -4.21791 0
M  V30 31011 N 2848.3 1.29191 0.902633 0
M  V30 31012 C 2849.25 1.13947 2.02778 0
M  V30 31013 C 2850.24 0.0558168 1.69308 0
M  V30 31014 O 2851.45 0.215403 1.78707 0
M  V30 31015 H 2847.82 0.351889 0.664589 0
M  V30 31016 H 2849.79 2.09212 2.12774 0
M  V30 31017 C 2848.54 0.829719 3.37655 0
M  V30 31018 H 2847.86 1.65558 3.6391 0
M  V30 31019 H 2849.3 0.763072 4.17077 0
M  V30 31020 C 2847.76 -0.466932 3.33649 0
M  V30 31021 O 2848.29 -1.49388 3.72889 0
M  V30 31022 N 2846.5 -0.47171 2.86746 0
M  V30 31023 H 2846.05 0.364451 2.55009 0
M  V30 31024 H 2846 -1.33928 2.84448 0
M  V30 31025 N 2849.78 -1.1126 1.1162 0
M  V30 31026 C 2850.72 -2.17355 0.776238 0
M  V30 31027 C 2851.69 -1.6416 -0.253123 0
M  V30 31028 O 2852.88 -1.90359 -0.129621 0
M  V30 31029 C 2850.02 -3.44348 0.227642 0
M  V30 31030 C 2849.13 -4.11538 1.31379 0
M  V30 31031 C 2848.27 -5.26222 0.725533 0
M  V30 31032 C 2847.31 -5.85299 1.7914 0
M  V30 31033 N 2846.44 -6.91375 1.2225 0
M  V30 31034 H 2851.28 -2.4578 1.68512 0
M  V30 31035 H 2848.82 -1.20653 0.841496 0
M  V30 31036 H 2850.78 -4.17059 -0.10841 0
M  V30 31037 H 2849.41 -3.16302 -0.64443 0
M  V30 31038 H 2848.46 -3.36882 1.76676 0
M  V30 31039 H 2849.77 -4.515 2.12013 0
M  V30 31040 H 2848.93 -6.05749 0.339647 0
M  V30 31041 H 2847.66 -4.87571 -0.112103 0
M  V30 31042 H 2846.67 -5.04449 2.18657 0
M  V30 31043 H 2847.89 -6.26017 2.6321 0
M  V30 31044 H 2845.84 -6.54739 0.406538 0
M  V30 31045 H 2845.76 -7.30002 1.96553 0
M  V30 31046 H 2847.03 -7.74702 0.863562 0
M  V30 31047 N 2851.25 -0.906798 -1.28899 0
M  V30 31048 C 2852.2 -0.388353 -2.27509 0
M  V30 31049 C 2853.17 0.533411 -1.57302 0
M  V30 31050 O 2854.36 0.457116 -1.85243 0
M  V30 31051 C 2851.5 0.371749 -3.43092 0
M  V30 31052 C 2850.61 -0.581723 -4.28065 0
M  V30 31053 C 2849.74 0.196136 -5.30838 0
M  V30 31054 C 2848.78 -0.751401 -6.0747 0
M  V30 31055 N 2847.92 -0.00750068 -7.021 0
M  V30 31056 H 2852.76 -1.23433 -2.71235 0
M  V30 31057 H 2850.3 -0.619986 -1.33396 0
M  V30 31058 H 2852.26 0.828569 -4.08889 0
M  V30 31059 H 2850.89 1.18212 -3.00376 0
M  V30 31060 H 2849.94 -1.15707 -3.62376 0
M  V30 31061 H 2851.25 -1.30673 -4.81379 0
M  V30 31062 H 2850.4 0.713834 -6.02486 0
M  V30 31063 H 2849.14 0.95424 -4.78274 0
M  V30 31064 H 2848.15 -1.28054 -5.3468 0
M  V30 31065 H 2849.37 -1.50895 -6.62124 0
M  V30 31066 H 2847.32 0.73274 -6.51895 0
M  V30 31067 H 2847.24 -0.672467 -7.53003 0
M  V30 31068 H 2848.5 0.490229 -7.77957 0
M  V30 31069 N 2852.73 1.42648 -0.670032 0
M  V30 31070 C 2854.01 1.95235 -0.119485 0
M  V30 31071 C 2854.39 1.61066 1.36458 0
M  V30 31072 O 2853.74 0.904366 2.09842 0
M  V30 31073 C 2853.95 3.46886 -0.383559 0
M  V30 31074 C 2855.3 4.23556 -0.297505 0
M  V30 31075 O 2856.32 3.54786 -0.317042 0
M  V30 31076 O 2855.18 5.45992 -0.235603 0
M  V30 31077 H 2852.27 0.827 -0.000103084 0
M  V30 31078 H 2854.82 1.525 -0.744433 0
M  V30 31079 H 2853.59 3.64943 -1.41181 0
M  V30 31080 H 2853.21 3.96657 0.273632 0
M  V30 31081 N 2854.21 0.413044 1.52091 0
M  V30 31082 C 2855.14 -0.455195 2.23614 0
M  V30 31083 C 2856.12 -1.04478 1.24592 0
M  V30 31084 O 2857.31 -1.0919 1.53655 0
M  V30 31085 C 2854.43 -1.63219 2.96778 0
M  V30 31086 C 2853.48 -1.16561 4.10263 0
M  V30 31087 S 2854.31 -0.127539 5.35348 0
M  V30 31088 C 2855.47 -1.30976 6.12042 0
M  V30 31089 H 2855.7 0.152095 2.96911 0
M  V30 31090 H 2853.23 0.19737 1.53133 0
M  V30 31091 H 2855.19 -2.30707 3.39536 0
M  V30 31092 H 2853.85 -2.21083 2.23117 0
M  V30 31093 H 2853.05 -2.04507 4.60644 0
M  V30 31094 H 2852.65 -0.569321 3.69641 0
M  V30 31095 H 2854.94 -2.23265 6.39655 0
M  V30 31096 H 2855.88 -0.84641 7.03023 0
M  V30 31097 H 2856.29 -1.53733 5.43163 0
M  V30 31098 N 2855.69 -1.56945 0.143591 0
M  V30 31099 C 2856.65 -2.15401 -0.783257 0
M  V30 31100 C 2857.65 -1.09494 -1.17761 0
M  V30 31101 O 2858.84 -1.3515 -1.0991 0
M  V30 31102 C 2855.97 -2.71434 -2.06244 0
M  V30 31103 H 2857.17 -2.98638 -0.27481 0
M  V30 31104 H 2854.72 -1.55941 -0.105832 0
M  V30 31105 H 2855.46 -1.91854 -2.61463 0
M  V30 31106 H 2855.24 -3.48913 -1.78891 0
M  V30 31107 H 2856.73 -3.16484 -2.72447 0
M  V30 31108 N 2857.17 0.130197 -1.57061 0
M  V30 31109 C 2858.41 0.839939 -1.84259 0
M  V30 31110 C 2858.74 1.80401 -0.727018 0
M  V30 31111 O 2858 1.93649 0.282597 0
M  V30 31112 C 2858.3 1.63359 -3.17881 0
M  V30 31113 C 2857.96 0.814813 -4.43477 0
M  V30 31114 C 2856.62 0.588982 -4.77582 0
M  V30 31115 C 2858.98 0.243345 -5.20632 0
M  V30 31116 C 2856.3 -0.218751 -5.86292 0
M  V30 31117 C 2858.66 -0.551518 -6.30191 0
M  V30 31118 C 2857.32 -0.78777 -6.62835 0
M  V30 31119 H 2856.59 0.307356 -0.67425 0
M  V30 31120 H 2859.24 0.102798 -1.91224 0
M  V30 31121 H 2857.54 2.44133 -3.06442 0
M  V30 31122 H 2859.24 2.18652 -3.36144 0
M  V30 31123 H 2855.83 1.00091 -4.16749 0
M  V30 31124 H 2860.01 0.405058 -4.94644 0
M  V30 31125 H 2855.27 -0.411123 -6.10016 0
M  V30 31126 H 2859.44 -1.00138 -6.89163 0
M  V30 31127 H 2857.07 -1.4155 -7.46905 0
M  V30 31128 N 2858.65 1.52438 0.400055 0
M  V30 31129 C 2859.92 1.57513 1.1597 0
M  V30 31130 C 2860.3 0.361609 2.0798 0
M  V30 31131 O 2859.65 -0.650891 2.19033 0
M  V30 31132 C 2859.86 2.9084 1.92907 0
M  V30 31133 C 2861.21 3.44173 2.48656 0
M  V30 31134 O 2862.23 2.92641 2.03076 0
M  V30 31135 O 2861.09 4.34182 3.31886 0
M  V30 31136 H 2858.19 0.634836 0.530012 0
M  V30 31137 H 2860.73 1.64769 0.406101 0
M  V30 31138 H 2859.5 3.70609 1.25557 0
M  V30 31139 H 2859.13 2.86918 2.75252 0
M  V30 31140 N 2860.12 -0.657839 1.43214 0
M  V30 31141 C 2861.07 -1.79214 1.48274 0
M  V30 31142 C 2862.07 -1.656 0.356779 0
M  V30 31143 O 2863.27 -1.72003 0.530565 0
M  V30 31144 H 2859.65 -0.591203 0.46474 0
M  V30 31145 H 2861.62 -1.72065 2.43795 0
M  V30 31146 C 2860.37 -3.17452 1.41843 0
M  V30 31147 H 2859.69 -3.28563 2.27786 0
M  V30 31148 H 2861.13 -3.9679 1.49445 0
M  V30 31149 C 2859.59 -3.36628 0.135406 0
M  V30 31150 O 2860.12 -3.93549 -0.80513 0
M  V30 31151 N 2858.32 -2.90562 0.0470827 0
M  V30 31152 H 2857.87 -2.44425 0.813264 0
M  V30 31153 H 2857.83 -3.03768 -0.810684 0
M  V30 31154 N 2861.6 -1.29668 -0.895769 0
M  V30 31155 C 2862.85 -1.18042 -1.64906 0
M  V30 31156 C 2863.18 0.266648 -1.92361 0
M  V30 31157 O 2862.46 1.19211 -1.53684 0
M  V30 31158 C 2862.74 -1.99824 -2.9957 0
M  V30 31159 C 2862.59 -3.52692 -2.79156 0
M  V30 31160 C 2863.91 -1.82768 -4.00355 0
M  V30 31161 H 2861.03 -0.430175 -0.59843 0
M  V30 31162 H 2863.67 -1.59184 -1.03733 0
M  V30 31163 H 2861.82 -1.64865 -3.51784 0
M  V30 31164 H 2863.49 -3.97654 -2.33814 0
M  V30 31165 H 2861.74 -3.77418 -2.13864 0
M  V30 31166 H 2862.41 -4.05193 -3.74864 0
M  V30 31167 H 2864.88 -2.1331 -3.57265 0
M  V30 31168 H 2863.76 -2.42334 -4.92509 0
M  V30 31169 H 2864.02 -0.783916 -4.35094 0
M  V30 31170 N 2863.08 1.10667 -1.12208 0
M  V30 31171 C 2864.03 2.19026 -0.782957 0
M  V30 31172 C 2865.02 1.67843 0.229145 0
M  V30 31173 O 2866.23 1.79787 0.0875979 0
M  V30 31174 H 2862.6 0.714223 -0.235351 0
M  V30 31175 H 2864.57 2.44871 -1.70531 0
M  V30 31176 C 2863.32 3.46791 -0.251221 0
M  V30 31177 H 2862.65 3.86535 -1.0213 0
M  V30 31178 H 2864.09 4.23968 -0.0522154 0
M  V30 31179 C 2862.54 3.21078 1.02031 0
M  V30 31180 O 2863.07 3.42525 2.09855 0
M  V30 31181 N 2861.28 2.74761 0.946299 0
M  V30 31182 H 2860.83 2.57508 0.0687317 0
M  V30 31183 H 2860.79 2.57934 1.7977 0
M  V30 31184 N 2864.56 0.913621 1.28416 0
M  V30 31185 C 2865.47 0.407006 2.31042 0
M  V30 31186 C 2866.48 -0.505269 1.66502 0
M  V30 31187 O 2867.66 -0.391487 1.97558 0
M  V30 31188 C 2864.72 -0.344841 3.44981 0
M  V30 31189 C 2863.79 0.600638 4.25077 0
M  V30 31190 C 2863.02 -0.115422 5.33575 0
M  V30 31191 O 2863.24 -1.33717 5.54505 0
M  V30 31192 O 2862.18 0.549201 5.99389 0
M  V30 31193 H 2866 1.25878 2.76385 0
M  V30 31194 H 2863.59 0.678438 1.33107 0
M  V30 31195 H 2865.47 -0.769469 4.14315 0
M  V30 31196 H 2864.14 -1.17245 3.01721 0
M  V30 31197 H 2863.05 1.07466 3.58332 0
M  V30 31198 H 2864.38 1.39506 4.72016 0
M  V30 31199 N 2866.04 -1.4229 0.677588 0
M  V30 31200 C 2866.98 -2.32598 -0.0106346 0
M  V30 31201 C 2867.98 -1.49977 -0.787616 0
M  V30 31202 O 2869.18 -1.6603 -0.695266 0
M  V30 31203 H 2865.56 -0.751671 -0.022235 0
M  V30 31204 H 2867.53 -2.88338 0.768362 0
M  V30 31205 C 2866.28 -3.34581 -0.946083 0
M  V30 31206 H 2865.6 -3.98197 -0.357631 0
M  V30 31207 H 2867.04 -4.0035 -1.39627 0
M  V30 31208 C 2865.5 -2.6706 -2.05379 0
M  V30 31209 O 2866.03 -2.50464 -3.14055 0
M  V30 31210 N 2864.24 -2.26041 -1.82631 0
M  V30 31211 H 2863.78 -2.39739 -0.942492 0
M  V30 31212 H 2863.74 -1.81196 -2.56934 0
M  V30 31213 N 2867.51 -0.421104 -1.5187 0
M  V30 31214 C 2868.74 0.152334 -2.0684 0
M  V30 31215 C 2869.16 1.37081 -1.28804 0
M  V30 31216 O 2868.52 1.78426 -0.321513 0
M  V30 31217 C 2868.57 0.469305 -3.57533 0
M  V30 31218 O 2867.67 1.55842 -3.81821 0
M  V30 31219 H 2867.01 0.00897419 -0.663939 0
M  V30 31220 H 2869.54 -0.597759 -1.95673 0
M  V30 31221 H 2869.55 0.724482 -4.01516 0
M  V30 31222 H 2868.23 -0.421349 -4.1376 0
M  V30 31223 H 2866.81 1.29447 -3.49711 0
M  V30 31224 N 2868.99 1.56866 -0.151912 0
M  V30 31225 C 2870.22 2.01082 0.508009 0
M  V30 31226 C 2870.64 1.03136 1.57304 0
M  V30 31227 O 2870 0.00786277 1.81298 0
M  V30 31228 C 2870.05 3.44016 1.081 0
M  V30 31229 O 2869.15 3.49088 2.19571 0
M  V30 31230 H 2868.49 0.652367 0.123745 0
M  V30 31231 H 2871.02 2.03066 -0.250091 0
M  V30 31232 H 2871.03 3.82919 1.40844 0
M  V30 31233 H 2869.71 4.14809 0.301095 0
M  V30 31234 H 2868.29 3.22031 1.88017 0
M  V30 31235 N 2870.47 -0.121866 1.57128 0
M  V30 31236 C 2871.88 -0.679317 1.73903 0
M  V30 31237 C 2872.23 -1.80452 0.770166 0
M  V30 31238 O 2871.36 -2.16323 -0.0575703 0
M  V30 31239 C 2871.95 -1.23905 3.1533 0
M  V30 31240 C 2870.51 -1.74282 3.33621 0
M  V30 31241 C 2869.66 -0.641366 2.69781 0
M  V30 31242 H 2872.61 0.104028 1.58359 0
M  V30 31243 H 2872.63 -2.10874 3.16722 0
M  V30 31244 H 2872.14 -0.419889 3.85822 0
M  V30 31245 H 2870.24 -2.58684 2.68166 0
M  V30 31246 H 2870.36 -1.85424 4.41763 0
M  V30 31247 H 2868.72 -1.07426 2.30937 0
M  V30 31248 H 2869.5 0.166767 3.42895 0
M  V30 31249 N 2871.95 -1.52648 -0.391965 0
M  V30 31250 C 2872.86 -1.80133 -1.50297 0
M  V30 31251 C 2873.87 -0.68791 -1.59824 0
M  V30 31252 O 2875.05 -0.97518 -1.76216 0
M  V30 31253 C 2872.12 -1.96176 -2.8586 0
M  V30 31254 C 2871.18 -3.2009 -2.86078 0
M  V30 31255 C 2870.41 -3.35358 -4.15175 0
M  V30 31256 O 2870.63 -2.555 -5.09977 0
M  V30 31257 O 2869.57 -4.28598 -4.22596 0
M  V30 31258 H 2873.39 -2.74469 -1.30002 0
M  V30 31259 H 2870.98 -1.37703 -0.579515 0
M  V30 31260 H 2872.86 -2.08452 -3.66232 0
M  V30 31261 H 2871.53 -1.0503 -3.06187 0
M  V30 31262 H 2870.44 -3.13259 -2.04498 0
M  V30 31263 H 2871.77 -4.11073 -2.70703 0
M  V30 31264 N 2873.43 0.650235 -1.43561 0
M  V30 31265 C 2874.37 1.76301 -1.48951 0
M  V30 31266 C 2875.34 1.62605 -0.338948 0
M  V30 31267 O 2876.53 1.82805 -0.546522 0
M  V30 31268 C 2873.67 3.1447 -1.42137 0
M  V30 31269 C 2872.78 3.39279 -2.67421 0
M  V30 31270 C 2871.92 4.67312 -2.52573 0
M  V30 31271 C 2870.96 4.85236 -3.73112 0
M  V30 31272 N 2870.09 6.04529 -3.57057 0
M  V30 31273 H 2874.93 1.7103 -2.44035 0
M  V30 31274 H 2872.47 0.834579 -1.21133 0
M  V30 31275 H 2874.43 3.94349 -1.36179 0
M  V30 31276 H 2873.06 3.18804 -0.506329 0
M  V30 31277 H 2872.11 2.53476 -2.83644 0
M  V30 31278 H 2873.42 3.48409 -3.56949 0
M  V30 31279 H 2872.58 5.55322 -2.44341 0
M  V30 31280 H 2871.31 4.60508 -1.60574 0
M  V30 31281 H 2870.32 3.95661 -3.8175 0
M  V30 31282 H 2871.54 4.93868 -4.66124 0
M  V30 31283 H 2869.49 5.98851 -2.67794 0
M  V30 31284 H 2869.41 6.1463 -4.40189 0
M  V30 31285 H 2870.68 6.95152 -3.52681 0
M  V30 31286 N 2874.9 1.30141 0.88888 0
M  V30 31287 C 2876.13 1.21654 1.67356 0
M  V30 31288 C 2876.55 -0.221213 1.875 0
M  V30 31289 O 2875.9 -1.14675 1.41972 0
M  V30 31290 C 2875.96 1.93724 3.0521 0
M  V30 31291 O 2875.68 3.31886 2.85978 0
M  V30 31292 C 2877.18 1.91847 3.99637 0
M  V30 31293 H 2874.4 0.42117 0.522357 0
M  V30 31294 H 2876.94 1.717 1.11083 0
M  V30 31295 H 2875.1 1.47486 3.58227 0
M  V30 31296 H 2875.51 3.68334 3.73404 0
M  V30 31297 H 2876.98 2.4682 4.93745 0
M  V30 31298 H 2877.46 0.896484 4.29953 0
M  V30 31299 H 2878.07 2.37878 3.52554 0
M  V30 31300 N 2876.38 -1.1007 1.12794 0
M  V30 31301 C 2877.66 -1.78631 0.796898 0
M  V30 31302 C 2878.04 -1.98705 -0.712704 0
M  V30 31303 O 2877.39 -1.58313 -1.6477 0
M  V30 31304 C 2877.6 -3.11375 1.57627 0
M  V30 31305 C 2878.95 -3.86191 1.7647 0
M  V30 31306 O 2879.97 -3.21107 1.5417 0
M  V30 31307 O 2878.83 -5.03015 2.13632 0
M  V30 31308 H 2875.92 -0.774388 0.290261 0
M  V30 31309 H 2878.47 -1.16686 1.23218 0
M  V30 31310 H 2877.24 -2.92207 2.60251 0
M  V30 31311 H 2876.86 -3.81041 1.13549 0
M  V30 31312 N 2877.86 -0.920419 -1.2793 0
M  V30 31313 C 2878.82 -0.41862 -2.25345 0
M  V30 31314 C 2879.82 0.458771 -1.54117 0
M  V30 31315 O 2881.01 0.260881 -1.72235 0
M  V30 31316 C 2878.15 0.399044 -3.38556 0
M  V30 31317 H 2879.34 -1.27922 -2.71249 0
M  V30 31318 H 2876.89 -0.700431 -1.39727 0
M  V30 31319 H 2877.63 1.27877 -2.98023 0
M  V30 31320 H 2877.41 -0.229932 -3.91425 0
M  V30 31321 H 2878.9 0.740745 -4.10978 0
M  V30 31322 N 2879.34 1.41929 -0.685124 0
M  V30 31323 C 2880.57 2.05723 -0.220408 0
M  V30 31324 C 2880.98 1.51518 1.1264 0
M  V30 31325 O 2880.34 0.659144 1.70181 0
M  V30 31326 C 2880.39 3.61154 -0.158038 0
M  V30 31327 O 2880.11 4.13351 -1.45163 0
M  V30 31328 C 2881.61 4.42078 0.328931 0
M  V30 31329 H 2878.83 0.662775 -0.104737 0
M  V30 31330 H 2881.38 1.81885 -0.934768 0
M  V30 31331 H 2879.53 3.84067 0.507076 0
M  V30 31332 H 2879.94 5.0731 -1.33181 0
M  V30 31333 H 2881.42 5.51063 0.321462 0
M  V30 31334 H 2881.9 4.17417 1.36601 0
M  V30 31335 H 2882.5 4.24206 -0.304811 0
M  V30 31336 N 2880.82 0.429152 1.51644 0
M  V30 31337 C 2882.04 -0.141363 2.06918 0
M  V30 31338 C 2882.47 -1.36396 1.29529 0
M  V30 31339 O 2881.82 -1.78253 0.330971 0
M  V30 31340 C 2881.87 -0.450337 3.57777 0
M  V30 31341 O 2880.98 -1.53815 3.82642 0
M  V30 31342 H 2880.32 -0.00545303 0.663978 0
M  V30 31343 H 2882.85 0.608127 1.95353 0
M  V30 31344 H 2882.86 -0.703178 4.01895 0
M  V30 31345 H 2881.53 0.443286 4.13531 0
M  V30 31346 H 2880.11 -1.27591 3.50393 0
M  V30 31347 N 2882.29 -1.56783 0.160229 0
M  V30 31348 C 2883.52 -2.01349 -0.497338 0
M  V30 31349 C 2883.94 -1.03969 -1.56755 0
M  V30 31350 O 2883.3 -0.0174773 -1.81292 0
M  V30 31351 C 2883.35 -3.44584 -1.06274 0
M  V30 31352 O 2882.45 -3.50247 -2.17717 0
M  V30 31353 H 2881.8 -0.653014 -0.120284 0
M  V30 31354 H 2884.33 -2.0293 0.260857 0
M  V30 31355 H 2884.34 -3.8366 -1.38812 0
M  V30 31356 H 2883.01 -4.14963 -0.279093 0
M  V30 31357 H 2881.59 -3.23023 -1.86307 0
M  V30 31358 N 2883.77 0.113531 -1.57191 0
M  V30 31359 C 2885 0.834389 -1.89329 0
M  V30 31360 C 2885.42 1.73175 -0.752049 0
M  V30 31361 O 2884.77 1.80387 0.276881 0
M  V30 31362 C 2884.82 1.66324 -3.20965 0
M  V30 31363 O 2884.55 0.801993 -4.30697 0
M  V30 31364 C 2886.05 2.48877 -3.66845 0
M  V30 31365 H 2883.27 0.239576 -0.626773 0
M  V30 31366 H 2885.81 0.0962836 -2.04273 0
M  V30 31367 H 2883.97 2.35404 -3.07675 0
M  V30 31368 H 2884.38 1.37422 -5.06177 0
M  V30 31369 H 2885.85 3.02555 -4.61697 0
M  V30 31370 H 2886.33 3.2649 -2.93771 0
M  V30 31371 H 2886.94 1.85029 -3.82942 0
M  V30 31372 N 2885.25 1.52854 0.383864 0
M  V30 31373 C 2886.48 1.72032 1.14947 0
M  V30 31374 C 2886.89 0.44099 1.83578 0
M  V30 31375 O 2886.25 -0.584895 1.72873 0
M  V30 31376 C 2886.3 2.87337 2.19363 0
M  V30 31377 O 2886.02 4.10318 1.53529 0
M  V30 31378 C 2887.52 3.18236 3.08611 0
M  V30 31379 H 2884.74 0.575852 0.344435 0
M  V30 31380 H 2887.29 1.99524 0.448362 0
M  V30 31381 H 2885.44 2.62291 2.851 0
M  V30 31382 H 2885.86 4.74756 2.22951 0
M  V30 31383 H 2887.33 4.02368 3.77895 0
M  V30 31384 H 2887.81 2.32833 3.72405 0
M  V30 31385 H 2888.41 3.4514 2.48512 0
M  V30 31386 N 2886.73 -0.642612 1.43904 0
M  V30 31387 C 2887.95 -1.43481 1.4976 0
M  V30 31388 C 2888.38 -1.87717 0.119944 0
M  V30 31389 O 2887.74 -1.58034 -0.88853 0
M  V30 31390 C 2887.79 -2.63894 2.45749 0
M  V30 31391 O 2886.89 -3.63327 1.95108 0
M  V30 31392 H 2886.23 -0.429782 0.506146 0
M  V30 31393 H 2888.76 -0.785404 1.88925 0
M  V30 31394 H 2888.77 -3.1158 2.63405 0
M  V30 31395 H 2887.45 -2.3104 3.45822 0
M  V30 31396 H 2886.02 -3.22528 1.87163 0
M  V30 31397 N 2888.21 -1.30611 -0.881966 0
M  V30 31398 C 2889.62 -1.17666 -1.44954 0
M  V30 31399 C 2889.97 0.221497 -1.94946 0
M  V30 31400 O 2889.09 1.1184 -1.85259 0
M  V30 31401 C 2889.69 -2.13 -2.6347 0
M  V30 31402 C 2888.25 -2.04025 -3.16308 0
M  V30 31403 C 2887.4 -2.0291 -1.89004 0
M  V30 31404 H 2890.35 -1.42837 -0.69162 0
M  V30 31405 H 2890.37 -1.71259 -3.3978 0
M  V30 31406 H 2889.88 -3.1475 -2.27054 0
M  V30 31407 H 2887.98 -1.05426 -3.57374 0
M  V30 31408 H 2888.09 -2.92556 -3.79404 0
M  V30 31409 H 2886.46 -1.47754 -2.07463 0
M  V30 31410 H 2887.24 -3.06396 -1.54842 0
M  V30 31411 N 2889.69 1.0947 -1.13376 0
M  V30 31412 C 2891.1 1.6313 -0.908039 0
M  V30 31413 C 2891.45 1.88171 0.555543 0
M  V30 31414 O 2890.57 1.63107 1.42215 0
M  V30 31415 C 2891.17 2.96358 -1.64187 0
M  V30 31416 C 2889.73 3.46845 -1.46203 0
M  V30 31417 C 2888.87 2.2127 -1.67138 0
M  V30 31418 H 2891.82 0.928388 -1.28711 0
M  V30 31419 H 2891.85 3.64292 -1.0987 0
M  V30 31420 H 2891.36 2.78101 -2.70705 0
M  V30 31421 H 2889.46 3.70227 -0.419853 0
M  V30 31422 H 2889.57 4.24311 -2.22479 0
M  V30 31423 H 2887.94 2.29904 -1.0962 0
M  V30 31424 H 2888.72 2.05533 -2.74975 0
M  V30 31425 N 2891.16 0.92719 1.2744 0
M  V30 31426 C 2892.39 0.583077 1.99035 0
M  V30 31427 C 2892.81 -0.831731 1.68712 0
M  V30 31428 O 2892.17 -1.55802 0.927108 0
M  V30 31429 C 2892.22 0.814986 3.5127 0
M  V30 31430 O 2891.32 -0.119669 4.12226 0
M  V30 31431 H 2890.66 0.224549 0.624879 0
M  V30 31432 H 2893.19 1.2463 1.6226 0
M  V30 31433 H 2893.2 0.730353 4.0141 0
M  V30 31434 H 2891.88 1.8463 3.72672 0
M  V30 31435 H 2890.46 0.0148344 3.72897 0
M  V30 31436 N 2892.64 -1.41564 0.692641 0
M  V30 31437 C 2893.87 -2.05305 0.230979 0
M  V30 31438 C 2894.28 -1.52211 -1.12376 0
M  V30 31439 O 2893.62 -0.663998 -1.7128 0
M  V30 31440 C 2893.68 -3.59338 0.107958 0
M  V30 31441 C 2893.35 -4.35212 1.39427 0
M  V30 31442 C 2894.35 -4.6469 2.33151 0
M  V30 31443 C 2892.03 -4.74537 1.64683 0
M  V30 31444 C 2894.02 -5.3245 3.50394 0
M  V30 31445 C 2891.71 -5.42033 2.82212 0
M  V30 31446 C 2892.71 -5.70916 3.74891 0
M  V30 31447 O 2892.4 -6.37024 4.90362 0
M  V30 31448 H 2892.13 -0.667682 0.10572 0
M  V30 31449 H 2894.68 -1.82375 0.944912 0
M  V30 31450 H 2892.91 -3.80996 -0.661718 0
M  V30 31451 H 2894.6 -4.04667 -0.316142 0
M  V30 31452 H 2895.37 -4.34793 2.14895 0
M  V30 31453 H 2891.25 -4.51438 0.934086 0
M  V30 31454 H 2894.79 -5.54911 4.22752 0
M  V30 31455 H 2890.69 -5.71348 3.00386 0
M  V30 31456 H 2891.46 -6.5552 4.90139 0
M  V30 31457 N 2894.12 -0.437188 -1.51415 0
M  V30 31458 C 2895.4 0.189258 -1.94682 0
M  V30 31459 C 2895.78 1.60106 -1.37584 0
M  V30 31460 O 2895.12 2.21459 -0.562854 0
M  V30 31461 C 2895.33 0.167139 -3.486 0
M  V30 31462 C 2896.68 0.372782 -4.2296 0
M  V30 31463 O 2897.71 0.24526 -3.55355 0
M  V30 31464 O 2896.57 0.626598 -5.42896 0
M  V30 31465 H 2893.66 0.130049 -0.816711 0
M  V30 31466 H 2896.21 -0.495156 -1.62315 0
M  V30 31467 H 2894.98 -0.819878 -3.82614 0
M  V30 31468 H 2894.6 0.894469 -3.87408 0
M  V30 31469 N 2895.6 1.56696 -0.168541 0
M  V30 31470 C 2896.82 2.0161 0.486653 0
M  V30 31471 C 2897.25 1.04799 1.56201 0
M  V30 31472 O 2896.61 0.0270914 1.8128 0
M  V30 31473 C 2896.65 3.45143 1.04445 0
M  V30 31474 O 2895.76 3.51397 2.15856 0
M  V30 31475 H 2895.1 0.653643 0.116819 0
M  V30 31476 H 2897.63 2.02789 -0.271615 0
M  V30 31477 H 2897.64 3.84391 1.36775 0
M  V30 31478 H 2896.31 4.15105 0.257082 0
M  V30 31479 H 2894.89 3.24007 1.84591 0
M  V30 31480 N 2897.08 -0.105193 1.57249 0
M  V30 31481 C 2898.32 -0.81172 1.85847 0
M  V30 31482 C 2898.65 -1.7887 0.75625 0
M  V30 31483 O 2897.93 -1.93054 -0.236702 0
M  V30 31484 C 2898.21 -1.54942 3.25062 0
M  V30 31485 C 2898.07 -0.591106 4.45899 0
M  V30 31486 C 2899.38 -2.50239 3.62034 0
M  V30 31487 H 2896.5 -0.293638 0.675978 0
M  V30 31488 H 2899.15 -0.0755935 1.8985 0
M  V30 31489 H 2897.3 -2.17692 3.2178 0
M  V30 31490 H 2898.97 0.0286162 4.61291 0
M  V30 31491 H 2897.21 0.0963106 4.33693 0
M  V30 31492 H 2897.88 -1.1442 5.40011 0
M  V30 31493 H 2900.36 -1.97586 3.66195 0
M  V30 31494 H 2899.23 -2.98878 4.60395 0
M  V30 31495 H 2899.49 -3.33537 2.90182 0
M  V30 31496 N 2898.55 -1.53055 -0.375752 0
M  V30 31497 C 2899.78 -1.72639 -1.14033 0
M  V30 31498 C 2900.2 -0.450719 -1.83341 0
M  V30 31499 O 2899.55 0.575719 -1.73181 0
M  V30 31500 C 2899.61 -2.88496 -2.17836 0
M  V30 31501 O 2899.33 -4.11126 -1.51351 0
M  V30 31502 C 2900.83 -3.19869 -3.06919 0
M  V30 31503 H 2898.05 -0.577671 -0.341376 0
M  V30 31504 H 2900.59 -1.99759 -0.437774 0
M  V30 31505 H 2898.75 -2.63799 -2.83705 0
M  V30 31506 H 2899.16 -4.75931 -2.2043 0
M  V30 31507 H 2900.63 -4.04366 -3.75755 0
M  V30 31508 H 2901.11 -2.34804 -3.71165 0
M  V30 31509 H 2901.72 -3.46454 -2.46678 0
M  V30 31510 N 2900.03 0.634971 -1.44242 0
M  V30 31511 C 2900.98 1.74712 -1.50813 0
M  V30 31512 C 2901.95 1.62236 -0.356175 0
M  V30 31513 O 2903.13 1.82215 -0.56588 0
M  V30 31514 C 2900.27 3.12945 -1.45464 0
M  V30 31515 C 2899.39 3.36424 -2.71004 0
M  V30 31516 C 2898.52 4.64607 -2.57516 0
M  V30 31517 C 2897.56 4.81251 -3.78237 0
M  V30 31518 N 2896.7 6.00708 -3.63448 0
M  V30 31519 H 2901.54 1.68432 -2.45835 0
M  V30 31520 H 2899.08 0.821685 -1.22011 0
M  V30 31521 H 2901.03 3.92882 -1.40354 0
M  V30 31522 H 2899.66 3.18249 -0.540114 0
M  V30 31523 H 2898.72 2.50453 -2.86317 0
M  V30 31524 H 2900.03 3.44603 -3.60625 0
M  V30 31525 H 2899.18 5.52699 -2.50217 0
M  V30 31526 H 2897.92 4.58779 -1.65449 0
M  V30 31527 H 2896.93 3.91589 -3.85925 0
M  V30 31528 H 2898.15 4.88896 -4.71336 0
M  V30 31529 H 2896.1 5.95977 -2.7413 0
M  V30 31530 H 2896.01 6.09927 -4.46683 0
M  V30 31531 H 2897.28 6.91372 -3.60035 0
M  V30 31532 N 2901.51 1.31076 0.875027 0
M  V30 31533 C 2902.92 1.18433 1.44328 0
M  V30 31534 C 2903.27 -0.211155 1.9506 0
M  V30 31535 O 2902.4 -1.10856 1.85849 0
M  V30 31536 C 2902.99 2.14394 2.62337 0
M  V30 31537 C 2901.55 2.05699 3.15222 0
M  V30 31538 C 2900.7 2.0391 1.87926 0
M  V30 31539 H 2903.65 1.43201 0.684036 0
M  V30 31540 H 2903.67 1.73059 3.38867 0
M  V30 31541 H 2903.18 3.1595 2.25382 0
M  V30 31542 H 2901.28 1.0732 3.5681 0
M  V30 31543 H 2901.4 2.94564 3.77847 0
M  V30 31544 H 2899.76 1.48853 2.06676 0
M  V30 31545 H 2900.54 3.07213 1.53215 0
M  V30 31546 N 2902.99 -1.08867 1.13955 0
M  V30 31547 C 2904.27 -1.77775 0.815799 0
M  V30 31548 C 2904.65 -1.9945 -0.691589 0
M  V30 31549 O 2903.99 -1.60052 -1.63082 0
M  V30 31550 C 2904.2 -3.09686 1.60921 0
M  V30 31551 C 2905.55 -3.84298 1.80556 0
M  V30 31552 O 2906.58 -3.19454 1.57568 0
M  V30 31553 O 2905.43 -5.00721 2.18955 0
M  V30 31554 H 2902.53 -0.771266 0.298458 0
M  V30 31555 H 2905.07 -1.15372 1.24448 0
M  V30 31556 H 2903.85 -2.89431 2.63336 0
M  V30 31557 H 2903.47 -3.79815 1.17584 0
M  V30 31558 N 2904.47 -0.933936 -1.26946 0
M  V30 31559 C 2905.41 -0.436524 -2.26634 0
M  V30 31560 C 2906.38 0.499925 -1.58398 0
M  V30 31561 O 2907.57 0.41772 -1.86171 0
M  V30 31562 C 2904.71 0.298891 -3.43803 0
M  V30 31563 C 2903.82 -0.672391 -4.26735 0
M  V30 31564 C 2902.96 0.0834938 -5.31134 0
M  V30 31565 C 2902 -0.880086 -6.0574 0
M  V30 31566 N 2901.13 -0.156425 -7.01926 0
M  V30 31567 H 2905.97 -1.29158 -2.68556 0
M  V30 31568 H 2903.51 -0.648142 -1.32051 0
M  V30 31569 H 2905.47 0.741651 -4.10555 0
M  V30 31570 H 2904.1 1.11814 -3.02816 0
M  V30 31571 H 2903.15 -1.23367 -3.5984 0
M  V30 31572 H 2904.46 -1.40855 -4.78499 0
M  V30 31573 H 2903.62 0.585877 -6.03865 0
M  V30 31574 H 2902.35 0.852576 -4.8019 0
M  V30 31575 H 2901.36 -1.39366 -5.31843 0
M  V30 31576 H 2902.58 -1.64905 -6.58774 0
M  V30 31577 H 2900.53 0.594298 -6.53302 0
M  V30 31578 H 2900.45 -0.832038 -7.51407 0
M  V30 31579 H 2901.72 0.325102 -7.78822 0
M  V30 31580 N 2905.94 1.41194 -0.700139 0
M  V30 31581 C 2906.85 2.34569 -0.0383266 0
M  V30 31582 C 2907.87 1.56476 0.761009 0
M  V30 31583 O 2909.05 1.88935 0.69752 0
M  V30 31584 C 2906.11 3.35255 0.883463 0
M  V30 31585 C 2905.17 4.29233 0.0758202 0
M  V30 31586 C 2904.41 5.2511 0.953707 0
M  V30 31587 O 2904.63 5.26551 2.19317 0
M  V30 31588 O 2903.56 6.00563 0.400943 0
M  V30 31589 H 2907.39 2.92751 -0.808125 0
M  V30 31590 H 2904.97 1.42126 -0.460504 0
M  V30 31591 H 2906.86 3.97043 1.41192 0
M  V30 31592 H 2905.53 2.79509 1.63267 0
M  V30 31593 H 2904.44 3.70779 -0.49734 0
M  V30 31594 H 2905.77 4.88089 -0.634827 0
M  V30 31595 N 2907.42 0.445212 1.51181 0
M  V30 31596 C 2908.37 -0.36225 2.27939 0
M  V30 31597 C 2909.34 -1.00998 1.31866 0
M  V30 31598 O 2910.52 -1.02738 1.60778 0
M  V30 31599 C 2907.66 -1.45305 3.13018 0
M  V30 31600 C 2906.78 -0.822682 4.24094 0
M  V30 31601 C 2905.91 -1.8892 4.9647 0
M  V30 31602 C 2904.95 -1.23768 5.99456 0
M  V30 31603 N 2904.09 -2.2459 6.6521 0
M  V30 31604 H 2908.93 0.298672 2.96499 0
M  V30 31605 H 2906.47 0.159136 1.46237 0
M  V30 31606 H 2908.42 -2.09686 3.60677 0
M  V30 31607 H 2907.05 -2.0835 2.46557 0
M  V30 31608 H 2906.11 -0.0669696 3.80341 0
M  V30 31609 H 2907.42 -0.307096 4.97854 0
M  V30 31610 H 2906.57 -2.60943 5.47717 0
M  V30 31611 H 2905.31 -2.43853 4.22359 0
M  V30 31612 H 2904.32 -0.502945 5.47495 0
M  V30 31613 H 2905.54 -0.695575 6.75528 0
M  V30 31614 H 2903.49 -2.78589 5.93906 0
M  V30 31615 H 2903.4 -1.77945 7.3476 0
M  V30 31616 H 2904.67 -2.96073 7.21083 0
M  V30 31617 N 2908.9 -1.56605 0.176849 0
M  V30 31618 C 2910.13 -2.01134 -0.472107 0
M  V30 31619 C 2910.54 -1.05616 -1.56977 0
M  V30 31620 O 2909.88 -0.050046 -1.83632 0
M  V30 31621 C 2909.94 -3.42083 -1.10541 0
M  V30 31622 C 2909.61 -4.56758 -0.148726 0
M  V30 31623 C 2910.6 -5.16007 0.63503 0
M  V30 31624 C 2908.29 -5.02282 -0.0429443 0
M  V30 31625 C 2910.28 -6.19214 1.51171 0
M  V30 31626 C 2907.97 -6.05336 0.837317 0
M  V30 31627 C 2908.97 -6.63675 1.61323 0
M  V30 31628 O 2908.66 -7.6473 2.47877 0
M  V30 31629 H 2908.39 -0.664396 -0.124713 0
M  V30 31630 H 2910.94 -2.03519 0.277365 0
M  V30 31631 H 2909.17 -3.36628 -1.90312 0
M  V30 31632 H 2910.86 -3.70532 -1.65714 0
M  V30 31633 H 2911.63 -4.81715 0.563509 0
M  V30 31634 H 2907.51 -4.56582 -0.636672 0
M  V30 31635 H 2911.05 -6.64677 2.11779 0
M  V30 31636 H 2906.95 -6.39053 0.91002 0
M  V30 31637 H 2907.72 -7.82076 2.41453 0
M  V30 31638 N 2910.38 0.0968524 -1.57302 0
M  V30 31639 C 2911.29 1.13602 -2.0526 0
M  V30 31640 C 2912.3 1.43971 -0.977162 0
M  V30 31641 O 2913.48 1.54647 -1.2902 0
M  V30 31642 C 2910.55 2.43702 -2.46597 0
M  V30 31643 C 2909.61 2.20532 -3.68326 0
M  V30 31644 C 2908.84 3.44428 -4.07682 0
M  V30 31645 O 2909.06 4.52597 -3.47149 0
M  V30 31646 O 2908 3.3412 -5.00647 0
M  V30 31647 H 2911.82 0.7587 -2.9407 0
M  V30 31648 H 2909.41 0.309237 -1.46165 0
M  V30 31649 H 2911.29 3.20313 -2.7382 0
M  V30 31650 H 2909.96 2.80864 -1.60925 0
M  V30 31651 H 2908.87 1.41707 -3.46222 0
M  V30 31652 H 2910.2 1.88263 -4.54772 0
M  V30 31653 N 2911.86 1.53252 0.36763 0
M  V30 31654 C 2912.79 1.75827 1.47029 0
M  V30 31655 C 2913.8 0.639007 1.49735 0
M  V30 31656 O 2914.99 0.91522 1.53251 0
M  V30 31657 C 2912.09 1.82127 2.85802 0
M  V30 31658 C 2911.26 3.11741 3.06816 0
M  V30 31659 C 2910.32 3.0931 4.25692 0
M  V30 31660 O 2909.35 3.83115 4.20965 0
M  V30 31661 N 2910.55 2.29986 5.32998 0
M  V30 31662 H 2913.32 2.7097 1.28044 0
M  V30 31663 H 2910.88 1.52005 0.557336 0
M  V30 31664 H 2912.87 1.77981 3.63462 0
M  V30 31665 H 2911.44 0.942769 2.98045 0
M  V30 31666 H 2910.66 3.29206 2.16834 0
M  V30 31667 H 2911.95 3.97403 3.17724 0
M  V30 31668 H 2911.34 1.6953 5.397 0
M  V30 31669 H 2909.9 2.3166 6.09243 0
M  V30 31670 N 2913.34 -0.627313 1.44577 0
M  V30 31671 C 2914.61 -1.38584 1.38036 0
M  V30 31672 C 2914.99 -2.1106 0.0409839 0
M  V30 31673 O 2914.34 -2.06581 -0.976546 0
M  V30 31674 C 2914.55 -2.34909 2.58106 0
M  V30 31675 C 2915.9 -2.98123 3.02337 0
M  V30 31676 O 2916.92 -2.45234 2.58339 0
M  V30 31677 O 2915.78 -3.94078 3.78635 0
M  V30 31678 H 2912.88 -0.620424 0.546811 0
M  V30 31679 H 2915.42 -0.652049 1.56673 0
M  V30 31680 H 2914.19 -1.80479 3.47193 0
M  V30 31681 H 2913.82 -3.15699 2.41702 0
M  V30 31682 N 2914.81 -1.31539 -0.868063 0
M  V30 31683 C 2916.23 -1.10237 -1.15412 0
M  V30 31684 C 2916.43 0.125912 -2.01106 0
M  V30 31685 O 2915.49 0.814691 -2.38996 0
M  V30 31686 C 2916.8 -2.37491 -1.84441 0
M  V30 31687 C 2918.35 -2.43119 -1.97134 0
M  V30 31688 C 2918.82 -3.70259 -2.69578 0
M  V30 31689 N 2920.31 -3.71164 -2.77113 0
M  V30 31690 C 2921.05 -4.66236 -3.33783 0
M  V30 31691 N 2920.54 -5.71666 -3.9137 0
M  V30 31692 N 2922.34 -4.53753 -3.31759 0
M  V30 31693 H 2914.49 -2.10312 -0.297072 0
M  V30 31694 H 2916.75 -0.927893 -0.194211 0
M  V30 31695 H 2916.46 -3.27218 -1.28924 0
M  V30 31696 H 2916.33 -2.47433 -2.84704 0
M  V30 31697 H 2918.72 -1.5386 -2.51815 0
M  V30 31698 H 2918.8 -2.3714 -0.959078 0
M  V30 31699 H 2918.44 -4.59885 -2.15564 0
M  V30 31700 H 2918.37 -3.73505 -3.71216 0
M  V30 31701 H 2920.86 -2.94953 -2.36244 0
M  V30 31702 H 2921.18 -6.40286 -4.32729 0
M  V30 31703 H 2919.52 -5.75437 -3.8974 0
M  V30 31704 H 2922.71 -3.70562 -2.8601 0
M  V30 31705 H 2922.89 -5.28023 -3.75627 0
M  V30 31706 N 2916.29 1.08262 -1.1453 0
M  V30 31707 C 2917.52 1.84416 -0.937996 0
M  V30 31708 C 2917.93 1.81682 0.513538 0
M  V30 31709 O 2917.29 1.22155 1.35589 0
M  V30 31710 C 2917.34 3.31894 -1.43277 0
M  V30 31711 O 2917.06 3.34646 -2.82744 0
M  V30 31712 C 2918.56 4.24849 -1.26562 0
M  V30 31713 H 2915.78 0.58213 -0.333714 0
M  V30 31714 H 2918.33 1.3672 -1.52078 0
M  V30 31715 H 2916.48 3.76974 -0.892719 0
M  V30 31716 H 2916.9 4.26718 -3.04978 0
M  V30 31717 H 2918.37 5.26436 -1.6604 0
M  V30 31718 H 2918.85 4.38704 -0.208666 0
M  V30 31719 H 2919.45 3.85597 -1.7943 0
M  V30 31720 N 2917.77 0.940655 1.26449 0
M  V30 31721 C 2918.68 0.455922 2.30127 0
M  V30 31722 C 2919.7 -0.469837 1.67537 0
M  V30 31723 O 2920.87 -0.349494 1.98344 0
M  V30 31724 C 2917.94 -0.271587 3.45635 0
M  V30 31725 C 2917 0.690668 4.23708 0
M  V30 31726 C 2916.23 -0.00221666 5.337 0
M  V30 31727 O 2916.45 -1.21925 5.57217 0
M  V30 31728 O 2915.39 0.676216 5.98089 0
M  V30 31729 H 2919.21 1.31712 2.73652 0
M  V30 31730 H 2916.8 0.70652 1.31638 0
M  V30 31731 H 2918.68 -0.681413 4.15854 0
M  V30 31732 H 2917.36 -1.10818 3.0414 0
M  V30 31733 H 2916.26 1.15043 3.55972 0
M  V30 31734 H 2917.6 1.49486 4.68951 0
M  V30 31735 N 2919.25 -1.40821 0.707617 0
M  V30 31736 C 2920.19 -2.30746 0.0499435 0
M  V30 31737 C 2921.16 -1.4776 -0.758692 0
M  V30 31738 O 2922.35 -1.76519 -0.724268 0
M  V30 31739 C 2919.49 -3.33909 -0.871698 0
M  V30 31740 C 2918.6 -4.31967 -0.0533896 0
M  V30 31741 C 2917.74 -5.22198 -0.973777 0
M  V30 31742 C 2916.78 -6.11918 -0.149087 0
M  V30 31743 N 2915.91 -6.94594 -1.02392 0
M  V30 31744 H 2920.75 -2.86424 0.822512 0
M  V30 31745 H 2918.29 -1.41057 0.417309 0
M  V30 31746 H 2920.25 -3.92283 -1.42021 0
M  V30 31747 H 2918.88 -2.79753 -1.61053 0
M  V30 31748 H 2917.93 -3.75441 0.612208 0
M  V30 31749 H 2919.24 -4.95352 0.585441 0
M  V30 31750 H 2918.4 -5.85465 -1.59111 0
M  V30 31751 H 2917.14 -4.59068 -1.64644 0
M  V30 31752 H 2916.14 -5.4769 0.481234 0
M  V30 31753 H 2917.37 -6.77107 0.51996 0
M  V30 31754 H 2915.31 -6.3406 -1.68238 0
M  V30 31755 H 2915.23 -7.54713 -0.440944 0
M  V30 31756 H 2916.5 -7.62317 -1.62768 0
M  V30 31757 N 2920.73 -0.453223 -1.50943 0
M  V30 31758 C 2921.64 0.355922 -2.31884 0
M  V30 31759 C 2922.65 1.01285 -1.41483 0
M  V30 31760 O 2923.83 1.00474 -1.74548 0
M  V30 31761 C 2920.89 1.43363 -3.15671 0
M  V30 31762 C 2919.95 0.795179 -4.21871 0
M  V30 31763 C 2919.19 1.82153 -5.01653 0
M  V30 31764 O 2919.41 3.04583 -4.82271 0
M  V30 31765 O 2918.34 1.40325 -5.85314 0
M  V30 31766 H 2922.17 -0.305301 -3.02162 0
M  V30 31767 H 2919.75 -0.215424 -1.47839 0
M  V30 31768 H 2921.64 2.05829 -3.67712 0
M  V30 31769 H 2920.31 2.07865 -2.48141 0
M  V30 31770 H 2919.22 0.13204 -3.73867 0
M  V30 31771 H 2920.55 0.193398 -4.9182 0
M  V30 31772 N 2922.2 1.56509 -0.185151 0
M  V30 31773 C 2923.48 1.89013 0.503315 0
M  V30 31774 C 2923.86 1.09718 1.80348 0
M  V30 31775 O 2923.21 0.195243 2.27664 0
M  V30 31776 C 2923.42 3.41242 0.731779 0
M  V30 31777 C 2924.77 4.11269 1.0556 0
M  V30 31778 O 2925.79 3.46637 0.819845 0
M  V30 31779 O 2924.65 5.25481 1.50107 0
M  V30 31780 H 2921.74 0.784693 0.261125 0
M  V30 31781 H 2924.29 1.68207 -0.224622 0
M  V30 31782 H 2923.06 3.90854 -0.186789 0
M  V30 31783 H 2922.68 3.67707 1.51254 0
M  V30 31784 N 2923.68 -0.0885089 1.57351 0
M  V30 31785 C 2924.63 -1.1069 2.02525 0
M  V30 31786 C 2925.6 -1.39425 0.902761 0
M  V30 31787 O 2926.78 -1.50777 1.16923 0
M  V30 31788 C 2923.92 -2.42011 2.46017 0
M  V30 31789 C 2923.04 -2.1995 3.71814 0
M  V30 31790 C 2922.17 -3.44717 4.04158 0
M  V30 31791 C 2921.21 -3.17946 5.23045 0
M  V30 31792 N 2920.35 -4.34997 5.51109 0
M  V30 31793 H 2925.19 -0.714691 2.89303 0
M  V30 31794 H 2922.72 -0.341353 1.43085 0
M  V30 31795 H 2924.68 -3.1866 2.6928 0
M  V30 31796 H 2923.31 -2.79066 1.6224 0
M  V30 31797 H 2922.36 -1.34073 3.5599 0
M  V30 31798 H 2923.68 -1.96165 4.58607 0
M  V30 31799 H 2922.83 -4.2977 4.28232 0
M  V30 31800 H 2921.57 -3.71562 3.159 0
M  V30 31801 H 2920.57 -2.31288 4.98785 0
M  V30 31802 H 2921.8 -2.9244 6.12907 0
M  V30 31803 H 2919.75 -4.61906 4.6581 0
M  V30 31804 H 2919.66 -4.14426 6.32287 0
M  V30 31805 H 2920.93 -5.21096 5.79724 0
M  V30 31806 N 2925.16 -1.53445 -0.359498 0
M  V30 31807 C 2926.41 -1.69586 -1.09932 0
M  V30 31808 C 2926.73 -0.453404 -1.89656 0
M  V30 31809 O 2926 0.532597 -1.88521 0
M  V30 31810 H 2924.58 -0.625192 -0.408832 0
M  V30 31811 H 2927.24 -1.90653 -0.404637 0
M  V30 31812 H 2926.34 -2.55967 -1.7857 0
M  V30 31813 N 2926.64 0.619637 -1.44908 0
M  V30 31814 C 2927.58 1.73102 -1.52657 0
M  V30 31815 C 2928.55 1.61849 -0.373362 0
M  V30 31816 O 2929.74 1.81605 -0.585174 0
M  V30 31817 C 2926.88 3.11384 -1.48775 0
M  V30 31818 C 2925.99 3.3353 -2.74557 0
M  V30 31819 C 2925.13 4.61849 -2.62429 0
M  V30 31820 C 2924.17 4.77213 -3.83321 0
M  V30 31821 N 2923.3 5.96819 -3.69799 0
M  V30 31822 H 2928.14 1.65815 -2.47607 0
M  V30 31823 H 2925.68 0.808698 -1.22876 0
M  V30 31824 H 2927.64 3.91372 -1.44513 0
M  V30 31825 H 2926.27 3.17659 -0.573839 0
M  V30 31826 H 2925.32 2.47402 -2.88957 0
M  V30 31827 H 2926.63 3.40759 -3.64259 0
M  V30 31828 H 2925.79 5.50014 -2.56065 0
M  V30 31829 H 2924.53 4.56998 -1.70306 0
M  V30 31830 H 2923.53 3.87474 -3.90056 0
M  V30 31831 H 2924.76 4.8387 -4.76495 0
M  V30 31832 H 2922.7 5.93036 -2.80436 0
M  V30 31833 H 2922.62 6.05155 -4.53127 0
M  V30 31834 H 2923.89 6.87515 -3.67347 0
M  V30 31835 N 2928.12 1.31997 0.861075 0
M  V30 31836 C 2929.39 1.12817 1.59786 0
M  V30 31837 C 2929.77 -0.313846 2.08754 0
M  V30 31838 O 2929.12 -1.30942 1.8726 0
M  V30 31839 C 2929.33 2.15017 2.74898 0
M  V30 31840 C 2930.68 2.4801 3.44639 0
M  V30 31841 O 2931.7 2.13513 2.85115 0
M  V30 31842 O 2930.56 3.07121 4.52039 0
M  V30 31843 H 2927.66 0.434921 0.703401 0
M  V30 31844 H 2930.2 1.43506 0.905763 0
M  V30 31845 H 2928.97 3.11976 2.36193 0
M  V30 31846 H 2928.6 1.85285 3.51788 0
M  V30 31847 N 2929.59 -1.07653 1.15103 0
M  V30 31848 C 2930.82 -1.84455 0.948209 0
M  V30 31849 C 2931.24 -1.81377 -0.498401 0
M  V30 31850 O 2930.6 -1.20447 -1.35507 0
M  V30 31851 C 2930.65 -3.29578 1.46324 0
M  V30 31852 O 2929.75 -4.07078 0.660414 0
M  V30 31853 H 2929.1 -0.571275 0.338438 0
M  V30 31854 H 2931.63 -1.35825 1.53012 0
M  V30 31855 H 2931.64 -3.80414 1.47475 0
M  V30 31856 H 2930.31 -3.31134 2.51641 0
M  V30 31857 H 2928.89 -3.65917 0.718281 0
M  V30 31858 N 2931.07 -0.947348 -1.25949 0
M  V30 31859 C 2932.02 -0.460537 -2.26159 0
M  V30 31860 C 2932.99 0.483097 -1.58919 0
M  V30 31861 O 2934.17 0.397951 -1.86604 0
M  V30 31862 C 2931.31 0.262409 -3.44101 0
M  V30 31863 C 2930.43 -0.717614 -4.25998 0
M  V30 31864 C 2929.56 0.0271552 -5.31193 0
M  V30 31865 C 2928.6 -0.944283 -6.04772 0
M  V30 31866 N 2927.74 -0.230865 -7.0172 0
M  V30 31867 H 2932.58 -1.32 -2.67171 0
M  V30 31868 H 2930.12 -0.662111 -1.31356 0
M  V30 31869 H 2932.07 0.698065 -4.11318 0
M  V30 31870 H 2930.7 1.08596 -3.03985 0
M  V30 31871 H 2929.76 -1.27177 -3.58511 0
M  V30 31872 H 2931.07 -1.45922 -4.76978 0
M  V30 31873 H 2930.22 0.521796 -6.04452 0
M  V30 31874 H 2928.96 0.801598 -4.81067 0
M  V30 31875 H 2927.97 -1.44999 -5.30335 0
M  V30 31876 H 2929.19 -1.71883 -6.56988 0
M  V30 31877 H 2927.14 0.524973 -6.53896 0
M  V30 31878 H 2927.05 -0.911688 -7.50483 0
M  V30 31879 H 2928.32 0.242479 -7.79123 0
M  V30 31880 N 2932.55 1.40444 -0.715075 0
M  V30 31881 C 2933.46 2.34515 -0.0632036 0
M  V30 31882 C 2934.48 1.57274 0.744369 0
M  V30 31883 O 2935.65 1.89665 0.677442 0
M  V30 31884 C 2932.72 3.36173 0.847855 0
M  V30 31885 C 2931.78 4.29289 0.0302901 0
M  V30 31886 C 2931.01 5.26092 0.897959 0
M  V30 31887 O 2931.23 5.28848 2.1372 0
M  V30 31888 O 2930.17 6.00955 0.337223 0
M  V30 31889 H 2933.99 2.91877 -0.839129 0
M  V30 31890 H 2931.58 1.41629 -0.475552 0
M  V30 31891 H 2933.46 3.98518 1.36973 0
M  V30 31892 H 2932.14 2.81225 1.60294 0
M  V30 31893 H 2931.04 3.70231 -0.536638 0
M  V30 31894 H 2932.38 4.87388 -0.68656 0
M  V30 31895 N 2934.03 0.461222 1.507 0
M  V30 31896 C 2935.25 -0.0974409 2.07171 0
M  V30 31897 C 2935.68 -1.33617 1.32393 0
M  V30 31898 O 2935.04 -1.77511 0.368707 0
M  V30 31899 C 2935.08 -0.374346 3.58652 0
M  V30 31900 O 2934.19 -1.45664 3.85818 0
M  V30 31901 H 2933.53 0.00863214 0.663944 0
M  V30 31902 H 2936.06 0.649428 1.9402 0
M  V30 31903 H 2936.07 -0.617772 4.03296 0
M  V30 31904 H 2934.74 0.530902 4.12498 0
M  V30 31905 H 2933.32 -1.2013 3.5302 0
M  V30 31906 N 2935.51 -1.56408 0.193449 0
M  V30 31907 C 2936.45 -2.19015 -0.728085 0
M  V30 31908 C 2937.42 -1.13688 -1.21096 0
M  V30 31909 O 2938.61 -1.41932 -1.27515 0
M  V30 31910 C 2935.75 -2.85224 -1.94272 0
M  V30 31911 C 2934.86 -4.05072 -1.50136 0
M  V30 31912 C 2934 -4.59142 -2.67137 0
M  V30 31913 C 2933.04 -5.71352 -2.19599 0
M  V30 31914 N 2932.17 -6.19835 -3.29772 0
M  V30 31915 H 2937.01 -2.9741 -0.187447 0
M  V30 31916 H 2934.55 -1.46878 -0.0807806 0
M  V30 31917 H 2936.51 -3.21779 -2.65545 0
M  V30 31918 H 2935.14 -2.09395 -2.4567 0
M  V30 31919 H 2934.19 -3.7419 -0.684558 0
M  V30 31920 H 2935.5 -4.86234 -1.11258 0
M  V30 31921 H 2934.66 -4.97994 -3.46535 0
M  V30 31922 H 2933.39 -3.77084 -3.09288 0
M  V30 31923 H 2932.4 -5.32029 -1.38654 0
M  V30 31924 H 2933.62 -6.55226 -1.78481 0
M  V30 31925 H 2931.57 -5.40699 -3.71457 0
M  V30 31926 H 2931.49 -6.96044 -2.95057 0
M  V30 31927 H 2932.76 -6.63341 -4.09389 0
M  V30 31928 N 2936.98 0.0801629 -1.57396 0
M  V30 31929 C 2937.93 1.09614 -2.03109 0
M  V30 31930 C 2938.9 1.38945 -0.910142 0
M  V30 31931 O 2940.09 1.50154 -1.17721 0
M  V30 31932 C 2937.23 2.40703 -2.47297 0
M  V30 31933 C 2936.34 2.17975 -3.72976 0
M  V30 31934 C 2935.47 3.42569 -4.05981 0
M  V30 31935 C 2934.51 3.15168 -5.24724 0
M  V30 31936 N 2933.65 4.32069 -5.53409 0
M  V30 31937 H 2938.49 0.699339 -2.89678 0
M  V30 31938 H 2936.03 0.33376 -1.43264 0
M  V30 31939 H 2937.99 3.17227 -2.70966 0
M  V30 31940 H 2936.62 2.78202 -1.63718 0
M  V30 31941 H 2935.67 1.32183 -3.56696 0
M  V30 31942 H 2936.98 1.9373 -4.59641 0
M  V30 31943 H 2936.13 4.27493 -4.30505 0
M  V30 31944 H 2934.87 3.69882 -3.17866 0
M  V30 31945 H 2933.88 2.28639 -5.00004 0
M  V30 31946 H 2935.1 2.89186 -6.1445 0
M  V30 31947 H 2933.05 4.59429 -4.68253 0
M  V30 31948 H 2932.97 4.11067 -6.34476 0
M  V30 31949 H 2934.23 5.18014 -5.82479 0
M  V30 31950 O 2938.5 1.5994 0.223907 0
M  V30 31951 H 2939.19 1.73299 0.865287 0
M  V30 END ATOM
M  V30 BEGIN BOND
M  V30 END BOND
M  V30 END CTAB
M  END
$$$$
